0:0
     RDKit          3D

 66 69  0  0  1  0  0  0  0  0999 V2000
    1.0430   25.0440  -27.3880 C   0  0  0  0  0  0  0  0  0  0  0  0
   -0.1760   25.6680  -26.7450 C   0  0  0  0  0  0  0  0  0  0  0  0
   -1.2430   25.7700  -27.7070 N   0  0  0  0  0  0  0  0  0  0  0  0
   -1.8660   24.8020  -28.2410 C   0  0  0  0  0  0  0  0  0  0  0  0
   -1.5160   23.5500  -27.8930 N   0  0  0  0  0  0  0  0  0  0  0  0
   -2.1660   22.5110  -28.4500 C   0  0  0  0  0  0  0  0  0  0  0  0
   -1.7850   21.1950  -28.0720 N   0  0  0  0  0  0  0  0  0  0  0  0
   -0.5190   20.6930  -28.5690 C   0  0  0  0  0  0  0  0  0  0  0  0
    0.0030   19.4950  -27.8580 C   0  0  0  0  0  0  0  0  0  0  0  0
   -1.0880   18.5170  -27.4770 C   0  0  0  0  0  0  0  0  0  0  0  0
   -0.4960   17.4240  -26.7710 N   0  0  0  0  0  0  0  0  0  0  0  0
   -2.0110   19.2850  -26.5470 C   0  0  0  0  0  0  0  0  0  0  0  0
   -2.6710   20.4400  -27.2220 C   0  0  0  0  0  0  0  0  0  0  0  0
   -3.1680   22.7810  -29.3580 C   0  0  0  0  0  0  0  0  0  0  0  0
   -3.5240   24.0680  -29.7110 C   0  0  0  0  0  0  0  0  0  0  0  0
   -4.4630   24.2820  -30.5610 N   0  0  0  0  0  0  0  0  0  0  0  0
   -5.1840   23.1950  -31.1800 C   0  0  0  0  0  0  0  0  0  0  0  0
   -4.4840   22.2360  -31.9030 C   0  0  0  0  0  0  0  0  0  0  0  0
   -5.0950   21.1820  -32.5150 C   0  0  0  0  0  0  0  0  0  0  0  0
   -4.4220   20.1810  -33.2640 N   0  0  0  0  0  0  0  0  0  0  0  0
   -5.0840   19.2640  -34.1650 C   0  0  0  0  0  0  0  0  0  0  0  0
   -4.6240   17.8560  -33.7640 C   0  0  0  0  0  0  0  0  0  0  0  0
   -3.2570   17.7400  -33.7340 O   0  0  0  0  0  0  0  0  0  0  0  0
   -2.5840   18.8950  -34.0700 C   0  0  0  0  0  0  0  0  0  0  0  0
   -2.9780   20.0440  -33.1380 C   0  0  0  0  0  0  0  0  0  0  0  0
   -6.4840   21.1060  -32.3820 C   0  0  0  0  0  0  0  0  0  0  0  0
   -7.2010   22.0450  -31.6690 C   0  0  0  0  0  0  0  0  0  0  0  0
   -8.9350   21.8290  -31.5800 S   0  0  0  0  0  0  0  0  0  0  0  0
   -9.3200   20.2680  -32.3440 C   0  0  0  0  0  0  0  0  0  0  0  0
   -9.3590   21.7280  -30.1340 O   0  0  0  0  0  0  0  0  0  0  0  0
   -9.6900   22.9230  -32.2780 O   0  0  0  0  0  0  0  0  0  0  0  0
   -6.5540   23.1090  -31.0550 C   0  0  0  0  0  0  0  0  0  0  0  0
   -2.8430   25.0700  -29.1260 N   0  0  0  0  0  0  0  0  0  0  0  0
    1.7308   24.6919  -26.6051 H   0  0  0  0  0  0  0  0  0  0  0  0
    0.7330   24.1937  -28.0132 H   0  0  0  0  0  0  0  0  0  0  0  0
    1.5515   25.7927  -28.0132 H   0  0  0  0  0  0  0  0  0  0  0  0
   -0.5041   25.0418  -25.9023 H   0  0  0  0  0  0  0  0  0  0  0  0
    0.0818   26.6745  -26.3839 H   0  0  0  0  0  0  0  0  0  0  0  0
   -0.7660   23.3990  -27.2150 H   0  0  0  0  0  0  0  0  0  0  0  0
   -0.6479   20.4315  -29.6297 H   0  0  0  0  0  0  0  0  0  0  0  0
    0.2165   21.4942  -28.4040 H   0  0  0  0  0  0  0  0  0  0  0  0
    0.7213   18.9820  -28.5144 H   0  0  0  0  0  0  0  0  0  0  0  0
    0.4762   19.8422  -26.9276 H   0  0  0  0  0  0  0  0  0  0  0  0
   -1.6268   18.1213  -28.3506 H   0  0  0  0  0  0  0  0  0  0  0  0
    0.2560   16.9260  -27.2550 H   0  0  0  0  0  0  0  0  0  0  0  0
   -1.2160   16.8210  -26.3200 H   0  0  0  0  0  0  0  0  0  0  0  0
   -2.7891   18.6005  -26.1781 H   0  0  0  0  0  0  0  0  0  0  0  0
   -1.3996   19.6839  -25.7242 H   0  0  0  0  0  0  0  0  0  0  0  0
   -3.4993   20.0569  -27.8361 H   0  0  0  0  0  0  0  0  0  0  0  0
   -3.0170   21.1213  -26.4307 H   0  0  0  0  0  0  0  0  0  0  0  0
   -3.7046   21.9387  -29.8191 H   0  0  0  0  0  0  0  0  0  0  0  0
   -3.3912   22.3315  -31.9848 H   0  0  0  0  0  0  0  0  0  0  0  0
   -6.1757   19.3513  -34.0625 H   0  0  0  0  0  0  0  0  0  0  0  0
   -4.8321   19.4827  -35.2132 H   0  0  0  0  0  0  0  0  0  0  0  0
   -5.0198   17.6268  -32.7636 H   0  0  0  0  0  0  0  0  0  0  0  0
   -5.0034   17.1519  -34.5192 H   0  0  0  0  0  0  0  0  0  0  0  0
   -1.5014   18.7186  -33.9875 H   0  0  0  0  0  0  0  0  0  0  0  0
   -2.8493   19.1705  -35.1014 H   0  0  0  0  0  0  0  0  0  0  0  0
   -2.7052   19.8053  -32.0994 H   0  0  0  0  0  0  0  0  0  0  0  0
   -2.4586   20.9765  -33.4037 H   0  0  0  0  0  0  0  0  0  0  0  0
   -7.0214   20.2735  -32.8595 H   0  0  0  0  0  0  0  0  0  0  0  0
   -9.5059   19.5143  -31.5647 H   0  0  0  0  0  0  0  0  0  0  0  0
  -10.2180   20.3776  -32.9697 H   0  0  0  0  0  0  0  0  0  0  0  0
   -8.4740   19.9475  -32.9697 H   0  0  0  0  0  0  0  0  0  0  0  0
   -7.1185   23.8617  -30.4852 H   0  0  0  0  0  0  0  0  0  0  0  0
   -3.0630   26.0450  -29.3500 H   0  0  0  0  0  0  0  0  0  0  0  0
  1  2  1  0
  2  3  1  0
  3  4  2  0
  4  5  1  0
  5  6  1  0
  6  7  1  0
  7  8  1  0
  8  9  1  0
  9 10  1  0
 10 11  1  0
 10 12  1  0
 12 13  1  0
  6 14  2  0
 14 15  1  0
 15 16  2  0
 16 17  1  0
 17 18  2  0
 18 19  1  0
 19 20  1  0
 20 21  1  0
 21 22  1  0
 22 23  1  0
 23 24  1  0
 24 25  1  0
 19 26  2  0
 26 27  1  0
 27 28  1  0
 28 29  1  0
 28 30  2  0
 28 31  2  0
 27 32  2  0
 15 33  1  0
 33  4  1  0
 13  7  1  0
 32 17  1  0
 25 20  1  0
  1 34  1  0
  1 35  1  0
  1 36  1  0
  2 37  1  0
  2 38  1  0
  5 39  1  0
  8 40  1  0
  8 41  1  0
  9 42  1  0
  9 43  1  0
 10 44  1  0
 11 45  1  0
 11 46  1  0
 12 47  1  0
 12 48  1  0
 13 49  1  0
 13 50  1  0
 14 51  1  0
 18 52  1  0
 21 53  1  0
 21 54  1  0
 22 55  1  0
 22 56  1  0
 24 57  1  0
 24 58  1  0
 25 59  1  0
 25 60  1  0
 26 61  1  0
 29 62  1  0
 29 63  1  0
 29 64  1  0
 32 65  1  0
 33 66  1  0
M  END
>  <smiles>  (1) 
CCN=c1[nH]c(N2CCC(N)CC2)cc(=Nc2cc(N3CCOCC3)cc(S(C)(=O)=O)c2)[nH]1

>  <score_type>  (1) 
oracle

>  <origin>  (1) 
adgpu

>  <m_score__min__energy>  (1) 
-10.56

>  <m_primary>  (1) 
energy

$$$$
1:0
     RDKit          3D

 64 68  0  0  0  0  0  0  0  0999 V2000
   -0.4000   24.4300  -29.1520 O   0  0  0  0  0  0  0  0  0  0  0  0
   -1.7980   23.8750  -29.1370 S   0  0  0  0  0  0  0  0  0  0  0  0
   -2.7510   24.9380  -29.6130 O   0  0  0  0  0  0  0  0  0  0  0  0
   -1.9190   22.4980  -30.2300 C   0  0  0  0  0  0  0  0  0  0  0  0
   -0.9480   21.4880  -30.2240 C   0  0  0  0  0  0  0  0  0  0  0  0
   -1.0450   20.4130  -31.1130 C   0  0  0  0  0  0  0  0  0  0  0  0
   -2.1150   20.3350  -32.0230 C   0  0  0  0  0  0  0  0  0  0  0  0
   -2.2130   19.2150  -32.9870 C   0  0  0  0  0  0  0  0  0  0  0  0
   -3.1210   18.2180  -32.8810 N   0  0  0  0  0  0  0  0  0  0  0  0
   -3.0240   17.3200  -33.8990 C   0  0  0  0  0  0  0  0  0  0  0  0
   -3.9430   16.1330  -33.9980 C   0  0  0  0  0  0  0  0  0  0  0  0
   -5.3520   16.5310  -34.2380 N   0  0  0  0  0  0  0  0  0  0  0  0
   -5.4410   17.8110  -34.9980 C   0  0  0  0  0  0  0  0  0  0  0  0
   -5.5860   19.0420  -34.0920 C   0  0  0  0  0  0  0  0  0  0  0  0
   -6.7490   18.8940  -33.2060 N   0  0  0  0  0  0  0  0  0  0  0  0
   -7.3900   20.0570  -32.6320 C   0  0  0  0  0  0  0  0  0  0  0  0
   -8.7920   20.1290  -32.5410 C   0  0  0  0  0  0  0  0  0  0  0  0
   -9.4100   21.2540  -31.9930 C   0  0  0  0  0  0  0  0  0  0  0  0
   -8.6400   22.3230  -31.5270 C   0  0  0  0  0  0  0  0  0  0  0  0
   -7.2380   22.2800  -31.6170 C   0  0  0  0  0  0  0  0  0  0  0  0
   -6.3850   23.4030  -31.0820 C   0  0  0  0  0  0  0  0  0  0  0  0
   -5.5150   23.8260  -32.0720 F   0  0  0  0  0  0  0  0  0  0  0  0
   -5.6450   23.0010  -29.9820 F   0  0  0  0  0  0  0  0  0  0  0  0
   -7.1870   24.4660  -30.7030 F   0  0  0  0  0  0  0  0  0  0  0  0
   -6.6220   21.1390  -32.1610 C   0  0  0  0  0  0  0  0  0  0  0  0
   -7.2590   17.5430  -32.9390 C   0  0  0  0  0  0  0  0  0  0  0  0
   -6.0930   16.5480  -32.9450 C   0  0  0  0  0  0  0  0  0  0  0  0
   -2.0290   17.5910  -34.8340 C   0  0  0  0  0  0  0  0  0  0  0  0
   -1.2550   19.0050  -34.3590 S   0  0  0  0  0  0  0  0  0  0  0  0
   -3.0900   21.3470  -32.0150 C   0  0  0  0  0  0  0  0  0  0  0  0
   -2.9920   22.4200  -31.1240 C   0  0  0  0  0  0  0  0  0  0  0  0
   -2.2290   23.3790  -27.5130 N   0  0  0  0  0  0  0  0  0  0  0  0
   -1.7950   24.3830  -26.5350 C   0  0  0  0  0  0  0  0  0  0  0  0
   -2.9550   25.3380  -26.2920 C   0  0  0  0  0  0  0  0  0  0  0  0
   -4.1890   24.6140  -26.7980 C   0  0  0  0  0  0  0  0  0  0  0  0
   -3.6880   23.2960  -27.3710 C   0  0  0  0  0  0  0  0  0  0  0  0
   -0.1065   21.5409  -29.5176 H   0  0  0  0  0  0  0  0  0  0  0  0
   -0.2796   19.6231  -31.1007 H   0  0  0  0  0  0  0  0  0  0  0  0
   -3.6089   15.4952  -34.8296 H   0  0  0  0  0  0  0  0  0  0  0  0
   -3.9035   15.5956  -33.0390 H   0  0  0  0  0  0  0  0  0  0  0  0
   -5.7970   15.7880  -34.8290 H   0  0  0  0  0  0  0  0  0  0  0  0
   -4.5271   17.9250  -35.5995 H   0  0  0  0  0  0  0  0  0  0  0  0
   -6.3434   17.7576  -35.6248 H   0  0  0  0  0  0  0  0  0  0  0  0
   -4.6774   19.1515  -33.4817 H   0  0  0  0  0  0  0  0  0  0  0  0
   -5.7291   19.9326  -34.7216 H   0  0  0  0  0  0  0  0  0  0  0  0
   -9.4061   19.2919  -32.9047 H   0  0  0  0  0  0  0  0  0  0  0  0
  -10.5071   21.2994  -31.9277 H   0  0  0  0  0  0  0  0  0  0  0  0
   -9.1335   23.2024  -31.0876 H   0  0  0  0  0  0  0  0  0  0  0  0
   -5.5246   21.0911  -32.2194 H   0  0  0  0  0  0  0  0  0  0  0  0
   -7.7521   17.5246  -31.9559 H   0  0  0  0  0  0  0  0  0  0  0  0
   -7.9843   17.2637  -33.7174 H   0  0  0  0  0  0  0  0  0  0  0  0
   -5.3926   16.8231  -32.1426 H   0  0  0  0  0  0  0  0  0  0  0  0
   -6.5152   15.5437  -32.7932 H   0  0  0  0  0  0  0  0  0  0  0  0
   -1.7921   16.9884  -35.7232 H   0  0  0  0  0  0  0  0  0  0  0  0
   -3.9368   21.2946  -32.7151 H   0  0  0  0  0  0  0  0  0  0  0  0
   -3.7617   23.2059  -31.1260 H   0  0  0  0  0  0  0  0  0  0  0  0
   -1.5148   23.8892  -25.5928 H   0  0  0  0  0  0  0  0  0  0  0  0
   -0.9215   24.9330  -26.9152 H   0  0  0  0  0  0  0  0  0  0  0  0
   -3.0522   25.5596  -25.2189 H   0  0  0  0  0  0  0  0  0  0  0  0
   -2.8066   26.2994  -26.8056 H   0  0  0  0  0  0  0  0  0  0  0  0
   -4.8916   24.4305  -25.9718 H   0  0  0  0  0  0  0  0  0  0  0  0
   -4.7261   25.2067  -27.5532 H   0  0  0  0  0  0  0  0  0  0  0  0
   -3.9491   22.4718  -26.6909 H   0  0  0  0  0  0  0  0  0  0  0  0
   -4.1535   23.1073  -28.3496 H   0  0  0  0  0  0  0  0  0  0  0  0
  1  2  2  0
  2  3  2  0
  2  4  1  0
  4  5  2  0
  5  6  1  0
  6  7  2  0
  7  8  1  0
  8  9  2  0
  9 10  1  0
 10 11  1  0
 11 12  1  0
 12 13  1  0
 13 14  1  0
 14 15  1  0
 15 16  1  0
 16 17  2  0
 17 18  1  0
 18 19  2  0
 19 20  1  0
 20 21  1  0
 21 22  1  0
 21 23  1  0
 21 24  1  0
 20 25  2  0
 15 26  1  0
 26 27  1  0
 10 28  2  0
 28 29  1  0
  7 30  1  0
 30 31  2  0
  2 32  1  0
 32 33  1  0
 33 34  1  0
 34 35  1  0
 35 36  1  0
 31  4  1  0
 36 32  1  0
 29  8  1  0
 27 12  1  0
 25 16  1  0
  5 37  1  0
  6 38  1  0
 11 39  1  0
 11 40  1  0
 12 41  1  0
 13 42  1  0
 13 43  1  0
 14 44  1  0
 14 45  1  0
 17 46  1  0
 18 47  1  0
 19 48  1  0
 25 49  1  0
 26 50  1  0
 26 51  1  0
 27 52  1  0
 27 53  1  0
 28 54  1  0
 30 55  1  0
 31 56  1  0
 33 57  1  0
 33 58  1  0
 34 59  1  0
 34 60  1  0
 35 61  1  0
 35 62  1  0
 36 63  1  0
 36 64  1  0
M  CHG  1  12   1
M  END
>  <UniqueID>  (2) 
1

>  <SMILES>  (2) 
O=S(=O)(c1ccc(-c2nc(C[NH+]3CCN(c4cccc(C(F)(F)F)c4)CC3)cs2)cc1)N1CCCC1

>  <Energy>  (2) 
111.24039397002677

>  <Genealogy>  (2) 
O=S(=O)(c1ccc(-c2nc(C[NH+]3CCN(c4cccc(C(F)(F)F)c4)CC3)cs2)cc1)N1CCCC1 (protonated)
O=S(=O)(c1ccc(-c2nc(C[NH+]3CCN(c4cccc(C(F)(F)F)c4)CC3)cs2)cc1)N1CCCC1 (3D coordinates assigned)
O=S(=O)(c1ccc(-c2nc(C[NH+]3CCN(c4cccc(C(F)(F)F)c4)CC3)cs2)cc1)N1CCCC1 (nonaromatic ring conformer: 111.24039397002677 kcal/mol)

>  <smiles>  (2) 
O=S(=O)(c1ccc(-c2nc(CN3CCN(c4cccc(C(F)(F)F)c4)CC3)cs2)cc1)N1CCCC1

>  <score_type>  (2) 
oracle

>  <origin>  (2) 
adgpu

>  <m_score__min__energy>  (2) 
-9.8800000000000008

>  <m_primary>  (2) 
energy

$$$$
2:0
     RDKit          3D

 58 61  0  0  0  0  0  0  0  0999 V2000
   -0.6760   19.1230  -27.5890 C   0  0  0  0  0  0  0  0  0  0  0  0
   -0.9690   19.9370  -28.7200 O   0  0  0  0  0  0  0  0  0  0  0  0
   -1.7430   21.1090  -28.6780 C   0  0  0  0  0  0  0  0  0  0  0  0
   -1.9340   21.8340  -27.4880 C   0  0  0  0  0  0  0  0  0  0  0  0
   -2.6930   23.0080  -27.4850 C   0  0  0  0  0  0  0  0  0  0  0  0
   -3.2840   23.4780  -28.6710 C   0  0  0  0  0  0  0  0  0  0  0  0
   -4.0850   24.6740  -28.7030 N   0  0  0  0  0  0  0  0  0  0  0  0
   -5.1130   25.1210  -30.0300 S   0  0  0  0  0  0  0  0  0  0  0  0
   -6.0130   26.2460  -29.5990 O   0  0  0  0  0  0  0  0  0  0  0  0
   -4.2650   25.5920  -31.1780 O   0  0  0  0  0  0  0  0  0  0  0  0
   -6.0490   23.7250  -30.5550 C   0  0  0  0  0  0  0  0  0  0  0  0
   -7.0920   23.2250  -29.7650 C   0  0  0  0  0  0  0  0  0  0  0  0
   -7.8170   22.1040  -30.1810 C   0  0  0  0  0  0  0  0  0  0  0  0
   -7.5100   21.4680  -31.3990 C   0  0  0  0  0  0  0  0  0  0  0  0
   -8.2590   20.2770  -31.8640 C   0  0  0  0  0  0  0  0  0  0  0  0
   -9.4380   20.2630  -32.5940 C   0  0  0  0  0  0  0  0  0  0  0  0
   -9.7450   18.9340  -32.7860 C   0  0  0  0  0  0  0  0  0  0  0  0
   -8.7440   18.2150  -32.1660 C   0  0  0  0  0  0  0  0  0  0  0  0
   -7.8760   19.0400  -31.6280 O   0  0  0  0  0  0  0  0  0  0  0  0
   -6.4650   21.9790  -32.1890 C   0  0  0  0  0  0  0  0  0  0  0  0
   -5.7410   23.0980  -31.7680 C   0  0  0  0  0  0  0  0  0  0  0  0
   -3.0900   22.7560  -29.8570 C   0  0  0  0  0  0  0  0  0  0  0  0
   -2.3310   21.5770  -29.8660 C   0  0  0  0  0  0  0  0  0  0  0  0
   -2.1770   20.8470  -31.0920 N   0  0  0  0  0  0  0  0  0  0  0  0
   -3.3370   20.1890  -31.7030 C   0  0  0  0  0  0  0  0  0  0  0  0
   -2.9940   19.7140  -33.1280 C   0  0  1  0  0  0  0  0  0  0  0  0
   -4.2560   19.2860  -33.8820 C   0  0  0  0  0  0  0  0  0  0  0  0
   -2.3020   20.7850  -33.8660 N   0  0  0  0  0  0  0  0  0  0  0  0
   -1.0190   21.2010  -33.2500 C   0  0  2  0  0  0  0  0  0  0  0  0
    0.1420   20.6460  -34.0760 C   0  0  0  0  0  0  0  0  0  0  0  0
   -0.8750   20.7950  -31.7620 C   0  0  0  0  0  0  0  0  0  0  0  0
   -0.8795   19.6884  -26.6677 H   0  0  0  0  0  0  0  0  0  0  0  0
   -1.3061   18.2217  -27.6128 H   0  0  0  0  0  0  0  0  0  0  0  0
    0.3840   18.8300  -27.6128 H   0  0  0  0  0  0  0  0  0  0  0  0
   -1.4823   21.4742  -26.5518 H   0  0  0  0  0  0  0  0  0  0  0  0
   -2.8288   23.5681  -26.5480 H   0  0  0  0  0  0  0  0  0  0  0  0
   -4.0250   25.3470  -27.9060 H   0  0  0  0  0  0  0  0  0  0  0  0
   -7.3419   23.7164  -28.8131 H   0  0  0  0  0  0  0  0  0  0  0  0
   -8.6325   21.7166  -29.5526 H   0  0  0  0  0  0  0  0  0  0  0  0
  -10.0101   21.1337  -32.9470 H   0  0  0  0  0  0  0  0  0  0  0  0
  -10.6135   18.5277  -33.3251 H   0  0  0  0  0  0  0  0  0  0  0  0
   -8.6825   17.1174  -32.1282 H   0  0  0  0  0  0  0  0  0  0  0  0
   -6.2156   21.4948  -33.1447 H   0  0  0  0  0  0  0  0  0  0  0  0
   -4.9245   23.4881  -32.3934 H   0  0  0  0  0  0  0  0  0  0  0  0
   -3.5392   23.1193  -30.7931 H   0  0  0  0  0  0  0  0  0  0  0  0
   -3.6260   19.3217  -31.0912 H   0  0  0  0  0  0  0  0  0  0  0  0
   -4.1686   20.9071  -31.7559 H   0  0  0  0  0  0  0  0  0  0  0  0
   -2.3281   18.8421  -33.0490 H   0  0  0  0  0  0  0  0  0  0  0  0
   -5.0419   19.0195  -33.1599 H   0  0  0  0  0  0  0  0  0  0  0  0
   -4.6049   20.1161  -34.5139 H   0  0  0  0  0  0  0  0  0  0  0  0
   -4.0279   18.4150  -34.5139 H   0  0  0  0  0  0  0  0  0  0  0  0
   -2.9350   21.6190  -33.9150 H   0  0  0  0  0  0  0  0  0  0  0  0
   -1.0031   22.3009  -33.2560 H   0  0  0  0  0  0  0  0  0  0  0  0
    0.9258   20.2713  -33.4013 H   0  0  0  0  0  0  0  0  0  0  0  0
   -0.2197   19.8234  -34.7104 H   0  0  0  0  0  0  0  0  0  0  0  0
    0.5550   21.4440  -34.7104 H   0  0  0  0  0  0  0  0  0  0  0  0
   -0.4768   19.7713  -31.7021 H   0  0  0  0  0  0  0  0  0  0  0  0
   -0.1887   21.4962  -31.2648 H   0  0  0  0  0  0  0  0  0  0  0  0
  1  2  1  0
  2  3  1  0
  3  4  2  0
  4  5  1  0
  5  6  2  0
  6  7  1  0
  7  8  1  0
  8  9  2  0
  8 10  2  0
  8 11  1  0
 11 12  2  0
 12 13  1  0
 13 14  2  0
 14 15  1  0
 15 16  2  0
 16 17  1  0
 17 18  2  0
 18 19  1  0
 14 20  1  0
 20 21  2  0
  6 22  1  0
 22 23  2  0
 23 24  1  0
 24 25  1  0
 25 26  1  0
 26 27  1  0
 26 28  1  0
 28 29  1  0
 29 30  1  0
 29 31  1  0
 23  3  1  0
 31 24  1  0
 21 11  1  0
 19 15  1  0
  1 32  1  0
  1 33  1  0
  1 34  1  0
  4 35  1  0
  5 36  1  0
  7 37  1  0
 12 38  1  0
 13 39  1  0
 16 40  1  0
 17 41  1  0
 18 42  1  0
 20 43  1  0
 21 44  1  0
 22 45  1  0
 25 46  1  0
 25 47  1  0
 26 48  1  1
 27 49  1  0
 27 50  1  0
 27 51  1  0
 28 52  1  0
 29 53  1  1
 30 54  1  0
 30 55  1  0
 30 56  1  0
 31 57  1  0
 31 58  1  0
M  END
>  <UniqueID>  (3) 
2

>  <SMILES>  (3) 
COc1ccc(NS(=O)(=O)c2ccc(-c3ccco3)cc2)cc1N1C[C@@H](C)N[C@H](C)C1

>  <Energy>  (3) 
95.81805664174337

>  <Genealogy>  (3) 
COc1ccc(NS(=O)(=O)c2ccc(-c3ccco3)cc2)cc1N1C[C@@H](C)N[C@H](C)C1 (chirality)
COc1ccc(NS(=O)(=O)c2ccc(-c3ccco3)cc2)cc1N1C[C@@H](C)N[C@H](C)C1 (3D coordinates assigned)
COc1ccc(NS(=O)(=O)c2ccc(-c3ccco3)cc2)cc1N1C[C@@H](C)N[C@H](C)C1 (nonaromatic ring conformer: 95.81805664174337 kcal/mol)

>  <smiles>  (3) 
COc1ccc(NS(=O)(=O)c2ccc(-c3ccco3)cc2)cc1N1CC(C)NC(C)C1

>  <score_type>  (3) 
oracle

>  <origin>  (3) 
adgpu

>  <m_score__min__energy>  (3) 
-10.109999999999999

>  <m_primary>  (3) 
energy

$$$$
3:0
     RDKit          3D

 49 51  0  0  1  0  0  0  0  0999 V2000
   -3.4320   18.7280  -26.0350 C   0  0  0  0  0  0  0  0  0  0  0  0
   -2.1270   19.1330  -26.6070 C   0  0  0  0  0  0  0  0  0  0  0  0
   -1.6680   20.4170  -26.6770 C   0  0  0  0  0  0  0  0  0  0  0  0
   -0.4450   20.6620  -27.2230 C   0  0  0  0  0  0  0  0  0  0  0  0
   -0.0120   21.8770  -27.2610 N   0  0  0  0  0  0  0  0  0  0  0  0
   -0.7290   23.0060  -26.7650 C   0  0  0  0  0  0  0  0  0  0  0  0
   -0.4180   23.6520  -25.7450 O   0  0  0  0  0  0  0  0  0  0  0  0
   -1.9220   23.3940  -27.5680 C   0  0  0  0  0  0  0  0  0  0  0  0
   -3.0260   23.9600  -26.9850 C   0  0  0  0  0  0  0  0  0  0  0  0
   -4.1510   24.3310  -27.7360 C   0  0  0  0  0  0  0  0  0  0  0  0
   -4.1750   24.1350  -29.0930 C   0  0  0  0  0  0  0  0  0  0  0  0
   -5.4790   24.5800  -30.1450 S   0  0  0  0  0  0  0  0  0  0  0  0
   -6.5410   25.3790  -29.4040 O   0  0  0  0  0  0  0  0  0  0  0  0
   -4.9930   25.5100  -31.2290 O   0  0  0  0  0  0  0  0  0  0  0  0
   -6.2950   23.2170  -30.8770 C   0  0  0  0  0  0  0  0  0  0  0  0
   -7.6520   22.9660  -30.6090 C   0  0  0  0  0  0  0  0  0  0  0  0
   -8.3130   21.9130  -31.1820 C   0  0  0  0  0  0  0  0  0  0  0  0
   -7.6750   21.0340  -32.0580 C   0  0  0  0  0  0  0  0  0  0  0  0
   -8.4170   19.9060  -32.6820 C   0  0  0  0  0  0  0  0  0  0  0  0
   -6.3260   21.2720  -32.3310 C   0  0  0  0  0  0  0  0  0  0  0  0
   -5.6430   20.3350  -33.2560 C   0  0  0  0  0  0  0  0  0  0  0  0
   -5.6570   22.3420  -31.7480 C   0  0  0  0  0  0  0  0  0  0  0  0
   -3.0510   23.5560  -29.6910 C   0  0  0  0  0  0  0  0  0  0  0  0
   -1.9490   23.1950  -28.9340 C   0  0  0  0  0  0  0  0  0  0  0  0
    0.3060   19.6270  -27.6910 N   0  0  0  0  0  0  0  0  0  0  0  0
   -0.1300   18.3580  -27.6290 C   0  0  0  0  0  0  0  0  0  0  0  0
    0.6560   17.1910  -28.1020 C   0  0  0  0  0  0  0  0  0  0  0  0
   -1.3390   18.1480  -27.0860 N   0  0  0  0  0  0  0  0  0  0  0  0
   -3.3725   18.7465  -24.9368 H   0  0  0  0  0  0  0  0  0  0  0  0
   -4.2125   19.4262  -26.3717 H   0  0  0  0  0  0  0  0  0  0  0  0
   -3.6801   17.7106  -26.3717 H   0  0  0  0  0  0  0  0  0  0  0  0
   -2.2812   21.2467  -26.2954 H   0  0  0  0  0  0  0  0  0  0  0  0
   -3.0297   24.1279  -25.8979 H   0  0  0  0  0  0  0  0  0  0  0  0
   -5.0193   24.7819  -27.2334 H   0  0  0  0  0  0  0  0  0  0  0  0
   -8.1957   23.6316  -29.9225 H   0  0  0  0  0  0  0  0  0  0  0  0
   -9.3757   21.7556  -30.9455 H   0  0  0  0  0  0  0  0  0  0  0  0
   -8.8390   19.2644  -31.8944 H   0  0  0  0  0  0  0  0  0  0  0  0
   -9.2307   20.3033  -33.3065 H   0  0  0  0  0  0  0  0  0  0  0  0
   -7.7300   19.3161  -33.3065 H   0  0  0  0  0  0  0  0  0  0  0  0
   -5.0932   19.5807  -32.6739 H   0  0  0  0  0  0  0  0  0  0  0  0
   -6.3904   19.8356  -33.8900 H   0  0  0  0  0  0  0  0  0  0  0  0
   -4.9389   20.8937  -33.8900 H   0  0  0  0  0  0  0  0  0  0  0  0
   -4.5940   22.5004  -31.9824 H   0  0  0  0  0  0  0  0  0  0  0  0
   -3.0422   23.3850  -30.7776 H   0  0  0  0  0  0  0  0  0  0  0  0
   -1.0786   22.7411  -29.4304 H   0  0  0  0  0  0  0  0  0  0  0  0
    1.2330   19.8030  -28.1100 H   0  0  0  0  0  0  0  0  0  0  0  0
    1.0348   16.6286  -27.2358 H   0  0  0  0  0  0  0  0  0  0  0  0
    0.0129   16.5380  -28.7104 H   0  0  0  0  0  0  0  0  0  0  0  0
    1.5028   17.5415  -28.7104 H   0  0  0  0  0  0  0  0  0  0  0  0
  1  2  1  0
  2  3  2  0
  3  4  1  0
  4  5  2  0
  5  6  1  0
  6  7  2  0
  6  8  1  0
  8  9  2  0
  9 10  1  0
 10 11  2  0
 11 12  1  0
 12 13  2  0
 12 14  2  0
 12 15  1  0
 15 16  2  0
 16 17  1  0
 17 18  2  0
 18 19  1  0
 18 20  1  0
 20 21  1  0
 20 22  2  0
 11 23  1  0
 23 24  2  0
  4 25  1  0
 25 26  1  0
 26 27  1  0
 26 28  2  0
 28  2  1  0
 24  8  1  0
 22 15  1  0
  1 29  1  0
  1 30  1  0
  1 31  1  0
  3 32  1  0
  9 33  1  0
 10 34  1  0
 16 35  1  0
 17 36  1  0
 19 37  1  0
 19 38  1  0
 19 39  1  0
 21 40  1  0
 21 41  1  0
 21 42  1  0
 22 43  1  0
 23 44  1  0
 24 45  1  0
 25 46  1  0
 27 47  1  0
 27 48  1  0
 27 49  1  0
M  END
>  <smiles>  (4) 
Cc1cc(=NC(=O)c2ccc(S(=O)(=O)c3ccc(C)c(C)c3)cc2)[nH]c(C)n1

>  <score_type>  (4) 
oracle

>  <origin>  (4) 
adgpu

>  <m_score__min__energy>  (4) 
-10.130000000000001

>  <m_primary>  (4) 
energy

$$$$
4:0
     RDKit          3D

 64 68  0  0  0  0  0  0  0  0999 V2000
   -4.2350   24.1650  -28.0970 C   0  0  0  0  0  0  0  0  0  0  0  0
   -3.1840   24.4950  -29.4950 S   0  0  0  0  0  0  0  0  0  0  0  0
   -3.9610   25.2950  -30.5010 O   0  0  0  0  0  0  0  0  0  0  0  0
   -1.9880   25.2900  -29.0540 O   0  0  0  0  0  0  0  0  0  0  0  0
   -2.6460   22.9770  -30.2080 C   0  0  0  0  0  0  0  0  0  0  0  0
   -1.7690   22.1220  -29.5030 C   0  0  0  0  0  0  0  0  0  0  0  0
   -1.3560   20.9020  -30.0650 C   0  0  0  0  0  0  0  0  0  0  0  0
   -1.8220   20.5540  -31.3330 C   0  0  0  0  0  0  0  0  0  0  0  0
   -1.4950   19.4080  -31.9800 N   0  0  0  0  0  0  0  0  0  0  0  0
   -2.0850   19.3460  -33.2000 C   0  0  0  0  0  0  0  0  0  0  0  0
   -1.9490   18.2100  -34.0760 N   0  0  0  0  0  0  0  0  0  0  0  0
   -0.6860   17.9800  -34.7860 C   0  0  0  0  0  0  0  0  0  0  0  0
    0.1660   19.2210  -34.7510 C   0  0  0  0  0  0  0  0  0  0  0  0
   -0.1460   20.3160  -35.5730 C   0  0  0  0  0  0  0  0  0  0  0  0
    0.6410   21.4700  -35.5360 C   0  0  0  0  0  0  0  0  0  0  0  0
    1.7430   21.5390  -34.6820 C   0  0  0  0  0  0  0  0  0  0  0  0
    2.0570   20.4580  -33.8550 C   0  0  0  0  0  0  0  0  0  0  0  0
    1.2700   19.3030  -33.8860 C   0  0  0  0  0  0  0  0  0  0  0  0
   -3.2350   17.0500  -34.2780 S   0  0  0  0  0  0  0  0  0  0  0  0
   -3.4090   16.6920  -35.7280 O   0  0  0  0  0  0  0  0  0  0  0  0
   -2.8750   15.7900  -33.5390 O   0  0  0  0  0  0  0  0  0  0  0  0
   -4.7490   17.7040  -33.6540 C   0  0  0  0  0  0  0  0  0  0  0  0
   -5.3990   18.7540  -34.3180 C   0  0  0  0  0  0  0  0  0  0  0  0
   -6.5860   19.2830  -33.8070 C   0  0  0  0  0  0  0  0  0  0  0  0
   -7.1360   18.7720  -32.6250 C   0  0  0  0  0  0  0  0  0  0  0  0
   -8.5970   19.4960  -31.9390 S   0  0  0  0  0  0  0  0  0  0  0  0
   -9.1320   18.5880  -30.8670 O   0  0  0  0  0  0  0  0  0  0  0  0
   -9.6390   19.6070  -33.0170 O   0  0  0  0  0  0  0  0  0  0  0  0
   -8.3140   21.0760  -31.2490 N   0  0  0  0  0  0  0  0  0  0  0  0
   -6.9030   21.4540  -31.2780 C   0  0  0  0  0  0  0  0  0  0  0  0
   -6.8770   22.9710  -31.2000 C   0  0  0  0  0  0  0  0  0  0  0  0
   -8.2140   23.4160  -31.7740 C   0  0  0  0  0  0  0  0  0  0  0  0
   -9.0240   22.1370  -31.9660 C   0  0  0  0  0  0  0  0  0  0  0  0
   -6.4910   17.7170  -31.9640 C   0  0  0  0  0  0  0  0  0  0  0  0
   -5.3070   17.1830  -32.4800 C   0  0  0  0  0  0  0  0  0  0  0  0
   -3.0460   20.7130  -33.5050 S   0  0  0  0  0  0  0  0  0  0  0  0
   -2.6750   21.3990  -32.0210 C   0  0  0  0  0  0  0  0  0  0  0  0
   -3.1080   22.6090  -31.4870 C   0  0  0  0  0  0  0  0  0  0  0  0
   -3.6743   24.3410  -27.1671 H   0  0  0  0  0  0  0  0  0  0  0  0
   -5.1092   24.8319  -28.1299 H   0  0  0  0  0  0  0  0  0  0  0  0
   -4.5711   23.1181  -28.1299 H   0  0  0  0  0  0  0  0  0  0  0  0
   -1.4067   22.4138  -28.5062 H   0  0  0  0  0  0  0  0  0  0  0  0
   -0.6774   20.2334  -29.5149 H   0  0  0  0  0  0  0  0  0  0  0  0
   -0.1436   17.1536  -34.3034 H   0  0  0  0  0  0  0  0  0  0  0  0
   -0.9053   17.7256  -35.8335 H   0  0  0  0  0  0  0  0  0  0  0  0
   -1.0128   20.2651  -36.2483 H   0  0  0  0  0  0  0  0  0  0  0  0
    0.3917   22.3255  -36.1809 H   0  0  0  0  0  0  0  0  0  0  0  0
    2.3650   22.4460  -34.6603 H   0  0  0  0  0  0  0  0  0  0  0  0
    2.9233   20.5155  -33.1795 H   0  0  0  0  0  0  0  0  0  0  0  0
    1.5162   18.4548  -33.2303 H   0  0  0  0  0  0  0  0  0  0  0  0
   -4.9720   19.1629  -35.2456 H   0  0  0  0  0  0  0  0  0  0  0  0
   -7.0913   20.1049  -34.3354 H   0  0  0  0  0  0  0  0  0  0  0  0
   -8.6400   21.0600  -30.2540 H   0  0  0  0  0  0  0  0  0  0  0  0
   -6.3722   21.0175  -30.4191 H   0  0  0  0  0  0  0  0  0  0  0  0
   -6.4052   21.0877  -32.1880 H   0  0  0  0  0  0  0  0  0  0  0  0
   -6.7742   23.3031  -30.1564 H   0  0  0  0  0  0  0  0  0  0  0  0
   -6.0268   23.3993  -31.7512 H   0  0  0  0  0  0  0  0  0  0  0  0
   -8.7259   24.0934  -31.0746 H   0  0  0  0  0  0  0  0  0  0  0  0
   -8.0889   23.9645  -32.7193 H   0  0  0  0  0  0  0  0  0  0  0  0
  -10.0352   22.2632  -31.5517 H   0  0  0  0  0  0  0  0  0  0  0  0
   -9.1278   21.8916  -33.0332 H   0  0  0  0  0  0  0  0  0  0  0  0
   -6.9182   17.3083  -31.0364 H   0  0  0  0  0  0  0  0  0  0  0  0
   -4.8110   16.3493  -31.9614 H   0  0  0  0  0  0  0  0  0  0  0  0
   -3.7930   23.2610  -32.0488 H   0  0  0  0  0  0  0  0  0  0  0  0
  1  2  1  0
  2  3  2  0
  2  4  2  0
  2  5  1  0
  5  6  2  0
  6  7  1  0
  7  8  2  0
  8  9  1  0
  9 10  2  0
 10 11  1  0
 11 12  1  0
 12 13  1  0
 13 14  2  0
 14 15  1  0
 15 16  2  0
 16 17  1  0
 17 18  2  0
 11 19  1  0
 19 20  2  0
 19 21  2  0
 19 22  1  0
 22 23  2  0
 23 24  1  0
 24 25  2  0
 25 26  1  0
 26 27  2  0
 26 28  2  0
 26 29  1  0
 29 30  1  0
 30 31  1  0
 31 32  1  0
 32 33  1  0
 25 34  1  0
 34 35  2  0
 10 36  1  0
 36 37  1  0
 37 38  2  0
 38  5  1  0
 37  8  1  0
 18 13  1  0
 35 22  1  0
 33 29  1  0
  1 39  1  0
  1 40  1  0
  1 41  1  0
  6 42  1  0
  7 43  1  0
 12 44  1  0
 12 45  1  0
 14 46  1  0
 15 47  1  0
 16 48  1  0
 17 49  1  0
 18 50  1  0
 23 51  1  0
 24 52  1  0
 29 53  1  0
 30 54  1  0
 30 55  1  0
 31 56  1  0
 31 57  1  0
 32 58  1  0
 32 59  1  0
 33 60  1  0
 33 61  1  0
 34 62  1  0
 35 63  1  0
 38 64  1  0
M  CHG  1  29   1
M  END
>  <UniqueID>  (5) 
3

>  <SMILES>  (5) 
CS(=O)(=O)c1ccc2nc(N(Cc3ccccc3)S(=O)(=O)c3ccc(S(=O)(=O)[NH+]4CCCC4)cc3)sc2c1

>  <Energy>  (5) 
99.56152886150169

>  <Genealogy>  (5) 
CS(=O)(=O)c1ccc2nc(N(Cc3ccccc3)S(=O)(=O)c3ccc(S(=O)(=O)[NH+]4CCCC4)cc3)sc2c1 (protonated)
CS(=O)(=O)c1ccc2nc(N(Cc3ccccc3)S(=O)(=O)c3ccc(S(=O)(=O)[NH+]4CCCC4)cc3)sc2c1 (3D coordinates assigned)
CS(=O)(=O)c1ccc2nc(N(Cc3ccccc3)S(=O)(=O)c3ccc(S(=O)(=O)[NH+]4CCCC4)cc3)sc2c1 (nonaromatic ring conformer: 99.56152886150169 kcal/mol)

>  <smiles>  (5) 
CS(=O)(=O)c1ccc2nc(N(Cc3ccccc3)S(=O)(=O)c3ccc(S(=O)(=O)N4CCCC4)cc3)sc2c1

>  <score_type>  (5) 
oracle

>  <origin>  (5) 
adgpu

>  <m_score__min__energy>  (5) 
-12.210000000000001

>  <m_primary>  (5) 
energy

$$$$
5:0
     RDKit          3D

 54 57  0  0  0  0  0  0  0  0999 V2000
   -5.7260   25.3200  -28.9540 O   0  0  0  0  0  0  0  0  0  0  0  0
   -5.3040   25.1830  -30.3920 S   0  0  0  0  0  0  0  0  0  0  0  0
   -5.7400   26.4150  -31.1340 O   0  0  0  0  0  0  0  0  0  0  0  0
   -3.5780   25.0510  -30.4830 N   0  0  0  0  0  0  0  0  0  0  0  0
   -2.7630   24.1840  -29.6810 C   0  0  0  0  0  0  0  0  0  0  0  0
   -3.1060   22.8370  -29.4620 C   0  0  0  0  0  0  0  0  0  0  0  0
   -2.2920   22.0190  -28.6640 C   0  0  0  0  0  0  0  0  0  0  0  0
   -1.1200   22.5420  -28.0930 C   0  0  0  0  0  0  0  0  0  0  0  0
   -0.7750   23.8820  -28.3120 C   0  0  0  0  0  0  0  0  0  0  0  0
   -1.5980   24.7000  -29.0940 C   0  0  0  0  0  0  0  0  0  0  0  0
   -1.2490   26.0340  -29.2880 O   0  0  0  0  0  0  0  0  0  0  0  0
   -0.2230   21.6140  -27.3160 C   0  0  0  0  0  0  0  0  0  0  0  0
   -1.0250   20.6780  -26.3840 C   0  0  0  0  0  0  0  0  0  0  0  0
   -2.4220   20.2640  -26.9130 C   0  0  0  0  0  0  0  0  0  0  0  0
   -2.6390   20.5790  -28.3990 C   0  0  0  0  0  0  0  0  0  0  0  0
   -6.0480   23.7760  -31.1440 C   0  0  0  0  0  0  0  0  0  0  0  0
   -7.4430   23.6440  -31.2050 C   0  0  0  0  0  0  0  0  0  0  0  0
   -8.0150   22.5040  -31.7760 C   0  0  0  0  0  0  0  0  0  0  0  0
   -7.2010   21.4940  -32.2960 C   0  0  0  0  0  0  0  0  0  0  0  0
   -5.8040   21.6220  -32.2490 C   0  0  0  0  0  0  0  0  0  0  0  0
   -4.7690   20.3690  -32.9320 S   0  0  0  0  0  0  0  0  0  0  0  0
   -4.0530   19.6440  -31.8260 O   0  0  0  0  0  0  0  0  0  0  0  0
   -3.7360   21.0310  -33.8040 O   0  0  0  0  0  0  0  0  0  0  0  0
   -5.7070   19.2510  -33.9020 N   0  0  0  0  0  0  0  0  0  0  0  0
   -6.8540   18.6880  -33.1620 C   0  0  0  0  0  0  0  0  0  0  0  0
   -6.4380   17.6340  -32.1170 C   0  0  0  0  0  0  0  0  0  0  0  0
   -5.2760   16.7420  -32.5850 C   0  0  0  0  0  0  0  0  0  0  0  0
   -5.1040   16.7920  -34.1020 C   0  0  0  0  0  0  0  0  0  0  0  0
   -4.8540   18.2380  -34.5720 C   0  0  0  0  0  0  0  0  0  0  0  0
   -5.2330   22.7650  -31.6710 C   0  0  0  0  0  0  0  0  0  0  0  0
   -4.0171   22.4232  -29.9188 H   0  0  0  0  0  0  0  0  0  0  0  0
    0.1444   24.2918  -27.8685 H   0  0  0  0  0  0  0  0  0  0  0  0
    0.3528   21.0008  -28.0248 H   0  0  0  0  0  0  0  0  0  0  0  0
    0.4408   22.2286  -26.6902 H   0  0  0  0  0  0  0  0  0  0  0  0
   -0.4342   19.7631  -26.2292 H   0  0  0  0  0  0  0  0  0  0  0  0
   -1.2033   21.2457  -25.4588 H   0  0  0  0  0  0  0  0  0  0  0  0
   -2.5411   19.1802  -26.7671 H   0  0  0  0  0  0  0  0  0  0  0  0
   -3.1644   20.8483  -26.3496 H   0  0  0  0  0  0  0  0  0  0  0  0
   -1.9950   19.9287  -29.0092 H   0  0  0  0  0  0  0  0  0  0  0  0
   -3.6928   20.4024  -28.6605 H   0  0  0  0  0  0  0  0  0  0  0  0
   -8.0879   24.4392  -30.8027 H   0  0  0  0  0  0  0  0  0  0  0  0
   -9.1095   22.4013  -31.8163 H   0  0  0  0  0  0  0  0  0  0  0  0
   -7.6557   20.5975  -32.7427 H   0  0  0  0  0  0  0  0  0  0  0  0
   -7.3741   19.5079  -32.6450 H   0  0  0  0  0  0  0  0  0  0  0  0
   -7.5038   18.1865  -33.8943 H   0  0  0  0  0  0  0  0  0  0  0  0
   -6.1306   18.1550  -31.1983 H   0  0  0  0  0  0  0  0  0  0  0  0
   -7.3059   16.9791  -31.9502 H   0  0  0  0  0  0  0  0  0  0  0  0
   -4.3466   17.0876  -32.1088 H   0  0  0  0  0  0  0  0  0  0  0  0
   -5.5021   15.7043  -32.2985 H   0  0  0  0  0  0  0  0  0  0  0  0
   -4.2471   16.1651  -34.3895 H   0  0  0  0  0  0  0  0  0  0  0  0
   -6.0241   16.4191  -34.5757 H   0  0  0  0  0  0  0  0  0  0  0  0
   -3.8012   18.4880  -34.3741 H   0  0  0  0  0  0  0  0  0  0  0  0
   -5.1056   18.2707  -35.6424 H   0  0  0  0  0  0  0  0  0  0  0  0
   -4.1386   22.8687  -31.6310 H   0  0  0  0  0  0  0  0  0  0  0  0
  1  2  2  0
  2  3  2  0
  2  4  1  0
  4  5  1  0
  5  6  2  0
  6  7  1  0
  7  8  2  0
  8  9  1  0
  9 10  2  0
 10 11  1  0
  8 12  1  0
 12 13  1  0
 13 14  1  0
 14 15  1  0
  2 16  1  0
 16 17  2  0
 17 18  1  0
 18 19  2  0
 19 20  1  0
 20 21  1  0
 21 22  2  0
 21 23  2  0
 21 24  1  0
 24 25  1  0
 25 26  1  0
 26 27  1  0
 27 28  1  0
 28 29  1  0
 20 30  2  0
 10  5  1  0
 30 16  1  0
 15  7  1  0
 29 24  1  0
  6 31  1  0
  9 32  1  0
 12 33  1  0
 12 34  1  0
 13 35  1  0
 13 36  1  0
 14 37  1  0
 14 38  1  0
 15 39  1  0
 15 40  1  0
 17 41  1  0
 18 42  1  0
 19 43  1  0
 25 44  1  0
 25 45  1  0
 26 46  1  0
 26 47  1  0
 27 48  1  0
 27 49  1  0
 28 50  1  0
 28 51  1  0
 29 52  1  0
 29 53  1  0
 30 54  1  0
M  CHG  2   4  -1  11  -1
M  END
>  <UniqueID>  (6) 
4

>  <SMILES>  (6) 
O=S(=O)([N-]c1cc2c(cc1[O-])CCCC2)c1cccc(S(=O)(=O)N2CCCCC2)c1

>  <Energy>  (6) 
71.27057978179072

>  <Genealogy>  (6) 
O=S(=O)([N-]c1cc2c(cc1[O-])CCCC2)c1cccc(S(=O)(=O)N2CCCCC2)c1 (protonated)
O=S(=O)([N-]c1cc2c(cc1[O-])CCCC2)c1cccc(S(=O)(=O)N2CCCCC2)c1 (3D coordinates assigned)
O=S(=O)([N-]c1cc2c(cc1[O-])CCCC2)c1cccc(S(=O)(=O)N2CCCCC2)c1 (nonaromatic ring conformer: 71.27057978179072 kcal/mol)

>  <smiles>  (6) 
O=S(=O)(Nc1cc2c(cc1O)CCCC2)c1cccc(S(=O)(=O)N2CCCCC2)c1

>  <score_type>  (6) 
oracle

>  <origin>  (6) 
adgpu

>  <m_score__min__energy>  (6) 
-15.779999999999999

>  <m_primary>  (6) 
energy

$$$$
6:0
     RDKit          3D

 42 44  0  0  0  0  0  0  0  0999 V2000
    0.7740   22.8945  -28.9391 H   0  0  0  0  0  0  0  0  0  0  0  0
   -0.1480   22.4230  -28.5680 C   0  0  0  0  0  0  0  0  0  0  0  0
   -0.1560   21.1060  -28.2310 N   0  0  0  0  0  0  0  0  0  0  0  0
   -1.2790   20.5060  -27.7610 C   0  0  0  0  0  0  0  0  0  0  0  0
   -1.2630   19.2840  -27.4600 O   0  0  0  0  0  0  0  0  0  0  0  0
   -2.4470   21.2570  -27.6070 C   0  0  0  0  0  0  0  0  0  0  0  0
   -3.3630   20.7874  -27.2191 H   0  0  0  0  0  0  0  0  0  0  0  0
   -2.4390   22.5750  -27.9420 N   0  0  0  0  0  0  0  0  0  0  0  0
   -1.3240   23.1760  -28.4390 C   0  0  0  0  0  0  0  0  0  0  0  0
   -1.3610   24.6110  -28.7650 C   0  0  0  0  0  0  0  0  0  0  0  0
   -0.3500   25.3160  -28.5120 O   0  0  0  0  0  0  0  0  0  0  0  0
   -2.5160   25.2420  -29.3370 N   0  0  0  0  0  0  0  0  0  0  0  0
   -3.4970   24.6050  -30.2150 C   0  0  0  0  0  0  0  0  0  0  0  0
   -3.8762   25.3525  -30.9274 H   0  0  0  0  0  0  0  0  0  0  0  0
   -2.9997   23.7763  -30.7403 H   0  0  0  0  0  0  0  0  0  0  0  0
   -4.6800   24.0280  -29.4220 C   0  0  0  0  0  0  0  0  0  0  0  0
   -4.9107   23.0296  -29.8220 H   0  0  0  0  0  0  0  0  0  0  0  0
   -4.3725   24.0002  -28.3662 H   0  0  0  0  0  0  0  0  0  0  0  0
   -5.9560   24.8840  -29.4920 C   0  0  0  0  0  0  0  0  0  0  0  0
   -6.4239   24.9006  -28.4966 H   0  0  0  0  0  0  0  0  0  0  0  0
   -5.6627   25.8922  -29.8198 H   0  0  0  0  0  0  0  0  0  0  0  0
   -6.9760   24.3440  -30.5060 C   0  0  0  0  0  0  0  0  0  0  0  0
   -7.8894   24.0407  -29.9734 H   0  0  0  0  0  0  0  0  0  0  0  0
   -7.2053   25.1359  -31.2343 H   0  0  0  0  0  0  0  0  0  0  0  0
   -6.4300   23.1890  -31.2210 N   0  0  0  0  0  0  0  0  0  0  0  0
   -7.0910   22.2090  -31.7800 C   0  0  0  0  0  0  0  0  0  0  0  0
   -8.4980   22.1370  -31.7370 C   0  0  0  0  0  0  0  0  0  0  0  0
   -9.0723   22.9211  -31.2219 H   0  0  0  0  0  0  0  0  0  0  0  0
   -9.1630   21.0740  -32.3460 C   0  0  0  0  0  0  0  0  0  0  0  0
  -10.2613   21.0250  -32.3100 H   0  0  0  0  0  0  0  0  0  0  0  0
   -8.4660   20.0990  -32.9830 N   0  0  0  0  0  0  0  0  0  0  0  0
   -9.0010   19.3170  -33.4270 H   0  0  0  0  0  0  0  0  0  0  0  0
   -7.1040   20.1210  -33.0500 C   0  0  0  0  0  0  0  0  0  0  0  0
   -6.4150   19.0950  -33.7150 C   0  0  0  0  0  0  0  0  0  0  0  0
   -6.9764   18.2723  -34.1820 H   0  0  0  0  0  0  0  0  0  0  0  0
   -5.0200   19.1130  -33.7870 C   0  0  0  0  0  0  0  0  0  0  0  0
   -4.1690   17.8250  -34.6230 Cl  0  0  0  0  0  0  0  0  0  0  0  0
   -4.3020   20.1540  -33.1960 C   0  0  0  0  0  0  0  0  0  0  0  0
   -3.2037   20.1644  -33.2556 H   0  0  0  0  0  0  0  0  0  0  0  0
   -4.9720   21.1830  -32.5290 C   0  0  0  0  0  0  0  0  0  0  0  0
   -4.3979   21.9986  -32.0651 H   0  0  0  0  0  0  0  0  0  0  0  0
   -6.3810   21.1820  -32.4470 C   0  0  0  0  0  0  0  0  0  0  0  0
  1  2  1  0
  2  3  1  0
  3  4  1  0
  4  5  2  0
  4  6  1  0
  6  7  1  0
  6  8  2  0
  8  9  1  0
  9 10  1  0
 10 11  2  0
 10 12  1  0
 12 13  1  0
 13 14  1  0
 13 15  1  0
 13 16  1  0
 16 17  1  0
 16 18  1  0
 16 19  1  0
 19 20  1  0
 19 21  1  0
 19 22  1  0
 22 23  1  0
 22 24  1  0
 22 25  1  0
 25 26  2  0
 26 27  1  0
 27 28  1  0
 27 29  2  0
 29 30  1  0
 29 31  1  0
 31 32  1  0
 31 33  1  0
 33 34  2  0
 34 35  1  0
 34 36  1  0
 36 37  1  0
 36 38  2  0
 38 39  1  0
 38 40  1  0
 40 41  1  0
 40 42  2  0
  9  2  2  0
 42 26  1  0
 42 33  1  0
M  CHG  2   3  -1  12  -1
M  END
>  <UniqueID>  (7) 
5

>  <SMILES>  (7) 
O=C([N-]CCCC/N=c1\cc[nH]c2cc(Cl)ccc12)c1c[n-]c(=O)cn1

>  <Energy>  (7) 
52.93865335675798

>  <Genealogy>  (7) 
O=C([N-]CCCCN=c1cc[nH]c2cc(Cl)ccc12)c1c[n-]c(=O)cn1 (protonated)
O=C([N-]CCCC/N=c1\cc[nH]c2cc(Cl)ccc12)c1c[n-]c(=O)cn1 (cis-trans isomerization)
O=C([N-]CCCC/N=c1\cc[nH]c2cc(Cl)ccc12)c1c[n-]c(=O)cn1 (3D coordinates assigned)
O=C([N-]CCCC/N=c1\cc[nH]c2cc(Cl)ccc12)c1c[n-]c(=O)cn1 (optimized conformer: 52.93865335675798 kcal/mol)

>  <smiles>  (7) 
O=C(NCCCCN=c1cc[nH]c2cc(Cl)ccc12)c1c[nH]c(=O)cn1

>  <score_type>  (7) 
oracle

>  <origin>  (7) 
adgpu

>  <m_score__min__energy>  (7) 
-11.09

>  <m_primary>  (7) 
energy

$$$$
7:0
     RDKit          3D

 45 47  0  0  0  0  0  0  0  0999 V2000
   -1.5150   19.7640  -34.1850 C   0  0  0  0  0  0  0  0  0  0  0  0
   -1.7000   18.7760  -33.0370 C   0  0  0  0  0  0  0  0  0  0  0  0
   -2.8490   17.8040  -33.3180 C   0  0  0  0  0  0  0  0  0  0  0  0
   -3.5530   18.1980  -34.5430 N   0  0  0  0  0  0  0  0  0  0  0  0
   -5.2640   18.3480  -34.2660 S   0  0  0  0  0  0  0  0  0  0  0  0
   -5.9750   18.3540  -35.5930 O   0  0  0  0  0  0  0  0  0  0  0  0
   -5.7530   17.1660  -33.4770 O   0  0  0  0  0  0  0  0  0  0  0  0
   -5.6080   19.8410  -33.3710 C   0  0  0  0  0  0  0  0  0  0  0  0
   -4.5470   20.7170  -33.1190 C   0  0  0  0  0  0  0  0  0  0  0  0
   -4.7320   21.8650  -32.3590 C   0  0  0  0  0  0  0  0  0  0  0  0
   -5.9840   22.1810  -31.8220 C   0  0  0  0  0  0  0  0  0  0  0  0
   -6.1030   23.6030  -30.7670 S   0  0  0  0  0  0  0  0  0  0  0  0
   -6.1550   24.8680  -31.5790 O   0  0  0  0  0  0  0  0  0  0  0  0
   -7.3660   23.5040  -29.9550 O   0  0  0  0  0  0  0  0  0  0  0  0
   -4.6900   23.6750  -29.7180 C   0  0  0  0  0  0  0  0  0  0  0  0
   -4.5300   22.7510  -28.6770 C   0  0  0  0  0  0  0  0  0  0  0  0
   -3.3970   22.8040  -27.8590 C   0  0  0  0  0  0  0  0  0  0  0  0
   -2.4170   23.7800  -28.0710 C   0  0  0  0  0  0  0  0  0  0  0  0
   -1.2960   23.8090  -27.2440 O   0  0  0  0  0  0  0  0  0  0  0  0
   -2.5780   24.7110  -29.1110 C   0  0  0  0  0  0  0  0  0  0  0  0
   -1.6150   25.6880  -29.3400 O   0  0  0  0  0  0  0  0  0  0  0  0
   -3.7130   24.6590  -29.9270 C   0  0  0  0  0  0  0  0  0  0  0  0
   -7.0870   21.3250  -32.0790 C   0  0  0  0  0  0  0  0  0  0  0  0
   -8.3740   21.6030  -31.5650 C   0  0  0  0  0  0  0  0  0  0  0  0
   -9.4410   20.7400  -31.8010 C   0  0  0  0  0  0  0  0  0  0  0  0
   -9.2530   19.5850  -32.5510 C   0  0  0  0  0  0  0  0  0  0  0  0
   -7.9970   19.2840  -33.0750 C   0  0  0  0  0  0  0  0  0  0  0  0
   -6.8970   20.1440  -32.8580 C   0  0  0  0  0  0  0  0  0  0  0  0
   -1.3269   20.7684  -33.7777 H   0  0  0  0  0  0  0  0  0  0  0  0
   -0.6595   19.4526  -34.8025 H   0  0  0  0  0  0  0  0  0  0  0  0
   -2.4251   19.7833  -34.8025 H   0  0  0  0  0  0  0  0  0  0  0  0
   -0.7705   18.2030  -32.9044 H   0  0  0  0  0  0  0  0  0  0  0  0
   -1.9410   19.3438  -32.1262 H   0  0  0  0  0  0  0  0  0  0  0  0
   -2.4448   16.7884  -33.4411 H   0  0  0  0  0  0  0  0  0  0  0  0
   -3.5542   17.8259  -32.4741 H   0  0  0  0  0  0  0  0  0  0  0  0
   -3.5510   20.4934  -33.5289 H   0  0  0  0  0  0  0  0  0  0  0  0
   -3.8799   22.5363  -32.1766 H   0  0  0  0  0  0  0  0  0  0  0  0
   -5.2972   21.9822  -28.5028 H   0  0  0  0  0  0  0  0  0  0  0  0
   -3.2756   22.0746  -27.0446 H   0  0  0  0  0  0  0  0  0  0  0  0
   -0.5610   24.4980  -27.3580 H   0  0  0  0  0  0  0  0  0  0  0  0
   -3.8397   25.3932  -30.7362 H   0  0  0  0  0  0  0  0  0  0  0  0
   -8.5350   22.5141  -30.9701 H   0  0  0  0  0  0  0  0  0  0  0  0
  -10.4355   20.9730  -31.3927 H   0  0  0  0  0  0  0  0  0  0  0  0
  -10.0990   18.9056  -32.7318 H   0  0  0  0  0  0  0  0  0  0  0  0
   -7.8604   18.3656  -33.6648 H   0  0  0  0  0  0  0  0  0  0  0  0
  1  2  1  0
  2  3  1  0
  3  4  1  0
  4  5  1  0
  5  6  2  0
  5  7  2  0
  5  8  1  0
  8  9  2  0
  9 10  1  0
 10 11  2  0
 11 12  1  0
 12 13  2  0
 12 14  2  0
 12 15  1  0
 15 16  2  0
 16 17  1  0
 17 18  2  0
 18 19  1  0
 18 20  1  0
 20 21  1  0
 20 22  2  0
 11 23  1  0
 23 24  2  0
 24 25  1  0
 25 26  2  0
 26 27  1  0
 27 28  2  0
 28  8  1  0
 22 15  1  0
 28 23  1  0
  1 29  1  0
  1 30  1  0
  1 31  1  0
  2 32  1  0
  2 33  1  0
  3 34  1  0
  3 35  1  0
  9 36  1  0
 10 37  1  0
 16 38  1  0
 17 39  1  0
 19 40  1  0
 22 41  1  0
 24 42  1  0
 25 43  1  0
 26 44  1  0
 27 45  1  0
M  CHG  2   4  -1  21  -1
M  END
>  <UniqueID>  (8) 
6

>  <SMILES>  (8) 
CCC[N-]S(=O)(=O)c1ccc(S(=O)(=O)c2ccc(O)c([O-])c2)c2ccccc12

>  <Energy>  (8) 
51.87033944569346

>  <Genealogy>  (8) 
CCC[N-]S(=O)(=O)c1ccc(S(=O)(=O)c2ccc(O)c([O-])c2)c2ccccc12 (protonated)
CCC[N-]S(=O)(=O)c1ccc(S(=O)(=O)c2ccc(O)c([O-])c2)c2ccccc12 (3D coordinates assigned)
CCC[N-]S(=O)(=O)c1ccc(S(=O)(=O)c2ccc(O)c([O-])c2)c2ccccc12 (optimized conformer: 51.87033944569346 kcal/mol)

>  <smiles>  (8) 
CCCNS(=O)(=O)c1ccc(S(=O)(=O)c2ccc(O)c(O)c2)c2ccccc12

>  <score_type>  (8) 
oracle

>  <origin>  (8) 
adgpu

>  <m_score__min__energy>  (8) 
-12.039999999999999

>  <m_primary>  (8) 
energy

$$$$
8:0
     RDKit          3D

 56 61  0  0  0  0  0  0  0  0999 V2000
   -7.2690   20.4040  -33.0430 C   0  0  0  0  0  0  0  0  0  0  0  0
   -6.0090   19.6960  -33.4070 C   0  0  0  0  0  0  0  0  0  0  0  0
   -4.9530   19.5690  -32.5800 N   0  0  0  0  0  0  0  0  0  0  0  0
   -4.1050   18.8570  -33.3510 C   0  0  0  0  0  0  0  0  0  0  0  0
   -2.7470   18.4220  -32.8980 C   0  0  0  0  0  0  0  0  0  0  0  0
   -1.7100   19.1190  -33.6650 N   0  0  0  0  0  0  0  0  0  0  0  0
   -0.8470   18.5210  -34.5190 C   0  0  0  0  0  0  0  0  0  0  0  0
   -0.7800   17.1490  -34.7370 O   0  0  0  0  0  0  0  0  0  0  0  0
   -0.0590   19.4610  -35.1350 C   0  0  0  0  0  0  0  0  0  0  0  0
    0.9660   19.3170  -36.0670 C   0  0  0  0  0  0  0  0  0  0  0  0
    1.6130   20.4810  -36.5160 C   0  0  0  0  0  0  0  0  0  0  0  0
    1.2240   21.7460  -36.0270 C   0  0  0  0  0  0  0  0  0  0  0  0
    0.1840   21.8610  -35.0870 C   0  0  0  0  0  0  0  0  0  0  0  0
   -0.4520   20.6880  -34.6590 C   0  0  0  0  0  0  0  0  0  0  0  0
   -1.4850   20.4640  -33.7490 C   0  0  0  0  0  0  0  0  0  0  0  0
   -2.2310   21.5040  -33.0020 C   0  0  0  0  0  0  0  0  0  0  0  0
   -3.3420   21.9150  -33.4280 O   0  0  0  0  0  0  0  0  0  0  0  0
   -1.6820   22.0670  -31.8060 N   0  0  0  0  0  0  0  0  0  0  0  0
   -1.9240   21.5590  -30.4860 C   0  0  0  0  0  0  0  0  0  0  0  0
   -1.1950   20.4440  -30.0620 C   0  0  0  0  0  0  0  0  0  0  0  0
   -1.3640   19.9320  -28.7750 C   0  0  0  0  0  0  0  0  0  0  0  0
   -2.2760   20.5140  -27.8840 C   0  0  0  0  0  0  0  0  0  0  0  0
   -2.3960   19.9000  -26.4980 C   0  0  0  0  0  0  0  0  0  0  0  0
   -2.0860   18.4150  -26.3670 C   0  0  0  0  0  0  0  0  0  0  0  0
   -3.5250   18.9050  -26.2670 C   0  0  0  0  0  0  0  0  0  0  0  0
   -3.0410   21.6160  -28.3220 C   0  0  0  0  0  0  0  0  0  0  0  0
   -2.8820   22.1370  -29.6190 C   0  0  0  0  0  0  0  0  0  0  0  0
   -3.7840   23.2260  -30.0690 C   0  0  0  0  0  0  0  0  0  0  0  0
   -5.0670   22.9190  -30.5490 C   0  0  0  0  0  0  0  0  0  0  0  0
   -5.9120   23.9350  -30.9930 C   0  0  0  0  0  0  0  0  0  0  0  0
   -5.4730   25.2580  -30.9440 C   0  0  0  0  0  0  0  0  0  0  0  0
   -4.2350   25.5470  -30.4650 N   0  0  0  0  0  0  0  0  0  0  0  0
   -3.3870   24.5770  -30.0280 C   0  0  0  0  0  0  0  0  0  0  0  0
   -2.2460   24.9000  -29.6060 O   0  0  0  0  0  0  0  0  0  0  0  0
   -4.6170   18.5690  -34.5640 N   0  0  0  0  0  0  0  0  0  0  0  0
   -5.7980   19.1060  -34.5590 O   0  0  0  0  0  0  0  0  0  0  0  0
   -7.3582   20.4541  -31.9478 H   0  0  0  0  0  0  0  0  0  0  0  0
   -7.2494   21.4232  -33.4563 H   0  0  0  0  0  0  0  0  0  0  0  0
   -8.1294   19.8572  -33.4563 H   0  0  0  0  0  0  0  0  0  0  0  0
   -2.6280   18.6561  -31.8298 H   0  0  0  0  0  0  0  0  0  0  0  0
   -2.6450   17.3386  -33.0586 H   0  0  0  0  0  0  0  0  0  0  0  0
    1.2595   18.3245  -36.4395 H   0  0  0  0  0  0  0  0  0  0  0  0
    2.4267   20.4055  -37.2523 H   0  0  0  0  0  0  0  0  0  0  0  0
    1.7386   22.6503  -36.3840 H   0  0  0  0  0  0  0  0  0  0  0  0
   -0.1214   22.8439  -34.6989 H   0  0  0  0  0  0  0  0  0  0  0  0
   -0.4816   19.9659  -30.7493 H   0  0  0  0  0  0  0  0  0  0  0  0
   -0.7739   19.0604  -28.4556 H   0  0  0  0  0  0  0  0  0  0  0  0
   -2.0528   20.8158  -25.9944 H   0  0  0  0  0  0  0  0  0  0  0  0
   -1.7602   17.8414  -27.2472 H   0  0  0  0  0  0  0  0  0  0  0  0
   -1.4234   17.8119  -25.7288 H   0  0  0  0  0  0  0  0  0  0  0  0
   -4.2383   18.6852  -27.0750 H   0  0  0  0  0  0  0  0  0  0  0  0
   -4.3321   18.8023  -25.5266 H   0  0  0  0  0  0  0  0  0  0  0  0
   -3.7720   22.0741  -27.6395 H   0  0  0  0  0  0  0  0  0  0  0  0
   -5.4068   21.8731  -30.5749 H   0  0  0  0  0  0  0  0  0  0  0  0
   -6.9143   23.6958  -31.3779 H   0  0  0  0  0  0  0  0  0  0  0  0
   -6.1298   26.0682  -31.2935 H   0  0  0  0  0  0  0  0  0  0  0  0
  1  2  1  0
  2  3  2  0
  3  4  1  0
  4  5  1  0
  5  6  1  0
  6  7  1  0
  7  8  1  0
  7  9  2  0
  9 10  1  0
 10 11  2  0
 11 12  1  0
 12 13  2  0
 13 14  1  0
 14 15  2  0
 15 16  1  0
 16 17  2  0
 16 18  1  0
 18 19  1  0
 19 20  2  0
 20 21  1  0
 21 22  2  0
 22 23  1  0
 23 24  1  0
 24 25  1  0
 22 26  1  0
 26 27  2  0
 27 28  1  0
 28 29  2  0
 29 30  1  0
 30 31  2  0
 31 32  1  0
 32 33  1  0
 33 34  2  0
  4 35  2  0
 35 36  1  0
 36  2  1  0
 15  6  1  0
 27 19  1  0
 33 28  1  0
 14  9  1  0
 25 23  1  0
  1 37  1  0
  1 38  1  0
  1 39  1  0
  5 40  1  0
  5 41  1  0
 10 42  1  0
 11 43  1  0
 12 44  1  0
 13 45  1  0
 20 46  1  0
 21 47  1  0
 23 48  1  0
 24 49  1  0
 24 50  1  0
 25 51  1  0
 25 52  1  0
 26 53  1  0
 29 54  1  0
 30 55  1  0
 31 56  1  0
M  CHG  3   8  -1  18  -1  32  -1
M  END
>  <UniqueID>  (9) 
7

>  <SMILES>  (9) 
Cc1nc(Cn2c([O-])c3ccccc3c2C(=O)[N-]c2ccc(C3CC3)cc2-c2ccc[n-]c2=O)no1

>  <Energy>  (9) 
412.349099458015

>  <Genealogy>  (9) 
Cc1nc(Cn2c([O-])c3ccccc3c2C(=O)[N-]c2ccc(C3CC3)cc2-c2ccc[n-]c2=O)no1 (protonated)
Cc1nc(Cn2c([O-])c3ccccc3c2C(=O)[N-]c2ccc(C3CC3)cc2-c2ccc[n-]c2=O)no1 (3D coordinates assigned)
Cc1nc(Cn2c([O-])c3ccccc3c2C(=O)[N-]c2ccc(C3CC3)cc2-c2ccc[n-]c2=O)no1 (nonaromatic ring conformer: 412.349099458015 kcal/mol)

>  <smiles>  (9) 
Cc1nc(Cn2c(O)c3ccccc3c2C(=O)Nc2ccc(C3CC3)cc2-c2ccc[nH]c2=O)no1

>  <score_type>  (9) 
oracle

>  <origin>  (9) 
adgpu

>  <m_score__min__energy>  (9) 
-13.06

>  <m_primary>  (9) 
energy

$$$$
9:0
     RDKit          3D

 41 42  0  0  0  0  0  0  0  0999 V2000
   -3.5370   25.0210  -30.4780 N   0  0  0  0  0  0  0  0  0  0  0  0
   -4.7840   23.9280  -30.9620 S   0  0  0  0  0  0  0  0  0  0  0  0
   -5.6530   24.5870  -31.9960 O   0  0  0  0  0  0  0  0  0  0  0  0
   -5.6330   23.5760  -29.7730 O   0  0  0  0  0  0  0  0  0  0  0  0
   -4.0600   22.4690  -31.6320 C   0  0  0  0  0  0  0  0  0  0  0  0
   -3.9750   22.2950  -33.0190 C   0  0  0  0  0  0  0  0  0  0  0  0
   -3.3910   21.1410  -33.5500 C   0  0  0  0  0  0  0  0  0  0  0  0
   -2.8760   20.1520  -32.6970 C   0  0  0  0  0  0  0  0  0  0  0  0
   -2.2740   18.8950  -33.2710 C   0  0  0  0  0  0  0  0  0  0  0  0
   -3.3400   17.9850  -33.8930 C   0  0  0  0  0  0  0  0  0  0  0  0
   -4.4320   17.7420  -32.9450 N   0  0  0  0  0  0  0  0  0  0  0  0
   -5.9570   17.8140  -33.7730 S   0  0  0  0  0  0  0  0  0  0  0  0
   -6.5930   16.4500  -33.7920 O   0  0  0  0  0  0  0  0  0  0  0  0
   -5.7300   18.2520  -35.1930 O   0  0  0  0  0  0  0  0  0  0  0  0
   -7.0200   18.9720  -32.9800 C   0  0  0  0  0  0  0  0  0  0  0  0
   -8.2360   18.5420  -32.4440 C   0  0  0  0  0  0  0  0  0  0  0  0
   -9.0920   19.4530  -31.8240 C   0  0  0  0  0  0  0  0  0  0  0  0
   -8.7500   20.8110  -31.7310 C   0  0  0  0  0  0  0  0  0  0  0  0
   -9.6410   21.6980  -31.0420 N   0  0  0  0  0  0  0  0  0  0  0  0
   -7.5310   21.2580  -32.2990 C   0  0  0  0  0  0  0  0  0  0  0  0
   -7.1530   22.6420  -32.2940 N   0  0  0  0  0  0  0  0  0  0  0  0
   -6.6730   20.3280  -32.9100 C   0  0  0  0  0  0  0  0  0  0  0  0
   -2.9630   20.3290  -31.3060 C   0  0  0  0  0  0  0  0  0  0  0  0
   -3.5470   21.4840  -30.7770 C   0  0  0  0  0  0  0  0  0  0  0  0
   -3.4820   25.7640  -31.2110 H   0  0  0  0  0  0  0  0  0  0  0  0
   -4.3693   23.0694  -33.6934 H   0  0  0  0  0  0  0  0  0  0  0  0
   -3.3348   21.0074  -34.6404 H   0  0  0  0  0  0  0  0  0  0  0  0
   -1.5452   19.1716  -34.0471 H   0  0  0  0  0  0  0  0  0  0  0  0
   -1.7895   18.3433  -32.4519 H   0  0  0  0  0  0  0  0  0  0  0  0
   -3.7453   18.4677  -34.7945 H   0  0  0  0  0  0  0  0  0  0  0  0
   -2.8755   17.0220  -34.1515 H   0  0  0  0  0  0  0  0  0  0  0  0
   -4.4400   18.5210  -32.2480 H   0  0  0  0  0  0  0  0  0  0  0  0
   -8.5199   17.4814  -32.5109 H   0  0  0  0  0  0  0  0  0  0  0  0
  -10.0460   19.1027  -31.4032 H   0  0  0  0  0  0  0  0  0  0  0  0
   -9.9240   22.6040  -31.4780 H   0  0  0  0  0  0  0  0  0  0  0  0
  -10.1090   21.4430  -30.1460 H   0  0  0  0  0  0  0  0  0  0  0  0
   -6.8420   23.1440  -33.1520 H   0  0  0  0  0  0  0  0  0  0  0  0
   -7.0860   23.1660  -31.3930 H   0  0  0  0  0  0  0  0  0  0  0  0
   -5.7185   20.6680  -33.3381 H   0  0  0  0  0  0  0  0  0  0  0  0
   -2.5699   19.5554  -30.6300 H   0  0  0  0  0  0  0  0  0  0  0  0
   -3.6040   21.6200  -29.6869 H   0  0  0  0  0  0  0  0  0  0  0  0
  1  2  1  0
  2  3  2  0
  2  4  2  0
  2  5  1  0
  5  6  2  0
  6  7  1  0
  7  8  2  0
  8  9  1  0
  9 10  1  0
 10 11  1  0
 11 12  1  0
 12 13  2  0
 12 14  2  0
 12 15  1  0
 15 16  2  0
 16 17  1  0
 17 18  2  0
 18 19  1  0
 18 20  1  0
 20 21  1  0
 20 22  2  0
  8 23  1  0
 23 24  2  0
 24  5  1  0
 22 15  1  0
  1 25  1  0
  6 26  1  0
  7 27  1  0
  9 28  1  0
  9 29  1  0
 10 30  1  0
 10 31  1  0
 11 32  1  0
 16 33  1  0
 17 34  1  0
 19 35  1  0
 19 36  1  0
 21 37  1  0
 21 38  1  0
 22 39  1  0
 23 40  1  0
 24 41  1  0
M  CHG  1   1  -1
M  END
>  <UniqueID>  (10) 
8

>  <SMILES>  (10) 
[NH-]S(=O)(=O)c1ccc(CCNS(=O)(=O)c2ccc(N)c(N)c2)cc1

>  <Energy>  (10) 
37.538008809564595

>  <Genealogy>  (10) 
[NH-]S(=O)(=O)c1ccc(CCNS(=O)(=O)c2ccc(N)c(N)c2)cc1 (protonated)
[NH-]S(=O)(=O)c1ccc(CCNS(=O)(=O)c2ccc(N)c(N)c2)cc1 (3D coordinates assigned)
[NH-]S(=O)(=O)c1ccc(CCNS(=O)(=O)c2ccc(N)c(N)c2)cc1 (optimized conformer: 37.538008809564595 kcal/mol)

>  <smiles>  (10) 
Nc1ccc(S(=O)(=O)NCCc2ccc(S(N)(=O)=O)cc2)cc1N

>  <score_type>  (10) 
oracle

>  <origin>  (10) 
adgpu

>  <m_score__min__energy>  (10) 
-10.65

>  <m_primary>  (10) 
energy

$$$$
10:0
     RDKit          3D

 47 49  0  0  0  0  0  0  0  0999 V2000
   -4.7280   18.9190  -33.0180 C   0  0  0  0  0  0  0  0  0  0  0  0
   -4.8650   20.4090  -33.0530 C   0  0  0  0  0  0  0  0  0  0  0  0
   -3.8910   21.1000  -33.4630 O   0  0  0  0  0  0  0  0  0  0  0  0
   -6.0520   21.0580  -32.5510 N   0  0  0  0  0  0  0  0  0  0  0  0
   -7.3450   20.3880  -32.7970 C   0  0  0  0  0  0  0  0  0  0  0  0
   -8.5390   21.2140  -32.3140 C   0  0  0  0  0  0  0  0  0  0  0  0
   -8.3200   21.6780  -30.8750 C   0  0  0  0  0  0  0  0  0  0  0  0
   -7.0520   22.4800  -30.7830 C   0  0  0  0  0  0  0  0  0  0  0  0
   -6.9520   23.5180  -29.8470 C   0  0  0  0  0  0  0  0  0  0  0  0
   -5.7820   24.2720  -29.7430 C   0  0  0  0  0  0  0  0  0  0  0  0
   -5.7230   25.2910  -28.7910 O   0  0  0  0  0  0  0  0  0  0  0  0
   -4.6910   23.9960  -30.5870 C   0  0  0  0  0  0  0  0  0  0  0  0
   -3.4970   24.7800  -30.4620 N   0  0  0  0  0  0  0  0  0  0  0  0
   -2.3200   24.6220  -29.1980 S   0  0  0  0  0  0  0  0  0  0  0  0
   -2.9980   24.7860  -27.8680 O   0  0  0  0  0  0  0  0  0  0  0  0
   -1.2590   25.6760  -29.3450 O   0  0  0  0  0  0  0  0  0  0  0  0
   -1.5680   23.0210  -29.3050 C   0  0  0  0  0  0  0  0  0  0  0  0
   -1.6710   22.3030  -30.5070 C   0  0  0  0  0  0  0  0  0  0  0  0
   -1.1000   21.0350  -30.6320 C   0  0  0  0  0  0  0  0  0  0  0  0
   -0.4030   20.4650  -29.5600 C   0  0  0  0  0  0  0  0  0  0  0  0
    0.1700   19.0830  -29.6820 C   0  0  0  0  0  0  0  0  0  0  0  0
   -0.3060   21.1660  -28.3510 C   0  0  0  0  0  0  0  0  0  0  0  0
   -0.8680   22.4490  -28.2130 C   0  0  0  0  0  0  0  0  0  0  0  0
   -0.7440   23.1610  -26.8900 C   0  0  0  0  0  0  0  0  0  0  0  0
   -4.7920   22.9550  -31.5260 C   0  0  0  0  0  0  0  0  0  0  0  0
   -5.9550   22.1600  -31.6060 C   0  0  0  0  0  0  0  0  0  0  0  0
   -4.6967   18.5781  -31.9726 H   0  0  0  0  0  0  0  0  0  0  0  0
   -5.5877   18.4597  -33.5278 H   0  0  0  0  0  0  0  0  0  0  0  0
   -3.7990   18.6241  -33.5278 H   0  0  0  0  0  0  0  0  0  0  0  0
   -7.4514   20.2143  -33.8780 H   0  0  0  0  0  0  0  0  0  0  0  0
   -7.3432   19.4443  -32.2318 H   0  0  0  0  0  0  0  0  0  0  0  0
   -8.6578   22.0934  -32.9640 H   0  0  0  0  0  0  0  0  0  0  0  0
   -9.4436   20.5893  -32.3532 H   0  0  0  0  0  0  0  0  0  0  0  0
   -9.1696   22.3015  -30.5596 H   0  0  0  0  0  0  0  0  0  0  0  0
   -8.2404   20.7985  -30.2192 H   0  0  0  0  0  0  0  0  0  0  0  0
   -7.8039   23.7408  -29.1877 H   0  0  0  0  0  0  0  0  0  0  0  0
   -4.8450   25.6750  -28.4580 H   0  0  0  0  0  0  0  0  0  0  0  0
   -2.2075   22.7443  -31.3599 H   0  0  0  0  0  0  0  0  0  0  0  0
   -1.1983   20.4812  -31.5773 H   0  0  0  0  0  0  0  0  0  0  0  0
    0.3423   18.6676  -28.6781 H   0  0  0  0  0  0  0  0  0  0  0  0
   -0.5358   18.4404  -30.2286 H   0  0  0  0  0  0  0  0  0  0  0  0
    1.1235   19.1283  -30.2286 H   0  0  0  0  0  0  0  0  0  0  0  0
    0.2163   20.7077  -27.4983 H   0  0  0  0  0  0  0  0  0  0  0  0
   -0.8700   22.4375  -26.0710 H   0  0  0  0  0  0  0  0  0  0  0  0
    0.2491   23.6284  -26.8168 H   0  0  0  0  0  0  0  0  0  0  0  0
   -1.5206   23.9366  -26.8168 H   0  0  0  0  0  0  0  0  0  0  0  0
   -3.9522   22.7572  -32.2084 H   0  0  0  0  0  0  0  0  0  0  0  0
  1  2  1  0
  2  3  2  0
  2  4  1  0
  4  5  1  0
  5  6  1  0
  6  7  1  0
  7  8  1  0
  8  9  2  0
  9 10  1  0
 10 11  1  0
 10 12  2  0
 12 13  1  0
 13 14  1  0
 14 15  2  0
 14 16  2  0
 14 17  1  0
 17 18  2  0
 18 19  1  0
 19 20  2  0
 20 21  1  0
 20 22  1  0
 22 23  2  0
 23 24  1  0
 12 25  1  0
 25 26  2  0
 26  4  1  0
 26  8  1  0
 23 17  1  0
  1 27  1  0
  1 28  1  0
  1 29  1  0
  5 30  1  0
  5 31  1  0
  6 32  1  0
  6 33  1  0
  7 34  1  0
  7 35  1  0
  9 36  1  0
 11 37  1  0
 18 38  1  0
 19 39  1  0
 21 40  1  0
 21 41  1  0
 21 42  1  0
 22 43  1  0
 24 44  1  0
 24 45  1  0
 24 46  1  0
 25 47  1  0
M  CHG  1  13  -1
M  END
>  <UniqueID>  (11) 
9

>  <SMILES>  (11) 
CC(=O)N1CCCc2cc(O)c([N-]S(=O)(=O)c3ccc(C)cc3C)cc21

>  <Energy>  (11) 
58.1944954551418

>  <Genealogy>  (11) 
CC(=O)N1CCCc2cc(O)c([N-]S(=O)(=O)c3ccc(C)cc3C)cc21 (protonated)
CC(=O)N1CCCc2cc(O)c([N-]S(=O)(=O)c3ccc(C)cc3C)cc21 (3D coordinates assigned)
CC(=O)N1CCCc2cc(O)c([N-]S(=O)(=O)c3ccc(C)cc3C)cc21 (nonaromatic ring conformer: 58.1944954551418 kcal/mol)

>  <smiles>  (11) 
CC(=O)N1CCCc2cc(O)c(NS(=O)(=O)c3ccc(C)cc3C)cc21

>  <score_type>  (11) 
oracle

>  <origin>  (11) 
adgpu

>  <m_score__min__energy>  (11) 
-10.210000000000001

>  <m_primary>  (11) 
energy

$$$$
11:0
     RDKit          3D

 53 56  0  0  0  0  0  0  0  0999 V2000
   -8.4930   19.8740  -31.7010 C   0  0  0  0  0  0  0  0  0  0  0  0
   -8.0030   21.1780  -32.3180 C   0  0  0  0  0  0  0  0  0  0  0  0
   -6.5380   21.2450  -32.2750 N   0  0  0  0  0  0  0  0  0  0  0  0
   -5.9760   22.1580  -31.4780 N   0  0  0  0  0  0  0  0  0  0  0  0
   -4.6320   22.3200  -31.3740 C   0  0  0  0  0  0  0  0  0  0  0  0
   -4.1360   23.3270  -30.4190 C   0  0  0  0  0  0  0  0  0  0  0  0
   -3.9970   24.5170  -30.8080 O   0  0  0  0  0  0  0  0  0  0  0  0
   -3.8470   22.9590  -29.0590 N   0  0  0  0  0  0  0  0  0  0  0  0
   -3.3590   23.8730  -28.0630 C   0  0  0  0  0  0  0  0  0  0  0  0
   -4.2470   24.3830  -27.1060 C   0  0  0  0  0  0  0  0  0  0  0  0
   -3.8000   25.2830  -26.1350 C   0  0  0  0  0  0  0  0  0  0  0  0
   -2.4640   25.6910  -26.1200 C   0  0  0  0  0  0  0  0  0  0  0  0
   -1.5680   25.2040  -27.0810 C   0  0  0  0  0  0  0  0  0  0  0  0
    0.1200   25.7150  -27.0630 S   0  0  0  0  0  0  0  0  0  0  0  0
    0.2040   27.1600  -27.4700 O   0  0  0  0  0  0  0  0  0  0  0  0
    0.8810   24.9090  -28.0790 O   0  0  0  0  0  0  0  0  0  0  0  0
    0.8670   25.5130  -25.4910 N   0  0  0  0  0  0  0  0  0  0  0  0
    1.5720   26.7280  -25.0410 C   0  0  0  0  0  0  0  0  0  0  0  0
    0.6280   27.7720  -24.3970 C   0  0  0  0  0  0  0  0  0  0  0  0
   -0.6720   27.2750  -24.1450 O   0  0  0  0  0  0  0  0  0  0  0  0
   -0.5870   26.0240  -23.5050 C   0  0  0  0  0  0  0  0  0  0  0  0
   -0.0610   24.9600  -24.4810 C   0  0  0  0  0  0  0  0  0  0  0  0
   -2.0220   24.3110  -28.0610 C   0  0  0  0  0  0  0  0  0  0  0  0
   -3.7800   21.5260  -32.1700 C   0  0  0  0  0  0  0  0  0  0  0  0
   -2.3800   21.6980  -32.1850 C   0  0  0  0  0  0  0  0  0  0  0  0
   -1.5740   20.8850  -32.9860 C   0  0  0  0  0  0  0  0  0  0  0  0
   -2.1490   19.9040  -33.7910 C   0  0  0  0  0  0  0  0  0  0  0  0
   -3.5340   19.7370  -33.8130 C   0  0  0  0  0  0  0  0  0  0  0  0
   -4.3630   20.5500  -33.0140 C   0  0  0  0  0  0  0  0  0  0  0  0
   -5.7630   20.4260  -33.0520 C   0  0  0  0  0  0  0  0  0  0  0  0
   -6.3040   19.5690  -33.8070 O   0  0  0  0  0  0  0  0  0  0  0  0
   -8.4632   19.9533  -30.6043 H   0  0  0  0  0  0  0  0  0  0  0  0
   -9.5255   19.6795  -32.0266 H   0  0  0  0  0  0  0  0  0  0  0  0
   -7.8440   19.0477  -32.0266 H   0  0  0  0  0  0  0  0  0  0  0  0
   -8.3378   21.2322  -33.3644 H   0  0  0  0  0  0  0  0  0  0  0  0
   -8.4159   22.0213  -31.7450 H   0  0  0  0  0  0  0  0  0  0  0  0
   -3.9070   21.9480  -28.7990 H   0  0  0  0  0  0  0  0  0  0  0  0
   -5.3023   24.0729  -27.1194 H   0  0  0  0  0  0  0  0  0  0  0  0
   -4.5011   25.6708  -25.3813 H   0  0  0  0  0  0  0  0  0  0  0  0
   -2.1145   26.3964  -25.3518 H   0  0  0  0  0  0  0  0  0  0  0  0
    2.3316   26.4383  -24.3001 H   0  0  0  0  0  0  0  0  0  0  0  0
    2.0218   27.1953  -25.9294 H   0  0  0  0  0  0  0  0  0  0  0  0
    1.0677   28.0976  -23.4427 H   0  0  0  0  0  0  0  0  0  0  0  0
    0.5252   28.6013  -25.1124 H   0  0  0  0  0  0  0  0  0  0  0  0
    0.0983   26.1007  -22.6480 H   0  0  0  0  0  0  0  0  0  0  0  0
   -1.5894   25.7294  -23.1609 H   0  0  0  0  0  0  0  0  0  0  0  0
    0.4678   24.1864  -23.9050 H   0  0  0  0  0  0  0  0  0  0  0  0
   -0.9278   24.5492  -25.0195 H   0  0  0  0  0  0  0  0  0  0  0  0
   -1.3280   23.9499  -28.8343 H   0  0  0  0  0  0  0  0  0  0  0  0
   -1.9193   22.4782  -31.5613 H   0  0  0  0  0  0  0  0  0  0  0  0
   -0.4823   21.0199  -32.9810 H   0  0  0  0  0  0  0  0  0  0  0  0
   -1.5091   19.2591  -34.4112 H   0  0  0  0  0  0  0  0  0  0  0  0
   -3.9816   18.9663  -34.4577 H   0  0  0  0  0  0  0  0  0  0  0  0
  1  2  1  0
  2  3  1  0
  3  4  1  0
  4  5  2  0
  5  6  1  0
  6  7  2  0
  6  8  1  0
  8  9  1  0
  9 10  2  0
 10 11  1  0
 11 12  2  0
 12 13  1  0
 13 14  1  0
 14 15  2  0
 14 16  2  0
 14 17  1  0
 17 18  1  0
 18 19  1  0
 19 20  1  0
 20 21  1  0
 21 22  1  0
 13 23  2  0
  5 24  1  0
 24 25  2  0
 25 26  1  0
 26 27  2  0
 27 28  1  0
 28 29  2  0
 29 30  1  0
 30 31  2  0
 30  3  1  0
 23  9  1  0
 29 24  1  0
 22 17  1  0
  1 32  1  0
  1 33  1  0
  1 34  1  0
  2 35  1  0
  2 36  1  0
  8 37  1  0
 10 38  1  0
 11 39  1  0
 12 40  1  0
 18 41  1  0
 18 42  1  0
 19 43  1  0
 19 44  1  0
 21 45  1  0
 21 46  1  0
 22 47  1  0
 22 48  1  0
 23 49  1  0
 25 50  1  0
 26 51  1  0
 27 52  1  0
 28 53  1  0
M  END
>  <UniqueID>  (12) 
10

>  <SMILES>  (12) 
CCn1nc(C(=O)Nc2cccc(S(=O)(=O)N3CCOCC3)c2)c2ccccc2c1=O

>  <Energy>  (12) 
80.1274164802667

>  <Genealogy>  (12) 
CCn1nc(C(=O)Nc2cccc(S(=O)(=O)N3CCOCC3)c2)c2ccccc2c1=O (3D coordinates assigned)
CCn1nc(C(=O)Nc2cccc(S(=O)(=O)N3CCOCC3)c2)c2ccccc2c1=O (nonaromatic ring conformer: 80.1274164802667 kcal/mol)

>  <smiles>  (12) 
CCn1nc(C(=O)Nc2cccc(S(=O)(=O)N3CCOCC3)c2)c2ccccc2c1=O

>  <score_type>  (12) 
oracle

>  <origin>  (12) 
adgpu

>  <m_score__min__energy>  (12) 
-9.9800000000000004

>  <m_primary>  (12) 
energy

$$$$
12:0
     RDKit          3D

 26 27  0  0  0  0  0  0  0  0999 V2000
   -3.9900   25.4670  -30.8490 O   0  0  0  0  0  0  0  0  0  0  0  0
   -3.5870   24.9240  -29.7870 C   0  0  0  0  0  0  0  0  0  0  0  0
   -2.3770   25.2780  -29.2780 N   0  0  0  0  0  0  0  0  0  0  0  0
   -1.8880   24.7290  -28.1350 C   0  0  0  0  0  0  0  0  0  0  0  0
   -2.6330   23.7720  -27.4500 C   0  0  0  0  0  0  0  0  0  0  0  0
   -3.8780   23.3870  -27.9460 C   0  0  0  0  0  0  0  0  0  0  0  0
   -4.3800   23.9640  -29.1280 C   0  0  0  0  0  0  0  0  0  0  0  0
   -5.6650   23.5910  -29.6670 N   0  0  0  0  0  0  0  0  0  0  0  0
   -5.9600   23.3030  -31.3530 S   0  0  0  0  0  0  0  0  0  0  0  0
   -6.4900   24.5590  -31.9840 O   0  0  0  0  0  0  0  0  0  0  0  0
   -4.6660   22.9280  -32.0200 O   0  0  0  0  0  0  0  0  0  0  0  0
   -7.1560   22.0260  -31.5480 C   0  0  0  0  0  0  0  0  0  0  0  0
   -8.5270   22.3220  -31.5110 C   0  0  0  0  0  0  0  0  0  0  0  0
   -9.4700   21.3040  -31.6750 C   0  0  0  0  0  0  0  0  0  0  0  0
   -9.0500   19.9860  -31.8770 C   0  0  0  0  0  0  0  0  0  0  0  0
   -7.6850   19.6840  -31.9100 C   0  0  0  0  0  0  0  0  0  0  0  0
   -7.2780   18.4050  -32.1030 F   0  0  0  0  0  0  0  0  0  0  0  0
   -6.7390   20.7000  -31.7440 C   0  0  0  0  0  0  0  0  0  0  0  0
   -0.9051   25.0400  -27.7513 H   0  0  0  0  0  0  0  0  0  0  0  0
   -2.2422   23.3234  -26.5248 H   0  0  0  0  0  0  0  0  0  0  0  0
   -4.4702   22.6295  -27.4117 H   0  0  0  0  0  0  0  0  0  0  0  0
   -6.4620   23.4110  -29.0180 H   0  0  0  0  0  0  0  0  0  0  0  0
   -8.8604   23.3582  -31.3525 H   0  0  0  0  0  0  0  0  0  0  0  0
  -10.5440   21.5399  -31.6451 H   0  0  0  0  0  0  0  0  0  0  0  0
   -9.7935   19.1863  -32.0100 H   0  0  0  0  0  0  0  0  0  0  0  0
   -5.6658   20.4598  -31.7670 H   0  0  0  0  0  0  0  0  0  0  0  0
  1  2  2  0
  2  3  1  0
  3  4  1  0
  4  5  2  0
  5  6  1  0
  6  7  2  0
  7  8  1  0
  8  9  1  0
  9 10  2  0
  9 11  2  0
  9 12  1  0
 12 13  2  0
 13 14  1  0
 14 15  2  0
 15 16  1  0
 16 17  1  0
 16 18  2  0
  7  2  1  0
 18 12  1  0
  4 19  1  0
  5 20  1  0
  6 21  1  0
  8 22  1  0
 13 23  1  0
 14 24  1  0
 15 25  1  0
 18 26  1  0
M  CHG  1   3  -1
M  END
>  <UniqueID>  (13) 
11

>  <SMILES>  (13) 
O=c1[n-]cccc1NS(=O)(=O)c1cccc(F)c1

>  <Energy>  (13) 
31.28692987219272

>  <Genealogy>  (13) 
O=c1[n-]cccc1NS(=O)(=O)c1cccc(F)c1 (protonated)
O=c1[n-]cccc1NS(=O)(=O)c1cccc(F)c1 (3D coordinates assigned)
O=c1[n-]cccc1NS(=O)(=O)c1cccc(F)c1 (optimized conformer: 31.28692987219272 kcal/mol)

>  <smiles>  (13) 
O=c1[nH]cccc1NS(=O)(=O)c1cccc(F)c1

>  <score_type>  (13) 
oracle

>  <origin>  (13) 
adgpu

>  <m_score__min__energy>  (13) 
-9.5099999999999998

>  <m_primary>  (13) 
energy

$$$$
13:0
     RDKit          3D

 57 61  0  0  0  0  0  0  0  0999 V2000
   -4.2710   25.6090  -30.9360 O   0  0  0  0  0  0  0  0  0  0  0  0
   -5.2960   25.0050  -30.0170 S   0  0  0  0  0  0  0  0  0  0  0  0
   -6.3110   26.0410  -29.6300 O   0  0  0  0  0  0  0  0  0  0  0  0
   -4.5040   24.3840  -28.6020 N   0  0  0  0  0  0  0  0  0  0  0  0
   -3.2370   23.7130  -28.5660 C   0  0  0  0  0  0  0  0  0  0  0  0
   -3.2100   22.3950  -28.1020 C   0  0  0  0  0  0  0  0  0  0  0  0
   -2.0110   21.6710  -28.0660 C   0  0  0  0  0  0  0  0  0  0  0  0
   -0.8150   22.2780  -28.4860 C   0  0  0  0  0  0  0  0  0  0  0  0
   -0.8330   23.6110  -28.9140 C   0  0  0  0  0  0  0  0  0  0  0  0
   -2.0300   24.3340  -28.9450 C   0  0  0  0  0  0  0  0  0  0  0  0
   -1.9900   25.6690  -29.3210 O   0  0  0  0  0  0  0  0  0  0  0  0
    0.5050   21.5470  -28.4250 C   0  0  0  0  0  0  0  0  0  0  0  0
    0.3890   20.0740  -28.1150 C   0  0  0  0  0  0  0  0  0  0  0  0
    1.5330   19.2660  -28.2010 C   0  0  0  0  0  0  0  0  0  0  0  0
    1.4600   17.9060  -27.8940 C   0  0  0  0  0  0  0  0  0  0  0  0
    0.2480   17.3440  -27.4840 C   0  0  0  0  0  0  0  0  0  0  0  0
   -0.8940   18.1400  -27.3840 C   0  0  0  0  0  0  0  0  0  0  0  0
   -0.8320   19.5060  -27.7000 C   0  0  0  0  0  0  0  0  0  0  0  0
   -2.0140   20.3110  -27.6230 N   0  0  0  0  0  0  0  0  0  0  0  0
   -6.0870   23.6720  -30.8430 C   0  0  0  0  0  0  0  0  0  0  0  0
   -7.4630   23.7150  -31.1010 C   0  0  0  0  0  0  0  0  0  0  0  0
   -8.0720   22.6790  -31.8120 C   0  0  0  0  0  0  0  0  0  0  0  0
   -7.3130   21.6000  -32.2720 C   0  0  0  0  0  0  0  0  0  0  0  0
   -5.9360   21.5450  -32.0110 C   0  0  0  0  0  0  0  0  0  0  0  0
   -4.9590   20.2190  -32.6410 S   0  0  0  0  0  0  0  0  0  0  0  0
   -5.1160   19.0280  -31.7390 O   0  0  0  0  0  0  0  0  0  0  0  0
   -5.4500   19.8380  -34.0080 O   0  0  0  0  0  0  0  0  0  0  0  0
   -3.2720   20.6580  -32.7400 N   0  0  0  0  0  0  0  0  0  0  0  0
   -2.6360   20.5420  -31.4130 C   0  0  0  0  0  0  0  0  0  0  0  0
   -1.0960   20.6440  -31.4850 C   0  0  0  0  0  0  0  0  0  0  0  0
   -0.6240   21.2050  -32.8300 C   0  0  0  0  0  0  0  0  0  0  0  0
   -1.1680   20.3700  -34.0010 C   0  0  0  0  0  0  0  0  0  0  0  0
   -2.5780   19.8170  -33.7280 C   0  0  0  0  0  0  0  0  0  0  0  0
   -5.3310   22.5770  -31.2810 C   0  0  0  0  0  0  0  0  0  0  0  0
   -4.1417   21.9201  -27.7608 H   0  0  0  0  0  0  0  0  0  0  0  0
    0.1035   24.0945  -29.2290 H   0  0  0  0  0  0  0  0  0  0  0  0
    1.0034   21.6552  -29.3996 H   0  0  0  0  0  0  0  0  0  0  0  0
    1.0752   21.9974  -27.5992 H   0  0  0  0  0  0  0  0  0  0  0  0
    2.4919   19.7063  -28.5118 H   0  0  0  0  0  0  0  0  0  0  0  0
    2.3580   17.2758  -27.9750 H   0  0  0  0  0  0  0  0  0  0  0  0
    0.1940   16.2728  -27.2398 H   0  0  0  0  0  0  0  0  0  0  0  0
   -1.8454   17.6955  -27.0566 H   0  0  0  0  0  0  0  0  0  0  0  0
   -2.9050   19.8830  -27.2840 H   0  0  0  0  0  0  0  0  0  0  0  0
   -8.0636   24.5645  -30.7437 H   0  0  0  0  0  0  0  0  0  0  0  0
   -9.1534   22.7125  -32.0107 H   0  0  0  0  0  0  0  0  0  0  0  0
   -7.7965   20.7917  -32.8402 H   0  0  0  0  0  0  0  0  0  0  0  0
   -3.0135   21.3499  -30.7689 H   0  0  0  0  0  0  0  0  0  0  0  0
   -2.8871   19.5509  -31.0071 H   0  0  0  0  0  0  0  0  0  0  0  0
   -0.7453   21.3068  -30.6802 H   0  0  0  0  0  0  0  0  0  0  0  0
   -0.6812   19.6314  -31.3730 H   0  0  0  0  0  0  0  0  0  0  0  0
   -0.9800   22.2408  -32.9318 H   0  0  0  0  0  0  0  0  0  0  0  0
    0.4751   21.1689  -32.8567 H   0  0  0  0  0  0  0  0  0  0  0  0
   -1.2061   21.0047  -34.8986 H   0  0  0  0  0  0  0  0  0  0  0  0
   -0.4943   19.5116  -34.1397 H   0  0  0  0  0  0  0  0  0  0  0  0
   -3.1528   19.8089  -34.6658 H   0  0  0  0  0  0  0  0  0  0  0  0
   -2.4916   18.7947  -33.3312 H   0  0  0  0  0  0  0  0  0  0  0  0
   -4.2566   22.5269  -31.0507 H   0  0  0  0  0  0  0  0  0  0  0  0
  1  2  2  0
  2  3  2  0
  2  4  1  0
  4  5  1  0
  5  6  2  0
  6  7  1  0
  7  8  2  0
  8  9  1  0
  9 10  2  0
 10 11  1  0
  8 12  1  0
 12 13  1  0
 13 14  2  0
 14 15  1  0
 15 16  2  0
 16 17  1  0
 17 18  2  0
 18 19  1  0
  2 20  1  0
 20 21  2  0
 21 22  1  0
 22 23  2  0
 23 24  1  0
 24 25  1  0
 25 26  2  0
 25 27  2  0
 25 28  1  0
 28 29  1  0
 29 30  1  0
 30 31  1  0
 31 32  1  0
 32 33  1  0
 24 34  2  0
 10  5  1  0
 18 13  1  0
 34 20  1  0
 19  7  1  0
 33 28  1  0
  6 35  1  0
  9 36  1  0
 12 37  1  0
 12 38  1  0
 14 39  1  0
 15 40  1  0
 16 41  1  0
 17 42  1  0
 19 43  1  0
 21 44  1  0
 22 45  1  0
 23 46  1  0
 29 47  1  0
 29 48  1  0
 30 49  1  0
 30 50  1  0
 31 51  1  0
 31 52  1  0
 32 53  1  0
 32 54  1  0
 33 55  1  0
 33 56  1  0
 34 57  1  0
M  CHG  2   4  -1  11  -1
M  END
>  <UniqueID>  (14) 
12

>  <SMILES>  (14) 
O=S(=O)([N-]c1cc2c(cc1[O-])Cc1ccccc1N2)c1cccc(S(=O)(=O)N2CCCCC2)c1

>  <Energy>  (14) 
74.86043192935104

>  <Genealogy>  (14) 
O=S(=O)([N-]c1cc2c(cc1[O-])Cc1ccccc1N2)c1cccc(S(=O)(=O)N2CCCCC2)c1 (protonated)
O=S(=O)([N-]c1cc2c(cc1[O-])Cc1ccccc1N2)c1cccc(S(=O)(=O)N2CCCCC2)c1 (3D coordinates assigned)
O=S(=O)([N-]c1cc2c(cc1[O-])Cc1ccccc1N2)c1cccc(S(=O)(=O)N2CCCCC2)c1 (nonaromatic ring conformer: 74.86043192935104 kcal/mol)

>  <smiles>  (14) 
O=S(=O)(Nc1cc2c(cc1O)Cc1ccccc1N2)c1cccc(S(=O)(=O)N2CCCCC2)c1

>  <score_type>  (14) 
oracle

>  <origin>  (14) 
adgpu

>  <m_score__min__energy>  (14) 
-15.07

>  <m_primary>  (14) 
energy

$$$$
14:0
     RDKit          3D

 61 65  0  0  0  0  0  0  0  0999 V2000
    4.2250   27.2820  -23.7670 C   0  0  0  0  0  0  0  0  0  0  0  0
    3.7790   28.6870  -23.7350 N   0  0  0  0  0  0  0  0  0  0  0  0
    3.1880   29.1210  -25.0260 C   0  0  0  0  0  0  0  0  0  0  0  0
    1.6500   29.0260  -25.0560 C   0  0  0  0  0  0  0  0  0  0  0  0
    1.1950   27.9610  -24.1490 N   0  0  0  0  0  0  0  0  0  0  0  0
   -0.5150   27.6690  -24.3560 S   0  0  0  0  0  0  0  0  0  0  0  0
   -1.0970   27.2050  -23.0480 O   0  0  0  0  0  0  0  0  0  0  0  0
   -1.2040   28.9490  -24.7450 O   0  0  0  0  0  0  0  0  0  0  0  0
   -0.8170   26.4440  -25.5910 C   0  0  0  0  0  0  0  0  0  0  0  0
   -0.6930   26.7580  -26.9500 C   0  0  0  0  0  0  0  0  0  0  0  0
   -0.9080   25.7790  -27.9240 C   0  0  0  0  0  0  0  0  0  0  0  0
   -1.2490   24.4630  -27.5540 C   0  0  0  0  0  0  0  0  0  0  0  0
   -1.4870   23.4000  -28.5670 C   0  0  0  0  0  0  0  0  0  0  0  0
   -0.6120   22.3080  -28.7230 C   0  0  0  0  0  0  0  0  0  0  0  0
   -0.8850   21.3310  -29.6850 C   0  0  0  0  0  0  0  0  0  0  0  0
   -2.0310   21.4350  -30.4810 C   0  0  0  0  0  0  0  0  0  0  0  0
   -2.3370   20.4710  -31.4520 C   0  0  0  0  0  0  0  0  0  0  0  0
   -3.4970   20.5980  -32.2280 C   0  0  0  0  0  0  0  0  0  0  0  0
   -3.8610   19.4000  -33.4670 S   0  0  0  0  0  0  0  0  0  0  0  0
   -3.7230   18.0130  -32.9050 O   0  0  0  0  0  0  0  0  0  0  0  0
   -2.8740   19.5530  -34.5920 O   0  0  0  0  0  0  0  0  0  0  0  0
   -5.4660   19.5960  -34.0950 N   0  0  0  0  0  0  0  0  0  0  0  0
   -6.6460   19.5300  -33.2840 C   0  0  0  0  0  0  0  0  0  0  0  0
   -7.2660   20.7010  -32.8170 C   0  0  0  0  0  0  0  0  0  0  0  0
   -8.4140   20.6220  -32.0230 C   0  0  0  0  0  0  0  0  0  0  0  0
   -8.9510   19.3740  -31.6870 C   0  0  0  0  0  0  0  0  0  0  0  0
   -8.3550   18.2050  -32.1670 C   0  0  0  0  0  0  0  0  0  0  0  0
   -7.2090   18.2780  -32.9720 C   0  0  0  0  0  0  0  0  0  0  0  0
   -6.4740   16.7890  -33.5530 Cl  0  0  0  0  0  0  0  0  0  0  0  0
   -4.3500   21.6950  -32.0330 C   0  0  0  0  0  0  0  0  0  0  0  0
   -4.0480   22.6590  -31.0680 C   0  0  0  0  0  0  0  0  0  0  0  0
   -2.8920   22.5360  -30.2910 C   0  0  0  0  0  0  0  0  0  0  0  0
   -2.6000   23.4730  -29.3530 N   0  0  0  0  0  0  0  0  0  0  0  0
   -1.3890   24.1630  -26.1850 C   0  0  0  0  0  0  0  0  0  0  0  0
   -1.1700   25.1420  -25.2140 C   0  0  0  0  0  0  0  0  0  0  0  0
    1.4930   28.3060  -22.7440 C   0  0  0  0  0  0  0  0  0  0  0  0
    2.8870   28.9580  -22.5870 C   0  0  0  0  0  0  0  0  0  0  0  0
    4.3427   26.9112  -22.7381 H   0  0  0  0  0  0  0  0  0  0  0  0
    3.4765   26.6716  -24.2934 H   0  0  0  0  0  0  0  0  0  0  0  0
    5.1886   27.2151  -24.2934 H   0  0  0  0  0  0  0  0  0  0  0  0
    3.4767   30.1667  -25.2079 H   0  0  0  0  0  0  0  0  0  0  0  0
    3.5711   28.4435  -25.8033 H   0  0  0  0  0  0  0  0  0  0  0  0
    1.2192   29.9862  -24.7358 H   0  0  0  0  0  0  0  0  0  0  0  0
    1.3220   28.7935  -26.0799 H   0  0  0  0  0  0  0  0  0  0  0  0
   -0.4249   27.7810  -27.2527 H   0  0  0  0  0  0  0  0  0  0  0  0
   -0.8101   26.0381  -28.9886 H   0  0  0  0  0  0  0  0  0  0  0  0
    0.2836   22.2239  -28.0899 H   0  0  0  0  0  0  0  0  0  0  0  0
   -0.1992   20.4810  -29.8161 H   0  0  0  0  0  0  0  0  0  0  0  0
   -1.6653   19.6134  -31.6050 H   0  0  0  0  0  0  0  0  0  0  0  0
   -6.8465   21.6840  -33.0771 H   0  0  0  0  0  0  0  0  0  0  0  0
   -8.8961   21.5424  -31.6617 H   0  0  0  0  0  0  0  0  0  0  0  0
   -9.8422   19.3135  -31.0451 H   0  0  0  0  0  0  0  0  0  0  0  0
   -8.7856   17.2252  -31.9129 H   0  0  0  0  0  0  0  0  0  0  0  0
   -5.2601   21.7963  -32.6424 H   0  0  0  0  0  0  0  0  0  0  0  0
   -4.7209   23.5164  -30.9192 H   0  0  0  0  0  0  0  0  0  0  0  0
   -1.6741   23.1461  -25.8774 H   0  0  0  0  0  0  0  0  0  0  0  0
   -1.2751   24.8898  -24.1485 H   0  0  0  0  0  0  0  0  0  0  0  0
    0.7294   29.0103  -22.3823 H   0  0  0  0  0  0  0  0  0  0  0  0
    1.4871   27.3748  -22.1584 H   0  0  0  0  0  0  0  0  0  0  0  0
    2.7573   30.0462  -22.4919 H   0  0  0  0  0  0  0  0  0  0  0  0
    3.3571   28.5233  -21.6925 H   0  0  0  0  0  0  0  0  0  0  0  0
  1  2  1  0
  2  3  1  0
  3  4  1  0
  4  5  1  0
  5  6  1  0
  6  7  2  0
  6  8  2  0
  6  9  1  0
  9 10  2  0
 10 11  1  0
 11 12  2  0
 12 13  1  0
 13 14  2  0
 14 15  1  0
 15 16  2  0
 16 17  1  0
 17 18  2  0
 18 19  1  0
 19 20  2  0
 19 21  2  0
 19 22  1  0
 22 23  1  0
 23 24  2  0
 24 25  1  0
 25 26  2  0
 26 27  1  0
 27 28  2  0
 28 29  1  0
 18 30  1  0
 30 31  2  0
 31 32  1  0
 32 33  2  0
 12 34  1  0
 34 35  2  0
  5 36  1  0
 36 37  1  0
 37  2  1  0
 35  9  1  0
 33 13  1  0
 32 16  1  0
 28 23  1  0
  1 38  1  0
  1 39  1  0
  1 40  1  0
  3 41  1  0
  3 42  1  0
  4 43  1  0
  4 44  1  0
 10 45  1  0
 11 46  1  0
 14 47  1  0
 15 48  1  0
 17 49  1  0
 24 50  1  0
 25 51  1  0
 26 52  1  0
 27 53  1  0
 30 54  1  0
 31 55  1  0
 34 56  1  0
 35 57  1  0
 36 58  1  0
 36 59  1  0
 37 60  1  0
 37 61  1  0
M  CHG  1  22  -1
M  END
>  <UniqueID>  (15) 
13

>  <SMILES>  (15) 
CN1CCN(S(=O)(=O)c2ccc(-c3ccc4cc(S(=O)(=O)[N-]c5ccccc5Cl)ccc4n3)cc2)CC1

>  <Energy>  (15) 
90.64123668865047

>  <Genealogy>  (15) 
CN1CCN(S(=O)(=O)c2ccc(-c3ccc4cc(S(=O)(=O)[N-]c5ccccc5Cl)ccc4n3)cc2)CC1 (protonated)
CN1CCN(S(=O)(=O)c2ccc(-c3ccc4cc(S(=O)(=O)[N-]c5ccccc5Cl)ccc4n3)cc2)CC1 (3D coordinates assigned)
CN1CCN(S(=O)(=O)c2ccc(-c3ccc4cc(S(=O)(=O)[N-]c5ccccc5Cl)ccc4n3)cc2)CC1 (nonaromatic ring conformer: 90.64123668865047 kcal/mol)

>  <smiles>  (15) 
CN1CCN(S(=O)(=O)c2ccc(-c3ccc4cc(S(=O)(=O)Nc5ccccc5Cl)ccc4n3)cc2)CC1

>  <score_type>  (15) 
oracle

>  <origin>  (15) 
adgpu

>  <m_score__min__energy>  (15) 
-9.7300000000000004

>  <m_primary>  (15) 
energy

$$$$
15:0
     RDKit          3D

 48 50  0  0  0  0  0  0  0  0999 V2000
    1.6820   24.9100  -26.9290 C   0  0  0  0  0  0  0  0  0  0  0  0
    1.0090   24.6800  -28.1630 O   0  0  0  0  0  0  0  0  0  0  0  0
   -0.3040   24.1960  -28.2730 C   0  0  0  0  0  0  0  0  0  0  0  0
   -0.6280   22.8510  -28.0080 C   0  0  0  0  0  0  0  0  0  0  0  0
   -1.9460   22.4050  -28.1240 C   0  0  0  0  0  0  0  0  0  0  0  0
   -2.9660   23.2930  -28.4910 C   0  0  0  0  0  0  0  0  0  0  0  0
   -4.3910   22.8140  -28.6030 C   0  0  0  0  0  0  0  0  0  0  0  0
   -5.3280   23.9250  -28.7980 N   0  0  0  0  0  0  0  0  0  0  0  0
   -5.7650   24.1260  -30.4730 S   0  0  0  0  0  0  0  0  0  0  0  0
   -4.6400   24.8150  -31.1910 O   0  0  0  0  0  0  0  0  0  0  0  0
   -6.9870   24.9970  -30.5610 O   0  0  0  0  0  0  0  0  0  0  0  0
   -6.0710   22.5770  -31.2600 C   0  0  0  0  0  0  0  0  0  0  0  0
   -5.0350   21.9260  -31.9350 C   0  0  0  0  0  0  0  0  0  0  0  0
   -5.2540   20.6840  -32.5330 C   0  0  0  0  0  0  0  0  0  0  0  0
   -6.5230   20.0720  -32.4750 C   0  0  0  0  0  0  0  0  0  0  0  0
   -7.5500   20.7110  -31.7480 C   0  0  0  0  0  0  0  0  0  0  0  0
   -7.3290   21.9720  -31.1750 C   0  0  0  0  0  0  0  0  0  0  0  0
   -8.8860   20.0420  -31.5990 C   0  0  0  0  0  0  0  0  0  0  0  0
   -8.6990   18.5290  -31.5180 C   0  0  0  0  0  0  0  0  0  0  0  0
   -7.9870   18.0100  -32.7710 C   0  0  0  0  0  0  0  0  0  0  0  0
   -6.7670   18.7780  -33.0870 N   0  0  0  0  0  0  0  0  0  0  0  0
   -5.9720   18.3330  -34.2070 C   0  0  0  0  0  0  0  0  0  0  0  0
   -5.0400   17.1690  -34.0760 C   0  0  0  0  0  0  0  0  0  0  0  0
   -6.1030   18.8830  -35.3340 O   0  0  0  0  0  0  0  0  0  0  0  0
   -2.6450   24.6300  -28.7720 C   0  0  0  0  0  0  0  0  0  0  0  0
   -1.3250   25.0840  -28.6610 C   0  0  0  0  0  0  0  0  0  0  0  0
   -1.0490   26.4210  -28.9390 O   0  0  0  0  0  0  0  0  0  0  0  0
    1.0050   24.6786  -26.0935 H   0  0  0  0  0  0  0  0  0  0  0  0
    2.5708   24.2646  -26.8703 H   0  0  0  0  0  0  0  0  0  0  0  0
    1.9899   25.9644  -26.8703 H   0  0  0  0  0  0  0  0  0  0  0  0
    0.1625   22.1475  -27.7077 H   0  0  0  0  0  0  0  0  0  0  0  0
   -2.1852   21.3497  -27.9260 H   0  0  0  0  0  0  0  0  0  0  0  0
   -4.4693   22.1283  -29.4596 H   0  0  0  0  0  0  0  0  0  0  0  0
   -4.6548   22.3067  -27.6633 H   0  0  0  0  0  0  0  0  0  0  0  0
   -4.0417   22.3948  -31.9954 H   0  0  0  0  0  0  0  0  0  0  0  0
   -4.4285   20.1776  -33.0547 H   0  0  0  0  0  0  0  0  0  0  0  0
   -8.1500   22.4881  -30.6557 H   0  0  0  0  0  0  0  0  0  0  0  0
   -9.3733   20.3997  -30.6800 H   0  0  0  0  0  0  0  0  0  0  0  0
   -9.5135   20.2849  -32.4692 H   0  0  0  0  0  0  0  0  0  0  0  0
   -8.0953   18.2856  -30.6313 H   0  0  0  0  0  0  0  0  0  0  0  0
   -9.6872   18.0512  -31.4460 H   0  0  0  0  0  0  0  0  0  0  0  0
   -7.7094   16.9580  -32.6087 H   0  0  0  0  0  0  0  0  0  0  0  0
   -8.6797   18.1195  -33.6185 H   0  0  0  0  0  0  0  0  0  0  0  0
   -4.8684   16.9547  -33.0108 H   0  0  0  0  0  0  0  0  0  0  0  0
   -5.4844   16.2871  -34.5605 H   0  0  0  0  0  0  0  0  0  0  0  0
   -4.0822   17.4098  -34.5605 H   0  0  0  0  0  0  0  0  0  0  0  0
   -3.4372   25.3273  -29.0821 H   0  0  0  0  0  0  0  0  0  0  0  0
   -0.1820   26.8640  -28.6580 H   0  0  0  0  0  0  0  0  0  0  0  0
  1  2  1  0
  2  3  1  0
  3  4  2  0
  4  5  1  0
  5  6  2  0
  6  7  1  0
  7  8  1  0
  8  9  1  0
  9 10  2  0
  9 11  2  0
  9 12  1  0
 12 13  2  0
 13 14  1  0
 14 15  2  0
 15 16  1  0
 16 17  2  0
 16 18  1  0
 18 19  1  0
 19 20  1  0
 20 21  1  0
 21 22  1  0
 22 23  1  0
 22 24  2  0
  6 25  1  0
 25 26  2  0
 26 27  1  0
 26  3  1  0
 17 12  1  0
 21 15  1  0
  1 28  1  0
  1 29  1  0
  1 30  1  0
  4 31  1  0
  5 32  1  0
  7 33  1  0
  7 34  1  0
 13 35  1  0
 14 36  1  0
 17 37  1  0
 18 38  1  0
 18 39  1  0
 19 40  1  0
 19 41  1  0
 20 42  1  0
 20 43  1  0
 23 44  1  0
 23 45  1  0
 23 46  1  0
 25 47  1  0
 27 48  1  0
M  CHG  1   8  -1
M  END
>  <UniqueID>  (16) 
14

>  <SMILES>  (16) 
COc1ccc(C[N-]S(=O)(=O)c2ccc3c(c2)CCCN3C(C)=O)cc1O

>  <Energy>  (16) 
51.68572210003291

>  <Genealogy>  (16) 
COc1ccc(C[N-]S(=O)(=O)c2ccc3c(c2)CCCN3C(C)=O)cc1O (protonated)
COc1ccc(C[N-]S(=O)(=O)c2ccc3c(c2)CCCN3C(C)=O)cc1O (3D coordinates assigned)
COc1ccc(C[N-]S(=O)(=O)c2ccc3c(c2)CCCN3C(C)=O)cc1O (nonaromatic ring conformer: 51.68572210003291 kcal/mol)

>  <smiles>  (16) 
COc1ccc(CNS(=O)(=O)c2ccc3c(c2)CCCN3C(C)=O)cc1O

>  <score_type>  (16) 
oracle

>  <origin>  (16) 
adgpu

>  <m_score__min__energy>  (16) 
-10.58

>  <m_primary>  (16) 
energy

$$$$
16:0
     RDKit          3D

 71 76  0  0  0  0  0  0  0  0999 V2000
   -4.6630   16.9980  -32.6460 O   0  0  0  0  0  0  0  0  0  0  0  0
   -4.4670   17.4170  -34.0750 S   0  0  0  0  0  0  0  0  0  0  0  0
   -4.8270   16.2700  -34.9700 O   0  0  0  0  0  0  0  0  0  0  0  0
   -5.5140   18.7530  -34.3920 N   0  0  0  0  0  0  0  0  0  0  0  0
   -6.4850   19.1510  -33.4240 C   0  0  0  0  0  0  0  0  0  0  0  0
   -6.5470   20.4860  -33.0050 C   0  0  0  0  0  0  0  0  0  0  0  0
   -7.4540   20.8740  -32.0110 C   0  0  0  0  0  0  0  0  0  0  0  0
   -7.5520   22.5730  -31.5470 S   0  0  0  0  0  0  0  0  0  0  0  0
   -8.6450   23.2130  -32.3540 O   0  0  0  0  0  0  0  0  0  0  0  0
   -7.9200   22.6750  -30.0900 O   0  0  0  0  0  0  0  0  0  0  0  0
   -6.0450   23.4180  -31.8530 N   0  0  0  0  0  0  0  0  0  0  0  0
   -4.8590   22.5930  -31.5640 C   0  0  0  0  0  0  0  0  0  0  0  0
   -4.6470   22.3660  -30.0580 C   0  0  0  0  0  0  0  0  0  0  0  0
   -4.9290   23.6260  -29.2170 C   0  0  0  0  0  0  0  0  0  0  0  0
   -4.9870   24.8930  -30.0720 C   0  0  0  0  0  0  0  0  0  0  0  0
   -6.0240   24.7560  -31.2050 C   0  0  0  0  0  0  0  0  0  0  0  0
   -8.2960   19.9150  -31.4240 C   0  0  0  0  0  0  0  0  0  0  0  0
   -8.2450   18.5850  -31.8460 C   0  0  0  0  0  0  0  0  0  0  0  0
   -7.3490   18.1960  -32.8520 C   0  0  0  0  0  0  0  0  0  0  0  0
   -7.3280   16.8620  -33.2580 O   0  0  0  0  0  0  0  0  0  0  0  0
   -2.7840   17.8580  -34.3330 C   0  0  0  0  0  0  0  0  0  0  0  0
   -1.9210   17.0080  -35.0340 C   0  0  0  0  0  0  0  0  0  0  0  0
   -0.5780   17.3590  -35.2050 C   0  0  0  0  0  0  0  0  0  0  0  0
   -0.0860   18.5570  -34.6760 C   0  0  0  0  0  0  0  0  0  0  0  0
    1.2590   18.8730  -34.8400 O   0  0  0  0  0  0  0  0  0  0  0  0
   -0.9490   19.4210  -33.9770 C   0  0  0  0  0  0  0  0  0  0  0  0
   -0.3740   20.9190  -33.2410 S   0  0  0  0  0  0  0  0  0  0  0  0
   -0.1520   21.9260  -34.3340 O   0  0  0  0  0  0  0  0  0  0  0  0
    0.9190   20.6370  -32.5230 O   0  0  0  0  0  0  0  0  0  0  0  0
   -1.5300   21.5320  -32.0990 N   0  0  0  0  0  0  0  0  0  0  0  0
   -1.3340   21.7530  -30.6920 C   0  0  0  0  0  0  0  0  0  0  0  0
   -1.4990   23.0610  -30.2150 C   0  0  0  0  0  0  0  0  0  0  0  0
   -1.3180   23.3620  -28.8610 C   0  0  0  0  0  0  0  0  0  0  0  0
   -0.9900   22.3410  -27.9530 C   0  0  0  0  0  0  0  0  0  0  0  0
   -0.8380   21.0290  -28.4190 C   0  0  0  0  0  0  0  0  0  0  0  0
   -1.0010   20.7280  -29.7750 C   0  0  0  0  0  0  0  0  0  0  0  0
   -0.8450   19.4070  -30.1730 O   0  0  0  0  0  0  0  0  0  0  0  0
   -0.8570   22.6260  -26.4800 C   0  0  0  0  0  0  0  0  0  0  0  0
   -0.8900   24.0920  -26.1340 C   0  0  0  0  0  0  0  0  0  0  0  0
   -0.6390   24.4950  -24.8140 C   0  0  0  0  0  0  0  0  0  0  0  0
   -0.6790   25.8510  -24.4690 C   0  0  0  0  0  0  0  0  0  0  0  0
   -0.9900   26.8090  -25.4340 C   0  0  0  0  0  0  0  0  0  0  0  0
   -1.2520   26.4150  -26.7500 C   0  0  0  0  0  0  0  0  0  0  0  0
   -1.2030   25.0610  -27.1050 C   0  0  0  0  0  0  0  0  0  0  0  0
   -1.4510   24.6840  -28.4270 O   0  0  0  0  0  0  0  0  0  0  0  0
   -2.2920   19.0570  -33.8050 C   0  0  0  0  0  0  0  0  0  0  0  0
   -5.8799   21.2335  -33.4590 H   0  0  0  0  0  0  0  0  0  0  0  0
   -4.9824   21.6156  -32.0533 H   0  0  0  0  0  0  0  0  0  0  0  0
   -3.9789   23.1308  -31.9462 H   0  0  0  0  0  0  0  0  0  0  0  0
   -5.3219   21.5635  -29.7254 H   0  0  0  0  0  0  0  0  0  0  0  0
   -3.5902   22.0993  -29.9095 H   0  0  0  0  0  0  0  0  0  0  0  0
   -5.8941   23.5006  -28.7044 H   0  0  0  0  0  0  0  0  0  0  0  0
   -4.1047   23.7424  -28.4980 H   0  0  0  0  0  0  0  0  0  0  0  0
   -5.2645   25.7443  -29.4330 H   0  0  0  0  0  0  0  0  0  0  0  0
   -3.9971   25.0529  -30.5242 H   0  0  0  0  0  0  0  0  0  0  0  0
   -7.0217   24.9517  -30.7851 H   0  0  0  0  0  0  0  0  0  0  0  0
   -5.7398   25.4798  -31.9831 H   0  0  0  0  0  0  0  0  0  0  0  0
   -8.9970   20.2124  -30.6302 H   0  0  0  0  0  0  0  0  0  0  0  0
   -8.9107   17.8391  -31.3872 H   0  0  0  0  0  0  0  0  0  0  0  0
   -6.5030   16.4280  -33.6510 H   0  0  0  0  0  0  0  0  0  0  0  0
   -2.2993   16.0630  -35.4509 H   0  0  0  0  0  0  0  0  0  0  0  0
    0.0957   16.6888  -35.7590 H   0  0  0  0  0  0  0  0  0  0  0  0
   -1.7749   23.8625  -30.9160 H   0  0  0  0  0  0  0  0  0  0  0  0
   -0.5875   20.2260  -27.7102 H   0  0  0  0  0  0  0  0  0  0  0  0
   -1.6856   22.1280  -25.9552 H   0  0  0  0  0  0  0  0  0  0  0  0
    0.1286   22.2481  -26.1705 H   0  0  0  0  0  0  0  0  0  0  0  0
   -0.4096   23.7416  -24.0461 H   0  0  0  0  0  0  0  0  0  0  0  0
   -0.4649   26.1615  -23.4357 H   0  0  0  0  0  0  0  0  0  0  0  0
   -1.0291   27.8736  -25.1601 H   0  0  0  0  0  0  0  0  0  0  0  0
   -1.4976   27.1717  -27.5096 H   0  0  0  0  0  0  0  0  0  0  0  0
   -2.9677   19.7225  -33.2478 H   0  0  0  0  0  0  0  0  0  0  0  0
  1  2  2  0
  2  3  2  0
  2  4  1  0
  4  5  1  0
  5  6  2  0
  6  7  1  0
  7  8  1  0
  8  9  2  0
  8 10  2  0
  8 11  1  0
 11 12  1  0
 12 13  1  0
 13 14  1  0
 14 15  1  0
 15 16  1  0
  7 17  2  0
 17 18  1  0
 18 19  2  0
 19 20  1  0
  2 21  1  0
 21 22  2  0
 22 23  1  0
 23 24  2  0
 24 25  1  0
 24 26  1  0
 26 27  1  0
 27 28  2  0
 27 29  2  0
 27 30  1  0
 30 31  1  0
 31 32  2  0
 32 33  1  0
 33 34  2  0
 34 35  1  0
 35 36  2  0
 36 37  1  0
 34 38  1  0
 38 39  1  0
 39 40  2  0
 40 41  1  0
 41 42  2  0
 42 43  1  0
 43 44  2  0
 44 45  1  0
 26 46  2  0
 19  5  1  0
 46 21  1  0
 16 11  1  0
 36 31  1  0
 44 39  1  0
 45 33  1  0
  6 47  1  0
 12 48  1  0
 12 49  1  0
 13 50  1  0
 13 51  1  0
 14 52  1  0
 14 53  1  0
 15 54  1  0
 15 55  1  0
 16 56  1  0
 16 57  1  0
 17 58  1  0
 18 59  1  0
 20 60  1  0
 22 61  1  0
 23 62  1  0
 32 63  1  0
 35 64  1  0
 38 65  1  0
 38 66  1  0
 40 67  1  0
 41 68  1  0
 42 69  1  0
 43 70  1  0
 46 71  1  0
M  CHG  4   4  -1  25  -1  30  -1  37  -1
M  END
>  <UniqueID>  (17) 
15

>  <SMILES>  (17) 
O=S(=O)([N-]c1cc(S(=O)(=O)N2CCCCC2)ccc1O)c1ccc([O-])c(S(=O)(=O)[N-]c2cc3c(cc2[O-])Cc2ccccc2O3)c1

>  <Energy>  (17) 
105.50379226851413

>  <Genealogy>  (17) 
O=S(=O)([N-]c1cc(S(=O)(=O)N2CCCCC2)ccc1O)c1ccc([O-])c(S(=O)(=O)[N-]c2cc3c(cc2[O-])Cc2ccccc2O3)c1 (protonated)
O=S(=O)([N-]c1cc(S(=O)(=O)N2CCCCC2)ccc1O)c1ccc([O-])c(S(=O)(=O)[N-]c2cc3c(cc2[O-])Cc2ccccc2O3)c1 (3D coordinates assigned)
O=S(=O)([N-]c1cc(S(=O)(=O)N2CCCCC2)ccc1O)c1ccc([O-])c(S(=O)(=O)[N-]c2cc3c(cc2[O-])Cc2ccccc2O3)c1 (nonaromatic ring conformer: 105.50379226851413 kcal/mol)

>  <smiles>  (17) 
O=S(=O)(Nc1cc(S(=O)(=O)N2CCCCC2)ccc1O)c1ccc(O)c(S(=O)(=O)Nc2cc3c(cc2O)Cc2ccccc2O3)c1

>  <score_type>  (17) 
oracle

>  <origin>  (17) 
adgpu

>  <m_score__min__energy>  (17) 
-15.279999999999999

>  <m_primary>  (17) 
energy

$$$$
17:0
     RDKit          3D

 51 54  0  0  0  0  0  0  0  0999 V2000
    0.0390   21.5630  -28.6010 C   0  0  0  0  0  0  0  0  0  0  0  0
   -0.7600   21.6240  -29.8700 C   0  0  0  0  0  0  0  0  0  0  0  0
   -0.2270   21.1170  -31.0640 C   0  0  0  0  0  0  0  0  0  0  0  0
   -0.9500   21.2140  -32.2620 C   0  0  0  0  0  0  0  0  0  0  0  0
   -0.3930   20.6330  -33.5280 C   0  0  0  0  0  0  0  0  0  0  0  0
   -2.2220   21.8040  -32.2570 C   0  0  0  0  0  0  0  0  0  0  0  0
   -2.7630   22.3250  -31.0700 C   0  0  0  0  0  0  0  0  0  0  0  0
   -4.0950   22.9770  -31.0710 C   0  0  0  0  0  0  0  0  0  0  0  0
   -5.2030   22.2830  -31.5840 C   0  0  0  0  0  0  0  0  0  0  0  0
   -6.4720   22.8760  -31.6090 C   0  0  0  0  0  0  0  0  0  0  0  0
   -7.6360   22.1410  -32.2190 C   0  0  0  0  0  0  0  0  0  0  0  0
   -7.2840   20.6890  -32.4250 C   0  0  0  0  0  0  0  0  0  0  0  0
   -6.3340   20.3300  -33.3920 C   0  0  0  0  0  0  0  0  0  0  0  0
   -6.0470   18.9810  -33.6130 C   0  0  0  0  0  0  0  0  0  0  0  0
   -5.1020   18.5800  -34.5690 C   0  0  0  0  0  0  0  0  0  0  0  0
   -4.8400   17.2160  -34.7640 C   0  0  0  0  0  0  0  0  0  0  0  0
   -3.9040   16.8010  -35.7100 O   0  0  0  0  0  0  0  0  0  0  0  0
   -5.5220   16.2570  -34.0040 C   0  0  0  0  0  0  0  0  0  0  0  0
   -6.4660   16.6540  -33.0500 C   0  0  0  0  0  0  0  0  0  0  0  0
   -6.7330   18.0120  -32.8510 C   0  0  0  0  0  0  0  0  0  0  0  0
   -7.6340   18.3860  -31.9490 O   0  0  0  0  0  0  0  0  0  0  0  0
   -7.9340   19.6610  -31.7140 C   0  0  0  0  0  0  0  0  0  0  0  0
   -8.8070   19.9350  -30.8490 O   0  0  0  0  0  0  0  0  0  0  0  0
   -6.6340   24.1800  -31.1220 C   0  0  0  0  0  0  0  0  0  0  0  0
   -5.5430   24.8840  -30.5920 C   0  0  0  0  0  0  0  0  0  0  0  0
   -5.7330   26.2990  -30.1080 C   0  0  0  0  0  0  0  0  0  0  0  0
   -6.4880   26.3070  -28.9270 O   0  0  0  0  0  0  0  0  0  0  0  0
   -4.2670   24.2890  -30.5860 C   0  0  0  0  0  0  0  0  0  0  0  0
   -3.1710   25.0120  -30.1230 O   0  0  0  0  0  0  0  0  0  0  0  0
   -2.0170   22.2450  -29.8820 C   0  0  0  0  0  0  0  0  0  0  0  0
   -0.6402   21.6149  -27.7372 H   0  0  0  0  0  0  0  0  0  0  0  0
    0.6030   20.6192  -28.5678 H   0  0  0  0  0  0  0  0  0  0  0  0
    0.7398   22.4103  -28.5678 H   0  0  0  0  0  0  0  0  0  0  0  0
    0.7643   20.6403  -31.0610 H   0  0  0  0  0  0  0  0  0  0  0  0
    0.3488   19.8592  -33.2810 H   0  0  0  0  0  0  0  0  0  0  0  0
   -1.2080   20.1853  -34.1156 H   0  0  0  0  0  0  0  0  0  0  0  0
    0.0886   21.4284  -34.1156 H   0  0  0  0  0  0  0  0  0  0  0  0
   -2.8011   21.8593  -33.1906 H   0  0  0  0  0  0  0  0  0  0  0  0
   -5.0728   21.2615  -31.9708 H   0  0  0  0  0  0  0  0  0  0  0  0
   -8.5038   22.2128  -31.5469 H   0  0  0  0  0  0  0  0  0  0  0  0
   -7.8767   22.5939  -33.1921 H   0  0  0  0  0  0  0  0  0  0  0  0
   -5.8171   21.1073  -33.9739 H   0  0  0  0  0  0  0  0  0  0  0  0
   -4.5672   19.3343  -35.1649 H   0  0  0  0  0  0  0  0  0  0  0  0
   -4.0820   16.8900  -36.7030 H   0  0  0  0  0  0  0  0  0  0  0  0
   -5.3148   15.1877  -34.1576 H   0  0  0  0  0  0  0  0  0  0  0  0
   -6.9986   15.8967  -32.4560 H   0  0  0  0  0  0  0  0  0  0  0  0
   -7.6254   24.6555  -31.1557 H   0  0  0  0  0  0  0  0  0  0  0  0
   -4.7497   26.7523  -29.9142 H   0  0  0  0  0  0  0  0  0  0  0  0
   -6.2653   26.8749  -30.8794 H   0  0  0  0  0  0  0  0  0  0  0  0
   -5.9880   26.8640  -28.2750 H   0  0  0  0  0  0  0  0  0  0  0  0
   -2.4226   22.6732  -28.9535 H   0  0  0  0  0  0  0  0  0  0  0  0
  1  2  1  0
  2  3  2  0
  3  4  1  0
  4  5  1  0
  4  6  2  0
  6  7  1  0
  7  8  1  0
  8  9  2  0
  9 10  1  0
 10 11  1  0
 11 12  1  0
 12 13  2  0
 13 14  1  0
 14 15  2  0
 15 16  1  0
 16 17  1  0
 16 18  2  0
 18 19  1  0
 19 20  2  0
 20 21  1  0
 21 22  1  0
 22 23  2  0
 10 24  2  0
 24 25  1  0
 25 26  1  0
 26 27  1  0
 25 28  2  0
 28 29  1  0
  7 30  2  0
 30  2  1  0
 28  8  1  0
 22 12  1  0
 20 14  1  0
  1 31  1  0
  1 32  1  0
  1 33  1  0
  3 34  1  0
  5 35  1  0
  5 36  1  0
  5 37  1  0
  6 38  1  0
  9 39  1  0
 11 40  1  0
 11 41  1  0
 13 42  1  0
 15 43  1  0
 17 44  1  0
 18 45  1  0
 19 46  1  0
 24 47  1  0
 26 48  1  0
 26 49  1  0
 27 50  1  0
 30 51  1  0
M  CHG  1  29  -1
M  END
>  <UniqueID>  (18) 
16

>  <SMILES>  (18) 
Cc1cc(C)cc(-c2cc(Cc3cc4cc(O)ccc4oc3=O)cc(CO)c2[O-])c1

>  <Energy>  (18) 
62.96284277046397

>  <Genealogy>  (18) 
Cc1cc(C)cc(-c2cc(Cc3cc4cc(O)ccc4oc3=O)cc(CO)c2[O-])c1 (protonated)
Cc1cc(C)cc(-c2cc(Cc3cc4cc(O)ccc4oc3=O)cc(CO)c2[O-])c1 (3D coordinates assigned)
Cc1cc(C)cc(-c2cc(Cc3cc4cc(O)ccc4oc3=O)cc(CO)c2[O-])c1 (optimized conformer: 62.96284277046397 kcal/mol)

>  <smiles>  (18) 
Cc1cc(C)cc(-c2cc(Cc3cc4cc(O)ccc4oc3=O)cc(CO)c2O)c1

>  <score_type>  (18) 
oracle

>  <origin>  (18) 
adgpu

>  <m_score__min__energy>  (18) 
-12.15

>  <m_primary>  (18) 
energy

$$$$
18:0
     RDKit          3D

 48 50  0  0  0  0  0  0  0  0999 V2000
   -1.6090   25.6570  -29.2840 N   0  0  0  0  0  0  0  0  0  0  0  0
   -1.0450   24.4300  -28.2050 S   0  0  0  0  0  0  0  0  0  0  0  0
    0.4090   24.6840  -27.9110 O   0  0  0  0  0  0  0  0  0  0  0  0
   -1.8250   24.4810  -26.9240 O   0  0  0  0  0  0  0  0  0  0  0  0
   -1.2440   22.8410  -28.9490 C   0  0  0  0  0  0  0  0  0  0  0  0
   -0.5660   21.7360  -28.4040 C   0  0  0  0  0  0  0  0  0  0  0  0
   -0.7140   20.4700  -28.9650 C   0  0  0  0  0  0  0  0  0  0  0  0
   -1.5470   20.2890  -30.0690 C   0  0  0  0  0  0  0  0  0  0  0  0
   -2.2120   21.3810  -30.6290 C   0  0  0  0  0  0  0  0  0  0  0  0
   -2.0700   22.6680  -30.0810 C   0  0  0  0  0  0  0  0  0  0  0  0
   -2.7380   23.8060  -30.6480 N   0  0  0  0  0  0  0  0  0  0  0  0
   -4.3370   24.3310  -30.2330 S   0  0  0  0  0  0  0  0  0  0  0  0
   -4.4600   24.4280  -28.7400 O   0  0  0  0  0  0  0  0  0  0  0  0
   -4.5640   25.6920  -30.8300 O   0  0  0  0  0  0  0  0  0  0  0  0
   -5.5230   23.1880  -30.8470 C   0  0  0  0  0  0  0  0  0  0  0  0
   -5.2920   22.5070  -32.0500 C   0  0  0  0  0  0  0  0  0  0  0  0
   -6.1620   21.4930  -32.4590 C   0  0  0  0  0  0  0  0  0  0  0  0
   -7.2700   21.1520  -31.6720 C   0  0  0  0  0  0  0  0  0  0  0  0
   -8.2660   19.7600  -32.0950 S   0  0  0  0  0  0  0  0  0  0  0  0
   -9.3780   19.6200  -31.0920 O   0  0  0  0  0  0  0  0  0  0  0  0
   -8.8840   19.9800  -33.4490 O   0  0  0  0  0  0  0  0  0  0  0  0
   -7.3170   18.2880  -32.1100 N   0  0  0  0  0  0  0  0  0  0  0  0
   -7.2290   17.7430  -33.4810 C   0  0  0  0  0  0  0  0  0  0  0  0
   -6.0750   16.7450  -33.6160 C   0  0  0  0  0  0  0  0  0  0  0  0
   -4.7210   17.4200  -33.3370 C   0  0  0  0  0  0  0  0  0  0  0  0
   -4.8470   18.6480  -32.4200 C   0  0  0  0  0  0  0  0  0  0  0  0
   -6.0110   18.4770  -31.4320 C   0  0  0  0  0  0  0  0  0  0  0  0
   -7.5300   21.8730  -30.4990 C   0  0  0  0  0  0  0  0  0  0  0  0
   -6.6590   22.8840  -30.0860 C   0  0  0  0  0  0  0  0  0  0  0  0
   -2.6510   25.5670  -29.3360 H   0  0  0  0  0  0  0  0  0  0  0  0
    0.0858   21.8726  -27.5285 H   0  0  0  0  0  0  0  0  0  0  0  0
   -0.1738   19.6125  -28.5373 H   0  0  0  0  0  0  0  0  0  0  0  0
   -1.6799   19.2851  -30.4986 H   0  0  0  0  0  0  0  0  0  0  0  0
   -2.8547   21.2329  -31.5094 H   0  0  0  0  0  0  0  0  0  0  0  0
   -4.4247   22.7711  -32.6730 H   0  0  0  0  0  0  0  0  0  0  0  0
   -5.9762   20.9600  -33.4031 H   0  0  0  0  0  0  0  0  0  0  0  0
   -8.1728   17.2329  -33.7240 H   0  0  0  0  0  0  0  0  0  0  0  0
   -7.0454   18.5781  -34.1730 H   0  0  0  0  0  0  0  0  0  0  0  0
   -6.2227   15.9260  -32.8967 H   0  0  0  0  0  0  0  0  0  0  0  0
   -6.0665   16.3592  -34.6461 H   0  0  0  0  0  0  0  0  0  0  0  0
   -4.0557   16.6882  -32.8555 H   0  0  0  0  0  0  0  0  0  0  0  0
   -4.3174   17.7651  -34.3003 H   0  0  0  0  0  0  0  0  0  0  0  0
   -3.9111   18.7737  -31.8558 H   0  0  0  0  0  0  0  0  0  0  0  0
   -5.0418   19.5334  -33.0429 H   0  0  0  0  0  0  0  0  0  0  0  0
   -5.8113   17.5974  -30.8023 H   0  0  0  0  0  0  0  0  0  0  0  0
   -6.0776   19.3989  -30.8356 H   0  0  0  0  0  0  0  0  0  0  0  0
   -8.4238   21.6419  -29.9008 H   0  0  0  0  0  0  0  0  0  0  0  0
   -6.8657   23.4426  -29.1612 H   0  0  0  0  0  0  0  0  0  0  0  0
  1  2  1  0
  2  3  2  0
  2  4  2  0
  2  5  1  0
  5  6  2  0
  6  7  1  0
  7  8  2  0
  8  9  1  0
  9 10  2  0
 10 11  1  0
 11 12  1  0
 12 13  2  0
 12 14  2  0
 12 15  1  0
 15 16  2  0
 16 17  1  0
 17 18  2  0
 18 19  1  0
 19 20  2  0
 19 21  2  0
 19 22  1  0
 22 23  1  0
 23 24  1  0
 24 25  1  0
 25 26  1  0
 26 27  1  0
 18 28  1  0
 28 29  2  0
 10  5  1  0
 29 15  1  0
 27 22  1  0
  1 30  1  0
  6 31  1  0
  7 32  1  0
  8 33  1  0
  9 34  1  0
 16 35  1  0
 17 36  1  0
 23 37  1  0
 23 38  1  0
 24 39  1  0
 24 40  1  0
 25 41  1  0
 25 42  1  0
 26 43  1  0
 26 44  1  0
 27 45  1  0
 27 46  1  0
 28 47  1  0
 29 48  1  0
M  CHG  2   1  -1  11  -1
M  END
>  <UniqueID>  (19) 
17

>  <SMILES>  (19) 
[NH-]S(=O)(=O)c1ccccc1[N-]S(=O)(=O)c1ccc(S(=O)(=O)N2CCCCC2)cc1

>  <Energy>  (19) 
57.00173647541569

>  <Genealogy>  (19) 
[NH-]S(=O)(=O)c1ccccc1[N-]S(=O)(=O)c1ccc(S(=O)(=O)N2CCCCC2)cc1 (protonated)
[NH-]S(=O)(=O)c1ccccc1[N-]S(=O)(=O)c1ccc(S(=O)(=O)N2CCCCC2)cc1 (3D coordinates assigned)
[NH-]S(=O)(=O)c1ccccc1[N-]S(=O)(=O)c1ccc(S(=O)(=O)N2CCCCC2)cc1 (nonaromatic ring conformer: 57.00173647541569 kcal/mol)

>  <smiles>  (19) 
NS(=O)(=O)c1ccccc1NS(=O)(=O)c1ccc(S(=O)(=O)N2CCCCC2)cc1

>  <score_type>  (19) 
oracle

>  <origin>  (19) 
adgpu

>  <m_score__min__energy>  (19) 
-14.33

>  <m_primary>  (19) 
energy

$$$$
19:0
     RDKit          3D

 66 69  0  0  0  0  0  0  0  0999 V2000
   -2.2934   21.8101  -33.1151 H   0  0  0  0  0  0  0  0  0  0  0  0
   -2.2730   20.7110  -33.0760 C   0  0  0  0  0  0  0  0  0  0  0  0
   -2.3624   20.1932  -32.1096 H   0  0  0  0  0  0  0  0  0  0  0  0
   -2.1400   20.0070  -34.1990 C   0  0  0  0  0  0  0  0  0  0  0  0
   -2.0522   20.5453  -35.1543 H   0  0  0  0  0  0  0  0  0  0  0  0
   -2.1060   18.5300  -34.2090 C   0  0  0  0  0  0  0  0  0  0  0  0
   -1.1260   17.9170  -33.7050 O   0  0  0  0  0  0  0  0  0  0  0  0
   -3.2100   17.7650  -34.7110 N   0  0  0  0  0  0  0  0  0  0  0  0
   -4.5660   17.8340  -34.2500 C   0  0  0  0  0  0  0  0  0  0  0  0
   -5.3370   16.6660  -34.2320 C   0  0  0  0  0  0  0  0  0  0  0  0
   -4.8950   15.7131  -34.5585 H   0  0  0  0  0  0  0  0  0  0  0  0
   -6.6660   16.7050  -33.8010 C   0  0  0  0  0  0  0  0  0  0  0  0
   -7.2606   15.7800  -33.7712 H   0  0  0  0  0  0  0  0  0  0  0  0
   -7.2410   17.9160  -33.4080 C   0  0  0  0  0  0  0  0  0  0  0  0
   -8.2811   17.9379  -33.0507 H   0  0  0  0  0  0  0  0  0  0  0  0
   -6.4990   19.1020  -33.4670 C   0  0  0  0  0  0  0  0  0  0  0  0
   -7.1120   20.3010  -33.0740 O   0  0  0  0  0  0  0  0  0  0  0  0
   -6.7120   21.0780  -31.9780 C   0  0  0  0  0  0  0  0  0  0  0  0
   -5.3910   21.2200  -31.6810 N   0  0  0  0  0  0  0  0  0  0  0  0
   -4.9720   21.9820  -30.6410 C   0  0  0  0  0  0  0  0  0  0  0  0
   -3.6970   22.1030  -30.4150 N   0  0  0  0  0  0  0  0  0  0  0  0
   -3.1090   22.8470  -29.3370 C   0  0  0  0  0  0  0  0  0  0  0  0
   -2.6670   22.1520  -28.2070 C   0  0  0  0  0  0  0  0  0  0  0  0
   -2.7659   21.0572  -28.1673 H   0  0  0  0  0  0  0  0  0  0  0  0
   -2.1020   22.8340  -27.1300 C   0  0  0  0  0  0  0  0  0  0  0  0
   -1.7487   22.2715  -26.2532 H   0  0  0  0  0  0  0  0  0  0  0  0
   -1.9800   24.2340  -27.1550 C   0  0  0  0  0  0  0  0  0  0  0  0
   -1.3930   24.9450  -26.0380 N   0  0  0  0  0  0  0  0  0  0  0  0
   -0.8210   24.2010  -24.9030 C   0  0  0  0  0  0  0  0  0  0  0  0
   -0.9806   24.7865  -23.9856 H   0  0  0  0  0  0  0  0  0  0  0  0
   -1.3269   23.2250  -24.8647 H   0  0  0  0  0  0  0  0  0  0  0  0
    0.6920   23.9270  -25.0530 C   0  0  0  0  0  0  0  0  0  0  0  0
    1.0185   23.3304  -24.1885 H   0  0  0  0  0  0  0  0  0  0  0  0
    0.8174   23.4063  -26.0138 H   0  0  0  0  0  0  0  0  0  0  0  0
    1.5390   25.1350  -25.1230 N   0  0  0  0  0  0  0  0  0  0  0  0
    2.9730   24.8390  -25.0340 C   0  0  0  0  0  0  0  0  0  0  0  0
    3.2698   24.7777  -23.9766 H   0  0  0  0  0  0  0  0  0  0  0  0
    3.1807   23.8791  -25.5293 H   0  0  0  0  0  0  0  0  0  0  0  0
    3.5438   25.6383  -25.5293 H   0  0  0  0  0  0  0  0  0  0  0  0
    1.1900   26.1700  -26.4920 S   0  0  0  0  0  0  0  0  0  0  0  0
    2.3600   27.0920  -26.6900 O   0  0  0  0  0  0  0  0  0  0  0  0
    1.0210   25.3500  -27.7400 O   0  0  0  0  0  0  0  0  0  0  0  0
   -0.2760   27.1860  -26.2570 C   0  0  0  0  0  0  0  0  0  0  0  0
   -0.0792   27.8837  -25.4296 H   0  0  0  0  0  0  0  0  0  0  0  0
   -0.4592   27.6901  -27.2174 H   0  0  0  0  0  0  0  0  0  0  0  0
   -1.5640   26.4020  -25.9270 C   0  0  0  0  0  0  0  0  0  0  0  0
   -1.8667   26.6422  -24.8971 H   0  0  0  0  0  0  0  0  0  0  0  0
   -2.3285   26.7009  -26.6593 H   0  0  0  0  0  0  0  0  0  0  0  0
   -2.4650   24.9360  -28.2740 C   0  0  0  0  0  0  0  0  0  0  0  0
   -2.3938   26.0334  -28.2975 H   0  0  0  0  0  0  0  0  0  0  0  0
   -3.0400   24.2550  -29.3640 C   0  0  0  0  0  0  0  0  0  0  0  0
   -3.5730   24.9410  -30.4680 O   0  0  0  0  0  0  0  0  0  0  0  0
   -4.9440   25.2960  -30.6150 C   0  0  0  0  0  0  0  0  0  0  0  0
   -5.4007   25.4143  -29.6213 H   0  0  0  0  0  0  0  0  0  0  0  0
   -5.0201   26.2435  -31.1686 H   0  0  0  0  0  0  0  0  0  0  0  0
   -5.4704   24.5045  -31.1686 H   0  0  0  0  0  0  0  0  0  0  0  0
   -5.8890   22.6440  -29.8830 N   0  0  0  0  0  0  0  0  0  0  0  0
   -7.2170   22.5430  -30.1400 C   0  0  0  0  0  0  0  0  0  0  0  0
   -7.9391   23.0842  -29.5110 H   0  0  0  0  0  0  0  0  0  0  0  0
   -7.6740   21.7510  -31.2050 C   0  0  0  0  0  0  0  0  0  0  0  0
   -9.1440   21.6290  -31.5280 C   0  0  0  0  0  0  0  0  0  0  0  0
   -9.4200   20.4620  -32.2180 F   0  0  0  0  0  0  0  0  0  0  0  0
   -9.5390   22.7010  -32.3070 F   0  0  0  0  0  0  0  0  0  0  0  0
   -9.8730   21.6310  -30.3530 F   0  0  0  0  0  0  0  0  0  0  0  0
   -5.1560   19.0570  -33.8820 C   0  0  0  0  0  0  0  0  0  0  0  0
   -4.5636   19.9831  -33.9191 H   0  0  0  0  0  0  0  0  0  0  0  0
  1  2  1  0
  2  3  1  0
  2  4  2  0
  4  5  1  0
  4  6  1  0
  6  7  2  0
  6  8  1  0
  8  9  1  0
  9 10  2  0
 10 11  1  0
 10 12  1  0
 12 13  1  0
 12 14  2  0
 14 15  1  0
 14 16  1  0
 16 17  1  0
 17 18  1  0
 18 19  1  0
 19 20  1  0
 20 21  2  0
 21 22  1  0
 22 23  2  0
 23 24  1  0
 23 25  1  0
 25 26  1  0
 25 27  2  0
 27 28  1  0
 28 29  1  0
 29 30  1  0
 29 31  1  0
 29 32  1  0
 32 33  1  0
 32 34  1  0
 32 35  1  0
 35 36  1  0
 36 37  1  0
 36 38  1  0
 36 39  1  0
 35 40  1  0
 40 41  2  0
 40 42  2  0
 40 43  1  0
 43 44  1  0
 43 45  1  0
 43 46  1  0
 46 47  1  0
 46 48  1  0
 27 49  1  0
 49 50  1  0
 49 51  2  0
 51 52  1  0
 52 53  1  0
 53 54  1  0
 53 55  1  0
 53 56  1  0
 20 57  1  0
 57 58  2  0
 58 59  1  0
 58 60  1  0
 60 61  1  0
 61 62  1  0
 61 63  1  0
 61 64  1  0
 16 65  2  0
 65 66  1  0
 65  9  1  0
 60 18  2  0
 51 22  1  0
 46 28  1  0
M  CHG  2   8  -1  19  -1
M  END
>  <UniqueID>  (20) 
18

>  <SMILES>  (20) 
C=CC(=O)[N-]c1cccc(Oc2[n-]/c(=N/c3ccc(N4CCN(C)S(=O)(=O)CC4)cc3OC)ncc2C(F)(F)F)c1

>  <Energy>  (20) 
95.40892536394361

>  <Genealogy>  (20) 
C=CC(=O)[N-]c1cccc(Oc2[n-]c(=Nc3ccc(N4CCN(C)S(=O)(=O)CC4)cc3OC)ncc2C(F)(F)F)c1 (protonated)
C=CC(=O)[N-]c1cccc(Oc2[n-]/c(=N/c3ccc(N4CCN(C)S(=O)(=O)CC4)cc3OC)ncc2C(F)(F)F)c1 (cis-trans isomerization)
C=CC(=O)[N-]c1cccc(Oc2[n-]/c(=N/c3ccc(N4CCN(C)S(=O)(=O)CC4)cc3OC)ncc2C(F)(F)F)c1 (3D coordinates assigned)
C=CC(=O)[N-]c1cccc(Oc2[n-]/c(=N/c3ccc(N4CCN(C)S(=O)(=O)CC4)cc3OC)ncc2C(F)(F)F)c1 (nonaromatic ring conformer: 95.40892536394361 kcal/mol)

>  <smiles>  (20) 
C=CC(=O)Nc1cccc(Oc2[nH]c(=Nc3ccc(N4CCN(C)S(=O)(=O)CC4)cc3OC)ncc2C(F)(F)F)c1

>  <score_type>  (20) 
oracle

>  <origin>  (20) 
adgpu

>  <m_score__min__energy>  (20) 
-8.2300000000000004

>  <m_primary>  (20) 
energy

$$$$
20:0
     RDKit          3D

 59 62  0  0  0  0  0  0  0  0999 V2000
   -0.5450   26.3360  -23.7130 C   0  0  0  0  0  0  0  0  0  0  0  0
   -1.5920   26.7040  -24.6060 O   0  0  0  0  0  0  0  0  0  0  0  0
   -1.8000   26.1220  -25.8670 C   0  0  0  0  0  0  0  0  0  0  0  0
   -0.9580   26.3780  -26.9660 C   0  0  0  0  0  0  0  0  0  0  0  0
   -1.2130   25.7780  -28.2040 C   0  0  0  0  0  0  0  0  0  0  0  0
   -2.3040   24.9100  -28.3600 C   0  0  0  0  0  0  0  0  0  0  0  0
   -2.5910   24.2920  -29.7020 C   0  0  0  0  0  0  0  0  0  0  0  0
   -3.5050   25.1340  -30.4660 N   0  0  0  0  0  0  0  0  0  0  0  0
   -4.9320   25.0320  -30.3960 C   0  0  0  0  0  0  0  0  0  0  0  0
   -5.6020   25.8660  -29.7290 O   0  0  0  0  0  0  0  0  0  0  0  0
   -5.6250   23.8950  -31.0720 C   0  0  0  0  0  0  0  0  0  0  0  0
   -6.8120   23.0790  -29.9450 S   0  0  0  0  0  0  0  0  0  0  0  0
   -7.0980   21.6600  -31.0110 C   0  0  0  0  0  0  0  0  0  0  0  0
   -8.3160   21.1220  -31.2080 N   0  0  0  0  0  0  0  0  0  0  0  0
   -8.1510   20.0650  -31.9870 N   0  0  0  0  0  0  0  0  0  0  0  0
   -6.8310   19.9660  -32.2490 C   0  0  0  0  0  0  0  0  0  0  0  0
   -6.2560   18.8920  -33.0900 C   0  0  0  0  0  0  0  0  0  0  0  0
   -6.0780   19.0720  -34.4720 C   0  0  0  0  0  0  0  0  0  0  0  0
   -5.5270   18.0520  -35.2510 C   0  0  0  0  0  0  0  0  0  0  0  0
   -5.1670   16.8380  -34.6660 C   0  0  0  0  0  0  0  0  0  0  0  0
   -5.3760   16.6260  -33.2940 C   0  0  0  0  0  0  0  0  0  0  0  0
   -4.9650   15.3330  -32.6560 C   0  0  0  0  0  0  0  0  0  0  0  0
   -5.9120   17.6600  -32.5100 C   0  0  0  0  0  0  0  0  0  0  0  0
   -6.1350   20.9580  -31.6470 N   0  0  0  0  0  0  0  0  0  0  0  0
   -4.7170   21.0380  -31.4260 C   0  0  0  0  0  0  0  0  0  0  0  0
   -4.2160   21.2800  -30.1370 C   0  0  0  0  0  0  0  0  0  0  0  0
   -2.8390   21.3390  -29.9170 C   0  0  0  0  0  0  0  0  0  0  0  0
   -1.9490   21.1610  -30.9800 C   0  0  0  0  0  0  0  0  0  0  0  0
   -2.4380   20.9180  -32.2780 C   0  0  0  0  0  0  0  0  0  0  0  0
   -1.5890   20.7260  -33.3780 O   0  0  0  0  0  0  0  0  0  0  0  0
   -0.4760   21.5560  -33.6910 C   0  0  0  0  0  0  0  0  0  0  0  0
   -3.8200   20.8610  -32.4880 C   0  0  0  0  0  0  0  0  0  0  0  0
   -3.1420   24.6560  -27.2630 C   0  0  0  0  0  0  0  0  0  0  0  0
   -2.8890   25.2580  -26.0270 C   0  0  0  0  0  0  0  0  0  0  0  0
   -0.8889   26.4569  -22.6751 H   0  0  0  0  0  0  0  0  0  0  0  0
   -0.2666   25.2861  -23.8871 H   0  0  0  0  0  0  0  0  0  0  0  0
    0.3290   26.9808  -23.8871 H   0  0  0  0  0  0  0  0  0  0  0  0
   -0.0965   27.0522  -26.8509 H   0  0  0  0  0  0  0  0  0  0  0  0
   -0.5544   25.9880  -29.0597 H   0  0  0  0  0  0  0  0  0  0  0  0
   -1.6489   24.1818  -30.2590 H   0  0  0  0  0  0  0  0  0  0  0  0
   -3.0575   23.3077  -29.5485 H   0  0  0  0  0  0  0  0  0  0  0  0
   -6.1677   24.2764  -31.9495 H   0  0  0  0  0  0  0  0  0  0  0  0
   -4.8681   23.1564  -31.3745 H   0  0  0  0  0  0  0  0  0  0  0  0
   -6.3741   20.0210  -34.9429 H   0  0  0  0  0  0  0  0  0  0  0  0
   -5.3764   18.2066  -36.3296 H   0  0  0  0  0  0  0  0  0  0  0  0
   -4.7181   16.0445  -35.2814 H   0  0  0  0  0  0  0  0  0  0  0  0
   -4.9982   15.4374  -31.5615 H   0  0  0  0  0  0  0  0  0  0  0  0
   -5.6536   14.5344  -32.9692 H   0  0  0  0  0  0  0  0  0  0  0  0
   -3.9417   15.0786  -32.9692 H   0  0  0  0  0  0  0  0  0  0  0  0
   -6.0639   17.5038  -31.4318 H   0  0  0  0  0  0  0  0  0  0  0  0
   -4.9116   21.4237  -29.2970 H   0  0  0  0  0  0  0  0  0  0  0  0
   -2.4530   21.5261  -28.9041 H   0  0  0  0  0  0  0  0  0  0  0  0
   -0.8646   21.2108  -30.8023 H   0  0  0  0  0  0  0  0  0  0  0  0
   -0.0064   21.9062  -32.7599 H   0  0  0  0  0  0  0  0  0  0  0  0
    0.2562   20.9817  -34.2775 H   0  0  0  0  0  0  0  0  0  0  0  0
   -0.8176   22.4216  -34.2775 H   0  0  0  0  0  0  0  0  0  0  0  0
   -4.2077   20.6747  -33.5004 H   0  0  0  0  0  0  0  0  0  0  0  0
   -4.0022   23.9798  -27.3765 H   0  0  0  0  0  0  0  0  0  0  0  0
   -3.5512   25.0509  -25.1734 H   0  0  0  0  0  0  0  0  0  0  0  0
  1  2  1  0
  2  3  1  0
  3  4  2  0
  4  5  1  0
  5  6  2  0
  6  7  1  0
  7  8  1  0
  8  9  1  0
  9 10  2  0
  9 11  1  0
 11 12  1  0
 12 13  1  0
 13 14  2  0
 14 15  1  0
 15 16  2  0
 16 17  1  0
 17 18  2  0
 18 19  1  0
 19 20  2  0
 20 21  1  0
 21 22  1  0
 21 23  2  0
 16 24  1  0
 24 25  1  0
 25 26  2  0
 26 27  1  0
 27 28  2  0
 28 29  1  0
 29 30  1  0
 30 31  1  0
 29 32  2  0
  6 33  1  0
 33 34  2  0
 34  3  1  0
 24 13  1  0
 32 25  1  0
 23 17  1  0
  1 35  1  0
  1 36  1  0
  1 37  1  0
  4 38  1  0
  5 39  1  0
  7 40  1  0
  7 41  1  0
 11 42  1  0
 11 43  1  0
 18 44  1  0
 19 45  1  0
 20 46  1  0
 22 47  1  0
 22 48  1  0
 22 49  1  0
 23 50  1  0
 26 51  1  0
 27 52  1  0
 28 53  1  0
 31 54  1  0
 31 55  1  0
 31 56  1  0
 32 57  1  0
 33 58  1  0
 34 59  1  0
M  CHG  1   8  -1
M  END
>  <UniqueID>  (21) 
19

>  <SMILES>  (21) 
COc1ccc(C[N-]C(=O)CSc2nnc(-c3cccc(C)c3)n2-c2cccc(OC)c2)cc1

>  <Energy>  (21) 
97.74762436723186

>  <Genealogy>  (21) 
COc1ccc(C[N-]C(=O)CSc2nnc(-c3cccc(C)c3)n2-c2cccc(OC)c2)cc1 (protonated)
COc1ccc(C[N-]C(=O)CSc2nnc(-c3cccc(C)c3)n2-c2cccc(OC)c2)cc1 (3D coordinates assigned)
COc1ccc(C[N-]C(=O)CSc2nnc(-c3cccc(C)c3)n2-c2cccc(OC)c2)cc1 (optimized conformer: 97.74762436723186 kcal/mol)

>  <smiles>  (21) 
COc1ccc(CNC(=O)CSc2nnc(-c3cccc(C)c3)n2-c2cccc(OC)c2)cc1

>  <score_type>  (21) 
oracle

>  <origin>  (21) 
adgpu

>  <m_score__min__energy>  (21) 
-11.16

>  <m_primary>  (21) 
energy

$$$$
21:0
     RDKit          3D

 44 47  0  0  0  0  0  0  0  0999 V2000
    0.0850   20.4540  -31.4350 O   0  0  0  0  0  0  0  0  0  0  0  0
   -0.5760   20.2950  -32.4950 C   0  0  0  0  0  0  0  0  0  0  0  0
   -1.7360   19.4540  -32.4670 N   0  0  0  0  0  0  0  0  0  0  0  0
   -3.0960   19.8760  -32.6460 C   0  0  0  0  0  0  0  0  0  0  0  0
   -4.1000   18.9040  -32.7350 C   0  0  0  0  0  0  0  0  0  0  0  0
   -5.4420   19.2800  -32.8460 C   0  0  0  0  0  0  0  0  0  0  0  0
   -5.7910   20.6360  -32.8340 C   0  0  0  0  0  0  0  0  0  0  0  0
   -4.8000   21.6120  -32.7230 C   0  0  0  0  0  0  0  0  0  0  0  0
   -3.4510   21.2380  -32.6370 C   0  0  0  0  0  0  0  0  0  0  0  0
   -5.2360   23.0510  -32.6720 C   0  0  0  0  0  0  0  0  0  0  0  0
   -6.4060   23.2280  -31.7840 N   0  0  0  0  0  0  0  0  0  0  0  0
   -5.9080   23.4670  -30.1190 S   0  0  0  0  0  0  0  0  0  0  0  0
   -6.7600   22.6460  -29.1900 O   0  0  0  0  0  0  0  0  0  0  0  0
   -6.1140   24.9140  -29.7660 O   0  0  0  0  0  0  0  0  0  0  0  0
   -4.2010   23.0560  -29.8770 C   0  0  0  0  0  0  0  0  0  0  0  0
   -3.8560   21.7630  -29.4550 C   0  0  0  0  0  0  0  0  0  0  0  0
   -2.5260   21.4350  -29.1850 C   0  0  0  0  0  0  0  0  0  0  0  0
   -1.5220   22.3950  -29.3370 C   0  0  0  0  0  0  0  0  0  0  0  0
   -0.2010   22.0600  -29.0480 O   0  0  0  0  0  0  0  0  0  0  0  0
   -1.8530   23.6830  -29.7750 C   0  0  0  0  0  0  0  0  0  0  0  0
   -3.1840   24.0160  -30.0490 C   0  0  0  0  0  0  0  0  0  0  0  0
   -3.4810   25.3000  -30.4880 O   0  0  0  0  0  0  0  0  0  0  0  0
   -7.4890   22.2100  -31.9150 C   0  0  0  0  0  0  0  0  0  0  0  0
   -7.2120   21.0970  -32.9460 C   0  0  0  0  0  0  0  0  0  0  0  0
   -0.1000   20.9140  -33.7440 C   0  0  0  0  0  0  0  0  0  0  0  0
   -0.4810   20.5720  -35.0240 C   0  0  0  0  0  0  0  0  0  0  0  0
    0.2320   21.4420  -35.8220 C   0  0  0  0  0  0  0  0  0  0  0  0
    0.9820   22.2480  -35.0450 N   0  0  0  0  0  0  0  0  0  0  0  0
    0.7570   21.9050  -33.8100 O   0  0  0  0  0  0  0  0  0  0  0  0
   -3.8311   17.8375  -32.7175 H   0  0  0  0  0  0  0  0  0  0  0  0
   -6.2229   18.5114  -32.9427 H   0  0  0  0  0  0  0  0  0  0  0  0
   -2.6702   22.0093  -32.5625 H   0  0  0  0  0  0  0  0  0  0  0  0
   -4.4042   23.6641  -32.2949 H   0  0  0  0  0  0  0  0  0  0  0  0
   -5.5210   23.3632  -33.6875 H   0  0  0  0  0  0  0  0  0  0  0  0
   -4.6404   21.0010  -29.3358 H   0  0  0  0  0  0  0  0  0  0  0  0
   -2.2680   20.4189  -28.8520 H   0  0  0  0  0  0  0  0  0  0  0  0
    0.3080   21.3860  -29.6070 H   0  0  0  0  0  0  0  0  0  0  0  0
   -1.0626   24.4370  -29.9044 H   0  0  0  0  0  0  0  0  0  0  0  0
   -7.6344   21.7373  -30.9325 H   0  0  0  0  0  0  0  0  0  0  0  0
   -8.3779   22.7493  -32.2742 H   0  0  0  0  0  0  0  0  0  0  0  0
   -7.8861   20.2487  -32.7561 H   0  0  0  0  0  0  0  0  0  0  0  0
   -7.3845   21.4917  -33.9581 H   0  0  0  0  0  0  0  0  0  0  0  0
   -1.1878   19.7889  -35.3357 H   0  0  0  0  0  0  0  0  0  0  0  0
    0.1943   21.4731  -36.9209 H   0  0  0  0  0  0  0  0  0  0  0  0
  1  2  2  0
  2  3  1  0
  3  4  1  0
  4  5  2  0
  5  6  1  0
  6  7  2  0
  7  8  1  0
  8  9  2  0
  8 10  1  0
 10 11  1  0
 11 12  1  0
 12 13  2  0
 12 14  2  0
 12 15  1  0
 15 16  2  0
 16 17  1  0
 17 18  2  0
 18 19  1  0
 18 20  1  0
 20 21  2  0
 21 22  1  0
 11 23  1  0
 23 24  1  0
  2 25  1  0
 25 26  2  0
 26 27  1  0
 27 28  2  0
 28 29  1  0
  9  4  1  0
 21 15  1  0
 29 25  1  0
 24  7  1  0
  5 30  1  0
  6 31  1  0
  9 32  1  0
 10 33  1  0
 10 34  1  0
 16 35  1  0
 17 36  1  0
 19 37  1  0
 20 38  1  0
 23 39  1  0
 23 40  1  0
 24 41  1  0
 24 42  1  0
 26 43  1  0
 27 44  1  0
M  CHG  2   3  -1  22  -1
M  END
>  <UniqueID>  (22) 
20

>  <SMILES>  (22) 
O=C([N-]c1ccc2c(c1)CN(S(=O)(=O)c1ccc(O)cc1[O-])CC2)c1ccno1

>  <Energy>  (22) 
89.6248120674773

>  <Genealogy>  (22) 
O=C([N-]c1ccc2c(c1)CN(S(=O)(=O)c1ccc(O)cc1[O-])CC2)c1ccno1 (protonated)
O=C([N-]c1ccc2c(c1)CN(S(=O)(=O)c1ccc(O)cc1[O-])CC2)c1ccno1 (3D coordinates assigned)
O=C([N-]c1ccc2c(c1)CN(S(=O)(=O)c1ccc(O)cc1[O-])CC2)c1ccno1 (nonaromatic ring conformer: 89.6248120674773 kcal/mol)

>  <smiles>  (22) 
O=C(Nc1ccc2c(c1)CN(S(=O)(=O)c1ccc(O)cc1O)CC2)c1ccno1

>  <score_type>  (22) 
oracle

>  <origin>  (22) 
adgpu

>  <m_score__min__energy>  (22) 
-11.52

>  <m_primary>  (22) 
energy

$$$$
22:0
     RDKit          3D

 53 57  0  0  1  0  0  0  0  0999 V2000
   -5.2010   24.8810  -30.8550 C   0  0  0  0  0  0  0  0  0  0  0  0
   -4.2240   24.2440  -29.9170 C   0  0  0  0  0  0  0  0  0  0  0  0
   -3.2360   24.9880  -29.3530 N   0  0  0  0  0  0  0  0  0  0  0  0
   -2.3240   24.4810  -28.5030 C   0  0  0  0  0  0  0  0  0  0  0  0
   -1.0730   25.4840  -27.8060 S   0  0  0  0  0  0  0  0  0  0  0  0
   -1.2880   25.7280  -26.0640 C   0  0  0  0  0  0  0  0  0  0  0  0
   -1.0390   26.7930  -28.5470 O   0  0  0  0  0  0  0  0  0  0  0  0
    0.2910   24.8630  -28.0050 O   0  0  0  0  0  0  0  0  0  0  0  0
   -2.4060   23.1300  -28.1940 C   0  0  0  0  0  0  0  0  0  0  0  0
   -3.4080   22.3340  -28.7550 C   0  0  0  0  0  0  0  0  0  0  0  0
   -4.3380   22.8980  -29.6340 C   0  0  0  0  0  0  0  0  0  0  0  0
   -5.3510   22.0690  -30.1940 N   0  0  0  0  0  0  0  0  0  0  0  0
   -5.1620   21.2810  -31.1980 C   0  0  0  0  0  0  0  0  0  0  0  0
   -6.2350   20.5350  -31.6360 C   0  0  0  0  0  0  0  0  0  0  0  0
   -6.0580   19.6840  -32.7090 C   0  0  0  0  0  0  0  0  0  0  0  0
   -7.1240   18.8930  -33.2030 N   0  0  0  0  0  0  0  0  0  0  0  0
   -7.2490   17.5160  -32.7390 C   0  0  0  0  0  0  0  0  0  0  0  0
   -6.4270   16.5000  -33.4950 C   0  0  0  0  0  0  0  0  0  0  0  0
   -6.0660   16.8980  -32.0980 C   0  0  0  0  0  0  0  0  0  0  0  0
   -4.8380   19.6360  -33.2660 N   0  0  0  0  0  0  0  0  0  0  0  0
   -4.4390   18.8970  -34.2970 N   0  0  0  0  0  0  0  0  0  0  0  0
   -3.1390   19.1340  -34.5500 C   0  0  0  0  0  0  0  0  0  0  0  0
   -2.7370   20.0660  -33.6190 C   0  0  0  0  0  0  0  0  0  0  0  0
   -1.5100   20.5410  -33.5610 C   0  0  0  0  0  0  0  0  0  0  0  0
   -0.5150   20.0640  -34.5300 C   0  0  0  0  0  0  0  0  0  0  0  0
   -0.2060   18.7770  -34.8040 N   0  0  0  0  0  0  0  0  0  0  0  0
    0.7630   18.7550  -35.7600 C   0  0  0  0  0  0  0  0  0  0  0  0
    1.3200   17.7750  -36.2840 O   0  0  0  0  0  0  0  0  0  0  0  0
    1.0710   20.0380  -36.0940 N   0  0  0  0  0  0  0  0  0  0  0  0
    0.2860   20.8500  -35.3390 C   0  0  0  0  0  0  0  0  0  0  0  0
    0.2490   22.2370  -35.3370 O   0  0  0  0  0  0  0  0  0  0  0  0
   -3.8160   20.3800  -32.8080 C   0  0  0  0  0  0  0  0  0  0  0  0
   -3.9410   21.2270  -31.7620 N   0  0  0  0  0  0  0  0  0  0  0  0
   -5.9848   25.3920  -30.2766 H   0  0  0  0  0  0  0  0  0  0  0  0
   -4.6776   25.6119  -31.4889 H   0  0  0  0  0  0  0  0  0  0  0  0
   -5.6587   24.1072  -31.4889 H   0  0  0  0  0  0  0  0  0  0  0  0
   -0.6585   25.0136  -25.5132 H   0  0  0  0  0  0  0  0  0  0  0  0
   -0.9956   26.7547  -25.7987 H   0  0  0  0  0  0  0  0  0  0  0  0
   -2.3433   25.5672  -25.7987 H   0  0  0  0  0  0  0  0  0  0  0  0
   -1.6767   22.6829  -27.5024 H   0  0  0  0  0  0  0  0  0  0  0  0
   -3.4653   21.2642  -28.5054 H   0  0  0  0  0  0  0  0  0  0  0  0
   -7.2136   20.6160  -31.1403 H   0  0  0  0  0  0  0  0  0  0  0  0
   -7.7910   19.3140  -33.8860 H   0  0  0  0  0  0  0  0  0  0  0  0
   -8.3058   17.6241  -32.4536 H   0  0  0  0  0  0  0  0  0  0  0  0
   -6.8349   15.4985  -33.6965 H   0  0  0  0  0  0  0  0  0  0  0  0
   -5.9053   16.4780  -34.4631 H   0  0  0  0  0  0  0  0  0  0  0  0
   -6.2014   16.1832  -31.2729 H   0  0  0  0  0  0  0  0  0  0  0  0
   -5.1569   17.2874  -31.6164 H   0  0  0  0  0  0  0  0  0  0  0  0
   -2.5233   18.6771  -35.3388 H   0  0  0  0  0  0  0  0  0  0  0  0
   -1.2346   21.2840  -32.7980 H   0  0  0  0  0  0  0  0  0  0  0  0
   -0.6440   17.9550  -34.3530 H   0  0  0  0  0  0  0  0  0  0  0  0
    1.7880   20.3470  -36.8080 H   0  0  0  0  0  0  0  0  0  0  0  0
   -0.5100   22.7850  -35.7100 H   0  0  0  0  0  0  0  0  0  0  0  0
  1  2  1  0
  2  3  2  0
  3  4  1  0
  4  5  1  0
  5  6  1  0
  5  7  2  0
  5  8  2  0
  4  9  2  0
  9 10  1  0
 10 11  2  0
 11 12  1  0
 12 13  2  0
 13 14  1  0
 14 15  2  0
 15 16  1  0
 16 17  1  0
 17 18  1  0
 18 19  1  0
 15 20  1  0
 20 21  1  0
 21 22  2  0
 22 23  1  0
 23 24  2  0
 24 25  1  0
 25 26  1  0
 26 27  1  0
 27 28  2  0
 27 29  1  0
 29 30  1  0
 30 31  1  0
 23 32  1  0
 32 33  2  0
 11  2  1  0
 33 13  1  0
 19 17  1  0
 32 20  1  0
 30 25  2  0
  1 34  1  0
  1 35  1  0
  1 36  1  0
  6 37  1  0
  6 38  1  0
  6 39  1  0
  9 40  1  0
 10 41  1  0
 14 42  1  0
 16 43  1  0
 17 44  1  0
 18 45  1  0
 18 46  1  0
 19 47  1  0
 19 48  1  0
 22 49  1  0
 24 50  1  0
 26 51  1  0
 29 52  1  0
 31 53  1  0
M  END
>  <smiles>  (23) 
Cc1nc(S(C)(=O)=O)ccc1N=c1cc(NC2CC2)n2ncc(=Cc3[nH]c(=O)[nH]c3O)c2n1

>  <score_type>  (23) 
oracle

>  <origin>  (23) 
adgpu

>  <m_score__min__energy>  (23) 
-9.4700000000000006

>  <m_primary>  (23) 
energy

$$$$
23:0
     RDKit          3D

 64 67  0  0  0  0  0  0  0  0999 V2000
   -4.7690   23.6460  -28.4510 C   0  0  0  0  0  0  0  0  0  0  0  0
   -4.5300   23.8270  -30.2070 S   0  0  0  0  0  0  0  0  0  0  0  0
   -4.0260   22.5270  -30.7680 O   0  0  0  0  0  0  0  0  0  0  0  0
   -3.4860   24.8830  -30.4240 O   0  0  0  0  0  0  0  0  0  0  0  0
   -6.0140   24.3110  -31.0060 N   0  0  0  0  0  0  0  0  0  0  0  0
   -7.2120   23.9530  -30.2210 C   0  0  0  0  0  0  0  0  0  0  0  0
   -7.4440   22.4330  -30.1840 C   0  0  0  0  0  0  0  0  0  0  0  0
   -7.1450   21.8250  -31.4850 N   0  0  0  0  0  0  0  0  0  0  0  0
   -7.1830   20.3900  -31.6170 C   0  0  0  0  0  0  0  0  0  0  0  0
   -7.9440   19.7210  -30.8650 O   0  0  0  0  0  0  0  0  0  0  0  0
   -6.3370   19.6700  -32.6020 C   0  0  0  0  0  0  0  0  0  0  0  0
   -6.8720   18.6020  -33.3410 C   0  0  0  0  0  0  0  0  0  0  0  0
   -6.0830   17.9190  -34.2700 C   0  0  0  0  0  0  0  0  0  0  0  0
   -4.7490   18.2930  -34.4760 C   0  0  0  0  0  0  0  0  0  0  0  0
   -3.9570   17.5910  -35.3840 O   0  0  0  0  0  0  0  0  0  0  0  0
   -4.2080   19.3650  -33.7490 C   0  0  0  0  0  0  0  0  0  0  0  0
   -2.8620   19.7960  -33.9590 N   0  0  0  0  0  0  0  0  0  0  0  0
   -1.5060   18.7540  -33.6800 S   0  0  0  0  0  0  0  0  0  0  0  0
   -0.4960   18.8940  -34.7830 O   0  0  0  0  0  0  0  0  0  0  0  0
   -1.9980   17.3340  -33.6620 O   0  0  0  0  0  0  0  0  0  0  0  0
   -0.7530   19.1470  -32.1350 C   0  0  0  0  0  0  0  0  0  0  0  0
    0.1790   18.2650  -31.5730 C   0  0  0  0  0  0  0  0  0  0  0  0
    0.7830   18.5660  -30.3490 C   0  0  0  0  0  0  0  0  0  0  0  0
    0.4500   19.7420  -29.6730 C   0  0  0  0  0  0  0  0  0  0  0  0
   -0.4930   20.6250  -30.2160 C   0  0  0  0  0  0  0  0  0  0  0  0
   -0.9580   22.0840  -29.3320 S   0  0  0  0  0  0  0  0  0  0  0  0
   -1.4970   23.1000  -30.3020 O   0  0  0  0  0  0  0  0  0  0  0  0
    0.2610   22.6720  -28.6770 O   0  0  0  0  0  0  0  0  0  0  0  0
   -2.1710   21.7600  -28.1140 N   0  0  0  0  0  0  0  0  0  0  0  0
   -1.5720   21.6450  -26.7780 C   0  0  0  0  0  0  0  0  0  0  0  0
   -1.5930   20.1820  -26.3880 C   0  0  0  0  0  0  0  0  0  0  0  0
   -2.7700   19.6200  -27.1460 C   0  0  0  0  0  0  0  0  0  0  0  0
   -2.8820   20.4980  -28.3820 C   0  0  0  0  0  0  0  0  0  0  0  0
   -1.0950   20.3220  -31.4480 C   0  0  0  0  0  0  0  0  0  0  0  0
   -4.9890   20.0230  -32.7920 C   0  0  0  0  0  0  0  0  0  0  0  0
   -7.0700   22.7010  -32.6580 C   0  0  0  0  0  0  0  0  0  0  0  0
   -6.0620   23.8390  -32.4140 C   0  0  0  0  0  0  0  0  0  0  0  0
   -4.0032   24.2259  -27.9150 H   0  0  0  0  0  0  0  0  0  0  0  0
   -5.7679   24.0161  -28.1768 H   0  0  0  0  0  0  0  0  0  0  0  0
   -4.6834   22.5842  -28.1768 H   0  0  0  0  0  0  0  0  0  0  0  0
   -7.0838   24.3178  -29.1912 H   0  0  0  0  0  0  0  0  0  0  0  0
   -8.0849   24.4182  -30.7023 H   0  0  0  0  0  0  0  0  0  0  0  0
   -6.7902   21.9876  -29.4197 H   0  0  0  0  0  0  0  0  0  0  0  0
   -8.5007   22.2450  -29.9433 H   0  0  0  0  0  0  0  0  0  0  0  0
   -7.9189   18.3014  -33.1873 H   0  0  0  0  0  0  0  0  0  0  0  0
   -6.5116   17.0833  -34.8426 H   0  0  0  0  0  0  0  0  0  0  0  0
   -2.9580   17.7520  -35.4520 H   0  0  0  0  0  0  0  0  0  0  0  0
    0.4363   17.3325  -32.0967 H   0  0  0  0  0  0  0  0  0  0  0  0
    1.5222   17.8752  -29.9172 H   0  0  0  0  0  0  0  0  0  0  0  0
    0.9296   19.9759  -28.7111 H   0  0  0  0  0  0  0  0  0  0  0  0
   -0.5353   22.0121  -26.7995 H   0  0  0  0  0  0  0  0  0  0  0  0
   -2.1366   22.2458  -26.0498 H   0  0  0  0  0  0  0  0  0  0  0  0
   -0.6598   19.6835  -26.6890 H   0  0  0  0  0  0  0  0  0  0  0  0
   -1.6792   20.0344  -25.3014 H   0  0  0  0  0  0  0  0  0  0  0  0
   -2.5863   18.5729  -27.4284 H   0  0  0  0  0  0  0  0  0  0  0  0
   -3.6925   19.6220  -26.5469 H   0  0  0  0  0  0  0  0  0  0  0  0
   -2.4255   19.9887  -29.2435 H   0  0  0  0  0  0  0  0  0  0  0  0
   -3.9388   20.6980  -28.6124 H   0  0  0  0  0  0  0  0  0  0  0  0
   -1.8388   21.0095  -31.8770 H   0  0  0  0  0  0  0  0  0  0  0  0
   -4.5443   20.8237  -32.1828 H   0  0  0  0  0  0  0  0  0  0  0  0
   -6.7483   22.1126  -33.5299 H   0  0  0  0  0  0  0  0  0  0  0  0
   -8.0630   23.1370  -32.8420 H   0  0  0  0  0  0  0  0  0  0  0  0
   -5.0604   23.4799  -32.6929 H   0  0  0  0  0  0  0  0  0  0  0  0
   -6.3908   24.6924  -33.0252 H   0  0  0  0  0  0  0  0  0  0  0  0
  1  2  1  0
  2  3  2  0
  2  4  2  0
  2  5  1  0
  5  6  1  0
  6  7  1  0
  7  8  1  0
  8  9  1  0
  9 10  2  0
  9 11  1  0
 11 12  2  0
 12 13  1  0
 13 14  2  0
 14 15  1  0
 14 16  1  0
 16 17  1  0
 17 18  1  0
 18 19  2  0
 18 20  2  0
 18 21  1  0
 21 22  2  0
 22 23  1  0
 23 24  2  0
 24 25  1  0
 25 26  1  0
 26 27  2  0
 26 28  2  0
 26 29  1  0
 29 30  1  0
 30 31  1  0
 31 32  1  0
 32 33  1  0
 25 34  2  0
 16 35  2  0
  8 36  1  0
 36 37  1  0
 37  5  1  0
 35 11  1  0
 34 21  1  0
 33 29  1  0
  1 38  1  0
  1 39  1  0
  1 40  1  0
  6 41  1  0
  6 42  1  0
  7 43  1  0
  7 44  1  0
 12 45  1  0
 13 46  1  0
 15 47  1  0
 22 48  1  0
 23 49  1  0
 24 50  1  0
 30 51  1  0
 30 52  1  0
 31 53  1  0
 31 54  1  0
 32 55  1  0
 32 56  1  0
 33 57  1  0
 33 58  1  0
 34 59  1  0
 35 60  1  0
 36 61  1  0
 36 62  1  0
 37 63  1  0
 37 64  1  0
M  CHG  1  17  -1
M  END
>  <UniqueID>  (24) 
21

>  <SMILES>  (24) 
CS(=O)(=O)N1CCN(C(=O)c2ccc(O)c([N-]S(=O)(=O)c3cccc(S(=O)(=O)N4CCCC4)c3)c2)CC1

>  <Energy>  (24) 
77.41848296093706

>  <Genealogy>  (24) 
CS(=O)(=O)N1CCN(C(=O)c2ccc(O)c([N-]S(=O)(=O)c3cccc(S(=O)(=O)N4CCCC4)c3)c2)CC1 (protonated)
CS(=O)(=O)N1CCN(C(=O)c2ccc(O)c([N-]S(=O)(=O)c3cccc(S(=O)(=O)N4CCCC4)c3)c2)CC1 (3D coordinates assigned)
CS(=O)(=O)N1CCN(C(=O)c2ccc(O)c([N-]S(=O)(=O)c3cccc(S(=O)(=O)N4CCCC4)c3)c2)CC1 (nonaromatic ring conformer: 77.41848296093706 kcal/mol)

>  <smiles>  (24) 
CS(=O)(=O)N1CCN(C(=O)c2ccc(O)c(NS(=O)(=O)c3cccc(S(=O)(=O)N4CCCC4)c3)c2)CC1

>  <score_type>  (24) 
oracle

>  <origin>  (24) 
adgpu

>  <m_score__min__energy>  (24) 
-12.789999999999999

>  <m_primary>  (24) 
energy

$$$$
24:0
     RDKit          3D

 53 55  0  0  0  0  0  0  0  0999 V2000
    0.5230   20.3140  -33.0390 C   0  0  0  0  0  0  0  0  0  0  0  0
   -0.6160   20.3630  -32.1140 N   0  0  0  0  0  0  0  0  0  0  0  0
   -0.3850   20.6440  -30.6910 C   0  0  0  0  0  0  0  0  0  0  0  0
   -1.9500   20.1490  -32.6320 C   0  0  0  0  0  0  0  0  0  0  0  0
   -2.4800   18.8550  -32.8110 C   0  0  0  0  0  0  0  0  0  0  0  0
   -3.7760   18.7000  -33.3060 C   0  0  0  0  0  0  0  0  0  0  0  0
   -4.5520   19.8250  -33.6110 C   0  0  0  0  0  0  0  0  0  0  0  0
   -5.9390   19.6690  -34.1680 C   0  0  0  0  0  0  0  0  0  0  0  0
   -6.5220   18.4120  -33.6930 N   0  0  0  0  0  0  0  0  0  0  0  0
   -7.2050   18.6430  -32.1120 S   0  0  0  0  0  0  0  0  0  0  0  0
   -8.4520   17.8130  -31.9790 O   0  0  0  0  0  0  0  0  0  0  0  0
   -6.2110   18.2050  -31.0730 O   0  0  0  0  0  0  0  0  0  0  0  0
   -7.5760   20.3470  -31.8640 C   0  0  0  0  0  0  0  0  0  0  0  0
   -8.8500   20.8510  -32.1630 C   0  0  0  0  0  0  0  0  0  0  0  0
   -9.1320   22.2040  -31.9640 C   0  0  0  0  0  0  0  0  0  0  0  0
   -8.1470   23.0600  -31.4630 C   0  0  0  0  0  0  0  0  0  0  0  0
   -6.8730   22.5640  -31.1580 C   0  0  0  0  0  0  0  0  0  0  0  0
   -5.6510   23.6500  -30.4990 S   0  0  0  0  0  0  0  0  0  0  0  0
   -6.3280   24.6240  -29.5760 O   0  0  0  0  0  0  0  0  0  0  0  0
   -4.9900   24.4140  -31.6140 O   0  0  0  0  0  0  0  0  0  0  0  0
   -4.4650   22.7080  -29.6200 N   0  0  0  0  0  0  0  0  0  0  0  0
   -3.1740   22.6300  -30.3400 C   0  0  0  0  0  0  0  0  0  0  0  0
   -2.1230   23.6090  -29.7870 C   0  0  0  0  0  0  0  0  0  0  0  0
   -2.7490   24.7820  -29.3150 O   0  0  0  0  0  0  0  0  0  0  0  0
   -3.4970   24.4990  -28.1450 C   0  0  0  0  0  0  0  0  0  0  0  0
   -4.3110   23.1840  -28.2330 C   0  0  0  0  0  0  0  0  0  0  0  0
   -6.5910   21.2050  -31.3590 C   0  0  0  0  0  0  0  0  0  0  0  0
   -3.9880   21.0960  -33.4420 C   0  0  0  0  0  0  0  0  0  0  0  0
   -2.7240   21.2230  -32.9600 N   0  0  0  0  0  0  0  0  0  0  0  0
    1.4603   20.2737  -32.4647 H   0  0  0  0  0  0  0  0  0  0  0  0
    0.4425   19.4185  -33.6727 H   0  0  0  0  0  0  0  0  0  0  0  0
    0.5197   21.2131  -33.6727 H   0  0  0  0  0  0  0  0  0  0  0  0
   -0.9654   19.9380  -30.0789 H   0  0  0  0  0  0  0  0  0  0  0  0
    0.6855   20.5319  -30.4642 H   0  0  0  0  0  0  0  0  0  0  0  0
   -0.7021   21.6726  -30.4642 H   0  0  0  0  0  0  0  0  0  0  0  0
   -1.8747   17.9710  -32.5616 H   0  0  0  0  0  0  0  0  0  0  0  0
   -4.1887   17.6916  -33.4568 H   0  0  0  0  0  0  0  0  0  0  0  0
   -6.5638   20.5109  -33.8351 H   0  0  0  0  0  0  0  0  0  0  0  0
   -5.8916   19.6568  -35.2669 H   0  0  0  0  0  0  0  0  0  0  0  0
   -7.3120   18.1570  -34.3310 H   0  0  0  0  0  0  0  0  0  0  0  0
   -9.6282   20.1796  -32.5548 H   0  0  0  0  0  0  0  0  0  0  0  0
  -10.1314   22.5971  -32.2020 H   0  0  0  0  0  0  0  0  0  0  0  0
   -8.3728   24.1253  -31.3079 H   0  0  0  0  0  0  0  0  0  0  0  0
   -2.7825   21.6060  -30.2497 H   0  0  0  0  0  0  0  0  0  0  0  0
   -3.3624   22.9036  -31.3886 H   0  0  0  0  0  0  0  0  0  0  0  0
   -1.5796   23.1292  -28.9596 H   0  0  0  0  0  0  0  0  0  0  0  0
   -1.4227   23.8756  -30.5923 H   0  0  0  0  0  0  0  0  0  0  0  0
   -2.8005   24.4209  -27.2972 H   0  0  0  0  0  0  0  0  0  0  0  0
   -4.2199   25.3183  -28.0180 H   0  0  0  0  0  0  0  0  0  0  0  0
   -3.7932   22.4087  -27.6492 H   0  0  0  0  0  0  0  0  0  0  0  0
   -5.3164   23.3855  -27.8348 H   0  0  0  0  0  0  0  0  0  0  0  0
   -5.5922   20.8114  -31.1191 H   0  0  0  0  0  0  0  0  0  0  0  0
   -4.5697   21.9933  -33.7001 H   0  0  0  0  0  0  0  0  0  0  0  0
  1  2  1  0
  2  3  1  0
  2  4  1  0
  4  5  2  0
  5  6  1  0
  6  7  2  0
  7  8  1  0
  8  9  1  0
  9 10  1  0
 10 11  2  0
 10 12  2  0
 10 13  1  0
 13 14  2  0
 14 15  1  0
 15 16  2  0
 16 17  1  0
 17 18  1  0
 18 19  2  0
 18 20  2  0
 18 21  1  0
 21 22  1  0
 22 23  1  0
 23 24  1  0
 24 25  1  0
 25 26  1  0
 17 27  2  0
  7 28  1  0
 28 29  2  0
 29  4  1  0
 27 13  1  0
 26 21  1  0
  1 30  1  0
  1 31  1  0
  1 32  1  0
  3 33  1  0
  3 34  1  0
  3 35  1  0
  5 36  1  0
  6 37  1  0
  8 38  1  0
  8 39  1  0
  9 40  1  0
 14 41  1  0
 15 42  1  0
 16 43  1  0
 22 44  1  0
 22 45  1  0
 23 46  1  0
 23 47  1  0
 25 48  1  0
 25 49  1  0
 26 50  1  0
 26 51  1  0
 27 52  1  0
 28 53  1  0
M  END
>  <UniqueID>  (25) 
22

>  <SMILES>  (25) 
CN(C)c1ccc(CNS(=O)(=O)c2cccc(S(=O)(=O)N3CCOCC3)c2)cn1

>  <Energy>  (25) 
61.0371371900885

>  <Genealogy>  (25) 
CN(C)c1ccc(CNS(=O)(=O)c2cccc(S(=O)(=O)N3CCOCC3)c2)cn1 (3D coordinates assigned)
CN(C)c1ccc(CNS(=O)(=O)c2cccc(S(=O)(=O)N3CCOCC3)c2)cn1 (nonaromatic ring conformer: 61.0371371900885 kcal/mol)

>  <smiles>  (25) 
CN(C)c1ccc(CNS(=O)(=O)c2cccc(S(=O)(=O)N3CCOCC3)c2)cn1

>  <score_type>  (25) 
oracle

>  <origin>  (25) 
adgpu

>  <m_score__min__energy>  (25) 
-9.9700000000000006

>  <m_primary>  (25) 
energy

$$$$
25:0
     RDKit          3D

 69 73  0  0  0  0  0  0  0  0999 V2000
   -5.6610   16.2360  -32.1490 C   0  0  0  0  0  0  0  0  0  0  0  0
   -6.8960   16.7270  -32.6590 O   0  0  0  0  0  0  0  0  0  0  0  0
   -7.3420   18.0530  -32.5280 C   0  0  0  0  0  0  0  0  0  0  0  0
   -8.5980   18.3650  -31.9720 C   0  0  0  0  0  0  0  0  0  0  0  0
   -9.0230   19.6940  -31.8910 C   0  0  0  0  0  0  0  0  0  0  0  0
   -8.2060   20.7210  -32.3630 C   0  0  0  0  0  0  0  0  0  0  0  0
   -6.9560   20.4240  -32.9120 C   0  0  0  0  0  0  0  0  0  0  0  0
   -6.5100   19.0960  -32.9810 C   0  0  0  0  0  0  0  0  0  0  0  0
   -5.2230   18.8100  -33.5510 N   0  0  0  0  0  0  0  0  0  0  0  0
   -4.0500   19.3270  -33.1360 C   0  0  0  0  0  0  0  0  0  0  0  0
   -3.0270   18.8560  -33.9400 C   0  0  0  0  0  0  0  0  0  0  0  0
   -1.5790   19.2570  -33.8620 C   0  0  1  0  0  0  0  0  0  0  0  0
   -0.9400   18.9910  -35.0860 O   0  0  0  0  0  0  0  0  0  0  0  0
   -1.4570   20.6770  -33.5090 N   0  0  0  0  0  0  0  0  0  0  0  0
   -1.5130   21.1650  -32.1550 C   0  0  0  0  0  0  0  0  0  0  0  0
   -2.5050   22.0810  -31.7600 C   0  0  0  0  0  0  0  0  0  0  0  0
   -2.5370   22.5820  -30.4530 C   0  0  0  0  0  0  0  0  0  0  0  0
   -3.8110   23.6950  -29.9610 S   0  0  0  0  0  0  0  0  0  0  0  0
   -3.8920   23.7250  -28.4600 O   0  0  0  0  0  0  0  0  0  0  0  0
   -3.4870   25.0810  -30.4510 O   0  0  0  0  0  0  0  0  0  0  0  0
   -5.3350   23.1520  -30.6160 N   0  0  0  0  0  0  0  0  0  0  0  0
   -5.4140   23.4070  -32.0530 C   0  0  0  0  0  0  0  0  0  0  0  0
   -6.8920   23.5090  -32.3830 C   0  0  0  0  0  0  0  0  0  0  0  0
   -7.5540   23.9440  -31.0850 C   0  0  0  0  0  0  0  0  0  0  0  0
   -6.4600   23.8780  -30.0250 C   0  0  0  0  0  0  0  0  0  0  0  0
   -1.5730   22.1680  -29.5280 C   0  0  0  0  0  0  0  0  0  0  0  0
   -0.5830   21.2610  -29.9060 C   0  0  0  0  0  0  0  0  0  0  0  0
   -0.5480   20.7490  -31.2100 C   0  0  0  0  0  0  0  0  0  0  0  0
    0.4470   19.7710  -31.5420 N   0  0  0  0  0  0  0  0  0  0  0  0
    1.4220   20.0400  -32.6020 C   0  0  0  0  0  0  0  0  0  0  0  0
    1.8130   18.7230  -33.2800 C   0  0  0  0  0  0  0  0  0  0  0  0
    2.2160   17.7640  -32.3180 O   0  0  0  0  0  0  0  0  0  0  0  0
    1.1180   17.4190  -31.4950 C   0  0  0  0  0  0  0  0  0  0  0  0
    0.6580   18.6200  -30.6630 C   0  0  0  0  0  0  0  0  0  0  0  0
   -3.5970   18.0180  -34.8830 C   0  0  0  0  0  0  0  0  0  0  0  0
   -4.9460   18.0080  -34.6030 C   0  0  0  0  0  0  0  0  0  0  0  0
   -5.8880   17.2520  -35.2980 O   0  0  0  0  0  0  0  0  0  0  0  0
   -5.6882   16.2468  -31.0494 H   0  0  0  0  0  0  0  0  0  0  0  0
   -5.5021   15.2063  -32.5018 H   0  0  0  0  0  0  0  0  0  0  0  0
   -4.8384   16.8755  -32.5018 H   0  0  0  0  0  0  0  0  0  0  0  0
   -9.2474   17.5589  -31.5998 H   0  0  0  0  0  0  0  0  0  0  0  0
  -10.0043   19.9305  -31.4539 H   0  0  0  0  0  0  0  0  0  0  0  0
   -8.5459   21.7654  -32.3030 H   0  0  0  0  0  0  0  0  0  0  0  0
   -6.3184   21.2358  -33.2920 H   0  0  0  0  0  0  0  0  0  0  0  0
   -3.9249   20.0172  -32.2886 H   0  0  0  0  0  0  0  0  0  0  0  0
   -1.0882   18.6663  -33.0744 H   0  0  0  0  0  0  0  0  0  0  0  0
   -0.3320   18.2190  -34.9440 H   0  0  0  0  0  0  0  0  0  0  0  0
   -1.2990   21.3670  -34.2780 H   0  0  0  0  0  0  0  0  0  0  0  0
   -3.2641   22.4073  -32.4862 H   0  0  0  0  0  0  0  0  0  0  0  0
   -4.9016   24.3479  -32.3023 H   0  0  0  0  0  0  0  0  0  0  0  0
   -4.9282   22.6063  -32.6300 H   0  0  0  0  0  0  0  0  0  0  0  0
   -7.0615   24.2555  -33.1729 H   0  0  0  0  0  0  0  0  0  0  0  0
   -7.2992   22.5580  -32.7569 H   0  0  0  0  0  0  0  0  0  0  0  0
   -7.9395   24.9702  -31.1756 H   0  0  0  0  0  0  0  0  0  0  0  0
   -8.4088   23.3010  -30.8285 H   0  0  0  0  0  0  0  0  0  0  0  0
   -6.1470   24.8937  -29.7414 H   0  0  0  0  0  0  0  0  0  0  0  0
   -6.8218   23.3708  -29.1184 H   0  0  0  0  0  0  0  0  0  0  0  0
   -1.5956   22.5586  -28.4999 H   0  0  0  0  0  0  0  0  0  0  0  0
    0.1759   20.9453  -29.1750 H   0  0  0  0  0  0  0  0  0  0  0  0
    0.9778   20.7179  -33.3457 H   0  0  0  0  0  0  0  0  0  0  0  0
    2.3169   20.5094  -32.1675 H   0  0  0  0  0  0  0  0  0  0  0  0
    0.9485   18.3336  -33.8377 H   0  0  0  0  0  0  0  0  0  0  0  0
    2.6540   18.9133  -33.9630 H   0  0  0  0  0  0  0  0  0  0  0  0
    0.2854   17.0804  -32.1291 H   0  0  0  0  0  0  0  0  0  0  0  0
    1.4312   16.6171  -30.8102 H   0  0  0  0  0  0  0  0  0  0  0  0
   -0.2836   18.3722  -30.1511 H   0  0  0  0  0  0  0  0  0  0  0  0
    1.4280   18.8652  -29.9166 H   0  0  0  0  0  0  0  0  0  0  0  0
   -3.0808   17.4739  -35.6876 H   0  0  0  0  0  0  0  0  0  0  0  0
   -6.6290   16.7550  -34.8200 H   0  0  0  0  0  0  0  0  0  0  0  0
  1  2  1  0
  2  3  1  0
  3  4  2  0
  4  5  1  0
  5  6  2  0
  6  7  1  0
  7  8  2  0
  8  9  1  0
  9 10  1  0
 10 11  2  0
 11 12  1  0
 12 13  1  0
 12 14  1  0
 14 15  1  0
 15 16  2  0
 16 17  1  0
 17 18  1  0
 18 19  2  0
 18 20  2  0
 18 21  1  0
 21 22  1  0
 22 23  1  0
 23 24  1  0
 24 25  1  0
 17 26  2  0
 26 27  1  0
 27 28  2  0
 28 29  1  0
 29 30  1  0
 30 31  1  0
 31 32  1  0
 32 33  1  0
 33 34  1  0
 11 35  1  0
 35 36  2  0
 36 37  1  0
  8  3  1  0
 36  9  1  0
 28 15  1  0
 34 29  1  0
 25 21  1  0
  1 38  1  0
  1 39  1  0
  1 40  1  0
  4 41  1  0
  5 42  1  0
  6 43  1  0
  7 44  1  0
 10 45  1  0
 12 46  1  1
 13 47  1  0
 14 48  1  0
 16 49  1  0
 22 50  1  0
 22 51  1  0
 23 52  1  0
 23 53  1  0
 24 54  1  0
 24 55  1  0
 25 56  1  0
 25 57  1  0
 26 58  1  0
 27 59  1  0
 30 60  1  0
 30 61  1  0
 31 62  1  0
 31 63  1  0
 33 64  1  0
 33 65  1  0
 34 66  1  0
 34 67  1  0
 35 68  1  0
 37 69  1  0
M  END
>  <UniqueID>  (26) 
23

>  <SMILES>  (26) 
COc1ccccc1-n1cc([C@@H](O)Nc2cc(S(=O)(=O)N3CCCC3)ccc2N2CCOCC2)cc1O

>  <Energy>  (26) 
112.89216593647429

>  <Genealogy>  (26) 
COc1ccccc1-n1cc([C@@H](O)Nc2cc(S(=O)(=O)N3CCCC3)ccc2N2CCOCC2)cc1O (chirality)
COc1ccccc1-n1cc([C@@H](O)Nc2cc(S(=O)(=O)N3CCCC3)ccc2N2CCOCC2)cc1O (3D coordinates assigned)
COc1ccccc1-n1cc([C@@H](O)Nc2cc(S(=O)(=O)N3CCCC3)ccc2N2CCOCC2)cc1O (nonaromatic ring conformer: 112.89216593647429 kcal/mol)

>  <smiles>  (26) 
COc1ccccc1-n1cc(C(O)Nc2cc(S(=O)(=O)N3CCCC3)ccc2N2CCOCC2)cc1O

>  <score_type>  (26) 
oracle

>  <origin>  (26) 
adgpu

>  <m_score__min__energy>  (26) 
-9.4499999999999993

>  <m_primary>  (26) 
energy

$$$$
26:0
     RDKit          3D

 59 62  0  0  0  0  0  0  0  0999 V2000
   -5.8560   23.1820  -29.7550 O   0  0  0  0  0  0  0  0  0  0  0  0
   -4.6940   23.6430  -30.5910 S   0  0  0  0  0  0  0  0  0  0  0  0
   -5.1970   24.6350  -31.6040 O   0  0  0  0  0  0  0  0  0  0  0  0
   -4.0000   22.2460  -31.4100 C   0  0  0  0  0  0  0  0  0  0  0  0
   -3.5750   21.1410  -30.6600 C   0  0  0  0  0  0  0  0  0  0  0  0
   -3.0030   20.0360  -31.2960 C   0  0  0  0  0  0  0  0  0  0  0  0
   -2.8470   20.0290  -32.6890 C   0  0  0  0  0  0  0  0  0  0  0  0
   -2.1390   18.6390  -33.5070 S   0  0  0  0  0  0  0  0  0  0  0  0
   -1.1830   19.1390  -34.5530 O   0  0  0  0  0  0  0  0  0  0  0  0
   -1.3860   17.7960  -32.5170 O   0  0  0  0  0  0  0  0  0  0  0  0
   -3.4120   17.6980  -34.2540 N   0  0  0  0  0  0  0  0  0  0  0  0
   -4.4000   18.5460  -34.9620 C   0  0  0  0  0  0  0  0  0  0  0  0
   -5.8100   18.4820  -34.3510 C   0  0  0  0  0  0  0  0  0  0  0  0
   -5.7290   18.5420  -32.8840 N   0  0  0  0  0  0  0  0  0  0  0  0
   -7.3330   18.6330  -32.2000 S   0  0  0  0  0  0  0  0  0  0  0  0
   -8.3060   17.8860  -33.0710 O   0  0  0  0  0  0  0  0  0  0  0  0
   -7.3400   18.0130  -30.8300 O   0  0  0  0  0  0  0  0  0  0  0  0
   -7.8280   20.3200  -32.0580 C   0  0  0  0  0  0  0  0  0  0  0  0
   -9.0720   20.6320  -31.4930 C   0  0  0  0  0  0  0  0  0  0  0  0
   -9.4660   21.9680  -31.3570 C   0  0  0  0  0  0  0  0  0  0  0  0
   -8.6170   22.9940  -31.7820 C   0  0  0  0  0  0  0  0  0  0  0  0
   -7.3730   22.6870  -32.3410 C   0  0  0  0  0  0  0  0  0  0  0  0
   -6.9760   21.3530  -32.4780 C   0  0  0  0  0  0  0  0  0  0  0  0
   -4.9890   17.3880  -32.3160 C   0  0  0  0  0  0  0  0  0  0  0  0
   -4.0080   16.7330  -33.3130 C   0  0  0  0  0  0  0  0  0  0  0  0
   -3.2610   21.1370  -33.4390 C   0  0  0  0  0  0  0  0  0  0  0  0
   -3.8340   22.2430  -32.8020 C   0  0  0  0  0  0  0  0  0  0  0  0
   -3.4870   24.3810  -29.5690 N   0  0  0  0  0  0  0  0  0  0  0  0
   -3.8910   24.2770  -28.1570 C   0  0  0  0  0  0  0  0  0  0  0  0
   -2.7620   24.7730  -27.2310 C   0  0  0  0  0  0  0  0  0  0  0  0
   -1.6800   25.3060  -27.9710 O   0  0  0  0  0  0  0  0  0  0  0  0
   -1.1340   24.3030  -28.8070 C   0  0  0  0  0  0  0  0  0  0  0  0
   -2.1880   23.7220  -29.7730 C   0  0  0  0  0  0  0  0  0  0  0  0
   -3.6922   21.1435  -29.5663 H   0  0  0  0  0  0  0  0  0  0  0  0
   -2.6746   19.1701  -30.7024 H   0  0  0  0  0  0  0  0  0  0  0  0
   -4.0523   19.5890  -34.9277 H   0  0  0  0  0  0  0  0  0  0  0  0
   -4.4750   18.1661  -35.9916 H   0  0  0  0  0  0  0  0  0  0  0  0
   -6.4041   19.3321  -34.7175 H   0  0  0  0  0  0  0  0  0  0  0  0
   -6.2875   17.5361  -34.6465 H   0  0  0  0  0  0  0  0  0  0  0  0
   -5.2420   19.4290  -32.6150 H   0  0  0  0  0  0  0  0  0  0  0  0
   -9.7398   19.8255  -31.1559 H   0  0  0  0  0  0  0  0  0  0  0  0
  -10.4439   22.2108  -30.9156 H   0  0  0  0  0  0  0  0  0  0  0  0
   -8.9280   24.0438  -31.6765 H   0  0  0  0  0  0  0  0  0  0  0  0
   -6.7056   23.4957  -32.6735 H   0  0  0  0  0  0  0  0  0  0  0  0
   -5.9955   21.1134  -32.9152 H   0  0  0  0  0  0  0  0  0  0  0  0
   -4.4172   17.7367  -31.4434 H   0  0  0  0  0  0  0  0  0  0  0  0
   -5.7353   16.6254  -32.0488 H   0  0  0  0  0  0  0  0  0  0  0  0
   -3.1983   16.2530  -32.7437 H   0  0  0  0  0  0  0  0  0  0  0  0
   -4.5803   16.0053  -33.9071 H   0  0  0  0  0  0  0  0  0  0  0  0
   -3.1353   21.1376  -34.5318 H   0  0  0  0  0  0  0  0  0  0  0  0
   -4.1550   23.1122  -33.3948 H   0  0  0  0  0  0  0  0  0  0  0  0
   -4.7893   24.8900  -27.9920 H   0  0  0  0  0  0  0  0  0  0  0  0
   -4.1018   23.2225  -27.9254 H   0  0  0  0  0  0  0  0  0  0  0  0
   -3.1611   25.5549  -26.5681 H   0  0  0  0  0  0  0  0  0  0  0  0
   -2.3925   23.9163  -26.6484 H   0  0  0  0  0  0  0  0  0  0  0  0
   -0.3137   24.7389  -29.3961 H   0  0  0  0  0  0  0  0  0  0  0  0
   -0.7715   23.4855  -28.1664 H   0  0  0  0  0  0  0  0  0  0  0  0
   -1.8580   23.8838  -30.8098 H   0  0  0  0  0  0  0  0  0  0  0  0
   -2.2985   22.6455  -29.5759 H   0  0  0  0  0  0  0  0  0  0  0  0
  1  2  2  0
  2  3  2  0
  2  4  1  0
  4  5  2  0
  5  6  1  0
  6  7  2  0
  7  8  1  0
  8  9  2  0
  8 10  2  0
  8 11  1  0
 11 12  1  0
 12 13  1  0
 13 14  1  0
 14 15  1  0
 15 16  2  0
 15 17  2  0
 15 18  1  0
 18 19  2  0
 19 20  1  0
 20 21  2  0
 21 22  1  0
 22 23  2  0
 14 24  1  0
 24 25  1  0
  7 26  1  0
 26 27  2  0
  2 28  1  0
 28 29  1  0
 29 30  1  0
 30 31  1  0
 31 32  1  0
 32 33  1  0
 27  4  1  0
 33 28  1  0
 25 11  1  0
 23 18  1  0
  5 34  1  0
  6 35  1  0
 12 36  1  0
 12 37  1  0
 13 38  1  0
 13 39  1  0
 14 40  1  0
 19 41  1  0
 20 42  1  0
 21 43  1  0
 22 44  1  0
 23 45  1  0
 24 46  1  0
 24 47  1  0
 25 48  1  0
 25 49  1  0
 26 50  1  0
 27 51  1  0
 29 52  1  0
 29 53  1  0
 30 54  1  0
 30 55  1  0
 32 56  1  0
 32 57  1  0
 33 58  1  0
 33 59  1  0
M  CHG  1  14   1
M  END
>  <UniqueID>  (27) 
24

>  <SMILES>  (27) 
O=S(=O)(c1ccc(S(=O)(=O)N2CC[NH+](S(=O)(=O)c3ccccc3)CC2)cc1)N1CCOCC1

>  <Energy>  (27) 
78.02981767137562

>  <Genealogy>  (27) 
O=S(=O)(c1ccc(S(=O)(=O)N2CC[NH+](S(=O)(=O)c3ccccc3)CC2)cc1)N1CCOCC1 (protonated)
O=S(=O)(c1ccc(S(=O)(=O)N2CC[NH+](S(=O)(=O)c3ccccc3)CC2)cc1)N1CCOCC1 (3D coordinates assigned)
O=S(=O)(c1ccc(S(=O)(=O)N2CC[NH+](S(=O)(=O)c3ccccc3)CC2)cc1)N1CCOCC1 (nonaromatic ring conformer: 78.02981767137562 kcal/mol)

>  <smiles>  (27) 
O=S(=O)(c1ccc(S(=O)(=O)N2CCN(S(=O)(=O)c3ccccc3)CC2)cc1)N1CCOCC1

>  <score_type>  (27) 
oracle

>  <origin>  (27) 
adgpu

>  <m_score__min__energy>  (27) 
-10.17

>  <m_primary>  (27) 
energy

$$$$
27:0
     RDKit          3D

 63 67  0  0  0  0  0  0  0  0999 V2000
   -3.8750   25.6300  -30.5290 O   0  0  0  0  0  0  0  0  0  0  0  0
   -4.5830   24.3160  -30.3380 S   0  0  0  0  0  0  0  0  0  0  0  0
   -5.5620   24.4420  -29.2020 O   0  0  0  0  0  0  0  0  0  0  0  0
   -5.4440   23.9140  -31.7910 N   0  0  0  0  0  0  0  0  0  0  0  0
   -5.4240   22.5900  -32.3340 C   0  0  0  0  0  0  0  0  0  0  0  0
   -4.2260   22.0680  -32.8360 C   0  0  0  0  0  0  0  0  0  0  0  0
   -4.1540   20.7390  -33.2540 C   0  0  0  0  0  0  0  0  0  0  0  0
   -5.2720   19.9000  -33.1670 C   0  0  0  0  0  0  0  0  0  0  0  0
   -5.1140   18.4950  -33.4250 N   0  0  0  0  0  0  0  0  0  0  0  0
   -5.2590   17.5340  -32.3310 C   0  0  0  0  0  0  0  0  0  0  0  0
   -4.9230   16.1130  -32.8050 C   0  0  0  0  0  0  0  0  0  0  0  0
   -3.7820   16.1460  -33.7300 N   0  0  0  0  0  0  0  0  0  0  0  0
   -4.1020   16.8470  -34.9900 C   0  0  0  0  0  0  0  0  0  0  0  0
   -5.0890   18.0220  -34.8130 C   0  0  0  0  0  0  0  0  0  0  0  0
   -6.5100   20.4310  -32.7310 C   0  0  0  0  0  0  0  0  0  0  0  0
   -7.6750   19.6380  -32.6970 C   0  0  0  0  0  0  0  0  0  0  0  0
   -8.8870   20.1750  -32.2470 C   0  0  0  0  0  0  0  0  0  0  0  0
   -8.9570   21.5000  -31.8260 C   0  0  0  0  0  0  0  0  0  0  0  0
   -7.8170   22.3060  -31.8570 C   0  0  0  0  0  0  0  0  0  0  0  0
   -6.5850   21.7890  -32.3150 C   0  0  0  0  0  0  0  0  0  0  0  0
   -3.4100   23.0550  -29.9560 C   0  0  0  0  0  0  0  0  0  0  0  0
   -2.0370   23.2680  -30.1510 C   0  0  0  0  0  0  0  0  0  0  0  0
   -1.1280   22.2200  -29.9720 C   0  0  0  0  0  0  0  0  0  0  0  0
   -1.5840   20.9440  -29.6090 C   0  0  0  0  0  0  0  0  0  0  0  0
   -0.4820   19.5690  -29.6050 S   0  0  0  0  0  0  0  0  0  0  0  0
    0.9380   20.0520  -29.6940 O   0  0  0  0  0  0  0  0  0  0  0  0
   -0.6500   18.8030  -28.3220 O   0  0  0  0  0  0  0  0  0  0  0  0
   -0.8630   18.5420  -30.9630 N   0  0  0  0  0  0  0  0  0  0  0  0
   -1.1800   19.3610  -32.1470 C   0  0  0  0  0  0  0  0  0  0  0  0
   -1.3610   18.4670  -33.3840 C   0  0  0  0  0  0  0  0  0  0  0  0
   -1.3340   17.0950  -33.0380 O   0  0  0  0  0  0  0  0  0  0  0  0
   -0.0760   16.7650  -32.4840 C   0  0  0  0  0  0  0  0  0  0  0  0
    0.2640   17.6470  -31.2650 C   0  0  0  0  0  0  0  0  0  0  0  0
   -2.9540   20.7370  -29.3930 C   0  0  0  0  0  0  0  0  0  0  0  0
   -3.8610   21.7900  -29.5550 C   0  0  0  0  0  0  0  0  0  0  0  0
   -3.3353   22.7102  -32.9013 H   0  0  0  0  0  0  0  0  0  0  0  0
   -3.2088   20.3457  -33.6563 H   0  0  0  0  0  0  0  0  0  0  0  0
   -4.5771   17.8122  -31.5139 H   0  0  0  0  0  0  0  0  0  0  0  0
   -6.3021   17.5518  -31.9823 H   0  0  0  0  0  0  0  0  0  0  0  0
   -4.6682   15.4900  -31.9350 H   0  0  0  0  0  0  0  0  0  0  0  0
   -5.7958   15.6910  -33.3247 H   0  0  0  0  0  0  0  0  0  0  0  0
   -2.9700   16.6150  -33.2660 H   0  0  0  0  0  0  0  0  0  0  0  0
   -3.4980   15.1620  -33.9520 H   0  0  0  0  0  0  0  0  0  0  0  0
   -3.1670   17.2399  -35.4160 H   0  0  0  0  0  0  0  0  0  0  0  0
   -4.5889   16.1147  -35.6508 H   0  0  0  0  0  0  0  0  0  0  0  0
   -4.7806   18.8503  -35.4679 H   0  0  0  0  0  0  0  0  0  0  0  0
   -6.0972   17.6702  -35.0772 H   0  0  0  0  0  0  0  0  0  0  0  0
   -7.6314   18.5894  -33.0265 H   0  0  0  0  0  0  0  0  0  0  0  0
   -9.7893   19.5462  -32.2260 H   0  0  0  0  0  0  0  0  0  0  0  0
   -9.9118   21.9128  -31.4683 H   0  0  0  0  0  0  0  0  0  0  0  0
   -7.8790   23.3519  -31.5220 H   0  0  0  0  0  0  0  0  0  0  0  0
   -1.6738   24.2635  -30.4459 H   0  0  0  0  0  0  0  0  0  0  0  0
   -0.0520   22.3970  -30.1164 H   0  0  0  0  0  0  0  0  0  0  0  0
   -2.1103   19.9186  -31.9635 H   0  0  0  0  0  0  0  0  0  0  0  0
   -0.3504   20.0597  -32.3300 H   0  0  0  0  0  0  0  0  0  0  0  0
   -2.3280   18.6985  -33.8545 H   0  0  0  0  0  0  0  0  0  0  0  0
   -0.5315   18.6652  -34.0787 H   0  0  0  0  0  0  0  0  0  0  0  0
   -0.0919   15.7116  -32.1676 H   0  0  0  0  0  0  0  0  0  0  0  0
    0.6912   16.9360  -33.2535 H   0  0  0  0  0  0  0  0  0  0  0  0
    0.4627   17.0046  -30.3944 H   0  0  0  0  0  0  0  0  0  0  0  0
    1.1544   18.2513  -31.4931 H   0  0  0  0  0  0  0  0  0  0  0  0
   -3.3172   19.7424  -29.0949 H   0  0  0  0  0  0  0  0  0  0  0  0
   -4.9321   21.6244  -29.3669 H   0  0  0  0  0  0  0  0  0  0  0  0
  1  2  2  0
  2  3  2  0
  2  4  1  0
  4  5  1  0
  5  6  2  0
  6  7  1  0
  7  8  2  0
  8  9  1  0
  9 10  1  0
 10 11  1  0
 11 12  1  0
 12 13  1  0
 13 14  1  0
  8 15  1  0
 15 16  2  0
 16 17  1  0
 17 18  2  0
 18 19  1  0
 19 20  2  0
  2 21  1  0
 21 22  2  0
 22 23  1  0
 23 24  2  0
 24 25  1  0
 25 26  2  0
 25 27  2  0
 25 28  1  0
 28 29  1  0
 29 30  1  0
 30 31  1  0
 31 32  1  0
 32 33  1  0
 24 34  1  0
 34 35  2  0
 20  5  1  0
 35 21  1  0
 14  9  1  0
 20 15  1  0
 33 28  1  0
  6 36  1  0
  7 37  1  0
 10 38  1  0
 10 39  1  0
 11 40  1  0
 11 41  1  0
 12 42  1  0
 12 43  1  0
 13 44  1  0
 13 45  1  0
 14 46  1  0
 14 47  1  0
 16 48  1  0
 17 49  1  0
 18 50  1  0
 19 51  1  0
 22 52  1  0
 23 53  1  0
 29 54  1  0
 29 55  1  0
 30 56  1  0
 30 57  1  0
 32 58  1  0
 32 59  1  0
 33 60  1  0
 33 61  1  0
 34 62  1  0
 35 63  1  0
M  CHG  2   4  -1  12   1
M  END
>  <UniqueID>  (28) 
25

>  <SMILES>  (28) 
O=S(=O)([N-]c1ccc(N2CC[NH2+]CC2)c2ccccc12)c1ccc(S(=O)(=O)N2CCOCC2)cc1

>  <Energy>  (28) 
92.73457327545167

>  <Genealogy>  (28) 
O=S(=O)([N-]c1ccc(N2CC[NH2+]CC2)c2ccccc12)c1ccc(S(=O)(=O)N2CCOCC2)cc1 (protonated)
O=S(=O)([N-]c1ccc(N2CC[NH2+]CC2)c2ccccc12)c1ccc(S(=O)(=O)N2CCOCC2)cc1 (3D coordinates assigned)
O=S(=O)([N-]c1ccc(N2CC[NH2+]CC2)c2ccccc12)c1ccc(S(=O)(=O)N2CCOCC2)cc1 (nonaromatic ring conformer: 92.73457327545167 kcal/mol)

>  <smiles>  (28) 
O=S(=O)(Nc1ccc(N2CCNCC2)c2ccccc12)c1ccc(S(=O)(=O)N2CCOCC2)cc1

>  <score_type>  (28) 
oracle

>  <origin>  (28) 
adgpu

>  <m_score__min__energy>  (28) 
-13.449999999999999

>  <m_primary>  (28) 
energy

$$$$
28:0
     RDKit          3D

 62 65  0  0  1  0  0  0  0  0999 V2000
   -0.5780   26.0920  -26.7890 C   0  0  0  0  0  0  0  0  0  0  0  0
   -1.2770   25.2860  -27.8110 C   0  0  0  0  0  0  0  0  0  0  0  0
   -1.7150   23.9710  -27.7390 C   0  0  0  0  0  0  0  0  0  0  0  0
   -2.3180   23.6630  -28.9550 C   0  0  0  0  0  0  0  0  0  0  0  0
   -2.8300   22.5190  -29.2210 N   0  0  0  0  0  0  0  0  0  0  0  0
   -3.5430   22.2800  -30.7670 S   0  0  0  0  0  0  0  0  0  0  0  0
   -4.1790   23.5450  -31.2160 O   0  0  0  0  0  0  0  0  0  0  0  0
   -4.6450   21.2580  -30.6170 O   0  0  0  0  0  0  0  0  0  0  0  0
   -2.4010   21.6290  -31.9370 C   0  0  0  0  0  0  0  0  0  0  0  0
   -1.0500   21.5400  -31.6850 C   0  0  0  0  0  0  0  0  0  0  0  0
   -0.1490   21.0330  -32.5980 C   0  0  0  0  0  0  0  0  0  0  0  0
   -0.6370   20.5910  -33.8340 C   0  0  0  0  0  0  0  0  0  0  0  0
    0.3410   20.0860  -34.7330 N   0  0  0  0  0  0  0  0  0  0  0  0
    0.1820   18.9390  -35.2680 C   0  0  0  0  0  0  0  0  0  0  0  0
   -0.8730   18.1350  -35.0460 N   0  0  0  0  0  0  0  0  0  0  0  0
   -0.9330   16.9440  -35.6670 C   0  0  0  0  0  0  0  0  0  0  0  0
   -1.9500   16.1820  -35.4500 N   0  0  0  0  0  0  0  0  0  0  0  0
   -3.0250   16.5270  -34.5860 C   0  0  0  0  0  0  0  0  0  0  0  0
   -3.4280   15.7110  -33.5470 C   0  0  0  0  0  0  0  0  0  0  0  0
   -4.4810   16.0480  -32.7030 C   0  0  0  0  0  0  0  0  0  0  0  0
   -5.1490   17.2370  -32.9080 C   0  0  0  0  0  0  0  0  0  0  0  0
   -6.4910   17.7570  -31.9070 S   0  0  0  0  0  0  0  0  0  0  0  0
   -7.7770   17.3720  -32.5900 O   0  0  0  0  0  0  0  0  0  0  0  0
   -6.4830   17.1260  -30.5520 O   0  0  0  0  0  0  0  0  0  0  0  0
   -6.4550   19.4740  -31.7040 N   0  0  0  0  0  0  0  0  0  0  0  0
   -7.1930   20.1800  -32.7190 C   0  0  0  0  0  0  0  0  0  0  0  0
   -8.6580   20.0890  -32.3440 C   0  0  0  0  0  0  0  0  0  0  0  0
   -6.8360   21.6720  -32.7210 C   0  0  0  0  0  0  0  0  0  0  0  0
   -4.7760   18.0810  -33.9340 C   0  0  0  0  0  0  0  0  0  0  0  0
   -3.7280   17.7240  -34.7580 C   0  0  0  0  0  0  0  0  0  0  0  0
    0.0010   16.4880  -36.5100 N   0  0  0  0  0  0  0  0  0  0  0  0
    1.0670   17.2720  -36.7500 C   0  0  0  0  0  0  0  0  0  0  0  0
    1.1680   18.5020  -36.1340 C   0  0  0  0  0  0  0  0  0  0  0  0
    2.5750   19.5040  -36.4680 Cl  0  0  0  0  0  0  0  0  0  0  0  0
   -1.9820   20.6630  -34.1260 C   0  0  0  0  0  0  0  0  0  0  0  0
   -2.8350   21.1800  -33.1710 C   0  0  0  0  0  0  0  0  0  0  0  0
   -2.2140   24.7850  -29.6800 N   0  0  0  0  0  0  0  0  0  0  0  0
   -1.6040   25.7180  -28.9910 O   0  0  0  0  0  0  0  0  0  0  0  0
   -0.8746   25.7500  -25.7864 H   0  0  0  0  0  0  0  0  0  0  0  0
    0.5090   25.9746  -26.9098 H   0  0  0  0  0  0  0  0  0  0  0  0
   -0.8480   27.1515  -26.9098 H   0  0  0  0  0  0  0  0  0  0  0  0
   -1.6055   23.2954  -26.8779 H   0  0  0  0  0  0  0  0  0  0  0  0
   -0.6727   21.8888  -30.7124 H   0  0  0  0  0  0  0  0  0  0  0  0
    0.9239   20.9773  -32.3617 H   0  0  0  0  0  0  0  0  0  0  0  0
   -1.6160   18.4620  -34.3930 H   0  0  0  0  0  0  0  0  0  0  0  0
   -2.8978   14.7616  -33.3812 H   0  0  0  0  0  0  0  0  0  0  0  0
   -4.7766   15.3759  -31.8839 H   0  0  0  0  0  0  0  0  0  0  0  0
   -5.4820   19.8290  -31.7020 H   0  0  0  0  0  0  0  0  0  0  0  0
   -6.9637   19.7435  -33.7023 H   0  0  0  0  0  0  0  0  0  0  0  0
   -8.7564   20.0829  -31.2484 H   0  0  0  0  0  0  0  0  0  0  0  0
   -9.1964   20.9554  -32.7556 H   0  0  0  0  0  0  0  0  0  0  0  0
   -9.0850   19.1626  -32.7556 H   0  0  0  0  0  0  0  0  0  0  0  0
   -6.7504   22.0299  -31.6844 H   0  0  0  0  0  0  0  0  0  0  0  0
   -5.8773   21.8189  -33.2400 H   0  0  0  0  0  0  0  0  0  0  0  0
   -7.6243   22.2370  -33.2400 H   0  0  0  0  0  0  0  0  0  0  0  0
   -5.3092   19.0298  -34.0937 H   0  0  0  0  0  0  0  0  0  0  0  0
   -3.4368   18.4011  -35.5745 H   0  0  0  0  0  0  0  0  0  0  0  0
   -0.1080   15.5470  -36.9610 H   0  0  0  0  0  0  0  0  0  0  0  0
    1.8569   16.9330  -37.4363 H   0  0  0  0  0  0  0  0  0  0  0  0
   -2.3668   20.3169  -35.0966 H   0  0  0  0  0  0  0  0  0  0  0  0
   -3.9089   21.2373  -33.4024 H   0  0  0  0  0  0  0  0  0  0  0  0
   -2.5680   24.9000  -30.6520 H   0  0  0  0  0  0  0  0  0  0  0  0
  1  2  1  0
  2  3  2  0
  3  4  1  0
  4  5  2  0
  5  6  1  0
  6  7  2  0
  6  8  2  0
  6  9  1  0
  9 10  2  0
 10 11  1  0
 11 12  2  0
 12 13  1  0
 13 14  2  0
 14 15  1  0
 15 16  1  0
 16 17  2  0
 17 18  1  0
 18 19  2  0
 19 20  1  0
 20 21  2  0
 21 22  1  0
 22 23  2  0
 22 24  2  0
 22 25  1  0
 25 26  1  0
 26 27  1  0
 26 28  1  0
 21 29  1  0
 29 30  2  0
 16 31  1  0
 31 32  1  0
 32 33  2  0
 33 34  1  0
 12 35  1  0
 35 36  2  0
  4 37  1  0
 37 38  1  0
 38  2  1  0
 36  9  1  0
 33 14  1  0
 30 18  1  0
  1 39  1  0
  1 40  1  0
  1 41  1  0
  3 42  1  0
 10 43  1  0
 11 44  1  0
 15 45  1  0
 19 46  1  0
 20 47  1  0
 25 48  1  0
 26 49  1  0
 27 50  1  0
 27 51  1  0
 27 52  1  0
 28 53  1  0
 28 54  1  0
 28 55  1  0
 29 56  1  0
 30 57  1  0
 31 58  1  0
 32 59  1  0
 35 60  1  0
 36 61  1  0
 37 62  1  0
M  END
>  <smiles>  (29) 
Cc1cc(=NS(=O)(=O)c2ccc(N=c3[nH]c(=Nc4ccc(S(=O)(=O)NC(C)C)cc4)[nH]cc3Cl)cc2)[nH]o1

>  <score_type>  (29) 
oracle

>  <origin>  (29) 
adgpu

>  <m_score__min__energy>  (29) 
-12.130000000000001

>  <m_primary>  (29) 
energy

$$$$
29:0
     RDKit          3D

 41 43  0  0  0  0  0  0  0  0999 V2000
   -5.7140   26.2620  -30.9650 O   0  0  0  0  0  0  0  0  0  0  0  0
   -5.0560   25.1950  -30.8480 C   0  0  0  0  0  0  0  0  0  0  0  0
   -3.6830   25.2720  -30.4370 N   0  0  0  0  0  0  0  0  0  0  0  0
   -3.0760   24.5190  -29.3750 C   0  0  0  0  0  0  0  0  0  0  0  0
   -3.6680   23.3430  -28.8750 C   0  0  0  0  0  0  0  0  0  0  0  0
   -3.0560   22.6310  -27.8410 C   0  0  0  0  0  0  0  0  0  0  0  0
   -1.8410   23.0720  -27.3100 C   0  0  0  0  0  0  0  0  0  0  0  0
   -1.2330   24.2220  -27.8200 C   0  0  0  0  0  0  0  0  0  0  0  0
   -1.8450   24.9430  -28.8520 C   0  0  0  0  0  0  0  0  0  0  0  0
   -1.2280   26.0850  -29.3520 O   0  0  0  0  0  0  0  0  0  0  0  0
   -5.7230   23.8990  -31.1000 C   0  0  0  0  0  0  0  0  0  0  0  0
   -6.8970   23.5620  -30.4100 C   0  0  0  0  0  0  0  0  0  0  0  0
   -7.5710   22.3720  -30.7020 C   0  0  0  0  0  0  0  0  0  0  0  0
   -7.0730   21.5000  -31.6800 C   0  0  0  0  0  0  0  0  0  0  0  0
   -7.9780   20.0520  -32.1270 S   0  0  0  0  0  0  0  0  0  0  0  0
   -9.0610   20.4220  -33.1030 O   0  0  0  0  0  0  0  0  0  0  0  0
   -8.6320   19.4780  -30.9010 O   0  0  0  0  0  0  0  0  0  0  0  0
   -6.9330   18.8450  -32.8440 N   0  0  0  0  0  0  0  0  0  0  0  0
   -6.3960   19.3280  -34.1310 C   0  0  0  0  0  0  0  0  0  0  0  0
   -5.1150   18.5660  -34.5050 C   0  0  0  0  0  0  0  0  0  0  0  0
   -4.0610   18.7080  -33.5590 O   0  0  0  0  0  0  0  0  0  0  0  0
   -4.5070   19.0230  -32.2470 C   0  0  0  0  0  0  0  0  0  0  0  0
   -5.8770   18.4080  -31.9040 C   0  0  0  0  0  0  0  0  0  0  0  0
   -5.8710   21.8070  -32.3300 C   0  0  0  0  0  0  0  0  0  0  0  0
   -5.2010   22.9980  -32.0440 C   0  0  0  0  0  0  0  0  0  0  0  0
   -4.6165   22.9837  -29.3007 H   0  0  0  0  0  0  0  0  0  0  0  0
   -3.5311   21.7218  -27.4440 H   0  0  0  0  0  0  0  0  0  0  0  0
   -1.3635   22.5141  -26.4910 H   0  0  0  0  0  0  0  0  0  0  0  0
   -0.2707   24.5617  -27.4094 H   0  0  0  0  0  0  0  0  0  0  0  0
   -7.2894   24.2372  -29.6353 H   0  0  0  0  0  0  0  0  0  0  0  0
   -8.4955   22.1193  -30.1621 H   0  0  0  0  0  0  0  0  0  0  0  0
   -7.1499   19.1748  -34.9172 H   0  0  0  0  0  0  0  0  0  0  0  0
   -6.1564   20.3973  -34.0354 H   0  0  0  0  0  0  0  0  0  0  0  0
   -5.3608   17.4973  -34.5915 H   0  0  0  0  0  0  0  0  0  0  0  0
   -4.7538   18.9949  -35.4513 H   0  0  0  0  0  0  0  0  0  0  0  0
   -3.7655   18.6470  -31.5267 H   0  0  0  0  0  0  0  0  0  0  0  0
   -4.6189   20.1161  -32.1951 H   0  0  0  0  0  0  0  0  0  0  0  0
   -5.7948   17.3119  -31.9471 H   0  0  0  0  0  0  0  0  0  0  0  0
   -6.1584   18.7471  -30.8961 H   0  0  0  0  0  0  0  0  0  0  0  0
   -5.4533   21.1071  -33.0687 H   0  0  0  0  0  0  0  0  0  0  0  0
   -4.2587   23.2327  -32.5607 H   0  0  0  0  0  0  0  0  0  0  0  0
  1  2  2  0
  2  3  1  0
  3  4  1  0
  4  5  2  0
  5  6  1  0
  6  7  2  0
  7  8  1  0
  8  9  2  0
  9 10  1  0
  2 11  1  0
 11 12  2  0
 12 13  1  0
 13 14  2  0
 14 15  1  0
 15 16  2  0
 15 17  2  0
 15 18  1  0
 18 19  1  0
 19 20  1  0
 20 21  1  0
 21 22  1  0
 22 23  1  0
 14 24  1  0
 24 25  2  0
  9  4  1  0
 25 11  1  0
 23 18  1  0
  5 26  1  0
  6 27  1  0
  7 28  1  0
  8 29  1  0
 12 30  1  0
 13 31  1  0
 19 32  1  0
 19 33  1  0
 20 34  1  0
 20 35  1  0
 22 36  1  0
 22 37  1  0
 23 38  1  0
 23 39  1  0
 24 40  1  0
 25 41  1  0
M  CHG  2   3  -1  10  -1
M  END
>  <UniqueID>  (30) 
26

>  <SMILES>  (30) 
O=C([N-]c1ccccc1[O-])c1ccc(S(=O)(=O)N2CCOCC2)cc1

>  <Energy>  (30) 
60.537708181005335

>  <Genealogy>  (30) 
O=C([N-]c1ccccc1[O-])c1ccc(S(=O)(=O)N2CCOCC2)cc1 (protonated)
O=C([N-]c1ccccc1[O-])c1ccc(S(=O)(=O)N2CCOCC2)cc1 (3D coordinates assigned)
O=C([N-]c1ccccc1[O-])c1ccc(S(=O)(=O)N2CCOCC2)cc1 (nonaromatic ring conformer: 60.537708181005335 kcal/mol)

>  <smiles>  (30) 
O=C(Nc1ccccc1O)c1ccc(S(=O)(=O)N2CCOCC2)cc1

>  <score_type>  (30) 
oracle

>  <origin>  (30) 
adgpu

>  <m_score__min__energy>  (30) 
-14.619999999999999

>  <m_primary>  (30) 
energy

$$$$
30:0
     RDKit          3D

 46 48  0  0  0  0  0  0  0  0999 V2000
   -6.0140   26.1270  -30.0310 O   0  0  0  0  0  0  0  0  0  0  0  0
   -5.1010   24.9340  -30.0340 S   0  0  0  0  0  0  0  0  0  0  0  0
   -3.8750   25.2720  -30.8350 O   0  0  0  0  0  0  0  0  0  0  0  0
   -4.6360   24.5470  -28.4050 N   0  0  0  0  0  0  0  0  0  0  0  0
   -3.1760   24.4490  -28.3190 C   0  0  0  0  0  0  0  0  0  0  0  0
   -2.7250   23.1060  -28.8230 C   0  0  0  0  0  0  0  0  0  0  0  0
   -3.0600   21.9360  -28.1200 C   0  0  0  0  0  0  0  0  0  0  0  0
   -2.6680   20.6860  -28.6070 C   0  0  0  0  0  0  0  0  0  0  0  0
   -1.9490   20.5940  -29.8020 C   0  0  0  0  0  0  0  0  0  0  0  0
   -1.6250   21.7520  -30.5150 C   0  0  0  0  0  0  0  0  0  0  0  0
   -2.0150   23.0050  -30.0300 C   0  0  0  0  0  0  0  0  0  0  0  0
   -5.9060   23.5500  -30.7680 C   0  0  0  0  0  0  0  0  0  0  0  0
   -5.2660   22.3040  -30.7830 C   0  0  0  0  0  0  0  0  0  0  0  0
   -5.9340   21.1760  -31.2630 C   0  0  0  0  0  0  0  0  0  0  0  0
   -7.2550   21.2820  -31.7230 C   0  0  0  0  0  0  0  0  0  0  0  0
   -8.1360   19.8390  -32.2220 S   0  0  0  0  0  0  0  0  0  0  0  0
   -9.4770   20.2510  -32.7610 O   0  0  0  0  0  0  0  0  0  0  0  0
   -8.3740   18.9640  -31.0220 O   0  0  0  0  0  0  0  0  0  0  0  0
   -7.2770   18.9260  -33.4460 N   0  0  0  0  0  0  0  0  0  0  0  0
   -6.0560   19.6110  -33.9220 C   0  0  0  0  0  0  0  0  0  0  0  0
   -4.7670   19.0340  -33.3140 C   0  0  0  0  0  0  0  0  0  0  0  0
   -5.0190   18.5070  -32.0340 O   0  0  0  0  0  0  0  0  0  0  0  0
   -5.8050   17.3380  -32.1480 C   0  0  0  0  0  0  0  0  0  0  0  0
   -7.0490   17.5230  -33.0510 C   0  0  0  0  0  0  0  0  0  0  0  0
   -7.8850   22.5340  -31.7360 C   0  0  0  0  0  0  0  0  0  0  0  0
   -7.2150   23.6620  -31.2550 C   0  0  0  0  0  0  0  0  0  0  0  0
   -4.9450   25.3480  -27.8080 H   0  0  0  0  0  0  0  0  0  0  0  0
   -2.7202   25.2408  -28.9316 H   0  0  0  0  0  0  0  0  0  0  0  0
   -2.8653   24.5664  -27.2703 H   0  0  0  0  0  0  0  0  0  0  0  0
   -3.6327   22.0043  -27.1833 H   0  0  0  0  0  0  0  0  0  0  0  0
   -2.9256   19.7736  -28.0492 H   0  0  0  0  0  0  0  0  0  0  0  0
   -1.6378   19.6096  -30.1818 H   0  0  0  0  0  0  0  0  0  0  0  0
   -1.0632   21.6780  -31.4578 H   0  0  0  0  0  0  0  0  0  0  0  0
   -1.7645   23.9142  -30.5963 H   0  0  0  0  0  0  0  0  0  0  0  0
   -4.2332   22.2140  -30.4152 H   0  0  0  0  0  0  0  0  0  0  0  0
   -5.4233   20.2019  -31.2805 H   0  0  0  0  0  0  0  0  0  0  0  0
   -6.0024   19.5116  -35.0162 H   0  0  0  0  0  0  0  0  0  0  0  0
   -6.1255   20.6629  -33.6079 H   0  0  0  0  0  0  0  0  0  0  0  0
   -4.3855   18.2344  -33.9660 H   0  0  0  0  0  0  0  0  0  0  0  0
   -4.0230   19.8396  -33.2270 H   0  0  0  0  0  0  0  0  0  0  0  0
   -5.1811   16.5377  -32.5726 H   0  0  0  0  0  0  0  0  0  0  0  0
   -6.1679   17.0894  -31.1398 H   0  0  0  0  0  0  0  0  0  0  0  0
   -6.9126   16.9212  -33.9616 H   0  0  0  0  0  0  0  0  0  0  0  0
   -7.9256   17.2004  -32.4700 H   0  0  0  0  0  0  0  0  0  0  0  0
   -8.9093   22.6288  -32.1258 H   0  0  0  0  0  0  0  0  0  0  0  0
   -7.7168   24.6409  -31.2587 H   0  0  0  0  0  0  0  0  0  0  0  0
  1  2  2  0
  2  3  2  0
  2  4  1  0
  4  5  1  0
  5  6  1  0
  6  7  2  0
  7  8  1  0
  8  9  2  0
  9 10  1  0
 10 11  2  0
  2 12  1  0
 12 13  2  0
 13 14  1  0
 14 15  2  0
 15 16  1  0
 16 17  2  0
 16 18  2  0
 16 19  1  0
 19 20  1  0
 20 21  1  0
 21 22  1  0
 22 23  1  0
 23 24  1  0
 15 25  1  0
 25 26  2  0
 11  6  1  0
 26 12  1  0
 24 19  1  0
  4 27  1  0
  5 28  1  0
  5 29  1  0
  7 30  1  0
  8 31  1  0
  9 32  1  0
 10 33  1  0
 11 34  1  0
 13 35  1  0
 14 36  1  0
 20 37  1  0
 20 38  1  0
 21 39  1  0
 21 40  1  0
 23 41  1  0
 23 42  1  0
 24 43  1  0
 24 44  1  0
 25 45  1  0
 26 46  1  0
M  END
>  <UniqueID>  (31) 
27

>  <SMILES>  (31) 
O=S(=O)(NCc1ccccc1)c1ccc(S(=O)(=O)N2CCOCC2)cc1

>  <Energy>  (31) 
53.98227379855538

>  <Genealogy>  (31) 
O=S(=O)(NCc1ccccc1)c1ccc(S(=O)(=O)N2CCOCC2)cc1 (3D coordinates assigned)
O=S(=O)(NCc1ccccc1)c1ccc(S(=O)(=O)N2CCOCC2)cc1 (nonaromatic ring conformer: 53.98227379855538 kcal/mol)

>  <smiles>  (31) 
O=S(=O)(NCc1ccccc1)c1ccc(S(=O)(=O)N2CCOCC2)cc1

>  <score_type>  (31) 
oracle

>  <origin>  (31) 
adgpu

>  <m_score__min__energy>  (31) 
-10.33

>  <m_primary>  (31) 
energy

$$$$
31:0
     RDKit          3D

 55 58  0  0  0  0  0  0  0  0999 V2000
   -9.1330   22.7190  -31.9610 C   0  0  0  0  0  0  0  0  0  0  0  0
   -7.7510   22.1480  -32.0430 C   0  0  0  0  0  0  0  0  0  0  0  0
   -6.6550   22.9060  -31.6450 C   0  0  0  0  0  0  0  0  0  0  0  0
   -5.3820   22.3460  -31.7090 C   0  0  0  0  0  0  0  0  0  0  0  0
   -4.2240   23.0600  -31.2650 N   0  0  0  0  0  0  0  0  0  0  0  0
   -4.2340   24.3670  -30.1130 S   0  0  0  0  0  0  0  0  0  0  0  0
   -5.6030   24.4800  -29.4910 O   0  0  0  0  0  0  0  0  0  0  0  0
   -3.9280   25.6500  -30.8450 O   0  0  0  0  0  0  0  0  0  0  0  0
   -3.0090   24.1510  -28.8670 C   0  0  0  0  0  0  0  0  0  0  0  0
   -1.8100   24.8770  -28.9360 C   0  0  0  0  0  0  0  0  0  0  0  0
   -0.8260   24.7030  -27.9580 C   0  0  0  0  0  0  0  0  0  0  0  0
   -1.0340   23.8020  -26.9010 C   0  0  0  0  0  0  0  0  0  0  0  0
    0.1840   23.6190  -25.6360 S   0  0  0  0  0  0  0  0  0  0  0  0
   -0.1150   22.3700  -24.8460 O   0  0  0  0  0  0  0  0  0  0  0  0
    1.5390   23.4470  -26.2770 O   0  0  0  0  0  0  0  0  0  0  0  0
    0.2220   24.9940  -24.5570 N   0  0  0  0  0  0  0  0  0  0  0  0
    1.4150   25.8290  -24.8100 C   0  0  0  0  0  0  0  0  0  0  0  0
    1.3180   27.1760  -24.0680 C   0  0  0  0  0  0  0  0  0  0  0  0
    0.2920   27.1480  -23.0920 O   0  0  0  0  0  0  0  0  0  0  0  0
   -0.9710   27.0000  -23.7210 C   0  0  0  0  0  0  0  0  0  0  0  0
   -1.0080   25.7970  -24.6950 C   0  0  0  0  0  0  0  0  0  0  0  0
   -2.2320   23.0760  -26.8350 C   0  0  0  0  0  0  0  0  0  0  0  0
   -3.2150   23.2510  -27.8130 C   0  0  0  0  0  0  0  0  0  0  0  0
   -5.2340   21.0650  -32.2500 C   0  0  0  0  0  0  0  0  0  0  0  0
   -4.0800   20.5840  -32.3910 O   0  0  0  0  0  0  0  0  0  0  0  0
   -6.3400   20.3530  -32.6290 N   0  0  0  0  0  0  0  0  0  0  0  0
   -6.2330   19.0200  -33.1590 C   0  0  0  0  0  0  0  0  0  0  0  0
   -5.7490   18.8000  -34.4640 C   0  0  0  0  0  0  0  0  0  0  0  0
   -5.6600   17.5010  -34.9730 C   0  0  0  0  0  0  0  0  0  0  0  0
   -6.0290   16.4110  -34.1800 C   0  0  0  0  0  0  0  0  0  0  0  0
   -6.4830   16.6180  -32.8730 C   0  0  0  0  0  0  0  0  0  0  0  0
   -6.5840   17.9160  -32.3610 C   0  0  0  0  0  0  0  0  0  0  0  0
   -7.5550   20.8930  -32.5250 N   0  0  0  0  0  0  0  0  0  0  0  0
   -9.4189   22.8371  -30.9054 H   0  0  0  0  0  0  0  0  0  0  0  0
   -9.1547   23.6997  -32.4587 H   0  0  0  0  0  0  0  0  0  0  0  0
   -9.8406   22.0396  -32.4587 H   0  0  0  0  0  0  0  0  0  0  0  0
   -6.7923   23.9359  -31.2839 H   0  0  0  0  0  0  0  0  0  0  0  0
   -1.6439   25.5847  -29.7616 H   0  0  0  0  0  0  0  0  0  0  0  0
    0.1130   25.2730  -28.0166 H   0  0  0  0  0  0  0  0  0  0  0  0
    0.2740   24.6120  -23.5770 H   0  0  0  0  0  0  0  0  0  0  0  0
    2.3097   25.2914  -24.4629 H   0  0  0  0  0  0  0  0  0  0  0  0
    1.4783   26.0291  -25.8898 H   0  0  0  0  0  0  0  0  0  0  0  0
    2.2785   27.3838  -23.5737 H   0  0  0  0  0  0  0  0  0  0  0  0
    1.0820   27.9620  -24.8004 H   0  0  0  0  0  0  0  0  0  0  0  0
   -1.7365   26.8502  -22.9454 H   0  0  0  0  0  0  0  0  0  0  0  0
   -1.1630   27.9114  -24.3062 H   0  0  0  0  0  0  0  0  0  0  0  0
   -1.8806   25.1684  -24.4636 H   0  0  0  0  0  0  0  0  0  0  0  0
   -1.0792   26.1716  -25.7268 H   0  0  0  0  0  0  0  0  0  0  0  0
   -2.3985   22.3666  -26.0110 H   0  0  0  0  0  0  0  0  0  0  0  0
   -4.1536   22.6803  -27.7551 H   0  0  0  0  0  0  0  0  0  0  0  0
   -5.4399   19.6539  -35.0848 H   0  0  0  0  0  0  0  0  0  0  0  0
   -5.2991   17.3366  -35.9990 H   0  0  0  0  0  0  0  0  0  0  0  0
   -5.9624   15.3899  -34.5836 H   0  0  0  0  0  0  0  0  0  0  0  0
   -6.7613   15.7579  -32.2463 H   0  0  0  0  0  0  0  0  0  0  0  0
   -6.9388   18.0737  -31.3318 H   0  0  0  0  0  0  0  0  0  0  0  0
  1  2  1  0
  2  3  1  0
  3  4  2  0
  4  5  1  0
  5  6  1  0
  6  7  2  0
  6  8  2  0
  6  9  1  0
  9 10  2  0
 10 11  1  0
 11 12  2  0
 12 13  1  0
 13 14  2  0
 13 15  2  0
 13 16  1  0
 16 17  1  0
 17 18  1  0
 18 19  1  0
 19 20  1  0
 20 21  1  0
 12 22  1  0
 22 23  2  0
  4 24  1  0
 24 25  2  0
 24 26  1  0
 26 27  1  0
 27 28  2  0
 28 29  1  0
 29 30  2  0
 30 31  1  0
 31 32  2  0
 26 33  1  0
 33  2  2  0
 23  9  1  0
 32 27  1  0
 21 16  1  0
  1 34  1  0
  1 35  1  0
  1 36  1  0
  3 37  1  0
 10 38  1  0
 11 39  1  0
 16 40  1  0
 17 41  1  0
 17 42  1  0
 18 43  1  0
 18 44  1  0
 20 45  1  0
 20 46  1  0
 21 47  1  0
 21 48  1  0
 22 49  1  0
 23 50  1  0
 28 51  1  0
 29 52  1  0
 30 53  1  0
 31 54  1  0
 32 55  1  0
M  CHG  2   5  -1  16   1
M  END
>  <UniqueID>  (32) 
28

>  <SMILES>  (32) 
Cc1cc([N-]S(=O)(=O)c2ccc(S(=O)(=O)[NH+]3CCOCC3)cc2)c(=O)n(-c2ccccc2)n1

>  <Energy>  (32) 
77.19251854863155

>  <Genealogy>  (32) 
Cc1cc([N-]S(=O)(=O)c2ccc(S(=O)(=O)[NH+]3CCOCC3)cc2)c(=O)n(-c2ccccc2)n1 (protonated)
Cc1cc([N-]S(=O)(=O)c2ccc(S(=O)(=O)[NH+]3CCOCC3)cc2)c(=O)n(-c2ccccc2)n1 (3D coordinates assigned)
Cc1cc([N-]S(=O)(=O)c2ccc(S(=O)(=O)[NH+]3CCOCC3)cc2)c(=O)n(-c2ccccc2)n1 (nonaromatic ring conformer: 77.19251854863155 kcal/mol)

>  <smiles>  (32) 
Cc1cc(NS(=O)(=O)c2ccc(S(=O)(=O)N3CCOCC3)cc2)c(=O)n(-c2ccccc2)n1

>  <score_type>  (32) 
oracle

>  <origin>  (32) 
adgpu

>  <m_score__min__energy>  (32) 
-11.85

>  <m_primary>  (32) 
energy

$$$$
32:0
     RDKit          3D

 58 61  0  0  0  0  0  0  0  0999 V2000
    0.4140   18.4690  -30.7410 C   0  0  0  0  0  0  0  0  0  0  0  0
   -0.3160   19.7070  -30.2900 C   0  0  0  0  0  0  0  0  0  0  0  0
   -0.5700   19.8800  -28.9200 C   0  0  0  0  0  0  0  0  0  0  0  0
   -1.2220   21.0210  -28.4540 C   0  0  0  0  0  0  0  0  0  0  0  0
   -1.6300   22.0130  -29.3490 C   0  0  0  0  0  0  0  0  0  0  0  0
   -2.4740   23.4490  -28.7640 S   0  0  0  0  0  0  0  0  0  0  0  0
   -2.0710   24.6240  -29.6090 O   0  0  0  0  0  0  0  0  0  0  0  0
   -2.0440   23.7330  -27.3510 O   0  0  0  0  0  0  0  0  0  0  0  0
   -4.2170   23.2730  -28.8150 N   0  0  0  0  0  0  0  0  0  0  0  0
   -4.9300   24.5260  -28.4890 C   0  0  0  0  0  0  0  0  0  0  0  0
   -5.4710   25.2500  -29.7330 C   0  0  0  0  0  0  0  0  0  0  0  0
   -4.6560   24.9850  -30.8500 O   0  0  0  0  0  0  0  0  0  0  0  0
   -4.8040   23.6330  -31.2400 C   0  0  0  0  0  0  0  0  0  0  0  0
   -4.6850   22.6390  -30.0610 C   0  0  0  0  0  0  0  0  0  0  0  0
   -1.3640   21.8650  -30.7150 C   0  0  0  0  0  0  0  0  0  0  0  0
   -0.7050   20.7230  -31.1980 C   0  0  0  0  0  0  0  0  0  0  0  0
   -0.3680   20.6080  -32.9340 S   0  0  0  0  0  0  0  0  0  0  0  0
    0.7640   21.5360  -33.2740 O   0  0  0  0  0  0  0  0  0  0  0  0
    0.0360   19.2090  -33.3120 O   0  0  0  0  0  0  0  0  0  0  0  0
   -1.7740   21.0490  -33.8500 N   0  0  0  0  0  0  0  0  0  0  0  0
   -3.1070   20.6230  -33.5160 C   0  0  0  0  0  0  0  0  0  0  0  0
   -4.1150   21.5840  -33.3630 C   0  0  0  0  0  0  0  0  0  0  0  0
   -5.4160   21.2050  -33.0240 C   0  0  0  0  0  0  0  0  0  0  0  0
   -5.7420   19.8480  -32.8330 C   0  0  0  0  0  0  0  0  0  0  0  0
   -7.0880   19.4530  -32.4750 N   0  0  0  0  0  0  0  0  0  0  0  0
   -8.2870   20.1240  -32.9560 C   0  0  0  0  0  0  0  0  0  0  0  0
   -9.4490   19.4960  -32.1980 C   0  0  0  0  0  0  0  0  0  0  0  0
   -8.9140   18.1850  -31.6350 C   0  0  0  0  0  0  0  0  0  0  0  0
   -7.4010   18.3420  -31.5890 C   0  0  0  0  0  0  0  0  0  0  0  0
   -4.7290   18.8850  -32.9990 C   0  0  0  0  0  0  0  0  0  0  0  0
   -3.4290   19.2660  -33.3400 C   0  0  0  0  0  0  0  0  0  0  0  0
    0.7494   17.9002  -29.8613 H   0  0  0  0  0  0  0  0  0  0  0  0
   -0.2608   17.8452  -31.3455 H   0  0  0  0  0  0  0  0  0  0  0  0
    1.2865   18.7576  -31.3455 H   0  0  0  0  0  0  0  0  0  0  0  0
   -0.2509   19.1064  -28.2060 H   0  0  0  0  0  0  0  0  0  0  0  0
   -1.4158   21.1405  -27.3778 H   0  0  0  0  0  0  0  0  0  0  0  0
   -5.7755   24.2863  -27.8274 H   0  0  0  0  0  0  0  0  0  0  0  0
   -4.2077   25.1993  -28.0043 H   0  0  0  0  0  0  0  0  0  0  0  0
   -6.4933   24.9004  -29.9395 H   0  0  0  0  0  0  0  0  0  0  0  0
   -5.4725   26.3333  -29.5421 H   0  0  0  0  0  0  0  0  0  0  0  0
   -5.7946   23.5095  -31.7020 H   0  0  0  0  0  0  0  0  0  0  0  0
   -3.9878   23.4053  -31.9414 H   0  0  0  0  0  0  0  0  0  0  0  0
   -5.6740   22.1938  -29.8772 H   0  0  0  0  0  0  0  0  0  0  0  0
   -3.9388   21.8821  -30.3442 H   0  0  0  0  0  0  0  0  0  0  0  0
   -1.6746   22.6519  -31.4180 H   0  0  0  0  0  0  0  0  0  0  0  0
   -1.6430   21.7590  -34.6060 H   0  0  0  0  0  0  0  0  0  0  0  0
   -3.8794   22.6482  -33.5114 H   0  0  0  0  0  0  0  0  0  0  0  0
   -6.1936   21.9738  -32.9050 H   0  0  0  0  0  0  0  0  0  0  0  0
   -8.2319   21.2025  -32.7468 H   0  0  0  0  0  0  0  0  0  0  0  0
   -8.4052   20.0095  -34.0436 H   0  0  0  0  0  0  0  0  0  0  0  0
   -9.7775   20.1577  -31.3830 H   0  0  0  0  0  0  0  0  0  0  0  0
  -10.3186   19.3323  -32.8514 H   0  0  0  0  0  0  0  0  0  0  0  0
   -9.3122   18.0109  -30.6245 H   0  0  0  0  0  0  0  0  0  0  0  0
   -9.2139   17.3259  -32.2531 H   0  0  0  0  0  0  0  0  0  0  0  0
   -7.0705   18.5654  -30.5639 H   0  0  0  0  0  0  0  0  0  0  0  0
   -6.8897   17.4197  -31.9018 H   0  0  0  0  0  0  0  0  0  0  0  0
   -4.9638   17.8196  -32.8585 H   0  0  0  0  0  0  0  0  0  0  0  0
   -2.6518   18.4988  -33.4717 H   0  0  0  0  0  0  0  0  0  0  0  0
  1  2  1  0
  2  3  2  0
  3  4  1  0
  4  5  2  0
  5  6  1  0
  6  7  2  0
  6  8  2  0
  6  9  1  0
  9 10  1  0
 10 11  1  0
 11 12  1  0
 12 13  1  0
 13 14  1  0
  5 15  1  0
 15 16  2  0
 16 17  1  0
 17 18  2  0
 17 19  2  0
 17 20  1  0
 20 21  1  0
 21 22  2  0
 22 23  1  0
 23 24  2  0
 24 25  1  0
 25 26  1  0
 26 27  1  0
 27 28  1  0
 28 29  1  0
 24 30  1  0
 30 31  2  0
 16  2  1  0
 31 21  1  0
 14  9  1  0
 29 25  1  0
  1 32  1  0
  1 33  1  0
  1 34  1  0
  3 35  1  0
  4 36  1  0
 10 37  1  0
 10 38  1  0
 11 39  1  0
 11 40  1  0
 13 41  1  0
 13 42  1  0
 14 43  1  0
 14 44  1  0
 15 45  1  0
 20 46  1  0
 22 47  1  0
 23 48  1  0
 26 49  1  0
 26 50  1  0
 27 51  1  0
 27 52  1  0
 28 53  1  0
 28 54  1  0
 29 55  1  0
 29 56  1  0
 30 57  1  0
 31 58  1  0
M  END
>  <UniqueID>  (33) 
29

>  <SMILES>  (33) 
Cc1ccc(S(=O)(=O)N2CCOCC2)cc1S(=O)(=O)Nc1ccc(N2CCCC2)cc1

>  <Energy>  (33) 
74.64292228055523

>  <Genealogy>  (33) 
Cc1ccc(S(=O)(=O)N2CCOCC2)cc1S(=O)(=O)Nc1ccc(N2CCCC2)cc1 (3D coordinates assigned)
Cc1ccc(S(=O)(=O)N2CCOCC2)cc1S(=O)(=O)Nc1ccc(N2CCCC2)cc1 (nonaromatic ring conformer: 74.64292228055523 kcal/mol)

>  <smiles>  (33) 
Cc1ccc(S(=O)(=O)N2CCOCC2)cc1S(=O)(=O)Nc1ccc(N2CCCC2)cc1

>  <score_type>  (33) 
oracle

>  <origin>  (33) 
adgpu

>  <m_score__min__energy>  (33) 
-10.73

>  <m_primary>  (33) 
energy

$$$$
33:0
     RDKit          3D

 59 62  0  0  0  0  0  0  0  0999 V2000
   -2.7000   21.1730  -33.1010 C   0  0  0  0  0  0  0  0  0  0  0  0
   -2.1990   20.1530  -32.2410 O   0  0  0  0  0  0  0  0  0  0  0  0
   -0.8370   19.9140  -32.0030 C   0  0  0  0  0  0  0  0  0  0  0  0
    0.1090   19.8630  -33.0480 C   0  0  0  0  0  0  0  0  0  0  0  0
    1.4570   19.6210  -32.7690 C   0  0  0  0  0  0  0  0  0  0  0  0
    1.8720   19.4090  -31.4500 C   0  0  0  0  0  0  0  0  0  0  0  0
    0.9410   19.4510  -30.4080 C   0  0  0  0  0  0  0  0  0  0  0  0
   -0.4060   19.7300  -30.6760 C   0  0  0  0  0  0  0  0  0  0  0  0
   -1.3520   19.7330  -29.6040 N   0  0  0  0  0  0  0  0  0  0  0  0
   -2.0430   20.7330  -29.1300 C   0  0  0  0  0  0  0  0  0  0  0  0
   -3.1110   20.5180  -27.8610 S   0  0  0  0  0  0  0  0  0  0  0  0
   -3.5900   22.1220  -27.8270 C   0  0  0  0  0  0  0  0  0  0  0  0
   -2.8940   22.8080  -28.8190 C   0  0  0  0  0  0  0  0  0  0  0  0
   -3.1550   24.2740  -29.0550 C   0  0  0  0  0  0  0  0  0  0  0  0
   -3.8210   24.4820  -30.3780 C   0  0  0  0  0  0  0  0  0  0  0  0
   -4.0120   25.6520  -30.8010 O   0  0  0  0  0  0  0  0  0  0  0  0
   -4.1960   23.3470  -31.1670 N   0  0  0  0  0  0  0  0  0  0  0  0
   -5.5270   22.8990  -31.4600 C   0  0  0  0  0  0  0  0  0  0  0  0
   -6.6400   23.7570  -31.3880 C   0  0  0  0  0  0  0  0  0  0  0  0
   -7.9240   23.2670  -31.6480 C   0  0  0  0  0  0  0  0  0  0  0  0
   -8.1100   21.9160  -31.9540 C   0  0  0  0  0  0  0  0  0  0  0  0
   -7.0130   21.0450  -31.9920 C   0  0  0  0  0  0  0  0  0  0  0  0
   -7.2500   19.3290  -32.3240 S   0  0  0  0  0  0  0  0  0  0  0  0
   -6.6530   18.5210  -31.2070 O   0  0  0  0  0  0  0  0  0  0  0  0
   -8.7240   19.0360  -32.3670 O   0  0  0  0  0  0  0  0  0  0  0  0
   -6.5230   18.8460  -33.8410 N   0  0  0  0  0  0  0  0  0  0  0  0
   -5.1240   19.2840  -33.9310 C   0  0  0  0  0  0  0  0  0  0  0  0
   -4.2360   18.1100  -33.5360 C   0  0  0  0  0  0  0  0  0  0  0  0
   -5.1310   16.8830  -33.5660 C   0  0  0  0  0  0  0  0  0  0  0  0
   -6.5050   17.3840  -33.9960 C   0  0  0  0  0  0  0  0  0  0  0  0
   -5.7250   21.5430  -31.7480 C   0  0  0  0  0  0  0  0  0  0  0  0
   -2.0210   22.0360  -29.5540 N   0  0  0  0  0  0  0  0  0  0  0  0
   -1.2140   22.5510  -30.6630 C   0  0  0  0  0  0  0  0  0  0  0  0
   -3.1048   21.9972  -32.4953 H   0  0  0  0  0  0  0  0  0  0  0  0
   -1.8848   21.5505  -33.7358 H   0  0  0  0  0  0  0  0  0  0  0  0
   -3.4971   20.7586  -33.7358 H   0  0  0  0  0  0  0  0  0  0  0  0
   -0.2159   20.0145  -34.0880 H   0  0  0  0  0  0  0  0  0  0  0  0
    2.1920   19.5972  -33.5871 H   0  0  0  0  0  0  0  0  0  0  0  0
    2.9316   19.2091  -31.2326 H   0  0  0  0  0  0  0  0  0  0  0  0
    1.2668   19.2644  -29.3741 H   0  0  0  0  0  0  0  0  0  0  0  0
   -4.3283   22.5592  -27.1387 H   0  0  0  0  0  0  0  0  0  0  0  0
   -3.8073   24.6584  -28.2571 H   0  0  0  0  0  0  0  0  0  0  0  0
   -2.1949   24.8109  -29.0521 H   0  0  0  0  0  0  0  0  0  0  0  0
   -6.4998   24.8162  -31.1265 H   0  0  0  0  0  0  0  0  0  0  0  0
   -8.7887   23.9459  -31.6116 H   0  0  0  0  0  0  0  0  0  0  0  0
   -9.1202   21.5355  -32.1656 H   0  0  0  0  0  0  0  0  0  0  0  0
   -7.0830   19.2800  -34.6130 H   0  0  0  0  0  0  0  0  0  0  0  0
   -4.8957   19.5945  -34.9613 H   0  0  0  0  0  0  0  0  0  0  0  0
   -4.9475   20.1386  -33.2613 H   0  0  0  0  0  0  0  0  0  0  0  0
   -3.4088   17.9979  -34.2523 H   0  0  0  0  0  0  0  0  0  0  0  0
   -3.7876   18.2589  -32.5426 H   0  0  0  0  0  0  0  0  0  0  0  0
   -4.7481   16.1468  -34.2881 H   0  0  0  0  0  0  0  0  0  0  0  0
   -5.1693   16.3848  -32.5860 H   0  0  0  0  0  0  0  0  0  0  0  0
   -6.6875   17.1176  -35.0475 H   0  0  0  0  0  0  0  0  0  0  0  0
   -7.2906   16.9240  -33.3785 H   0  0  0  0  0  0  0  0  0  0  0  0
   -4.8619   20.8619  -31.7832 H   0  0  0  0  0  0  0  0  0  0  0  0
   -0.3503   23.1022  -30.2629 H   0  0  0  0  0  0  0  0  0  0  0  0
   -0.8597   21.7116  -31.2794 H   0  0  0  0  0  0  0  0  0  0  0  0
   -1.8261   23.2258  -31.2794 H   0  0  0  0  0  0  0  0  0  0  0  0
  1  2  1  0
  2  3  1  0
  3  4  2  0
  4  5  1  0
  5  6  2  0
  6  7  1  0
  7  8  2  0
  8  9  1  0
  9 10  2  3
 10 11  1  0
 11 12  1  0
 12 13  2  0
 13 14  1  0
 14 15  1  0
 15 16  2  0
 15 17  1  0
 17 18  1  0
 18 19  2  0
 19 20  1  0
 20 21  2  0
 21 22  1  0
 22 23  1  0
 23 24  2  0
 23 25  2  0
 23 26  1  0
 26 27  1  0
 27 28  1  0
 28 29  1  0
 29 30  1  0
 22 31  2  0
 13 32  1  0
 32 33  1  0
  8  3  1  0
 32 10  1  0
 31 18  1  0
 30 26  1  0
  1 34  1  0
  1 35  1  0
  1 36  1  0
  4 37  1  0
  5 38  1  0
  6 39  1  0
  7 40  1  0
 12 41  1  0
 14 42  1  0
 14 43  1  0
 19 44  1  0
 20 45  1  0
 21 46  1  0
 26 47  1  0
 27 48  1  0
 27 49  1  0
 28 50  1  0
 28 51  1  0
 29 52  1  0
 29 53  1  0
 30 54  1  0
 30 55  1  0
 31 56  1  0
 33 57  1  0
 33 58  1  0
 33 59  1  0
M  CHG  2  17  -1  26   1
M  END
>  <UniqueID>  (34) 
30

>  <SMILES>  (34) 
COc1ccccc1N=c1scc(CC(=O)[N-]c2cccc(S(=O)(=O)[NH+]3CCCC3)c2)n1C

>  <Energy>  (34) 
108.12570169283956

>  <Genealogy>  (34) 
COc1ccccc1N=c1scc(CC(=O)[N-]c2cccc(S(=O)(=O)[NH+]3CCCC3)c2)n1C (protonated)
COc1ccccc1N=c1scc(CC(=O)[N-]c2cccc(S(=O)(=O)[NH+]3CCCC3)c2)n1C (3D coordinates assigned)
COc1ccccc1N=c1scc(CC(=O)[N-]c2cccc(S(=O)(=O)[NH+]3CCCC3)c2)n1C (nonaromatic ring conformer: 108.12570169283956 kcal/mol)

>  <smiles>  (34) 
COc1ccccc1N=c1scc(CC(=O)Nc2cccc(S(=O)(=O)N3CCCC3)c2)n1C

>  <score_type>  (34) 
oracle

>  <origin>  (34) 
adgpu

>  <m_score__min__energy>  (34) 
-12.279999999999999

>  <m_primary>  (34) 
energy

$$$$
34:0
     RDKit          3D

 51 53  0  0  0  0  0  0  0  0999 V2000
   -0.8660   26.8710  -26.9150 C   0  0  0  0  0  0  0  0  0  0  0  0
   -0.3360   25.6470  -27.5880 C   0  0  0  0  0  0  0  0  0  0  0  0
    0.9730   25.3420  -27.6660 N   0  0  0  0  0  0  0  0  0  0  0  0
    1.0960   24.1710  -28.2720 N   0  0  0  0  0  0  0  0  0  0  0  0
   -0.1340   23.7200  -28.5830 C   0  0  0  0  0  0  0  0  0  0  0  0
   -0.3970   22.4040  -29.2410 C   0  0  0  0  0  0  0  0  0  0  0  0
   -1.0810   24.6380  -28.1690 C   0  0  0  0  0  0  0  0  0  0  0  0
   -2.5760   24.5050  -28.2150 C   0  0  0  0  0  0  0  0  0  0  0  0
   -3.0190   23.8660  -29.5280 C   0  0  0  0  0  0  0  0  0  0  0  0
   -3.5100   24.9030  -30.4320 N   0  0  0  0  0  0  0  0  0  0  0  0
   -5.2460   24.9410  -30.3900 S   0  0  0  0  0  0  0  0  0  0  0  0
   -5.7460   26.0970  -31.2110 O   0  0  0  0  0  0  0  0  0  0  0  0
   -5.7040   25.1270  -28.9710 O   0  0  0  0  0  0  0  0  0  0  0  0
   -5.8970   23.4240  -31.0070 C   0  0  0  0  0  0  0  0  0  0  0  0
   -5.1420   22.2440  -30.9470 C   0  0  0  0  0  0  0  0  0  0  0  0
   -5.6800   21.0410  -31.4120 C   0  0  0  0  0  0  0  0  0  0  0  0
   -6.9780   21.0050  -31.9420 C   0  0  0  0  0  0  0  0  0  0  0  0
   -7.6530   19.4880  -32.5440 S   0  0  0  0  0  0  0  0  0  0  0  0
   -9.0490   19.7350  -33.0430 O   0  0  0  0  0  0  0  0  0  0  0  0
   -7.7320   18.5000  -31.4130 O   0  0  0  0  0  0  0  0  0  0  0  0
   -6.6860   18.8150  -33.8370 N   0  0  0  0  0  0  0  0  0  0  0  0
   -6.6070   17.3430  -33.7070 C   0  0  0  0  0  0  0  0  0  0  0  0
   -5.3800   16.7950  -34.4560 C   0  0  0  0  0  0  0  0  0  0  0  0
   -4.1380   17.3040  -33.9830 O   0  0  0  0  0  0  0  0  0  0  0  0
   -4.2450   18.5580  -33.3250 C   0  0  0  0  0  0  0  0  0  0  0  0
   -5.3490   19.4590  -33.9090 C   0  0  0  0  0  0  0  0  0  0  0  0
   -7.7370   22.1840  -31.9880 C   0  0  0  0  0  0  0  0  0  0  0  0
   -7.1980   23.3870  -31.5230 C   0  0  0  0  0  0  0  0  0  0  0  0
   -0.8104   26.7427  -25.8239 H   0  0  0  0  0  0  0  0  0  0  0  0
   -0.2647   27.7426  -27.2128 H   0  0  0  0  0  0  0  0  0  0  0  0
   -1.9131   27.0289  -27.2128 H   0  0  0  0  0  0  0  0  0  0  0  0
   -0.5510   21.6335  -28.4712 H   0  0  0  0  0  0  0  0  0  0  0  0
   -1.2975   22.4810  -29.8680 H   0  0  0  0  0  0  0  0  0  0  0  0
    0.4639   22.1290  -29.8680 H   0  0  0  0  0  0  0  0  0  0  0  0
   -2.9088   23.8756  -27.3765 H   0  0  0  0  0  0  0  0  0  0  0  0
   -3.0233   25.5071  -28.1400 H   0  0  0  0  0  0  0  0  0  0  0  0
   -2.1652   23.3498  -29.9912 H   0  0  0  0  0  0  0  0  0  0  0  0
   -3.8222   23.1408  -29.3306 H   0  0  0  0  0  0  0  0  0  0  0  0
   -4.1232   22.2653  -30.5327 H   0  0  0  0  0  0  0  0  0  0  0  0
   -5.0830   20.1185  -31.3621 H   0  0  0  0  0  0  0  0  0  0  0  0
   -7.1930   19.0310  -34.7270 H   0  0  0  0  0  0  0  0  0  0  0  0
   -6.5277   17.0785  -32.6422 H   0  0  0  0  0  0  0  0  0  0  0  0
   -7.5143   16.9006  -34.1441 H   0  0  0  0  0  0  0  0  0  0  0  0
   -5.3690   15.7004  -34.3476 H   0  0  0  0  0  0  0  0  0  0  0  0
   -5.4772   17.1160  -35.5036 H   0  0  0  0  0  0  0  0  0  0  0  0
   -4.4670   18.3774  -32.2629 H   0  0  0  0  0  0  0  0  0  0  0  0
   -3.2881   19.0824  -33.4646 H   0  0  0  0  0  0  0  0  0  0  0  0
   -5.3769   20.4007  -33.3411 H   0  0  0  0  0  0  0  0  0  0  0  0
   -5.1152   19.6413  -34.9683 H   0  0  0  0  0  0  0  0  0  0  0  0
   -8.7601   22.1617  -32.3915 H   0  0  0  0  0  0  0  0  0  0  0  0
   -7.7982   24.3080  -31.5626 H   0  0  0  0  0  0  0  0  0  0  0  0
  1  2  1  0
  2  3  2  0
  3  4  1  0
  4  5  1  0
  5  6  1  0
  5  7  2  0
  7  8  1  0
  8  9  1  0
  9 10  1  0
 10 11  1  0
 11 12  2  0
 11 13  2  0
 11 14  1  0
 14 15  2  0
 15 16  1  0
 16 17  2  0
 17 18  1  0
 18 19  2  0
 18 20  2  0
 18 21  1  0
 21 22  1  0
 22 23  1  0
 23 24  1  0
 24 25  1  0
 25 26  1  0
 17 27  1  0
 27 28  2  0
  7  2  1  0
 28 14  1  0
 26 21  1  0
  1 29  1  0
  1 30  1  0
  1 31  1  0
  6 32  1  0
  6 33  1  0
  6 34  1  0
  8 35  1  0
  8 36  1  0
  9 37  1  0
  9 38  1  0
 15 39  1  0
 16 40  1  0
 21 41  1  0
 22 42  1  0
 22 43  1  0
 23 44  1  0
 23 45  1  0
 25 46  1  0
 25 47  1  0
 26 48  1  0
 26 49  1  0
 27 50  1  0
 28 51  1  0
M  CHG  3   4  -1  10  -1  21   1
M  END
>  <UniqueID>  (35) 
31

>  <SMILES>  (35) 
Cc1n[n-]c(C)c1CC[N-]S(=O)(=O)c1ccc(S(=O)(=O)[NH+]2CCOCC2)cc1

>  <Energy>  (35) 
85.02907071062805

>  <Genealogy>  (35) 
Cc1n[n-]c(C)c1CC[N-]S(=O)(=O)c1ccc(S(=O)(=O)[NH+]2CCOCC2)cc1 (protonated)
Cc1n[n-]c(C)c1CC[N-]S(=O)(=O)c1ccc(S(=O)(=O)[NH+]2CCOCC2)cc1 (3D coordinates assigned)
Cc1n[n-]c(C)c1CC[N-]S(=O)(=O)c1ccc(S(=O)(=O)[NH+]2CCOCC2)cc1 (nonaromatic ring conformer: 85.02907071062805 kcal/mol)

>  <smiles>  (35) 
Cc1n[nH]c(C)c1CCNS(=O)(=O)c1ccc(S(=O)(=O)N2CCOCC2)cc1

>  <score_type>  (35) 
oracle

>  <origin>  (35) 
adgpu

>  <m_score__min__energy>  (35) 
-11.699999999999999

>  <m_primary>  (35) 
energy

$$$$
35:0
     RDKit          3D

 56 59  0  0  0  0  0  0  0  0999 V2000
   -1.5280   20.2380  -27.0680 C   0  0  0  0  0  0  0  0  0  0  0  0
   -1.5970   20.9710  -28.3690 C   0  0  0  0  0  0  0  0  0  0  0  0
   -2.7040   21.7770  -28.6700 C   0  0  0  0  0  0  0  0  0  0  0  0
   -2.7580   22.4500  -29.8990 C   0  0  0  0  0  0  0  0  0  0  0  0
   -3.9240   23.2980  -30.2420 C   0  0  0  0  0  0  0  0  0  0  0  0
   -3.8460   24.6970  -30.1050 C   0  0  0  0  0  0  0  0  0  0  0  0
   -2.6970   25.2990  -29.6010 O   0  0  0  0  0  0  0  0  0  0  0  0
   -4.9270   25.5000  -30.4670 C   0  0  0  0  0  0  0  0  0  0  0  0
   -6.0940   24.9260  -30.9680 C   0  0  0  0  0  0  0  0  0  0  0  0
   -6.1970   23.5360  -31.1090 C   0  0  0  0  0  0  0  0  0  0  0  0
   -7.4260   22.9780  -31.7070 C   0  0  0  0  0  0  0  0  0  0  0  0
   -8.5470   23.4380  -31.3640 O   0  0  0  0  0  0  0  0  0  0  0  0
   -7.3680   21.9760  -32.7310 N   0  0  0  0  0  0  0  0  0  0  0  0
   -7.5720   20.5660  -32.5460 C   0  0  0  0  0  0  0  0  0  0  0  0
   -8.7220   20.1260  -31.8830 C   0  0  0  0  0  0  0  0  0  0  0  0
   -8.9420   18.7610  -31.6830 C   0  0  0  0  0  0  0  0  0  0  0  0
   -8.0070   17.8250  -32.1340 C   0  0  0  0  0  0  0  0  0  0  0  0
   -6.8400   18.2520  -32.7800 C   0  0  0  0  0  0  0  0  0  0  0  0
   -5.6480   17.0830  -33.3590 S   0  0  0  0  0  0  0  0  0  0  0  0
   -6.1950   16.4020  -34.5840 O   0  0  0  0  0  0  0  0  0  0  0  0
   -5.4220   16.0350  -32.3060 O   0  0  0  0  0  0  0  0  0  0  0  0
   -4.1200   17.8370  -33.7410 N   0  0  0  0  0  0  0  0  0  0  0  0
   -3.7360   18.8040  -32.6980 C   0  0  0  0  0  0  0  0  0  0  0  0
   -2.5520   19.6590  -33.1830 C   0  0  0  0  0  0  0  0  0  0  0  0
   -1.6750   18.9180  -34.2070 C   0  0  0  0  0  0  0  0  0  0  0  0
   -1.6480   17.4120  -33.9310 C   0  0  0  0  0  0  0  0  0  0  0  0
   -3.0720   16.8100  -33.9260 C   0  0  0  0  0  0  0  0  0  0  0  0
   -6.6210   19.6200  -32.9710 C   0  0  0  0  0  0  0  0  0  0  0  0
   -5.1040   22.7130  -30.7480 C   0  0  0  0  0  0  0  0  0  0  0  0
   -5.1470   21.3270  -30.9380 O   0  0  0  0  0  0  0  0  0  0  0  0
   -1.7000   22.2970  -30.8060 C   0  0  0  0  0  0  0  0  0  0  0  0
   -0.6160   21.4850  -30.4700 C   0  0  0  0  0  0  0  0  0  0  0  0
   -0.5880   20.8450  -29.2720 N   0  0  0  0  0  0  0  0  0  0  0  0
   -1.5957   20.9568  -26.2381 H   0  0  0  0  0  0  0  0  0  0  0  0
   -2.3630   19.5247  -27.0043 H   0  0  0  0  0  0  0  0  0  0  0  0
   -0.5746   19.6931  -27.0043 H   0  0  0  0  0  0  0  0  0  0  0  0
   -3.5256   21.8809  -27.9460 H   0  0  0  0  0  0  0  0  0  0  0  0
   -4.8583   26.5923  -30.3566 H   0  0  0  0  0  0  0  0  0  0  0  0
   -6.9396   25.5685  -31.2546 H   0  0  0  0  0  0  0  0  0  0  0  0
   -9.4569   20.8582  -31.5172 H   0  0  0  0  0  0  0  0  0  0  0  0
   -9.8536   18.4219  -31.1692 H   0  0  0  0  0  0  0  0  0  0  0  0
   -8.1881   16.7508  -31.9812 H   0  0  0  0  0  0  0  0  0  0  0  0
   -4.5914   19.4590  -32.4758 H   0  0  0  0  0  0  0  0  0  0  0  0
   -3.4389   18.2575  -31.7908 H   0  0  0  0  0  0  0  0  0  0  0  0
   -2.9449   20.5739  -33.6506 H   0  0  0  0  0  0  0  0  0  0  0  0
   -1.9251   19.8906  -32.3093 H   0  0  0  0  0  0  0  0  0  0  0  0
   -2.0789   19.0901  -35.2156 H   0  0  0  0  0  0  0  0  0  0  0  0
   -0.6479   19.3037  -34.1276 H   0  0  0  0  0  0  0  0  0  0  0  0
   -1.0533   16.9162  -34.7124 H   0  0  0  0  0  0  0  0  0  0  0  0
   -1.2026   17.2516  -32.9381 H   0  0  0  0  0  0  0  0  0  0  0  0
   -3.2430   16.3003  -34.8857 H   0  0  0  0  0  0  0  0  0  0  0  0
   -3.1363   16.1104  -33.0796 H   0  0  0  0  0  0  0  0  0  0  0  0
   -5.6955   19.9601  -33.4586 H   0  0  0  0  0  0  0  0  0  0  0  0
   -5.9250   20.8490  -31.3740 H   0  0  0  0  0  0  0  0  0  0  0  0
   -1.7242   22.8139  -31.7767 H   0  0  0  0  0  0  0  0  0  0  0  0
    0.2179   21.3628  -31.1769 H   0  0  0  0  0  0  0  0  0  0  0  0
  1  2  1  0
  2  3  2  0
  3  4  1  0
  4  5  1  0
  5  6  2  0
  6  7  1  0
  6  8  1  0
  8  9  2  0
  9 10  1  0
 10 11  1  0
 11 12  2  0
 11 13  1  0
 13 14  1  0
 14 15  2  0
 15 16  1  0
 16 17  2  0
 17 18  1  0
 18 19  1  0
 19 20  2  0
 19 21  2  0
 19 22  1  0
 22 23  1  0
 23 24  1  0
 24 25  1  0
 25 26  1  0
 26 27  1  0
 18 28  2  0
 10 29  2  0
 29 30  1  0
  4 31  2  0
 31 32  1  0
 32 33  2  0
 33  2  1  0
 29  5  1  0
 28 14  1  0
 27 22  1  0
  1 34  1  0
  1 35  1  0
  1 36  1  0
  3 37  1  0
  8 38  1  0
  9 39  1  0
 15 40  1  0
 16 41  1  0
 17 42  1  0
 23 43  1  0
 23 44  1  0
 24 45  1  0
 24 46  1  0
 25 47  1  0
 25 48  1  0
 26 49  1  0
 26 50  1  0
 27 51  1  0
 27 52  1  0
 28 53  1  0
 30 54  1  0
 31 55  1  0
 32 56  1  0
M  CHG  2   7  -1  13  -1
M  END
>  <UniqueID>  (36) 
32

>  <SMILES>  (36) 
Cc1cc(-c2c([O-])ccc(C(=O)[N-]c3cccc(S(=O)(=O)N4CCCCC4)c3)c2O)ccn1

>  <Energy>  (36) 
77.48519203266456

>  <Genealogy>  (36) 
Cc1cc(-c2c([O-])ccc(C(=O)[N-]c3cccc(S(=O)(=O)N4CCCCC4)c3)c2O)ccn1 (protonated)
Cc1cc(-c2c([O-])ccc(C(=O)[N-]c3cccc(S(=O)(=O)N4CCCCC4)c3)c2O)ccn1 (3D coordinates assigned)
Cc1cc(-c2c([O-])ccc(C(=O)[N-]c3cccc(S(=O)(=O)N4CCCCC4)c3)c2O)ccn1 (nonaromatic ring conformer: 77.48519203266456 kcal/mol)

>  <smiles>  (36) 
Cc1cc(-c2c(O)ccc(C(=O)Nc3cccc(S(=O)(=O)N4CCCCC4)c3)c2O)ccn1

>  <score_type>  (36) 
oracle

>  <origin>  (36) 
adgpu

>  <m_score__min__energy>  (36) 
-12.16

>  <m_primary>  (36) 
energy

$$$$
36:0
     RDKit          3D

 30 31  0  0  0  0  0  0  0  0999 V2000
    0.3070   21.8270  -36.2780 N   0  0  0  0  0  0  0  0  0  0  0  0
    0.8160   20.2310  -35.8490 S   0  0  0  0  0  0  0  0  0  0  0  0
    1.9300   20.3180  -34.8460 O   0  0  0  0  0  0  0  0  0  0  0  0
    1.3070   19.5090  -37.0720 O   0  0  0  0  0  0  0  0  0  0  0  0
   -0.4940   19.3730  -35.1580 O   0  0  0  0  0  0  0  0  0  0  0  0
   -1.1110   19.7000  -33.9420 C   0  0  0  0  0  0  0  0  0  0  0  0
   -2.3940   20.2580  -33.9830 C   0  0  0  0  0  0  0  0  0  0  0  0
   -3.0570   20.6030  -32.8010 C   0  0  0  0  0  0  0  0  0  0  0  0
   -2.4460   20.3860  -31.5580 C   0  0  0  0  0  0  0  0  0  0  0  0
   -3.1430   20.7930  -30.2880 C   0  0  0  0  0  0  0  0  0  0  0  0
   -2.7530   22.1970  -29.9090 C   0  0  0  0  0  0  0  0  0  0  0  0
   -1.6130   22.4270  -29.1220 C   0  0  0  0  0  0  0  0  0  0  0  0
   -1.2310   23.7330  -28.8020 C   0  0  0  0  0  0  0  0  0  0  0  0
   -1.9790   24.8190  -29.2680 C   0  0  0  0  0  0  0  0  0  0  0  0
   -1.5930   26.1150  -28.9440 O   0  0  0  0  0  0  0  0  0  0  0  0
   -3.1110   24.5970  -30.0620 C   0  0  0  0  0  0  0  0  0  0  0  0
   -3.8540   25.6730  -30.5340 O   0  0  0  0  0  0  0  0  0  0  0  0
   -3.4940   23.2910  -30.3850 C   0  0  0  0  0  0  0  0  0  0  0  0
   -1.1560   19.8380  -31.5130 C   0  0  0  0  0  0  0  0  0  0  0  0
   -0.4920   19.4930  -32.6940 C   0  0  0  0  0  0  0  0  0  0  0  0
   -0.5470   22.0360  -35.7130 H   0  0  0  0  0  0  0  0  0  0  0  0
   -2.8848   20.4265  -34.9529 H   0  0  0  0  0  0  0  0  0  0  0  0
   -4.0625   21.0467  -32.8468 H   0  0  0  0  0  0  0  0  0  0  0  0
   -4.2315   20.7465  -30.4397 H   0  0  0  0  0  0  0  0  0  0  0  0
   -2.8473   20.1074  -29.4802 H   0  0  0  0  0  0  0  0  0  0  0  0
   -1.0187   21.5767  -28.7562 H   0  0  0  0  0  0  0  0  0  0  0  0
   -0.3394   23.9071  -28.1818 H   0  0  0  0  0  0  0  0  0  0  0  0
   -4.3796   23.1200  -31.0147 H   0  0  0  0  0  0  0  0  0  0  0  0
   -0.6634   19.6786  -30.5425 H   0  0  0  0  0  0  0  0  0  0  0  0
    0.5175   19.0584  -32.6483 H   0  0  0  0  0  0  0  0  0  0  0  0
  1  2  1  0
  2  3  2  0
  2  4  2  0
  2  5  1  0
  5  6  1  0
  6  7  2  0
  7  8  1  0
  8  9  2  0
  9 10  1  0
 10 11  1  0
 11 12  2  0
 12 13  1  0
 13 14  2  0
 14 15  1  0
 14 16  1  0
 16 17  1  0
 16 18  2  0
  9 19  1  0
 19 20  2  0
 20  6  1  0
 18 11  1  0
  1 21  1  0
  7 22  1  0
  8 23  1  0
 10 24  1  0
 10 25  1  0
 12 26  1  0
 13 27  1  0
 18 28  1  0
 19 29  1  0
 20 30  1  0
M  CHG  3   1  -1  15  -1  17  -1
M  END
>  <UniqueID>  (37) 
33

>  <SMILES>  (37) 
[NH-]S(=O)(=O)Oc1ccc(Cc2ccc([O-])c([O-])c2)cc1

>  <Energy>  (37) 
27.338780673250852

>  <Genealogy>  (37) 
[NH-]S(=O)(=O)Oc1ccc(Cc2ccc([O-])c([O-])c2)cc1 (protonated)
[NH-]S(=O)(=O)Oc1ccc(Cc2ccc([O-])c([O-])c2)cc1 (3D coordinates assigned)
[NH-]S(=O)(=O)Oc1ccc(Cc2ccc([O-])c([O-])c2)cc1 (optimized conformer: 27.338780673250852 kcal/mol)

>  <smiles>  (37) 
NS(=O)(=O)Oc1ccc(Cc2ccc(O)c(O)c2)cc1

>  <score_type>  (37) 
oracle

>  <origin>  (37) 
adgpu

>  <m_score__min__energy>  (37) 
-11.69

>  <m_primary>  (37) 
energy

$$$$
37:0
     RDKit          3D

 62 65  0  0  0  0  0  0  0  0999 V2000
   -0.3860   29.3680  -35.9200 C   0  0  0  0  0  0  0  0  0  0  0  0
    0.1120   27.9590  -36.0810 C   0  0  0  0  0  0  0  0  0  0  0  0
    1.2480   27.5320  -35.3740 C   0  0  0  0  0  0  0  0  0  0  0  0
    1.7180   26.2240  -35.5130 C   0  0  0  0  0  0  0  0  0  0  0  0
    1.0550   25.3140  -36.3540 C   0  0  0  0  0  0  0  0  0  0  0  0
    1.5370   23.9710  -36.5340 N   0  0  0  0  0  0  0  0  0  0  0  0
    0.9680   22.8240  -35.8810 C   0  0  0  0  0  0  0  0  0  0  0  0
   -0.1630   22.9040  -35.3310 O   0  0  0  0  0  0  0  0  0  0  0  0
    1.6460   21.5640  -35.8720 N   0  0  0  0  0  0  0  0  0  0  0  0
    1.2820   20.2620  -34.7880 S   0  0  0  0  0  0  0  0  0  0  0  0
    2.4270   20.0770  -33.8340 O   0  0  0  0  0  0  0  0  0  0  0  0
    1.0940   18.9980  -35.5800 O   0  0  0  0  0  0  0  0  0  0  0  0
   -0.1710   20.6270  -33.8790 C   0  0  0  0  0  0  0  0  0  0  0  0
   -1.4630   20.2710  -34.2460 C   0  0  0  0  0  0  0  0  0  0  0  0
   -2.4250   20.6750  -33.3130 C   0  0  0  0  0  0  0  0  0  0  0  0
   -1.8750   21.3370  -32.2220 C   0  0  0  0  0  0  0  0  0  0  0  0
   -2.7790   22.0050  -30.8780 S   0  0  0  0  0  0  0  0  0  0  0  0
   -2.2960   23.4000  -30.5950 O   0  0  0  0  0  0  0  0  0  0  0  0
   -2.5550   21.1690  -29.6500 O   0  0  0  0  0  0  0  0  0  0  0  0
   -4.4900   22.0230  -31.2850 C   0  0  0  0  0  0  0  0  0  0  0  0
   -5.1550   23.2340  -31.5240 C   0  0  0  0  0  0  0  0  0  0  0  0
   -6.5080   23.2330  -31.8750 C   0  0  0  0  0  0  0  0  0  0  0  0
   -7.2010   22.0260  -31.9940 C   0  0  0  0  0  0  0  0  0  0  0  0
   -6.5430   20.8100  -31.7590 C   0  0  0  0  0  0  0  0  0  0  0  0
   -7.3900   19.2780  -31.9530 S   0  0  0  0  0  0  0  0  0  0  0  0
   -6.9300   18.3350  -30.8750 O   0  0  0  0  0  0  0  0  0  0  0  0
   -8.8710   19.4890  -31.8050 O   0  0  0  0  0  0  0  0  0  0  0  0
   -7.0370   18.5970  -33.5240 N   0  0  0  0  0  0  0  0  0  0  0  0
   -6.8640   17.1280  -33.4050 C   0  0  0  0  0  0  0  0  0  0  0  0
   -6.0840   16.5510  -34.5920 C   0  0  0  0  0  0  0  0  0  0  0  0
   -4.6620   17.1360  -34.6530 C   0  0  0  0  0  0  0  0  0  0  0  0
   -4.5660   18.5330  -34.0140 C   0  0  0  0  0  0  0  0  0  0  0  0
   -5.8870   19.3010  -34.1580 C   0  0  0  0  0  0  0  0  0  0  0  0
   -5.1860   20.8130  -31.4110 C   0  0  0  0  0  0  0  0  0  0  0  0
   -0.2070   21.4400  -32.4060 S   0  0  0  0  0  0  0  0  0  0  0  0
   -0.0660   25.7460  -37.0760 C   0  0  0  0  0  0  0  0  0  0  0  0
   -0.5450   27.0550  -36.9400 C   0  0  0  0  0  0  0  0  0  0  0  0
   -1.9690   27.5300  -37.8580 Cl  0  0  0  0  0  0  0  0  0  0  0  0
   -0.4705   29.6070  -34.8496 H   0  0  0  0  0  0  0  0  0  0  0  0
    0.3208   30.0634  -36.3963 H   0  0  0  0  0  0  0  0  0  0  0  0
   -1.3728   29.4648  -36.3963 H   0  0  0  0  0  0  0  0  0  0  0  0
    1.7711   28.2324  -34.7063 H   0  0  0  0  0  0  0  0  0  0  0  0
    2.6135   25.9039  -34.9602 H   0  0  0  0  0  0  0  0  0  0  0  0
    2.2630   23.8190  -37.2670 H   0  0  0  0  0  0  0  0  0  0  0  0
   -1.7044   19.7288  -35.1722 H   0  0  0  0  0  0  0  0  0  0  0  0
   -3.5026   20.4882  -33.4309 H   0  0  0  0  0  0  0  0  0  0  0  0
   -4.6113   24.1861  -31.4352 H   0  0  0  0  0  0  0  0  0  0  0  0
   -7.0282   24.1848  -32.0579 H   0  0  0  0  0  0  0  0  0  0  0  0
   -8.2651   22.0293  -32.2726 H   0  0  0  0  0  0  0  0  0  0  0  0
   -7.8830   18.7720  -34.1160 H   0  0  0  0  0  0  0  0  0  0  0  0
   -6.3158   16.9076  -32.4772 H   0  0  0  0  0  0  0  0  0  0  0  0
   -7.8618   16.6651  -33.3927 H   0  0  0  0  0  0  0  0  0  0  0  0
   -6.0193   15.4583  -34.4831 H   0  0  0  0  0  0  0  0  0  0  0  0
   -6.6120   16.8147  -35.5203 H   0  0  0  0  0  0  0  0  0  0  0  0
   -3.9794   16.4577  -34.1201 H   0  0  0  0  0  0  0  0  0  0  0  0
   -4.3896   17.2367  -35.7140 H   0  0  0  0  0  0  0  0  0  0  0  0
   -4.3294   18.4233  -32.9454 H   0  0  0  0  0  0  0  0  0  0  0  0
   -3.7762   19.0986  -34.5300 H   0  0  0  0  0  0  0  0  0  0  0  0
   -5.7737   20.2869  -33.6835 H   0  0  0  0  0  0  0  0  0  0  0  0
   -6.1039   19.3876  -35.2329 H   0  0  0  0  0  0  0  0  0  0  0  0
   -4.6640   19.8607  -31.2357 H   0  0  0  0  0  0  0  0  0  0  0  0
   -0.5755   25.0488  -37.7574 H   0  0  0  0  0  0  0  0  0  0  0  0
  1  2  1  0
  2  3  2  0
  3  4  1  0
  4  5  2  0
  5  6  1  0
  6  7  1  0
  7  8  2  0
  7  9  1  0
  9 10  1  0
 10 11  2  0
 10 12  2  0
 10 13  1  0
 13 14  2  0
 14 15  1  0
 15 16  2  0
 16 17  1  0
 17 18  2  0
 17 19  2  0
 17 20  1  0
 20 21  2  0
 21 22  1  0
 22 23  2  0
 23 24  1  0
 24 25  1  0
 25 26  2  0
 25 27  2  0
 25 28  1  0
 28 29  1  0
 29 30  1  0
 30 31  1  0
 31 32  1  0
 32 33  1  0
 24 34  2  0
 16 35  1  0
  5 36  1  0
 36 37  2  0
 37 38  1  0
 37  2  1  0
 35 13  1  0
 34 20  1  0
 33 28  1  0
  1 39  1  0
  1 40  1  0
  1 41  1  0
  3 42  1  0
  4 43  1  0
  6 44  1  0
 14 45  1  0
 15 46  1  0
 21 47  1  0
 22 48  1  0
 23 49  1  0
 28 50  1  0
 29 51  1  0
 29 52  1  0
 30 53  1  0
 30 54  1  0
 31 55  1  0
 31 56  1  0
 32 57  1  0
 32 58  1  0
 33 59  1  0
 33 60  1  0
 34 61  1  0
 36 62  1  0
M  CHG  2   9  -1  28   1
M  END
>  <UniqueID>  (38) 
34

>  <SMILES>  (38) 
Cc1ccc(NC(=O)[N-]S(=O)(=O)c2ccc(S(=O)(=O)c3cccc(S(=O)(=O)[NH+]4CCCCC4)c3)s2)cc1Cl

>  <Energy>  (38) 
103.07101705710014

>  <Genealogy>  (38) 
Cc1ccc(NC(=O)[N-]S(=O)(=O)c2ccc(S(=O)(=O)c3cccc(S(=O)(=O)[NH+]4CCCCC4)c3)s2)cc1Cl (protonated)
Cc1ccc(NC(=O)[N-]S(=O)(=O)c2ccc(S(=O)(=O)c3cccc(S(=O)(=O)[NH+]4CCCCC4)c3)s2)cc1Cl (3D coordinates assigned)
Cc1ccc(NC(=O)[N-]S(=O)(=O)c2ccc(S(=O)(=O)c3cccc(S(=O)(=O)[NH+]4CCCCC4)c3)s2)cc1Cl (nonaromatic ring conformer: 103.07101705710014 kcal/mol)

>  <smiles>  (38) 
Cc1ccc(NC(=O)NS(=O)(=O)c2ccc(S(=O)(=O)c3cccc(S(=O)(=O)N4CCCCC4)c3)s2)cc1Cl

>  <score_type>  (38) 
oracle

>  <origin>  (38) 
adgpu

>  <m_score__min__energy>  (38) 
-12.68

>  <m_primary>  (38) 
energy

$$$$
38:0
     RDKit          3D

 36 38  0  0  0  0  0  0  0  0999 V2000
   -3.9030   25.3660  -30.4730 O   0  0  0  0  0  0  0  0  0  0  0  0
   -3.4730   24.1810  -30.4830 C   0  0  0  0  0  0  0  0  0  0  0  0
   -3.9500   23.2680  -31.4800 N   0  0  0  0  0  0  0  0  0  0  0  0
   -5.3060   22.8190  -31.5910 C   0  0  0  0  0  0  0  0  0  0  0  0
   -6.2970   23.7620  -31.8940 C   0  0  0  0  0  0  0  0  0  0  0  0
   -7.6310   23.3710  -32.0240 C   0  0  0  0  0  0  0  0  0  0  0  0
   -7.9850   22.0290  -31.8700 C   0  0  0  0  0  0  0  0  0  0  0  0
   -7.0020   21.0740  -31.6010 C   0  0  0  0  0  0  0  0  0  0  0  0
   -5.6590   21.4550  -31.4750 C   0  0  0  0  0  0  0  0  0  0  0  0
   -4.4260   20.1630  -31.2420 S   0  0  0  0  0  0  0  0  0  0  0  0
   -5.2260   19.0490  -32.3980 C   0  0  0  0  0  0  0  0  0  0  0  0
   -5.9720   17.9630  -31.9250 C   0  0  0  0  0  0  0  0  0  0  0  0
   -6.5990   17.0970  -32.8260 C   0  0  0  0  0  0  0  0  0  0  0  0
   -6.4760   17.3120  -34.2030 C   0  0  0  0  0  0  0  0  0  0  0  0
   -5.7250   18.3910  -34.6780 C   0  0  0  0  0  0  0  0  0  0  0  0
   -5.0980   19.2580  -33.7770 C   0  0  0  0  0  0  0  0  0  0  0  0
   -2.4590   23.7340  -29.4910 C   0  0  0  0  0  0  0  0  0  0  0  0
   -2.4500   22.3920  -29.0610 C   0  0  0  0  0  0  0  0  0  0  0  0
   -1.5130   21.9510  -28.1220 C   0  0  0  0  0  0  0  0  0  0  0  0
   -0.5740   22.8380  -27.5990 C   0  0  0  0  0  0  0  0  0  0  0  0
    0.3570   22.3960  -26.6660 O   0  0  0  0  0  0  0  0  0  0  0  0
   -0.5670   24.1710  -28.0130 C   0  0  0  0  0  0  0  0  0  0  0  0
   -1.5010   24.6250  -28.9520 C   0  0  0  0  0  0  0  0  0  0  0  0
   -1.4630   25.9620  -29.3340 O   0  0  0  0  0  0  0  0  0  0  0  0
   -6.0220   24.8183  -32.0305 H   0  0  0  0  0  0  0  0  0  0  0  0
   -8.4040   24.1209  -32.2480 H   0  0  0  0  0  0  0  0  0  0  0  0
   -9.0380   21.7240  -31.9606 H   0  0  0  0  0  0  0  0  0  0  0  0
   -7.2834   20.0167  -31.4874 H   0  0  0  0  0  0  0  0  0  0  0  0
   -6.0651   17.7907  -30.8426 H   0  0  0  0  0  0  0  0  0  0  0  0
   -7.1888   16.2470  -32.4524 H   0  0  0  0  0  0  0  0  0  0  0  0
   -6.9704   16.6317  -34.9120 H   0  0  0  0  0  0  0  0  0  0  0  0
   -5.6270   18.5584  -35.7608 H   0  0  0  0  0  0  0  0  0  0  0  0
   -4.5040   20.1046  -34.1518 H   0  0  0  0  0  0  0  0  0  0  0  0
   -3.1874   21.6846  -29.4682 H   0  0  0  0  0  0  0  0  0  0  0  0
   -1.5169   20.9007  -27.7950 H   0  0  0  0  0  0  0  0  0  0  0  0
    0.1763   24.8685  -27.5993 H   0  0  0  0  0  0  0  0  0  0  0  0
  1  2  2  0
  2  3  1  0
  3  4  1  0
  4  5  2  0
  5  6  1  0
  6  7  2  0
  7  8  1  0
  8  9  2  0
  9 10  1  0
 10 11  1  0
 11 12  2  0
 12 13  1  0
 13 14  2  0
 14 15  1  0
 15 16  2  0
  2 17  1  0
 17 18  2  0
 18 19  1  0
 19 20  2  0
 20 21  1  0
 20 22  1  0
 22 23  2  0
 23 24  1  0
  9  4  1  0
 16 11  1  0
 23 17  1  0
  5 25  1  0
  6 26  1  0
  7 27  1  0
  8 28  1  0
 12 29  1  0
 13 30  1  0
 14 31  1  0
 15 32  1  0
 16 33  1  0
 18 34  1  0
 19 35  1  0
 22 36  1  0
M  CHG  3   3  -1  21  -1  24  -1
M  END
>  <UniqueID>  (39) 
35

>  <SMILES>  (39) 
O=C([N-]c1ccccc1Sc1ccccc1)c1ccc([O-])cc1[O-]

>  <Energy>  (39) 
43.05290287870639

>  <Genealogy>  (39) 
O=C([N-]c1ccccc1Sc1ccccc1)c1ccc([O-])cc1[O-] (protonated)
O=C([N-]c1ccccc1Sc1ccccc1)c1ccc([O-])cc1[O-] (3D coordinates assigned)
O=C([N-]c1ccccc1Sc1ccccc1)c1ccc([O-])cc1[O-] (optimized conformer: 43.05290287870639 kcal/mol)

>  <smiles>  (39) 
O=C(Nc1ccccc1Sc1ccccc1)c1ccc(O)cc1O

>  <score_type>  (39) 
oracle

>  <origin>  (39) 
adgpu

>  <m_score__min__energy>  (39) 
-12.94

>  <m_primary>  (39) 
energy

$$$$
39:0
     RDKit          3D

 62 65  0  0  0  0  0  0  0  0999 V2000
   -0.7690   19.8990  -30.5050 C   0  0  0  0  0  0  0  0  0  0  0  0
   -0.7760   20.7080  -29.2420 C   0  0  0  0  0  0  0  0  0  0  0  0
   -1.1910   20.1270  -28.0330 C   0  0  0  0  0  0  0  0  0  0  0  0
   -1.2410   20.8950  -26.8590 C   0  0  0  0  0  0  0  0  0  0  0  0
   -1.6330   20.2700  -25.5520 C   0  0  0  0  0  0  0  0  0  0  0  0
   -0.8650   22.2440  -26.8990 C   0  0  0  0  0  0  0  0  0  0  0  0
   -0.4460   22.8290  -28.1000 C   0  0  0  0  0  0  0  0  0  0  0  0
    0.0760   24.5100  -28.1370 S   0  0  0  0  0  0  0  0  0  0  0  0
    1.5750   24.5440  -28.2380 O   0  0  0  0  0  0  0  0  0  0  0  0
   -0.5020   25.2110  -29.3330 O   0  0  0  0  0  0  0  0  0  0  0  0
   -0.4690   25.3500  -26.6760 C   0  0  0  0  0  0  0  0  0  0  0  0
    0.4780   25.9870  -25.8550 C   0  0  0  0  0  0  0  0  0  0  0  0
    0.0730   26.6790  -24.7110 C   0  0  0  0  0  0  0  0  0  0  0  0
   -1.2790   26.7450  -24.3750 C   0  0  0  0  0  0  0  0  0  0  0  0
   -2.2320   26.1140  -25.1770 C   0  0  0  0  0  0  0  0  0  0  0  0
   -1.8380   25.4070  -26.3240 C   0  0  0  0  0  0  0  0  0  0  0  0
   -2.8720   24.7450  -27.1300 C   0  0  0  0  0  0  0  0  0  0  0  0
   -3.8440   24.1910  -26.5490 O   0  0  0  0  0  0  0  0  0  0  0  0
   -2.8040   24.7960  -28.5620 N   0  0  0  0  0  0  0  0  0  0  0  0
   -3.6250   24.0080  -29.4410 C   0  0  0  0  0  0  0  0  0  0  0  0
   -4.5850   24.6020  -30.2810 C   0  0  0  0  0  0  0  0  0  0  0  0
   -5.3900   23.8120  -31.1050 C   0  0  0  0  0  0  0  0  0  0  0  0
   -5.2500   22.4150  -31.1080 C   0  0  0  0  0  0  0  0  0  0  0  0
   -6.1060   21.5740  -31.9730 C   0  0  0  0  0  0  0  0  0  0  0  0
   -5.6990   21.2720  -33.1290 O   0  0  0  0  0  0  0  0  0  0  0  0
   -7.3970   21.1100  -31.5340 N   0  0  0  0  0  0  0  0  0  0  0  0
   -7.9150   19.8180  -32.0030 C   0  0  0  0  0  0  0  0  0  0  0  0
   -9.1890   20.0200  -32.8380 C   0  0  0  0  0  0  0  0  0  0  0  0
  -10.1000   21.1480  -32.3040 C   0  0  0  0  0  0  0  0  0  0  0  0
   -9.7520   21.5640  -30.8710 C   0  0  0  0  0  0  0  0  0  0  0  0
   -8.2880   22.0160  -30.7880 C   0  0  0  0  0  0  0  0  0  0  0  0
   -4.3190   21.8210  -30.2430 C   0  0  0  0  0  0  0  0  0  0  0  0
   -3.5160   22.6110  -29.4150 C   0  0  0  0  0  0  0  0  0  0  0  0
   -0.4230   22.0650  -29.2730 C   0  0  0  0  0  0  0  0  0  0  0  0
   -0.7597   18.8280  -30.2544 H   0  0  0  0  0  0  0  0  0  0  0  0
   -1.6692   20.1301  -31.0935 H   0  0  0  0  0  0  0  0  0  0  0  0
    0.1270   20.1456  -31.0935 H   0  0  0  0  0  0  0  0  0  0  0  0
   -1.4782   19.0655  -28.0057 H   0  0  0  0  0  0  0  0  0  0  0  0
   -1.2489   20.8824  -24.7229 H   0  0  0  0  0  0  0  0  0  0  0  0
   -2.7296   20.2120  -25.4876 H   0  0  0  0  0  0  0  0  0  0  0  0
   -1.2078   19.2575  -25.4876 H   0  0  0  0  0  0  0  0  0  0  0  0
   -0.8992   22.8479  -25.9802 H   0  0  0  0  0  0  0  0  0  0  0  0
    1.5457   25.9402  -26.1154 H   0  0  0  0  0  0  0  0  0  0  0  0
    0.8218   27.1727  -24.0741 H   0  0  0  0  0  0  0  0  0  0  0  0
   -1.5951   27.2952  -23.4765 H   0  0  0  0  0  0  0  0  0  0  0  0
   -3.2972   26.1712  -24.9086 H   0  0  0  0  0  0  0  0  0  0  0  0
   -2.1560   25.4960  -28.9910 H   0  0  0  0  0  0  0  0  0  0  0  0
   -4.7023   25.6957  -30.2888 H   0  0  0  0  0  0  0  0  0  0  0  0
   -6.1385   24.2875  -31.7558 H   0  0  0  0  0  0  0  0  0  0  0  0
   -7.1510   19.3248  -32.6219 H   0  0  0  0  0  0  0  0  0  0  0  0
   -8.1570   19.1938  -31.1302 H   0  0  0  0  0  0  0  0  0  0  0  0
   -8.8949   20.2678  -33.8686 H   0  0  0  0  0  0  0  0  0  0  0  0
   -9.7648   19.0843  -32.7836 H   0  0  0  0  0  0  0  0  0  0  0  0
   -9.9949   22.0248  -32.9599 H   0  0  0  0  0  0  0  0  0  0  0  0
  -11.1312   20.7653  -32.2966 H   0  0  0  0  0  0  0  0  0  0  0  0
  -10.4059   22.3940  -30.5652 H   0  0  0  0  0  0  0  0  0  0  0  0
   -9.8988   20.7026  -30.2028 H   0  0  0  0  0  0  0  0  0  0  0  0
   -8.2025   23.0282  -31.2102 H   0  0  0  0  0  0  0  0  0  0  0  0
   -7.9838   22.0040  -29.7310 H   0  0  0  0  0  0  0  0  0  0  0  0
   -4.2201   20.7258  -30.2160 H   0  0  0  0  0  0  0  0  0  0  0  0
   -2.7931   22.1325  -28.7379 H   0  0  0  0  0  0  0  0  0  0  0  0
   -0.1265   22.5315  -30.2240 H   0  0  0  0  0  0  0  0  0  0  0  0
  1  2  1  0
  2  3  2  0
  3  4  1  0
  4  5  1  0
  4  6  2  0
  6  7  1  0
  7  8  1  0
  8  9  2  0
  8 10  2  0
  8 11  1  0
 11 12  2  0
 12 13  1  0
 13 14  2  0
 14 15  1  0
 15 16  2  0
 16 17  1  0
 17 18  2  0
 17 19  1  0
 19 20  1  0
 20 21  2  0
 21 22  1  0
 22 23  2  0
 23 24  1  0
 24 25  2  0
 24 26  1  0
 26 27  1  0
 27 28  1  0
 28 29  1  0
 29 30  1  0
 30 31  1  0
 23 32  1  0
 32 33  2  0
  7 34  2  0
 34  2  1  0
 16 11  1  0
 33 20  1  0
 31 26  1  0
  1 35  1  0
  1 36  1  0
  1 37  1  0
  3 38  1  0
  5 39  1  0
  5 40  1  0
  5 41  1  0
  6 42  1  0
 12 43  1  0
 13 44  1  0
 14 45  1  0
 15 46  1  0
 19 47  1  0
 21 48  1  0
 22 49  1  0
 27 50  1  0
 27 51  1  0
 28 52  1  0
 28 53  1  0
 29 54  1  0
 29 55  1  0
 30 56  1  0
 30 57  1  0
 31 58  1  0
 31 59  1  0
 32 60  1  0
 33 61  1  0
 34 62  1  0
M  END
>  <UniqueID>  (40) 
36

>  <SMILES>  (40) 
Cc1cc(C)cc(S(=O)(=O)c2ccccc2C(=O)Nc2ccc(C(=O)N3CCCCC3)cc2)c1

>  <Energy>  (40) 
81.22964099046504

>  <Genealogy>  (40) 
Cc1cc(C)cc(S(=O)(=O)c2ccccc2C(=O)Nc2ccc(C(=O)N3CCCCC3)cc2)c1 (3D coordinates assigned)
Cc1cc(C)cc(S(=O)(=O)c2ccccc2C(=O)Nc2ccc(C(=O)N3CCCCC3)cc2)c1 (nonaromatic ring conformer: 81.22964099046504 kcal/mol)

>  <smiles>  (40) 
Cc1cc(C)cc(S(=O)(=O)c2ccccc2C(=O)Nc2ccc(C(=O)N3CCCCC3)cc2)c1

>  <score_type>  (40) 
oracle

>  <origin>  (40) 
adgpu

>  <m_score__min__energy>  (40) 
-11.470000000000001

>  <m_primary>  (40) 
energy

$$$$
40:0
     RDKit          3D

 57 60  0  0  0  0  0  0  0  0999 V2000
   -1.3410   25.9020  -28.2600 O   0  0  0  0  0  0  0  0  0  0  0  0
   -1.6410   24.9040  -28.9670 C   0  0  0  0  0  0  0  0  0  0  0  0
   -0.8190   23.7800  -28.9860 C   0  0  0  0  0  0  0  0  0  0  0  0
   -1.1760   22.6910  -29.7780 C   0  0  0  0  0  0  0  0  0  0  0  0
   -2.3550   22.7450  -30.5420 C   0  0  0  0  0  0  0  0  0  0  0  0
   -2.7770   21.6360  -31.3700 N   0  0  0  0  0  0  0  0  0  0  0  0
   -3.3030   21.8720  -32.7290 C   0  0  0  0  0  0  0  0  0  0  0  0
   -3.3930   20.5710  -33.5410 C   0  0  0  0  0  0  0  0  0  0  0  0
   -2.1190   19.7380  -33.3200 C   0  0  0  0  0  0  0  0  0  0  0  0
   -1.9920   18.6230  -34.2780 N   0  0  0  0  0  0  0  0  0  0  0  0
   -3.2540   17.4120  -34.2900 S   0  0  0  0  0  0  0  0  0  0  0  0
   -2.7860   16.1910  -33.5460 O   0  0  0  0  0  0  0  0  0  0  0  0
   -3.4920   17.0060  -35.7160 O   0  0  0  0  0  0  0  0  0  0  0  0
   -4.7920   17.9640  -33.6280 C   0  0  0  0  0  0  0  0  0  0  0  0
   -5.6350   18.7990  -34.3740 C   0  0  0  0  0  0  0  0  0  0  0  0
   -6.8590   19.2160  -33.8460 C   0  0  0  0  0  0  0  0  0  0  0  0
   -7.2510   18.8030  -32.5640 C   0  0  0  0  0  0  0  0  0  0  0  0
   -8.7820   19.3380  -31.8750 S   0  0  0  0  0  0  0  0  0  0  0  0
   -9.3430   18.2250  -31.0340 O   0  0  0  0  0  0  0  0  0  0  0  0
   -9.7600   19.6520  -32.9740 O   0  0  0  0  0  0  0  0  0  0  0  0
   -8.5270   20.7540  -30.8840 N   0  0  0  0  0  0  0  0  0  0  0  0
   -7.1070   21.1670  -30.9530 C   0  0  0  0  0  0  0  0  0  0  0  0
   -6.9200   22.6180  -30.4980 C   0  0  0  0  0  0  0  0  0  0  0  0
   -7.6850   23.5870  -31.4160 C   0  0  0  0  0  0  0  0  0  0  0  0
   -8.8910   22.9270  -32.1050 C   0  0  0  0  0  0  0  0  0  0  0  0
   -9.4980   21.8250  -31.2260 C   0  0  0  0  0  0  0  0  0  0  0  0
   -6.4010   17.9850  -31.8100 C   0  0  0  0  0  0  0  0  0  0  0  0
   -5.1750   17.5680  -32.3380 C   0  0  0  0  0  0  0  0  0  0  0  0
   -1.8930   19.3600  -31.8320 C   0  0  0  0  0  0  0  0  0  0  0  0
   -2.6960   20.2510  -30.8690 C   0  0  0  0  0  0  0  0  0  0  0  0
   -3.1140   23.8770  -30.4790 N   0  0  0  0  0  0  0  0  0  0  0  0
   -2.7700   24.9190  -29.7200 N   0  0  0  0  0  0  0  0  0  0  0  0
    0.1007   23.7524  -28.3832 H   0  0  0  0  0  0  0  0  0  0  0  0
   -0.5394   21.7944  -29.8055 H   0  0  0  0  0  0  0  0  0  0  0  0
   -4.3079   22.3125  -32.6501 H   0  0  0  0  0  0  0  0  0  0  0  0
   -2.6123   22.5520  -33.2491 H   0  0  0  0  0  0  0  0  0  0  0  0
   -4.2698   19.9938  -33.2123 H   0  0  0  0  0  0  0  0  0  0  0  0
   -3.4918   20.8125  -34.6096 H   0  0  0  0  0  0  0  0  0  0  0  0
   -1.2668   20.3918  -33.5570 H   0  0  0  0  0  0  0  0  0  0  0  0
   -5.3315   19.1272  -35.3791 H   0  0  0  0  0  0  0  0  0  0  0  0
   -7.5172   19.8699  -34.4369 H   0  0  0  0  0  0  0  0  0  0  0  0
   -6.5117   20.5092  -30.3027 H   0  0  0  0  0  0  0  0  0  0  0  0
   -6.7758   21.0886  -31.9990 H   0  0  0  0  0  0  0  0  0  0  0  0
   -7.2964   22.7239  -29.4698 H   0  0  0  0  0  0  0  0  0  0  0  0
   -5.8489   22.8642  -30.5437 H   0  0  0  0  0  0  0  0  0  0  0  0
   -8.0447   24.4332  -30.8123 H   0  0  0  0  0  0  0  0  0  0  0  0
   -6.9911   23.9144  -32.2042 H   0  0  0  0  0  0  0  0  0  0  0  0
   -9.6563   23.6928  -32.2998 H   0  0  0  0  0  0  0  0  0  0  0  0
   -8.5485   22.4725  -33.0464 H   0  0  0  0  0  0  0  0  0  0  0  0
   -9.8601   22.2808  -30.2927 H   0  0  0  0  0  0  0  0  0  0  0  0
  -10.3132   21.3591  -31.7989 H   0  0  0  0  0  0  0  0  0  0  0  0
   -6.6984   17.6693  -30.7991 H   0  0  0  0  0  0  0  0  0  0  0  0
   -4.5094   16.9279  -31.7403 H   0  0  0  0  0  0  0  0  0  0  0  0
   -2.1996   18.3141  -31.6833 H   0  0  0  0  0  0  0  0  0  0  0  0
   -0.8255   19.5043  -31.6091 H   0  0  0  0  0  0  0  0  0  0  0  0
   -3.7135   19.8453  -30.7682 H   0  0  0  0  0  0  0  0  0  0  0  0
   -2.1856   20.2611  -29.8946 H   0  0  0  0  0  0  0  0  0  0  0  0
  1  2  2  0
  2  3  1  0
  3  4  2  0
  4  5  1  0
  5  6  1  0
  6  7  1  0
  7  8  1  0
  8  9  1  0
  9 10  1  0
 10 11  1  0
 11 12  2  0
 11 13  2  0
 11 14  1  0
 14 15  2  0
 15 16  1  0
 16 17  2  0
 17 18  1  0
 18 19  2  0
 18 20  2  0
 18 21  1  0
 21 22  1  0
 22 23  1  0
 23 24  1  0
 24 25  1  0
 25 26  1  0
 17 27  1  0
 27 28  2  0
  9 29  1  0
 29 30  1  0
  5 31  2  0
 31 32  1  0
 32  2  1  0
 30  6  1  0
 28 14  1  0
 26 21  1  0
  3 33  1  0
  4 34  1  0
  7 35  1  0
  7 36  1  0
  8 37  1  0
  8 38  1  0
  9 39  1  0
 15 40  1  0
 16 41  1  0
 22 42  1  0
 22 43  1  0
 23 44  1  0
 23 45  1  0
 24 46  1  0
 24 47  1  0
 25 48  1  0
 25 49  1  0
 26 50  1  0
 26 51  1  0
 27 52  1  0
 28 53  1  0
 29 54  1  0
 29 55  1  0
 30 56  1  0
 30 57  1  0
M  CHG  2  10  -1  32  -1
M  END
>  <UniqueID>  (41) 
37

>  <SMILES>  (41) 
O=c1ccc(N2CCC([N-]S(=O)(=O)c3ccc(S(=O)(=O)N4CCCCC4)cc3)CC2)n[n-]1

>  <Energy>  (41) 
77.18356222069423

>  <Genealogy>  (41) 
O=c1ccc(N2CCC([N-]S(=O)(=O)c3ccc(S(=O)(=O)N4CCCCC4)cc3)CC2)n[n-]1 (protonated)
O=c1ccc(N2CCC([N-]S(=O)(=O)c3ccc(S(=O)(=O)N4CCCCC4)cc3)CC2)n[n-]1 (3D coordinates assigned)
O=c1ccc(N2CCC([N-]S(=O)(=O)c3ccc(S(=O)(=O)N4CCCCC4)cc3)CC2)n[n-]1 (nonaromatic ring conformer: 77.18356222069423 kcal/mol)

>  <smiles>  (41) 
O=c1ccc(N2CCC(NS(=O)(=O)c3ccc(S(=O)(=O)N4CCCCC4)cc3)CC2)n[nH]1

>  <score_type>  (41) 
oracle

>  <origin>  (41) 
adgpu

>  <m_score__min__energy>  (41) 
-12.279999999999999

>  <m_primary>  (41) 
energy

$$$$
41:0
     RDKit          3D

 38 40  0  0  1  0  0  0  0  0999 V2000
   -3.1830   21.0850  -27.9120 C   0  0  0  0  0  0  0  0  0  0  0  0
   -3.1590   22.3760  -28.6500 C   0  0  0  0  0  0  0  0  0  0  0  0
   -2.2380   23.3300  -28.3330 C   0  0  0  0  0  0  0  0  0  0  0  0
   -2.2000   24.5330  -29.0050 C   0  0  0  0  0  0  0  0  0  0  0  0
   -1.3470   25.4620  -28.7380 N   0  0  0  0  0  0  0  0  0  0  0  0
   -0.3580   25.2730  -27.6810 C   0  0  0  0  0  0  0  0  0  0  0  0
   -0.5870   26.2440  -26.5680 C   0  0  0  0  0  0  0  0  0  0  0  0
   -0.9420   25.9910  -25.2970 C   0  0  0  0  0  0  0  0  0  0  0  0
   -1.0970   27.0230  -24.4470 C   0  0  0  0  0  0  0  0  0  0  0  0
   -0.8870   28.2660  -24.9160 C   0  0  0  0  0  0  0  0  0  0  0  0
   -0.4360   28.0020  -26.6810 S   0  0  0  0  0  0  0  0  0  0  0  0
   -3.0830   24.7850  -29.9970 N   0  0  0  0  0  0  0  0  0  0  0  0
   -3.9940   23.8260  -30.3030 C   0  0  0  0  0  0  0  0  0  0  0  0
   -4.8740   23.9860  -31.2390 N   0  0  0  0  0  0  0  0  0  0  0  0
   -5.8320   23.0030  -31.5750 C   0  0  0  0  0  0  0  0  0  0  0  0
   -7.1650   23.0830  -31.2170 C   0  0  0  0  0  0  0  0  0  0  0  0
   -8.0370   22.0780  -31.5870 C   0  0  0  0  0  0  0  0  0  0  0  0
   -7.5520   20.9910  -32.3210 C   0  0  0  0  0  0  0  0  0  0  0  0
   -8.4150   19.9630  -32.7060 O   0  0  0  0  0  0  0  0  0  0  0  0
   -6.2360   20.8920  -32.6870 C   0  0  0  0  0  0  0  0  0  0  0  0
   -5.3870   21.9070  -32.3070 C   0  0  0  0  0  0  0  0  0  0  0  0
   -4.0310   22.6520  -29.6460 N   0  0  0  0  0  0  0  0  0  0  0  0
   -3.1794   21.2813  -26.8297 H   0  0  0  0  0  0  0  0  0  0  0  0
   -4.0917   20.5261  -28.1803 H   0  0  0  0  0  0  0  0  0  0  0  0
   -2.2957   20.4928  -28.1803 H   0  0  0  0  0  0  0  0  0  0  0  0
   -1.5136   23.1366  -27.5281 H   0  0  0  0  0  0  0  0  0  0  0  0
   -0.4386   24.2483  -27.2893 H   0  0  0  0  0  0  0  0  0  0  0  0
    0.6453   25.4422  -28.0991 H   0  0  0  0  0  0  0  0  0  0  0  0
   -1.1033   24.9574  -24.9568 H   0  0  0  0  0  0  0  0  0  0  0  0
   -1.3870   26.8548  -23.3993 H   0  0  0  0  0  0  0  0  0  0  0  0
   -0.9663   29.2185  -24.3716 H   0  0  0  0  0  0  0  0  0  0  0  0
   -3.0960   25.6730  -30.5340 H   0  0  0  0  0  0  0  0  0  0  0  0
   -7.5300   23.9448  -30.6390 H   0  0  0  0  0  0  0  0  0  0  0  0
   -9.0996   22.1319  -31.3079 H   0  0  0  0  0  0  0  0  0  0  0  0
   -8.4260   19.7470  -33.7050 H   0  0  0  0  0  0  0  0  0  0  0  0
   -5.8698   20.0307  -33.2650 H   0  0  0  0  0  0  0  0  0  0  0  0
   -4.3257   21.8496  -32.5905 H   0  0  0  0  0  0  0  0  0  0  0  0
   -4.7510   21.9130  -29.9000 H   0  0  0  0  0  0  0  0  0  0  0  0
  1  2  1  0
  2  3  2  0
  3  4  1  0
  4  5  2  0
  5  6  1  0
  6  7  1  0
  7  8  2  0
  8  9  1  0
  9 10  2  0
 10 11  1  0
  4 12  1  0
 12 13  1  0
 13 14  2  0
 14 15  1  0
 15 16  2  0
 16 17  1  0
 17 18  2  0
 18 19  1  0
 18 20  1  0
 20 21  2  0
 13 22  1  0
 22  2  1  0
 11  7  1  0
 21 15  1  0
  1 23  1  0
  1 24  1  0
  1 25  1  0
  3 26  1  0
  6 27  1  0
  6 28  1  0
  8 29  1  0
  9 30  1  0
 10 31  1  0
 12 32  1  0
 16 33  1  0
 17 34  1  0
 19 35  1  0
 20 36  1  0
 21 37  1  0
 22 38  1  0
M  END
>  <smiles>  (42) 
Cc1cc(=NCc2cccs2)[nH]c(=Nc2ccc(O)cc2)[nH]1

>  <score_type>  (42) 
oracle

>  <origin>  (42) 
adgpu

>  <m_score__min__energy>  (42) 
-8.0999999999999996

>  <m_primary>  (42) 
energy

$$$$
42:0
     RDKit          3D

 52 55  0  0  0  0  0  0  0  0999 V2000
   -0.4490   23.3200  -24.5380 C   0  0  0  0  0  0  0  0  0  0  0  0
   -0.4240   23.9610  -25.9320 C   0  0  1  0  0  0  0  0  0  0  0  0
   -0.5810   22.8730  -27.0250 C   0  0  0  0  0  0  0  0  0  0  0  0
   -1.1080   23.4690  -28.3350 C   0  0  0  0  0  0  0  0  0  0  0  0
   -2.5170   24.0960  -28.1520 C   0  0  1  0  0  0  0  0  0  0  0  0
   -2.7760   24.5990  -26.7070 C   0  0  0  0  0  0  0  0  0  0  0  0
   -1.4820   25.0920  -26.0490 C   0  0  0  0  0  0  0  0  0  0  0  0
   -2.6810   25.2050  -29.0990 N   0  0  0  0  0  0  0  0  0  0  0  0
   -3.7670   24.8830  -29.9590 C   0  0  0  0  0  0  0  0  0  0  0  0
   -4.1780   25.6620  -30.8590 O   0  0  0  0  0  0  0  0  0  0  0  0
   -4.3630   23.6290  -29.6690 N   0  0  0  0  0  0  0  0  0  0  0  0
   -5.4250   22.9640  -30.3760 C   0  0  0  0  0  0  0  0  0  0  0  0
   -6.7650   23.2910  -30.1120 C   0  0  0  0  0  0  0  0  0  0  0  0
   -7.7970   22.6380  -30.7920 C   0  0  0  0  0  0  0  0  0  0  0  0
   -7.5020   21.6520  -31.7340 C   0  0  0  0  0  0  0  0  0  0  0  0
   -6.1700   21.3090  -32.0020 C   0  0  0  0  0  0  0  0  0  0  0  0
   -5.7940   20.0380  -33.1660 S   0  0  0  0  0  0  0  0  0  0  0  0
   -4.4910   20.3690  -33.8390 O   0  0  0  0  0  0  0  0  0  0  0  0
   -6.8610   20.0080  -34.2250 O   0  0  0  0  0  0  0  0  0  0  0  0
   -5.6740   18.4560  -32.4220 N   0  0  0  0  0  0  0  0  0  0  0  0
   -4.4750   17.7160  -32.8580 C   0  0  0  0  0  0  0  0  0  0  0  0
   -4.6670   16.9980  -34.2170 C   0  0  0  0  0  0  0  0  0  0  0  0
   -6.0050   17.0100  -34.6720 O   0  0  0  0  0  0  0  0  0  0  0  0
   -6.8640   16.6020  -33.6340 C   0  0  0  0  0  0  0  0  0  0  0  0
   -6.9240   17.6740  -32.5320 C   0  0  0  0  0  0  0  0  0  0  0  0
   -5.1350   21.9740  -31.3300 C   0  0  0  0  0  0  0  0  0  0  0  0
   -3.6020   23.1350  -28.5730 C   0  0  0  0  0  0  0  0  0  0  0  0
   -3.7850   22.0000  -28.0570 O   0  0  0  0  0  0  0  0  0  0  0  0
   -0.4183   24.1082  -23.7714 H   0  0  0  0  0  0  0  0  0  0  0  0
   -1.3708   22.7311  -24.4217 H   0  0  0  0  0  0  0  0  0  0  0  0
    0.4241   22.6611  -24.4217 H   0  0  0  0  0  0  0  0  0  0  0  0
    0.5537   24.4401  -26.0887 H   0  0  0  0  0  0  0  0  0  0  0  0
    0.3987   22.4089  -27.2115 H   0  0  0  0  0  0  0  0  0  0  0  0
   -1.3051   22.1257  -26.6684 H   0  0  0  0  0  0  0  0  0  0  0  0
   -0.4121   24.2489  -28.6778 H   0  0  0  0  0  0  0  0  0  0  0  0
   -1.1855   22.6587  -29.0749 H   0  0  0  0  0  0  0  0  0  0  0  0
   -3.4993   25.4271  -26.7400 H   0  0  0  0  0  0  0  0  0  0  0  0
   -3.1705   23.7614  -26.1131 H   0  0  0  0  0  0  0  0  0  0  0  0
   -1.0636   25.9089  -26.6553 H   0  0  0  0  0  0  0  0  0  0  0  0
   -1.7261   25.4367  -25.0333 H   0  0  0  0  0  0  0  0  0  0  0  0
   -7.0035   24.0643  -29.3669 H   0  0  0  0  0  0  0  0  0  0  0  0
   -8.8443   22.9022  -30.5839 H   0  0  0  0  0  0  0  0  0  0  0  0
   -8.3175   21.1423  -32.2680 H   0  0  0  0  0  0  0  0  0  0  0  0
   -3.6399   18.4258  -32.9516 H   0  0  0  0  0  0  0  0  0  0  0  0
   -4.2737   16.9420  -32.1028 H   0  0  0  0  0  0  0  0  0  0  0  0
   -4.0384   17.4986  -34.9681 H   0  0  0  0  0  0  0  0  0  0  0  0
   -4.3817   15.9455  -34.0723 H   0  0  0  0  0  0  0  0  0  0  0  0
   -7.8738   16.4439  -34.0407 H   0  0  0  0  0  0  0  0  0  0  0  0
   -6.4794   15.6671  -33.2005 H   0  0  0  0  0  0  0  0  0  0  0  0
   -7.7508   18.3636  -32.7576 H   0  0  0  0  0  0  0  0  0  0  0  0
   -7.0742   17.1548  -31.5739 H   0  0  0  0  0  0  0  0  0  0  0  0
   -4.0881   21.7189  -31.5512 H   0  0  0  0  0  0  0  0  0  0  0  0
  1  2  1  0
  2  3  1  0
  3  4  1  0
  4  5  1  0
  5  6  1  0
  6  7  1  0
  5  8  1  6
  8  9  1  0
  9 10  2  0
  9 11  1  0
 11 12  1  0
 12 13  2  0
 13 14  1  0
 14 15  2  0
 15 16  1  0
 16 17  1  0
 17 18  2  0
 17 19  2  0
 17 20  1  0
 20 21  1  0
 21 22  1  0
 22 23  1  0
 23 24  1  0
 24 25  1  0
 16 26  2  0
 11 27  1  0
 27 28  2  0
  7  2  1  0
 26 12  1  0
 27  5  1  0
 25 20  1  0
  1 29  1  0
  1 30  1  0
  1 31  1  0
  2 32  1  6
  3 33  1  0
  3 34  1  0
  4 35  1  0
  4 36  1  0
  6 37  1  0
  6 38  1  0
  7 39  1  0
  7 40  1  0
 13 41  1  0
 14 42  1  0
 15 43  1  0
 21 44  1  0
 21 45  1  0
 22 46  1  0
 22 47  1  0
 24 48  1  0
 24 49  1  0
 25 50  1  0
 25 51  1  0
 26 52  1  0
M  CHG  1   8  -1
M  END
>  <UniqueID>  (43) 
38

>  <SMILES>  (43) 
CC1CCC2(CC1)[N-]C(=O)N(c1cccc(S(=O)(=O)N3CCOCC3)c1)C2=O

>  <Energy>  (43) 
90.07558483818659

>  <Genealogy>  (43) 
CC1CCC2(CC1)[N-]C(=O)N(c1cccc(S(=O)(=O)N3CCOCC3)c1)C2=O (protonated)
CC1CCC2(CC1)[N-]C(=O)N(c1cccc(S(=O)(=O)N3CCOCC3)c1)C2=O (3D coordinates assigned)
CC1CCC2(CC1)[N-]C(=O)N(c1cccc(S(=O)(=O)N3CCOCC3)c1)C2=O (nonaromatic ring conformer: 90.07558483818659 kcal/mol)

>  <smiles>  (43) 
CC1CCC2(CC1)NC(=O)N(c1cccc(S(=O)(=O)N3CCOCC3)c1)C2=O

>  <score_type>  (43) 
oracle

>  <origin>  (43) 
adgpu

>  <m_score__min__energy>  (43) 
-10.99

>  <m_primary>  (43) 
energy

$$$$
43:0
     RDKit          3D

 64 67  0  0  0  0  0  0  0  0999 V2000
   -3.8590   25.3270  -30.4590 N   0  0  0  0  0  0  0  0  0  0  0  0
   -4.1240   23.9570  -30.7580 C   0  0  0  0  0  0  0  0  0  0  0  0
   -5.0770   23.6710  -31.5320 O   0  0  0  0  0  0  0  0  0  0  0  0
   -3.2910   22.8820  -30.1680 C   0  0  0  0  0  0  0  0  0  0  0  0
   -1.9970   23.1590  -29.6920 C   0  0  0  0  0  0  0  0  0  0  0  0
   -1.2130   22.1430  -29.1360 C   0  0  0  0  0  0  0  0  0  0  0  0
   -1.7030   20.8310  -29.0580 C   0  0  0  0  0  0  0  0  0  0  0  0
   -0.8900   19.7570  -28.4580 C   0  0  0  0  0  0  0  0  0  0  0  0
   -0.4920   19.8820  -27.2700 O   0  0  0  0  0  0  0  0  0  0  0  0
   -0.5540   18.5610  -29.1760 N   0  0  0  0  0  0  0  0  0  0  0  0
    0.4290   18.4590  -30.2570 C   0  0  0  0  0  0  0  0  0  0  0  0
    1.1210   19.8230  -30.5020 C   0  0  0  0  0  0  0  0  0  0  0  0
    0.4960   20.5660  -31.6870 C   0  0  0  0  0  0  0  0  0  0  0  0
    0.6400   19.7970  -32.9450 N   0  0  0  0  0  0  0  0  0  0  0  0
   -0.4740   20.4080  -34.1440 S   0  0  0  0  0  0  0  0  0  0  0  0
   -0.3330   21.9000  -34.2550 O   0  0  0  0  0  0  0  0  0  0  0  0
   -0.1690   19.7910  -35.4810 O   0  0  0  0  0  0  0  0  0  0  0  0
   -2.1300   20.0370  -33.6670 C   0  0  0  0  0  0  0  0  0  0  0  0
   -2.5320   18.7000  -33.5540 C   0  0  0  0  0  0  0  0  0  0  0  0
   -3.8470   18.3880  -33.1990 C   0  0  0  0  0  0  0  0  0  0  0  0
   -4.7730   19.4120  -32.9530 C   0  0  0  0  0  0  0  0  0  0  0  0
   -6.4390   19.0140  -32.5250 S   0  0  0  0  0  0  0  0  0  0  0  0
   -7.0260   18.1360  -33.5950 O   0  0  0  0  0  0  0  0  0  0  0  0
   -6.4500   18.2440  -31.2330 O   0  0  0  0  0  0  0  0  0  0  0  0
   -7.4200   20.4500  -32.3590 N   0  0  0  0  0  0  0  0  0  0  0  0
   -7.0360   21.1940  -31.1480 C   0  0  0  0  0  0  0  0  0  0  0  0
   -7.7170   22.5760  -31.1300 C   0  0  0  0  0  0  0  0  0  0  0  0
   -8.9990   22.6100  -31.9800 C   0  0  0  0  0  0  0  0  0  0  0  0
   -9.7480   21.2760  -31.9010 C   0  0  0  0  0  0  0  0  0  0  0  0
   -8.8520   20.0900  -32.3250 C   0  0  0  0  0  0  0  0  0  0  0  0
   -4.3690   20.7490  -33.0620 C   0  0  0  0  0  0  0  0  0  0  0  0
   -3.0550   21.0610  -33.4210 C   0  0  0  0  0  0  0  0  0  0  0  0
    0.4990   18.3280  -32.7870 C   0  0  0  0  0  0  0  0  0  0  0  0
   -0.2760   17.9320  -31.5230 C   0  0  0  0  0  0  0  0  0  0  0  0
   -3.0010   20.5560  -29.5090 C   0  0  0  0  0  0  0  0  0  0  0  0
   -3.7870   21.5700  -30.0660 C   0  0  0  0  0  0  0  0  0  0  0  0
   -3.5400   25.9870  -31.2040 H   0  0  0  0  0  0  0  0  0  0  0  0
   -1.5986   24.1822  -29.7575 H   0  0  0  0  0  0  0  0  0  0  0  0
   -0.2063   22.3741  -28.7577 H   0  0  0  0  0  0  0  0  0  0  0  0
    1.2225   17.7507  -29.9763 H   0  0  0  0  0  0  0  0  0  0  0  0
    1.0199   20.4423  -29.5985 H   0  0  0  0  0  0  0  0  0  0  0  0
    2.1802   19.6357  -30.7325 H   0  0  0  0  0  0  0  0  0  0  0  0
   -0.5736   20.7252  -31.4855 H   0  0  0  0  0  0  0  0  0  0  0  0
    1.0183   21.5266  -31.8072 H   0  0  0  0  0  0  0  0  0  0  0  0
   -1.8098   17.8926  -33.7454 H   0  0  0  0  0  0  0  0  0  0  0  0
   -4.1567   17.3361  -33.1123 H   0  0  0  0  0  0  0  0  0  0  0  0
   -7.3463   20.6251  -30.2591 H   0  0  0  0  0  0  0  0  0  0  0  0
   -5.9448   21.3331  -31.1449 H   0  0  0  0  0  0  0  0  0  0  0  0
   -7.9753   22.8289  -30.0911 H   0  0  0  0  0  0  0  0  0  0  0  0
   -7.0114   23.3029  -31.5586 H   0  0  0  0  0  0  0  0  0  0  0  0
   -9.6542   23.4125  -31.6102 H   0  0  0  0  0  0  0  0  0  0  0  0
   -8.7189   22.7921  -33.0280 H   0  0  0  0  0  0  0  0  0  0  0  0
  -10.0836   21.1166  -30.8656 H   0  0  0  0  0  0  0  0  0  0  0  0
  -10.6037   21.3224  -32.5907 H   0  0  0  0  0  0  0  0  0  0  0  0
   -8.9925   19.2673  -31.6084 H   0  0  0  0  0  0  0  0  0  0  0  0
   -9.1474   19.7935  -33.3422 H   0  0  0  0  0  0  0  0  0  0  0  0
   -5.0892   21.5566  -32.8642 H   0  0  0  0  0  0  0  0  0  0  0  0
   -2.7458   22.1128  -33.5108 H   0  0  0  0  0  0  0  0  0  0  0  0
   -0.0338   17.9308  -33.6636 H   0  0  0  0  0  0  0  0  0  0  0  0
    1.5118   17.9083  -32.6967 H   0  0  0  0  0  0  0  0  0  0  0  0
   -1.2894   18.3569  -31.5741 H   0  0  0  0  0  0  0  0  0  0  0  0
   -0.3216   16.8343  -31.4684 H   0  0  0  0  0  0  0  0  0  0  0  0
   -3.4043   19.5361  -29.4244 H   0  0  0  0  0  0  0  0  0  0  0  0
   -4.8003   21.3396  -30.4268 H   0  0  0  0  0  0  0  0  0  0  0  0
  1  2  1  0
  2  3  2  0
  2  4  1  0
  4  5  2  0
  5  6  1  0
  6  7  2  0
  7  8  1  0
  8  9  2  0
  8 10  1  0
 10 11  1  0
 11 12  1  0
 12 13  1  0
 13 14  1  0
 14 15  1  0
 15 16  2  0
 15 17  2  0
 15 18  1  0
 18 19  2  0
 19 20  1  0
 20 21  2  0
 21 22  1  0
 22 23  2  0
 22 24  2  0
 22 25  1  0
 25 26  1  0
 26 27  1  0
 27 28  1  0
 28 29  1  0
 29 30  1  0
 21 31  1  0
 31 32  2  0
 14 33  1  0
 33 34  1  0
  7 35  1  0
 35 36  2  0
 36  4  1  0
 34 11  1  0
 32 18  1  0
 30 25  1  0
  1 37  1  0
  5 38  1  0
  6 39  1  0
 11 40  1  0
 12 41  1  0
 12 42  1  0
 13 43  1  0
 13 44  1  0
 19 45  1  0
 20 46  1  0
 26 47  1  0
 26 48  1  0
 27 49  1  0
 27 50  1  0
 28 51  1  0
 28 52  1  0
 29 53  1  0
 29 54  1  0
 30 55  1  0
 30 56  1  0
 31 57  1  0
 32 58  1  0
 33 59  1  0
 33 60  1  0
 34 61  1  0
 34 62  1  0
 35 63  1  0
 36 64  1  0
M  CHG  2   1  -1  10  -1
M  END
>  <UniqueID>  (44) 
39

>  <SMILES>  (44) 
[NH-]C(=O)c1ccc(C(=O)[N-]C2CCN(S(=O)(=O)c3ccc(S(=O)(=O)N4CCCCC4)cc3)CC2)cc1

>  <Energy>  (44) 
78.91339085225054

>  <Genealogy>  (44) 
[NH-]C(=O)c1ccc(C(=O)[N-]C2CCN(S(=O)(=O)c3ccc(S(=O)(=O)N4CCCCC4)cc3)CC2)cc1 (protonated)
[NH-]C(=O)c1ccc(C(=O)[N-]C2CCN(S(=O)(=O)c3ccc(S(=O)(=O)N4CCCCC4)cc3)CC2)cc1 (3D coordinates assigned)
[NH-]C(=O)c1ccc(C(=O)[N-]C2CCN(S(=O)(=O)c3ccc(S(=O)(=O)N4CCCCC4)cc3)CC2)cc1 (nonaromatic ring conformer: 78.91339085225054 kcal/mol)

>  <smiles>  (44) 
NC(=O)c1ccc(C(=O)NC2CCN(S(=O)(=O)c3ccc(S(=O)(=O)N4CCCCC4)cc3)CC2)cc1

>  <score_type>  (44) 
oracle

>  <origin>  (44) 
adgpu

>  <m_score__min__energy>  (44) 
-13.68

>  <m_primary>  (44) 
energy

$$$$
44:0
     RDKit          3D

 60 63  0  0  0  0  0  0  0  0999 V2000
   -1.2910   21.6760  -26.3670 C   0  0  0  0  0  0  0  0  0  0  0  0
   -1.9010   22.4760  -27.4900 C   0  0  0  0  0  0  0  0  0  0  0  0
   -3.0310   21.9410  -28.1330 C   0  0  0  0  0  0  0  0  0  0  0  0
   -3.6650   22.6360  -29.1570 C   0  0  0  0  0  0  0  0  0  0  0  0
   -3.2010   23.8970  -29.5450 C   0  0  0  0  0  0  0  0  0  0  0  0
   -3.8720   24.6470  -30.5670 N   0  0  0  0  0  0  0  0  0  0  0  0
   -5.1700   25.2430  -30.4430 C   0  0  0  0  0  0  0  0  0  0  0  0
   -5.2760   26.4950  -30.5130 O   0  0  0  0  0  0  0  0  0  0  0  0
   -6.3530   24.4520  -30.2450 N   0  0  0  0  0  0  0  0  0  0  0  0
   -6.7110   23.2830  -30.9940 C   0  0  0  0  0  0  0  0  0  0  0  0
   -8.0660   23.0070  -31.2150 C   0  0  0  0  0  0  0  0  0  0  0  0
   -8.4440   21.8990  -31.9770 C   0  0  0  0  0  0  0  0  0  0  0  0
   -7.4700   21.0550  -32.5190 C   0  0  0  0  0  0  0  0  0  0  0  0
   -6.1120   21.3090  -32.2880 C   0  0  0  0  0  0  0  0  0  0  0  0
   -4.8910   20.2310  -32.9580 S   0  0  0  0  0  0  0  0  0  0  0  0
   -5.3850   19.6360  -34.2480 O   0  0  0  0  0  0  0  0  0  0  0  0
   -4.6350   19.1150  -31.9850 O   0  0  0  0  0  0  0  0  0  0  0  0
   -3.4160   21.1260  -33.2220 N   0  0  0  0  0  0  0  0  0  0  0  0
   -2.4470   20.3310  -33.9770 C   0  0  0  0  0  0  0  0  0  0  0  0
   -1.0730   20.8530  -33.5940 C   0  0  0  0  0  0  0  0  0  0  0  0
   -1.2630   21.5290  -32.2430 C   0  0  0  0  0  0  0  0  0  0  0  0
   -2.7570   21.4580  -31.9570 C   0  0  0  0  0  0  0  0  0  0  0  0
   -5.7360   22.4070  -31.5040 C   0  0  0  0  0  0  0  0  0  0  0  0
   -2.0660   24.4410  -28.9280 C   0  0  0  0  0  0  0  0  0  0  0  0
   -1.6210   25.6930  -29.3420 O   0  0  0  0  0  0  0  0  0  0  0  0
   -1.4000   23.7470  -27.8940 C   0  0  0  0  0  0  0  0  0  0  0  0
    0.0480   24.4890  -27.1500 S   0  0  0  0  0  0  0  0  0  0  0  0
    1.0640   24.8510  -28.1970 O   0  0  0  0  0  0  0  0  0  0  0  0
    0.7030   23.4810  -26.2450 O   0  0  0  0  0  0  0  0  0  0  0  0
   -0.3450   25.9320  -26.2380 N   0  0  0  0  0  0  0  0  0  0  0  0
   -1.2180   25.6170  -25.0920 C   0  0  0  0  0  0  0  0  0  0  0  0
   -1.2550   26.7990  -24.1050 C   0  0  0  0  0  0  0  0  0  0  0  0
    0.0160   27.1910  -23.5930 O   0  0  0  0  0  0  0  0  0  0  0  0
    1.1120   26.6910  -24.3440 C   0  0  0  0  0  0  0  0  0  0  0  0
    0.8520   26.7190  -25.8610 C   0  0  0  0  0  0  0  0  0  0  0  0
   -1.6110   22.0957  -25.4019 H   0  0  0  0  0  0  0  0  0  0  0  0
   -1.6227   20.6297  -26.4399 H   0  0  0  0  0  0  0  0  0  0  0  0
   -0.1943   21.7189  -26.4399 H   0  0  0  0  0  0  0  0  0  0  0  0
   -3.4187   20.9597  -27.8219 H   0  0  0  0  0  0  0  0  0  0  0  0
   -4.5347   22.1923  -29.6638 H   0  0  0  0  0  0  0  0  0  0  0  0
   -8.8360   23.6656  -30.7867 H   0  0  0  0  0  0  0  0  0  0  0  0
   -9.5099   21.6901  -32.1509 H   0  0  0  0  0  0  0  0  0  0  0  0
   -7.7707   20.1898  -33.1281 H   0  0  0  0  0  0  0  0  0  0  0  0
   -2.5377   19.2675  -33.7110 H   0  0  0  0  0  0  0  0  0  0  0  0
   -2.6185   20.4166  -35.0602 H   0  0  0  0  0  0  0  0  0  0  0  0
   -0.3547   20.0239  -33.5125 H   0  0  0  0  0  0  0  0  0  0  0  0
   -0.6731   21.5473  -34.3476 H   0  0  0  0  0  0  0  0  0  0  0  0
   -0.6971   20.9968  -31.4642 H   0  0  0  0  0  0  0  0  0  0  0  0
   -0.8989   22.5669  -32.2521 H   0  0  0  0  0  0  0  0  0  0  0  0
   -2.9623   20.6794  -31.2076 H   0  0  0  0  0  0  0  0  0  0  0  0
   -3.1278   22.4138  -31.5584 H   0  0  0  0  0  0  0  0  0  0  0  0
   -4.6726   22.5851  -31.2860 H   0  0  0  0  0  0  0  0  0  0  0  0
   -2.2364   25.4169  -25.4563 H   0  0  0  0  0  0  0  0  0  0  0  0
   -0.8214   24.7315  -24.5738 H   0  0  0  0  0  0  0  0  0  0  0  0
   -1.6965   27.6633  -24.6228 H   0  0  0  0  0  0  0  0  0  0  0  0
   -1.8461   26.4619  -23.2407 H   0  0  0  0  0  0  0  0  0  0  0  0
    1.9977   27.3062  -24.1269 H   0  0  0  0  0  0  0  0  0  0  0  0
    1.2653   25.6417  -24.0515 H   0  0  0  0  0  0  0  0  0  0  0  0
    0.7035   27.7625  -26.1758 H   0  0  0  0  0  0  0  0  0  0  0  0
    1.7227   26.2701  -26.3613 H   0  0  0  0  0  0  0  0  0  0  0  0
  1  2  1  0
  2  3  2  0
  3  4  1  0
  4  5  2  0
  5  6  1  0
  6  7  1  0
  7  8  2  0
  7  9  1  0
  9 10  1  0
 10 11  2  0
 11 12  1  0
 12 13  2  0
 13 14  1  0
 14 15  1  0
 15 16  2  0
 15 17  2  0
 15 18  1  0
 18 19  1  0
 19 20  1  0
 20 21  1  0
 21 22  1  0
 14 23  2  0
  5 24  1  0
 24 25  1  0
 24 26  2  0
 26 27  1  0
 27 28  2  0
 27 29  2  0
 27 30  1  0
 30 31  1  0
 31 32  1  0
 32 33  1  0
 33 34  1  0
 34 35  1  0
 26  2  1  0
 35 30  1  0
 23 10  1  0
 22 18  1  0
  1 36  1  0
  1 37  1  0
  1 38  1  0
  3 39  1  0
  4 40  1  0
 11 41  1  0
 12 42  1  0
 13 43  1  0
 19 44  1  0
 19 45  1  0
 20 46  1  0
 20 47  1  0
 21 48  1  0
 21 49  1  0
 22 50  1  0
 22 51  1  0
 23 52  1  0
 31 53  1  0
 31 54  1  0
 32 55  1  0
 32 56  1  0
 34 57  1  0
 34 58  1  0
 35 59  1  0
 35 60  1  0
M  CHG  3   6  -1   9  -1  25  -1
M  END
>  <UniqueID>  (45) 
40

>  <SMILES>  (45) 
Cc1ccc([N-]C(=O)[N-]c2cccc(S(=O)(=O)N3CCCC3)c2)c([O-])c1S(=O)(=O)N1CCOCC1

>  <Energy>  (45) 
85.5143469965388

>  <Genealogy>  (45) 
Cc1ccc([N-]C(=O)[N-]c2cccc(S(=O)(=O)N3CCCC3)c2)c([O-])c1S(=O)(=O)N1CCOCC1 (protonated)
Cc1ccc([N-]C(=O)[N-]c2cccc(S(=O)(=O)N3CCCC3)c2)c([O-])c1S(=O)(=O)N1CCOCC1 (3D coordinates assigned)
Cc1ccc([N-]C(=O)[N-]c2cccc(S(=O)(=O)N3CCCC3)c2)c([O-])c1S(=O)(=O)N1CCOCC1 (nonaromatic ring conformer: 85.5143469965388 kcal/mol)

>  <smiles>  (45) 
Cc1ccc(NC(=O)Nc2cccc(S(=O)(=O)N3CCCC3)c2)c(O)c1S(=O)(=O)N1CCOCC1

>  <score_type>  (45) 
oracle

>  <origin>  (45) 
adgpu

>  <m_score__min__energy>  (45) 
-17

>  <m_primary>  (45) 
energy

$$$$
45:0
     RDKit          3D

 28 29  0  0  0  0  0  0  0  0999 V2000
   -9.5200   21.9230  -30.3420 O   0  0  0  0  0  0  0  0  0  0  0  0
   -8.3280   22.1560  -31.2300 S   0  0  0  0  0  0  0  0  0  0  0  0
   -8.7210   23.1040  -32.3300 O   0  0  0  0  0  0  0  0  0  0  0  0
   -7.8380   20.6210  -31.9260 C   0  0  0  0  0  0  0  0  0  0  0  0
   -8.3520   19.3760  -31.5940 C   0  0  0  0  0  0  0  0  0  0  0  0
   -7.7850   18.3350  -32.3360 C   0  0  0  0  0  0  0  0  0  0  0  0
   -6.8270   18.7700  -33.2510 C   0  0  0  0  0  0  0  0  0  0  0  0
   -6.0500   17.9400  -34.1820 C   0  0  0  0  0  0  0  0  0  0  0  0
   -6.1130   16.3050  -34.1440 S   0  0  0  0  0  0  0  0  0  0  0  0
   -6.6900   20.4430  -33.1390 S   0  0  0  0  0  0  0  0  0  0  0  0
   -7.0120   22.8310  -30.3010 N   0  0  0  0  0  0  0  0  0  0  0  0
   -7.0320   24.3060  -30.4050 C   0  0  0  0  0  0  0  0  0  0  0  0
   -5.6450   24.8930  -30.0860 C   0  0  0  0  0  0  0  0  0  0  0  0
   -4.6090   24.4420  -30.9510 O   0  0  0  0  0  0  0  0  0  0  0  0
   -4.8940   23.2050  -31.5900 C   0  0  0  0  0  0  0  0  0  0  0  0
   -5.7120   22.2420  -30.7100 C   0  0  0  0  0  0  0  0  0  0  0  0
   -9.1253   19.2234  -30.8267 H   0  0  0  0  0  0  0  0  0  0  0  0
   -8.0665   17.2791  -32.2104 H   0  0  0  0  0  0  0  0  0  0  0  0
   -5.4070   18.4322  -34.9265 H   0  0  0  0  0  0  0  0  0  0  0  0
   -7.1860   22.5740  -29.3010 H   0  0  0  0  0  0  0  0  0  0  0  0
   -7.3186   24.5920  -31.4278 H   0  0  0  0  0  0  0  0  0  0  0  0
   -7.7587   24.7018  -29.6802 H   0  0  0  0  0  0  0  0  0  0  0  0
   -5.7075   25.9884  -30.1641 H   0  0  0  0  0  0  0  0  0  0  0  0
   -5.3825   24.5529  -29.0734 H   0  0  0  0  0  0  0  0  0  0  0  0
   -5.4641   23.4091  -32.5083 H   0  0  0  0  0  0  0  0  0  0  0  0
   -3.9312   22.7168  -31.8013 H   0  0  0  0  0  0  0  0  0  0  0  0
   -5.9030   21.3186  -31.2765 H   0  0  0  0  0  0  0  0  0  0  0  0
   -5.1303   22.0368  -29.7992 H   0  0  0  0  0  0  0  0  0  0  0  0
  1  2  2  0
  2  3  2  0
  2  4  1  0
  4  5  2  0
  5  6  1  0
  6  7  2  0
  7  8  1  0
  8  9  2  0
  7 10  1  0
  2 11  1  0
 11 12  1  0
 12 13  1  0
 13 14  1  0
 14 15  1  0
 15 16  1  0
 10  4  1  0
 16 11  1  0
  5 17  1  0
  6 18  1  0
  8 19  1  0
 11 20  1  0
 12 21  1  0
 12 22  1  0
 13 23  1  0
 13 24  1  0
 15 25  1  0
 15 26  1  0
 16 27  1  0
 16 28  1  0
M  CHG  1  11   1
M  END
>  <UniqueID>  (46) 
41

>  <SMILES>  (46) 
O=S(=O)(c1ccc(C=S)s1)[NH+]1CCOCC1

>  <Energy>  (46) 
65.03354730620633

>  <Genealogy>  (46) 
O=S(=O)(c1ccc(C=S)s1)[NH+]1CCOCC1 (protonated)
O=S(=O)(c1ccc(C=S)s1)[NH+]1CCOCC1 (3D coordinates assigned)
O=S(=O)(c1ccc(C=S)s1)[NH+]1CCOCC1 (nonaromatic ring conformer: 65.03354730620633 kcal/mol)

>  <smiles>  (46) 
O=S(=O)(c1ccc(C=S)s1)N1CCOCC1

>  <score_type>  (46) 
oracle

>  <origin>  (46) 
adgpu

>  <m_score__min__energy>  (46) 
-6.6500000000000004

>  <m_primary>  (46) 
energy

$$$$
46:0
     RDKit          3D

 76 80  0  0  0  0  0  0  0  0999 V2000
    0.4700   15.2920  -32.5390 C   0  0  0  0  0  0  0  0  0  0  0  0
    1.6080   15.8750  -33.3690 C   0  0  0  0  0  0  0  0  0  0  0  0
    1.1490   17.0400  -34.1340 N   0  0  0  0  0  0  0  0  0  0  0  0
    2.1040   17.8590  -34.8870 C   0  0  0  0  0  0  0  0  0  0  0  0
    1.5650   19.2480  -35.1130 C   0  0  0  0  0  0  0  0  0  0  0  0
    1.8570   20.2830  -34.2060 C   0  0  0  0  0  0  0  0  0  0  0  0
    1.3500   21.5670  -34.4160 C   0  0  0  0  0  0  0  0  0  0  0  0
    0.5520   21.8310  -35.5320 C   0  0  0  0  0  0  0  0  0  0  0  0
    0.2560   20.8090  -36.4370 C   0  0  0  0  0  0  0  0  0  0  0  0
    0.7560   19.5200  -36.2280 C   0  0  0  0  0  0  0  0  0  0  0  0
   -0.1820   17.5300  -33.9240 C   0  0  0  0  0  0  0  0  0  0  0  0
   -1.1520   17.2100  -34.8220 N   0  0  0  0  0  0  0  0  0  0  0  0
   -2.4290   17.6570  -34.7030 C   0  0  0  0  0  0  0  0  0  0  0  0
   -2.7850   18.5010  -33.6350 C   0  0  0  0  0  0  0  0  0  0  0  0
   -4.1800   18.9620  -33.4380 C   0  0  0  0  0  0  0  0  0  0  0  0
   -5.0470   18.6580  -34.3030 O   0  0  0  0  0  0  0  0  0  0  0  0
   -4.5510   19.7620  -32.2990 N   0  0  0  0  0  0  0  0  0  0  0  0
   -5.8730   20.2890  -32.0930 C   0  0  0  0  0  0  0  0  0  0  0  0
   -6.9920   19.4400  -32.0200 C   0  0  0  0  0  0  0  0  0  0  0  0
   -8.2670   19.9710  -31.8010 C   0  0  0  0  0  0  0  0  0  0  0  0
   -8.4420   21.3510  -31.6320 C   0  0  0  0  0  0  0  0  0  0  0  0
   -9.8150   21.9220  -31.4330 C   0  0  0  0  0  0  0  0  0  0  0  0
   -7.3270   22.2000  -31.7050 C   0  0  0  0  0  0  0  0  0  0  0  0
   -6.0500   21.6710  -31.9160 C   0  0  0  0  0  0  0  0  0  0  0  0
   -4.9840   22.5120  -31.9750 F   0  0  0  0  0  0  0  0  0  0  0  0
   -1.7930   18.8590  -32.7120 C   0  0  0  0  0  0  0  0  0  0  0  0
   -0.4950   18.3450  -32.8190 C   0  0  0  0  0  0  0  0  0  0  0  0
    0.7450   18.7640  -31.5760 S   0  0  0  0  0  0  0  0  0  0  0  0
   -0.2550   20.0400  -30.7980 C   0  0  0  0  0  0  0  0  0  0  0  0
   -0.3200   21.3130  -31.3790 C   0  0  0  0  0  0  0  0  0  0  0  0
   -1.1380   22.2990  -30.8250 C   0  0  0  0  0  0  0  0  0  0  0  0
   -1.9010   22.0200  -29.6810 C   0  0  0  0  0  0  0  0  0  0  0  0
   -2.9880   23.2400  -29.0200 S   0  0  0  0  0  0  0  0  0  0  0  0
   -4.3820   22.6790  -28.9520 O   0  0  0  0  0  0  0  0  0  0  0  0
   -3.0020   24.4210  -29.9510 O   0  0  0  0  0  0  0  0  0  0  0  0
   -2.4460   23.7670  -27.4350 N   0  0  0  0  0  0  0  0  0  0  0  0
   -2.2310   25.2250  -27.3740 C   0  0  0  0  0  0  0  0  0  0  0  0
   -0.9430   25.6610  -28.1130 C   0  0  0  0  0  0  0  0  0  0  0  0
   -0.0560   24.5870  -28.3760 O   0  0  0  0  0  0  0  0  0  0  0  0
    0.0610   23.7640  -27.2390 C   0  0  0  0  0  0  0  0  0  0  0  0
   -1.2580   23.0110  -26.9810 C   0  0  0  0  0  0  0  0  0  0  0  0
   -1.8120   20.7560  -29.0800 C   0  0  0  0  0  0  0  0  0  0  0  0
   -0.9750   19.7770  -29.6250 C   0  0  0  0  0  0  0  0  0  0  0  0
    0.6988   15.4092  -31.4695 H   0  0  0  0  0  0  0  0  0  0  0  0
   -0.4645   15.8224  -32.7743 H   0  0  0  0  0  0  0  0  0  0  0  0
    0.3545   14.2237  -32.7743 H   0  0  0  0  0  0  0  0  0  0  0  0
    2.4235   16.1824  -32.6979 H   0  0  0  0  0  0  0  0  0  0  0  0
    1.9614   15.1070  -34.0728 H   0  0  0  0  0  0  0  0  0  0  0  0
    3.0448   17.9261  -34.3210 H   0  0  0  0  0  0  0  0  0  0  0  0
    2.2753   17.3864  -35.8654 H   0  0  0  0  0  0  0  0  0  0  0  0
    2.4874   20.0799  -33.3277 H   0  0  0  0  0  0  0  0  0  0  0  0
    1.5792   22.3717  -33.7019 H   0  0  0  0  0  0  0  0  0  0  0  0
    0.1567   22.8440  -35.6980 H   0  0  0  0  0  0  0  0  0  0  0  0
   -0.3716   21.0186  -37.3157 H   0  0  0  0  0  0  0  0  0  0  0  0
    0.5148   18.7164  -36.9394 H   0  0  0  0  0  0  0  0  0  0  0  0
   -3.1863   17.3586  -35.4429 H   0  0  0  0  0  0  0  0  0  0  0  0
   -3.8210   20.0250  -31.6000 H   0  0  0  0  0  0  0  0  0  0  0  0
   -6.8637   18.3537  -32.1357 H   0  0  0  0  0  0  0  0  0  0  0  0
   -9.1384   19.3009  -31.7611 H   0  0  0  0  0  0  0  0  0  0  0  0
  -10.0235   22.0087  -30.3564 H   0  0  0  0  0  0  0  0  0  0  0  0
   -9.8692   22.9173  -31.8983 H   0  0  0  0  0  0  0  0  0  0  0  0
  -10.5590   21.2587  -31.8983 H   0  0  0  0  0  0  0  0  0  0  0  0
   -7.4582   23.2867  -31.5957 H   0  0  0  0  0  0  0  0  0  0  0  0
   -2.0371   19.5522  -31.8936 H   0  0  0  0  0  0  0  0  0  0  0  0
    0.2763   21.5366  -32.2759 H   0  0  0  0  0  0  0  0  0  0  0  0
   -1.1846   23.2966  -31.2861 H   0  0  0  0  0  0  0  0  0  0  0  0
   -3.0921   25.7291  -27.8370 H   0  0  0  0  0  0  0  0  0  0  0  0
   -2.1225   25.5048  -26.3157 H   0  0  0  0  0  0  0  0  0  0  0  0
   -1.2286   26.1203  -29.0708 H   0  0  0  0  0  0  0  0  0  0  0  0
   -0.4138   26.3669  -27.4560 H   0  0  0  0  0  0  0  0  0  0  0  0
    0.8685   23.0349  -27.4013 H   0  0  0  0  0  0  0  0  0  0  0  0
    0.2885   24.3932  -26.3659 H   0  0  0  0  0  0  0  0  0  0  0  0
   -1.2258   22.0511  -27.5173 H   0  0  0  0  0  0  0  0  0  0  0  0
   -1.3512   22.8674  -25.8944 H   0  0  0  0  0  0  0  0  0  0  0  0
   -2.4016   20.5342  -28.1783 H   0  0  0  0  0  0  0  0  0  0  0  0
   -0.8817   18.7983  -29.1317 H   0  0  0  0  0  0  0  0  0  0  0  0
  1  2  1  0
  2  3  1  0
  3  4  1  0
  4  5  1  0
  5  6  2  0
  6  7  1  0
  7  8  2  0
  8  9  1  0
  9 10  2  0
  3 11  1  0
 11 12  2  0
 12 13  1  0
 13 14  2  0
 14 15  1  0
 15 16  2  0
 15 17  1  0
 17 18  1  0
 18 19  2  0
 19 20  1  0
 20 21  2  0
 21 22  1  0
 21 23  1  0
 23 24  2  0
 24 25  1  0
 14 26  1  0
 26 27  2  0
 27 28  1  0
 28 29  1  0
 29 30  2  0
 30 31  1  0
 31 32  2  0
 32 33  1  0
 33 34  2  0
 33 35  2  0
 33 36  1  0
 36 37  1  0
 37 38  1  0
 38 39  1  0
 39 40  1  0
 40 41  1  0
 32 42  1  0
 42 43  2  0
 10  5  1  0
 27 11  1  0
 43 29  1  0
 24 18  1  0
 41 36  1  0
  1 44  1  0
  1 45  1  0
  1 46  1  0
  2 47  1  0
  2 48  1  0
  4 49  1  0
  4 50  1  0
  6 51  1  0
  7 52  1  0
  8 53  1  0
  9 54  1  0
 10 55  1  0
 13 56  1  0
 17 57  1  0
 19 58  1  0
 20 59  1  0
 22 60  1  0
 22 61  1  0
 22 62  1  0
 23 63  1  0
 26 64  1  0
 30 65  1  0
 31 66  1  0
 37 67  1  0
 37 68  1  0
 38 69  1  0
 38 70  1  0
 40 71  1  0
 40 72  1  0
 41 73  1  0
 41 74  1  0
 42 75  1  0
 43 76  1  0
M  END
>  <UniqueID>  (47) 
42

>  <SMILES>  (47) 
CCN(Cc1ccccc1)c1ncc(C(=O)Nc2ccc(C)cc2F)cc1Sc1ccc(S(=O)(=O)N2CCOCC2)cc1

>  <Energy>  (47) 
97.71843488799196

>  <Genealogy>  (47) 
CCN(Cc1ccccc1)c1ncc(C(=O)Nc2ccc(C)cc2F)cc1Sc1ccc(S(=O)(=O)N2CCOCC2)cc1 (3D coordinates assigned)
CCN(Cc1ccccc1)c1ncc(C(=O)Nc2ccc(C)cc2F)cc1Sc1ccc(S(=O)(=O)N2CCOCC2)cc1 (nonaromatic ring conformer: 97.71843488799196 kcal/mol)

>  <smiles>  (47) 
CCN(Cc1ccccc1)c1ncc(C(=O)Nc2ccc(C)cc2F)cc1Sc1ccc(S(=O)(=O)N2CCOCC2)cc1

>  <score_type>  (47) 
oracle

>  <origin>  (47) 
adgpu

>  <m_score__min__energy>  (47) 
-11.68

>  <m_primary>  (47) 
energy

$$$$
47:0
     RDKit          3D

 35 37  0  0  0  0  0  0  0  0999 V2000
   -4.8400   23.4130  -32.3130 O   0  0  0  0  0  0  0  0  0  0  0  0
   -4.6630   22.9520  -31.1660 N   0  0  0  0  0  0  0  0  0  0  0  0
   -5.6510   22.1670  -30.6170 O   0  0  0  0  0  0  0  0  0  0  0  0
   -3.4570   23.2350  -30.4230 C   0  0  0  0  0  0  0  0  0  0  0  0
   -2.6060   22.1770  -30.0520 C   0  0  0  0  0  0  0  0  0  0  0  0
   -1.4270   22.4130  -29.3250 C   0  0  0  0  0  0  0  0  0  0  0  0
   -0.5390   21.2850  -28.9410 C   0  0  0  0  0  0  0  0  0  0  0  0
    0.6370   21.5200  -28.2080 C   0  0  0  0  0  0  0  0  0  0  0  0
    1.4720   20.4600  -27.8470 C   0  0  0  0  0  0  0  0  0  0  0  0
    1.1540   19.1440  -28.2190 C   0  0  0  0  0  0  0  0  0  0  0  0
    2.0550   18.0350  -27.8290 C   0  0  0  0  0  0  0  0  0  0  0  0
    3.4380   18.1570  -28.0460 C   0  0  0  0  0  0  0  0  0  0  0  0
    4.3050   17.1230  -27.6830 C   0  0  0  0  0  0  0  0  0  0  0  0
    3.8000   15.9550  -27.1060 C   0  0  0  0  0  0  0  0  0  0  0  0
    4.6640   14.9300  -26.7430 O   0  0  0  0  0  0  0  0  0  0  0  0
    2.4250   15.8180  -26.8960 C   0  0  0  0  0  0  0  0  0  0  0  0
    1.5460   16.8500  -27.2610 C   0  0  0  0  0  0  0  0  0  0  0  0
    0.1730   16.6900  -27.0770 O   0  0  0  0  0  0  0  0  0  0  0  0
   -0.0300   18.9010  -28.9390 C   0  0  0  0  0  0  0  0  0  0  0  0
   -0.3960   17.6040  -29.2870 O   0  0  0  0  0  0  0  0  0  0  0  0
   -0.8640   19.9650  -29.3000 C   0  0  0  0  0  0  0  0  0  0  0  0
   -1.0980   23.7290  -28.9670 C   0  0  0  0  0  0  0  0  0  0  0  0
   -1.9310   24.7900  -29.3280 C   0  0  0  0  0  0  0  0  0  0  0  0
   -1.5840   26.0870  -28.9690 O   0  0  0  0  0  0  0  0  0  0  0  0
   -3.1050   24.5530  -30.0540 C   0  0  0  0  0  0  0  0  0  0  0  0
   -3.9080   25.6350  -30.3980 O   0  0  0  0  0  0  0  0  0  0  0  0
   -2.8686   21.1473  -30.3362 H   0  0  0  0  0  0  0  0  0  0  0  0
    0.9020   22.5470  -27.9163 H   0  0  0  0  0  0  0  0  0  0  0  0
    2.3855   20.6577  -27.2670 H   0  0  0  0  0  0  0  0  0  0  0  0
    3.8406   19.0722  -28.5045 H   0  0  0  0  0  0  0  0  0  0  0  0
    5.3868   17.2288  -27.8518 H   0  0  0  0  0  0  0  0  0  0  0  0
    2.0297   14.8971  -26.4425 H   0  0  0  0  0  0  0  0  0  0  0  0
   -0.4950   16.9680  -27.7860 H   0  0  0  0  0  0  0  0  0  0  0  0
   -1.7833   19.7667  -29.8705 H   0  0  0  0  0  0  0  0  0  0  0  0
   -0.1775   23.9264  -28.3980 H   0  0  0  0  0  0  0  0  0  0  0  0
  1  2  2  0
  2  3  1  0
  2  4  1  0
  4  5  2  0
  5  6  1  0
  6  7  1  0
  7  8  2  0
  8  9  1  0
  9 10  2  0
 10 11  1  0
 11 12  2  0
 12 13  1  0
 13 14  2  0
 14 15  1  0
 14 16  1  0
 16 17  2  0
 17 18  1  0
 10 19  1  0
 19 20  1  0
 19 21  2  0
  6 22  2  0
 22 23  1  0
 23 24  1  0
 23 25  2  0
 25 26  1  0
 25  4  1  0
 21  7  1  0
 17 11  1  0
  5 27  1  0
  8 28  1  0
  9 29  1  0
 12 30  1  0
 13 31  1  0
 16 32  1  0
 18 33  1  0
 21 34  1  0
 22 35  1  0
M  CHG  6   2   1   3  -1  15  -1  20  -1  24  -1  26  -1
M  END
>  <UniqueID>  (48) 
43

>  <SMILES>  (48) 
O=[N+]([O-])c1cc(-c2ccc(-c3ccc([O-])cc3O)c([O-])c2)cc([O-])c1[O-]

>  <Energy>  (48) 
54.4333382111547

>  <Genealogy>  (48) 
O=[N+]([O-])c1cc(-c2ccc(-c3ccc([O-])cc3O)c([O-])c2)cc([O-])c1[O-] (protonated)
O=[N+]([O-])c1cc(-c2ccc(-c3ccc([O-])cc3O)c([O-])c2)cc([O-])c1[O-] (3D coordinates assigned)
O=[N+]([O-])c1cc(-c2ccc(-c3ccc([O-])cc3O)c([O-])c2)cc([O-])c1[O-] (optimized conformer: 54.4333382111547 kcal/mol)

>  <smiles>  (48) 
O=[N+]([O-])c1cc(-c2ccc(-c3ccc(O)cc3O)c(O)c2)cc(O)c1O

>  <score_type>  (48) 
oracle

>  <origin>  (48) 
adgpu

>  <m_score__min__energy>  (48) 
-12.27

>  <m_primary>  (48) 
energy

$$$$
48:0
     RDKit          3D

 47 49  0  0  0  0  0  0  0  0999 V2000
   -6.1000   18.3530  -33.3710 C   0  0  0  0  0  0  0  0  0  0  0  0
   -5.6650   19.6090  -33.8800 O   0  0  0  0  0  0  0  0  0  0  0  0
   -5.5120   20.7710  -33.1050 C   0  0  0  0  0  0  0  0  0  0  0  0
   -4.2570   21.3770  -32.9050 C   0  0  0  0  0  0  0  0  0  0  0  0
   -4.1470   22.5370  -32.1320 C   0  0  0  0  0  0  0  0  0  0  0  0
   -5.2800   23.0910  -31.5240 C   0  0  0  0  0  0  0  0  0  0  0  0
   -5.1680   24.6470  -30.7050 S   0  0  0  0  0  0  0  0  0  0  0  0
   -5.8950   24.5740  -29.3910 O   0  0  0  0  0  0  0  0  0  0  0  0
   -5.7900   25.7340  -31.5340 O   0  0  0  0  0  0  0  0  0  0  0  0
   -3.4900   24.9820  -30.4230 N   0  0  0  0  0  0  0  0  0  0  0  0
   -2.6930   24.1970  -29.5270 C   0  0  0  0  0  0  0  0  0  0  0  0
   -3.0430   22.8730  -29.2180 C   0  0  0  0  0  0  0  0  0  0  0  0
   -2.3350   22.1550  -28.2470 C   0  0  0  0  0  0  0  0  0  0  0  0
   -1.2440   22.7650  -27.5840 C   0  0  0  0  0  0  0  0  0  0  0  0
   -0.8470   24.0610  -27.9570 C   0  0  0  0  0  0  0  0  0  0  0  0
   -1.5760   24.7810  -28.9130 C   0  0  0  0  0  0  0  0  0  0  0  0
   -1.2120   26.0900  -29.2320 O   0  0  0  0  0  0  0  0  0  0  0  0
   -0.4370   22.0270  -26.5460 C   0  0  0  0  0  0  0  0  0  0  0  0
   -1.2040   20.8530  -25.9360 C   0  0  0  0  0  0  0  0  0  0  0  0
   -1.8250   19.9900  -27.0360 C   0  0  0  0  0  0  0  0  0  0  0  0
   -2.8480   20.7920  -27.8450 C   0  0  0  0  0  0  0  0  0  0  0  0
   -6.5260   22.4750  -31.6950 C   0  0  0  0  0  0  0  0  0  0  0  0
   -6.6510   21.3430  -32.5100 C   0  0  0  0  0  0  0  0  0  0  0  0
   -7.9560   20.8090  -32.7550 N   0  0  0  0  0  0  0  0  0  0  0  0
   -8.7880   20.2350  -31.7380 C   0  0  0  0  0  0  0  0  0  0  0  0
   -8.9920   18.7560  -31.6260 C   0  0  0  0  0  0  0  0  0  0  0  0
   -9.3600   20.9940  -30.9150 O   0  0  0  0  0  0  0  0  0  0  0  0
   -6.0907   18.3799  -32.2714 H   0  0  0  0  0  0  0  0  0  0  0  0
   -7.1214   18.1481  -33.7241 H   0  0  0  0  0  0  0  0  0  0  0  0
   -5.4241   17.5603  -33.7241 H   0  0  0  0  0  0  0  0  0  0  0  0
   -3.3579   20.9354  -33.3594 H   0  0  0  0  0  0  0  0  0  0  0  0
   -3.1657   23.0165  -32.0010 H   0  0  0  0  0  0  0  0  0  0  0  0
   -3.8823   22.3949  -29.7443 H   0  0  0  0  0  0  0  0  0  0  0  0
    0.0428   24.5134  -27.4948 H   0  0  0  0  0  0  0  0  0  0  0  0
   -1.2320   26.4260  -30.1870 H   0  0  0  0  0  0  0  0  0  0  0  0
    0.4791   21.6429  -27.0185 H   0  0  0  0  0  0  0  0  0  0  0  0
   -0.2071   22.7342  -25.7354 H   0  0  0  0  0  0  0  0  0  0  0  0
   -0.5123   20.2386  -25.3409 H   0  0  0  0  0  0  0  0  0  0  0  0
   -2.0075   21.2467  -25.2961 H   0  0  0  0  0  0  0  0  0  0  0  0
   -1.0299   19.6369  -27.7092 H   0  0  0  0  0  0  0  0  0  0  0  0
   -2.3373   19.1369  -26.5673 H   0  0  0  0  0  0  0  0  0  0  0  0
   -3.0972   20.2273  -28.7555 H   0  0  0  0  0  0  0  0  0  0  0  0
   -3.7305   20.9445  -27.2062 H   0  0  0  0  0  0  0  0  0  0  0  0
   -7.4119   22.8828  -31.1861 H   0  0  0  0  0  0  0  0  0  0  0  0
   -9.0314   18.4706  -30.5644 H   0  0  0  0  0  0  0  0  0  0  0  0
   -9.9370   18.4781  -32.1157 H   0  0  0  0  0  0  0  0  0  0  0  0
   -8.1575   18.2326  -32.1157 H   0  0  0  0  0  0  0  0  0  0  0  0
  1  2  1  0
  2  3  1  0
  3  4  2  0
  4  5  1  0
  5  6  2  0
  6  7  1  0
  7  8  2  0
  7  9  2  0
  7 10  1  0
 10 11  1  0
 11 12  2  0
 12 13  1  0
 13 14  2  0
 14 15  1  0
 15 16  2  0
 16 17  1  0
 14 18  1  0
 18 19  1  0
 19 20  1  0
 20 21  1  0
  6 22  1  0
 22 23  2  0
 23 24  1  0
 24 25  1  0
 25 26  1  0
 25 27  2  0
 23  3  1  0
 16 11  1  0
 21 13  1  0
  1 28  1  0
  1 29  1  0
  1 30  1  0
  4 31  1  0
  5 32  1  0
 12 33  1  0
 15 34  1  0
 17 35  1  0
 18 36  1  0
 18 37  1  0
 19 38  1  0
 19 39  1  0
 20 40  1  0
 20 41  1  0
 21 42  1  0
 21 43  1  0
 22 44  1  0
 26 45  1  0
 26 46  1  0
 26 47  1  0
M  CHG  2  10  -1  24  -1
M  END
>  <UniqueID>  (49) 
44

>  <SMILES>  (49) 
COc1ccc(S(=O)(=O)[N-]c2cc3c(cc2O)CCCC3)cc1[N-]C(C)=O

>  <Energy>  (49) 
55.46013697455003

>  <Genealogy>  (49) 
COc1ccc(S(=O)(=O)[N-]c2cc3c(cc2O)CCCC3)cc1[N-]C(C)=O (protonated)
COc1ccc(S(=O)(=O)[N-]c2cc3c(cc2O)CCCC3)cc1[N-]C(C)=O (3D coordinates assigned)
COc1ccc(S(=O)(=O)[N-]c2cc3c(cc2O)CCCC3)cc1[N-]C(C)=O (nonaromatic ring conformer: 55.46013697455003 kcal/mol)

>  <smiles>  (49) 
COc1ccc(S(=O)(=O)Nc2cc3c(cc2O)CCCC3)cc1NC(C)=O

>  <score_type>  (49) 
oracle

>  <origin>  (49) 
adgpu

>  <m_score__min__energy>  (49) 
-11.42

>  <m_primary>  (49) 
energy

$$$$
49:0
     RDKit          3D

 55 58  0  0  0  0  0  0  0  0999 V2000
   -1.9490   20.0000  -26.6450 C   0  0  0  0  0  0  0  0  0  0  0  0
   -1.0070   20.3080  -27.7340 N   0  0  0  0  0  0  0  0  0  0  0  0
   -0.1800   21.4940  -27.4280 C   0  0  0  0  0  0  0  0  0  0  0  0
   -1.0090   22.7870  -27.4400 C   0  0  0  0  0  0  0  0  0  0  0  0
   -1.9660   22.7940  -28.5520 N   0  0  0  0  0  0  0  0  0  0  0  0
   -2.8540   23.9210  -28.7040 C   0  0  0  0  0  0  0  0  0  0  0  0
   -2.5310   25.0400  -28.2200 O   0  0  0  0  0  0  0  0  0  0  0  0
   -4.1360   23.8020  -29.4270 C   0  0  0  0  0  0  0  0  0  0  0  0
   -5.0350   22.7820  -29.0810 C   0  0  0  0  0  0  0  0  0  0  0  0
   -6.2810   22.6970  -29.7070 C   0  0  0  0  0  0  0  0  0  0  0  0
   -6.6460   23.6250  -30.6880 C   0  0  0  0  0  0  0  0  0  0  0  0
   -7.9690   23.5720  -31.2350 N   0  0  0  0  0  0  0  0  0  0  0  0
   -8.8220   22.0990  -31.5740 S   0  0  0  0  0  0  0  0  0  0  0  0
   -9.4920   21.6200  -30.3170 O   0  0  0  0  0  0  0  0  0  0  0  0
   -9.8610   22.3550  -32.6260 O   0  0  0  0  0  0  0  0  0  0  0  0
   -7.6900   20.8890  -32.1760 C   0  0  0  0  0  0  0  0  0  0  0  0
   -8.0550   19.5400  -32.2390 C   0  0  0  0  0  0  0  0  0  0  0  0
   -7.1150   18.5730  -32.5960 C   0  0  0  0  0  0  0  0  0  0  0  0
   -5.7920   18.9380  -32.8840 C   0  0  0  0  0  0  0  0  0  0  0  0
   -5.4300   20.3070  -32.8690 C   0  0  0  0  0  0  0  0  0  0  0  0
   -6.3840   21.2680  -32.5050 C   0  0  0  0  0  0  0  0  0  0  0  0
   -4.0040   20.7510  -33.1020 C   0  0  0  0  0  0  0  0  0  0  0  0
   -3.1690   19.6930  -33.8290 C   0  0  0  0  0  0  0  0  0  0  0  0
   -3.3530   18.3250  -33.1730 C   0  0  0  0  0  0  0  0  0  0  0  0
   -4.8090   17.8670  -33.2980 C   0  0  0  0  0  0  0  0  0  0  0  0
   -5.7210   24.6040  -31.0840 C   0  0  0  0  0  0  0  0  0  0  0  0
   -4.4750   24.6970  -30.4570 C   0  0  0  0  0  0  0  0  0  0  0  0
   -3.5790   25.6730  -30.8740 O   0  0  0  0  0  0  0  0  0  0  0  0
   -1.8030   21.8080  -29.6270 C   0  0  0  0  0  0  0  0  0  0  0  0
   -1.6860   20.3810  -29.0540 C   0  0  0  0  0  0  0  0  0  0  0  0
   -1.4545   20.1617  -25.6758 H   0  0  0  0  0  0  0  0  0  0  0  0
   -2.8272   20.6578  -26.7228 H   0  0  0  0  0  0  0  0  0  0  0  0
   -2.2690   18.9504  -26.7228 H   0  0  0  0  0  0  0  0  0  0  0  0
    0.2682   21.3678  -26.4314 H   0  0  0  0  0  0  0  0  0  0  0  0
    0.5959   21.5785  -28.2031 H   0  0  0  0  0  0  0  0  0  0  0  0
   -1.5604   22.8684  -26.4917 H   0  0  0  0  0  0  0  0  0  0  0  0
   -0.3240   23.6385  -27.5650 H   0  0  0  0  0  0  0  0  0  0  0  0
   -4.7573   22.0453  -28.3128 H   0  0  0  0  0  0  0  0  0  0  0  0
   -6.9797   21.8950  -29.4266 H   0  0  0  0  0  0  0  0  0  0  0  0
   -9.0875   19.2405  -32.0061 H   0  0  0  0  0  0  0  0  0  0  0  0
   -7.4139   17.5159  -32.6520 H   0  0  0  0  0  0  0  0  0  0  0  0
   -6.1026   22.3311  -32.4778 H   0  0  0  0  0  0  0  0  0  0  0  0
   -4.0154   21.6686  -33.7085 H   0  0  0  0  0  0  0  0  0  0  0  0
   -3.5429   20.9208  -32.1178 H   0  0  0  0  0  0  0  0  0  0  0  0
   -3.4900   19.6371  -34.8796 H   0  0  0  0  0  0  0  0  0  0  0  0
   -2.1075   19.9757  -33.7723 H   0  0  0  0  0  0  0  0  0  0  0  0
   -2.6986   17.5935  -33.6696 H   0  0  0  0  0  0  0  0  0  0  0  0
   -3.0922   18.4014  -32.1071 H   0  0  0  0  0  0  0  0  0  0  0  0
   -5.0043   17.5954  -34.3459 H   0  0  0  0  0  0  0  0  0  0  0  0
   -4.9476   17.0086  -32.6242 H   0  0  0  0  0  0  0  0  0  0  0  0
   -5.9785   25.3029  -31.8934 H   0  0  0  0  0  0  0  0  0  0  0  0
   -2.6752   21.8570  -30.2955 H   0  0  0  0  0  0  0  0  0  0  0  0
   -0.8808   22.0408  -30.1796 H   0  0  0  0  0  0  0  0  0  0  0  0
   -2.7001   19.9695  -28.9434 H   0  0  0  0  0  0  0  0  0  0  0  0
   -1.0675   19.8069  -29.7596 H   0  0  0  0  0  0  0  0  0  0  0  0
  1  2  1  0
  2  3  1  0
  3  4  1  0
  4  5  1  0
  5  6  1  0
  6  7  2  0
  6  8  1  0
  8  9  2  0
  9 10  1  0
 10 11  2  0
 11 12  1  0
 12 13  1  0
 13 14  2  0
 13 15  2  0
 13 16  1  0
 16 17  2  0
 17 18  1  0
 18 19  2  0
 19 20  1  0
 20 21  2  0
 20 22  1  0
 22 23  1  0
 23 24  1  0
 24 25  1  0
 11 26  1  0
 26 27  2  0
 27 28  1  0
  5 29  1  0
 29 30  1  0
 30  2  1  0
 27  8  1  0
 21 16  1  0
 25 19  1  0
  1 31  1  0
  1 32  1  0
  1 33  1  0
  3 34  1  0
  3 35  1  0
  4 36  1  0
  4 37  1  0
  9 38  1  0
 10 39  1  0
 17 40  1  0
 18 41  1  0
 21 42  1  0
 22 43  1  0
 22 44  1  0
 23 45  1  0
 23 46  1  0
 24 47  1  0
 24 48  1  0
 25 49  1  0
 25 50  1  0
 26 51  1  0
 29 52  1  0
 29 53  1  0
 30 54  1  0
 30 55  1  0
M  CHG  2  12  -1  28  -1
M  END
>  <UniqueID>  (50) 
45

>  <SMILES>  (50) 
CN1CCN(C(=O)c2ccc([N-]S(=O)(=O)c3ccc4c(c3)CCCC4)cc2[O-])CC1

>  <Energy>  (50) 
71.28421447351711

>  <Genealogy>  (50) 
CN1CCN(C(=O)c2ccc([N-]S(=O)(=O)c3ccc4c(c3)CCCC4)cc2[O-])CC1 (protonated)
CN1CCN(C(=O)c2ccc([N-]S(=O)(=O)c3ccc4c(c3)CCCC4)cc2[O-])CC1 (3D coordinates assigned)
CN1CCN(C(=O)c2ccc([N-]S(=O)(=O)c3ccc4c(c3)CCCC4)cc2[O-])CC1 (nonaromatic ring conformer: 71.28421447351711 kcal/mol)

>  <smiles>  (50) 
CN1CCN(C(=O)c2ccc(NS(=O)(=O)c3ccc4c(c3)CCCC4)cc2O)CC1

>  <score_type>  (50) 
oracle

>  <origin>  (50) 
adgpu

>  <m_score__min__energy>  (50) 
-14.27

>  <m_primary>  (50) 
energy

$$$$
