0:0
     RDKit          3D

 48 50  0  0  0  0  0  0  0  0999 V2000
   -4.9300   17.1380  -34.1050 C   0  0  0  0  0  0  0  0  0  0  0  0
   -6.2950   17.1060  -33.4850 C   0  0  0  0  0  0  0  0  0  0  0  0
   -6.8640   15.9900  -33.3400 O   0  0  0  0  0  0  0  0  0  0  0  0
   -6.9620   18.3190  -33.0700 N   0  0  0  0  0  0  0  0  0  0  0  0
   -8.2330   18.2480  -32.3320 C   0  0  0  0  0  0  0  0  0  0  0  0
   -8.2760   19.3120  -31.2280 C   0  0  0  0  0  0  0  0  0  0  0  0
   -7.7970   20.6160  -31.7050 N   0  0  0  0  0  0  0  0  0  0  0  0
   -7.9290   21.7650  -30.8480 C   0  0  0  0  0  0  0  0  0  0  0  0
   -8.9770   21.9040  -30.1580 O   0  0  0  0  0  0  0  0  0  0  0  0
   -6.8550   22.7780  -30.7410 C   0  0  0  0  0  0  0  0  0  0  0  0
   -7.1220   24.0480  -30.2040 C   0  0  0  0  0  0  0  0  0  0  0  0
   -6.1090   25.0040  -30.1150 C   0  0  0  0  0  0  0  0  0  0  0  0
   -4.8200   24.7090  -30.5680 C   0  0  0  0  0  0  0  0  0  0  0  0
   -3.8230   25.6720  -30.4720 O   0  0  0  0  0  0  0  0  0  0  0  0
   -4.5370   23.4520  -31.1220 C   0  0  0  0  0  0  0  0  0  0  0  0
   -3.2030   23.1850  -31.5820 N   0  0  0  0  0  0  0  0  0  0  0  0
   -2.2440   21.8100  -31.1410 S   0  0  0  0  0  0  0  0  0  0  0  0
   -0.9090   21.9010  -31.8250 O   0  0  0  0  0  0  0  0  0  0  0  0
   -2.9600   20.5560  -31.5610 O   0  0  0  0  0  0  0  0  0  0  0  0
   -1.9950   21.7740  -29.3900 C   0  0  0  0  0  0  0  0  0  0  0  0
   -2.0670   20.5450  -28.7140 C   0  0  0  0  0  0  0  0  0  0  0  0
   -1.8780   20.4820  -27.3310 C   0  0  0  0  0  0  0  0  0  0  0  0
   -1.9700   18.9400  -26.5030 Cl  0  0  0  0  0  0  0  0  0  0  0  0
   -1.6140   21.6480  -26.6090 C   0  0  0  0  0  0  0  0  0  0  0  0
   -1.5400   22.8790  -27.2660 C   0  0  0  0  0  0  0  0  0  0  0  0
   -1.2050   24.3280  -26.3300 Cl  0  0  0  0  0  0  0  0  0  0  0  0
   -1.7280   22.9550  -28.6550 C   0  0  0  0  0  0  0  0  0  0  0  0
   -1.6440   24.2060  -29.2700 O   0  0  0  0  0  0  0  0  0  0  0  0
   -5.5600   22.4900  -31.2100 C   0  0  0  0  0  0  0  0  0  0  0  0
   -7.3740   20.7730  -33.1020 C   0  0  0  0  0  0  0  0  0  0  0  0
   -6.4380   19.6280  -33.4980 C   0  0  0  0  0  0  0  0  0  0  0  0
   -4.1676   17.1559  -33.3123 H   0  0  0  0  0  0  0  0  0  0  0  0
   -4.7895   16.2429  -34.7287 H   0  0  0  0  0  0  0  0  0  0  0  0
   -4.8316   18.0387  -34.7287 H   0  0  0  0  0  0  0  0  0  0  0  0
   -9.0663   18.4172  -33.0299 H   0  0  0  0  0  0  0  0  0  0  0  0
   -8.3199   17.2536  -31.8699 H   0  0  0  0  0  0  0  0  0  0  0  0
   -9.3134   19.4203  -30.8787 H   0  0  0  0  0  0  0  0  0  0  0  0
   -7.6151   18.9837  -30.4123 H   0  0  0  0  0  0  0  0  0  0  0  0
   -8.1354   24.2906  -29.8515 H   0  0  0  0  0  0  0  0  0  0  0  0
   -6.3259   25.9937  -29.6866 H   0  0  0  0  0  0  0  0  0  0  0  0
   -2.2740   19.6238  -29.2784 H   0  0  0  0  0  0  0  0  0  0  0  0
   -1.4640   21.5972  -25.5205 H   0  0  0  0  0  0  0  0  0  0  0  0
   -2.1060   24.4360  -30.1390 H   0  0  0  0  0  0  0  0  0  0  0  0
   -5.3456   21.5045  -31.6491 H   0  0  0  0  0  0  0  0  0  0  0  0
   -8.2597   20.7615  -33.7542 H   0  0  0  0  0  0  0  0  0  0  0  0
   -6.8414   21.7291  -33.2125 H   0  0  0  0  0  0  0  0  0  0  0  0
   -6.3226   19.6248  -34.5919 H   0  0  0  0  0  0  0  0  0  0  0  0
   -5.4712   19.7888  -32.9985 H   0  0  0  0  0  0  0  0  0  0  0  0
  1  2  1  0
  2  3  2  0
  2  4  1  0
  4  5  1  0
  5  6  1  0
  6  7  1  0
  7  8  1  0
  8  9  2  0
  8 10  1  0
 10 11  2  0
 11 12  1  0
 12 13  2  0
 13 14  1  0
 13 15  1  0
 15 16  1  0
 16 17  1  0
 17 18  2  0
 17 19  2  0
 17 20  1  0
 20 21  2  0
 21 22  1  0
 22 23  1  0
 22 24  2  0
 24 25  1  0
 25 26  1  0
 25 27  2  0
 27 28  1  0
 15 29  2  0
  7 30  1  0
 30 31  1  0
 31  4  1  0
 29 10  1  0
 27 20  1  0
  1 32  1  0
  1 33  1  0
  1 34  1  0
  5 35  1  0
  5 36  1  0
  6 37  1  0
  6 38  1  0
 11 39  1  0
 12 40  1  0
 21 41  1  0
 24 42  1  0
 28 43  1  0
 29 44  1  0
 30 45  1  0
 30 46  1  0
 31 47  1  0
 31 48  1  0
M  CHG  2  14  -1  16  -1
M  END
>  <UniqueID>  (1) 
1

>  <SMILES>  (1) 
CC(=O)N1CCN(C(=O)c2ccc([O-])c([N-]S(=O)(=O)c3cc(Cl)cc(Cl)c3O)c2)CC1

>  <Energy>  (1) 
60.02155644457789

>  <Genealogy>  (1) 
CC(=O)N1CCN(C(=O)c2ccc([O-])c([N-]S(=O)(=O)c3cc(Cl)cc(Cl)c3O)c2)CC1 (protonated)
CC(=O)N1CCN(C(=O)c2ccc([O-])c([N-]S(=O)(=O)c3cc(Cl)cc(Cl)c3O)c2)CC1 (3D coordinates assigned)
CC(=O)N1CCN(C(=O)c2ccc([O-])c([N-]S(=O)(=O)c3cc(Cl)cc(Cl)c3O)c2)CC1 (nonaromatic ring conformer: 60.02155644457789 kcal/mol)

>  <smiles>  (1) 
CC(=O)N1CCN(C(=O)c2ccc(O)c(NS(=O)(=O)c3cc(Cl)cc(Cl)c3O)c2)CC1

>  <score_type>  (1) 
oracle

>  <origin>  (1) 
adgpu

>  <m_score__min__energy>  (1) 
-14.029999999999999

>  <m_primary>  (1) 
energy

$$$$
1:0
     RDKit          3D

 41 43  0  0  0  0  0  0  0  0999 V2000
   -5.8210   23.9890  -31.9640 C   0  0  0  0  0  0  0  0  0  0  0  0
   -6.6930   22.7850  -31.7990 C   0  0  0  0  0  0  0  0  0  0  0  0
   -7.9840   22.9070  -31.2720 C   0  0  0  0  0  0  0  0  0  0  0  0
   -8.7970   21.7760  -31.1740 C   0  0  0  0  0  0  0  0  0  0  0  0
   -8.3250   20.5350  -31.6190 C   0  0  0  0  0  0  0  0  0  0  0  0
   -9.1350   19.3940  -31.5660 C   0  0  0  0  0  0  0  0  0  0  0  0
   -8.6620   18.1770  -32.0600 C   0  0  0  0  0  0  0  0  0  0  0  0
   -7.3800   18.0890  -32.6040 C   0  0  0  0  0  0  0  0  0  0  0  0
   -6.5460   19.2170  -32.6580 C   0  0  0  0  0  0  0  0  0  0  0  0
   -4.9640   19.0510  -33.4400 S   0  0  0  0  0  0  0  0  0  0  0  0
   -5.1850   18.6570  -34.8750 O   0  0  0  0  0  0  0  0  0  0  0  0
   -4.1290   17.9810  -32.7870 O   0  0  0  0  0  0  0  0  0  0  0  0
   -4.1190   20.5750  -33.4050 N   0  0  0  0  0  0  0  0  0  0  0  0
   -2.7010   20.4010  -33.0740 C   0  0  0  0  0  0  0  0  0  0  0  0
   -2.2920   21.2710  -31.9120 C   0  0  0  0  0  0  0  0  0  0  0  0
   -0.9650   21.2770  -31.4550 C   0  0  0  0  0  0  0  0  0  0  0  0
   -0.5740   22.1450  -30.4320 C   0  0  0  0  0  0  0  0  0  0  0  0
   -1.5130   23.0020  -29.8380 C   0  0  0  0  0  0  0  0  0  0  0  0
   -0.9910   24.1330  -28.5980 S   0  0  0  0  0  0  0  0  0  0  0  0
   -1.6030   25.7070  -28.9650 N   0  0  0  0  0  0  0  0  0  0  0  0
   -1.5160   23.7110  -27.2550 O   0  0  0  0  0  0  0  0  0  0  0  0
    0.5090   24.1700  -28.5510 O   0  0  0  0  0  0  0  0  0  0  0  0
   -2.8520   22.9520  -30.2450 C   0  0  0  0  0  0  0  0  0  0  0  0
   -3.2440   22.0840  -31.2690 C   0  0  0  0  0  0  0  0  0  0  0  0
   -7.0190   20.4500  -32.1590 C   0  0  0  0  0  0  0  0  0  0  0  0
   -6.2530   21.5730  -32.2320 N   0  0  0  0  0  0  0  0  0  0  0  0
   -5.5401   24.3768  -30.9737 H   0  0  0  0  0  0  0  0  0  0  0  0
   -4.9134   23.7110  -32.5198 H   0  0  0  0  0  0  0  0  0  0  0  0
   -6.3682   24.7646  -32.5198 H   0  0  0  0  0  0  0  0  0  0  0  0
   -8.3554   23.8869  -30.9374 H   0  0  0  0  0  0  0  0  0  0  0  0
   -9.8075   21.8598  -30.7475 H   0  0  0  0  0  0  0  0  0  0  0  0
  -10.1450   19.4567  -31.1347 H   0  0  0  0  0  0  0  0  0  0  0  0
   -9.3026   17.2837  -32.0203 H   0  0  0  0  0  0  0  0  0  0  0  0
   -7.0192   17.1260  -32.9945 H   0  0  0  0  0  0  0  0  0  0  0  0
   -2.5221   19.3478  -32.8119 H   0  0  0  0  0  0  0  0  0  0  0  0
   -2.1043   20.6942  -33.9504 H   0  0  0  0  0  0  0  0  0  0  0  0
   -0.2286   20.5946  -31.9046 H   0  0  0  0  0  0  0  0  0  0  0  0
    0.4720   22.1565  -30.0917 H   0  0  0  0  0  0  0  0  0  0  0  0
   -1.2200   25.9720  -29.9020 H   0  0  0  0  0  0  0  0  0  0  0  0
   -3.5977   23.5974  -29.7578 H   0  0  0  0  0  0  0  0  0  0  0  0
   -4.3001   22.0365  -31.5730 H   0  0  0  0  0  0  0  0  0  0  0  0
  1  2  1  0
  2  3  2  0
  3  4  1  0
  4  5  2  0
  5  6  1  0
  6  7  2  0
  7  8  1  0
  8  9  2  0
  9 10  1  0
 10 11  2  0
 10 12  2  0
 10 13  1  0
 13 14  1  0
 14 15  1  0
 15 16  2  0
 16 17  1  0
 17 18  2  0
 18 19  1  0
 19 20  1  0
 19 21  2  0
 19 22  2  0
 18 23  1  0
 23 24  2  0
  9 25  1  0
 25 26  2  0
 26  2  1  0
 25  5  1  0
 24 15  1  0
  1 27  1  0
  1 28  1  0
  1 29  1  0
  3 30  1  0
  4 31  1  0
  6 32  1  0
  7 33  1  0
  8 34  1  0
 14 35  1  0
 14 36  1  0
 16 37  1  0
 17 38  1  0
 20 39  1  0
 23 40  1  0
 24 41  1  0
M  CHG  2  13  -1  20  -1
M  END
>  <UniqueID>  (2) 
2

>  <SMILES>  (2) 
Cc1ccc2cccc(S(=O)(=O)[N-]Cc3ccc(S([NH-])(=O)=O)cc3)c2n1

>  <Energy>  (2) 
39.78725380433414

>  <Genealogy>  (2) 
Cc1ccc2cccc(S(=O)(=O)[N-]Cc3ccc(S([NH-])(=O)=O)cc3)c2n1 (protonated)
Cc1ccc2cccc(S(=O)(=O)[N-]Cc3ccc(S([NH-])(=O)=O)cc3)c2n1 (3D coordinates assigned)
Cc1ccc2cccc(S(=O)(=O)[N-]Cc3ccc(S([NH-])(=O)=O)cc3)c2n1 (optimized conformer: 39.78725380433414 kcal/mol)

>  <smiles>  (2) 
Cc1ccc2cccc(S(=O)(=O)NCc3ccc(S(N)(=O)=O)cc3)c2n1

>  <score_type>  (2) 
oracle

>  <origin>  (2) 
adgpu

>  <m_score__min__energy>  (2) 
-11.66

>  <m_primary>  (2) 
energy

$$$$
2:0
     RDKit          3D

 52 54  0  0  0  0  0  0  0  0999 V2000
   -2.0090   25.0100  -28.0180 C   0  0  0  0  0  0  0  0  0  0  0  0
   -2.7200   25.2350  -29.2300 O   0  0  0  0  0  0  0  0  0  0  0  0
   -3.4180   24.2430  -29.9400 C   0  0  0  0  0  0  0  0  0  0  0  0
   -2.9330   22.9260  -30.0460 C   0  0  0  0  0  0  0  0  0  0  0  0
   -3.6500   21.9610  -30.7540 C   0  0  0  0  0  0  0  0  0  0  0  0
   -4.8650   22.2900  -31.3780 C   0  0  0  0  0  0  0  0  0  0  0  0
   -5.6500   21.2640  -32.1190 C   0  0  0  0  0  0  0  0  0  0  0  0
   -6.9750   21.4340  -32.3040 C   0  0  0  0  0  0  0  0  0  0  0  0
   -7.8200   20.4370  -33.0500 C   0  0  0  0  0  0  0  0  0  0  0  0
   -8.0150   19.1200  -32.2720 C   0  0  0  0  0  0  0  0  0  0  0  0
   -6.7730   18.6370  -31.4970 C   0  0  0  0  0  0  0  0  0  0  0  0
   -5.5030   18.7480  -32.3190 C   0  0  0  0  0  0  0  0  0  0  0  0
   -4.8500   17.5930  -32.7980 C   0  0  0  0  0  0  0  0  0  0  0  0
   -5.3210   16.3350  -32.4160 O   0  0  0  0  0  0  0  0  0  0  0  0
   -5.7600   15.3910  -33.3860 C   0  0  0  0  0  0  0  0  0  0  0  0
   -3.7100   17.7050  -33.6290 C   0  0  0  0  0  0  0  0  0  0  0  0
   -3.1200   16.5800  -34.2290 O   0  0  0  0  0  0  0  0  0  0  0  0
   -3.1720   16.2460  -35.6140 C   0  0  0  0  0  0  0  0  0  0  0  0
   -3.1520   18.9840  -33.8720 C   0  0  0  0  0  0  0  0  0  0  0  0
   -1.9740   19.1860  -34.6210 O   0  0  0  0  0  0  0  0  0  0  0  0
   -0.7150   19.6350  -34.1300 C   0  0  0  0  0  0  0  0  0  0  0  0
   -3.7920   20.1310  -33.3700 C   0  0  0  0  0  0  0  0  0  0  0  0
   -3.2740   21.4000  -33.6490 O   0  0  0  0  0  0  0  0  0  0  0  0
   -4.9670   20.0240  -32.6060 C   0  0  0  0  0  0  0  0  0  0  0  0
   -5.3500   23.6030  -31.2720 C   0  0  0  0  0  0  0  0  0  0  0  0
   -4.6370   24.5780  -30.5580 C   0  0  0  0  0  0  0  0  0  0  0  0
   -5.1610   25.9080  -30.4650 N   0  0  0  0  0  0  0  0  0  0  0  0
   -2.6679   25.2185  -27.1622 H   0  0  0  0  0  0  0  0  0  0  0  0
   -1.6757   23.9625  -27.9775 H   0  0  0  0  0  0  0  0  0  0  0  0
   -1.1338   25.6751  -27.9775 H   0  0  0  0  0  0  0  0  0  0  0  0
   -1.9807   22.6553  -29.5666 H   0  0  0  0  0  0  0  0  0  0  0  0
   -3.2609   20.9345  -30.8242 H   0  0  0  0  0  0  0  0  0  0  0  0
   -7.4558   22.3346  -31.8945 H   0  0  0  0  0  0  0  0  0  0  0  0
   -8.8074   20.8838  -33.2381 H   0  0  0  0  0  0  0  0  0  0  0  0
   -7.2973   20.1945  -33.9870 H   0  0  0  0  0  0  0  0  0  0  0  0
   -8.8327   19.2664  -31.5510 H   0  0  0  0  0  0  0  0  0  0  0  0
   -8.2318   18.3460  -33.0229 H   0  0  0  0  0  0  0  0  0  0  0  0
   -6.6619   19.2490  -30.5898 H   0  0  0  0  0  0  0  0  0  0  0  0
   -6.9222   17.5756  -31.2495 H   0  0  0  0  0  0  0  0  0  0  0  0
   -6.1712   14.5067  -32.8772 H   0  0  0  0  0  0  0  0  0  0  0  0
   -6.5385   15.8470  -34.0153 H   0  0  0  0  0  0  0  0  0  0  0  0
   -4.9097   15.0895  -34.0153 H   0  0  0  0  0  0  0  0  0  0  0  0
   -3.3404   15.1646  -35.7243 H   0  0  0  0  0  0  0  0  0  0  0  0
   -3.9953   16.7960  -36.0932 H   0  0  0  0  0  0  0  0  0  0  0  0
   -2.2204   16.5197  -36.0932 H   0  0  0  0  0  0  0  0  0  0  0  0
   -0.7276   19.6305  -33.0301 H   0  0  0  0  0  0  0  0  0  0  0  0
    0.0793   18.9647  -34.4903 H   0  0  0  0  0  0  0  0  0  0  0  0
   -0.5241   20.6566  -34.4903 H   0  0  0  0  0  0  0  0  0  0  0  0
   -2.5110   21.5520  -34.2970 H   0  0  0  0  0  0  0  0  0  0  0  0
   -6.3013   23.8710  -31.7549 H   0  0  0  0  0  0  0  0  0  0  0  0
   -5.4230   26.4400  -31.3260 H   0  0  0  0  0  0  0  0  0  0  0  0
   -5.3280   26.3630  -29.5410 H   0  0  0  0  0  0  0  0  0  0  0  0
  1  2  1  0
  2  3  1  0
  3  4  2  0
  4  5  1  0
  5  6  2  0
  6  7  1  0
  7  8  2  0
  8  9  1  0
  9 10  1  0
 10 11  1  0
 11 12  1  0
 12 13  2  0
 13 14  1  0
 14 15  1  0
 13 16  1  0
 16 17  1  0
 17 18  1  0
 16 19  2  0
 19 20  1  0
 20 21  1  0
 19 22  1  0
 22 23  1  0
 22 24  2  0
  6 25  1  0
 25 26  2  0
 26 27  1  0
 26  3  1  0
 24  7  1  0
 24 12  1  0
  1 28  1  0
  1 29  1  0
  1 30  1  0
  4 31  1  0
  5 32  1  0
  8 33  1  0
  9 34  1  0
  9 35  1  0
 10 36  1  0
 10 37  1  0
 11 38  1  0
 11 39  1  0
 15 40  1  0
 15 41  1  0
 15 42  1  0
 18 43  1  0
 18 44  1  0
 18 45  1  0
 21 46  1  0
 21 47  1  0
 21 48  1  0
 23 49  1  0
 25 50  1  0
 27 51  1  0
 27 52  1  0
M  END
>  <UniqueID>  (3) 
3

>  <SMILES>  (3) 
COc1ccc(C2=CCCCc3c(OC)c(OC)c(OC)c(O)c32)cc1N

>  <Energy>  (3) 
79.44803650044724

>  <Genealogy>  (3) 
COc1ccc(C2=CCCCc3c(OC)c(OC)c(OC)c(O)c32)cc1N (3D coordinates assigned)
COc1ccc(C2=CCCCc3c(OC)c(OC)c(OC)c(O)c32)cc1N (nonaromatic ring conformer: 79.44803650044724 kcal/mol)

>  <smiles>  (3) 
COc1ccc(C2=CCCCc3c(OC)c(OC)c(OC)c(O)c32)cc1N

>  <score_type>  (3) 
oracle

>  <origin>  (3) 
adgpu

>  <m_score__min__energy>  (3) 
-6.8700000000000001

>  <m_primary>  (3) 
energy

$$$$
3:0
     RDKit          3D

 48 50  0  0  0  0  0  0  0  0999 V2000
   -2.7940   24.3210  -28.2320 C   0  0  0  0  0  0  0  0  0  0  0  0
   -4.1170   23.9350  -28.7100 N   0  0  0  0  0  0  0  0  0  0  0  0
   -4.1780   24.0640  -30.4410 S   0  0  0  0  0  0  0  0  0  0  0  0
   -2.9420   23.4410  -31.0250 O   0  0  0  0  0  0  0  0  0  0  0  0
   -4.2150   25.5130  -30.8400 O   0  0  0  0  0  0  0  0  0  0  0  0
   -5.5950   23.2220  -31.0660 C   0  0  0  0  0  0  0  0  0  0  0  0
   -6.8500   23.8390  -31.0600 C   0  0  0  0  0  0  0  0  0  0  0  0
   -7.9690   23.1610  -31.5440 C   0  0  0  0  0  0  0  0  0  0  0  0
   -7.8520   21.8460  -32.0390 C   0  0  0  0  0  0  0  0  0  0  0  0
   -8.9580   21.1560  -32.5620 O   0  0  0  0  0  0  0  0  0  0  0  0
   -9.4840   19.9450  -32.0270 C   0  0  0  0  0  0  0  0  0  0  0  0
   -6.5900   21.2140  -32.0260 C   0  0  0  0  0  0  0  0  0  0  0  0
   -6.4240   19.8240  -32.5150 C   0  0  0  0  0  0  0  0  0  0  0  0
   -6.1050   19.5790  -33.8560 C   0  0  0  0  0  0  0  0  0  0  0  0
   -5.9390   18.2720  -34.3220 C   0  0  0  0  0  0  0  0  0  0  0  0
   -6.0880   17.1600  -33.4560 C   0  0  0  0  0  0  0  0  0  0  0  0
   -5.9180   15.7880  -33.9410 N   0  0  0  0  0  0  0  0  0  0  0  0
   -4.5520   15.2090  -33.9660 C   0  0  0  0  0  0  0  0  0  0  0  0
   -4.4420   13.8120  -34.5850 C   0  0  0  0  0  0  0  0  0  0  0  0
   -5.6350   12.9500  -34.2250 C   0  0  0  0  0  0  0  0  0  0  0  0
   -6.8750   13.5930  -34.8140 C   0  0  0  0  0  0  0  0  0  0  0  0
   -7.1310   14.9760  -34.2080 C   0  0  0  0  0  0  0  0  0  0  0  0
   -6.3920   17.4300  -32.1000 C   0  0  0  0  0  0  0  0  0  0  0  0
   -6.5560   18.7390  -31.6410 C   0  0  0  0  0  0  0  0  0  0  0  0
   -5.4690   21.9140  -31.5440 C   0  0  0  0  0  0  0  0  0  0  0  0
   -2.7877   24.3228  -27.1320 H   0  0  0  0  0  0  0  0  0  0  0  0
   -2.0468   23.6034  -28.6018 H   0  0  0  0  0  0  0  0  0  0  0  0
   -2.5499   25.3278  -28.6018 H   0  0  0  0  0  0  0  0  0  0  0  0
   -6.9552   24.8630  -30.6721 H   0  0  0  0  0  0  0  0  0  0  0  0
   -8.9510   23.6566  -31.5394 H   0  0  0  0  0  0  0  0  0  0  0  0
   -9.4642   19.9905  -30.9281 H   0  0  0  0  0  0  0  0  0  0  0  0
  -10.5208   19.8125  -32.3699 H   0  0  0  0  0  0  0  0  0  0  0  0
   -8.8732   19.0969  -32.3699 H   0  0  0  0  0  0  0  0  0  0  0  0
   -5.9838   20.4239  -34.5499 H   0  0  0  0  0  0  0  0  0  0  0  0
   -5.6883   18.1033  -35.3797 H   0  0  0  0  0  0  0  0  0  0  0  0
   -3.9062   15.8876  -34.5427 H   0  0  0  0  0  0  0  0  0  0  0  0
   -4.2499   15.0992  -32.9140 H   0  0  0  0  0  0  0  0  0  0  0  0
   -4.3883   13.9091  -35.6794 H   0  0  0  0  0  0  0  0  0  0  0  0
   -3.5357   13.3297  -34.1900 H   0  0  0  0  0  0  0  0  0  0  0  0
   -5.5048   11.9403  -34.6416 H   0  0  0  0  0  0  0  0  0  0  0  0
   -5.7304   12.8683  -33.1322 H   0  0  0  0  0  0  0  0  0  0  0  0
   -6.7415   13.6980  -35.9008 H   0  0  0  0  0  0  0  0  0  0  0  0
   -7.7385   12.9508  -34.5861 H   0  0  0  0  0  0  0  0  0  0  0  0
   -7.7697   15.5389  -34.9046 H   0  0  0  0  0  0  0  0  0  0  0  0
   -7.5972   14.7961  -33.2281 H   0  0  0  0  0  0  0  0  0  0  0  0
   -6.5011   16.5931  -31.3945 H   0  0  0  0  0  0  0  0  0  0  0  0
   -6.7913   18.9189  -30.5816 H   0  0  0  0  0  0  0  0  0  0  0  0
   -4.4826   21.4271  -31.5431 H   0  0  0  0  0  0  0  0  0  0  0  0
  1  2  1  0
  2  3  1  0
  3  4  2  0
  3  5  2  0
  3  6  1  0
  6  7  2  0
  7  8  1  0
  8  9  2  0
  9 10  1  0
 10 11  1  0
  9 12  1  0
 12 13  1  0
 13 14  2  0
 14 15  1  0
 15 16  2  0
 16 17  1  0
 17 18  1  0
 18 19  1  0
 19 20  1  0
 20 21  1  0
 21 22  1  0
 16 23  1  0
 23 24  2  0
 12 25  2  0
 25  6  1  0
 24 13  1  0
 22 17  1  0
  1 26  1  0
  1 27  1  0
  1 28  1  0
  7 29  1  0
  8 30  1  0
 11 31  1  0
 11 32  1  0
 11 33  1  0
 14 34  1  0
 15 35  1  0
 18 36  1  0
 18 37  1  0
 19 38  1  0
 19 39  1  0
 20 40  1  0
 20 41  1  0
 21 42  1  0
 21 43  1  0
 22 44  1  0
 22 45  1  0
 23 46  1  0
 24 47  1  0
 25 48  1  0
M  CHG  1   2  -1
M  END
>  <UniqueID>  (4) 
4

>  <SMILES>  (4) 
C[N-]S(=O)(=O)c1ccc(OC)c(-c2ccc(N3CCCCC3)cc2)c1

>  <Energy>  (4) 
58.27051135366287

>  <Genealogy>  (4) 
C[N-]S(=O)(=O)c1ccc(OC)c(-c2ccc(N3CCCCC3)cc2)c1 (protonated)
C[N-]S(=O)(=O)c1ccc(OC)c(-c2ccc(N3CCCCC3)cc2)c1 (3D coordinates assigned)
C[N-]S(=O)(=O)c1ccc(OC)c(-c2ccc(N3CCCCC3)cc2)c1 (nonaromatic ring conformer: 58.27051135366287 kcal/mol)

>  <smiles>  (4) 
CNS(=O)(=O)c1ccc(OC)c(-c2ccc(N3CCCCC3)cc2)c1

>  <score_type>  (4) 
oracle

>  <origin>  (4) 
adgpu

>  <m_score__min__energy>  (4) 
-9.6300000000000008

>  <m_primary>  (4) 
energy

$$$$
4:0
     RDKit          3D

 58 62  0  0  0  0  0  0  0  0999 V2000
   -4.5560   21.3890  -30.4500 O   0  0  0  0  0  0  0  0  0  0  0  0
   -3.4660   21.6780  -31.0150 C   0  0  0  0  0  0  0  0  0  0  0  0
   -2.9150   20.7730  -32.0530 C   0  0  0  0  0  0  0  0  0  0  0  0
   -1.7710   21.1360  -32.7830 C   0  0  0  0  0  0  0  0  0  0  0  0
   -1.2580   20.2840  -33.7620 C   0  0  0  0  0  0  0  0  0  0  0  0
   -1.8840   19.0660  -34.0400 C   0  0  0  0  0  0  0  0  0  0  0  0
   -1.3080   18.2230  -34.9810 O   0  0  0  0  0  0  0  0  0  0  0  0
   -3.0600   18.7040  -33.3470 C   0  0  0  0  0  0  0  0  0  0  0  0
   -3.7720   17.4830  -33.5990 N   0  0  0  0  0  0  0  0  0  0  0  0
   -5.3490   17.3470  -34.3090 S   0  0  0  0  0  0  0  0  0  0  0  0
   -5.8070   15.9160  -34.2350 O   0  0  0  0  0  0  0  0  0  0  0  0
   -5.3140   17.7990  -35.7440 O   0  0  0  0  0  0  0  0  0  0  0  0
   -6.4600   18.3890  -33.4270 C   0  0  0  0  0  0  0  0  0  0  0  0
   -7.5290   17.8190  -32.7250 C   0  0  0  0  0  0  0  0  0  0  0  0
   -8.4160   18.6260  -32.0060 C   0  0  0  0  0  0  0  0  0  0  0  0
   -8.2390   20.0170  -31.9810 C   0  0  0  0  0  0  0  0  0  0  0  0
   -9.1200   20.8370  -31.2570 C   0  0  0  0  0  0  0  0  0  0  0  0
   -8.9280   22.2220  -31.2360 C   0  0  0  0  0  0  0  0  0  0  0  0
   -7.8620   22.7980  -31.9340 C   0  0  0  0  0  0  0  0  0  0  0  0
   -6.9790   21.9910  -32.6590 C   0  0  0  0  0  0  0  0  0  0  0  0
   -7.1590   20.5990  -32.6880 C   0  0  0  0  0  0  0  0  0  0  0  0
   -6.2750   19.7780  -33.4070 C   0  0  0  0  0  0  0  0  0  0  0  0
   -3.5490   19.5530  -32.3440 C   0  0  0  0  0  0  0  0  0  0  0  0
   -2.7910   22.8940  -30.6530 N   0  0  0  0  0  0  0  0  0  0  0  0
   -3.5540   24.1250  -30.4340 C   0  0  0  0  0  0  0  0  0  0  0  0
   -3.5880   24.4420  -28.9390 C   0  0  0  0  0  0  0  0  0  0  0  0
   -2.2280   24.3770  -28.3840 N   0  0  0  0  0  0  0  0  0  0  0  0
   -1.8190   25.3220  -27.3770 C   0  0  0  0  0  0  0  0  0  0  0  0
   -2.3830   25.2700  -26.0910 C   0  0  0  0  0  0  0  0  0  0  0  0
   -1.9910   26.1860  -25.1090 C   0  0  0  0  0  0  0  0  0  0  0  0
   -1.0340   27.1590  -25.4050 C   0  0  0  0  0  0  0  0  0  0  0  0
   -0.4690   27.2200  -26.6820 C   0  0  0  0  0  0  0  0  0  0  0  0
   -0.8620   26.3070  -27.6670 C   0  0  0  0  0  0  0  0  0  0  0  0
   -1.4260   23.1700  -28.6390 C   0  0  0  0  0  0  0  0  0  0  0  0
   -1.4180   22.8530  -30.1370 C   0  0  0  0  0  0  0  0  0  0  0  0
   -1.2765   22.0977  -32.5817 H   0  0  0  0  0  0  0  0  0  0  0  0
   -0.3545   20.5733  -34.3188 H   0  0  0  0  0  0  0  0  0  0  0  0
   -7.6720   16.7284  -32.7392 H   0  0  0  0  0  0  0  0  0  0  0  0
   -9.2540   18.1691  -31.4591 H   0  0  0  0  0  0  0  0  0  0  0  0
   -9.9609   20.3898  -30.7066 H   0  0  0  0  0  0  0  0  0  0  0  0
   -9.6191   22.8616  -30.6675 H   0  0  0  0  0  0  0  0  0  0  0  0
   -7.7175   23.8883  -31.9129 H   0  0  0  0  0  0  0  0  0  0  0  0
   -6.1420   22.4479  -33.2074 H   0  0  0  0  0  0  0  0  0  0  0  0
   -5.4344   20.2269  -33.9564 H   0  0  0  0  0  0  0  0  0  0  0  0
   -4.4437   19.2593  -31.7755 H   0  0  0  0  0  0  0  0  0  0  0  0
   -3.0749   24.9548  -30.9743 H   0  0  0  0  0  0  0  0  0  0  0  0
   -4.5810   23.9917  -30.8048 H   0  0  0  0  0  0  0  0  0  0  0  0
   -3.9953   25.4528  -28.7894 H   0  0  0  0  0  0  0  0  0  0  0  0
   -4.2245   23.7057  -28.4264 H   0  0  0  0  0  0  0  0  0  0  0  0
   -3.1371   24.5047  -25.8551 H   0  0  0  0  0  0  0  0  0  0  0  0
   -2.4363   26.1399  -24.1042 H   0  0  0  0  0  0  0  0  0  0  0  0
   -0.7245   27.8782  -24.6324 H   0  0  0  0  0  0  0  0  0  0  0  0
    0.2854   27.9865  -26.9130 H   0  0  0  0  0  0  0  0  0  0  0  0
   -0.4192   26.3615  -28.6725 H   0  0  0  0  0  0  0  0  0  0  0  0
   -0.3943   23.3393  -28.2970 H   0  0  0  0  0  0  0  0  0  0  0  0
   -1.8658   22.3224  -28.0930 H   0  0  0  0  0  0  0  0  0  0  0  0
   -0.8051   23.5976  -30.6661 H   0  0  0  0  0  0  0  0  0  0  0  0
   -0.9959   21.8499  -30.2973 H   0  0  0  0  0  0  0  0  0  0  0  0
  1  2  2  0
  2  3  1  0
  3  4  2  0
  4  5  1  0
  5  6  2  0
  6  7  1  0
  6  8  1  0
  8  9  1  0
  9 10  1  0
 10 11  2  0
 10 12  2  0
 10 13  1  0
 13 14  2  0
 14 15  1  0
 15 16  2  0
 16 17  1  0
 17 18  2  0
 18 19  1  0
 19 20  2  0
 20 21  1  0
 21 22  2  0
  8 23  2  0
  2 24  1  0
 24 25  1  0
 25 26  1  0
 26 27  1  0
 27 28  1  0
 28 29  2  0
 29 30  1  0
 30 31  2  0
 31 32  1  0
 32 33  2  0
 27 34  1  0
 34 35  1  0
 23  3  1  0
 35 24  1  0
 22 13  1  0
 33 28  1  0
 21 16  1  0
  4 36  1  0
  5 37  1  0
 14 38  1  0
 15 39  1  0
 17 40  1  0
 18 41  1  0
 19 42  1  0
 20 43  1  0
 22 44  1  0
 23 45  1  0
 25 46  1  0
 25 47  1  0
 26 48  1  0
 26 49  1  0
 29 50  1  0
 30 51  1  0
 31 52  1  0
 32 53  1  0
 33 54  1  0
 34 55  1  0
 34 56  1  0
 35 57  1  0
 35 58  1  0
M  CHG  2   7  -1   9  -1
M  END
>  <UniqueID>  (5) 
5

>  <SMILES>  (5) 
O=C(c1ccc([O-])c([N-]S(=O)(=O)c2ccc3ccccc3c2)c1)N1CCN(c2ccccc2)CC1

>  <Energy>  (5) 
83.20478976294302

>  <Genealogy>  (5) 
O=C(c1ccc([O-])c([N-]S(=O)(=O)c2ccc3ccccc3c2)c1)N1CCN(c2ccccc2)CC1 (protonated)
O=C(c1ccc([O-])c([N-]S(=O)(=O)c2ccc3ccccc3c2)c1)N1CCN(c2ccccc2)CC1 (3D coordinates assigned)
O=C(c1ccc([O-])c([N-]S(=O)(=O)c2ccc3ccccc3c2)c1)N1CCN(c2ccccc2)CC1 (nonaromatic ring conformer: 83.20478976294302 kcal/mol)

>  <smiles>  (5) 
O=C(c1ccc(O)c(NS(=O)(=O)c2ccc3ccccc3c2)c1)N1CCN(c2ccccc2)CC1

>  <score_type>  (5) 
oracle

>  <origin>  (5) 
adgpu

>  <m_score__min__energy>  (5) 
-15.369999999999999

>  <m_primary>  (5) 
energy

$$$$
5:0
     RDKit          3D

 72 76  0  0  0  0  0  0  0  0999 V2000
    1.0060   22.2340  -34.6340 O   0  0  0  0  0  0  0  0  0  0  0  0
    0.6150   20.7990  -34.4150 S   0  0  0  0  0  0  0  0  0  0  0  0
    0.6310   20.0950  -35.7440 O   0  0  0  0  0  0  0  0  0  0  0  0
   -0.9880   20.7280  -33.6930 C   0  0  0  0  0  0  0  0  0  0  0  0
   -1.9880   19.9150  -34.2450 C   0  0  0  0  0  0  0  0  0  0  0  0
   -3.2470   19.8460  -33.6390 C   0  0  0  0  0  0  0  0  0  0  0  0
   -3.5100   20.5830  -32.4810 C   0  0  0  0  0  0  0  0  0  0  0  0
   -2.5150   21.3960  -31.9230 C   0  0  0  0  0  0  0  0  0  0  0  0
   -2.8220   22.3250  -30.4580 S   0  0  0  0  0  0  0  0  0  0  0  0
   -2.8460   21.3650  -29.3010 O   0  0  0  0  0  0  0  0  0  0  0  0
   -1.7260   23.3280  -30.2380 O   0  0  0  0  0  0  0  0  0  0  0  0
   -4.3650   23.1810  -30.5630 C   0  0  0  0  0  0  0  0  0  0  0  0
   -5.5420   22.4800  -30.8760 C   0  0  0  0  0  0  0  0  0  0  0  0
   -6.7670   23.1530  -30.9640 C   0  0  0  0  0  0  0  0  0  0  0  0
   -8.2330   22.2570  -31.3630 S   0  0  0  0  0  0  0  0  0  0  0  0
   -9.2130   23.1650  -32.0550 O   0  0  0  0  0  0  0  0  0  0  0  0
   -8.8500   21.7650  -30.0850 O   0  0  0  0  0  0  0  0  0  0  0  0
   -7.8630   20.8980  -32.3970 N   0  0  0  0  0  0  0  0  0  0  0  0
   -6.7580   20.1150  -31.7950 C   0  0  0  0  0  0  0  0  0  0  0  0
   -6.6350   18.7330  -32.4450 C   0  0  0  0  0  0  0  0  0  0  0  0
   -7.9140   17.9020  -32.2390 C   0  0  0  0  0  0  0  0  0  0  0  0
   -9.1460   18.7700  -31.9320 C   0  0  0  0  0  0  0  0  0  0  0  0
   -9.0860   20.0990  -32.6990 C   0  0  0  0  0  0  0  0  0  0  0  0
   -6.8160   24.5360  -30.7450 C   0  0  0  0  0  0  0  0  0  0  0  0
   -5.6490   25.2410  -30.4440 C   0  0  0  0  0  0  0  0  0  0  0  0
   -4.4240   24.5720  -30.3560 C   0  0  0  0  0  0  0  0  0  0  0  0
   -3.2730   25.2990  -30.0690 O   0  0  0  0  0  0  0  0  0  0  0  0
   -1.2550   21.4670  -32.5340 C   0  0  0  0  0  0  0  0  0  0  0  0
    1.7520   20.0170  -33.3230 C   0  0  0  0  0  0  0  0  0  0  0  0
    3.0450   19.6940  -33.7580 C   0  0  0  0  0  0  0  0  0  0  0  0
    3.9600   19.1250  -32.8690 C   0  0  0  0  0  0  0  0  0  0  0  0
    3.5940   18.8840  -31.5420 C   0  0  0  0  0  0  0  0  0  0  0  0
    2.3050   19.2090  -31.0970 C   0  0  0  0  0  0  0  0  0  0  0  0
    1.8510   18.9610  -29.4130 S   0  0  0  0  0  0  0  0  0  0  0  0
    3.0830   19.0150  -28.5500 O   0  0  0  0  0  0  0  0  0  0  0  0
    0.9160   20.0560  -28.9830 O   0  0  0  0  0  0  0  0  0  0  0  0
    1.0410   17.4240  -29.2410 N   0  0  0  0  0  0  0  0  0  0  0  0
    0.7410   16.8180  -30.5390 C   0  0  0  0  0  0  0  0  0  0  0  0
    0.7160   15.3110  -30.3250 C   0  0  0  0  0  0  0  0  0  0  0  0
    1.4210   15.0790  -28.9980 C   0  0  0  0  0  0  0  0  0  0  0  0
    1.8870   16.4550  -28.5460 C   0  0  0  0  0  0  0  0  0  0  0  0
    1.3860   19.7730  -31.9930 C   0  0  0  0  0  0  0  0  0  0  0  0
   -1.7826   19.3314  -35.1545 H   0  0  0  0  0  0  0  0  0  0  0  0
   -4.0317   19.2102  -34.0749 H   0  0  0  0  0  0  0  0  0  0  0  0
   -4.5007   20.5245  -32.0066 H   0  0  0  0  0  0  0  0  0  0  0  0
   -5.5009   21.3951  -31.0531 H   0  0  0  0  0  0  0  0  0  0  0  0
   -7.5100   21.3000  -33.2980 H   0  0  0  0  0  0  0  0  0  0  0  0
   -5.8139   20.6619  -31.9350 H   0  0  0  0  0  0  0  0  0  0  0  0
   -6.9736   19.9770  -30.7252 H   0  0  0  0  0  0  0  0  0  0  0  0
   -6.4593   18.8587  -33.5236 H   0  0  0  0  0  0  0  0  0  0  0  0
   -5.7957   18.2010  -31.9732 H   0  0  0  0  0  0  0  0  0  0  0  0
   -8.1098   17.3254  -33.1551 H   0  0  0  0  0  0  0  0  0  0  0  0
   -7.7467   17.2462  -31.3719 H   0  0  0  0  0  0  0  0  0  0  0  0
  -10.0539   18.2241  -32.2282 H   0  0  0  0  0  0  0  0  0  0  0  0
   -9.1625   18.9874  -30.8538 H   0  0  0  0  0  0  0  0  0  0  0  0
   -9.1039   19.8814  -33.7771 H   0  0  0  0  0  0  0  0  0  0  0  0
   -9.9533   20.6976  -32.3834 H   0  0  0  0  0  0  0  0  0  0  0  0
   -7.7766   25.0679  -30.8104 H   0  0  0  0  0  0  0  0  0  0  0  0
   -5.6933   26.3271  -30.2754 H   0  0  0  0  0  0  0  0  0  0  0  0
   -0.4721   22.1066  -32.1005 H   0  0  0  0  0  0  0  0  0  0  0  0
    3.3392   19.8887  -34.7999 H   0  0  0  0  0  0  0  0  0  0  0  0
    4.9717   18.8659  -33.2145 H   0  0  0  0  0  0  0  0  0  0  0  0
    4.3190   18.4383  -30.8451 H   0  0  0  0  0  0  0  0  0  0  0  0
   -0.2376   17.1653  -30.9021 H   0  0  0  0  0  0  0  0  0  0  0  0
    1.4952   17.0979  -31.2893 H   0  0  0  0  0  0  0  0  0  0  0  0
   -0.3207   14.9461  -30.2788 H   0  0  0  0  0  0  0  0  0  0  0  0
    1.2079   14.7730  -31.1487 H   0  0  0  0  0  0  0  0  0  0  0  0
    0.7263   14.6466  -28.2629 H   0  0  0  0  0  0  0  0  0  0  0  0
    2.2593   14.3736  -29.0964 H   0  0  0  0  0  0  0  0  0  0  0  0
    1.7691   16.5584  -27.4572 H   0  0  0  0  0  0  0  0  0  0  0  0
    2.9503   16.6133  -28.7790 H   0  0  0  0  0  0  0  0  0  0  0  0
    0.3719   20.0253  -31.6497 H   0  0  0  0  0  0  0  0  0  0  0  0
  1  2  2  0
  2  3  2  0
  2  4  1  0
  4  5  2  0
  5  6  1  0
  6  7  2  0
  7  8  1  0
  8  9  1  0
  9 10  2  0
  9 11  2  0
  9 12  1  0
 12 13  2  0
 13 14  1  0
 14 15  1  0
 15 16  2  0
 15 17  2  0
 15 18  1  0
 18 19  1  0
 19 20  1  0
 20 21  1  0
 21 22  1  0
 22 23  1  0
 14 24  2  0
 24 25  1  0
 25 26  2  0
 26 27  1  0
  8 28  2  0
  2 29  1  0
 29 30  2  0
 30 31  1  0
 31 32  2  0
 32 33  1  0
 33 34  1  0
 34 35  2  0
 34 36  2  0
 34 37  1  0
 37 38  1  0
 38 39  1  0
 39 40  1  0
 40 41  1  0
 33 42  2  0
 28  4  1  0
 42 29  1  0
 26 12  1  0
 41 37  1  0
 23 18  1  0
  5 43  1  0
  6 44  1  0
  7 45  1  0
 13 46  1  0
 18 47  1  0
 19 48  1  0
 19 49  1  0
 20 50  1  0
 20 51  1  0
 21 52  1  0
 21 53  1  0
 22 54  1  0
 22 55  1  0
 23 56  1  0
 23 57  1  0
 24 58  1  0
 25 59  1  0
 28 60  1  0
 30 61  1  0
 31 62  1  0
 32 63  1  0
 38 64  1  0
 38 65  1  0
 39 66  1  0
 39 67  1  0
 40 68  1  0
 40 69  1  0
 41 70  1  0
 41 71  1  0
 42 72  1  0
M  CHG  2  18   1  27  -1
M  END
>  <UniqueID>  (6) 
6

>  <SMILES>  (6) 
O=S(=O)(c1cccc(S(=O)(=O)c2cc(S(=O)(=O)[NH+]3CCCCC3)ccc2[O-])c1)c1cccc(S(=O)(=O)N2CCCC2)c1

>  <Energy>  (6) 
79.65373993669608

>  <Genealogy>  (6) 
O=S(=O)(c1cccc(S(=O)(=O)c2cc(S(=O)(=O)[NH+]3CCCCC3)ccc2[O-])c1)c1cccc(S(=O)(=O)N2CCCC2)c1 (protonated)
O=S(=O)(c1cccc(S(=O)(=O)c2cc(S(=O)(=O)[NH+]3CCCCC3)ccc2[O-])c1)c1cccc(S(=O)(=O)N2CCCC2)c1 (3D coordinates assigned)
O=S(=O)(c1cccc(S(=O)(=O)c2cc(S(=O)(=O)[NH+]3CCCCC3)ccc2[O-])c1)c1cccc(S(=O)(=O)N2CCCC2)c1 (nonaromatic ring conformer: 79.65373993669608 kcal/mol)

>  <smiles>  (6) 
O=S(=O)(c1cccc(S(=O)(=O)c2cc(S(=O)(=O)N3CCCCC3)ccc2O)c1)c1cccc(S(=O)(=O)N2CCCC2)c1

>  <score_type>  (6) 
oracle

>  <origin>  (6) 
adgpu

>  <m_score__min__energy>  (6) 
-15.609999999999999

>  <m_primary>  (6) 
energy

$$$$
6:0
     RDKit          3D

 49 52  0  0  0  0  0  0  0  0999 V2000
   -0.2280   19.1270  -29.0710 C   0  0  0  0  0  0  0  0  0  0  0  0
    0.0520   19.7900  -27.7860 N   0  0  0  0  0  0  0  0  0  0  0  0
   -0.9880   19.5250  -26.7730 C   0  0  0  0  0  0  0  0  0  0  0  0
   -2.3480   20.1240  -27.1590 C   0  0  0  0  0  0  0  0  0  0  0  0
   -2.2220   21.5290  -27.6880 C   0  0  0  0  0  0  0  0  0  0  0  0
   -3.3780   22.3110  -27.8250 C   0  0  0  0  0  0  0  0  0  0  0  0
   -3.3100   23.6080  -28.3640 C   0  0  0  0  0  0  0  0  0  0  0  0
   -4.4830   24.4220  -28.5170 N   0  0  0  0  0  0  0  0  0  0  0  0
   -5.2020   24.8830  -30.0270 S   0  0  0  0  0  0  0  0  0  0  0  0
   -6.3670   25.7970  -29.7670 O   0  0  0  0  0  0  0  0  0  0  0  0
   -4.1870   25.6220  -30.8520 O   0  0  0  0  0  0  0  0  0  0  0  0
   -5.7080   23.4420  -30.9080 C   0  0  0  0  0  0  0  0  0  0  0  0
   -4.8630   22.8460  -31.8550 C   0  0  0  0  0  0  0  0  0  0  0  0
   -5.2850   21.7210  -32.5700 C   0  0  0  0  0  0  0  0  0  0  0  0
   -6.5620   21.1740  -32.3390 C   0  0  0  0  0  0  0  0  0  0  0  0
   -7.3950   21.7620  -31.3690 C   0  0  0  0  0  0  0  0  0  0  0  0
   -6.9740   22.8980  -30.6700 C   0  0  0  0  0  0  0  0  0  0  0  0
   -8.6540   21.2100  -31.1090 O   0  0  0  0  0  0  0  0  0  0  0  0
   -9.0230   19.9240  -31.6070 C   0  0  0  0  0  0  0  0  0  0  0  0
   -8.4990   19.7410  -33.0330 C   0  0  0  0  0  0  0  0  0  0  0  0
   -7.0570   20.0310  -33.0750 N   0  0  0  0  0  0  0  0  0  0  0  0
   -6.1520   19.1580  -33.8290 C   0  0  0  0  0  0  0  0  0  0  0  0
   -2.0630   24.1220  -28.7620 C   0  0  0  0  0  0  0  0  0  0  0  0
   -1.9400   25.4120  -29.2800 O   0  0  0  0  0  0  0  0  0  0  0  0
   -0.9120   23.3370  -28.6370 C   0  0  0  0  0  0  0  0  0  0  0  0
   -0.9830   22.0350  -28.1250 C   0  0  0  0  0  0  0  0  0  0  0  0
    0.2910   21.2390  -27.9510 C   0  0  0  0  0  0  0  0  0  0  0  0
   -0.6497   18.1284  -28.8841 H   0  0  0  0  0  0  0  0  0  0  0  0
   -0.9491   19.7281  -29.6443 H   0  0  0  0  0  0  0  0  0  0  0  0
    0.7057   19.0293  -29.6443 H   0  0  0  0  0  0  0  0  0  0  0  0
   -1.1009   18.4368  -26.6591 H   0  0  0  0  0  0  0  0  0  0  0  0
   -0.6682   19.9979  -25.8327 H   0  0  0  0  0  0  0  0  0  0  0  0
   -2.8054   19.4930  -27.9353 H   0  0  0  0  0  0  0  0  0  0  0  0
   -2.9707   20.1591  -26.2529 H   0  0  0  0  0  0  0  0  0  0  0  0
   -4.3496   21.9049  -27.5070 H   0  0  0  0  0  0  0  0  0  0  0  0
   -3.8626   23.2658  -32.0364 H   0  0  0  0  0  0  0  0  0  0  0  0
   -4.6180   21.2621  -33.3147 H   0  0  0  0  0  0  0  0  0  0  0  0
   -7.6411   23.3651  -29.9305 H   0  0  0  0  0  0  0  0  0  0  0  0
   -8.5931   19.1460  -30.9590 H   0  0  0  0  0  0  0  0  0  0  0  0
  -10.1199   19.8422  -31.6137 H   0  0  0  0  0  0  0  0  0  0  0  0
   -8.6725   18.7038  -33.3555 H   0  0  0  0  0  0  0  0  0  0  0  0
   -9.0282   20.4317  -33.7059 H   0  0  0  0  0  0  0  0  0  0  0  0
   -5.5418   18.5694  -33.1281 H   0  0  0  0  0  0  0  0  0  0  0  0
   -6.7412   18.4784  -34.4623 H   0  0  0  0  0  0  0  0  0  0  0  0
   -5.4940   19.7712  -34.4623 H   0  0  0  0  0  0  0  0  0  0  0  0
   -2.7260   26.0490  -29.3440 H   0  0  0  0  0  0  0  0  0  0  0  0
    0.0612   23.7472  -28.9446 H   0  0  0  0  0  0  0  0  0  0  0  0
    0.9224   21.3907  -28.8389 H   0  0  0  0  0  0  0  0  0  0  0  0
    0.7785   21.5974  -27.0324 H   0  0  0  0  0  0  0  0  0  0  0  0
  1  2  1  0
  2  3  1  0
  3  4  1  0
  4  5  1  0
  5  6  2  0
  6  7  1  0
  7  8  1  0
  8  9  1  0
  9 10  2  0
  9 11  2  0
  9 12  1  0
 12 13  2  0
 13 14  1  0
 14 15  2  0
 15 16  1  0
 16 17  2  0
 16 18  1  0
 18 19  1  0
 19 20  1  0
 20 21  1  0
 21 22  1  0
  7 23  2  0
 23 24  1  0
 23 25  1  0
 25 26  2  0
 26 27  1  0
 27  2  1  0
 26  5  1  0
 17 12  1  0
 21 15  1  0
  1 28  1  0
  1 29  1  0
  1 30  1  0
  3 31  1  0
  3 32  1  0
  4 33  1  0
  4 34  1  0
  6 35  1  0
 13 36  1  0
 14 37  1  0
 17 38  1  0
 19 39  1  0
 19 40  1  0
 20 41  1  0
 20 42  1  0
 22 43  1  0
 22 44  1  0
 22 45  1  0
 24 46  1  0
 25 47  1  0
 27 48  1  0
 27 49  1  0
M  CHG  1   8  -1
M  END
>  <UniqueID>  (7) 
7

>  <SMILES>  (7) 
CN1CCc2cc([N-]S(=O)(=O)c3ccc4c(c3)OCCN4C)c(O)cc2C1

>  <Energy>  (7) 
60.70207050125459

>  <Genealogy>  (7) 
CN1CCc2cc([N-]S(=O)(=O)c3ccc4c(c3)OCCN4C)c(O)cc2C1 (protonated)
CN1CCc2cc([N-]S(=O)(=O)c3ccc4c(c3)OCCN4C)c(O)cc2C1 (3D coordinates assigned)
CN1CCc2cc([N-]S(=O)(=O)c3ccc4c(c3)OCCN4C)c(O)cc2C1 (nonaromatic ring conformer: 60.70207050125459 kcal/mol)

>  <smiles>  (7) 
CN1CCc2cc(NS(=O)(=O)c3ccc4c(c3)OCCN4C)c(O)cc2C1

>  <score_type>  (7) 
oracle

>  <origin>  (7) 
adgpu

>  <m_score__min__energy>  (7) 
-12.27

>  <m_primary>  (7) 
energy

$$$$
7:0
     RDKit          3D

 51 54  0  0  1  0  0  0  0  0999 V2000
   -4.7640   18.7670  -34.1610 C   0  0  0  0  0  0  0  0  0  0  0  0
   -5.0720   20.0020  -33.8210 C   0  0  0  0  0  0  0  0  0  0  0  0
   -4.1190   20.9310  -33.1760 C   0  0  0  0  0  0  0  0  0  0  0  0
   -3.8640   21.9690  -33.8280 O   0  0  0  0  0  0  0  0  0  0  0  0
   -3.5460   20.6610  -31.9240 N   0  0  0  0  0  0  0  0  0  0  0  0
   -2.6240   21.4290  -31.1950 C   0  0  0  0  0  0  0  0  0  0  0  0
   -3.0850   22.6230  -30.5730 C   0  0  0  0  0  0  0  0  0  0  0  0
   -2.2380   23.3950  -29.8230 C   0  0  0  0  0  0  0  0  0  0  0  0
   -2.6800   24.5440  -29.2250 C   0  0  0  0  0  0  0  0  0  0  0  0
   -3.8460   24.9260  -29.3120 N   0  0  0  0  0  0  0  0  0  0  0  0
   -4.9610   24.4420  -29.9290 C   0  0  0  0  0  0  0  0  0  0  0  0
   -5.6710   23.3880  -29.2990 C   0  0  0  0  0  0  0  0  0  0  0  0
   -6.7360   22.8110  -29.9670 C   0  0  0  0  0  0  0  0  0  0  0  0
   -7.1210   23.2340  -31.2210 C   0  0  0  0  0  0  0  0  0  0  0  0
   -8.5140   22.4180  -31.9970 S   0  0  0  0  0  0  0  0  0  0  0  0
   -8.3440   20.6430  -31.9880 C   0  0  0  0  0  0  0  0  0  0  0  0
   -9.3650   19.7870  -32.3480 C   0  0  0  0  0  0  0  0  0  0  0  0
   -9.1110   18.4320  -32.3020 C   0  0  0  0  0  0  0  0  0  0  0  0
   -7.9040   17.8950  -31.9170 C   0  0  0  0  0  0  0  0  0  0  0  0
   -6.9000   18.7600  -31.5630 C   0  0  0  0  0  0  0  0  0  0  0  0
   -7.1110   20.1340  -31.5950 C   0  0  0  0  0  0  0  0  0  0  0  0
   -6.4430   24.2500  -31.8370 C   0  0  0  0  0  0  0  0  0  0  0  0
   -5.3810   24.8560  -31.2210 C   0  0  0  0  0  0  0  0  0  0  0  0
   -1.7990   25.2700  -28.4970 N   0  0  0  0  0  0  0  0  0  0  0  0
   -0.5140   24.9230  -28.3290 C   0  0  0  0  0  0  0  0  0  0  0  0
   -0.0570   23.8020  -28.9030 N   0  0  0  0  0  0  0  0  0  0  0  0
   -0.9210   23.0710  -29.6300 C   0  0  0  0  0  0  0  0  0  0  0  0
   -0.4500   21.9310  -30.2130 C   0  0  0  0  0  0  0  0  0  0  0  0
   -1.3110   21.1650  -30.9630 C   0  0  0  0  0  0  0  0  0  0  0  0
   -0.7770   20.0190  -31.5230 O   0  0  0  0  0  0  0  0  0  0  0  0
   -0.0200   19.0970  -30.7750 C   0  0  0  0  0  0  0  0  0  0  0  0
   -5.5178   18.1237  -34.6385 H   0  0  0  0  0  0  0  0  0  0  0  0
   -3.7530   18.3791  -33.9674 H   0  0  0  0  0  0  0  0  0  0  0  0
   -6.0911   20.3609  -34.0276 H   0  0  0  0  0  0  0  0  0  0  0  0
   -3.8530   19.7390  -31.4770 H   0  0  0  0  0  0  0  0  0  0  0  0
   -4.1342   22.9296  -30.6960 H   0  0  0  0  0  0  0  0  0  0  0  0
   -5.3802   23.0361  -28.2982 H   0  0  0  0  0  0  0  0  0  0  0  0
   -7.2905   21.9926  -29.4845 H   0  0  0  0  0  0  0  0  0  0  0  0
  -10.3469   20.1718  -32.6607 H   0  0  0  0  0  0  0  0  0  0  0  0
   -9.9184   17.7422  -32.5891 H   0  0  0  0  0  0  0  0  0  0  0  0
   -7.7491   16.8062  -31.8938 H   0  0  0  0  0  0  0  0  0  0  0  0
   -5.9219   18.3643  -31.2519 H   0  0  0  0  0  0  0  0  0  0  0  0
   -6.3004   20.8202  -31.3087 H   0  0  0  0  0  0  0  0  0  0  0  0
   -6.7544   24.5836  -32.8379 H   0  0  0  0  0  0  0  0  0  0  0  0
   -4.8479   25.6714  -31.7317 H   0  0  0  0  0  0  0  0  0  0  0  0
   -2.0980   26.1570  -28.0230 H   0  0  0  0  0  0  0  0  0  0  0  0
    0.1574   25.5523  -27.7263 H   0  0  0  0  0  0  0  0  0  0  0  0
    0.6003   21.6299  -30.0853 H   0  0  0  0  0  0  0  0  0  0  0  0
   -0.1725   19.2827  -29.7016 H   0  0  0  0  0  0  0  0  0  0  0  0
   -0.3422   18.0741  -31.0195 H   0  0  0  0  0  0  0  0  0  0  0  0
    1.0461   19.2139  -31.0195 H   0  0  0  0  0  0  0  0  0  0  0  0
  1  2  2  0
  2  3  1  0
  3  4  2  0
  3  5  1  0
  5  6  1  0
  6  7  2  0
  7  8  1  0
  8  9  1  0
  9 10  2  0
 10 11  1  0
 11 12  2  0
 12 13  1  0
 13 14  2  0
 14 15  1  0
 15 16  1  0
 16 17  2  0
 17 18  1  0
 18 19  2  0
 19 20  1  0
 20 21  2  0
 14 22  1  0
 22 23  2  0
  9 24  1  0
 24 25  1  0
 25 26  2  0
 26 27  1  0
 27 28  1  0
 28 29  2  0
 29 30  1  0
 30 31  1  0
 29  6  1  0
 27  8  2  0
 23 11  1  0
 21 16  1  0
  1 32  1  0
  1 33  1  0
  2 34  1  0
  5 35  1  0
  7 36  1  0
 12 37  1  0
 13 38  1  0
 17 39  1  0
 18 40  1  0
 19 41  1  0
 20 42  1  0
 21 43  1  0
 22 44  1  0
 23 45  1  0
 24 46  1  0
 25 47  1  0
 28 48  1  0
 31 49  1  0
 31 50  1  0
 31 51  1  0
M  END
>  <smiles>  (8) 
C=CC(=O)Nc1cc2c(=Nc3ccc(Sc4ccccc4)cc3)[nH]cnc2cc1OC

>  <score_type>  (8) 
oracle

>  <origin>  (8) 
adgpu

>  <m_score__min__energy>  (8) 
-9.0800000000000001

>  <m_primary>  (8) 
energy

$$$$
8:0
     RDKit          3D

 52 55  0  0  0  0  0  0  0  0999 V2000
   -1.4870   25.6640  -29.0250 N   0  0  0  0  0  0  0  0  0  0  0  0
   -0.5080   24.8900  -28.3350 C   0  0  0  0  0  0  0  0  0  0  0  0
    0.2790   24.1660  -29.0030 O   0  0  0  0  0  0  0  0  0  0  0  0
   -0.4130   24.9280  -26.8520 C   0  0  0  0  0  0  0  0  0  0  0  0
   -0.0500   23.7700  -26.1130 C   0  0  0  0  0  0  0  0  0  0  0  0
    0.1960   22.5290  -26.7810 N   0  0  0  0  0  0  0  0  0  0  0  0
   -1.0810   21.4610  -27.2630 S   0  0  0  0  0  0  0  0  0  0  0  0
   -1.6360   20.7810  -26.0410 O   0  0  0  0  0  0  0  0  0  0  0  0
   -0.5280   20.4120  -28.1840 O   0  0  0  0  0  0  0  0  0  0  0  0
   -2.3780   22.3390  -28.0710 C   0  0  0  0  0  0  0  0  0  0  0  0
   -3.2260   23.1810  -27.3390 C   0  0  0  0  0  0  0  0  0  0  0  0
   -4.2320   23.9020  -27.9880 C   0  0  0  0  0  0  0  0  0  0  0  0
   -4.4000   23.7870  -29.3750 C   0  0  0  0  0  0  0  0  0  0  0  0
   -5.6660   24.7030  -30.1970 S   0  0  0  0  0  0  0  0  0  0  0  0
   -6.3900   25.5560  -29.1930 O   0  0  0  0  0  0  0  0  0  0  0  0
   -5.0340   25.6150  -31.2130 O   0  0  0  0  0  0  0  0  0  0  0  0
   -6.8120   23.6560  -30.9990 N   0  0  0  0  0  0  0  0  0  0  0  0
   -7.5600   22.8580  -30.0150 C   0  0  0  0  0  0  0  0  0  0  0  0
   -8.4560   21.8240  -30.7270 C   0  0  0  0  0  0  0  0  0  0  0  0
   -8.4580   22.0220  -32.1280 O   0  0  0  0  0  0  0  0  0  0  0  0
   -7.1500   21.8440  -32.6410 C   0  0  0  0  0  0  0  0  0  0  0  0
   -6.1260   22.7690  -31.9500 C   0  0  0  0  0  0  0  0  0  0  0  0
   -3.5480   22.9480  -30.1080 C   0  0  0  0  0  0  0  0  0  0  0  0
   -2.5420   22.2260  -29.4580 C   0  0  0  0  0  0  0  0  0  0  0  0
    0.0750   23.8370  -24.7110 C   0  0  0  0  0  0  0  0  0  0  0  0
   -0.1880   25.0270  -24.0280 C   0  0  0  0  0  0  0  0  0  0  0  0
   -0.5640   26.1510  -24.7580 C   0  0  0  0  0  0  0  0  0  0  0  0
   -0.6780   26.1120  -26.1290 C   0  0  0  0  0  0  0  0  0  0  0  0
   -1.0590   27.4480  -26.6650 C   0  0  0  0  0  0  0  0  0  0  0  0
   -1.0560   28.3750  -25.4370 C   0  0  0  0  0  0  0  0  0  0  0  0
   -0.8600   27.4890  -24.1980 C   0  0  0  0  0  0  0  0  0  0  0  0
   -1.2080   26.3850  -29.7250 H   0  0  0  0  0  0  0  0  0  0  0  0
   -3.0994   23.2747  -26.2503 H   0  0  0  0  0  0  0  0  0  0  0  0
   -4.8943   24.5620  -27.4085 H   0  0  0  0  0  0  0  0  0  0  0  0
   -6.8496   22.3317  -29.3605 H   0  0  0  0  0  0  0  0  0  0  0  0
   -8.1960   23.5308  -29.4210 H   0  0  0  0  0  0  0  0  0  0  0  0
   -8.0799   20.8136  -30.5087 H   0  0  0  0  0  0  0  0  0  0  0  0
   -9.4853   21.9449  -30.3583 H   0  0  0  0  0  0  0  0  0  0  0  0
   -6.8464   20.7984  -32.4840 H   0  0  0  0  0  0  0  0  0  0  0  0
   -7.1679   22.0973  -33.7113 H   0  0  0  0  0  0  0  0  0  0  0  0
   -5.3882   22.1571  -31.4104 H   0  0  0  0  0  0  0  0  0  0  0  0
   -5.6186   23.3792  -32.7117 H   0  0  0  0  0  0  0  0  0  0  0  0
   -3.6714   22.8576  -31.1973 H   0  0  0  0  0  0  0  0  0  0  0  0
   -1.8777   21.5677  -30.0371 H   0  0  0  0  0  0  0  0  0  0  0  0
    0.3828   22.9432  -24.1486 H   0  0  0  0  0  0  0  0  0  0  0  0
   -0.0995   25.0749  -22.9326 H   0  0  0  0  0  0  0  0  0  0  0  0
   -0.3269   27.7900  -27.4114 H   0  0  0  0  0  0  0  0  0  0  0  0
   -2.0351   27.4309  -27.1719 H   0  0  0  0  0  0  0  0  0  0  0  0
   -0.2331   29.1008  -25.5150 H   0  0  0  0  0  0  0  0  0  0  0  0
   -1.9997   28.9362  -25.3698 H   0  0  0  0  0  0  0  0  0  0  0  0
   -0.0204   27.8516  -23.5868 H   0  0  0  0  0  0  0  0  0  0  0  0
   -1.7386   27.4861  -23.5362 H   0  0  0  0  0  0  0  0  0  0  0  0
  1  2  1  0
  2  3  2  0
  2  4  1  0
  4  5  2  0
  5  6  1  0
  6  7  1  0
  7  8  2  0
  7  9  2  0
  7 10  1  0
 10 11  2  0
 11 12  1  0
 12 13  2  0
 13 14  1  0
 14 15  2  0
 14 16  2  0
 14 17  1  0
 17 18  1  0
 18 19  1  0
 19 20  1  0
 20 21  1  0
 21 22  1  0
 13 23  1  0
 23 24  2  0
  5 25  1  0
 25 26  2  0
 26 27  1  0
 27 28  2  0
 28 29  1  0
 29 30  1  0
 30 31  1  0
 28  4  1  0
 24 10  1  0
 31 27  1  0
 22 17  1  0
  1 32  1  0
 11 33  1  0
 12 34  1  0
 18 35  1  0
 18 36  1  0
 19 37  1  0
 19 38  1  0
 21 39  1  0
 21 40  1  0
 22 41  1  0
 22 42  1  0
 23 43  1  0
 24 44  1  0
 25 45  1  0
 26 46  1  0
 29 47  1  0
 29 48  1  0
 30 49  1  0
 30 50  1  0
 31 51  1  0
 31 52  1  0
M  CHG  2   1  -1   6  -1
M  END
>  <UniqueID>  (9) 
8

>  <SMILES>  (9) 
[NH-]C(=O)c1c([N-]S(=O)(=O)c2ccc(S(=O)(=O)N3CCOCC3)cc2)ccc2c1CCC2

>  <Energy>  (9) 
81.7161693242149

>  <Genealogy>  (9) 
[NH-]C(=O)c1c([N-]S(=O)(=O)c2ccc(S(=O)(=O)N3CCOCC3)cc2)ccc2c1CCC2 (protonated)
[NH-]C(=O)c1c([N-]S(=O)(=O)c2ccc(S(=O)(=O)N3CCOCC3)cc2)ccc2c1CCC2 (3D coordinates assigned)
[NH-]C(=O)c1c([N-]S(=O)(=O)c2ccc(S(=O)(=O)N3CCOCC3)cc2)ccc2c1CCC2 (nonaromatic ring conformer: 81.7161693242149 kcal/mol)

>  <smiles>  (9) 
NC(=O)c1c(NS(=O)(=O)c2ccc(S(=O)(=O)N3CCOCC3)cc2)ccc2c1CCC2

>  <score_type>  (9) 
oracle

>  <origin>  (9) 
adgpu

>  <m_score__min__energy>  (9) 
-14.67

>  <m_primary>  (9) 
energy

$$$$
9:0
     RDKit          3D

 51 53  0  0  0  0  0  0  0  0999 V2000
   -3.3830   23.2450  -27.4710 C   0  0  0  0  0  0  0  0  0  0  0  0
   -3.5240   24.0530  -28.7230 C   0  0  0  0  0  0  0  0  0  0  0  0
   -2.6980   24.9790  -28.9450 O   0  0  0  0  0  0  0  0  0  0  0  0
   -4.6650   23.8420  -29.6460 C   0  0  0  0  0  0  0  0  0  0  0  0
   -5.5940   22.8270  -29.3620 C   0  0  0  0  0  0  0  0  0  0  0  0
   -6.7130   22.6350  -30.1740 C   0  0  0  0  0  0  0  0  0  0  0  0
   -6.9260   23.4560  -31.2950 C   0  0  0  0  0  0  0  0  0  0  0  0
   -8.0320   23.3040  -32.1460 O   0  0  0  0  0  0  0  0  0  0  0  0
   -9.0830   22.3520  -31.9740 C   0  0  0  0  0  0  0  0  0  0  0  0
   -8.5690   20.9500  -32.1730 C   0  0  0  0  0  0  0  0  0  0  0  0
   -9.4100   19.8550  -31.9260 C   0  0  0  0  0  0  0  0  0  0  0  0
   -8.9420   18.5520  -32.1140 C   0  0  0  0  0  0  0  0  0  0  0  0
   -7.6350   18.3330  -32.5550 C   0  0  0  0  0  0  0  0  0  0  0  0
   -6.7820   19.4180  -32.8130 C   0  0  0  0  0  0  0  0  0  0  0  0
   -5.3940   19.1950  -33.2750 C   0  0  0  0  0  0  0  0  0  0  0  0
   -5.1580   18.2290  -34.0500 O   0  0  0  0  0  0  0  0  0  0  0  0
   -4.3110   20.0530  -32.8630 N   0  0  0  0  0  0  0  0  0  0  0  0
   -4.3080   20.6840  -31.5340 C   0  0  0  0  0  0  0  0  0  0  0  0
   -2.9080   20.6490  -30.8800 C   0  0  0  0  0  0  0  0  0  0  0  0
   -1.8050   20.4580  -31.8510 N   0  0  0  0  0  0  0  0  0  0  0  0
   -0.5370   20.9550  -31.2960 C   0  0  0  0  0  0  0  0  0  0  0  0
   -2.0950   21.1050  -33.1400 C   0  0  0  0  0  0  0  0  0  0  0  0
   -3.2340   20.3450  -33.8170 C   0  0  0  0  0  0  0  0  0  0  0  0
   -7.2490   20.7250  -32.5970 C   0  0  0  0  0  0  0  0  0  0  0  0
   -6.0020   24.4640  -31.5840 C   0  0  0  0  0  0  0  0  0  0  0  0
   -4.8680   24.6560  -30.7870 C   0  0  0  0  0  0  0  0  0  0  0  0
   -3.9550   25.6380  -31.1780 O   0  0  0  0  0  0  0  0  0  0  0  0
   -3.4976   23.9017  -26.5960 H   0  0  0  0  0  0  0  0  0  0  0  0
   -4.1587   22.4654  -27.4484 H   0  0  0  0  0  0  0  0  0  0  0  0
   -2.3891   22.7742  -27.4484 H   0  0  0  0  0  0  0  0  0  0  0  0
   -5.4376   22.1759  -28.4893 H   0  0  0  0  0  0  0  0  0  0  0  0
   -7.4318   21.8372  -29.9355 H   0  0  0  0  0  0  0  0  0  0  0  0
   -9.4923   22.4457  -30.9573 H   0  0  0  0  0  0  0  0  0  0  0  0
   -9.8662   22.5509  -32.7204 H   0  0  0  0  0  0  0  0  0  0  0  0
  -10.4416   20.0227  -31.5831 H   0  0  0  0  0  0  0  0  0  0  0  0
   -9.6044   17.6968  -31.9142 H   0  0  0  0  0  0  0  0  0  0  0  0
   -7.2719   17.3050  -32.7010 H   0  0  0  0  0  0  0  0  0  0  0  0
   -4.6255   21.7321  -31.6377 H   0  0  0  0  0  0  0  0  0  0  0  0
   -4.9987   20.1212  -30.8889 H   0  0  0  0  0  0  0  0  0  0  0  0
   -2.7464   21.6008  -30.3528 H   0  0  0  0  0  0  0  0  0  0  0  0
   -2.8914   19.7856  -30.1986 H   0  0  0  0  0  0  0  0  0  0  0  0
   -0.5853   20.9361  -30.1972 H   0  0  0  0  0  0  0  0  0  0  0  0
    0.2891   20.3141  -31.6378 H   0  0  0  0  0  0  0  0  0  0  0  0
   -0.3664   21.9865  -31.6378 H   0  0  0  0  0  0  0  0  0  0  0  0
   -2.3944   22.1500  -32.9718 H   0  0  0  0  0  0  0  0  0  0  0  0
   -1.1998   21.0912  -33.7791 H   0  0  0  0  0  0  0  0  0  0  0  0
   -3.6365   20.9564  -34.6380 H   0  0  0  0  0  0  0  0  0  0  0  0
   -2.8399   19.3933  -34.2030 H   0  0  0  0  0  0  0  0  0  0  0  0
   -6.5756   21.5791  -32.7612 H   0  0  0  0  0  0  0  0  0  0  0  0
   -6.1691   25.1176  -32.4528 H   0  0  0  0  0  0  0  0  0  0  0  0
   -3.0040   25.6810  -30.8390 H   0  0  0  0  0  0  0  0  0  0  0  0
  1  2  1  0
  2  3  2  0
  2  4  1  0
  4  5  2  0
  5  6  1  0
  6  7  2  0
  7  8  1  0
  8  9  1  0
  9 10  1  0
 10 11  2  0
 11 12  1  0
 12 13  2  0
 13 14  1  0
 14 15  1  0
 15 16  2  0
 15 17  1  0
 17 18  1  0
 18 19  1  0
 19 20  1  0
 20 21  1  0
 20 22  1  0
 22 23  1  0
 14 24  2  0
  7 25  1  0
 25 26  2  0
 26 27  1  0
 26  4  1  0
 24 10  1  0
 23 17  1  0
  1 28  1  0
  1 29  1  0
  1 30  1  0
  5 31  1  0
  6 32  1  0
  9 33  1  0
  9 34  1  0
 11 35  1  0
 12 36  1  0
 13 37  1  0
 18 38  1  0
 18 39  1  0
 19 40  1  0
 19 41  1  0
 21 42  1  0
 21 43  1  0
 21 44  1  0
 22 45  1  0
 22 46  1  0
 23 47  1  0
 23 48  1  0
 24 49  1  0
 25 50  1  0
 27 51  1  0
M  END
>  <UniqueID>  (10) 
9

>  <SMILES>  (10) 
CC(=O)c1ccc(OCc2cccc(C(=O)N3CCN(C)CC3)c2)cc1O

>  <Energy>  (10) 
65.88519955666543

>  <Genealogy>  (10) 
CC(=O)c1ccc(OCc2cccc(C(=O)N3CCN(C)CC3)c2)cc1O (3D coordinates assigned)
CC(=O)c1ccc(OCc2cccc(C(=O)N3CCN(C)CC3)c2)cc1O (nonaromatic ring conformer: 65.88519955666543 kcal/mol)

>  <smiles>  (10) 
CC(=O)c1ccc(OCc2cccc(C(=O)N3CCN(C)CC3)c2)cc1O

>  <score_type>  (10) 
oracle

>  <origin>  (10) 
adgpu

>  <m_score__min__energy>  (10) 
-10.24

>  <m_primary>  (10) 
energy

$$$$
10:0
     RDKit          3D

 45 48  0  0  0  0  0  0  0  0999 V2000
   -9.2750   21.2110  -32.2350 O   0  0  0  0  0  0  0  0  0  0  0  0
   -7.8560   20.7530  -32.0430 S   0  0  0  0  0  0  0  0  0  0  0  0
   -7.8100   19.7680  -30.9080 O   0  0  0  0  0  0  0  0  0  0  0  0
   -7.3050   19.9760  -33.4930 N   0  0  0  0  0  0  0  0  0  0  0  0
   -5.9990   19.3880  -33.6410 C   0  0  0  0  0  0  0  0  0  0  0  0
   -5.7490   18.3490  -34.5570 C   0  0  0  0  0  0  0  0  0  0  0  0
   -4.4690   17.7970  -34.6680 C   0  0  0  0  0  0  0  0  0  0  0  0
   -3.4230   18.2710  -33.8700 C   0  0  0  0  0  0  0  0  0  0  0  0
   -1.8090   17.5860  -34.0340 S   0  0  0  0  0  0  0  0  0  0  0  0
   -1.6080   16.5040  -33.0090 O   0  0  0  0  0  0  0  0  0  0  0  0
   -1.6700   16.9810  -35.4030 O   0  0  0  0  0  0  0  0  0  0  0  0
   -0.6240   18.8510  -33.8340 N   0  0  0  0  0  0  0  0  0  0  0  0
   -1.0040   20.0570  -34.5690 C   0  0  0  0  0  0  0  0  0  0  0  0
   -0.3620   21.2280  -33.8420 C   0  0  0  0  0  0  0  0  0  0  0  0
   -0.0510   20.7120  -32.4450 C   0  0  0  0  0  0  0  0  0  0  0  0
   -0.5180   19.2650  -32.4350 C   0  0  0  0  0  0  0  0  0  0  0  0
   -3.6620   19.3170  -32.9680 C   0  0  0  0  0  0  0  0  0  0  0  0
   -4.9400   19.8700  -32.8550 C   0  0  0  0  0  0  0  0  0  0  0  0
   -6.8520   22.1550  -31.6930 C   0  0  0  0  0  0  0  0  0  0  0  0
   -7.2040   23.4200  -32.2250 C   0  0  0  0  0  0  0  0  0  0  0  0
   -6.4050   24.5490  -31.9710 C   0  0  0  0  0  0  0  0  0  0  0  0
   -5.2680   24.3850  -31.1840 C   0  0  0  0  0  0  0  0  0  0  0  0
   -4.3860   25.3390  -30.8340 N   0  0  0  0  0  0  0  0  0  0  0  0
   -3.4790   24.6760  -30.0780 C   0  0  0  0  0  0  0  0  0  0  0  0
   -2.3770   25.2960  -29.5030 O   0  0  0  0  0  0  0  0  0  0  0  0
   -3.7720   23.3260  -29.9450 C   0  0  0  0  0  0  0  0  0  0  0  0
   -4.9290   23.1610  -30.6660 C   0  0  0  0  0  0  0  0  0  0  0  0
   -5.6960   22.0220  -30.8960 C   0  0  0  0  0  0  0  0  0  0  0  0
   -7.9380   20.0160  -34.3220 H   0  0  0  0  0  0  0  0  0  0  0  0
   -6.5651   17.9691  -35.1891 H   0  0  0  0  0  0  0  0  0  0  0  0
   -4.2839   16.9854  -35.3870 H   0  0  0  0  0  0  0  0  0  0  0  0
   -0.6342   20.0035  -35.6036 H   0  0  0  0  0  0  0  0  0  0  0  0
   -2.0976   20.1677  -34.6121 H   0  0  0  0  0  0  0  0  0  0  0  0
    0.5616   21.5387  -34.3524 H   0  0  0  0  0  0  0  0  0  0  0  0
   -1.0230   22.1069  -33.8166 H   0  0  0  0  0  0  0  0  0  0  0  0
    1.0292   20.7690  -32.2454 H   0  0  0  0  0  0  0  0  0  0  0  0
   -0.5516   21.3085  -31.6681 H   0  0  0  0  0  0  0  0  0  0  0  0
    0.2120   18.6341  -31.9067 H   0  0  0  0  0  0  0  0  0  0  0  0
   -1.4828   19.1628  -31.9166 H   0  0  0  0  0  0  0  0  0  0  0  0
   -2.8405   19.7038  -32.3470 H   0  0  0  0  0  0  0  0  0  0  0  0
   -5.1182   20.6902  -32.1440 H   0  0  0  0  0  0  0  0  0  0  0  0
   -8.1094   23.5198  -32.8416 H   0  0  0  0  0  0  0  0  0  0  0  0
   -6.6707   25.5340  -32.3824 H   0  0  0  0  0  0  0  0  0  0  0  0
   -3.2070   22.5631  -29.3894 H   0  0  0  0  0  0  0  0  0  0  0  0
   -5.4095   21.0493  -30.4697 H   0  0  0  0  0  0  0  0  0  0  0  0
  1  2  2  0
  2  3  2  0
  2  4  1  0
  4  5  1  0
  5  6  2  0
  6  7  1  0
  7  8  2  0
  8  9  1  0
  9 10  2  0
  9 11  2  0
  9 12  1  0
 12 13  1  0
 13 14  1  0
 14 15  1  0
 15 16  1  0
  8 17  1  0
 17 18  2  0
  2 19  1  0
 19 20  2  0
 20 21  1  0
 21 22  2  0
 22 23  1  0
 23 24  1  0
 24 25  1  0
 24 26  2  0
 26 27  1  0
 27 28  2  0
 18  5  1  0
 28 19  1  0
 16 12  1  0
 27 22  1  0
  4 29  1  0
  6 30  1  0
  7 31  1  0
 13 32  1  0
 13 33  1  0
 14 34  1  0
 14 35  1  0
 15 36  1  0
 15 37  1  0
 16 38  1  0
 16 39  1  0
 17 40  1  0
 18 41  1  0
 20 42  1  0
 21 43  1  0
 26 44  1  0
 28 45  1  0
M  CHG  2  23  -1  25  -1
M  END
>  <UniqueID>  (11) 
10

>  <SMILES>  (11) 
O=S(=O)(Nc1ccc(S(=O)(=O)N2CCCC2)cc1)c1ccc2[n-]c([O-])cc2c1

>  <Energy>  (11) 
83.38244490036867

>  <Genealogy>  (11) 
O=S(=O)(Nc1ccc(S(=O)(=O)N2CCCC2)cc1)c1ccc2[n-]c([O-])cc2c1 (protonated)
O=S(=O)(Nc1ccc(S(=O)(=O)N2CCCC2)cc1)c1ccc2[n-]c([O-])cc2c1 (3D coordinates assigned)
O=S(=O)(Nc1ccc(S(=O)(=O)N2CCCC2)cc1)c1ccc2[n-]c([O-])cc2c1 (nonaromatic ring conformer: 83.38244490036867 kcal/mol)

>  <smiles>  (11) 
O=S(=O)(Nc1ccc(S(=O)(=O)N2CCCC2)cc1)c1ccc2[nH]c(O)cc2c1

>  <score_type>  (11) 
oracle

>  <origin>  (11) 
adgpu

>  <m_score__min__energy>  (11) 
-13.640000000000001

>  <m_primary>  (11) 
energy

$$$$
11:0
     RDKit          3D

 44 46  0  0  0  0  0  0  0  0999 V2000
  -10.1300   21.3760  -31.9850 C   0  0  0  0  0  0  0  0  0  0  0  0
   -8.6660   21.7060  -31.8390 C   0  0  0  0  0  0  0  0  0  0  0  0
   -8.3170   23.0510  -31.6790 C   0  0  0  0  0  0  0  0  0  0  0  0
   -6.9950   23.4260  -31.4890 C   0  0  0  0  0  0  0  0  0  0  0  0
   -5.9770   22.4680  -31.4210 C   0  0  0  0  0  0  0  0  0  0  0  0
   -4.3190   23.0710  -31.1850 S   0  0  0  0  0  0  0  0  0  0  0  0
   -4.2740   24.5730  -31.1950 O   0  0  0  0  0  0  0  0  0  0  0  0
   -3.4760   22.5970  -32.3370 O   0  0  0  0  0  0  0  0  0  0  0  0
   -3.5630   22.4540  -29.6670 C   0  0  2  0  0  0  0  0  0  0  0  0
   -4.3870   22.8360  -28.4180 C   0  0  0  0  0  0  0  0  0  0  0  0
   -3.8920   24.1650  -27.8480 C   0  0  0  0  0  0  0  0  0  0  0  0
   -2.1970   24.2830  -28.3240 S   0  0  0  0  0  0  0  0  0  0  0  0
   -1.8920   25.6060  -28.9690 O   0  0  0  0  0  0  0  0  0  0  0  0
   -1.2840   24.0420  -27.1540 O   0  0  0  0  0  0  0  0  0  0  0  0
   -2.1200   22.9490  -29.4820 C   0  0  0  0  0  0  0  0  0  0  0  0
   -6.3070   21.0950  -31.5650 C   0  0  0  0  0  0  0  0  0  0  0  0
   -4.9670   19.7380  -31.2480 Br  0  0  0  0  0  0  0  0  0  0  0  0
   -7.6480   20.7140  -31.8610 C   0  0  0  0  0  0  0  0  0  0  0  0
   -8.0510   19.0060  -32.2180 S   0  0  0  0  0  0  0  0  0  0  0  0
   -8.1810   18.2220  -30.9430 O   0  0  0  0  0  0  0  0  0  0  0  0
   -9.3770   18.9210  -32.9230 O   0  0  0  0  0  0  0  0  0  0  0  0
   -6.8110   18.2560  -33.2210 C   0  0  0  0  0  0  0  0  0  0  0  0
   -6.1140   18.9980  -34.1910 C   0  0  0  0  0  0  0  0  0  0  0  0
   -5.1300   18.3820  -34.9700 C   0  0  0  0  0  0  0  0  0  0  0  0
   -4.8370   17.0270  -34.7900 C   0  0  0  0  0  0  0  0  0  0  0  0
   -5.5350   16.2820  -33.8340 C   0  0  0  0  0  0  0  0  0  0  0  0
   -6.5180   16.8950  -33.0510 C   0  0  0  0  0  0  0  0  0  0  0  0
  -10.5840   21.2737  -30.9883 H   0  0  0  0  0  0  0  0  0  0  0  0
  -10.6345   22.1830  -32.5366 H   0  0  0  0  0  0  0  0  0  0  0  0
  -10.2395   20.4306  -32.5366 H   0  0  0  0  0  0  0  0  0  0  0  0
   -9.1014   23.8218  -31.7042 H   0  0  0  0  0  0  0  0  0  0  0  0
   -6.7431   24.4922  -31.3903 H   0  0  0  0  0  0  0  0  0  0  0  0
   -3.5468   21.3592  -29.7727 H   0  0  0  0  0  0  0  0  0  0  0  0
   -5.4468   22.9319  -28.6967 H   0  0  0  0  0  0  0  0  0  0  0  0
   -4.2698   22.0516  -27.6558 H   0  0  0  0  0  0  0  0  0  0  0  0
   -4.4683   25.0020  -28.2691 H   0  0  0  0  0  0  0  0  0  0  0  0
   -4.0122   24.2095  -26.7555 H   0  0  0  0  0  0  0  0  0  0  0  0
   -1.7121   23.3005  -30.4412 H   0  0  0  0  0  0  0  0  0  0  0  0
   -1.4644   22.1432  -29.1203 H   0  0  0  0  0  0  0  0  0  0  0  0
   -6.3431   20.0639  -34.3370 H   0  0  0  0  0  0  0  0  0  0  0  0
   -4.5848   18.9652  -35.7267 H   0  0  0  0  0  0  0  0  0  0  0  0
   -4.0577   16.5469  -35.4001 H   0  0  0  0  0  0  0  0  0  0  0  0
   -5.3106   15.2137  -33.6981 H   0  0  0  0  0  0  0  0  0  0  0  0
   -7.0639   16.3072  -32.2984 H   0  0  0  0  0  0  0  0  0  0  0  0
  1  2  1  0
  2  3  2  0
  3  4  1  0
  4  5  2  0
  5  6  1  0
  6  7  2  0
  6  8  2  0
  6  9  1  0
  9 10  1  0
 10 11  1  0
 11 12  1  0
 12 13  2  0
 12 14  2  0
 12 15  1  0
  5 16  1  0
 16 17  1  0
 16 18  2  0
 18 19  1  0
 19 20  2  0
 19 21  2  0
 19 22  1  0
 22 23  2  0
 23 24  1  0
 24 25  2  0
 25 26  1  0
 26 27  2  0
 18  2  1  0
 27 22  1  0
 15  9  1  0
  1 28  1  0
  1 29  1  0
  1 30  1  0
  3 31  1  0
  4 32  1  0
  9 33  1  6
 10 34  1  0
 10 35  1  0
 11 36  1  0
 11 37  1  0
 15 38  1  0
 15 39  1  0
 23 40  1  0
 24 41  1  0
 25 42  1  0
 26 43  1  0
 27 44  1  0
M  END
>  <UniqueID>  (12) 
11

>  <SMILES>  (12) 
Cc1ccc(S(=O)(=O)[C@@H]2CCS(=O)(=O)C2)c(Br)c1S(=O)(=O)c1ccccc1

>  <Energy>  (12) 
53.68601584084662

>  <Genealogy>  (12) 
Cc1ccc(S(=O)(=O)[C@@H]2CCS(=O)(=O)C2)c(Br)c1S(=O)(=O)c1ccccc1 (chirality)
Cc1ccc(S(=O)(=O)[C@@H]2CCS(=O)(=O)C2)c(Br)c1S(=O)(=O)c1ccccc1 (3D coordinates assigned)
Cc1ccc(S(=O)(=O)[C@@H]2CCS(=O)(=O)C2)c(Br)c1S(=O)(=O)c1ccccc1 (nonaromatic ring conformer: 53.68601584084662 kcal/mol)

>  <smiles>  (12) 
Cc1ccc(S(=O)(=O)C2CCS(=O)(=O)C2)c(Br)c1S(=O)(=O)c1ccccc1

>  <score_type>  (12) 
oracle

>  <origin>  (12) 
adgpu

>  <m_score__min__energy>  (12) 
-10.93

>  <m_primary>  (12) 
energy

$$$$
12:0
     RDKit          3D

 45 47  0  0  0  0  0  0  0  0999 V2000
   -0.1760   19.1800  -30.7710 C   0  0  0  0  0  0  0  0  0  0  0  0
   -0.7750   20.5060  -30.4080 C   0  0  0  0  0  0  0  0  0  0  0  0
   -1.7890   21.0530  -31.2080 C   0  0  0  0  0  0  0  0  0  0  0  0
   -2.3560   22.2880  -30.8810 C   0  0  0  0  0  0  0  0  0  0  0  0
   -1.9110   22.9930  -29.7560 C   0  0  0  0  0  0  0  0  0  0  0  0
   -2.6300   24.5470  -29.3420 S   0  0  0  0  0  0  0  0  0  0  0  0
   -3.2340   24.4500  -27.9700 O   0  0  0  0  0  0  0  0  0  0  0  0
   -1.5870   25.6300  -29.3440 O   0  0  0  0  0  0  0  0  0  0  0  0
   -3.8740   24.9560  -30.4780 N   0  0  0  0  0  0  0  0  0  0  0  0
   -5.0760   24.2070  -30.6950 C   0  0  0  0  0  0  0  0  0  0  0  0
   -5.6200   24.1720  -31.9830 C   0  0  0  0  0  0  0  0  0  0  0  0
   -6.7950   23.4600  -32.2390 C   0  0  0  0  0  0  0  0  0  0  0  0
   -7.4390   22.7670  -31.2060 C   0  0  0  0  0  0  0  0  0  0  0  0
   -8.9130   21.8500  -31.5310 S   0  0  0  0  0  0  0  0  0  0  0  0
   -9.6000   21.5360  -30.2300 O   0  0  0  0  0  0  0  0  0  0  0  0
   -9.8470   22.6890  -32.3590 O   0  0  0  0  0  0  0  0  0  0  0  0
   -8.5710   20.3620  -32.3820 N   0  0  0  0  0  0  0  0  0  0  0  0
   -7.2430   20.3960  -33.0350 C   0  0  0  0  0  0  0  0  0  0  0  0
   -6.2100   19.5310  -32.2910 C   0  0  0  0  0  0  0  0  0  0  0  0
   -6.5960   18.1670  -32.1870 O   0  0  0  0  0  0  0  0  0  0  0  0
   -7.9980   17.9770  -32.0350 C   0  0  0  0  0  0  0  0  0  0  0  0
   -8.7450   19.2040  -31.4860 C   0  0  0  0  0  0  0  0  0  0  0  0
   -6.9030   22.8060  -29.9120 C   0  0  0  0  0  0  0  0  0  0  0  0
   -5.7270   23.5170  -29.6570 C   0  0  0  0  0  0  0  0  0  0  0  0
   -0.8970   22.4490  -28.9560 C   0  0  0  0  0  0  0  0  0  0  0  0
   -0.3290   21.2140  -29.2810 C   0  0  0  0  0  0  0  0  0  0  0  0
    0.0738   18.6270  -29.8535 H   0  0  0  0  0  0  0  0  0  0  0  0
   -0.8997   18.6004  -31.3629 H   0  0  0  0  0  0  0  0  0  0  0  0
    0.7373   19.3399  -31.3629 H   0  0  0  0  0  0  0  0  0  0  0  0
   -2.1395   20.5076  -32.0967 H   0  0  0  0  0  0  0  0  0  0  0  0
   -3.1549   22.7077  -31.5099 H   0  0  0  0  0  0  0  0  0  0  0  0
   -5.1188   24.7095  -32.8015 H   0  0  0  0  0  0  0  0  0  0  0  0
   -7.2156   23.4437  -33.2553 H   0  0  0  0  0  0  0  0  0  0  0  0
   -7.3441   20.0212  -34.0642 H   0  0  0  0  0  0  0  0  0  0  0  0
   -6.8858   21.4363  -33.0225 H   0  0  0  0  0  0  0  0  0  0  0  0
   -5.2540   19.5839  -32.8326 H   0  0  0  0  0  0  0  0  0  0  0  0
   -6.1265   19.9270  -31.2682 H   0  0  0  0  0  0  0  0  0  0  0  0
   -8.4210   17.7277  -33.0193 H   0  0  0  0  0  0  0  0  0  0  0  0
   -8.1295   17.1712  -31.2979 H   0  0  0  0  0  0  0  0  0  0  0  0
   -9.8163   18.9681  -31.4042 H   0  0  0  0  0  0  0  0  0  0  0  0
   -8.3339   19.4560  -30.4973 H   0  0  0  0  0  0  0  0  0  0  0  0
   -7.4100   22.2746  -29.0931 H   0  0  0  0  0  0  0  0  0  0  0  0
   -5.3088   23.5369  -28.6398 H   0  0  0  0  0  0  0  0  0  0  0  0
   -0.5467   22.9963  -28.0685 H   0  0  0  0  0  0  0  0  0  0  0  0
    0.4701   20.7955  -28.6515 H   0  0  0  0  0  0  0  0  0  0  0  0
  1  2  1  0
  2  3  2  0
  3  4  1  0
  4  5  2  0
  5  6  1  0
  6  7  2  0
  6  8  2  0
  6  9  1  0
  9 10  1  0
 10 11  2  0
 11 12  1  0
 12 13  2  0
 13 14  1  0
 14 15  2  0
 14 16  2  0
 14 17  1  0
 17 18  1  0
 18 19  1  0
 19 20  1  0
 20 21  1  0
 21 22  1  0
 13 23  1  0
 23 24  2  0
  5 25  1  0
 25 26  2  0
 26  2  1  0
 24 10  1  0
 22 17  1  0
  1 27  1  0
  1 28  1  0
  1 29  1  0
  3 30  1  0
  4 31  1  0
 11 32  1  0
 12 33  1  0
 18 34  1  0
 18 35  1  0
 19 36  1  0
 19 37  1  0
 21 38  1  0
 21 39  1  0
 22 40  1  0
 22 41  1  0
 23 42  1  0
 24 43  1  0
 25 44  1  0
 26 45  1  0
M  CHG  1   9  -1
M  END
>  <UniqueID>  (13) 
12

>  <SMILES>  (13) 
Cc1ccc(S(=O)(=O)[N-]c2ccc(S(=O)(=O)N3CCOCC3)cc2)cc1

>  <Energy>  (13) 
60.25136164183467

>  <Genealogy>  (13) 
Cc1ccc(S(=O)(=O)[N-]c2ccc(S(=O)(=O)N3CCOCC3)cc2)cc1 (protonated)
Cc1ccc(S(=O)(=O)[N-]c2ccc(S(=O)(=O)N3CCOCC3)cc2)cc1 (3D coordinates assigned)
Cc1ccc(S(=O)(=O)[N-]c2ccc(S(=O)(=O)N3CCOCC3)cc2)cc1 (nonaromatic ring conformer: 60.25136164183467 kcal/mol)

>  <smiles>  (13) 
Cc1ccc(S(=O)(=O)Nc2ccc(S(=O)(=O)N3CCOCC3)cc2)cc1

>  <score_type>  (13) 
oracle

>  <origin>  (13) 
adgpu

>  <m_score__min__energy>  (13) 
-10.65

>  <m_primary>  (13) 
energy

$$$$
13:0
     RDKit          3D

 36 39  0  0  0  0  0  0  0  0999 V2000
   -9.3400   22.6470  -32.2960 O   0  0  0  0  0  0  0  0  0  0  0  0
   -8.5500   21.9920  -31.1980 S   0  0  0  0  0  0  0  0  0  0  0  0
   -9.4290   21.8780  -29.9840 O   0  0  0  0  0  0  0  0  0  0  0  0
   -7.1280   22.9540  -30.8180 C   0  0  0  0  0  0  0  0  0  0  0  0
   -7.2270   24.3620  -30.7190 C   0  0  0  0  0  0  0  0  0  0  0  0
   -6.0980   25.1380  -30.3940 C   0  0  0  0  0  0  0  0  0  0  0  0
   -4.8940   24.4730  -30.1680 C   0  0  0  0  0  0  0  0  0  0  0  0
   -3.7090   25.0160  -29.8440 N   0  0  0  0  0  0  0  0  0  0  0  0
   -2.8490   23.9790  -29.7240 C   0  0  0  0  0  0  0  0  0  0  0  0
   -3.4930   22.7710  -29.9740 C   0  0  0  0  0  0  0  0  0  0  0  0
   -4.7970   23.1100  -30.2570 C   0  0  0  0  0  0  0  0  0  0  0  0
   -5.8940   22.3130  -30.5760 C   0  0  0  0  0  0  0  0  0  0  0  0
   -8.0440   20.3960  -31.7110 C   0  0  0  0  0  0  0  0  0  0  0  0
   -8.6660   19.1950  -31.4450 C   0  0  0  0  0  0  0  0  0  0  0  0
   -7.9180   18.1960  -31.9510 N   0  0  0  0  0  0  0  0  0  0  0  0
   -6.8640   18.7370  -32.5480 N   0  0  0  0  0  0  0  0  0  0  0  0
   -5.7430   17.9670  -33.0970 C   0  0  0  0  0  0  0  0  0  0  0  0
   -6.1520   17.0080  -34.2170 C   0  0  0  0  0  0  0  0  0  0  0  0
   -5.2970   17.7930  -35.2010 C   0  0  0  0  0  0  0  0  0  0  0  0
   -4.9020   18.7610  -34.0960 C   0  0  0  0  0  0  0  0  0  0  0  0
   -6.8940   20.0760  -32.3930 C   0  0  0  0  0  0  0  0  0  0  0  0
   -8.1942   24.8545  -30.8975 H   0  0  0  0  0  0  0  0  0  0  0  0
   -6.1640   26.2336  -30.3208 H   0  0  0  0  0  0  0  0  0  0  0  0
   -3.4940   26.0290  -29.7100 H   0  0  0  0  0  0  0  0  0  0  0  0
   -1.7847   24.0772  -29.4640 H   0  0  0  0  0  0  0  0  0  0  0  0
   -3.0546   21.7624  -29.9506 H   0  0  0  0  0  0  0  0  0  0  0  0
   -5.8015   21.2186  -30.6374 H   0  0  0  0  0  0  0  0  0  0  0  0
   -9.6178   19.0726  -30.9073 H   0  0  0  0  0  0  0  0  0  0  0  0
   -5.3001   17.5825  -32.1664 H   0  0  0  0  0  0  0  0  0  0  0  0
   -5.8212   15.9703  -34.0629 H   0  0  0  0  0  0  0  0  0  0  0  0
   -7.2150   16.8205  -34.4291 H   0  0  0  0  0  0  0  0  0  0  0  0
   -4.4548   17.2214  -35.6182 H   0  0  0  0  0  0  0  0  0  0  0  0
   -5.7338   18.1693  -36.1378 H   0  0  0  0  0  0  0  0  0  0  0  0
   -3.8255   18.7690  -33.8700 H   0  0  0  0  0  0  0  0  0  0  0  0
   -5.0608   19.8423  -34.2210 H   0  0  0  0  0  0  0  0  0  0  0  0
   -6.1333   20.7863  -32.7491 H   0  0  0  0  0  0  0  0  0  0  0  0
  1  2  2  0
  2  3  2  0
  2  4  1  0
  4  5  2  0
  5  6  1  0
  6  7  2  0
  7  8  1  0
  8  9  1  0
  9 10  2  0
 10 11  1  0
 11 12  2  0
  2 13  1  0
 13 14  1  0
 14 15  2  0
 15 16  1  0
 16 17  1  0
 17 18  1  0
 18 19  1  0
 19 20  1  0
 16 21  1  0
 12  4  1  0
 21 13  2  0
 11  7  1  0
 20 17  1  0
  5 22  1  0
  6 23  1  0
  8 24  1  0
  9 25  1  0
 10 26  1  0
 12 27  1  0
 14 28  1  0
 17 29  1  0
 18 30  1  0
 18 31  1  0
 19 32  1  0
 19 33  1  0
 20 34  1  0
 20 35  1  0
 21 36  1  0
M  END
>  <UniqueID>  (14) 
13

>  <SMILES>  (14) 
O=S(=O)(c1ccc2[nH]ccc2c1)c1cnn(C2CCC2)c1

>  <Energy>  (14) 
163.9597839672384

>  <Genealogy>  (14) 
O=S(=O)(c1ccc2[nH]ccc2c1)c1cnn(C2CCC2)c1 (3D coordinates assigned)
O=S(=O)(c1ccc2[nH]ccc2c1)c1cnn(C2CCC2)c1 (nonaromatic ring conformer: 163.9597839672384 kcal/mol)

>  <smiles>  (14) 
O=S(=O)(c1ccc2[nH]ccc2c1)c1cnn(C2CCC2)c1

>  <score_type>  (14) 
oracle

>  <origin>  (14) 
adgpu

>  <m_score__min__energy>  (14) 
-8.7899999999999991

>  <m_primary>  (14) 
energy

$$$$
14:0
     RDKit          3D

 53 56  0  0  0  0  0  0  0  0999 V2000
   -3.0550   23.4450  -27.5080 C   0  0  0  0  0  0  0  0  0  0  0  0
   -1.9060   22.8760  -28.1250 O   0  0  0  0  0  0  0  0  0  0  0  0
   -1.9340   22.1150  -29.3020 C   0  0  0  0  0  0  0  0  0  0  0  0
   -2.9690   21.2010  -29.5860 C   0  0  0  0  0  0  0  0  0  0  0  0
   -2.9560   20.4680  -30.7770 C   0  0  0  0  0  0  0  0  0  0  0  0
   -1.9170   20.6420  -31.6990 C   0  0  0  0  0  0  0  0  0  0  0  0
   -1.9110   19.7680  -33.2280 S   0  0  0  0  0  0  0  0  0  0  0  0
   -0.5240   19.3020  -33.5750 O   0  0  0  0  0  0  0  0  0  0  0  0
   -2.4030   20.6820  -34.3130 O   0  0  0  0  0  0  0  0  0  0  0  0
   -2.9560   18.3920  -33.1060 N   0  0  0  0  0  0  0  0  0  0  0  0
   -2.5350   17.1320  -33.0950 N   0  0  0  0  0  0  0  0  0  0  0  0
   -3.5630   16.2860  -33.0720 N   0  0  0  0  0  0  0  0  0  0  0  0
   -4.6670   17.0570  -33.0740 C   0  0  0  0  0  0  0  0  0  0  0  0
   -5.9980   16.6690  -33.0800 C   0  0  0  0  0  0  0  0  0  0  0  0
   -6.9590   17.6970  -33.1240 C   0  0  0  0  0  0  0  0  0  0  0  0
   -6.5850   19.0270  -33.1700 N   0  0  0  0  0  0  0  0  0  0  0  0
   -7.6270   20.0640  -33.2510 C   0  0  0  0  0  0  0  0  0  0  0  0
   -8.6850   19.8590  -32.1970 C   0  0  0  0  0  0  0  0  0  0  0  0
   -9.6840   19.1410  -32.4650 O   0  0  0  0  0  0  0  0  0  0  0  0
   -8.5880   20.4440  -30.8920 N   0  0  0  0  0  0  0  0  0  0  0  0
   -8.6710   21.8700  -30.6140 C   0  0  0  0  0  0  0  0  0  0  0  0
   -8.0930   22.6600  -31.7870 C   0  0  0  0  0  0  0  0  0  0  0  0
   -6.8370   23.3760  -31.3710 C   0  0  0  0  0  0  0  0  0  0  0  0
   -5.5780   22.8470  -31.7060 C   0  0  0  0  0  0  0  0  0  0  0  0
   -4.4100   23.4870  -31.2800 C   0  0  0  0  0  0  0  0  0  0  0  0
   -4.4900   24.6520  -30.5090 C   0  0  0  0  0  0  0  0  0  0  0  0
   -3.3290   25.2840  -30.0820 O   0  0  0  0  0  0  0  0  0  0  0  0
   -5.7390   25.1780  -30.1650 C   0  0  0  0  0  0  0  0  0  0  0  0
   -6.9100   24.5410  -30.5900 C   0  0  0  0  0  0  0  0  0  0  0  0
   -5.2510   19.3800  -33.1260 C   0  0  0  0  0  0  0  0  0  0  0  0
   -4.9000   20.5900  -33.1080 O   0  0  0  0  0  0  0  0  0  0  0  0
   -4.3000   18.3600  -33.0940 C   0  0  0  0  0  0  0  0  0  0  0  0
   -0.8840   21.5470  -31.4180 C   0  0  0  0  0  0  0  0  0  0  0  0
   -0.8930   22.2750  -30.2250 C   0  0  0  0  0  0  0  0  0  0  0  0
   -2.9481   23.3921  -26.4145 H   0  0  0  0  0  0  0  0  0  0  0  0
   -3.1540   24.4963  -27.8163 H   0  0  0  0  0  0  0  0  0  0  0  0
   -3.9512   22.8865  -27.8163 H   0  0  0  0  0  0  0  0  0  0  0  0
   -3.7906   21.0637  -28.8676 H   0  0  0  0  0  0  0  0  0  0  0  0
   -3.7643   19.7529  -30.9899 H   0  0  0  0  0  0  0  0  0  0  0  0
   -6.2893   15.6086  -33.0517 H   0  0  0  0  0  0  0  0  0  0  0  0
   -8.0278   17.4369  -33.1217 H   0  0  0  0  0  0  0  0  0  0  0  0
   -7.1629   21.0507  -33.1061 H   0  0  0  0  0  0  0  0  0  0  0  0
   -8.1045   20.0007  -34.2399 H   0  0  0  0  0  0  0  0  0  0  0  0
   -9.7238   22.1527  -30.4666 H   0  0  0  0  0  0  0  0  0  0  0  0
   -8.0956   22.0970  -29.7044 H   0  0  0  0  0  0  0  0  0  0  0  0
   -7.8599   21.9681  -32.6098 H   0  0  0  0  0  0  0  0  0  0  0  0
   -8.8344   23.4032  -32.1156 H   0  0  0  0  0  0  0  0  0  0  0  0
   -5.5117   21.9268  -32.3051 H   0  0  0  0  0  0  0  0  0  0  0  0
   -3.4272   23.0742  -31.5513 H   0  0  0  0  0  0  0  0  0  0  0  0
   -5.8011   26.0941  -29.5593 H   0  0  0  0  0  0  0  0  0  0  0  0
   -7.8908   24.9539  -30.3116 H   0  0  0  0  0  0  0  0  0  0  0  0
   -0.0642   21.6845  -32.1384 H   0  0  0  0  0  0  0  0  0  0  0  0
   -0.0760   22.9792  -30.0093 H   0  0  0  0  0  0  0  0  0  0  0  0
  1  2  1  0
  2  3  1  0
  3  4  2  0
  4  5  1  0
  5  6  2  0
  6  7  1  0
  7  8  2  0
  7  9  2  0
  7 10  1  0
 10 11  1  0
 11 12  2  0
 12 13  1  0
 13 14  1  0
 14 15  2  0
 15 16  1  0
 16 17  1  0
 17 18  1  0
 18 19  2  0
 18 20  1  0
 20 21  1  0
 21 22  1  0
 22 23  1  0
 23 24  2  0
 24 25  1  0
 25 26  2  0
 26 27  1  0
 26 28  1  0
 28 29  2  0
 16 30  1  0
 30 31  2  0
 30 32  1  0
  6 33  1  0
 33 34  2  0
 34  3  1  0
 32 10  1  0
 32 13  2  0
 29 23  1  0
  1 35  1  0
  1 36  1  0
  1 37  1  0
  4 38  1  0
  5 39  1  0
 14 40  1  0
 15 41  1  0
 17 42  1  0
 17 43  1  0
 21 44  1  0
 21 45  1  0
 22 46  1  0
 22 47  1  0
 24 48  1  0
 25 49  1  0
 28 50  1  0
 29 51  1  0
 33 52  1  0
 34 53  1  0
M  CHG  2  20  -1  27  -1
M  END
>  <UniqueID>  (15) 
14

>  <SMILES>  (15) 
COc1ccc(S(=O)(=O)n2nnc3ccn(CC(=O)[N-]CCc4ccc([O-])cc4)c(=O)c32)cc1

>  <Energy>  (15) 
100.77631456464853

>  <Genealogy>  (15) 
COc1ccc(S(=O)(=O)n2nnc3ccn(CC(=O)[N-]CCc4ccc([O-])cc4)c(=O)c32)cc1 (protonated)
COc1ccc(S(=O)(=O)n2nnc3ccn(CC(=O)[N-]CCc4ccc([O-])cc4)c(=O)c32)cc1 (3D coordinates assigned)
COc1ccc(S(=O)(=O)n2nnc3ccn(CC(=O)[N-]CCc4ccc([O-])cc4)c(=O)c32)cc1 (optimized conformer: 100.77631456464853 kcal/mol)

>  <smiles>  (15) 
COc1ccc(S(=O)(=O)n2nnc3ccn(CC(=O)NCCc4ccc(O)cc4)c(=O)c32)cc1

>  <score_type>  (15) 
oracle

>  <origin>  (15) 
adgpu

>  <m_score__min__energy>  (15) 
-11.48

>  <m_primary>  (15) 
energy

$$$$
15:0
     RDKit          3D

 47 50  0  0  0  0  0  0  0  0999 V2000
   -4.0510   21.4210  -33.4530 O   0  0  0  0  0  0  0  0  0  0  0  0
   -3.1240   21.6980  -32.6430 C   0  0  0  0  0  0  0  0  0  0  0  0
   -3.2830   22.7950  -31.7280 N   0  0  0  0  0  0  0  0  0  0  0  0
   -4.5640   23.3200  -31.3340 C   0  0  0  0  0  0  0  0  0  0  0  0
   -5.7440   22.5860  -31.5520 C   0  0  0  0  0  0  0  0  0  0  0  0
   -6.9850   23.0870  -31.1340 C   0  0  0  0  0  0  0  0  0  0  0  0
   -8.4630   22.1600  -31.4210 S   0  0  0  0  0  0  0  0  0  0  0  0
   -9.1340   21.8890  -30.1030 O   0  0  0  0  0  0  0  0  0  0  0  0
   -9.4010   22.9830  -32.2600 O   0  0  0  0  0  0  0  0  0  0  0  0
   -8.1650   20.6390  -32.2290 N   0  0  0  0  0  0  0  0  0  0  0  0
   -9.3230   19.7500  -32.1720 C   0  0  0  0  0  0  0  0  0  0  0  0
   -8.7850   18.3340  -32.3040 C   0  0  0  0  0  0  0  0  0  0  0  0
   -7.3080   18.4290  -31.9460 C   0  0  0  0  0  0  0  0  0  0  0  0
   -7.0700   19.8930  -31.6120 C   0  0  0  0  0  0  0  0  0  0  0  0
   -7.0480   24.3350  -30.5010 C   0  0  0  0  0  0  0  0  0  0  0  0
   -5.8810   25.0620  -30.2650 C   0  0  0  0  0  0  0  0  0  0  0  0
   -4.6410   24.5590  -30.6710 C   0  0  0  0  0  0  0  0  0  0  0  0
   -3.4910   25.3010  -30.4250 O   0  0  0  0  0  0  0  0  0  0  0  0
   -1.8660   20.9130  -32.6800 C   0  0  0  0  0  0  0  0  0  0  0  0
   -1.7250   19.7640  -31.8770 C   0  0  0  0  0  0  0  0  0  0  0  0
   -0.5380   19.0240  -31.8960 C   0  0  0  0  0  0  0  0  0  0  0  0
    0.5220   19.4300  -32.7070 C   0  0  0  0  0  0  0  0  0  0  0  0
    0.3890   20.5600  -33.5230 C   0  0  0  0  0  0  0  0  0  0  0  0
   -0.7900   21.3090  -33.4990 C   0  0  0  0  0  0  0  0  0  0  0  0
    1.4520   20.9250  -34.3560 O   0  0  0  0  0  0  0  0  0  0  0  0
    2.5400   20.0310  -34.5990 C   0  0  0  0  0  0  0  0  0  0  0  0
    2.9040   19.2750  -33.3150 C   0  0  0  0  0  0  0  0  0  0  0  0
    1.7300   18.7220  -32.7160 O   0  0  0  0  0  0  0  0  0  0  0  0
   -2.4240   23.2980  -31.4110 H   0  0  0  0  0  0  0  0  0  0  0  0
   -5.6926   21.6093  -32.0554 H   0  0  0  0  0  0  0  0  0  0  0  0
   -9.8475   19.8697  -31.2125 H   0  0  0  0  0  0  0  0  0  0  0  0
  -10.0414   19.9796  -32.9728 H   0  0  0  0  0  0  0  0  0  0  0  0
   -9.3065   17.6577  -31.6107 H   0  0  0  0  0  0  0  0  0  0  0  0
   -8.9360   17.9312  -33.3164 H   0  0  0  0  0  0  0  0  0  0  0  0
   -7.0804   17.7936  -31.0774 H   0  0  0  0  0  0  0  0  0  0  0  0
   -6.6635   18.0858  -32.7687 H   0  0  0  0  0  0  0  0  0  0  0  0
   -7.0756   20.0405  -30.5220 H   0  0  0  0  0  0  0  0  0  0  0  0
   -6.0936   20.2343  -31.9863 H   0  0  0  0  0  0  0  0  0  0  0  0
   -8.0207   24.7431  -30.1890 H   0  0  0  0  0  0  0  0  0  0  0  0
   -5.9365   26.0360  -29.7569 H   0  0  0  0  0  0  0  0  0  0  0  0
   -2.5555   19.4460  -31.2295 H   0  0  0  0  0  0  0  0  0  0  0  0
   -0.4406   18.1232  -31.2723 H   0  0  0  0  0  0  0  0  0  0  0  0
   -0.8787   22.2113  -34.1218 H   0  0  0  0  0  0  0  0  0  0  0  0
    2.2494   19.3083  -35.3757 H   0  0  0  0  0  0  0  0  0  0  0  0
    3.4128   20.6115  -34.9324 H   0  0  0  0  0  0  0  0  0  0  0  0
    3.6045   18.4625  -33.5583 H   0  0  0  0  0  0  0  0  0  0  0  0
    3.3712   19.9755  -32.6072 H   0  0  0  0  0  0  0  0  0  0  0  0
  1  2  2  0
  2  3  1  0
  3  4  1  0
  4  5  2  0
  5  6  1  0
  6  7  1  0
  7  8  2  0
  7  9  2  0
  7 10  1  0
 10 11  1  0
 11 12  1  0
 12 13  1  0
 13 14  1  0
  6 15  2  0
 15 16  1  0
 16 17  2  0
 17 18  1  0
  2 19  1  0
 19 20  2  0
 20 21  1  0
 21 22  2  0
 22 23  1  0
 23 24  2  0
 23 25  1  0
 25 26  1  0
 26 27  1  0
 27 28  1  0
 17  4  1  0
 24 19  1  0
 14 10  1  0
 28 22  1  0
  3 29  1  0
  5 30  1  0
 11 31  1  0
 11 32  1  0
 12 33  1  0
 12 34  1  0
 13 35  1  0
 13 36  1  0
 14 37  1  0
 14 38  1  0
 15 39  1  0
 16 40  1  0
 20 41  1  0
 21 42  1  0
 24 43  1  0
 26 44  1  0
 26 45  1  0
 27 46  1  0
 27 47  1  0
M  CHG  1  18  -1
M  END
>  <UniqueID>  (16) 
15

>  <SMILES>  (16) 
O=C(Nc1cc(S(=O)(=O)N2CCCC2)ccc1[O-])c1ccc2c(c1)OCCO2

>  <Energy>  (16) 
57.7556083894144

>  <Genealogy>  (16) 
O=C(Nc1cc(S(=O)(=O)N2CCCC2)ccc1[O-])c1ccc2c(c1)OCCO2 (protonated)
O=C(Nc1cc(S(=O)(=O)N2CCCC2)ccc1[O-])c1ccc2c(c1)OCCO2 (3D coordinates assigned)
O=C(Nc1cc(S(=O)(=O)N2CCCC2)ccc1[O-])c1ccc2c(c1)OCCO2 (nonaromatic ring conformer: 57.7556083894144 kcal/mol)

>  <smiles>  (16) 
O=C(Nc1cc(S(=O)(=O)N2CCCC2)ccc1O)c1ccc2c(c1)OCCO2

>  <score_type>  (16) 
oracle

>  <origin>  (16) 
adgpu

>  <m_score__min__energy>  (16) 
-11.92

>  <m_primary>  (16) 
energy

$$$$
16:0
     RDKit          3D

 51 54  0  0  0  0  0  0  0  0999 V2000
   -0.4650   28.7650  -24.8090 C   0  0  0  0  0  0  0  0  0  0  0  0
    0.0390   27.5200  -25.4770 C   0  0  0  0  0  0  0  0  0  0  0  0
    1.2630   26.9610  -25.0930 C   0  0  0  0  0  0  0  0  0  0  0  0
    1.7150   25.7840  -25.6880 C   0  0  0  0  0  0  0  0  0  0  0  0
    0.9460   25.1370  -26.6640 C   0  0  0  0  0  0  0  0  0  0  0  0
    1.6480   23.6560  -27.4330 S   0  0  0  0  0  0  0  0  0  0  0  0
   -0.3080   25.6750  -27.0440 C   0  0  0  0  0  0  0  0  0  0  0  0
   -1.1790   25.0160  -28.0500 C   0  0  0  0  0  0  0  0  0  0  0  0
   -1.3170   23.6530  -28.2410 C   0  0  0  0  0  0  0  0  0  0  0  0
   -2.1950   23.5500  -29.2990 C   0  0  0  0  0  0  0  0  0  0  0  0
   -2.6890   22.3000  -29.8970 C   0  0  0  0  0  0  0  0  0  0  0  0
   -2.6570   21.2360  -29.2200 O   0  0  0  0  0  0  0  0  0  0  0  0
   -3.1630   22.2850  -31.2530 N   0  0  0  0  0  0  0  0  0  0  0  0
   -3.8820   21.1860  -31.8410 C   0  0  0  0  0  0  0  0  0  0  0  0
   -3.2400   20.3710  -32.7850 C   0  0  0  0  0  0  0  0  0  0  0  0
   -3.9240   19.3130  -33.3890 C   0  0  0  0  0  0  0  0  0  0  0  0
   -5.2670   19.0660  -33.0740 C   0  0  0  0  0  0  0  0  0  0  0  0
   -6.1360   17.7410  -33.8540 S   0  0  0  0  0  0  0  0  0  0  0  0
   -7.5810   17.7870  -33.4390 O   0  0  0  0  0  0  0  0  0  0  0  0
   -6.0750   17.9210  -35.3460 O   0  0  0  0  0  0  0  0  0  0  0  0
   -5.4620   16.1850  -33.4280 N   0  0  0  0  0  0  0  0  0  0  0  0
   -6.1770   15.1030  -34.1320 C   0  0  0  0  0  0  0  0  0  0  0  0
   -5.3160   13.8300  -34.1820 C   0  0  0  0  0  0  0  0  0  0  0  0
   -4.0750   13.9950  -34.8580 O   0  0  0  0  0  0  0  0  0  0  0  0
   -3.6160   15.3390  -34.8940 C   0  0  0  0  0  0  0  0  0  0  0  0
   -3.9980   16.1470  -33.6400 C   0  0  0  0  0  0  0  0  0  0  0  0
   -5.9160   19.8870  -32.1420 C   0  0  0  0  0  0  0  0  0  0  0  0
   -5.2340   20.9460  -31.5370 C   0  0  0  0  0  0  0  0  0  0  0  0
   -2.5520   24.7800  -29.7140 N   0  0  0  0  0  0  0  0  0  0  0  0
   -1.9310   25.6710  -28.9560 N   0  0  0  0  0  0  0  0  0  0  0  0
   -0.7460   26.8680  -26.4390 C   0  0  0  0  0  0  0  0  0  0  0  0
   -0.4149   28.6412  -23.7171 H   0  0  0  0  0  0  0  0  0  0  0  0
    0.1577   29.6204  -25.1100 H   0  0  0  0  0  0  0  0  0  0  0  0
   -1.5074   28.9463  -25.1100 H   0  0  0  0  0  0  0  0  0  0  0  0
    1.8708   27.4521  -24.3188 H   0  0  0  0  0  0  0  0  0  0  0  0
    2.6845   25.3594  -25.3883 H   0  0  0  0  0  0  0  0  0  0  0  0
   -0.8368   22.8388  -27.6784 H   0  0  0  0  0  0  0  0  0  0  0  0
   -2.8970   23.0810  -31.8760 H   0  0  0  0  0  0  0  0  0  0  0  0
   -2.1908   20.5662  -33.0516 H   0  0  0  0  0  0  0  0  0  0  0  0
   -3.4055   18.6704  -34.1158 H   0  0  0  0  0  0  0  0  0  0  0  0
   -7.1153   14.8844  -33.6012 H   0  0  0  0  0  0  0  0  0  0  0  0
   -6.3895   15.4286  -35.1610 H   0  0  0  0  0  0  0  0  0  0  0  0
   -5.1076   13.5130  -33.1495 H   0  0  0  0  0  0  0  0  0  0  0  0
   -5.8890   13.0812  -34.7485 H   0  0  0  0  0  0  0  0  0  0  0  0
   -2.5197   15.3312  -34.9838 H   0  0  0  0  0  0  0  0  0  0  0  0
   -4.0989   15.8252  -35.7544 H   0  0  0  0  0  0  0  0  0  0  0  0
   -3.5241   15.6843  -32.7617 H   0  0  0  0  0  0  0  0  0  0  0  0
   -3.6491   17.1803  -33.7831 H   0  0  0  0  0  0  0  0  0  0  0  0
   -6.9685   19.6967  -31.8852 H   0  0  0  0  0  0  0  0  0  0  0  0
   -5.7572   21.5951  -30.8194 H   0  0  0  0  0  0  0  0  0  0  0  0
   -1.7184   27.2953  -26.7250 H   0  0  0  0  0  0  0  0  0  0  0  0
  1  2  1  0
  2  3  2  0
  3  4  1  0
  4  5  2  0
  5  6  1  0
  5  7  1  0
  7  8  1  0
  8  9  2  0
  9 10  1  0
 10 11  1  0
 11 12  2  0
 11 13  1  0
 13 14  1  0
 14 15  2  0
 15 16  1  0
 16 17  2  0
 17 18  1  0
 18 19  2  0
 18 20  2  0
 18 21  1  0
 21 22  1  0
 22 23  1  0
 23 24  1  0
 24 25  1  0
 25 26  1  0
 17 27  1  0
 27 28  2  0
 10 29  2  0
 29 30  1  0
  7 31  2  0
 31  2  1  0
 30  8  1  0
 28 14  1  0
 26 21  1  0
  1 32  1  0
  1 33  1  0
  1 34  1  0
  3 35  1  0
  4 36  1  0
  9 37  1  0
 13 38  1  0
 15 39  1  0
 16 40  1  0
 22 41  1  0
 22 42  1  0
 23 43  1  0
 23 44  1  0
 25 45  1  0
 25 46  1  0
 26 47  1  0
 26 48  1  0
 27 49  1  0
 28 50  1  0
 31 51  1  0
M  CHG  2   6  -1  30  -1
M  END
>  <UniqueID>  (17) 
16

>  <SMILES>  (17) 
Cc1ccc([S-])c(-c2cc(C(=O)Nc3ccc(S(=O)(=O)N4CCOCC4)cc3)n[n-]2)c1

>  <Energy>  (17) 
102.88705809560949

>  <Genealogy>  (17) 
Cc1ccc([S-])c(-c2cc(C(=O)Nc3ccc(S(=O)(=O)N4CCOCC4)cc3)n[n-]2)c1 (protonated)
Cc1ccc([S-])c(-c2cc(C(=O)Nc3ccc(S(=O)(=O)N4CCOCC4)cc3)n[n-]2)c1 (3D coordinates assigned)
Cc1ccc([S-])c(-c2cc(C(=O)Nc3ccc(S(=O)(=O)N4CCOCC4)cc3)n[n-]2)c1 (nonaromatic ring conformer: 102.88705809560949 kcal/mol)

>  <smiles>  (17) 
Cc1ccc(S)c(-c2cc(C(=O)Nc3ccc(S(=O)(=O)N4CCOCC4)cc3)n[nH]2)c1

>  <score_type>  (17) 
oracle

>  <origin>  (17) 
adgpu

>  <m_score__min__energy>  (17) 
-10.32

>  <m_primary>  (17) 
energy

$$$$
17:0
     RDKit          3D

 25 27  0  0  0  0  0  0  0  0999 V2000
    0.2790   25.1790  -28.0040 O   0  0  0  0  0  0  0  0  0  0  0  0
   -0.9450   24.7810  -28.5240 C   0  0  0  0  0  0  0  0  0  0  0  0
   -1.5620   23.5740  -28.2620 C   0  0  0  0  0  0  0  0  0  0  0  0
   -2.7390   23.6200  -28.9790 C   0  0  0  0  0  0  0  0  0  0  0  0
   -3.9960   22.3430  -29.0560 S   0  0  0  0  0  0  0  0  0  0  0  0
   -4.1270   22.3630  -30.8760 C   0  0  0  0  0  0  0  0  0  0  0  0
   -5.4640   21.8570  -31.3130 C   0  0  0  0  0  0  0  0  0  0  0  0
   -5.6310   20.6410  -31.9000 N   0  0  0  0  0  0  0  0  0  0  0  0
   -6.9600   20.5830  -32.0660 C   0  0  0  0  0  0  0  0  0  0  0  0
   -7.7050   19.5470  -32.6240 C   0  0  0  0  0  0  0  0  0  0  0  0
   -9.1020   19.7060  -32.6830 C   0  0  0  0  0  0  0  0  0  0  0  0
   -9.7100   20.8820  -32.1860 C   0  0  0  0  0  0  0  0  0  0  0  0
   -8.9240   21.9070  -31.6280 C   0  0  0  0  0  0  0  0  0  0  0  0
   -7.5450   21.7160  -31.5890 C   0  0  0  0  0  0  0  0  0  0  0  0
   -6.6150   22.5470  -31.0990 N   0  0  0  0  0  0  0  0  0  0  0  0
   -2.7520   24.8370  -29.6250 C   0  0  0  0  0  0  0  0  0  0  0  0
   -3.7600   25.2980  -30.4610 O   0  0  0  0  0  0  0  0  0  0  0  0
   -1.6680   25.5180  -29.3380 O   0  0  0  0  0  0  0  0  0  0  0  0
   -1.1959   22.7569  -27.6230 H   0  0  0  0  0  0  0  0  0  0  0  0
   -3.9951   23.3938  -31.2366 H   0  0  0  0  0  0  0  0  0  0  0  0
   -3.3467   21.7105  -31.2948 H   0  0  0  0  0  0  0  0  0  0  0  0
   -7.2187   18.6369  -33.0050 H   0  0  0  0  0  0  0  0  0  0  0  0
   -9.7248   18.9107  -33.1184 H   0  0  0  0  0  0  0  0  0  0  0  0
  -10.8029   20.9960  -32.2359 H   0  0  0  0  0  0  0  0  0  0  0  0
   -9.3826   22.8269  -31.2363 H   0  0  0  0  0  0  0  0  0  0  0  0
  1  2  1  0
  2  3  2  0
  3  4  1  0
  4  5  1  0
  5  6  1  0
  6  7  1  0
  7  8  2  0
  8  9  1  0
  9 10  2  0
 10 11  1  0
 11 12  2  0
 12 13  1  0
 13 14  2  0
 14 15  1  0
  4 16  2  0
 16 17  1  0
 16 18  1  0
 18  2  1  0
 15  7  1  0
 14  9  1  0
  3 19  1  0
  6 20  1  0
  6 21  1  0
 10 22  1  0
 11 23  1  0
 12 24  1  0
 13 25  1  0
M  CHG  3   1  -1  15  -1  17  -1
M  END
>  <UniqueID>  (18) 
17

>  <SMILES>  (18) 
[O-]c1cc(SCc2nc3ccccc3[n-]2)c([O-])o1

>  <Energy>  (18) 
85.67860493075987

>  <Genealogy>  (18) 
[O-]c1cc(SCc2nc3ccccc3[n-]2)c([O-])o1 (protonated)
[O-]c1cc(SCc2nc3ccccc3[n-]2)c([O-])o1 (3D coordinates assigned)
[O-]c1cc(SCc2nc3ccccc3[n-]2)c([O-])o1 (optimized conformer: 85.67860493075987 kcal/mol)

>  <smiles>  (18) 
Oc1cc(SCc2nc3ccccc3[nH]2)c(O)o1

>  <score_type>  (18) 
oracle

>  <origin>  (18) 
adgpu

>  <m_score__min__energy>  (18) 
-9.8599999999999994

>  <m_primary>  (18) 
energy

$$$$
18:0
     RDKit          3D

 63 67  0  0  0  0  0  0  0  0999 V2000
   -0.3150   17.9590  -34.9710 C   0  0  0  0  0  0  0  0  0  0  0  0
   -1.8790   18.1860  -34.1520 S   0  0  0  0  0  0  0  0  0  0  0  0
   -2.2510   19.6400  -34.2160 O   0  0  0  0  0  0  0  0  0  0  0  0
   -1.7560   17.7770  -32.7100 O   0  0  0  0  0  0  0  0  0  0  0  0
   -3.1160   17.2520  -34.9390 N   0  0  0  0  0  0  0  0  0  0  0  0
   -3.8330   16.4380  -33.9550 C   0  0  0  0  0  0  0  0  0  0  0  0
   -4.9770   17.2230  -33.3880 C   0  0  0  0  0  0  0  0  0  0  0  0
   -4.8190   18.5750  -33.0510 C   0  0  0  0  0  0  0  0  0  0  0  0
   -5.9120   19.3030  -32.5520 C   0  0  0  0  0  0  0  0  0  0  0  0
   -5.7640   20.7350  -32.1880 C   0  0  0  0  0  0  0  0  0  0  0  0
   -6.6380   21.6970  -32.7190 C   0  0  0  0  0  0  0  0  0  0  0  0
   -6.5060   23.0420  -32.3740 C   0  0  0  0  0  0  0  0  0  0  0  0
   -5.4970   23.4500  -31.4960 C   0  0  0  0  0  0  0  0  0  0  0  0
   -5.3850   24.7630  -31.1750 N   0  0  0  0  0  0  0  0  0  0  0  0
   -4.4200   25.2180  -30.3430 C   0  0  0  0  0  0  0  0  0  0  0  0
   -3.4920   24.3370  -29.7720 C   0  0  0  0  0  0  0  0  0  0  0  0
   -2.4160   24.9330  -29.0150 C   0  0  0  0  0  0  0  0  0  0  0  0
   -1.5550   25.4210  -28.4150 N   0  0  0  0  0  0  0  0  0  0  0  0
   -3.5940   22.9400  -30.0480 C   0  0  0  0  0  0  0  0  0  0  0  0
   -2.7990   22.0360  -29.5290 N   0  0  0  0  0  0  0  0  0  0  0  0
   -1.8230   22.1700  -28.4890 C   0  0  0  0  0  0  0  0  0  0  0  0
   -0.5080   22.5510  -28.7930 C   0  0  0  0  0  0  0  0  0  0  0  0
    0.4250   22.7360  -27.7690 C   0  0  0  0  0  0  0  0  0  0  0  0
    0.0430   22.5680  -26.4230 C   0  0  0  0  0  0  0  0  0  0  0  0
    0.9370   22.7410  -25.3540 O   0  0  0  0  0  0  0  0  0  0  0  0
    1.5430   23.9790  -24.9770 C   0  0  0  0  0  0  0  0  0  0  0  0
    0.5780   25.1210  -25.1460 C   0  0  0  0  0  0  0  0  0  0  0  0
   -0.5050   25.2640  -24.2640 C   0  0  0  0  0  0  0  0  0  0  0  0
   -1.3990   26.3300  -24.4120 C   0  0  0  0  0  0  0  0  0  0  0  0
   -1.2110   27.2650  -25.4330 C   0  0  0  0  0  0  0  0  0  0  0  0
   -0.1270   27.1380  -26.3070 C   0  0  0  0  0  0  0  0  0  0  0  0
    0.0560   28.0480  -27.2950 F   0  0  0  0  0  0  0  0  0  0  0  0
    0.7680   26.0740  -26.1630 C   0  0  0  0  0  0  0  0  0  0  0  0
   -1.2800   22.2170  -26.1280 C   0  0  0  0  0  0  0  0  0  0  0  0
   -2.2120   22.0330  -27.1540 C   0  0  0  0  0  0  0  0  0  0  0  0
   -4.6000   22.5050  -30.9490 C   0  0  0  0  0  0  0  0  0  0  0  0
   -4.7480   21.1450  -31.3050 C   0  0  0  0  0  0  0  0  0  0  0  0
   -7.1480   18.6530  -32.4080 C   0  0  0  0  0  0  0  0  0  0  0  0
   -7.2690   17.3090  -32.7680 C   0  0  0  0  0  0  0  0  0  0  0  0
   -6.1950   16.6320  -33.2490 N   0  0  0  0  0  0  0  0  0  0  0  0
    0.4794   17.8437  -34.2189 H   0  0  0  0  0  0  0  0  0  0  0  0
   -0.3579   17.0577  -35.6001 H   0  0  0  0  0  0  0  0  0  0  0  0
   -0.0999   18.8353  -35.6001 H   0  0  0  0  0  0  0  0  0  0  0  0
   -3.7920   17.9380  -35.3490 H   0  0  0  0  0  0  0  0  0  0  0  0
   -4.2183   15.5302  -34.4423 H   0  0  0  0  0  0  0  0  0  0  0  0
   -3.1455   16.1578  -33.1433 H   0  0  0  0  0  0  0  0  0  0  0  0
   -3.8419   19.0642  -33.1770 H   0  0  0  0  0  0  0  0  0  0  0  0
   -7.4334   21.3874  -33.4129 H   0  0  0  0  0  0  0  0  0  0  0  0
   -7.1990   23.7855  -32.7947 H   0  0  0  0  0  0  0  0  0  0  0  0
   -4.3633   26.2920  -30.1121 H   0  0  0  0  0  0  0  0  0  0  0  0
   -0.2100   22.7047  -29.8406 H   0  0  0  0  0  0  0  0  0  0  0  0
    1.4607   23.0136  -28.0145 H   0  0  0  0  0  0  0  0  0  0  0  0
    1.8532   23.9222  -23.9232 H   0  0  0  0  0  0  0  0  0  0  0  0
    2.4146   24.1559  -25.6244 H   0  0  0  0  0  0  0  0  0  0  0  0
   -0.6512   24.5350  -23.4533 H   0  0  0  0  0  0  0  0  0  0  0  0
   -2.2509   26.4321  -23.7237 H   0  0  0  0  0  0  0  0  0  0  0  0
   -1.9160   28.1013  -25.5493 H   0  0  0  0  0  0  0  0  0  0  0  0
    1.6241   25.9816  -26.8475 H   0  0  0  0  0  0  0  0  0  0  0  0
   -1.5887   22.0849  -25.0805 H   0  0  0  0  0  0  0  0  0  0  0  0
   -3.2542   21.7797  -26.9095 H   0  0  0  0  0  0  0  0  0  0  0  0
   -4.0593   20.3967  -30.8859 H   0  0  0  0  0  0  0  0  0  0  0  0
   -8.0171   19.1997  -32.0135 H   0  0  0  0  0  0  0  0  0  0  0  0
   -8.2371   16.7976  -32.6615 H   0  0  0  0  0  0  0  0  0  0  0  0
  1  2  1  0
  2  3  2  0
  2  4  2  0
  2  5  1  0
  5  6  1  0
  6  7  1  0
  7  8  2  0
  8  9  1  0
  9 10  1  0
 10 11  2  0
 11 12  1  0
 12 13  2  0
 13 14  1  0
 14 15  1  0
 15 16  2  0
 16 17  1  0
 17 18  3  0
 16 19  1  0
 19 20  2  3
 20 21  1  0
 21 22  2  0
 22 23  1  0
 23 24  2  0
 24 25  1  0
 25 26  1  0
 26 27  1  0
 27 28  2  0
 28 29  1  0
 29 30  2  0
 30 31  1  0
 31 32  1  0
 31 33  2  0
 24 34  1  0
 34 35  2  0
 19 36  1  0
 36 37  2  0
  9 38  2  0
 38 39  1  0
 39 40  2  0
 40  7  1  0
 37 10  1  0
 36 13  1  0
 35 21  1  0
 33 27  1  0
  1 41  1  0
  1 42  1  0
  1 43  1  0
  5 44  1  0
  6 45  1  0
  6 46  1  0
  8 47  1  0
 11 48  1  0
 12 49  1  0
 15 50  1  0
 22 51  1  0
 23 52  1  0
 26 53  1  0
 26 54  1  0
 28 55  1  0
 29 56  1  0
 30 57  1  0
 33 58  1  0
 34 59  1  0
 35 60  1  0
 37 61  1  0
 38 62  1  0
 39 63  1  0
M  CHG  1  14  -1
M  END
>  <UniqueID>  (19) 
18

>  <SMILES>  (19) 
CS(=O)(=O)NCc1cc(-c2ccc3[n-]cc(C#N)c(=Nc4ccc(OCc5cccc(F)c5)cc4)c3c2)ccn1

>  <Energy>  (19) 
88.14889650359454

>  <Genealogy>  (19) 
CS(=O)(=O)NCc1cc(-c2ccc3[n-]cc(C#N)c(=Nc4ccc(OCc5cccc(F)c5)cc4)c3c2)ccn1 (protonated)
CS(=O)(=O)NCc1cc(-c2ccc3[n-]cc(C#N)c(=Nc4ccc(OCc5cccc(F)c5)cc4)c3c2)ccn1 (3D coordinates assigned)
CS(=O)(=O)NCc1cc(-c2ccc3[n-]cc(C#N)c(=Nc4ccc(OCc5cccc(F)c5)cc4)c3c2)ccn1 (optimized conformer: 88.14889650359454 kcal/mol)

>  <smiles>  (19) 
CS(=O)(=O)NCc1cc(-c2ccc3[nH]cc(C#N)c(=Nc4ccc(OCc5cccc(F)c5)cc4)c3c2)ccn1

>  <score_type>  (19) 
oracle

>  <origin>  (19) 
adgpu

>  <m_score__min__energy>  (19) 
-12.859999999999999

>  <m_primary>  (19) 
energy

$$$$
19:0
     RDKit          3D

 38 40  0  0  0  0  0  0  0  0999 V2000
   -0.8509   22.8776  -30.9765 H   0  0  0  0  0  0  0  0  0  0  0  0
   -1.8050   23.0470  -30.4560 C   0  0  0  0  0  0  0  0  0  0  0  0
   -2.8990   23.0400  -31.1660 N   0  0  0  0  0  0  0  0  0  0  0  0
   -4.2150   23.4020  -30.7200 C   0  0  0  0  0  0  0  0  0  0  0  0
   -4.4150   24.5760  -29.9720 C   0  0  0  0  0  0  0  0  0  0  0  0
   -3.5550   25.2076  -29.7046 H   0  0  0  0  0  0  0  0  0  0  0  0
   -5.7000   24.9440  -29.5670 C   0  0  0  0  0  0  0  0  0  0  0  0
   -5.8483   25.8584  -28.9738 H   0  0  0  0  0  0  0  0  0  0  0  0
   -6.7960   24.1530  -29.9140 C   0  0  0  0  0  0  0  0  0  0  0  0
   -7.8068   24.4429  -29.5913 H   0  0  0  0  0  0  0  0  0  0  0  0
   -6.6110   22.9930  -30.6710 C   0  0  0  0  0  0  0  0  0  0  0  0
   -7.4781   22.3728  -30.9421 H   0  0  0  0  0  0  0  0  0  0  0  0
   -5.3260   22.6150  -31.0870 C   0  0  0  0  0  0  0  0  0  0  0  0
   -5.0990   21.1110  -31.9840 S   0  0  0  0  0  0  0  0  0  0  0  0
   -4.6690   21.3940  -33.3980 O   0  0  0  0  0  0  0  0  0  0  0  0
   -4.0300   20.2890  -31.3190 O   0  0  0  0  0  0  0  0  0  0  0  0
   -6.6290   20.2400  -32.0140 C   0  0  0  0  0  0  0  0  0  0  0  0
   -6.6770   18.9070  -31.5860 C   0  0  0  0  0  0  0  0  0  0  0  0
   -5.7705   18.4248  -31.1913 H   0  0  0  0  0  0  0  0  0  0  0  0
   -7.8730   18.1880  -31.6590 C   0  0  0  0  0  0  0  0  0  0  0  0
   -7.9063   17.1415  -31.3218 H   0  0  0  0  0  0  0  0  0  0  0  0
   -9.0270   18.7970  -32.1600 C   0  0  0  0  0  0  0  0  0  0  0  0
   -9.9676   18.2297  -32.2184 H   0  0  0  0  0  0  0  0  0  0  0  0
   -8.9850   20.1280  -32.5870 C   0  0  0  0  0  0  0  0  0  0  0  0
   -9.8936   20.6076  -32.9801 H   0  0  0  0  0  0  0  0  0  0  0  0
   -7.7900   20.8500  -32.5150 C   0  0  0  0  0  0  0  0  0  0  0  0
   -7.7594   21.8969  -32.8512 H   0  0  0  0  0  0  0  0  0  0  0  0
   -1.7680   23.2690  -28.9920 C   0  0  0  0  0  0  0  0  0  0  0  0
   -1.7650   22.1830  -28.0960 C   0  0  0  0  0  0  0  0  0  0  0  0
   -1.8205   21.1547  -28.4827 H   0  0  0  0  0  0  0  0  0  0  0  0
   -1.6920   22.4040  -26.7190 C   0  0  0  0  0  0  0  0  0  0  0  0
   -1.7054   21.5515  -26.0240 H   0  0  0  0  0  0  0  0  0  0  0  0
   -1.6020   23.7060  -26.2240 C   0  0  0  0  0  0  0  0  0  0  0  0
   -1.5499   23.8785  -25.1389 H   0  0  0  0  0  0  0  0  0  0  0  0
   -1.5780   24.7900  -27.1040 C   0  0  0  0  0  0  0  0  0  0  0  0
   -1.5008   25.8144  -26.7107 H   0  0  0  0  0  0  0  0  0  0  0  0
   -1.6520   24.5760  -28.4860 C   0  0  0  0  0  0  0  0  0  0  0  0
   -1.6200   25.6690  -29.3470 O   0  0  0  0  0  0  0  0  0  0  0  0
  1  2  1  0
  2  3  2  0
  3  4  1  0
  4  5  2  0
  5  6  1  0
  5  7  1  0
  7  8  1  0
  7  9  2  0
  9 10  1  0
  9 11  1  0
 11 12  1  0
 11 13  2  0
 13 14  1  0
 14 15  2  0
 14 16  2  0
 14 17  1  0
 17 18  2  0
 18 19  1  0
 18 20  1  0
 20 21  1  0
 20 22  2  0
 22 23  1  0
 22 24  1  0
 24 25  1  0
 24 26  2  0
 26 27  1  0
  2 28  1  0
 28 29  2  0
 29 30  1  0
 29 31  1  0
 31 32  1  0
 31 33  2  0
 33 34  1  0
 33 35  1  0
 35 36  1  0
 35 37  2  0
 37 38  1  0
 13  4  1  0
 26 17  1  0
 37 28  1  0
M  CHG  1  38  -1
M  END
>  <UniqueID>  (20) 
19

>  <SMILES>  (20) 
O=S(=O)(c1ccccc1)c1ccccc1/N=C\c1ccccc1[O-]

>  <Energy>  (20) 
53.13645991842883

>  <Genealogy>  (20) 
O=S(=O)(c1ccccc1)c1ccccc1N=Cc1ccccc1[O-] (protonated)
O=S(=O)(c1ccccc1)c1ccccc1/N=C\c1ccccc1[O-] (cis-trans isomerization)
O=S(=O)(c1ccccc1)c1ccccc1/N=C\c1ccccc1[O-] (3D coordinates assigned)
O=S(=O)(c1ccccc1)c1ccccc1/N=C\c1ccccc1[O-] (optimized conformer: 53.13645991842883 kcal/mol)

>  <smiles>  (20) 
O=S(=O)(c1ccccc1)c1ccccc1N=Cc1ccccc1O

>  <score_type>  (20) 
oracle

>  <origin>  (20) 
adgpu

>  <m_score__min__energy>  (20) 
-11.81

>  <m_primary>  (20) 
energy

$$$$
20:0
     RDKit          3D

 32 34  0  0  0  0  0  0  0  0999 V2000
   -1.9290   24.9730  -29.3420 N   0  0  0  0  0  0  0  0  0  0  0  0
   -3.5710   24.5830  -29.7150 S   0  0  0  0  0  0  0  0  0  0  0  0
   -4.2140   25.7460  -30.4150 O   0  0  0  0  0  0  0  0  0  0  0  0
   -4.3240   24.3090  -28.4430 O   0  0  0  0  0  0  0  0  0  0  0  0
   -3.6160   23.1610  -30.7530 C   0  0  0  0  0  0  0  0  0  0  0  0
   -4.6400   23.0120  -31.6980 C   0  0  0  0  0  0  0  0  0  0  0  0
   -4.6860   21.8770  -32.5130 C   0  0  0  0  0  0  0  0  0  0  0  0
   -3.7180   20.8690  -32.3800 C   0  0  0  0  0  0  0  0  0  0  0  0
   -3.7670   19.7070  -33.2260 N   0  0  0  0  0  0  0  0  0  0  0  0
   -2.7330   19.1690  -33.8990 C   0  0  0  0  0  0  0  0  0  0  0  0
   -3.0850   18.0110  -34.4880 N   0  0  0  0  0  0  0  0  0  0  0  0
   -4.3610   17.7970  -34.2020 N   0  0  0  0  0  0  0  0  0  0  0  0
   -4.7730   18.8290  -33.4380 C   0  0  0  0  0  0  0  0  0  0  0  0
   -6.1720   18.9760  -32.9800 C   0  0  0  0  0  0  0  0  0  0  0  0
   -6.9990   19.9910  -33.4910 C   0  0  0  0  0  0  0  0  0  0  0  0
   -8.3240   20.1080  -33.0560 C   0  0  0  0  0  0  0  0  0  0  0  0
   -8.8360   19.2060  -32.1210 C   0  0  0  0  0  0  0  0  0  0  0  0
   -8.0280   18.1800  -31.6250 C   0  0  0  0  0  0  0  0  0  0  0  0
   -6.7030   18.0600  -32.0560 C   0  0  0  0  0  0  0  0  0  0  0  0
   -2.6880   21.0270  -31.4390 C   0  0  0  0  0  0  0  0  0  0  0  0
   -2.6420   22.1620  -30.6240 C   0  0  0  0  0  0  0  0  0  0  0  0
   -1.6110   25.6650  -30.0570 H   0  0  0  0  0  0  0  0  0  0  0  0
   -5.4103   23.7908  -31.7989 H   0  0  0  0  0  0  0  0  0  0  0  0
   -5.4847   21.7733  -33.2622 H   0  0  0  0  0  0  0  0  0  0  0  0
   -1.7304   19.6174  -33.9598 H   0  0  0  0  0  0  0  0  0  0  0  0
   -6.6030   20.6966  -34.2362 H   0  0  0  0  0  0  0  0  0  0  0  0
   -8.9629   20.9115  -33.4511 H   0  0  0  0  0  0  0  0  0  0  0  0
   -9.8756   19.3034  -31.7750 H   0  0  0  0  0  0  0  0  0  0  0  0
   -8.4346   17.4654  -30.8943 H   0  0  0  0  0  0  0  0  0  0  0  0
   -6.0735   17.2447  -31.6699 H   0  0  0  0  0  0  0  0  0  0  0  0
   -1.9124   20.2530  -31.3424 H   0  0  0  0  0  0  0  0  0  0  0  0
   -1.8393   22.2710  -29.8798 H   0  0  0  0  0  0  0  0  0  0  0  0
  1  2  1  0
  2  3  2  0
  2  4  2  0
  2  5  1  0
  5  6  2  0
  6  7  1  0
  7  8  2  0
  8  9  1  0
  9 10  1  0
 10 11  2  0
 11 12  1  0
 12 13  2  0
 13 14  1  0
 14 15  2  0
 15 16  1  0
 16 17  2  0
 17 18  1  0
 18 19  2  0
  8 20  1  0
 20 21  2  0
 21  5  1  0
 13  9  1  0
 19 14  1  0
  1 22  1  0
  6 23  1  0
  7 24  1  0
 10 25  1  0
 15 26  1  0
 16 27  1  0
 17 28  1  0
 18 29  1  0
 19 30  1  0
 20 31  1  0
 21 32  1  0
M  CHG  1   1  -1
M  END
>  <UniqueID>  (21) 
20

>  <SMILES>  (21) 
[NH-]S(=O)(=O)c1ccc(-n2cnnc2-c2ccccc2)cc1

>  <Energy>  (21) 
77.69487276725982

>  <Genealogy>  (21) 
[NH-]S(=O)(=O)c1ccc(-n2cnnc2-c2ccccc2)cc1 (protonated)
[NH-]S(=O)(=O)c1ccc(-n2cnnc2-c2ccccc2)cc1 (3D coordinates assigned)
[NH-]S(=O)(=O)c1ccc(-n2cnnc2-c2ccccc2)cc1 (optimized conformer: 77.69487276725982 kcal/mol)

>  <smiles>  (21) 
NS(=O)(=O)c1ccc(-n2cnnc2-c2ccccc2)cc1

>  <score_type>  (21) 
oracle

>  <origin>  (21) 
adgpu

>  <m_score__min__energy>  (21) 
-10.44

>  <m_primary>  (21) 
energy

$$$$
21:0
     RDKit          3D

 38 41  0  0  0  0  0  0  0  0999 V2000
   -4.9860   22.1930  -29.7630 O   0  0  0  0  0  0  0  0  0  0  0  0
   -3.7890   22.3210  -30.6610 S   0  0  0  0  0  0  0  0  0  0  0  0
   -4.1280   23.1410  -31.8740 O   0  0  0  0  0  0  0  0  0  0  0  0
   -3.2630   20.7440  -31.1560 N   0  0  0  0  0  0  0  0  0  0  0  0
   -2.4290   20.3960  -32.2750 C   0  0  0  0  0  0  0  0  0  0  0  0
   -1.3720   21.2640  -32.5800 C   0  0  0  0  0  0  0  0  0  0  0  0
   -0.5090   21.0010  -33.6490 C   0  0  0  0  0  0  0  0  0  0  0  0
   -0.6990   19.8550  -34.4380 C   0  0  0  0  0  0  0  0  0  0  0  0
   -1.7580   18.9850  -34.1430 C   0  0  0  0  0  0  0  0  0  0  0  0
   -2.6230   19.2470  -33.0750 C   0  0  0  0  0  0  0  0  0  0  0  0
   -3.6620   18.3570  -32.8400 O   0  0  0  0  0  0  0  0  0  0  0  0
    0.2150   19.5440  -35.5990 C   0  0  0  0  0  0  0  0  0  0  0  0
    1.3120   20.5590  -35.8070 C   0  0  0  0  0  0  0  0  0  0  0  0
    2.2280   20.3810  -36.8560 C   0  0  0  0  0  0  0  0  0  0  0  0
    3.2500   21.3110  -37.0650 C   0  0  0  0  0  0  0  0  0  0  0  0
    4.1540   21.1270  -38.1050 O   0  0  0  0  0  0  0  0  0  0  0  0
    3.3650   22.4250  -36.2290 C   0  0  0  0  0  0  0  0  0  0  0  0
    2.4580   22.6110  -35.1830 C   0  0  0  0  0  0  0  0  0  0  0  0
    1.4320   21.6840  -34.9680 C   0  0  0  0  0  0  0  0  0  0  0  0
    0.5340   21.8870  -33.9180 O   0  0  0  0  0  0  0  0  0  0  0  0
   -2.5000   23.1320  -29.7700 C   0  0  0  0  0  0  0  0  0  0  0  0
   -1.4790   22.3840  -29.1610 C   0  0  0  0  0  0  0  0  0  0  0  0
   -0.4580   23.0280  -28.4550 C   0  0  0  0  0  0  0  0  0  0  0  0
   -0.4490   24.4230  -28.3510 C   0  0  0  0  0  0  0  0  0  0  0  0
    0.5670   25.0600  -27.6500 O   0  0  0  0  0  0  0  0  0  0  0  0
   -1.4610   25.1730  -28.9540 C   0  0  0  0  0  0  0  0  0  0  0  0
   -2.4860   24.5350  -29.6610 C   0  0  0  0  0  0  0  0  0  0  0  0
   -3.4850   25.2990  -30.2540 O   0  0  0  0  0  0  0  0  0  0  0  0
   -1.2186   22.1660  -31.9694 H   0  0  0  0  0  0  0  0  0  0  0  0
   -1.9106   18.0860  -34.7583 H   0  0  0  0  0  0  0  0  0  0  0  0
    0.6806   18.5637  -35.4194 H   0  0  0  0  0  0  0  0  0  0  0  0
   -0.4073   19.5583  -36.5060 H   0  0  0  0  0  0  0  0  0  0  0  0
    2.1409   19.5056  -37.5163 H   0  0  0  0  0  0  0  0  0  0  0  0
    4.1702   23.1558  -36.3948 H   0  0  0  0  0  0  0  0  0  0  0  0
    2.5506   23.4887  -34.5264 H   0  0  0  0  0  0  0  0  0  0  0  0
   -1.4825   21.2868  -29.2397 H   0  0  0  0  0  0  0  0  0  0  0  0
    0.3392   22.4368  -27.9807 H   0  0  0  0  0  0  0  0  0  0  0  0
   -1.4522   26.2700  -28.8728 H   0  0  0  0  0  0  0  0  0  0  0  0
  1  2  2  0
  2  3  2  0
  2  4  1  0
  4  5  1  0
  5  6  2  0
  6  7  1  0
  7  8  2  0
  8  9  1  0
  9 10  2  0
 10 11  1  0
  8 12  1  0
 12 13  1  0
 13 14  2  0
 14 15  1  0
 15 16  1  0
 15 17  2  0
 17 18  1  0
 18 19  2  0
 19 20  1  0
  2 21  1  0
 21 22  2  0
 22 23  1  0
 23 24  2  0
 24 25  1  0
 24 26  1  0
 26 27  2  0
 27 28  1  0
 10  5  1  0
 19 13  1  0
 27 21  1  0
 20  7  1  0
  6 29  1  0
  9 30  1  0
 12 31  1  0
 12 32  1  0
 14 33  1  0
 17 34  1  0
 18 35  1  0
 22 36  1  0
 23 37  1  0
 26 38  1  0
M  CHG  5   4  -1  11  -1  16  -1  25  -1  28  -1
M  END
>  <UniqueID>  (22) 
21

>  <SMILES>  (22) 
O=S(=O)([N-]c1cc2c(cc1[O-])Cc1cc([O-])ccc1O2)c1ccc([O-])cc1[O-]

>  <Energy>  (22) 
54.441855642700624

>  <Genealogy>  (22) 
O=S(=O)([N-]c1cc2c(cc1[O-])Cc1cc([O-])ccc1O2)c1ccc([O-])cc1[O-] (protonated)
O=S(=O)([N-]c1cc2c(cc1[O-])Cc1cc([O-])ccc1O2)c1ccc([O-])cc1[O-] (3D coordinates assigned)
O=S(=O)([N-]c1cc2c(cc1[O-])Cc1cc([O-])ccc1O2)c1ccc([O-])cc1[O-] (nonaromatic ring conformer: 54.441855642700624 kcal/mol)

>  <smiles>  (22) 
O=S(=O)(Nc1cc2c(cc1O)Cc1cc(O)ccc1O2)c1ccc(O)cc1O

>  <score_type>  (22) 
oracle

>  <origin>  (22) 
adgpu

>  <m_score__min__energy>  (22) 
-13.85

>  <m_primary>  (22) 
energy

$$$$
22:0
     RDKit          3D

 54 57  0  0  0  0  0  0  0  0999 V2000
   -0.0580   23.2170  -27.4870 C   0  0  0  0  0  0  0  0  0  0  0  0
   -0.5170   22.4860  -28.7220 C   0  0  0  0  0  0  0  0  0  0  0  0
    0.0930   21.2630  -29.0480 C   0  0  0  0  0  0  0  0  0  0  0  0
   -0.2850   20.5640  -30.1940 C   0  0  0  0  0  0  0  0  0  0  0  0
   -1.2800   21.0720  -31.0350 C   0  0  0  0  0  0  0  0  0  0  0  0
   -1.7500   20.1850  -32.4900 S   0  0  0  0  0  0  0  0  0  0  0  0
   -1.9980   18.7470  -32.1300 O   0  0  0  0  0  0  0  0  0  0  0  0
   -3.0350   20.7610  -33.0180 O   0  0  0  0  0  0  0  0  0  0  0  0
   -0.5370   20.2530  -33.7480 N   0  0  0  0  0  0  0  0  0  0  0  0
   -0.5130   21.5530  -34.4130 C   0  0  0  0  0  0  0  0  0  0  0  0
    0.8800   21.7090  -34.9980 C   0  0  0  0  0  0  0  0  0  0  0  0
    1.7560   20.7550  -34.1990 C   0  0  0  0  0  0  0  0  0  0  0  0
    0.8140   20.0590  -33.2250 C   0  0  0  0  0  0  0  0  0  0  0  0
   -1.9000   22.2850  -30.7150 C   0  0  0  0  0  0  0  0  0  0  0  0
   -1.5130   23.0160  -29.5800 C   0  0  0  0  0  0  0  0  0  0  0  0
   -2.2680   24.5890  -29.2720 S   0  0  0  0  0  0  0  0  0  0  0  0
   -2.8790   24.5930  -27.9000 O   0  0  0  0  0  0  0  0  0  0  0  0
   -1.2210   25.6640  -29.3500 O   0  0  0  0  0  0  0  0  0  0  0  0
   -3.5180   24.9150  -30.4330 N   0  0  0  0  0  0  0  0  0  0  0  0
   -4.7220   24.1460  -30.5000 C   0  0  0  0  0  0  0  0  0  0  0  0
   -4.7940   23.0820  -31.4090 C   0  0  0  0  0  0  0  0  0  0  0  0
   -5.9830   22.3580  -31.5640 C   0  0  0  0  0  0  0  0  0  0  0  0
   -7.1170   22.7050  -30.8050 C   0  0  0  0  0  0  0  0  0  0  0  0
   -7.0200   23.7190  -29.8410 C   0  0  0  0  0  0  0  0  0  0  0  0
   -5.8250   24.4240  -29.6660 C   0  0  0  0  0  0  0  0  0  0  0  0
   -5.7490   25.3650  -28.6400 O   0  0  0  0  0  0  0  0  0  0  0  0
   -8.3970   21.9240  -30.9550 C   0  0  0  0  0  0  0  0  0  0  0  0
   -8.5100   21.2970  -32.3500 C   0  0  0  0  0  0  0  0  0  0  0  0
   -7.2600   20.4740  -32.6720 C   0  0  0  0  0  0  0  0  0  0  0  0
   -6.0550   21.2860  -32.5180 N   0  0  0  0  0  0  0  0  0  0  0  0
   -0.3983   22.6750  -26.5924 H   0  0  0  0  0  0  0  0  0  0  0  0
    1.0403   23.2772  -27.4835 H   0  0  0  0  0  0  0  0  0  0  0  0
   -0.4809   24.2324  -27.4835 H   0  0  0  0  0  0  0  0  0  0  0  0
    0.8760   20.8530  -28.3932 H   0  0  0  0  0  0  0  0  0  0  0  0
    0.2020   19.6082  -30.4376 H   0  0  0  0  0  0  0  0  0  0  0  0
   -1.2675   21.5853  -35.2128 H   0  0  0  0  0  0  0  0  0  0  0  0
   -0.7433   22.3659  -33.7086 H   0  0  0  0  0  0  0  0  0  0  0  0
    0.8839   21.4359  -36.0635 H   0  0  0  0  0  0  0  0  0  0  0  0
    1.2387   22.7470  -34.9359 H   0  0  0  0  0  0  0  0  0  0  0  0
    2.2320   20.0204  -34.8652 H   0  0  0  0  0  0  0  0  0  0  0  0
    2.5661   21.2847  -33.6763 H   0  0  0  0  0  0  0  0  0  0  0  0
    1.0498   18.9860  -33.1686 H   0  0  0  0  0  0  0  0  0  0  0  0
    0.9122   20.4727  -32.2105 H   0  0  0  0  0  0  0  0  0  0  0  0
   -2.7017   22.6714  -31.3615 H   0  0  0  0  0  0  0  0  0  0  0  0
   -3.9098   22.8132  -32.0056 H   0  0  0  0  0  0  0  0  0  0  0  0
   -7.8923   23.9621  -29.2165 H   0  0  0  0  0  0  0  0  0  0  0  0
   -4.8740   25.6180  -28.1990 H   0  0  0  0  0  0  0  0  0  0  0  0
   -8.4186   21.1240  -30.2003 H   0  0  0  0  0  0  0  0  0  0  0  0
   -9.2420   22.6145  -30.8164 H   0  0  0  0  0  0  0  0  0  0  0  0
   -9.3928   20.6415  -32.3816 H   0  0  0  0  0  0  0  0  0  0  0  0
   -8.6073   22.1012  -33.0942 H   0  0  0  0  0  0  0  0  0  0  0  0
   -7.2067   19.6148  -31.9872 H   0  0  0  0  0  0  0  0  0  0  0  0
   -7.3228   20.1273  -33.7140 H   0  0  0  0  0  0  0  0  0  0  0  0
   -5.1900   20.9830  -33.0190 H   0  0  0  0  0  0  0  0  0  0  0  0
  1  2  1  0
  2  3  2  0
  3  4  1  0
  4  5  2  0
  5  6  1  0
  6  7  2  0
  6  8  2  0
  6  9  1  0
  9 10  1  0
 10 11  1  0
 11 12  1  0
 12 13  1  0
  5 14  1  0
 14 15  2  0
 15 16  1  0
 16 17  2  0
 16 18  2  0
 16 19  1  0
 19 20  1  0
 20 21  2  0
 21 22  1  0
 22 23  2  0
 23 24  1  0
 24 25  2  0
 25 26  1  0
 23 27  1  0
 27 28  1  0
 28 29  1  0
 29 30  1  0
 15  2  1  0
 25 20  1  0
 13  9  1  0
 30 22  1  0
  1 31  1  0
  1 32  1  0
  1 33  1  0
  3 34  1  0
  4 35  1  0
 10 36  1  0
 10 37  1  0
 11 38  1  0
 11 39  1  0
 12 40  1  0
 12 41  1  0
 13 42  1  0
 13 43  1  0
 14 44  1  0
 21 45  1  0
 24 46  1  0
 26 47  1  0
 27 48  1  0
 27 49  1  0
 28 50  1  0
 28 51  1  0
 29 52  1  0
 29 53  1  0
 30 54  1  0
M  CHG  1  19  -1
M  END
>  <UniqueID>  (23) 
22

>  <SMILES>  (23) 
Cc1ccc(S(=O)(=O)N2CCCC2)cc1S(=O)(=O)[N-]c1cc2c(cc1O)CCCN2

>  <Energy>  (23) 
64.6307905674377

>  <Genealogy>  (23) 
Cc1ccc(S(=O)(=O)N2CCCC2)cc1S(=O)(=O)[N-]c1cc2c(cc1O)CCCN2 (protonated)
Cc1ccc(S(=O)(=O)N2CCCC2)cc1S(=O)(=O)[N-]c1cc2c(cc1O)CCCN2 (3D coordinates assigned)
Cc1ccc(S(=O)(=O)N2CCCC2)cc1S(=O)(=O)[N-]c1cc2c(cc1O)CCCN2 (nonaromatic ring conformer: 64.6307905674377 kcal/mol)

>  <smiles>  (23) 
Cc1ccc(S(=O)(=O)N2CCCC2)cc1S(=O)(=O)Nc1cc2c(cc1O)CCCN2

>  <score_type>  (23) 
oracle

>  <origin>  (23) 
adgpu

>  <m_score__min__energy>  (23) 
-11.949999999999999

>  <m_primary>  (23) 
energy

$$$$
23:0
     RDKit          3D

 46 49  0  0  0  0  0  0  0  0999 V2000
   -1.6950   19.0150  -26.3970 C   0  0  0  0  0  0  0  0  0  0  0  0
   -1.6720   20.3580  -27.0430 C   0  0  0  0  0  0  0  0  0  0  0  0
   -2.6300   20.7810  -27.9040 N   0  0  0  0  0  0  0  0  0  0  0  0
   -2.3920   22.0560  -28.3070 C   0  0  0  0  0  0  0  0  0  0  0  0
   -3.2000   22.7650  -29.1960 C   0  0  0  0  0  0  0  0  0  0  0  0
   -2.8490   24.0950  -29.5310 C   0  0  0  0  0  0  0  0  0  0  0  0
   -3.6300   24.8810  -30.4430 N   0  0  0  0  0  0  0  0  0  0  0  0
   -5.3480   25.1000  -30.3520 S   0  0  0  0  0  0  0  0  0  0  0  0
   -5.7380   26.2910  -31.1860 O   0  0  0  0  0  0  0  0  0  0  0  0
   -5.7390   25.3590  -28.9250 O   0  0  0  0  0  0  0  0  0  0  0  0
   -6.1640   23.6440  -30.9130 C   0  0  0  0  0  0  0  0  0  0  0  0
   -5.6550   22.3870  -30.5590 C   0  0  0  0  0  0  0  0  0  0  0  0
   -6.2910   21.2230  -31.0010 C   0  0  0  0  0  0  0  0  0  0  0  0
   -7.4430   21.3040  -31.7970 C   0  0  0  0  0  0  0  0  0  0  0  0
   -8.2390   19.8310  -32.3620 S   0  0  0  0  0  0  0  0  0  0  0  0
   -9.5040   20.2040  -33.0800 O   0  0  0  0  0  0  0  0  0  0  0  0
   -8.6090   18.9890  -31.1730 O   0  0  0  0  0  0  0  0  0  0  0  0
   -7.2350   18.8870  -33.4380 N   0  0  0  0  0  0  0  0  0  0  0  0
   -6.8120   17.6240  -32.8310 C   0  0  0  0  0  0  0  0  0  0  0  0
   -5.5170   17.2280  -33.5250 C   0  0  0  0  0  0  0  0  0  0  0  0
   -4.9860   18.5100  -34.1520 C   0  0  0  0  0  0  0  0  0  0  0  0
   -6.0000   19.5860  -33.7920 C   0  0  0  0  0  0  0  0  0  0  0  0
   -7.9420   22.5620  -32.1590 C   0  0  0  0  0  0  0  0  0  0  0  0
   -7.3110   23.7280  -31.7140 C   0  0  0  0  0  0  0  0  0  0  0  0
   -1.6960   24.6770  -28.9610 C   0  0  0  0  0  0  0  0  0  0  0  0
   -0.8910   23.9510  -28.0690 C   0  0  0  0  0  0  0  0  0  0  0  0
   -1.2620   22.6440  -27.7650 C   0  0  0  0  0  0  0  0  0  0  0  0
   -0.5110   21.5530  -26.7340 S   0  0  0  0  0  0  0  0  0  0  0  0
   -1.6930   19.1340  -25.3035 H   0  0  0  0  0  0  0  0  0  0  0  0
   -2.6025   18.4753  -26.7054 H   0  0  0  0  0  0  0  0  0  0  0  0
   -0.8065   18.4445  -26.7054 H   0  0  0  0  0  0  0  0  0  0  0  0
   -4.0962   22.2978  -29.6301 H   0  0  0  0  0  0  0  0  0  0  0  0
   -4.7537   22.3162  -29.9324 H   0  0  0  0  0  0  0  0  0  0  0  0
   -5.8859   20.2388  -30.7231 H   0  0  0  0  0  0  0  0  0  0  0  0
   -6.6404   17.7584  -31.7528 H   0  0  0  0  0  0  0  0  0  0  0  0
   -7.5817   16.8470  -32.9483 H   0  0  0  0  0  0  0  0  0  0  0  0
   -4.7963   16.8288  -32.7962 H   0  0  0  0  0  0  0  0  0  0  0  0
   -5.6796   16.4417  -34.2769 H   0  0  0  0  0  0  0  0  0  0  0  0
   -3.9973   18.7594  -33.7394 H   0  0  0  0  0  0  0  0  0  0  0  0
   -4.8623   18.4122  -35.2406 H   0  0  0  0  0  0  0  0  0  0  0  0
   -5.6396   20.1780  -32.9378 H   0  0  0  0  0  0  0  0  0  0  0  0
   -6.1604   20.2796  -34.6305 H   0  0  0  0  0  0  0  0  0  0  0  0
   -8.8353   22.6330  -32.7969 H   0  0  0  0  0  0  0  0  0  0  0  0
   -7.7154   24.7122  -31.9930 H   0  0  0  0  0  0  0  0  0  0  0  0
   -1.4252   25.7115  -29.2188 H   0  0  0  0  0  0  0  0  0  0  0  0
    0.0076   24.4021  -27.6228 H   0  0  0  0  0  0  0  0  0  0  0  0
  1  2  1  0
  2  3  2  0
  3  4  1  0
  4  5  2  0
  5  6  1  0
  6  7  1  0
  7  8  1  0
  8  9  2  0
  8 10  2  0
  8 11  1  0
 11 12  2  0
 12 13  1  0
 13 14  2  0
 14 15  1  0
 15 16  2  0
 15 17  2  0
 15 18  1  0
 18 19  1  0
 19 20  1  0
 20 21  1  0
 21 22  1  0
 14 23  1  0
 23 24  2  0
  6 25  2  0
 25 26  1  0
 26 27  2  0
 27 28  1  0
 28  2  1  0
 27  4  1  0
 24 11  1  0
 22 18  1  0
  1 29  1  0
  1 30  1  0
  1 31  1  0
  5 32  1  0
 12 33  1  0
 13 34  1  0
 19 35  1  0
 19 36  1  0
 20 37  1  0
 20 38  1  0
 21 39  1  0
 21 40  1  0
 22 41  1  0
 22 42  1  0
 23 43  1  0
 24 44  1  0
 25 45  1  0
 26 46  1  0
M  CHG  1   7  -1
M  END
>  <UniqueID>  (24) 
23

>  <SMILES>  (24) 
Cc1nc2cc([N-]S(=O)(=O)c3ccc(S(=O)(=O)N4CCCC4)cc3)ccc2s1

>  <Energy>  (24) 
85.84155058588665

>  <Genealogy>  (24) 
Cc1nc2cc([N-]S(=O)(=O)c3ccc(S(=O)(=O)N4CCCC4)cc3)ccc2s1 (protonated)
Cc1nc2cc([N-]S(=O)(=O)c3ccc(S(=O)(=O)N4CCCC4)cc3)ccc2s1 (3D coordinates assigned)
Cc1nc2cc([N-]S(=O)(=O)c3ccc(S(=O)(=O)N4CCCC4)cc3)ccc2s1 (nonaromatic ring conformer: 85.84155058588665 kcal/mol)

>  <smiles>  (24) 
Cc1nc2cc(NS(=O)(=O)c3ccc(S(=O)(=O)N4CCCC4)cc3)ccc2s1

>  <score_type>  (24) 
oracle

>  <origin>  (24) 
adgpu

>  <m_score__min__energy>  (24) 
-11.85

>  <m_primary>  (24) 
energy

$$$$
24:0
     RDKit          3D

 56 60  0  0  0  0  0  0  0  0999 V2000
   -0.4780   25.2600  -28.2050 O   0  0  0  0  0  0  0  0  0  0  0  0
   -1.2410   24.7220  -29.0490 C   0  0  0  0  0  0  0  0  0  0  0  0
   -2.5320   25.2960  -29.2830 N   0  0  0  0  0  0  0  0  0  0  0  0
   -3.6680   24.5700  -29.7750 C   0  0  0  0  0  0  0  0  0  0  0  0
   -3.8080   23.1900  -29.5520 C   0  0  0  0  0  0  0  0  0  0  0  0
   -4.9040   22.4980  -30.0770 C   0  0  0  0  0  0  0  0  0  0  0  0
   -5.8710   23.1830  -30.8200 C   0  0  0  0  0  0  0  0  0  0  0  0
   -5.7560   24.5640  -31.0150 C   0  0  0  0  0  0  0  0  0  0  0  0
   -4.6640   25.2570  -30.4840 C   0  0  0  0  0  0  0  0  0  0  0  0
   -0.8100   23.6080  -29.8410 N   0  0  0  0  0  0  0  0  0  0  0  0
   -0.7100   22.2070  -29.5280 C   0  0  0  0  0  0  0  0  0  0  0  0
   -0.1570   21.7400  -28.3180 C   0  0  0  0  0  0  0  0  0  0  0  0
    0.0340   20.3730  -28.1090 C   0  0  0  0  0  0  0  0  0  0  0  0
   -0.2940   19.4530  -29.1060 C   0  0  0  0  0  0  0  0  0  0  0  0
   -0.8620   19.8900  -30.3100 C   0  0  0  0  0  0  0  0  0  0  0  0
   -1.1370   18.9750  -31.3410 C   0  0  0  0  0  0  0  0  0  0  0  0
   -1.6950   19.4160  -32.5480 C   0  0  0  0  0  0  0  0  0  0  0  0
   -1.7540   18.3390  -33.9400 S   0  0  0  0  0  0  0  0  0  0  0  0
   -1.4130   16.9310  -33.5380 O   0  0  0  0  0  0  0  0  0  0  0  0
   -0.7720   18.8040  -34.9790 O   0  0  0  0  0  0  0  0  0  0  0  0
   -3.3580   18.4000  -34.5910 N   0  0  0  0  0  0  0  0  0  0  0  0
   -4.4990   18.4260  -33.7260 C   0  0  0  0  0  0  0  0  0  0  0  0
   -5.2210   19.6120  -33.5390 C   0  0  0  0  0  0  0  0  0  0  0  0
   -6.4380   19.6060  -32.8430 C   0  0  0  0  0  0  0  0  0  0  0  0
   -6.9440   18.3870  -32.3440 C   0  0  0  0  0  0  0  0  0  0  0  0
   -6.1740   17.2160  -32.4520 C   0  0  0  0  0  0  0  0  0  0  0  0
   -4.9560   17.2340  -33.1450 C   0  0  0  0  0  0  0  0  0  0  0  0
   -4.2090   16.0620  -33.2820 O   0  0  0  0  0  0  0  0  0  0  0  0
   -8.2620   18.3500  -31.6060 C   0  0  0  0  0  0  0  0  0  0  0  0
   -9.0970   19.5140  -31.9370 N   0  0  0  0  0  0  0  0  0  0  0  0
   -8.3540   20.7530  -31.6930 C   0  0  0  0  0  0  0  0  0  0  0  0
   -7.2270   20.8880  -32.7200 C   0  0  0  0  0  0  0  0  0  0  0  0
   -2.0300   20.7650  -32.7020 C   0  0  0  0  0  0  0  0  0  0  0  0
   -1.7290   21.6880  -31.7020 C   0  0  0  0  0  0  0  0  0  0  0  0
   -1.1150   21.2700  -30.5060 C   0  0  0  0  0  0  0  0  0  0  0  0
   -3.0521   22.6513  -28.9617 H   0  0  0  0  0  0  0  0  0  0  0  0
   -5.0055   21.4162  -29.9058 H   0  0  0  0  0  0  0  0  0  0  0  0
   -6.7223   22.6359  -31.2513 H   0  0  0  0  0  0  0  0  0  0  0  0
   -6.5251   25.1045  -31.5863 H   0  0  0  0  0  0  0  0  0  0  0  0
   -4.5858   26.3454  -30.6229 H   0  0  0  0  0  0  0  0  0  0  0  0
    0.1258   22.4575  -27.5336 H   0  0  0  0  0  0  0  0  0  0  0  0
    0.4456   20.0187  -27.1524 H   0  0  0  0  0  0  0  0  0  0  0  0
   -0.1059   18.3811  -28.9460 H   0  0  0  0  0  0  0  0  0  0  0  0
   -0.9130   17.9074  -31.1994 H   0  0  0  0  0  0  0  0  0  0  0  0
   -4.8291   20.5574  -33.9423 H   0  0  0  0  0  0  0  0  0  0  0  0
   -6.5286   16.2823  -31.9910 H   0  0  0  0  0  0  0  0  0  0  0  0
   -3.3360   16.0460  -33.7950 H   0  0  0  0  0  0  0  0  0  0  0  0
   -8.8015   17.4324  -31.8835 H   0  0  0  0  0  0  0  0  0  0  0  0
   -8.0539   18.3701  -30.5261 H   0  0  0  0  0  0  0  0  0  0  0  0
   -9.9280   19.5030  -31.3020 H   0  0  0  0  0  0  0  0  0  0  0  0
   -9.0354   21.6119  -31.7825 H   0  0  0  0  0  0  0  0  0  0  0  0
   -7.9241   20.7273  -30.6808 H   0  0  0  0  0  0  0  0  0  0  0  0
   -7.6627   21.1356  -33.6992 H   0  0  0  0  0  0  0  0  0  0  0  0
   -6.5455   21.6834  -32.3840 H   0  0  0  0  0  0  0  0  0  0  0  0
   -2.5352   21.1003  -33.6198 H   0  0  0  0  0  0  0  0  0  0  0  0
   -1.9729   22.7506  -31.8483 H   0  0  0  0  0  0  0  0  0  0  0  0
  1  2  2  0
  2  3  1  0
  3  4  1  0
  4  5  2  0
  5  6  1  0
  6  7  2  0
  7  8  1  0
  8  9  2  0
  2 10  1  0
 10 11  1  0
 11 12  2  0
 12 13  1  0
 13 14  2  0
 14 15  1  0
 15 16  2  0
 16 17  1  0
 17 18  1  0
 18 19  2  0
 18 20  2  0
 18 21  1  0
 21 22  1  0
 22 23  2  0
 23 24  1  0
 24 25  2  0
 25 26  1  0
 26 27  2  0
 27 28  1  0
 25 29  1  0
 29 30  1  0
 30 31  1  0
 31 32  1  0
 17 33  2  0
 33 34  1  0
 34 35  2  0
  9  4  1  0
 35 11  1  0
 35 15  1  0
 27 22  1  0
 32 24  1  0
  5 36  1  0
  6 37  1  0
  7 38  1  0
  8 39  1  0
  9 40  1  0
 12 41  1  0
 13 42  1  0
 14 43  1  0
 16 44  1  0
 23 45  1  0
 26 46  1  0
 28 47  1  0
 29 48  1  0
 29 49  1  0
 30 50  1  0
 31 51  1  0
 31 52  1  0
 32 53  1  0
 32 54  1  0
 33 55  1  0
 34 56  1  0
M  CHG  3   3  -1  10  -1  21  -1
M  END
>  <UniqueID>  (25) 
24

>  <SMILES>  (25) 
O=C([N-]c1ccccc1)[N-]c1cccc2cc(S(=O)(=O)[N-]c3cc4c(cc3O)CNCC4)ccc12

>  <Energy>  (25) 
81.41792712854036

>  <Genealogy>  (25) 
O=C([N-]c1ccccc1)[N-]c1cccc2cc(S(=O)(=O)[N-]c3cc4c(cc3O)CNCC4)ccc12 (protonated)
O=C([N-]c1ccccc1)[N-]c1cccc2cc(S(=O)(=O)[N-]c3cc4c(cc3O)CNCC4)ccc12 (3D coordinates assigned)
O=C([N-]c1ccccc1)[N-]c1cccc2cc(S(=O)(=O)[N-]c3cc4c(cc3O)CNCC4)ccc12 (nonaromatic ring conformer: 81.41792712854036 kcal/mol)

>  <smiles>  (25) 
O=C(Nc1ccccc1)Nc1cccc2cc(S(=O)(=O)Nc3cc4c(cc3O)CNCC4)ccc12

>  <score_type>  (25) 
oracle

>  <origin>  (25) 
adgpu

>  <m_score__min__energy>  (25) 
-12.57

>  <m_primary>  (25) 
energy

$$$$
25:0
     RDKit          3D

 35 37  0  0  0  0  0  0  0  0999 V2000
   -7.6320   17.9410  -32.6930 C   0  0  0  0  0  0  0  0  0  0  0  0
   -6.4400   18.8310  -32.8010 C   0  0  0  0  0  0  0  0  0  0  0  0
   -5.7280   19.3600  -31.7460 C   0  0  0  0  0  0  0  0  0  0  0  0
   -4.6940   20.0410  -32.3640 C   0  0  0  0  0  0  0  0  0  0  0  0
   -3.6090   20.8150  -31.7170 C   0  0  0  0  0  0  0  0  0  0  0  0
   -2.2950   20.3180  -31.7380 C   0  0  0  0  0  0  0  0  0  0  0  0
   -1.2570   21.0370  -31.1410 C   0  0  0  0  0  0  0  0  0  0  0  0
   -1.5170   22.2580  -30.5160 C   0  0  0  0  0  0  0  0  0  0  0  0
   -2.8210   22.7650  -30.4790 C   0  0  0  0  0  0  0  0  0  0  0  0
   -3.1360   24.3180  -29.7110 S   0  0  0  0  0  0  0  0  0  0  0  0
   -1.8280   24.9570  -29.3370 O   0  0  0  0  0  0  0  0  0  0  0  0
   -3.9430   24.1220  -28.4570 O   0  0  0  0  0  0  0  0  0  0  0  0
   -3.9880   25.3670  -30.8020 N   0  0  0  0  0  0  0  0  0  0  0  0
   -5.3590   25.5560  -30.3370 C   0  0  0  0  0  0  0  0  0  0  0  0
   -6.1830   24.3830  -30.7530 C   0  0  0  0  0  0  0  0  0  0  0  0
   -6.8680   23.5270  -29.9010 C   0  0  0  0  0  0  0  0  0  0  0  0
   -7.4920   22.4670  -30.5700 C   0  0  0  0  0  0  0  0  0  0  0  0
   -7.2870   22.4790  -31.9440 C   0  0  0  0  0  0  0  0  0  0  0  0
   -6.3260   23.8060  -32.3260 S   0  0  0  0  0  0  0  0  0  0  0  0
   -3.8630   22.0460  -31.0830 C   0  0  0  0  0  0  0  0  0  0  0  0
   -4.8150   19.8920  -33.6650 O   0  0  0  0  0  0  0  0  0  0  0  0
   -5.8520   19.1640  -33.9650 N   0  0  0  0  0  0  0  0  0  0  0  0
   -7.8649   17.7671  -31.6321 H   0  0  0  0  0  0  0  0  0  0  0  0
   -8.4925   18.4194  -33.1836 H   0  0  0  0  0  0  0  0  0  0  0  0
   -7.4178   16.9801  -33.1836 H   0  0  0  0  0  0  0  0  0  0  0  0
   -5.9329   19.2638  -30.6695 H   0  0  0  0  0  0  0  0  0  0  0  0
   -2.0823   19.3563  -32.2278 H   0  0  0  0  0  0  0  0  0  0  0  0
   -0.2314   20.6400  -31.1633 H   0  0  0  0  0  0  0  0  0  0  0  0
   -0.6952   22.8228  -30.0516 H   0  0  0  0  0  0  0  0  0  0  0  0
   -5.3673   25.6414  -29.2404 H   0  0  0  0  0  0  0  0  0  0  0  0
   -5.7752   26.4749  -30.7755 H   0  0  0  0  0  0  0  0  0  0  0  0
   -6.9156   23.6674  -28.8110 H   0  0  0  0  0  0  0  0  0  0  0  0
   -8.0878   21.6980  -30.0565 H   0  0  0  0  0  0  0  0  0  0  0  0
   -7.6853   21.7455  -32.6604 H   0  0  0  0  0  0  0  0  0  0  0  0
   -4.8870   22.4473  -31.0611 H   0  0  0  0  0  0  0  0  0  0  0  0
  1  2  1  0
  2  3  1  0
  3  4  2  0
  4  5  1  0
  5  6  2  0
  6  7  1  0
  7  8  2  0
  8  9  1  0
  9 10  1  0
 10 11  2  0
 10 12  2  0
 10 13  1  0
 13 14  1  0
 14 15  1  0
 15 16  2  0
 16 17  1  0
 17 18  2  0
 18 19  1  0
  9 20  2  0
  4 21  1  0
 21 22  1  0
 22  2  2  0
 20  5  1  0
 19 15  1  0
  1 23  1  0
  1 24  1  0
  1 25  1  0
  3 26  1  0
  6 27  1  0
  7 28  1  0
  8 29  1  0
 14 30  1  0
 14 31  1  0
 16 32  1  0
 17 33  1  0
 18 34  1  0
 20 35  1  0
M  CHG  1  13  -1
M  END
>  <UniqueID>  (26) 
25

>  <SMILES>  (26) 
Cc1cc(-c2cccc(S(=O)(=O)[N-]Cc3cccs3)c2)on1

>  <Energy>  (26) 
89.70245767722501

>  <Genealogy>  (26) 
Cc1cc(-c2cccc(S(=O)(=O)[N-]Cc3cccs3)c2)on1 (protonated)
Cc1cc(-c2cccc(S(=O)(=O)[N-]Cc3cccs3)c2)on1 (3D coordinates assigned)
Cc1cc(-c2cccc(S(=O)(=O)[N-]Cc3cccs3)c2)on1 (optimized conformer: 89.70245767722501 kcal/mol)

>  <smiles>  (26) 
Cc1cc(-c2cccc(S(=O)(=O)NCc3cccs3)c2)on1

>  <score_type>  (26) 
oracle

>  <origin>  (26) 
adgpu

>  <m_score__min__energy>  (26) 
-9.5299999999999994

>  <m_primary>  (26) 
energy

$$$$
26:0
     RDKit          3D

 49 52  0  0  0  0  0  0  0  0999 V2000
    0.2350   19.7760  -28.4110 C   0  0  0  0  0  0  0  0  0  0  0  0
   -0.4430   20.2810  -27.2010 N   0  0  0  0  0  0  0  0  0  0  0  0
   -1.8760   19.9270  -27.1630 C   0  0  0  0  0  0  0  0  0  0  0  0
   -2.6900   20.6130  -28.2740 C   0  0  0  0  0  0  0  0  0  0  0  0
   -2.2800   22.0490  -28.5000 C   0  0  0  0  0  0  0  0  0  0  0  0
   -3.0750   22.8570  -29.3270 C   0  0  0  0  0  0  0  0  0  0  0  0
   -2.7140   24.1920  -29.5850 C   0  0  0  0  0  0  0  0  0  0  0  0
   -3.5160   25.0410  -30.4190 N   0  0  0  0  0  0  0  0  0  0  0  0
   -5.2520   25.1220  -30.3730 S   0  0  0  0  0  0  0  0  0  0  0  0
   -5.7130   25.2270  -28.9410 O   0  0  0  0  0  0  0  0  0  0  0  0
   -5.7150   26.3400  -31.1270 O   0  0  0  0  0  0  0  0  0  0  0  0
   -5.9070   23.6870  -31.1580 C   0  0  0  0  0  0  0  0  0  0  0  0
   -7.2680   23.3220  -30.9870 C   0  0  0  0  0  0  0  0  0  0  0  0
   -7.7590   22.1160  -31.5230 C   0  0  0  0  0  0  0  0  0  0  0  0
   -6.8690   21.3140  -32.2360 C   0  0  0  0  0  0  0  0  0  0  0  0
   -5.5570   21.6730  -32.4180 C   0  0  0  0  0  0  0  0  0  0  0  0
   -5.0370   22.8530  -31.8880 C   0  0  0  0  0  0  0  0  0  0  0  0
   -4.9150   20.6930  -33.0870 N   0  0  0  0  0  0  0  0  0  0  0  0
   -3.4860   20.6090  -33.3980 C   0  0  0  0  0  0  0  0  0  0  0  0
   -5.8660   19.7380  -33.2710 C   0  0  0  0  0  0  0  0  0  0  0  0
   -5.6380   18.6230  -33.8170 O   0  0  0  0  0  0  0  0  0  0  0  0
   -7.0820   20.0980  -32.7830 N   0  0  0  0  0  0  0  0  0  0  0  0
   -8.2990   19.2870  -32.7180 C   0  0  0  0  0  0  0  0  0  0  0  0
   -1.5500   24.7160  -29.0000 C   0  0  0  0  0  0  0  0  0  0  0  0
   -1.1970   26.0400  -29.2370 O   0  0  0  0  0  0  0  0  0  0  0  0
   -0.7430   23.9080  -28.1880 C   0  0  0  0  0  0  0  0  0  0  0  0
   -1.0910   22.5690  -27.9490 C   0  0  0  0  0  0  0  0  0  0  0  0
   -0.2420   21.7340  -27.0180 C   0  0  0  0  0  0  0  0  0  0  0  0
    1.0852   19.1427  -28.1176 H   0  0  0  0  0  0  0  0  0  0  0  0
   -0.4740   19.1842  -29.0086 H   0  0  0  0  0  0  0  0  0  0  0  0
    0.5990   20.6248  -29.0086 H   0  0  0  0  0  0  0  0  0  0  0  0
   -1.9719   18.8373  -27.2790 H   0  0  0  0  0  0  0  0  0  0  0  0
   -2.2766   20.2719  -26.1983 H   0  0  0  0  0  0  0  0  0  0  0  0
   -2.5456   20.0549  -29.2108 H   0  0  0  0  0  0  0  0  0  0  0  0
   -3.7437   20.6158  -27.9582 H   0  0  0  0  0  0  0  0  0  0  0  0
   -3.9889   22.4428  -29.7777 H   0  0  0  0  0  0  0  0  0  0  0  0
   -7.9451   23.9871  -30.4309 H   0  0  0  0  0  0  0  0  0  0  0  0
   -8.8084   21.8170  -31.3840 H   0  0  0  0  0  0  0  0  0  0  0  0
   -3.9812   23.1243  -32.0350 H   0  0  0  0  0  0  0  0  0  0  0  0
   -2.9085   20.5751  -32.4624 H   0  0  0  0  0  0  0  0  0  0  0  0
   -3.2909   19.6978  -33.9826 H   0  0  0  0  0  0  0  0  0  0  0  0
   -3.1855   21.4910  -33.9826 H   0  0  0  0  0  0  0  0  0  0  0  0
   -8.5655   19.1094  -31.6656 H   0  0  0  0  0  0  0  0  0  0  0  0
   -9.1210   19.8185  -33.2198 H   0  0  0  0  0  0  0  0  0  0  0  0
   -8.1249   18.3237  -33.2198 H   0  0  0  0  0  0  0  0  0  0  0  0
   -1.2390   26.4410  -30.1680 H   0  0  0  0  0  0  0  0  0  0  0  0
    0.1685   24.3252  -27.7352 H   0  0  0  0  0  0  0  0  0  0  0  0
    0.8166   21.9678  -27.2044 H   0  0  0  0  0  0  0  0  0  0  0  0
   -0.5416   21.9808  -25.9888 H   0  0  0  0  0  0  0  0  0  0  0  0
  1  2  1  0
  2  3  1  0
  3  4  1  0
  4  5  1  0
  5  6  2  0
  6  7  1  0
  7  8  1  0
  8  9  1  0
  9 10  2  0
  9 11  2  0
  9 12  1  0
 12 13  2  0
 13 14  1  0
 14 15  2  0
 15 16  1  0
 16 17  2  0
 16 18  1  0
 18 19  1  0
 18 20  1  0
 20 21  2  0
 20 22  1  0
 22 23  1  0
  7 24  2  0
 24 25  1  0
 24 26  1  0
 26 27  2  0
 27 28  1  0
 28  2  1  0
 27  5  1  0
 17 12  1  0
 22 15  1  0
  1 29  1  0
  1 30  1  0
  1 31  1  0
  3 32  1  0
  3 33  1  0
  4 34  1  0
  4 35  1  0
  6 36  1  0
 13 37  1  0
 14 38  1  0
 17 39  1  0
 19 40  1  0
 19 41  1  0
 19 42  1  0
 23 43  1  0
 23 44  1  0
 23 45  1  0
 25 46  1  0
 26 47  1  0
 28 48  1  0
 28 49  1  0
M  CHG  1   8  -1
M  END
>  <UniqueID>  (27) 
26

>  <SMILES>  (27) 
CN1CCc2cc([N-]S(=O)(=O)c3ccc4c(c3)n(C)c(=O)n4C)c(O)cc2C1

>  <Energy>  (27) 
100.6791679969236

>  <Genealogy>  (27) 
CN1CCc2cc([N-]S(=O)(=O)c3ccc4c(c3)n(C)c(=O)n4C)c(O)cc2C1 (protonated)
CN1CCc2cc([N-]S(=O)(=O)c3ccc4c(c3)n(C)c(=O)n4C)c(O)cc2C1 (3D coordinates assigned)
CN1CCc2cc([N-]S(=O)(=O)c3ccc4c(c3)n(C)c(=O)n4C)c(O)cc2C1 (nonaromatic ring conformer: 100.6791679969236 kcal/mol)

>  <smiles>  (27) 
CN1CCc2cc(NS(=O)(=O)c3ccc4c(c3)n(C)c(=O)n4C)c(O)cc2C1

>  <score_type>  (27) 
oracle

>  <origin>  (27) 
adgpu

>  <m_score__min__energy>  (27) 
-12.6

>  <m_primary>  (27) 
energy

$$$$
27:0
     RDKit          3D

 57 60  0  0  0  0  0  0  0  0999 V2000
   -2.8100   22.2840  -32.4660 O   0  0  0  0  0  0  0  0  0  0  0  0
   -3.1490   22.5500  -31.2800 C   0  0  0  0  0  0  0  0  0  0  0  0
   -2.2220   22.3240  -30.2060 N   0  0  0  0  0  0  0  0  0  0  0  0
   -1.1160   21.4060  -30.2810 C   0  0  0  0  0  0  0  0  0  0  0  0
   -0.6210   20.7590  -29.1350 C   0  0  0  0  0  0  0  0  0  0  0  0
    0.4700   19.8920  -29.2300 C   0  0  0  0  0  0  0  0  0  0  0  0
    1.0870   19.6720  -30.4630 C   0  0  0  0  0  0  0  0  0  0  0  0
    0.6160   20.3270  -31.6090 C   0  0  0  0  0  0  0  0  0  0  0  0
    1.3760   20.0590  -33.1770 S   0  0  0  0  0  0  0  0  0  0  0  0
    2.7860   19.5690  -32.9910 O   0  0  0  0  0  0  0  0  0  0  0  0
    1.4090   21.3670  -33.9170 O   0  0  0  0  0  0  0  0  0  0  0  0
    0.4480   18.8870  -34.0850 N   0  0  0  0  0  0  0  0  0  0  0  0
   -0.5600   19.5570  -34.9150 C   0  0  0  0  0  0  0  0  0  0  0  0
   -1.8610   19.6130  -34.1290 C   0  0  0  0  0  0  0  0  0  0  0  0
   -1.7010   18.6080  -33.0050 C   0  0  0  0  0  0  0  0  0  0  0  0
   -0.3090   18.0170  -33.1790 C   0  0  0  0  0  0  0  0  0  0  0  0
   -0.4770   21.1970  -31.5120 C   0  0  0  0  0  0  0  0  0  0  0  0
   -4.4760   23.1600  -31.0240 C   0  0  0  0  0  0  0  0  0  0  0  0
   -5.6360   22.3780  -31.1700 C   0  0  0  0  0  0  0  0  0  0  0  0
   -6.9050   22.9290  -30.9430 C   0  0  0  0  0  0  0  0  0  0  0  0
   -8.3520   21.9360  -31.1060 S   0  0  0  0  0  0  0  0  0  0  0  0
   -9.1110   21.9690  -29.8080 O   0  0  0  0  0  0  0  0  0  0  0  0
   -9.2350   22.4960  -32.1870 O   0  0  0  0  0  0  0  0  0  0  0  0
   -7.9020   20.2920  -31.4800 N   0  0  0  0  0  0  0  0  0  0  0  0
   -7.1520   20.2500  -32.7480 C   0  0  0  0  0  0  0  0  0  0  0  0
   -6.9750   18.7980  -33.2330 C   0  0  0  0  0  0  0  0  0  0  0  0
   -7.3380   17.8760  -32.2260 O   0  0  0  0  0  0  0  0  0  0  0  0
   -8.7190   18.0050  -31.9350 C   0  0  0  0  0  0  0  0  0  0  0  0
   -9.1060   19.4540  -31.5750 C   0  0  0  0  0  0  0  0  0  0  0  0
   -7.0190   24.2660  -30.5490 C   0  0  0  0  0  0  0  0  0  0  0  0
   -5.8750   25.0480  -30.3850 C   0  0  0  0  0  0  0  0  0  0  0  0
   -4.6070   24.5030  -30.6100 C   0  0  0  0  0  0  0  0  0  0  0  0
   -3.4880   25.2990  -30.3870 O   0  0  0  0  0  0  0  0  0  0  0  0
   -2.2950   22.9360  -29.3620 H   0  0  0  0  0  0  0  0  0  0  0  0
   -1.0954   20.9365  -28.1586 H   0  0  0  0  0  0  0  0  0  0  0  0
    0.8442   19.3810  -28.3307 H   0  0  0  0  0  0  0  0  0  0  0  0
    1.9428   18.9846  -30.5349 H   0  0  0  0  0  0  0  0  0  0  0  0
   -0.2261   20.5771  -35.1557 H   0  0  0  0  0  0  0  0  0  0  0  0
   -0.7070   19.0045  -35.8548 H   0  0  0  0  0  0  0  0  0  0  0  0
   -2.0207   20.6224  -33.7219 H   0  0  0  0  0  0  0  0  0  0  0  0
   -2.7299   19.3808  -34.7624 H   0  0  0  0  0  0  0  0  0  0  0  0
   -1.7869   19.1072  -32.0285 H   0  0  0  0  0  0  0  0  0  0  0  0
   -2.4798   17.8319  -33.0392 H   0  0  0  0  0  0  0  0  0  0  0  0
    0.1975   17.9638  -32.2040 H   0  0  0  0  0  0  0  0  0  0  0  0
   -0.3767   17.0013  -33.5958 H   0  0  0  0  0  0  0  0  0  0  0  0
   -0.8377   21.7212  -32.4093 H   0  0  0  0  0  0  0  0  0  0  0  0
   -5.5465   21.3223  -31.4656 H   0  0  0  0  0  0  0  0  0  0  0  0
   -7.7020   20.8203  -33.5111 H   0  0  0  0  0  0  0  0  0  0  0  0
   -6.1573   20.6898  -32.5833 H   0  0  0  0  0  0  0  0  0  0  0  0
   -7.6108   18.6343  -34.1156 H   0  0  0  0  0  0  0  0  0  0  0  0
   -5.9156   18.6409  -33.4841 H   0  0  0  0  0  0  0  0  0  0  0  0
   -9.2975   17.6926  -32.8169 H   0  0  0  0  0  0  0  0  0  0  0  0
   -8.9413   17.3701  -31.0647 H   0  0  0  0  0  0  0  0  0  0  0  0
   -9.7690   19.8574  -32.3545 H   0  0  0  0  0  0  0  0  0  0  0  0
   -9.6230   19.4569  -30.6041 H   0  0  0  0  0  0  0  0  0  0  0  0
   -8.0125   24.7021  -30.3680 H   0  0  0  0  0  0  0  0  0  0  0  0
   -5.9712   26.0996  -30.0769 H   0  0  0  0  0  0  0  0  0  0  0  0
  1  2  2  0
  2  3  1  0
  3  4  1  0
  4  5  2  0
  5  6  1  0
  6  7  2  0
  7  8  1  0
  8  9  1  0
  9 10  2  0
  9 11  2  0
  9 12  1  0
 12 13  1  0
 13 14  1  0
 14 15  1  0
 15 16  1  0
  8 17  2  0
  2 18  1  0
 18 19  2  0
 19 20  1  0
 20 21  1  0
 21 22  2  0
 21 23  2  0
 21 24  1  0
 24 25  1  0
 25 26  1  0
 26 27  1  0
 27 28  1  0
 28 29  1  0
 20 30  2  0
 30 31  1  0
 31 32  2  0
 32 33  1  0
 17  4  1  0
 32 18  1  0
 16 12  1  0
 29 24  1  0
  3 34  1  0
  5 35  1  0
  6 36  1  0
  7 37  1  0
 13 38  1  0
 13 39  1  0
 14 40  1  0
 14 41  1  0
 15 42  1  0
 15 43  1  0
 16 44  1  0
 16 45  1  0
 17 46  1  0
 19 47  1  0
 25 48  1  0
 25 49  1  0
 26 50  1  0
 26 51  1  0
 28 52  1  0
 28 53  1  0
 29 54  1  0
 29 55  1  0
 30 56  1  0
 31 57  1  0
M  CHG  1  33  -1
M  END
>  <UniqueID>  (28) 
27

>  <SMILES>  (28) 
O=C(Nc1cccc(S(=O)(=O)N2CCCC2)c1)c1cc(S(=O)(=O)N2CCOCC2)ccc1[O-]

>  <Energy>  (28) 
74.63792084028837

>  <Genealogy>  (28) 
O=C(Nc1cccc(S(=O)(=O)N2CCCC2)c1)c1cc(S(=O)(=O)N2CCOCC2)ccc1[O-] (protonated)
O=C(Nc1cccc(S(=O)(=O)N2CCCC2)c1)c1cc(S(=O)(=O)N2CCOCC2)ccc1[O-] (3D coordinates assigned)
O=C(Nc1cccc(S(=O)(=O)N2CCCC2)c1)c1cc(S(=O)(=O)N2CCOCC2)ccc1[O-] (nonaromatic ring conformer: 74.63792084028837 kcal/mol)

>  <smiles>  (28) 
O=C(Nc1cccc(S(=O)(=O)N2CCCC2)c1)c1cc(S(=O)(=O)N2CCOCC2)ccc1O

>  <score_type>  (28) 
oracle

>  <origin>  (28) 
adgpu

>  <m_score__min__energy>  (28) 
-13.41

>  <m_primary>  (28) 
energy

$$$$
28:0
     RDKit          3D

 36 38  0  0  0  0  0  0  0  0999 V2000
   -2.4730   21.0120  -27.5240 C   0  0  0  0  0  0  0  0  0  0  0  0
   -2.1710   22.4120  -27.9710 C   0  0  0  0  0  0  0  0  0  0  0  0
   -1.0080   23.0590  -27.5320 C   0  0  0  0  0  0  0  0  0  0  0  0
   -0.7050   24.3460  -27.9810 C   0  0  0  0  0  0  0  0  0  0  0  0
   -1.5520   24.9910  -28.8880 C   0  0  0  0  0  0  0  0  0  0  0  0
   -1.2350   26.2720  -29.3280 O   0  0  0  0  0  0  0  0  0  0  0  0
   -2.7070   24.3490  -29.3560 C   0  0  0  0  0  0  0  0  0  0  0  0
   -3.5410   25.0320  -30.3060 N   0  0  0  0  0  0  0  0  0  0  0  0
   -5.2710   24.9330  -30.3710 S   0  0  0  0  0  0  0  0  0  0  0  0
   -5.8220   25.0740  -28.9800 O   0  0  0  0  0  0  0  0  0  0  0  0
   -5.7950   26.0530  -31.2240 O   0  0  0  0  0  0  0  0  0  0  0  0
   -5.7610   23.3980  -31.0810 C   0  0  0  0  0  0  0  0  0  0  0  0
   -4.8190   22.5990  -31.7700 C   0  0  0  0  0  0  0  0  0  0  0  0
   -5.2080   21.3850  -32.3650 C   0  0  0  0  0  0  0  0  0  0  0  0
   -6.5440   20.9960  -32.2450 C   0  0  0  0  0  0  0  0  0  0  0  0
   -7.4580   21.7720  -31.5750 C   0  0  0  0  0  0  0  0  0  0  0  0
   -7.1030   22.9770  -30.9750 C   0  0  0  0  0  0  0  0  0  0  0  0
   -8.6830   21.1420  -31.6520 C   0  0  0  0  0  0  0  0  0  0  0  0
   -8.4390   19.9910  -32.3890 C   0  0  0  0  0  0  0  0  0  0  0  0
   -9.4090   19.0570  -32.7320 O   0  0  0  0  0  0  0  0  0  0  0  0
   -7.1360   19.8920  -32.7420 N   0  0  0  0  0  0  0  0  0  0  0  0
   -6.5230   18.8530  -33.5660 C   0  0  0  0  0  0  0  0  0  0  0  0
   -3.0120   23.0550  -28.8920 C   0  0  0  0  0  0  0  0  0  0  0  0
   -2.4817   20.9719  -26.4248 H   0  0  0  0  0  0  0  0  0  0  0  0
   -3.4573   20.7082  -27.9098 H   0  0  0  0  0  0  0  0  0  0  0  0
   -1.7014   20.3294  -27.9098 H   0  0  0  0  0  0  0  0  0  0  0  0
   -0.3305   22.5505  -26.8303 H   0  0  0  0  0  0  0  0  0  0  0  0
    0.2018   24.8537  -27.6206 H   0  0  0  0  0  0  0  0  0  0  0  0
   -3.7724   22.9299  -31.8413 H   0  0  0  0  0  0  0  0  0  0  0  0
   -4.4824   20.7615  -32.9079 H   0  0  0  0  0  0  0  0  0  0  0  0
   -7.8461   23.5821  -30.4349 H   0  0  0  0  0  0  0  0  0  0  0  0
   -9.6397   21.4770  -31.2247 H   0  0  0  0  0  0  0  0  0  0  0  0
   -6.0719   18.0884  -32.9164 H   0  0  0  0  0  0  0  0  0  0  0  0
   -7.2913   18.3877  -34.2010 H   0  0  0  0  0  0  0  0  0  0  0  0
   -5.7442   19.3005  -34.2010 H   0  0  0  0  0  0  0  0  0  0  0  0
   -3.9164   22.5443  -29.2543 H   0  0  0  0  0  0  0  0  0  0  0  0
  1  2  1  0
  2  3  2  0
  3  4  1  0
  4  5  2  0
  5  6  1  0
  5  7  1  0
  7  8  1  0
  8  9  1  0
  9 10  2  0
  9 11  2  0
  9 12  1  0
 12 13  2  0
 13 14  1  0
 14 15  2  0
 15 16  1  0
 16 17  2  0
 16 18  1  0
 18 19  2  0
 19 20  1  0
 19 21  1  0
 21 22  1  0
  7 23  2  0
 23  2  1  0
 17 12  1  0
 21 15  1  0
  1 24  1  0
  1 25  1  0
  1 26  1  0
  3 27  1  0
  4 28  1  0
 13 29  1  0
 14 30  1  0
 17 31  1  0
 18 32  1  0
 22 33  1  0
 22 34  1  0
 22 35  1  0
 23 36  1  0
M  CHG  3   6  -1   8  -1  20  -1
M  END
>  <UniqueID>  (29) 
28

>  <SMILES>  (29) 
Cc1ccc([O-])c([N-]S(=O)(=O)c2ccc3c(c2)cc([O-])n3C)c1

>  <Energy>  (29) 
74.6554370596731

>  <Genealogy>  (29) 
Cc1ccc([O-])c([N-]S(=O)(=O)c2ccc3c(c2)cc([O-])n3C)c1 (protonated)
Cc1ccc([O-])c([N-]S(=O)(=O)c2ccc3c(c2)cc([O-])n3C)c1 (3D coordinates assigned)
Cc1ccc([O-])c([N-]S(=O)(=O)c2ccc3c(c2)cc([O-])n3C)c1 (optimized conformer: 74.6554370596731 kcal/mol)

>  <smiles>  (29) 
Cc1ccc(O)c(NS(=O)(=O)c2ccc3c(c2)cc(O)n3C)c1

>  <score_type>  (29) 
oracle

>  <origin>  (29) 
adgpu

>  <m_score__min__energy>  (29) 
-13.43

>  <m_primary>  (29) 
energy

$$$$
29:0
     RDKit          3D

 49 52  0  0  0  0  0  0  0  0999 V2000
   -9.7840   19.9630  -32.6960 C   0  0  0  0  0  0  0  0  0  0  0  0
   -8.3850   19.5360  -32.3630 C   0  0  0  0  0  0  0  0  0  0  0  0
   -8.1090   18.1980  -32.0420 C   0  0  0  0  0  0  0  0  0  0  0  0
   -6.8120   17.8120  -31.6910 C   0  0  0  0  0  0  0  0  0  0  0  0
   -5.7870   18.7580  -31.6430 C   0  0  0  0  0  0  0  0  0  0  0  0
   -6.0550   20.0990  -31.9440 C   0  0  0  0  0  0  0  0  0  0  0  0
   -4.9910   21.1110  -31.8610 C   0  0  0  0  0  0  0  0  0  0  0  0
   -5.1390   22.1380  -30.9850 N   0  0  0  0  0  0  0  0  0  0  0  0
   -4.1390   23.0320  -30.7720 C   0  0  0  0  0  0  0  0  0  0  0  0
   -4.3360   24.2910  -29.5140 S   0  0  0  0  0  0  0  0  0  0  0  0
   -2.8670   23.7270  -28.6450 C   0  0  0  0  0  0  0  0  0  0  0  0
   -2.9110   22.5000  -27.9730 C   0  0  0  0  0  0  0  0  0  0  0  0
   -1.7480   21.9530  -27.4150 C   0  0  0  0  0  0  0  0  0  0  0  0
   -1.7710   20.3280  -26.7420 S   0  0  0  0  0  0  0  0  0  0  0  0
   -1.6200   20.4230  -25.2500 O   0  0  0  0  0  0  0  0  0  0  0  0
   -3.0640   19.6480  -27.0880 O   0  0  0  0  0  0  0  0  0  0  0  0
   -0.4390   19.4320  -27.4030 N   0  0  0  0  0  0  0  0  0  0  0  0
   -0.0030   19.4540  -28.7650 C   0  0  0  0  0  0  0  0  0  0  0  0
   -0.9350   19.7780  -29.7560 C   0  0  0  0  0  0  0  0  0  0  0  0
   -0.5460   19.8480  -31.0950 C   0  0  0  0  0  0  0  0  0  0  0  0
    0.7770   19.5790  -31.4550 C   0  0  0  0  0  0  0  0  0  0  0  0
    1.7120   19.2340  -30.4730 C   0  0  0  0  0  0  0  0  0  0  0  0
    1.3270   19.1710  -29.1300 C   0  0  0  0  0  0  0  0  0  0  0  0
   -0.5520   22.6820  -27.4640 C   0  0  0  0  0  0  0  0  0  0  0  0
   -0.5170   23.9360  -28.0870 C   0  0  0  0  0  0  0  0  0  0  0  0
   -1.6670   24.4540  -28.6940 C   0  0  0  0  0  0  0  0  0  0  0  0
   -1.6110   25.6770  -29.3500 O   0  0  0  0  0  0  0  0  0  0  0  0
   -2.9670   22.9170  -31.4450 N   0  0  0  0  0  0  0  0  0  0  0  0
   -2.7750   21.9220  -32.3480 C   0  0  0  0  0  0  0  0  0  0  0  0
   -1.6740   21.8440  -32.9590 O   0  0  0  0  0  0  0  0  0  0  0  0
   -3.7880   20.9780  -32.5780 C   0  0  0  0  0  0  0  0  0  0  0  0
   -3.5810   19.8760  -33.4910 C   0  0  0  0  0  0  0  0  0  0  0  0
   -3.4160   18.9890  -34.2150 N   0  0  0  0  0  0  0  0  0  0  0  0
   -7.3530   20.4850  -32.3080 C   0  0  0  0  0  0  0  0  0  0  0  0
  -10.3461   20.1346  -31.7662 H   0  0  0  0  0  0  0  0  0  0  0  0
   -9.7537   20.8928  -33.2830 H   0  0  0  0  0  0  0  0  0  0  0  0
  -10.2780   19.1747  -33.2830 H   0  0  0  0  0  0  0  0  0  0  0  0
   -8.9157   17.4506  -32.0666 H   0  0  0  0  0  0  0  0  0  0  0  0
   -6.5987   16.7597  -31.4520 H   0  0  0  0  0  0  0  0  0  0  0  0
   -4.7674   18.4498  -31.3684 H   0  0  0  0  0  0  0  0  0  0  0  0
   -3.8657   21.9612  -27.8823 H   0  0  0  0  0  0  0  0  0  0  0  0
   -1.9804   19.9788  -29.4790 H   0  0  0  0  0  0  0  0  0  0  0  0
   -1.2820   20.1153  -31.8676 H   0  0  0  0  0  0  0  0  0  0  0  0
    1.0833   19.6384  -32.5098 H   0  0  0  0  0  0  0  0  0  0  0  0
    2.7511   19.0121  -30.7576 H   0  0  0  0  0  0  0  0  0  0  0  0
    2.0633   18.9003  -28.3589 H   0  0  0  0  0  0  0  0  0  0  0  0
    0.3615   22.2683  -27.0120 H   0  0  0  0  0  0  0  0  0  0  0  0
    0.4177   24.5159  -28.0993 H   0  0  0  0  0  0  0  0  0  0  0  0
   -7.5632   21.5369  -32.5516 H   0  0  0  0  0  0  0  0  0  0  0  0
  1  2  1  0
  2  3  2  0
  3  4  1  0
  4  5  2  0
  5  6  1  0
  6  7  1  0
  7  8  1  0
  8  9  1  0
  9 10  1  0
 10 11  1  0
 11 12  2  0
 12 13  1  0
 13 14  1  0
 14 15  2  0
 14 16  2  0
 14 17  1  0
 17 18  1  0
 18 19  2  0
 19 20  1  0
 20 21  2  0
 21 22  1  0
 22 23  2  0
 13 24  2  0
 24 25  1  0
 25 26  2  0
 26 27  1  0
  9 28  2  0
 28 29  1  0
 29 30  2  0
 29 31  1  0
 31 32  1  0
 32 33  3  0
  6 34  2  0
 34  2  1  0
 31  7  2  0
 26 11  1  0
 23 18  1  0
  1 35  1  0
  1 36  1  0
  1 37  1  0
  3 38  1  0
  4 39  1  0
  5 40  1  0
 12 41  1  0
 19 42  1  0
 20 43  1  0
 21 44  1  0
 22 45  1  0
 23 46  1  0
 24 47  1  0
 25 48  1  0
 34 49  1  0
M  CHG  3   8  -1  17  -1  27  -1
M  END
>  <UniqueID>  (30) 
29

>  <SMILES>  (30) 
Cc1cccc(-c2[n-]c(Sc3cc(S(=O)(=O)[N-]c4ccccc4)ccc3[O-])nc(=O)c2C#N)c1

>  <Energy>  (30) 
59.12656543580095

>  <Genealogy>  (30) 
Cc1cccc(-c2[n-]c(Sc3cc(S(=O)(=O)[N-]c4ccccc4)ccc3[O-])nc(=O)c2C#N)c1 (protonated)
Cc1cccc(-c2[n-]c(Sc3cc(S(=O)(=O)[N-]c4ccccc4)ccc3[O-])nc(=O)c2C#N)c1 (3D coordinates assigned)
Cc1cccc(-c2[n-]c(Sc3cc(S(=O)(=O)[N-]c4ccccc4)ccc3[O-])nc(=O)c2C#N)c1 (optimized conformer: 59.12656543580095 kcal/mol)

>  <smiles>  (30) 
Cc1cccc(-c2[nH]c(Sc3cc(S(=O)(=O)Nc4ccccc4)ccc3O)nc(=O)c2C#N)c1

>  <score_type>  (30) 
oracle

>  <origin>  (30) 
adgpu

>  <m_score__min__energy>  (30) 
-13.33

>  <m_primary>  (30) 
energy

$$$$
30:0
     RDKit          3D

 42 45  0  0  0  0  0  0  0  0999 V2000
   -2.6960   20.8130  -27.8080 C   0  0  0  0  0  0  0  0  0  0  0  0
   -2.3310   22.2190  -28.1850 C   0  0  0  0  0  0  0  0  0  0  0  0
   -1.1460   22.7960  -27.7070 C   0  0  0  0  0  0  0  0  0  0  0  0
   -0.7900   24.0900  -28.0900 C   0  0  0  0  0  0  0  0  0  0  0  0
   -1.6030   24.8120  -28.9690 C   0  0  0  0  0  0  0  0  0  0  0  0
   -1.2330   26.0990  -29.3440 O   0  0  0  0  0  0  0  0  0  0  0  0
   -2.7810   24.2420  -29.4740 C   0  0  0  0  0  0  0  0  0  0  0  0
   -3.5790   25.0020  -30.3940 N   0  0  0  0  0  0  0  0  0  0  0  0
   -5.3080   25.1210  -30.3600 S   0  0  0  0  0  0  0  0  0  0  0  0
   -5.7570   25.3060  -28.9360 O   0  0  0  0  0  0  0  0  0  0  0  0
   -5.7350   26.3120  -31.1700 O   0  0  0  0  0  0  0  0  0  0  0  0
   -6.0320   23.6730  -31.0540 C   0  0  0  0  0  0  0  0  0  0  0  0
   -7.3910   23.4100  -30.8710 C   0  0  0  0  0  0  0  0  0  0  0  0
   -7.9640   22.2510  -31.3960 C   0  0  0  0  0  0  0  0  0  0  0  0
   -7.1840   21.3200  -32.1210 C   0  0  0  0  0  0  0  0  0  0  0  0
   -5.8040   21.5950  -32.3100 C   0  0  0  0  0  0  0  0  0  0  0  0
   -5.2450   22.7740  -31.7770 C   0  0  0  0  0  0  0  0  0  0  0  0
   -5.0100   20.6820  -33.0260 C   0  0  0  0  0  0  0  0  0  0  0  0
   -3.7810   20.9140  -33.1980 O   0  0  0  0  0  0  0  0  0  0  0  0
   -5.5860   19.5100  -33.5480 C   0  0  0  0  0  0  0  0  0  0  0  0
   -4.7880   18.5130  -34.3110 C   0  0  0  0  0  0  0  0  0  0  0  0
   -5.2410   17.7980  -35.3580 N   0  0  0  0  0  0  0  0  0  0  0  0
   -4.2180   17.0470  -35.7270 N   0  0  0  0  0  0  0  0  0  0  0  0
   -3.1800   17.2880  -34.9420 N   0  0  0  0  0  0  0  0  0  0  0  0
   -3.5050   18.2030  -34.0430 N   0  0  0  0  0  0  0  0  0  0  0  0
   -6.9520   19.2810  -33.3370 C   0  0  0  0  0  0  0  0  0  0  0  0
   -7.7300   20.1660  -32.6410 N   0  0  0  0  0  0  0  0  0  0  0  0
   -9.1570   19.8440  -32.4670 C   0  0  0  0  0  0  0  0  0  0  0  0
   -3.1410   22.9410  -29.0750 C   0  0  0  0  0  0  0  0  0  0  0  0
   -2.7197   20.7217  -26.7121 H   0  0  0  0  0  0  0  0  0  0  0  0
   -3.6872   20.5691  -28.2178 H   0  0  0  0  0  0  0  0  0  0  0  0
   -1.9486   20.1177  -28.2178 H   0  0  0  0  0  0  0  0  0  0  0  0
   -0.4945   22.2268  -27.0276 H   0  0  0  0  0  0  0  0  0  0  0  0
    0.1330   24.5432  -27.6992 H   0  0  0  0  0  0  0  0  0  0  0  0
   -8.0142   24.1213  -30.3091 H   0  0  0  0  0  0  0  0  0  0  0  0
   -9.0364   22.0589  -31.2440 H   0  0  0  0  0  0  0  0  0  0  0  0
   -4.1773   22.9883  -31.9322 H   0  0  0  0  0  0  0  0  0  0  0  0
   -7.4108   18.3666  -33.7411 H   0  0  0  0  0  0  0  0  0  0  0  0
   -9.3927   19.7908  -31.3939 H   0  0  0  0  0  0  0  0  0  0  0  0
   -9.7696   20.6265  -32.9386 H   0  0  0  0  0  0  0  0  0  0  0  0
   -9.3742   18.8743  -32.9386 H   0  0  0  0  0  0  0  0  0  0  0  0
   -4.0643   22.4868  -29.4638 H   0  0  0  0  0  0  0  0  0  0  0  0
  1  2  1  0
  2  3  2  0
  3  4  1  0
  4  5  2  0
  5  6  1  0
  5  7  1  0
  7  8  1  0
  8  9  1  0
  9 10  2  0
  9 11  2  0
  9 12  1  0
 12 13  2  0
 13 14  1  0
 14 15  2  0
 15 16  1  0
 16 17  2  0
 16 18  1  0
 18 19  2  0
 18 20  1  0
 20 21  1  0
 21 22  1  0
 22 23  2  0
 23 24  1  0
 24 25  1  0
 20 26  2  0
 26 27  1  0
 27 28  1  0
  7 29  2  0
 29  2  1  0
 17 12  1  0
 25 21  2  0
 27 15  1  0
  1 30  1  0
  1 31  1  0
  1 32  1  0
  3 33  1  0
  4 34  1  0
 13 35  1  0
 14 36  1  0
 17 37  1  0
 26 38  1  0
 28 39  1  0
 28 40  1  0
 28 41  1  0
 29 42  1  0
M  CHG  3   6  -1   8  -1  24  -1
M  END
>  <UniqueID>  (31) 
30

>  <SMILES>  (31) 
Cc1ccc([O-])c([N-]S(=O)(=O)c2ccc3c(c2)c(=O)c(-c2nn[n-]n2)cn3C)c1

>  <Energy>  (31) 
97.98771633332461

>  <Genealogy>  (31) 
Cc1ccc([O-])c([N-]S(=O)(=O)c2ccc3c(c2)c(=O)c(-c2nn[n-]n2)cn3C)c1 (protonated)
Cc1ccc([O-])c([N-]S(=O)(=O)c2ccc3c(c2)c(=O)c(-c2nn[n-]n2)cn3C)c1 (3D coordinates assigned)
Cc1ccc([O-])c([N-]S(=O)(=O)c2ccc3c(c2)c(=O)c(-c2nn[n-]n2)cn3C)c1 (optimized conformer: 97.98771633332461 kcal/mol)

>  <smiles>  (31) 
Cc1ccc(O)c(NS(=O)(=O)c2ccc3c(c2)c(=O)c(-c2nn[nH]n2)cn3C)c1

>  <score_type>  (31) 
oracle

>  <origin>  (31) 
adgpu

>  <m_score__min__energy>  (31) 
-14.960000000000001

>  <m_primary>  (31) 
energy

$$$$
31:0
     RDKit          3D

 47 50  0  0  0  0  0  0  0  0999 V2000
   -1.5460   24.8970  -28.3490 C   0  0  0  0  0  0  0  0  0  0  0  0
   -2.5130   25.2290  -29.3420 O   0  0  0  0  0  0  0  0  0  0  0  0
   -3.7580   24.5970  -29.4790 C   0  0  0  0  0  0  0  0  0  0  0  0
   -3.9960   23.2880  -29.0180 C   0  0  0  0  0  0  0  0  0  0  0  0
   -5.2500   22.6960  -29.1920 C   0  0  0  0  0  0  0  0  0  0  0  0
   -6.2780   23.3880  -29.8510 C   0  0  0  0  0  0  0  0  0  0  0  0
   -7.6160   22.7240  -30.0880 C   0  0  0  0  0  0  0  0  0  0  0  0
   -7.9780   22.5870  -31.5180 N   0  0  0  0  0  0  0  0  0  0  0  0
   -9.1430   21.7110  -31.8110 C   0  0  0  0  0  0  0  0  0  0  0  0
   -8.8020   20.2030  -31.9300 C   0  0  0  0  0  0  0  0  0  0  0  0
   -7.4160   19.9930  -32.4460 C   0  0  0  0  0  0  0  0  0  0  0  0
   -6.7180   18.8280  -32.6980 C   0  0  0  0  0  0  0  0  0  0  0  0
   -7.2450   17.4310  -32.6020 C   0  0  0  0  0  0  0  0  0  0  0  0
   -6.2130   16.4800  -32.9960 N   0  0  0  0  0  0  0  0  0  0  0  0
   -6.1260   15.9480  -34.2040 N   0  0  0  0  0  0  0  0  0  0  0  0
   -5.0690   15.1170  -34.1650 C   0  0  0  0  0  0  0  0  0  0  0  0
   -4.5350   15.1700  -32.8960 C   0  0  0  0  0  0  0  0  0  0  0  0
   -5.2730   16.0330  -32.1760 N   0  0  0  0  0  0  0  0  0  0  0  0
   -5.4620   19.1350  -33.0940 N   0  0  0  0  0  0  0  0  0  0  0  0
   -5.3520   20.4570  -33.0750 N   0  0  0  0  0  0  0  0  0  0  0  0
   -4.1260   21.1770  -33.3950 C   0  0  0  0  0  0  0  0  0  0  0  0
   -6.5160   20.9940  -32.6630 C   0  0  0  0  0  0  0  0  0  0  0  0
   -6.8380   22.4390  -32.4520 C   0  0  0  0  0  0  0  0  0  0  0  0
   -6.0510   24.7090  -30.2710 C   0  0  0  0  0  0  0  0  0  0  0  0
   -4.7980   25.3020  -30.0940 C   0  0  0  0  0  0  0  0  0  0  0  0
   -1.9806   25.0462  -27.3496 H   0  0  0  0  0  0  0  0  0  0  0  0
   -1.2472   23.8448  -28.4655 H   0  0  0  0  0  0  0  0  0  0  0  0
   -0.6639   25.5437  -28.4655 H   0  0  0  0  0  0  0  0  0  0  0  0
   -3.1912   22.7287  -28.5186 H   0  0  0  0  0  0  0  0  0  0  0  0
   -5.4326   21.6808  -28.8099 H   0  0  0  0  0  0  0  0  0  0  0  0
   -7.5871   21.7193  -29.6411 H   0  0  0  0  0  0  0  0  0  0  0  0
   -8.3774   23.3714  -29.6285 H   0  0  0  0  0  0  0  0  0  0  0  0
   -9.8772   21.8340  -31.0012 H   0  0  0  0  0  0  0  0  0  0  0  0
   -9.5283   22.0223  -32.7932 H   0  0  0  0  0  0  0  0  0  0  0  0
   -8.8877   19.7379  -30.9368 H   0  0  0  0  0  0  0  0  0  0  0  0
   -9.5069   19.7452  -32.6396 H   0  0  0  0  0  0  0  0  0  0  0  0
   -7.5509   17.2276  -31.5651 H   0  0  0  0  0  0  0  0  0  0  0  0
   -8.1093   17.3245  -33.2740 H   0  0  0  0  0  0  0  0  0  0  0  0
   -4.6968   14.5036  -34.9988 H   0  0  0  0  0  0  0  0  0  0  0  0
   -3.6612   14.6070  -32.5362 H   0  0  0  0  0  0  0  0  0  0  0  0
   -3.6212   21.4735  -32.4637 H   0  0  0  0  0  0  0  0  0  0  0  0
   -3.4609   20.5260  -33.9814 H   0  0  0  0  0  0  0  0  0  0  0  0
   -4.3705   22.0750  -33.9814 H   0  0  0  0  0  0  0  0  0  0  0  0
   -5.9579   22.9481  -32.0321 H   0  0  0  0  0  0  0  0  0  0  0  0
   -7.1107   22.8869  -33.4190 H   0  0  0  0  0  0  0  0  0  0  0  0
   -6.8645   25.2802  -30.7421 H   0  0  0  0  0  0  0  0  0  0  0  0
   -4.6281   26.3318  -30.4412 H   0  0  0  0  0  0  0  0  0  0  0  0
  1  2  1  0
  2  3  1  0
  3  4  2  0
  4  5  1  0
  5  6  2  0
  6  7  1  0
  7  8  1  0
  8  9  1  0
  9 10  1  0
 10 11  1  0
 11 12  1  0
 12 13  1  0
 13 14  1  0
 14 15  1  0
 15 16  2  0
 16 17  1  0
 17 18  2  0
 12 19  2  0
 19 20  1  0
 20 21  1  0
 20 22  1  0
 22 23  1  0
  6 24  1  0
 24 25  2  0
 25  3  1  0
 23  8  1  0
 22 11  2  0
 18 14  1  0
  1 26  1  0
  1 27  1  0
  1 28  1  0
  4 29  1  0
  5 30  1  0
  7 31  1  0
  7 32  1  0
  9 33  1  0
  9 34  1  0
 10 35  1  0
 10 36  1  0
 13 37  1  0
 13 38  1  0
 16 39  1  0
 17 40  1  0
 21 41  1  0
 21 42  1  0
 21 43  1  0
 23 44  1  0
 23 45  1  0
 24 46  1  0
 25 47  1  0
M  END
>  <UniqueID>  (32) 
31

>  <SMILES>  (32) 
COc1ccc(CN2CCc3c(Cn4nccn4)nn(C)c3C2)cc1

>  <Energy>  (32) 
120.12781643918562

>  <Genealogy>  (32) 
COc1ccc(CN2CCc3c(Cn4nccn4)nn(C)c3C2)cc1 (3D coordinates assigned)
COc1ccc(CN2CCc3c(Cn4nccn4)nn(C)c3C2)cc1 (nonaromatic ring conformer: 120.12781643918562 kcal/mol)

>  <smiles>  (32) 
COc1ccc(CN2CCc3c(Cn4nccn4)nn(C)c3C2)cc1

>  <score_type>  (32) 
oracle

>  <origin>  (32) 
adgpu

>  <m_score__min__energy>  (32) 
-8.7400000000000002

>  <m_primary>  (32) 
energy

$$$$
32:0
     RDKit          3D

 59 62  0  0  0  0  0  0  0  0999 V2000
   -4.1100   25.3080  -30.3860 O   0  0  0  0  0  0  0  0  0  0  0  0
   -4.3670   24.1900  -29.8600 C   0  0  0  0  0  0  0  0  0  0  0  0
   -4.0830   23.9820  -28.4660 N   0  0  0  0  0  0  0  0  0  0  0  0
   -3.1440   24.7810  -27.7300 C   0  0  0  0  0  0  0  0  0  0  0  0
   -3.2930   24.9090  -26.3410 C   0  0  0  0  0  0  0  0  0  0  0  0
   -2.4000   25.6860  -25.6000 C   0  0  0  0  0  0  0  0  0  0  0  0
   -1.3400   26.3460  -26.2360 C   0  0  0  0  0  0  0  0  0  0  0  0
   -0.2290   27.3550  -25.3030 S   0  0  0  0  0  0  0  0  0  0  0  0
   -0.7930   27.5590  -23.9250 O   0  0  0  0  0  0  0  0  0  0  0  0
   -0.1130   28.7000  -25.9630 O   0  0  0  0  0  0  0  0  0  0  0  0
    1.3650   26.6470  -25.1620 N   0  0  0  0  0  0  0  0  0  0  0  0
    1.9720   26.9220  -23.8610 C   0  0  0  0  0  0  0  0  0  0  0  0
    2.9990   25.8260  -23.6360 C   0  0  0  0  0  0  0  0  0  0  0  0
    2.5120   24.6530  -24.4750 C   0  0  0  0  0  0  0  0  0  0  0  0
    1.3350   25.1900  -25.2840 C   0  0  0  0  0  0  0  0  0  0  0  0
   -1.1580   26.1840  -27.6160 C   0  0  0  0  0  0  0  0  0  0  0  0
   -2.0440   25.4000  -28.3600 C   0  0  0  0  0  0  0  0  0  0  0  0
   -1.8080   25.2180  -29.7180 O   0  0  0  0  0  0  0  0  0  0  0  0
   -4.9890   23.1210  -30.6820 C   0  0  0  0  0  0  0  0  0  0  0  0
   -6.3740   22.8800  -30.6280 C   0  0  0  0  0  0  0  0  0  0  0  0
   -6.9470   21.8570  -31.3890 C   0  0  0  0  0  0  0  0  0  0  0  0
   -6.1460   21.0450  -32.2020 C   0  0  0  0  0  0  0  0  0  0  0  0
   -6.8620   19.7110  -33.1110 S   0  0  0  0  0  0  0  0  0  0  0  0
   -6.4280   19.7990  -34.5470 O   0  0  0  0  0  0  0  0  0  0  0  0
   -8.3600   19.8390  -33.0700 O   0  0  0  0  0  0  0  0  0  0  0  0
   -6.3860   18.1560  -32.4650 N   0  0  0  0  0  0  0  0  0  0  0  0
   -4.9240   17.9440  -32.5840 C   0  0  0  0  0  0  0  0  0  0  0  0
   -4.5590   16.4620  -32.7530 C   0  0  0  0  0  0  0  0  0  0  0  0
   -5.1820   15.9260  -34.0470 C   0  0  0  0  0  0  0  0  0  0  0  0
   -6.6640   16.3370  -34.2040 C   0  0  0  0  0  0  0  0  0  0  0  0
   -7.2380   17.0520  -32.9660 C   0  0  0  0  0  0  0  0  0  0  0  0
   -4.7660   21.2810  -32.2640 C   0  0  0  0  0  0  0  0  0  0  0  0
   -4.1910   22.3070  -31.5080 C   0  0  0  0  0  0  0  0  0  0  0  0
   -4.7080   23.3410  -27.9270 H   0  0  0  0  0  0  0  0  0  0  0  0
   -4.1201   24.3931  -25.8313 H   0  0  0  0  0  0  0  0  0  0  0  0
   -2.5293   25.7804  -24.5117 H   0  0  0  0  0  0  0  0  0  0  0  0
    2.4606   27.9075  -23.8682 H   0  0  0  0  0  0  0  0  0  0  0  0
    1.2178   26.9368  -23.0604 H   0  0  0  0  0  0  0  0  0  0  0  0
    3.9943   26.1540  -23.9705 H   0  0  0  0  0  0  0  0  0  0  0  0
    3.0958   25.5619  -22.5726 H   0  0  0  0  0  0  0  0  0  0  0  0
    3.3106   24.3021  -25.1451 H   0  0  0  0  0  0  0  0  0  0  0  0
    2.2196   23.7973  -23.8486 H   0  0  0  0  0  0  0  0  0  0  0  0
    1.4362   24.8966  -26.3393 H   0  0  0  0  0  0  0  0  0  0  0  0
    0.3832   24.7833  -24.9117 H   0  0  0  0  0  0  0  0  0  0  0  0
   -0.3120   26.6773  -28.1171 H   0  0  0  0  0  0  0  0  0  0  0  0
   -7.0111   23.5016  -29.9817 H   0  0  0  0  0  0  0  0  0  0  0  0
   -8.0333   21.6887  -31.3491 H   0  0  0  0  0  0  0  0  0  0  0  0
   -4.5565   18.5003  -33.4589 H   0  0  0  0  0  0  0  0  0  0  0  0
   -4.4567   18.3005  -31.6542 H   0  0  0  0  0  0  0  0  0  0  0  0
   -3.4651   16.3572  -32.8020 H   0  0  0  0  0  0  0  0  0  0  0  0
   -4.9445   15.8897  -31.8963 H   0  0  0  0  0  0  0  0  0  0  0  0
   -4.6138   16.3207  -34.9022 H   0  0  0  0  0  0  0  0  0  0  0  0
   -5.1418   14.8274  -34.0077 H   0  0  0  0  0  0  0  0  0  0  0  0
   -6.7480   17.0138  -35.0671 H   0  0  0  0  0  0  0  0  0  0  0  0
   -7.2434   15.4121  -34.3410 H   0  0  0  0  0  0  0  0  0  0  0  0
   -8.2225   17.4658  -33.2298 H   0  0  0  0  0  0  0  0  0  0  0  0
   -7.2979   16.3033  -32.1624 H   0  0  0  0  0  0  0  0  0  0  0  0
   -4.1322   20.6561  -32.9105 H   0  0  0  0  0  0  0  0  0  0  0  0
   -3.1058   22.4796  -31.5591 H   0  0  0  0  0  0  0  0  0  0  0  0
  1  2  2  0
  2  3  1  0
  3  4  1  0
  4  5  2  0
  5  6  1  0
  6  7  2  0
  7  8  1  0
  8  9  2  0
  8 10  2  0
  8 11  1  0
 11 12  1  0
 12 13  1  0
 13 14  1  0
 14 15  1  0
  7 16  1  0
 16 17  2  0
 17 18  1  0
  2 19  1  0
 19 20  2  0
 20 21  1  0
 21 22  2  0
 22 23  1  0
 23 24  2  0
 23 25  2  0
 23 26  1  0
 26 27  1  0
 27 28  1  0
 28 29  1  0
 29 30  1  0
 30 31  1  0
 22 32  1  0
 32 33  2  0
 17  4  1  0
 33 19  1  0
 15 11  1  0
 31 26  1  0
  3 34  1  0
  5 35  1  0
  6 36  1  0
 12 37  1  0
 12 38  1  0
 13 39  1  0
 13 40  1  0
 14 41  1  0
 14 42  1  0
 15 43  1  0
 15 44  1  0
 16 45  1  0
 20 46  1  0
 21 47  1  0
 27 48  1  0
 27 49  1  0
 28 50  1  0
 28 51  1  0
 29 52  1  0
 29 53  1  0
 30 54  1  0
 30 55  1  0
 31 56  1  0
 31 57  1  0
 32 58  1  0
 33 59  1  0
M  CHG  1  18  -1
M  END
>  <UniqueID>  (33) 
32

>  <SMILES>  (33) 
O=C(Nc1ccc(S(=O)(=O)N2CCCC2)cc1[O-])c1ccc(S(=O)(=O)N2CCCCC2)cc1

>  <Energy>  (33) 
75.69182074827202

>  <Genealogy>  (33) 
O=C(Nc1ccc(S(=O)(=O)N2CCCC2)cc1[O-])c1ccc(S(=O)(=O)N2CCCCC2)cc1 (protonated)
O=C(Nc1ccc(S(=O)(=O)N2CCCC2)cc1[O-])c1ccc(S(=O)(=O)N2CCCCC2)cc1 (3D coordinates assigned)
O=C(Nc1ccc(S(=O)(=O)N2CCCC2)cc1[O-])c1ccc(S(=O)(=O)N2CCCCC2)cc1 (nonaromatic ring conformer: 75.69182074827202 kcal/mol)

>  <smiles>  (33) 
O=C(Nc1ccc(S(=O)(=O)N2CCCC2)cc1O)c1ccc(S(=O)(=O)N2CCCCC2)cc1

>  <score_type>  (33) 
oracle

>  <origin>  (33) 
adgpu

>  <m_score__min__energy>  (33) 
-13.16

>  <m_primary>  (33) 
energy

$$$$
33:0
     RDKit          3D

 37 38  0  0  0  0  0  0  0  0999 V2000
   -9.8810   20.7580  -32.3740 C   0  0  0  0  0  0  0  0  0  0  0  0
   -9.1770   19.5990  -32.9290 N   0  0  0  0  0  0  0  0  0  0  0  0
   -8.0760   19.1760  -32.0540 C   0  0  0  0  0  0  0  0  0  0  0  0
   -6.7550   19.7030  -32.5680 C   0  0  0  0  0  0  0  0  0  0  0  0
   -5.8810   18.8010  -33.2000 C   0  0  0  0  0  0  0  0  0  0  0  0
   -4.6200   19.2150  -33.6440 C   0  0  0  0  0  0  0  0  0  0  0  0
   -3.7420   18.2870  -34.2870 N   0  0  0  0  0  0  0  0  0  0  0  0
   -4.2190   20.5400  -33.4460 C   0  0  0  0  0  0  0  0  0  0  0  0
   -5.0740   21.4470  -32.8180 C   0  0  0  0  0  0  0  0  0  0  0  0
   -6.3450   21.0460  -32.3870 C   0  0  0  0  0  0  0  0  0  0  0  0
   -7.3990   22.2780  -31.6000 S   0  0  0  0  0  0  0  0  0  0  0  0
   -6.0090   23.1890  -30.9220 C   0  0  0  0  0  0  0  0  0  0  0  0
   -5.8310   24.5420  -31.2330 C   0  0  0  0  0  0  0  0  0  0  0  0
   -4.7450   25.2450  -30.7060 C   0  0  0  0  0  0  0  0  0  0  0  0
   -3.8290   24.6030  -29.8600 C   0  0  0  0  0  0  0  0  0  0  0  0
   -2.7460   25.3100  -29.3380 O   0  0  0  0  0  0  0  0  0  0  0  0
   -4.0060   23.2440  -29.5390 C   0  0  0  0  0  0  0  0  0  0  0  0
   -3.0340   22.5490  -28.6290 C   0  0  0  0  0  0  0  0  0  0  0  0
   -5.1030   22.5450  -30.0700 C   0  0  0  0  0  0  0  0  0  0  0  0
   -9.8532   20.7123  -31.2753 H   0  0  0  0  0  0  0  0  0  0  0  0
   -9.3915   21.6822  -32.7150 H   0  0  0  0  0  0  0  0  0  0  0  0
  -10.9268   20.7496  -32.7150 H   0  0  0  0  0  0  0  0  0  0  0  0
   -8.7610   19.8980  -33.8420 H   0  0  0  0  0  0  0  0  0  0  0  0
   -8.2504   19.5648  -31.0399 H   0  0  0  0  0  0  0  0  0  0  0  0
   -8.0375   18.0768  -32.0387 H   0  0  0  0  0  0  0  0  0  0  0  0
   -6.1924   17.7563  -33.3474 H   0  0  0  0  0  0  0  0  0  0  0  0
   -3.7990   17.2650  -34.0790 H   0  0  0  0  0  0  0  0  0  0  0  0
   -3.0290   18.6150  -34.9760 H   0  0  0  0  0  0  0  0  0  0  0  0
   -3.2260   20.8686  -33.7865 H   0  0  0  0  0  0  0  0  0  0  0  0
   -4.7470   22.4854  -32.6602 H   0  0  0  0  0  0  0  0  0  0  0  0
   -6.5474   25.0525  -31.8934 H   0  0  0  0  0  0  0  0  0  0  0  0
   -4.6076   26.3074  -30.9558 H   0  0  0  0  0  0  0  0  0  0  0  0
   -2.0060   25.6630  -29.9330 H   0  0  0  0  0  0  0  0  0  0  0  0
   -3.3078   22.7448  -27.5818 H   0  0  0  0  0  0  0  0  0  0  0  0
   -3.0635   21.4660  -28.8194 H   0  0  0  0  0  0  0  0  0  0  0  0
   -2.0188   22.9272  -28.8194 H   0  0  0  0  0  0  0  0  0  0  0  0
   -5.2512   21.4853  -29.8150 H   0  0  0  0  0  0  0  0  0  0  0  0
  1  2  1  0
  2  3  1  0
  3  4  1  0
  4  5  2  0
  5  6  1  0
  6  7  1  0
  6  8  2  0
  8  9  1  0
  9 10  2  0
 10 11  1  0
 11 12  1  0
 12 13  2  0
 13 14  1  0
 14 15  2  0
 15 16  1  0
 15 17  1  0
 17 18  1  0
 17 19  2  0
 10  4  1  0
 19 12  1  0
  1 20  1  0
  1 21  1  0
  1 22  1  0
  2 23  1  0
  3 24  1  0
  3 25  1  0
  5 26  1  0
  7 27  1  0
  7 28  1  0
  8 29  1  0
  9 30  1  0
 13 31  1  0
 14 32  1  0
 16 33  1  0
 18 34  1  0
 18 35  1  0
 18 36  1  0
 19 37  1  0
M  END
>  <UniqueID>  (34) 
33

>  <SMILES>  (34) 
CNCc1cc(N)ccc1Sc1ccc(O)c(C)c1

>  <Energy>  (34) 
30.871828460904783

>  <Genealogy>  (34) 
CNCc1cc(N)ccc1Sc1ccc(O)c(C)c1 (3D coordinates assigned)
CNCc1cc(N)ccc1Sc1ccc(O)c(C)c1 (optimized conformer: 30.871828460904783 kcal/mol)

>  <smiles>  (34) 
CNCc1cc(N)ccc1Sc1ccc(O)c(C)c1

>  <score_type>  (34) 
oracle

>  <origin>  (34) 
adgpu

>  <m_score__min__energy>  (34) 
-7.7599999999999998

>  <m_primary>  (34) 
energy

$$$$
34:0
     RDKit          3D

 66 70  0  0  0  0  0  0  0  0999 V2000
   -4.8960   22.0270  -32.2600 C   0  0  0  0  0  0  0  0  0  0  0  0
   -5.7990   21.3080  -33.0970 O   0  0  0  0  0  0  0  0  0  0  0  0
   -6.9030   20.5770  -32.6280 C   0  0  0  0  0  0  0  0  0  0  0  0
   -8.0070   21.2100  -32.0210 C   0  0  0  0  0  0  0  0  0  0  0  0
   -9.0920   20.4560  -31.5690 C   0  0  0  0  0  0  0  0  0  0  0  0
   -9.0880   19.0690  -31.7070 C   0  0  0  0  0  0  0  0  0  0  0  0
   -7.9980   18.4290  -32.3030 C   0  0  0  0  0  0  0  0  0  0  0  0
   -6.9060   19.1750  -32.7800 C   0  0  0  0  0  0  0  0  0  0  0  0
   -5.7680   18.5190  -33.3710 N   0  0  0  0  0  0  0  0  0  0  0  0
   -5.7760   17.1540  -33.8160 C   0  0  0  0  0  0  0  0  0  0  0  0
   -6.8660   16.5420  -33.9940 O   0  0  0  0  0  0  0  0  0  0  0  0
   -4.4860   16.4680  -34.1380 C   0  0  0  0  0  0  0  0  0  0  0  0
   -3.4350   17.5730  -35.1380 S   0  0  0  0  0  0  0  0  0  0  0  0
   -2.5330   18.1920  -33.7170 C   0  0  0  0  0  0  0  0  0  0  0  0
   -3.0480   19.1330  -32.8850 N   0  0  0  0  0  0  0  0  0  0  0  0
   -2.0630   19.3120  -31.9880 C   0  0  0  0  0  0  0  0  0  0  0  0
   -2.0390   20.2070  -30.9230 C   0  0  0  0  0  0  0  0  0  0  0  0
   -0.8750   20.2650  -30.1320 C   0  0  0  0  0  0  0  0  0  0  0  0
   -0.7410   21.4650  -28.8510 S   0  0  0  0  0  0  0  0  0  0  0  0
    0.5150   21.2280  -28.0660 O   0  0  0  0  0  0  0  0  0  0  0  0
   -1.9130   21.3340  -27.9220 O   0  0  0  0  0  0  0  0  0  0  0  0
   -0.7160   23.0710  -29.5100 N   0  0  0  0  0  0  0  0  0  0  0  0
   -0.4960   24.2110  -28.6750 C   0  0  0  0  0  0  0  0  0  0  0  0
    0.5880   24.2420  -27.7860 C   0  0  0  0  0  0  0  0  0  0  0  0
    0.7200   25.3020  -26.8820 C   0  0  0  0  0  0  0  0  0  0  0  0
   -0.1930   26.3600  -26.8980 C   0  0  0  0  0  0  0  0  0  0  0  0
   -1.2280   26.3750  -27.8460 C   0  0  0  0  0  0  0  0  0  0  0  0
   -1.3840   25.2960  -28.7260 C   0  0  0  0  0  0  0  0  0  0  0  0
   -2.4370   25.2960  -29.6360 O   0  0  0  0  0  0  0  0  0  0  0  0
   -0.0040   27.4810  -25.9060 C   0  0  0  0  0  0  0  0  0  0  0  0
    0.3740   26.9930  -24.5490 N   0  0  0  0  0  0  0  0  0  0  0  0
   -0.7950   26.9770  -23.6540 C   0  0  0  0  0  0  0  0  0  0  0  0
    1.0940   25.6870  -24.4950 C   0  0  0  0  0  0  0  0  0  0  0  0
    1.7720   25.3090  -25.8170 C   0  0  0  0  0  0  0  0  0  0  0  0
    0.2230   19.4160  -30.4260 C   0  0  0  0  0  0  0  0  0  0  0  0
    0.1710   18.5290  -31.5160 C   0  0  0  0  0  0  0  0  0  0  0  0
   -0.9990   18.5070  -32.2770 C   0  0  0  0  0  0  0  0  0  0  0  0
   -1.2860   17.7840  -33.3680 N   0  0  0  0  0  0  0  0  0  0  0  0
   -0.4070   16.8560  -34.0820 C   0  0  0  0  0  0  0  0  0  0  0  0
   -5.1401   21.8327  -31.2052 H   0  0  0  0  0  0  0  0  0  0  0  0
   -3.8662   21.6989  -32.4645 H   0  0  0  0  0  0  0  0  0  0  0  0
   -4.9851   23.1041  -32.4645 H   0  0  0  0  0  0  0  0  0  0  0  0
   -8.0137   22.3036  -31.9029 H   0  0  0  0  0  0  0  0  0  0  0  0
   -9.9524   20.9582  -31.1026 H   0  0  0  0  0  0  0  0  0  0  0  0
   -9.9430   18.4781  -31.3467 H   0  0  0  0  0  0  0  0  0  0  0  0
   -7.9944   17.3333  -32.3997 H   0  0  0  0  0  0  0  0  0  0  0  0
   -4.8940   19.0730  -33.5220 H   0  0  0  0  0  0  0  0  0  0  0  0
   -3.9640   16.2136  -33.2037 H   0  0  0  0  0  0  0  0  0  0  0  0
   -4.6939   15.5498  -34.7069 H   0  0  0  0  0  0  0  0  0  0  0  0
   -2.9040   20.8506  -30.7051 H   0  0  0  0  0  0  0  0  0  0  0  0
    1.3340   23.4337  -27.7992 H   0  0  0  0  0  0  0  0  0  0  0  0
   -1.9153   27.2323  -27.8979 H   0  0  0  0  0  0  0  0  0  0  0  0
    0.7908   28.1462  -26.2744 H   0  0  0  0  0  0  0  0  0  0  0  0
   -0.9655   28.0071  -25.8131 H   0  0  0  0  0  0  0  0  0  0  0  0
   -0.4558   26.9816  -22.6076 H   0  0  0  0  0  0  0  0  0  0  0  0
   -1.4136   27.8668  -23.8429 H   0  0  0  0  0  0  0  0  0  0  0  0
   -1.3890   26.0706  -23.8429 H   0  0  0  0  0  0  0  0  0  0  0  0
    1.8649   25.7462  -23.7125 H   0  0  0  0  0  0  0  0  0  0  0  0
    0.3434   24.9116  -24.2823 H   0  0  0  0  0  0  0  0  0  0  0  0
    2.5498   26.0467  -26.0635 H   0  0  0  0  0  0  0  0  0  0  0  0
    2.2466   24.3199  -25.7376 H   0  0  0  0  0  0  0  0  0  0  0  0
    1.1235   19.4519  -29.7953 H   0  0  0  0  0  0  0  0  0  0  0  0
    1.0218   17.8759  -31.7602 H   0  0  0  0  0  0  0  0  0  0  0  0
    0.1609   16.2564  -33.3554 H   0  0  0  0  0  0  0  0  0  0  0  0
   -1.0128   16.1896  -34.7135 H   0  0  0  0  0  0  0  0  0  0  0  0
    0.2913   17.4248  -34.7135 H   0  0  0  0  0  0  0  0  0  0  0  0
  1  2  1  0
  2  3  1  0
  3  4  2  0
  4  5  1  0
  5  6  2  0
  6  7  1  0
  7  8  2  0
  8  9  1  0
  9 10  1  0
 10 11  2  0
 10 12  1  0
 12 13  1  0
 13 14  1  0
 14 15  2  0
 15 16  1  0
 16 17  2  0
 17 18  1  0
 18 19  1  0
 19 20  2  0
 19 21  2  0
 19 22  1  0
 22 23  1  0
 23 24  2  0
 24 25  1  0
 25 26  2  0
 26 27  1  0
 27 28  2  0
 28 29  1  0
 26 30  1  0
 30 31  1  0
 31 32  1  0
 31 33  1  0
 33 34  1  0
 18 35  2  0
 35 36  1  0
 36 37  2  0
 37 38  1  0
 38 39  1  0
  8  3  1  0
 38 14  1  0
 37 16  1  0
 28 23  1  0
 34 25  1  0
  1 40  1  0
  1 41  1  0
  1 42  1  0
  4 43  1  0
  5 44  1  0
  6 45  1  0
  7 46  1  0
  9 47  1  0
 12 48  1  0
 12 49  1  0
 17 50  1  0
 24 51  1  0
 27 52  1  0
 30 53  1  0
 30 54  1  0
 32 55  1  0
 32 56  1  0
 32 57  1  0
 33 58  1  0
 33 59  1  0
 34 60  1  0
 34 61  1  0
 35 62  1  0
 36 63  1  0
 39 64  1  0
 39 65  1  0
 39 66  1  0
M  CHG  2  22  -1  29  -1
M  END
>  <UniqueID>  (35) 
34

>  <SMILES>  (35) 
COc1ccccc1NC(=O)CSc1nc2cc(S(=O)(=O)[N-]c3cc4c(cc3[O-])CN(C)CC4)ccc2n1C

>  <Energy>  (35) 
125.8630845210501

>  <Genealogy>  (35) 
COc1ccccc1NC(=O)CSc1nc2cc(S(=O)(=O)[N-]c3cc4c(cc3[O-])CN(C)CC4)ccc2n1C (protonated)
COc1ccccc1NC(=O)CSc1nc2cc(S(=O)(=O)[N-]c3cc4c(cc3[O-])CN(C)CC4)ccc2n1C (3D coordinates assigned)
COc1ccccc1NC(=O)CSc1nc2cc(S(=O)(=O)[N-]c3cc4c(cc3[O-])CN(C)CC4)ccc2n1C (nonaromatic ring conformer: 125.8630845210501 kcal/mol)

>  <smiles>  (35) 
COc1ccccc1NC(=O)CSc1nc2cc(S(=O)(=O)Nc3cc4c(cc3O)CN(C)CC4)ccc2n1C

>  <score_type>  (35) 
oracle

>  <origin>  (35) 
adgpu

>  <m_score__min__energy>  (35) 
-15.02

>  <m_primary>  (35) 
energy

$$$$
35:0
     RDKit          3D

 51 53  0  0  0  0  0  0  0  0999 V2000
   -1.2190   21.9770  -26.3310 C   0  0  0  0  0  0  0  0  0  0  0  0
   -1.7830   22.8510  -27.4190 C   0  0  0  0  0  0  0  0  0  0  0  0
   -2.9980   22.4620  -28.0060 C   0  0  0  0  0  0  0  0  0  0  0  0
   -3.5980   23.2350  -28.9950 C   0  0  0  0  0  0  0  0  0  0  0  0
   -2.9930   24.4210  -29.4260 C   0  0  0  0  0  0  0  0  0  0  0  0
   -3.5900   25.2550  -30.4300 N   0  0  0  0  0  0  0  0  0  0  0  0
   -4.9590   25.2600  -30.8590 C   0  0  0  0  0  0  0  0  0  0  0  0
   -5.8140   25.9760  -30.2740 O   0  0  0  0  0  0  0  0  0  0  0  0
   -5.3740   24.4470  -31.9620 N   0  0  0  0  0  0  0  0  0  0  0  0
   -5.5810   23.0270  -31.9300 C   0  0  0  0  0  0  0  0  0  0  0  0
   -6.8730   22.4720  -31.8740 C   0  0  0  0  0  0  0  0  0  0  0  0
   -7.0480   21.0820  -31.8540 C   0  0  0  0  0  0  0  0  0  0  0  0
   -8.6680   20.4000  -31.7440 S   0  0  0  0  0  0  0  0  0  0  0  0
   -8.5570   18.7030  -31.2250 C   0  0  0  0  0  0  0  0  0  0  0  0
   -9.3470   20.4720  -33.0820 O   0  0  0  0  0  0  0  0  0  0  0  0
   -9.4800   21.1790  -30.7470 O   0  0  0  0  0  0  0  0  0  0  0  0
   -5.9280   20.2410  -31.9020 C   0  0  0  0  0  0  0  0  0  0  0  0
   -4.6450   20.7860  -31.9920 C   0  0  0  0  0  0  0  0  0  0  0  0
   -4.4700   22.1730  -32.0130 C   0  0  0  0  0  0  0  0  0  0  0  0
   -3.1870   22.7010  -32.1050 O   0  0  0  0  0  0  0  0  0  0  0  0
   -1.8000   24.8440  -28.8270 C   0  0  0  0  0  0  0  0  0  0  0  0
   -1.2360   26.0450  -29.2500 O   0  0  0  0  0  0  0  0  0  0  0  0
   -1.1670   24.0660  -27.8280 C   0  0  0  0  0  0  0  0  0  0  0  0
    0.3650   24.6670  -27.1190 S   0  0  0  0  0  0  0  0  0  0  0  0
    0.9220   23.6020  -26.2170 O   0  0  0  0  0  0  0  0  0  0  0  0
    1.3920   24.8940  -28.1930 O   0  0  0  0  0  0  0  0  0  0  0  0
    0.1680   26.1280  -26.1680 N   0  0  0  0  0  0  0  0  0  0  0  0
    0.6880   25.9610  -24.7970 C   0  0  0  0  0  0  0  0  0  0  0  0
    0.0980   27.0270  -23.8600 C   0  0  0  0  0  0  0  0  0  0  0  0
   -1.3210   26.9710  -23.7530 O   0  0  0  0  0  0  0  0  0  0  0  0
   -1.9600   26.4080  -24.8930 C   0  0  0  0  0  0  0  0  0  0  0  0
   -1.2050   26.6740  -26.2060 C   0  0  0  0  0  0  0  0  0  0  0  0
   -1.4881   22.3940  -25.3493 H   0  0  0  0  0  0  0  0  0  0  0  0
   -1.6330   20.9622  -26.4243 H   0  0  0  0  0  0  0  0  0  0  0  0
   -0.1237   21.9362  -26.4243 H   0  0  0  0  0  0  0  0  0  0  0  0
   -3.4833   21.5308  -27.6785 H   0  0  0  0  0  0  0  0  0  0  0  0
   -4.5511   22.9128  -29.4397 H   0  0  0  0  0  0  0  0  0  0  0  0
   -7.7512   23.1338  -31.8457 H   0  0  0  0  0  0  0  0  0  0  0  0
   -8.5539   18.6551  -30.1260 H   0  0  0  0  0  0  0  0  0  0  0  0
   -9.4205   18.1434  -31.6139 H   0  0  0  0  0  0  0  0  0  0  0  0
   -7.6280   18.2606  -31.6139 H   0  0  0  0  0  0  0  0  0  0  0  0
   -6.0595   19.1494  -31.8687 H   0  0  0  0  0  0  0  0  0  0  0  0
   -3.7697   20.1220  -32.0465 H   0  0  0  0  0  0  0  0  0  0  0  0
    0.4143   24.9623  -24.4259 H   0  0  0  0  0  0  0  0  0  0  0  0
    1.7821   26.0734  -24.8170 H   0  0  0  0  0  0  0  0  0  0  0  0
    0.5280   26.8850  -22.8575 H   0  0  0  0  0  0  0  0  0  0  0  0
    0.3502   28.0080  -24.2889 H   0  0  0  0  0  0  0  0  0  0  0  0
   -2.0370   25.3202  -24.7486 H   0  0  0  0  0  0  0  0  0  0  0  0
   -2.9472   26.8849  -24.9822 H   0  0  0  0  0  0  0  0  0  0  0  0
   -1.7535   26.2019  -27.0344 H   0  0  0  0  0  0  0  0  0  0  0  0
   -1.1370   27.7627  -26.3477 H   0  0  0  0  0  0  0  0  0  0  0  0
  1  2  1  0
  2  3  2  0
  3  4  1  0
  4  5  2  0
  5  6  1  0
  6  7  1  0
  7  8  2  0
  7  9  1  0
  9 10  1  0
 10 11  2  0
 11 12  1  0
 12 13  1  0
 13 14  1  0
 13 15  2  0
 13 16  2  0
 12 17  2  0
 17 18  1  0
 18 19  2  0
 19 20  1  0
  5 21  1  0
 21 22  1  0
 21 23  2  0
 23 24  1  0
 24 25  2  0
 24 26  2  0
 24 27  1  0
 27 28  1  0
 28 29  1  0
 29 30  1  0
 30 31  1  0
 31 32  1  0
 23  2  1  0
 32 27  1  0
 19 10  1  0
  1 33  1  0
  1 34  1  0
  1 35  1  0
  3 36  1  0
  4 37  1  0
 11 38  1  0
 14 39  1  0
 14 40  1  0
 14 41  1  0
 17 42  1  0
 18 43  1  0
 28 44  1  0
 28 45  1  0
 29 46  1  0
 29 47  1  0
 31 48  1  0
 31 49  1  0
 32 50  1  0
 32 51  1  0
M  CHG  4   6  -1   9  -1  20  -1  22  -1
M  END
>  <UniqueID>  (36) 
35

>  <SMILES>  (36) 
Cc1ccc([N-]C(=O)[N-]c2cc(S(C)(=O)=O)ccc2[O-])c([O-])c1S(=O)(=O)N1CCOCC1

>  <Energy>  (36) 
75.47963053873926

>  <Genealogy>  (36) 
Cc1ccc([N-]C(=O)[N-]c2cc(S(C)(=O)=O)ccc2[O-])c([O-])c1S(=O)(=O)N1CCOCC1 (protonated)
Cc1ccc([N-]C(=O)[N-]c2cc(S(C)(=O)=O)ccc2[O-])c([O-])c1S(=O)(=O)N1CCOCC1 (3D coordinates assigned)
Cc1ccc([N-]C(=O)[N-]c2cc(S(C)(=O)=O)ccc2[O-])c([O-])c1S(=O)(=O)N1CCOCC1 (nonaromatic ring conformer: 75.47963053873926 kcal/mol)

>  <smiles>  (36) 
Cc1ccc(NC(=O)Nc2cc(S(C)(=O)=O)ccc2O)c(O)c1S(=O)(=O)N1CCOCC1

>  <score_type>  (36) 
oracle

>  <origin>  (36) 
adgpu

>  <m_score__min__energy>  (36) 
-15.84

>  <m_primary>  (36) 
energy

$$$$
36:0
     RDKit          3D

 73 77  0  0  0  0  0  0  0  0999 V2000
   -0.4480   18.3360  -27.8550 C   0  0  0  0  0  0  0  0  0  0  0  0
    0.8200   17.8800  -28.3120 O   0  0  0  0  0  0  0  0  0  0  0  0
    1.3220   16.6090  -28.0100 C   0  0  0  0  0  0  0  0  0  0  0  0
    1.6260   16.2760  -26.7230 N   0  0  0  0  0  0  0  0  0  0  0  0
    2.0980   15.0450  -26.3880 C   0  0  0  0  0  0  0  0  0  0  0  0
    2.2860   14.0770  -27.3720 C   0  0  0  0  0  0  0  0  0  0  0  0
    1.9890   14.3880  -28.6990 C   0  0  0  0  0  0  0  0  0  0  0  0
    1.5030   15.6620  -29.0350 C   0  0  0  0  0  0  0  0  0  0  0  0
    1.1990   15.9790  -30.4060 N   0  0  0  0  0  0  0  0  0  0  0  0
    0.2150   15.1510  -31.1330 C   0  0  0  0  0  0  0  0  0  0  0  0
   -0.1730   15.7540  -32.5000 C   0  0  0  0  0  0  0  0  0  0  0  0
   -0.3450   17.2460  -32.3930 C   0  0  0  0  0  0  0  0  0  0  0  0
   -1.3910   17.9140  -33.0480 C   0  0  0  0  0  0  0  0  0  0  0  0
   -1.5350   19.3030  -32.9140 C   0  0  0  0  0  0  0  0  0  0  0  0
   -2.6050   19.9750  -33.5960 N   0  0  0  0  0  0  0  0  0  0  0  0
   -3.9220   19.4240  -33.7000 C   0  0  0  0  0  0  0  0  0  0  0  0
   -4.0840   18.1730  -33.7210 O   0  0  0  0  0  0  0  0  0  0  0  0
   -5.0470   20.3010  -33.8430 N   0  0  0  0  0  0  0  0  0  0  0  0
   -5.5150   21.2220  -32.8460 C   0  0  0  0  0  0  0  0  0  0  0  0
   -6.8880   21.2960  -32.6070 C   0  0  0  0  0  0  0  0  0  0  0  0
   -7.3950   22.1840  -31.6610 C   0  0  0  0  0  0  0  0  0  0  0  0
   -6.5400   23.0260  -30.9310 C   0  0  0  0  0  0  0  0  0  0  0  0
   -7.1500   23.9410  -29.9000 C   0  0  0  0  0  0  0  0  0  0  0  0
   -5.1400   22.9610  -31.1560 C   0  0  0  0  0  0  0  0  0  0  0  0
   -3.9930   23.9440  -30.2090 S   0  0  0  0  0  0  0  0  0  0  0  0
   -3.8530   25.3030  -30.8400 O   0  0  0  0  0  0  0  0  0  0  0  0
   -4.5290   24.1510  -28.8200 O   0  0  0  0  0  0  0  0  0  0  0  0
   -2.3690   23.1720  -30.1140 C   0  0  0  0  0  0  0  0  0  0  0  0
   -1.4850   23.9300  -29.0940 C   0  0  0  0  0  0  0  0  0  0  0  0
   -0.4270   23.0040  -28.4790 C   0  0  0  0  0  0  0  0  0  0  0  0
   -1.0300   21.8620  -27.7450 N   0  0  0  0  0  0  0  0  0  0  0  0
   -1.1280   22.1430  -26.3030 C   0  0  0  0  0  0  0  0  0  0  0  0
   -2.3460   21.4200  -28.2750 C   0  0  0  0  0  0  0  0  0  0  0  0
   -2.4690   21.6660  -29.7840 C   0  0  0  0  0  0  0  0  0  0  0  0
   -4.6440   22.0900  -32.1560 C   0  0  0  0  0  0  0  0  0  0  0  0
   -3.2950   22.1180  -32.4910 O   0  0  0  0  0  0  0  0  0  0  0  0
   -0.5920   20.0230  -32.1590 C   0  0  0  0  0  0  0  0  0  0  0  0
    0.4710   19.3640  -31.5370 C   0  0  0  0  0  0  0  0  0  0  0  0
    0.5920   17.9740  -31.6470 C   0  0  0  0  0  0  0  0  0  0  0  0
    1.7180   17.2260  -30.9920 C   0  0  0  0  0  0  0  0  0  0  0  0
   -0.4613   18.3408  -26.7551 H   0  0  0  0  0  0  0  0  0  0  0  0
   -0.6275   19.3550  -28.2283 H   0  0  0  0  0  0  0  0  0  0  0  0
   -1.2354   17.6647  -28.2283 H   0  0  0  0  0  0  0  0  0  0  0  0
    2.3316   14.8135  -25.3383 H   0  0  0  0  0  0  0  0  0  0  0  0
    2.6643   13.0790  -27.1057 H   0  0  0  0  0  0  0  0  0  0  0  0
    2.1360   13.6327  -29.4850 H   0  0  0  0  0  0  0  0  0  0  0  0
    0.6475   14.1532  -31.2980 H   0  0  0  0  0  0  0  0  0  0  0  0
   -0.6968   15.1014  -30.5197 H   0  0  0  0  0  0  0  0  0  0  0  0
    0.6194   15.5332  -33.2303 H   0  0  0  0  0  0  0  0  0  0  0  0
   -1.1255   15.3102  -32.8252 H   0  0  0  0  0  0  0  0  0  0  0  0
   -2.1003   17.3466  -33.6685 H   0  0  0  0  0  0  0  0  0  0  0  0
   -2.4150   20.8950  -34.0540 H   0  0  0  0  0  0  0  0  0  0  0  0
   -7.5755   20.6478  -33.1702 H   0  0  0  0  0  0  0  0  0  0  0  0
   -8.4797   22.2264  -31.4833 H   0  0  0  0  0  0  0  0  0  0  0  0
   -6.9049   23.5734  -28.8926 H   0  0  0  0  0  0  0  0  0  0  0  0
   -6.7478   24.9569  -30.0275 H   0  0  0  0  0  0  0  0  0  0  0  0
   -8.2424   23.9605  -30.0275 H   0  0  0  0  0  0  0  0  0  0  0  0
   -1.8919   23.2400  -31.1028 H   0  0  0  0  0  0  0  0  0  0  0  0
   -0.9794   24.7619  -29.6062 H   0  0  0  0  0  0  0  0  0  0  0  0
   -2.1301   24.3059  -28.2862 H   0  0  0  0  0  0  0  0  0  0  0  0
    0.2084   22.6093  -29.2855 H   0  0  0  0  0  0  0  0  0  0  0  0
    0.1566   23.5949  -27.7578 H   0  0  0  0  0  0  0  0  0  0  0  0
   -0.8179   21.2539  -25.7343 H   0  0  0  0  0  0  0  0  0  0  0  0
   -0.4716   22.9883  -26.0487 H   0  0  0  0  0  0  0  0  0  0  0  0
   -2.1677   22.3967  -26.0487 H   0  0  0  0  0  0  0  0  0  0  0  0
   -2.4644   20.3440  -28.0797 H   0  0  0  0  0  0  0  0  0  0  0  0
   -3.1295   22.0043  -27.7702 H   0  0  0  0  0  0  0  0  0  0  0  0
   -1.6597   21.1306  -30.3021 H   0  0  0  0  0  0  0  0  0  0  0  0
   -3.4513   21.3005  -30.1178 H   0  0  0  0  0  0  0  0  0  0  0  0
   -0.6923   21.1137  -32.0575 H   0  0  0  0  0  0  0  0  0  0  0  0
    1.2125   19.9371  -30.9611 H   0  0  0  0  0  0  0  0  0  0  0  0
    2.4860   16.9873  -31.7425 H   0  0  0  0  0  0  0  0  0  0  0  0
    2.1618   17.8478  -30.2006 H   0  0  0  0  0  0  0  0  0  0  0  0
  1  2  1  0
  2  3  1  0
  3  4  2  0
  4  5  1  0
  5  6  2  0
  6  7  1  0
  7  8  2  0
  8  9  1  0
  9 10  1  0
 10 11  1  0
 11 12  1  0
 12 13  2  0
 13 14  1  0
 14 15  1  0
 15 16  1  0
 16 17  2  0
 16 18  1  0
 18 19  1  0
 19 20  2  0
 20 21  1  0
 21 22  2  0
 22 23  1  0
 22 24  1  0
 24 25  1  0
 25 26  2  0
 25 27  2  0
 25 28  1  0
 28 29  1  0
 29 30  1  0
 30 31  1  0
 31 32  1  0
 31 33  1  0
 33 34  1  0
 24 35  2  0
 35 36  1  0
 14 37  2  0
 37 38  1  0
 38 39  2  0
 39 40  1  0
  8  3  1  0
 40  9  1  0
 39 12  1  0
 35 19  1  0
 34 28  1  0
  1 41  1  0
  1 42  1  0
  1 43  1  0
  5 44  1  0
  6 45  1  0
  7 46  1  0
 10 47  1  0
 10 48  1  0
 11 49  1  0
 11 50  1  0
 13 51  1  0
 15 52  1  0
 20 53  1  0
 21 54  1  0
 23 55  1  0
 23 56  1  0
 23 57  1  0
 28 58  1  0
 29 59  1  0
 29 60  1  0
 30 61  1  0
 30 62  1  0
 32 63  1  0
 32 64  1  0
 32 65  1  0
 33 66  1  0
 33 67  1  0
 34 68  1  0
 34 69  1  0
 37 70  1  0
 38 71  1  0
 40 72  1  0
 40 73  1  0
M  CHG  2  18  -1  36  -1
M  END
>  <UniqueID>  (37) 
36

>  <SMILES>  (37) 
COc1ncccc1N1CCc2cc(NC(=O)[N-]c3ccc(C)c(S(=O)(=O)C4CCN(C)CC4)c3[O-])ccc2C1

>  <Energy>  (37) 
102.9130042693965

>  <Genealogy>  (37) 
COc1ncccc1N1CCc2cc(NC(=O)[N-]c3ccc(C)c(S(=O)(=O)C4CCN(C)CC4)c3[O-])ccc2C1 (protonated)
COc1ncccc1N1CCc2cc(NC(=O)[N-]c3ccc(C)c(S(=O)(=O)C4CCN(C)CC4)c3[O-])ccc2C1 (3D coordinates assigned)
COc1ncccc1N1CCc2cc(NC(=O)[N-]c3ccc(C)c(S(=O)(=O)C4CCN(C)CC4)c3[O-])ccc2C1 (nonaromatic ring conformer: 102.9130042693965 kcal/mol)

>  <smiles>  (37) 
COc1ncccc1N1CCc2cc(NC(=O)Nc3ccc(C)c(S(=O)(=O)C4CCN(C)CC4)c3O)ccc2C1

>  <score_type>  (37) 
oracle

>  <origin>  (37) 
adgpu

>  <m_score__min__energy>  (37) 
-14.220000000000001

>  <m_primary>  (37) 
energy

$$$$
37:0
     RDKit          3D

 58 61  0  0  0  0  0  0  0  0999 V2000
   -5.6420   26.1350  -30.0910 O   0  0  0  0  0  0  0  0  0  0  0  0
   -4.9070   25.1600  -30.3940 C   0  0  0  0  0  0  0  0  0  0  0  0
   -3.4890   25.2910  -30.2240 N   0  0  0  0  0  0  0  0  0  0  0  0
   -2.6550   24.4640  -29.3980 C   0  0  0  0  0  0  0  0  0  0  0  0
   -2.8900   23.0840  -29.2650 C   0  0  0  0  0  0  0  0  0  0  0  0
   -2.0470   22.2900  -28.4760 C   0  0  0  0  0  0  0  0  0  0  0  0
   -2.3570   20.5600  -28.3050 S   0  0  0  0  0  0  0  0  0  0  0  0
   -3.1860   20.0940  -29.4710 O   0  0  0  0  0  0  0  0  0  0  0  0
   -3.1480   20.3230  -27.0490 O   0  0  0  0  0  0  0  0  0  0  0  0
   -0.8790   19.6330  -28.2270 N   0  0  0  0  0  0  0  0  0  0  0  0
   -1.0520   18.4530  -27.3630 C   0  0  0  0  0  0  0  0  0  0  0  0
    0.1730   17.5190  -27.4620 C   0  0  0  0  0  0  0  0  0  0  0  0
    1.2410   18.1490  -28.1430 O   0  0  0  0  0  0  0  0  0  0  0  0
    0.8640   18.4160  -29.4840 C   0  0  0  0  0  0  0  0  0  0  0  0
   -0.4520   19.2220  -29.5710 C   0  0  0  0  0  0  0  0  0  0  0  0
   -0.9530   22.8760  -27.8290 C   0  0  0  0  0  0  0  0  0  0  0  0
   -0.7040   24.2430  -27.9690 C   0  0  0  0  0  0  0  0  0  0  0  0
   -1.5480   25.0380  -28.7560 C   0  0  0  0  0  0  0  0  0  0  0  0
   -1.2930   26.4010  -28.8980 O   0  0  0  0  0  0  0  0  0  0  0  0
   -5.5280   23.9020  -30.8700 C   0  0  0  0  0  0  0  0  0  0  0  0
   -6.7730   23.4810  -30.3740 C   0  0  0  0  0  0  0  0  0  0  0  0
   -7.3440   22.2860  -30.8170 C   0  0  0  0  0  0  0  0  0  0  0  0
   -6.6830   21.4970  -31.7650 C   0  0  0  0  0  0  0  0  0  0  0  0
   -7.4200   19.9960  -32.3170 S   0  0  0  0  0  0  0  0  0  0  0  0
   -8.7640   19.8200  -31.6640 O   0  0  0  0  0  0  0  0  0  0  0  0
   -7.6190   20.0830  -33.8040 O   0  0  0  0  0  0  0  0  0  0  0  0
   -6.3580   18.6590  -31.9220 N   0  0  0  0  0  0  0  0  0  0  0  0
   -6.9390   17.3560  -32.3150 C   0  0  0  0  0  0  0  0  0  0  0  0
   -6.4230   16.8580  -33.6810 C   0  0  0  0  0  0  0  0  0  0  0  0
   -6.0970   17.9490  -34.5140 O   0  0  0  0  0  0  0  0  0  0  0  0
   -4.9620   18.6290  -34.0070 C   0  0  0  0  0  0  0  0  0  0  0  0
   -5.0070   18.8510  -32.4750 C   0  0  0  0  0  0  0  0  0  0  0  0
   -5.4520   21.9220  -32.2810 C   0  0  0  0  0  0  0  0  0  0  0  0
   -4.8800   23.1170  -31.8390 C   0  0  0  0  0  0  0  0  0  0  0  0
   -3.7431   22.6237  -29.7849 H   0  0  0  0  0  0  0  0  0  0  0  0
   -1.1708   18.7833  -26.3205 H   0  0  0  0  0  0  0  0  0  0  0  0
   -1.9446   17.9013  -27.6930 H   0  0  0  0  0  0  0  0  0  0  0  0
    0.5027   17.2503  -26.4475 H   0  0  0  0  0  0  0  0  0  0  0  0
   -0.1181   16.6200  -28.0251 H   0  0  0  0  0  0  0  0  0  0  0  0
    1.6653   18.9926  -29.9692 H   0  0  0  0  0  0  0  0  0  0  0  0
    0.7033   17.4516  -29.9881 H   0  0  0  0  0  0  0  0  0  0  0  0
   -0.2913   20.1160  -30.1915 H   0  0  0  0  0  0  0  0  0  0  0  0
   -1.2328   18.5911  -30.0208 H   0  0  0  0  0  0  0  0  0  0  0  0
   -0.2874   22.2580  -27.2084 H   0  0  0  0  0  0  0  0  0  0  0  0
    0.1583   24.6976  -27.4593 H   0  0  0  0  0  0  0  0  0  0  0  0
   -2.0460   27.0740  -28.9700 H   0  0  0  0  0  0  0  0  0  0  0  0
   -7.3018   24.0968  -29.6316 H   0  0  0  0  0  0  0  0  0  0  0  0
   -8.3175   21.9636  -30.4190 H   0  0  0  0  0  0  0  0  0  0  0  0
   -6.6802   16.6105  -31.5487 H   0  0  0  0  0  0  0  0  0  0  0  0
   -8.0271   17.4917  -32.4019 H   0  0  0  0  0  0  0  0  0  0  0  0
   -5.5260   16.2404  -33.5258 H   0  0  0  0  0  0  0  0  0  0  0  0
   -7.2130   16.2648  -34.1648 H   0  0  0  0  0  0  0  0  0  0  0  0
   -4.0661   18.0375  -34.2468 H   0  0  0  0  0  0  0  0  0  0  0  0
   -4.9442   19.6233  -34.4772 H   0  0  0  0  0  0  0  0  0  0  0  0
   -4.3230   18.1365  -31.9938 H   0  0  0  0  0  0  0  0  0  0  0  0
   -4.7068   19.8905  -32.2766 H   0  0  0  0  0  0  0  0  0  0  0  0
   -4.9343   21.3128  -33.0365 H   0  0  0  0  0  0  0  0  0  0  0  0
   -3.9152   23.4462  -32.2523 H   0  0  0  0  0  0  0  0  0  0  0  0
  1  2  2  0
  2  3  1  0
  3  4  1  0
  4  5  2  0
  5  6  1  0
  6  7  1  0
  7  8  2  0
  7  9  2  0
  7 10  1  0
 10 11  1  0
 11 12  1  0
 12 13  1  0
 13 14  1  0
 14 15  1  0
  6 16  2  0
 16 17  1  0
 17 18  2  0
 18 19  1  0
  2 20  1  0
 20 21  2  0
 21 22  1  0
 22 23  2  0
 23 24  1  0
 24 25  2  0
 24 26  2  0
 24 27  1  0
 27 28  1  0
 28 29  1  0
 29 30  1  0
 30 31  1  0
 31 32  1  0
 23 33  1  0
 33 34  2  0
 18  4  1  0
 34 20  1  0
 15 10  1  0
 32 27  1  0
  5 35  1  0
 11 36  1  0
 11 37  1  0
 12 38  1  0
 12 39  1  0
 14 40  1  0
 14 41  1  0
 15 42  1  0
 15 43  1  0
 16 44  1  0
 17 45  1  0
 19 46  1  0
 21 47  1  0
 22 48  1  0
 28 49  1  0
 28 50  1  0
 29 51  1  0
 29 52  1  0
 31 53  1  0
 31 54  1  0
 32 55  1  0
 32 56  1  0
 33 57  1  0
 34 58  1  0
M  CHG  1   3  -1
M  END
>  <UniqueID>  (38) 
37

>  <SMILES>  (38) 
O=C([N-]c1cc(S(=O)(=O)N2CCOCC2)ccc1O)c1ccc(S(=O)(=O)N2CCOCC2)cc1

>  <Energy>  (38) 
84.41670930175522

>  <Genealogy>  (38) 
O=C([N-]c1cc(S(=O)(=O)N2CCOCC2)ccc1O)c1ccc(S(=O)(=O)N2CCOCC2)cc1 (protonated)
O=C([N-]c1cc(S(=O)(=O)N2CCOCC2)ccc1O)c1ccc(S(=O)(=O)N2CCOCC2)cc1 (3D coordinates assigned)
O=C([N-]c1cc(S(=O)(=O)N2CCOCC2)ccc1O)c1ccc(S(=O)(=O)N2CCOCC2)cc1 (nonaromatic ring conformer: 84.41670930175522 kcal/mol)

>  <smiles>  (38) 
O=C(Nc1cc(S(=O)(=O)N2CCOCC2)ccc1O)c1ccc(S(=O)(=O)N2CCOCC2)cc1

>  <score_type>  (38) 
oracle

>  <origin>  (38) 
adgpu

>  <m_score__min__energy>  (38) 
-12.73

>  <m_primary>  (38) 
energy

$$$$
38:0
     RDKit          3D

 41 43  0  0  0  0  0  0  0  0999 V2000
   -5.8640   19.2860  -34.7160 O   0  0  0  0  0  0  0  0  0  0  0  0
   -6.3080   19.3950  -33.2830 S   0  0  0  0  0  0  0  0  0  0  0  0
   -6.2850   18.0160  -32.6860 O   0  0  0  0  0  0  0  0  0  0  0  0
   -5.1770   20.4260  -32.4030 C   0  0  0  0  0  0  0  0  0  0  0  0
   -4.4840   19.9250  -31.2930 C   0  0  0  0  0  0  0  0  0  0  0  0
   -3.6080   20.7470  -30.5790 C   0  0  0  0  0  0  0  0  0  0  0  0
   -3.3980   22.0790  -30.9810 C   0  0  0  0  0  0  0  0  0  0  0  0
   -2.5310   22.9560  -30.2410 N   0  0  0  0  0  0  0  0  0  0  0  0
   -2.9720   24.1410  -29.5580 C   0  0  0  0  0  0  0  0  0  0  0  0
   -4.3160   24.0760  -28.6220 S   0  0  0  0  0  0  0  0  0  0  0  0
   -2.0550   25.2200  -29.3350 N   0  0  0  0  0  0  0  0  0  0  0  0
   -1.6370   25.6800  -28.1880 C   0  0  0  0  0  0  0  0  0  0  0  0
   -1.9490   25.0620  -26.9590 C   0  0  0  0  0  0  0  0  0  0  0  0
   -1.4560   25.6060  -25.7710 C   0  0  0  0  0  0  0  0  0  0  0  0
   -0.6510   26.7460  -25.8080 C   0  0  0  0  0  0  0  0  0  0  0  0
   -0.0240   27.4370  -24.3240 Cl  0  0  0  0  0  0  0  0  0  0  0  0
   -0.3440   27.3220  -27.0420 C   0  0  0  0  0  0  0  0  0  0  0  0
   -0.8350   26.7800  -28.1880 N   0  0  0  0  0  0  0  0  0  0  0  0
   -4.1000   22.5770  -32.0870 C   0  0  0  0  0  0  0  0  0  0  0  0
   -4.9760   21.7530  -32.8000 C   0  0  0  0  0  0  0  0  0  0  0  0
   -7.9440   20.0200  -33.2310 N   0  0  0  0  0  0  0  0  0  0  0  0
   -8.8770   19.0200  -32.6990 C   0  0  0  0  0  0  0  0  0  0  0  0
   -9.1110   19.3170  -31.2260 C   0  0  0  0  0  0  0  0  0  0  0  0
   -8.5710   20.7150  -30.9950 C   0  0  0  0  0  0  0  0  0  0  0  0
   -8.0390   21.1820  -32.3420 C   0  0  0  0  0  0  0  0  0  0  0  0
   -4.6302   18.8800  -30.9822 H   0  0  0  0  0  0  0  0  0  0  0  0
   -3.0803   20.3510  -29.6988 H   0  0  0  0  0  0  0  0  0  0  0  0
   -1.5100   22.7320  -30.2090 H   0  0  0  0  0  0  0  0  0  0  0  0
   -2.5759   24.1584  -26.9365 H   0  0  0  0  0  0  0  0  0  0  0  0
   -1.7017   25.1367  -24.8070 H   0  0  0  0  0  0  0  0  0  0  0  0
    0.2960   28.2155  -27.0871 H   0  0  0  0  0  0  0  0  0  0  0  0
   -3.9608   23.6234  -32.3963 H   0  0  0  0  0  0  0  0  0  0  0  0
   -5.5094   22.1493  -33.6766 H   0  0  0  0  0  0  0  0  0  0  0  0
   -9.8305   19.0741  -33.2449 H   0  0  0  0  0  0  0  0  0  0  0  0
   -8.4573   18.0103  -32.8188 H   0  0  0  0  0  0  0  0  0  0  0  0
  -10.1855   19.2782  -30.9935 H   0  0  0  0  0  0  0  0  0  0  0  0
   -8.6127   18.5789  -30.5803 H   0  0  0  0  0  0  0  0  0  0  0  0
   -9.3731   21.3828  -30.6476 H   0  0  0  0  0  0  0  0  0  0  0  0
   -7.7858   20.7235  -30.2247 H   0  0  0  0  0  0  0  0  0  0  0  0
   -8.7247   21.9254  -32.7746 H   0  0  0  0  0  0  0  0  0  0  0  0
   -7.0485   21.6440  -32.2172 H   0  0  0  0  0  0  0  0  0  0  0  0
  1  2  2  0
  2  3  2  0
  2  4  1  0
  4  5  2  0
  5  6  1  0
  6  7  2  0
  7  8  1  0
  8  9  1  0
  9 10  2  0
  9 11  1  0
 11 12  2  3
 12 13  1  0
 13 14  2  0
 14 15  1  0
 15 16  1  0
 15 17  2  0
 17 18  1  0
  7 19  1  0
 19 20  2  0
  2 21  1  0
 21 22  1  0
 22 23  1  0
 23 24  1  0
 24 25  1  0
 20  4  1  0
 25 21  1  0
 18 12  1  0
  5 26  1  0
  6 27  1  0
  8 28  1  0
 13 29  1  0
 14 30  1  0
 17 31  1  0
 19 32  1  0
 20 33  1  0
 22 34  1  0
 22 35  1  0
 23 36  1  0
 23 37  1  0
 24 38  1  0
 24 39  1  0
 25 40  1  0
 25 41  1  0
M  CHG  1  18  -1
M  END
>  <UniqueID>  (39) 
38

>  <SMILES>  (39) 
O=S(=O)(c1ccc(NC(=S)N=c2ccc(Cl)c[n-]2)cc1)N1CCCC1

>  <Energy>  (39) 
54.24084600302784

>  <Genealogy>  (39) 
O=S(=O)(c1ccc(NC(=S)N=c2ccc(Cl)c[n-]2)cc1)N1CCCC1 (protonated)
O=S(=O)(c1ccc(NC(=S)N=c2ccc(Cl)c[n-]2)cc1)N1CCCC1 (3D coordinates assigned)
O=S(=O)(c1ccc(NC(=S)N=c2ccc(Cl)c[n-]2)cc1)N1CCCC1 (nonaromatic ring conformer: 54.24084600302784 kcal/mol)

>  <smiles>  (39) 
O=S(=O)(c1ccc(NC(=S)N=c2ccc(Cl)c[nH]2)cc1)N1CCCC1

>  <score_type>  (39) 
oracle

>  <origin>  (39) 
adgpu

>  <m_score__min__energy>  (39) 
-11.25

>  <m_primary>  (39) 
energy

$$$$
39:0
     RDKit          3D

 45 47  0  0  0  0  0  0  0  0999 V2000
   -9.8030   19.4300  -32.9980 N   0  0  0  0  0  0  0  0  0  0  0  0
   -8.9100   19.6660  -31.9100 C   0  0  0  0  0  0  0  0  0  0  0  0
   -8.8980   18.8620  -30.9410 O   0  0  0  0  0  0  0  0  0  0  0  0
   -8.0070   20.8420  -31.9200 C   0  0  0  0  0  0  0  0  0  0  0  0
   -6.6690   20.7100  -32.3330 C   0  0  0  0  0  0  0  0  0  0  0  0
   -5.8190   21.8180  -32.3440 C   0  0  0  0  0  0  0  0  0  0  0  0
   -6.2880   23.0800  -31.9620 C   0  0  0  0  0  0  0  0  0  0  0  0
   -5.3770   24.1870  -31.9690 N   0  0  0  0  0  0  0  0  0  0  0  0
   -5.0890   25.0530  -30.8670 C   0  0  0  0  0  0  0  0  0  0  0  0
   -6.0420   25.6160  -30.2670 O   0  0  0  0  0  0  0  0  0  0  0  0
   -3.7370   25.2720  -30.4430 N   0  0  0  0  0  0  0  0  0  0  0  0
   -3.0610   24.5460  -29.4080 C   0  0  0  0  0  0  0  0  0  0  0  0
   -3.6870   23.4170  -28.8700 C   0  0  0  0  0  0  0  0  0  0  0  0
   -3.0670   22.6770  -27.8630 C   0  0  0  0  0  0  0  0  0  0  0  0
   -1.8240   23.0740  -27.3690 C   0  0  0  0  0  0  0  0  0  0  0  0
   -1.2020   24.2300  -27.8580 C   0  0  0  0  0  0  0  0  0  0  0  0
    0.3620   24.7040  -27.1760 S   0  0  0  0  0  0  0  0  0  0  0  0
    0.6670   23.7760  -26.0330 O   0  0  0  0  0  0  0  0  0  0  0  0
    1.4520   24.5840  -28.2040 O   0  0  0  0  0  0  0  0  0  0  0  0
    0.2820   26.3530  -26.5870 N   0  0  0  0  0  0  0  0  0  0  0  0
    1.0970   26.5420  -25.3730 C   0  0  0  0  0  0  0  0  0  0  0  0
    0.4230   25.9550  -24.1090 C   0  0  0  0  0  0  0  0  0  0  0  0
   -0.9610   25.6990  -24.2710 O   0  0  0  0  0  0  0  0  0  0  0  0
   -1.5760   26.7730  -24.9450 C   0  0  0  0  0  0  0  0  0  0  0  0
   -1.1130   26.8150  -26.4110 C   0  0  0  0  0  0  0  0  0  0  0  0
   -1.8240   24.9750  -28.8810 C   0  0  0  0  0  0  0  0  0  0  0  0
   -1.2370   26.1450  -29.3500 O   0  0  0  0  0  0  0  0  0  0  0  0
   -7.6160   23.2120  -31.5220 C   0  0  0  0  0  0  0  0  0  0  0  0
   -8.4700   22.1050  -31.5090 C   0  0  0  0  0  0  0  0  0  0  0  0
   -9.5200   19.6430  -33.9810 H   0  0  0  0  0  0  0  0  0  0  0  0
   -6.2895   19.7273  -32.6495 H   0  0  0  0  0  0  0  0  0  0  0  0
   -4.7710   21.6977  -32.6558 H   0  0  0  0  0  0  0  0  0  0  0  0
   -4.6752   23.1104  -29.2435 H   0  0  0  0  0  0  0  0  0  0  0  0
   -3.5584   21.7800  -27.4582 H   0  0  0  0  0  0  0  0  0  0  0  0
   -1.3291   22.4752  -26.5902 H   0  0  0  0  0  0  0  0  0  0  0  0
    2.0673   26.0447  -25.5186 H   0  0  0  0  0  0  0  0  0  0  0  0
    1.2166   27.6241  -25.2159 H   0  0  0  0  0  0  0  0  0  0  0  0
    0.9242   25.0093  -23.8551 H   0  0  0  0  0  0  0  0  0  0  0  0
    0.5207   26.7074  -23.3125 H   0  0  0  0  0  0  0  0  0  0  0  0
   -2.6680   26.6449  -24.9124 H   0  0  0  0  0  0  0  0  0  0  0  0
   -1.2935   27.7150  -24.4522 H   0  0  0  0  0  0  0  0  0  0  0  0
   -1.7746   26.1691  -27.0068 H   0  0  0  0  0  0  0  0  0  0  0  0
   -1.1583   27.8631  -26.7420 H   0  0  0  0  0  0  0  0  0  0  0  0
   -7.9858   24.1919  -31.1858 H   0  0  0  0  0  0  0  0  0  0  0  0
   -9.5114   22.2226  -31.1750 H   0  0  0  0  0  0  0  0  0  0  0  0
  1  2  1  0
  2  3  2  0
  2  4  1  0
  4  5  2  0
  5  6  1  0
  6  7  2  0
  7  8  1  0
  8  9  1  0
  9 10  2  0
  9 11  1  0
 11 12  1  0
 12 13  2  0
 13 14  1  0
 14 15  2  0
 15 16  1  0
 16 17  1  0
 17 18  2  0
 17 19  2  0
 17 20  1  0
 20 21  1  0
 21 22  1  0
 22 23  1  0
 23 24  1  0
 24 25  1  0
 16 26  2  0
 26 27  1  0
  7 28  1  0
 28 29  2  0
 29  4  1  0
 26 12  1  0
 25 20  1  0
  1 30  1  0
  5 31  1  0
  6 32  1  0
 13 33  1  0
 14 34  1  0
 15 35  1  0
 21 36  1  0
 21 37  1  0
 22 38  1  0
 22 39  1  0
 24 40  1  0
 24 41  1  0
 25 42  1  0
 25 43  1  0
 28 44  1  0
 29 45  1  0
M  CHG  4   1  -1   8  -1  11  -1  27  -1
M  END
>  <UniqueID>  (40) 
39

>  <SMILES>  (40) 
[NH-]C(=O)c1ccc([N-]C(=O)[N-]c2cccc(S(=O)(=O)N3CCOCC3)c2[O-])cc1

>  <Energy>  (40) 
68.64456792494406

>  <Genealogy>  (40) 
[NH-]C(=O)c1ccc([N-]C(=O)[N-]c2cccc(S(=O)(=O)N3CCOCC3)c2[O-])cc1 (protonated)
[NH-]C(=O)c1ccc([N-]C(=O)[N-]c2cccc(S(=O)(=O)N3CCOCC3)c2[O-])cc1 (3D coordinates assigned)
[NH-]C(=O)c1ccc([N-]C(=O)[N-]c2cccc(S(=O)(=O)N3CCOCC3)c2[O-])cc1 (nonaromatic ring conformer: 68.64456792494406 kcal/mol)

>  <smiles>  (40) 
NC(=O)c1ccc(NC(=O)Nc2cccc(S(=O)(=O)N3CCOCC3)c2O)cc1

>  <score_type>  (40) 
oracle

>  <origin>  (40) 
adgpu

>  <m_score__min__energy>  (40) 
-14.99

>  <m_primary>  (40) 
energy

$$$$
40:0
     RDKit          3D

 53 56  0  0  1  0  0  0  0  0999 V2000
   -0.4020   18.5960  -34.5380 C   0  0  0  0  0  0  0  0  0  0  0  0
   -1.8430   18.5710  -34.2150 C   0  0  0  0  0  0  0  0  0  0  0  0
   -2.5420   19.6660  -33.7420 C   0  0  0  0  0  0  0  0  0  0  0  0
   -3.9080   19.5900  -33.4520 C   0  0  0  0  0  0  0  0  0  0  0  0
   -4.5750   18.3990  -33.6420 C   0  0  0  0  0  0  0  0  0  0  0  0
   -6.2770   18.1910  -33.3130 S   0  0  0  0  0  0  0  0  0  0  0  0
   -6.8060   17.0660  -34.1870 O   0  0  0  0  0  0  0  0  0  0  0  0
   -6.4170   17.8760  -31.8700 O   0  0  0  0  0  0  0  0  0  0  0  0
   -7.1830   19.6150  -33.6810 N   0  0  0  0  0  0  0  0  0  0  0  0
   -7.7750   20.4320  -32.6880 C   0  0  0  0  0  0  0  0  0  0  0  0
   -9.1380   20.2210  -32.4550 C   0  0  0  0  0  0  0  0  0  0  0  0
   -9.8610   19.2780  -33.1450 O   0  0  0  0  0  0  0  0  0  0  0  0
   -9.7710   20.9720  -31.5160 N   0  0  0  0  0  0  0  0  0  0  0  0
   -9.0510   21.8960  -30.8440 C   0  0  0  0  0  0  0  0  0  0  0  0
   -7.7390   22.1040  -31.0620 N   0  0  0  0  0  0  0  0  0  0  0  0
   -7.0810   21.3880  -31.9770 C   0  0  0  0  0  0  0  0  0  0  0  0
   -5.8310   21.5680  -32.2030 N   0  0  0  0  0  0  0  0  0  0  0  0
   -5.0740   22.5490  -31.4860 C   0  0  0  0  0  0  0  0  0  0  0  0
   -5.4500   23.8470  -31.3390 C   0  0  0  0  0  0  0  0  0  0  0  0
   -4.7010   24.7820  -30.6380 C   0  0  0  0  0  0  0  0  0  0  0  0
   -3.5150   24.4030  -30.0530 C   0  0  0  0  0  0  0  0  0  0  0  0
   -2.7180   25.2860  -29.3390 O   0  0  0  0  0  0  0  0  0  0  0  0
   -1.9020   24.8780  -28.3010 C   0  0  0  0  0  0  0  0  0  0  0  0
   -2.3720   24.4710  -27.0710 C   0  0  0  0  0  0  0  0  0  0  0  0
   -1.4450   24.0880  -26.1180 C   0  0  0  0  0  0  0  0  0  0  0  0
   -0.0790   24.1000  -26.3610 C   0  0  0  0  0  0  0  0  0  0  0  0
    0.3930   24.5110  -27.6070 C   0  0  0  0  0  0  0  0  0  0  0  0
    1.7370   24.5480  -27.9190 O   0  0  0  0  0  0  0  0  0  0  0  0
   -0.5300   24.8940  -28.5570 C   0  0  0  0  0  0  0  0  0  0  0  0
   -3.1220   23.1010  -30.1900 C   0  0  0  0  0  0  0  0  0  0  0  0
   -3.8680   22.1700  -30.8880 C   0  0  0  0  0  0  0  0  0  0  0  0
   -3.8730   17.2900  -34.1200 C   0  0  0  0  0  0  0  0  0  0  0  0
   -2.5290   17.3930  -34.3970 C   0  0  0  0  0  0  0  0  0  0  0  0
    0.1825   18.6061  -33.6062 H   0  0  0  0  0  0  0  0  0  0  0  0
   -0.1421   17.7022  -35.1242 H   0  0  0  0  0  0  0  0  0  0  0  0
   -0.1732   19.4983  -35.1242 H   0  0  0  0  0  0  0  0  0  0  0  0
   -2.0121   20.6179  -33.5904 H   0  0  0  0  0  0  0  0  0  0  0  0
   -4.4453   20.4730  -33.0756 H   0  0  0  0  0  0  0  0  0  0  0  0
   -7.3280   19.9290  -34.6850 H   0  0  0  0  0  0  0  0  0  0  0  0
   -9.7640   19.1940  -34.1540 H   0  0  0  0  0  0  0  0  0  0  0  0
   -9.5599   22.5066  -30.0837 H   0  0  0  0  0  0  0  0  0  0  0  0
   -7.2420   22.8230  -30.5190 H   0  0  0  0  0  0  0  0  0  0  0  0
   -6.3949   24.1726  -31.7985 H   0  0  0  0  0  0  0  0  0  0  0  0
   -5.0538   25.8202  -30.5507 H   0  0  0  0  0  0  0  0  0  0  0  0
   -3.4502   24.4513  -26.8538 H   0  0  0  0  0  0  0  0  0  0  0  0
   -1.8043   23.7618  -25.1308 H   0  0  0  0  0  0  0  0  0  0  0  0
    0.6262   23.7877  -25.5767 H   0  0  0  0  0  0  0  0  0  0  0  0
    2.4220   25.0380  -27.3540 H   0  0  0  0  0  0  0  0  0  0  0  0
   -0.1748   25.2216  -29.5452 H   0  0  0  0  0  0  0  0  0  0  0  0
   -2.1764   22.7821  -29.7273 H   0  0  0  0  0  0  0  0  0  0  0  0
   -3.5135   21.1322  -30.9730 H   0  0  0  0  0  0  0  0  0  0  0  0
   -4.3947   16.3341  -34.2750 H   0  0  0  0  0  0  0  0  0  0  0  0
   -1.9899   16.5111  -34.7734 H   0  0  0  0  0  0  0  0  0  0  0  0
  1  2  1  0
  2  3  2  0
  3  4  1  0
  4  5  2  0
  5  6  1  0
  6  7  2  0
  6  8  2  0
  6  9  1  0
  9 10  1  0
 10 11  2  0
 11 12  1  0
 11 13  1  0
 13 14  2  0
 14 15  1  0
 15 16  1  0
 16 17  2  0
 17 18  1  0
 18 19  2  0
 19 20  1  0
 20 21  2  0
 21 22  1  0
 22 23  1  0
 23 24  2  0
 24 25  1  0
 25 26  2  0
 26 27  1  0
 27 28  1  0
 27 29  2  0
 21 30  1  0
 30 31  2  0
  5 32  1  0
 32 33  2  0
 33  2  1  0
 16 10  1  0
 31 18  1  0
 29 23  1  0
  1 34  1  0
  1 35  1  0
  1 36  1  0
  3 37  1  0
  4 38  1  0
  9 39  1  0
 12 40  1  0
 14 41  1  0
 15 42  1  0
 19 43  1  0
 20 44  1  0
 24 45  1  0
 25 46  1  0
 26 47  1  0
 28 48  1  0
 29 49  1  0
 30 50  1  0
 31 51  1  0
 32 52  1  0
 33 53  1  0
M  END
>  <smiles>  (41) 
Cc1ccc(S(=O)(=O)Nc2c(O)nc[nH]c2=Nc2ccc(Oc3cccc(O)c3)cc2)cc1

>  <score_type>  (41) 
oracle

>  <origin>  (41) 
adgpu

>  <m_score__min__energy>  (41) 
-9.6099999999999994

>  <m_primary>  (41) 
energy

$$$$
41:0
     RDKit          3D

 60 63  0  0  0  0  0  0  0  0999 V2000
   -2.7040   20.5550  -33.6610 C   0  0  0  0  0  0  0  0  0  0  0  0
   -3.7540   21.6160  -33.3520 C   0  0  0  0  0  0  0  0  0  0  0  0
   -4.2430   21.5050  -31.9660 N   0  0  0  0  0  0  0  0  0  0  0  0
   -3.6350   20.4460  -31.1360 C   0  0  0  0  0  0  0  0  0  0  0  0
   -2.6020   20.9790  -30.1720 C   0  0  0  0  0  0  0  0  0  0  0  0
   -1.4860   21.6910  -30.6490 C   0  0  0  0  0  0  0  0  0  0  0  0
   -0.5410   22.2040  -29.7550 C   0  0  0  0  0  0  0  0  0  0  0  0
   -0.6920   21.9990  -28.3810 C   0  0  0  0  0  0  0  0  0  0  0  0
   -1.7870   21.2760  -27.8980 C   0  0  0  0  0  0  0  0  0  0  0  0
   -2.7350   20.7620  -28.7880 C   0  0  0  0  0  0  0  0  0  0  0  0
   -5.6270   21.8470  -31.7410 C   0  0  0  0  0  0  0  0  0  0  0  0
   -6.5840   21.1070  -32.3690 N   0  0  0  0  0  0  0  0  0  0  0  0
   -7.9010   21.4140  -32.2910 C   0  0  0  0  0  0  0  0  0  0  0  0
   -8.2940   22.5360  -31.5700 C   0  0  0  0  0  0  0  0  0  0  0  0
   -7.3550   23.2850  -30.9400 N   0  0  0  0  0  0  0  0  0  0  0  0
   -6.0290   22.9790  -30.9840 C   0  0  0  0  0  0  0  0  0  0  0  0
   -5.1030   23.8540  -30.2290 C   0  0  0  0  0  0  0  0  0  0  0  0
   -4.5090   24.7790  -30.8480 O   0  0  0  0  0  0  0  0  0  0  0  0
   -4.9770   23.7540  -28.8010 N   0  0  0  0  0  0  0  0  0  0  0  0
   -3.9110   24.3310  -28.0220 C   0  0  0  0  0  0  0  0  0  0  0  0
   -4.0900   24.7080  -26.6770 C   0  0  0  0  0  0  0  0  0  0  0  0
   -3.0440   25.2990  -25.9630 C   0  0  0  0  0  0  0  0  0  0  0  0
   -1.8130   25.5470  -26.5840 C   0  0  0  0  0  0  0  0  0  0  0  0
   -0.4980   26.3100  -25.6860 S   0  0  0  0  0  0  0  0  0  0  0  0
    0.4490   26.9590  -26.6600 O   0  0  0  0  0  0  0  0  0  0  0  0
   -1.0620   27.3900  -24.8010 O   0  0  0  0  0  0  0  0  0  0  0  0
    0.3800   25.1630  -24.6950 N   0  0  0  0  0  0  0  0  0  0  0  0
   -0.5130   24.1280  -24.1670 C   0  0  0  0  0  0  0  0  0  0  0  0
   -0.4140   22.9110  -25.0710 C   0  0  0  0  0  0  0  0  0  0  0  0
    0.8660   23.0920  -25.8630 C   0  0  0  0  0  0  0  0  0  0  0  0
    1.4060   24.4610  -25.4740 C   0  0  0  0  0  0  0  0  0  0  0  0
   -1.6380   25.1960  -27.9300 C   0  0  0  0  0  0  0  0  0  0  0  0
   -2.6760   24.5910  -28.6410 C   0  0  0  0  0  0  0  0  0  0  0  0
   -2.3036   20.1504  -32.7198 H   0  0  0  0  0  0  0  0  0  0  0  0
   -3.1638   19.7427  -34.2431 H   0  0  0  0  0  0  0  0  0  0  0  0
   -1.8870   21.0063  -34.2431 H   0  0  0  0  0  0  0  0  0  0  0  0
   -3.3089   22.6117  -33.4953 H   0  0  0  0  0  0  0  0  0  0  0  0
   -4.6060   21.4663  -34.0314 H   0  0  0  0  0  0  0  0  0  0  0  0
   -4.4306   19.9505  -30.5602 H   0  0  0  0  0  0  0  0  0  0  0  0
   -3.1253   19.7455  -31.8138 H   0  0  0  0  0  0  0  0  0  0  0  0
   -1.3563   21.8448  -31.7304 H   0  0  0  0  0  0  0  0  0  0  0  0
    0.3228   22.7699  -30.1340 H   0  0  0  0  0  0  0  0  0  0  0  0
    0.0507   22.4065  -27.6793 H   0  0  0  0  0  0  0  0  0  0  0  0
   -1.9028   21.1114  -26.8166 H   0  0  0  0  0  0  0  0  0  0  0  0
   -3.5893   20.1850  -28.4043 H   0  0  0  0  0  0  0  0  0  0  0  0
   -8.6503   20.7834  -32.7919 H   0  0  0  0  0  0  0  0  0  0  0  0
   -9.3567   22.8137  -31.5111 H   0  0  0  0  0  0  0  0  0  0  0  0
   -5.7790   23.3420  -28.2860 H   0  0  0  0  0  0  0  0  0  0  0  0
   -5.0590   24.5363  -26.1854 H   0  0  0  0  0  0  0  0  0  0  0  0
   -3.1882   25.5711  -24.9070 H   0  0  0  0  0  0  0  0  0  0  0  0
   -0.2081   23.8588  -23.1450 H   0  0  0  0  0  0  0  0  0  0  0  0
   -1.5487   24.4975  -24.1385 H   0  0  0  0  0  0  0  0  0  0  0  0
   -0.3669   21.9902  -24.4710 H   0  0  0  0  0  0  0  0  0  0  0  0
   -1.2903   22.8221  -25.7300 H   0  0  0  0  0  0  0  0  0  0  0  0
    1.5911   22.3066  -25.6034 H   0  0  0  0  0  0  0  0  0  0  0  0
    0.6849   23.0216  -26.9457 H   0  0  0  0  0  0  0  0  0  0  0  0
    2.3157   24.3421  -24.8672 H   0  0  0  0  0  0  0  0  0  0  0  0
    1.6539   25.0384  -26.3769 H   0  0  0  0  0  0  0  0  0  0  0  0
   -0.6784   25.3982  -28.4282 H   0  0  0  0  0  0  0  0  0  0  0  0
   -2.5261   24.3152  -29.6953 H   0  0  0  0  0  0  0  0  0  0  0  0
  1  2  1  0
  2  3  1  0
  3  4  1  0
  4  5  1  0
  5  6  2  0
  6  7  1  0
  7  8  2  0
  8  9  1  0
  9 10  2  0
  3 11  1  0
 11 12  2  0
 12 13  1  0
 13 14  2  0
 14 15  1  0
 15 16  2  0
 16 17  1  0
 17 18  2  0
 17 19  1  0
 19 20  1  0
 20 21  2  0
 21 22  1  0
 22 23  2  0
 23 24  1  0
 24 25  2  0
 24 26  2  0
 24 27  1  0
 27 28  1  0
 28 29  1  0
 29 30  1  0
 30 31  1  0
 23 32  1  0
 32 33  2  0
 10  5  1  0
 16 11  1  0
 33 20  1  0
 31 27  1  0
  1 34  1  0
  1 35  1  0
  1 36  1  0
  2 37  1  0
  2 38  1  0
  4 39  1  0
  4 40  1  0
  6 41  1  0
  7 42  1  0
  8 43  1  0
  9 44  1  0
 10 45  1  0
 13 46  1  0
 14 47  1  0
 19 48  1  0
 21 49  1  0
 22 50  1  0
 28 51  1  0
 28 52  1  0
 29 53  1  0
 29 54  1  0
 30 55  1  0
 30 56  1  0
 31 57  1  0
 31 58  1  0
 32 59  1  0
 33 60  1  0
M  END
>  <UniqueID>  (42) 
40

>  <SMILES>  (42) 
CCN(Cc1ccccc1)c1nccnc1C(=O)Nc1ccc(S(=O)(=O)N2CCCC2)cc1

>  <Energy>  (42) 
74.5983367459309

>  <Genealogy>  (42) 
CCN(Cc1ccccc1)c1nccnc1C(=O)Nc1ccc(S(=O)(=O)N2CCCC2)cc1 (3D coordinates assigned)
CCN(Cc1ccccc1)c1nccnc1C(=O)Nc1ccc(S(=O)(=O)N2CCCC2)cc1 (nonaromatic ring conformer: 74.5983367459309 kcal/mol)

>  <smiles>  (42) 
CCN(Cc1ccccc1)c1nccnc1C(=O)Nc1ccc(S(=O)(=O)N2CCCC2)cc1

>  <score_type>  (42) 
oracle

>  <origin>  (42) 
adgpu

>  <m_score__min__energy>  (42) 
-10.07

>  <m_primary>  (42) 
energy

$$$$
42:0
     RDKit          3D

 39 41  0  0  0  0  0  0  0  0999 V2000
   -4.4790   26.0220  -30.4610 O   0  0  0  0  0  0  0  0  0  0  0  0
   -3.8550   24.9300  -30.3970 C   0  0  0  0  0  0  0  0  0  0  0  0
   -4.2290   23.8240  -31.2270 N   0  0  0  0  0  0  0  0  0  0  0  0
   -5.5500   23.3030  -31.4120 C   0  0  0  0  0  0  0  0  0  0  0  0
   -5.9470   22.3010  -32.2940 C   0  0  0  0  0  0  0  0  0  0  0  0
   -7.3260   22.0670  -32.2590 C   0  0  0  0  0  0  0  0  0  0  0  0
   -8.0120   22.8820  -31.3670 C   0  0  0  0  0  0  0  0  0  0  0  0
   -6.9030   23.9030  -30.6210 S   0  0  0  0  0  0  0  0  0  0  0  0
   -2.7720   24.7640  -29.4760 N   0  0  0  0  0  0  0  0  0  0  0  0
   -2.5070   23.6110  -28.6620 C   0  0  0  0  0  0  0  0  0  0  0  0
   -3.3960   22.5210  -28.6420 C   0  0  0  0  0  0  0  0  0  0  0  0
   -3.1370   21.4080  -27.8390 C   0  0  0  0  0  0  0  0  0  0  0  0
   -1.9970   21.3760  -27.0360 C   0  0  0  0  0  0  0  0  0  0  0  0
   -1.1190   22.4600  -27.0270 C   0  0  0  0  0  0  0  0  0  0  0  0
   -1.3650   23.5860  -27.8290 C   0  0  0  0  0  0  0  0  0  0  0  0
   -0.2060   24.9260  -27.7860 S   0  0  0  0  0  0  0  0  0  0  0  0
    1.0540   24.5440  -28.5140 O   0  0  0  0  0  0  0  0  0  0  0  0
   -0.8020   26.0990  -28.5130 O   0  0  0  0  0  0  0  0  0  0  0  0
    0.1970   25.4130  -26.1510 N   0  0  0  0  0  0  0  0  0  0  0  0
    0.7370   26.7870  -26.0770 C   0  0  0  0  0  0  0  0  0  0  0  0
   -0.3010   27.8160  -25.6020 C   0  0  0  0  0  0  0  0  0  0  0  0
   -1.6030   27.3940  -25.9290 O   0  0  0  0  0  0  0  0  0  0  0  0
   -1.9470   26.2760  -25.1380 C   0  0  0  0  0  0  0  0  0  0  0  0
   -0.8920   25.1470  -25.1920 C   0  0  0  0  0  0  0  0  0  0  0  0
   -5.2519   21.7531  -32.9472 H   0  0  0  0  0  0  0  0  0  0  0  0
   -7.8218   21.3071  -32.8809 H   0  0  0  0  0  0  0  0  0  0  0  0
   -9.0959   22.8628  -31.1805 H   0  0  0  0  0  0  0  0  0  0  0  0
   -4.3029   22.5455  -29.2641 H   0  0  0  0  0  0  0  0  0  0  0  0
   -3.8327   20.5559  -27.8399 H   0  0  0  0  0  0  0  0  0  0  0  0
   -1.7902   20.4957  -26.4096 H   0  0  0  0  0  0  0  0  0  0  0  0
   -0.2257   22.4324  -26.3857 H   0  0  0  0  0  0  0  0  0  0  0  0
    1.5836   26.7934  -25.3747 H   0  0  0  0  0  0  0  0  0  0  0  0
    1.0440   27.0748  -27.0933 H   0  0  0  0  0  0  0  0  0  0  0  0
   -0.2220   27.9319  -24.5110 H   0  0  0  0  0  0  0  0  0  0  0  0
   -0.1034   28.7756  -26.1022 H   0  0  0  0  0  0  0  0  0  0  0  0
   -2.0540   26.6055  -24.0940 H   0  0  0  0  0  0  0  0  0  0  0  0
   -2.8860   25.8669  -25.5392 H   0  0  0  0  0  0  0  0  0  0  0  0
   -0.4541   25.0298  -24.1898 H   0  0  0  0  0  0  0  0  0  0  0  0
   -1.4070   24.2349  -25.5278 H   0  0  0  0  0  0  0  0  0  0  0  0
  1  2  2  0
  2  3  1  0
  3  4  1  0
  4  5  2  0
  5  6  1  0
  6  7  2  0
  7  8  1  0
  2  9  1  0
  9 10  1  0
 10 11  2  0
 11 12  1  0
 12 13  2  0
 13 14  1  0
 14 15  2  0
 15 16  1  0
 16 17  2  0
 16 18  2  0
 16 19  1  0
 19 20  1  0
 20 21  1  0
 21 22  1  0
 22 23  1  0
 23 24  1  0
  8  4  1  0
 15 10  1  0
 24 19  1  0
  5 25  1  0
  6 26  1  0
  7 27  1  0
 11 28  1  0
 12 29  1  0
 13 30  1  0
 14 31  1  0
 20 32  1  0
 20 33  1  0
 21 34  1  0
 21 35  1  0
 23 36  1  0
 23 37  1  0
 24 38  1  0
 24 39  1  0
M  CHG  2   3  -1   9  -1
M  END
>  <UniqueID>  (43) 
41

>  <SMILES>  (43) 
O=C([N-]c1cccs1)[N-]c1ccccc1S(=O)(=O)N1CCOCC1

>  <Energy>  (43) 
84.00494072413329

>  <Genealogy>  (43) 
O=C([N-]c1cccs1)[N-]c1ccccc1S(=O)(=O)N1CCOCC1 (protonated)
O=C([N-]c1cccs1)[N-]c1ccccc1S(=O)(=O)N1CCOCC1 (3D coordinates assigned)
O=C([N-]c1cccs1)[N-]c1ccccc1S(=O)(=O)N1CCOCC1 (nonaromatic ring conformer: 84.00494072413329 kcal/mol)

>  <smiles>  (43) 
O=C(Nc1cccs1)Nc1ccccc1S(=O)(=O)N1CCOCC1

>  <score_type>  (43) 
oracle

>  <origin>  (43) 
adgpu

>  <m_score__min__energy>  (43) 
-10.52

>  <m_primary>  (43) 
energy

$$$$
43:0
     RDKit          3D

 52 54  0  0  0  0  0  0  0  0999 V2000
   -7.4640   23.7030  -31.4040 C   0  0  0  0  0  0  0  0  0  0  0  0
   -7.9070   22.3430  -31.0860 N   0  0  0  0  0  0  0  0  0  0  0  0
   -9.0640   21.9400  -31.9010 C   0  0  0  0  0  0  0  0  0  0  0  0
   -9.2120   20.4120  -31.9960 C   0  0  0  0  0  0  0  0  0  0  0  0
   -8.1330   19.7580  -31.2340 N   0  0  0  0  0  0  0  0  0  0  0  0
   -7.9310   18.3560  -31.6330 C   0  0  0  0  0  0  0  0  0  0  0  0
   -6.8300   18.2380  -32.6530 C   0  0  0  0  0  0  0  0  0  0  0  0
   -6.8780   17.2460  -33.6460 C   0  0  0  0  0  0  0  0  0  0  0  0
   -5.8300   17.1170  -34.5620 C   0  0  0  0  0  0  0  0  0  0  0  0
   -4.7370   17.9850  -34.5040 C   0  0  0  0  0  0  0  0  0  0  0  0
   -4.6850   18.9940  -33.5320 C   0  0  0  0  0  0  0  0  0  0  0  0
   -3.5580   19.8840  -33.4810 N   0  0  0  0  0  0  0  0  0  0  0  0
   -2.3380   19.5090  -33.8340 N   0  0  0  0  0  0  0  0  0  0  0  0
   -1.5100   20.5460  -33.6000 C   0  0  0  0  0  0  0  0  0  0  0  0
   -0.0560   20.5410  -33.9290 C   0  0  0  0  0  0  0  0  0  0  0  0
   -2.2210   21.6200  -33.1030 C   0  0  0  0  0  0  0  0  0  0  0  0
   -3.5250   21.1680  -33.0450 C   0  0  0  0  0  0  0  0  0  0  0  0
   -4.6870   21.9960  -32.6690 C   0  0  0  0  0  0  0  0  0  0  0  0
   -5.8470   21.6210  -32.9870 O   0  0  0  0  0  0  0  0  0  0  0  0
   -4.5030   23.1740  -31.8740 N   0  0  0  0  0  0  0  0  0  0  0  0
   -3.8850   23.2430  -30.5810 C   0  0  0  0  0  0  0  0  0  0  0  0
   -3.6390   22.0910  -29.8130 C   0  0  0  0  0  0  0  0  0  0  0  0
   -3.0750   22.2000  -28.5390 C   0  0  0  0  0  0  0  0  0  0  0  0
   -2.7670   23.4600  -28.0110 C   0  0  0  0  0  0  0  0  0  0  0  0
   -2.2050   23.5810  -26.7420 O   0  0  0  0  0  0  0  0  0  0  0  0
   -3.0320   24.6090  -28.7600 C   0  0  0  0  0  0  0  0  0  0  0  0
   -3.5960   24.5040  -30.0370 C   0  0  0  0  0  0  0  0  0  0  0  0
   -3.8660   25.6580  -30.7630 O   0  0  0  0  0  0  0  0  0  0  0  0
   -5.7190   19.0920  -32.5860 C   0  0  0  0  0  0  0  0  0  0  0  0
   -7.2834   24.2573  -30.4712 H   0  0  0  0  0  0  0  0  0  0  0  0
   -6.5340   23.6582  -31.9898 H   0  0  0  0  0  0  0  0  0  0  0  0
   -8.2420   24.2145  -31.9898 H   0  0  0  0  0  0  0  0  0  0  0  0
   -7.1100   21.6810  -31.2420 H   0  0  0  0  0  0  0  0  0  0  0  0
   -9.9765   22.3556  -31.4486 H   0  0  0  0  0  0  0  0  0  0  0  0
   -8.9068   22.3252  -32.9193 H   0  0  0  0  0  0  0  0  0  0  0  0
  -10.1856   20.1128  -31.5807 H   0  0  0  0  0  0  0  0  0  0  0  0
   -9.1493   20.1057  -33.0506 H   0  0  0  0  0  0  0  0  0  0  0  0
   -7.2390   20.2650  -31.4350 H   0  0  0  0  0  0  0  0  0  0  0  0
   -7.6635   17.7644  -30.7451 H   0  0  0  0  0  0  0  0  0  0  0  0
   -8.8638   17.9811  -32.0796 H   0  0  0  0  0  0  0  0  0  0  0  0
   -7.7428   16.5686  -33.7031 H   0  0  0  0  0  0  0  0  0  0  0  0
   -5.8661   16.3304  -35.3301 H   0  0  0  0  0  0  0  0  0  0  0  0
   -3.9130   17.8763  -35.2246 H   0  0  0  0  0  0  0  0  0  0  0  0
    0.5305   20.5390  -32.9984 H   0  0  0  0  0  0  0  0  0  0  0  0
    0.1841   19.6420  -34.5157 H   0  0  0  0  0  0  0  0  0  0  0  0
    0.1903   21.4383  -34.5157 H   0  0  0  0  0  0  0  0  0  0  0  0
   -1.8365   22.6104  -32.8180 H   0  0  0  0  0  0  0  0  0  0  0  0
   -3.8917   21.0995  -30.2169 H   0  0  0  0  0  0  0  0  0  0  0  0
   -2.8725   21.2937  -27.9494 H   0  0  0  0  0  0  0  0  0  0  0  0
   -2.1550   24.4750  -26.2680 H   0  0  0  0  0  0  0  0  0  0  0  0
   -2.7966   25.6001  -28.3448 H   0  0  0  0  0  0  0  0  0  0  0  0
   -5.6570   19.8446  -31.7861 H   0  0  0  0  0  0  0  0  0  0  0  0
  1  2  1  0
  2  3  1  0
  3  4  1  0
  4  5  1  0
  5  6  1  0
  6  7  1  0
  7  8  2  0
  8  9  1  0
  9 10  2  0
 10 11  1  0
 11 12  1  0
 12 13  1  0
 13 14  2  0
 14 15  1  0
 14 16  1  0
 16 17  2  0
 17 18  1  0
 18 19  2  0
 18 20  1  0
 20 21  1  0
 21 22  2  0
 22 23  1  0
 23 24  2  0
 24 25  1  0
 24 26  1  0
 26 27  2  0
 27 28  1  0
 11 29  2  0
 29  7  1  0
 17 12  1  0
 27 21  1  0
  1 30  1  0
  1 31  1  0
  1 32  1  0
  2 33  1  0
  3 34  1  0
  3 35  1  0
  4 36  1  0
  4 37  1  0
  5 38  1  0
  6 39  1  0
  6 40  1  0
  8 41  1  0
  9 42  1  0
 10 43  1  0
 15 44  1  0
 15 45  1  0
 15 46  1  0
 16 47  1  0
 22 48  1  0
 23 49  1  0
 25 50  1  0
 26 51  1  0
 29 52  1  0
M  CHG  2  20  -1  28  -1
M  END
>  <UniqueID>  (44) 
42

>  <SMILES>  (44) 
CNCCNCc1cccc(-n2nc(C)cc2C(=O)[N-]c2ccc(O)cc2[O-])c1

>  <Energy>  (44) 
88.39846431791216

>  <Genealogy>  (44) 
CNCCNCc1cccc(-n2nc(C)cc2C(=O)[N-]c2ccc(O)cc2[O-])c1 (protonated)
CNCCNCc1cccc(-n2nc(C)cc2C(=O)[N-]c2ccc(O)cc2[O-])c1 (3D coordinates assigned)
CNCCNCc1cccc(-n2nc(C)cc2C(=O)[N-]c2ccc(O)cc2[O-])c1 (optimized conformer: 88.39846431791216 kcal/mol)

>  <smiles>  (44) 
CNCCNCc1cccc(-n2nc(C)cc2C(=O)Nc2ccc(O)cc2O)c1

>  <score_type>  (44) 
oracle

>  <origin>  (44) 
adgpu

>  <m_score__min__energy>  (44) 
-12.609999999999999

>  <m_primary>  (44) 
energy

$$$$
44:0
     RDKit          3D

 35 36  0  0  0  0  0  0  0  0999 V2000
   -8.3260   19.2060  -32.3090 C   0  0  0  0  0  0  0  0  0  0  0  0
   -7.7980   20.3420  -32.9860 O   0  0  0  0  0  0  0  0  0  0  0  0
   -7.2210   21.4470  -32.3450 C   0  0  0  0  0  0  0  0  0  0  0  0
   -7.9840   22.3870  -31.6240 C   0  0  0  0  0  0  0  0  0  0  0  0
   -7.3600   23.4710  -31.0020 C   0  0  0  0  0  0  0  0  0  0  0  0
   -5.9720   23.6350  -31.0920 C   0  0  0  0  0  0  0  0  0  0  0  0
   -5.1990   24.9950  -30.2790 S   0  0  0  0  0  0  0  0  0  0  0  0
   -5.5100   24.9180  -28.8110 O   0  0  0  0  0  0  0  0  0  0  0  0
   -5.7390   26.2940  -30.8110 O   0  0  0  0  0  0  0  0  0  0  0  0
   -3.4700   24.9530  -30.4930 N   0  0  0  0  0  0  0  0  0  0  0  0
   -2.8630   23.8490  -29.7480 C   0  0  0  0  0  0  0  0  0  0  0  0
   -2.1580   24.3490  -28.5200 C   0  0  0  0  0  0  0  0  0  0  0  0
   -1.9880   23.5200  -27.4010 C   0  0  0  0  0  0  0  0  0  0  0  0
   -1.3130   24.0130  -26.2820 C   0  0  0  0  0  0  0  0  0  0  0  0
   -0.8220   25.3180  -26.2850 C   0  0  0  0  0  0  0  0  0  0  0  0
   -1.0170   26.1240  -27.4140 C   0  0  0  0  0  0  0  0  0  0  0  0
   -0.4900   27.5220  -27.4460 C   0  0  0  0  0  0  0  0  0  0  0  0
   -1.6710   25.6200  -28.4960 N   0  0  0  0  0  0  0  0  0  0  0  0
   -5.2100   22.7020  -31.8080 C   0  0  0  0  0  0  0  0  0  0  0  0
   -5.8340   21.6160  -32.4300 C   0  0  0  0  0  0  0  0  0  0  0  0
   -8.2541   19.3606  -31.2223 H   0  0  0  0  0  0  0  0  0  0  0  0
   -9.3803   19.0685  -32.5909 H   0  0  0  0  0  0  0  0  0  0  0  0
   -7.7514   18.3114  -32.5909 H   0  0  0  0  0  0  0  0  0  0  0  0
   -9.0749   22.2667  -31.5507 H   0  0  0  0  0  0  0  0  0  0  0  0
   -7.9618   24.1994  -30.4387 H   0  0  0  0  0  0  0  0  0  0  0  0
   -3.6506   23.1424  -29.4475 H   0  0  0  0  0  0  0  0  0  0  0  0
   -2.1259   23.3531  -30.3967 H   0  0  0  0  0  0  0  0  0  0  0  0
   -2.3820   22.4930  -27.4049 H   0  0  0  0  0  0  0  0  0  0  0  0
   -1.1689   23.3725  -25.3994 H   0  0  0  0  0  0  0  0  0  0  0  0
   -0.2862   25.7112  -25.4085 H   0  0  0  0  0  0  0  0  0  0  0  0
   -0.3529   27.8858  -26.4170 H   0  0  0  0  0  0  0  0  0  0  0  0
    0.4758   27.5378  -27.9723 H   0  0  0  0  0  0  0  0  0  0  0  0
   -1.2050   28.1714  -27.9723 H   0  0  0  0  0  0  0  0  0  0  0  0
   -4.1192   22.8241  -31.8809 H   0  0  0  0  0  0  0  0  0  0  0  0
   -5.2295   20.8881  -32.9910 H   0  0  0  0  0  0  0  0  0  0  0  0
  1  2  1  0
  2  3  1  0
  3  4  2  0
  4  5  1  0
  5  6  2  0
  6  7  1  0
  7  8  2  0
  7  9  2  0
  7 10  1  0
 10 11  1  0
 11 12  1  0
 12 13  2  0
 13 14  1  0
 14 15  2  0
 15 16  1  0
 16 17  1  0
 16 18  2  0
  6 19  1  0
 19 20  2  0
 20  3  1  0
 18 12  1  0
  1 21  1  0
  1 22  1  0
  1 23  1  0
  4 24  1  0
  5 25  1  0
 11 26  1  0
 11 27  1  0
 13 28  1  0
 14 29  1  0
 15 30  1  0
 17 31  1  0
 17 32  1  0
 17 33  1  0
 19 34  1  0
 20 35  1  0
M  CHG  1  10  -1
M  END
>  <UniqueID>  (45) 
43

>  <SMILES>  (45) 
COc1ccc(S(=O)(=O)[N-]Cc2cccc(C)n2)cc1

>  <Energy>  (45) 
32.01282654332414

>  <Genealogy>  (45) 
COc1ccc(S(=O)(=O)[N-]Cc2cccc(C)n2)cc1 (protonated)
COc1ccc(S(=O)(=O)[N-]Cc2cccc(C)n2)cc1 (3D coordinates assigned)
COc1ccc(S(=O)(=O)[N-]Cc2cccc(C)n2)cc1 (optimized conformer: 32.01282654332414 kcal/mol)

>  <smiles>  (45) 
COc1ccc(S(=O)(=O)NCc2cccc(C)n2)cc1

>  <score_type>  (45) 
oracle

>  <origin>  (45) 
adgpu

>  <m_score__min__energy>  (45) 
-8.5999999999999996

>  <m_primary>  (45) 
energy

$$$$
45:0
     RDKit          3D

 48 50  0  0  0  0  0  0  0  0999 V2000
   -1.6040   21.8860  -26.7170 C   0  0  0  0  0  0  0  0  0  0  0  0
    0.0720   22.5950  -26.6830 S   0  0  0  0  0  0  0  0  0  0  0  0
   -0.4980   24.2350  -26.1990 C   0  0  0  0  0  0  0  0  0  0  0  0
   -0.4760   24.5420  -24.8310 C   0  0  0  0  0  0  0  0  0  0  0  0
   -0.9340   25.7760  -24.3730 C   0  0  0  0  0  0  0  0  0  0  0  0
   -1.4270   26.7160  -25.2750 C   0  0  0  0  0  0  0  0  0  0  0  0
   -1.4630   26.4240  -26.6400 C   0  0  0  0  0  0  0  0  0  0  0  0
   -1.0010   25.1860  -27.1290 C   0  0  0  0  0  0  0  0  0  0  0  0
   -1.0740   24.9310  -28.5940 C   0  0  0  0  0  0  0  0  0  0  0  0
   -0.1010   24.4230  -29.2120 O   0  0  0  0  0  0  0  0  0  0  0  0
   -2.2560   25.2870  -29.3190 N   0  0  0  0  0  0  0  0  0  0  0  0
   -3.5120   24.5620  -29.1930 C   0  0  0  0  0  0  0  0  0  0  0  0
   -3.4890   23.3680  -30.1030 C   0  0  0  0  0  0  0  0  0  0  0  0
   -2.4770   22.4050  -29.9800 C   0  0  0  0  0  0  0  0  0  0  0  0
   -2.4290   21.3160  -30.8550 C   0  0  0  0  0  0  0  0  0  0  0  0
   -3.3900   21.1810  -31.8660 C   0  0  0  0  0  0  0  0  0  0  0  0
   -3.3020   19.8220  -32.9830 S   0  0  0  0  0  0  0  0  0  0  0  0
   -2.3800   18.7690  -32.4340 O   0  0  0  0  0  0  0  0  0  0  0  0
   -2.7470   20.3070  -34.2930 O   0  0  0  0  0  0  0  0  0  0  0  0
   -4.8980   19.1610  -33.2320 N   0  0  0  0  0  0  0  0  0  0  0  0
   -5.5780   18.9810  -31.9360 C   0  0  0  0  0  0  0  0  0  0  0  0
   -6.8510   18.1270  -32.0940 C   0  0  0  0  0  0  0  0  0  0  0  0
   -7.2110   18.0040  -33.4560 O   0  0  0  0  0  0  0  0  0  0  0  0
   -6.2110   17.2820  -34.1530 C   0  0  0  0  0  0  0  0  0  0  0  0
   -4.8010   17.8750  -33.9390 C   0  0  0  0  0  0  0  0  0  0  0  0
   -4.3900   22.1540  -32.0050 C   0  0  0  0  0  0  0  0  0  0  0  0
   -4.4370   23.2430  -31.1300 C   0  0  0  0  0  0  0  0  0  0  0  0
   -1.9595   21.7356  -25.6869 H   0  0  0  0  0  0  0  0  0  0  0  0
   -2.2826   22.5741  -27.2423 H   0  0  0  0  0  0  0  0  0  0  0  0
   -1.5828   20.9198  -27.2423 H   0  0  0  0  0  0  0  0  0  0  0  0
   -0.0937   23.8019  -24.1126 H   0  0  0  0  0  0  0  0  0  0  0  0
   -0.9061   26.0079  -23.2981 H   0  0  0  0  0  0  0  0  0  0  0  0
   -1.7883   27.6893  -24.9116 H   0  0  0  0  0  0  0  0  0  0  0  0
   -1.8578   27.1715  -27.3439 H   0  0  0  0  0  0  0  0  0  0  0  0
   -3.6412   24.2287  -28.1527 H   0  0  0  0  0  0  0  0  0  0  0  0
   -4.3476   25.2212  -29.4710 H   0  0  0  0  0  0  0  0  0  0  0  0
   -1.7173   22.5071  -29.1911 H   0  0  0  0  0  0  0  0  0  0  0  0
   -1.6344   20.5626  -30.7497 H   0  0  0  0  0  0  0  0  0  0  0  0
   -4.8928   18.4793  -31.2369 H   0  0  0  0  0  0  0  0  0  0  0  0
   -5.8654   19.9704  -31.5507 H   0  0  0  0  0  0  0  0  0  0  0  0
   -6.6664   17.1253  -31.6785 H   0  0  0  0  0  0  0  0  0  0  0  0
   -7.6740   18.6206  -31.5564 H   0  0  0  0  0  0  0  0  0  0  0  0
   -6.2143   16.2410  -33.7977 H   0  0  0  0  0  0  0  0  0  0  0  0
   -6.4409   17.3415  -35.2271 H   0  0  0  0  0  0  0  0  0  0  0  0
   -4.1984   17.1753  -33.3413 H   0  0  0  0  0  0  0  0  0  0  0  0
   -4.3247   18.0359  -34.9174 H   0  0  0  0  0  0  0  0  0  0  0  0
   -5.1394   22.0601  -32.8047 H   0  0  0  0  0  0  0  0  0  0  0  0
   -5.2209   24.0057  -31.2470 H   0  0  0  0  0  0  0  0  0  0  0  0
  1  2  1  0
  2  3  1  0
  3  4  2  0
  4  5  1  0
  5  6  2  0
  6  7  1  0
  7  8  2  0
  8  9  1  0
  9 10  2  0
  9 11  1  0
 11 12  1  0
 12 13  1  0
 13 14  2  0
 14 15  1  0
 15 16  2  0
 16 17  1  0
 17 18  2  0
 17 19  2  0
 17 20  1  0
 20 21  1  0
 21 22  1  0
 22 23  1  0
 23 24  1  0
 24 25  1  0
 16 26  1  0
 26 27  2  0
  8  3  1  0
 27 13  1  0
 25 20  1  0
  1 28  1  0
  1 29  1  0
  1 30  1  0
  4 31  1  0
  5 32  1  0
  6 33  1  0
  7 34  1  0
 12 35  1  0
 12 36  1  0
 14 37  1  0
 15 38  1  0
 21 39  1  0
 21 40  1  0
 22 41  1  0
 22 42  1  0
 24 43  1  0
 24 44  1  0
 25 45  1  0
 25 46  1  0
 26 47  1  0
 27 48  1  0
M  CHG  1  11  -1
M  END
>  <UniqueID>  (46) 
44

>  <SMILES>  (46) 
CSc1ccccc1C(=O)[N-]Cc1ccc(S(=O)(=O)N2CCOCC2)cc1

>  <Energy>  (46) 
54.16016753514505

>  <Genealogy>  (46) 
CSc1ccccc1C(=O)[N-]Cc1ccc(S(=O)(=O)N2CCOCC2)cc1 (protonated)
CSc1ccccc1C(=O)[N-]Cc1ccc(S(=O)(=O)N2CCOCC2)cc1 (3D coordinates assigned)
CSc1ccccc1C(=O)[N-]Cc1ccc(S(=O)(=O)N2CCOCC2)cc1 (nonaromatic ring conformer: 54.16016753514505 kcal/mol)

>  <smiles>  (46) 
CSc1ccccc1C(=O)NCc1ccc(S(=O)(=O)N2CCOCC2)cc1

>  <score_type>  (46) 
oracle

>  <origin>  (46) 
adgpu

>  <m_score__min__energy>  (46) 
-11.17

>  <m_primary>  (46) 
energy

$$$$
46:0
     RDKit          3D

 48 51  0  0  0  0  0  0  0  0999 V2000
   -0.8560   19.8800  -31.0020 C   0  0  0  0  0  0  0  0  0  0  0  0
   -0.7280   20.6990  -32.2210 N   0  0  0  0  0  0  0  0  0  0  0  0
   -1.9390   21.5200  -32.4750 C   0  0  0  0  0  0  0  0  0  0  0  0
   -2.8620   20.9660  -33.5850 C   0  0  0  0  0  0  0  0  0  0  0  0
   -2.7430   19.5100  -33.7000 N   0  0  0  0  0  0  0  0  0  0  0  0
   -3.8960   18.7160  -34.0300 C   0  0  0  0  0  0  0  0  0  0  0  0
   -3.8460   17.9420  -35.0240 O   0  0  0  0  0  0  0  0  0  0  0  0
   -5.1330   18.7750  -33.2170 C   0  0  0  0  0  0  0  0  0  0  0  0
   -5.4430   17.7490  -32.3090 C   0  0  0  0  0  0  0  0  0  0  0  0
   -6.6230   17.7990  -31.5640 C   0  0  0  0  0  0  0  0  0  0  0  0
   -7.5130   18.8620  -31.7280 C   0  0  0  0  0  0  0  0  0  0  0  0
   -7.2270   19.8880  -32.6390 C   0  0  0  0  0  0  0  0  0  0  0  0
   -8.1120   21.0010  -32.8140 N   0  0  0  0  0  0  0  0  0  0  0  0
   -7.9480   22.5190  -31.9930 S   0  0  0  0  0  0  0  0  0  0  0  0
   -8.1480   23.6330  -32.9890 O   0  0  0  0  0  0  0  0  0  0  0  0
   -9.0240   22.6310  -30.9460 O   0  0  0  0  0  0  0  0  0  0  0  0
   -6.3550   22.7070  -31.2590 C   0  0  0  0  0  0  0  0  0  0  0  0
   -5.6140   21.5600  -30.8720 C   0  0  0  0  0  0  0  0  0  0  0  0
   -4.3300   21.6950  -30.3070 C   0  0  0  0  0  0  0  0  0  0  0  0
   -3.8250   22.9860  -30.1420 C   0  0  0  0  0  0  0  0  0  0  0  0
   -2.6250   23.4160  -29.6270 C   0  0  0  0  0  0  0  0  0  0  0  0
   -2.6920   24.8010  -29.7240 C   0  0  0  0  0  0  0  0  0  0  0  0
   -1.6830   25.6620  -29.3140 O   0  0  0  0  0  0  0  0  0  0  0  0
   -3.8550   25.2340  -30.2680 N   0  0  0  0  0  0  0  0  0  0  0  0
   -4.5340   24.0980  -30.5180 C   0  0  0  0  0  0  0  0  0  0  0  0
   -5.8040   23.9960  -31.0860 C   0  0  0  0  0  0  0  0  0  0  0  0
   -6.0330   19.8450  -33.3700 C   0  0  0  0  0  0  0  0  0  0  0  0
   -1.4110   18.9050  -33.8190 C   0  0  0  0  0  0  0  0  0  0  0  0
   -0.3150   19.8940  -33.3900 C   0  0  0  0  0  0  0  0  0  0  0  0
   -0.7554   20.5236  -30.1156 H   0  0  0  0  0  0  0  0  0  0  0  0
   -1.8414   19.3913  -30.9904 H   0  0  0  0  0  0  0  0  0  0  0  0
   -0.0667   19.1139  -30.9904 H   0  0  0  0  0  0  0  0  0  0  0  0
   -2.5185   21.5771  -31.5417 H   0  0  0  0  0  0  0  0  0  0  0  0
   -1.5864   22.5031  -32.8201 H   0  0  0  0  0  0  0  0  0  0  0  0
   -3.9045   21.2223  -33.3450 H   0  0  0  0  0  0  0  0  0  0  0  0
   -2.5609   21.4154  -34.5428 H   0  0  0  0  0  0  0  0  0  0  0  0
   -4.7526   16.9018  -32.1842 H   0  0  0  0  0  0  0  0  0  0  0  0
   -6.8520   16.9982  -30.8455 H   0  0  0  0  0  0  0  0  0  0  0  0
   -8.4421   18.8945  -31.1401 H   0  0  0  0  0  0  0  0  0  0  0  0
   -6.0452   20.5581  -31.0141 H   0  0  0  0  0  0  0  0  0  0  0  0
   -3.7455   20.8130  -30.0062 H   0  0  0  0  0  0  0  0  0  0  0  0
   -1.8014   22.8047  -29.2296 H   0  0  0  0  0  0  0  0  0  0  0  0
   -6.3608   24.8944  -31.3907 H   0  0  0  0  0  0  0  0  0  0  0  0
   -5.7963   20.6579  -34.0723 H   0  0  0  0  0  0  0  0  0  0  0  0
   -1.3624   18.0135  -33.1764 H   0  0  0  0  0  0  0  0  0  0  0  0
   -1.2435   18.6319  -34.8713 H   0  0  0  0  0  0  0  0  0  0  0  0
    0.5924   19.3290  -33.1304 H   0  0  0  0  0  0  0  0  0  0  0  0
   -0.1273   20.5807  -34.2286 H   0  0  0  0  0  0  0  0  0  0  0  0
  1  2  1  0
  2  3  1  0
  3  4  1  0
  4  5  1  0
  5  6  1  0
  6  7  2  0
  6  8  1  0
  8  9  2  0
  9 10  1  0
 10 11  2  0
 11 12  1  0
 12 13  1  0
 13 14  1  0
 14 15  2  0
 14 16  2  0
 14 17  1  0
 17 18  2  0
 18 19  1  0
 19 20  2  0
 20 21  1  0
 21 22  2  0
 22 23  1  0
 22 24  1  0
 24 25  1  0
 25 26  2  0
 12 27  2  0
  5 28  1  0
 28 29  1  0
 29  2  1  0
 27  8  1  0
 26 17  1  0
 25 20  1  0
  1 30  1  0
  1 31  1  0
  1 32  1  0
  3 33  1  0
  3 34  1  0
  4 35  1  0
  4 36  1  0
  9 37  1  0
 10 38  1  0
 11 39  1  0
 18 40  1  0
 19 41  1  0
 21 42  1  0
 26 43  1  0
 27 44  1  0
 28 45  1  0
 28 46  1  0
 29 47  1  0
 29 48  1  0
M  CHG  3  13  -1  23  -1  24  -1
M  END
>  <UniqueID>  (47) 
45

>  <SMILES>  (47) 
CN1CCN(C(=O)c2cccc([N-]S(=O)(=O)c3ccc4cc([O-])[n-]c4c3)c2)CC1

>  <Energy>  (47) 
102.35190744425051

>  <Genealogy>  (47) 
CN1CCN(C(=O)c2cccc([N-]S(=O)(=O)c3ccc4cc([O-])[n-]c4c3)c2)CC1 (protonated)
CN1CCN(C(=O)c2cccc([N-]S(=O)(=O)c3ccc4cc([O-])[n-]c4c3)c2)CC1 (3D coordinates assigned)
CN1CCN(C(=O)c2cccc([N-]S(=O)(=O)c3ccc4cc([O-])[n-]c4c3)c2)CC1 (nonaromatic ring conformer: 102.35190744425051 kcal/mol)

>  <smiles>  (47) 
CN1CCN(C(=O)c2cccc(NS(=O)(=O)c3ccc4cc(O)[nH]c4c3)c2)CC1

>  <score_type>  (47) 
oracle

>  <origin>  (47) 
adgpu

>  <m_score__min__energy>  (47) 
-13.550000000000001

>  <m_primary>  (47) 
energy

$$$$
47:0
     RDKit          3D

 53 56  0  0  0  0  0  0  0  0999 V2000
   -4.6810   24.9660  -31.1690 O   0  0  0  0  0  0  0  0  0  0  0  0
   -4.3500   24.0500  -30.3680 C   0  0  0  0  0  0  0  0  0  0  0  0
   -5.2720   22.9970  -30.0520 N   0  0  0  0  0  0  0  0  0  0  0  0
   -6.4460   22.6350  -30.7930 C   0  0  0  0  0  0  0  0  0  0  0  0
   -7.3180   23.6510  -31.2060 C   0  0  0  0  0  0  0  0  0  0  0  0
   -8.4600   23.3440  -31.9500 C   0  0  0  0  0  0  0  0  0  0  0  0
   -8.7320   22.0200  -32.3020 C   0  0  0  0  0  0  0  0  0  0  0  0
   -7.8550   20.9960  -31.9210 C   0  0  0  0  0  0  0  0  0  0  0  0
   -8.1860   19.3270  -32.3950 S   0  0  0  0  0  0  0  0  0  0  0  0
   -8.2480   18.4660  -31.1640 O   0  0  0  0  0  0  0  0  0  0  0  0
   -9.5270   19.2670  -33.0740 O   0  0  0  0  0  0  0  0  0  0  0  0
   -6.9610   18.7080  -33.4760 N   0  0  0  0  0  0  0  0  0  0  0  0
   -5.6410   19.2670  -33.1300 C   0  0  0  0  0  0  0  0  0  0  0  0
   -4.5860   18.9050  -34.1970 C   0  0  0  0  0  0  0  0  0  0  0  0
   -4.9210   17.6020  -34.9430 C   0  0  0  0  0  0  0  0  0  0  0  0
   -5.6550   16.6160  -34.0320 C   0  0  0  0  0  0  0  0  0  0  0  0
   -6.9500   17.2250  -33.4470 C   0  0  0  0  0  0  0  0  0  0  0  0
   -6.7110   21.3070  -31.1710 C   0  0  0  0  0  0  0  0  0  0  0  0
   -2.9900   24.0420  -29.8010 C   0  0  0  0  0  0  0  0  0  0  0  0
   -2.0210   23.1320  -30.2340 C   0  0  0  0  0  0  0  0  0  0  0  0
   -0.7570   23.1610  -29.6560 C   0  0  0  0  0  0  0  0  0  0  0  0
   -0.4780   24.0950  -28.6590 C   0  0  0  0  0  0  0  0  0  0  0  0
    0.6570   24.0920  -28.1110 O   0  0  0  0  0  0  0  0  0  0  0  0
   -1.4490   24.9840  -28.2730 N   0  0  0  0  0  0  0  0  0  0  0  0
   -1.2110   25.9680  -27.2480 C   0  0  0  0  0  0  0  0  0  0  0  0
   -0.5110   27.1550  -27.5330 C   0  0  0  0  0  0  0  0  0  0  0  0
   -0.3060   28.1110  -26.5330 C   0  0  0  0  0  0  0  0  0  0  0  0
   -0.8040   27.8950  -25.2440 C   0  0  0  0  0  0  0  0  0  0  0  0
   -1.5130   26.7270  -24.9570 C   0  0  0  0  0  0  0  0  0  0  0  0
   -1.7230   25.7690  -25.9540 C   0  0  0  0  0  0  0  0  0  0  0  0
   -2.6640   24.9370  -28.8290 N   0  0  0  0  0  0  0  0  0  0  0  0
   -7.1021   24.6970  -30.9428 H   0  0  0  0  0  0  0  0  0  0  0  0
   -9.1461   24.1464  -32.2591 H   0  0  0  0  0  0  0  0  0  0  0  0
   -9.6370   21.7807  -32.8797 H   0  0  0  0  0  0  0  0  0  0  0  0
   -7.2230   19.0280  -34.4380 H   0  0  0  0  0  0  0  0  0  0  0  0
   -5.7215   20.3619  -33.0616 H   0  0  0  0  0  0  0  0  0  0  0  0
   -5.3234   18.8412  -32.1668 H   0  0  0  0  0  0  0  0  0  0  0  0
   -4.5290   19.7248  -34.9282 H   0  0  0  0  0  0  0  0  0  0  0  0
   -3.6270   18.7551  -33.6794 H   0  0  0  0  0  0  0  0  0  0  0  0
   -5.5606   17.8372  -35.8065 H   0  0  0  0  0  0  0  0  0  0  0  0
   -3.9799   17.1375  -35.2726 H   0  0  0  0  0  0  0  0  0  0  0  0
   -5.9151   15.7199  -34.6145 H   0  0  0  0  0  0  0  0  0  0  0  0
   -4.9879   16.3650  -33.1942 H   0  0  0  0  0  0  0  0  0  0  0  0
   -7.8054   16.8571  -34.0327 H   0  0  0  0  0  0  0  0  0  0  0  0
   -7.0096   16.9174  -32.3926 H   0  0  0  0  0  0  0  0  0  0  0  0
   -6.0165   20.5063  -30.8766 H   0  0  0  0  0  0  0  0  0  0  0  0
   -2.2559   22.4019  -31.0225 H   0  0  0  0  0  0  0  0  0  0  0  0
    0.0178   22.4519  -29.9830 H   0  0  0  0  0  0  0  0  0  0  0  0
   -0.1232   27.3318  -28.5471 H   0  0  0  0  0  0  0  0  0  0  0  0
    0.2476   29.0339  -26.7605 H   0  0  0  0  0  0  0  0  0  0  0  0
   -0.6372   28.6450  -24.4568 H   0  0  0  0  0  0  0  0  0  0  0  0
   -1.9075   26.5598  -23.9439 H   0  0  0  0  0  0  0  0  0  0  0  0
   -2.2914   24.8556  -25.7246 H   0  0  0  0  0  0  0  0  0  0  0  0
  1  2  2  0
  2  3  1  0
  3  4  1  0
  4  5  2  0
  5  6  1  0
  6  7  2  0
  7  8  1  0
  8  9  1  0
  9 10  2  0
  9 11  2  0
  9 12  1  0
 12 13  1  0
 13 14  1  0
 14 15  1  0
 15 16  1  0
 16 17  1  0
  8 18  2  0
  2 19  1  0
 19 20  1  0
 20 21  2  0
 21 22  1  0
 22 23  2  0
 22 24  1  0
 24 25  1  0
 25 26  2  0
 26 27  1  0
 27 28  2  0
 28 29  1  0
 29 30  2  0
 24 31  1  0
 18  4  1  0
 31 19  2  0
 17 12  1  0
 30 25  1  0
  5 32  1  0
  6 33  1  0
  7 34  1  0
 12 35  1  0
 13 36  1  0
 13 37  1  0
 14 38  1  0
 14 39  1  0
 15 40  1  0
 15 41  1  0
 16 42  1  0
 16 43  1  0
 17 44  1  0
 17 45  1  0
 18 46  1  0
 20 47  1  0
 21 48  1  0
 26 49  1  0
 27 50  1  0
 28 51  1  0
 29 52  1  0
 30 53  1  0
M  CHG  2   3  -1  12   1
M  END
>  <UniqueID>  (48) 
46

>  <SMILES>  (48) 
O=C([N-]c1cccc(S(=O)(=O)[NH+]2CCCCC2)c1)c1ccc(=O)n(-c2ccccc2)n1

>  <Energy>  (48) 
70.41128064112036

>  <Genealogy>  (48) 
O=C([N-]c1cccc(S(=O)(=O)[NH+]2CCCCC2)c1)c1ccc(=O)n(-c2ccccc2)n1 (protonated)
O=C([N-]c1cccc(S(=O)(=O)[NH+]2CCCCC2)c1)c1ccc(=O)n(-c2ccccc2)n1 (3D coordinates assigned)
O=C([N-]c1cccc(S(=O)(=O)[NH+]2CCCCC2)c1)c1ccc(=O)n(-c2ccccc2)n1 (nonaromatic ring conformer: 70.41128064112036 kcal/mol)

>  <smiles>  (48) 
O=C(Nc1cccc(S(=O)(=O)N2CCCCC2)c1)c1ccc(=O)n(-c2ccccc2)n1

>  <score_type>  (48) 
oracle

>  <origin>  (48) 
adgpu

>  <m_score__min__energy>  (48) 
-11.609999999999999

>  <m_primary>  (48) 
energy

$$$$
48:0
     RDKit          3D

 52 54  0  0  0  0  0  0  0  0999 V2000
   -5.8880   16.6210  -32.7190 C   0  0  0  0  0  0  0  0  0  0  0  0
   -5.2810   17.9800  -32.9470 C   0  0  0  0  0  0  0  0  0  0  0  0
   -4.0910   18.1100  -33.5590 C   0  0  0  0  0  0  0  0  0  0  0  0
   -3.3810   16.9530  -34.0300 N   0  0  0  0  0  0  0  0  0  0  0  0
   -3.6120   16.4960  -35.4000 C   0  0  0  0  0  0  0  0  0  0  0  0
   -2.1510   16.5530  -33.3510 C   0  0  0  0  0  0  0  0  0  0  0  0
   -3.4720   19.4460  -33.6900 C   0  0  0  0  0  0  0  0  0  0  0  0
   -2.4490   19.5760  -34.4170 O   0  0  0  0  0  0  0  0  0  0  0  0
   -3.9970   20.5740  -32.9510 N   0  0  0  0  0  0  0  0  0  0  0  0
   -3.1070   21.7330  -32.7290 C   0  0  0  0  0  0  0  0  0  0  0  0
   -2.1660   21.5120  -31.5700 C   0  0  0  0  0  0  0  0  0  0  0  0
   -2.1500   22.4110  -30.4890 C   0  0  0  0  0  0  0  0  0  0  0  0
   -1.2760   22.2120  -29.4160 C   0  0  0  0  0  0  0  0  0  0  0  0
   -0.4030   21.1150  -29.4130 C   0  0  0  0  0  0  0  0  0  0  0  0
    0.4710   20.9040  -28.3490 O   0  0  0  0  0  0  0  0  0  0  0  0
   -0.4090   20.2220  -30.4900 C   0  0  0  0  0  0  0  0  0  0  0  0
   -1.2800   20.4210  -31.5640 C   0  0  0  0  0  0  0  0  0  0  0  0
   -5.1160   20.3170  -32.0150 C   0  0  1  0  0  0  0  0  0  0  0  0
   -5.9190   21.5720  -31.7070 C   0  0  0  0  0  0  0  0  0  0  0  0
   -7.3090   21.6130  -31.9110 C   0  0  0  0  0  0  0  0  0  0  0  0
   -8.0280   22.7780  -31.6440 C   0  0  0  0  0  0  0  0  0  0  0  0
   -7.3740   23.9160  -31.1710 C   0  0  0  0  0  0  0  0  0  0  0  0
   -5.9840   23.9030  -30.9580 C   0  0  0  0  0  0  0  0  0  0  0  0
   -5.2900   25.1130  -30.4600 C   0  0  0  0  0  0  0  0  0  0  0  0
   -3.8780   25.2540  -30.6120 N   0  0  0  0  0  0  0  0  0  0  0  0
   -5.9410   26.0320  -29.8950 O   0  0  0  0  0  0  0  0  0  0  0  0
   -5.2660   22.7230  -31.2290 C   0  0  0  0  0  0  0  0  0  0  0  0
   -6.0520   19.2130  -32.5530 C   0  0  0  0  0  0  0  0  0  0  0  0
   -5.9718   16.4335  -31.6383 H   0  0  0  0  0  0  0  0  0  0  0  0
   -6.8879   16.5847  -33.1760 H   0  0  0  0  0  0  0  0  0  0  0  0
   -5.2478   15.8521  -33.1760 H   0  0  0  0  0  0  0  0  0  0  0  0
   -4.1081   15.5144  -35.3804 H   0  0  0  0  0  0  0  0  0  0  0  0
   -4.2524   17.2201  -35.9250 H   0  0  0  0  0  0  0  0  0  0  0  0
   -2.6492   16.4098  -35.9250 H   0  0  0  0  0  0  0  0  0  0  0  0
   -2.3007   16.6017  -32.2623 H   0  0  0  0  0  0  0  0  0  0  0  0
   -1.8908   15.5239  -33.6397 H   0  0  0  0  0  0  0  0  0  0  0  0
   -1.3353   17.2322  -33.6397 H   0  0  0  0  0  0  0  0  0  0  0  0
   -2.5142   21.9046  -33.6395 H   0  0  0  0  0  0  0  0  0  0  0  0
   -3.7367   22.6035  -32.4930 H   0  0  0  0  0  0  0  0  0  0  0  0
   -2.8293   23.2762  -30.4875 H   0  0  0  0  0  0  0  0  0  0  0  0
   -1.2733   22.9177  -28.5723 H   0  0  0  0  0  0  0  0  0  0  0  0
    1.4550   20.7170  -28.5020 H   0  0  0  0  0  0  0  0  0  0  0  0
    0.2745   19.3601  -30.4911 H   0  0  0  0  0  0  0  0  0  0  0  0
   -1.2723   19.7190  -32.4108 H   0  0  0  0  0  0  0  0  0  0  0  0
   -4.6586   19.9745  -31.0751 H   0  0  0  0  0  0  0  0  0  0  0  0
   -7.8332   20.7206  -32.2836 H   0  0  0  0  0  0  0  0  0  0  0  0
   -9.1156   22.7996  -31.8071 H   0  0  0  0  0  0  0  0  0  0  0  0
   -7.9498   24.8300  -30.9632 H   0  0  0  0  0  0  0  0  0  0  0  0
   -3.4760   26.0020  -31.2210 H   0  0  0  0  0  0  0  0  0  0  0  0
   -4.1786   22.7004  -31.0647 H   0  0  0  0  0  0  0  0  0  0  0  0
   -6.7772   18.9463  -31.7701 H   0  0  0  0  0  0  0  0  0  0  0  0
   -6.5648   19.5998  -33.4460 H   0  0  0  0  0  0  0  0  0  0  0  0
  1  2  1  0
  2  3  2  0
  3  4  1  0
  4  5  1  0
  4  6  1  0
  3  7  1  0
  7  8  2  0
  7  9  1  0
  9 10  1  0
 10 11  1  0
 11 12  2  0
 12 13  1  0
 13 14  2  0
 14 15  1  0
 14 16  1  0
 16 17  2  0
  9 18  1  0
 18 19  1  0
 19 20  2  0
 20 21  1  0
 21 22  2  0
 22 23  1  0
 23 24  1  0
 24 25  1  0
 24 26  2  0
 23 27  2  0
 18 28  1  0
 28  2  1  0
 17 11  1  0
 27 19  1  0
  1 29  1  0
  1 30  1  0
  1 31  1  0
  5 32  1  0
  5 33  1  0
  5 34  1  0
  6 35  1  0
  6 36  1  0
  6 37  1  0
 10 38  1  0
 10 39  1  0
 12 40  1  0
 13 41  1  0
 15 42  1  0
 16 43  1  0
 17 44  1  0
 18 45  1  1
 20 46  1  0
 21 47  1  0
 22 48  1  0
 25 49  1  0
 27 50  1  0
 28 51  1  0
 28 52  1  0
M  CHG  1  25  -1
M  END
>  <UniqueID>  (49) 
47

>  <SMILES>  (49) 
CC1=C(N(C)C)C(=O)N(Cc2ccc(O)cc2)[C@@H](c2cccc(C([NH-])=O)c2)C1

>  <Energy>  (49) 
59.23807238226678

>  <Genealogy>  (49) 
CC1=C(N(C)C)C(=O)N(Cc2ccc(O)cc2)C(c2cccc(C([NH-])=O)c2)C1 (protonated)
CC1=C(N(C)C)C(=O)N(Cc2ccc(O)cc2)[C@@H](c2cccc(C([NH-])=O)c2)C1 (chirality)
CC1=C(N(C)C)C(=O)N(Cc2ccc(O)cc2)[C@@H](c2cccc(C([NH-])=O)c2)C1 (3D coordinates assigned)
CC1=C(N(C)C)C(=O)N(Cc2ccc(O)cc2)[C@@H](c2cccc(C([NH-])=O)c2)C1 (nonaromatic ring conformer: 59.23807238226678 kcal/mol)

>  <smiles>  (49) 
CC1=C(N(C)C)C(=O)N(Cc2ccc(O)cc2)C(c2cccc(C(N)=O)c2)C1

>  <score_type>  (49) 
oracle

>  <origin>  (49) 
adgpu

>  <m_score__min__energy>  (49) 
-10.529999999999999

>  <m_primary>  (49) 
energy

$$$$
49:0
     RDKit          3D

 51 54  0  0  0  0  0  0  0  0999 V2000
   -1.5250   22.4660  -30.5840 O   0  0  0  0  0  0  0  0  0  0  0  0
   -2.5210   23.0890  -29.6470 S   0  0  0  0  0  0  0  0  0  0  0  0
   -2.6940   22.2290  -28.4280 O   0  0  0  0  0  0  0  0  0  0  0  0
   -1.9490   24.6590  -29.1830 N   0  0  0  0  0  0  0  0  0  0  0  0
   -1.2220   24.9580  -27.9830 C   0  0  0  0  0  0  0  0  0  0  0  0
   -1.8350   25.5790  -26.8780 C   0  0  0  0  0  0  0  0  0  0  0  0
   -1.0930   25.8520  -25.7200 C   0  0  0  0  0  0  0  0  0  0  0  0
    0.2600   25.4910  -25.6530 C   0  0  0  0  0  0  0  0  0  0  0  0
    0.8700   24.8640  -26.7480 C   0  0  0  0  0  0  0  0  0  0  0  0
    0.1340   24.6050  -27.9080 C   0  0  0  0  0  0  0  0  0  0  0  0
    0.7540   23.9890  -28.9880 O   0  0  0  0  0  0  0  0  0  0  0  0
    1.0080   25.7400  -24.3740 C   0  0  0  0  0  0  0  0  0  0  0  0
    0.6900   27.1410  -23.8250 C   0  0  0  0  0  0  0  0  0  0  0  0
   -0.8130   27.5260  -23.8670 C   0  0  0  0  0  0  0  0  0  0  0  0
   -1.7340   26.4700  -24.5070 C   0  0  0  0  0  0  0  0  0  0  0  0
   -4.0770   23.2530  -30.4620 C   0  0  0  0  0  0  0  0  0  0  0  0
   -4.8140   22.1050  -30.7880 C   0  0  0  0  0  0  0  0  0  0  0  0
   -6.0590   22.2150  -31.4230 C   0  0  0  0  0  0  0  0  0  0  0  0
   -6.9960   20.7730  -31.8080 S   0  0  0  0  0  0  0  0  0  0  0  0
   -7.5480   20.8800  -33.2030 O   0  0  0  0  0  0  0  0  0  0  0  0
   -8.1480   20.6820  -30.8460 O   0  0  0  0  0  0  0  0  0  0  0  0
   -5.9870   19.3500  -31.6570 N   0  0  0  0  0  0  0  0  0  0  0  0
   -5.1530   19.1770  -32.8520 C   0  0  0  0  0  0  0  0  0  0  0  0
   -5.8860   18.2560  -33.8150 C   0  0  0  0  0  0  0  0  0  0  0  0
   -6.9760   17.5920  -32.9940 C   0  0  0  0  0  0  0  0  0  0  0  0
   -6.8150   18.1410  -31.5840 C   0  0  0  0  0  0  0  0  0  0  0  0
   -6.5670   23.4820  -31.7350 C   0  0  0  0  0  0  0  0  0  0  0  0
   -5.8300   24.6280  -31.4320 C   0  0  0  0  0  0  0  0  0  0  0  0
   -4.5850   24.5200  -30.8030 C   0  0  0  0  0  0  0  0  0  0  0  0
   -3.8620   25.6760  -30.5240 O   0  0  0  0  0  0  0  0  0  0  0  0
   -2.8999   25.8510  -26.9233 H   0  0  0  0  0  0  0  0  0  0  0  0
    1.9300   24.5751  -26.6946 H   0  0  0  0  0  0  0  0  0  0  0  0
    0.7137   24.9849  -23.6302 H   0  0  0  0  0  0  0  0  0  0  0  0
    2.0873   25.6748  -24.5759 H   0  0  0  0  0  0  0  0  0  0  0  0
    1.0259   27.1837  -22.7784 H   0  0  0  0  0  0  0  0  0  0  0  0
    1.2133   27.8569  -24.4759 H   0  0  0  0  0  0  0  0  0  0  0  0
   -1.1519   27.6944  -22.8341 H   0  0  0  0  0  0  0  0  0  0  0  0
   -0.8848   28.4229  -24.4997 H   0  0  0  0  0  0  0  0  0  0  0  0
   -1.9415   25.6807  -23.7695 H   0  0  0  0  0  0  0  0  0  0  0  0
   -2.6659   26.9640  -24.8192 H   0  0  0  0  0  0  0  0  0  0  0  0
   -4.4120   21.1107  -30.5435 H   0  0  0  0  0  0  0  0  0  0  0  0
   -4.9797   20.1528  -33.3294 H   0  0  0  0  0  0  0  0  0  0  0  0
   -4.1809   18.7421  -32.5767 H   0  0  0  0  0  0  0  0  0  0  0  0
   -6.3257   18.8349  -34.6405 H   0  0  0  0  0  0  0  0  0  0  0  0
   -5.2084   17.5163  -34.2664 H   0  0  0  0  0  0  0  0  0  0  0  0
   -7.9682   17.8468  -33.3947 H   0  0  0  0  0  0  0  0  0  0  0  0
   -6.8930   16.4954  -33.0167 H   0  0  0  0  0  0  0  0  0  0  0  0
   -7.8016   18.3895  -31.1658 H   0  0  0  0  0  0  0  0  0  0  0  0
   -6.3382   17.3913  -30.9355 H   0  0  0  0  0  0  0  0  0  0  0  0
   -7.5498   23.5745  -32.2203 H   0  0  0  0  0  0  0  0  0  0  0  0
   -6.2297   25.6201  -31.6888 H   0  0  0  0  0  0  0  0  0  0  0  0
  1  2  2  0
  2  3  2  0
  2  4  1  0
  4  5  1  0
  5  6  2  0
  6  7  1  0
  7  8  2  0
  8  9  1  0
  9 10  2  0
 10 11  1  0
  8 12  1  0
 12 13  1  0
 13 14  1  0
 14 15  1  0
  2 16  1  0
 16 17  2  0
 17 18  1  0
 18 19  1  0
 19 20  2  0
 19 21  2  0
 19 22  1  0
 22 23  1  0
 23 24  1  0
 24 25  1  0
 25 26  1  0
 18 27  2  0
 27 28  1  0
 28 29  2  0
 29 30  1  0
 10  5  1  0
 29 16  1  0
 15  7  1  0
 26 22  1  0
  6 31  1  0
  9 32  1  0
 12 33  1  0
 12 34  1  0
 13 35  1  0
 13 36  1  0
 14 37  1  0
 14 38  1  0
 15 39  1  0
 15 40  1  0
 17 41  1  0
 23 42  1  0
 23 43  1  0
 24 44  1  0
 24 45  1  0
 25 46  1  0
 25 47  1  0
 26 48  1  0
 26 49  1  0
 27 50  1  0
 28 51  1  0
M  CHG  3   4  -1  11  -1  30  -1
M  END
>  <UniqueID>  (50) 
48

>  <SMILES>  (50) 
O=S(=O)([N-]c1cc2c(cc1[O-])CCCC2)c1cc(S(=O)(=O)N2CCCC2)ccc1[O-]

>  <Energy>  (50) 
63.78625508620376

>  <Genealogy>  (50) 
O=S(=O)([N-]c1cc2c(cc1[O-])CCCC2)c1cc(S(=O)(=O)N2CCCC2)ccc1[O-] (protonated)
O=S(=O)([N-]c1cc2c(cc1[O-])CCCC2)c1cc(S(=O)(=O)N2CCCC2)ccc1[O-] (3D coordinates assigned)
O=S(=O)([N-]c1cc2c(cc1[O-])CCCC2)c1cc(S(=O)(=O)N2CCCC2)ccc1[O-] (nonaromatic ring conformer: 63.78625508620376 kcal/mol)

>  <smiles>  (50) 
O=S(=O)(Nc1cc2c(cc1O)CCCC2)c1cc(S(=O)(=O)N2CCCC2)ccc1O

>  <score_type>  (50) 
oracle

>  <origin>  (50) 
adgpu

>  <m_score__min__energy>  (50) 
-14.550000000000001

>  <m_primary>  (50) 
energy

$$$$
