0:0
     RDKit          3D

 35 37  0  0  0  0  0  0  0  0999 V2000
   -1.6420   26.3710  -25.1500 C   0  0  0  0  0  0  0  0  0  0  0  0
   -1.3870   25.2560  -25.9980 O   0  0  0  0  0  0  0  0  0  0  0  0
   -2.2340   24.8340  -27.0350 C   0  0  0  0  0  0  0  0  0  0  0  0
   -3.6060   24.5980  -26.8290 C   0  0  0  0  0  0  0  0  0  0  0  0
   -4.4190   24.1800  -27.8830 C   0  0  0  0  0  0  0  0  0  0  0  0
   -3.8790   23.9900  -29.1650 C   0  0  0  0  0  0  0  0  0  0  0  0
   -4.7440   23.5470  -30.2810 C   0  0  0  0  0  0  0  0  0  0  0  0
   -4.6360   24.0090  -31.5430 N   0  0  0  0  0  0  0  0  0  0  0  0
   -5.5680   23.3850  -32.2390 N   0  0  0  0  0  0  0  0  0  0  0  0
   -6.2270   22.5590  -31.4040 C   0  0  0  0  0  0  0  0  0  0  0  0
   -7.3530   21.6710  -31.7860 C   0  0  0  0  0  0  0  0  0  0  0  0
   -7.0890   20.4120  -32.3540 C   0  0  0  0  0  0  0  0  0  0  0  0
   -8.1500   19.5780  -32.7130 C   0  0  0  0  0  0  0  0  0  0  0  0
   -9.4320   19.9800  -32.5140 N   0  0  0  0  0  0  0  0  0  0  0  0
   -9.7220   21.1890  -31.9680 C   0  0  0  0  0  0  0  0  0  0  0  0
   -8.6920   22.0570  -31.5950 C   0  0  0  0  0  0  0  0  0  0  0  0
   -5.7310   22.6340  -30.1500 N   0  0  0  0  0  0  0  0  0  0  0  0
   -2.5100   24.2260  -29.3720 C   0  0  0  0  0  0  0  0  0  0  0  0
   -1.6840   24.6480  -28.3110 C   0  0  0  0  0  0  0  0  0  0  0  0
   -0.3120   24.8910  -28.4870 O   0  0  0  0  0  0  0  0  0  0  0  0
    0.7270   24.1560  -27.8480 C   0  0  0  0  0  0  0  0  0  0  0  0
   -1.5700   26.0560  -24.0985 H   0  0  0  0  0  0  0  0  0  0  0  0
   -0.9010   27.1594  -25.3482 H   0  0  0  0  0  0  0  0  0  0  0  0
   -2.6521   26.7590  -25.3482 H   0  0  0  0  0  0  0  0  0  0  0  0
   -4.0408   24.7442  -25.8292 H   0  0  0  0  0  0  0  0  0  0  0  0
   -5.4897   23.9982  -27.7085 H   0  0  0  0  0  0  0  0  0  0  0  0
   -5.7290   23.5370  -33.2580 H   0  0  0  0  0  0  0  0  0  0  0  0
   -6.0510   20.0854  -32.5149 H   0  0  0  0  0  0  0  0  0  0  0  0
   -7.9469   18.5928  -33.1582 H   0  0  0  0  0  0  0  0  0  0  0  0
  -10.7706   21.4861  -31.8188 H   0  0  0  0  0  0  0  0  0  0  0  0
   -8.9273   23.0370  -31.1543 H   0  0  0  0  0  0  0  0  0  0  0  0
   -2.0779   24.0799  -30.3730 H   0  0  0  0  0  0  0  0  0  0  0  0
    0.6146   24.2355  -26.7566 H   0  0  0  0  0  0  0  0  0  0  0  0
    0.6658   23.0992  -28.1469 H   0  0  0  0  0  0  0  0  0  0  0  0
    1.7032   24.5656  -28.1469 H   0  0  0  0  0  0  0  0  0  0  0  0
  1  2  1  0
  2  3  1  0
  3  4  2  0
  4  5  1  0
  5  6  2  0
  6  7  1  0
  7  8  2  0
  8  9  1  0
  9 10  1  0
 10 11  1  0
 11 12  2  0
 12 13  1  0
 13 14  2  0
 14 15  1  0
 15 16  2  0
 10 17  2  0
  6 18  1  0
 18 19  2  0
 19 20  1  0
 20 21  1  0
 19  3  1  0
 17  7  1  0
 16 11  1  0
  1 22  1  0
  1 23  1  0
  1 24  1  0
  4 25  1  0
  5 26  1  0
  9 27  1  0
 12 28  1  0
 13 29  1  0
 15 30  1  0
 16 31  1  0
 18 32  1  0
 21 33  1  0
 21 34  1  0
 21 35  1  0
M  END
>  <UniqueID>  (1) 
1

>  <SMILES>  (1) 
COc1ccc(-c2n[nH]c(-c3ccncc3)n2)cc1OC

>  <Energy>  (1) 
71.92853351642441

>  <Genealogy>  (1) 
COc1ccc(-c2n[nH]c(-c3ccncc3)n2)cc1OC (3D coordinates assigned)
COc1ccc(-c2n[nH]c(-c3ccncc3)n2)cc1OC (optimized conformer: 71.92853351642441 kcal/mol)

>  <smiles>  (1) 
COc1ccc(-c2n[nH]c(-c3ccncc3)n2)cc1OC

>  <score_type>  (1) 
oracle

>  <origin>  (1) 
adgpu

>  <m_score__min__energy>  (1) 
-7.2199999999999998

>  <m_primary>  (1) 
energy

$$$$
1:0
     RDKit          3D

 41 44  0  0  0  0  0  0  0  0999 V2000
   -6.4800   25.6790  -29.0820 C   0  0  0  0  0  0  0  0  0  0  0  0
   -5.2550   24.8920  -29.2550 N   0  0  0  0  0  0  0  0  0  0  0  0
   -4.5910   24.2940  -28.0830 C   0  0  0  0  0  0  0  0  0  0  0  0
   -3.2620   23.6970  -28.4700 C   0  0  0  0  0  0  0  0  0  0  0  0
   -2.1420   24.5280  -28.6360 C   0  0  0  0  0  0  0  0  0  0  0  0
   -0.8990   23.9770  -28.9630 C   0  0  0  0  0  0  0  0  0  0  0  0
   -0.7660   22.5950  -29.1240 C   0  0  0  0  0  0  0  0  0  0  0  0
   -1.8760   21.7610  -28.9580 C   0  0  0  0  0  0  0  0  0  0  0  0
   -3.1220   22.3090  -28.6340 C   0  0  0  0  0  0  0  0  0  0  0  0
   -4.8100   24.5990  -30.5970 C   0  0  0  0  0  0  0  0  0  0  0  0
   -4.0960   25.4370  -31.2120 O   0  0  0  0  0  0  0  0  0  0  0  0
   -5.1890   23.3580  -31.2900 C   0  0  0  0  0  0  0  0  0  0  0  0
   -6.4870   22.8870  -31.4880 C   0  0  0  0  0  0  0  0  0  0  0  0
   -6.5150   21.6670  -32.1770 C   0  0  0  0  0  0  0  0  0  0  0  0
   -7.6530   20.9390  -32.5400 C   0  0  0  0  0  0  0  0  0  0  0  0
   -8.8050   21.3650  -32.2550 O   0  0  0  0  0  0  0  0  0  0  0  0
   -7.5060   19.7580  -33.2110 N   0  0  0  0  0  0  0  0  0  0  0  0
   -6.2710   19.2600  -33.5410 C   0  0  0  0  0  0  0  0  0  0  0  0
   -6.1540   18.0440  -34.2320 C   0  0  0  0  0  0  0  0  0  0  0  0
   -4.8930   17.5420  -34.5640 C   0  0  0  0  0  0  0  0  0  0  0  0
   -3.7380   18.2460  -34.2120 C   0  0  0  0  0  0  0  0  0  0  0  0
   -3.8340   19.4580  -33.5240 C   0  0  0  0  0  0  0  0  0  0  0  0
   -5.0960   19.9730  -33.1850 C   0  0  0  0  0  0  0  0  0  0  0  0
   -5.2590   21.1780  -32.4990 C   0  0  0  0  0  0  0  0  0  0  0  0
   -4.0890   22.2480  -31.9340 S   0  0  0  0  0  0  0  0  0  0  0  0
   -6.6834   25.8097  -28.0089 H   0  0  0  0  0  0  0  0  0  0  0  0
   -6.3523   26.6645  -29.5537 H   0  0  0  0  0  0  0  0  0  0  0  0
   -7.3233   25.1532  -29.5537 H   0  0  0  0  0  0  0  0  0  0  0  0
   -4.4294   25.0728  -27.3232 H   0  0  0  0  0  0  0  0  0  0  0  0
   -5.2334   23.4964  -27.6816 H   0  0  0  0  0  0  0  0  0  0  0  0
   -2.2429   25.6159  -28.5084 H   0  0  0  0  0  0  0  0  0  0  0  0
   -0.0250   24.6320  -29.0937 H   0  0  0  0  0  0  0  0  0  0  0  0
    0.2124   22.1632  -29.3814 H   0  0  0  0  0  0  0  0  0  0  0  0
   -1.7696   20.6732  -29.0822 H   0  0  0  0  0  0  0  0  0  0  0  0
   -3.9944   21.6510  -28.5074 H   0  0  0  0  0  0  0  0  0  0  0  0
   -7.3881   23.4144  -31.1419 H   0  0  0  0  0  0  0  0  0  0  0  0
   -8.3660   19.2250  -33.4780 H   0  0  0  0  0  0  0  0  0  0  0  0
   -7.0582   17.4842  -34.5132 H   0  0  0  0  0  0  0  0  0  0  0  0
   -4.8089   16.5880  -35.1051 H   0  0  0  0  0  0  0  0  0  0  0  0
   -2.7492   17.8440  -34.4779 H   0  0  0  0  0  0  0  0  0  0  0  0
   -2.9224   20.0083  -33.2481 H   0  0  0  0  0  0  0  0  0  0  0  0
  1  2  1  0
  2  3  1  0
  3  4  1  0
  4  5  2  0
  5  6  1  0
  6  7  2  0
  7  8  1  0
  8  9  2  0
  2 10  1  0
 10 11  2  0
 10 12  1  0
 12 13  2  0
 13 14  1  0
 14 15  1  0
 15 16  2  0
 15 17  1  0
 17 18  1  0
 18 19  2  0
 19 20  1  0
 20 21  2  0
 21 22  1  0
 22 23  2  0
 23 24  1  0
 24 25  1  0
  9  4  1  0
 25 12  1  0
 24 14  2  0
 23 18  1  0
  1 26  1  0
  1 27  1  0
  1 28  1  0
  3 29  1  0
  3 30  1  0
  5 31  1  0
  6 32  1  0
  7 33  1  0
  8 34  1  0
  9 35  1  0
 13 36  1  0
 17 37  1  0
 19 38  1  0
 20 39  1  0
 21 40  1  0
 22 41  1  0
M  END
>  <UniqueID>  (2) 
2

>  <SMILES>  (2) 
CN(Cc1ccccc1)C(=O)c1cc2c(=O)[nH]c3ccccc3c2s1

>  <Energy>  (2) 
81.68433677160385

>  <Genealogy>  (2) 
CN(Cc1ccccc1)C(=O)c1cc2c(=O)[nH]c3ccccc3c2s1 (3D coordinates assigned)
CN(Cc1ccccc1)C(=O)c1cc2c(=O)[nH]c3ccccc3c2s1 (optimized conformer: 81.68433677160385 kcal/mol)

>  <smiles>  (2) 
CN(Cc1ccccc1)C(=O)c1cc2c(=O)[nH]c3ccccc3c2s1

>  <score_type>  (2) 
oracle

>  <origin>  (2) 
adgpu

>  <m_score__min__energy>  (2) 
-9.2300000000000004

>  <m_primary>  (2) 
energy

$$$$
2:0
     RDKit          3D

 76 79  0  0  0  0  0  0  0  0999 V2000
   -3.9340   24.2430  -27.4740 C   0  0  0  0  0  0  0  0  0  0  0  0
   -3.3600   24.0420  -28.7580 O   0  0  0  0  0  0  0  0  0  0  0  0
   -3.9200   23.2330  -29.7620 C   0  0  0  0  0  0  0  0  0  0  0  0
   -3.7670   21.8380  -29.7680 C   0  0  0  0  0  0  0  0  0  0  0  0
   -4.3080   21.0690  -30.7970 C   0  0  0  0  0  0  0  0  0  0  0  0
   -5.0990   21.6640  -31.7960 C   0  0  0  0  0  0  0  0  0  0  0  0
   -5.7080   20.8230  -32.9070 C   0  0  0  0  0  0  0  0  0  0  0  0
   -6.5780   19.6600  -32.4080 C   0  0  0  0  0  0  0  0  0  0  0  0
   -5.8250   18.4120  -32.4530 N   0  0  0  0  0  0  0  0  0  0  0  0
   -5.6130   17.6730  -33.6550 C   0  0  0  0  0  0  0  0  0  0  0  0
   -6.3800   16.7220  -33.9650 O   0  0  0  0  0  0  0  0  0  0  0  0
   -4.5190   18.0940  -34.5820 C   0  0  0  0  0  0  0  0  0  0  0  0
   -3.1900   17.8900  -33.9150 C   0  0  0  0  0  0  0  0  0  0  0  0
   -2.7380   16.7550  -33.2560 C   0  0  0  0  0  0  0  0  0  0  0  0
   -3.4470   15.4440  -33.1510 C   0  0  0  0  0  0  0  0  0  0  0  0
   -1.5370   17.0020  -32.6950 N   0  0  0  0  0  0  0  0  0  0  0  0
   -1.2170   18.2580  -32.9650 N   0  0  0  0  0  0  0  0  0  0  0  0
    0.0020   18.8910  -32.4600 C   0  0  0  0  0  0  0  0  0  0  0  0
   -0.3380   19.8420  -31.3470 C   0  0  0  0  0  0  0  0  0  0  0  0
   -0.4620   19.3850  -30.0270 C   0  0  0  0  0  0  0  0  0  0  0  0
   -0.7190   20.2830  -28.9870 C   0  0  0  0  0  0  0  0  0  0  0  0
   -0.8390   21.6590  -29.2510 C   0  0  0  0  0  0  0  0  0  0  0  0
   -1.1350   22.6060  -28.2080 N   0  0  0  0  0  0  0  0  0  0  0  0
   -0.2700   23.6970  -27.8500 C   0  0  0  0  0  0  0  0  0  0  0  0
    0.5610   24.1470  -28.6860 O   0  0  0  0  0  0  0  0  0  0  0  0
   -0.3610   24.3220  -26.5190 C   0  0  0  0  0  0  0  0  0  0  0  0
   -0.1220   23.7070  -25.2930 C   0  0  0  0  0  0  0  0  0  0  0  0
   -0.2630   24.5680  -24.2000 C   0  0  0  0  0  0  0  0  0  0  0  0
   -0.6190   25.8580  -24.5640 C   0  0  0  0  0  0  0  0  0  0  0  0
   -0.7870   27.0130  -23.6340 C   0  0  0  0  0  0  0  0  0  0  0  0
   -0.7310   25.9410  -26.2410 S   0  0  0  0  0  0  0  0  0  0  0  0
   -0.7350   22.1070  -30.5750 C   0  0  0  0  0  0  0  0  0  0  0  0
   -0.4730   21.2100  -31.6120 C   0  0  0  0  0  0  0  0  0  0  0  0
   -2.2050   18.8390  -33.6840 C   0  0  0  0  0  0  0  0  0  0  0  0
   -2.1890   20.2530  -34.1890 C   0  0  0  0  0  0  0  0  0  0  0  0
   -5.2830   23.0660  -31.7770 C   0  0  0  0  0  0  0  0  0  0  0  0
   -6.1270   23.6560  -32.7220 O   0  0  0  0  0  0  0  0  0  0  0  0
   -7.5430   23.5070  -32.6650 C   0  0  0  0  0  0  0  0  0  0  0  0
   -4.6320   23.8520  -30.7980 C   0  0  0  0  0  0  0  0  0  0  0  0
   -4.6520   25.2520  -30.8430 O   0  0  0  0  0  0  0  0  0  0  0  0
   -5.7340   26.0190  -30.3150 C   0  0  0  0  0  0  0  0  0  0  0  0
   -3.1975   23.9851  -26.6987 H   0  0  0  0  0  0  0  0  0  0  0  0
   -4.2276   25.2974  -27.3646 H   0  0  0  0  0  0  0  0  0  0  0  0
   -4.8213   23.6021  -27.3646 H   0  0  0  0  0  0  0  0  0  0  0  0
   -3.2150   21.3469  -28.9531 H   0  0  0  0  0  0  0  0  0  0  0  0
   -4.1144   19.9866  -30.8279 H   0  0  0  0  0  0  0  0  0  0  0  0
   -6.3322   21.4775  -33.5331 H   0  0  0  0  0  0  0  0  0  0  0  0
   -4.8701   20.3766  -33.4626 H   0  0  0  0  0  0  0  0  0  0  0  0
   -6.8906   19.8585  -31.3722 H   0  0  0  0  0  0  0  0  0  0  0  0
   -7.4620   19.5693  -33.0564 H   0  0  0  0  0  0  0  0  0  0  0  0
   -4.5645   17.4904  -35.5005 H   0  0  0  0  0  0  0  0  0  0  0  0
   -4.6423   19.1574  -34.8348 H   0  0  0  0  0  0  0  0  0  0  0  0
   -3.5863   15.1864  -32.0907 H   0  0  0  0  0  0  0  0  0  0  0  0
   -4.4283   15.5175  -33.6425 H   0  0  0  0  0  0  0  0  0  0  0  0
   -2.8483   14.6630  -33.6425 H   0  0  0  0  0  0  0  0  0  0  0  0
    0.6853   18.1164  -32.0817 H   0  0  0  0  0  0  0  0  0  0  0  0
    0.4857   19.4475  -33.2763 H   0  0  0  0  0  0  0  0  0  0  0  0
   -0.3563   18.3121  -29.8084 H   0  0  0  0  0  0  0  0  0  0  0  0
   -0.8279   19.9116  -27.9573 H   0  0  0  0  0  0  0  0  0  0  0  0
   -2.0870   22.5810  -27.7870 H   0  0  0  0  0  0  0  0  0  0  0  0
    0.1514   22.6462  -25.1936 H   0  0  0  0  0  0  0  0  0  0  0  0
   -0.1073   24.2539  -23.1574 H   0  0  0  0  0  0  0  0  0  0  0  0
   -0.7353   26.6572  -22.5944 H   0  0  0  0  0  0  0  0  0  0  0  0
    0.0140   27.7458  -23.8111 H   0  0  0  0  0  0  0  0  0  0  0  0
   -1.7636   27.4873  -23.8111 H   0  0  0  0  0  0  0  0  0  0  0  0
   -0.8611   23.1765  -30.7993 H   0  0  0  0  0  0  0  0  0  0  0  0
   -0.3721   21.5801  -32.6430 H   0  0  0  0  0  0  0  0  0  0  0  0
   -2.1811   20.9471  -33.3356 H   0  0  0  0  0  0  0  0  0  0  0  0
   -1.2890   20.4137  -34.8007 H   0  0  0  0  0  0  0  0  0  0  0  0
   -3.0852   20.4341  -34.8007 H   0  0  0  0  0  0  0  0  0  0  0  0
   -7.8661   23.4730  -31.6141 H   0  0  0  0  0  0  0  0  0  0  0  0
   -8.0220   24.3597  -33.1685 H   0  0  0  0  0  0  0  0  0  0  0  0
   -7.8340   22.5733  -33.1685 H   0  0  0  0  0  0  0  0  0  0  0  0
   -5.6990   25.9942  -29.2158 H   0  0  0  0  0  0  0  0  0  0  0  0
   -5.6490   27.0596  -30.6612 H   0  0  0  0  0  0  0  0  0  0  0  0
   -6.6878   25.5942  -30.6612 H   0  0  0  0  0  0  0  0  0  0  0  0
  1  2  1  0
  2  3  1  0
  3  4  2  0
  4  5  1  0
  5  6  2  0
  6  7  1  0
  7  8  1  0
  8  9  1  0
  9 10  1  0
 10 11  2  0
 10 12  1  0
 12 13  1  0
 13 14  1  0
 14 15  1  0
 14 16  2  0
 16 17  1  0
 17 18  1  0
 18 19  1  0
 19 20  2  0
 20 21  1  0
 21 22  2  0
 22 23  1  0
 23 24  1  0
 24 25  2  0
 24 26  1  0
 26 27  2  0
 27 28  1  0
 28 29  2  0
 29 30  1  0
 29 31  1  0
 22 32  1  0
 32 33  2  0
 17 34  1  0
 34 35  1  0
  6 36  1  0
 36 37  1  0
 37 38  1  0
 36 39  2  0
 39 40  1  0
 40 41  1  0
 39  3  1  0
 34 13  2  0
 33 19  1  0
 31 26  1  0
  1 42  1  0
  1 43  1  0
  1 44  1  0
  4 45  1  0
  5 46  1  0
  7 47  1  0
  7 48  1  0
  8 49  1  0
  8 50  1  0
 12 51  1  0
 12 52  1  0
 15 53  1  0
 15 54  1  0
 15 55  1  0
 18 56  1  0
 18 57  1  0
 20 58  1  0
 21 59  1  0
 23 60  1  0
 27 61  1  0
 28 62  1  0
 30 63  1  0
 30 64  1  0
 30 65  1  0
 32 66  1  0
 33 67  1  0
 35 68  1  0
 35 69  1  0
 35 70  1  0
 38 71  1  0
 38 72  1  0
 38 73  1  0
 41 74  1  0
 41 75  1  0
 41 76  1  0
M  CHG  1   9  -1
M  END
>  <UniqueID>  (3) 
3

>  <SMILES>  (3) 
COc1ccc(CC[N-]C(=O)Cc2c(C)nn(Cc3ccc(NC(=O)c4ccc(C)s4)cc3)c2C)c(OC)c1OC

>  <Energy>  (3) 
134.0117561303345

>  <Genealogy>  (3) 
COc1ccc(CC[N-]C(=O)Cc2c(C)nn(Cc3ccc(NC(=O)c4ccc(C)s4)cc3)c2C)c(OC)c1OC (protonated)
COc1ccc(CC[N-]C(=O)Cc2c(C)nn(Cc3ccc(NC(=O)c4ccc(C)s4)cc3)c2C)c(OC)c1OC (3D coordinates assigned)
COc1ccc(CC[N-]C(=O)Cc2c(C)nn(Cc3ccc(NC(=O)c4ccc(C)s4)cc3)c2C)c(OC)c1OC (optimized conformer: 134.0117561303345 kcal/mol)

>  <smiles>  (3) 
COc1ccc(CCNC(=O)Cc2c(C)nn(Cc3ccc(NC(=O)c4ccc(C)s4)cc3)c2C)c(OC)c1OC

>  <score_type>  (3) 
oracle

>  <origin>  (3) 
adgpu

>  <m_score__min__energy>  (3) 
-10.58

>  <m_primary>  (3) 
energy

$$$$
3:0
     RDKit          3D

 51 53  0  0  0  0  0  0  0  0999 V2000
   -4.8220   21.9120  -32.4430 C   0  0  0  0  0  0  0  0  0  0  0  0
   -6.3090   21.7350  -32.2530 C   0  0  0  0  0  0  0  0  0  0  0  0
   -7.1120   22.8550  -31.9210 C   0  0  0  0  0  0  0  0  0  0  0  0
   -6.5290   24.1620  -31.7850 N   0  0  0  0  0  0  0  0  0  0  0  0
   -5.5650   24.6100  -30.4140 S   0  0  0  0  0  0  0  0  0  0  0  0
   -6.4950   25.6780  -29.3340 C   0  0  0  0  0  0  0  0  0  0  0  0
   -4.3130   25.3020  -30.8730 O   0  0  0  0  0  0  0  0  0  0  0  0
   -5.1920   23.3710  -29.6520 O   0  0  0  0  0  0  0  0  0  0  0  0
   -8.4950   22.6880  -31.7410 C   0  0  0  0  0  0  0  0  0  0  0  0
   -9.0830   21.4330  -31.8830 C   0  0  0  0  0  0  0  0  0  0  0  0
   -8.3010   20.3270  -32.2050 C   0  0  0  0  0  0  0  0  0  0  0  0
   -6.9190   20.4620  -32.3900 C   0  0  0  0  0  0  0  0  0  0  0  0
   -6.1470   19.2860  -32.6900 N   0  0  0  0  0  0  0  0  0  0  0  0
   -5.7250   19.0670  -34.0810 C   0  0  0  0  0  0  0  0  0  0  0  0
   -4.2840   18.6270  -34.1530 C   0  0  0  0  0  0  0  0  0  0  0  0
   -3.9160   17.5150  -34.9290 C   0  0  0  0  0  0  0  0  0  0  0  0
   -2.5850   17.0880  -34.9620 C   0  0  0  0  0  0  0  0  0  0  0  0
   -1.6120   17.7690  -34.2240 C   0  0  0  0  0  0  0  0  0  0  0  0
   -1.9690   18.8820  -33.4570 C   0  0  0  0  0  0  0  0  0  0  0  0
   -3.2980   19.3140  -33.4250 C   0  0  0  0  0  0  0  0  0  0  0  0
   -6.2070   18.1610  -31.7450 C   0  0  0  0  0  0  0  0  0  0  0  0
   -6.1100   16.8540  -32.4810 C   0  0  0  0  0  0  0  0  0  0  0  0
   -5.0220   15.9940  -32.2550 C   0  0  0  0  0  0  0  0  0  0  0  0
   -4.8910   14.8140  -32.9930 C   0  0  0  0  0  0  0  0  0  0  0  0
   -5.8420   14.4860  -33.9620 C   0  0  0  0  0  0  0  0  0  0  0  0
   -6.9250   15.3390  -34.1970 C   0  0  0  0  0  0  0  0  0  0  0  0
   -7.0580   16.5210  -33.4630 C   0  0  0  0  0  0  0  0  0  0  0  0
   -4.3312   21.9704  -31.4603 H   0  0  0  0  0  0  0  0  0  0  0  0
   -4.4195   21.0554  -33.0036 H   0  0  0  0  0  0  0  0  0  0  0  0
   -4.6318   22.8391  -33.0036 H   0  0  0  0  0  0  0  0  0  0  0  0
   -6.5480   24.8290  -32.5880 H   0  0  0  0  0  0  0  0  0  0  0  0
   -6.2735   25.4236  -28.2870 H   0  0  0  0  0  0  0  0  0  0  0  0
   -6.2156   26.7248  -29.5240 H   0  0  0  0  0  0  0  0  0  0  0  0
   -7.5703   25.5452  -29.5240 H   0  0  0  0  0  0  0  0  0  0  0  0
   -9.1198   23.5565  -31.4855 H   0  0  0  0  0  0  0  0  0  0  0  0
  -10.1674   21.3157  -31.7404 H   0  0  0  0  0  0  0  0  0  0  0  0
   -8.7722   19.3391  -32.3150 H   0  0  0  0  0  0  0  0  0  0  0  0
   -6.3601   18.2892  -34.5300 H   0  0  0  0  0  0  0  0  0  0  0  0
   -5.8264   20.0157  -34.6284 H   0  0  0  0  0  0  0  0  0  0  0  0
   -4.6781   16.9782  -35.5129 H   0  0  0  0  0  0  0  0  0  0  0  0
   -2.3030   16.2153  -35.5693 H   0  0  0  0  0  0  0  0  0  0  0  0
   -0.5661   17.4291  -34.2469 H   0  0  0  0  0  0  0  0  0  0  0  0
   -1.2030   19.4185  -32.8779 H   0  0  0  0  0  0  0  0  0  0  0  0
   -3.5731   20.1955  -32.8273 H   0  0  0  0  0  0  0  0  0  0  0  0
   -5.3714   18.2397  -31.0340 H   0  0  0  0  0  0  0  0  0  0  0  0
   -7.1655   18.1975  -31.2065 H   0  0  0  0  0  0  0  0  0  0  0  0
   -4.2701   16.2504  -31.4941 H   0  0  0  0  0  0  0  0  0  0  0  0
   -4.0384   14.1434  -32.8105 H   0  0  0  0  0  0  0  0  0  0  0  0
   -5.7390   13.5562  -34.5406 H   0  0  0  0  0  0  0  0  0  0  0  0
   -7.6731   15.0794  -34.9605 H   0  0  0  0  0  0  0  0  0  0  0  0
   -7.9077   17.1927  -33.6548 H   0  0  0  0  0  0  0  0  0  0  0  0
  1  2  1  0
  2  3  2  0
  3  4  1  0
  4  5  1  0
  5  6  1  0
  5  7  2  0
  5  8  2  0
  3  9  1  0
  9 10  2  0
 10 11  1  0
 11 12  2  0
 12 13  1  0
 13 14  1  0
 14 15  1  0
 15 16  2  0
 16 17  1  0
 17 18  2  0
 18 19  1  0
 19 20  2  0
 13 21  1  0
 21 22  1  0
 22 23  2  0
 23 24  1  0
 24 25  2  0
 25 26  1  0
 26 27  2  0
 12  2  1  0
 20 15  1  0
 27 22  1  0
  1 28  1  0
  1 29  1  0
  1 30  1  0
  4 31  1  0
  6 32  1  0
  6 33  1  0
  6 34  1  0
  9 35  1  0
 10 36  1  0
 11 37  1  0
 14 38  1  0
 14 39  1  0
 16 40  1  0
 17 41  1  0
 18 42  1  0
 19 43  1  0
 20 44  1  0
 21 45  1  0
 21 46  1  0
 23 47  1  0
 24 48  1  0
 25 49  1  0
 26 50  1  0
 27 51  1  0
M  END
>  <UniqueID>  (4) 
4

>  <SMILES>  (4) 
Cc1c(NS(C)(=O)=O)cccc1N(Cc1ccccc1)Cc1ccccc1

>  <Energy>  (4) 
55.11388113565468

>  <Genealogy>  (4) 
Cc1c(NS(C)(=O)=O)cccc1N(Cc1ccccc1)Cc1ccccc1 (3D coordinates assigned)
Cc1c(NS(C)(=O)=O)cccc1N(Cc1ccccc1)Cc1ccccc1 (optimized conformer: 55.11388113565468 kcal/mol)

>  <smiles>  (4) 
Cc1c(NS(C)(=O)=O)cccc1N(Cc1ccccc1)Cc1ccccc1

>  <score_type>  (4) 
oracle

>  <origin>  (4) 
adgpu

>  <m_score__min__energy>  (4) 
-9.2699999999999996

>  <m_primary>  (4) 
energy

$$$$
4:0
     RDKit          3D

 19 20  0  0  0  0  0  0  0  0999 V2000
   -7.2260   23.7940  -31.0220 S   0  0  0  0  0  0  0  0  0  0  0  0
   -7.7670   22.3550  -31.5780 C   0  0  0  0  0  0  0  0  0  0  0  0
   -6.9660   21.3990  -32.0920 N   0  0  0  0  0  0  0  0  0  0  0  0
   -7.6650   20.2970  -32.4940 C   0  0  0  0  0  0  0  0  0  0  0  0
   -7.0070   19.1080  -33.0900 C   0  0  0  0  0  0  0  0  0  0  0  0
   -6.1130   19.2520  -34.1680 C   0  0  0  0  0  0  0  0  0  0  0  0
   -5.4930   18.1310  -34.7300 C   0  0  0  0  0  0  0  0  0  0  0  0
   -5.7560   16.8570  -34.2220 C   0  0  0  0  0  0  0  0  0  0  0  0
   -6.6400   16.7010  -33.1530 C   0  0  0  0  0  0  0  0  0  0  0  0
   -7.2620   17.8180  -32.5870 C   0  0  0  0  0  0  0  0  0  0  0  0
   -9.0450   20.3920  -32.2910 C   0  0  0  0  0  0  0  0  0  0  0  0
   -9.3770   21.8890  -31.5920 S   0  0  0  0  0  0  0  0  0  0  0  0
   -5.9330   21.5120  -32.1910 H   0  0  0  0  0  0  0  0  0  0  0  0
   -5.9005   20.2531  -34.5712 H   0  0  0  0  0  0  0  0  0  0  0  0
   -4.7973   18.2532  -35.5733 H   0  0  0  0  0  0  0  0  0  0  0  0
   -5.2667   15.9766  -34.6642 H   0  0  0  0  0  0  0  0  0  0  0  0
   -6.8478   15.6968  -32.7549 H   0  0  0  0  0  0  0  0  0  0  0  0
   -7.9553   17.6880  -31.7430 H   0  0  0  0  0  0  0  0  0  0  0  0
   -9.7875   19.6210  -32.5444 H   0  0  0  0  0  0  0  0  0  0  0  0
  1  2  2  0
  2  3  1  0
  3  4  1  0
  4  5  1  0
  5  6  2  0
  6  7  1  0
  7  8  2  0
  8  9  1  0
  9 10  2  0
  4 11  2  0
 11 12  1  0
 12  2  1  0
 10  5  1  0
  3 13  1  0
  6 14  1  0
  7 15  1  0
  8 16  1  0
  9 17  1  0
 10 18  1  0
 11 19  1  0
M  END
>  <UniqueID>  (5) 
5

>  <SMILES>  (5) 
S=c1[nH]c(-c2ccccc2)cs1

>  <Energy>  (5) 
52.77411932359141

>  <Genealogy>  (5) 
S=c1[nH]c(-c2ccccc2)cs1 (3D coordinates assigned)
S=c1[nH]c(-c2ccccc2)cs1 (optimized conformer: 52.77411932359141 kcal/mol)

>  <smiles>  (5) 
S=c1[nH]c(-c2ccccc2)cs1

>  <score_type>  (5) 
oracle

>  <origin>  (5) 
adgpu

>  <m_score__min__energy>  (5) 
-5.6799999999999997

>  <m_primary>  (5) 
energy

$$$$
5:0
     RDKit          3D

 67 70  0  0  1  0  0  0  0  0999 V2000
   -3.4060   24.5060  -29.6860 C   0  0  0  0  0  0  0  0  0  0  0  0
   -4.3970   24.7770  -30.6560 O   0  0  0  0  0  0  0  0  0  0  0  0
   -5.4320   23.9160  -30.9530 C   0  0  0  0  0  0  0  0  0  0  0  0
   -5.9560   23.1860  -29.8830 C   0  0  0  0  0  0  0  0  0  0  0  0
   -6.9930   22.2910  -30.0490 C   0  0  0  0  0  0  0  0  0  0  0  0
   -7.5250   22.1140  -31.3120 C   0  0  0  0  0  0  0  0  0  0  0  0
   -8.5910   21.1900  -31.4370 N   0  0  0  0  0  0  0  0  0  0  0  0
   -9.9570   21.5460  -31.1490 C   0  0  0  0  0  0  0  0  0  0  0  0
   -8.1820   19.5860  -31.9500 S   0  0  0  0  0  0  0  0  0  0  0  0
   -8.9990   19.1440  -33.1100 O   0  0  0  0  0  0  0  0  0  0  0  0
   -8.4180   18.6080  -30.8200 O   0  0  0  0  0  0  0  0  0  0  0  0
   -6.4890   19.6120  -32.4210 C   0  0  0  0  0  0  0  0  0  0  0  0
   -6.2510   19.5630  -33.8000 C   0  0  0  0  0  0  0  0  0  0  0  0
   -4.9230   19.5810  -34.2070 C   0  0  0  0  0  0  0  0  0  0  0  0
   -3.8670   19.6430  -33.3250 C   0  0  0  0  0  0  0  0  0  0  0  0
   -2.4640   19.6630  -33.7720 C   0  0  0  0  0  0  0  0  0  0  0  0
   -1.7700   18.6100  -33.7250 O   0  0  0  0  0  0  0  0  0  0  0  0
   -1.8420   20.8260  -34.2630 N   0  0  0  0  0  0  0  0  0  0  0  0
   -0.4930   20.8980  -34.7060 C   0  0  0  0  0  0  0  0  0  0  0  0
    0.3230   19.8070  -34.3890 C   0  0  0  0  0  0  0  0  0  0  0  0
    1.6260   19.8730  -34.8260 C   0  0  0  0  0  0  0  0  0  0  0  0
    2.1610   20.9130  -35.5350 C   0  0  0  0  0  0  0  0  0  0  0  0
    3.8480   20.9280  -36.0780 S   0  0  0  0  0  0  0  0  0  0  0  0
    4.4910   19.6130  -35.8000 O   0  0  0  0  0  0  0  0  0  0  0  0
    3.8520   21.2580  -37.5290 O   0  0  0  0  0  0  0  0  0  0  0  0
    4.6030   22.1820  -35.1240 N   0  0  0  0  0  0  0  0  0  0  0  0
    4.2680   23.3950  -35.4030 C   0  0  0  0  0  0  0  0  0  0  0  0
    4.8160   24.4630  -34.6990 C   0  0  0  0  0  0  0  0  0  0  0  0
    4.4710   25.7680  -34.9820 C   0  0  0  0  0  0  0  0  0  0  0  0
    5.1080   26.8690  -34.1710 C   0  0  0  0  0  0  0  0  0  0  0  0
    3.5890   26.0320  -35.9570 N   0  0  0  0  0  0  0  0  0  0  0  0
    3.0640   25.0020  -36.6320 C   0  0  0  0  0  0  0  0  0  0  0  0
    2.0900   25.3190  -37.7070 C   0  0  0  0  0  0  0  0  0  0  0  0
    3.3880   23.7200  -36.3700 N   0  0  0  0  0  0  0  0  0  0  0  0
    1.3340   21.9750  -35.8340 C   0  0  0  0  0  0  0  0  0  0  0  0
    0.0010   21.9820  -35.4260 C   0  0  0  0  0  0  0  0  0  0  0  0
   -4.1480   19.6910  -31.9760 C   0  0  0  0  0  0  0  0  0  0  0  0
   -5.4630   19.6760  -31.5030 C   0  0  0  0  0  0  0  0  0  0  0  0
   -7.0010   22.8380  -32.3570 C   0  0  0  0  0  0  0  0  0  0  0  0
   -5.9610   23.7410  -32.2130 C   0  0  0  0  0  0  0  0  0  0  0  0
   -3.8356   24.6235  -28.6802 H   0  0  0  0  0  0  0  0  0  0  0  0
   -3.0424   23.4754  -29.8113 H   0  0  0  0  0  0  0  0  0  0  0  0
   -2.5685   25.2081  -29.8113 H   0  0  0  0  0  0  0  0  0  0  0  0
   -5.5295   23.3289  -28.8792 H   0  0  0  0  0  0  0  0  0  0  0  0
   -7.3893   21.7282  -29.1909 H   0  0  0  0  0  0  0  0  0  0  0  0
  -10.1040   21.5843  -30.0595 H   0  0  0  0  0  0  0  0  0  0  0  0
  -10.1785   22.5319  -31.5838 H   0  0  0  0  0  0  0  0  0  0  0  0
  -10.6315   20.7936  -31.5838 H   0  0  0  0  0  0  0  0  0  0  0  0
   -7.0759   19.5127  -34.5260 H   0  0  0  0  0  0  0  0  0  0  0  0
   -4.7045   19.5440  -35.2844 H   0  0  0  0  0  0  0  0  0  0  0  0
   -2.3780   21.7440  -34.3260 H   0  0  0  0  0  0  0  0  0  0  0  0
   -0.0560   18.9441  -33.8218 H   0  0  0  0  0  0  0  0  0  0  0  0
    2.2865   19.0264  -34.5874 H   0  0  0  0  0  0  0  0  0  0  0  0
    5.5419   24.2615  -33.8974 H   0  0  0  0  0  0  0  0  0  0  0  0
    4.9836   26.6540  -33.0994 H   0  0  0  0  0  0  0  0  0  0  0  0
    6.1798   26.9281  -34.4111 H   0  0  0  0  0  0  0  0  0  0  0  0
    4.6250   27.8277  -34.4111 H   0  0  0  0  0  0  0  0  0  0  0  0
    3.3170   26.9970  -36.1860 H   0  0  0  0  0  0  0  0  0  0  0  0
    1.1355   25.6296  -37.2570 H   0  0  0  0  0  0  0  0  0  0  0  0
    2.4844   26.1351  -38.3302 H   0  0  0  0  0  0  0  0  0  0  0  0
    1.9285   24.4270  -38.3302 H   0  0  0  0  0  0  0  0  0  0  0  0
    1.7316   22.8287  -36.4024 H   0  0  0  0  0  0  0  0  0  0  0  0
   -0.6519   22.8330  -35.6699 H   0  0  0  0  0  0  0  0  0  0  0  0
   -3.3183   19.7423  -31.2556 H   0  0  0  0  0  0  0  0  0  0  0  0
   -5.6740   19.7143  -30.4241 H   0  0  0  0  0  0  0  0  0  0  0  0
   -7.4302   22.6924  -33.3593 H   0  0  0  0  0  0  0  0  0  0  0  0
   -5.5702   24.3000  -33.0760 H   0  0  0  0  0  0  0  0  0  0  0  0
  1  2  1  0
  2  3  1  0
  3  4  2  0
  4  5  1  0
  5  6  2  0
  6  7  1  0
  7  8  1  0
  7  9  1  0
  9 10  2  0
  9 11  2  0
  9 12  1  0
 12 13  2  0
 13 14  1  0
 14 15  2  0
 15 16  1  0
 16 17  2  0
 16 18  1  0
 18 19  1  0
 19 20  2  0
 20 21  1  0
 21 22  2  0
 22 23  1  0
 23 24  2  0
 23 25  2  0
 23 26  1  0
 26 27  2  0
 27 28  1  0
 28 29  2  0
 29 30  1  0
 29 31  1  0
 31 32  1  0
 32 33  1  0
 32 34  2  0
 22 35  1  0
 35 36  2  0
 15 37  1  0
 37 38  2  0
  6 39  1  0
 39 40  2  0
 40  3  1  0
 38 12  1  0
 36 19  1  0
 34 27  1  0
  1 41  1  0
  1 42  1  0
  1 43  1  0
  4 44  1  0
  5 45  1  0
  8 46  1  0
  8 47  1  0
  8 48  1  0
 13 49  1  0
 14 50  1  0
 18 51  1  0
 20 52  1  0
 21 53  1  0
 28 54  1  0
 30 55  1  0
 30 56  1  0
 30 57  1  0
 31 58  1  0
 33 59  1  0
 33 60  1  0
 33 61  1  0
 35 62  1  0
 36 63  1  0
 37 64  1  0
 38 65  1  0
 39 66  1  0
 40 67  1  0
M  END
>  <smiles>  (6) 
COc1ccc(N(C)S(=O)(=O)c2ccc(C(=O)Nc3ccc(S(=O)(=O)N=c4cc(C)[nH]c(C)n4)cc3)cc2)cc1

>  <score_type>  (6) 
oracle

>  <origin>  (6) 
adgpu

>  <m_score__min__energy>  (6) 
-10.31

>  <m_primary>  (6) 
energy

$$$$
6:0
     RDKit          3D

 37 40  0  0  0  0  0  0  0  0999 V2000
   -5.8350   25.8520  -30.2920 O   0  0  0  0  0  0  0  0  0  0  0  0
   -5.0820   24.5700  -30.0670 S   0  0  0  0  0  0  0  0  0  0  0  0
   -5.2240   24.1650  -28.6280 O   0  0  0  0  0  0  0  0  0  0  0  0
   -3.4050   24.8280  -30.4240 N   0  0  0  0  0  0  0  0  0  0  0  0
   -2.3090   24.2150  -29.7290 C   0  0  0  0  0  0  0  0  0  0  0  0
   -2.1030   22.8180  -29.7560 C   0  0  0  0  0  0  0  0  0  0  0  0
   -1.0270   22.2910  -29.0430 C   0  0  0  0  0  0  0  0  0  0  0  0
   -0.1630   23.0950  -28.3280 C   0  0  0  0  0  0  0  0  0  0  0  0
   -0.3410   24.4760  -28.2930 C   0  0  0  0  0  0  0  0  0  0  0  0
   -1.4210   25.0370  -28.9970 C   0  0  0  0  0  0  0  0  0  0  0  0
   -1.6130   26.4140  -28.9670 O   0  0  0  0  0  0  0  0  0  0  0  0
    0.9130   22.2900  -27.6580 C   0  0  0  0  0  0  0  0  0  0  0  0
    0.5300   20.9050  -28.0940 C   0  0  0  0  0  0  0  0  0  0  0  0
    1.1650   19.7020  -27.7750 C   0  0  0  0  0  0  0  0  0  0  0  0
    0.6330   18.5050  -28.2850 C   0  0  0  0  0  0  0  0  0  0  0  0
    1.2440   17.2940  -27.9820 O   0  0  0  0  0  0  0  0  0  0  0  0
   -0.5160   18.5270  -29.1020 C   0  0  0  0  0  0  0  0  0  0  0  0
   -1.1430   19.7440  -29.4140 C   0  0  0  0  0  0  0  0  0  0  0  0
   -0.5950   20.9180  -28.8960 C   0  0  0  0  0  0  0  0  0  0  0  0
   -5.7200   23.2830  -31.0860 C   0  0  0  0  0  0  0  0  0  0  0  0
   -7.1060   23.0810  -31.1700 C   0  0  0  0  0  0  0  0  0  0  0  0
   -7.6180   22.0470  -31.9580 C   0  0  0  0  0  0  0  0  0  0  0  0
   -6.7500   21.2100  -32.6660 C   0  0  0  0  0  0  0  0  0  0  0  0
   -5.3680   21.4080  -32.5880 C   0  0  0  0  0  0  0  0  0  0  0  0
   -4.8530   22.4430  -31.8010 C   0  0  0  0  0  0  0  0  0  0  0  0
   -2.7760   22.1609  -30.3264 H   0  0  0  0  0  0  0  0  0  0  0  0
    0.3505   25.1158  -27.7251 H   0  0  0  0  0  0  0  0  0  0  0  0
    1.9136   22.5679  -28.0208 H   0  0  0  0  0  0  0  0  0  0  0  0
    0.9764   22.4265  -26.5683 H   0  0  0  0  0  0  0  0  0  0  0  0
    2.0620   19.6918  -27.1384 H   0  0  0  0  0  0  0  0  0  0  0  0
   -0.9237   17.5849  -29.4974 H   0  0  0  0  0  0  0  0  0  0  0  0
   -2.0409   19.7711  -30.0489 H   0  0  0  0  0  0  0  0  0  0  0  0
   -7.7910   23.7382  -30.6142 H   0  0  0  0  0  0  0  0  0  0  0  0
   -8.7051   21.8912  -32.0215 H   0  0  0  0  0  0  0  0  0  0  0  0
   -7.1546   20.3954  -33.2846 H   0  0  0  0  0  0  0  0  0  0  0  0
   -4.6858   20.7496  -33.1457 H   0  0  0  0  0  0  0  0  0  0  0  0
   -3.7657   22.5989  -31.7424 H   0  0  0  0  0  0  0  0  0  0  0  0
  1  2  2  0
  2  3  2  0
  2  4  1  0
  4  5  1  0
  5  6  2  0
  6  7  1  0
  7  8  2  0
  8  9  1  0
  9 10  2  0
 10 11  1  0
  8 12  1  0
 12 13  1  0
 13 14  2  0
 14 15  1  0
 15 16  1  0
 15 17  2  0
 17 18  1  0
 18 19  2  0
  2 20  1  0
 20 21  2  0
 21 22  1  0
 22 23  2  0
 23 24  1  0
 24 25  2  0
 10  5  1  0
 19 13  1  0
 25 20  1  0
 19  7  1  0
  6 26  1  0
  9 27  1  0
 12 28  1  0
 12 29  1  0
 14 30  1  0
 17 31  1  0
 18 32  1  0
 21 33  1  0
 22 34  1  0
 23 35  1  0
 24 36  1  0
 25 37  1  0
M  CHG  3   4  -1  11  -1  16  -1
M  END
>  <UniqueID>  (7) 
6

>  <SMILES>  (7) 
O=S(=O)([N-]c1cc2c(cc1[O-])Cc1cc([O-])ccc1-2)c1ccccc1

>  <Energy>  (7) 
66.77196383353763

>  <Genealogy>  (7) 
O=S(=O)([N-]c1cc2c(cc1[O-])Cc1cc([O-])ccc1-2)c1ccccc1 (protonated)
O=S(=O)([N-]c1cc2c(cc1[O-])Cc1cc([O-])ccc1-2)c1ccccc1 (3D coordinates assigned)
O=S(=O)([N-]c1cc2c(cc1[O-])Cc1cc([O-])ccc1-2)c1ccccc1 (nonaromatic ring conformer: 66.77196383353763 kcal/mol)

>  <smiles>  (7) 
O=S(=O)(Nc1cc2c(cc1O)Cc1cc(O)ccc1-2)c1ccccc1

>  <score_type>  (7) 
oracle

>  <origin>  (7) 
adgpu

>  <m_score__min__energy>  (7) 
-12.9

>  <m_primary>  (7) 
energy

$$$$
7:0
     RDKit          3D

 50 52  0  0  0  0  0  0  0  0999 V2000
    1.0150   13.5900  -25.9750 C   0  0  0  0  0  0  0  0  0  0  0  0
    1.9530   14.7280  -26.3610 C   0  0  0  0  0  0  0  0  0  0  0  0
    1.3590   15.5530  -27.4610 C   0  0  0  0  0  0  0  0  0  0  0  0
    0.6620   16.5620  -27.1670 O   0  0  0  0  0  0  0  0  0  0  0  0
    1.6590   15.2450  -28.8310 N   0  0  0  0  0  0  0  0  0  0  0  0
    1.0110   15.8620  -29.9570 C   0  0  0  0  0  0  0  0  0  0  0  0
    0.4130   15.0520  -30.9340 C   0  0  0  0  0  0  0  0  0  0  0  0
   -0.2400   15.6250  -32.0280 C   0  0  0  0  0  0  0  0  0  0  0  0
   -0.3180   17.0200  -32.1570 C   0  0  0  0  0  0  0  0  0  0  0  0
   -0.9970   17.6100  -33.2830 N   0  0  0  0  0  0  0  0  0  0  0  0
   -1.0380   16.8870  -34.5580 C   0  0  0  0  0  0  0  0  0  0  0  0
   -1.6320   18.9040  -33.1860 C   0  0  0  0  0  0  0  0  0  0  0  0
   -0.9510   20.0810  -33.5360 C   0  0  0  0  0  0  0  0  0  0  0  0
   -1.6150   21.3000  -33.4140 C   0  0  0  0  0  0  0  0  0  0  0  0
   -2.8890   21.3350  -32.9510 N   0  0  0  0  0  0  0  0  0  0  0  0
   -3.5380   20.1940  -32.5900 C   0  0  0  0  0  0  0  0  0  0  0  0
   -4.7670   20.2190  -32.1640 N   0  0  0  0  0  0  0  0  0  0  0  0
   -5.5740   21.3850  -31.9210 C   0  0  0  0  0  0  0  0  0  0  0  0
   -6.8510   21.5410  -32.4920 C   0  0  0  0  0  0  0  0  0  0  0  0
   -7.5900   22.7030  -32.2550 C   0  0  0  0  0  0  0  0  0  0  0  0
   -7.0560   23.7260  -31.4690 C   0  0  0  0  0  0  0  0  0  0  0  0
   -5.7710   23.5990  -30.9280 C   0  0  0  0  0  0  0  0  0  0  0  0
   -5.0920   24.8900  -29.9410 S   0  0  0  0  0  0  0  0  0  0  0  0
   -3.5150   25.2860  -30.5240 N   0  0  0  0  0  0  0  0  0  0  0  0
   -5.0010   24.4440  -28.5090 O   0  0  0  0  0  0  0  0  0  0  0  0
   -5.9740   26.1040  -30.0150 O   0  0  0  0  0  0  0  0  0  0  0  0
   -5.0330   22.4290  -31.1610 C   0  0  0  0  0  0  0  0  0  0  0  0
   -2.9070   18.9970  -32.7160 N   0  0  0  0  0  0  0  0  0  0  0  0
    0.2550   17.8330  -31.1660 C   0  0  0  0  0  0  0  0  0  0  0  0
    0.9100   17.2590  -30.0720 C   0  0  0  0  0  0  0  0  0  0  0  0
    0.9564   13.5189  -24.8789 H   0  0  0  0  0  0  0  0  0  0  0  0
    0.0128   13.7862  -26.3838 H   0  0  0  0  0  0  0  0  0  0  0  0
    1.3989   12.6437  -26.3838 H   0  0  0  0  0  0  0  0  0  0  0  0
    2.1256   15.3675  -25.4828 H   0  0  0  0  0  0  0  0  0  0  0  0
    2.9029   14.2996  -26.7134 H   0  0  0  0  0  0  0  0  0  0  0  0
    2.4560   14.5960  -29.0190 H   0  0  0  0  0  0  0  0  0  0  0  0
    0.4587   13.9572  -30.8379 H   0  0  0  0  0  0  0  0  0  0  0  0
   -0.6957   14.9788  -32.7927 H   0  0  0  0  0  0  0  0  0  0  0  0
   -1.0993   15.8059  -34.3646 H   0  0  0  0  0  0  0  0  0  0  0  0
   -1.9194   17.2072  -35.1329 H   0  0  0  0  0  0  0  0  0  0  0  0
   -0.1260   17.1055  -35.1329 H   0  0  0  0  0  0  0  0  0  0  0  0
    0.0865   20.0416  -33.8994 H   0  0  0  0  0  0  0  0  0  0  0  0
   -1.1056   22.2341  -33.6933 H   0  0  0  0  0  0  0  0  0  0  0  0
   -7.2686   20.7456  -33.1268 H   0  0  0  0  0  0  0  0  0  0  0  0
   -8.5950   22.8121  -32.6888 H   0  0  0  0  0  0  0  0  0  0  0  0
   -7.6462   24.6337  -31.2744 H   0  0  0  0  0  0  0  0  0  0  0  0
   -3.6320   26.0520  -31.2250 H   0  0  0  0  0  0  0  0  0  0  0  0
   -4.0203   22.3309  -30.7429 H   0  0  0  0  0  0  0  0  0  0  0  0
    0.1883   18.9277  -31.2507 H   0  0  0  0  0  0  0  0  0  0  0  0
    1.3487   17.9046  -29.2970 H   0  0  0  0  0  0  0  0  0  0  0  0
  1  2  1  0
  2  3  1  0
  3  4  2  0
  3  5  1  0
  5  6  1  0
  6  7  2  0
  7  8  1  0
  8  9  2  0
  9 10  1  0
 10 11  1  0
 10 12  1  0
 12 13  1  0
 13 14  2  0
 14 15  1  0
 15 16  1  0
 16 17  2  3
 17 18  1  0
 18 19  2  0
 19 20  1  0
 20 21  2  0
 21 22  1  0
 22 23  1  0
 23 24  1  0
 23 25  2  0
 23 26  2  0
 22 27  2  0
 16 28  1  0
  9 29  1  0
 29 30  2  0
 30  6  1  0
 28 12  2  0
 27 18  1  0
  1 31  1  0
  1 32  1  0
  1 33  1  0
  2 34  1  0
  2 35  1  0
  5 36  1  0
  7 37  1  0
  8 38  1  0
 11 39  1  0
 11 40  1  0
 11 41  1  0
 13 42  1  0
 14 43  1  0
 19 44  1  0
 20 45  1  0
 21 46  1  0
 24 47  1  0
 27 48  1  0
 29 49  1  0
 30 50  1  0
M  CHG  2  15  -1  24  -1
M  END
>  <UniqueID>  (8) 
7

>  <SMILES>  (8) 
CCC(=O)Nc1ccc(N(C)c2cc[n-]c(=Nc3cccc(S([NH-])(=O)=O)c3)n2)cc1

>  <Energy>  (8) 
65.50408726287229

>  <Genealogy>  (8) 
CCC(=O)Nc1ccc(N(C)c2cc[n-]c(=Nc3cccc(S([NH-])(=O)=O)c3)n2)cc1 (protonated)
CCC(=O)Nc1ccc(N(C)c2cc[n-]c(=Nc3cccc(S([NH-])(=O)=O)c3)n2)cc1 (3D coordinates assigned)
CCC(=O)Nc1ccc(N(C)c2cc[n-]c(=Nc3cccc(S([NH-])(=O)=O)c3)n2)cc1 (optimized conformer: 65.50408726287229 kcal/mol)

>  <smiles>  (8) 
CCC(=O)Nc1ccc(N(C)c2cc[nH]c(=Nc3cccc(S(N)(=O)=O)c3)n2)cc1

>  <score_type>  (8) 
oracle

>  <origin>  (8) 
adgpu

>  <m_score__min__energy>  (8) 
-11.24

>  <m_primary>  (8) 
energy

$$$$
8:0
     RDKit          3D

 53 56  0  0  0  0  0  0  0  0999 V2000
    1.3930   12.0480  -28.4690 C   0  0  0  0  0  0  0  0  0  0  0  0
    0.7150   11.4860  -29.5870 O   0  0  0  0  0  0  0  0  0  0  0  0
   -0.0700   12.2210  -30.4890 C   0  0  0  0  0  0  0  0  0  0  0  0
   -1.2500   11.7060  -31.0570 C   0  0  0  0  0  0  0  0  0  0  0  0
   -1.9980   12.4780  -31.9520 C   0  0  0  0  0  0  0  0  0  0  0  0
   -1.5800   13.7750  -32.2980 C   0  0  0  0  0  0  0  0  0  0  0  0
   -2.3720   14.5940  -33.2510 C   0  0  0  0  0  0  0  0  0  0  0  0
   -2.4700   14.2180  -34.6020 C   0  0  0  0  0  0  0  0  0  0  0  0
   -3.2120   14.9890  -35.4970 C   0  0  0  0  0  0  0  0  0  0  0  0
   -3.8680   16.1410  -35.0590 C   0  0  0  0  0  0  0  0  0  0  0  0
   -3.7910   16.5360  -33.7110 C   0  0  0  0  0  0  0  0  0  0  0  0
   -4.4710   17.7680  -33.2400 C   0  0  0  0  0  0  0  0  0  0  0  0
   -5.5710   17.6750  -32.6250 O   0  0  0  0  0  0  0  0  0  0  0  0
   -3.9180   19.0660  -33.5170 N   0  0  0  0  0  0  0  0  0  0  0  0
   -4.2380   20.2480  -32.7630 C   0  0  0  0  0  0  0  0  0  0  0  0
   -4.2560   20.2400  -31.3570 C   0  0  0  0  0  0  0  0  0  0  0  0
   -4.5470   21.4090  -30.6470 C   0  0  0  0  0  0  0  0  0  0  0  0
   -4.8090   22.6030  -31.3310 C   0  0  0  0  0  0  0  0  0  0  0  0
   -5.1750   24.0820  -30.4490 S   0  0  0  0  0  0  0  0  0  0  0  0
   -6.1650   24.8930  -31.2380 O   0  0  0  0  0  0  0  0  0  0  0  0
   -5.7530   23.7460  -29.1020 O   0  0  0  0  0  0  0  0  0  0  0  0
   -3.7100   24.9860  -30.2310 N   0  0  0  0  0  0  0  0  0  0  0  0
   -2.7350   24.5850  -29.4760 C   0  0  0  0  0  0  0  0  0  0  0  0
   -2.7510   23.4260  -28.7780 N   0  0  0  0  0  0  0  0  0  0  0  0
   -1.5490   23.4380  -28.1700 C   0  0  0  0  0  0  0  0  0  0  0  0
   -1.0860   22.3900  -27.2150 C   0  0  0  0  0  0  0  0  0  0  0  0
   -0.8690   24.5920  -28.5000 C   0  0  0  0  0  0  0  0  0  0  0  0
   -1.6300   25.2780  -29.3160 O   0  0  0  0  0  0  0  0  0  0  0  0
   -4.7790   22.6190  -32.7300 C   0  0  0  0  0  0  0  0  0  0  0  0
   -4.4880   21.4510  -33.4420 C   0  0  0  0  0  0  0  0  0  0  0  0
   -3.0340   15.7580  -32.8160 C   0  0  0  0  0  0  0  0  0  0  0  0
   -0.4010   14.2850  -31.7250 C   0  0  0  0  0  0  0  0  0  0  0  0
    0.3430   13.5130  -30.8290 C   0  0  0  0  0  0  0  0  0  0  0  0
    0.9404   11.6729  -27.5392 H   0  0  0  0  0  0  0  0  0  0  0  0
    2.4545   11.7613  -28.5018 H   0  0  0  0  0  0  0  0  0  0  0  0
    1.3081   13.1442  -28.5018 H   0  0  0  0  0  0  0  0  0  0  0  0
   -1.5857   10.6915  -30.7959 H   0  0  0  0  0  0  0  0  0  0  0  0
   -2.9203   12.0672  -32.3885 H   0  0  0  0  0  0  0  0  0  0  0  0
   -1.9586   13.3105  -34.9555 H   0  0  0  0  0  0  0  0  0  0  0  0
   -3.2806   14.6879  -36.5528 H   0  0  0  0  0  0  0  0  0  0  0  0
   -4.4489   16.7437  -35.7726 H   0  0  0  0  0  0  0  0  0  0  0  0
   -3.3380   19.1770  -34.3780 H   0  0  0  0  0  0  0  0  0  0  0  0
   -4.0400   19.3089  -30.8126 H   0  0  0  0  0  0  0  0  0  0  0  0
   -4.5703   21.3909  -29.5474 H   0  0  0  0  0  0  0  0  0  0  0  0
   -1.2405   22.7398  -26.1836 H   0  0  0  0  0  0  0  0  0  0  0  0
   -1.6596   21.4657  -27.3785 H   0  0  0  0  0  0  0  0  0  0  0  0
   -0.0165   22.1916  -27.3785 H   0  0  0  0  0  0  0  0  0  0  0  0
    0.1300   24.8830  -28.1430 H   0  0  0  0  0  0  0  0  0  0  0  0
   -4.9851   23.5539  -33.2718 H   0  0  0  0  0  0  0  0  0  0  0  0
   -4.4548   21.4751  -34.5412 H   0  0  0  0  0  0  0  0  0  0  0  0
   -2.9583   16.0633  -31.7619 H   0  0  0  0  0  0  0  0  0  0  0  0
   -0.0622   15.2989  -31.9841 H   0  0  0  0  0  0  0  0  0  0  0  0
    1.2620   13.9254  -30.3870 H   0  0  0  0  0  0  0  0  0  0  0  0
  1  2  1  0
  2  3  1  0
  3  4  2  0
  4  5  1  0
  5  6  2  0
  6  7  1  0
  7  8  2  0
  8  9  1  0
  9 10  2  0
 10 11  1  0
 11 12  1  0
 12 13  2  0
 12 14  1  0
 14 15  1  0
 15 16  2  0
 16 17  1  0
 17 18  2  0
 18 19  1  0
 19 20  2  0
 19 21  2  0
 19 22  1  0
 22 23  2  3
 23 24  1  0
 24 25  1  0
 25 26  1  0
 25 27  2  0
 27 28  1  0
 18 29  1  0
 29 30  2  0
 11 31  2  0
  6 32  1  0
 32 33  2  0
 33  3  1  0
 31  7  1  0
 30 15  1  0
 28 23  1  0
  1 34  1  0
  1 35  1  0
  1 36  1  0
  4 37  1  0
  5 38  1  0
  8 39  1  0
  9 40  1  0
 10 41  1  0
 14 42  1  0
 16 43  1  0
 17 44  1  0
 26 45  1  0
 26 46  1  0
 26 47  1  0
 27 48  1  0
 29 49  1  0
 30 50  1  0
 31 51  1  0
 32 52  1  0
 33 53  1  0
M  CHG  1  24  -1
M  END
>  <UniqueID>  (9) 
8

>  <SMILES>  (9) 
COc1ccc(-c2cccc(C(=O)Nc3ccc(S(=O)(=O)N=c4[n-]c(C)co4)cc3)c2)cc1

>  <Energy>  (9) 
99.8519591537758

>  <Genealogy>  (9) 
COc1ccc(-c2cccc(C(=O)Nc3ccc(S(=O)(=O)N=c4[n-]c(C)co4)cc3)c2)cc1 (protonated)
COc1ccc(-c2cccc(C(=O)Nc3ccc(S(=O)(=O)N=c4[n-]c(C)co4)cc3)c2)cc1 (3D coordinates assigned)
COc1ccc(-c2cccc(C(=O)Nc3ccc(S(=O)(=O)N=c4[n-]c(C)co4)cc3)c2)cc1 (optimized conformer: 99.8519591537758 kcal/mol)

>  <smiles>  (9) 
COc1ccc(-c2cccc(C(=O)Nc3ccc(S(=O)(=O)N=c4[nH]c(C)co4)cc3)c2)cc1

>  <score_type>  (9) 
oracle

>  <origin>  (9) 
adgpu

>  <m_score__min__energy>  (9) 
-10

>  <m_primary>  (9) 
energy

$$$$
9:0
     RDKit          3D

 42 44  0  0  0  0  0  0  0  0999 V2000
   -9.2860   18.7680  -32.3370 C   0  0  0  0  0  0  0  0  0  0  0  0
   -8.2400   19.8500  -32.2870 C   0  0  0  0  0  0  0  0  0  0  0  0
   -6.8860   19.5050  -32.4320 C   0  0  0  0  0  0  0  0  0  0  0  0
   -5.8800   20.4870  -32.3930 C   0  0  0  0  0  0  0  0  0  0  0  0
   -4.4530   20.1060  -32.5430 C   0  0  0  0  0  0  0  0  0  0  0  0
   -4.0230   19.3670  -33.6590 C   0  0  0  0  0  0  0  0  0  0  0  0
   -2.6850   18.9920  -33.7840 C   0  0  0  0  0  0  0  0  0  0  0  0
   -1.7620   19.3390  -32.7950 C   0  0  0  0  0  0  0  0  0  0  0  0
   -2.1670   20.0720  -31.6690 C   0  0  0  0  0  0  0  0  0  0  0  0
   -1.1990   20.3910  -30.6500 N   0  0  0  0  0  0  0  0  0  0  0  0
   -1.5380   20.8560  -29.3030 C   0  0  0  0  0  0  0  0  0  0  0  0
   -1.4910   22.3600  -29.2270 C   0  0  0  0  0  0  0  0  0  0  0  0
   -0.4200   22.9990  -28.5800 C   0  0  0  0  0  0  0  0  0  0  0  0
   -0.3790   24.3940  -28.4950 C   0  0  0  0  0  0  0  0  0  0  0  0
   -1.4010   25.1620  -29.0590 C   0  0  0  0  0  0  0  0  0  0  0  0
   -1.3560   26.5480  -28.9680 O   0  0  0  0  0  0  0  0  0  0  0  0
   -2.4650   24.5350  -29.7170 C   0  0  0  0  0  0  0  0  0  0  0  0
   -3.4840   25.2940  -30.2820 O   0  0  0  0  0  0  0  0  0  0  0  0
   -2.5070   23.1390  -29.8070 C   0  0  0  0  0  0  0  0  0  0  0  0
   -3.5140   20.4680  -31.5620 C   0  0  0  0  0  0  0  0  0  0  0  0
   -6.2470   21.8290  -32.2100 C   0  0  0  0  0  0  0  0  0  0  0  0
   -7.5890   22.1820  -32.0650 C   0  0  0  0  0  0  0  0  0  0  0  0
   -8.5950   21.2060  -32.1010 C   0  0  0  0  0  0  0  0  0  0  0  0
   -9.9620   21.6110  -31.9490 N   0  0  0  0  0  0  0  0  0  0  0  0
   -9.5646   18.4798  -31.3127 H   0  0  0  0  0  0  0  0  0  0  0  0
  -10.1745   19.1412  -32.8674 H   0  0  0  0  0  0  0  0  0  0  0  0
   -8.8830   17.8927  -32.8674 H   0  0  0  0  0  0  0  0  0  0  0  0
   -6.6084   18.4507  -32.5783 H   0  0  0  0  0  0  0  0  0  0  0  0
   -4.7456   19.0828  -34.4381 H   0  0  0  0  0  0  0  0  0  0  0  0
   -2.3559   18.4210  -34.6647 H   0  0  0  0  0  0  0  0  0  0  0  0
   -0.7099   19.0355  -32.8994 H   0  0  0  0  0  0  0  0  0  0  0  0
   -0.1870   20.2270  -30.8560 H   0  0  0  0  0  0  0  0  0  0  0  0
   -2.5519   20.5138  -29.0482 H   0  0  0  0  0  0  0  0  0  0  0  0
   -0.8047   20.4447  -28.5937 H   0  0  0  0  0  0  0  0  0  0  0  0
    0.3896   22.3993  -28.1385 H   0  0  0  0  0  0  0  0  0  0  0  0
    0.4598   24.8881  -27.9829 H   0  0  0  0  0  0  0  0  0  0  0  0
   -3.3390   22.6492  -30.3341 H   0  0  0  0  0  0  0  0  0  0  0  0
   -3.8358   21.0690  -30.6987 H   0  0  0  0  0  0  0  0  0  0  0  0
   -5.4711   22.6082  -32.1807 H   0  0  0  0  0  0  0  0  0  0  0  0
   -7.8609   23.2381  -31.9208 H   0  0  0  0  0  0  0  0  0  0  0  0
  -10.2990   22.0070  -31.0430 H   0  0  0  0  0  0  0  0  0  0  0  0
  -10.6580   21.5260  -32.7220 H   0  0  0  0  0  0  0  0  0  0  0  0
  1  2  1  0
  2  3  2  0
  3  4  1  0
  4  5  1  0
  5  6  2  0
  6  7  1  0
  7  8  2  0
  8  9  1  0
  9 10  1  0
 10 11  1  0
 11 12  1  0
 12 13  2  0
 13 14  1  0
 14 15  2  0
 15 16  1  0
 15 17  1  0
 17 18  1  0
 17 19  2  0
  9 20  2  0
  4 21  2  0
 21 22  1  0
 22 23  2  0
 23 24  1  0
 23  2  1  0
 20  5  1  0
 19 12  1  0
  1 25  1  0
  1 26  1  0
  1 27  1  0
  3 28  1  0
  6 29  1  0
  7 30  1  0
  8 31  1  0
 10 32  1  0
 11 33  1  0
 11 34  1  0
 13 35  1  0
 14 36  1  0
 19 37  1  0
 20 38  1  0
 21 39  1  0
 22 40  1  0
 24 41  1  0
 24 42  1  0
M  CHG  2  16  -1  18  -1
M  END
>  <UniqueID>  (10) 
9

>  <SMILES>  (10) 
Cc1cc(-c2cccc(NCc3ccc([O-])c([O-])c3)c2)ccc1N

>  <Energy>  (10) 
48.28624719751591

>  <Genealogy>  (10) 
Cc1cc(-c2cccc(NCc3ccc([O-])c([O-])c3)c2)ccc1N (protonated)
Cc1cc(-c2cccc(NCc3ccc([O-])c([O-])c3)c2)ccc1N (3D coordinates assigned)
Cc1cc(-c2cccc(NCc3ccc([O-])c([O-])c3)c2)ccc1N (optimized conformer: 48.28624719751591 kcal/mol)

>  <smiles>  (10) 
Cc1cc(-c2cccc(NCc3ccc(O)c(O)c3)c2)ccc1N

>  <score_type>  (10) 
oracle

>  <origin>  (10) 
adgpu

>  <m_score__min__energy>  (10) 
-13.44

>  <m_primary>  (10) 
energy

$$$$
10:0
     RDKit          3D

 47 48  0  0  0  0  0  0  0  0999 V2000
   -8.9360   21.9210  -31.9490 C   0  0  0  0  0  0  0  0  0  0  0  0
   -7.9700   22.7680  -31.1220 C   0  0  0  0  0  0  0  0  0  0  0  0
   -6.7080   23.1550  -31.9060 C   0  0  0  0  0  0  0  0  0  0  0  0
   -5.4840   23.2050  -31.0210 C   0  0  0  0  0  0  0  0  0  0  0  0
   -5.5880   23.7760  -29.7420 C   0  0  0  0  0  0  0  0  0  0  0  0
   -4.4740   23.8560  -28.9060 C   0  0  0  0  0  0  0  0  0  0  0  0
   -3.2320   23.3560  -29.3360 C   0  0  0  0  0  0  0  0  0  0  0  0
   -3.1180   22.8010  -30.6180 C   0  0  0  0  0  0  0  0  0  0  0  0
   -4.2380   22.7180  -31.4700 C   0  0  0  0  0  0  0  0  0  0  0  0
   -4.1510   22.1730  -32.7640 O   0  0  0  0  0  0  0  0  0  0  0  0
   -4.2200   20.7850  -33.0960 C   0  0  0  0  0  0  0  0  0  0  0  0
   -5.2340   20.0510  -32.2100 C   0  0  0  0  0  0  0  0  0  0  0  0
   -6.4740   19.6270  -33.0050 C   0  0  0  0  0  0  0  0  0  0  0  0
   -7.2230   18.1660  -32.3020 S   0  0  0  0  0  0  0  0  0  0  0  0
   -8.8870   18.5100  -31.7690 C   0  0  0  0  0  0  0  0  0  0  0  0
   -7.2440   17.0650  -33.3250 O   0  0  0  0  0  0  0  0  0  0  0  0
   -6.4120   17.7230  -31.1180 O   0  0  0  0  0  0  0  0  0  0  0  0
   -2.0160   23.4550  -28.4380 C   0  0  1  0  0  0  0  0  0  0  0  0
   -1.1070   24.5690  -28.8860 C   0  0  0  0  0  0  0  0  0  0  0  0
   -1.5790   25.6450  -29.3430 O   0  0  0  0  0  0  0  0  0  0  0  0
    0.2690   24.4310  -28.7510 O   0  0  0  0  0  0  0  0  0  0  0  0
   -2.4140   23.6260  -26.9580 C   0  0  0  0  0  0  0  0  0  0  0  0
   -3.4930   24.7020  -26.7940 C   0  0  0  0  0  0  0  0  0  0  0  0
   -4.6140   24.4160  -27.6310 O   0  0  0  0  0  0  0  0  0  0  0  0
   -9.5899   21.3477  -31.2754 H   0  0  0  0  0  0  0  0  0  0  0  0
   -9.5489   22.5781  -32.5835 H   0  0  0  0  0  0  0  0  0  0  0  0
   -8.3647   21.2275  -32.5835 H   0  0  0  0  0  0  0  0  0  0  0  0
   -8.4864   23.6873  -30.8087 H   0  0  0  0  0  0  0  0  0  0  0  0
   -7.6546   22.1663  -30.2568 H   0  0  0  0  0  0  0  0  0  0  0  0
   -6.5417   22.4123  -32.7002 H   0  0  0  0  0  0  0  0  0  0  0  0
   -6.8642   24.1594  -32.3264 H   0  0  0  0  0  0  0  0  0  0  0  0
   -6.5574   24.1640  -29.3960 H   0  0  0  0  0  0  0  0  0  0  0  0
   -2.1433   22.4259  -30.9633 H   0  0  0  0  0  0  0  0  0  0  0  0
   -4.5233   20.6827  -34.1484 H   0  0  0  0  0  0  0  0  0  0  0  0
   -3.2280   20.3386  -32.9323 H   0  0  0  0  0  0  0  0  0  0  0  0
   -4.7564   19.1544  -31.7881 H   0  0  0  0  0  0  0  0  0  0  0  0
   -5.5544   20.7372  -31.4122 H   0  0  0  0  0  0  0  0  0  0  0  0
   -7.2065   20.4475  -32.9920 H   0  0  0  0  0  0  0  0  0  0  0  0
   -6.1657   19.3989  -34.0360 H   0  0  0  0  0  0  0  0  0  0  0  0
   -8.9256   18.5180  -30.6697 H   0  0  0  0  0  0  0  0  0  0  0  0
   -9.1998   19.4918  -32.1540 H   0  0  0  0  0  0  0  0  0  0  0  0
   -9.5634   17.7327  -32.1540 H   0  0  0  0  0  0  0  0  0  0  0  0
   -1.4641   22.5072  -28.5219 H   0  0  0  0  0  0  0  0  0  0  0  0
   -2.8011   22.6691  -26.5779 H   0  0  0  0  0  0  0  0  0  0  0  0
   -1.5236   23.9371  -26.3920 H   0  0  0  0  0  0  0  0  0  0  0  0
   -3.8218   24.7283  -25.7446 H   0  0  0  0  0  0  0  0  0  0  0  0
   -3.0717   25.6761  -27.0832 H   0  0  0  0  0  0  0  0  0  0  0  0
  1  2  1  0
  2  3  1  0
  3  4  1  0
  4  5  2  0
  5  6  1  0
  6  7  2  0
  7  8  1  0
  8  9  2  0
  9 10  1  0
 10 11  1  0
 11 12  1  0
 12 13  1  0
 13 14  1  0
 14 15  1  0
 14 16  2  0
 14 17  2  0
  7 18  1  0
 18 19  1  0
 19 20  2  0
 19 21  1  0
 18 22  1  0
 22 23  1  0
 23 24  1  0
  9  4  1  0
 24  6  1  0
  1 25  1  0
  1 26  1  0
  1 27  1  0
  2 28  1  0
  2 29  1  0
  3 30  1  0
  3 31  1  0
  5 32  1  0
  8 33  1  0
 11 34  1  0
 11 35  1  0
 12 36  1  0
 12 37  1  0
 13 38  1  0
 13 39  1  0
 15 40  1  0
 15 41  1  0
 15 42  1  0
 18 43  1  1
 22 44  1  0
 22 45  1  0
 23 46  1  0
 23 47  1  0
M  CHG  1  21  -1
M  END
>  <UniqueID>  (11) 
10

>  <SMILES>  (11) 
CCCc1cc2c(cc1OCCCS(C)(=O)=O)[C@@H](C(=O)[O-])CCO2

>  <Energy>  (11) 
30.179732274066932

>  <Genealogy>  (11) 
CCCc1cc2c(cc1OCCCS(C)(=O)=O)C(C(=O)[O-])CCO2 (protonated)
CCCc1cc2c(cc1OCCCS(C)(=O)=O)[C@@H](C(=O)[O-])CCO2 (chirality)
CCCc1cc2c(cc1OCCCS(C)(=O)=O)[C@@H](C(=O)[O-])CCO2 (3D coordinates assigned)
CCCc1cc2c(cc1OCCCS(C)(=O)=O)[C@@H](C(=O)[O-])CCO2 (nonaromatic ring conformer: 30.179732274066932 kcal/mol)

>  <smiles>  (11) 
CCCc1cc2c(cc1OCCCS(C)(=O)=O)C(C(=O)O)CCO2

>  <score_type>  (11) 
oracle

>  <origin>  (11) 
adgpu

>  <m_score__min__energy>  (11) 
-9.8599999999999994

>  <m_primary>  (11) 
energy

$$$$
11:0
     RDKit          3D

 56 59  0  0  0  0  0  0  0  0999 V2000
   -4.3240   17.1180  -35.6000 C   0  0  0  0  0  0  0  0  0  0  0  0
   -4.4930   17.4700  -34.1890 N   0  0  0  0  0  0  0  0  0  0  0  0
   -3.4180   18.0920  -33.4600 C   0  0  0  0  0  0  0  0  0  0  0  0
   -2.2880   17.3460  -33.0790 C   0  0  0  0  0  0  0  0  0  0  0  0
   -1.2380   17.9540  -32.3860 C   0  0  0  0  0  0  0  0  0  0  0  0
   -1.2990   19.3160  -32.0700 C   0  0  0  0  0  0  0  0  0  0  0  0
   -0.2130   19.9420  -31.3600 C   0  0  0  0  0  0  0  0  0  0  0  0
    0.6580   20.4440  -30.7900 N   0  0  0  0  0  0  0  0  0  0  0  0
   -2.4160   20.0680  -32.4500 C   0  0  0  0  0  0  0  0  0  0  0  0
   -3.4680   19.4610  -33.1430 C   0  0  0  0  0  0  0  0  0  0  0  0
   -6.0010   17.0950  -33.4040 S   0  0  0  0  0  0  0  0  0  0  0  0
   -6.8900   16.3480  -34.3570 O   0  0  0  0  0  0  0  0  0  0  0  0
   -5.7560   16.2350  -32.1950 O   0  0  0  0  0  0  0  0  0  0  0  0
   -6.7830   18.5810  -32.8730 C   0  0  0  0  0  0  0  0  0  0  0  0
   -7.6980   18.5440  -31.8130 C   0  0  0  0  0  0  0  0  0  0  0  0
   -8.3080   19.7220  -31.3690 C   0  0  0  0  0  0  0  0  0  0  0  0
   -7.9940   20.9540  -31.9670 C   0  0  0  0  0  0  0  0  0  0  0  0
   -8.6360   22.1980  -31.4860 C   0  0  0  0  0  0  0  0  0  0  0  0
   -9.8710   22.2000  -31.2360 O   0  0  0  0  0  0  0  0  0  0  0  0
   -7.9040   23.4230  -31.3420 N   0  0  0  0  0  0  0  0  0  0  0  0
   -6.5590   23.5480  -30.8590 C   0  0  0  0  0  0  0  0  0  0  0  0
   -6.1010   22.6680  -29.8760 C   0  0  0  0  0  0  0  0  0  0  0  0
   -4.7900   22.7580  -29.4070 C   0  0  0  0  0  0  0  0  0  0  0  0
   -3.9270   23.7340  -29.9370 C   0  0  0  0  0  0  0  0  0  0  0  0
   -2.5600   23.8630  -29.4830 N   0  0  0  0  0  0  0  0  0  0  0  0
   -1.4850   23.0550  -30.0750 C   0  0  0  0  0  0  0  0  0  0  0  0
   -0.3340   22.8840  -29.0790 C   0  0  0  0  0  0  0  0  0  0  0  0
    0.0710   24.1340  -28.5550 O   0  0  0  0  0  0  0  0  0  0  0  0
   -0.9780   24.6840  -27.7830 C   0  0  0  0  0  0  0  0  0  0  0  0
   -2.1800   25.0240  -28.6670 C   0  0  0  0  0  0  0  0  0  0  0  0
   -4.3910   24.5610  -30.9150 N   0  0  0  0  0  0  0  0  0  0  0  0
   -5.6640   24.4910  -31.3860 C   0  0  0  0  0  0  0  0  0  0  0  0
   -7.0820   20.9820  -33.0360 C   0  0  0  0  0  0  0  0  0  0  0  0
   -6.4780   19.8040  -33.4820 C   0  0  0  0  0  0  0  0  0  0  0  0
   -3.8491   16.1288  -35.6768 H   0  0  0  0  0  0  0  0  0  0  0  0
   -5.3076   17.0916  -36.0917 H   0  0  0  0  0  0  0  0  0  0  0  0
   -3.6883   17.8691  -36.0917 H   0  0  0  0  0  0  0  0  0  0  0  0
   -2.2305   16.2762  -33.3284 H   0  0  0  0  0  0  0  0  0  0  0  0
   -0.3611   17.3605  -32.0880 H   0  0  0  0  0  0  0  0  0  0  0  0
   -2.4667   21.1387  -32.2031 H   0  0  0  0  0  0  0  0  0  0  0  0
   -4.3413   20.0590  -33.4424 H   0  0  0  0  0  0  0  0  0  0  0  0
   -7.9375   17.5860  -31.3284 H   0  0  0  0  0  0  0  0  0  0  0  0
   -9.0378   19.6835  -30.5469 H   0  0  0  0  0  0  0  0  0  0  0  0
   -6.7766   21.9008  -29.4698 H   0  0  0  0  0  0  0  0  0  0  0  0
   -4.4333   22.0693  -28.6269 H   0  0  0  0  0  0  0  0  0  0  0  0
   -1.8819   22.0648  -30.3435 H   0  0  0  0  0  0  0  0  0  0  0  0
   -1.1069   23.5671  -30.9721 H   0  0  0  0  0  0  0  0  0  0  0  0
   -0.6658   22.2378  -28.2529 H   0  0  0  0  0  0  0  0  0  0  0  0
    0.5197   22.4300  -29.6035 H   0  0  0  0  0  0  0  0  0  0  0  0
   -1.2860   23.9538  -27.0201 H   0  0  0  0  0  0  0  0  0  0  0  0
   -0.6185   25.6071  -27.3049 H   0  0  0  0  0  0  0  0  0  0  0  0
   -3.0288   25.3124  -28.0295 H   0  0  0  0  0  0  0  0  0  0  0  0
   -1.9087   25.8556  -29.3340 H   0  0  0  0  0  0  0  0  0  0  0  0
   -5.9932   25.1751  -32.1820 H   0  0  0  0  0  0  0  0  0  0  0  0
   -6.8422   21.9379  -33.5247 H   0  0  0  0  0  0  0  0  0  0  0  0
   -5.7601   19.8375  -34.3148 H   0  0  0  0  0  0  0  0  0  0  0  0
  1  2  1  0
  2  3  1  0
  3  4  2  0
  4  5  1  0
  5  6  2  0
  6  7  1  0
  7  8  3  0
  6  9  1  0
  9 10  2  0
  2 11  1  0
 11 12  2  0
 11 13  2  0
 11 14  1  0
 14 15  2  0
 15 16  1  0
 16 17  2  0
 17 18  1  0
 18 19  2  0
 18 20  1  0
 20 21  1  0
 21 22  2  0
 22 23  1  0
 23 24  2  0
 24 25  1  0
 25 26  1  0
 26 27  1  0
 27 28  1  0
 28 29  1  0
 29 30  1  0
 24 31  1  0
 31 32  2  0
 17 33  1  0
 33 34  2  0
 10  3  1  0
 34 14  1  0
 32 21  1  0
 30 25  1  0
  1 35  1  0
  1 36  1  0
  1 37  1  0
  4 38  1  0
  5 39  1  0
  9 40  1  0
 10 41  1  0
 15 42  1  0
 16 43  1  0
 22 44  1  0
 23 45  1  0
 26 46  1  0
 26 47  1  0
 27 48  1  0
 27 49  1  0
 29 50  1  0
 29 51  1  0
 30 52  1  0
 30 53  1  0
 32 54  1  0
 33 55  1  0
 34 56  1  0
M  CHG  1  20  -1
M  END
>  <UniqueID>  (12) 
11

>  <SMILES>  (12) 
CN(c1ccc(C#N)cc1)S(=O)(=O)c1ccc(C(=O)[N-]c2ccc(N3CCOCC3)nc2)cc1

>  <Energy>  (12) 
74.94422363996654

>  <Genealogy>  (12) 
CN(c1ccc(C#N)cc1)S(=O)(=O)c1ccc(C(=O)[N-]c2ccc(N3CCOCC3)nc2)cc1 (protonated)
CN(c1ccc(C#N)cc1)S(=O)(=O)c1ccc(C(=O)[N-]c2ccc(N3CCOCC3)nc2)cc1 (3D coordinates assigned)
CN(c1ccc(C#N)cc1)S(=O)(=O)c1ccc(C(=O)[N-]c2ccc(N3CCOCC3)nc2)cc1 (nonaromatic ring conformer: 74.94422363996654 kcal/mol)

>  <smiles>  (12) 
CN(c1ccc(C#N)cc1)S(=O)(=O)c1ccc(C(=O)Nc2ccc(N3CCOCC3)nc2)cc1

>  <score_type>  (12) 
oracle

>  <origin>  (12) 
adgpu

>  <m_score__min__energy>  (12) 
-11.720000000000001

>  <m_primary>  (12) 
energy

$$$$
12:0
     RDKit          3D

 51 53  0  0  1  0  0  0  0  0999 V2000
   -9.2980   21.9110  -31.3190 C   0  0  0  0  0  0  0  0  0  0  0  0
   -8.5670   21.3130  -32.3460 O   0  0  0  0  0  0  0  0  0  0  0  0
   -9.1710   20.0580  -32.6080 C   0  0  0  0  0  0  0  0  0  0  0  0
   -8.7720   19.0560  -31.5770 C   0  0  0  0  0  0  0  0  0  0  0  0
   -7.4820   18.5670  -31.6580 O   0  0  0  0  0  0  0  0  0  0  0  0
   -6.3520   19.0320  -32.2400 C   0  0  0  0  0  0  0  0  0  0  0  0
   -5.6820   18.5010  -33.3120 C   0  0  0  0  0  0  0  0  0  0  0  0
   -4.5260   19.0460  -33.8410 C   0  0  0  0  0  0  0  0  0  0  0  0
   -4.0020   20.1890  -33.2720 C   0  0  0  0  0  0  0  0  0  0  0  0
   -2.8240   20.7680  -33.8120 N   0  0  0  0  0  0  0  0  0  0  0  0
   -1.6290   20.3500  -33.6150 C   0  0  0  0  0  0  0  0  0  0  0  0
   -1.4150   19.2470  -32.8190 C   0  0  0  0  0  0  0  0  0  0  0  0
   -0.1490   18.7600  -32.5860 C   0  0  0  0  0  0  0  0  0  0  0  0
    0.0150   17.5590  -31.7110 C   0  0  0  0  0  0  0  0  0  0  0  0
    0.9020   19.3840  -33.1560 N   0  0  0  0  0  0  0  0  0  0  0  0
    0.7030   20.4620  -33.9360 C   0  0  0  0  0  0  0  0  0  0  0  0
    1.6270   21.2340  -34.6030 C   0  0  0  0  0  0  0  0  0  0  0  0
    0.8740   22.2090  -35.2520 C   0  0  0  0  0  0  0  0  0  0  0  0
   -0.4350   22.0050  -34.9660 N   0  0  0  0  0  0  0  0  0  0  0  0
   -0.5480   20.9460  -34.1680 N   0  0  0  0  0  0  0  0  0  0  0  0
   -4.6390   20.7610  -32.1940 C   0  0  0  0  0  0  0  0  0  0  0  0
   -4.1730   21.9400  -31.5440 N   0  0  0  0  0  0  0  0  0  0  0  0
   -2.7850   21.8790  -31.0590 C   0  0  0  0  0  0  0  0  0  0  0  0
   -5.0890   23.3540  -31.3080 S   0  0  0  0  0  0  0  0  0  0  0  0
   -6.3570   23.0890  -30.0960 C   0  0  0  0  0  0  0  0  0  0  0  0
   -4.1840   24.4820  -30.9110 O   0  0  0  0  0  0  0  0  0  0  0  0
   -5.7380   23.7560  -32.6010 O   0  0  0  0  0  0  0  0  0  0  0  0
   -5.7900   20.1950  -31.6880 C   0  0  0  0  0  0  0  0  0  0  0  0
   -8.8992   21.5848  -30.3471 H   0  0  0  0  0  0  0  0  0  0  0  0
   -9.2168   23.0050  -31.4001 H   0  0  0  0  0  0  0  0  0  0  0  0
  -10.3542   21.6147  -31.4001 H   0  0  0  0  0  0  0  0  0  0  0  0
  -10.2648   20.1738  -32.5949 H   0  0  0  0  0  0  0  0  0  0  0  0
   -8.8369   19.7034  -33.5942 H   0  0  0  0  0  0  0  0  0  0  0  0
   -8.8891   19.5275  -30.5901 H   0  0  0  0  0  0  0  0  0  0  0  0
   -9.4238   18.1867  -31.7489 H   0  0  0  0  0  0  0  0  0  0  0  0
   -6.0866   17.5902  -33.7776 H   0  0  0  0  0  0  0  0  0  0  0  0
   -4.0312   18.5750  -34.7032 H   0  0  0  0  0  0  0  0  0  0  0  0
   -2.2771   18.7427  -32.3580 H   0  0  0  0  0  0  0  0  0  0  0  0
   -0.0269   17.8659  -30.6555 H   0  0  0  0  0  0  0  0  0  0  0  0
   -0.7936   16.8422  -31.9168 H   0  0  0  0  0  0  0  0  0  0  0  0
    0.9862   17.0852  -31.9168 H   0  0  0  0  0  0  0  0  0  0  0  0
    2.7197   21.1084  -34.6197 H   0  0  0  0  0  0  0  0  0  0  0  0
    1.2745   23.0106  -35.8900 H   0  0  0  0  0  0  0  0  0  0  0  0
   -1.2380   22.5830  -35.3130 H   0  0  0  0  0  0  0  0  0  0  0  0
   -2.7806   21.8788  -29.9590 H   0  0  0  0  0  0  0  0  0  0  0  0
   -2.3078   20.9590  -31.4277 H   0  0  0  0  0  0  0  0  0  0  0  0
   -2.2290   22.7536  -31.4277 H   0  0  0  0  0  0  0  0  0  0  0  0
   -5.9255   23.1792  -29.0882 H   0  0  0  0  0  0  0  0  0  0  0  0
   -7.1496   23.8409  -30.2241 H   0  0  0  0  0  0  0  0  0  0  0  0
   -6.7821   22.0826  -30.2241 H   0  0  0  0  0  0  0  0  0  0  0  0
   -6.2830   20.6684  -30.8261 H   0  0  0  0  0  0  0  0  0  0  0  0
  1  2  1  0
  2  3  1  0
  3  4  1  0
  4  5  1  0
  5  6  1  0
  6  7  2  0
  7  8  1  0
  8  9  2  0
  9 10  1  0
 10 11  2  0
 11 12  1  0
 12 13  2  0
 13 14  1  0
 13 15  1  0
 15 16  2  0
 16 17  1  0
 17 18  2  0
 18 19  1  0
 19 20  1  0
  9 21  1  0
 21 22  1  0
 22 23  1  0
 22 24  1  0
 24 25  1  0
 24 26  2  0
 24 27  2  0
 21 28  2  0
 28  6  1  0
 20 11  1  0
 20 16  1  0
  1 29  1  0
  1 30  1  0
  1 31  1  0
  3 32  1  0
  3 33  1  0
  4 34  1  0
  4 35  1  0
  7 36  1  0
  8 37  1  0
 12 38  1  0
 14 39  1  0
 14 40  1  0
 14 41  1  0
 17 42  1  0
 18 43  1  0
 19 44  1  0
 23 45  1  0
 23 46  1  0
 23 47  1  0
 25 48  1  0
 25 49  1  0
 25 50  1  0
 28 51  1  0
M  END
>  <smiles>  (13) 
COCCOc1ccc(N=c2cc(C)nc3cc[nH]n23)c(N(C)S(C)(=O)=O)c1

>  <score_type>  (13) 
oracle

>  <origin>  (13) 
adgpu

>  <m_score__min__energy>  (13) 
-9.0700000000000003

>  <m_primary>  (13) 
energy

$$$$
13:0
     RDKit          3D

 33 35  0  0  0  0  0  0  0  0999 V2000
   -6.7700   15.3440  -34.2170 C   0  0  0  0  0  0  0  0  0  0  0  0
   -6.5470   16.6980  -33.6100 C   0  0  0  0  0  0  0  0  0  0  0  0
   -7.5410   17.3200  -32.8300 C   0  0  0  0  0  0  0  0  0  0  0  0
   -7.3390   18.6150  -32.2940 C   0  0  0  0  0  0  0  0  0  0  0  0
   -8.3280   19.1960  -31.5000 O   0  0  0  0  0  0  0  0  0  0  0  0
   -6.1330   19.3140  -32.5480 C   0  0  0  0  0  0  0  0  0  0  0  0
   -5.8980   20.6700  -32.0010 C   0  0  0  0  0  0  0  0  0  0  0  0
   -6.7920   21.7150  -32.2840 C   0  0  0  0  0  0  0  0  0  0  0  0
   -6.5690   22.9950  -31.7670 C   0  0  0  0  0  0  0  0  0  0  0  0
   -5.4490   23.2450  -30.9640 C   0  0  0  0  0  0  0  0  0  0  0  0
   -5.1710   24.8530  -30.3030 S   0  0  0  0  0  0  0  0  0  0  0  0
   -3.5110   25.2910  -30.4980 N   0  0  0  0  0  0  0  0  0  0  0  0
   -5.5230   24.8610  -28.8420 O   0  0  0  0  0  0  0  0  0  0  0  0
   -6.0230   25.8590  -31.0260 O   0  0  0  0  0  0  0  0  0  0  0  0
   -4.5610   22.2030  -30.6700 C   0  0  0  0  0  0  0  0  0  0  0  0
   -4.7820   20.9240  -31.1870 C   0  0  0  0  0  0  0  0  0  0  0  0
   -5.1730   18.6700  -33.3420 C   0  0  0  0  0  0  0  0  0  0  0  0
   -3.9380   19.0850  -33.7980 C   0  0  0  0  0  0  0  0  0  0  0  0
   -3.4680   18.0280  -34.5650 C   0  0  0  0  0  0  0  0  0  0  0  0
   -4.3480   17.0460  -34.5830 O   0  0  0  0  0  0  0  0  0  0  0  0
   -5.3760   17.4160  -33.8580 C   0  0  0  0  0  0  0  0  0  0  0  0
   -6.8927   14.5992  -33.4169 H   0  0  0  0  0  0  0  0  0  0  0  0
   -7.6766   15.3661  -34.8396 H   0  0  0  0  0  0  0  0  0  0  0  0
   -5.9042   15.0742  -34.8396 H   0  0  0  0  0  0  0  0  0  0  0  0
   -8.4866   16.7930  -32.6346 H   0  0  0  0  0  0  0  0  0  0  0  0
   -8.1250   19.5510  -30.5730 H   0  0  0  0  0  0  0  0  0  0  0  0
   -7.6724   21.5258  -32.9157 H   0  0  0  0  0  0  0  0  0  0  0  0
   -7.2752   23.8079  -31.9916 H   0  0  0  0  0  0  0  0  0  0  0  0
   -3.4770   26.0460  -31.2190 H   0  0  0  0  0  0  0  0  0  0  0  0
   -3.6866   22.3920  -30.0299 H   0  0  0  0  0  0  0  0  0  0  0  0
   -4.0779   20.1113  -30.9552 H   0  0  0  0  0  0  0  0  0  0  0  0
   -3.4364   20.0432  -33.5975 H   0  0  0  0  0  0  0  0  0  0  0  0
   -2.4985   18.0117  -35.0844 H   0  0  0  0  0  0  0  0  0  0  0  0
  1  2  1  0
  2  3  2  0
  3  4  1  0
  4  5  1  0
  4  6  2  0
  6  7  1  0
  7  8  2  0
  8  9  1  0
  9 10  2  0
 10 11  1  0
 11 12  1  0
 11 13  2  0
 11 14  2  0
 10 15  1  0
 15 16  2  0
  6 17  1  0
 17 18  1  0
 18 19  2  0
 19 20  1  0
 20 21  1  0
 21  2  1  0
 16  7  1  0
 21 17  2  0
  1 22  1  0
  1 23  1  0
  1 24  1  0
  3 25  1  0
  5 26  1  0
  8 27  1  0
  9 28  1  0
 12 29  1  0
 15 30  1  0
 16 31  1  0
 18 32  1  0
 19 33  1  0
M  CHG  1  12  -1
M  END
>  <UniqueID>  (14) 
12

>  <SMILES>  (14) 
Cc1cc(O)c(-c2ccc(S([NH-])(=O)=O)cc2)c2ccoc12

>  <Energy>  (14) 
74.08999382746255

>  <Genealogy>  (14) 
Cc1cc(O)c(-c2ccc(S([NH-])(=O)=O)cc2)c2ccoc12 (protonated)
Cc1cc(O)c(-c2ccc(S([NH-])(=O)=O)cc2)c2ccoc12 (3D coordinates assigned)
Cc1cc(O)c(-c2ccc(S([NH-])(=O)=O)cc2)c2ccoc12 (optimized conformer: 74.08999382746255 kcal/mol)

>  <smiles>  (14) 
Cc1cc(O)c(-c2ccc(S(N)(=O)=O)cc2)c2ccoc12

>  <score_type>  (14) 
oracle

>  <origin>  (14) 
adgpu

>  <m_score__min__energy>  (14) 
-9.7400000000000002

>  <m_primary>  (14) 
energy

$$$$
14:0
     RDKit          3D

 36 38  0  0  0  0  0  0  0  0999 V2000
   -5.8480   25.8950  -31.2530 O   0  0  0  0  0  0  0  0  0  0  0  0
   -5.2310   24.8250  -30.3980 S   0  0  0  0  0  0  0  0  0  0  0  0
   -5.8480   24.8740  -29.0280 O   0  0  0  0  0  0  0  0  0  0  0  0
   -3.5280   25.1220  -30.2610 N   0  0  0  0  0  0  0  0  0  0  0  0
   -2.6400   24.4500  -29.3550 C   0  0  0  0  0  0  0  0  0  0  0  0
   -2.8850   23.1380  -28.9070 C   0  0  0  0  0  0  0  0  0  0  0  0
   -1.9920   22.5150  -28.0300 C   0  0  0  0  0  0  0  0  0  0  0  0
   -0.8520   23.1920  -27.5920 C   0  0  0  0  0  0  0  0  0  0  0  0
   -0.6030   24.4950  -28.0280 C   0  0  0  0  0  0  0  0  0  0  0  0
   -1.4930   25.1240  -28.9060 C   0  0  0  0  0  0  0  0  0  0  0  0
   -1.2310   26.4220  -29.3330 O   0  0  0  0  0  0  0  0  0  0  0  0
   -5.5120   23.2590  -31.1520 C   0  0  0  0  0  0  0  0  0  0  0  0
   -6.7660   22.6440  -31.0580 C   0  0  0  0  0  0  0  0  0  0  0  0
   -6.9830   21.3950  -31.6480 C   0  0  0  0  0  0  0  0  0  0  0  0
   -5.9480   20.7430  -32.3420 C   0  0  0  0  0  0  0  0  0  0  0  0
   -6.1750   19.4140  -32.9650 C   0  0  0  0  0  0  0  0  0  0  0  0
   -7.0180   18.4690  -32.3480 C   0  0  0  0  0  0  0  0  0  0  0  0
   -7.2310   17.2190  -32.9370 C   0  0  0  0  0  0  0  0  0  0  0  0
   -6.6060   16.8970  -34.1440 C   0  0  0  0  0  0  0  0  0  0  0  0
   -5.7680   17.8260  -34.7650 C   0  0  0  0  0  0  0  0  0  0  0  0
   -5.5530   19.0780  -34.1820 C   0  0  0  0  0  0  0  0  0  0  0  0
   -4.6930   21.3720  -32.4360 C   0  0  0  0  0  0  0  0  0  0  0  0
   -4.4790   22.6210  -31.8480 C   0  0  0  0  0  0  0  0  0  0  0  0
   -3.7824   22.6011  -29.2482 H   0  0  0  0  0  0  0  0  0  0  0  0
   -2.1879   21.4893  -27.6843 H   0  0  0  0  0  0  0  0  0  0  0  0
   -0.1501   22.6989  -26.9035 H   0  0  0  0  0  0  0  0  0  0  0  0
    0.2944   25.0280  -27.6807 H   0  0  0  0  0  0  0  0  0  0  0  0
   -7.5832   23.1449  -30.5183 H   0  0  0  0  0  0  0  0  0  0  0  0
   -7.9713   20.9185  -31.5687 H   0  0  0  0  0  0  0  0  0  0  0  0
   -7.5119   18.7161  -31.3967 H   0  0  0  0  0  0  0  0  0  0  0  0
   -7.8921   16.4877  -32.4489 H   0  0  0  0  0  0  0  0  0  0  0  0
   -6.7737   15.9125  -34.6051 H   0  0  0  0  0  0  0  0  0  0  0  0
   -5.2760   17.5716  -35.7154 H   0  0  0  0  0  0  0  0  0  0  0  0
   -4.8933   19.8055  -34.6776 H   0  0  0  0  0  0  0  0  0  0  0  0
   -3.8735   20.8762  -32.9770 H   0  0  0  0  0  0  0  0  0  0  0  0
   -3.4948   23.1049  -31.9324 H   0  0  0  0  0  0  0  0  0  0  0  0
  1  2  2  0
  2  3  2  0
  2  4  1  0
  4  5  1  0
  5  6  2  0
  6  7  1  0
  7  8  2  0
  8  9  1  0
  9 10  2  0
 10 11  1  0
  2 12  1  0
 12 13  2  0
 13 14  1  0
 14 15  2  0
 15 16  1  0
 16 17  2  0
 17 18  1  0
 18 19  2  0
 19 20  1  0
 20 21  2  0
 15 22  1  0
 22 23  2  0
 10  5  1  0
 23 12  1  0
 21 16  1  0
  6 24  1  0
  7 25  1  0
  8 26  1  0
  9 27  1  0
 13 28  1  0
 14 29  1  0
 17 30  1  0
 18 31  1  0
 19 32  1  0
 20 33  1  0
 21 34  1  0
 22 35  1  0
 23 36  1  0
M  CHG  2   4  -1  11  -1
M  END
>  <UniqueID>  (15) 
13

>  <SMILES>  (15) 
O=S(=O)([N-]c1ccccc1[O-])c1ccc(-c2ccccc2)cc1

>  <Energy>  (15) 
47.59107540070477

>  <Genealogy>  (15) 
O=S(=O)([N-]c1ccccc1[O-])c1ccc(-c2ccccc2)cc1 (protonated)
O=S(=O)([N-]c1ccccc1[O-])c1ccc(-c2ccccc2)cc1 (3D coordinates assigned)
O=S(=O)([N-]c1ccccc1[O-])c1ccc(-c2ccccc2)cc1 (optimized conformer: 47.59107540070477 kcal/mol)

>  <smiles>  (15) 
O=S(=O)(Nc1ccccc1O)c1ccc(-c2ccccc2)cc1

>  <score_type>  (15) 
oracle

>  <origin>  (15) 
adgpu

>  <m_score__min__energy>  (15) 
-13.779999999999999

>  <m_primary>  (15) 
energy

$$$$
15:0
     RDKit          3D

 49 50  0  0  0  0  0  0  0  0999 V2000
   -3.3170   25.2960  -26.0400 C   0  0  0  0  0  0  0  0  0  0  0  0
   -2.1960   26.0340  -25.3090 C   0  0  0  0  0  0  0  0  0  0  0  0
   -1.0960   26.5330  -26.2600 C   0  0  0  0  0  0  0  0  0  0  0  0
   -0.0050   25.4870  -26.5620 C   0  0  0  0  0  0  0  0  0  0  0  0
   -0.5770   24.2580  -27.1600 N   0  0  0  0  0  0  0  0  0  0  0  0
   -1.1800   24.2620  -28.4010 C   0  0  0  0  0  0  0  0  0  0  0  0
   -1.1830   25.4350  -29.2290 N   0  0  0  0  0  0  0  0  0  0  0  0
   -1.8230   23.1030  -28.8720 C   0  0  0  0  0  0  0  0  0  0  0  0
   -2.4520   23.0770  -30.1650 N   0  0  0  0  0  0  0  0  0  0  0  0
   -1.8540   22.2570  -31.2220 C   0  0  0  0  0  0  0  0  0  0  0  0
   -3.6120   23.9030  -30.4020 C   0  0  0  0  0  0  0  0  0  0  0  0
   -3.4770   25.1560  -30.4470 O   0  0  0  0  0  0  0  0  0  0  0  0
   -4.9630   23.3300  -30.6090 C   0  0  0  0  0  0  0  0  0  0  0  0
   -5.1600   22.3440  -31.5920 C   0  0  0  0  0  0  0  0  0  0  0  0
   -6.4310   21.8040  -31.8090 C   0  0  0  0  0  0  0  0  0  0  0  0
   -7.5250   22.2530  -31.0590 C   0  0  0  0  0  0  0  0  0  0  0  0
   -9.1220   21.5610  -31.3200 S   0  0  0  0  0  0  0  0  0  0  0  0
   -8.9550   19.8670  -31.8340 C   0  0  0  0  0  0  0  0  0  0  0  0
   -9.9190   21.6240  -30.0470 O   0  0  0  0  0  0  0  0  0  0  0  0
   -9.8480   22.3390  -32.3820 O   0  0  0  0  0  0  0  0  0  0  0  0
   -7.3370   23.2430  -30.0860 C   0  0  0  0  0  0  0  0  0  0  0  0
   -6.0660   23.7840  -29.8680 C   0  0  0  0  0  0  0  0  0  0  0  0
   -1.7930   21.9510  -28.0830 C   0  0  0  0  0  0  0  0  0  0  0  0
   -2.3330   20.8870  -28.4910 O   0  0  0  0  0  0  0  0  0  0  0  0
   -1.1690   21.9730  -26.8820 N   0  0  0  0  0  0  0  0  0  0  0  0
   -0.5720   23.1000  -26.4150 C   0  0  0  0  0  0  0  0  0  0  0  0
   -0.0160   23.0680  -25.2810 O   0  0  0  0  0  0  0  0  0  0  0  0
   -4.0003   24.8462  -25.3046 H   0  0  0  0  0  0  0  0  0  0  0  0
   -3.8727   26.0055  -26.6708 H   0  0  0  0  0  0  0  0  0  0  0  0
   -2.8849   24.5052  -26.6708 H   0  0  0  0  0  0  0  0  0  0  0  0
   -2.6276   26.8996  -24.7851 H   0  0  0  0  0  0  0  0  0  0  0  0
   -1.7326   25.3241  -24.6081 H   0  0  0  0  0  0  0  0  0  0  0  0
   -1.5669   26.8255  -27.2101 H   0  0  0  0  0  0  0  0  0  0  0  0
   -0.5984   27.3749  -25.7564 H   0  0  0  0  0  0  0  0  0  0  0  0
    0.7209   25.9214  -27.2651 H   0  0  0  0  0  0  0  0  0  0  0  0
    0.4809   25.2137  -25.6138 H   0  0  0  0  0  0  0  0  0  0  0  0
   -0.3150   25.9810  -29.4130 H   0  0  0  0  0  0  0  0  0  0  0  0
   -2.0120   25.6680  -29.8190 H   0  0  0  0  0  0  0  0  0  0  0  0
   -1.2636   21.4474  -30.7682 H   0  0  0  0  0  0  0  0  0  0  0  0
   -2.6504   21.8248  -31.8456 H   0  0  0  0  0  0  0  0  0  0  0  0
   -1.1991   22.8832  -31.8456 H   0  0  0  0  0  0  0  0  0  0  0  0
   -4.3082   21.9952  -32.1943 H   0  0  0  0  0  0  0  0  0  0  0  0
   -6.5722   21.0238  -32.5714 H   0  0  0  0  0  0  0  0  0  0  0  0
   -8.8912   19.2193  -30.9472 H   0  0  0  0  0  0  0  0  0  0  0  0
   -9.8291   19.5787  -32.4364 H   0  0  0  0  0  0  0  0  0  0  0  0
   -8.0415   19.7550  -32.4364 H   0  0  0  0  0  0  0  0  0  0  0  0
   -8.1923   23.5962  -29.4912 H   0  0  0  0  0  0  0  0  0  0  0  0
   -5.9294   24.5704  -29.1111 H   0  0  0  0  0  0  0  0  0  0  0  0
   -1.1510   21.1040  -26.3000 H   0  0  0  0  0  0  0  0  0  0  0  0
  1  2  1  0
  2  3  1  0
  3  4  1  0
  4  5  1  0
  5  6  1  0
  6  7  1  0
  6  8  2  0
  8  9  1  0
  9 10  1  0
  9 11  1  0
 11 12  2  0
 11 13  1  0
 13 14  2  0
 14 15  1  0
 15 16  2  0
 16 17  1  0
 17 18  1  0
 17 19  2  0
 17 20  2  0
 16 21  1  0
 21 22  2  0
  8 23  1  0
 23 24  2  0
 23 25  1  0
 25 26  1  0
 26 27  2  0
 26  5  1  0
 22 13  1  0
  1 28  1  0
  1 29  1  0
  1 30  1  0
  2 31  1  0
  2 32  1  0
  3 33  1  0
  3 34  1  0
  4 35  1  0
  4 36  1  0
  7 37  1  0
  7 38  1  0
 10 39  1  0
 10 40  1  0
 10 41  1  0
 14 42  1  0
 15 43  1  0
 18 44  1  0
 18 45  1  0
 18 46  1  0
 21 47  1  0
 22 48  1  0
 25 49  1  0
M  END
>  <UniqueID>  (16) 
14

>  <SMILES>  (16) 
CCCCn1c(N)c(N(C)C(=O)c2ccc(S(C)(=O)=O)cc2)c(=O)[nH]c1=O

>  <Energy>  (16) 
61.09569842654999

>  <Genealogy>  (16) 
CCCCn1c(N)c(N(C)C(=O)c2ccc(S(C)(=O)=O)cc2)c(=O)[nH]c1=O (3D coordinates assigned)
CCCCn1c(N)c(N(C)C(=O)c2ccc(S(C)(=O)=O)cc2)c(=O)[nH]c1=O (optimized conformer: 61.09569842654999 kcal/mol)

>  <smiles>  (16) 
CCCCn1c(N)c(N(C)C(=O)c2ccc(S(C)(=O)=O)cc2)c(=O)[nH]c1=O

>  <score_type>  (16) 
oracle

>  <origin>  (16) 
adgpu

>  <m_score__min__energy>  (16) 
-8.3399999999999999

>  <m_primary>  (16) 
energy

$$$$
16:0
     RDKit          3D

 50 52  0  0  0  0  0  0  0  0999 V2000
   -0.5010   26.4880  -23.4370 C   0  0  0  0  0  0  0  0  0  0  0  0
   -1.4170   26.2350  -24.5000 O   0  0  0  0  0  0  0  0  0  0  0  0
   -1.0930   25.5460  -25.6780 C   0  0  0  0  0  0  0  0  0  0  0  0
   -0.1090   24.5530  -25.6200 C   0  0  0  0  0  0  0  0  0  0  0  0
    0.2410   23.8360  -26.7640 C   0  0  0  0  0  0  0  0  0  0  0  0
   -0.3900   24.1020  -27.9810 C   0  0  0  0  0  0  0  0  0  0  0  0
   -1.3820   25.0880  -28.0620 C   0  0  0  0  0  0  0  0  0  0  0  0
   -2.0400   25.2970  -29.3200 N   0  0  0  0  0  0  0  0  0  0  0  0
   -3.4700   24.4680  -29.8490 S   0  0  0  0  0  0  0  0  0  0  0  0
   -4.3720   24.2590  -28.6650 O   0  0  0  0  0  0  0  0  0  0  0  0
   -4.1750   25.3170  -30.8680 O   0  0  0  0  0  0  0  0  0  0  0  0
   -3.0480   22.9200  -30.5910 C   0  0  0  0  0  0  0  0  0  0  0  0
   -1.9270   22.2140  -30.1310 C   0  0  0  0  0  0  0  0  0  0  0  0
   -1.6070   20.9530  -30.6620 C   0  0  0  0  0  0  0  0  0  0  0  0
   -0.4700   20.2100  -30.1910 N   0  0  0  0  0  0  0  0  0  0  0  0
   -0.2640   19.8450  -28.8180 C   0  0  0  0  0  0  0  0  0  0  0  0
    1.0210   19.2030  -28.4100 C   0  0  0  0  0  0  0  0  0  0  0  0
   -1.1690   20.0220  -27.9590 O   0  0  0  0  0  0  0  0  0  0  0  0
   -2.3850   20.4330  -31.7050 C   0  0  0  0  0  0  0  0  0  0  0  0
   -3.4890   21.1410  -32.1840 C   0  0  0  0  0  0  0  0  0  0  0  0
   -3.8230   22.3830  -31.6350 C   0  0  0  0  0  0  0  0  0  0  0  0
   -4.9270   23.0770  -32.1380 O   0  0  0  0  0  0  0  0  0  0  0  0
   -6.2420   22.5920  -32.0790 C   0  0  0  0  0  0  0  0  0  0  0  0
   -7.2570   23.4670  -31.6750 C   0  0  0  0  0  0  0  0  0  0  0  0
   -8.5820   23.0290  -31.6030 C   0  0  0  0  0  0  0  0  0  0  0  0
   -8.9040   21.7110  -31.9360 C   0  0  0  0  0  0  0  0  0  0  0  0
   -7.9000   20.8220  -32.3450 C   0  0  0  0  0  0  0  0  0  0  0  0
   -8.2300   19.4750  -32.6930 N   0  0  0  0  0  0  0  0  0  0  0  0
   -6.5700   21.2630  -32.4150 C   0  0  0  0  0  0  0  0  0  0  0  0
   -1.7240   25.8170  -26.9080 C   0  0  0  0  0  0  0  0  0  0  0  0
   -1.0107   26.3472  -22.4724 H   0  0  0  0  0  0  0  0  0  0  0  0
    0.3463   25.7903  -23.5092 H   0  0  0  0  0  0  0  0  0  0  0  0
   -0.1319   27.5217  -23.5092 H   0  0  0  0  0  0  0  0  0  0  0  0
    0.3923   24.3362  -24.6651 H   0  0  0  0  0  0  0  0  0  0  0  0
    1.0168   23.0583  -26.7074 H   0  0  0  0  0  0  0  0  0  0  0  0
   -0.1069   23.5349  -28.8800 H   0  0  0  0  0  0  0  0  0  0  0  0
   -1.2919   22.6517  -29.3467 H   0  0  0  0  0  0  0  0  0  0  0  0
    0.1880   19.8160  -30.9010 H   0  0  0  0  0  0  0  0  0  0  0  0
    1.0830   19.1720  -27.3122 H   0  0  0  0  0  0  0  0  0  0  0  0
    1.0619   18.1786  -28.8086 H   0  0  0  0  0  0  0  0  0  0  0  0
    1.8647   19.7855  -28.8086 H   0  0  0  0  0  0  0  0  0  0  0  0
   -2.1244   19.4610  -32.1491 H   0  0  0  0  0  0  0  0  0  0  0  0
   -4.0988   20.7199  -32.9969 H   0  0  0  0  0  0  0  0  0  0  0  0
   -7.0100   24.5063  -31.4125 H   0  0  0  0  0  0  0  0  0  0  0  0
   -9.3731   23.7234  -31.2835 H   0  0  0  0  0  0  0  0  0  0  0  0
   -9.9481   21.3698  -31.8771 H   0  0  0  0  0  0  0  0  0  0  0  0
   -8.7480   19.2630  -33.5730 H   0  0  0  0  0  0  0  0  0  0  0  0
   -7.9580   18.6800  -32.0710 H   0  0  0  0  0  0  0  0  0  0  0  0
   -5.7791   20.5681  -32.7337 H   0  0  0  0  0  0  0  0  0  0  0  0
   -2.4898   26.6044  -26.9668 H   0  0  0  0  0  0  0  0  0  0  0  0
  1  2  1  0
  2  3  1  0
  3  4  2  0
  4  5  1  0
  5  6  2  0
  6  7  1  0
  7  8  1  0
  8  9  1  0
  9 10  2  0
  9 11  2  0
  9 12  1  0
 12 13  2  0
 13 14  1  0
 14 15  1  0
 15 16  1  0
 16 17  1  0
 16 18  2  0
 14 19  2  0
 19 20  1  0
 20 21  2  0
 21 22  1  0
 22 23  1  0
 23 24  2  0
 24 25  1  0
 25 26  2  0
 26 27  1  0
 27 28  1  0
 27 29  2  0
  7 30  2  0
 30  3  1  0
 21 12  1  0
 29 23  1  0
  1 31  1  0
  1 32  1  0
  1 33  1  0
  4 34  1  0
  5 35  1  0
  6 36  1  0
 13 37  1  0
 15 38  1  0
 17 39  1  0
 17 40  1  0
 17 41  1  0
 19 42  1  0
 20 43  1  0
 24 44  1  0
 25 45  1  0
 26 46  1  0
 28 47  1  0
 28 48  1  0
 29 49  1  0
 30 50  1  0
M  CHG  1   8  -1
M  END
>  <UniqueID>  (17) 
15

>  <SMILES>  (17) 
COc1cccc([N-]S(=O)(=O)c2cc(NC(C)=O)ccc2Oc2cccc(N)c2)c1

>  <Energy>  (17) 
62.713659282057456

>  <Genealogy>  (17) 
COc1cccc([N-]S(=O)(=O)c2cc(NC(C)=O)ccc2Oc2cccc(N)c2)c1 (protonated)
COc1cccc([N-]S(=O)(=O)c2cc(NC(C)=O)ccc2Oc2cccc(N)c2)c1 (3D coordinates assigned)
COc1cccc([N-]S(=O)(=O)c2cc(NC(C)=O)ccc2Oc2cccc(N)c2)c1 (optimized conformer: 62.713659282057456 kcal/mol)

>  <smiles>  (17) 
COc1cccc(NS(=O)(=O)c2cc(NC(C)=O)ccc2Oc2cccc(N)c2)c1

>  <score_type>  (17) 
oracle

>  <origin>  (17) 
adgpu

>  <m_score__min__energy>  (17) 
-10.26

>  <m_primary>  (17) 
energy

$$$$
17:0
     RDKit          3D

 44 46  0  0  0  0  0  0  0  0999 V2000
   -3.1080   18.9130  -26.0910 C   0  0  0  0  0  0  0  0  0  0  0  0
   -1.8890   19.4960  -26.5410 O   0  0  0  0  0  0  0  0  0  0  0  0
   -1.7890   20.3870  -27.6200 C   0  0  0  0  0  0  0  0  0  0  0  0
   -1.1040   20.0610  -28.8070 C   0  0  0  0  0  0  0  0  0  0  0  0
   -1.0400   20.9810  -29.8570 C   0  0  0  0  0  0  0  0  0  0  0  0
   -1.6510   22.2300  -29.7350 C   0  0  0  0  0  0  0  0  0  0  0  0
   -2.3200   22.5760  -28.5510 C   0  0  0  0  0  0  0  0  0  0  0  0
   -3.0130   23.9050  -28.4320 C   0  0  0  0  0  0  0  0  0  0  0  0
   -3.9970   24.0470  -29.4980 N   0  0  0  0  0  0  0  0  0  0  0  0
   -5.1470   23.3640  -29.6270 C   0  0  0  0  0  0  0  0  0  0  0  0
   -5.7750   23.8890  -30.7350 C   0  0  0  0  0  0  0  0  0  0  0  0
   -7.0860   23.4510  -31.3160 C   0  0  0  0  0  0  0  0  0  0  0  0
   -7.3390   21.9430  -31.0970 C   0  0  0  0  0  0  0  0  0  0  0  0
   -6.8500   21.1440  -32.3340 C   0  0  0  0  0  0  0  0  0  0  0  0
   -7.5350   19.7770  -32.4250 C   0  0  0  0  0  0  0  0  0  0  0  0
   -9.0610   19.9170  -32.5990 C   0  0  0  0  0  0  0  0  0  0  0  0
   -9.6320   21.2050  -31.9740 C   0  0  0  0  0  0  0  0  0  0  0  0
   -8.8250   21.6440  -30.7460 C   0  0  0  0  0  0  0  0  0  0  0  0
   -5.0030   24.8710  -31.2410 N   0  0  0  0  0  0  0  0  0  0  0  0
   -3.9320   24.9500  -30.4630 N   0  0  0  0  0  0  0  0  0  0  0  0
   -2.3970   21.6430  -27.5040 C   0  0  0  0  0  0  0  0  0  0  0  0
   -3.1262   18.9043  -24.9912 H   0  0  0  0  0  0  0  0  0  0  0  0
   -3.9572   19.5025  -26.4671 H   0  0  0  0  0  0  0  0  0  0  0  0
   -3.1821   17.8820  -26.4671 H   0  0  0  0  0  0  0  0  0  0  0  0
   -0.6180   19.0793  -28.9077 H   0  0  0  0  0  0  0  0  0  0  0  0
   -0.5063   20.7199  -30.7828 H   0  0  0  0  0  0  0  0  0  0  0  0
   -1.6080   22.9453  -30.5696 H   0  0  0  0  0  0  0  0  0  0  0  0
   -3.5192   23.9667  -27.4574 H   0  0  0  0  0  0  0  0  0  0  0  0
   -2.2690   24.7109  -28.5154 H   0  0  0  0  0  0  0  0  0  0  0  0
   -5.5120   22.5523  -28.9806 H   0  0  0  0  0  0  0  0  0  0  0  0
   -7.8955   24.0206  -30.8361 H   0  0  0  0  0  0  0  0  0  0  0  0
   -7.0576   23.6377  -32.3997 H   0  0  0  0  0  0  0  0  0  0  0  0
   -6.7564   21.6136  -30.2240 H   0  0  0  0  0  0  0  0  0  0  0  0
   -7.0772   21.7191  -33.2438 H   0  0  0  0  0  0  0  0  0  0  0  0
   -5.7666   20.9816  -32.2342 H   0  0  0  0  0  0  0  0  0  0  0  0
   -7.1262   19.2296  -33.2871 H   0  0  0  0  0  0  0  0  0  0  0  0
   -7.3440   19.2335  -31.4879 H   0  0  0  0  0  0  0  0  0  0  0  0
   -9.2906   19.9198  -33.6748 H   0  0  0  0  0  0  0  0  0  0  0  0
   -9.5269   19.0682  -32.0770 H   0  0  0  0  0  0  0  0  0  0  0  0
   -9.6045   22.0084  -32.7248 H   0  0  0  0  0  0  0  0  0  0  0  0
  -10.6642   21.0023  -31.6522 H   0  0  0  0  0  0  0  0  0  0  0  0
   -9.2808   22.5542  -30.3291 H   0  0  0  0  0  0  0  0  0  0  0  0
   -8.8413   20.8194  -30.0181 H   0  0  0  0  0  0  0  0  0  0  0  0
   -2.9406   21.9016  -26.5833 H   0  0  0  0  0  0  0  0  0  0  0  0
  1  2  1  0
  2  3  1  0
  3  4  2  0
  4  5  1  0
  5  6  2  0
  6  7  1  0
  7  8  1  0
  8  9  1  0
  9 10  1  0
 10 11  2  0
 11 12  1  0
 12 13  1  0
 13 14  1  0
 14 15  1  0
 15 16  1  0
 16 17  1  0
 17 18  1  0
 11 19  1  0
 19 20  2  0
  7 21  2  0
 21  3  1  0
 20  9  1  0
 18 13  1  0
  1 22  1  0
  1 23  1  0
  1 24  1  0
  4 25  1  0
  5 26  1  0
  6 27  1  0
  8 28  1  0
  8 29  1  0
 10 30  1  0
 12 31  1  0
 12 32  1  0
 13 33  1  0
 14 34  1  0
 14 35  1  0
 15 36  1  0
 15 37  1  0
 16 38  1  0
 16 39  1  0
 17 40  1  0
 17 41  1  0
 18 42  1  0
 18 43  1  0
 21 44  1  0
M  END
>  <UniqueID>  (18) 
16

>  <SMILES>  (18) 
COc1cccc(Cn2cc(CC3CCCCC3)nn2)c1

>  <Energy>  (18) 
77.25988664065358

>  <Genealogy>  (18) 
COc1cccc(Cn2cc(CC3CCCCC3)nn2)c1 (3D coordinates assigned)
COc1cccc(Cn2cc(CC3CCCCC3)nn2)c1 (nonaromatic ring conformer: 77.25988664065358 kcal/mol)

>  <smiles>  (18) 
COc1cccc(Cn2cc(CC3CCCCC3)nn2)c1

>  <score_type>  (18) 
oracle

>  <origin>  (18) 
adgpu

>  <m_score__min__energy>  (18) 
-8.9100000000000001

>  <m_primary>  (18) 
energy

$$$$
18:0
     RDKit          3D

 42 44  0  0  0  0  0  0  0  0999 V2000
    0.4940   27.8120  -23.7120 C   0  0  0  0  0  0  0  0  0  0  0  0
   -0.2170   28.0610  -24.9200 O   0  0  0  0  0  0  0  0  0  0  0  0
   -0.7900   27.0610  -25.7210 C   0  0  0  0  0  0  0  0  0  0  0  0
   -1.4200   25.9260  -25.1780 C   0  0  0  0  0  0  0  0  0  0  0  0
   -1.9750   24.9580  -26.0180 C   0  0  0  0  0  0  0  0  0  0  0  0
   -1.9000   25.0980  -27.4120 C   0  0  0  0  0  0  0  0  0  0  0  0
   -2.5350   24.0630  -28.3070 C   0  0  0  0  0  0  0  0  0  0  0  0
   -3.3700   24.7020  -29.3270 N   0  0  0  0  0  0  0  0  0  0  0  0
   -4.5330   24.0780  -29.9010 C   0  0  0  0  0  0  0  0  0  0  0  0
   -4.4420   22.7580  -30.3720 C   0  0  0  0  0  0  0  0  0  0  0  0
   -5.5550   22.1250  -30.9350 C   0  0  0  0  0  0  0  0  0  0  0  0
   -6.7740   22.8050  -31.0400 C   0  0  0  0  0  0  0  0  0  0  0  0
   -8.1780   22.0020  -31.7330 S   0  0  0  0  0  0  0  0  0  0  0  0
   -8.9540   21.3190  -30.6410 O   0  0  0  0  0  0  0  0  0  0  0  0
   -9.0570   23.0210  -32.4030 O   0  0  0  0  0  0  0  0  0  0  0  0
   -7.6360   20.8330  -32.8930 N   0  0  0  0  0  0  0  0  0  0  0  0
   -7.2890   19.6150  -32.6060 C   0  0  0  0  0  0  0  0  0  0  0  0
   -7.2990   19.0780  -31.3630 N   0  0  0  0  0  0  0  0  0  0  0  0
   -6.8850   17.7830  -31.3660 C   0  0  0  0  0  0  0  0  0  0  0  0
   -6.5430   17.2820  -32.6180 C   0  0  0  0  0  0  0  0  0  0  0  0
   -6.7690   18.5070  -33.7530 S   0  0  0  0  0  0  0  0  0  0  0  0
   -6.8760   24.1190  -30.5660 C   0  0  0  0  0  0  0  0  0  0  0  0
   -5.7650   24.7540  -30.0030 C   0  0  0  0  0  0  0  0  0  0  0  0
   -1.2850   26.2410  -27.9560 C   0  0  0  0  0  0  0  0  0  0  0  0
   -1.2250   26.4240  -29.3340 O   0  0  0  0  0  0  0  0  0  0  0  0
   -0.7300   27.2080  -27.1120 C   0  0  0  0  0  0  0  0  0  0  0  0
   -0.1534   28.0387  -22.8521 H   0  0  0  0  0  0  0  0  0  0  0  0
    0.7955   26.7548  -23.6753 H   0  0  0  0  0  0  0  0  0  0  0  0
    1.3893   28.4501  -23.6753 H   0  0  0  0  0  0  0  0  0  0  0  0
   -1.4757   25.8005  -24.0866 H   0  0  0  0  0  0  0  0  0  0  0  0
   -2.4745   24.0795  -25.5835 H   0  0  0  0  0  0  0  0  0  0  0  0
   -1.7445   23.4793  -28.8013 H   0  0  0  0  0  0  0  0  0  0  0  0
   -3.1680   23.4054  -27.6931 H   0  0  0  0  0  0  0  0  0  0  0  0
   -3.1120   25.6610  -29.6570 H   0  0  0  0  0  0  0  0  0  0  0  0
   -3.4870   22.2172  -30.2975 H   0  0  0  0  0  0  0  0  0  0  0  0
   -5.4721   21.0894  -31.2964 H   0  0  0  0  0  0  0  0  0  0  0  0
   -7.5840   19.5750  -30.4920 H   0  0  0  0  0  0  0  0  0  0  0  0
   -6.8251   17.1781  -30.4492 H   0  0  0  0  0  0  0  0  0  0  0  0
   -6.1869   16.2631  -32.8302 H   0  0  0  0  0  0  0  0  0  0  0  0
   -7.8346   24.6538  -30.6370 H   0  0  0  0  0  0  0  0  0  0  0  0
   -5.8532   25.7877  -29.6374 H   0  0  0  0  0  0  0  0  0  0  0  0
   -0.2413   28.0931  -27.5454 H   0  0  0  0  0  0  0  0  0  0  0  0
  1  2  1  0
  2  3  1  0
  3  4  2  0
  4  5  1  0
  5  6  2  0
  6  7  1  0
  7  8  1  0
  8  9  1  0
  9 10  2  0
 10 11  1  0
 11 12  2  0
 12 13  1  0
 13 14  2  0
 13 15  2  0
 13 16  1  0
 16 17  2  3
 17 18  1  0
 18 19  1  0
 19 20  2  0
 20 21  1  0
 12 22  1  0
 22 23  2  0
  6 24  1  0
 24 25  1  0
 24 26  2  0
 26  3  1  0
 23  9  1  0
 21 17  1  0
  1 27  1  0
  1 28  1  0
  1 29  1  0
  4 30  1  0
  5 31  1  0
  7 32  1  0
  7 33  1  0
  8 34  1  0
 10 35  1  0
 11 36  1  0
 18 37  1  0
 19 38  1  0
 20 39  1  0
 22 40  1  0
 23 41  1  0
 26 42  1  0
M  CHG  1  25  -1
M  END
>  <UniqueID>  (19) 
17

>  <SMILES>  (19) 
COc1ccc(CNc2ccc(S(=O)(=O)N=c3[nH]ccs3)cc2)c([O-])c1

>  <Energy>  (19) 
78.12146110391217

>  <Genealogy>  (19) 
COc1ccc(CNc2ccc(S(=O)(=O)N=c3[nH]ccs3)cc2)c([O-])c1 (protonated)
COc1ccc(CNc2ccc(S(=O)(=O)N=c3[nH]ccs3)cc2)c([O-])c1 (3D coordinates assigned)
COc1ccc(CNc2ccc(S(=O)(=O)N=c3[nH]ccs3)cc2)c([O-])c1 (optimized conformer: 78.12146110391217 kcal/mol)

>  <smiles>  (19) 
COc1ccc(CNc2ccc(S(=O)(=O)N=c3[nH]ccs3)cc2)c(O)c1

>  <score_type>  (19) 
oracle

>  <origin>  (19) 
adgpu

>  <m_score__min__energy>  (19) 
-11.32

>  <m_primary>  (19) 
energy

$$$$
19:0
     RDKit          3D

 28 29  0  0  0  0  0  0  0  0999 V2000
   -5.7680   17.6890  -33.1480 C   0  0  0  0  0  0  0  0  0  0  0  0
   -6.8070   18.6850  -32.7130 C   0  0  0  0  0  0  0  0  0  0  0  0
   -8.0550   18.2360  -32.2470 C   0  0  0  0  0  0  0  0  0  0  0  0
   -9.0290   19.1510  -31.8420 C   0  0  0  0  0  0  0  0  0  0  0  0
   -8.7700   20.5200  -31.9050 C   0  0  0  0  0  0  0  0  0  0  0  0
   -7.5340   20.9800  -32.3650 C   0  0  0  0  0  0  0  0  0  0  0  0
   -6.5340   20.0690  -32.7530 C   0  0  0  0  0  0  0  0  0  0  0  0
   -5.2630   20.5220  -33.2480 N   0  0  0  0  0  0  0  0  0  0  0  0
   -4.4390   21.5420  -32.6710 C   0  0  0  0  0  0  0  0  0  0  0  0
   -3.4240   21.9680  -33.2870 O   0  0  0  0  0  0  0  0  0  0  0  0
   -4.8320   22.1360  -31.4270 N   0  0  0  0  0  0  0  0  0  0  0  0
   -4.0200   23.0740  -30.7030 C   0  0  0  0  0  0  0  0  0  0  0  0
   -2.8580   22.6350  -30.0610 C   0  0  0  0  0  0  0  0  0  0  0  0
   -2.0760   23.5150  -29.3830 N   0  0  0  0  0  0  0  0  0  0  0  0
   -2.3960   24.8330  -29.3290 C   0  0  0  0  0  0  0  0  0  0  0  0
   -1.6620   25.6330  -28.6930 O   0  0  0  0  0  0  0  0  0  0  0  0
   -3.5020   25.2920  -29.9700 N   0  0  0  0  0  0  0  0  0  0  0  0
   -4.3140   24.4490  -30.6600 C   0  0  0  0  0  0  0  0  0  0  0  0
   -5.3070   24.9180  -31.2770 O   0  0  0  0  0  0  0  0  0  0  0  0
   -5.2980   17.2385  -32.2613 H   0  0  0  0  0  0  0  0  0  0  0  0
   -6.2444   16.9016  -33.7504 H   0  0  0  0  0  0  0  0  0  0  0  0
   -5.0014   18.1983  -33.7504 H   0  0  0  0  0  0  0  0  0  0  0  0
   -8.2656   17.1573  -32.2011 H   0  0  0  0  0  0  0  0  0  0  0  0
  -10.0011   18.7919  -31.4731 H   0  0  0  0  0  0  0  0  0  0  0  0
   -9.5410   21.2392  -31.5916 H   0  0  0  0  0  0  0  0  0  0  0  0
   -7.3410   22.0613  -32.4244 H   0  0  0  0  0  0  0  0  0  0  0  0
   -5.8130   21.9770  -31.1040 H   0  0  0  0  0  0  0  0  0  0  0  0
   -2.5759   21.5727  -30.1051 H   0  0  0  0  0  0  0  0  0  0  0  0
  1  2  1  0
  2  3  2  0
  3  4  1  0
  4  5  2  0
  5  6  1  0
  6  7  2  0
  7  8  1  0
  8  9  1  0
  9 10  2  0
  9 11  1  0
 11 12  1  0
 12 13  2  0
 13 14  1  0
 14 15  1  0
 15 16  2  0
 15 17  1  0
 17 18  1  0
 18 19  2  0
  7  2  1  0
 18 12  1  0
  1 20  1  0
  1 21  1  0
  1 22  1  0
  3 23  1  0
  4 24  1  0
  5 25  1  0
  6 26  1  0
 11 27  1  0
 13 28  1  0
M  CHG  3   8  -1  14  -1  17  -1
M  END
>  <UniqueID>  (20) 
18

>  <SMILES>  (20) 
Cc1ccccc1[N-]C(=O)Nc1c[n-]c(=O)[n-]c1=O

>  <Energy>  (20) 
38.37614255972608

>  <Genealogy>  (20) 
Cc1ccccc1[N-]C(=O)Nc1c[n-]c(=O)[n-]c1=O (protonated)
Cc1ccccc1[N-]C(=O)Nc1c[n-]c(=O)[n-]c1=O (3D coordinates assigned)
Cc1ccccc1[N-]C(=O)Nc1c[n-]c(=O)[n-]c1=O (optimized conformer: 38.37614255972608 kcal/mol)

>  <smiles>  (20) 
Cc1ccccc1NC(=O)Nc1c[nH]c(=O)[nH]c1=O

>  <score_type>  (20) 
oracle

>  <origin>  (20) 
adgpu

>  <m_score__min__energy>  (20) 
-10.210000000000001

>  <m_primary>  (20) 
energy

$$$$
20:0
     RDKit          3D

 42 45  0  0  0  0  0  0  0  0999 V2000
   -5.3540   20.1130  -33.2950 C   0  0  0  0  0  0  0  0  0  0  0  0
   -6.7900   20.2800  -32.8800 C   0  0  0  0  0  0  0  0  0  0  0  0
   -7.6670   19.1870  -32.9850 C   0  0  0  0  0  0  0  0  0  0  0  0
   -8.9980   19.3060  -32.5780 C   0  0  0  0  0  0  0  0  0  0  0  0
   -9.4680   20.5170  -32.0650 C   0  0  0  0  0  0  0  0  0  0  0  0
   -8.6120   21.6160  -31.9730 C   0  0  0  0  0  0  0  0  0  0  0  0
   -7.2820   21.5170  -32.4000 C   0  0  0  0  0  0  0  0  0  0  0  0
   -6.4650   22.6510  -32.3110 O   0  0  0  0  0  0  0  0  0  0  0  0
   -5.8370   23.0830  -31.1330 C   0  0  0  0  0  0  0  0  0  0  0  0
   -5.8400   24.4490  -30.8330 C   0  0  0  0  0  0  0  0  0  0  0  0
   -5.2240   24.9240  -29.6720 C   0  0  0  0  0  0  0  0  0  0  0  0
   -4.5870   24.0340  -28.7910 C   0  0  0  0  0  0  0  0  0  0  0  0
   -3.9380   24.5330  -27.5600 C   0  0  0  0  0  0  0  0  0  0  0  0
   -4.6120   24.9260  -26.4600 N   0  0  0  0  0  0  0  0  0  0  0  0
   -3.6960   25.2870  -25.6160 O   0  0  0  0  0  0  0  0  0  0  0  0
   -2.5110   25.1310  -26.1530 C   0  0  0  0  0  0  0  0  0  0  0  0
   -1.2400   25.4450  -25.4710 C   0  0  0  0  0  0  0  0  0  0  0  0
   -0.2260   24.4760  -25.3890 C   0  0  0  0  0  0  0  0  0  0  0  0
    0.9800   24.7710  -24.7450 C   0  0  0  0  0  0  0  0  0  0  0  0
    1.1840   26.0310  -24.1780 C   0  0  0  0  0  0  0  0  0  0  0  0
    0.1820   27.0040  -24.2510 C   0  0  0  0  0  0  0  0  0  0  0  0
    0.3970   28.2550  -23.6790 O   0  0  0  0  0  0  0  0  0  0  0  0
   -1.0290   26.7110  -24.8960 C   0  0  0  0  0  0  0  0  0  0  0  0
   -2.6000   24.6490  -27.4080 N   0  0  0  0  0  0  0  0  0  0  0  0
   -4.5720   22.6630  -29.0980 C   0  0  0  0  0  0  0  0  0  0  0  0
   -5.1880   22.1910  -30.2600 C   0  0  0  0  0  0  0  0  0  0  0  0
   -4.7197   20.0392  -32.3993 H   0  0  0  0  0  0  0  0  0  0  0  0
   -5.2498   19.1967  -33.8946 H   0  0  0  0  0  0  0  0  0  0  0  0
   -5.0423   20.9809  -33.8946 H   0  0  0  0  0  0  0  0  0  0  0  0
   -7.3030   18.2314  -33.3904 H   0  0  0  0  0  0  0  0  0  0  0  0
   -9.6770   18.4446  -32.6617 H   0  0  0  0  0  0  0  0  0  0  0  0
  -10.5131   20.6049  -31.7333 H   0  0  0  0  0  0  0  0  0  0  0  0
   -8.9847   22.5660  -31.5624 H   0  0  0  0  0  0  0  0  0  0  0  0
   -6.3318   25.1561  -31.5172 H   0  0  0  0  0  0  0  0  0  0  0  0
   -5.2379   26.0006  -29.4467 H   0  0  0  0  0  0  0  0  0  0  0  0
   -0.3812   23.4816  -25.8329 H   0  0  0  0  0  0  0  0  0  0  0  0
    1.7703   24.0083  -24.6849 H   0  0  0  0  0  0  0  0  0  0  0  0
    2.1344   26.2585  -23.6731 H   0  0  0  0  0  0  0  0  0  0  0  0
    0.2430   28.4210  -22.6920 H   0  0  0  0  0  0  0  0  0  0  0  0
   -1.8177   27.4757  -24.9523 H   0  0  0  0  0  0  0  0  0  0  0  0
   -4.0720   21.9565  -28.4191 H   0  0  0  0  0  0  0  0  0  0  0  0
   -5.1653   21.1163  -30.4934 H   0  0  0  0  0  0  0  0  0  0  0  0
  1  2  1  0
  2  3  2  0
  3  4  1  0
  4  5  2  0
  5  6  1  0
  6  7  2  0
  7  8  1  0
  8  9  1  0
  9 10  2  0
 10 11  1  0
 11 12  2  0
 12 13  1  0
 13 14  2  0
 14 15  1  0
 15 16  1  0
 16 17  1  0
 17 18  2  0
 18 19  1  0
 19 20  2  0
 20 21  1  0
 21 22  1  0
 21 23  2  0
 16 24  2  0
 12 25  1  0
 25 26  2  0
  7  2  1  0
 26  9  1  0
 24 13  1  0
 23 17  1  0
  1 27  1  0
  1 28  1  0
  1 29  1  0
  3 30  1  0
  4 31  1  0
  5 32  1  0
  6 33  1  0
 10 34  1  0
 11 35  1  0
 18 36  1  0
 19 37  1  0
 20 38  1  0
 22 39  1  0
 23 40  1  0
 25 41  1  0
 26 42  1  0
M  END
>  <UniqueID>  (21) 
19

>  <SMILES>  (21) 
Cc1ccccc1Oc1ccc(-c2noc(-c3cccc(O)c3)n2)cc1

>  <Energy>  (21) 
88.08970819592132

>  <Genealogy>  (21) 
Cc1ccccc1Oc1ccc(-c2noc(-c3cccc(O)c3)n2)cc1 (3D coordinates assigned)
Cc1ccccc1Oc1ccc(-c2noc(-c3cccc(O)c3)n2)cc1 (optimized conformer: 88.08970819592132 kcal/mol)

>  <smiles>  (21) 
Cc1ccccc1Oc1ccc(-c2noc(-c3cccc(O)c3)n2)cc1

>  <score_type>  (21) 
oracle

>  <origin>  (21) 
adgpu

>  <m_score__min__energy>  (21) 
-9.2599999999999998

>  <m_primary>  (21) 
energy

$$$$
21:0
     RDKit          3D

 46 49  0  0  0  0  0  0  0  0999 V2000
    1.8730   19.3430  -30.6440 C   0  0  0  0  0  0  0  0  0  0  0  0
    0.5690   19.7500  -31.2000 N   0  0  0  0  0  0  0  0  0  0  0  0
   -0.1900   20.6800  -30.5390 C   0  0  0  0  0  0  0  0  0  0  0  0
    0.2300   21.1520  -29.4470 O   0  0  0  0  0  0  0  0  0  0  0  0
   -1.4260   21.1100  -31.0780 C   0  0  0  0  0  0  0  0  0  0  0  0
   -2.2790   22.0780  -30.4580 C   0  0  0  0  0  0  0  0  0  0  0  0
   -1.9050   22.7350  -29.1840 C   0  0  0  0  0  0  0  0  0  0  0  0
   -1.3630   24.0300  -29.2120 C   0  0  0  0  0  0  0  0  0  0  0  0
   -1.0130   24.6740  -28.0230 C   0  0  0  0  0  0  0  0  0  0  0  0
   -1.1880   24.0250  -26.7980 C   0  0  0  0  0  0  0  0  0  0  0  0
   -1.7020   22.7270  -26.7610 C   0  0  0  0  0  0  0  0  0  0  0  0
   -2.0560   22.0730  -27.9480 C   0  0  0  0  0  0  0  0  0  0  0  0
   -2.6610   20.4230  -27.8630 Cl  0  0  0  0  0  0  0  0  0  0  0  0
   -3.5000   22.4320  -31.0820 C   0  0  0  0  0  0  0  0  0  0  0  0
   -4.6270   23.6120  -30.3790 S   0  0  0  0  0  0  0  0  0  0  0  0
   -4.2580   24.9890  -30.8560 O   0  0  0  0  0  0  0  0  0  0  0  0
   -4.5360   23.5950  -28.8780 O   0  0  0  0  0  0  0  0  0  0  0  0
   -6.2830   23.2260  -30.8290 C   0  0  0  0  0  0  0  0  0  0  0  0
   -7.0370   22.3570  -30.0260 C   0  0  0  0  0  0  0  0  0  0  0  0
   -8.3430   22.0190  -30.3910 C   0  0  0  0  0  0  0  0  0  0  0  0
   -8.9030   22.5480  -31.5570 C   0  0  0  0  0  0  0  0  0  0  0  0
   -8.1590   23.4200  -32.3570 C   0  0  0  0  0  0  0  0  0  0  0  0
   -6.8530   23.7610  -31.9940 C   0  0  0  0  0  0  0  0  0  0  0  0
   -3.8350   21.8350  -32.2970 C   0  0  0  0  0  0  0  0  0  0  0  0
   -3.0110   20.9270  -32.8670 N   0  0  0  0  0  0  0  0  0  0  0  0
   -1.8320   20.5420  -32.3060 C   0  0  0  0  0  0  0  0  0  0  0  0
   -1.0480   19.6160  -32.9420 N   0  0  0  0  0  0  0  0  0  0  0  0
   -1.4760   19.0650  -34.2430 C   0  0  0  0  0  0  0  0  0  0  0  0
    0.1620   19.2560  -32.4110 C   0  0  0  0  0  0  0  0  0  0  0  0
    0.9150   18.4640  -33.0480 O   0  0  0  0  0  0  0  0  0  0  0  0
    1.8240   19.3583  -29.5452 H   0  0  0  0  0  0  0  0  0  0  0  0
    2.1162   18.3262  -30.9861 H   0  0  0  0  0  0  0  0  0  0  0  0
    2.6514   20.0409  -30.9861 H   0  0  0  0  0  0  0  0  0  0  0  0
   -1.2133   24.5399  -30.1751 H   0  0  0  0  0  0  0  0  0  0  0  0
   -0.5993   25.6929  -28.0510 H   0  0  0  0  0  0  0  0  0  0  0  0
   -0.9206   24.5370  -25.8618 H   0  0  0  0  0  0  0  0  0  0  0  0
   -1.8294   22.2159  -25.7953 H   0  0  0  0  0  0  0  0  0  0  0  0
   -6.5991   21.9407  -29.1068 H   0  0  0  0  0  0  0  0  0  0  0  0
   -8.9307   21.3360  -29.7600 H   0  0  0  0  0  0  0  0  0  0  0  0
   -9.9296   22.2781  -31.8453 H   0  0  0  0  0  0  0  0  0  0  0  0
   -8.6017   23.8382  -33.2730 H   0  0  0  0  0  0  0  0  0  0  0  0
   -6.2708   24.4504  -32.6231 H   0  0  0  0  0  0  0  0  0  0  0  0
   -4.7775   22.1050  -32.7958 H   0  0  0  0  0  0  0  0  0  0  0  0
   -2.1430   18.2064  -34.0760 H   0  0  0  0  0  0  0  0  0  0  0  0
   -2.0113   19.8400  -34.8112 H   0  0  0  0  0  0  0  0  0  0  0  0
   -0.5927   18.7381  -34.8112 H   0  0  0  0  0  0  0  0  0  0  0  0
  1  2  1  0
  2  3  1  0
  3  4  2  0
  3  5  1  0
  5  6  2  0
  6  7  1  0
  7  8  2  0
  8  9  1  0
  9 10  2  0
 10 11  1  0
 11 12  2  0
 12 13  1  0
  6 14  1  0
 14 15  1  0
 15 16  2  0
 15 17  2  0
 15 18  1  0
 18 19  2  0
 19 20  1  0
 20 21  2  0
 21 22  1  0
 22 23  2  0
 14 24  2  0
 24 25  1  0
 25 26  2  0
 26 27  1  0
 27 28  1  0
 27 29  1  0
 29 30  2  0
 29  2  1  0
 26  5  1  0
 12  7  1  0
 23 18  1  0
  1 31  1  0
  1 32  1  0
  1 33  1  0
  8 34  1  0
  9 35  1  0
 10 36  1  0
 11 37  1  0
 19 38  1  0
 20 39  1  0
 21 40  1  0
 22 41  1  0
 23 42  1  0
 24 43  1  0
 28 44  1  0
 28 45  1  0
 28 46  1  0
M  END
>  <UniqueID>  (22) 
20

>  <SMILES>  (22) 
Cn1c(=O)c2c(-c3ccccc3Cl)c(S(=O)(=O)c3ccccc3)cnc2n(C)c1=O

>  <Energy>  (22) 
75.99085795491541

>  <Genealogy>  (22) 
Cn1c(=O)c2c(-c3ccccc3Cl)c(S(=O)(=O)c3ccccc3)cnc2n(C)c1=O (3D coordinates assigned)
Cn1c(=O)c2c(-c3ccccc3Cl)c(S(=O)(=O)c3ccccc3)cnc2n(C)c1=O (optimized conformer: 75.99085795491541 kcal/mol)

>  <smiles>  (22) 
Cn1c(=O)c2c(-c3ccccc3Cl)c(S(=O)(=O)c3ccccc3)cnc2n(C)c1=O

>  <score_type>  (22) 
oracle

>  <origin>  (22) 
adgpu

>  <m_score__min__energy>  (22) 
-9.5700000000000003

>  <m_primary>  (22) 
energy

$$$$
22:0
     RDKit          3D

 44 46  0  0  0  0  0  0  0  0999 V2000
    1.0980   19.7480  -31.6390 C   0  0  0  0  0  0  0  0  0  0  0  0
    0.2770   20.6850  -32.3290 O   0  0  0  0  0  0  0  0  0  0  0  0
   -1.0710   20.4730  -32.6480 C   0  0  0  0  0  0  0  0  0  0  0  0
   -1.5120   19.1580  -32.8350 C   0  0  0  0  0  0  0  0  0  0  0  0
   -2.8470   18.8930  -33.1530 C   0  0  0  0  0  0  0  0  0  0  0  0
   -3.7660   19.9490  -33.2900 C   0  0  0  0  0  0  0  0  0  0  0  0
   -5.1450   19.7250  -33.6120 N   0  0  0  0  0  0  0  0  0  0  0  0
   -6.4330   19.5920  -32.4570 S   0  0  0  0  0  0  0  0  0  0  0  0
   -7.6360   18.9690  -33.1060 O   0  0  0  0  0  0  0  0  0  0  0  0
   -5.9730   18.7470  -31.3020 O   0  0  0  0  0  0  0  0  0  0  0  0
   -6.8640   21.1920  -31.8640 C   0  0  0  0  0  0  0  0  0  0  0  0
   -8.1140   21.7500  -32.1680 C   0  0  0  0  0  0  0  0  0  0  0  0
   -8.4510   23.0170  -31.6850 C   0  0  0  0  0  0  0  0  0  0  0  0
   -7.5420   23.7340  -30.9050 C   0  0  0  0  0  0  0  0  0  0  0  0
   -6.2860   23.1950  -30.6060 C   0  0  0  0  0  0  0  0  0  0  0  0
   -5.3830   23.9580  -29.7900 N   0  0  0  0  0  0  0  0  0  0  0  0
   -4.0490   24.3580  -30.1370 C   0  0  0  0  0  0  0  0  0  0  0  0
   -3.8950   25.3550  -30.8910 O   0  0  0  0  0  0  0  0  0  0  0  0
   -2.8550   23.6200  -29.6650 C   0  0  0  0  0  0  0  0  0  0  0  0
   -2.9070   22.2200  -29.5640 C   0  0  0  0  0  0  0  0  0  0  0  0
   -1.7860   21.4960  -29.1460 C   0  0  0  0  0  0  0  0  0  0  0  0
   -0.6020   22.1650  -28.8130 C   0  0  0  0  0  0  0  0  0  0  0  0
    0.5240   21.4550  -28.4030 O   0  0  0  0  0  0  0  0  0  0  0  0
   -0.5490   23.5600  -28.8870 C   0  0  0  0  0  0  0  0  0  0  0  0
   -1.6680   24.2910  -29.3020 C   0  0  0  0  0  0  0  0  0  0  0  0
   -1.5960   25.6790  -29.3280 O   0  0  0  0  0  0  0  0  0  0  0  0
   -5.9610   21.9080  -31.0690 C   0  0  0  0  0  0  0  0  0  0  0  0
   -3.3270   21.2660  -33.1050 C   0  0  0  0  0  0  0  0  0  0  0  0
   -1.9910   21.5310  -32.7870 C   0  0  0  0  0  0  0  0  0  0  0  0
    0.9782   19.8847  -30.5541 H   0  0  0  0  0  0  0  0  0  0  0  0
    0.7994   18.7259  -31.9150 H   0  0  0  0  0  0  0  0  0  0  0  0
    2.1505   19.9097  -31.9150 H   0  0  0  0  0  0  0  0  0  0  0  0
   -0.8012   18.3250  -32.7307 H   0  0  0  0  0  0  0  0  0  0  0  0
   -3.1802   17.8546  -33.2967 H   0  0  0  0  0  0  0  0  0  0  0  0
   -8.8299   21.1897  -32.7873 H   0  0  0  0  0  0  0  0  0  0  0  0
   -9.4344   23.4503  -31.9198 H   0  0  0  0  0  0  0  0  0  0  0  0
   -7.8149   24.7288  -30.5231 H   0  0  0  0  0  0  0  0  0  0  0  0
   -3.8368   21.6889  -29.8157 H   0  0  0  0  0  0  0  0  0  0  0  0
   -1.8345   20.3991  -29.0787 H   0  0  0  0  0  0  0  0  0  0  0  0
    0.5270   20.9170  -27.5430 H   0  0  0  0  0  0  0  0  0  0  0  0
    0.3783   24.0866  -28.6173 H   0  0  0  0  0  0  0  0  0  0  0  0
   -4.9913   21.4608  -30.8050 H   0  0  0  0  0  0  0  0  0  0  0  0
   -4.0384   22.0984  -33.2106 H   0  0  0  0  0  0  0  0  0  0  0  0
   -1.6573   22.5695  -32.6449 H   0  0  0  0  0  0  0  0  0  0  0  0
  1  2  1  0
  2  3  1  0
  3  4  2  0
  4  5  1  0
  5  6  2  0
  6  7  1  0
  7  8  1  0
  8  9  2  0
  8 10  2  0
  8 11  1  0
 11 12  2  0
 12 13  1  0
 13 14  2  0
 14 15  1  0
 15 16  1  0
 16 17  1  0
 17 18  2  0
 17 19  1  0
 19 20  2  0
 20 21  1  0
 21 22  2  0
 22 23  1  0
 22 24  1  0
 24 25  2  0
 25 26  1  0
 15 27  2  0
  6 28  1  0
 28 29  2  0
 29  3  1  0
 27 11  1  0
 25 19  1  0
  1 30  1  0
  1 31  1  0
  1 32  1  0
  4 33  1  0
  5 34  1  0
 12 35  1  0
 13 36  1  0
 14 37  1  0
 20 38  1  0
 21 39  1  0
 23 40  1  0
 24 41  1  0
 27 42  1  0
 28 43  1  0
 29 44  1  0
M  CHG  3   7  -1  16  -1  26  -1
M  END
>  <UniqueID>  (23) 
21

>  <SMILES>  (23) 
COc1ccc([N-]S(=O)(=O)c2cccc([N-]C(=O)c3ccc(O)cc3[O-])c2)cc1

>  <Energy>  (23) 
57.810768773780815

>  <Genealogy>  (23) 
COc1ccc([N-]S(=O)(=O)c2cccc([N-]C(=O)c3ccc(O)cc3[O-])c2)cc1 (protonated)
COc1ccc([N-]S(=O)(=O)c2cccc([N-]C(=O)c3ccc(O)cc3[O-])c2)cc1 (3D coordinates assigned)
COc1ccc([N-]S(=O)(=O)c2cccc([N-]C(=O)c3ccc(O)cc3[O-])c2)cc1 (optimized conformer: 57.810768773780815 kcal/mol)

>  <smiles>  (23) 
COc1ccc(NS(=O)(=O)c2cccc(NC(=O)c3ccc(O)cc3O)c2)cc1

>  <score_type>  (23) 
oracle

>  <origin>  (23) 
adgpu

>  <m_score__min__energy>  (23) 
-12.220000000000001

>  <m_primary>  (23) 
energy

$$$$
23:0
     RDKit          3D

 38 40  0  0  0  0  0  0  0  0999 V2000
   -6.8590   16.6350  -33.4450 C   0  0  0  0  0  0  0  0  0  0  0  0
   -7.0800   18.0610  -33.0370 C   0  0  0  0  0  0  0  0  0  0  0  0
   -7.9750   18.3700  -32.0030 C   0  0  0  0  0  0  0  0  0  0  0  0
   -8.2100   19.7020  -31.6480 C   0  0  0  0  0  0  0  0  0  0  0  0
   -7.5560   20.7410  -32.3260 C   0  0  0  0  0  0  0  0  0  0  0  0
   -7.8420   22.1760  -31.9730 C   0  0  0  0  0  0  0  0  0  0  0  0
   -6.7690   22.7120  -31.1280 N   0  0  0  0  0  0  0  0  0  0  0  0
   -5.6580   21.9540  -30.8790 C   0  0  0  0  0  0  0  0  0  0  0  0
   -4.6410   22.4330  -30.0500 C   0  0  0  0  0  0  0  0  0  0  0  0
   -4.7590   23.7000  -29.4600 C   0  0  0  0  0  0  0  0  0  0  0  0
   -3.6890   24.2260  -28.5730 C   0  0  0  0  0  0  0  0  0  0  0  0
   -3.9380   24.4450  -27.2050 C   0  0  0  0  0  0  0  0  0  0  0  0
   -2.9300   24.9420  -26.3720 C   0  0  0  0  0  0  0  0  0  0  0  0
   -1.6660   25.2240  -26.8940 C   0  0  0  0  0  0  0  0  0  0  0  0
   -1.4060   25.0110  -28.2500 C   0  0  0  0  0  0  0  0  0  0  0  0
   -2.4100   24.5160  -29.0870 C   0  0  0  0  0  0  0  0  0  0  0  0
   -5.9110   24.4570  -29.7200 C   0  0  0  0  0  0  0  0  0  0  0  0
   -6.9070   23.9450  -30.5530 C   0  0  0  0  0  0  0  0  0  0  0  0
   -6.6840   20.4330  -33.3810 C   0  0  0  0  0  0  0  0  0  0  0  0
   -6.4490   19.1010  -33.7360 C   0  0  0  0  0  0  0  0  0  0  0  0
   -6.7618   16.0075  -32.5468 H   0  0  0  0  0  0  0  0  0  0  0  0
   -7.7141   16.2882  -34.0437 H   0  0  0  0  0  0  0  0  0  0  0  0
   -5.9390   16.5633  -34.0437 H   0  0  0  0  0  0  0  0  0  0  0  0
   -8.4947   17.5611  -31.4686 H   0  0  0  0  0  0  0  0  0  0  0  0
   -8.9110   19.9359  -30.8332 H   0  0  0  0  0  0  0  0  0  0  0  0
   -7.9097   22.7709  -32.8958 H   0  0  0  0  0  0  0  0  0  0  0  0
   -8.7930   22.2282  -31.4227 H   0  0  0  0  0  0  0  0  0  0  0  0
   -5.5646   20.9578  -31.3359 H   0  0  0  0  0  0  0  0  0  0  0  0
   -3.7492   21.8177  -29.8602 H   0  0  0  0  0  0  0  0  0  0  0  0
   -4.9317   24.2239  -26.7882 H   0  0  0  0  0  0  0  0  0  0  0  0
   -3.1334   25.1109  -25.3042 H   0  0  0  0  0  0  0  0  0  0  0  0
   -0.8745   25.6141  -26.2372 H   0  0  0  0  0  0  0  0  0  0  0  0
   -0.4096   25.2332  -28.6596 H   0  0  0  0  0  0  0  0  0  0  0  0
   -2.2000   24.3518  -30.1542 H   0  0  0  0  0  0  0  0  0  0  0  0
   -6.0292   25.4528  -29.2680 H   0  0  0  0  0  0  0  0  0  0  0  0
   -7.8118   24.5391  -30.7489 H   0  0  0  0  0  0  0  0  0  0  0  0
   -6.1829   21.2429  -33.9314 H   0  0  0  0  0  0  0  0  0  0  0  0
   -5.7667   18.8677  -34.5666 H   0  0  0  0  0  0  0  0  0  0  0  0
  1  2  1  0
  2  3  2  0
  3  4  1  0
  4  5  2  0
  5  6  1  0
  6  7  1  0
  7  8  2  0
  8  9  1  0
  9 10  2  0
 10 11  1  0
 11 12  2  0
 12 13  1  0
 13 14  2  0
 14 15  1  0
 15 16  2  0
 10 17  1  0
 17 18  2  0
  5 19  1  0
 19 20  2  0
 20  2  1  0
 18  7  1  0
 16 11  1  0
  1 21  1  0
  1 22  1  0
  1 23  1  0
  3 24  1  0
  4 25  1  0
  6 26  1  0
  6 27  1  0
  8 28  1  0
  9 29  1  0
 12 30  1  0
 13 31  1  0
 14 32  1  0
 15 33  1  0
 16 34  1  0
 17 35  1  0
 18 36  1  0
 19 37  1  0
 20 38  1  0
M  CHG  1   7   1
M  END
>  <UniqueID>  (24) 
22

>  <SMILES>  (24) 
Cc1ccc(C[n+]2ccc(-c3ccccc3)cc2)cc1

>  <Energy>  (24) 
44.55990884920854

>  <Genealogy>  (24) 
Cc1ccc(C[n+]2ccc(-c3ccccc3)cc2)cc1 (3D coordinates assigned)
Cc1ccc(C[n+]2ccc(-c3ccccc3)cc2)cc1 (optimized conformer: 44.55990884920854 kcal/mol)

>  <smiles>  (24) 
Cc1ccc(C[n+]2ccc(-c3ccccc3)cc2)cc1

>  <score_type>  (24) 
oracle

>  <origin>  (24) 
adgpu

>  <m_score__min__energy>  (24) 
-7.1200000000000001

>  <m_primary>  (24) 
energy

$$$$
24:0
     RDKit          3D

 44 47  0  0  0  0  0  0  0  0999 V2000
   -9.9877   17.8040  -31.3507 H   0  0  0  0  0  0  0  0  0  0  0  0
   -9.1700   18.3570  -31.8360 C   0  0  0  0  0  0  0  0  0  0  0  0
   -8.0160   17.7180  -32.1580 N   0  0  0  0  0  0  0  0  0  0  0  0
   -6.9910   18.3840  -32.7500 C   0  0  0  0  0  0  0  0  0  0  0  0
   -6.0679   17.8473  -33.0142 H   0  0  0  0  0  0  0  0  0  0  0  0
   -7.1060   19.7480  -33.0240 C   0  0  0  0  0  0  0  0  0  0  0  0
   -6.0430   20.4160  -33.6490 O   0  0  0  0  0  0  0  0  0  0  0  0
   -5.0200   21.1150  -32.9890 C   0  0  0  0  0  0  0  0  0  0  0  0
   -3.7060   20.6590  -33.1260 C   0  0  0  0  0  0  0  0  0  0  0  0
   -3.4968   19.7790  -33.7519 H   0  0  0  0  0  0  0  0  0  0  0  0
   -2.6480   21.3160  -32.4700 C   0  0  0  0  0  0  0  0  0  0  0  0
   -1.3150   20.8950  -32.5860 O   0  0  0  0  0  0  0  0  0  0  0  0
   -0.7810   20.2070  -33.7130 C   0  0  0  0  0  0  0  0  0  0  0  0
   -0.2696   19.2927  -33.3774 H   0  0  0  0  0  0  0  0  0  0  0  0
   -1.5958   19.9363  -34.4006 H   0  0  0  0  0  0  0  0  0  0  0  0
    0.1920   21.0940  -34.4140 C   0  0  0  0  0  0  0  0  0  0  0  0
   -0.1180   22.3010  -34.9240 N   0  0  0  0  0  0  0  0  0  0  0  0
    0.9900   22.8060  -35.3860 O   0  0  0  0  0  0  0  0  0  0  0  0
    2.0040   21.9950  -35.1920 C   0  0  0  0  0  0  0  0  0  0  0  0
    3.0455   22.1856  -35.4902 H   0  0  0  0  0  0  0  0  0  0  0  0
    1.5440   20.8650  -34.5520 C   0  0  0  0  0  0  0  0  0  0  0  0
    2.1205   19.9862  -34.2273 H   0  0  0  0  0  0  0  0  0  0  0  0
   -2.9250   22.4290  -31.6700 C   0  0  0  0  0  0  0  0  0  0  0  0
   -2.0998   22.9495  -31.1619 H   0  0  0  0  0  0  0  0  0  0  0  0
   -4.2420   22.8930  -31.5050 C   0  0  0  0  0  0  0  0  0  0  0  0
   -4.5280   24.0680  -30.6470 C   0  0  0  0  0  0  0  0  0  0  0  0
   -5.7130   24.3020  -30.2890 O   0  0  0  0  0  0  0  0  0  0  0  0
   -3.4510   24.9300  -30.2380 N   0  0  0  0  0  0  0  0  0  0  0  0
   -2.6450   24.7970  -29.2210 C   0  0  0  0  0  0  0  0  0  0  0  0
   -1.6770   25.6940  -28.9560 N   0  0  0  0  0  0  0  0  0  0  0  0
   -1.0440   25.2730  -27.8730 N   0  0  0  0  0  0  0  0  0  0  0  0
    0.0380   26.0020  -27.2280 C   0  0  0  0  0  0  0  0  0  0  0  0
   -0.0706   25.9288  -26.1358 H   0  0  0  0  0  0  0  0  0  0  0  0
    1.0030   25.5692  -27.5303 H   0  0  0  0  0  0  0  0  0  0  0  0
   -0.0007   27.0589  -27.5303 H   0  0  0  0  0  0  0  0  0  0  0  0
   -1.5980   24.1300  -27.4270 C   0  0  0  0  0  0  0  0  0  0  0  0
   -1.2794   23.5673  -26.5371 H   0  0  0  0  0  0  0  0  0  0  0  0
   -2.6310   23.7820  -28.2710 C   0  0  0  0  0  0  0  0  0  0  0  0
   -3.2913   22.9045  -28.2075 H   0  0  0  0  0  0  0  0  0  0  0  0
   -5.2870   22.2190  -32.1620 C   0  0  0  0  0  0  0  0  0  0  0  0
   -6.3242   22.5597  -32.0270 H   0  0  0  0  0  0  0  0  0  0  0  0
   -8.3140   20.3840  -32.7010 C   0  0  0  0  0  0  0  0  0  0  0  0
   -8.4504   21.4526  -32.9237 H   0  0  0  0  0  0  0  0  0  0  0  0
   -9.3150   19.6790  -32.1130 N   0  0  0  0  0  0  0  0  0  0  0  0
  1  2  1  0
  2  3  2  0
  3  4  1  0
  4  5  1  0
  4  6  2  0
  6  7  1  0
  7  8  1  0
  8  9  2  0
  9 10  1  0
  9 11  1  0
 11 12  1  0
 12 13  1  0
 13 14  1  0
 13 15  1  0
 13 16  1  0
 16 17  2  0
 17 18  1  0
 18 19  1  0
 19 20  1  0
 19 21  2  0
 21 22  1  0
 11 23  2  0
 23 24  1  0
 23 25  1  0
 25 26  1  0
 26 27  2  0
 26 28  1  0
 28 29  2  0
 29 30  1  0
 30 31  1  0
 31 32  1  0
 32 33  1  0
 32 34  1  0
 32 35  1  0
 31 36  1  0
 36 37  1  0
 36 38  2  0
 38 39  1  0
 25 40  2  0
 40 41  1  0
  6 42  1  0
 42 43  1  0
 42 44  2  0
 44  2  1  0
 40  8  1  0
 21 16  1  0
 38 29  1  0
M  CHG  1  30  -1
M  END
>  <UniqueID>  (25) 
23

>  <SMILES>  (25) 
Cn1cc/c(=N\C(=O)c2cc(OCc3ccon3)cc(Oc3cncnc3)c2)[n-]1

>  <Energy>  (25) 
119.1730696430496

>  <Genealogy>  (25) 
Cn1ccc(=NC(=O)c2cc(OCc3ccon3)cc(Oc3cncnc3)c2)[n-]1 (protonated)
Cn1cc/c(=N\C(=O)c2cc(OCc3ccon3)cc(Oc3cncnc3)c2)[n-]1 (cis-trans isomerization)
Cn1cc/c(=N\C(=O)c2cc(OCc3ccon3)cc(Oc3cncnc3)c2)[n-]1 (3D coordinates assigned)
Cn1cc/c(=N\C(=O)c2cc(OCc3ccon3)cc(Oc3cncnc3)c2)[n-]1 (optimized conformer: 119.1730696430496 kcal/mol)

>  <smiles>  (25) 
Cn1ccc(=NC(=O)c2cc(OCc3ccon3)cc(Oc3cncnc3)c2)[nH]1

>  <score_type>  (25) 
oracle

>  <origin>  (25) 
adgpu

>  <m_score__min__energy>  (25) 
-10.25

>  <m_primary>  (25) 
energy

$$$$
25:0
     RDKit          3D

 37 39  0  0  0  0  0  0  0  0999 V2000
   -5.7130   25.0470  -28.9760 O   0  0  0  0  0  0  0  0  0  0  0  0
   -5.2220   24.9930  -30.3950 S   0  0  0  0  0  0  0  0  0  0  0  0
   -5.6650   26.2390  -31.1140 O   0  0  0  0  0  0  0  0  0  0  0  0
   -3.4890   24.9270  -30.3950 N   0  0  0  0  0  0  0  0  0  0  0  0
   -2.6860   24.3360  -29.3650 C   0  0  0  0  0  0  0  0  0  0  0  0
   -1.4610   24.8970  -28.9540 C   0  0  0  0  0  0  0  0  0  0  0  0
   -0.7070   24.2800  -27.9520 C   0  0  0  0  0  0  0  0  0  0  0  0
   -1.1670   23.1060  -27.3500 C   0  0  0  0  0  0  0  0  0  0  0  0
   -2.3820   22.5460  -27.7500 C   0  0  0  0  0  0  0  0  0  0  0  0
   -3.1390   23.1590  -28.7540 C   0  0  0  0  0  0  0  0  0  0  0  0
   -5.8820   23.5590  -31.1730 C   0  0  0  0  0  0  0  0  0  0  0  0
   -7.2560   23.2960  -31.1050 C   0  0  0  0  0  0  0  0  0  0  0  0
   -7.7830   22.1510  -31.7110 C   0  0  0  0  0  0  0  0  0  0  0  0
   -6.9450   21.2530  -32.3800 C   0  0  0  0  0  0  0  0  0  0  0  0
   -7.5140   20.1220  -32.9850 O   0  0  0  0  0  0  0  0  0  0  0  0
   -6.8250   18.9470  -33.3190 C   0  0  0  0  0  0  0  0  0  0  0  0
   -6.1130   18.9040  -34.5240 C   0  0  0  0  0  0  0  0  0  0  0  0
   -5.4260   17.7450  -34.8980 C   0  0  0  0  0  0  0  0  0  0  0  0
   -5.4560   16.6160  -34.0750 C   0  0  0  0  0  0  0  0  0  0  0  0
   -6.1810   16.6430  -32.8790 C   0  0  0  0  0  0  0  0  0  0  0  0
   -6.8690   17.8000  -32.5030 C   0  0  0  0  0  0  0  0  0  0  0  0
   -5.5700   21.5340  -32.4720 C   0  0  0  0  0  0  0  0  0  0  0  0
   -5.0420   22.6780  -31.8670 C   0  0  0  0  0  0  0  0  0  0  0  0
   -1.0969   25.8231  -29.4229 H   0  0  0  0  0  0  0  0  0  0  0  0
    0.2507   24.7196  -27.6366 H   0  0  0  0  0  0  0  0  0  0  0  0
   -0.5720   22.6229  -26.5610 H   0  0  0  0  0  0  0  0  0  0  0  0
   -2.7441   21.6222  -27.2753 H   0  0  0  0  0  0  0  0  0  0  0  0
   -4.0956   22.7145  -29.0658 H   0  0  0  0  0  0  0  0  0  0  0  0
   -7.9222   23.9916  -30.5737 H   0  0  0  0  0  0  0  0  0  0  0  0
   -8.8643   21.9553  -31.6611 H   0  0  0  0  0  0  0  0  0  0  0  0
   -6.0940   19.7868  -35.1799 H   0  0  0  0  0  0  0  0  0  0  0  0
   -4.8610   17.7219  -35.8415 H   0  0  0  0  0  0  0  0  0  0  0  0
   -4.9100   15.7069  -34.3674 H   0  0  0  0  0  0  0  0  0  0  0  0
   -6.2097   15.7526  -32.2337 H   0  0  0  0  0  0  0  0  0  0  0  0
   -7.4466   17.8148  -31.5669 H   0  0  0  0  0  0  0  0  0  0  0  0
   -4.9071   20.8503  -33.0226 H   0  0  0  0  0  0  0  0  0  0  0  0
   -3.9643   22.8873  -31.9358 H   0  0  0  0  0  0  0  0  0  0  0  0
  1  2  2  0
  2  3  2  0
  2  4  1  0
  4  5  1  0
  5  6  2  0
  6  7  1  0
  7  8  2  0
  8  9  1  0
  9 10  2  0
  2 11  1  0
 11 12  2  0
 12 13  1  0
 13 14  2  0
 14 15  1  0
 15 16  1  0
 16 17  2  0
 17 18  1  0
 18 19  2  0
 19 20  1  0
 20 21  2  0
 14 22  1  0
 22 23  2  0
 10  5  1  0
 23 11  1  0
 21 16  1  0
  6 24  1  0
  7 25  1  0
  8 26  1  0
  9 27  1  0
 10 28  1  0
 12 29  1  0
 13 30  1  0
 17 31  1  0
 18 32  1  0
 19 33  1  0
 20 34  1  0
 21 35  1  0
 22 36  1  0
 23 37  1  0
M  CHG  1   4  -1
M  END
>  <UniqueID>  (26) 
24

>  <SMILES>  (26) 
O=S(=O)([N-]c1ccccc1)c1ccc(Oc2ccccc2)cc1

>  <Energy>  (26) 
49.28807960943906

>  <Genealogy>  (26) 
O=S(=O)([N-]c1ccccc1)c1ccc(Oc2ccccc2)cc1 (protonated)
O=S(=O)([N-]c1ccccc1)c1ccc(Oc2ccccc2)cc1 (3D coordinates assigned)
O=S(=O)([N-]c1ccccc1)c1ccc(Oc2ccccc2)cc1 (optimized conformer: 49.28807960943906 kcal/mol)

>  <smiles>  (26) 
O=S(=O)(Nc1ccccc1)c1ccc(Oc2ccccc2)cc1

>  <score_type>  (26) 
oracle

>  <origin>  (26) 
adgpu

>  <m_score__min__energy>  (26) 
-9.7799999999999994

>  <m_primary>  (26) 
energy

$$$$
26:0
     RDKit          3D

 42 44  0  0  1  0  0  0  0  0999 V2000
   -4.3500   21.8660  -32.8410 C   0  0  0  0  0  0  0  0  0  0  0  0
   -5.7290   22.0700  -32.3310 C   0  0  0  0  0  0  0  0  0  0  0  0
   -6.7220   21.1080  -32.5730 C   0  0  0  0  0  0  0  0  0  0  0  0
   -8.0000   21.2220  -32.1390 C   0  0  0  0  0  0  0  0  0  0  0  0
   -9.0950   20.3040  -32.2600 C   0  0  0  0  0  0  0  0  0  0  0  0
   -9.0910   19.0030  -32.1510 C   0  0  0  0  0  0  0  0  0  0  0  0
   -7.9220   18.2750  -31.8740 C   0  0  0  0  0  0  0  0  0  0  0  0
   -6.9860   17.6740  -31.6390 N   0  0  0  0  0  0  0  0  0  0  0  0
   -8.2770   22.3980  -31.4150 C   0  0  0  0  0  0  0  0  0  0  0  0
   -7.3140   23.3470  -31.1720 C   0  0  0  0  0  0  0  0  0  0  0  0
   -6.0190   23.2130  -31.6200 C   0  0  0  0  0  0  0  0  0  0  0  0
   -5.0010   24.1770  -31.3830 N   0  0  0  0  0  0  0  0  0  0  0  0
   -4.2050   23.9750  -30.3740 C   0  0  0  0  0  0  0  0  0  0  0  0
   -4.3610   22.8820  -29.5960 N   0  0  0  0  0  0  0  0  0  0  0  0
   -3.5540   22.6460  -28.5470 C   0  0  0  0  0  0  0  0  0  0  0  0
   -2.5370   23.5280  -28.2410 C   0  0  0  0  0  0  0  0  0  0  0  0
   -2.3910   24.6420  -29.0480 C   0  0  0  0  0  0  0  0  0  0  0  0
   -1.4660   25.5010  -28.8180 N   0  0  0  0  0  0  0  0  0  0  0  0
   -0.5490   25.3650  -27.7400 C   0  0  0  0  0  0  0  0  0  0  0  0
   -0.7120   26.0880  -26.5690 C   0  0  0  0  0  0  0  0  0  0  0  0
    0.1780   25.9640  -25.5080 C   0  0  0  0  0  0  0  0  0  0  0  0
    1.2440   25.1030  -25.6280 C   0  0  0  0  0  0  0  0  0  0  0  0
    2.5150   24.8720  -24.2200 Br  0  0  0  0  0  0  0  0  0  0  0  0
    1.4420   24.3640  -26.7770 C   0  0  0  0  0  0  0  0  0  0  0  0
    0.5320   24.5200  -27.8030 C   0  0  0  0  0  0  0  0  0  0  0  0
   -3.2140   24.8470  -30.0870 N   0  0  0  0  0  0  0  0  0  0  0  0
   -3.6569   21.7635  -31.9930 H   0  0  0  0  0  0  0  0  0  0  0  0
   -4.3170   20.9532  -33.4540 H   0  0  0  0  0  0  0  0  0  0  0  0
   -4.0542   22.7302  -33.4540 H   0  0  0  0  0  0  0  0  0  0  0  0
   -6.4469   20.2111  -33.1474 H   0  0  0  0  0  0  0  0  0  0  0  0
  -10.0734   20.7588  -32.4742 H   0  0  0  0  0  0  0  0  0  0  0  0
  -10.0372   18.4572  -32.2808 H   0  0  0  0  0  0  0  0  0  0  0  0
   -9.2953   22.5615  -31.0326 H   0  0  0  0  0  0  0  0  0  0  0  0
   -7.5871   24.2456  -30.5993 H   0  0  0  0  0  0  0  0  0  0  0  0
   -5.1140   22.1690  -29.7720 H   0  0  0  0  0  0  0  0  0  0  0  0
   -3.7045   21.7474  -27.9306 H   0  0  0  0  0  0  0  0  0  0  0  0
   -1.8671   23.3514  -27.3866 H   0  0  0  0  0  0  0  0  0  0  0  0
   -1.5653   26.7760  -26.4768 H   0  0  0  0  0  0  0  0  0  0  0  0
    0.0318   26.5460  -24.5861 H   0  0  0  0  0  0  0  0  0  0  0  0
    2.2946   23.6754  -26.8716 H   0  0  0  0  0  0  0  0  0  0  0  0
    0.6808   23.9349  -28.7225 H   0  0  0  0  0  0  0  0  0  0  0  0
   -3.1070   25.6750  -30.6870 H   0  0  0  0  0  0  0  0  0  0  0  0
  1  2  1  0
  2  3  2  0
  3  4  1  0
  4  5  1  0
  5  6  2  0
  6  7  1  0
  7  8  3  0
  4  9  2  0
  9 10  1  0
 10 11  2  0
 11 12  1  0
 12 13  2  0
 13 14  1  0
 14 15  1  0
 15 16  2  0
 16 17  1  0
 17 18  2  0
 18 19  1  0
 19 20  2  0
 20 21  1  0
 21 22  2  0
 22 23  1  0
 22 24  1  0
 24 25  2  0
 17 26  1  0
 11  2  1  0
 26 13  1  0
 25 19  1  0
  1 27  1  0
  1 28  1  0
  1 29  1  0
  3 30  1  0
  5 31  1  0
  6 32  1  0
  9 33  1  0
 10 34  1  0
 14 35  1  0
 15 36  1  0
 16 37  1  0
 20 38  1  0
 21 39  1  0
 24 40  1  0
 25 41  1  0
 26 42  1  0
M  END
>  <smiles>  (27) 
Cc1cc(C=CC#N)ccc1N=c1[nH]ccc(=Nc2ccc(Br)cc2)[nH]1

>  <score_type>  (27) 
oracle

>  <origin>  (27) 
adgpu

>  <m_score__min__energy>  (27) 
-10.42

>  <m_primary>  (27) 
energy

$$$$
27:0
     RDKit          3D

 52 54  0  0  0  0  0  0  0  0999 V2000
   -8.4280   21.6910  -31.8470 C   0  0  0  0  0  0  0  0  0  0  0  0
   -6.9270   21.8380  -31.7780 C   0  0  0  0  0  0  0  0  0  0  0  0
   -6.1440   21.0290  -32.6030 C   0  0  0  0  0  0  0  0  0  0  0  0
   -4.7500   21.0950  -32.5750 C   0  0  0  0  0  0  0  0  0  0  0  0
   -3.9730   20.1720  -33.4840 C   0  0  0  0  0  0  0  0  0  0  0  0
   -4.1050   21.9960  -31.6920 C   0  0  0  0  0  0  0  0  0  0  0  0
   -2.5950   21.9830  -31.5850 C   0  0  0  0  0  0  0  0  0  0  0  0
   -4.8890   22.9120  -30.9310 C   0  0  0  0  0  0  0  0  0  0  0  0
   -4.1240   24.2610  -30.0350 S   0  0  0  0  0  0  0  0  0  0  0  0
   -4.9060   24.5500  -28.7850 O   0  0  0  0  0  0  0  0  0  0  0  0
   -4.1070   25.5320  -30.8380 O   0  0  0  0  0  0  0  0  0  0  0  0
   -2.5130   23.7970  -29.5930 N   0  0  0  0  0  0  0  0  0  0  0  0
   -2.2170   22.8640  -28.5490 C   0  0  0  0  0  0  0  0  0  0  0  0
   -2.9230   21.6530  -28.4560 C   0  0  0  0  0  0  0  0  0  0  0  0
   -2.6090   20.7310  -27.4550 C   0  0  0  0  0  0  0  0  0  0  0  0
   -1.5870   21.0050  -26.5460 C   0  0  0  0  0  0  0  0  0  0  0  0
   -0.8670   22.1980  -26.6410 C   0  0  0  0  0  0  0  0  0  0  0  0
   -1.1640   23.1280  -27.6500 C   0  0  0  0  0  0  0  0  0  0  0  0
   -0.4260   24.4060  -27.7080 C   0  0  0  0  0  0  0  0  0  0  0  0
    0.5240   24.5230  -28.5290 O   0  0  0  0  0  0  0  0  0  0  0  0
   -0.7620   25.5090  -26.8450 N   0  0  0  0  0  0  0  0  0  0  0  0
   -1.5770   25.3870  -25.6490 C   0  0  0  0  0  0  0  0  0  0  0  0
   -1.6220   26.7810  -25.0370 C   0  0  0  0  0  0  0  0  0  0  0  0
   -0.4890   27.5650  -25.6910 C   0  0  0  0  0  0  0  0  0  0  0  0
   -0.1460   26.8180  -26.9730 C   0  0  0  0  0  0  0  0  0  0  0  0
   -6.3050   22.7500  -30.8910 C   0  0  0  0  0  0  0  0  0  0  0  0
   -7.1570   23.5570  -29.9330 C   0  0  0  0  0  0  0  0  0  0  0  0
   -8.8397   21.6507  -30.8277 H   0  0  0  0  0  0  0  0  0  0  0  0
   -8.8565   22.5515  -32.3818 H   0  0  0  0  0  0  0  0  0  0  0  0
   -8.6814   20.7637  -32.3818 H   0  0  0  0  0  0  0  0  0  0  0  0
   -6.6359   20.3245  -33.2898 H   0  0  0  0  0  0  0  0  0  0  0  0
   -3.3825   19.4705  -32.8763 H   0  0  0  0  0  0  0  0  0  0  0  0
   -4.6724   19.6083  -34.1188 H   0  0  0  0  0  0  0  0  0  0  0  0
   -3.2983   20.7651  -34.1188 H   0  0  0  0  0  0  0  0  0  0  0  0
   -2.3026   21.9805  -30.5246 H   0  0  0  0  0  0  0  0  0  0  0  0
   -2.2003   21.0814  -32.0763 H   0  0  0  0  0  0  0  0  0  0  0  0
   -2.1849   22.8776  -32.0763 H   0  0  0  0  0  0  0  0  0  0  0  0
   -3.7259   21.4302  -29.1741 H   0  0  0  0  0  0  0  0  0  0  0  0
   -3.1688   19.7868  -27.3833 H   0  0  0  0  0  0  0  0  0  0  0  0
   -1.3479   20.2806  -25.7535 H   0  0  0  0  0  0  0  0  0  0  0  0
   -0.0627   22.4102  -25.9212 H   0  0  0  0  0  0  0  0  0  0  0  0
   -2.5911   25.0492  -25.9087 H   0  0  0  0  0  0  0  0  0  0  0  0
   -1.1608   24.6489  -24.9476 H   0  0  0  0  0  0  0  0  0  0  0  0
   -2.5895   27.2599  -25.2481 H   0  0  0  0  0  0  0  0  0  0  0  0
   -1.5074   26.7445  -23.9436 H   0  0  0  0  0  0  0  0  0  0  0  0
   -0.8167   28.5894  -25.9217 H   0  0  0  0  0  0  0  0  0  0  0  0
    0.3830   27.6434  -25.0251 H   0  0  0  0  0  0  0  0  0  0  0  0
   -0.5527   27.3490  -27.8463 H   0  0  0  0  0  0  0  0  0  0  0  0
    0.9417   26.7412  -27.1182 H   0  0  0  0  0  0  0  0  0  0  0  0
   -6.8871   23.3013  -28.8977 H   0  0  0  0  0  0  0  0  0  0  0  0
   -6.9837   24.6299  -30.1028 H   0  0  0  0  0  0  0  0  0  0  0  0
   -8.2189   23.3258  -30.1028 H   0  0  0  0  0  0  0  0  0  0  0  0
  1  2  1  0
  2  3  2  0
  3  4  1  0
  4  5  1  0
  4  6  2  0
  6  7  1  0
  6  8  1  0
  8  9  1  0
  9 10  2  0
  9 11  2  0
  9 12  1  0
 12 13  1  0
 13 14  2  0
 14 15  1  0
 15 16  2  0
 16 17  1  0
 17 18  2  0
 18 19  1  0
 19 20  2  0
 19 21  1  0
 21 22  1  0
 22 23  1  0
 23 24  1  0
 24 25  1  0
  8 26  2  0
 26 27  1  0
 26  2  1  0
 18 13  1  0
 25 21  1  0
  1 28  1  0
  1 29  1  0
  1 30  1  0
  3 31  1  0
  5 32  1  0
  5 33  1  0
  5 34  1  0
  7 35  1  0
  7 36  1  0
  7 37  1  0
 14 38  1  0
 15 39  1  0
 16 40  1  0
 17 41  1  0
 22 42  1  0
 22 43  1  0
 23 44  1  0
 23 45  1  0
 24 46  1  0
 24 47  1  0
 25 48  1  0
 25 49  1  0
 27 50  1  0
 27 51  1  0
 27 52  1  0
M  CHG  1  12  -1
M  END
>  <UniqueID>  (28) 
25

>  <SMILES>  (28) 
Cc1cc(C)c(C)c(S(=O)(=O)[N-]c2ccccc2C(=O)N2CCCC2)c1C

>  <Energy>  (28) 
75.77940057623073

>  <Genealogy>  (28) 
Cc1cc(C)c(C)c(S(=O)(=O)[N-]c2ccccc2C(=O)N2CCCC2)c1C (protonated)
Cc1cc(C)c(C)c(S(=O)(=O)[N-]c2ccccc2C(=O)N2CCCC2)c1C (3D coordinates assigned)
Cc1cc(C)c(C)c(S(=O)(=O)[N-]c2ccccc2C(=O)N2CCCC2)c1C (nonaromatic ring conformer: 75.77940057623073 kcal/mol)

>  <smiles>  (28) 
Cc1cc(C)c(C)c(S(=O)(=O)Nc2ccccc2C(=O)N2CCCC2)c1C

>  <score_type>  (28) 
oracle

>  <origin>  (28) 
adgpu

>  <m_score__min__energy>  (28) 
-10.699999999999999

>  <m_primary>  (28) 
energy

$$$$
28:0
     RDKit          3D

 49 52  0  0  0  0  0  0  0  0999 V2000
   -2.6880   21.2820  -27.2140 H   0  0  0  0  0  0  0  0  0  0  0  0
   -1.9810   22.0050  -26.9510 N   0  0  0  0  0  0  0  0  0  0  0  0
   -1.9650   23.1730  -27.5110 C   0  0  0  0  0  0  0  0  0  0  0  0
   -2.8790   23.4810  -28.4650 N   0  0  0  0  0  0  0  0  0  0  0  0
   -2.8680   24.6950  -29.0740 C   0  0  0  0  0  0  0  0  0  0  0  0
   -3.7490   25.0090  -29.9780 N   0  0  0  0  0  0  0  0  0  0  0  0
   -4.7640   24.1520  -30.5280 C   0  0  0  0  0  0  0  0  0  0  0  0
   -5.5870   24.6520  -31.5440 C   0  0  0  0  0  0  0  0  0  0  0  0
   -5.4611   25.6894  -31.8873 H   0  0  0  0  0  0  0  0  0  0  0  0
   -6.5680   23.8430  -32.1260 C   0  0  0  0  0  0  0  0  0  0  0  0
   -7.2135   24.2501  -32.9182 H   0  0  0  0  0  0  0  0  0  0  0  0
   -6.7330   22.5180  -31.7060 C   0  0  0  0  0  0  0  0  0  0  0  0
   -7.7220   21.7350  -32.3200 O   0  0  0  0  0  0  0  0  0  0  0  0
   -7.6710   20.3430  -32.4840 C   0  0  0  0  0  0  0  0  0  0  0  0
   -8.6610   19.5590  -31.8880 C   0  0  0  0  0  0  0  0  0  0  0  0
   -9.4689   20.0329  -31.3112 H   0  0  0  0  0  0  0  0  0  0  0  0
   -8.6200   18.1720  -32.0280 C   0  0  0  0  0  0  0  0  0  0  0  0
   -9.4028   17.5504  -31.5689 H   0  0  0  0  0  0  0  0  0  0  0  0
   -7.6140   17.5870  -32.7310 N   0  0  0  0  0  0  0  0  0  0  0  0
   -6.6200   18.3140  -33.3110 C   0  0  0  0  0  0  0  0  0  0  0  0
   -5.5440   17.6220  -34.0550 C   0  0  0  0  0  0  0  0  0  0  0  0
   -4.7540   18.2870  -34.7810 O   0  0  0  0  0  0  0  0  0  0  0  0
   -5.3910   16.1970  -33.9610 N   0  0  0  0  0  0  0  0  0  0  0  0
   -6.0400   15.6390  -33.3640 H   0  0  0  0  0  0  0  0  0  0  0  0
   -4.3400   15.4920  -34.6860 C   0  0  0  0  0  0  0  0  0  0  0  0
   -3.6477   15.0276  -33.9684 H   0  0  0  0  0  0  0  0  0  0  0  0
   -4.7902   14.7125  -35.3182 H   0  0  0  0  0  0  0  0  0  0  0  0
   -3.7895   16.2042  -35.3182 H   0  0  0  0  0  0  0  0  0  0  0  0
   -6.6300   19.7140  -33.1880 C   0  0  0  0  0  0  0  0  0  0  0  0
   -5.8270   20.3144  -33.6405 H   0  0  0  0  0  0  0  0  0  0  0  0
   -5.8730   21.9960  -30.7250 C   0  0  0  0  0  0  0  0  0  0  0  0
   -5.9715   20.9456  -30.4136 H   0  0  0  0  0  0  0  0  0  0  0  0
   -4.8930   22.8050  -30.1430 C   0  0  0  0  0  0  0  0  0  0  0  0
   -4.2196   22.3866  -29.3805 H   0  0  0  0  0  0  0  0  0  0  0  0
   -1.9440   25.6160  -28.6980 N   0  0  0  0  0  0  0  0  0  0  0  0
   -1.0340   25.3570  -27.7540 N   0  0  0  0  0  0  0  0  0  0  0  0
   -0.0890   26.3910  -27.4190 C   0  0  0  0  0  0  0  0  0  0  0  0
    1.2610   26.0820  -27.1710 C   0  0  0  0  0  0  0  0  0  0  0  0
    1.6082   25.0413  -27.2510 H   0  0  0  0  0  0  0  0  0  0  0  0
    2.1640   27.0930  -26.8230 C   0  0  0  0  0  0  0  0  0  0  0  0
    3.2198   26.8465  -26.6374 H   0  0  0  0  0  0  0  0  0  0  0  0
    1.7260   28.4150  -26.7110 C   0  0  0  0  0  0  0  0  0  0  0  0
    2.4381   29.2093  -26.4427 H   0  0  0  0  0  0  0  0  0  0  0  0
    0.3820   28.7290  -26.9400 C   0  0  0  0  0  0  0  0  0  0  0  0
   -0.1670   30.3880  -26.7890 Cl  0  0  0  0  0  0  0  0  0  0  0  0
   -0.5230   27.7210  -27.2870 C   0  0  0  0  0  0  0  0  0  0  0  0
   -1.5806   27.9706  -27.4576 H   0  0  0  0  0  0  0  0  0  0  0  0
   -1.0080   24.1280  -27.1470 C   0  0  0  0  0  0  0  0  0  0  0  0
   -0.1250   23.8450  -26.2900 O   0  0  0  0  0  0  0  0  0  0  0  0
  1  2  1  0
  2  3  2  0
  3  4  1  0
  4  5  1  0
  5  6  2  0
  6  7  1  0
  7  8  2  0
  8  9  1  0
  8 10  1  0
 10 11  1  0
 10 12  2  0
 12 13  1  0
 13 14  1  0
 14 15  2  0
 15 16  1  0
 15 17  1  0
 17 18  1  0
 17 19  2  0
 19 20  1  0
 20 21  1  0
 21 22  2  0
 21 23  1  0
 23 24  1  0
 23 25  1  0
 25 26  1  0
 25 27  1  0
 25 28  1  0
 20 29  2  0
 29 30  1  0
 12 31  1  0
 31 32  1  0
 31 33  2  0
 33 34  1  0
  5 35  1  0
 35 36  1  0
 36 37  1  0
 37 38  2  0
 38 39  1  0
 38 40  1  0
 40 41  1  0
 40 42  2  0
 42 43  1  0
 42 44  1  0
 44 45  1  0
 44 46  2  0
 46 47  1  0
 36 48  1  0
 48 49  2  0
 48  3  1  0
 33  7  1  0
 46 37  1  0
 29 14  1  0
M  CHG  2   4  -1  35  -1
M  END
>  <UniqueID>  (29) 
26

>  <SMILES>  (29) 
[H]/N=c1\[n-]/c(=N\c2ccc(Oc3ccnc(C(=O)NC)c3)cc2)[n-]n(-c2cccc(Cl)c2)c1=O

>  <Energy>  (29) 
73.2807344404877

>  <Genealogy>  (29) 
CNC(=O)c1cc(Oc2ccc(N=c3[n-]c(=N)c(=O)n(-c4cccc(Cl)c4)[n-]3)cc2)ccn1 (protonated)
[H]/N=c1\[n-]/c(=N\c2ccc(Oc3ccnc(C(=O)NC)c3)cc2)[n-]n(-c2cccc(Cl)c2)c1=O (cis-trans isomerization)
[H]/N=c1\[n-]/c(=N\c2ccc(Oc3ccnc(C(=O)NC)c3)cc2)[n-]n(-c2cccc(Cl)c2)c1=O (3D coordinates assigned)
[H]/N=c1\[n-]/c(=N\c2ccc(Oc3ccnc(C(=O)NC)c3)cc2)[n-]n(-c2cccc(Cl)c2)c1=O (optimized conformer: 73.2807344404877 kcal/mol)

>  <smiles>  (29) 
CNC(=O)c1cc(Oc2ccc(N=c3[nH]c(=N)c(=O)n(-c4cccc(Cl)c4)[nH]3)cc2)ccn1

>  <score_type>  (29) 
oracle

>  <origin>  (29) 
adgpu

>  <m_score__min__energy>  (29) 
-11.5

>  <m_primary>  (29) 
energy

$$$$
29:0
     RDKit          3D

 34 36  0  0  0  0  0  0  0  0999 V2000
   -9.2470   18.5570  -33.5310 H   0  0  0  0  0  0  0  0  0  0  0  0
   -9.1120   19.4600  -33.0200 N   0  0  0  0  0  0  0  0  0  0  0  0
   -7.9290   19.9240  -32.7630 C   0  0  0  0  0  0  0  0  0  0  0  0
   -6.8330   19.2270  -33.1670 N   0  0  0  0  0  0  0  0  0  0  0  0
   -5.5660   19.6580  -32.9320 C   0  0  0  0  0  0  0  0  0  0  0  0
   -4.4180   18.8660  -33.4230 C   0  0  0  0  0  0  0  0  0  0  0  0
   -3.1770   18.9830  -32.7700 C   0  0  0  0  0  0  0  0  0  0  0  0
   -3.0874   19.6216  -31.8788 H   0  0  0  0  0  0  0  0  0  0  0  0
   -2.0570   18.2940  -33.2450 C   0  0  0  0  0  0  0  0  0  0  0  0
   -1.0919   18.3902  -32.7260 H   0  0  0  0  0  0  0  0  0  0  0  0
   -2.1620   17.4850  -34.3760 C   0  0  0  0  0  0  0  0  0  0  0  0
   -1.2775   16.9512  -34.7538 H   0  0  0  0  0  0  0  0  0  0  0  0
   -3.3880   17.3520  -35.0290 C   0  0  0  0  0  0  0  0  0  0  0  0
   -3.4639   16.7141  -35.9219 H   0  0  0  0  0  0  0  0  0  0  0  0
   -4.5230   18.0240  -34.5570 C   0  0  0  0  0  0  0  0  0  0  0  0
   -5.7350   17.8090  -35.2180 O   0  0  0  0  0  0  0  0  0  0  0  0
   -6.5370   18.4160  -35.1130 H   0  0  0  0  0  0  0  0  0  0  0  0
   -5.3650   20.8700  -32.2590 C   0  0  0  0  0  0  0  0  0  0  0  0
   -4.3434   21.2356  -32.0785 H   0  0  0  0  0  0  0  0  0  0  0  0
   -6.4660   21.6180  -31.8150 C   0  0  0  0  0  0  0  0  0  0  0  0
   -6.2200   22.8880  -31.0880 C   0  0  0  0  0  0  0  0  0  0  0  0
   -7.2630   23.5110  -30.3810 C   0  0  0  0  0  0  0  0  0  0  0  0
   -8.2608   23.0486  -30.3580 H   0  0  0  0  0  0  0  0  0  0  0  0
   -7.0390   24.7150  -29.7070 C   0  0  0  0  0  0  0  0  0  0  0  0
   -7.8588   25.1951  -29.1525 H   0  0  0  0  0  0  0  0  0  0  0  0
   -5.7750   25.3090  -29.7370 C   0  0  0  0  0  0  0  0  0  0  0  0
   -5.5991   26.2537  -29.2016 H   0  0  0  0  0  0  0  0  0  0  0  0
   -4.7330   24.7040  -30.4470 C   0  0  0  0  0  0  0  0  0  0  0  0
   -3.4790   25.3010  -30.4840 O   0  0  0  0  0  0  0  0  0  0  0  0
   -4.9550   23.5000  -31.1240 C   0  0  0  0  0  0  0  0  0  0  0  0
   -4.1355   23.0298  -31.6873 H   0  0  0  0  0  0  0  0  0  0  0  0
   -7.7710   21.1440  -32.0760 C   0  0  0  0  0  0  0  0  0  0  0  0
   -8.9360   21.9140  -31.6920 C   0  0  0  0  0  0  0  0  0  0  0  0
   -9.8660   22.5300  -31.3860 N   0  0  0  0  0  0  0  0  0  0  0  0
  1  2  1  0
  2  3  2  0
  3  4  1  0
  4  5  1  0
  5  6  1  0
  6  7  2  0
  7  8  1  0
  7  9  1  0
  9 10  1  0
  9 11  2  0
 11 12  1  0
 11 13  1  0
 13 14  1  0
 13 15  2  0
 15 16  1  0
 16 17  1  0
  5 18  2  0
 18 19  1  0
 18 20  1  0
 20 21  1  0
 21 22  2  0
 22 23  1  0
 22 24  1  0
 24 25  1  0
 24 26  2  0
 26 27  1  0
 26 28  1  0
 28 29  1  0
 28 30  2  0
 30 31  1  0
 20 32  2  0
 32 33  1  0
 33 34  3  0
 32  3  1  0
 15  6  1  0
 30 21  1  0
M  CHG  2   4  -1  29  -1
M  END
>  <UniqueID>  (30) 
27

>  <SMILES>  (30) 
[H]/N=c1\[n-]c(-c2ccccc2O)cc(-c2cccc([O-])c2)c1C#N

>  <Energy>  (30) 
52.556406887957344

>  <Genealogy>  (30) 
N#Cc1c(-c2cccc([O-])c2)cc(-c2ccccc2O)[n-]c1=N (protonated)
[H]/N=c1\[n-]c(-c2ccccc2O)cc(-c2cccc([O-])c2)c1C#N (cis-trans isomerization)
[H]/N=c1\[n-]c(-c2ccccc2O)cc(-c2cccc([O-])c2)c1C#N (3D coordinates assigned)
[H]/N=c1\[n-]c(-c2ccccc2O)cc(-c2cccc([O-])c2)c1C#N (optimized conformer: 52.556406887957344 kcal/mol)

>  <smiles>  (30) 
N#Cc1c(-c2cccc(O)c2)cc(-c2ccccc2O)[nH]c1=N

>  <score_type>  (30) 
oracle

>  <origin>  (30) 
adgpu

>  <m_score__min__energy>  (30) 
-11.630000000000001

>  <m_primary>  (30) 
energy

$$$$
30:0
     RDKit          3D

 41 44  0  0  0  0  0  0  0  0999 V2000
   -2.9150   24.9220  -29.6220 N   0  0  0  0  0  0  0  0  0  0  0  0
   -4.4850   24.4750  -30.1870 S   0  0  0  0  0  0  0  0  0  0  0  0
   -5.0170   25.5460  -31.0980 O   0  0  0  0  0  0  0  0  0  0  0  0
   -5.4170   24.3350  -29.0150 O   0  0  0  0  0  0  0  0  0  0  0  0
   -4.3850   22.9480  -31.0570 C   0  0  0  0  0  0  0  0  0  0  0  0
   -3.9820   21.7820  -30.3920 C   0  0  0  0  0  0  0  0  0  0  0  0
   -3.8950   20.5710  -31.0860 C   0  0  0  0  0  0  0  0  0  0  0  0
   -4.2060   20.5170  -32.4530 C   0  0  0  0  0  0  0  0  0  0  0  0
   -4.1510   19.2270  -33.1820 C   0  0  0  0  0  0  0  0  0  0  0  0
   -5.3260   18.4580  -33.3510 C   0  0  0  0  0  0  0  0  0  0  0  0
   -6.6250   18.8930  -32.7780 C   0  0  0  0  0  0  0  0  0  0  0  0
   -7.2550   20.0570  -33.2450 C   0  0  0  0  0  0  0  0  0  0  0  0
   -8.4890   20.4510  -32.7170 C   0  0  0  0  0  0  0  0  0  0  0  0
   -9.0970   19.6870  -31.7170 C   0  0  0  0  0  0  0  0  0  0  0  0
   -8.4720   18.5310  -31.2410 C   0  0  0  0  0  0  0  0  0  0  0  0
   -7.2390   18.1340  -31.7680 C   0  0  0  0  0  0  0  0  0  0  0  0
   -5.2430   17.2480  -34.0660 C   0  0  0  0  0  0  0  0  0  0  0  0
   -6.2670   16.5300  -34.2280 O   0  0  0  0  0  0  0  0  0  0  0  0
   -4.0860   16.8390  -34.5680 O   0  0  0  0  0  0  0  0  0  0  0  0
   -2.9580   17.5240  -34.4380 C   0  0  0  0  0  0  0  0  0  0  0  0
   -1.7830   17.0200  -35.0060 C   0  0  0  0  0  0  0  0  0  0  0  0
   -0.5860   17.7330  -34.8980 C   0  0  0  0  0  0  0  0  0  0  0  0
    0.5780   17.2270  -35.4640 O   0  0  0  0  0  0  0  0  0  0  0  0
   -0.5610   18.9570  -34.2260 C   0  0  0  0  0  0  0  0  0  0  0  0
   -1.7280   19.4710  -33.6530 C   0  0  0  0  0  0  0  0  0  0  0  0
   -2.9410   18.7560  -33.7420 C   0  0  0  0  0  0  0  0  0  0  0  0
   -4.6020   21.6870  -33.1190 C   0  0  0  0  0  0  0  0  0  0  0  0
   -4.6900   22.8960  -32.4240 C   0  0  0  0  0  0  0  0  0  0  0  0
   -2.3890   25.2890  -30.4460 H   0  0  0  0  0  0  0  0  0  0  0  0
   -3.7334   21.8195  -29.3211 H   0  0  0  0  0  0  0  0  0  0  0  0
   -3.5818   19.6580  -30.5585 H   0  0  0  0  0  0  0  0  0  0  0  0
   -6.7765   20.6619  -34.0293 H   0  0  0  0  0  0  0  0  0  0  0  0
   -8.9808   21.3620  -33.0888 H   0  0  0  0  0  0  0  0  0  0  0  0
  -10.0686   19.9959  -31.3040 H   0  0  0  0  0  0  0  0  0  0  0  0
   -8.9503   17.9331  -30.4513 H   0  0  0  0  0  0  0  0  0  0  0  0
   -6.7485   17.2247  -31.3905 H   0  0  0  0  0  0  0  0  0  0  0  0
   -1.8014   16.0584  -35.5399 H   0  0  0  0  0  0  0  0  0  0  0  0
    0.3812   19.5192  -34.1472 H   0  0  0  0  0  0  0  0  0  0  0  0
   -1.7003   20.4382  -33.1299 H   0  0  0  0  0  0  0  0  0  0  0  0
   -4.8439   21.6522  -34.1915 H   0  0  0  0  0  0  0  0  0  0  0  0
   -4.9997   23.8102  -32.9516 H   0  0  0  0  0  0  0  0  0  0  0  0
  1  2  1  0
  2  3  2  0
  2  4  2  0
  2  5  1  0
  5  6  2  0
  6  7  1  0
  7  8  2  0
  8  9  1  0
  9 10  2  0
 10 11  1  0
 11 12  2  0
 12 13  1  0
 13 14  2  0
 14 15  1  0
 15 16  2  0
 10 17  1  0
 17 18  2  0
 17 19  1  0
 19 20  1  0
 20 21  2  0
 21 22  1  0
 22 23  1  0
 22 24  2  0
 24 25  1  0
 25 26  2  0
  8 27  1  0
 27 28  2  0
 28  5  1  0
 26  9  1  0
 16 11  1  0
 26 20  1  0
  1 29  1  0
  6 30  1  0
  7 31  1  0
 12 32  1  0
 13 33  1  0
 14 34  1  0
 15 35  1  0
 16 36  1  0
 21 37  1  0
 24 38  1  0
 25 39  1  0
 27 40  1  0
 28 41  1  0
M  CHG  2   1  -1  23  -1
M  END
>  <UniqueID>  (31) 
28

>  <SMILES>  (31) 
[NH-]S(=O)(=O)c1ccc(-c2c(-c3ccccc3)c(=O)oc3cc([O-])ccc23)cc1

>  <Energy>  (31) 
66.1294049816534

>  <Genealogy>  (31) 
[NH-]S(=O)(=O)c1ccc(-c2c(-c3ccccc3)c(=O)oc3cc([O-])ccc23)cc1 (protonated)
[NH-]S(=O)(=O)c1ccc(-c2c(-c3ccccc3)c(=O)oc3cc([O-])ccc23)cc1 (3D coordinates assigned)
[NH-]S(=O)(=O)c1ccc(-c2c(-c3ccccc3)c(=O)oc3cc([O-])ccc23)cc1 (optimized conformer: 66.1294049816534 kcal/mol)

>  <smiles>  (31) 
NS(=O)(=O)c1ccc(-c2c(-c3ccccc3)c(=O)oc3cc(O)ccc23)cc1

>  <score_type>  (31) 
oracle

>  <origin>  (31) 
adgpu

>  <m_score__min__energy>  (31) 
-11.76

>  <m_primary>  (31) 
energy

$$$$
31:0
     RDKit          3D

 38 40  0  0  0  0  0  0  0  0999 V2000
   -1.7900   25.4060  -28.9050 O   0  0  0  0  0  0  0  0  0  0  0  0
   -2.5020   24.5560  -29.5020 C   0  0  0  0  0  0  0  0  0  0  0  0
   -3.4920   25.0180  -30.4300 N   0  0  0  0  0  0  0  0  0  0  0  0
   -4.7680   24.4070  -30.6730 C   0  0  0  0  0  0  0  0  0  0  0  0
   -5.9280   25.0670  -30.2490 C   0  0  0  0  0  0  0  0  0  0  0  0
   -7.1840   24.4940  -30.4680 C   0  0  0  0  0  0  0  0  0  0  0  0
   -7.2900   23.2550  -31.1030 C   0  0  0  0  0  0  0  0  0  0  0  0
   -6.1360   22.5710  -31.5180 C   0  0  0  0  0  0  0  0  0  0  0  0
   -6.2430   21.2830  -32.1600 N   0  0  0  0  0  0  0  0  0  0  0  0
   -7.3370   20.5030  -31.9000 C   0  0  0  0  0  0  0  0  0  0  0  0
   -7.4710   19.2440  -32.4910 C   0  0  0  0  0  0  0  0  0  0  0  0
   -6.4790   18.7830  -33.3520 C   0  0  0  0  0  0  0  0  0  0  0  0
   -5.3700   19.5830  -33.6200 C   0  0  0  0  0  0  0  0  0  0  0  0
   -5.2640   20.8400  -33.0180 C   0  0  0  0  0  0  0  0  0  0  0  0
   -4.2650   21.5630  -33.2860 O   0  0  0  0  0  0  0  0  0  0  0  0
   -4.8760   23.1440  -31.2830 C   0  0  0  0  0  0  0  0  0  0  0  0
   -2.2630   23.1130  -29.2640 C   0  0  0  0  0  0  0  0  0  0  0  0
   -2.5750   22.5290  -28.0250 C   0  0  0  0  0  0  0  0  0  0  0  0
   -2.3520   21.1680  -27.8100 C   0  0  0  0  0  0  0  0  0  0  0  0
   -1.8120   20.3750  -28.8250 C   0  0  0  0  0  0  0  0  0  0  0  0
   -1.4800   20.9420  -30.0670 C   0  0  0  0  0  0  0  0  0  0  0  0
   -0.9430   20.0770  -31.1800 C   0  0  0  0  0  0  0  0  0  0  0  0
   -1.9770   19.5310  -31.9220 F   0  0  0  0  0  0  0  0  0  0  0  0
   -0.1510   20.8470  -32.0120 F   0  0  0  0  0  0  0  0  0  0  0  0
   -0.1830   19.0390  -30.6700 F   0  0  0  0  0  0  0  0  0  0  0  0
   -1.7370   22.3060  -30.2880 C   0  0  0  0  0  0  0  0  0  0  0  0
   -5.8505   26.0400  -29.7417 H   0  0  0  0  0  0  0  0  0  0  0  0
   -8.0918   25.0209  -30.1390 H   0  0  0  0  0  0  0  0  0  0  0  0
   -8.2817   22.8128  -31.2789 H   0  0  0  0  0  0  0  0  0  0  0  0
   -8.1186   20.8709  -31.2190 H   0  0  0  0  0  0  0  0  0  0  0  0
   -8.3530   18.6223  -32.2777 H   0  0  0  0  0  0  0  0  0  0  0  0
   -6.5702   17.7912  -33.8189 H   0  0  0  0  0  0  0  0  0  0  0  0
   -4.5828   19.2275  -34.3011 H   0  0  0  0  0  0  0  0  0  0  0  0
   -3.9660   22.6010  -31.5782 H   0  0  0  0  0  0  0  0  0  0  0  0
   -2.9975   23.1478  -27.2197 H   0  0  0  0  0  0  0  0  0  0  0  0
   -2.6024   20.7184  -26.8378 H   0  0  0  0  0  0  0  0  0  0  0  0
   -1.6458   19.3016  -28.6513 H   0  0  0  0  0  0  0  0  0  0  0  0
   -1.5242   22.7470  -31.2730 H   0  0  0  0  0  0  0  0  0  0  0  0
  1  2  2  0
  2  3  1  0
  3  4  1  0
  4  5  2  0
  5  6  1  0
  6  7  2  0
  7  8  1  0
  8  9  1  0
  9 10  1  0
 10 11  2  0
 11 12  1  0
 12 13  2  0
 13 14  1  0
 14 15  2  0
  8 16  2  0
  2 17  1  0
 17 18  2  0
 18 19  1  0
 19 20  2  0
 20 21  1  0
 21 22  1  0
 22 23  1  0
 22 24  1  0
 22 25  1  0
 21 26  2  0
 16  4  1  0
 26 17  1  0
 14  9  1  0
  5 27  1  0
  6 28  1  0
  7 29  1  0
 10 30  1  0
 11 31  1  0
 12 32  1  0
 13 33  1  0
 16 34  1  0
 18 35  1  0
 19 36  1  0
 20 37  1  0
 26 38  1  0
M  CHG  1   3  -1
M  END
>  <UniqueID>  (32) 
29

>  <SMILES>  (32) 
O=C([N-]c1cccc(-n2ccccc2=O)c1)c1cccc(C(F)(F)F)c1

>  <Energy>  (32) 
55.96868630706373

>  <Genealogy>  (32) 
O=C([N-]c1cccc(-n2ccccc2=O)c1)c1cccc(C(F)(F)F)c1 (protonated)
O=C([N-]c1cccc(-n2ccccc2=O)c1)c1cccc(C(F)(F)F)c1 (3D coordinates assigned)
O=C([N-]c1cccc(-n2ccccc2=O)c1)c1cccc(C(F)(F)F)c1 (optimized conformer: 55.96868630706373 kcal/mol)

>  <smiles>  (32) 
O=C(Nc1cccc(-n2ccccc2=O)c1)c1cccc(C(F)(F)F)c1

>  <score_type>  (32) 
oracle

>  <origin>  (32) 
adgpu

>  <m_score__min__energy>  (32) 
-9.8000000000000007

>  <m_primary>  (32) 
energy

$$$$
32:0
     RDKit          3D

 30 31  0  0  0  0  0  0  0  0999 V2000
    0.0300   24.5730  -28.6000 O   0  0  0  0  0  0  0  0  0  0  0  0
   -1.1220   25.0590  -28.7440 C   0  0  0  0  0  0  0  0  0  0  0  0
   -1.2440   26.4250  -28.9680 O   0  0  0  0  0  0  0  0  0  0  0  0
   -2.3350   24.1990  -28.7010 C   0  0  0  0  0  0  0  0  0  0  0  0
   -3.4220   24.5330  -29.5320 C   0  0  0  0  0  0  0  0  0  0  0  0
   -4.5910   23.7600  -29.5350 C   0  0  0  0  0  0  0  0  0  0  0  0
   -5.9600   24.2050  -30.5550 S   0  0  0  0  0  0  0  0  0  0  0  0
   -5.5150   24.1890  -31.9890 O   0  0  0  0  0  0  0  0  0  0  0  0
   -6.4240   25.5960  -30.2210 O   0  0  0  0  0  0  0  0  0  0  0  0
   -7.2830   23.0900  -30.3600 N   0  0  0  0  0  0  0  0  0  0  0  0
   -7.9780   22.8450  -31.6270 C   0  0  0  0  0  0  0  0  0  0  0  0
   -7.9580   21.3890  -31.9890 C   0  0  0  0  0  0  0  0  0  0  0  0
   -6.8410   20.8240  -32.6210 C   0  0  0  0  0  0  0  0  0  0  0  0
   -6.8600   19.4690  -32.9610 C   0  0  0  0  0  0  0  0  0  0  0  0
   -7.9840   18.6950  -32.6680 C   0  0  0  0  0  0  0  0  0  0  0  0
   -9.0770   19.2900  -32.0350 C   0  0  0  0  0  0  0  0  0  0  0  0
   -9.0400   20.6100  -31.7120 N   0  0  0  0  0  0  0  0  0  0  0  0
   -4.6850   22.6450  -28.7010 C   0  0  0  0  0  0  0  0  0  0  0  0
   -3.6200   22.3000  -27.8700 C   0  0  0  0  0  0  0  0  0  0  0  0
   -2.4460   23.0640  -27.8580 C   0  0  0  0  0  0  0  0  0  0  0  0
   -1.1810   22.5690  -26.7350 Cl  0  0  0  0  0  0  0  0  0  0  0  0
   -3.3524   25.4132  -30.1881 H   0  0  0  0  0  0  0  0  0  0  0  0
   -9.0227   23.1760  -31.5321 H   0  0  0  0  0  0  0  0  0  0  0  0
   -7.4615   23.4062  -32.4196 H   0  0  0  0  0  0  0  0  0  0  0  0
   -5.9589   21.4412  -32.8467 H   0  0  0  0  0  0  0  0  0  0  0  0
   -5.9912   19.0132  -33.4584 H   0  0  0  0  0  0  0  0  0  0  0  0
   -8.0084   17.6277  -32.9330 H   0  0  0  0  0  0  0  0  0  0  0  0
   -9.9682   18.6906  -31.7976 H   0  0  0  0  0  0  0  0  0  0  0  0
   -5.6016   22.0369  -28.6993 H   0  0  0  0  0  0  0  0  0  0  0  0
   -3.7025   21.4187  -27.2170 H   0  0  0  0  0  0  0  0  0  0  0  0
  1  2  2  0
  2  3  1  0
  2  4  1  0
  4  5  2  0
  5  6  1  0
  6  7  1  0
  7  8  2  0
  7  9  2  0
  7 10  1  0
 10 11  1  0
 11 12  1  0
 12 13  2  0
 13 14  1  0
 14 15  2  0
 15 16  1  0
 16 17  2  0
  6 18  2  0
 18 19  1  0
 19 20  2  0
 20 21  1  0
 20  4  1  0
 17 12  1  0
  5 22  1  0
 11 23  1  0
 11 24  1  0
 13 25  1  0
 14 26  1  0
 15 27  1  0
 16 28  1  0
 18 29  1  0
 19 30  1  0
M  CHG  2   3  -1  10  -1
M  END
>  <UniqueID>  (33) 
30

>  <SMILES>  (33) 
O=C([O-])c1cc(S(=O)(=O)[N-]Cc2ccccn2)ccc1Cl

>  <Energy>  (33) 
33.83777685757104

>  <Genealogy>  (33) 
O=C([O-])c1cc(S(=O)(=O)[N-]Cc2ccccn2)ccc1Cl (protonated)
O=C([O-])c1cc(S(=O)(=O)[N-]Cc2ccccn2)ccc1Cl (3D coordinates assigned)
O=C([O-])c1cc(S(=O)(=O)[N-]Cc2ccccn2)ccc1Cl (optimized conformer: 33.83777685757104 kcal/mol)

>  <smiles>  (33) 
O=C(O)c1cc(S(=O)(=O)NCc2ccccn2)ccc1Cl

>  <score_type>  (33) 
oracle

>  <origin>  (33) 
adgpu

>  <m_score__min__energy>  (33) 
-9.9700000000000006

>  <m_primary>  (33) 
energy

$$$$
33:0
     RDKit          3D

 37 38  0  0  0  0  0  0  0  0999 V2000
    1.3760   20.0760  -36.4810 C   0  0  0  0  0  0  0  0  0  0  0  0
   -0.0010   20.1450  -36.1260 O   0  0  0  0  0  0  0  0  0  0  0  0
   -0.4800   20.1400  -34.8080 C   0  0  0  0  0  0  0  0  0  0  0  0
   -1.3000   19.1090  -34.3080 C   0  0  0  0  0  0  0  0  0  0  0  0
   -1.7530   19.1450  -32.9870 C   0  0  0  0  0  0  0  0  0  0  0  0
   -1.4010   20.2100  -32.1430 C   0  0  0  0  0  0  0  0  0  0  0  0
   -1.8620   20.2300  -30.7080 C   0  0  0  0  0  0  0  0  0  0  0  0
   -1.9610   21.6530  -30.2000 C   0  0  0  0  0  0  0  0  0  0  0  0
   -0.8890   22.2280  -29.4920 C   0  0  0  0  0  0  0  0  0  0  0  0
    0.2560   21.4760  -29.2360 O   0  0  0  0  0  0  0  0  0  0  0  0
   -0.9620   23.5580  -29.0410 C   0  0  0  0  0  0  0  0  0  0  0  0
    0.2070   24.1760  -28.3170 C   0  0  0  0  0  0  0  0  0  0  0  0
   -2.0960   24.3330  -29.3440 C   0  0  0  0  0  0  0  0  0  0  0  0
   -2.1250   25.6750  -28.9740 O   0  0  0  0  0  0  0  0  0  0  0  0
   -3.1840   23.7670  -30.0390 C   0  0  0  0  0  0  0  0  0  0  0  0
   -4.3970   24.5690  -30.3460 C   0  0  0  0  0  0  0  0  0  0  0  0
   -5.7730   24.0750  -30.0200 C   0  0  0  0  0  0  0  0  0  0  0  0
   -4.2760   25.7040  -30.8830 O   0  0  0  0  0  0  0  0  0  0  0  0
   -3.1070   22.4260  -30.4670 C   0  0  0  0  0  0  0  0  0  0  0  0
   -4.1830   21.8550  -31.1440 O   0  0  0  0  0  0  0  0  0  0  0  0
   -0.5820   21.2360  -32.6400 C   0  0  0  0  0  0  0  0  0  0  0  0
   -0.1270   21.2010  -33.9630 C   0  0  0  0  0  0  0  0  0  0  0  0
    0.6810   22.2280  -34.4360 O   0  0  0  0  0  0  0  0  0  0  0  0
    1.9889   20.0453  -35.5681 H   0  0  0  0  0  0  0  0  0  0  0  0
    1.5566   19.1677  -37.0746 H   0  0  0  0  0  0  0  0  0  0  0  0
    1.6465   20.9617  -37.0746 H   0  0  0  0  0  0  0  0  0  0  0  0
   -1.5850   18.2712  -34.9614 H   0  0  0  0  0  0  0  0  0  0  0  0
   -2.3899   18.3333  -32.6056 H   0  0  0  0  0  0  0  0  0  0  0  0
   -2.8503   19.7519  -30.6391 H   0  0  0  0  0  0  0  0  0  0  0  0
   -1.1315   19.6839  -30.0931 H   0  0  0  0  0  0  0  0  0  0  0  0
    0.0510   24.0935  -27.2312 H   0  0  0  0  0  0  0  0  0  0  0  0
    1.1313   23.6487  -28.5957 H   0  0  0  0  0  0  0  0  0  0  0  0
    0.2917   25.2367  -28.5957 H   0  0  0  0  0  0  0  0  0  0  0  0
   -5.8974   24.0303  -28.9280 H   0  0  0  0  0  0  0  0  0  0  0  0
   -6.5195   24.7613  -30.4463 H   0  0  0  0  0  0  0  0  0  0  0  0
   -5.9126   23.0706  -30.4463 H   0  0  0  0  0  0  0  0  0  0  0  0
   -0.2961   22.0726  -31.9856 H   0  0  0  0  0  0  0  0  0  0  0  0
  1  2  1  0
  2  3  1  0
  3  4  2  0
  4  5  1  0
  5  6  2  0
  6  7  1  0
  7  8  1  0
  8  9  2  0
  9 10  1  0
  9 11  1  0
 11 12  1  0
 11 13  2  0
 13 14  1  0
 13 15  1  0
 15 16  1  0
 16 17  1  0
 16 18  2  0
 15 19  2  0
 19 20  1  0
  6 21  1  0
 21 22  2  0
 22 23  1  0
 22  3  1  0
 19  8  1  0
  1 24  1  0
  1 25  1  0
  1 26  1  0
  4 27  1  0
  5 28  1  0
  7 29  1  0
  7 30  1  0
 12 31  1  0
 12 32  1  0
 12 33  1  0
 17 34  1  0
 17 35  1  0
 17 36  1  0
 21 37  1  0
M  CHG  4  10  -1  14  -1  20  -1  23  -1
M  END
>  <UniqueID>  (34) 
31

>  <SMILES>  (34) 
COc1ccc(Cc2c([O-])c(C)c([O-])c(C(C)=O)c2[O-])cc1[O-]

>  <Energy>  (34) 
43.48267406864971

>  <Genealogy>  (34) 
COc1ccc(Cc2c([O-])c(C)c([O-])c(C(C)=O)c2[O-])cc1[O-] (protonated)
COc1ccc(Cc2c([O-])c(C)c([O-])c(C(C)=O)c2[O-])cc1[O-] (3D coordinates assigned)
COc1ccc(Cc2c([O-])c(C)c([O-])c(C(C)=O)c2[O-])cc1[O-] (optimized conformer: 43.48267406864971 kcal/mol)

>  <smiles>  (34) 
COc1ccc(Cc2c(O)c(C)c(O)c(C(C)=O)c2O)cc1O

>  <score_type>  (34) 
oracle

>  <origin>  (34) 
adgpu

>  <m_score__min__energy>  (34) 
-9.9900000000000002

>  <m_primary>  (34) 
energy

$$$$
34:0
     RDKit          3D

 29 31  0  0  0  0  0  0  0  0999 V2000
   -1.2380   26.1540  -29.3400 O   0  0  0  0  0  0  0  0  0  0  0  0
   -1.2260   25.1960  -28.3330 C   0  0  0  0  0  0  0  0  0  0  0  0
   -0.2410   25.2780  -27.3410 C   0  0  0  0  0  0  0  0  0  0  0  0
   -0.1670   24.3110  -26.3370 C   0  0  0  0  0  0  0  0  0  0  0  0
   -1.0760   23.2520  -26.3210 C   0  0  0  0  0  0  0  0  0  0  0  0
   -2.0670   23.1640  -27.3030 C   0  0  0  0  0  0  0  0  0  0  0  0
   -2.1650   24.1400  -28.3120 C   0  0  0  0  0  0  0  0  0  0  0  0
   -3.2370   24.0150  -29.3290 C   0  0  0  0  0  0  0  0  0  0  0  0
   -4.1290   22.9680  -29.4810 C   0  0  0  0  0  0  0  0  0  0  0  0
   -4.8820   23.3200  -30.5880 C   0  0  0  0  0  0  0  0  0  0  0  0
   -5.9870   22.5430  -31.2020 C   0  0  0  0  0  0  0  0  0  0  0  0
   -7.3200   22.9910  -31.1400 C   0  0  0  0  0  0  0  0  0  0  0  0
   -8.3460   22.2430  -31.7260 C   0  0  0  0  0  0  0  0  0  0  0  0
   -8.0590   21.0400  -32.3810 C   0  0  0  0  0  0  0  0  0  0  0  0
   -9.0740   20.2880  -32.9670 O   0  0  0  0  0  0  0  0  0  0  0  0
   -6.7380   20.5880  -32.4480 C   0  0  0  0  0  0  0  0  0  0  0  0
   -5.7090   21.3310  -31.8640 C   0  0  0  0  0  0  0  0  0  0  0  0
   -4.4470   24.5030  -31.0630 N   0  0  0  0  0  0  0  0  0  0  0  0
   -3.4470   24.9220  -30.3030 N   0  0  0  0  0  0  0  0  0  0  0  0
    0.4789   26.1096  -27.3530 H   0  0  0  0  0  0  0  0  0  0  0  0
    0.6072   24.3836  -25.5590 H   0  0  0  0  0  0  0  0  0  0  0  0
   -1.0125   22.4855  -25.5345 H   0  0  0  0  0  0  0  0  0  0  0  0
   -2.7769   22.3239  -27.2869 H   0  0  0  0  0  0  0  0  0  0  0  0
   -4.2192   22.0625  -28.8631 H   0  0  0  0  0  0  0  0  0  0  0  0
   -7.5561   23.9352  -30.6275 H   0  0  0  0  0  0  0  0  0  0  0  0
   -9.3843   22.6021  -31.6718 H   0  0  0  0  0  0  0  0  0  0  0  0
   -9.0120   19.9720  -33.9280 H   0  0  0  0  0  0  0  0  0  0  0  0
   -6.5077   19.6435  -32.9626 H   0  0  0  0  0  0  0  0  0  0  0  0
   -4.6728   20.9664  -31.9216 H   0  0  0  0  0  0  0  0  0  0  0  0
  1  2  1  0
  2  3  2  0
  3  4  1  0
  4  5  2  0
  5  6  1  0
  6  7  2  0
  7  8  1  0
  8  9  1  0
  9 10  2  0
 10 11  1  0
 11 12  2  0
 12 13  1  0
 13 14  2  0
 14 15  1  0
 14 16  1  0
 16 17  2  0
 10 18  1  0
 18 19  1  0
  7  2  1  0
 19  8  2  0
 17 11  1  0
  3 20  1  0
  4 21  1  0
  5 22  1  0
  6 23  1  0
  9 24  1  0
 12 25  1  0
 13 26  1  0
 15 27  1  0
 16 28  1  0
 17 29  1  0
M  CHG  2   1  -1  18  -1
M  END
>  <UniqueID>  (35) 
32

>  <SMILES>  (35) 
[O-]c1ccccc1-c1cc(-c2ccc(O)cc2)[n-]n1

>  <Energy>  (35) 
66.54692041581512

>  <Genealogy>  (35) 
[O-]c1ccccc1-c1cc(-c2ccc(O)cc2)[n-]n1 (protonated)
[O-]c1ccccc1-c1cc(-c2ccc(O)cc2)[n-]n1 (3D coordinates assigned)
[O-]c1ccccc1-c1cc(-c2ccc(O)cc2)[n-]n1 (optimized conformer: 66.54692041581512 kcal/mol)

>  <smiles>  (35) 
Oc1ccc(-c2cc(-c3ccccc3O)n[nH]2)cc1

>  <score_type>  (35) 
oracle

>  <origin>  (35) 
adgpu

>  <m_score__min__energy>  (35) 
-12

>  <m_primary>  (35) 
energy

$$$$
35:0
     RDKit          3D

 43 45  0  0  0  0  0  0  0  0999 V2000
   -0.4750   24.9000  -24.1220 C   0  0  0  0  0  0  0  0  0  0  0  0
   -0.2350   23.6030  -25.3150 S   0  0  0  0  0  0  0  0  0  0  0  0
   -0.7120   22.2990  -24.7410 O   0  0  0  0  0  0  0  0  0  0  0  0
    1.2280   23.4820  -25.6370 O   0  0  0  0  0  0  0  0  0  0  0  0
   -1.1390   23.9800  -26.7760 C   0  0  0  0  0  0  0  0  0  0  0  0
   -0.4820   24.0530  -28.0120 C   0  0  0  0  0  0  0  0  0  0  0  0
   -1.1980   24.3660  -29.1720 C   0  0  0  0  0  0  0  0  0  0  0  0
   -2.5790   24.6260  -29.1050 C   0  0  0  0  0  0  0  0  0  0  0  0
   -3.3350   24.9270  -30.2470 O   0  0  0  0  0  0  0  0  0  0  0  0
   -4.6580   24.5200  -30.4760 C   0  0  0  0  0  0  0  0  0  0  0  0
   -5.7450   25.1730  -29.8650 C   0  0  0  0  0  0  0  0  0  0  0  0
   -7.0510   24.7290  -30.0880 C   0  0  0  0  0  0  0  0  0  0  0  0
   -7.2820   23.6180  -30.9020 C   0  0  0  0  0  0  0  0  0  0  0  0
   -6.2100   22.9520  -31.4960 C   0  0  0  0  0  0  0  0  0  0  0  0
   -4.8940   23.4100  -31.3040 C   0  0  0  0  0  0  0  0  0  0  0  0
   -3.7780   22.7000  -31.8640 N   0  0  0  0  0  0  0  0  0  0  0  0
   -2.8970   21.9850  -31.2210 C   0  0  0  0  0  0  0  0  0  0  0  0
   -1.8200   21.4550  -31.9400 C   0  0  0  0  0  0  0  0  0  0  0  0
   -0.8690   20.6750  -31.2850 C   0  0  0  0  0  0  0  0  0  0  0  0
   -0.9960   20.4260  -29.9210 C   0  0  0  0  0  0  0  0  0  0  0  0
   -2.0820   20.9680  -29.2150 C   0  0  0  0  0  0  0  0  0  0  0  0
   -2.2720   20.6520  -27.7530 C   0  0  0  0  0  0  0  0  0  0  0  0
   -1.1400   21.0000  -27.0350 F   0  0  0  0  0  0  0  0  0  0  0  0
   -2.5040   19.3000  -27.5640 F   0  0  0  0  0  0  0  0  0  0  0  0
   -3.3500   21.3680  -27.2680 F   0  0  0  0  0  0  0  0  0  0  0  0
   -3.0190   21.7060  -29.8840 N   0  0  0  0  0  0  0  0  0  0  0  0
   -3.2330   24.5390  -27.8700 C   0  0  0  0  0  0  0  0  0  0  0  0
   -2.5170   24.2270  -26.7100 C   0  0  0  0  0  0  0  0  0  0  0  0
   -0.3979   24.4833  -23.1069 H   0  0  0  0  0  0  0  0  0  0  0  0
    0.2954   25.6728  -24.2606 H   0  0  0  0  0  0  0  0  0  0  0  0
   -1.4709   25.3460  -24.2606 H   0  0  0  0  0  0  0  0  0  0  0  0
    0.6000   23.8635  -28.0699 H   0  0  0  0  0  0  0  0  0  0  0  0
   -0.6791   24.4091  -30.1409 H   0  0  0  0  0  0  0  0  0  0  0  0
   -5.5654   26.0372  -29.2086 H   0  0  0  0  0  0  0  0  0  0  0  0
   -7.8975   25.2548  -29.6222 H   0  0  0  0  0  0  0  0  0  0  0  0
   -8.3103   23.2678  -31.0749 H   0  0  0  0  0  0  0  0  0  0  0  0
   -6.3948   22.0637  -32.1180 H   0  0  0  0  0  0  0  0  0  0  0  0
   -1.7244   21.6532  -33.0178 H   0  0  0  0  0  0  0  0  0  0  0  0
   -0.0194   20.2567  -31.8446 H   0  0  0  0  0  0  0  0  0  0  0  0
   -0.2500   19.8083  -29.3996 H   0  0  0  0  0  0  0  0  0  0  0  0
   -3.8610   22.0230  -29.3560 H   0  0  0  0  0  0  0  0  0  0  0  0
   -4.3169   24.7172  -27.8119 H   0  0  0  0  0  0  0  0  0  0  0  0
   -3.0373   24.1753  -25.7422 H   0  0  0  0  0  0  0  0  0  0  0  0
  1  2  1  0
  2  3  2  0
  2  4  2  0
  2  5  1  0
  5  6  2  0
  6  7  1  0
  7  8  2  0
  8  9  1  0
  9 10  1  0
 10 11  2  0
 11 12  1  0
 12 13  2  0
 13 14  1  0
 14 15  2  0
 15 16  1  0
 16 17  2  3
 17 18  1  0
 18 19  2  0
 19 20  1  0
 20 21  2  0
 21 22  1  0
 22 23  1  0
 22 24  1  0
 22 25  1  0
 21 26  1  0
  8 27  1  0
 27 28  2  0
 28  5  1  0
 15 10  1  0
 26 17  1  0
  1 29  1  0
  1 30  1  0
  1 31  1  0
  6 32  1  0
  7 33  1  0
 11 34  1  0
 12 35  1  0
 13 36  1  0
 14 37  1  0
 18 38  1  0
 19 39  1  0
 20 40  1  0
 26 41  1  0
 27 42  1  0
 28 43  1  0
M  END
>  <UniqueID>  (36) 
33

>  <SMILES>  (36) 
CS(=O)(=O)c1ccc(Oc2ccccc2N=c2cccc(C(F)(F)F)[nH]2)cc1

>  <Energy>  (36) 
58.98135547848627

>  <Genealogy>  (36) 
CS(=O)(=O)c1ccc(Oc2ccccc2N=c2cccc(C(F)(F)F)[nH]2)cc1 (3D coordinates assigned)
CS(=O)(=O)c1ccc(Oc2ccccc2N=c2cccc(C(F)(F)F)[nH]2)cc1 (optimized conformer: 58.98135547848627 kcal/mol)

>  <smiles>  (36) 
CS(=O)(=O)c1ccc(Oc2ccccc2N=c2cccc(C(F)(F)F)[nH]2)cc1

>  <score_type>  (36) 
oracle

>  <origin>  (36) 
adgpu

>  <m_score__min__energy>  (36) 
-7.6900000000000004

>  <m_primary>  (36) 
energy

$$$$
36:0
     RDKit          3D

 45 48  0  0  0  0  0  0  0  0999 V2000
   -0.2296   26.1608  -29.0961 H   0  0  0  0  0  0  0  0  0  0  0  0
   -0.9940   25.5360  -28.6110 C   0  0  0  0  0  0  0  0  0  0  0  0
   -2.1930   25.2660  -29.1930 N   0  0  0  0  0  0  0  0  0  0  0  0
   -2.9560   24.4780  -28.4030 C   0  0  0  0  0  0  0  0  0  0  0  0
   -4.1450   24.0710  -28.7190 N   0  0  0  0  0  0  0  0  0  0  0  0
   -4.9230   24.4850  -30.2110 S   0  0  0  0  0  0  0  0  0  0  0  0
   -4.2430   25.6750  -30.8290 O   0  0  0  0  0  0  0  0  0  0  0  0
   -6.3680   24.8170  -29.9590 O   0  0  0  0  0  0  0  0  0  0  0  0
   -4.8160   23.1130  -31.3090 C   0  0  0  0  0  0  0  0  0  0  0  0
   -5.9790   22.5580  -31.8610 C   0  0  0  0  0  0  0  0  0  0  0  0
   -6.9616   22.9865  -31.6141 H   0  0  0  0  0  0  0  0  0  0  0  0
   -5.8940   21.4620  -32.7240 C   0  0  0  0  0  0  0  0  0  0  0  0
   -6.8095   21.0423  -33.1663 H   0  0  0  0  0  0  0  0  0  0  0  0
   -4.6510   20.8950  -33.0290 C   0  0  0  0  0  0  0  0  0  0  0  0
   -4.6060   19.8090  -33.9150 O   0  0  0  0  0  0  0  0  0  0  0  0
   -5.2300   18.5680  -33.7130 C   0  0  0  0  0  0  0  0  0  0  0  0
   -6.5960   18.4890  -33.3870 C   0  0  0  0  0  0  0  0  0  0  0  0
   -7.1771   19.4112  -33.2391 H   0  0  0  0  0  0  0  0  0  0  0  0
   -7.2190   17.2460  -33.2500 C   0  0  0  0  0  0  0  0  0  0  0  0
   -8.2842   17.1924  -32.9809 H   0  0  0  0  0  0  0  0  0  0  0  0
   -6.4920   16.0720  -33.4540 C   0  0  0  0  0  0  0  0  0  0  0  0
   -6.9853   15.0943  -33.3502 H   0  0  0  0  0  0  0  0  0  0  0  0
   -5.1380   16.1390  -33.7900 C   0  0  0  0  0  0  0  0  0  0  0  0
   -4.5717   15.2120  -33.9633 H   0  0  0  0  0  0  0  0  0  0  0  0
   -4.4950   17.3810  -33.9080 C   0  0  0  0  0  0  0  0  0  0  0  0
   -3.0620   17.4190  -34.2590 C   0  0  0  0  0  0  0  0  0  0  0  0
   -1.9550   18.5130  -33.6150 S   0  0  0  0  0  0  0  0  0  0  0  0
   -0.6700   17.9000  -34.5060 C   0  0  0  0  0  0  0  0  0  0  0  0
    0.7130   18.4550  -34.4940 C   0  0  0  0  0  0  0  0  0  0  0  0
    1.0455   18.5884  -33.4540 H   0  0  0  0  0  0  0  0  0  0  0  0
    1.3917   17.7596  -35.0096 H   0  0  0  0  0  0  0  0  0  0  0  0
    0.7227   19.4266  -35.0096 H   0  0  0  0  0  0  0  0  0  0  0  0
   -1.0620   16.8980  -35.3230 N   0  0  0  0  0  0  0  0  0  0  0  0
   -2.3890   16.6240  -35.1970 C   0  0  0  0  0  0  0  0  0  0  0  0
   -3.0360   15.5620  -36.0320 C   0  0  0  0  0  0  0  0  0  0  0  0
   -3.4952   14.8083  -35.3754 H   0  0  0  0  0  0  0  0  0  0  0  0
   -3.8110   16.0162  -36.6669 H   0  0  0  0  0  0  0  0  0  0  0  0
   -2.2770   15.0816  -36.6669 H   0  0  0  0  0  0  0  0  0  0  0  0
   -3.4840   21.4590  -32.4840 C   0  0  0  0  0  0  0  0  0  0  0  0
   -2.5008   21.0355  -32.7369 H   0  0  0  0  0  0  0  0  0  0  0  0
   -3.5690   22.5560  -31.6220 C   0  0  0  0  0  0  0  0  0  0  0  0
   -2.6534   22.9837  -31.1877 H   0  0  0  0  0  0  0  0  0  0  0  0
   -2.1880   24.0870  -26.9640 S   0  0  0  0  0  0  0  0  0  0  0  0
   -0.8050   24.9640  -27.3570 C   0  0  0  0  0  0  0  0  0  0  0  0
    0.0930   25.0668  -26.7302 H   0  0  0  0  0  0  0  0  0  0  0  0
  1  2  1  0
  2  3  1  0
  3  4  1  0
  4  5  2  0
  5  6  1  0
  6  7  2  0
  6  8  2  0
  6  9  1  0
  9 10  2  0
 10 11  1  0
 10 12  1  0
 12 13  1  0
 12 14  2  0
 14 15  1  0
 15 16  1  0
 16 17  2  0
 17 18  1  0
 17 19  1  0
 19 20  1  0
 19 21  2  0
 21 22  1  0
 21 23  1  0
 23 24  1  0
 23 25  2  0
 25 26  1  0
 26 27  1  0
 27 28  1  0
 28 29  1  0
 29 30  1  0
 29 31  1  0
 29 32  1  0
 28 33  2  0
 33 34  1  0
 34 35  1  0
 35 36  1  0
 35 37  1  0
 35 38  1  0
 14 39  1  0
 39 40  1  0
 39 41  2  0
 41 42  1  0
  4 43  1  0
 43 44  1  0
 44 45  1  0
 44  2  2  0
 41  9  1  0
 25 16  1  0
 34 26  2  0
M  CHG  1   3  -1
M  END
>  <UniqueID>  (37) 
34

>  <SMILES>  (37) 
Cc1nc(C)c(-c2ccccc2Oc2ccc(S(=O)(=O)/N=c3\[n-]ccs3)cc2)s1

>  <Energy>  (37) 
121.71752880518409

>  <Genealogy>  (37) 
Cc1nc(C)c(-c2ccccc2Oc2ccc(S(=O)(=O)N=c3[n-]ccs3)cc2)s1 (protonated)
Cc1nc(C)c(-c2ccccc2Oc2ccc(S(=O)(=O)/N=c3\[n-]ccs3)cc2)s1 (cis-trans isomerization)
Cc1nc(C)c(-c2ccccc2Oc2ccc(S(=O)(=O)/N=c3\[n-]ccs3)cc2)s1 (3D coordinates assigned)
Cc1nc(C)c(-c2ccccc2Oc2ccc(S(=O)(=O)/N=c3\[n-]ccs3)cc2)s1 (optimized conformer: 121.71752880518409 kcal/mol)

>  <smiles>  (37) 
Cc1nc(C)c(-c2ccccc2Oc2ccc(S(=O)(=O)N=c3[nH]ccs3)cc2)s1

>  <score_type>  (37) 
oracle

>  <origin>  (37) 
adgpu

>  <m_score__min__energy>  (37) 
-10.27

>  <m_primary>  (37) 
energy

$$$$
37:0
     RDKit          3D

 40 42  0  0  0  0  0  0  0  0999 V2000
   -4.8850   24.6820  -28.4600 N   0  0  0  0  0  0  0  0  0  0  0  0
   -5.3200   24.8900  -30.1200 S   0  0  0  0  0  0  0  0  0  0  0  0
   -6.6110   25.6560  -30.2110 O   0  0  0  0  0  0  0  0  0  0  0  0
   -4.2460   25.6690  -30.8250 O   0  0  0  0  0  0  0  0  0  0  0  0
   -5.5110   23.3130  -30.8770 C   0  0  0  0  0  0  0  0  0  0  0  0
   -4.3960   22.6360  -31.3870 C   0  0  0  0  0  0  0  0  0  0  0  0
   -4.5450   21.3780  -31.9760 C   0  0  0  0  0  0  0  0  0  0  0  0
   -5.8130   20.7740  -32.0670 C   0  0  0  0  0  0  0  0  0  0  0  0
   -5.9500   19.4320  -32.6900 C   0  0  0  0  0  0  0  0  0  0  0  0
   -7.1770   18.7530  -32.7290 C   0  0  0  0  0  0  0  0  0  0  0  0
   -7.2310   17.5000  -33.3360 C   0  0  0  0  0  0  0  0  0  0  0  0
   -6.1120   16.9610  -33.8830 N   0  0  0  0  0  0  0  0  0  0  0  0
   -4.9240   17.6240  -33.8510 C   0  0  0  0  0  0  0  0  0  0  0  0
   -3.7440   17.0440  -34.4440 N   0  0  0  0  0  0  0  0  0  0  0  0
   -2.4340   17.6710  -34.2030 C   0  0  0  0  0  0  0  0  0  0  0  0
   -1.3650   17.1290  -35.1590 C   0  0  0  0  0  0  0  0  0  0  0  0
   -1.3010   15.5940  -35.1250 C   0  0  0  0  0  0  0  0  0  0  0  0
   -2.6850   14.9140  -35.0800 C   0  0  0  0  0  0  0  0  0  0  0  0
   -3.8440   15.8830  -35.3420 C   0  0  0  0  0  0  0  0  0  0  0  0
   -4.8590   18.8490  -33.2600 N   0  0  0  0  0  0  0  0  0  0  0  0
   -6.9250   21.4540  -31.5340 C   0  0  0  0  0  0  0  0  0  0  0  0
   -6.7730   22.7120  -30.9440 C   0  0  0  0  0  0  0  0  0  0  0  0
   -5.6850   24.2010  -27.9930 H   0  0  0  0  0  0  0  0  0  0  0  0
   -4.8180   25.6350  -28.0390 H   0  0  0  0  0  0  0  0  0  0  0  0
   -3.3991   23.0966  -31.3235 H   0  0  0  0  0  0  0  0  0  0  0  0
   -3.6626   20.8544  -32.3725 H   0  0  0  0  0  0  0  0  0  0  0  0
   -8.0797   19.2015  -32.2885 H   0  0  0  0  0  0  0  0  0  0  0  0
   -8.1813   16.9472  -33.3719 H   0  0  0  0  0  0  0  0  0  0  0  0
   -2.5258   18.7574  -34.3490 H   0  0  0  0  0  0  0  0  0  0  0  0
   -2.1250   17.4380  -33.1733 H   0  0  0  0  0  0  0  0  0  0  0  0
   -1.6038   17.4537  -36.1825 H   0  0  0  0  0  0  0  0  0  0  0  0
   -0.3879   17.5211  -34.8402 H   0  0  0  0  0  0  0  0  0  0  0  0
   -0.7741   15.2488  -36.0268 H   0  0  0  0  0  0  0  0  0  0  0  0
   -0.7770   15.3156  -34.1988 H   0  0  0  0  0  0  0  0  0  0  0  0
   -2.7109   14.1234  -35.8444 H   0  0  0  0  0  0  0  0  0  0  0  0
   -2.8185   14.5123  -34.0647 H   0  0  0  0  0  0  0  0  0  0  0  0
   -3.8027   16.2260  -36.3863 H   0  0  0  0  0  0  0  0  0  0  0  0
   -4.7962   15.3646  -35.1562 H   0  0  0  0  0  0  0  0  0  0  0  0
   -7.9217   20.9912  -31.5824 H   0  0  0  0  0  0  0  0  0  0  0  0
   -7.6496   23.2321  -30.5304 H   0  0  0  0  0  0  0  0  0  0  0  0
  1  2  1  0
  2  3  2  0
  2  4  2  0
  2  5  1  0
  5  6  2  0
  6  7  1  0
  7  8  2  0
  8  9  1  0
  9 10  2  0
 10 11  1  0
 11 12  2  0
 12 13  1  0
 13 14  1  0
 14 15  1  0
 15 16  1  0
 16 17  1  0
 17 18  1  0
 18 19  1  0
 13 20  2  0
  8 21  1  0
 21 22  2  0
 22  5  1  0
 20  9  1  0
 19 14  1  0
  1 23  1  0
  1 24  1  0
  6 25  1  0
  7 26  1  0
 10 27  1  0
 11 28  1  0
 15 29  1  0
 15 30  1  0
 16 31  1  0
 16 32  1  0
 17 33  1  0
 17 34  1  0
 18 35  1  0
 18 36  1  0
 19 37  1  0
 19 38  1  0
 21 39  1  0
 22 40  1  0
M  END
>  <UniqueID>  (38) 
35

>  <SMILES>  (38) 
NS(=O)(=O)c1ccc(-c2ccnc(N3CCCCC3)n2)cc1

>  <Energy>  (38) 
45.71563238281659

>  <Genealogy>  (38) 
NS(=O)(=O)c1ccc(-c2ccnc(N3CCCCC3)n2)cc1 (3D coordinates assigned)
NS(=O)(=O)c1ccc(-c2ccnc(N3CCCCC3)n2)cc1 (nonaromatic ring conformer: 45.71563238281659 kcal/mol)

>  <smiles>  (38) 
NS(=O)(=O)c1ccc(-c2ccnc(N3CCCCC3)n2)cc1

>  <score_type>  (38) 
oracle

>  <origin>  (38) 
adgpu

>  <m_score__min__energy>  (38) 
-8.2200000000000006

>  <m_primary>  (38) 
energy

$$$$
38:0
     RDKit          3D

 81 85  0  0  0  0  0  0  0  0999 V2000
   -4.7340   17.5480  -32.9930 C   0  0  0  0  0  0  0  0  0  0  0  0
   -3.9840   18.8430  -33.1540 C   0  0  0  0  0  0  0  0  0  0  0  0
   -4.4580   19.9920  -32.5000 C   0  0  0  0  0  0  0  0  0  0  0  0
   -3.7960   21.2200  -32.6470 C   0  0  0  0  0  0  0  0  0  0  0  0
   -4.2980   22.4200  -31.9490 C   0  0  0  0  0  0  0  0  0  0  0  0
   -5.5510   22.9170  -32.3420 C   0  0  0  0  0  0  0  0  0  0  0  0
   -6.0740   24.0710  -31.7610 C   0  0  0  0  0  0  0  0  0  0  0  0
   -5.3580   24.7460  -30.7760 C   0  0  0  0  0  0  0  0  0  0  0  0
   -4.1130   24.2670  -30.3550 C   0  0  0  0  0  0  0  0  0  0  0  0
   -3.4400   24.9410  -29.3870 N   0  0  0  0  0  0  0  0  0  0  0  0
   -2.2280   24.5380  -28.9220 C   0  0  0  0  0  0  0  0  0  0  0  0
   -1.5800   25.2890  -27.8790 N   0  0  0  0  0  0  0  0  0  0  0  0
   -0.7920   26.4710  -28.2460 C   0  0  0  0  0  0  0  0  0  0  0  0
   -0.3040   27.2030  -26.9950 C   0  0  0  0  0  0  0  0  0  0  0  0
   -1.3180   27.1750  -26.0140 O   0  0  0  0  0  0  0  0  0  0  0  0
   -1.4160   25.8760  -25.4560 C   0  0  0  0  0  0  0  0  0  0  0  0
   -1.4790   24.7480  -26.5140 C   0  0  0  0  0  0  0  0  0  0  0  0
   -1.6580   23.3640  -29.4290 C   0  0  0  0  0  0  0  0  0  0  0  0
   -2.3180   22.6380  -30.4230 C   0  0  0  0  0  0  0  0  0  0  0  0
   -1.7840   21.5720  -30.8350 O   0  0  0  0  0  0  0  0  0  0  0  0
   -3.5630   23.0900  -30.9280 C   0  0  0  0  0  0  0  0  0  0  0  0
   -2.6700   21.3070  -33.4740 C   0  0  0  0  0  0  0  0  0  0  0  0
   -2.1790   20.1670  -34.1120 C   0  0  0  0  0  0  0  0  0  0  0  0
   -2.8060   18.9260  -33.9330 C   0  0  0  0  0  0  0  0  0  0  0  0
   -2.2430   17.7700  -34.5710 N   0  0  0  0  0  0  0  0  0  0  0  0
   -1.4930   16.7870  -33.8380 C   0  0  0  0  0  0  0  0  0  0  0  0
   -1.1580   17.0210  -32.6440 O   0  0  0  0  0  0  0  0  0  0  0  0
   -1.0770   15.5160  -34.4800 C   0  0  0  0  0  0  0  0  0  0  0  0
   -1.7430   15.0590  -35.6190 C   0  0  0  0  0  0  0  0  0  0  0  0
   -1.3830   13.8520  -36.2570 C   0  0  0  0  0  0  0  0  0  0  0  0
   -2.1440   13.3510  -37.5200 C   0  0  0  0  0  0  0  0  0  0  0  0
   -2.9250   12.0570  -37.1910 C   0  0  0  0  0  0  0  0  0  0  0  0
   -3.1190   14.4410  -38.0210 C   0  0  0  0  0  0  0  0  0  0  0  0
   -1.2050   13.0130  -38.7070 C   0  0  0  0  0  0  0  0  0  0  0  0
   -0.3030   13.1080  -35.7010 C   0  0  0  0  0  0  0  0  0  0  0  0
    0.0660   11.9070  -36.2920 O   0  0  0  0  0  0  0  0  0  0  0  0
    0.4050   13.5630  -34.5530 C   0  0  0  0  0  0  0  0  0  0  0  0
    1.5960   12.7500  -33.9640 C   0  0  0  0  0  0  0  0  0  0  0  0
    2.3620   13.5110  -32.8500 C   0  0  0  0  0  0  0  0  0  0  0  0
    2.6250   12.4310  -35.0740 C   0  0  0  0  0  0  0  0  0  0  0  0
    1.0800   11.4360  -33.3300 C   0  0  0  0  0  0  0  0  0  0  0  0
   -0.0090   14.7780  -33.9650 C   0  0  0  0  0  0  0  0  0  0  0  0
   -4.8611   17.3285  -31.9226 H   0  0  0  0  0  0  0  0  0  0  0  0
   -5.7217   17.6346  -33.4693 H   0  0  0  0  0  0  0  0  0  0  0  0
   -4.1673   16.7344  -33.4693 H   0  0  0  0  0  0  0  0  0  0  0  0
   -5.3556   19.9285  -31.8674 H   0  0  0  0  0  0  0  0  0  0  0  0
   -6.1264   22.3897  -33.1172 H   0  0  0  0  0  0  0  0  0  0  0  0
   -7.0557   24.4497  -32.0818 H   0  0  0  0  0  0  0  0  0  0  0  0
   -5.7733   25.6602  -30.3268 H   0  0  0  0  0  0  0  0  0  0  0  0
    0.0769   26.1553  -28.8420 H   0  0  0  0  0  0  0  0  0  0  0  0
   -1.4272   27.1529  -28.8304 H   0  0  0  0  0  0  0  0  0  0  0  0
    0.5972   26.7062  -26.6064 H   0  0  0  0  0  0  0  0  0  0  0  0
   -0.0642   28.2463  -27.2480 H   0  0  0  0  0  0  0  0  0  0  0  0
   -0.5366   25.7049  -24.8177 H   0  0  0  0  0  0  0  0  0  0  0  0
   -2.3586   25.8393  -24.8901 H   0  0  0  0  0  0  0  0  0  0  0  0
   -0.5673   24.1371  -26.4389 H   0  0  0  0  0  0  0  0  0  0  0  0
   -2.3758   24.1422  -26.3173 H   0  0  0  0  0  0  0  0  0  0  0  0
   -0.6892   23.0130  -29.0440 H   0  0  0  0  0  0  0  0  0  0  0  0
   -2.1710   22.2762  -33.6214 H   0  0  0  0  0  0  0  0  0  0  0  0
   -1.2935   20.2428  -34.7601 H   0  0  0  0  0  0  0  0  0  0  0  0
   -2.1620   17.7800  -35.6120 H   0  0  0  0  0  0  0  0  0  0  0  0
   -2.5706   15.6555  -36.0304 H   0  0  0  0  0  0  0  0  0  0  0  0
   -2.9961   11.9391  -36.0997 H   0  0  0  0  0  0  0  0  0  0  0  0
   -3.9361   12.1199  -37.6197 H   0  0  0  0  0  0  0  0  0  0  0  0
   -2.3982   11.1917  -37.6197 H   0  0  0  0  0  0  0  0  0  0  0  0
   -3.5743   14.9500  -37.1587 H   0  0  0  0  0  0  0  0  0  0  0  0
   -2.5688   15.1731  -38.6304 H   0  0  0  0  0  0  0  0  0  0  0  0
   -3.9076   13.9755  -38.6304 H   0  0  0  0  0  0  0  0  0  0  0  0
   -0.2361   12.6642  -38.3202 H   0  0  0  0  0  0  0  0  0  0  0  0
   -1.6606   12.2224  -39.3214 H   0  0  0  0  0  0  0  0  0  0  0  0
   -1.0522   13.9126  -39.3214 H   0  0  0  0  0  0  0  0  0  0  0  0
    2.0147   13.1660  -31.8649 H   0  0  0  0  0  0  0  0  0  0  0  0
    3.4402   13.3161  -32.9476 H   0  0  0  0  0  0  0  0  0  0  0  0
    2.1742   14.5904  -32.9476 H   0  0  0  0  0  0  0  0  0  0  0  0
    3.5798   12.1350  -34.6148 H   0  0  0  0  0  0  0  0  0  0  0  0
    2.2476   11.6077  -35.6983 H   0  0  0  0  0  0  0  0  0  0  0  0
    2.7794   13.3234  -35.6983 H   0  0  0  0  0  0  0  0  0  0  0  0
    1.1130   11.5201  -32.2337 H   0  0  0  0  0  0  0  0  0  0  0  0
    0.0441   11.2552  -33.6528 H   0  0  0  0  0  0  0  0  0  0  0  0
    1.7161   10.5986  -33.6528 H   0  0  0  0  0  0  0  0  0  0  0  0
    0.5233   15.1530  -33.0784 H   0  0  0  0  0  0  0  0  0  0  0  0
  1  2  1  0
  2  3  2  0
  3  4  1  0
  4  5  1  0
  5  6  2  0
  6  7  1  0
  7  8  2  0
  8  9  1  0
  9 10  1  0
 10 11  1  0
 11 12  1  0
 12 13  1  0
 13 14  1  0
 14 15  1  0
 15 16  1  0
 16 17  1  0
 11 18  2  0
 18 19  1  0
 19 20  2  0
 19 21  1  0
  4 22  2  0
 22 23  1  0
 23 24  2  0
 24 25  1  0
 25 26  1  0
 26 27  2  0
 26 28  1  0
 28 29  2  0
 29 30  1  0
 30 31  1  0
 31 32  1  0
 31 33  1  0
 31 34  1  0
 30 35  2  0
 35 36  1  0
 35 37  1  0
 37 38  1  0
 38 39  1  0
 38 40  1  0
 38 41  1  0
 37 42  2  0
 24  2  1  0
 42 28  1  0
 21  5  1  0
 21  9  2  0
 17 12  1  0
  1 43  1  0
  1 44  1  0
  1 45  1  0
  3 46  1  0
  6 47  1  0
  7 48  1  0
  8 49  1  0
 13 50  1  0
 13 51  1  0
 14 52  1  0
 14 53  1  0
 16 54  1  0
 16 55  1  0
 17 56  1  0
 17 57  1  0
 18 58  1  0
 22 59  1  0
 23 60  1  0
 25 61  1  0
 29 62  1  0
 32 63  1  0
 32 64  1  0
 32 65  1  0
 33 66  1  0
 33 67  1  0
 33 68  1  0
 34 69  1  0
 34 70  1  0
 34 71  1  0
 39 72  1  0
 39 73  1  0
 39 74  1  0
 40 75  1  0
 40 76  1  0
 40 77  1  0
 41 78  1  0
 41 79  1  0
 41 80  1  0
 42 81  1  0
M  CHG  2  10  -1  36  -1
M  END
>  <UniqueID>  (39) 
36

>  <SMILES>  (39) 
Cc1cc(-c2cccc3[n-]c(N4CCOCC4)cc(=O)c23)ccc1NC(=O)c1cc(C(C)(C)C)c([O-])c(C(C)(C)C)c1

>  <Energy>  (39) 
129.1414877048236

>  <Genealogy>  (39) 
Cc1cc(-c2cccc3[n-]c(N4CCOCC4)cc(=O)c23)ccc1NC(=O)c1cc(C(C)(C)C)c([O-])c(C(C)(C)C)c1 (protonated)
Cc1cc(-c2cccc3[n-]c(N4CCOCC4)cc(=O)c23)ccc1NC(=O)c1cc(C(C)(C)C)c([O-])c(C(C)(C)C)c1 (3D coordinates assigned)
Cc1cc(-c2cccc3[n-]c(N4CCOCC4)cc(=O)c23)ccc1NC(=O)c1cc(C(C)(C)C)c([O-])c(C(C)(C)C)c1 (nonaromatic ring conformer: 129.1414877048236 kcal/mol)

>  <smiles>  (39) 
Cc1cc(-c2cccc3[nH]c(N4CCOCC4)cc(=O)c23)ccc1NC(=O)c1cc(C(C)(C)C)c(O)c(C(C)(C)C)c1

>  <score_type>  (39) 
oracle

>  <origin>  (39) 
adgpu

>  <m_score__min__energy>  (39) 
-10.119999999999999

>  <m_primary>  (39) 
energy

$$$$
39:0
     RDKit          3D

 48 50  0  0  0  0  0  0  0  0999 V2000
   -0.2080   23.5190  -26.1800 C   0  0  0  0  0  0  0  0  0  0  0  0
   -1.5210   23.4430  -26.9150 C   0  0  0  0  0  0  0  0  0  0  0  0
   -2.3900   24.5440  -26.8620 C   0  0  0  0  0  0  0  0  0  0  0  0
   -3.6050   24.5250  -27.5500 C   0  0  0  0  0  0  0  0  0  0  0  0
   -3.9740   23.4110  -28.3110 C   0  0  0  0  0  0  0  0  0  0  0  0
   -5.2370   23.4120  -29.0000 N   0  0  0  0  0  0  0  0  0  0  0  0
   -5.3720   23.2280  -30.4190 C   0  0  0  0  0  0  0  0  0  0  0  0
   -4.3920   23.4700  -31.1760 O   0  0  0  0  0  0  0  0  0  0  0  0
   -6.6650   22.8060  -31.0120 C   0  0  0  0  0  0  0  0  0  0  0  0
   -7.6110   23.7700  -31.4020 C   0  0  0  0  0  0  0  0  0  0  0  0
   -8.8220   23.3810  -31.9780 C   0  0  0  0  0  0  0  0  0  0  0  0
   -9.1070   22.0290  -32.1690 C   0  0  0  0  0  0  0  0  0  0  0  0
   -8.1850   21.0460  -31.7710 C   0  0  0  0  0  0  0  0  0  0  0  0
   -8.4650   19.5860  -32.0320 C   0  0  0  0  0  0  0  0  0  0  0  0
   -8.9310   18.9640  -30.8850 F   0  0  0  0  0  0  0  0  0  0  0  0
   -7.3140   18.9340  -32.4380 F   0  0  0  0  0  0  0  0  0  0  0  0
   -9.4210   19.4760  -33.0240 F   0  0  0  0  0  0  0  0  0  0  0  0
   -6.9550   21.4440  -31.2170 C   0  0  0  0  0  0  0  0  0  0  0  0
   -3.1300   22.2880  -28.3350 C   0  0  0  0  0  0  0  0  0  0  0  0
   -1.9110   22.2870  -27.6360 C   0  0  0  0  0  0  0  0  0  0  0  0
   -1.0720   21.0670  -27.6800 C   0  0  0  0  0  0  0  0  0  0  0  0
   -1.4770   19.8840  -27.0510 C   0  0  0  0  0  0  0  0  0  0  0  0
   -0.6960   18.7750  -27.1220 N   0  0  0  0  0  0  0  0  0  0  0  0
    0.4830   18.7820  -27.8020 C   0  0  0  0  0  0  0  0  0  0  0  0
    1.2960   17.5950  -27.8600 N   0  0  0  0  0  0  0  0  0  0  0  0
    2.6860   17.6860  -28.3170 C   0  0  0  0  0  0  0  0  0  0  0  0
    0.7260   16.3030  -27.4630 C   0  0  0  0  0  0  0  0  0  0  0  0
    0.8840   19.9210  -28.4300 N   0  0  0  0  0  0  0  0  0  0  0  0
    0.1350   21.0530  -28.3870 C   0  0  0  0  0  0  0  0  0  0  0  0
   -0.3936   23.5083  -25.0958 H   0  0  0  0  0  0  0  0  0  0  0  0
    0.4160   22.6555  -26.4538 H   0  0  0  0  0  0  0  0  0  0  0  0
    0.3122   24.4488  -26.4538 H   0  0  0  0  0  0  0  0  0  0  0  0
   -2.1113   25.4302  -26.2729 H   0  0  0  0  0  0  0  0  0  0  0  0
   -4.2776   25.3935  -27.4930 H   0  0  0  0  0  0  0  0  0  0  0  0
   -6.0900   23.6720  -28.4550 H   0  0  0  0  0  0  0  0  0  0  0  0
   -7.3957   24.8383  -31.2523 H   0  0  0  0  0  0  0  0  0  0  0  0
   -9.5540   24.1436  -32.2823 H   0  0  0  0  0  0  0  0  0  0  0  0
  -10.0584   21.7307  -32.6336 H   0  0  0  0  0  0  0  0  0  0  0  0
   -6.2112   20.6822  -30.9408 H   0  0  0  0  0  0  0  0  0  0  0  0
   -3.4274   21.3978  -28.9086 H   0  0  0  0  0  0  0  0  0  0  0  0
   -2.4280   19.8524  -26.4991 H   0  0  0  0  0  0  0  0  0  0  0  0
    3.3562   17.7299  -27.4459 H   0  0  0  0  0  0  0  0  0  0  0  0
    2.9310   16.8020  -28.9240 H   0  0  0  0  0  0  0  0  0  0  0  0
    2.8137   18.5944  -28.9240 H   0  0  0  0  0  0  0  0  0  0  0  0
    0.6968   16.2369  -26.3654 H   0  0  0  0  0  0  0  0  0  0  0  0
   -0.2949   16.2142  -27.8630 H   0  0  0  0  0  0  0  0  0  0  0  0
    1.3486   15.4891  -27.8630 H   0  0  0  0  0  0  0  0  0  0  0  0
    0.4775   21.9591  -28.9082 H   0  0  0  0  0  0  0  0  0  0  0  0
  1  2  1  0
  2  3  2  0
  3  4  1  0
  4  5  2  0
  5  6  1  0
  6  7  1  0
  7  8  2  0
  7  9  1  0
  9 10  2  0
 10 11  1  0
 11 12  2  0
 12 13  1  0
 13 14  1  0
 14 15  1  0
 14 16  1  0
 14 17  1  0
 13 18  2  0
  5 19  1  0
 19 20  2  0
 20 21  1  0
 21 22  2  0
 22 23  1  0
 23 24  2  0
 24 25  1  0
 25 26  1  0
 25 27  1  0
 24 28  1  0
 28 29  2  0
 20  2  1  0
 29 21  1  0
 18  9  1  0
  1 30  1  0
  1 31  1  0
  1 32  1  0
  3 33  1  0
  4 34  1  0
  6 35  1  0
 10 36  1  0
 11 37  1  0
 12 38  1  0
 18 39  1  0
 19 40  1  0
 22 41  1  0
 26 42  1  0
 26 43  1  0
 26 44  1  0
 27 45  1  0
 27 46  1  0
 27 47  1  0
 29 48  1  0
M  END
>  <UniqueID>  (40) 
37

>  <SMILES>  (40) 
Cc1ccc(NC(=O)c2cccc(C(F)(F)F)c2)cc1-c1cnc(N(C)C)nc1

>  <Energy>  (40) 
61.76822446710562

>  <Genealogy>  (40) 
Cc1ccc(NC(=O)c2cccc(C(F)(F)F)c2)cc1-c1cnc(N(C)C)nc1 (3D coordinates assigned)
Cc1ccc(NC(=O)c2cccc(C(F)(F)F)c2)cc1-c1cnc(N(C)C)nc1 (optimized conformer: 61.76822446710562 kcal/mol)

>  <smiles>  (40) 
Cc1ccc(NC(=O)c2cccc(C(F)(F)F)c2)cc1-c1cnc(N(C)C)nc1

>  <score_type>  (40) 
oracle

>  <origin>  (40) 
adgpu

>  <m_score__min__energy>  (40) 
-8.0299999999999994

>  <m_primary>  (40) 
energy

$$$$
40:0
     RDKit          3D

 36 38  0  0  0  0  0  0  0  0999 V2000
   -0.5890   25.5450  -28.7880 H   0  0  0  0  0  0  0  0  0  0  0  0
   -1.4670   25.3820  -29.3290 N   0  0  0  0  0  0  0  0  0  0  0  0
   -2.0940   24.2470  -29.3750 C   0  0  0  0  0  0  0  0  0  0  0  0
   -3.2290   24.1670  -30.1180 N   0  0  0  0  0  0  0  0  0  0  0  0
   -3.9560   23.0230  -30.2280 C   0  0  0  0  0  0  0  0  0  0  0  0
   -5.1970   23.0190  -31.0330 C   0  0  0  0  0  0  0  0  0  0  0  0
   -5.8750   21.8030  -31.2380 C   0  0  0  0  0  0  0  0  0  0  0  0
   -5.4528   20.8688  -30.8392 H   0  0  0  0  0  0  0  0  0  0  0  0
   -7.0800   21.7730  -31.9440 C   0  0  0  0  0  0  0  0  0  0  0  0
   -7.6004   20.8166  -32.1004 H   0  0  0  0  0  0  0  0  0  0  0  0
   -7.6250   22.9520  -32.4510 C   0  0  0  0  0  0  0  0  0  0  0  0
   -8.5786   22.9265  -32.9986 H   0  0  0  0  0  0  0  0  0  0  0  0
   -6.9590   24.1660  -32.2630 C   0  0  0  0  0  0  0  0  0  0  0  0
   -7.3940   25.0942  -32.6622 H   0  0  0  0  0  0  0  0  0  0  0  0
   -5.7430   24.2110  -31.5710 C   0  0  0  0  0  0  0  0  0  0  0  0
   -5.0940   25.4420  -31.4620 O   0  0  0  0  0  0  0  0  0  0  0  0
   -4.0980   25.5570  -31.5920 H   0  0  0  0  0  0  0  0  0  0  0  0
   -3.5410   21.8760  -29.5440 C   0  0  0  0  0  0  0  0  0  0  0  0
   -4.1328   20.9513  -29.6127 H   0  0  0  0  0  0  0  0  0  0  0  0
   -2.3720   21.9030  -28.7710 C   0  0  0  0  0  0  0  0  0  0  0  0
   -1.9500   20.6610  -28.0770 C   0  0  0  0  0  0  0  0  0  0  0  0
   -0.7120   20.0690  -28.3780 C   0  0  0  0  0  0  0  0  0  0  0  0
   -0.0594   20.5217  -29.1390 H   0  0  0  0  0  0  0  0  0  0  0  0
   -0.3060   18.9090  -27.7160 C   0  0  0  0  0  0  0  0  0  0  0  0
    0.6627   18.4487  -27.9605 H   0  0  0  0  0  0  0  0  0  0  0  0
   -1.1260   18.3310  -26.7440 C   0  0  0  0  0  0  0  0  0  0  0  0
   -0.8034   17.4142  -26.2289 H   0  0  0  0  0  0  0  0  0  0  0  0
   -2.3590   18.9160  -26.4230 C   0  0  0  0  0  0  0  0  0  0  0  0
   -3.1940   18.3300  -25.4220 N   0  0  0  0  0  0  0  0  0  0  0  0
   -2.8380   17.5630  -24.8100 H   0  0  0  0  0  0  0  0  0  0  0  0
   -4.1760   18.6600  -25.2840 H   0  0  0  0  0  0  0  0  0  0  0  0
   -2.7660   20.0830  -27.0870 C   0  0  0  0  0  0  0  0  0  0  0  0
   -3.7292   20.5491  -26.8320 H   0  0  0  0  0  0  0  0  0  0  0  0
   -1.6360   23.1060  -28.6720 C   0  0  0  0  0  0  0  0  0  0  0  0
   -0.4620   23.1790  -27.8270 C   0  0  0  0  0  0  0  0  0  0  0  0
    0.4750   23.2360  -27.1510 N   0  0  0  0  0  0  0  0  0  0  0  0
  1  2  1  0
  2  3  2  0
  3  4  1  0
  4  5  1  0
  5  6  1  0
  6  7  2  0
  7  8  1  0
  7  9  1  0
  9 10  1  0
  9 11  2  0
 11 12  1  0
 11 13  1  0
 13 14  1  0
 13 15  2  0
 15 16  1  0
 16 17  1  0
  5 18  2  0
 18 19  1  0
 18 20  1  0
 20 21  1  0
 21 22  2  0
 22 23  1  0
 22 24  1  0
 24 25  1  0
 24 26  2  0
 26 27  1  0
 26 28  1  0
 28 29  1  0
 29 30  1  0
 29 31  1  0
 28 32  2  0
 32 33  1  0
 20 34  2  0
 34 35  1  0
 35 36  3  0
 34  3  1  0
 15  6  1  0
 32 21  1  0
M  CHG  1   4  -1
M  END
>  <UniqueID>  (41) 
38

>  <SMILES>  (41) 
[H]/N=c1/[n-]c(-c2ccccc2O)cc(-c2cccc(N)c2)c1C#N

>  <Energy>  (41) 
54.789182802919875

>  <Genealogy>  (41) 
N#Cc1c(-c2cccc(N)c2)cc(-c2ccccc2O)[n-]c1=N (protonated)
[H]/N=c1/[n-]c(-c2ccccc2O)cc(-c2cccc(N)c2)c1C#N (cis-trans isomerization)
[H]/N=c1/[n-]c(-c2ccccc2O)cc(-c2cccc(N)c2)c1C#N (3D coordinates assigned)
[H]/N=c1/[n-]c(-c2ccccc2O)cc(-c2cccc(N)c2)c1C#N (optimized conformer: 54.789182802919875 kcal/mol)

>  <smiles>  (41) 
N#Cc1c(-c2cccc(N)c2)cc(-c2ccccc2O)[nH]c1=N

>  <score_type>  (41) 
oracle

>  <origin>  (41) 
adgpu

>  <m_score__min__energy>  (41) 
-9.8800000000000008

>  <m_primary>  (41) 
energy

$$$$
41:0
     RDKit          3D

 52 55  0  0  0  0  0  0  0  0999 V2000
   -1.2760   21.8810  -30.7760 C   0  0  0  0  0  0  0  0  0  0  0  0
   -1.6230   23.2230  -30.4490 O   0  0  0  0  0  0  0  0  0  0  0  0
   -2.4220   23.5990  -29.3570 C   0  0  0  0  0  0  0  0  0  0  0  0
   -1.9920   23.4090  -28.0280 C   0  0  0  0  0  0  0  0  0  0  0  0
   -2.8300   23.7360  -26.9590 C   0  0  0  0  0  0  0  0  0  0  0  0
   -4.1050   24.2480  -27.2010 C   0  0  0  0  0  0  0  0  0  0  0  0
   -4.5390   24.4510  -28.5120 C   0  0  0  0  0  0  0  0  0  0  0  0
   -3.6970   24.1580  -29.5940 C   0  0  0  0  0  0  0  0  0  0  0  0
   -4.1870   24.4070  -30.9220 N   0  0  0  0  0  0  0  0  0  0  0  0
   -5.3840   23.8730  -31.5030 C   0  0  0  0  0  0  0  0  0  0  0  0
   -6.4250   24.5840  -31.4980 O   0  0  0  0  0  0  0  0  0  0  0  0
   -5.4240   22.5350  -32.1400 C   0  0  0  0  0  0  0  0  0  0  0  0
   -4.2290   21.9100  -32.5370 C   0  0  0  0  0  0  0  0  0  0  0  0
   -4.2580   20.6600  -33.1610 C   0  0  0  0  0  0  0  0  0  0  0  0
   -5.4780   20.0160  -33.3930 C   0  0  0  0  0  0  0  0  0  0  0  0
   -5.5030   18.4350  -34.1700 S   0  0  0  0  0  0  0  0  0  0  0  0
   -5.7300   18.6080  -35.6460 O   0  0  0  0  0  0  0  0  0  0  0  0
   -4.1650   17.7780  -33.9670 O   0  0  0  0  0  0  0  0  0  0  0  0
   -6.7680   17.4560  -33.4510 N   0  0  2  0  0  0  0  0  0  0  0  0
   -6.6160   17.3190  -31.9890 C   0  0  0  0  0  0  0  0  0  0  0  0
   -5.3590   16.5290  -31.5930 C   0  0  0  0  0  0  0  0  0  0  0  0
   -5.1430   15.3160  -32.4560 C   0  0  0  0  0  0  0  0  0  0  0  0
   -4.1860   14.3640  -32.0710 C   0  0  0  0  0  0  0  0  0  0  0  0
   -3.9180   13.2610  -32.8860 C   0  0  0  0  0  0  0  0  0  0  0  0
   -4.5980   13.1020  -34.0940 C   0  0  0  0  0  0  0  0  0  0  0  0
   -5.5450   14.0480  -34.4930 C   0  0  0  0  0  0  0  0  0  0  0  0
   -5.8120   15.1690  -33.6900 C   0  0  0  0  0  0  0  0  0  0  0  0
   -6.8860   16.1420  -34.1130 C   0  0  0  0  0  0  0  0  0  0  0  0
   -6.6710   20.6210  -32.9750 C   0  0  0  0  0  0  0  0  0  0  0  0
   -6.6440   21.8700  -32.3500 C   0  0  0  0  0  0  0  0  0  0  0  0
   -1.1271   21.3050  -29.8508 H   0  0  0  0  0  0  0  0  0  0  0  0
   -2.0860   21.4259  -31.3649 H   0  0  0  0  0  0  0  0  0  0  0  0
   -0.3469   21.8756  -31.3649 H   0  0  0  0  0  0  0  0  0  0  0  0
   -0.9898   23.0005  -27.8313 H   0  0  0  0  0  0  0  0  0  0  0  0
   -2.4840   23.5896  -25.9251 H   0  0  0  0  0  0  0  0  0  0  0  0
   -4.7686   24.4918  -26.3583 H   0  0  0  0  0  0  0  0  0  0  0  0
   -5.5495   24.8439  -28.6977 H   0  0  0  0  0  0  0  0  0  0  0  0
   -3.2652   22.4080  -32.3553 H   0  0  0  0  0  0  0  0  0  0  0  0
   -3.3178   20.1805  -33.4710 H   0  0  0  0  0  0  0  0  0  0  0  0
   -7.6640   17.9710  -33.6190 H   0  0  0  0  0  0  0  0  0  0  0  0
   -6.5535   18.3241  -31.5463 H   0  0  0  0  0  0  0  0  0  0  0  0
   -7.4884   16.7625  -31.6158 H   0  0  0  0  0  0  0  0  0  0  0  0
   -4.4839   17.1888  -31.6871 H   0  0  0  0  0  0  0  0  0  0  0  0
   -5.4956   16.1819  -30.5582 H   0  0  0  0  0  0  0  0  0  0  0  0
   -3.6437   14.4870  -31.1219 H   0  0  0  0  0  0  0  0  0  0  0  0
   -3.1699   12.5170  -32.5748 H   0  0  0  0  0  0  0  0  0  0  0  0
   -4.3882   12.2312  -34.7324 H   0  0  0  0  0  0  0  0  0  0  0  0
   -6.0850   13.9143  -35.4419 H   0  0  0  0  0  0  0  0  0  0  0  0
   -6.8159   16.2901  -35.2007 H   0  0  0  0  0  0  0  0  0  0  0  0
   -7.8543   15.7113  -33.8184 H   0  0  0  0  0  0  0  0  0  0  0  0
   -7.6315   20.1108  -33.1396 H   0  0  0  0  0  0  0  0  0  0  0  0
   -7.5841   22.3361  -32.0200 H   0  0  0  0  0  0  0  0  0  0  0  0
  1  2  1  0
  2  3  1  0
  3  4  2  0
  4  5  1  0
  5  6  2  0
  6  7  1  0
  7  8  2  0
  8  9  1  0
  9 10  1  0
 10 11  2  0
 10 12  1  0
 12 13  2  0
 13 14  1  0
 14 15  2  0
 15 16  1  0
 16 17  2  0
 16 18  2  0
 16 19  1  0
 19 20  1  0
 20 21  1  0
 21 22  1  0
 22 23  2  0
 23 24  1  0
 24 25  2  0
 25 26  1  0
 26 27  2  0
 27 28  1  0
 15 29  1  0
 29 30  2  0
  8  3  1  0
 30 12  1  0
 28 19  1  0
 27 22  1  0
  1 31  1  0
  1 32  1  0
  1 33  1  0
  4 34  1  0
  5 35  1  0
  6 36  1  0
  7 37  1  0
 13 38  1  0
 14 39  1  0
 19 40  1  1
 20 41  1  0
 20 42  1  0
 21 43  1  0
 21 44  1  0
 23 45  1  0
 24 46  1  0
 25 47  1  0
 26 48  1  0
 28 49  1  0
 28 50  1  0
 29 51  1  0
 30 52  1  0
M  CHG  2   9  -1  19   1
M  END
>  <UniqueID>  (42) 
39

>  <SMILES>  (42) 
COc1ccccc1[N-]C(=O)c1ccc(S(=O)(=O)[N@@H+]2CCc3ccccc3C2)cc1

>  <Energy>  (42) 
66.82170635934109

>  <Genealogy>  (42) 
COc1ccccc1[N-]C(=O)c1ccc(S(=O)(=O)[NH+]2CCc3ccccc3C2)cc1 (protonated)
COc1ccccc1[N-]C(=O)c1ccc(S(=O)(=O)[N@@H+]2CCc3ccccc3C2)cc1 (chirality)
COc1ccccc1[N-]C(=O)c1ccc(S(=O)(=O)[N@@H+]2CCc3ccccc3C2)cc1 (3D coordinates assigned)
COc1ccccc1[N-]C(=O)c1ccc(S(=O)(=O)[N@@H+]2CCc3ccccc3C2)cc1 (nonaromatic ring conformer: 66.82170635934109 kcal/mol)

>  <smiles>  (42) 
COc1ccccc1NC(=O)c1ccc(S(=O)(=O)N2CCc3ccccc3C2)cc1

>  <score_type>  (42) 
oracle

>  <origin>  (42) 
adgpu

>  <m_score__min__energy>  (42) 
-11.82

>  <m_primary>  (42) 
energy

$$$$
42:0
     RDKit          3D

 55 57  0  0  0  0  0  0  0  0999 V2000
   -9.8520   21.9140  -30.9560 C   0  0  0  0  0  0  0  0  0  0  0  0
   -8.5530   21.4050  -30.6750 O   0  0  0  0  0  0  0  0  0  0  0  0
   -7.7800   20.6380  -31.5620 C   0  0  0  0  0  0  0  0  0  0  0  0
   -8.0500   19.2710  -31.7680 C   0  0  0  0  0  0  0  0  0  0  0  0
   -7.2610   18.5130  -32.6310 C   0  0  0  0  0  0  0  0  0  0  0  0
   -6.2010   19.1050  -33.3290 C   0  0  0  0  0  0  0  0  0  0  0  0
   -5.3630   18.2900  -34.2460 C   0  0  0  0  0  0  0  0  0  0  0  0
   -4.1730   17.6620  -33.7550 N   0  0  0  0  0  0  0  0  0  0  0  0
   -5.6930   18.1510  -35.4950 N   0  0  0  0  0  0  0  0  0  0  0  0
   -5.9460   20.4740  -33.1500 C   0  0  0  0  0  0  0  0  0  0  0  0
   -6.7040   21.2410  -32.2510 C   0  0  0  0  0  0  0  0  0  0  0  0
   -6.2880   22.9570  -32.0360 S   0  0  0  0  0  0  0  0  0  0  0  0
   -7.0290   23.8010  -33.0350 O   0  0  0  0  0  0  0  0  0  0  0  0
   -4.8180   23.1050  -32.3200 O   0  0  0  0  0  0  0  0  0  0  0  0
   -6.6660   23.5820  -30.4330 N   0  0  2  0  0  0  0  0  0  0  0  0
   -6.4560   25.0360  -30.3850 C   0  0  0  0  0  0  0  0  0  0  0  0
   -5.8960   22.9200  -29.3560 C   0  0  0  0  0  0  0  0  0  0  0  0
   -4.4010   23.0740  -29.5190 C   0  0  0  0  0  0  0  0  0  0  0  0
   -3.6220   22.0160  -30.0150 C   0  0  0  0  0  0  0  0  0  0  0  0
   -2.2410   22.1660  -30.1560 C   0  0  0  0  0  0  0  0  0  0  0  0
   -1.6240   23.3660  -29.7950 C   0  0  0  0  0  0  0  0  0  0  0  0
   -2.3780   24.4230  -29.2730 C   0  0  0  0  0  0  0  0  0  0  0  0
   -1.7210   25.6240  -28.9610 O   0  0  0  0  0  0  0  0  0  0  0  0
   -1.3660   26.0490  -27.6730 C   0  0  0  0  0  0  0  0  0  0  0  0
   -0.4690   27.1120  -27.4620 C   0  0  0  0  0  0  0  0  0  0  0  0
   -0.1240   27.4940  -26.1620 C   0  0  0  0  0  0  0  0  0  0  0  0
   -0.6860   26.8340  -25.0660 C   0  0  0  0  0  0  0  0  0  0  0  0
   -1.6050   25.7990  -25.2690 C   0  0  0  0  0  0  0  0  0  0  0  0
   -1.9520   25.4160  -26.5680 C   0  0  0  0  0  0  0  0  0  0  0  0
   -3.7700   24.2670  -29.1340 C   0  0  0  0  0  0  0  0  0  0  0  0
  -10.3773   22.1198  -30.0117 H   0  0  0  0  0  0  0  0  0  0  0  0
   -9.7637   22.8440  -31.5367 H   0  0  0  0  0  0  0  0  0  0  0  0
  -10.4190   21.1715  -31.5367 H   0  0  0  0  0  0  0  0  0  0  0  0
   -8.8921   18.7971  -31.2424 H   0  0  0  0  0  0  0  0  0  0  0  0
   -7.4723   17.4418  -32.7650 H   0  0  0  0  0  0  0  0  0  0  0  0
   -3.9300   17.6860  -32.7400 H   0  0  0  0  0  0  0  0  0  0  0  0
   -3.5500   17.1240  -34.3990 H   0  0  0  0  0  0  0  0  0  0  0  0
   -6.5320   18.6260  -35.8980 H   0  0  0  0  0  0  0  0  0  0  0  0
   -5.1070   17.5770  -36.1410 H   0  0  0  0  0  0  0  0  0  0  0  0
   -5.1391   20.9535  -33.7235 H   0  0  0  0  0  0  0  0  0  0  0  0
   -7.6870   23.4190  -30.2660 H   0  0  0  0  0  0  0  0  0  0  0  0
   -6.4085   25.3652  -29.3365 H   0  0  0  0  0  0  0  0  0  0  0  0
   -5.5123   25.2871  -30.8913 H   0  0  0  0  0  0  0  0  0  0  0  0
   -7.2901   25.5439  -30.8913 H   0  0  0  0  0  0  0  0  0  0  0  0
   -6.1909   23.3609  -28.3923 H   0  0  0  0  0  0  0  0  0  0  0  0
   -6.1232   21.8447  -29.4020 H   0  0  0  0  0  0  0  0  0  0  0  0
   -4.1014   21.0659  -30.2934 H   0  0  0  0  0  0  0  0  0  0  0  0
   -1.6371   21.3366  -30.5526 H   0  0  0  0  0  0  0  0  0  0  0  0
   -0.5374   23.4810  -29.9220 H   0  0  0  0  0  0  0  0  0  0  0  0
   -0.0377   27.6444  -28.3225 H   0  0  0  0  0  0  0  0  0  0  0  0
    0.5905   28.3149  -26.0019 H   0  0  0  0  0  0  0  0  0  0  0  0
   -0.4058   27.1282  -24.0438 H   0  0  0  0  0  0  0  0  0  0  0  0
   -2.0549   25.2862  -24.4060 H   0  0  0  0  0  0  0  0  0  0  0  0
   -2.6885   24.6140  -26.7238 H   0  0  0  0  0  0  0  0  0  0  0  0
   -4.3703   25.0899  -28.7187 H   0  0  0  0  0  0  0  0  0  0  0  0
  1  2  1  0
  2  3  1  0
  3  4  2  0
  4  5  1  0
  5  6  2  0
  6  7  1  0
  7  8  1  0
  7  9  2  0
  6 10  1  0
 10 11  2  0
 11 12  1  0
 12 13  2  0
 12 14  2  0
 12 15  1  0
 15 16  1  0
 15 17  1  0
 17 18  1  0
 18 19  2  0
 19 20  1  0
 20 21  2  0
 21 22  1  0
 22 23  1  0
 23 24  1  0
 24 25  2  0
 25 26  1  0
 26 27  2  0
 27 28  1  0
 28 29  2  0
 22 30  2  0
 11  3  1  0
 30 18  1  0
 29 24  1  0
  1 31  1  0
  1 32  1  0
  1 33  1  0
  4 34  1  0
  5 35  1  0
  8 36  1  0
  8 37  1  0
  9 38  1  0
  9 39  1  0
 10 40  1  0
 15 41  1  1
 16 42  1  0
 16 43  1  0
 16 44  1  0
 17 45  1  0
 17 46  1  0
 19 47  1  0
 20 48  1  0
 21 49  1  0
 25 50  1  0
 26 51  1  0
 27 52  1  0
 28 53  1  0
 29 54  1  0
 30 55  1  0
M  CHG  2   9   1  15   1
M  END
>  <UniqueID>  (43) 
40

>  <SMILES>  (43) 
COc1ccc(C(N)=[NH2+])cc1S(=O)(=O)[N@H+](C)Cc1cccc(Oc2ccccc2)c1

>  <Energy>  (43) 
62.639386326367685

>  <Genealogy>  (43) 
COc1ccc(C(N)=[NH2+])cc1S(=O)(=O)[NH+](C)Cc1cccc(Oc2ccccc2)c1 (protonated)
COc1ccc(C(N)=[NH2+])cc1S(=O)(=O)[N@H+](C)Cc1cccc(Oc2ccccc2)c1 (chirality)
COc1ccc(C(N)=[NH2+])cc1S(=O)(=O)[N@H+](C)Cc1cccc(Oc2ccccc2)c1 (3D coordinates assigned)
COc1ccc(C(N)=[NH2+])cc1S(=O)(=O)[N@H+](C)Cc1cccc(Oc2ccccc2)c1 (optimized conformer: 62.639386326367685 kcal/mol)

>  <smiles>  (43) 
COc1ccc(C(=N)N)cc1S(=O)(=O)N(C)Cc1cccc(Oc2ccccc2)c1

>  <score_type>  (43) 
oracle

>  <origin>  (43) 
adgpu

>  <m_score__min__energy>  (43) 
-9.7799999999999994

>  <m_primary>  (43) 
energy

$$$$
43:0
     RDKit          3D

 37 39  0  0  0  0  0  0  0  0999 V2000
   -2.7320   19.1040  -26.3550 C   0  0  0  0  0  0  0  0  0  0  0  0
   -1.4340   19.7060  -26.8830 C   0  0  0  0  0  0  0  0  0  0  0  0
   -1.4130   21.1200  -26.6830 O   0  0  0  0  0  0  0  0  0  0  0  0
   -1.8760   22.0810  -27.5960 C   0  0  0  0  0  0  0  0  0  0  0  0
   -3.2360   22.4150  -27.5690 C   0  0  0  0  0  0  0  0  0  0  0  0
   -3.7540   23.3600  -28.4580 C   0  0  0  0  0  0  0  0  0  0  0  0
   -2.9240   23.9780  -29.3980 C   0  0  0  0  0  0  0  0  0  0  0  0
   -3.4890   24.9490  -30.2920 N   0  0  0  0  0  0  0  0  0  0  0  0
   -4.8240   24.9410  -30.8170 C   0  0  0  0  0  0  0  0  0  0  0  0
   -5.4670   26.0240  -30.8450 O   0  0  0  0  0  0  0  0  0  0  0  0
   -5.4770   23.6990  -31.2920 C   0  0  0  0  0  0  0  0  0  0  0  0
   -6.8620   23.5420  -31.1420 C   0  0  0  0  0  0  0  0  0  0  0  0
   -7.4840   22.3810  -31.6070 C   0  0  0  0  0  0  0  0  0  0  0  0
   -8.8690   22.1940  -31.4930 C   0  0  0  0  0  0  0  0  0  0  0  0
   -9.4550   21.0200  -31.9750 C   0  0  0  0  0  0  0  0  0  0  0  0
   -8.6650   20.0300  -32.5680 C   0  0  0  0  0  0  0  0  0  0  0  0
   -7.2820   20.2100  -32.6830 C   0  0  0  0  0  0  0  0  0  0  0  0
   -6.6870   21.3830  -32.2040 C   0  0  0  0  0  0  0  0  0  0  0  0
   -5.3720   21.5500  -32.3100 O   0  0  0  0  0  0  0  0  0  0  0  0
   -4.7480   22.6440  -31.8800 C   0  0  0  0  0  0  0  0  0  0  0  0
   -3.4950   22.7110  -31.9900 O   0  0  0  0  0  0  0  0  0  0  0  0
   -1.5520   23.6700  -29.4100 C   0  0  0  0  0  0  0  0  0  0  0  0
   -1.0330   22.7250  -28.5220 C   0  0  0  0  0  0  0  0  0  0  0  0
   -2.7183   19.1103  -25.2551 H   0  0  0  0  0  0  0  0  0  0  0  0
   -3.5848   19.6985  -26.7145 H   0  0  0  0  0  0  0  0  0  0  0  0
   -2.8290   18.0690  -26.7145 H   0  0  0  0  0  0  0  0  0  0  0  0
   -0.5840   19.2538  -26.3510 H   0  0  0  0  0  0  0  0  0  0  0  0
   -1.3632   19.5012  -27.9614 H   0  0  0  0  0  0  0  0  0  0  0  0
   -3.9023   21.9288  -26.8412 H   0  0  0  0  0  0  0  0  0  0  0  0
   -4.8222   23.6196  -28.4181 H   0  0  0  0  0  0  0  0  0  0  0  0
   -7.4573   24.3311  -30.6594 H   0  0  0  0  0  0  0  0  0  0  0  0
   -9.4931   22.9696  -31.0252 H   0  0  0  0  0  0  0  0  0  0  0  0
  -10.5418   20.8743  -31.8875 H   0  0  0  0  0  0  0  0  0  0  0  0
   -9.1317   19.1079  -32.9448 H   0  0  0  0  0  0  0  0  0  0  0  0
   -6.6626   19.4299  -33.1497 H   0  0  0  0  0  0  0  0  0  0  0  0
   -0.8839   24.1760  -30.1225 H   0  0  0  0  0  0  0  0  0  0  0  0
    0.0397   22.4826  -28.5462 H   0  0  0  0  0  0  0  0  0  0  0  0
  1  2  1  0
  2  3  1  0
  3  4  1  0
  4  5  2  0
  5  6  1  0
  6  7  2  0
  7  8  1  0
  8  9  1  0
  9 10  2  0
  9 11  1  0
 11 12  2  0
 12 13  1  0
 13 14  2  0
 14 15  1  0
 15 16  2  0
 16 17  1  0
 17 18  2  0
 18 19  1  0
 19 20  1  0
 20 21  2  0
  7 22  1  0
 22 23  2  0
 23  4  1  0
 20 11  1  0
 18 13  1  0
  1 24  1  0
  1 25  1  0
  1 26  1  0
  2 27  1  0
  2 28  1  0
  5 29  1  0
  6 30  1  0
 12 31  1  0
 14 32  1  0
 15 33  1  0
 16 34  1  0
 17 35  1  0
 22 36  1  0
 23 37  1  0
M  CHG  1   8  -1
M  END
>  <UniqueID>  (44) 
41

>  <SMILES>  (44) 
CCOc1ccc([N-]C(=O)c2cc3ccccc3oc2=O)cc1

>  <Energy>  (44) 
50.114112902818256

>  <Genealogy>  (44) 
CCOc1ccc([N-]C(=O)c2cc3ccccc3oc2=O)cc1 (protonated)
CCOc1ccc([N-]C(=O)c2cc3ccccc3oc2=O)cc1 (3D coordinates assigned)
CCOc1ccc([N-]C(=O)c2cc3ccccc3oc2=O)cc1 (optimized conformer: 50.114112902818256 kcal/mol)

>  <smiles>  (44) 
CCOc1ccc(NC(=O)c2cc3ccccc3oc2=O)cc1

>  <score_type>  (44) 
oracle

>  <origin>  (44) 
adgpu

>  <m_score__min__energy>  (44) 
-9.7100000000000009

>  <m_primary>  (44) 
energy

$$$$
44:0
     RDKit          3D

 50 53  0  0  0  0  0  0  0  0999 V2000
   -9.1640   20.1750  -32.1240 C   0  0  0  0  0  0  0  0  0  0  0  0
   -9.0840   21.4070  -31.4140 O   0  0  0  0  0  0  0  0  0  0  0  0
   -7.9120   22.1620  -31.2630 C   0  0  0  0  0  0  0  0  0  0  0  0
   -7.1650   22.6240  -32.3650 C   0  0  0  0  0  0  0  0  0  0  0  0
   -6.0000   23.3710  -32.1630 C   0  0  0  0  0  0  0  0  0  0  0  0
   -5.5570   23.6600  -30.8620 C   0  0  0  0  0  0  0  0  0  0  0  0
   -4.3140   24.4380  -30.6580 C   0  0  0  0  0  0  0  0  0  0  0  0
   -4.3330   25.6860  -30.8340 O   0  0  0  0  0  0  0  0  0  0  0  0
   -3.0480   23.7970  -30.2440 C   0  0  0  0  0  0  0  0  0  0  0  0
   -2.0640   24.3810  -29.4710 C   0  0  0  0  0  0  0  0  0  0  0  0
   -2.0690   25.6750  -28.9670 O   0  0  0  0  0  0  0  0  0  0  0  0
   -1.0790   23.4420  -29.2800 C   0  0  0  0  0  0  0  0  0  0  0  0
    0.0970   23.6630  -28.5650 O   0  0  0  0  0  0  0  0  0  0  0  0
   -1.4040   22.2910  -29.9070 N   0  0  0  0  0  0  0  0  0  0  0  0
   -0.6110   21.0930  -29.9530 C   0  0  0  0  0  0  0  0  0  0  0  0
   -0.5300   20.2570  -28.8310 C   0  0  0  0  0  0  0  0  0  0  0  0
    0.2240   19.0810  -28.8810 C   0  0  0  0  0  0  0  0  0  0  0  0
    0.9070   18.7290  -30.0560 C   0  0  0  0  0  0  0  0  0  0  0  0
    1.7030   17.4600  -30.1290 C   0  0  0  0  0  0  0  0  0  0  0  0
    0.8160   19.5600  -31.1820 C   0  0  0  0  0  0  0  0  0  0  0  0
    0.0620   20.7360  -31.1320 C   0  0  0  0  0  0  0  0  0  0  0  0
   -2.6010   22.5000  -30.5130 C   0  0  0  0  0  0  0  0  0  0  0  0
   -3.3070   21.4880  -31.3330 C   0  0  0  0  0  0  0  0  0  0  0  0
   -4.3690   20.7580  -30.7730 C   0  0  0  0  0  0  0  0  0  0  0  0
   -5.0650   19.8220  -31.5420 C   0  0  0  0  0  0  0  0  0  0  0  0
   -4.7090   19.6060  -32.8740 C   0  0  0  0  0  0  0  0  0  0  0  0
   -3.6460   20.3160  -33.4370 C   0  0  0  0  0  0  0  0  0  0  0  0
   -2.9380   21.2500  -32.6710 C   0  0  0  0  0  0  0  0  0  0  0  0
   -1.8620   21.9200  -33.2410 O   0  0  0  0  0  0  0  0  0  0  0  0
   -6.3160   23.2140  -29.7660 C   0  0  0  0  0  0  0  0  0  0  0  0
   -7.4780   22.4660  -29.9680 C   0  0  0  0  0  0  0  0  0  0  0  0
   -9.2181   19.3419  -31.4078 H   0  0  0  0  0  0  0  0  0  0  0  0
  -10.0641   20.1740  -32.7563 H   0  0  0  0  0  0  0  0  0  0  0  0
   -8.2716   20.0576  -32.7563 H   0  0  0  0  0  0  0  0  0  0  0  0
   -7.4994   22.3963  -33.3879 H   0  0  0  0  0  0  0  0  0  0  0  0
   -5.4270   23.7345  -33.0287 H   0  0  0  0  0  0  0  0  0  0  0  0
    0.2780   24.5400  -28.0960 H   0  0  0  0  0  0  0  0  0  0  0  0
   -1.0621   20.5275  -27.9070 H   0  0  0  0  0  0  0  0  0  0  0  0
    0.2824   18.4292  -27.9968 H   0  0  0  0  0  0  0  0  0  0  0  0
    1.9244   17.1070  -29.1110 H   0  0  0  0  0  0  0  0  0  0  0  0
    1.1233   16.6939  -30.6648 H   0  0  0  0  0  0  0  0  0  0  0  0
    2.6450   17.6484  -30.6648 H   0  0  0  0  0  0  0  0  0  0  0  0
    1.3405   19.2851  -32.1090 H   0  0  0  0  0  0  0  0  0  0  0  0
   -0.0041   21.3834  -32.0189 H   0  0  0  0  0  0  0  0  0  0  0  0
   -4.6539   20.9243  -29.7236 H   0  0  0  0  0  0  0  0  0  0  0  0
   -5.8952   19.2542  -31.0967 H   0  0  0  0  0  0  0  0  0  0  0  0
   -5.2656   18.8765  -33.4806 H   0  0  0  0  0  0  0  0  0  0  0  0
   -3.3641   20.1408  -34.4857 H   0  0  0  0  0  0  0  0  0  0  0  0
   -5.9926   23.4557  -28.7428 H   0  0  0  0  0  0  0  0  0  0  0  0
   -8.0568   22.1129  -29.1018 H   0  0  0  0  0  0  0  0  0  0  0  0
  1  2  1  0
  2  3  1  0
  3  4  2  0
  4  5  1  0
  5  6  2  0
  6  7  1  0
  7  8  2  0
  7  9  1  0
  9 10  1  0
 10 11  1  0
 10 12  2  0
 12 13  1  0
 12 14  1  0
 14 15  1  0
 15 16  2  0
 16 17  1  0
 17 18  2  0
 18 19  1  0
 18 20  1  0
 20 21  2  0
 14 22  1  0
 22 23  1  0
 23 24  2  0
 24 25  1  0
 25 26  2  0
 26 27  1  0
 27 28  2  0
 28 29  1  0
  6 30  1  0
 30 31  2  0
 31  3  1  0
 22  9  2  0
 28 23  1  0
 21 15  1  0
  1 32  1  0
  1 33  1  0
  1 34  1  0
  4 35  1  0
  5 36  1  0
 13 37  1  0
 16 38  1  0
 17 39  1  0
 19 40  1  0
 19 41  1  0
 19 42  1  0
 20 43  1  0
 21 44  1  0
 24 45  1  0
 25 46  1  0
 26 47  1  0
 27 48  1  0
 30 49  1  0
 31 50  1  0
M  CHG  2  11  -1  29  -1
M  END
>  <UniqueID>  (45) 
42

>  <SMILES>  (45) 
COc1ccc(C(=O)c2c([O-])c(O)n(-c3ccc(C)cc3)c2-c2ccccc2[O-])cc1

>  <Energy>  (45) 
97.5736454835417

>  <Genealogy>  (45) 
COc1ccc(C(=O)c2c([O-])c(O)n(-c3ccc(C)cc3)c2-c2ccccc2[O-])cc1 (protonated)
COc1ccc(C(=O)c2c([O-])c(O)n(-c3ccc(C)cc3)c2-c2ccccc2[O-])cc1 (3D coordinates assigned)
COc1ccc(C(=O)c2c([O-])c(O)n(-c3ccc(C)cc3)c2-c2ccccc2[O-])cc1 (optimized conformer: 97.5736454835417 kcal/mol)

>  <smiles>  (45) 
COc1ccc(C(=O)c2c(O)c(O)n(-c3ccc(C)cc3)c2-c2ccccc2O)cc1

>  <score_type>  (45) 
oracle

>  <origin>  (45) 
adgpu

>  <m_score__min__energy>  (45) 
-11.859999999999999

>  <m_primary>  (45) 
energy

$$$$
45:0
     RDKit          3D

 50 53  0  0  0  0  0  0  0  0999 V2000
   -6.8470   16.5570  -34.2550 C   0  0  0  0  0  0  0  0  0  0  0  0
   -5.8500   17.4320  -33.4790 C   0  0  1  0  0  0  0  0  0  0  0  0
   -5.7480   18.8640  -34.0690 C   0  0  0  0  0  0  0  0  0  0  0  0
   -6.4250   19.9330  -33.1890 C   0  0  0  0  0  0  0  0  0  0  0  0
   -7.6750   19.4130  -32.6070 N   0  0  2  0  0  0  0  0  0  0  0  0
   -8.5500   20.7050  -31.8220 S   0  0  0  0  0  0  0  0  0  0  0  0
   -9.1670   20.2040  -30.5460 O   0  0  0  0  0  0  0  0  0  0  0  0
   -9.6470   21.2090  -32.7200 O   0  0  0  0  0  0  0  0  0  0  0  0
   -7.4350   22.0160  -31.4470 C   0  0  0  0  0  0  0  0  0  0  0  0
   -7.1900   22.3640  -30.1110 C   0  0  0  0  0  0  0  0  0  0  0  0
   -6.2260   23.3300  -29.8020 C   0  0  0  0  0  0  0  0  0  0  0  0
   -5.4790   23.9310  -30.8210 C   0  0  0  0  0  0  0  0  0  0  0  0
   -4.4450   24.8630  -30.4790 N   0  0  0  0  0  0  0  0  0  0  0  0
   -3.1170   24.5030  -30.0770 C   0  0  0  0  0  0  0  0  0  0  0  0
   -2.4670   25.2910  -29.3400 O   0  0  0  0  0  0  0  0  0  0  0  0
   -2.5230   23.2060  -30.4530 C   0  0  0  0  0  0  0  0  0  0  0  0
   -1.5980   22.4880  -29.6970 C   0  0  0  0  0  0  0  0  0  0  0  0
   -1.3410   21.3660  -30.4510 C   0  0  0  0  0  0  0  0  0  0  0  0
   -0.4910   20.2860  -30.2220 C   0  0  0  0  0  0  0  0  0  0  0  0
   -0.4380   19.2770  -31.2030 C   0  0  0  0  0  0  0  0  0  0  0  0
   -1.2250   19.3740  -32.3730 C   0  0  0  0  0  0  0  0  0  0  0  0
   -2.0720   20.4780  -32.5730 C   0  0  0  0  0  0  0  0  0  0  0  0
   -2.1030   21.4590  -31.5850 C   0  0  0  0  0  0  0  0  0  0  0  0
   -2.8090   22.5610  -31.5710 O   0  0  0  0  0  0  0  0  0  0  0  0
   -5.7590   23.6160  -32.1620 C   0  0  0  0  0  0  0  0  0  0  0  0
   -6.7270   22.6580  -32.4710 C   0  0  0  0  0  0  0  0  0  0  0  0
   -7.4340   18.3030  -31.6500 C   0  0  0  0  0  0  0  0  0  0  0  0
   -6.1800   17.4600  -31.9770 C   0  0  0  0  0  0  0  0  0  0  0  0
   -7.4785   16.0028  -33.5450 H   0  0  0  0  0  0  0  0  0  0  0  0
   -7.4805   17.1960  -34.8877 H   0  0  0  0  0  0  0  0  0  0  0  0
   -6.2956   15.8459  -34.8877 H   0  0  0  0  0  0  0  0  0  0  0  0
   -4.8582   16.9701  -33.5928 H   0  0  0  0  0  0  0  0  0  0  0  0
   -6.2291   18.8696  -35.0582 H   0  0  0  0  0  0  0  0  0  0  0  0
   -4.6793   19.1179  -34.1278 H   0  0  0  0  0  0  0  0  0  0  0  0
   -6.6530   20.8158  -33.8043 H   0  0  0  0  0  0  0  0  0  0  0  0
   -5.7403   20.2040  -32.3719 H   0  0  0  0  0  0  0  0  0  0  0  0
   -8.2890   19.0740  -33.3830 H   0  0  0  0  0  0  0  0  0  0  0  0
   -7.7568   21.8766  -29.3041 H   0  0  0  0  0  0  0  0  0  0  0  0
   -6.0549   23.6179  -28.7542 H   0  0  0  0  0  0  0  0  0  0  0  0
   -1.1706   22.7571  -28.7198 H   0  0  0  0  0  0  0  0  0  0  0  0
    0.1171   20.2237  -29.3075 H   0  0  0  0  0  0  0  0  0  0  0  0
    0.2202   18.4077  -31.0577 H   0  0  0  0  0  0  0  0  0  0  0  0
   -1.1744   18.5799  -33.1325 H   0  0  0  0  0  0  0  0  0  0  0  0
   -2.6894   20.5641  -33.4793 H   0  0  0  0  0  0  0  0  0  0  0  0
   -5.2141   24.1256  -32.9703 H   0  0  0  0  0  0  0  0  0  0  0  0
   -6.9341   22.4068  -33.5217 H   0  0  0  0  0  0  0  0  0  0  0  0
   -8.3110   17.6390  -31.6607 H   0  0  0  0  0  0  0  0  0  0  0  0
   -7.2650   18.7604  -30.6640 H   0  0  0  0  0  0  0  0  0  0  0  0
   -6.3526   16.4283  -31.6367 H   0  0  0  0  0  0  0  0  0  0  0  0
   -5.3270   17.9251  -31.4612 H   0  0  0  0  0  0  0  0  0  0  0  0
  1  2  1  0
  2  3  1  0
  3  4  1  0
  4  5  1  0
  5  6  1  0
  6  7  2  0
  6  8  2  0
  6  9  1  0
  9 10  2  0
 10 11  1  0
 11 12  2  0
 12 13  1  0
 13 14  1  0
 14 15  2  0
 14 16  1  0
 16 17  2  0
 17 18  1  0
 18 19  2  0
 19 20  1  0
 20 21  2  0
 21 22  1  0
 22 23  2  0
 23 24  1  0
 12 25  1  0
 25 26  2  0
  5 27  1  0
 27 28  1  0
 28  2  1  0
 26  9  1  0
 24 16  1  0
 23 18  1  0
  1 29  1  0
  1 30  1  0
  1 31  1  0
  2 32  1  1
  3 33  1  0
  3 34  1  0
  4 35  1  0
  4 36  1  0
  5 37  1  6
 10 38  1  0
 11 39  1  0
 17 40  1  0
 19 41  1  0
 20 42  1  0
 21 43  1  0
 22 44  1  0
 25 45  1  0
 26 46  1  0
 27 47  1  0
 27 48  1  0
 28 49  1  0
 28 50  1  0
M  CHG  2   5   1  13  -1
M  END
>  <UniqueID>  (46) 
43

>  <SMILES>  (46) 
CC1CC[NH+](S(=O)(=O)c2ccc([N-]C(=O)c3cc4ccccc4o3)cc2)CC1

>  <Energy>  (46) 
93.6297568066541

>  <Genealogy>  (46) 
CC1CC[NH+](S(=O)(=O)c2ccc([N-]C(=O)c3cc4ccccc4o3)cc2)CC1 (protonated)
CC1CC[NH+](S(=O)(=O)c2ccc([N-]C(=O)c3cc4ccccc4o3)cc2)CC1 (3D coordinates assigned)
CC1CC[NH+](S(=O)(=O)c2ccc([N-]C(=O)c3cc4ccccc4o3)cc2)CC1 (nonaromatic ring conformer: 93.6297568066541 kcal/mol)

>  <smiles>  (46) 
CC1CCN(S(=O)(=O)c2ccc(NC(=O)c3cc4ccccc4o3)cc2)CC1

>  <score_type>  (46) 
oracle

>  <origin>  (46) 
adgpu

>  <m_score__min__energy>  (46) 
-11.380000000000001

>  <m_primary>  (46) 
energy

$$$$
46:0
     RDKit          3D

 46 48  0  0  0  0  0  0  0  0999 V2000
   -1.1110   26.6780  -24.1600 C   0  0  0  0  0  0  0  0  0  0  0  0
   -0.5190   25.2080  -24.9660 S   0  0  0  0  0  0  0  0  0  0  0  0
   -0.6730   24.0320  -24.0420 O   0  0  0  0  0  0  0  0  0  0  0  0
    0.9370   25.3700  -25.3020 O   0  0  0  0  0  0  0  0  0  0  0  0
   -1.4450   24.9360  -26.4380 C   0  0  0  0  0  0  0  0  0  0  0  0
   -0.8010   24.9130  -27.6820 C   0  0  0  0  0  0  0  0  0  0  0  0
   -1.5370   24.7120  -28.8520 C   0  0  0  0  0  0  0  0  0  0  0  0
   -2.9310   24.5460  -28.7970 C   0  0  0  0  0  0  0  0  0  0  0  0
   -3.7180   24.3210  -30.0310 C   0  0  0  0  0  0  0  0  0  0  0  0
   -3.8840   25.2800  -30.8320 O   0  0  0  0  0  0  0  0  0  0  0  0
   -4.3040   23.0400  -30.3340 N   0  0  0  0  0  0  0  0  0  0  0  0
   -5.5940   23.0010  -31.0400 C   0  0  0  0  0  0  0  0  0  0  0  0
   -6.0880   21.5640  -31.2360 C   0  0  0  0  0  0  0  0  0  0  0  0
   -4.9990   20.7280  -31.7430 N   0  0  0  0  0  0  0  0  0  0  0  0
   -5.2850   19.6920  -32.6900 C   0  0  0  0  0  0  0  0  0  0  0  0
   -6.4700   18.9530  -32.5640 C   0  0  0  0  0  0  0  0  0  0  0  0
   -6.7620   17.9300  -33.4690 C   0  0  0  0  0  0  0  0  0  0  0  0
   -5.8720   17.6390  -34.5050 C   0  0  0  0  0  0  0  0  0  0  0  0
   -4.6920   18.3740  -34.6430 C   0  0  0  0  0  0  0  0  0  0  0  0
   -4.3900   19.4060  -33.7420 C   0  0  0  0  0  0  0  0  0  0  0  0
   -3.1860   20.1650  -33.9150 N   0  0  0  0  0  0  0  0  0  0  0  0
   -3.6530   20.8100  -31.1620 C   0  0  0  0  0  0  0  0  0  0  0  0
   -3.6100   21.7910  -29.9850 C   0  0  0  0  0  0  0  0  0  0  0  0
   -3.5720   24.5590  -27.5450 C   0  0  0  0  0  0  0  0  0  0  0  0
   -2.8330   24.7610  -26.3750 C   0  0  0  0  0  0  0  0  0  0  0  0
   -1.0575   26.5450  -23.0694 H   0  0  0  0  0  0  0  0  0  0  0  0
   -0.4878   27.5347  -24.4560 H   0  0  0  0  0  0  0  0  0  0  0  0
   -2.1540   26.8637  -24.4560 H   0  0  0  0  0  0  0  0  0  0  0  0
    0.2885   25.0538  -27.7375 H   0  0  0  0  0  0  0  0  0  0  0  0
   -1.0215   24.6835  -29.8233 H   0  0  0  0  0  0  0  0  0  0  0  0
   -6.3392   23.5574  -30.4525 H   0  0  0  0  0  0  0  0  0  0  0  0
   -5.4563   23.4552  -32.0323 H   0  0  0  0  0  0  0  0  0  0  0  0
   -6.4371   21.1637  -30.2727 H   0  0  0  0  0  0  0  0  0  0  0  0
   -6.9149   21.5610  -31.9614 H   0  0  0  0  0  0  0  0  0  0  0  0
   -7.1728   19.1800  -31.7488 H   0  0  0  0  0  0  0  0  0  0  0  0
   -7.6931   17.3535  -33.3657 H   0  0  0  0  0  0  0  0  0  0  0  0
   -6.1005   16.8294  -35.2138 H   0  0  0  0  0  0  0  0  0  0  0  0
   -3.9959   18.1423  -35.4626 H   0  0  0  0  0  0  0  0  0  0  0  0
   -2.3160   19.9400  -33.3840 H   0  0  0  0  0  0  0  0  0  0  0  0
   -3.1630   20.9830  -34.5640 H   0  0  0  0  0  0  0  0  0  0  0  0
   -3.3551   19.8123  -30.8073 H   0  0  0  0  0  0  0  0  0  0  0  0
   -2.9625   21.1709  -31.9385 H   0  0  0  0  0  0  0  0  0  0  0  0
   -4.1021   21.3339  -29.1139 H   0  0  0  0  0  0  0  0  0  0  0  0
   -2.5603   22.0197  -29.7488 H   0  0  0  0  0  0  0  0  0  0  0  0
   -4.6602   24.4095  -27.4859 H   0  0  0  0  0  0  0  0  0  0  0  0
   -3.3441   24.7825  -25.4012 H   0  0  0  0  0  0  0  0  0  0  0  0
  1  2  1  0
  2  3  2  0
  2  4  2  0
  2  5  1  0
  5  6  2  0
  6  7  1  0
  7  8  2  0
  8  9  1  0
  9 10  2  0
  9 11  1  0
 11 12  1  0
 12 13  1  0
 13 14  1  0
 14 15  1  0
 15 16  2  0
 16 17  1  0
 17 18  2  0
 18 19  1  0
 19 20  2  0
 20 21  1  0
 14 22  1  0
 22 23  1  0
  8 24  1  0
 24 25  2  0
 25  5  1  0
 23 11  1  0
 20 15  1  0
  1 26  1  0
  1 27  1  0
  1 28  1  0
  6 29  1  0
  7 30  1  0
 12 31  1  0
 12 32  1  0
 13 33  1  0
 13 34  1  0
 16 35  1  0
 17 36  1  0
 18 37  1  0
 19 38  1  0
 21 39  1  0
 21 40  1  0
 22 41  1  0
 22 42  1  0
 23 43  1  0
 23 44  1  0
 24 45  1  0
 25 46  1  0
M  END
>  <UniqueID>  (47) 
44

>  <SMILES>  (47) 
CS(=O)(=O)c1ccc(C(=O)N2CCN(c3ccccc3N)CC2)cc1

>  <Energy>  (47) 
54.24662851166296

>  <Genealogy>  (47) 
CS(=O)(=O)c1ccc(C(=O)N2CCN(c3ccccc3N)CC2)cc1 (3D coordinates assigned)
CS(=O)(=O)c1ccc(C(=O)N2CCN(c3ccccc3N)CC2)cc1 (nonaromatic ring conformer: 54.24662851166296 kcal/mol)

>  <smiles>  (47) 
CS(=O)(=O)c1ccc(C(=O)N2CCN(c3ccccc3N)CC2)cc1

>  <score_type>  (47) 
oracle

>  <origin>  (47) 
adgpu

>  <m_score__min__energy>  (47) 
-8.1300000000000008

>  <m_primary>  (47) 
energy

$$$$
47:0
     RDKit          3D

 38 41  0  0  0  0  0  0  0  0999 V2000
   -2.6310   13.9990  -35.9250 O   0  0  0  0  0  0  0  0  0  0  0  0
   -3.1450   15.1240  -35.2910 C   0  0  0  0  0  0  0  0  0  0  0  0
   -2.4340   16.3270  -35.3180 C   0  0  0  0  0  0  0  0  0  0  0  0
   -2.9500   17.4600  -34.6800 C   0  0  0  0  0  0  0  0  0  0  0  0
   -4.1840   17.3990  -34.0080 C   0  0  0  0  0  0  0  0  0  0  0  0
   -4.7310   18.5960  -33.3320 C   0  0  0  0  0  0  0  0  0  0  0  0
   -6.0400   18.7460  -33.0360 N   0  0  0  0  0  0  0  0  0  0  0  0
   -6.1110   19.9510  -32.4410 C   0  0  0  0  0  0  0  0  0  0  0  0
   -7.3920   20.5620  -32.0280 C   0  0  0  0  0  0  0  0  0  0  0  0
   -8.5790   20.3110  -32.7400 C   0  0  0  0  0  0  0  0  0  0  0  0
   -9.7850   20.8830  -32.3240 C   0  0  0  0  0  0  0  0  0  0  0  0
   -9.8210   21.6950  -31.1880 C   0  0  0  0  0  0  0  0  0  0  0  0
   -8.6520   21.9320  -30.4620 C   0  0  0  0  0  0  0  0  0  0  0  0
   -7.4420   21.3630  -30.8740 C   0  0  0  0  0  0  0  0  0  0  0  0
   -4.8380   20.4990  -32.3820 C   0  0  0  0  0  0  0  0  0  0  0  0
   -4.4120   21.7590  -31.7370 C   0  0  0  0  0  0  0  0  0  0  0  0
   -3.2290   21.7880  -30.9800 C   0  0  0  0  0  0  0  0  0  0  0  0
   -2.8230   22.9690  -30.3490 C   0  0  0  0  0  0  0  0  0  0  0  0
   -3.6010   24.1250  -30.4570 C   0  0  0  0  0  0  0  0  0  0  0  0
   -3.1950   25.2970  -29.8320 O   0  0  0  0  0  0  0  0  0  0  0  0
   -4.7910   24.0990  -31.1920 C   0  0  0  0  0  0  0  0  0  0  0  0
   -5.2000   22.9210  -31.8220 C   0  0  0  0  0  0  0  0  0  0  0  0
   -3.9690   19.6440  -32.9510 N   0  0  0  0  0  0  0  0  0  0  0  0
   -4.8900   16.1830  -33.9860 C   0  0  0  0  0  0  0  0  0  0  0  0
   -4.3710   15.0530  -34.6260 C   0  0  0  0  0  0  0  0  0  0  0  0
   -1.4680   16.3829  -35.8413 H   0  0  0  0  0  0  0  0  0  0  0  0
   -2.3870   18.4047  -34.7041 H   0  0  0  0  0  0  0  0  0  0  0  0
   -8.5582   19.6619  -33.6278 H   0  0  0  0  0  0  0  0  0  0  0  0
  -10.7074   20.6932  -32.8925 H   0  0  0  0  0  0  0  0  0  0  0  0
  -10.7702   22.1477  -30.8653 H   0  0  0  0  0  0  0  0  0  0  0  0
   -8.6825   22.5672  -29.5645 H   0  0  0  0  0  0  0  0  0  0  0  0
   -6.5259   21.5433  -30.2924 H   0  0  0  0  0  0  0  0  0  0  0  0
   -2.6189   20.8779  -30.8828 H   0  0  0  0  0  0  0  0  0  0  0  0
   -1.8898   22.9876  -29.7669 H   0  0  0  0  0  0  0  0  0  0  0  0
   -5.4057   25.0075  -31.2740 H   0  0  0  0  0  0  0  0  0  0  0  0
   -6.1433   22.9021  -32.3875 H   0  0  0  0  0  0  0  0  0  0  0  0
   -5.8555   16.1203  -33.4627 H   0  0  0  0  0  0  0  0  0  0  0  0
   -4.9299   14.1058  -34.6055 H   0  0  0  0  0  0  0  0  0  0  0  0
  1  2  1  0
  2  3  2  0
  3  4  1  0
  4  5  2  0
  5  6  1  0
  6  7  2  0
  7  8  1  0
  8  9  1  0
  9 10  2  0
 10 11  1  0
 11 12  2  0
 12 13  1  0
 13 14  2  0
  8 15  2  0
 15 16  1  0
 16 17  2  0
 17 18  1  0
 18 19  2  0
 19 20  1  0
 19 21  1  0
 21 22  2  0
 15 23  1  0
  5 24  1  0
 24 25  2  0
 25  2  1  0
 23  6  1  0
 14  9  1  0
 22 16  1  0
  3 26  1  0
  4 27  1  0
 10 28  1  0
 11 29  1  0
 12 30  1  0
 13 31  1  0
 14 32  1  0
 17 33  1  0
 18 34  1  0
 21 35  1  0
 22 36  1  0
 24 37  1  0
 25 38  1  0
M  CHG  3   1  -1  20  -1  23  -1
M  END
>  <UniqueID>  (48) 
45

>  <SMILES>  (48) 
[O-]c1ccc(-c2nc(-c3ccccc3)c(-c3ccc([O-])cc3)[n-]2)cc1

>  <Energy>  (48) 
79.38181186857912

>  <Genealogy>  (48) 
[O-]c1ccc(-c2nc(-c3ccccc3)c(-c3ccc([O-])cc3)[n-]2)cc1 (protonated)
[O-]c1ccc(-c2nc(-c3ccccc3)c(-c3ccc([O-])cc3)[n-]2)cc1 (3D coordinates assigned)
[O-]c1ccc(-c2nc(-c3ccccc3)c(-c3ccc([O-])cc3)[n-]2)cc1 (optimized conformer: 79.38181186857912 kcal/mol)

>  <smiles>  (48) 
Oc1ccc(-c2nc(-c3ccccc3)c(-c3ccc(O)cc3)[nH]2)cc1

>  <score_type>  (48) 
oracle

>  <origin>  (48) 
adgpu

>  <m_score__min__energy>  (48) 
-10.42

>  <m_primary>  (48) 
energy

$$$$
48:0
     RDKit          3D

 46 47  0  0  0  0  0  0  0  0999 V2000
   -1.6400   25.0250  -27.8310 C   0  0  0  0  0  0  0  0  0  0  0  0
   -2.0460   25.0750  -29.1950 O   0  0  0  0  0  0  0  0  0  0  0  0
   -2.7290   24.0440  -29.8590 C   0  0  0  0  0  0  0  0  0  0  0  0
   -2.2470   22.7220  -29.8830 C   0  0  0  0  0  0  0  0  0  0  0  0
   -2.9520   21.7230  -30.5550 C   0  0  0  0  0  0  0  0  0  0  0  0
   -4.1450   22.0270  -31.2300 C   0  0  0  0  0  0  0  0  0  0  0  0
   -4.9010   21.0090  -31.9100 N   0  0  0  0  0  0  0  0  0  0  0  0
   -4.3830   20.2090  -32.9850 C   0  0  0  0  0  0  0  0  0  0  0  0
   -3.4030   20.6280  -33.6620 O   0  0  0  0  0  0  0  0  0  0  0  0
   -5.0320   18.9300  -33.3570 C   0  0  0  0  0  0  0  0  0  0  0  0
   -4.3080   17.9860  -34.1040 C   0  0  0  0  0  0  0  0  0  0  0  0
   -4.8920   16.7660  -34.4880 C   0  0  0  0  0  0  0  0  0  0  0  0
   -4.1930   15.8100  -35.2440 O   0  0  0  0  0  0  0  0  0  0  0  0
   -2.7860   15.6020  -35.1810 C   0  0  0  0  0  0  0  0  0  0  0  0
   -6.2110   16.4820  -34.1160 C   0  0  0  0  0  0  0  0  0  0  0  0
   -6.7660   15.2570  -34.5210 O   0  0  0  0  0  0  0  0  0  0  0  0
   -6.2140   13.9790  -34.2200 C   0  0  0  0  0  0  0  0  0  0  0  0
   -6.9360   17.4160  -33.3530 C   0  0  0  0  0  0  0  0  0  0  0  0
   -6.3530   18.6350  -32.9600 C   0  0  0  0  0  0  0  0  0  0  0  0
   -7.0490   19.5560  -32.1580 O   0  0  0  0  0  0  0  0  0  0  0  0
   -8.4310   19.4650  -31.8260 C   0  0  0  0  0  0  0  0  0  0  0  0
   -4.6370   23.3400  -31.1910 C   0  0  0  0  0  0  0  0  0  0  0  0
   -3.9320   24.3530  -30.5140 C   0  0  0  0  0  0  0  0  0  0  0  0
   -4.3930   25.6790  -30.4680 O   0  0  0  0  0  0  0  0  0  0  0  0
   -5.7220   26.0600  -30.1270 C   0  0  0  0  0  0  0  0  0  0  0  0
   -2.5214   25.1335  -27.1819 H   0  0  0  0  0  0  0  0  0  0  0  0
   -1.1523   24.0600  -27.6287 H   0  0  0  0  0  0  0  0  0  0  0  0
   -0.9327   25.8428  -27.6287 H   0  0  0  0  0  0  0  0  0  0  0  0
   -1.3071   22.4744  -29.3679 H   0  0  0  0  0  0  0  0  0  0  0  0
   -2.5709   20.6911  -30.5560 H   0  0  0  0  0  0  0  0  0  0  0  0
   -5.9150   20.9110  -31.6770 H   0  0  0  0  0  0  0  0  0  0  0  0
   -3.2693   18.2044  -34.3927 H   0  0  0  0  0  0  0  0  0  0  0  0
   -2.4690   15.5551  -34.1287 H   0  0  0  0  0  0  0  0  0  0  0  0
   -2.5323   14.6566  -35.6828 H   0  0  0  0  0  0  0  0  0  0  0  0
   -2.2696   16.4336  -35.6828 H   0  0  0  0  0  0  0  0  0  0  0  0
   -6.1588   13.8512  -33.1288 H   0  0  0  0  0  0  0  0  0  0  0  0
   -6.8530   13.1933  -34.6493 H   0  0  0  0  0  0  0  0  0  0  0  0
   -5.2039   13.9055  -34.6493 H   0  0  0  0  0  0  0  0  0  0  0  0
   -7.9719   17.1903  -33.0599 H   0  0  0  0  0  0  0  0  0  0  0  0
   -8.5456   19.4575  -30.7320 H   0  0  0  0  0  0  0  0  0  0  0  0
   -8.9664   20.3298  -32.2448 H   0  0  0  0  0  0  0  0  0  0  0  0
   -8.8484   18.5374  -32.2448 H   0  0  0  0  0  0  0  0  0  0  0  0
   -5.5845   23.5808  -31.6952 H   0  0  0  0  0  0  0  0  0  0  0  0
   -5.8255   26.0897  -29.0323 H   0  0  0  0  0  0  0  0  0  0  0  0
   -5.9361   27.0557  -30.5427 H   0  0  0  0  0  0  0  0  0  0  0  0
   -6.4311   25.3290  -30.5427 H   0  0  0  0  0  0  0  0  0  0  0  0
  1  2  1  0
  2  3  1  0
  3  4  2  0
  4  5  1  0
  5  6  2  0
  6  7  1  0
  7  8  1  0
  8  9  2  0
  8 10  1  0
 10 11  2  0
 11 12  1  0
 12 13  1  0
 13 14  1  0
 12 15  2  0
 15 16  1  0
 16 17  1  0
 15 18  1  0
 18 19  2  0
 19 20  1  0
 20 21  1  0
  6 22  1  0
 22 23  2  0
 23 24  1  0
 24 25  1  0
 23  3  1  0
 19 10  1  0
  1 26  1  0
  1 27  1  0
  1 28  1  0
  4 29  1  0
  5 30  1  0
  7 31  1  0
 11 32  1  0
 14 33  1  0
 14 34  1  0
 14 35  1  0
 17 36  1  0
 17 37  1  0
 17 38  1  0
 18 39  1  0
 21 40  1  0
 21 41  1  0
 21 42  1  0
 22 43  1  0
 25 44  1  0
 25 45  1  0
 25 46  1  0
M  END
>  <UniqueID>  (49) 
46

>  <SMILES>  (49) 
COc1ccc(NC(=O)c2cc(OC)c(OC)cc2OC)cc1OC

>  <Energy>  (49) 
50.83182043462481

>  <Genealogy>  (49) 
COc1ccc(NC(=O)c2cc(OC)c(OC)cc2OC)cc1OC (3D coordinates assigned)
COc1ccc(NC(=O)c2cc(OC)c(OC)cc2OC)cc1OC (optimized conformer: 50.83182043462481 kcal/mol)

>  <smiles>  (49) 
COc1ccc(NC(=O)c2cc(OC)c(OC)cc2OC)cc1OC

>  <score_type>  (49) 
oracle

>  <origin>  (49) 
adgpu

>  <m_score__min__energy>  (49) 
-7.0800000000000001

>  <m_primary>  (49) 
energy

$$$$
