0:0
     RDKit          3D

 51 54  0  0  0  0  0  0  0  0999 V2000
   -0.6436   27.8503  -27.5161 H   0  0  0  0  0  0  0  0  0  0  0  0
   -0.8200   26.7660  -27.4600 C   0  0  0  0  0  0  0  0  0  0  0  0
   -1.2620   26.0930  -28.5550 N   0  0  0  0  0  0  0  0  0  0  0  0
   -1.4890   24.7510  -28.5410 C   0  0  0  0  0  0  0  0  0  0  0  0
   -1.9400   24.1450  -29.7220 O   0  0  0  0  0  0  0  0  0  0  0  0
   -3.2820   23.8770  -30.0220 C   0  0  0  0  0  0  0  0  0  0  0  0
   -4.3320   24.4190  -29.2630 C   0  0  0  0  0  0  0  0  0  0  0  0
   -4.1097   25.0326  -28.3775 H   0  0  0  0  0  0  0  0  0  0  0  0
   -5.6590   24.1800  -29.6310 C   0  0  0  0  0  0  0  0  0  0  0  0
   -6.4790   24.6073  -29.0352 H   0  0  0  0  0  0  0  0  0  0  0  0
   -5.9480   23.3960  -30.7590 C   0  0  0  0  0  0  0  0  0  0  0  0
   -7.3030   23.1620  -31.1640 N   0  0  0  0  0  0  0  0  0  0  0  0
   -7.8160   22.0130  -31.5100 C   0  0  0  0  0  0  0  0  0  0  0  0
   -9.1390   21.9810  -31.9690 C   0  0  0  0  0  0  0  0  0  0  0  0
   -9.7225   22.9109  -32.0380 H   0  0  0  0  0  0  0  0  0  0  0  0
   -9.7130   20.7650  -32.3380 C   0  0  0  0  0  0  0  0  0  0  0  0
  -10.7497   20.7344  -32.7046 H   0  0  0  0  0  0  0  0  0  0  0  0
   -8.9720   19.5880  -32.2420 C   0  0  0  0  0  0  0  0  0  0  0  0
   -9.4167   18.6265  -32.5381 H   0  0  0  0  0  0  0  0  0  0  0  0
   -7.6560   19.6410  -31.7650 C   0  0  0  0  0  0  0  0  0  0  0  0
   -6.8400   18.3890  -31.6400 C   0  0  0  0  0  0  0  0  0  0  0  0
   -6.6877   18.1553  -30.5760 H   0  0  0  0  0  0  0  0  0  0  0  0
   -7.3693   17.5563  -32.1262 H   0  0  0  0  0  0  0  0  0  0  0  0
   -5.8644   18.5371  -32.1262 H   0  0  0  0  0  0  0  0  0  0  0  0
   -7.1120   20.8400  -31.4040 N   0  0  0  0  0  0  0  0  0  0  0  0
   -6.1450   20.8340  -31.0120 H   0  0  0  0  0  0  0  0  0  0  0  0
   -4.9030   22.7880  -31.4630 C   0  0  0  0  0  0  0  0  0  0  0  0
   -5.1261   22.1175  -32.3060 H   0  0  0  0  0  0  0  0  0  0  0  0
   -3.5750   23.0310  -31.0970 C   0  0  0  0  0  0  0  0  0  0  0  0
   -2.7570   22.5545  -31.6572 H   0  0  0  0  0  0  0  0  0  0  0  0
   -1.2940   24.0250  -27.3400 C   0  0  0  0  0  0  0  0  0  0  0  0
   -1.6270   22.6280  -27.2330 N   0  0  0  0  0  0  0  0  0  0  0  0
   -3.0080   22.1760  -27.4740 C   0  0  0  0  0  0  0  0  0  0  0  0
   -3.4882   21.9444  -26.5118 H   0  0  0  0  0  0  0  0  0  0  0  0
   -3.5640   22.9745  -27.9870 H   0  0  0  0  0  0  0  0  0  0  0  0
   -3.0050   20.9230  -28.3530 C   0  0  0  0  0  0  0  0  0  0  0  0
   -4.0405   20.5705  -28.4695 H   0  0  0  0  0  0  0  0  0  0  0  0
   -2.5605   21.1937  -29.3221 H   0  0  0  0  0  0  0  0  0  0  0  0
   -2.1580   19.7830  -27.7480 C   0  0  0  0  0  0  0  0  0  0  0  0
   -2.8359   19.0732  -27.2513 H   0  0  0  0  0  0  0  0  0  0  0  0
   -1.6009   19.3227  -28.5773 H   0  0  0  0  0  0  0  0  0  0  0  0
   -1.1160   20.2620  -26.7180 C   0  0  0  0  0  0  0  0  0  0  0  0
   -1.5949   20.3240  -25.7297 H   0  0  0  0  0  0  0  0  0  0  0  0
   -0.2859   19.5403  -26.7108 H   0  0  0  0  0  0  0  0  0  0  0  0
   -0.5470   21.6390  -27.0810 C   0  0  0  0  0  0  0  0  0  0  0  0
    0.1346   21.9692  -26.2832 H   0  0  0  0  0  0  0  0  0  0  0  0
   -0.0076   21.5567  -28.0361 H   0  0  0  0  0  0  0  0  0  0  0  0
   -0.8310   24.7130  -26.2090 C   0  0  0  0  0  0  0  0  0  0  0  0
   -0.6569   24.1667  -25.2702 H   0  0  0  0  0  0  0  0  0  0  0  0
   -0.5900   26.0850  -26.2670 C   0  0  0  0  0  0  0  0  0  0  0  0
   -0.2225   26.6233  -25.3809 H   0  0  0  0  0  0  0  0  0  0  0  0
  1  2  1  0
  2  3  2  0
  3  4  1  0
  4  5  1  0
  5  6  1  0
  6  7  2  0
  7  8  1  0
  7  9  1  0
  9 10  1  0
  9 11  2  0
 11 12  1  0
 12 13  2  0
 13 14  1  0
 14 15  1  0
 14 16  2  0
 16 17  1  0
 16 18  1  0
 18 19  1  0
 18 20  2  0
 20 21  1  0
 21 22  1  0
 21 23  1  0
 21 24  1  0
 20 25  1  0
 25 26  1  0
 11 27  1  0
 27 28  1  0
 27 29  2  0
 29 30  1  0
  4 31  2  0
 31 32  1  0
 32 33  1  0
 33 34  1  0
 33 35  1  0
 33 36  1  0
 36 37  1  0
 36 38  1  0
 36 39  1  0
 39 40  1  0
 39 41  1  0
 39 42  1  0
 42 43  1  0
 42 44  1  0
 42 45  1  0
 45 46  1  0
 45 47  1  0
 31 48  1  0
 48 49  1  0
 48 50  2  0
 50 51  1  0
 50  2  1  0
 29  6  1  0
 45 32  1  0
 25 13  1  0
M  END
>  <UniqueID>  (1) 
1

>  <SMILES>  (1) 
Cc1ccc/c(=N/c2ccc(Oc3ncccc3N3CCCCC3)cc2)[nH]1

>  <Energy>  (1) 
73.71553060769186

>  <Genealogy>  (1) 
Cc1ccc/c(=N/c2ccc(Oc3ncccc3N3CCCCC3)cc2)[nH]1 (cis-trans isomerization)
Cc1ccc/c(=N/c2ccc(Oc3ncccc3N3CCCCC3)cc2)[nH]1 (3D coordinates assigned)
Cc1ccc/c(=N/c2ccc(Oc3ncccc3N3CCCCC3)cc2)[nH]1 (nonaromatic ring conformer: 73.71553060769186 kcal/mol)

>  <smiles>  (1) 
Cc1cccc(=Nc2ccc(Oc3ncccc3N3CCCCC3)cc2)[nH]1

>  <score_type>  (1) 
oracle

>  <origin>  (1) 
adgpu

>  <m_score__min__energy>  (1) 
-9.0500000000000007

>  <m_primary>  (1) 
energy

$$$$
1:0
     RDKit          3D

 51 54  0  0  0  0  0  0  0  0999 V2000
   -2.0780   24.9090  -28.3130 C   0  0  0  0  0  0  0  0  0  0  0  0
   -3.1860   24.0120  -27.8790 C   0  0  0  0  0  0  0  0  0  0  0  0
   -4.1510   24.4880  -27.2230 O   0  0  0  0  0  0  0  0  0  0  0  0
   -3.2130   22.6440  -28.3060 N   0  0  0  0  0  0  0  0  0  0  0  0
   -2.6290   21.5960  -27.4600 C   0  0  0  0  0  0  0  0  0  0  0  0
   -1.9740   20.5790  -28.4170 C   0  0  0  0  0  0  0  0  0  0  0  0
   -2.3780   21.0670  -29.7610 C   0  0  0  0  0  0  0  0  0  0  0  0
   -2.1470   20.4460  -30.9880 C   0  0  0  0  0  0  0  0  0  0  0  0
   -2.7030   21.0120  -32.1420 C   0  0  0  0  0  0  0  0  0  0  0  0
   -2.4200   20.1850  -33.8420 Br  0  0  0  0  0  0  0  0  0  0  0  0
   -3.5080   22.1610  -32.0450 C   0  0  0  0  0  0  0  0  0  0  0  0
   -3.7360   22.7830  -30.8000 C   0  0  0  0  0  0  0  0  0  0  0  0
   -4.9530   24.0650  -30.6900 S   0  0  0  0  0  0  0  0  0  0  0  0
   -4.2630   25.3910  -30.8400 O   0  0  0  0  0  0  0  0  0  0  0  0
   -5.6030   24.0410  -29.3360 O   0  0  0  0  0  0  0  0  0  0  0  0
   -6.1880   23.9340  -31.9030 N   0  0  0  0  0  0  0  0  0  0  0  0
   -7.0560   22.7960  -32.0190 C   0  0  0  0  0  0  0  0  0  0  0  0
   -8.4050   22.8680  -31.6410 C   0  0  0  0  0  0  0  0  0  0  0  0
   -9.2230   21.7410  -31.7410 C   0  0  0  0  0  0  0  0  0  0  0  0
   -8.7050   20.5330  -32.2160 C   0  0  0  0  0  0  0  0  0  0  0  0
   -7.3540   20.4350  -32.5930 C   0  0  0  0  0  0  0  0  0  0  0  0
   -6.8180   19.1870  -33.0880 N   0  0  0  0  0  0  0  0  0  0  0  0
   -6.9660   17.9580  -32.2890 C   0  0  0  0  0  0  0  0  0  0  0  0
   -6.8710   16.6720  -33.1520 C   0  0  0  0  0  0  0  0  0  0  0  0
   -6.4710   16.8900  -34.4930 O   0  0  0  0  0  0  0  0  0  0  0  0
   -5.3980   17.8010  -34.5370 C   0  0  0  0  0  0  0  0  0  0  0  0
   -5.9450   19.1970  -34.2710 C   0  0  0  0  0  0  0  0  0  0  0  0
   -6.5360   21.5760  -32.4800 C   0  0  0  0  0  0  0  0  0  0  0  0
   -3.1010   22.2280  -29.6650 C   0  0  0  0  0  0  0  0  0  0  0  0
   -1.5706   25.3198  -27.4277 H   0  0  0  0  0  0  0  0  0  0  0  0
   -1.3576   24.3366  -28.9159 H   0  0  0  0  0  0  0  0  0  0  0  0
   -2.4879   25.7328  -28.9159 H   0  0  0  0  0  0  0  0  0  0  0  0
   -1.8729   22.0273  -26.7875 H   0  0  0  0  0  0  0  0  0  0  0  0
   -3.3949   21.1171  -26.8323 H   0  0  0  0  0  0  0  0  0  0  0  0
   -0.8794   20.5838  -28.3084 H   0  0  0  0  0  0  0  0  0  0  0  0
   -2.2860   19.5421  -28.2233 H   0  0  0  0  0  0  0  0  0  0  0  0
   -1.5405   19.5303  -31.0482 H   0  0  0  0  0  0  0  0  0  0  0  0
   -3.9662   22.5804  -32.9528 H   0  0  0  0  0  0  0  0  0  0  0  0
   -6.4770   24.8260  -32.3660 H   0  0  0  0  0  0  0  0  0  0  0  0
   -8.8194   23.8149  -31.2648 H   0  0  0  0  0  0  0  0  0  0  0  0
  -10.2804   21.8042  -31.4445 H   0  0  0  0  0  0  0  0  0  0  0  0
   -9.3592   19.6522  -32.2955 H   0  0  0  0  0  0  0  0  0  0  0  0
   -6.1702   17.9329  -31.5301 H   0  0  0  0  0  0  0  0  0  0  0  0
   -7.9646   17.9777  -31.8281 H   0  0  0  0  0  0  0  0  0  0  0  0
   -6.1413   15.9964  -32.6818 H   0  0  0  0  0  0  0  0  0  0  0  0
   -7.8856   16.2493  -33.1942 H   0  0  0  0  0  0  0  0  0  0  0  0
   -4.6562   17.5394  -33.7681 H   0  0  0  0  0  0  0  0  0  0  0  0
   -4.9113   17.7661  -35.5229 H   0  0  0  0  0  0  0  0  0  0  0  0
   -5.1069   19.8880  -34.0975 H   0  0  0  0  0  0  0  0  0  0  0  0
   -6.5293   19.5243  -35.1437 H   0  0  0  0  0  0  0  0  0  0  0  0
   -5.4735   21.5103  -32.7572 H   0  0  0  0  0  0  0  0  0  0  0  0
  1  2  1  0
  2  3  2  0
  2  4  1  0
  4  5  1  0
  5  6  1  0
  6  7  1  0
  7  8  2  0
  8  9  1  0
  9 10  1  0
  9 11  2  0
 11 12  1  0
 12 13  1  0
 13 14  2  0
 13 15  2  0
 13 16  1  0
 16 17  1  0
 17 18  2  0
 18 19  1  0
 19 20  2  0
 20 21  1  0
 21 22  1  0
 22 23  1  0
 23 24  1  0
 24 25  1  0
 25 26  1  0
 26 27  1  0
 21 28  2  0
 12 29  2  0
 29  4  1  0
 29  7  1  0
 28 17  1  0
 27 22  1  0
  1 30  1  0
  1 31  1  0
  1 32  1  0
  5 33  1  0
  5 34  1  0
  6 35  1  0
  6 36  1  0
  8 37  1  0
 11 38  1  0
 16 39  1  0
 18 40  1  0
 19 41  1  0
 20 42  1  0
 23 43  1  0
 23 44  1  0
 24 45  1  0
 24 46  1  0
 26 47  1  0
 26 48  1  0
 27 49  1  0
 27 50  1  0
 28 51  1  0
M  END
>  <UniqueID>  (2) 
2

>  <SMILES>  (2) 
CC(=O)N1CCc2cc(Br)cc(S(=O)(=O)Nc3cccc(N4CCOCC4)c3)c21

>  <Energy>  (2) 
89.80232648636934

>  <Genealogy>  (2) 
CC(=O)N1CCc2cc(Br)cc(S(=O)(=O)Nc3cccc(N4CCOCC4)c3)c21 (3D coordinates assigned)
CC(=O)N1CCc2cc(Br)cc(S(=O)(=O)Nc3cccc(N4CCOCC4)c3)c21 (nonaromatic ring conformer: 89.80232648636934 kcal/mol)

>  <smiles>  (2) 
CC(=O)N1CCc2cc(Br)cc(S(=O)(=O)Nc3cccc(N4CCOCC4)c3)c21

>  <score_type>  (2) 
oracle

>  <origin>  (2) 
adgpu

>  <m_score__min__energy>  (2) 
-10.73

>  <m_primary>  (2) 
energy

$$$$
2:0
     RDKit          3D

 46 49  0  0  0  0  0  0  0  0999 V2000
   -5.7930   26.5530  -30.0750 O   0  0  0  0  0  0  0  0  0  0  0  0
   -5.2670   25.5590  -30.6400 C   0  0  0  0  0  0  0  0  0  0  0  0
   -6.0900   24.7010  -31.5490 C   0  0  0  0  0  0  0  0  0  0  0  0
   -7.3140   23.7290  -30.6090 S   0  0  0  0  0  0  0  0  0  0  0  0
   -6.7840   22.1490  -31.2670 C   0  0  0  0  0  0  0  0  0  0  0  0
   -7.6890   21.1660  -31.4940 N   0  0  0  0  0  0  0  0  0  0  0  0
   -7.3100   19.9980  -32.0130 N   0  0  0  0  0  0  0  0  0  0  0  0
   -6.0130   19.7460  -32.3350 C   0  0  0  0  0  0  0  0  0  0  0  0
   -5.6900   18.4550  -32.9900 C   0  0  0  0  0  0  0  0  0  0  0  0
   -5.7040   17.2680  -32.2370 C   0  0  0  0  0  0  0  0  0  0  0  0
   -5.4230   16.0410  -32.8500 C   0  0  0  0  0  0  0  0  0  0  0  0
   -5.1350   15.9920  -34.2170 C   0  0  0  0  0  0  0  0  0  0  0  0
   -5.1480   17.1630  -34.9790 C   0  0  0  0  0  0  0  0  0  0  0  0
   -5.4360   18.3910  -34.3730 C   0  0  0  0  0  0  0  0  0  0  0  0
   -5.0520   20.7550  -32.0750 C   0  0  0  0  0  0  0  0  0  0  0  0
   -3.6030   20.5800  -32.3280 C   0  0  0  0  0  0  0  0  0  0  0  0
   -2.6890   20.4360  -31.2690 C   0  0  0  0  0  0  0  0  0  0  0  0
   -1.3310   20.2350  -31.5310 C   0  0  0  0  0  0  0  0  0  0  0  0
   -0.8700   20.1970  -32.8490 C   0  0  0  0  0  0  0  0  0  0  0  0
   -1.7660   20.3680  -33.9100 C   0  0  0  0  0  0  0  0  0  0  0  0
   -3.1260   20.5630  -33.6520 C   0  0  0  0  0  0  0  0  0  0  0  0
   -5.4770   21.9390  -31.5580 N   0  0  0  0  0  0  0  0  0  0  0  0
   -3.8670   25.2900  -30.4930 N   0  0  0  0  0  0  0  0  0  0  0  0
   -3.2860   24.2670  -29.6710 C   0  0  0  0  0  0  0  0  0  0  0  0
   -1.9230   24.2970  -29.3040 C   0  0  0  0  0  0  0  0  0  0  0  0
   -1.3990   23.2830  -28.4950 C   0  0  0  0  0  0  0  0  0  0  0  0
   -2.2230   22.2380  -28.0450 C   0  0  0  0  0  0  0  0  0  0  0  0
   -1.4990   20.8510  -26.9460 Br  0  0  0  0  0  0  0  0  0  0  0  0
   -3.5750   22.2150  -28.3930 C   0  0  0  0  0  0  0  0  0  0  0  0
   -4.1070   23.2360  -29.1890 C   0  0  0  0  0  0  0  0  0  0  0  0
   -6.6183   25.3440  -32.2683 H   0  0  0  0  0  0  0  0  0  0  0  0
   -5.4189   24.0038  -32.0721 H   0  0  0  0  0  0  0  0  0  0  0  0
   -5.9365   17.3033  -31.1624 H   0  0  0  0  0  0  0  0  0  0  0  0
   -5.4289   15.1153  -32.2558 H   0  0  0  0  0  0  0  0  0  0  0  0
   -4.8976   15.0295  -34.6938 H   0  0  0  0  0  0  0  0  0  0  0  0
   -4.9316   17.1196  -36.0566 H   0  0  0  0  0  0  0  0  0  0  0  0
   -5.4640   19.3086  -34.9790 H   0  0  0  0  0  0  0  0  0  0  0  0
   -3.0447   20.4818  -30.2291 H   0  0  0  0  0  0  0  0  0  0  0  0
   -0.6241   20.1065  -30.6980 H   0  0  0  0  0  0  0  0  0  0  0  0
    0.1983   20.0325  -33.0530 H   0  0  0  0  0  0  0  0  0  0  0  0
   -1.4002   20.3490  -34.9472 H   0  0  0  0  0  0  0  0  0  0  0  0
   -3.8269   20.7039  -34.4880 H   0  0  0  0  0  0  0  0  0  0  0  0
   -1.2753   25.1148  -29.6529 H   0  0  0  0  0  0  0  0  0  0  0  0
   -0.3368   23.3041  -28.2099 H   0  0  0  0  0  0  0  0  0  0  0  0
   -4.2206   21.3963  -28.0424 H   0  0  0  0  0  0  0  0  0  0  0  0
   -5.1782   23.2302  -29.4390 H   0  0  0  0  0  0  0  0  0  0  0  0
  1  2  2  0
  2  3  1  0
  3  4  1  0
  4  5  1  0
  5  6  2  0
  6  7  1  0
  7  8  2  0
  8  9  1  0
  9 10  2  0
 10 11  1  0
 11 12  2  0
 12 13  1  0
 13 14  2  0
  8 15  1  0
 15 16  1  0
 16 17  2  0
 17 18  1  0
 18 19  2  0
 19 20  1  0
 20 21  2  0
 15 22  2  0
  2 23  1  0
 23 24  1  0
 24 25  2  0
 25 26  1  0
 26 27  2  0
 27 28  1  0
 27 29  1  0
 29 30  2  0
 22  5  1  0
 30 24  1  0
 14  9  1  0
 21 16  1  0
  3 31  1  0
  3 32  1  0
 10 33  1  0
 11 34  1  0
 12 35  1  0
 13 36  1  0
 14 37  1  0
 17 38  1  0
 18 39  1  0
 19 40  1  0
 20 41  1  0
 21 42  1  0
 25 43  1  0
 26 44  1  0
 29 45  1  0
 30 46  1  0
M  CHG  1  23  -1
M  END
>  <UniqueID>  (3) 
3

>  <SMILES>  (3) 
O=C(CSc1nnc(-c2ccccc2)c(-c2ccccc2)n1)[N-]c1ccc(Br)cc1

>  <Energy>  (3) 
62.44135917861218

>  <Genealogy>  (3) 
O=C(CSc1nnc(-c2ccccc2)c(-c2ccccc2)n1)[N-]c1ccc(Br)cc1 (protonated)
O=C(CSc1nnc(-c2ccccc2)c(-c2ccccc2)n1)[N-]c1ccc(Br)cc1 (3D coordinates assigned)
O=C(CSc1nnc(-c2ccccc2)c(-c2ccccc2)n1)[N-]c1ccc(Br)cc1 (optimized conformer: 62.44135917861218 kcal/mol)

>  <smiles>  (3) 
O=C(CSc1nnc(-c2ccccc2)c(-c2ccccc2)n1)Nc1ccc(Br)cc1

>  <score_type>  (3) 
oracle

>  <origin>  (3) 
adgpu

>  <m_score__min__energy>  (3) 
-11.210000000000001

>  <m_primary>  (3) 
energy

$$$$
3:0
     RDKit          3D

 33 35  0  0  0  0  0  0  0  0999 V2000
   -0.0314   25.3020  -24.7291 H   0  0  0  0  0  0  0  0  0  0  0  0
   -0.1000   24.9060  -25.7530 C   0  0  0  0  0  0  0  0  0  0  0  0
    0.7550   23.8830  -26.1630 C   0  0  0  0  0  0  0  0  0  0  0  0
    1.4854   23.4616  -25.4567 H   0  0  0  0  0  0  0  0  0  0  0  0
    0.6850   23.3930  -27.4690 C   0  0  0  0  0  0  0  0  0  0  0  0
    1.3669   22.5912  -27.7885 H   0  0  0  0  0  0  0  0  0  0  0  0
   -0.2490   23.9160  -28.3770 C   0  0  0  0  0  0  0  0  0  0  0  0
   -0.2440   23.4490  -29.7310 N   0  0  0  0  0  0  0  0  0  0  0  0
   -0.8420   23.9080  -30.4530 H   0  0  0  0  0  0  0  0  0  0  0  0
    0.2970   22.6030  -30.0180 H   0  0  0  0  0  0  0  0  0  0  0  0
   -1.1470   24.9230  -27.9450 C   0  0  0  0  0  0  0  0  0  0  0  0
   -2.1830   25.4410  -28.7960 N   0  0  0  0  0  0  0  0  0  0  0  0
   -2.9100   24.7100  -29.5900 C   0  0  0  0  0  0  0  0  0  0  0  0
   -3.8640   25.2930  -30.3590 N   0  0  0  0  0  0  0  0  0  0  0  0
   -4.6330   24.5580  -31.1650 N   0  0  0  0  0  0  0  0  0  0  0  0
   -4.4910   23.2090  -31.2410 C   0  0  0  0  0  0  0  0  0  0  0  0
   -5.5240   22.2910  -32.3260 Cl  0  0  0  0  0  0  0  0  0  0  0  0
   -3.5170   22.5890  -30.4500 C   0  0  0  0  0  0  0  0  0  0  0  0
   -3.3270   21.3030  -30.5260 N   0  0  0  0  0  0  0  0  0  0  0  0
   -2.3820   20.5300  -29.7640 C   0  0  0  0  0  0  0  0  0  0  0  0
   -2.5570   20.2710  -28.3900 C   0  0  0  0  0  0  0  0  0  0  0  0
   -3.4426   20.6620  -27.8677 H   0  0  0  0  0  0  0  0  0  0  0  0
   -1.6110   19.5200  -27.6880 C   0  0  0  0  0  0  0  0  0  0  0  0
   -1.7438   19.3383  -26.6113 H   0  0  0  0  0  0  0  0  0  0  0  0
   -0.4960   18.9990  -28.3510 C   0  0  0  0  0  0  0  0  0  0  0  0
    0.6910   18.0560  -27.4680 Cl  0  0  0  0  0  0  0  0  0  0  0  0
   -0.3350   19.2200  -29.7230 C   0  0  0  0  0  0  0  0  0  0  0  0
    0.5349   18.7996  -30.2488 H   0  0  0  0  0  0  0  0  0  0  0  0
   -1.2790   19.9750  -30.4270 C   0  0  0  0  0  0  0  0  0  0  0  0
   -1.1548   20.1342  -31.5083 H   0  0  0  0  0  0  0  0  0  0  0  0
   -2.7460   23.3630  -29.6440 N   0  0  0  0  0  0  0  0  0  0  0  0
   -1.0430   25.4280  -26.6410 C   0  0  0  0  0  0  0  0  0  0  0  0
   -1.7087   26.2409  -26.3153 H   0  0  0  0  0  0  0  0  0  0  0  0
  1  2  1  0
  2  3  2  0
  3  4  1  0
  3  5  1  0
  5  6  1  0
  5  7  2  0
  7  8  1  0
  8  9  1  0
  8 10  1  0
  7 11  1  0
 11 12  1  0
 12 13  2  0
 13 14  1  0
 14 15  1  0
 15 16  2  0
 16 17  1  0
 16 18  1  0
 18 19  2  0
 19 20  1  0
 20 21  2  0
 21 22  1  0
 21 23  1  0
 23 24  1  0
 23 25  2  0
 25 26  1  0
 25 27  1  0
 27 28  1  0
 27 29  2  0
 29 30  1  0
 18 31  1  0
 11 32  2  0
 32 33  1  0
 32  2  1  0
 31 13  1  0
 29 20  1  0
M  CHG  2  14  -1  31  -1
M  END
>  <UniqueID>  (4) 
4

>  <SMILES>  (4) 
Nc1ccccc1/N=c1/[n-]nc(Cl)/c(=N/c2ccc(Cl)cc2)[n-]1

>  <Energy>  (4) 
50.94320506959964

>  <Genealogy>  (4) 
Nc1ccccc1N=c1[n-]nc(Cl)c(=Nc2ccc(Cl)cc2)[n-]1 (protonated)
Nc1ccccc1/N=c1/[n-]nc(Cl)/c(=N/c2ccc(Cl)cc2)[n-]1 (cis-trans isomerization)
Nc1ccccc1/N=c1/[n-]nc(Cl)/c(=N/c2ccc(Cl)cc2)[n-]1 (3D coordinates assigned)
Nc1ccccc1/N=c1/[n-]nc(Cl)/c(=N/c2ccc(Cl)cc2)[n-]1 (optimized conformer: 50.94320506959964 kcal/mol)

>  <smiles>  (4) 
Nc1ccccc1N=c1[nH]nc(Cl)c(=Nc2ccc(Cl)cc2)[nH]1

>  <score_type>  (4) 
oracle

>  <origin>  (4) 
adgpu

>  <m_score__min__energy>  (4) 
-9.4100000000000001

>  <m_primary>  (4) 
energy

$$$$
4:0
     RDKit          3D

 28 30  0  0  0  0  0  0  0  0999 V2000
   -1.9650   24.9540  -28.5920 S   0  0  0  0  0  0  0  0  0  0  0  0
   -2.9970   24.4650  -29.7650 C   0  0  0  0  0  0  0  0  0  0  0  0
   -3.8630   25.2970  -30.3720 N   0  0  0  0  0  0  0  0  0  0  0  0
   -4.5950   24.5570  -31.1920 N   0  0  0  0  0  0  0  0  0  0  0  0
   -4.1730   23.2820  -31.0660 C   0  0  0  0  0  0  0  0  0  0  0  0
   -4.7170   22.1640  -31.8660 C   0  0  0  0  0  0  0  0  0  0  0  0
   -3.8490   21.4000  -32.6670 C   0  0  0  0  0  0  0  0  0  0  0  0
   -4.3400   20.3420  -33.4360 C   0  0  0  0  0  0  0  0  0  0  0  0
   -5.7030   20.0400  -33.4210 C   0  0  0  0  0  0  0  0  0  0  0  0
   -6.5770   20.7930  -32.6350 C   0  0  0  0  0  0  0  0  0  0  0  0
   -6.0950   21.8560  -31.8590 C   0  0  0  0  0  0  0  0  0  0  0  0
   -7.2400   22.7350  -30.8500 Cl  0  0  0  0  0  0  0  0  0  0  0  0
   -3.1590   23.1880  -30.1750 N   0  0  0  0  0  0  0  0  0  0  0  0
   -2.4990   22.0040  -29.6940 C   0  0  0  0  0  0  0  0  0  0  0  0
   -2.9850   21.3340  -28.5600 C   0  0  0  0  0  0  0  0  0  0  0  0
   -2.3580   20.1710  -28.1050 C   0  0  0  0  0  0  0  0  0  0  0  0
   -2.9750   19.3370  -26.6910 Cl  0  0  0  0  0  0  0  0  0  0  0  0
   -1.2380   19.6700  -28.7780 C   0  0  0  0  0  0  0  0  0  0  0  0
   -0.7470   20.3320  -29.9080 C   0  0  0  0  0  0  0  0  0  0  0  0
    0.6520   19.7000  -30.7560 Cl  0  0  0  0  0  0  0  0  0  0  0  0
   -1.3750   21.4950  -30.3650 C   0  0  0  0  0  0  0  0  0  0  0  0
   -2.7751   21.6375  -32.6881 H   0  0  0  0  0  0  0  0  0  0  0  0
   -3.6520   19.7463  -34.0539 H   0  0  0  0  0  0  0  0  0  0  0  0
   -6.0884   19.2082  -34.0289 H   0  0  0  0  0  0  0  0  0  0  0  0
   -7.6499   20.5507  -32.6246 H   0  0  0  0  0  0  0  0  0  0  0  0
   -3.8636   21.7264  -28.0271 H   0  0  0  0  0  0  0  0  0  0  0  0
   -0.7438   18.7555  -28.4183 H   0  0  0  0  0  0  0  0  0  0  0  0
   -0.9869   22.0135  -31.2541 H   0  0  0  0  0  0  0  0  0  0  0  0
  1  2  2  0
  2  3  1  0
  3  4  1  0
  4  5  2  0
  5  6  1  0
  6  7  2  0
  7  8  1  0
  8  9  2  0
  9 10  1  0
 10 11  2  0
 11 12  1  0
  5 13  1  0
 13 14  1  0
 14 15  2  0
 15 16  1  0
 16 17  1  0
 16 18  2  0
 18 19  1  0
 19 20  1  0
 19 21  2  0
 13  2  1  0
 21 14  1  0
 11  6  1  0
  7 22  1  0
  8 23  1  0
  9 24  1  0
 10 25  1  0
 15 26  1  0
 18 27  1  0
 21 28  1  0
M  CHG  1   3  -1
M  END
>  <UniqueID>  (5) 
5

>  <SMILES>  (5) 
S=c1[n-]nc(-c2ccccc2Cl)n1-c1cc(Cl)cc(Cl)c1

>  <Energy>  (5) 
77.72074595021452

>  <Genealogy>  (5) 
S=c1[n-]nc(-c2ccccc2Cl)n1-c1cc(Cl)cc(Cl)c1 (protonated)
S=c1[n-]nc(-c2ccccc2Cl)n1-c1cc(Cl)cc(Cl)c1 (3D coordinates assigned)
S=c1[n-]nc(-c2ccccc2Cl)n1-c1cc(Cl)cc(Cl)c1 (optimized conformer: 77.72074595021452 kcal/mol)

>  <smiles>  (5) 
S=c1[nH]nc(-c2ccccc2Cl)n1-c1cc(Cl)cc(Cl)c1

>  <score_type>  (5) 
oracle

>  <origin>  (5) 
adgpu

>  <m_score__min__energy>  (5) 
-9.4800000000000004

>  <m_primary>  (5) 
energy

$$$$
5:0
     RDKit          3D

 45 47  0  0  0  0  0  0  0  0999 V2000
   -7.2900   24.9230  -30.4330 O   0  0  0  0  0  0  0  0  0  0  0  0
   -6.8740   23.7480  -30.6130 C   0  0  0  0  0  0  0  0  0  0  0  0
   -7.8340   22.6980  -30.7980 N   0  0  0  0  0  0  0  0  0  0  0  0
   -8.7410   22.5460  -31.9360 C   0  0  0  0  0  0  0  0  0  0  0  0
   -9.3770   21.1500  -31.9730 C   0  0  0  0  0  0  0  0  0  0  0  0
   -8.3710   20.0900  -32.3410 C   0  0  0  0  0  0  0  0  0  0  0  0
   -8.5810   18.7540  -31.9590 C   0  0  0  0  0  0  0  0  0  0  0  0
   -7.6620   17.7650  -32.3240 C   0  0  0  0  0  0  0  0  0  0  0  0
   -6.5320   18.1010  -33.0740 C   0  0  0  0  0  0  0  0  0  0  0  0
   -6.3190   19.4270  -33.4630 C   0  0  0  0  0  0  0  0  0  0  0  0
   -7.2350   20.4190  -33.1000 C   0  0  0  0  0  0  0  0  0  0  0  0
   -5.4200   23.5030  -30.6530 C   0  0  0  0  0  0  0  0  0  0  0  0
   -4.9160   22.4230  -31.3950 C   0  0  0  0  0  0  0  0  0  0  0  0
   -3.5410   22.1840  -31.4410 C   0  0  0  0  0  0  0  0  0  0  0  0
   -2.6590   23.0230  -30.7570 C   0  0  0  0  0  0  0  0  0  0  0  0
   -3.1430   24.1180  -30.0300 C   0  0  0  0  0  0  0  0  0  0  0  0
   -2.2020   24.9590  -29.3500 N   0  0  0  0  0  0  0  0  0  0  0  0
   -1.2290   24.4800  -27.9990 S   0  0  0  0  0  0  0  0  0  0  0  0
    0.2080   24.8480  -28.2460 O   0  0  0  0  0  0  0  0  0  0  0  0
   -1.7100   25.1660  -26.7510 O   0  0  0  0  0  0  0  0  0  0  0  0
   -1.3620   22.7370  -27.7950 C   0  0  0  0  0  0  0  0  0  0  0  0
   -0.2210   21.9260  -27.8910 C   0  0  0  0  0  0  0  0  0  0  0  0
   -0.3300   20.5390  -27.7420 C   0  0  0  0  0  0  0  0  0  0  0  0
   -1.5780   19.9570  -27.5010 C   0  0  0  0  0  0  0  0  0  0  0  0
   -2.7180   20.7600  -27.4120 C   0  0  0  0  0  0  0  0  0  0  0  0
   -2.6130   22.1470  -27.5610 C   0  0  0  0  0  0  0  0  0  0  0  0
   -4.5280   24.3610  -29.9910 C   0  0  0  0  0  0  0  0  0  0  0  0
   -9.5389   23.2992  -31.8589 H   0  0  0  0  0  0  0  0  0  0  0  0
   -8.1584   22.6817  -32.8591 H   0  0  0  0  0  0  0  0  0  0  0  0
   -9.7905   20.9200  -30.9800 H   0  0  0  0  0  0  0  0  0  0  0  0
  -10.1678   21.1531  -32.7376 H   0  0  0  0  0  0  0  0  0  0  0  0
   -9.4710   18.4853  -31.3711 H   0  0  0  0  0  0  0  0  0  0  0  0
   -7.8290   16.7211  -32.0202 H   0  0  0  0  0  0  0  0  0  0  0  0
   -5.8095   17.3219  -33.3586 H   0  0  0  0  0  0  0  0  0  0  0  0
   -5.4300   19.6900  -34.0551 H   0  0  0  0  0  0  0  0  0  0  0  0
   -7.0658   21.4609  -33.4097 H   0  0  0  0  0  0  0  0  0  0  0  0
   -5.6060   21.7634  -31.9415 H   0  0  0  0  0  0  0  0  0  0  0  0
   -3.1515   21.3322  -32.0178 H   0  0  0  0  0  0  0  0  0  0  0  0
   -1.5778   22.8228  -30.7893 H   0  0  0  0  0  0  0  0  0  0  0  0
    0.7614   22.3816  -28.0838 H   0  0  0  0  0  0  0  0  0  0  0  0
    0.5668   19.9062  -27.8145 H   0  0  0  0  0  0  0  0  0  0  0  0
   -1.6625   18.8668  -27.3814 H   0  0  0  0  0  0  0  0  0  0  0  0
   -3.6998   20.3007  -27.2244 H   0  0  0  0  0  0  0  0  0  0  0  0
   -3.5129   22.7760  -27.4946 H   0  0  0  0  0  0  0  0  0  0  0  0
   -4.9147   25.2296  -29.4378 H   0  0  0  0  0  0  0  0  0  0  0  0
  1  2  2  0
  2  3  1  0
  3  4  1  0
  4  5  1  0
  5  6  1  0
  6  7  2  0
  7  8  1  0
  8  9  2  0
  9 10  1  0
 10 11  2  0
  2 12  1  0
 12 13  2  0
 13 14  1  0
 14 15  2  0
 15 16  1  0
 16 17  1  0
 17 18  1  0
 18 19  2  0
 18 20  2  0
 18 21  1  0
 21 22  2  0
 22 23  1  0
 23 24  2  0
 24 25  1  0
 25 26  2  0
 16 27  2  0
 11  6  1  0
 27 12  1  0
 26 21  1  0
  4 28  1  0
  4 29  1  0
  5 30  1  0
  5 31  1  0
  7 32  1  0
  8 33  1  0
  9 34  1  0
 10 35  1  0
 11 36  1  0
 13 37  1  0
 14 38  1  0
 15 39  1  0
 22 40  1  0
 23 41  1  0
 24 42  1  0
 25 43  1  0
 26 44  1  0
 27 45  1  0
M  CHG  2   3  -1  17  -1
M  END
>  <UniqueID>  (6) 
6

>  <SMILES>  (6) 
O=C([N-]CCc1ccccc1)c1cccc([N-]S(=O)(=O)c2ccccc2)c1

>  <Energy>  (6) 
52.40511971329224

>  <Genealogy>  (6) 
O=C([N-]CCc1ccccc1)c1cccc([N-]S(=O)(=O)c2ccccc2)c1 (protonated)
O=C([N-]CCc1ccccc1)c1cccc([N-]S(=O)(=O)c2ccccc2)c1 (3D coordinates assigned)
O=C([N-]CCc1ccccc1)c1cccc([N-]S(=O)(=O)c2ccccc2)c1 (optimized conformer: 52.40511971329224 kcal/mol)

>  <smiles>  (6) 
O=C(NCCc1ccccc1)c1cccc(NS(=O)(=O)c2ccccc2)c1

>  <score_type>  (6) 
oracle

>  <origin>  (6) 
adgpu

>  <m_score__min__energy>  (6) 
-10.82

>  <m_primary>  (6) 
energy

$$$$
6:0
     RDKit          3D

 73 76  0  0  0  0  0  0  0  0999 V2000
   -4.0288   21.6901  -28.6889 H   0  0  0  0  0  0  0  0  0  0  0  0
   -2.9430   21.8580  -28.6360 C   0  0  0  0  0  0  0  0  0  0  0  0
   -2.0910   20.7920  -28.3470 C   0  0  0  0  0  0  0  0  0  0  0  0
   -2.5078   19.7858  -28.1925 H   0  0  0  0  0  0  0  0  0  0  0  0
   -0.7040   20.9950  -28.2520 C   0  0  0  0  0  0  0  0  0  0  0  0
    0.1750   19.8890  -27.9680 N   0  0  0  0  0  0  0  0  0  0  0  0
    1.6320   20.0580  -28.0690 C   0  0  0  0  0  0  0  0  0  0  0  0
    1.8648   20.6610  -28.9591 H   0  0  0  0  0  0  0  0  0  0  0  0
    1.9933   20.5629  -27.1609 H   0  0  0  0  0  0  0  0  0  0  0  0
    2.3300   18.6940  -28.1870 C   0  0  0  0  0  0  0  0  0  0  0  0
    3.3096   18.8269  -28.6695 H   0  0  0  0  0  0  0  0  0  0  0  0
    2.4633   18.2691  -27.1812 H   0  0  0  0  0  0  0  0  0  0  0  0
    1.5070   17.7720  -28.9970 N   0  0  0  0  0  0  0  0  0  0  0  0
    1.2880   18.2380  -29.9120 H   0  0  0  0  0  0  0  0  0  0  0  0
    2.2640   16.5470  -29.3050 C   0  0  0  0  0  0  0  0  0  0  0  0
    2.5665   16.0575  -28.3675 H   0  0  0  0  0  0  0  0  0  0  0  0
    1.6314   15.8621  -29.8888 H   0  0  0  0  0  0  0  0  0  0  0  0
    3.1595   16.8064  -29.8888 H   0  0  0  0  0  0  0  0  0  0  0  0
    0.2280   17.4350  -28.3200 C   0  0  0  0  0  0  0  0  0  0  0  0
   -0.5078   17.1485  -29.0858 H   0  0  0  0  0  0  0  0  0  0  0  0
    0.4364   16.6136  -27.6187 H   0  0  0  0  0  0  0  0  0  0  0  0
   -0.3520   18.6050  -27.4960 C   0  0  0  0  0  0  0  0  0  0  0  0
   -1.4475   18.6070  -27.5951 H   0  0  0  0  0  0  0  0  0  0  0  0
   -0.0617   18.4715  -26.4434 H   0  0  0  0  0  0  0  0  0  0  0  0
   -0.1860   22.2850  -28.4510 C   0  0  0  0  0  0  0  0  0  0  0  0
    0.8992   22.4515  -28.3835 H   0  0  0  0  0  0  0  0  0  0  0  0
   -1.0400   23.3680  -28.7360 C   0  0  0  0  0  0  0  0  0  0  0  0
   -0.5530   24.6780  -28.8780 O   0  0  0  0  0  0  0  0  0  0  0  0
   -0.5680   25.6680  -27.8550 C   0  0  0  0  0  0  0  0  0  0  0  0
   -0.5606   25.1778  -26.8703 H   0  0  0  0  0  0  0  0  0  0  0  0
    0.3205   26.3091  -27.9522 H   0  0  0  0  0  0  0  0  0  0  0  0
   -1.4756   26.2819  -27.9522 H   0  0  0  0  0  0  0  0  0  0  0  0
   -2.4270   23.1390  -28.8590 C   0  0  0  0  0  0  0  0  0  0  0  0
   -3.3400   24.2090  -29.1530 N   0  0  0  0  0  0  0  0  0  0  0  0
   -4.4680   24.0730  -29.7870 C   0  0  0  0  0  0  0  0  0  0  0  0
   -4.9300   22.8400  -30.1390 N   0  0  0  0  0  0  0  0  0  0  0  0
   -6.0800   22.6700  -30.8410 C   0  0  0  0  0  0  0  0  0  0  0  0
   -6.4930   21.3480  -31.2020 N   0  0  0  0  0  0  0  0  0  0  0  0
   -7.2380   20.8980  -30.6240 H   0  0  0  0  0  0  0  0  0  0  0  0
   -5.8070   20.5520  -32.1840 C   0  0  0  0  0  0  0  0  0  0  0  0
   -6.4380   19.4190  -32.7170 C   0  0  0  0  0  0  0  0  0  0  0  0
   -7.4651   19.1710  -32.4111 H   0  0  0  0  0  0  0  0  0  0  0  0
   -5.7710   18.6030  -33.6340 C   0  0  0  0  0  0  0  0  0  0  0  0
   -6.3920   17.5090  -34.1430 F   0  0  0  0  0  0  0  0  0  0  0  0
   -4.4600   18.9010  -34.0140 C   0  0  0  0  0  0  0  0  0  0  0  0
   -3.9373   18.2537  -34.7335 H   0  0  0  0  0  0  0  0  0  0  0  0
   -3.8080   20.0230  -33.4810 C   0  0  0  0  0  0  0  0  0  0  0  0
   -2.3740   20.3190  -33.8380 C   0  0  0  0  0  0  0  0  0  0  0  0
   -2.1978   21.4005  -33.7414 H   0  0  0  0  0  0  0  0  0  0  0  0
   -2.1999   19.9839  -34.8711 H   0  0  0  0  0  0  0  0  0  0  0  0
   -1.4320   19.5970  -32.9510 N   0  0  0  0  0  0  0  0  0  0  0  0
   -0.0790   19.4100  -33.5410 C   0  0  0  0  0  0  0  0  0  0  0  0
    0.0737   20.1914  -34.3000 H   0  0  0  0  0  0  0  0  0  0  0  0
   -0.0613   18.3911  -33.9551 H   0  0  0  0  0  0  0  0  0  0  0  0
    1.0810   19.4870  -32.5370 C   0  0  0  0  0  0  0  0  0  0  0  0
    0.6815   19.4605  -31.5124 H   0  0  0  0  0  0  0  0  0  0  0  0
    1.7556   18.6317  -32.6898 H   0  0  0  0  0  0  0  0  0  0  0  0
    1.6366   20.4240  -32.6898 H   0  0  0  0  0  0  0  0  0  0  0  0
   -1.4230   20.1940  -31.5960 C   0  0  0  0  0  0  0  0  0  0  0  0
   -2.3648   19.9384  -31.0884 H   0  0  0  0  0  0  0  0  0  0  0  0
   -0.5569   19.7903  -31.0511 H   0  0  0  0  0  0  0  0  0  0  0  0
   -1.2850   21.7150  -31.6450 C   0  0  0  0  0  0  0  0  0  0  0  0
   -1.2489   22.1131  -30.6202 H   0  0  0  0  0  0  0  0  0  0  0  0
   -0.3589   21.9823  -32.1750 H   0  0  0  0  0  0  0  0  0  0  0  0
   -2.1479   22.1446  -32.1750 H   0  0  0  0  0  0  0  0  0  0  0  0
   -4.4860   20.8470  -32.5710 C   0  0  0  0  0  0  0  0  0  0  0  0
   -3.9811   21.7317  -32.1559 H   0  0  0  0  0  0  0  0  0  0  0  0
   -6.8410   23.7880  -31.2080 C   0  0  0  0  0  0  0  0  0  0  0  0
   -7.9970   23.6420  -31.9050 F   0  0  0  0  0  0  0  0  0  0  0  0
   -6.4100   25.0610  -30.8300 C   0  0  0  0  0  0  0  0  0  0  0  0
   -7.0053   25.9465  -31.0977 H   0  0  0  0  0  0  0  0  0  0  0  0
   -5.2210   25.2080  -30.1110 C   0  0  0  0  0  0  0  0  0  0  0  0
   -4.8795   26.2070  -29.8021 H   0  0  0  0  0  0  0  0  0  0  0  0
  1  2  1  0
  2  3  2  0
  3  4  1  0
  3  5  1  0
  5  6  1  0
  6  7  1  0
  7  8  1  0
  7  9  1  0
  7 10  1  0
 10 11  1  0
 10 12  1  0
 10 13  1  0
 13 14  1  0
 13 15  1  0
 15 16  1  0
 15 17  1  0
 15 18  1  0
 13 19  1  0
 19 20  1  0
 19 21  1  0
 19 22  1  0
 22 23  1  0
 22 24  1  0
  5 25  2  0
 25 26  1  0
 25 27  1  0
 27 28  1  0
 28 29  1  0
 29 30  1  0
 29 31  1  0
 29 32  1  0
 27 33  2  0
 33 34  1  0
 34 35  2  0
 35 36  1  0
 36 37  1  0
 37 38  1  0
 38 39  1  0
 38 40  1  0
 40 41  2  0
 41 42  1  0
 41 43  1  0
 43 44  1  0
 43 45  2  0
 45 46  1  0
 45 47  1  0
 47 48  1  0
 48 49  1  0
 48 50  1  0
 48 51  1  0
 51 52  1  0
 52 53  1  0
 52 54  1  0
 52 55  1  0
 55 56  1  0
 55 57  1  0
 55 58  1  0
 51 59  1  0
 59 60  1  0
 59 61  1  0
 59 62  1  0
 62 63  1  0
 62 64  1  0
 62 65  1  0
 47 66  2  0
 66 67  1  0
 37 68  2  0
 68 69  1  0
 68 70  1  0
 70 71  1  0
 70 72  2  0
 72 73  1  0
 33  2  1  0
 72 35  1  0
 22  6  1  0
 66 40  1  0
M  CHG  2  13   1  36  -1
M  END
>  <UniqueID>  (7) 
7

>  <SMILES>  (7) 
CCN(CC)Cc1cc(F)cc(Nc2[n-]/c(=N\c3ccc(N4CC[NH+](C)CC4)cc3OC)ccc2F)c1

>  <Energy>  (7) 
99.25092056123685

>  <Genealogy>  (7) 
CCN(CC)Cc1cc(F)cc(Nc2[n-]c(=Nc3ccc(N4CC[NH+](C)CC4)cc3OC)ccc2F)c1 (protonated)
CCN(CC)Cc1cc(F)cc(Nc2[n-]/c(=N\c3ccc(N4CC[NH+](C)CC4)cc3OC)ccc2F)c1 (cis-trans isomerization)
CCN(CC)Cc1cc(F)cc(Nc2[n-]/c(=N\c3ccc(N4CC[NH+](C)CC4)cc3OC)ccc2F)c1 (3D coordinates assigned)
CCN(CC)Cc1cc(F)cc(Nc2[n-]/c(=N\c3ccc(N4CC[NH+](C)CC4)cc3OC)ccc2F)c1 (nonaromatic ring conformer: 99.25092056123685 kcal/mol)

>  <smiles>  (7) 
CCN(CC)Cc1cc(F)cc(Nc2[nH]c(=Nc3ccc(N4CCN(C)CC4)cc3OC)ccc2F)c1

>  <score_type>  (7) 
oracle

>  <origin>  (7) 
adgpu

>  <m_score__min__energy>  (7) 
-9.1799999999999997

>  <m_primary>  (7) 
energy

$$$$
7:0
     RDKit          3D

 22 23  0  0  0  0  0  0  0  0999 V2000
   -4.3100   25.6860  -30.8290 O   0  0  0  0  0  0  0  0  0  0  0  0
   -3.8980   24.8030  -30.0300 C   0  0  0  0  0  0  0  0  0  0  0  0
   -2.6320   24.8750  -29.5350 N   0  0  0  0  0  0  0  0  0  0  0  0
   -2.1660   23.9270  -28.6730 C   0  0  0  0  0  0  0  0  0  0  0  0
   -0.6440   24.0220  -28.0830 S   0  0  0  0  0  0  0  0  0  0  0  0
   -2.9650   22.8940  -28.3010 N   0  0  0  0  0  0  0  0  0  0  0  0
   -4.2340   22.7850  -28.7710 C   0  0  0  0  0  0  0  0  0  0  0  0
   -4.7370   23.7470  -29.6490 C   0  0  0  0  0  0  0  0  0  0  0  0
   -6.4170   23.6070  -30.2720 S   0  0  0  0  0  0  0  0  0  0  0  0
   -5.9800   22.3200  -31.4420 C   0  0  0  0  0  0  0  0  0  0  0  0
   -6.9070   21.3190  -31.7620 C   0  0  0  0  0  0  0  0  0  0  0  0
   -6.5680   20.3170  -32.6770 C   0  0  0  0  0  0  0  0  0  0  0  0
   -5.3020   20.3100  -33.2700 C   0  0  0  0  0  0  0  0  0  0  0  0
   -4.3740   21.3050  -32.9480 C   0  0  0  0  0  0  0  0  0  0  0  0
   -4.7110   22.3090  -32.0340 C   0  0  0  0  0  0  0  0  0  0  0  0
   -2.0150   25.6680  -29.8230 H   0  0  0  0  0  0  0  0  0  0  0  0
   -4.8654   21.9395  -28.4603 H   0  0  0  0  0  0  0  0  0  0  0  0
   -7.9021   21.3213  -31.2932 H   0  0  0  0  0  0  0  0  0  0  0  0
   -7.2979   19.5340  -32.9302 H   0  0  0  0  0  0  0  0  0  0  0  0
   -5.0360   19.5218  -33.9898 H   0  0  0  0  0  0  0  0  0  0  0  0
   -3.3776   21.2983  -33.4140 H   0  0  0  0  0  0  0  0  0  0  0  0
   -3.9790   23.0899  -31.7803 H   0  0  0  0  0  0  0  0  0  0  0  0
  1  2  2  0
  2  3  1  0
  3  4  1  0
  4  5  2  0
  4  6  1  0
  6  7  1  0
  7  8  2  0
  8  9  1  0
  9 10  1  0
 10 11  2  0
 11 12  1  0
 12 13  2  0
 13 14  1  0
 14 15  2  0
  8  2  1  0
 15 10  1  0
  3 16  1  0
  7 17  1  0
 11 18  1  0
 12 19  1  0
 13 20  1  0
 14 21  1  0
 15 22  1  0
M  CHG  1   6  -1
M  END
>  <UniqueID>  (8) 
8

>  <SMILES>  (8) 
O=c1[nH]c(=S)[n-]cc1Sc1ccccc1

>  <Energy>  (8) 
19.94417411026118

>  <Genealogy>  (8) 
O=c1[nH]c(=S)[n-]cc1Sc1ccccc1 (protonated)
O=c1[nH]c(=S)[n-]cc1Sc1ccccc1 (3D coordinates assigned)
O=c1[nH]c(=S)[n-]cc1Sc1ccccc1 (optimized conformer: 19.94417411026118 kcal/mol)

>  <smiles>  (8) 
O=c1[nH]c(=S)[nH]cc1Sc1ccccc1

>  <score_type>  (8) 
oracle

>  <origin>  (8) 
adgpu

>  <m_score__min__energy>  (8) 
-7.7300000000000004

>  <m_primary>  (8) 
energy

$$$$
8:0
     RDKit          3D

 38 40  0  0  0  0  0  0  0  0999 V2000
   -5.2350   14.4670  -33.6730 C   0  0  0  0  0  0  0  0  0  0  0  0
   -6.3700   15.3240  -34.2230 C   0  0  0  0  0  0  0  0  0  0  0  0
   -6.2480   16.7430  -33.7390 C   0  0  0  0  0  0  0  0  0  0  0  0
   -5.8360   17.7580  -34.6160 C   0  0  0  0  0  0  0  0  0  0  0  0
   -5.6930   19.0720  -34.1590 C   0  0  0  0  0  0  0  0  0  0  0  0
   -5.9410   19.3870  -32.8110 C   0  0  0  0  0  0  0  0  0  0  0  0
   -5.8190   20.7410  -32.3330 N   0  0  0  0  0  0  0  0  0  0  0  0
   -6.9400   21.4630  -32.1860 N   0  0  0  0  0  0  0  0  0  0  0  0
   -6.9240   22.7510  -31.7360 C   0  0  0  0  0  0  0  0  0  0  0  0
   -8.2190   23.4960  -31.6490 C   0  0  0  0  0  0  0  0  0  0  0  0
   -5.7120   23.3040  -31.4360 N   0  0  0  0  0  0  0  0  0  0  0  0
   -5.2770   24.5050  -30.9760 C   0  0  0  0  0  0  0  0  0  0  0  0
   -6.1150   25.6730  -30.5430 C   0  0  0  0  0  0  0  0  0  0  0  0
   -6.3140   25.6630  -29.0300 C   0  0  0  0  0  0  0  0  0  0  0  0
   -3.9330   24.5000  -30.8350 N   0  0  0  0  0  0  0  0  0  0  0  0
   -3.4910   23.3080  -31.2130 N   0  0  0  0  0  0  0  0  0  0  0  0
   -4.5780   22.6030  -31.5700 C   0  0  0  0  0  0  0  0  0  0  0  0
   -4.6010   21.2880  -32.0160 C   0  0  0  0  0  0  0  0  0  0  0  0
   -3.5330   20.6230  -32.1000 O   0  0  0  0  0  0  0  0  0  0  0  0
   -6.3570   18.3710  -31.9370 C   0  0  0  0  0  0  0  0  0  0  0  0
   -6.5000   17.0570  -32.3930 C   0  0  0  0  0  0  0  0  0  0  0  0
   -5.2606   14.4863  -32.5735 H   0  0  0  0  0  0  0  0  0  0  0  0
   -5.3540   13.4315  -34.0244 H   0  0  0  0  0  0  0  0  0  0  0  0
   -4.2716   14.8650  -34.0244 H   0  0  0  0  0  0  0  0  0  0  0  0
   -6.3307   15.3129  -35.3222 H   0  0  0  0  0  0  0  0  0  0  0  0
   -7.3270   14.9115  -33.8709 H   0  0  0  0  0  0  0  0  0  0  0  0
   -5.6244   17.5188  -35.6686 H   0  0  0  0  0  0  0  0  0  0  0  0
   -5.3848   19.8636  -34.8579 H   0  0  0  0  0  0  0  0  0  0  0  0
   -8.4840   23.6485  -30.5923 H   0  0  0  0  0  0  0  0  0  0  0  0
   -8.1146   24.4721  -32.1454 H   0  0  0  0  0  0  0  0  0  0  0  0
   -9.0103   22.9151  -32.1454 H   0  0  0  0  0  0  0  0  0  0  0  0
   -5.6115   26.6065  -30.8348 H   0  0  0  0  0  0  0  0  0  0  0  0
   -7.0990   25.6018  -31.0295 H   0  0  0  0  0  0  0  0  0  0  0  0
   -5.3349   25.7122  -28.5311 H   0  0  0  0  0  0  0  0  0  0  0  0
   -6.9203   26.5318  -28.7342 H   0  0  0  0  0  0  0  0  0  0  0  0
   -6.8302   24.7378  -28.7342 H   0  0  0  0  0  0  0  0  0  0  0  0
   -6.5722   18.6102  -30.8851 H   0  0  0  0  0  0  0  0  0  0  0  0
   -6.8111   16.2658  -31.6950 H   0  0  0  0  0  0  0  0  0  0  0  0
  1  2  1  0
  2  3  1  0
  3  4  2  0
  4  5  1  0
  5  6  2  0
  6  7  1  0
  7  8  1  0
  8  9  2  0
  9 10  1  0
  9 11  1  0
 11 12  1  0
 12 13  1  0
 13 14  1  0
 12 15  2  0
 15 16  1  0
 16 17  2  0
 17 18  1  0
 18 19  2  0
  6 20  1  0
 20 21  2  0
 21  3  1  0
 18  7  1  0
 17 11  1  0
  1 22  1  0
  1 23  1  0
  1 24  1  0
  2 25  1  0
  2 26  1  0
  4 27  1  0
  5 28  1  0
 10 29  1  0
 10 30  1  0
 10 31  1  0
 13 32  1  0
 13 33  1  0
 14 34  1  0
 14 35  1  0
 14 36  1  0
 20 37  1  0
 21 38  1  0
M  END
>  <UniqueID>  (9) 
9

>  <SMILES>  (9) 
CCc1ccc(-n2nc(C)n3c(CC)nnc3c2=O)cc1

>  <Energy>  (9) 
85.68004703481735

>  <Genealogy>  (9) 
CCc1ccc(-n2nc(C)n3c(CC)nnc3c2=O)cc1 (3D coordinates assigned)
CCc1ccc(-n2nc(C)n3c(CC)nnc3c2=O)cc1 (optimized conformer: 85.68004703481735 kcal/mol)

>  <smiles>  (9) 
CCc1ccc(-n2nc(C)n3c(CC)nnc3c2=O)cc1

>  <score_type>  (9) 
oracle

>  <origin>  (9) 
adgpu

>  <m_score__min__energy>  (9) 
-7.7400000000000002

>  <m_primary>  (9) 
energy

$$$$
9:0
     RDKit          3D

 41 43  0  0  0  0  0  0  0  0999 V2000
   -7.2286   19.4561  -33.1602 H   0  0  0  0  0  0  0  0  0  0  0  0
   -6.6470   20.3080  -32.7780 C   0  0  0  0  0  0  0  0  0  0  0  0
   -5.2760   20.3900  -33.0350 C   0  0  0  0  0  0  0  0  0  0  0  0
   -4.7808   19.6072  -33.6283 H   0  0  0  0  0  0  0  0  0  0  0  0
   -4.5320   21.4660  -32.5390 C   0  0  0  0  0  0  0  0  0  0  0  0
   -3.4560   21.5358  -32.7566 H   0  0  0  0  0  0  0  0  0  0  0  0
   -5.1580   22.4610  -31.7610 C   0  0  0  0  0  0  0  0  0  0  0  0
   -4.4370   23.5980  -31.2590 N   0  0  0  0  0  0  0  0  0  0  0  0
   -3.4370   23.5810  -30.4240 C   0  0  0  0  0  0  0  0  0  0  0  0
   -3.0250   22.4180  -29.8510 N   0  0  0  0  0  0  0  0  0  0  0  0
   -2.0010   22.3790  -28.9580 C   0  0  0  0  0  0  0  0  0  0  0  0
   -1.5950   21.0750  -28.3750 C   0  0  0  0  0  0  0  0  0  0  0  0
   -0.4310   20.4350  -28.8370 C   0  0  0  0  0  0  0  0  0  0  0  0
    0.1755   20.9090  -29.6228 H   0  0  0  0  0  0  0  0  0  0  0  0
   -0.0370   19.2030  -28.3080 C   0  0  0  0  0  0  0  0  0  0  0  0
    0.8797   18.7192  -28.6762 H   0  0  0  0  0  0  0  0  0  0  0  0
   -0.7990   18.5800  -27.3140 C   0  0  0  0  0  0  0  0  0  0  0  0
   -0.3610   17.3440  -26.8150 O   0  0  0  0  0  0  0  0  0  0  0  0
    0.7100   16.5870  -27.3690 C   0  0  0  0  0  0  0  0  0  0  0  0
    1.3154   16.1591  -26.5563 H   0  0  0  0  0  0  0  0  0  0  0  0
    0.3027   15.7751  -27.9894 H   0  0  0  0  0  0  0  0  0  0  0  0
    1.3395   17.2419  -27.9894 H   0  0  0  0  0  0  0  0  0  0  0  0
   -1.9720   19.2070  -26.8560 C   0  0  0  0  0  0  0  0  0  0  0  0
   -2.5820   18.7246  -26.0781 H   0  0  0  0  0  0  0  0  0  0  0  0
   -2.3670   20.4400  -27.3840 C   0  0  0  0  0  0  0  0  0  0  0  0
   -3.2891   20.9180  -27.0218 H   0  0  0  0  0  0  0  0  0  0  0  0
   -1.3480   23.5750  -28.6250 C   0  0  0  0  0  0  0  0  0  0  0  0
   -0.5047   23.5721  -27.9187 H   0  0  0  0  0  0  0  0  0  0  0  0
   -1.7860   24.7760  -29.2060 C   0  0  0  0  0  0  0  0  0  0  0  0
   -1.1580   26.0350  -28.8970 N   0  0  0  0  0  0  0  0  0  0  0  0
   -1.1500   26.7830  -29.6270 H   0  0  0  0  0  0  0  0  0  0  0  0
   -0.5350   26.3350  -27.6130 C   0  0  0  0  0  0  0  0  0  0  0  0
   -1.2011   26.0143  -26.7984 H   0  0  0  0  0  0  0  0  0  0  0  0
    0.4227   25.7993  -27.5360 H   0  0  0  0  0  0  0  0  0  0  0  0
   -0.3567   27.4177  -27.5360 H   0  0  0  0  0  0  0  0  0  0  0  0
   -2.8260   24.7490  -30.0870 N   0  0  0  0  0  0  0  0  0  0  0  0
   -3.1550   25.6420  -30.5190 H   0  0  0  0  0  0  0  0  0  0  0  0
   -6.5390   22.3860  -31.5380 C   0  0  0  0  0  0  0  0  0  0  0  0
   -7.0444   23.1796  -30.9682 H   0  0  0  0  0  0  0  0  0  0  0  0
   -7.2790   21.3090  -32.0350 C   0  0  0  0  0  0  0  0  0  0  0  0
   -8.3601   21.2493  -31.8410 H   0  0  0  0  0  0  0  0  0  0  0  0
  1  2  1  0
  2  3  2  0
  3  4  1  0
  3  5  1  0
  5  6  1  0
  5  7  2  0
  7  8  1  0
  8  9  2  0
  9 10  1  0
 10 11  2  0
 11 12  1  0
 12 13  2  0
 13 14  1  0
 13 15  1  0
 15 16  1  0
 15 17  2  0
 17 18  1  0
 18 19  1  0
 19 20  1  0
 19 21  1  0
 19 22  1  0
 17 23  1  0
 23 24  1  0
 23 25  2  0
 25 26  1  0
 11 27  1  0
 27 28  1  0
 27 29  2  0
 29 30  1  0
 30 31  1  0
 30 32  1  0
 32 33  1  0
 32 34  1  0
 32 35  1  0
 29 36  1  0
 36 37  1  0
  7 38  1  0
 38 39  1  0
 38 40  2  0
 40 41  1  0
 40  2  1  0
 36  9  1  0
 25 12  1  0
M  END
>  <UniqueID>  (10) 
10

>  <SMILES>  (10) 
CNc1cc(-c2ccc(OC)cc2)n/c(=N\c2ccccc2)[nH]1

>  <Energy>  (10) 
51.464954084025635

>  <Genealogy>  (10) 
CNc1cc(-c2ccc(OC)cc2)n/c(=N\c2ccccc2)[nH]1 (cis-trans isomerization)
CNc1cc(-c2ccc(OC)cc2)n/c(=N\c2ccccc2)[nH]1 (3D coordinates assigned)
CNc1cc(-c2ccc(OC)cc2)n/c(=N\c2ccccc2)[nH]1 (optimized conformer: 51.464954084025635 kcal/mol)

>  <smiles>  (10) 
CNc1cc(-c2ccc(OC)cc2)nc(=Nc2ccccc2)[nH]1

>  <score_type>  (10) 
oracle

>  <origin>  (10) 
adgpu

>  <m_score__min__energy>  (10) 
-7.7300000000000004

>  <m_primary>  (10) 
energy

$$$$
10:0
     RDKit          3D

 37 39  0  0  0  0  0  0  0  0999 V2000
    0.9840   24.5500  -28.3310 N   0  0  0  0  0  0  0  0  0  0  0  0
    0.3780   23.7350  -27.2830 C   0  0  0  0  0  0  0  0  0  0  0  0
   -1.0040   24.2420  -26.9750 C   0  0  0  0  0  0  0  0  0  0  0  0
   -1.2270   25.0470  -25.8480 C   0  0  0  0  0  0  0  0  0  0  0  0
   -2.5080   25.5290  -25.5710 C   0  0  0  0  0  0  0  0  0  0  0  0
   -3.5710   25.2280  -26.4260 C   0  0  0  0  0  0  0  0  0  0  0  0
   -3.3600   24.4580  -27.5790 C   0  0  0  0  0  0  0  0  0  0  0  0
   -4.4740   24.1540  -28.4370 N   0  0  0  0  0  0  0  0  0  0  0  0
   -4.4480   24.2990  -29.8660 C   0  0  0  0  0  0  0  0  0  0  0  0
   -3.5270   24.9580  -30.4220 O   0  0  0  0  0  0  0  0  0  0  0  0
   -5.5190   23.7120  -30.6920 C   0  0  0  0  0  0  0  0  0  0  0  0
   -6.4840   24.4740  -31.3470 C   0  0  0  0  0  0  0  0  0  0  0  0
   -7.4920   23.4150  -32.1720 S   0  0  0  0  0  0  0  0  0  0  0  0
   -6.6740   22.0300  -31.6660 C   0  0  0  0  0  0  0  0  0  0  0  0
   -7.0050   20.6280  -32.0360 C   0  0  0  0  0  0  0  0  0  0  0  0
   -8.2240   20.0530  -31.6130 C   0  0  0  0  0  0  0  0  0  0  0  0
   -9.1040   20.7530  -30.8520 F   0  0  0  0  0  0  0  0  0  0  0  0
   -8.5440   18.7360  -31.9550 C   0  0  0  0  0  0  0  0  0  0  0  0
   -7.6620   17.9740  -32.7220 C   0  0  0  0  0  0  0  0  0  0  0  0
   -6.4560   18.5280  -33.1510 C   0  0  0  0  0  0  0  0  0  0  0  0
   -6.1240   19.8440  -32.8160 C   0  0  0  0  0  0  0  0  0  0  0  0
   -4.9530   20.3470  -33.2810 F   0  0  0  0  0  0  0  0  0  0  0  0
   -5.6290   22.3670  -30.8750 N   0  0  0  0  0  0  0  0  0  0  0  0
   -2.0730   23.9540  -27.8410 C   0  0  0  0  0  0  0  0  0  0  0  0
    1.8300   25.0180  -27.9320 H   0  0  0  0  0  0  0  0  0  0  0  0
    0.3080   25.3120  -28.5710 H   0  0  0  0  0  0  0  0  0  0  0  0
    0.3160   22.6907  -27.6231 H   0  0  0  0  0  0  0  0  0  0  0  0
    0.9962   23.7944  -26.3751 H   0  0  0  0  0  0  0  0  0  0  0  0
   -0.3901   25.2994  -25.1803 H   0  0  0  0  0  0  0  0  0  0  0  0
   -2.6805   26.1471  -24.6776 H   0  0  0  0  0  0  0  0  0  0  0  0
   -4.5806   25.5975  -26.1932 H   0  0  0  0  0  0  0  0  0  0  0  0
   -5.3790   23.8970  -27.9830 H   0  0  0  0  0  0  0  0  0  0  0  0
   -6.5699   25.5705  -31.3272 H   0  0  0  0  0  0  0  0  0  0  0  0
   -9.4953   18.2984  -31.6180 H   0  0  0  0  0  0  0  0  0  0  0  0
   -7.9175   16.9377  -32.9880 H   0  0  0  0  0  0  0  0  0  0  0  0
   -5.7623   17.9261  -33.7563 H   0  0  0  0  0  0  0  0  0  0  0  0
   -1.9019   23.3297  -28.7304 H   0  0  0  0  0  0  0  0  0  0  0  0
  1  2  1  0
  2  3  1  0
  3  4  2  0
  4  5  1  0
  5  6  2  0
  6  7  1  0
  7  8  1  0
  8  9  1  0
  9 10  2  0
  9 11  1  0
 11 12  2  0
 12 13  1  0
 13 14  1  0
 14 15  1  0
 15 16  2  0
 16 17  1  0
 16 18  1  0
 18 19  2  0
 19 20  1  0
 20 21  2  0
 21 22  1  0
 14 23  2  0
  7 24  2  0
 24  3  1  0
 23 11  1  0
 21 15  1  0
  1 25  1  0
  1 26  1  0
  2 27  1  0
  2 28  1  0
  4 29  1  0
  5 30  1  0
  6 31  1  0
  8 32  1  0
 12 33  1  0
 18 34  1  0
 19 35  1  0
 20 36  1  0
 24 37  1  0
M  END
>  <UniqueID>  (11) 
11

>  <SMILES>  (11) 
NCc1cccc(NC(=O)c2csc(-c3c(F)cccc3F)n2)c1

>  <Energy>  (11) 
74.03293336125111

>  <Genealogy>  (11) 
NCc1cccc(NC(=O)c2csc(-c3c(F)cccc3F)n2)c1 (3D coordinates assigned)
NCc1cccc(NC(=O)c2csc(-c3c(F)cccc3F)n2)c1 (optimized conformer: 74.03293336125111 kcal/mol)

>  <smiles>  (11) 
NCc1cccc(NC(=O)c2csc(-c3c(F)cccc3F)n2)c1

>  <score_type>  (11) 
oracle

>  <origin>  (11) 
adgpu

>  <m_score__min__energy>  (11) 
-8.9600000000000009

>  <m_primary>  (11) 
energy

$$$$
11:0
     RDKit          3D

 30 31  0  0  0  0  0  0  0  0999 V2000
   -4.3980   21.2110  -32.5940 C   0  0  0  0  0  0  0  0  0  0  0  0
   -3.3280   22.2970  -31.5990 S   0  0  0  0  0  0  0  0  0  0  0  0
   -4.6990   23.2880  -30.9880 C   0  0  0  0  0  0  0  0  0  0  0  0
   -6.0090   22.8390  -31.1970 C   0  0  0  0  0  0  0  0  0  0  0  0
   -7.0920   23.5860  -30.7280 C   0  0  0  0  0  0  0  0  0  0  0  0
   -6.8700   24.7830  -30.0450 C   0  0  0  0  0  0  0  0  0  0  0  0
   -5.5670   25.2370  -29.8290 C   0  0  0  0  0  0  0  0  0  0  0  0
   -4.4680   24.4910  -30.2960 C   0  0  0  0  0  0  0  0  0  0  0  0
   -3.1160   24.9270  -30.0830 N   0  0  0  0  0  0  0  0  0  0  0  0
   -2.1480   24.5540  -28.6940 S   0  0  0  0  0  0  0  0  0  0  0  0
   -0.7550   25.0730  -28.9130 O   0  0  0  0  0  0  0  0  0  0  0  0
   -2.7410   25.2420  -27.4950 O   0  0  0  0  0  0  0  0  0  0  0  0
   -2.0710   22.8040  -28.4590 C   0  0  0  0  0  0  0  0  0  0  0  0
   -0.9200   22.0960  -28.8450 C   0  0  0  0  0  0  0  0  0  0  0  0
    0.1440   22.7440  -29.3830 F   0  0  0  0  0  0  0  0  0  0  0  0
   -0.8560   20.7100  -28.6740 C   0  0  0  0  0  0  0  0  0  0  0  0
   -1.9320   20.0220  -28.1110 C   0  0  0  0  0  0  0  0  0  0  0  0
   -3.0750   20.7180  -27.7130 C   0  0  0  0  0  0  0  0  0  0  0  0
   -3.1480   22.1050  -27.8810 C   0  0  0  0  0  0  0  0  0  0  0  0
   -4.2660   22.7580  -27.4730 F   0  0  0  0  0  0  0  0  0  0  0  0
   -5.0113   20.5885  -31.9259 H   0  0  0  0  0  0  0  0  0  0  0  0
   -5.0544   21.8245  -33.2286 H   0  0  0  0  0  0  0  0  0  0  0  0
   -3.7748   20.5638  -33.2286 H   0  0  0  0  0  0  0  0  0  0  0  0
   -6.1857   21.8945  -31.7325 H   0  0  0  0  0  0  0  0  0  0  0  0
   -8.1194   23.2312  -30.8968 H   0  0  0  0  0  0  0  0  0  0  0  0
   -7.7237   25.3703  -29.6759 H   0  0  0  0  0  0  0  0  0  0  0  0
   -5.3986   26.1818  -29.2915 H   0  0  0  0  0  0  0  0  0  0  0  0
    0.0449   20.1601  -28.9840 H   0  0  0  0  0  0  0  0  0  0  0  0
   -1.8794   18.9310  -27.9808 H   0  0  0  0  0  0  0  0  0  0  0  0
   -3.9204   20.1744  -27.2661 H   0  0  0  0  0  0  0  0  0  0  0  0
  1  2  1  0
  2  3  1  0
  3  4  2  0
  4  5  1  0
  5  6  2  0
  6  7  1  0
  7  8  2  0
  8  9  1  0
  9 10  1  0
 10 11  2  0
 10 12  2  0
 10 13  1  0
 13 14  2  0
 14 15  1  0
 14 16  1  0
 16 17  2  0
 17 18  1  0
 18 19  2  0
 19 20  1  0
  8  3  1  0
 19 13  1  0
  1 21  1  0
  1 22  1  0
  1 23  1  0
  4 24  1  0
  5 25  1  0
  6 26  1  0
  7 27  1  0
 16 28  1  0
 17 29  1  0
 18 30  1  0
M  CHG  1   9  -1
M  END
>  <UniqueID>  (12) 
12

>  <SMILES>  (12) 
CSc1ccccc1[N-]S(=O)(=O)c1c(F)cccc1F

>  <Energy>  (12) 
31.35164251354598

>  <Genealogy>  (12) 
CSc1ccccc1[N-]S(=O)(=O)c1c(F)cccc1F (protonated)
CSc1ccccc1[N-]S(=O)(=O)c1c(F)cccc1F (3D coordinates assigned)
CSc1ccccc1[N-]S(=O)(=O)c1c(F)cccc1F (optimized conformer: 31.35164251354598 kcal/mol)

>  <smiles>  (12) 
CSc1ccccc1NS(=O)(=O)c1c(F)cccc1F

>  <score_type>  (12) 
oracle

>  <origin>  (12) 
adgpu

>  <m_score__min__energy>  (12) 
-7.8200000000000003

>  <m_primary>  (12) 
energy

$$$$
12:0
     RDKit          3D

 35 37  0  0  0  0  0  0  0  0999 V2000
   -4.8590   17.8830  -34.6050 C   0  0  0  0  0  0  0  0  0  0  0  0
   -5.8070   18.4020  -33.6010 N   0  0  0  0  0  0  0  0  0  0  0  0
   -6.9680   17.7090  -33.3330 C   0  0  0  0  0  0  0  0  0  0  0  0
   -7.2370   16.6340  -33.9360 O   0  0  0  0  0  0  0  0  0  0  0  0
   -7.8790   18.1810  -32.3840 C   0  0  0  0  0  0  0  0  0  0  0  0
   -7.6190   19.3610  -31.7000 C   0  0  0  0  0  0  0  0  0  0  0  0
   -6.4510   20.0680  -31.9640 C   0  0  0  0  0  0  0  0  0  0  0  0
   -6.1980   21.2220  -31.2930 N   0  0  0  0  0  0  0  0  0  0  0  0
   -5.0710   21.9550  -31.5000 C   0  0  0  0  0  0  0  0  0  0  0  0
   -4.8740   23.1810  -30.7700 N   0  0  0  0  0  0  0  0  0  0  0  0
   -5.4710   24.4440  -31.2180 C   0  0  0  0  0  0  0  0  0  0  0  0
   -6.0440   25.2360  -30.0230 C   0  0  0  0  0  0  0  0  0  0  0  0
   -5.3830   24.9270  -28.7360 N   0  0  0  0  0  0  0  0  0  0  0  0
   -3.9770   24.5310  -28.9030 C   0  0  0  0  0  0  0  0  0  0  0  0
   -3.8890   23.2120  -29.6810 C   0  0  0  0  0  0  0  0  0  0  0  0
   -4.1440   21.5240  -32.4590 C   0  0  0  0  0  0  0  0  0  0  0  0
   -4.3720   20.3420  -33.1640 C   0  0  0  0  0  0  0  0  0  0  0  0
   -5.5370   19.5790  -32.9270 C   0  0  0  0  0  0  0  0  0  0  0  0
   -4.0042   17.4150  -34.0947 H   0  0  0  0  0  0  0  0  0  0  0  0
   -5.3642   17.1357  -35.2345 H   0  0  0  0  0  0  0  0  0  0  0  0
   -4.5016   18.7113  -35.2345 H   0  0  0  0  0  0  0  0  0  0  0  0
   -8.8015   17.6180  -32.1791 H   0  0  0  0  0  0  0  0  0  0  0  0
   -8.3340   19.7350  -30.9524 H   0  0  0  0  0  0  0  0  0  0  0  0
   -4.6999   25.0504  -31.7157 H   0  0  0  0  0  0  0  0  0  0  0  0
   -6.2908   24.2177  -31.9156 H   0  0  0  0  0  0  0  0  0  0  0  0
   -5.9225   26.3100  -30.2273 H   0  0  0  0  0  0  0  0  0  0  0  0
   -7.1003   24.9464  -29.9208 H   0  0  0  0  0  0  0  0  0  0  0  0
   -5.4240   25.7720  -28.1210 H   0  0  0  0  0  0  0  0  0  0  0  0
   -5.9020   24.1560  -28.2530 H   0  0  0  0  0  0  0  0  0  0  0  0
   -3.4413   25.3162  -29.4566 H   0  0  0  0  0  0  0  0  0  0  0  0
   -3.5214   24.3947  -27.9111 H   0  0  0  0  0  0  0  0  0  0  0  0
   -2.8792   23.1105  -30.1053 H   0  0  0  0  0  0  0  0  0  0  0  0
   -4.1003   22.3816  -28.9913 H   0  0  0  0  0  0  0  0  0  0  0  0
   -3.2384   22.1167  -32.6553 H   0  0  0  0  0  0  0  0  0  0  0  0
   -3.6390   20.0015  -33.9102 H   0  0  0  0  0  0  0  0  0  0  0  0
  1  2  1  0
  2  3  1  0
  3  4  2  0
  3  5  1  0
  5  6  2  0
  6  7  1  0
  7  8  2  0
  8  9  1  0
  9 10  1  0
 10 11  1  0
 11 12  1  0
 12 13  1  0
 13 14  1  0
 14 15  1  0
  9 16  2  0
 16 17  1  0
 17 18  2  0
 18  2  1  0
 18  7  1  0
 15 10  1  0
  1 19  1  0
  1 20  1  0
  1 21  1  0
  5 22  1  0
  6 23  1  0
 11 24  1  0
 11 25  1  0
 12 26  1  0
 12 27  1  0
 13 28  1  0
 13 29  1  0
 14 30  1  0
 14 31  1  0
 15 32  1  0
 15 33  1  0
 16 34  1  0
 17 35  1  0
M  CHG  1  13   1
M  END
>  <UniqueID>  (13) 
13

>  <SMILES>  (13) 
Cn1c(=O)ccc2nc(N3CC[NH2+]CC3)ccc21

>  <Energy>  (13) 
52.94686430719455

>  <Genealogy>  (13) 
Cn1c(=O)ccc2nc(N3CC[NH2+]CC3)ccc21 (protonated)
Cn1c(=O)ccc2nc(N3CC[NH2+]CC3)ccc21 (3D coordinates assigned)
Cn1c(=O)ccc2nc(N3CC[NH2+]CC3)ccc21 (nonaromatic ring conformer: 52.94686430719455 kcal/mol)

>  <smiles>  (13) 
Cn1c(=O)ccc2nc(N3CCNCC3)ccc21

>  <score_type>  (13) 
oracle

>  <origin>  (13) 
adgpu

>  <m_score__min__energy>  (13) 
-6.1399999999999997

>  <m_primary>  (13) 
energy

$$$$
13:0
     RDKit          3D

 37 40  0  0  0  0  0  0  0  0999 V2000
   -9.8980   20.8290  -32.2800 C   0  0  0  0  0  0  0  0  0  0  0  0
   -8.5840   20.2080  -32.1720 N   0  0  0  0  0  0  0  0  0  0  0  0
   -8.2580   19.0640  -32.7450 N   0  0  0  0  0  0  0  0  0  0  0  0
   -6.9540   18.8750  -32.4610 C   0  0  0  0  0  0  0  0  0  0  0  0
   -6.1800   17.7170  -32.9190 C   0  0  0  0  0  0  0  0  0  0  0  0
   -5.7290   16.6710  -32.1230 C   0  0  0  0  0  0  0  0  0  0  0  0
   -5.0170   15.7020  -32.8400 C   0  0  0  0  0  0  0  0  0  0  0  0
   -4.9070   15.9810  -34.1970 C   0  0  0  0  0  0  0  0  0  0  0  0
   -5.6960   17.4340  -34.5040 S   0  0  0  0  0  0  0  0  0  0  0  0
   -6.4260   19.8800  -31.7260 N   0  0  0  0  0  0  0  0  0  0  0  0
   -7.4860   20.6980  -31.5640 C   0  0  0  0  0  0  0  0  0  0  0  0
   -7.4020   22.0190  -30.8630 C   0  0  0  0  0  0  0  0  0  0  0  0
   -7.3430   23.3910  -32.0660 S   0  0  0  0  0  0  0  0  0  0  0  0
   -5.8910   24.1650  -31.3430 C   0  0  0  0  0  0  0  0  0  0  0  0
   -5.8740   25.4280  -30.8830 N   0  0  0  0  0  0  0  0  0  0  0  0
   -4.6130   25.6550  -30.5410 N   0  0  0  0  0  0  0  0  0  0  0  0
   -3.8770   24.5810  -30.7850 N   0  0  0  0  0  0  0  0  0  0  0  0
   -4.6550   23.6330  -31.2780 N   0  0  0  0  0  0  0  0  0  0  0  0
   -4.1900   22.3420  -31.7060 C   0  0  0  0  0  0  0  0  0  0  0  0
   -4.3680   21.9420  -33.0400 C   0  0  0  0  0  0  0  0  0  0  0  0
   -3.9150   20.6910  -33.4690 C   0  0  0  0  0  0  0  0  0  0  0  0
   -3.2710   19.8340  -32.5720 C   0  0  0  0  0  0  0  0  0  0  0  0
   -3.0730   20.2310  -31.2480 C   0  0  0  0  0  0  0  0  0  0  0  0
   -3.5240   21.4810  -30.8140 C   0  0  0  0  0  0  0  0  0  0  0  0
  -10.2981   21.0181  -31.2729 H   0  0  0  0  0  0  0  0  0  0  0  0
   -9.8101   21.7809  -32.8243 H   0  0  0  0  0  0  0  0  0  0  0  0
  -10.5776   20.1568  -32.8243 H   0  0  0  0  0  0  0  0  0  0  0  0
   -5.9127   16.6106  -31.0401 H   0  0  0  0  0  0  0  0  0  0  0  0
   -4.5853   14.8044  -32.3732 H   0  0  0  0  0  0  0  0  0  0  0  0
   -4.3918   15.3579  -34.9429 H   0  0  0  0  0  0  0  0  0  0  0  0
   -8.2854   22.1421  -30.2191 H   0  0  0  0  0  0  0  0  0  0  0  0
   -6.4820   22.0397  -30.2603 H   0  0  0  0  0  0  0  0  0  0  0  0
   -4.8666   22.6167  -33.7515 H   0  0  0  0  0  0  0  0  0  0  0  0
   -4.0655   20.3807  -34.5136 H   0  0  0  0  0  0  0  0  0  0  0  0
   -2.9204   18.8473  -32.9089 H   0  0  0  0  0  0  0  0  0  0  0  0
   -2.5607   19.5582  -30.5445 H   0  0  0  0  0  0  0  0  0  0  0  0
   -3.3578   21.7925  -29.7722 H   0  0  0  0  0  0  0  0  0  0  0  0
  1  2  1  0
  2  3  1  0
  3  4  2  0
  4  5  1  0
  5  6  2  0
  6  7  1  0
  7  8  2  0
  8  9  1  0
  4 10  1  0
 10 11  2  0
 11 12  1  0
 12 13  1  0
 13 14  1  0
 14 15  2  0
 15 16  1  0
 16 17  2  0
 17 18  1  0
 18 19  1  0
 19 20  2  0
 20 21  1  0
 21 22  2  0
 22 23  1  0
 23 24  2  0
 11  2  1  0
 18 14  1  0
 24 19  1  0
  9  5  1  0
  1 25  1  0
  1 26  1  0
  1 27  1  0
  6 28  1  0
  7 29  1  0
  8 30  1  0
 12 31  1  0
 12 32  1  0
 20 33  1  0
 21 34  1  0
 22 35  1  0
 23 36  1  0
 24 37  1  0
M  END
>  <UniqueID>  (14) 
14

>  <SMILES>  (14) 
Cn1nc(-c2cccs2)nc1CSc1nnnn1-c1ccccc1

>  <Energy>  (14) 
138.22542081247244

>  <Genealogy>  (14) 
Cn1nc(-c2cccs2)nc1CSc1nnnn1-c1ccccc1 (3D coordinates assigned)
Cn1nc(-c2cccs2)nc1CSc1nnnn1-c1ccccc1 (optimized conformer: 138.22542081247244 kcal/mol)

>  <smiles>  (14) 
Cn1nc(-c2cccs2)nc1CSc1nnnn1-c1ccccc1

>  <score_type>  (14) 
oracle

>  <origin>  (14) 
adgpu

>  <m_score__min__energy>  (14) 
-8.8399999999999999

>  <m_primary>  (14) 
energy

$$$$
14:0
     RDKit          3D

 33 35  0  0  0  0  0  0  0  0999 V2000
   -3.1450   22.3600  -31.9640 C   0  0  0  0  0  0  0  0  0  0  0  0
   -4.5290   22.7490  -31.5170 C   0  0  0  0  0  0  0  0  0  0  0  0
   -5.6250   21.9430  -31.8640 C   0  0  0  0  0  0  0  0  0  0  0  0
   -6.9160   22.3030  -31.4770 C   0  0  0  0  0  0  0  0  0  0  0  0
   -7.1260   23.4640  -30.7320 C   0  0  0  0  0  0  0  0  0  0  0  0
   -6.0480   24.2830  -30.3820 C   0  0  0  0  0  0  0  0  0  0  0  0
   -6.3680   25.6760  -29.3550 Cl  0  0  0  0  0  0  0  0  0  0  0  0
   -4.7410   23.9440  -30.7980 C   0  0  0  0  0  0  0  0  0  0  0  0
   -3.6140   24.7730  -30.4730 N   0  0  0  0  0  0  0  0  0  0  0  0
   -2.6580   24.5210  -29.4350 C   0  0  0  0  0  0  0  0  0  0  0  0
   -2.0470   25.4990  -28.9260 O   0  0  0  0  0  0  0  0  0  0  0  0
   -2.3880   23.1650  -28.9210 C   0  0  0  0  0  0  0  0  0  0  0  0
   -3.1660   22.4310  -28.0300 C   0  0  0  0  0  0  0  0  0  0  0  0
   -2.6640   21.2110  -27.7010 N   0  0  0  0  0  0  0  0  0  0  0  0
   -1.4830   20.9560  -28.3140 C   0  0  0  0  0  0  0  0  0  0  0  0
   -0.7230   19.7000  -28.1290 C   0  0  0  0  0  0  0  0  0  0  0  0
    0.4550   19.4660  -28.8580 C   0  0  0  0  0  0  0  0  0  0  0  0
    1.1680   18.2790  -28.6800 C   0  0  0  0  0  0  0  0  0  0  0  0
    0.6990   17.3300  -27.7730 C   0  0  0  0  0  0  0  0  0  0  0  0
   -0.4410   17.5630  -27.0720 N   0  0  0  0  0  0  0  0  0  0  0  0
   -1.1550   18.7120  -27.2270 C   0  0  0  0  0  0  0  0  0  0  0  0
   -1.0210   22.2550  -29.2850 S   0  0  0  0  0  0  0  0  0  0  0  0
   -2.5115   22.1819  -31.0825 H   0  0  0  0  0  0  0  0  0  0  0  0
   -3.1992   21.4423  -32.5680 H   0  0  0  0  0  0  0  0  0  0  0  0
   -2.7131   23.1716  -32.5680 H   0  0  0  0  0  0  0  0  0  0  0  0
   -5.4648   21.0224  -32.4443 H   0  0  0  0  0  0  0  0  0  0  0  0
   -7.7702   21.6703  -31.7597 H   0  0  0  0  0  0  0  0  0  0  0  0
   -8.1446   23.7363  -30.4185 H   0  0  0  0  0  0  0  0  0  0  0  0
   -4.1152   22.8095  -27.6229 H   0  0  0  0  0  0  0  0  0  0  0  0
    0.8169   20.2208  -29.5716 H   0  0  0  0  0  0  0  0  0  0  0  0
    2.0907   18.0944  -29.2498 H   0  0  0  0  0  0  0  0  0  0  0  0
    1.2528   16.3912  -27.6247 H   0  0  0  0  0  0  0  0  0  0  0  0
   -2.0744   18.8679  -26.6436 H   0  0  0  0  0  0  0  0  0  0  0  0
  1  2  1  0
  2  3  2  0
  3  4  1  0
  4  5  2  0
  5  6  1  0
  6  7  1  0
  6  8  2  0
  8  9  1  0
  9 10  1  0
 10 11  2  0
 10 12  1  0
 12 13  2  0
 13 14  1  0
 14 15  2  0
 15 16  1  0
 16 17  2  0
 17 18  1  0
 18 19  2  0
 19 20  1  0
 20 21  2  0
 15 22  1  0
  8  2  1  0
 22 12  1  0
 21 16  1  0
  1 23  1  0
  1 24  1  0
  1 25  1  0
  3 26  1  0
  4 27  1  0
  5 28  1  0
 13 29  1  0
 17 30  1  0
 18 31  1  0
 19 32  1  0
 21 33  1  0
M  CHG  1   9  -1
M  END
>  <UniqueID>  (15) 
15

>  <SMILES>  (15) 
Cc1cccc(Cl)c1[N-]C(=O)c1cnc(-c2cccnc2)s1

>  <Energy>  (15) 
75.58675946774775

>  <Genealogy>  (15) 
Cc1cccc(Cl)c1[N-]C(=O)c1cnc(-c2cccnc2)s1 (protonated)
Cc1cccc(Cl)c1[N-]C(=O)c1cnc(-c2cccnc2)s1 (3D coordinates assigned)
Cc1cccc(Cl)c1[N-]C(=O)c1cnc(-c2cccnc2)s1 (optimized conformer: 75.58675946774775 kcal/mol)

>  <smiles>  (15) 
Cc1cccc(Cl)c1NC(=O)c1cnc(-c2cccnc2)s1

>  <score_type>  (15) 
oracle

>  <origin>  (15) 
adgpu

>  <m_score__min__energy>  (15) 
-9.1099999999999994

>  <m_primary>  (15) 
energy

$$$$
15:0
     RDKit          3D

 28 30  0  0  0  0  0  0  0  0999 V2000
   -9.0190   18.9820  -31.5690 O   0  0  0  0  0  0  0  0  0  0  0  0
   -7.9260   19.5410  -31.8590 C   0  0  0  0  0  0  0  0  0  0  0  0
   -7.6400   20.8000  -31.3280 C   0  0  0  0  0  0  0  0  0  0  0  0
   -6.4290   21.4370  -31.6430 C   0  0  0  0  0  0  0  0  0  0  0  0
   -6.1240   22.7810  -31.0880 C   0  0  0  0  0  0  0  0  0  0  0  0
   -4.7920   23.2250  -30.9940 C   0  0  0  0  0  0  0  0  0  0  0  0
   -4.5030   24.4890  -30.4700 C   0  0  0  0  0  0  0  0  0  0  0  0
   -5.5370   25.3190  -30.0320 C   0  0  0  0  0  0  0  0  0  0  0  0
   -6.8630   24.8890  -30.1200 C   0  0  0  0  0  0  0  0  0  0  0  0
   -7.1580   23.6270  -30.6430 C   0  0  0  0  0  0  0  0  0  0  0  0
   -5.5370   20.8160  -32.4700 N   0  0  0  0  0  0  0  0  0  0  0  0
   -5.7860   19.5850  -33.0050 C   0  0  0  0  0  0  0  0  0  0  0  0
   -4.8450   18.9740  -33.8490 C   0  0  0  0  0  0  0  0  0  0  0  0
   -5.1000   17.7130  -34.3950 C   0  0  0  0  0  0  0  0  0  0  0  0
   -6.2950   17.0520  -34.1040 C   0  0  0  0  0  0  0  0  0  0  0  0
   -7.2420   17.6460  -33.2650 C   0  0  0  0  0  0  0  0  0  0  0  0
   -6.9980   18.9150  -32.7070 C   0  0  0  0  0  0  0  0  0  0  0  0
   -8.3637   21.2933  -30.6625 H   0  0  0  0  0  0  0  0  0  0  0  0
   -3.9733   22.5741  -31.3347 H   0  0  0  0  0  0  0  0  0  0  0  0
   -3.4593   24.8300  -30.4028 H   0  0  0  0  0  0  0  0  0  0  0  0
   -5.3072   26.3117  -29.6176 H   0  0  0  0  0  0  0  0  0  0  0  0
   -7.6767   25.5449  -29.7770 H   0  0  0  0  0  0  0  0  0  0  0  0
   -8.2040   23.2926  -30.7074 H   0  0  0  0  0  0  0  0  0  0  0  0
   -4.6270   21.2850  -32.6840 H   0  0  0  0  0  0  0  0  0  0  0  0
   -3.9021   19.4905  -34.0817 H   0  0  0  0  0  0  0  0  0  0  0  0
   -4.3579   17.2404  -35.0552 H   0  0  0  0  0  0  0  0  0  0  0  0
   -6.4919   16.0600  -34.5367 H   0  0  0  0  0  0  0  0  0  0  0  0
   -8.1814   17.1198  -33.0399 H   0  0  0  0  0  0  0  0  0  0  0  0
  1  2  2  0
  2  3  1  0
  3  4  2  0
  4  5  1  0
  5  6  2  0
  6  7  1  0
  7  8  2  0
  8  9  1  0
  9 10  2  0
  4 11  1  0
 11 12  1  0
 12 13  2  0
 13 14  1  0
 14 15  2  0
 15 16  1  0
 16 17  2  0
 17  2  1  0
 10  5  1  0
 17 12  1  0
  3 18  1  0
  6 19  1  0
  7 20  1  0
  8 21  1  0
  9 22  1  0
 10 23  1  0
 11 24  1  0
 13 25  1  0
 14 26  1  0
 15 27  1  0
 16 28  1  0
M  END
>  <UniqueID>  (16) 
16

>  <SMILES>  (16) 
O=c1cc(-c2ccccc2)[nH]c2ccccc12

>  <Energy>  (16) 
40.61295554784026

>  <Genealogy>  (16) 
O=c1cc(-c2ccccc2)[nH]c2ccccc12 (3D coordinates assigned)
O=c1cc(-c2ccccc2)[nH]c2ccccc12 (optimized conformer: 40.61295554784026 kcal/mol)

>  <smiles>  (16) 
O=c1cc(-c2ccccc2)[nH]c2ccccc12

>  <score_type>  (16) 
oracle

>  <origin>  (16) 
adgpu

>  <m_score__min__energy>  (16) 
-7.0800000000000001

>  <m_primary>  (16) 
energy

$$$$
16:0
     RDKit          3D

 32 34  0  0  0  0  0  0  0  0999 V2000
   -1.8080   25.5910  -28.9550 O   0  0  0  0  0  0  0  0  0  0  0  0
   -2.5050   24.6490  -29.4150 C   0  0  0  0  0  0  0  0  0  0  0  0
   -3.4930   24.9500  -30.4100 N   0  0  0  0  0  0  0  0  0  0  0  0
   -4.5960   24.1140  -30.7880 C   0  0  0  0  0  0  0  0  0  0  0  0
   -4.3410   22.9370  -31.4990 C   0  0  0  0  0  0  0  0  0  0  0  0
   -5.3890   22.0920  -31.8730 C   0  0  0  0  0  0  0  0  0  0  0  0
   -6.7180   22.4060  -31.5290 C   0  0  0  0  0  0  0  0  0  0  0  0
   -7.8030   21.5390  -31.9180 N   0  0  0  0  0  0  0  0  0  0  0  0
   -7.7130   20.2700  -32.3620 C   0  0  0  0  0  0  0  0  0  0  0  0
   -8.9870   19.8150  -32.6170 C   0  0  0  0  0  0  0  0  0  0  0  0
   -9.8780   20.7870  -32.3410 N   0  0  0  0  0  0  0  0  0  0  0  0
   -9.1240   21.8220  -31.9170 C   0  0  0  0  0  0  0  0  0  0  0  0
   -6.9670   23.5790  -30.7940 C   0  0  0  0  0  0  0  0  0  0  0  0
   -5.9160   24.4210  -30.4190 C   0  0  0  0  0  0  0  0  0  0  0  0
   -2.3200   23.2800  -28.8790 C   0  0  0  0  0  0  0  0  0  0  0  0
   -3.2870   22.7190  -28.0270 C   0  0  0  0  0  0  0  0  0  0  0  0
   -3.1190   21.4260  -27.5200 C   0  0  0  0  0  0  0  0  0  0  0  0
   -1.9920   20.6780  -27.8670 C   0  0  0  0  0  0  0  0  0  0  0  0
   -1.0310   21.2190  -28.7260 C   0  0  0  0  0  0  0  0  0  0  0  0
    0.0580   20.4880  -29.0710 F   0  0  0  0  0  0  0  0  0  0  0  0
   -1.1950   22.5110  -29.2350 C   0  0  0  0  0  0  0  0  0  0  0  0
   -3.3067   22.6743  -31.7660 H   0  0  0  0  0  0  0  0  0  0  0  0
   -5.1743   21.1745  -32.4405 H   0  0  0  0  0  0  0  0  0  0  0  0
   -6.7836   19.6974  -32.4971 H   0  0  0  0  0  0  0  0  0  0  0  0
   -9.2390   18.8111  -32.9893 H   0  0  0  0  0  0  0  0  0  0  0  0
   -9.5396   22.7913  -31.6043 H   0  0  0  0  0  0  0  0  0  0  0  0
   -7.9985   23.8363  -30.5116 H   0  0  0  0  0  0  0  0  0  0  0  0
   -6.1237   25.3280  -29.8323 H   0  0  0  0  0  0  0  0  0  0  0  0
   -4.1812   23.3001  -27.7573 H   0  0  0  0  0  0  0  0  0  0  0  0
   -3.8761   20.9977  -26.8467 H   0  0  0  0  0  0  0  0  0  0  0  0
   -1.8604   19.6629  -27.4643 H   0  0  0  0  0  0  0  0  0  0  0  0
   -0.4407   22.9294  -29.9177 H   0  0  0  0  0  0  0  0  0  0  0  0
  1  2  2  0
  2  3  1  0
  3  4  1  0
  4  5  2  0
  5  6  1  0
  6  7  2  0
  7  8  1  0
  8  9  1  0
  9 10  2  0
 10 11  1  0
 11 12  2  0
  7 13  1  0
 13 14  2  0
  2 15  1  0
 15 16  2  0
 16 17  1  0
 17 18  2  0
 18 19  1  0
 19 20  1  0
 19 21  2  0
 14  4  1  0
 21 15  1  0
 12  8  1  0
  5 22  1  0
  6 23  1  0
  9 24  1  0
 10 25  1  0
 12 26  1  0
 13 27  1  0
 14 28  1  0
 16 29  1  0
 17 30  1  0
 18 31  1  0
 21 32  1  0
M  CHG  1   3  -1
M  END
>  <UniqueID>  (17) 
17

>  <SMILES>  (17) 
O=C([N-]c1ccc(-n2ccnc2)cc1)c1cccc(F)c1

>  <Energy>  (17) 
74.30346989398817

>  <Genealogy>  (17) 
O=C([N-]c1ccc(-n2ccnc2)cc1)c1cccc(F)c1 (protonated)
O=C([N-]c1ccc(-n2ccnc2)cc1)c1cccc(F)c1 (3D coordinates assigned)
O=C([N-]c1ccc(-n2ccnc2)cc1)c1cccc(F)c1 (optimized conformer: 74.30346989398817 kcal/mol)

>  <smiles>  (17) 
O=C(Nc1ccc(-n2ccnc2)cc1)c1cccc(F)c1

>  <score_type>  (17) 
oracle

>  <origin>  (17) 
adgpu

>  <m_score__min__energy>  (17) 
-8.9199999999999999

>  <m_primary>  (17) 
energy

$$$$
17:0
     RDKit          3D

 37 39  0  0  0  0  0  0  0  0999 V2000
   -6.1060   17.0700  -31.1670 C   0  0  0  0  0  0  0  0  0  0  0  0
   -5.9750   17.8620  -32.3840 N   0  0  0  0  0  0  0  0  0  0  0  0
   -4.9180   17.8750  -33.2120 C   0  0  0  0  0  0  0  0  0  0  0  0
   -5.2250   18.6860  -34.2820 C   0  0  0  0  0  0  0  0  0  0  0  0
   -6.4750   19.1710  -34.1410 N   0  0  0  0  0  0  0  0  0  0  0  0
   -6.9050   18.6390  -32.9770 C   0  0  0  0  0  0  0  0  0  0  0  0
   -8.5480   18.9460  -32.3230 S   0  0  0  0  0  0  0  0  0  0  0  0
   -8.2340   20.6980  -32.0920 C   0  0  0  0  0  0  0  0  0  0  0  0
   -6.9290   21.1420  -31.8470 C   0  0  0  0  0  0  0  0  0  0  0  0
   -6.6600   22.5120  -31.6750 C   0  0  0  0  0  0  0  0  0  0  0  0
   -5.2790   22.9920  -31.4270 C   0  0  0  0  0  0  0  0  0  0  0  0
   -5.0410   24.2310  -31.4350 O   0  0  0  0  0  0  0  0  0  0  0  0
   -4.2010   22.0610  -31.2270 N   0  0  0  0  0  0  0  0  0  0  0  0
   -2.9530   22.4100  -30.6020 C   0  0  0  0  0  0  0  0  0  0  0  0
   -2.8680   23.4900  -29.7030 C   0  0  0  0  0  0  0  0  0  0  0  0
   -1.6520   23.8020  -29.0850 C   0  0  0  0  0  0  0  0  0  0  0  0
   -1.5460   25.2710  -27.8700 Br  0  0  0  0  0  0  0  0  0  0  0  0
   -0.5150   23.0320  -29.3490 C   0  0  0  0  0  0  0  0  0  0  0  0
   -0.5950   21.9470  -30.2260 C   0  0  0  0  0  0  0  0  0  0  0  0
   -1.8080   21.6310  -30.8450 C   0  0  0  0  0  0  0  0  0  0  0  0
   -1.8640   20.5740  -31.6940 F   0  0  0  0  0  0  0  0  0  0  0  0
   -7.7280   23.4260  -31.7230 C   0  0  0  0  0  0  0  0  0  0  0  0
   -9.0320   22.9800  -31.9530 C   0  0  0  0  0  0  0  0  0  0  0  0
   -9.2880   21.6190  -32.1380 C   0  0  0  0  0  0  0  0  0  0  0  0
  -10.5630   21.1990  -32.3370 F   0  0  0  0  0  0  0  0  0  0  0  0
   -5.9977   17.7249  -30.2899 H   0  0  0  0  0  0  0  0  0  0  0  0
   -7.0957   16.5903  -31.1464 H   0  0  0  0  0  0  0  0  0  0  0  0
   -5.3235   16.2972  -31.1464 H   0  0  0  0  0  0  0  0  0  0  0  0
   -3.9726   17.3330  -33.0620 H   0  0  0  0  0  0  0  0  0  0  0  0
   -4.5521   18.9049  -35.1242 H   0  0  0  0  0  0  0  0  0  0  0  0
   -6.1070   20.4133  -31.7885 H   0  0  0  0  0  0  0  0  0  0  0  0
   -4.2880   21.1110  -31.6540 H   0  0  0  0  0  0  0  0  0  0  0  0
   -3.7625   24.0920  -29.4852 H   0  0  0  0  0  0  0  0  0  0  0  0
    0.4419   23.2802  -28.8666 H   0  0  0  0  0  0  0  0  0  0  0  0
    0.2992   21.3397  -30.4299 H   0  0  0  0  0  0  0  0  0  0  0  0
   -7.5353   24.4993  -31.5785 H   0  0  0  0  0  0  0  0  0  0  0  0
   -9.8602   23.7031  -31.9886 H   0  0  0  0  0  0  0  0  0  0  0  0
  1  2  1  0
  2  3  1  0
  3  4  2  0
  4  5  1  0
  5  6  2  0
  6  7  1  0
  7  8  1  0
  8  9  2  0
  9 10  1  0
 10 11  1  0
 11 12  2  0
 11 13  1  0
 13 14  1  0
 14 15  2  0
 15 16  1  0
 16 17  1  0
 16 18  2  0
 18 19  1  0
 19 20  2  0
 20 21  1  0
 10 22  2  0
 22 23  1  0
 23 24  2  0
 24 25  1  0
  6  2  1  0
 24  8  1  0
 20 14  1  0
  1 26  1  0
  1 27  1  0
  1 28  1  0
  3 29  1  0
  4 30  1  0
  9 31  1  0
 13 32  1  0
 15 33  1  0
 18 34  1  0
 19 35  1  0
 22 36  1  0
 23 37  1  0
M  END
>  <UniqueID>  (18) 
18

>  <SMILES>  (18) 
Cn1ccnc1Sc1cc(C(=O)Nc2cc(Br)ccc2F)ccc1F

>  <Energy>  (18) 
69.84177897877794

>  <Genealogy>  (18) 
Cn1ccnc1Sc1cc(C(=O)Nc2cc(Br)ccc2F)ccc1F (3D coordinates assigned)
Cn1ccnc1Sc1cc(C(=O)Nc2cc(Br)ccc2F)ccc1F (optimized conformer: 69.84177897877794 kcal/mol)

>  <smiles>  (18) 
Cn1ccnc1Sc1cc(C(=O)Nc2cc(Br)ccc2F)ccc1F

>  <score_type>  (18) 
oracle

>  <origin>  (18) 
adgpu

>  <m_score__min__energy>  (18) 
-8.3800000000000008

>  <m_primary>  (18) 
energy

$$$$
18:0
     RDKit          3D

 30 32  0  0  0  0  0  0  0  0999 V2000
   -6.8320   25.2950  -29.7000 C   0  0  0  0  0  0  0  0  0  0  0  0
   -5.2710   25.3630  -30.6320 S   0  0  0  0  0  0  0  0  0  0  0  0
   -5.4440   23.6960  -31.2610 C   0  0  0  0  0  0  0  0  0  0  0  0
   -6.6140   22.9780  -31.3150 C   0  0  0  0  0  0  0  0  0  0  0  0
   -6.3300   21.7690  -31.8290 N   0  0  0  0  0  0  0  0  0  0  0  0
   -7.2560   20.6730  -31.9260 C   0  0  0  0  0  0  0  0  0  0  0  0
   -6.8590   19.3700  -31.5810 C   0  0  0  0  0  0  0  0  0  0  0  0
   -7.7690   18.3110  -31.6610 C   0  0  0  0  0  0  0  0  0  0  0  0
   -9.0840   18.5470  -32.0720 C   0  0  0  0  0  0  0  0  0  0  0  0
   -9.4910   19.8430  -32.3990 C   0  0  0  0  0  0  0  0  0  0  0  0
   -8.5840   20.9050  -32.3210 C   0  0  0  0  0  0  0  0  0  0  0  0
   -4.9980   21.7900  -32.0880 C   0  0  0  0  0  0  0  0  0  0  0  0
   -4.2300   20.7070  -32.7350 C   0  0  0  0  0  0  0  0  0  0  0  0
   -2.8610   20.5040  -32.4940 C   0  0  0  0  0  0  0  0  0  0  0  0
   -2.3140   19.4620  -33.2290 C   0  0  0  0  0  0  0  0  0  0  0  0
   -3.5260   18.8110  -34.1920 S   0  0  0  0  0  0  0  0  0  0  0  0
   -4.7560   19.8360  -33.6860 C   0  0  0  0  0  0  0  0  0  0  0  0
   -4.4240   22.9640  -31.7430 N   0  0  0  0  0  0  0  0  0  0  0  0
   -6.6158   25.3044  -28.6215 H   0  0  0  0  0  0  0  0  0  0  0  0
   -7.4511   26.1670  -29.9575 H   0  0  0  0  0  0  0  0  0  0  0  0
   -7.3729   24.3724  -29.9575 H   0  0  0  0  0  0  0  0  0  0  0  0
   -7.6059   23.3297  -30.9948 H   0  0  0  0  0  0  0  0  0  0  0  0
   -5.8281   19.1821  -31.2466 H   0  0  0  0  0  0  0  0  0  0  0  0
   -7.4495   17.2912  -31.4002 H   0  0  0  0  0  0  0  0  0  0  0  0
   -9.7980   17.7129  -32.1380 H   0  0  0  0  0  0  0  0  0  0  0  0
  -10.5271   20.0286  -32.7185 H   0  0  0  0  0  0  0  0  0  0  0  0
   -8.9117   21.9252  -32.5698 H   0  0  0  0  0  0  0  0  0  0  0  0
   -2.2774   21.1139  -31.7887 H   0  0  0  0  0  0  0  0  0  0  0  0
   -1.2688   19.1217  -33.1880 H   0  0  0  0  0  0  0  0  0  0  0  0
   -5.7962   19.8220  -34.0434 H   0  0  0  0  0  0  0  0  0  0  0  0
  1  2  1  0
  2  3  1  0
  3  4  2  0
  4  5  1  0
  5  6  1  0
  6  7  2  0
  7  8  1  0
  8  9  2  0
  9 10  1  0
 10 11  2  0
  5 12  1  0
 12 13  1  0
 13 14  1  0
 14 15  2  0
 15 16  1  0
 16 17  1  0
 12 18  2  0
 18  3  1  0
 11  6  1  0
 17 13  2  0
  1 19  1  0
  1 20  1  0
  1 21  1  0
  4 22  1  0
  7 23  1  0
  8 24  1  0
  9 25  1  0
 10 26  1  0
 11 27  1  0
 14 28  1  0
 15 29  1  0
 17 30  1  0
M  END
>  <UniqueID>  (19) 
19

>  <SMILES>  (19) 
CSc1cn(-c2ccccc2)c(-c2ccsc2)n1

>  <Energy>  (19) 
91.45861123766815

>  <Genealogy>  (19) 
CSc1cn(-c2ccccc2)c(-c2ccsc2)n1 (3D coordinates assigned)
CSc1cn(-c2ccccc2)c(-c2ccsc2)n1 (optimized conformer: 91.45861123766815 kcal/mol)

>  <smiles>  (19) 
CSc1cn(-c2ccccc2)c(-c2ccsc2)n1

>  <score_type>  (19) 
oracle

>  <origin>  (19) 
adgpu

>  <m_score__min__energy>  (19) 
-7.1399999999999997

>  <m_primary>  (19) 
energy

$$$$
19:0
     RDKit          3D

 46 49  0  0  0  0  0  0  0  0999 V2000
   -4.3130   24.4280  -28.5370 O   0  0  0  0  0  0  0  0  0  0  0  0
   -3.5270   24.5980  -29.5070 C   0  0  0  0  0  0  0  0  0  0  0  0
   -3.9950   24.4640  -30.8540 N   0  0  0  0  0  0  0  0  0  0  0  0
   -5.0150   23.5690  -31.3260 C   0  0  0  0  0  0  0  0  0  0  0  0
   -6.3470   23.9890  -31.4930 C   0  0  0  0  0  0  0  0  0  0  0  0
   -7.3140   23.0960  -31.9660 C   0  0  0  0  0  0  0  0  0  0  0  0
   -6.9600   21.7840  -32.2870 C   0  0  0  0  0  0  0  0  0  0  0  0
   -5.6360   21.3640  -32.1490 C   0  0  0  0  0  0  0  0  0  0  0  0
   -4.6580   22.2540  -31.6830 C   0  0  0  0  0  0  0  0  0  0  0  0
   -3.2990   21.8020  -31.5460 N   0  0  0  0  0  0  0  0  0  0  0  0
   -2.5500   21.5490  -32.7840 C   0  0  0  0  0  0  0  0  0  0  0  0
   -1.0440   21.5180  -32.5230 C   0  0  0  0  0  0  0  0  0  0  0  0
   -0.7170   20.4900  -31.4400 C   0  0  0  0  0  0  0  0  0  0  0  0
   -1.5100   20.7530  -30.1880 C   0  0  0  0  0  0  0  0  0  0  0  0
   -1.0130   20.3190  -28.9500 C   0  0  0  0  0  0  0  0  0  0  0  0
   -1.7450   20.5360  -27.7810 C   0  0  0  0  0  0  0  0  0  0  0  0
   -2.9800   21.1810  -27.8390 C   0  0  0  0  0  0  0  0  0  0  0  0
   -3.4950   21.6030  -29.0680 C   0  0  0  0  0  0  0  0  0  0  0  0
   -2.7780   21.3750  -30.2620 C   0  0  0  0  0  0  0  0  0  0  0  0
   -2.1470   24.9160  -29.2800 N   0  0  0  0  0  0  0  0  0  0  0  0
   -1.5070   24.8790  -27.9920 C   0  0  0  0  0  0  0  0  0  0  0  0
   -2.1260   25.4150  -26.8480 C   0  0  0  0  0  0  0  0  0  0  0  0
   -1.4920   25.3420  -25.6030 C   0  0  0  0  0  0  0  0  0  0  0  0
   -0.2450   24.7230  -25.4870 C   0  0  0  0  0  0  0  0  0  0  0  0
    0.3660   24.1670  -26.6140 C   0  0  0  0  0  0  0  0  0  0  0  0
   -0.2660   24.2380  -27.8600 C   0  0  0  0  0  0  0  0  0  0  0  0
   -6.6293   25.0241  -31.2506 H   0  0  0  0  0  0  0  0  0  0  0  0
   -8.3559   23.4281  -32.0854 H   0  0  0  0  0  0  0  0  0  0  0  0
   -7.7249   21.0811  -32.6488 H   0  0  0  0  0  0  0  0  0  0  0  0
   -5.3590   20.3311  -32.4068 H   0  0  0  0  0  0  0  0  0  0  0  0
   -2.8619   20.5798  -33.2003 H   0  0  0  0  0  0  0  0  0  0  0  0
   -2.7638   22.3627  -33.4927 H   0  0  0  0  0  0  0  0  0  0  0  0
   -0.5198   21.2470  -33.4513 H   0  0  0  0  0  0  0  0  0  0  0  0
   -0.7179   22.5124  -32.1842 H   0  0  0  0  0  0  0  0  0  0  0  0
   -0.9589   19.4843  -31.8142 H   0  0  0  0  0  0  0  0  0  0  0  0
    0.3535   20.5647  -31.1984 H   0  0  0  0  0  0  0  0  0  0  0  0
   -0.0417   19.8051  -28.9000 H   0  0  0  0  0  0  0  0  0  0  0  0
   -1.3470   20.1977  -26.8129 H   0  0  0  0  0  0  0  0  0  0  0  0
   -3.5503   21.3581  -26.9152 H   0  0  0  0  0  0  0  0  0  0  0  0
   -4.4669   22.1169  -29.1048 H   0  0  0  0  0  0  0  0  0  0  0  0
   -1.6000   25.2840  -30.0910 H   0  0  0  0  0  0  0  0  0  0  0  0
   -3.1128   25.8936  -26.9328 H   0  0  0  0  0  0  0  0  0  0  0  0
   -1.9761   25.7727  -24.7141 H   0  0  0  0  0  0  0  0  0  0  0  0
    0.2557   24.6733  -24.5088 H   0  0  0  0  0  0  0  0  0  0  0  0
    1.3445   23.6732  -26.5214 H   0  0  0  0  0  0  0  0  0  0  0  0
    0.2132   23.7883  -28.7421 H   0  0  0  0  0  0  0  0  0  0  0  0
  1  2  2  0
  2  3  1  0
  3  4  1  0
  4  5  2  0
  5  6  1  0
  6  7  2  0
  7  8  1  0
  8  9  2  0
  9 10  1  0
 10 11  1  0
 11 12  1  0
 12 13  1  0
 13 14  1  0
 14 15  2  0
 15 16  1  0
 16 17  2  0
 17 18  1  0
 18 19  2  0
  2 20  1  0
 20 21  1  0
 21 22  2  0
 22 23  1  0
 23 24  2  0
 24 25  1  0
 25 26  2  0
  9  4  1  0
 19 10  1  0
 26 21  1  0
 19 14  1  0
  5 27  1  0
  6 28  1  0
  7 29  1  0
  8 30  1  0
 11 31  1  0
 11 32  1  0
 12 33  1  0
 12 34  1  0
 13 35  1  0
 13 36  1  0
 15 37  1  0
 16 38  1  0
 17 39  1  0
 18 40  1  0
 20 41  1  0
 22 42  1  0
 23 43  1  0
 24 44  1  0
 25 45  1  0
 26 46  1  0
M  CHG  1   3  -1
M  END
>  <UniqueID>  (20) 
20

>  <SMILES>  (20) 
O=C([N-]c1ccccc1N1CCCc2ccccc21)Nc1ccccc1

>  <Energy>  (20) 
63.88520277859176

>  <Genealogy>  (20) 
O=C([N-]c1ccccc1N1CCCc2ccccc21)Nc1ccccc1 (protonated)
O=C([N-]c1ccccc1N1CCCc2ccccc21)Nc1ccccc1 (3D coordinates assigned)
O=C([N-]c1ccccc1N1CCCc2ccccc21)Nc1ccccc1 (nonaromatic ring conformer: 63.88520277859176 kcal/mol)

>  <smiles>  (20) 
O=C(Nc1ccccc1)Nc1ccccc1N1CCCc2ccccc21

>  <score_type>  (20) 
oracle

>  <origin>  (20) 
adgpu

>  <m_score__min__energy>  (20) 
-10.699999999999999

>  <m_primary>  (20) 
energy

$$$$
20:0
     RDKit          3D

 41 43  0  0  0  0  0  0  0  0999 V2000
   -0.8450   19.3830  -32.7860 C   0  0  0  0  0  0  0  0  0  0  0  0
   -2.2330   19.1890  -33.3060 C   0  0  0  0  0  0  0  0  0  0  0  0
   -2.6010   18.1560  -34.0920 N   0  0  0  0  0  0  0  0  0  0  0  0
   -3.8790   18.3250  -34.4010 N   0  0  0  0  0  0  0  0  0  0  0  0
   -4.6440   17.4170  -35.2460 C   0  0  0  0  0  0  0  0  0  0  0  0
   -4.3420   19.4490  -33.8230 C   0  0  0  0  0  0  0  0  0  0  0  0
   -5.6530   19.9140  -33.9820 O   0  0  0  0  0  0  0  0  0  0  0  0
   -6.7370   19.5100  -33.1970 C   0  0  0  0  0  0  0  0  0  0  0  0
   -7.6890   20.4610  -32.8120 C   0  0  0  0  0  0  0  0  0  0  0  0
   -8.7650   20.0920  -32.0000 C   0  0  0  0  0  0  0  0  0  0  0  0
   -8.9050   18.7650  -31.5820 C   0  0  0  0  0  0  0  0  0  0  0  0
   -7.9760   17.8020  -31.9890 C   0  0  0  0  0  0  0  0  0  0  0  0
   -6.8990   18.1690  -32.8010 C   0  0  0  0  0  0  0  0  0  0  0  0
   -3.3040   20.0510  -33.1240 C   0  0  0  0  0  0  0  0  0  0  0  0
   -3.2970   21.3610  -32.3850 C   0  0  0  0  0  0  0  0  0  0  0  0
   -4.5250   22.1130  -32.6550 N   0  0  0  0  0  0  0  0  0  0  0  0
   -5.1050   23.0440  -31.7240 C   0  0  0  0  0  0  0  0  0  0  0  0
   -6.4950   23.2540  -31.7400 C   0  0  0  0  0  0  0  0  0  0  0  0
   -7.0890   24.1490  -30.8460 C   0  0  0  0  0  0  0  0  0  0  0  0
   -6.3020   24.8530  -29.9290 C   0  0  0  0  0  0  0  0  0  0  0  0
   -6.8800   25.7240  -29.0660 F   0  0  0  0  0  0  0  0  0  0  0  0
   -4.9200   24.6510  -29.9000 C   0  0  0  0  0  0  0  0  0  0  0  0
   -4.3210   23.7490  -30.7880 C   0  0  0  0  0  0  0  0  0  0  0  0
   -0.8618   19.3806  -31.6861 H   0  0  0  0  0  0  0  0  0  0  0  0
   -0.2016   18.5661  -33.1446 H   0  0  0  0  0  0  0  0  0  0  0  0
   -0.4502   20.3451  -33.1446 H   0  0  0  0  0  0  0  0  0  0  0  0
   -5.2239   16.7287  -34.6137 H   0  0  0  0  0  0  0  0  0  0  0  0
   -5.3296   17.9972  -35.8811 H   0  0  0  0  0  0  0  0  0  0  0  0
   -3.9559   16.8398  -35.8811 H   0  0  0  0  0  0  0  0  0  0  0  0
   -7.5899   21.5031  -33.1499 H   0  0  0  0  0  0  0  0  0  0  0  0
   -9.5027   20.8465  -31.6893 H   0  0  0  0  0  0  0  0  0  0  0  0
   -9.7457   18.4785  -30.9331 H   0  0  0  0  0  0  0  0  0  0  0  0
   -8.0929   16.7557  -31.6701 H   0  0  0  0  0  0  0  0  0  0  0  0
   -6.1765   17.4082  -33.1313 H   0  0  0  0  0  0  0  0  0  0  0  0
   -3.2227   21.1662  -31.3049 H   0  0  0  0  0  0  0  0  0  0  0  0
   -2.4359   21.9550  -32.7251 H   0  0  0  0  0  0  0  0  0  0  0  0
   -5.0170   21.9570  -33.5640 H   0  0  0  0  0  0  0  0  0  0  0  0
   -7.1205   22.7091  -32.4624 H   0  0  0  0  0  0  0  0  0  0  0  0
   -8.1784   24.3001  -30.8636 H   0  0  0  0  0  0  0  0  0  0  0  0
   -4.3004   25.2022  -29.1773 H   0  0  0  0  0  0  0  0  0  0  0  0
   -3.2331   23.5897  -30.7551 H   0  0  0  0  0  0  0  0  0  0  0  0
  1  2  1  0
  2  3  2  0
  3  4  1  0
  4  5  1  0
  4  6  1  0
  6  7  1  0
  7  8  1  0
  8  9  2  0
  9 10  1  0
 10 11  2  0
 11 12  1  0
 12 13  2  0
  6 14  2  0
 14 15  1  0
 15 16  1  0
 16 17  1  0
 17 18  2  0
 18 19  1  0
 19 20  2  0
 20 21  1  0
 20 22  1  0
 22 23  2  0
 14  2  1  0
 23 17  1  0
 13  8  1  0
  1 24  1  0
  1 25  1  0
  1 26  1  0
  5 27  1  0
  5 28  1  0
  5 29  1  0
  9 30  1  0
 10 31  1  0
 11 32  1  0
 12 33  1  0
 13 34  1  0
 15 35  1  0
 15 36  1  0
 16 37  1  0
 18 38  1  0
 19 39  1  0
 22 40  1  0
 23 41  1  0
M  END
>  <UniqueID>  (21) 
21

>  <SMILES>  (21) 
Cc1nn(C)c(Oc2ccccc2)c1CNc1ccc(F)cc1

>  <Energy>  (21) 
76.30322192956707

>  <Genealogy>  (21) 
Cc1nn(C)c(Oc2ccccc2)c1CNc1ccc(F)cc1 (3D coordinates assigned)
Cc1nn(C)c(Oc2ccccc2)c1CNc1ccc(F)cc1 (optimized conformer: 76.30322192956707 kcal/mol)

>  <smiles>  (21) 
Cc1nn(C)c(Oc2ccccc2)c1CNc1ccc(F)cc1

>  <score_type>  (21) 
oracle

>  <origin>  (21) 
adgpu

>  <m_score__min__energy>  (21) 
-7.4299999999999997

>  <m_primary>  (21) 
energy

$$$$
21:0
     RDKit          3D

 37 39  0  0  0  0  0  0  0  0999 V2000
   -1.4050   25.4620  -27.7590 C   0  0  0  0  0  0  0  0  0  0  0  0
   -2.1250   25.6450  -28.9740 O   0  0  0  0  0  0  0  0  0  0  0  0
   -3.0820   24.7480  -29.4700 C   0  0  0  0  0  0  0  0  0  0  0  0
   -2.9550   23.3540  -29.3280 C   0  0  0  0  0  0  0  0  0  0  0  0
   -3.9370   22.5000  -29.8420 C   0  0  0  0  0  0  0  0  0  0  0  0
   -5.0610   23.0220  -30.5030 C   0  0  0  0  0  0  0  0  0  0  0  0
   -6.1000   22.1110  -31.0470 C   0  0  0  0  0  0  0  0  0  0  0  0
   -5.7420   20.8550  -31.5630 C   0  0  0  0  0  0  0  0  0  0  0  0
   -6.7240   19.9970  -32.0760 C   0  0  0  0  0  0  0  0  0  0  0  0
   -6.3130   18.6730  -32.6040 C   0  0  0  0  0  0  0  0  0  0  0  0
   -6.1150   17.5930  -31.7270 C   0  0  0  0  0  0  0  0  0  0  0  0
   -5.7400   16.3410  -32.2230 C   0  0  0  0  0  0  0  0  0  0  0  0
   -5.5660   16.1530  -33.5980 C   0  0  0  0  0  0  0  0  0  0  0  0
   -5.0560   14.4420  -34.2730 Br  0  0  0  0  0  0  0  0  0  0  0  0
   -5.7710   17.2200  -34.4790 C   0  0  0  0  0  0  0  0  0  0  0  0
   -6.1460   18.4750  -33.9850 C   0  0  0  0  0  0  0  0  0  0  0  0
   -8.0700   20.4210  -32.0820 C   0  0  0  0  0  0  0  0  0  0  0  0
   -9.1120   19.6000  -32.6580 C   0  0  0  0  0  0  0  0  0  0  0  0
   -9.9460   18.9430  -33.1190 N   0  0  0  0  0  0  0  0  0  0  0  0
   -8.3900   21.6860  -31.5580 C   0  0  0  0  0  0  0  0  0  0  0  0
   -9.5870   22.0860  -31.5500 O   0  0  0  0  0  0  0  0  0  0  0  0
   -7.4110   22.4890  -31.0570 N   0  0  0  0  0  0  0  0  0  0  0  0
   -5.1830   24.4150  -30.6430 C   0  0  0  0  0  0  0  0  0  0  0  0
   -4.2010   25.2670  -30.1310 C   0  0  0  0  0  0  0  0  0  0  0  0
   -2.0772   25.6328  -26.9052 H   0  0  0  0  0  0  0  0  0  0  0  0
   -1.0121   24.4354  -27.7167 H   0  0  0  0  0  0  0  0  0  0  0  0
   -0.5696   26.1764  -27.7167 H   0  0  0  0  0  0  0  0  0  0  0  0
   -2.0799   22.9337  -28.8107 H   0  0  0  0  0  0  0  0  0  0  0  0
   -3.8279   21.4114  -29.7275 H   0  0  0  0  0  0  0  0  0  0  0  0
   -4.6870   20.5436  -31.5645 H   0  0  0  0  0  0  0  0  0  0  0  0
   -6.2558   17.7334  -30.6451 H   0  0  0  0  0  0  0  0  0  0  0  0
   -5.5814   15.5015  -31.5301 H   0  0  0  0  0  0  0  0  0  0  0  0
   -5.6374   17.0728  -35.5609 H   0  0  0  0  0  0  0  0  0  0  0  0
   -6.3108   19.3103  -34.6815 H   0  0  0  0  0  0  0  0  0  0  0  0
   -7.6860   23.4150  -30.6560 H   0  0  0  0  0  0  0  0  0  0  0  0
   -6.0576   24.8375  -31.1592 H   0  0  0  0  0  0  0  0  0  0  0  0
   -4.3084   26.3554  -30.2485 H   0  0  0  0  0  0  0  0  0  0  0  0
  1  2  1  0
  2  3  1  0
  3  4  2  0
  4  5  1  0
  5  6  2  0
  6  7  1  0
  7  8  2  0
  8  9  1  0
  9 10  1  0
 10 11  2  0
 11 12  1  0
 12 13  2  0
 13 14  1  0
 13 15  1  0
 15 16  2  0
  9 17  2  0
 17 18  1  0
 18 19  3  0
 17 20  1  0
 20 21  2  0
 20 22  1  0
  6 23  1  0
 23 24  2  0
 24  3  1  0
 22  7  1  0
 16 10  1  0
  1 25  1  0
  1 26  1  0
  1 27  1  0
  4 28  1  0
  5 29  1  0
  8 30  1  0
 11 31  1  0
 12 32  1  0
 15 33  1  0
 16 34  1  0
 22 35  1  0
 23 36  1  0
 24 37  1  0
M  END
>  <UniqueID>  (22) 
22

>  <SMILES>  (22) 
COc1ccc(-c2cc(-c3ccc(Br)cc3)c(C#N)c(=O)[nH]2)cc1

>  <Energy>  (22) 
52.40024028459804

>  <Genealogy>  (22) 
COc1ccc(-c2cc(-c3ccc(Br)cc3)c(C#N)c(=O)[nH]2)cc1 (3D coordinates assigned)
COc1ccc(-c2cc(-c3ccc(Br)cc3)c(C#N)c(=O)[nH]2)cc1 (optimized conformer: 52.40024028459804 kcal/mol)

>  <smiles>  (22) 
COc1ccc(-c2cc(-c3ccc(Br)cc3)c(C#N)c(=O)[nH]2)cc1

>  <score_type>  (22) 
oracle

>  <origin>  (22) 
adgpu

>  <m_score__min__energy>  (22) 
-8.6099999999999994

>  <m_primary>  (22) 
energy

$$$$
22:0
     RDKit          3D

 32 33  0  0  0  0  0  0  0  0999 V2000
   -9.4110   21.5150  -31.9220 C   0  0  0  0  0  0  0  0  0  0  0  0
   -8.3520   20.7860  -31.1730 C   0  0  0  0  0  0  0  0  0  0  0  0
   -7.3730   20.0590  -32.0140 C   0  0  0  0  0  0  0  0  0  0  0  0
   -7.6590   18.8190  -32.5120 N   0  0  0  0  0  0  0  0  0  0  0  0
   -6.7860   18.1380  -33.2740 C   0  0  0  0  0  0  0  0  0  0  0  0
   -7.1490   16.9760  -33.6960 N   0  0  0  0  0  0  0  0  0  0  0  0
   -5.5790   18.6330  -33.5960 N   0  0  0  0  0  0  0  0  0  0  0  0
   -5.2310   19.8630  -33.1320 C   0  0  0  0  0  0  0  0  0  0  0  0
   -4.0880   20.3030  -33.4510 N   0  0  0  0  0  0  0  0  0  0  0  0
   -6.1320   20.5810  -32.3380 C   0  0  0  0  0  0  0  0  0  0  0  0
   -5.7210   21.8700  -31.8800 C   0  0  0  0  0  0  0  0  0  0  0  0
   -6.2910   23.0730  -32.2510 C   0  0  0  0  0  0  0  0  0  0  0  0
   -5.8160   24.2680  -31.7470 C   0  0  0  0  0  0  0  0  0  0  0  0
   -4.7630   24.3180  -30.8590 C   0  0  0  0  0  0  0  0  0  0  0  0
   -4.2540   25.5190  -30.3240 N   0  0  0  0  0  0  0  0  0  0  0  0
   -4.1790   23.1190  -30.4750 C   0  0  0  0  0  0  0  0  0  0  0  0
   -4.6560   21.9280  -30.9800 C   0  0  0  0  0  0  0  0  0  0  0  0
  -10.1020   21.9907  -31.2105 H   0  0  0  0  0  0  0  0  0  0  0  0
   -8.9477   22.2864  -32.5546 H   0  0  0  0  0  0  0  0  0  0  0  0
   -9.9662   20.8068  -32.5546 H   0  0  0  0  0  0  0  0  0  0  0  0
   -7.8008   21.5175  -30.5639 H   0  0  0  0  0  0  0  0  0  0  0  0
   -8.8708   20.0208  -30.5769 H   0  0  0  0  0  0  0  0  0  0  0  0
   -8.6040   18.4340  -32.2580 H   0  0  0  0  0  0  0  0  0  0  0  0
   -6.5530   16.3620  -34.2930 H   0  0  0  0  0  0  0  0  0  0  0  0
   -4.9300   18.0830  -34.1840 H   0  0  0  0  0  0  0  0  0  0  0  0
   -3.6360   21.1880  -33.2140 H   0  0  0  0  0  0  0  0  0  0  0  0
   -7.1344   23.0789  -32.9572 H   0  0  0  0  0  0  0  0  0  0  0  0
   -6.2922   25.2077  -32.0637 H   0  0  0  0  0  0  0  0  0  0  0  0
   -3.4880   26.0130  -30.8410 H   0  0  0  0  0  0  0  0  0  0  0  0
   -4.6100   25.9460  -29.4290 H   0  0  0  0  0  0  0  0  0  0  0  0
   -3.3361   23.1189  -29.7682 H   0  0  0  0  0  0  0  0  0  0  0  0
   -4.1796   20.9890  -30.6618 H   0  0  0  0  0  0  0  0  0  0  0  0
  1  2  1  0
  2  3  1  0
  3  4  1  0
  4  5  1  0
  5  6  2  3
  5  7  1  0
  7  8  1  0
  8  9  2  3
  8 10  1  0
 10 11  1  0
 11 12  2  0
 12 13  1  0
 13 14  2  0
 14 15  1  0
 14 16  1  0
 16 17  2  0
 10  3  2  0
 17 11  1  0
  1 18  1  0
  1 19  1  0
  1 20  1  0
  2 21  1  0
  2 22  1  0
  4 23  1  0
  6 24  1  0
  7 25  1  0
  9 26  1  0
 12 27  1  0
 13 28  1  0
 15 29  1  0
 15 30  1  0
 16 31  1  0
 17 32  1  0
M  END
>  <smiles>  (23) 
CCc1[nH]c(=N)[nH]c(=N)c1-c1ccc(N)cc1

>  <score_type>  (23) 
oracle

>  <origin>  (23) 
adgpu

>  <m_score__min__energy>  (23) 
-6.7199999999999998

>  <m_primary>  (23) 
energy

$$$$
23:0
     RDKit          3D

 44 44  0  0  0  0  0  0  0  0999 V2000
   -6.8840   17.6150  -33.2530 C   0  0  0  0  0  0  0  0  0  0  0  0
   -7.4210   18.6010  -32.2100 C   0  0  0  0  0  0  0  0  0  0  0  0
   -7.9840   19.8300  -32.8250 N   0  0  0  0  0  0  0  0  0  0  0  0
   -9.3810   20.0900  -32.3600 C   0  0  0  0  0  0  0  0  0  0  0  0
   -9.5060   21.4450  -31.6520 C   0  0  0  0  0  0  0  0  0  0  0  0
   -7.0970   20.9860  -32.5210 C   0  0  0  0  0  0  0  0  0  0  0  0
   -5.6450   20.7780  -33.0210 C   0  0  0  0  0  0  0  0  0  0  0  0
   -4.6340   20.5170  -31.8900 C   0  0  0  0  0  0  0  0  0  0  0  0
   -4.0640   21.7940  -31.3300 C   0  0  0  0  0  0  0  0  0  0  0  0
   -4.7890   22.9930  -31.4190 C   0  0  0  0  0  0  0  0  0  0  0  0
   -4.3100   24.1640  -30.8070 C   0  0  0  0  0  0  0  0  0  0  0  0
   -5.0180   25.3760  -30.8520 O   0  0  0  0  0  0  0  0  0  0  0  0
   -6.1390   25.6830  -30.0300 C   0  0  0  0  0  0  0  0  0  0  0  0
   -3.0910   24.1290  -30.1160 C   0  0  0  0  0  0  0  0  0  0  0  0
   -2.6100   25.2860  -29.5130 O   0  0  0  0  0  0  0  0  0  0  0  0
   -2.3560   22.9400  -30.0180 C   0  0  0  0  0  0  0  0  0  0  0  0
   -1.1500   22.9550  -29.3000 O   0  0  0  0  0  0  0  0  0  0  0  0
   -1.0400   23.2830  -27.9190 C   0  0  0  0  0  0  0  0  0  0  0  0
   -2.8500   21.7730  -30.6300 C   0  0  0  0  0  0  0  0  0  0  0  0
   -6.4179   16.7592  -32.7427 H   0  0  0  0  0  0  0  0  0  0  0  0
   -7.7131   17.2594  -33.8825 H   0  0  0  0  0  0  0  0  0  0  0  0
   -6.1356   18.1186  -33.8825 H   0  0  0  0  0  0  0  0  0  0  0  0
   -8.2114   18.1037  -31.6287 H   0  0  0  0  0  0  0  0  0  0  0  0
   -6.5781   18.9033  -31.5712 H   0  0  0  0  0  0  0  0  0  0  0  0
   -7.9740   19.6810  -33.8590 H   0  0  0  0  0  0  0  0  0  0  0  0
  -10.0531   20.0805  -33.2308 H   0  0  0  0  0  0  0  0  0  0  0  0
   -9.6525   19.3034  -31.6406 H   0  0  0  0  0  0  0  0  0  0  0  0
   -9.4919   21.2922  -30.5628 H   0  0  0  0  0  0  0  0  0  0  0  0
   -8.6635   22.0897  -31.9428 H   0  0  0  0  0  0  0  0  0  0  0  0
  -10.4522   21.9247  -31.9428 H   0  0  0  0  0  0  0  0  0  0  0  0
   -7.5103   21.8828  -33.0056 H   0  0  0  0  0  0  0  0  0  0  0  0
   -7.0578   21.0940  -31.4270 H   0  0  0  0  0  0  0  0  0  0  0  0
   -5.6328   19.9158  -33.7039 H   0  0  0  0  0  0  0  0  0  0  0  0
   -5.3388   21.7104  -33.5179 H   0  0  0  0  0  0  0  0  0  0  0  0
   -5.1409   19.9706  -31.0809 H   0  0  0  0  0  0  0  0  0  0  0  0
   -3.8025   19.9314  -32.3090 H   0  0  0  0  0  0  0  0  0  0  0  0
   -5.7395   23.0161  -31.9721 H   0  0  0  0  0  0  0  0  0  0  0  0
   -5.8502   25.6039  -28.9716 H   0  0  0  0  0  0  0  0  0  0  0  0
   -6.4793   26.7074  -30.2416 H   0  0  0  0  0  0  0  0  0  0  0  0
   -6.9538   24.9749  -30.2416 H   0  0  0  0  0  0  0  0  0  0  0  0
   -1.3315   22.4137  -27.3113 H   0  0  0  0  0  0  0  0  0  0  0  0
   -0.0002   23.5588  -27.6893 H   0  0  0  0  0  0  0  0  0  0  0  0
   -1.7033   24.1300  -27.6893 H   0  0  0  0  0  0  0  0  0  0  0  0
   -2.2782   20.8360  -30.5583 H   0  0  0  0  0  0  0  0  0  0  0  0
  1  2  1  0
  2  3  1  0
  3  4  1  0
  4  5  1  0
  3  6  1  0
  6  7  1  0
  7  8  1  0
  8  9  1  0
  9 10  2  0
 10 11  1  0
 11 12  1  0
 12 13  1  0
 11 14  2  0
 14 15  1  0
 14 16  1  0
 16 17  1  0
 17 18  1  0
 16 19  2  0
 19  9  1  0
  1 20  1  0
  1 21  1  0
  1 22  1  0
  2 23  1  0
  2 24  1  0
  3 25  1  0
  4 26  1  0
  4 27  1  0
  5 28  1  0
  5 29  1  0
  5 30  1  0
  6 31  1  0
  6 32  1  0
  7 33  1  0
  7 34  1  0
  8 35  1  0
  8 36  1  0
 10 37  1  0
 13 38  1  0
 13 39  1  0
 13 40  1  0
 18 41  1  0
 18 42  1  0
 18 43  1  0
 19 44  1  0
M  CHG  2   3   1  15  -1
M  END
>  <UniqueID>  (24) 
23

>  <SMILES>  (24) 
CC[NH+](CC)CCCc1cc(OC)c([O-])c(OC)c1

>  <Energy>  (24) 
38.86859898375216

>  <Genealogy>  (24) 
CC[NH+](CC)CCCc1cc(OC)c([O-])c(OC)c1 (protonated)
CC[NH+](CC)CCCc1cc(OC)c([O-])c(OC)c1 (3D coordinates assigned)
CC[NH+](CC)CCCc1cc(OC)c([O-])c(OC)c1 (optimized conformer: 38.86859898375216 kcal/mol)

>  <smiles>  (24) 
CCN(CC)CCCc1cc(OC)c(O)c(OC)c1

>  <score_type>  (24) 
oracle

>  <origin>  (24) 
adgpu

>  <m_score__min__energy>  (24) 
-8.7400000000000002

>  <m_primary>  (24) 
energy

$$$$
24:0
     RDKit          3D

 42 45  0  0  0  0  0  0  0  0999 V2000
   -6.1561   16.3303  -30.8731 H   0  0  0  0  0  0  0  0  0  0  0  0
   -5.7350   16.4120  -31.8860 C   0  0  0  0  0  0  0  0  0  0  0  0
   -4.7670   15.5010  -32.3140 C   0  0  0  0  0  0  0  0  0  0  0  0
   -4.4243   14.7044  -31.6372 H   0  0  0  0  0  0  0  0  0  0  0  0
   -4.2330   15.6010  -33.6030 C   0  0  0  0  0  0  0  0  0  0  0  0
   -3.2960   14.7150  -34.0190 F   0  0  0  0  0  0  0  0  0  0  0  0
   -4.6660   16.6160  -34.4630 C   0  0  0  0  0  0  0  0  0  0  0  0
   -4.2496   16.6882  -35.4786 H   0  0  0  0  0  0  0  0  0  0  0  0
   -5.6300   17.5430  -34.0350 C   0  0  0  0  0  0  0  0  0  0  0  0
   -6.1070   18.6350  -34.9560 C   0  0  0  0  0  0  0  0  0  0  0  0
   -6.9311   18.2503  -35.5748 H   0  0  0  0  0  0  0  0  0  0  0  0
   -5.2667   18.9523  -35.5910 H   0  0  0  0  0  0  0  0  0  0  0  0
   -6.5680   19.7620  -34.2110 O   0  0  0  0  0  0  0  0  0  0  0  0
   -5.7890   20.5230  -33.3230 C   0  0  0  0  0  0  0  0  0  0  0  0
   -4.3970   20.6740  -33.4800 C   0  0  0  0  0  0  0  0  0  0  0  0
   -3.8873   20.1927  -34.3277 H   0  0  0  0  0  0  0  0  0  0  0  0
   -3.6600   21.4310  -32.5660 C   0  0  0  0  0  0  0  0  0  0  0  0
   -2.5768   21.5589  -32.7082 H   0  0  0  0  0  0  0  0  0  0  0  0
   -4.2960   22.0290  -31.4670 C   0  0  0  0  0  0  0  0  0  0  0  0
   -3.5680   22.8540  -30.5470 N   0  0  0  0  0  0  0  0  0  0  0  0
   -2.9770   22.4790  -29.4430 C   0  0  0  0  0  0  0  0  0  0  0  0
   -2.2150   23.4190  -28.7270 C   0  0  0  0  0  0  0  0  0  0  0  0
   -2.0770   24.6980  -29.1770 N   0  0  0  0  0  0  0  0  0  0  0  0
   -1.3390   25.6210  -28.5050 C   0  0  0  0  0  0  0  0  0  0  0  0
   -1.2390   26.7920  -28.9570 O   0  0  0  0  0  0  0  0  0  0  0  0
   -0.6910   25.2700  -27.3170 C   0  0  0  0  0  0  0  0  0  0  0  0
   -0.0916   26.0137  -26.7715 H   0  0  0  0  0  0  0  0  0  0  0  0
   -0.8110   23.9680  -26.8290 C   0  0  0  0  0  0  0  0  0  0  0  0
   -0.3064   23.6808  -25.8947 H   0  0  0  0  0  0  0  0  0  0  0  0
   -1.5760   23.0270  -27.5320 C   0  0  0  0  0  0  0  0  0  0  0  0
   -1.7170   21.7160  -27.0700 C   0  0  0  0  0  0  0  0  0  0  0  0
   -1.2168   21.3954  -26.1442 H   0  0  0  0  0  0  0  0  0  0  0  0
   -2.4990   20.8190  -27.7960 C   0  0  0  0  0  0  0  0  0  0  0  0
   -2.6211   19.7870  -27.4354 H   0  0  0  0  0  0  0  0  0  0  0  0
   -3.1130   21.2080  -28.9470 N   0  0  0  0  0  0  0  0  0  0  0  0
   -3.7230   20.5050  -29.4180 H   0  0  0  0  0  0  0  0  0  0  0  0
   -5.6830   21.9170  -31.3320 C   0  0  0  0  0  0  0  0  0  0  0  0
   -6.1939   22.4275  -30.5023 H   0  0  0  0  0  0  0  0  0  0  0  0
   -6.4260   21.1600  -32.2450 C   0  0  0  0  0  0  0  0  0  0  0  0
   -8.1620   21.0130  -32.0260 Cl  0  0  0  0  0  0  0  0  0  0  0  0
   -6.1700   17.4280  -32.7430 C   0  0  0  0  0  0  0  0  0  0  0  0
   -6.9375   18.1395  -32.4044 H   0  0  0  0  0  0  0  0  0  0  0  0
  1  2  1  0
  2  3  2  0
  3  4  1  0
  3  5  1  0
  5  6  1  0
  5  7  2  0
  7  8  1  0
  7  9  1  0
  9 10  1  0
 10 11  1  0
 10 12  1  0
 10 13  1  0
 13 14  1  0
 14 15  2  0
 15 16  1  0
 15 17  1  0
 17 18  1  0
 17 19  2  0
 19 20  1  0
 20 21  2  0
 21 22  1  0
 22 23  1  0
 23 24  1  0
 24 25  2  0
 24 26  1  0
 26 27  1  0
 26 28  2  0
 28 29  1  0
 28 30  1  0
 30 31  1  0
 31 32  1  0
 31 33  2  0
 33 34  1  0
 33 35  1  0
 35 36  1  0
 19 37  1  0
 37 38  1  0
 37 39  2  0
 39 40  1  0
  9 41  2  0
 41 42  1  0
 41  2  1  0
 39 14  1  0
 35 21  1  0
 30 22  2  0
M  CHG  1  23  -1
M  END
>  <UniqueID>  (25) 
24

>  <SMILES>  (25) 
O=c1ccc2cc[nH]/c(=N\c3ccc(OCc4cccc(F)c4)c(Cl)c3)c2[n-]1

>  <Energy>  (25) 
60.301487323186045

>  <Genealogy>  (25) 
O=c1ccc2cc[nH]c(=Nc3ccc(OCc4cccc(F)c4)c(Cl)c3)c2[n-]1 (protonated)
O=c1ccc2cc[nH]/c(=N\c3ccc(OCc4cccc(F)c4)c(Cl)c3)c2[n-]1 (cis-trans isomerization)
O=c1ccc2cc[nH]/c(=N\c3ccc(OCc4cccc(F)c4)c(Cl)c3)c2[n-]1 (3D coordinates assigned)
O=c1ccc2cc[nH]/c(=N\c3ccc(OCc4cccc(F)c4)c(Cl)c3)c2[n-]1 (optimized conformer: 60.301487323186045 kcal/mol)

>  <smiles>  (25) 
O=c1ccc2cc[nH]c(=Nc3ccc(OCc4cccc(F)c4)c(Cl)c3)c2[nH]1

>  <score_type>  (25) 
oracle

>  <origin>  (25) 
adgpu

>  <m_score__min__energy>  (25) 
-9.5299999999999994

>  <m_primary>  (25) 
energy

$$$$
25:0
     RDKit          3D

 27 29  0  0  0  0  0  0  0  0999 V2000
   -1.2450   26.0300  -29.3480 O   0  0  0  0  0  0  0  0  0  0  0  0
   -1.2500   24.9690  -28.4490 C   0  0  0  0  0  0  0  0  0  0  0  0
   -0.2480   24.9120  -27.4740 C   0  0  0  0  0  0  0  0  0  0  0  0
   -0.2170   23.8610  -26.5490 C   0  0  0  0  0  0  0  0  0  0  0  0
    0.7790   23.7990  -25.5770 O   0  0  0  0  0  0  0  0  0  0  0  0
   -1.1920   22.8630  -26.6030 C   0  0  0  0  0  0  0  0  0  0  0  0
   -2.1970   22.9130  -27.5730 C   0  0  0  0  0  0  0  0  0  0  0  0
   -2.2410   23.9630  -28.5090 C   0  0  0  0  0  0  0  0  0  0  0  0
   -3.3190   23.9870  -29.5280 C   0  0  0  0  0  0  0  0  0  0  0  0
   -4.2490   23.0210  -29.6740 N   0  0  0  0  0  0  0  0  0  0  0  0
   -4.9860   23.4880  -30.7030 C   0  0  0  0  0  0  0  0  0  0  0  0
   -6.1560   22.7810  -31.2650 C   0  0  0  0  0  0  0  0  0  0  0  0
   -6.0090   21.5190  -31.8640 C   0  0  0  0  0  0  0  0  0  0  0  0
   -7.1280   20.8690  -32.3890 C   0  0  0  0  0  0  0  0  0  0  0  0
   -8.3530   21.4550  -32.3200 N   0  0  0  0  0  0  0  0  0  0  0  0
   -8.5270   22.6750  -31.7470 C   0  0  0  0  0  0  0  0  0  0  0  0
   -7.4340   23.3610  -31.2090 C   0  0  0  0  0  0  0  0  0  0  0  0
   -4.5320   24.6700  -31.1580 N   0  0  0  0  0  0  0  0  0  0  0  0
   -3.4820   24.9850  -30.4190 N   0  0  0  0  0  0  0  0  0  0  0  0
    0.5205   25.6980  -27.4338 H   0  0  0  0  0  0  0  0  0  0  0  0
    0.6160   24.1210  -24.6300 H   0  0  0  0  0  0  0  0  0  0  0  0
   -1.1691   22.0346  -25.8797 H   0  0  0  0  0  0  0  0  0  0  0  0
   -2.9619   22.1231  -27.6052 H   0  0  0  0  0  0  0  0  0  0  0  0
   -5.0178   21.0452  -31.9193 H   0  0  0  0  0  0  0  0  0  0  0  0
   -7.0181   19.8807  -32.8594 H   0  0  0  0  0  0  0  0  0  0  0  0
   -9.5304   23.1239  -31.7064 H   0  0  0  0  0  0  0  0  0  0  0  0
   -7.5740   24.3484  -30.7449 H   0  0  0  0  0  0  0  0  0  0  0  0
  1  2  1  0
  2  3  2  0
  3  4  1  0
  4  5  1  0
  4  6  2  0
  6  7  1  0
  7  8  2  0
  8  9  1  0
  9 10  2  0
 10 11  1  0
 11 12  1  0
 12 13  2  0
 13 14  1  0
 14 15  2  0
 15 16  1  0
 16 17  2  0
 11 18  2  0
 18 19  1  0
  8  2  1  0
 19  9  1  0
 17 12  1  0
  3 20  1  0
  5 21  1  0
  6 22  1  0
  7 23  1  0
 13 24  1  0
 14 25  1  0
 16 26  1  0
 17 27  1  0
M  CHG  2   1  -1  19  -1
M  END
>  <UniqueID>  (26) 
25

>  <SMILES>  (26) 
[O-]c1cc(O)ccc1-c1nc(-c2ccncc2)n[n-]1

>  <Energy>  (26) 
64.96108237342554

>  <Genealogy>  (26) 
[O-]c1cc(O)ccc1-c1nc(-c2ccncc2)n[n-]1 (protonated)
[O-]c1cc(O)ccc1-c1nc(-c2ccncc2)n[n-]1 (3D coordinates assigned)
[O-]c1cc(O)ccc1-c1nc(-c2ccncc2)n[n-]1 (optimized conformer: 64.96108237342554 kcal/mol)

>  <smiles>  (26) 
Oc1ccc(-c2nc(-c3ccncc3)n[nH]2)c(O)c1

>  <score_type>  (26) 
oracle

>  <origin>  (26) 
adgpu

>  <m_score__min__energy>  (26) 
-11.039999999999999

>  <m_primary>  (26) 
energy

$$$$
26:0
     RDKit          3D

 47 50  0  0  0  0  0  0  0  0999 V2000
   -1.5440   21.1610  -33.2980 C   0  0  0  0  0  0  0  0  0  0  0  0
   -2.6200   21.7450  -32.5710 O   0  0  0  0  0  0  0  0  0  0  0  0
   -3.8980   21.1770  -32.4430 C   0  0  0  0  0  0  0  0  0  0  0  0
   -4.3140   20.1000  -33.2490 C   0  0  0  0  0  0  0  0  0  0  0  0
   -5.5830   19.5390  -33.0790 C   0  0  0  0  0  0  0  0  0  0  0  0
   -6.4480   20.0450  -32.1080 C   0  0  0  0  0  0  0  0  0  0  0  0
   -6.0510   21.1160  -31.3080 C   0  0  0  0  0  0  0  0  0  0  0  0
   -4.7820   21.6940  -31.4710 C   0  0  0  0  0  0  0  0  0  0  0  0
   -4.3970   22.8510  -30.6320 C   0  0  0  0  0  0  0  0  0  0  0  0
   -4.9890   24.1050  -30.6380 C   0  0  0  0  0  0  0  0  0  0  0  0
   -6.0970   24.5600  -31.5360 C   0  0  0  0  0  0  0  0  0  0  0  0
   -4.4090   24.8970  -29.7170 N   0  0  0  0  0  0  0  0  0  0  0  0
   -3.4490   24.1710  -29.1090 C   0  0  0  0  0  0  0  0  0  0  0  0
   -2.5570   24.7260  -28.0670 C   0  0  0  0  0  0  0  0  0  0  0  0
   -1.2390   25.1110  -28.3740 C   0  0  0  0  0  0  0  0  0  0  0  0
   -0.4100   25.6400  -27.3810 C   0  0  0  0  0  0  0  0  0  0  0  0
   -0.8900   25.8020  -26.0790 C   0  0  0  0  0  0  0  0  0  0  0  0
   -2.2030   25.4390  -25.7700 C   0  0  0  0  0  0  0  0  0  0  0  0
   -3.0360   24.9080  -26.7590 C   0  0  0  0  0  0  0  0  0  0  0  0
   -3.4150   22.8860  -29.6480 C   0  0  0  0  0  0  0  0  0  0  0  0
   -2.5480   21.7610  -29.2300 C   0  0  0  0  0  0  0  0  0  0  0  0
   -1.3450   21.5040  -29.9070 C   0  0  0  0  0  0  0  0  0  0  0  0
   -0.5130   20.4600  -29.4910 C   0  0  0  0  0  0  0  0  0  0  0  0
   -0.8720   19.6700  -28.3970 C   0  0  0  0  0  0  0  0  0  0  0  0
   -2.0670   19.9210  -27.7160 C   0  0  0  0  0  0  0  0  0  0  0  0
   -2.9030   20.9620  -28.1290 C   0  0  0  0  0  0  0  0  0  0  0  0
   -0.8015   20.7580  -32.5935 H   0  0  0  0  0  0  0  0  0  0  0  0
   -1.9280   20.3475  -33.9311 H   0  0  0  0  0  0  0  0  0  0  0  0
   -1.0712   21.9263  -33.9311 H   0  0  0  0  0  0  0  0  0  0  0  0
   -3.6366   19.6978  -34.0167 H   0  0  0  0  0  0  0  0  0  0  0  0
   -5.9003   18.6971  -33.7118 H   0  0  0  0  0  0  0  0  0  0  0  0
   -7.4443   19.5985  -31.9734 H   0  0  0  0  0  0  0  0  0  0  0  0
   -6.7369   21.5107  -30.5439 H   0  0  0  0  0  0  0  0  0  0  0  0
   -6.9439   24.9078  -30.9262 H   0  0  0  0  0  0  0  0  0  0  0  0
   -5.7395   25.3841  -32.1708 H   0  0  0  0  0  0  0  0  0  0  0  0
   -6.4218   23.7225  -32.1708 H   0  0  0  0  0  0  0  0  0  0  0  0
   -4.6450   25.8980  -29.5300 H   0  0  0  0  0  0  0  0  0  0  0  0
   -0.8595   24.9951  -29.3999 H   0  0  0  0  0  0  0  0  0  0  0  0
    0.6228   25.9295  -27.6251 H   0  0  0  0  0  0  0  0  0  0  0  0
   -0.2346   26.2150  -25.2980 H   0  0  0  0  0  0  0  0  0  0  0  0
   -2.5823   25.5713  -24.7460 H   0  0  0  0  0  0  0  0  0  0  0  0
   -4.0716   24.6313  -26.5119 H   0  0  0  0  0  0  0  0  0  0  0  0
   -1.0562   22.1258  -30.7672 H   0  0  0  0  0  0  0  0  0  0  0  0
    0.4267   20.2605  -30.0269 H   0  0  0  0  0  0  0  0  0  0  0  0
   -0.2148   18.8504  -28.0710 H   0  0  0  0  0  0  0  0  0  0  0  0
   -2.3495   19.2985  -26.8542 H   0  0  0  0  0  0  0  0  0  0  0  0
   -3.8422   21.1569  -27.5906 H   0  0  0  0  0  0  0  0  0  0  0  0
  1  2  1  0
  2  3  1  0
  3  4  2  0
  4  5  1  0
  5  6  2  0
  6  7  1  0
  7  8  2  0
  8  9  1  0
  9 10  2  0
 10 11  1  0
 10 12  1  0
 12 13  1  0
 13 14  1  0
 14 15  2  0
 15 16  1  0
 16 17  2  0
 17 18  1  0
 18 19  2  0
 13 20  2  0
 20 21  1  0
 21 22  2  0
 22 23  1  0
 23 24  2  0
 24 25  1  0
 25 26  2  0
  8  3  1  0
 20  9  1  0
 26 21  1  0
 19 14  1  0
  1 27  1  0
  1 28  1  0
  1 29  1  0
  4 30  1  0
  5 31  1  0
  6 32  1  0
  7 33  1  0
 11 34  1  0
 11 35  1  0
 11 36  1  0
 12 37  1  0
 15 38  1  0
 16 39  1  0
 17 40  1  0
 18 41  1  0
 19 42  1  0
 22 43  1  0
 23 44  1  0
 24 45  1  0
 25 46  1  0
 26 47  1  0
M  END
>  <UniqueID>  (27) 
26

>  <SMILES>  (27) 
COc1ccccc1-c1c(C)[nH]c(-c2ccccc2)c1-c1ccccc1

>  <Energy>  (27) 
88.73629342352255

>  <Genealogy>  (27) 
COc1ccccc1-c1c(C)[nH]c(-c2ccccc2)c1-c1ccccc1 (3D coordinates assigned)
COc1ccccc1-c1c(C)[nH]c(-c2ccccc2)c1-c1ccccc1 (optimized conformer: 88.73629342352255 kcal/mol)

>  <smiles>  (27) 
COc1ccccc1-c1c(C)[nH]c(-c2ccccc2)c1-c1ccccc1

>  <score_type>  (27) 
oracle

>  <origin>  (27) 
adgpu

>  <m_score__min__energy>  (27) 
-8.0399999999999991

>  <m_primary>  (27) 
energy

$$$$
27:0
     RDKit          3D

 29 30  0  0  0  0  0  0  0  0999 V2000
   -2.8350   25.6740  -30.8560 H   0  0  0  0  0  0  0  0  0  0  0  0
   -3.4860   25.1890  -30.2540 O   0  0  0  0  0  0  0  0  0  0  0  0
   -4.3410   24.1770  -30.6990 C   0  0  0  0  0  0  0  0  0  0  0  0
   -3.7690   23.0040  -31.1830 C   0  0  0  0  0  0  0  0  0  0  0  0
   -2.6750   22.8888  -31.1811 H   0  0  0  0  0  0  0  0  0  0  0  0
   -4.5490   22.0040  -31.6560 N   0  0  0  0  0  0  0  0  0  0  0  0
   -5.9050   22.0940  -31.7030 C   0  0  0  0  0  0  0  0  0  0  0  0
   -6.6140   21.0930  -32.1460 N   0  0  0  0  0  0  0  0  0  0  0  0
   -6.1250   19.8630  -32.7100 C   0  0  0  0  0  0  0  0  0  0  0  0
   -6.7550   18.6630  -32.3530 C   0  0  0  0  0  0  0  0  0  0  0  0
   -7.5874   18.6749  -31.6340 H   0  0  0  0  0  0  0  0  0  0  0  0
   -6.3310   17.4510  -32.9060 C   0  0  0  0  0  0  0  0  0  0  0  0
   -6.8193   16.5113  -32.6085 H   0  0  0  0  0  0  0  0  0  0  0  0
   -5.2880   17.4310  -33.8360 C   0  0  0  0  0  0  0  0  0  0  0  0
   -4.9494   16.4754  -34.2628 H   0  0  0  0  0  0  0  0  0  0  0  0
   -4.6760   18.6250  -34.2230 C   0  0  0  0  0  0  0  0  0  0  0  0
   -3.8620   18.6100  -34.9627 H   0  0  0  0  0  0  0  0  0  0  0  0
   -5.0960   19.8400  -33.6720 C   0  0  0  0  0  0  0  0  0  0  0  0
   -4.6217   20.7800  -33.9906 H   0  0  0  0  0  0  0  0  0  0  0  0
   -6.5470   23.2620  -31.2260 C   0  0  0  0  0  0  0  0  0  0  0  0
   -8.0550   23.3860  -31.2840 C   0  0  0  0  0  0  0  0  0  0  0  0
   -8.4598   23.4193  -30.2617 H   0  0  0  0  0  0  0  0  0  0  0  0
   -8.3268   24.3095  -31.8162 H   0  0  0  0  0  0  0  0  0  0  0  0
   -8.4740   22.5193  -31.8162 H   0  0  0  0  0  0  0  0  0  0  0  0
   -5.7490   24.3050  -30.6770 C   0  0  0  0  0  0  0  0  0  0  0  0
   -6.3680   25.5580  -30.0950 C   0  0  0  0  0  0  0  0  0  0  0  0
   -6.3413   25.5040  -28.9966 H   0  0  0  0  0  0  0  0  0  0  0  0
   -5.8010   26.4380  -30.4327 H   0  0  0  0  0  0  0  0  0  0  0  0
   -7.4115   25.6424  -30.4327 H   0  0  0  0  0  0  0  0  0  0  0  0
  1  2  1  0
  2  3  1  0
  3  4  2  0
  4  5  1  0
  4  6  1  0
  6  7  1  0
  7  8  2  0
  8  9  1  0
  9 10  2  0
 10 11  1  0
 10 12  1  0
 12 13  1  0
 12 14  2  0
 14 15  1  0
 14 16  1  0
 16 17  1  0
 16 18  2  0
 18 19  1  0
  7 20  1  0
 20 21  1  0
 21 22  1  0
 21 23  1  0
 21 24  1  0
 20 25  2  0
 25 26  1  0
 26 27  1  0
 26 28  1  0
 26 29  1  0
 25  3  1  0
 18  9  1  0
M  CHG  1   6  -1
M  END
>  <UniqueID>  (28) 
27

>  <SMILES>  (28) 
Cc1c(O)c[n-]/c(=N\c2ccccc2)c1C

>  <Energy>  (28) 
41.5201385323073

>  <Genealogy>  (28) 
Cc1c(O)c[n-]c(=Nc2ccccc2)c1C (protonated)
Cc1c(O)c[n-]/c(=N\c2ccccc2)c1C (cis-trans isomerization)
Cc1c(O)c[n-]/c(=N\c2ccccc2)c1C (3D coordinates assigned)
Cc1c(O)c[n-]/c(=N\c2ccccc2)c1C (optimized conformer: 41.5201385323073 kcal/mol)

>  <smiles>  (28) 
Cc1c(O)c[nH]c(=Nc2ccccc2)c1C

>  <score_type>  (28) 
oracle

>  <origin>  (28) 
adgpu

>  <m_score__min__energy>  (28) 
-7.6399999999999997

>  <m_primary>  (28) 
energy

$$$$
28:0
     RDKit          3D

 45 46  0  0  0  0  0  0  0  0999 V2000
    0.3440   18.5940  -30.7360 C   0  0  0  0  0  0  0  0  0  0  0  0
   -0.3730   19.5400  -31.5220 O   0  0  0  0  0  0  0  0  0  0  0  0
   -0.9820   20.7000  -31.0140 C   0  0  0  0  0  0  0  0  0  0  0  0
   -0.5080   21.3410  -29.8540 C   0  0  0  0  0  0  0  0  0  0  0  0
   -1.1330   22.4960  -29.3770 C   0  0  0  0  0  0  0  0  0  0  0  0
   -2.2400   23.0280  -30.0480 C   0  0  0  0  0  0  0  0  0  0  0  0
   -2.9960   24.5150  -29.4780 S   0  0  0  0  0  0  0  0  0  0  0  0
   -3.9390   24.1930  -28.3530 O   0  0  0  0  0  0  0  0  0  0  0  0
   -1.9440   25.4540  -28.9580 O   0  0  0  0  0  0  0  0  0  0  0  0
   -3.8900   25.2860  -30.7580 N   0  0  0  0  0  0  0  0  0  0  0  0
   -5.2260   25.6840  -30.3110 C   0  0  0  0  0  0  0  0  0  0  0  0
   -6.2290   24.5370  -30.5000 C   0  0  0  0  0  0  0  0  0  0  0  0
   -6.2410   23.9720  -31.9410 C   0  0  0  0  0  0  0  0  0  0  0  0
   -5.8020   22.5010  -32.0290 C   0  0  0  0  0  0  0  0  0  0  0  0
   -6.9690   21.5540  -32.1360 C   0  0  0  0  0  0  0  0  0  0  0  0
   -8.2680   21.9870  -31.8190 C   0  0  0  0  0  0  0  0  0  0  0  0
   -9.3470   21.1020  -31.9090 C   0  0  0  0  0  0  0  0  0  0  0  0
   -9.1390   19.7830  -32.3220 C   0  0  0  0  0  0  0  0  0  0  0  0
   -7.8500   19.3430  -32.6330 C   0  0  0  0  0  0  0  0  0  0  0  0
   -6.7670   20.2210  -32.5340 C   0  0  0  0  0  0  0  0  0  0  0  0
   -2.7270   22.3860  -31.1920 C   0  0  0  0  0  0  0  0  0  0  0  0
   -2.1000   21.2310  -31.6870 C   0  0  0  0  0  0  0  0  0  0  0  0
   -2.6260   20.5620  -32.9250 C   0  0  0  0  0  0  0  0  0  0  0  0
    0.1828   18.8067  -29.6689 H   0  0  0  0  0  0  0  0  0  0  0  0
   -0.0142   17.5797  -30.9659 H   0  0  0  0  0  0  0  0  0  0  0  0
    1.4174   18.6647  -30.9659 H   0  0  0  0  0  0  0  0  0  0  0  0
    0.3607   20.9297  -29.3191 H   0  0  0  0  0  0  0  0  0  0  0  0
   -0.7533   22.9893  -28.4701 H   0  0  0  0  0  0  0  0  0  0  0  0
   -5.1840   25.9543  -29.2456 H   0  0  0  0  0  0  0  0  0  0  0  0
   -5.5569   26.5440  -30.9118 H   0  0  0  0  0  0  0  0  0  0  0  0
   -5.9657   23.7240  -29.8074 H   0  0  0  0  0  0  0  0  0  0  0  0
   -7.2317   24.9416  -30.2980 H   0  0  0  0  0  0  0  0  0  0  0  0
   -7.2635   24.0541  -32.3383 H   0  0  0  0  0  0  0  0  0  0  0  0
   -5.5171   24.5601  -32.5242 H   0  0  0  0  0  0  0  0  0  0  0  0
   -5.1643   22.3761  -32.9165 H   0  0  0  0  0  0  0  0  0  0  0  0
   -5.2600   22.2589  -31.1029 H   0  0  0  0  0  0  0  0  0  0  0  0
   -8.4365   23.0258  -31.4989 H   0  0  0  0  0  0  0  0  0  0  0  0
  -10.3609   21.4444  -31.6544 H   0  0  0  0  0  0  0  0  0  0  0  0
   -9.9904   19.0912  -32.4022 H   0  0  0  0  0  0  0  0  0  0  0  0
   -7.6872   18.3042  -32.9562 H   0  0  0  0  0  0  0  0  0  0  0  0
   -5.7522   19.8674  -32.7686 H   0  0  0  0  0  0  0  0  0  0  0  0
   -3.6099   22.7901  -31.7088 H   0  0  0  0  0  0  0  0  0  0  0  0
   -3.2826   19.7269  -32.6397 H   0  0  0  0  0  0  0  0  0  0  0  0
   -3.1963   21.2898  -33.5209 H   0  0  0  0  0  0  0  0  0  0  0  0
   -1.7842   20.1795  -33.5209 H   0  0  0  0  0  0  0  0  0  0  0  0
  1  2  1  0
  2  3  1  0
  3  4  2  0
  4  5  1  0
  5  6  2  0
  6  7  1  0
  7  8  2  0
  7  9  2  0
  7 10  1  0
 10 11  1  0
 11 12  1  0
 12 13  1  0
 13 14  1  0
 14 15  1  0
 15 16  2  0
 16 17  1  0
 17 18  2  0
 18 19  1  0
 19 20  2  0
  6 21  1  0
 21 22  2  0
 22 23  1  0
 22  3  1  0
 20 15  1  0
  1 24  1  0
  1 25  1  0
  1 26  1  0
  4 27  1  0
  5 28  1  0
 11 29  1  0
 11 30  1  0
 12 31  1  0
 12 32  1  0
 13 33  1  0
 13 34  1  0
 14 35  1  0
 14 36  1  0
 16 37  1  0
 17 38  1  0
 18 39  1  0
 19 40  1  0
 20 41  1  0
 21 42  1  0
 23 43  1  0
 23 44  1  0
 23 45  1  0
M  CHG  1  10  -1
M  END
>  <UniqueID>  (29) 
28

>  <SMILES>  (29) 
COc1ccc(S(=O)(=O)[N-]CCCCc2ccccc2)cc1C

>  <Energy>  (29) 
38.258629109144906

>  <Genealogy>  (29) 
COc1ccc(S(=O)(=O)[N-]CCCCc2ccccc2)cc1C (protonated)
COc1ccc(S(=O)(=O)[N-]CCCCc2ccccc2)cc1C (3D coordinates assigned)
COc1ccc(S(=O)(=O)[N-]CCCCc2ccccc2)cc1C (optimized conformer: 38.258629109144906 kcal/mol)

>  <smiles>  (29) 
COc1ccc(S(=O)(=O)NCCCCc2ccccc2)cc1C

>  <score_type>  (29) 
oracle

>  <origin>  (29) 
adgpu

>  <m_score__min__energy>  (29) 
-9.6600000000000001

>  <m_primary>  (29) 
energy

$$$$
29:0
     RDKit          3D

 49 51  0  0  0  0  0  0  0  0999 V2000
   -6.1650   17.2470  -31.3530 C   0  0  0  0  0  0  0  0  0  0  0  0
   -5.8520   17.6020  -32.6960 O   0  0  0  0  0  0  0  0  0  0  0  0
   -4.5700   17.9390  -33.1550 C   0  0  0  0  0  0  0  0  0  0  0  0
   -3.8450   17.0800  -34.0080 C   0  0  0  0  0  0  0  0  0  0  0  0
   -2.5820   17.4450  -34.4740 C   0  0  0  0  0  0  0  0  0  0  0  0
   -2.0300   18.6730  -34.1100 C   0  0  0  0  0  0  0  0  0  0  0  0
   -2.7340   19.5320  -33.2660 C   0  0  0  0  0  0  0  0  0  0  0  0
   -3.9930   19.1670  -32.7600 C   0  0  0  0  0  0  0  0  0  0  0  0
   -4.6250   20.0370  -31.8030 N   0  0  0  0  0  0  0  0  0  0  0  0
   -6.1570   20.8220  -32.0670 S   0  0  0  0  0  0  0  0  0  0  0  0
   -6.4740   20.7930  -33.5360 O   0  0  0  0  0  0  0  0  0  0  0  0
   -7.2070   20.0460  -31.3230 O   0  0  0  0  0  0  0  0  0  0  0  0
   -6.1130   22.5200  -31.5420 C   0  0  0  0  0  0  0  0  0  0  0  0
   -4.8590   23.1200  -31.3570 C   0  0  0  0  0  0  0  0  0  0  0  0
   -4.7430   24.3870  -30.7680 C   0  0  0  0  0  0  0  0  0  0  0  0
   -3.4700   24.9130  -30.3660 N   0  0  0  0  0  0  0  0  0  0  0  0
   -2.4290   24.1630  -29.7310 C   0  0  0  0  0  0  0  0  0  0  0  0
   -1.4160   24.7600  -29.2770 O   0  0  0  0  0  0  0  0  0  0  0  0
   -2.5430   22.6960  -29.6030 C   0  0  0  0  0  0  0  0  0  0  0  0
   -3.3230   21.9650  -28.7190 C   0  0  0  0  0  0  0  0  0  0  0  0
   -4.2310   22.4980  -27.6580 C   0  0  0  0  0  0  0  0  0  0  0  0
   -3.1810   20.6500  -28.9780 N   0  0  0  0  0  0  0  0  0  0  0  0
   -2.3550   20.5440  -29.9790 O   0  0  0  0  0  0  0  0  0  0  0  0
   -1.9500   21.7220  -30.3920 C   0  0  0  0  0  0  0  0  0  0  0  0
   -1.0190   21.9250  -31.5420 C   0  0  0  0  0  0  0  0  0  0  0  0
   -5.8990   25.0960  -30.4390 C   0  0  0  0  0  0  0  0  0  0  0  0
   -7.1580   24.5540  -30.7050 C   0  0  0  0  0  0  0  0  0  0  0  0
   -7.2840   23.2700  -31.2660 C   0  0  0  0  0  0  0  0  0  0  0  0
   -8.6630   22.7230  -31.5090 C   0  0  0  0  0  0  0  0  0  0  0  0
   -5.5987   17.8893  -30.6625 H   0  0  0  0  0  0  0  0  0  0  0  0
   -7.2427   17.3827  -31.1795 H   0  0  0  0  0  0  0  0  0  0  0  0
   -5.8954   16.1948  -31.1795 H   0  0  0  0  0  0  0  0  0  0  0  0
   -4.2793   16.1149  -34.3078 H   0  0  0  0  0  0  0  0  0  0  0  0
   -2.0204   16.7632  -35.1296 H   0  0  0  0  0  0  0  0  0  0  0  0
   -1.0391   18.9643  -34.4886 H   0  0  0  0  0  0  0  0  0  0  0  0
   -2.2991   20.5050  -32.9938 H   0  0  0  0  0  0  0  0  0  0  0  0
   -4.2830   20.0170  -30.8160 H   0  0  0  0  0  0  0  0  0  0  0  0
   -3.9518   22.5880  -31.6792 H   0  0  0  0  0  0  0  0  0  0  0  0
   -3.8189   22.2561  -26.6672 H   0  0  0  0  0  0  0  0  0  0  0  0
   -4.3165   23.5896  -27.7630 H   0  0  0  0  0  0  0  0  0  0  0  0
   -5.2258   22.0405  -27.7630 H   0  0  0  0  0  0  0  0  0  0  0  0
   -0.0102   22.1450  -31.1626 H   0  0  0  0  0  0  0  0  0  0  0  0
   -0.9892   21.0122  -32.1552 H   0  0  0  0  0  0  0  0  0  0  0  0
   -1.3719   22.7673  -32.1552 H   0  0  0  0  0  0  0  0  0  0  0  0
   -5.8180   26.0867  -29.9678 H   0  0  0  0  0  0  0  0  0  0  0  0
   -8.0613   25.1374  -30.4734 H   0  0  0  0  0  0  0  0  0  0  0  0
   -9.1552   22.5278  -30.5448 H   0  0  0  0  0  0  0  0  0  0  0  0
   -9.2526   23.4554  -32.0800 H   0  0  0  0  0  0  0  0  0  0  0  0
   -8.5903   21.7856  -32.0800 H   0  0  0  0  0  0  0  0  0  0  0  0
  1  2  1  0
  2  3  1  0
  3  4  2  0
  4  5  1  0
  5  6  2  0
  6  7  1  0
  7  8  2  0
  8  9  1  0
  9 10  1  0
 10 11  2  0
 10 12  2  0
 10 13  1  0
 13 14  2  0
 14 15  1  0
 15 16  1  0
 16 17  1  0
 17 18  2  0
 17 19  1  0
 19 20  1  0
 20 21  1  0
 20 22  2  0
 22 23  1  0
 23 24  1  0
 24 25  1  0
 15 26  2  0
 26 27  1  0
 27 28  2  0
 28 29  1  0
  8  3  1  0
 28 13  1  0
 24 19  2  0
  1 30  1  0
  1 31  1  0
  1 32  1  0
  4 33  1  0
  5 34  1  0
  6 35  1  0
  7 36  1  0
  9 37  1  0
 14 38  1  0
 21 39  1  0
 21 40  1  0
 21 41  1  0
 25 42  1  0
 25 43  1  0
 25 44  1  0
 26 45  1  0
 27 46  1  0
 29 47  1  0
 29 48  1  0
 29 49  1  0
M  CHG  1  16  -1
M  END
>  <UniqueID>  (30) 
29

>  <SMILES>  (30) 
COc1ccccc1NS(=O)(=O)c1cc([N-]C(=O)c2c(C)noc2C)ccc1C

>  <Energy>  (30) 
88.46464954537947

>  <Genealogy>  (30) 
COc1ccccc1NS(=O)(=O)c1cc([N-]C(=O)c2c(C)noc2C)ccc1C (protonated)
COc1ccccc1NS(=O)(=O)c1cc([N-]C(=O)c2c(C)noc2C)ccc1C (3D coordinates assigned)
COc1ccccc1NS(=O)(=O)c1cc([N-]C(=O)c2c(C)noc2C)ccc1C (optimized conformer: 88.46464954537947 kcal/mol)

>  <smiles>  (30) 
COc1ccccc1NS(=O)(=O)c1cc(NC(=O)c2c(C)noc2C)ccc1C

>  <score_type>  (30) 
oracle

>  <origin>  (30) 
adgpu

>  <m_score__min__energy>  (30) 
-11.029999999999999

>  <m_primary>  (30) 
energy

$$$$
30:0
     RDKit          3D

 40 42  0  0  0  0  0  0  0  0999 V2000
   -3.3670   23.4630  -27.6700 O   0  0  0  0  0  0  0  0  0  0  0  0
   -2.7970   24.5000  -28.1070 C   0  0  0  0  0  0  0  0  0  0  0  0
   -2.9410   24.8770  -29.4870 N   0  0  0  0  0  0  0  0  0  0  0  0
   -3.8030   24.2010  -30.4170 C   0  0  0  0  0  0  0  0  0  0  0  0
   -5.1000   24.6900  -30.6370 C   0  0  0  0  0  0  0  0  0  0  0  0
   -5.9580   24.0410  -31.5270 C   0  0  0  0  0  0  0  0  0  0  0  0
   -5.5370   22.8880  -32.1950 C   0  0  0  0  0  0  0  0  0  0  0  0
   -4.2560   22.3710  -31.9620 C   0  0  0  0  0  0  0  0  0  0  0  0
   -3.7220   20.8950  -32.7590 S   0  0  0  0  0  0  0  0  0  0  0  0
   -3.2760   19.9150  -31.7100 O   0  0  0  0  0  0  0  0  0  0  0  0
   -2.5750   21.1670  -33.6950 O   0  0  0  0  0  0  0  0  0  0  0  0
   -5.0400   20.2090  -33.6540 N   0  0  0  0  0  0  0  0  0  0  0  0
   -6.2650   19.7370  -33.0810 C   0  0  0  0  0  0  0  0  0  0  0  0
   -6.3890   18.3730  -32.7940 C   0  0  0  0  0  0  0  0  0  0  0  0
   -7.5620   17.8730  -32.2210 C   0  0  0  0  0  0  0  0  0  0  0  0
   -8.6230   18.7350  -31.9340 C   0  0  0  0  0  0  0  0  0  0  0  0
   -8.5140   20.0990  -32.2240 C   0  0  0  0  0  0  0  0  0  0  0  0
   -9.8470   21.1800  -31.8660 Cl  0  0  0  0  0  0  0  0  0  0  0  0
   -7.3410   20.6010  -32.7970 C   0  0  0  0  0  0  0  0  0  0  0  0
   -3.3950   23.0230  -31.0690 C   0  0  0  0  0  0  0  0  0  0  0  0
   -1.9940   25.3190  -27.1750 C   0  0  0  0  0  0  0  0  0  0  0  0
   -1.9400   24.9560  -25.8210 C   0  0  0  0  0  0  0  0  0  0  0  0
   -1.1950   25.7130  -24.9130 C   0  0  0  0  0  0  0  0  0  0  0  0
   -0.4920   26.8350  -25.3490 C   0  0  0  0  0  0  0  0  0  0  0  0
   -0.5210   27.1960  -26.6960 C   0  0  0  0  0  0  0  0  0  0  0  0
   -1.2590   26.4400  -27.6140 C   0  0  0  0  0  0  0  0  0  0  0  0
   -1.2300   26.7960  -28.9560 O   0  0  0  0  0  0  0  0  0  0  0  0
   -2.3710   25.6710  -29.8530 H   0  0  0  0  0  0  0  0  0  0  0  0
   -5.4426   25.5899  -30.1051 H   0  0  0  0  0  0  0  0  0  0  0  0
   -6.9685   24.4385  -31.7029 H   0  0  0  0  0  0  0  0  0  0  0  0
   -6.2118   22.3861  -32.9041 H   0  0  0  0  0  0  0  0  0  0  0  0
   -5.5576   17.6894  -33.0209 H   0  0  0  0  0  0  0  0  0  0  0  0
   -7.6495   16.7998  -31.9959 H   0  0  0  0  0  0  0  0  0  0  0  0
   -9.5442   18.3411  -31.4799 H   0  0  0  0  0  0  0  0  0  0  0  0
   -7.2583   21.6736  -33.0266 H   0  0  0  0  0  0  0  0  0  0  0  0
   -2.3934   22.6109  -30.8765 H   0  0  0  0  0  0  0  0  0  0  0  0
   -2.4883   24.0687  -25.4715 H   0  0  0  0  0  0  0  0  0  0  0  0
   -1.1632   25.4231  -23.8524 H   0  0  0  0  0  0  0  0  0  0  0  0
    0.0855   27.4356  -24.6309 H   0  0  0  0  0  0  0  0  0  0  0  0
    0.0387   28.0789  -27.0384 H   0  0  0  0  0  0  0  0  0  0  0  0
  1  2  2  0
  2  3  1  0
  3  4  1  0
  4  5  2  0
  5  6  1  0
  6  7  2  0
  7  8  1  0
  8  9  1  0
  9 10  2  0
  9 11  2  0
  9 12  1  0
 12 13  1  0
 13 14  2  0
 14 15  1  0
 15 16  2  0
 16 17  1  0
 17 18  1  0
 17 19  2  0
  8 20  2  0
  2 21  1  0
 21 22  2  0
 22 23  1  0
 23 24  2  0
 24 25  1  0
 25 26  2  0
 26 27  1  0
 20  4  1  0
 26 21  1  0
 19 13  1  0
  3 28  1  0
  5 29  1  0
  6 30  1  0
  7 31  1  0
 14 32  1  0
 15 33  1  0
 16 34  1  0
 19 35  1  0
 20 36  1  0
 22 37  1  0
 23 38  1  0
 24 39  1  0
 25 40  1  0
M  CHG  2  12  -1  27  -1
M  END
>  <UniqueID>  (31) 
30

>  <SMILES>  (31) 
O=C(Nc1cccc(S(=O)(=O)[N-]c2cccc(Cl)c2)c1)c1ccccc1[O-]

>  <Energy>  (31) 
54.583294328211196

>  <Genealogy>  (31) 
O=C(Nc1cccc(S(=O)(=O)[N-]c2cccc(Cl)c2)c1)c1ccccc1[O-] (protonated)
O=C(Nc1cccc(S(=O)(=O)[N-]c2cccc(Cl)c2)c1)c1ccccc1[O-] (3D coordinates assigned)
O=C(Nc1cccc(S(=O)(=O)[N-]c2cccc(Cl)c2)c1)c1ccccc1[O-] (optimized conformer: 54.583294328211196 kcal/mol)

>  <smiles>  (31) 
O=C(Nc1cccc(S(=O)(=O)Nc2cccc(Cl)c2)c1)c1ccccc1O

>  <score_type>  (31) 
oracle

>  <origin>  (31) 
adgpu

>  <m_score__min__energy>  (31) 
-12.4

>  <m_primary>  (31) 
energy

$$$$
31:0
     RDKit          3D

 48 51  0  0  0  0  0  0  0  0999 V2000
   -0.5240   21.0560  -29.5100 C   0  0  0  0  0  0  0  0  0  0  0  0
   -1.1560   22.3200  -29.4130 O   0  0  0  0  0  0  0  0  0  0  0  0
   -2.3180   22.6050  -30.1520 C   0  0  0  0  0  0  0  0  0  0  0  0
   -2.8300   21.5630  -30.9330 C   0  0  0  0  0  0  0  0  0  0  0  0
   -3.9820   21.7940  -31.6860 C   0  0  0  0  0  0  0  0  0  0  0  0
   -4.4920   20.6970  -32.4700 C   0  0  0  0  0  0  0  0  0  0  0  0
   -5.7760   20.2870  -32.7420 C   0  0  0  0  0  0  0  0  0  0  0  0
   -6.9820   20.9180  -32.2750 C   0  0  0  0  0  0  0  0  0  0  0  0
   -7.2730   22.2550  -32.3940 C   0  0  0  0  0  0  0  0  0  0  0  0
   -8.4850   22.7280  -31.8970 C   0  0  0  0  0  0  0  0  0  0  0  0
   -9.4060   21.9180  -31.2900 C   0  0  0  0  0  0  0  0  0  0  0  0
   -9.1200   20.5860  -31.1690 C   0  0  0  0  0  0  0  0  0  0  0  0
   -7.9260   20.0940  -31.6530 C   0  0  0  0  0  0  0  0  0  0  0  0
   -5.7080   19.1950  -33.5250 N   0  0  0  0  0  0  0  0  0  0  0  0
   -4.4450   18.8820  -33.7700 N   0  0  0  0  0  0  0  0  0  0  0  0
   -3.8900   17.8800  -34.4950 C   0  0  0  0  0  0  0  0  0  0  0  0
   -4.5900   17.0100  -35.1070 N   0  0  0  0  0  0  0  0  0  0  0  0
   -2.5000   17.7770  -34.5930 C   0  0  0  0  0  0  0  0  0  0  0  0
   -1.7520   18.7270  -33.9250 C   0  0  0  0  0  0  0  0  0  0  0  0
   -0.0230   18.6390  -34.0150 Cl  0  0  0  0  0  0  0  0  0  0  0  0
   -2.3150   19.7010  -33.2180 N   0  0  0  0  0  0  0  0  0  0  0  0
   -3.6600   19.7910  -33.1320 C   0  0  0  0  0  0  0  0  0  0  0  0
   -4.5620   23.0450  -31.6230 C   0  0  0  0  0  0  0  0  0  0  0  0
   -4.0320   24.0610  -30.8380 C   0  0  0  0  0  0  0  0  0  0  0  0
   -4.6080   25.3130  -30.7730 O   0  0  0  0  0  0  0  0  0  0  0  0
   -5.8120   25.6090  -30.1230 C   0  0  0  0  0  0  0  0  0  0  0  0
   -2.8900   23.8340  -30.0910 C   0  0  0  0  0  0  0  0  0  0  0  0
   -2.3280   24.8170  -29.2950 O   0  0  0  0  0  0  0  0  0  0  0  0
   -2.1840   24.7600  -27.9050 C   0  0  0  0  0  0  0  0  0  0  0  0
   -0.3286   20.6653  -28.5005 H   0  0  0  0  0  0  0  0  0  0  0  0
   -1.1796   20.3589  -30.0524 H   0  0  0  0  0  0  0  0  0  0  0  0
    0.4270   21.1622  -30.0524 H   0  0  0  0  0  0  0  0  0  0  0  0
   -2.3343   20.5812  -30.9530 H   0  0  0  0  0  0  0  0  0  0  0  0
   -6.5601   22.9414  -32.8743 H   0  0  0  0  0  0  0  0  0  0  0  0
   -8.7119   23.7997  -31.9967 H   0  0  0  0  0  0  0  0  0  0  0  0
  -10.3529   22.3280  -30.9088 H   0  0  0  0  0  0  0  0  0  0  0  0
   -9.8405   19.9089  -30.6869 H   0  0  0  0  0  0  0  0  0  0  0  0
   -7.7093   19.0208  -31.5467 H   0  0  0  0  0  0  0  0  0  0  0  0
   -5.6330   17.0290  -35.0770 H   0  0  0  0  0  0  0  0  0  0  0  0
   -2.0228   16.9754  -35.1759 H   0  0  0  0  0  0  0  0  0  0  0  0
   -1.7130   20.4070  -32.7200 H   0  0  0  0  0  0  0  0  0  0  0  0
   -5.4701   23.2430  -32.2114 H   0  0  0  0  0  0  0  0  0  0  0  0
   -5.6597   25.5716  -29.0342 H   0  0  0  0  0  0  0  0  0  0  0  0
   -6.1467   26.6162  -30.4120 H   0  0  0  0  0  0  0  0  0  0  0  0
   -6.5756   24.8718  -30.4120 H   0  0  0  0  0  0  0  0  0  0  0  0
   -3.1046   25.1244  -27.4258 H   0  0  0  0  0  0  0  0  0  0  0  0
   -1.9976   23.7203  -27.5980 H   0  0  0  0  0  0  0  0  0  0  0  0
   -1.3365   25.3905  -27.5980 H   0  0  0  0  0  0  0  0  0  0  0  0
  1  2  1  0
  2  3  1  0
  3  4  2  0
  4  5  1  0
  5  6  1  0
  6  7  1  0
  7  8  1  0
  8  9  2  0
  9 10  1  0
 10 11  2  0
 11 12  1  0
 12 13  2  0
  7 14  2  0
 14 15  1  0
 15 16  1  0
 16 17  2  3
 16 18  1  0
 18 19  2  0
 19 20  1  0
 19 21  1  0
 21 22  1  0
  5 23  2  0
 23 24  1  0
 24 25  1  0
 25 26  1  0
 24 27  2  0
 27 28  1  0
 28 29  1  0
 27  3  1  0
 22  6  2  0
 13  8  1  0
 22 15  1  0
  1 30  1  0
  1 31  1  0
  1 32  1  0
  4 33  1  0
  9 34  1  0
 10 35  1  0
 11 36  1  0
 12 37  1  0
 13 38  1  0
 17 39  1  0
 18 40  1  0
 21 41  1  0
 23 42  1  0
 26 43  1  0
 26 44  1  0
 26 45  1  0
 29 46  1  0
 29 47  1  0
 29 48  1  0
M  END
>  <smiles>  (32) 
COc1cc(-c2c(-c3ccccc3)nn3c(=N)cc(Cl)[nH]c23)cc(OC)c1OC

>  <score_type>  (32) 
oracle

>  <origin>  (32) 
adgpu

>  <m_score__min__energy>  (32) 
-8.9199999999999999

>  <m_primary>  (32) 
energy

$$$$
32:0
     RDKit          3D

 51 53  0  0  0  0  0  0  0  0999 V2000
    2.8660   19.5960  -34.0930 C   0  0  0  0  0  0  0  0  0  0  0  0
    2.1370   20.1640  -33.0090 O   0  0  0  0  0  0  0  0  0  0  0  0
    0.7420   20.3240  -32.9720 C   0  0  0  0  0  0  0  0  0  0  0  0
   -0.0280   19.7340  -31.9490 C   0  0  0  0  0  0  0  0  0  0  0  0
   -1.4150   19.8890  -31.9220 C   0  0  0  0  0  0  0  0  0  0  0  0
   -2.0700   20.6120  -32.9260 C   0  0  0  0  0  0  0  0  0  0  0  0
   -3.5430   20.7730  -32.8910 C   0  0  0  0  0  0  0  0  0  0  0  0
   -4.2840   19.7890  -33.1730 O   0  0  0  0  0  0  0  0  0  0  0  0
   -4.1360   22.0420  -32.5840 N   0  0  0  0  0  0  0  0  0  0  0  0
   -5.4990   22.1540  -32.1570 C   0  0  0  0  0  0  0  0  0  0  0  0
   -6.4510   21.2720  -32.6940 C   0  0  0  0  0  0  0  0  0  0  0  0
   -7.7720   21.2960  -32.2440 C   0  0  0  0  0  0  0  0  0  0  0  0
   -8.1560   22.2040  -31.2580 C   0  0  0  0  0  0  0  0  0  0  0  0
   -7.2230   23.0980  -30.7280 C   0  0  0  0  0  0  0  0  0  0  0  0
   -5.8920   23.0920  -31.1710 C   0  0  0  0  0  0  0  0  0  0  0  0
   -4.8080   24.3290  -30.5210 S   0  0  0  0  0  0  0  0  0  0  0  0
   -5.0350   25.6700  -31.1580 O   0  0  0  0  0  0  0  0  0  0  0  0
   -5.0610   24.4440  -29.0450 O   0  0  0  0  0  0  0  0  0  0  0  0
   -3.1690   23.8270  -30.7820 N   0  0  0  0  0  0  0  0  0  0  0  0
   -2.4120   23.0240  -29.8660 C   0  0  0  0  0  0  0  0  0  0  0  0
   -1.0600   23.3290  -29.6660 C   0  0  0  0  0  0  0  0  0  0  0  0
   -0.2850   22.5640  -28.7890 C   0  0  0  0  0  0  0  0  0  0  0  0
   -0.8610   21.4990  -28.0920 C   0  0  0  0  0  0  0  0  0  0  0  0
   -2.2200   21.1940  -28.2620 C   0  0  0  0  0  0  0  0  0  0  0  0
   -2.8280   20.0480  -27.5050 C   0  0  0  0  0  0  0  0  0  0  0  0
   -2.9930   21.9530  -29.1570 C   0  0  0  0  0  0  0  0  0  0  0  0
   -1.3100   21.2090  -33.9420 C   0  0  0  0  0  0  0  0  0  0  0  0
    0.0880   21.0910  -33.9710 C   0  0  0  0  0  0  0  0  0  0  0  0
    0.7560   21.7710  -35.0070 O   0  0  0  0  0  0  0  0  0  0  0  0
    0.2660   22.8910  -35.7350 C   0  0  0  0  0  0  0  0  0  0  0  0
    3.6762   18.9647  -33.6992 H   0  0  0  0  0  0  0  0  0  0  0  0
    2.1904   18.9838  -34.7084 H   0  0  0  0  0  0  0  0  0  0  0  0
    3.2944   20.4008  -34.7084 H   0  0  0  0  0  0  0  0  0  0  0  0
    0.4693   19.1454  -31.1640 H   0  0  0  0  0  0  0  0  0  0  0  0
   -1.9982   19.4393  -31.1049 H   0  0  0  0  0  0  0  0  0  0  0  0
   -3.5740   22.9160  -32.6970 H   0  0  0  0  0  0  0  0  0  0  0  0
   -6.1533   20.5569  -33.4751 H   0  0  0  0  0  0  0  0  0  0  0  0
   -8.5100   20.5987  -32.6672 H   0  0  0  0  0  0  0  0  0  0  0  0
   -9.1950   22.2162  -30.8971 H   0  0  0  0  0  0  0  0  0  0  0  0
   -7.5354   23.8149  -29.9544 H   0  0  0  0  0  0  0  0  0  0  0  0
   -0.6051   24.1752  -30.2018 H   0  0  0  0  0  0  0  0  0  0  0  0
    0.7798   22.8010  -28.6476 H   0  0  0  0  0  0  0  0  0  0  0  0
   -0.2463   20.8968  -27.4068 H   0  0  0  0  0  0  0  0  0  0  0  0
   -2.7315   20.2300  -26.4245 H   0  0  0  0  0  0  0  0  0  0  0  0
   -3.8923   19.9583  -27.7681 H   0  0  0  0  0  0  0  0  0  0  0  0
   -2.3055   19.1164  -27.7681 H   0  0  0  0  0  0  0  0  0  0  0  0
   -4.0557   21.7105  -29.3050 H   0  0  0  0  0  0  0  0  0  0  0  0
   -1.8195   21.7809  -34.7315 H   0  0  0  0  0  0  0  0  0  0  0  0
   -0.0730   23.6658  -35.0315 H   0  0  0  0  0  0  0  0  0  0  0  0
    1.0689   23.2965  -36.3681 H   0  0  0  0  0  0  0  0  0  0  0  0
   -0.5768   22.5766  -36.3681 H   0  0  0  0  0  0  0  0  0  0  0  0
  1  2  1  0
  2  3  1  0
  3  4  2  0
  4  5  1  0
  5  6  2  0
  6  7  1  0
  7  8  2  0
  7  9  1  0
  9 10  1  0
 10 11  2  0
 11 12  1  0
 12 13  2  0
 13 14  1  0
 14 15  2  0
 15 16  1  0
 16 17  2  0
 16 18  2  0
 16 19  1  0
 19 20  1  0
 20 21  2  0
 21 22  1  0
 22 23  2  0
 23 24  1  0
 24 25  1  0
 24 26  2  0
  6 27  1  0
 27 28  2  0
 28 29  1  0
 29 30  1  0
 28  3  1  0
 15 10  1  0
 26 20  1  0
  1 31  1  0
  1 32  1  0
  1 33  1  0
  4 34  1  0
  5 35  1  0
  9 36  1  0
 11 37  1  0
 12 38  1  0
 13 39  1  0
 14 40  1  0
 21 41  1  0
 22 42  1  0
 23 43  1  0
 25 44  1  0
 25 45  1  0
 25 46  1  0
 26 47  1  0
 27 48  1  0
 30 49  1  0
 30 50  1  0
 30 51  1  0
M  CHG  1  19  -1
M  END
>  <UniqueID>  (33) 
31

>  <SMILES>  (33) 
COc1ccc(C(=O)Nc2ccccc2S(=O)(=O)[N-]c2cccc(C)c2)cc1OC

>  <Energy>  (33) 
69.53810594055696

>  <Genealogy>  (33) 
COc1ccc(C(=O)Nc2ccccc2S(=O)(=O)[N-]c2cccc(C)c2)cc1OC (protonated)
COc1ccc(C(=O)Nc2ccccc2S(=O)(=O)[N-]c2cccc(C)c2)cc1OC (3D coordinates assigned)
COc1ccc(C(=O)Nc2ccccc2S(=O)(=O)[N-]c2cccc(C)c2)cc1OC (optimized conformer: 69.53810594055696 kcal/mol)

>  <smiles>  (33) 
COc1ccc(C(=O)Nc2ccccc2S(=O)(=O)Nc2cccc(C)c2)cc1OC

>  <score_type>  (33) 
oracle

>  <origin>  (33) 
adgpu

>  <m_score__min__energy>  (33) 
-9.3000000000000007

>  <m_primary>  (33) 
energy

$$$$
33:0
     RDKit          3D

 40 41  0  0  0  0  0  0  0  0999 V2000
   -1.5180   18.2710  -33.7720 C   0  0  0  0  0  0  0  0  0  0  0  0
   -2.6620   18.3700  -34.6130 O   0  0  0  0  0  0  0  0  0  0  0  0
   -3.9800   18.5120  -34.1500 C   0  0  0  0  0  0  0  0  0  0  0  0
   -4.9530   17.5160  -34.3520 C   0  0  0  0  0  0  0  0  0  0  0  0
   -6.2540   17.6910  -33.8780 C   0  0  0  0  0  0  0  0  0  0  0  0
   -6.6120   18.8620  -33.1920 C   0  0  0  0  0  0  0  0  0  0  0  0
   -7.9940   19.0420  -32.6860 C   0  0  0  0  0  0  0  0  0  0  0  0
   -8.5270   18.1490  -31.9720 O   0  0  0  0  0  0  0  0  0  0  0  0
   -8.7320   20.2280  -33.0080 N   0  0  0  0  0  0  0  0  0  0  0  0
   -9.3450   21.0960  -32.0080 C   0  0  0  0  0  0  0  0  0  0  0  0
   -8.3360   22.0830  -31.4860 C   0  0  0  0  0  0  0  0  0  0  0  0
   -7.7060   22.9740  -32.3690 C   0  0  0  0  0  0  0  0  0  0  0  0
   -6.7510   23.8780  -31.8960 C   0  0  0  0  0  0  0  0  0  0  0  0
   -6.4140   23.9010  -30.5350 C   0  0  0  0  0  0  0  0  0  0  0  0
   -5.2010   25.0270  -29.9380 S   0  0  0  0  0  0  0  0  0  0  0  0
   -3.7330   24.8300  -30.8290 N   0  0  0  0  0  0  0  0  0  0  0  0
   -4.9250   24.7610  -28.4850 O   0  0  0  0  0  0  0  0  0  0  0  0
   -5.7030   26.4350  -30.1010 O   0  0  0  0  0  0  0  0  0  0  0  0
   -7.0320   23.0020  -29.6550 C   0  0  0  0  0  0  0  0  0  0  0  0
   -7.9880   22.0990  -30.1260 C   0  0  0  0  0  0  0  0  0  0  0  0
   -5.6390   19.8560  -32.9880 C   0  0  0  0  0  0  0  0  0  0  0  0
   -4.3240   19.6860  -33.4650 C   0  0  0  0  0  0  0  0  0  0  0  0
   -3.3310   20.6610  -33.2770 O   0  0  0  0  0  0  0  0  0  0  0  0
   -3.5480   21.9290  -32.6660 C   0  0  0  0  0  0  0  0  0  0  0  0
   -1.8338   18.2983  -32.7187 H   0  0  0  0  0  0  0  0  0  0  0  0
   -0.9955   17.3243  -33.9737 H   0  0  0  0  0  0  0  0  0  0  0  0
   -0.8406   19.1139  -33.9737 H   0  0  0  0  0  0  0  0  0  0  0  0
   -4.6864   16.5928  -34.8873 H   0  0  0  0  0  0  0  0  0  0  0  0
   -7.0051   16.9046  -34.0434 H   0  0  0  0  0  0  0  0  0  0  0  0
  -10.1834   21.6415  -32.4656 H   0  0  0  0  0  0  0  0  0  0  0  0
   -9.7085   20.4794  -31.1727 H   0  0  0  0  0  0  0  0  0  0  0  0
   -7.9652   22.9606  -33.4379 H   0  0  0  0  0  0  0  0  0  0  0  0
   -6.2620   24.5738  -32.5936 H   0  0  0  0  0  0  0  0  0  0  0  0
   -3.4730   25.7690  -31.2040 H   0  0  0  0  0  0  0  0  0  0  0  0
   -6.7629   23.0076  -28.5884 H   0  0  0  0  0  0  0  0  0  0  0  0
   -8.4699   21.3979  -29.4288 H   0  0  0  0  0  0  0  0  0  0  0  0
   -5.9073   20.7771  -32.4498 H   0  0  0  0  0  0  0  0  0  0  0  0
   -3.5288   21.8169  -31.5719 H   0  0  0  0  0  0  0  0  0  0  0  0
   -2.7561   22.6262  -32.9771 H   0  0  0  0  0  0  0  0  0  0  0  0
   -4.5267   22.3232  -32.9771 H   0  0  0  0  0  0  0  0  0  0  0  0
  1  2  1  0
  2  3  1  0
  3  4  2  0
  4  5  1  0
  5  6  2  0
  6  7  1  0
  7  8  2  0
  7  9  1  0
  9 10  1  0
 10 11  1  0
 11 12  2  0
 12 13  1  0
 13 14  2  0
 14 15  1  0
 15 16  1  0
 15 17  2  0
 15 18  2  0
 14 19  1  0
 19 20  2  0
  6 21  1  0
 21 22  2  0
 22 23  1  0
 23 24  1  0
 22  3  1  0
 20 11  1  0
  1 25  1  0
  1 26  1  0
  1 27  1  0
  4 28  1  0
  5 29  1  0
 10 30  1  0
 10 31  1  0
 12 32  1  0
 13 33  1  0
 16 34  1  0
 19 35  1  0
 20 36  1  0
 21 37  1  0
 24 38  1  0
 24 39  1  0
 24 40  1  0
M  CHG  2   9  -1  16  -1
M  END
>  <UniqueID>  (34) 
32

>  <SMILES>  (34) 
COc1ccc(C(=O)[N-]Cc2ccc(S([NH-])(=O)=O)cc2)cc1OC

>  <Energy>  (34) 
37.57549718648638

>  <Genealogy>  (34) 
COc1ccc(C(=O)[N-]Cc2ccc(S([NH-])(=O)=O)cc2)cc1OC (protonated)
COc1ccc(C(=O)[N-]Cc2ccc(S([NH-])(=O)=O)cc2)cc1OC (3D coordinates assigned)
COc1ccc(C(=O)[N-]Cc2ccc(S([NH-])(=O)=O)cc2)cc1OC (optimized conformer: 37.57549718648638 kcal/mol)

>  <smiles>  (34) 
COc1ccc(C(=O)NCc2ccc(S(N)(=O)=O)cc2)cc1OC

>  <score_type>  (34) 
oracle

>  <origin>  (34) 
adgpu

>  <m_score__min__energy>  (34) 
-9.9900000000000002

>  <m_primary>  (34) 
energy

$$$$
34:0
     RDKit          3D

 36 37  0  0  0  0  0  0  0  0999 V2000
   -5.4400   15.1390  -33.6450 C   0  0  0  0  0  0  0  0  0  0  0  0
   -6.6370   15.9000  -34.2070 C   0  0  0  0  0  0  0  0  0  0  0  0
   -7.2400   16.7490  -33.1780 N   0  0  0  0  0  0  0  0  0  0  0  0
   -6.7240   18.0280  -32.7600 C   0  0  0  0  0  0  0  0  0  0  0  0
   -5.3640   18.2210  -32.4530 C   0  0  0  0  0  0  0  0  0  0  0  0
   -4.9000   19.4750  -32.0450 C   0  0  0  0  0  0  0  0  0  0  0  0
   -5.7830   20.5630  -31.9320 C   0  0  0  0  0  0  0  0  0  0  0  0
   -5.2890   21.8960  -31.5000 C   0  0  0  0  0  0  0  0  0  0  0  0
   -3.9200   22.2030  -31.5620 C   0  0  0  0  0  0  0  0  0  0  0  0
   -3.4560   23.4520  -31.1450 C   0  0  0  0  0  0  0  0  0  0  0  0
   -4.3490   24.4140  -30.6660 C   0  0  0  0  0  0  0  0  0  0  0  0
   -3.8610   25.6460  -30.2440 O   0  0  0  0  0  0  0  0  0  0  0  0
   -5.7260   24.1320  -30.6150 C   0  0  0  0  0  0  0  0  0  0  0  0
   -6.7060   25.1460  -30.0740 C   0  0  0  0  0  0  0  0  0  0  0  0
   -6.1250   25.8750  -28.9480 N   0  0  0  0  0  0  0  0  0  0  0  0
   -6.1860   22.8680  -31.0190 C   0  0  0  0  0  0  0  0  0  0  0  0
   -7.1410   20.3670  -32.2340 C   0  0  0  0  0  0  0  0  0  0  0  0
   -7.6050   19.1130  -32.6400 C   0  0  0  0  0  0  0  0  0  0  0  0
   -5.4747   15.1611  -32.5458 H   0  0  0  0  0  0  0  0  0  0  0  0
   -5.4730   14.0957  -33.9920 H   0  0  0  0  0  0  0  0  0  0  0  0
   -4.5093   15.6116  -33.9920 H   0  0  0  0  0  0  0  0  0  0  0  0
   -6.3034   16.5298  -35.0449 H   0  0  0  0  0  0  0  0  0  0  0  0
   -7.3881   15.1736  -34.5509 H   0  0  0  0  0  0  0  0  0  0  0  0
   -8.1020   16.3850  -32.7110 H   0  0  0  0  0  0  0  0  0  0  0  0
   -4.6610   17.3789  -32.5347 H   0  0  0  0  0  0  0  0  0  0  0  0
   -3.8341   19.6116  -31.8102 H   0  0  0  0  0  0  0  0  0  0  0  0
   -3.2088   21.4546  -31.9415 H   0  0  0  0  0  0  0  0  0  0  0  0
   -2.3810   23.6801  -31.1938 H   0  0  0  0  0  0  0  0  0  0  0  0
   -6.9651   25.8588  -30.8708 H   0  0  0  0  0  0  0  0  0  0  0  0
   -7.6065   24.6180  -29.7272 H   0  0  0  0  0  0  0  0  0  0  0  0
   -6.6140   26.7910  -28.8200 H   0  0  0  0  0  0  0  0  0  0  0  0
   -6.2390   25.3070  -28.0760 H   0  0  0  0  0  0  0  0  0  0  0  0
   -5.1050   26.0390  -29.1140 H   0  0  0  0  0  0  0  0  0  0  0  0
   -7.2594   22.6351  -30.9588 H   0  0  0  0  0  0  0  0  0  0  0  0
   -7.8451   21.2080  -32.1501 H   0  0  0  0  0  0  0  0  0  0  0  0
   -8.6723   18.9752  -32.8679 H   0  0  0  0  0  0  0  0  0  0  0  0
  1  2  1  0
  2  3  1  0
  3  4  1  0
  4  5  2  0
  5  6  1  0
  6  7  2  0
  7  8  1  0
  8  9  2  0
  9 10  1  0
 10 11  2  0
 11 12  1  0
 11 13  1  0
 13 14  1  0
 14 15  1  0
 13 16  2  0
  7 17  1  0
 17 18  2  0
 18  4  1  0
 16  8  1  0
  1 19  1  0
  1 20  1  0
  1 21  1  0
  2 22  1  0
  2 23  1  0
  3 24  1  0
  5 25  1  0
  6 26  1  0
  9 27  1  0
 10 28  1  0
 14 29  1  0
 14 30  1  0
 15 31  1  0
 15 32  1  0
 15 33  1  0
 16 34  1  0
 17 35  1  0
 18 36  1  0
M  CHG  2  12  -1  15   1
M  END
>  <UniqueID>  (35) 
33

>  <SMILES>  (35) 
CCNc1ccc(-c2ccc([O-])c(C[NH3+])c2)cc1

>  <Energy>  (35) 
37.528536189504024

>  <Genealogy>  (35) 
CCNc1ccc(-c2ccc([O-])c(C[NH3+])c2)cc1 (protonated)
CCNc1ccc(-c2ccc([O-])c(C[NH3+])c2)cc1 (3D coordinates assigned)
CCNc1ccc(-c2ccc([O-])c(C[NH3+])c2)cc1 (optimized conformer: 37.528536189504024 kcal/mol)

>  <smiles>  (35) 
CCNc1ccc(-c2ccc(O)c(CN)c2)cc1

>  <score_type>  (35) 
oracle

>  <origin>  (35) 
adgpu

>  <m_score__min__energy>  (35) 
-9.3100000000000005

>  <m_primary>  (35) 
energy

$$$$
35:0
     RDKit          3D

 38 39  0  0  0  0  0  0  0  0999 V2000
   -8.6519   23.6749  -30.6790 H   0  0  0  0  0  0  0  0  0  0  0  0
   -7.7650   23.0920  -30.9680 C   0  0  0  0  0  0  0  0  0  0  0  0
   -7.9680   21.9740  -31.6830 C   0  0  0  0  0  0  0  0  0  0  0  0
   -9.0075   21.6423  -31.8219 H   0  0  0  0  0  0  0  0  0  0  0  0
   -6.9010   21.1530  -32.2990 C   0  0  0  0  0  0  0  0  0  0  0  0
   -5.6060   21.6710  -32.4670 C   0  0  0  0  0  0  0  0  0  0  0  0
   -5.3774   22.6899  -32.1213 H   0  0  0  0  0  0  0  0  0  0  0  0
   -4.6080   20.9050  -33.0680 C   0  0  0  0  0  0  0  0  0  0  0  0
   -3.5942   21.3179  -33.1762 H   0  0  0  0  0  0  0  0  0  0  0  0
   -4.8850   19.6170  -33.5340 C   0  0  0  0  0  0  0  0  0  0  0  0
   -3.8450   18.8880  -34.1290 O   0  0  0  0  0  0  0  0  0  0  0  0
   -3.9530   17.5360  -34.5630 C   0  0  0  0  0  0  0  0  0  0  0  0
   -4.0060   16.8728  -33.6870 H   0  0  0  0  0  0  0  0  0  0  0  0
   -4.8635   17.4169  -35.1686 H   0  0  0  0  0  0  0  0  0  0  0  0
   -3.0729   17.2739  -35.1686 H   0  0  0  0  0  0  0  0  0  0  0  0
   -6.1870   19.1000  -33.3950 C   0  0  0  0  0  0  0  0  0  0  0  0
   -6.4147   18.0896  -33.7655 H   0  0  0  0  0  0  0  0  0  0  0  0
   -7.2020   19.8660  -32.7850 C   0  0  0  0  0  0  0  0  0  0  0  0
   -8.5110   19.3750  -32.6340 O   0  0  0  0  0  0  0  0  0  0  0  0
   -8.9370   18.5160  -31.5820 C   0  0  0  0  0  0  0  0  0  0  0  0
   -8.7062   18.9814  -30.6124 H   0  0  0  0  0  0  0  0  0  0  0  0
  -10.0216   18.3504  -31.6603 H   0  0  0  0  0  0  0  0  0  0  0  0
   -8.4124   17.5523  -31.6603 H   0  0  0  0  0  0  0  0  0  0  0  0
   -6.4450   23.6040  -30.5370 C   0  0  0  0  0  0  0  0  0  0  0  0
   -5.7090   22.9750  -29.5170 C   0  0  0  0  0  0  0  0  0  0  0  0
   -6.1073   22.0709  -29.0333 H   0  0  0  0  0  0  0  0  0  0  0  0
   -4.4740   23.4920  -29.1140 C   0  0  0  0  0  0  0  0  0  0  0  0
   -3.8984   22.9839  -28.3263 H   0  0  0  0  0  0  0  0  0  0  0  0
   -3.9640   24.6600  -29.7120 C   0  0  0  0  0  0  0  0  0  0  0  0
   -2.7300   25.2160  -29.3460 O   0  0  0  0  0  0  0  0  0  0  0  0
   -1.9660   24.8030  -28.2170 C   0  0  0  0  0  0  0  0  0  0  0  0
   -2.4925   25.0876  -27.2940 H   0  0  0  0  0  0  0  0  0  0  0  0
   -1.8349   23.7111  -28.2425 H   0  0  0  0  0  0  0  0  0  0  0  0
   -0.9807   25.2913  -28.2425 H   0  0  0  0  0  0  0  0  0  0  0  0
   -4.7140   25.2990  -30.7050 C   0  0  0  0  0  0  0  0  0  0  0  0
   -4.3284   26.2170  -31.1725 H   0  0  0  0  0  0  0  0  0  0  0  0
   -5.9480   24.7830  -31.1090 C   0  0  0  0  0  0  0  0  0  0  0  0
   -6.5329   25.3052  -31.8805 H   0  0  0  0  0  0  0  0  0  0  0  0
  1  2  1  0
  2  3  2  0
  3  4  1  0
  3  5  1  0
  5  6  2  0
  6  7  1  0
  6  8  1  0
  8  9  1  0
  8 10  2  0
 10 11  1  0
 11 12  1  0
 12 13  1  0
 12 14  1  0
 12 15  1  0
 10 16  1  0
 16 17  1  0
 16 18  2  0
 18 19  1  0
 19 20  1  0
 20 21  1  0
 20 22  1  0
 20 23  1  0
  2 24  1  0
 24 25  2  0
 25 26  1  0
 25 27  1  0
 27 28  1  0
 27 29  2  0
 29 30  1  0
 30 31  1  0
 31 32  1  0
 31 33  1  0
 31 34  1  0
 29 35  1  0
 35 36  1  0
 35 37  2  0
 37 38  1  0
 18  5  1  0
 37 24  1  0
M  END
>  <UniqueID>  (36) 
34

>  <SMILES>  (36) 
COc1ccc(/C=C\c2ccc(OC)cc2OC)cc1

>  <Energy>  (36) 
46.357043364940075

>  <Genealogy>  (36) 
COc1ccc(/C=C\c2ccc(OC)cc2OC)cc1 (cis-trans isomerization)
COc1ccc(/C=C\c2ccc(OC)cc2OC)cc1 (3D coordinates assigned)
COc1ccc(/C=C\c2ccc(OC)cc2OC)cc1 (optimized conformer: 46.357043364940075 kcal/mol)

>  <smiles>  (36) 
COc1ccc(C=Cc2ccc(OC)cc2OC)cc1

>  <score_type>  (36) 
oracle

>  <origin>  (36) 
adgpu

>  <m_score__min__energy>  (36) 
-7.1799999999999997

>  <m_primary>  (36) 
energy

$$$$
36:0
     RDKit          3D

 29 30  0  0  0  0  0  0  0  0999 V2000
   -6.8320   16.0270  -33.8490 N   0  0  0  0  0  0  0  0  0  0  0  0
   -6.2520   17.0230  -33.7460 C   0  0  0  0  0  0  0  0  0  0  0  0
   -5.5290   18.2650  -33.6170 C   0  0  0  0  0  0  0  0  0  0  0  0
   -6.1510   19.3710  -33.0330 C   0  0  0  0  0  0  0  0  0  0  0  0
   -5.4600   20.5820  -32.8920 C   0  0  0  0  0  0  0  0  0  0  0  0
   -6.1340   21.7170  -32.2250 C   0  0  0  0  0  0  0  0  0  0  0  0
   -7.5270   21.8770  -32.3260 C   0  0  0  0  0  0  0  0  0  0  0  0
   -8.1570   22.9610  -31.7090 C   0  0  0  0  0  0  0  0  0  0  0  0
   -7.4040   23.8990  -30.9990 C   0  0  0  0  0  0  0  0  0  0  0  0
   -6.0130   23.7630  -30.9090 C   0  0  0  0  0  0  0  0  0  0  0  0
   -5.0610   24.9390  -30.0080 S   0  0  0  0  0  0  0  0  0  0  0  0
   -3.5070   25.1100  -30.7440 N   0  0  0  0  0  0  0  0  0  0  0  0
   -4.8920   24.4810  -28.5870 O   0  0  0  0  0  0  0  0  0  0  0  0
   -5.7650   26.2670  -30.0040 O   0  0  0  0  0  0  0  0  0  0  0  0
   -5.3810   22.6710  -31.5200 C   0  0  0  0  0  0  0  0  0  0  0  0
   -4.1330   20.6670  -33.3730 C   0  0  0  0  0  0  0  0  0  0  0  0
   -3.4000   21.8990  -33.3270 N   0  0  0  0  0  0  0  0  0  0  0  0
   -3.5460   19.5670  -33.9300 N   0  0  0  0  0  0  0  0  0  0  0  0
   -4.2050   18.3830  -34.0610 C   0  0  0  0  0  0  0  0  0  0  0  0
   -3.6190   17.3970  -34.5860 O   0  0  0  0  0  0  0  0  0  0  0  0
   -7.1902   19.2909  -32.6814 H   0  0  0  0  0  0  0  0  0  0  0  0
   -8.1230   21.1465  -32.8926 H   0  0  0  0  0  0  0  0  0  0  0  0
   -9.2485   23.0759  -31.7826 H   0  0  0  0  0  0  0  0  0  0  0  0
   -7.9050   24.7470  -30.5091 H   0  0  0  0  0  0  0  0  0  0  0  0
   -3.4960   26.0390  -31.2200 H   0  0  0  0  0  0  0  0  0  0  0  0
   -4.2890   22.5604  -31.4471 H   0  0  0  0  0  0  0  0  0  0  0  0
   -3.3140   22.4610  -32.4540 H   0  0  0  0  0  0  0  0  0  0  0  0
   -2.9960   22.3020  -34.2020 H   0  0  0  0  0  0  0  0  0  0  0  0
   -2.5640   19.6370  -34.2810 H   0  0  0  0  0  0  0  0  0  0  0  0
  1  2  3  0
  2  3  1  0
  3  4  2  0
  4  5  1  0
  5  6  1  0
  6  7  2  0
  7  8  1  0
  8  9  2  0
  9 10  1  0
 10 11  1  0
 11 12  1  0
 11 13  2  0
 11 14  2  0
 10 15  2  0
  5 16  2  0
 16 17  1  0
 16 18  1  0
 18 19  1  0
 19 20  2  0
 19  3  1  0
 15  6  1  0
  4 21  1  0
  7 22  1  0
  8 23  1  0
  9 24  1  0
 12 25  1  0
 15 26  1  0
 17 27  1  0
 17 28  1  0
 18 29  1  0
M  CHG  1  12  -1
M  END
>  <UniqueID>  (37) 
35

>  <SMILES>  (37) 
N#Cc1cc(-c2cccc(S([NH-])(=O)=O)c2)c(N)[nH]c1=O

>  <Energy>  (37) 
36.99543083875556

>  <Genealogy>  (37) 
N#Cc1cc(-c2cccc(S([NH-])(=O)=O)c2)c(N)[nH]c1=O (protonated)
N#Cc1cc(-c2cccc(S([NH-])(=O)=O)c2)c(N)[nH]c1=O (3D coordinates assigned)
N#Cc1cc(-c2cccc(S([NH-])(=O)=O)c2)c(N)[nH]c1=O (optimized conformer: 36.99543083875556 kcal/mol)

>  <smiles>  (37) 
N#Cc1cc(-c2cccc(S(N)(=O)=O)c2)c(N)[nH]c1=O

>  <score_type>  (37) 
oracle

>  <origin>  (37) 
adgpu

>  <m_score__min__energy>  (37) 
-10.02

>  <m_primary>  (37) 
energy

$$$$
37:0
     RDKit          3D

 40 41  0  0  0  0  0  0  0  0999 V2000
   -4.8130   16.6550  -34.4460 C   0  0  0  0  0  0  0  0  0  0  0  0
   -4.8890   18.0880  -34.9620 C   0  0  0  0  0  0  0  0  0  0  0  0
   -6.0280   18.7890  -34.3700 N   0  0  0  0  0  0  0  0  0  0  0  0
   -6.0320   19.2360  -33.0040 C   0  0  0  0  0  0  0  0  0  0  0  0
   -5.0650   18.9410  -32.2480 O   0  0  0  0  0  0  0  0  0  0  0  0
   -7.1620   20.0260  -32.4580 C   0  0  0  0  0  0  0  0  0  0  0  0
   -8.4960   19.6670  -32.7210 C   0  0  0  0  0  0  0  0  0  0  0  0
   -9.5480   20.4340  -32.2140 C   0  0  0  0  0  0  0  0  0  0  0  0
   -9.2840   21.5640  -31.4380 C   0  0  0  0  0  0  0  0  0  0  0  0
   -7.9650   21.9330  -31.1550 C   0  0  0  0  0  0  0  0  0  0  0  0
   -7.7400   23.0840  -30.3860 O   0  0  0  0  0  0  0  0  0  0  0  0
   -6.4880   23.6700  -30.1460 C   0  0  0  0  0  0  0  0  0  0  0  0
   -5.5640   22.9810  -29.3540 C   0  0  0  0  0  0  0  0  0  0  0  0
   -4.3030   23.5270  -29.1020 C   0  0  0  0  0  0  0  0  0  0  0  0
   -3.9380   24.7630  -29.6490 C   0  0  0  0  0  0  0  0  0  0  0  0
   -2.6570   25.2620  -29.3600 O   0  0  0  0  0  0  0  0  0  0  0  0
   -1.7430   24.7060  -28.4130 C   0  0  0  0  0  0  0  0  0  0  0  0
   -1.9780   25.2950  -27.0260 C   0  0  0  0  0  0  0  0  0  0  0  0
   -4.8580   25.4460  -30.4690 C   0  0  0  0  0  0  0  0  0  0  0  0
   -6.1200   24.9000  -30.7190 C   0  0  0  0  0  0  0  0  0  0  0  0
   -6.9060   21.1750  -31.6860 C   0  0  0  0  0  0  0  0  0  0  0  0
   -4.8133   16.6609  -33.3460 H   0  0  0  0  0  0  0  0  0  0  0  0
   -5.6823   16.0877  -34.8099 H   0  0  0  0  0  0  0  0  0  0  0  0
   -3.8885   16.1828  -34.8099 H   0  0  0  0  0  0  0  0  0  0  0  0
   -3.9617   18.6171  -34.6973 H   0  0  0  0  0  0  0  0  0  0  0  0
   -5.0157   18.0651  -36.0544 H   0  0  0  0  0  0  0  0  0  0  0  0
   -6.8630   18.9480  -34.9760 H   0  0  0  0  0  0  0  0  0  0  0  0
   -8.7126   18.7767  -33.3297 H   0  0  0  0  0  0  0  0  0  0  0  0
  -10.5881   20.1464  -32.4271 H   0  0  0  0  0  0  0  0  0  0  0  0
  -10.1171   22.1668  -31.0474 H   0  0  0  0  0  0  0  0  0  0  0  0
   -5.8317   22.0033  -28.9269 H   0  0  0  0  0  0  0  0  0  0  0  0
   -3.5898   22.9804  -28.4675 H   0  0  0  0  0  0  0  0  0  0  0  0
   -1.8852   23.6160  -28.3711 H   0  0  0  0  0  0  0  0  0  0  0  0
   -0.7171   24.9455  -28.7294 H   0  0  0  0  0  0  0  0  0  0  0  0
   -1.6850   24.5606  -26.2613 H   0  0  0  0  0  0  0  0  0  0  0  0
   -1.3751   26.2075  -26.9081 H   0  0  0  0  0  0  0  0  0  0  0  0
   -3.0435   25.5418  -26.9081 H   0  0  0  0  0  0  0  0  0  0  0  0
   -4.5818   26.4131  -30.9143 H   0  0  0  0  0  0  0  0  0  0  0  0
   -6.8291   25.4354  -31.3675 H   0  0  0  0  0  0  0  0  0  0  0  0
   -5.8672   21.4831  -31.4962 H   0  0  0  0  0  0  0  0  0  0  0  0
  1  2  1  0
  2  3  1  0
  3  4  1  0
  4  5  2  0
  4  6  1  0
  6  7  2  0
  7  8  1  0
  8  9  2  0
  9 10  1  0
 10 11  1  0
 11 12  1  0
 12 13  2  0
 13 14  1  0
 14 15  2  0
 15 16  1  0
 16 17  1  0
 17 18  1  0
 15 19  1  0
 19 20  2  0
 10 21  2  0
 21  6  1  0
 20 12  1  0
  1 22  1  0
  1 23  1  0
  1 24  1  0
  2 25  1  0
  2 26  1  0
  3 27  1  0
  7 28  1  0
  8 29  1  0
  9 30  1  0
 13 31  1  0
 14 32  1  0
 17 33  1  0
 17 34  1  0
 18 35  1  0
 18 36  1  0
 18 37  1  0
 19 38  1  0
 20 39  1  0
 21 40  1  0
M  END
>  <UniqueID>  (38) 
36

>  <SMILES>  (38) 
CCNC(=O)c1cccc(Oc2ccc(OCC)cc2)c1

>  <Energy>  (38) 
42.27544955015156

>  <Genealogy>  (38) 
CCNC(=O)c1cccc(Oc2ccc(OCC)cc2)c1 (3D coordinates assigned)
CCNC(=O)c1cccc(Oc2ccc(OCC)cc2)c1 (optimized conformer: 42.27544955015156 kcal/mol)

>  <smiles>  (38) 
CCNC(=O)c1cccc(Oc2ccc(OCC)cc2)c1

>  <score_type>  (38) 
oracle

>  <origin>  (38) 
adgpu

>  <m_score__min__energy>  (38) 
-8

>  <m_primary>  (38) 
energy

$$$$
38:0
     RDKit          3D

 41 44  0  0  0  0  0  0  0  0999 V2000
   -3.8780   25.2950  -30.5520 O   0  0  0  0  0  0  0  0  0  0  0  0
   -3.5720   24.3940  -29.7260 C   0  0  0  0  0  0  0  0  0  0  0  0
   -4.4450   23.2700  -29.5240 N   0  0  0  0  0  0  0  0  0  0  0  0
   -5.5130   22.9140  -30.4190 C   0  0  0  0  0  0  0  0  0  0  0  0
   -6.5510   23.8130  -30.7150 C   0  0  0  0  0  0  0  0  0  0  0  0
   -7.5660   23.4500  -31.6020 C   0  0  0  0  0  0  0  0  0  0  0  0
   -7.5500   22.1940  -32.2130 C   0  0  0  0  0  0  0  0  0  0  0  0
   -6.5090   21.2870  -31.9490 C   0  0  0  0  0  0  0  0  0  0  0  0
   -6.4840   19.9550  -32.6060 C   0  0  0  0  0  0  0  0  0  0  0  0
   -7.2190   18.8790  -32.0710 C   0  0  0  0  0  0  0  0  0  0  0  0
   -7.1930   17.6270  -32.6920 C   0  0  0  0  0  0  0  0  0  0  0  0
   -6.4370   17.4330  -33.8500 C   0  0  0  0  0  0  0  0  0  0  0  0
   -5.7040   18.4920  -34.3900 C   0  0  0  0  0  0  0  0  0  0  0  0
   -5.7260   19.7470  -33.7740 C   0  0  0  0  0  0  0  0  0  0  0  0
   -5.4900   21.6620  -31.0530 C   0  0  0  0  0  0  0  0  0  0  0  0
   -2.3320   24.5280  -28.9420 C   0  0  0  0  0  0  0  0  0  0  0  0
   -1.0610   24.1310  -29.3500 C   0  0  0  0  0  0  0  0  0  0  0  0
   -0.0730   24.3500  -28.4420 N   0  0  0  0  0  0  0  0  0  0  0  0
   -0.5350   24.9180  -27.3030 C   0  0  0  0  0  0  0  0  0  0  0  0
    0.3300   25.2610  -26.1520 C   0  0  0  0  0  0  0  0  0  0  0  0
    1.4340   24.4640  -25.8070 C   0  0  0  0  0  0  0  0  0  0  0  0
    2.2350   24.8100  -24.7150 C   0  0  0  0  0  0  0  0  0  0  0  0
    1.9270   25.9510  -23.9750 C   0  0  0  0  0  0  0  0  0  0  0  0
    0.8570   26.7160  -24.3170 N   0  0  0  0  0  0  0  0  0  0  0  0
    0.0620   26.4020  -25.3750 C   0  0  0  0  0  0  0  0  0  0  0  0
   -2.2020   25.1680  -27.3920 S   0  0  0  0  0  0  0  0  0  0  0  0
   -4.3600   22.7340  -28.6320 H   0  0  0  0  0  0  0  0  0  0  0  0
   -6.5641   24.8077  -30.2456 H   0  0  0  0  0  0  0  0  0  0  0  0
   -8.3812   24.1555  -31.8205 H   0  0  0  0  0  0  0  0  0  0  0  0
   -8.3573   21.9128  -32.9053 H   0  0  0  0  0  0  0  0  0  0  0  0
   -7.8169   19.0249  -31.1593 H   0  0  0  0  0  0  0  0  0  0  0  0
   -7.7697   16.7921  -32.2673 H   0  0  0  0  0  0  0  0  0  0  0  0
   -6.4189   16.4466  -34.3365 H   0  0  0  0  0  0  0  0  0  0  0  0
   -5.1081   18.3385  -35.3018 H   0  0  0  0  0  0  0  0  0  0  0  0
   -5.1472   20.5773  -34.2048 H   0  0  0  0  0  0  0  0  0  0  0  0
   -4.6647   20.9645  -30.8470 H   0  0  0  0  0  0  0  0  0  0  0  0
   -0.8708   23.6747  -30.3327 H   0  0  0  0  0  0  0  0  0  0  0  0
    1.6686   23.5659  -26.3973 H   0  0  0  0  0  0  0  0  0  0  0  0
    3.1002   24.1880  -24.4420 H   0  0  0  0  0  0  0  0  0  0  0  0
    2.5506   26.2322  -23.1136 H   0  0  0  0  0  0  0  0  0  0  0  0
   -0.7955   27.0443  -25.6243 H   0  0  0  0  0  0  0  0  0  0  0  0
  1  2  2  0
  2  3  1  0
  3  4  1  0
  4  5  2  0
  5  6  1  0
  6  7  2  0
  7  8  1  0
  8  9  1  0
  9 10  2  0
 10 11  1  0
 11 12  2  0
 12 13  1  0
 13 14  2  0
  8 15  2  0
  2 16  1  0
 16 17  2  0
 17 18  1  0
 18 19  2  0
 19 20  1  0
 20 21  2  0
 21 22  1  0
 22 23  2  0
 23 24  1  0
 24 25  2  0
 19 26  1  0
 15  4  1  0
 26 16  1  0
 14  9  1  0
 25 20  1  0
  3 27  1  0
  5 28  1  0
  6 29  1  0
  7 30  1  0
 10 31  1  0
 11 32  1  0
 12 33  1  0
 13 34  1  0
 14 35  1  0
 15 36  1  0
 17 37  1  0
 21 38  1  0
 22 39  1  0
 23 40  1  0
 25 41  1  0
M  END
>  <UniqueID>  (39) 
37

>  <SMILES>  (39) 
O=C(Nc1cccc(-c2ccccc2)c1)c1cnc(-c2cccnc2)s1

>  <Energy>  (39) 
86.16953079746271

>  <Genealogy>  (39) 
O=C(Nc1cccc(-c2ccccc2)c1)c1cnc(-c2cccnc2)s1 (3D coordinates assigned)
O=C(Nc1cccc(-c2ccccc2)c1)c1cnc(-c2cccnc2)s1 (optimized conformer: 86.16953079746271 kcal/mol)

>  <smiles>  (39) 
O=C(Nc1cccc(-c2ccccc2)c1)c1cnc(-c2cccnc2)s1

>  <score_type>  (39) 
oracle

>  <origin>  (39) 
adgpu

>  <m_score__min__energy>  (39) 
-9.2799999999999994

>  <m_primary>  (39) 
energy

$$$$
39:0
     RDKit          3D

 23 24  0  0  0  0  0  0  0  0999 V2000
   -3.2980   24.5640  -27.8640 O   0  0  0  0  0  0  0  0  0  0  0  0
   -2.4860   24.5490  -29.1290 S   0  0  0  0  0  0  0  0  0  0  0  0
   -1.4020   25.5850  -29.0310 O   0  0  0  0  0  0  0  0  0  0  0  0
   -3.5130   24.9250  -30.4730 N   0  0  0  0  0  0  0  0  0  0  0  0
   -4.7470   24.2640  -30.7810 C   0  0  0  0  0  0  0  0  0  0  0  0
   -4.7990   23.1110  -31.5880 C   0  0  0  0  0  0  0  0  0  0  0  0
   -6.0270   22.5030  -31.8680 C   0  0  0  0  0  0  0  0  0  0  0  0
   -7.2100   23.0370  -31.3460 C   0  0  0  0  0  0  0  0  0  0  0  0
   -8.3990   22.4460  -31.6190 F   0  0  0  0  0  0  0  0  0  0  0  0
   -7.1640   24.1790  -30.5440 C   0  0  0  0  0  0  0  0  0  0  0  0
   -5.9380   24.7900  -30.2620 C   0  0  0  0  0  0  0  0  0  0  0  0
   -1.7490   22.9740  -29.3590 C   0  0  0  0  0  0  0  0  0  0  0  0
   -1.2360   22.1680  -28.3560 C   0  0  0  0  0  0  0  0  0  0  0  0
   -0.6940   20.9720  -28.8420 C   0  0  0  0  0  0  0  0  0  0  0  0
   -0.7820   20.8410  -30.2230 C   0  0  0  0  0  0  0  0  0  0  0  0
   -1.5340   22.2150  -30.8410 S   0  0  0  0  0  0  0  0  0  0  0  0
   -3.8709   22.6873  -31.9994 H   0  0  0  0  0  0  0  0  0  0  0  0
   -6.0627   21.6033  -32.4998 H   0  0  0  0  0  0  0  0  0  0  0  0
   -8.0939   24.5990  -30.1331 H   0  0  0  0  0  0  0  0  0  0  0  0
   -5.9082   25.6890  -29.6289 H   0  0  0  0  0  0  0  0  0  0  0  0
   -1.2527   22.4390  -27.2900 H   0  0  0  0  0  0  0  0  0  0  0  0
   -0.2414   20.2083  -28.1924 H   0  0  0  0  0  0  0  0  0  0  0  0
   -0.4215   19.9849  -30.8122 H   0  0  0  0  0  0  0  0  0  0  0  0
  1  2  2  0
  2  3  2  0
  2  4  1  0
  4  5  1  0
  5  6  2  0
  6  7  1  0
  7  8  2  0
  8  9  1  0
  8 10  1  0
 10 11  2  0
  2 12  1  0
 12 13  2  0
 13 14  1  0
 14 15  2  0
 15 16  1  0
 11  5  1  0
 16 12  1  0
  6 17  1  0
  7 18  1  0
 10 19  1  0
 11 20  1  0
 13 21  1  0
 14 22  1  0
 15 23  1  0
M  CHG  1   4  -1
M  END
>  <UniqueID>  (40) 
38

>  <SMILES>  (40) 
O=S(=O)([N-]c1ccc(F)cc1)c1cccs1

>  <Energy>  (40) 
52.638994884993295

>  <Genealogy>  (40) 
O=S(=O)([N-]c1ccc(F)cc1)c1cccs1 (protonated)
O=S(=O)([N-]c1ccc(F)cc1)c1cccs1 (3D coordinates assigned)
O=S(=O)([N-]c1ccc(F)cc1)c1cccs1 (optimized conformer: 52.638994884993295 kcal/mol)

>  <smiles>  (40) 
O=S(=O)(Nc1ccc(F)cc1)c1cccs1

>  <score_type>  (40) 
oracle

>  <origin>  (40) 
adgpu

>  <m_score__min__energy>  (40) 
-7.25

>  <m_primary>  (40) 
energy

$$$$
40:0
     RDKit          3D

 29 31  0  0  0  0  0  0  0  0999 V2000
   -9.5090   19.7830  -32.1260 O   0  0  0  0  0  0  0  0  0  0  0  0
   -8.2860   19.8790  -32.4140 C   0  0  0  0  0  0  0  0  0  0  0  0
   -7.6180   18.9350  -33.1200 N   0  0  0  0  0  0  0  0  0  0  0  0
   -6.3690   19.4280  -33.2080 C   0  0  0  0  0  0  0  0  0  0  0  0
   -5.2640   18.8650  -33.8420 C   0  0  0  0  0  0  0  0  0  0  0  0
   -4.0540   19.5850  -33.8050 C   0  0  0  0  0  0  0  0  0  0  0  0
   -3.9820   20.8330  -33.1430 C   0  0  0  0  0  0  0  0  0  0  0  0
   -5.1170   21.3750  -32.5120 C   0  0  0  0  0  0  0  0  0  0  0  0
   -6.3000   20.6360  -32.5660 C   0  0  0  0  0  0  0  0  0  0  0  0
   -7.5100   20.9320  -32.0570 N   0  0  0  0  0  0  0  0  0  0  0  0
   -7.9710   22.3580  -31.1820 S   0  0  0  0  0  0  0  0  0  0  0  0
   -8.7990   23.2590  -32.0550 O   0  0  0  0  0  0  0  0  0  0  0  0
   -8.7860   21.9480  -29.9870 O   0  0  0  0  0  0  0  0  0  0  0  0
   -6.5280   23.2260  -30.6710 C   0  0  0  0  0  0  0  0  0  0  0  0
   -5.6750   22.6810  -29.7010 C   0  0  0  0  0  0  0  0  0  0  0  0
   -4.5270   23.3740  -29.3070 C   0  0  0  0  0  0  0  0  0  0  0  0
   -4.2250   24.6130  -29.8780 C   0  0  0  0  0  0  0  0  0  0  0  0
   -3.1110   25.2840  -29.4950 F   0  0  0  0  0  0  0  0  0  0  0  0
   -5.0750   25.1630  -30.8440 C   0  0  0  0  0  0  0  0  0  0  0  0
   -6.2260   24.4720  -31.2380 C   0  0  0  0  0  0  0  0  0  0  0  0
   -7.9860   18.0410  -33.5100 H   0  0  0  0  0  0  0  0  0  0  0  0
   -5.3338   17.8934  -34.3530 H   0  0  0  0  0  0  0  0  0  0  0  0
   -3.1587   19.1739  -34.2943 H   0  0  0  0  0  0  0  0  0  0  0  0
   -3.0305   21.3846  -33.1213 H   0  0  0  0  0  0  0  0  0  0  0  0
   -5.0736   22.3451  -31.9953 H   0  0  0  0  0  0  0  0  0  0  0  0
   -5.9097   21.7060  -29.2491 H   0  0  0  0  0  0  0  0  0  0  0  0
   -3.8599   22.9432  -28.5459 H   0  0  0  0  0  0  0  0  0  0  0  0
   -4.8382   26.1386  -31.2936 H   0  0  0  0  0  0  0  0  0  0  0  0
   -6.8955   24.9074  -31.9944 H   0  0  0  0  0  0  0  0  0  0  0  0
  1  2  2  0
  2  3  1  0
  3  4  1  0
  4  5  2  0
  5  6  1  0
  6  7  2  0
  7  8  1  0
  8  9  2  0
  9 10  1  0
 10 11  1  0
 11 12  2  0
 11 13  2  0
 11 14  1  0
 14 15  2  0
 15 16  1  0
 16 17  2  0
 17 18  1  0
 17 19  1  0
 19 20  2  0
 10  2  1  0
 20 14  1  0
  9  4  1  0
  3 21  1  0
  5 22  1  0
  6 23  1  0
  7 24  1  0
  8 25  1  0
 15 26  1  0
 16 27  1  0
 19 28  1  0
 20 29  1  0
M  END
>  <UniqueID>  (41) 
39

>  <SMILES>  (41) 
O=c1[nH]c2ccccc2n1S(=O)(=O)c1ccc(F)cc1

>  <Energy>  (41) 
73.98197915213244

>  <Genealogy>  (41) 
O=c1[nH]c2ccccc2n1S(=O)(=O)c1ccc(F)cc1 (3D coordinates assigned)
O=c1[nH]c2ccccc2n1S(=O)(=O)c1ccc(F)cc1 (optimized conformer: 73.98197915213244 kcal/mol)

>  <smiles>  (41) 
O=c1[nH]c2ccccc2n1S(=O)(=O)c1ccc(F)cc1

>  <score_type>  (41) 
oracle

>  <origin>  (41) 
adgpu

>  <m_score__min__energy>  (41) 
-7.6900000000000004

>  <m_primary>  (41) 
energy

$$$$
41:0
     RDKit          3D

 31 33  0  0  0  0  0  0  0  0999 V2000
   -6.1470   26.9560  -29.2560 H   0  0  0  0  0  0  0  0  0  0  0  0
   -6.3880   26.0560  -29.7250 N   0  0  0  0  0  0  0  0  0  0  0  0
   -5.4650   25.2830  -30.1960 C   0  0  0  0  0  0  0  0  0  0  0  0
   -4.1830   25.5430  -30.1200 O   0  0  0  0  0  0  0  0  0  0  0  0
   -3.4870   24.5800  -30.6530 N   0  0  0  0  0  0  0  0  0  0  0  0
   -4.3630   23.6540  -31.1020 C   0  0  0  0  0  0  0  0  0  0  0  0
   -3.9420   22.4140  -31.7830 C   0  0  0  0  0  0  0  0  0  0  0  0
   -4.8140   21.8490  -32.7270 C   0  0  0  0  0  0  0  0  0  0  0  0
   -5.7921   22.3162  -32.9143 H   0  0  0  0  0  0  0  0  0  0  0  0
   -4.4500   20.6990  -33.4300 C   0  0  0  0  0  0  0  0  0  0  0  0
   -5.1383   20.2679  -34.1719 H   0  0  0  0  0  0  0  0  0  0  0  0
   -3.2150   20.0960  -33.1930 C   0  0  0  0  0  0  0  0  0  0  0  0
   -2.8610   18.9850  -33.8850 F   0  0  0  0  0  0  0  0  0  0  0  0
   -2.3480   20.6310  -32.2390 C   0  0  0  0  0  0  0  0  0  0  0  0
   -1.3748   20.1511  -32.0583 H   0  0  0  0  0  0  0  0  0  0  0  0
   -2.7050   21.7760  -31.5070 C   0  0  0  0  0  0  0  0  0  0  0  0
   -1.7490   22.2880  -30.4620 C   0  0  0  0  0  0  0  0  0  0  0  0
   -2.1506   22.0729  -29.4608 H   0  0  0  0  0  0  0  0  0  0  0  0
   -0.7750   21.7908  -30.5810 H   0  0  0  0  0  0  0  0  0  0  0  0
   -1.6231   23.3743  -30.5810 H   0  0  0  0  0  0  0  0  0  0  0  0
   -5.6610   24.0680  -30.8200 C   0  0  0  0  0  0  0  0  0  0  0  0
   -6.9380   23.3510  -31.0450 C   0  0  0  0  0  0  0  0  0  0  0  0
   -7.3160   22.2850  -30.2140 C   0  0  0  0  0  0  0  0  0  0  0  0
   -6.6697   21.9784  -29.3783 H   0  0  0  0  0  0  0  0  0  0  0  0
   -8.5180   21.6160  -30.4550 C   0  0  0  0  0  0  0  0  0  0  0  0
   -8.8188   20.7780  -29.8090 H   0  0  0  0  0  0  0  0  0  0  0  0
   -9.3170   21.9980  -31.4860 N   0  0  0  0  0  0  0  0  0  0  0  0
   -8.9790   23.0290  -32.3040 C   0  0  0  0  0  0  0  0  0  0  0  0
   -9.6465   23.3162  -33.1298 H   0  0  0  0  0  0  0  0  0  0  0  0
   -7.7850   23.7250  -32.0980 C   0  0  0  0  0  0  0  0  0  0  0  0
   -7.5112   24.5613  -32.7580 H   0  0  0  0  0  0  0  0  0  0  0  0
  1  2  1  0
  2  3  2  0
  3  4  1  0
  4  5  1  0
  5  6  1  0
  6  7  1  0
  7  8  2  0
  8  9  1  0
  8 10  1  0
 10 11  1  0
 10 12  2  0
 12 13  1  0
 12 14  1  0
 14 15  1  0
 14 16  2  0
 16 17  1  0
 17 18  1  0
 17 19  1  0
 17 20  1  0
  6 21  2  0
 21 22  1  0
 22 23  2  0
 23 24  1  0
 23 25  1  0
 25 26  1  0
 25 27  2  0
 27 28  1  0
 28 29  1  0
 28 30  2  0
 30 31  1  0
 21  3  1  0
 30 22  1  0
 16  7  1  0
M  CHG  1   5  -1
M  END
>  <UniqueID>  (42) 
40

>  <SMILES>  (42) 
[H]/N=c1\o[n-]c(-c2ccc(F)cc2C)c1-c1ccncc1

>  <Energy>  (42) 
77.2218860990336

>  <Genealogy>  (42) 
Cc1cc(F)ccc1-c1[n-]oc(=N)c1-c1ccncc1 (protonated)
[H]/N=c1\o[n-]c(-c2ccc(F)cc2C)c1-c1ccncc1 (cis-trans isomerization)
[H]/N=c1\o[n-]c(-c2ccc(F)cc2C)c1-c1ccncc1 (3D coordinates assigned)
[H]/N=c1\o[n-]c(-c2ccc(F)cc2C)c1-c1ccncc1 (optimized conformer: 77.2218860990336 kcal/mol)

>  <smiles>  (42) 
Cc1cc(F)ccc1-c1[nH]oc(=N)c1-c1ccncc1

>  <score_type>  (42) 
oracle

>  <origin>  (42) 
adgpu

>  <m_score__min__energy>  (42) 
-9.1699999999999999

>  <m_primary>  (42) 
energy

$$$$
42:0
     RDKit          3D

 36 38  0  0  0  0  0  0  0  0999 V2000
   -6.0665   25.9658  -31.3060 H   0  0  0  0  0  0  0  0  0  0  0  0
   -5.3420   25.2390  -30.9100 C   0  0  0  0  0  0  0  0  0  0  0  0
   -4.2400   25.6870  -30.2420 N   0  0  0  0  0  0  0  0  0  0  0  0
   -3.3530   24.7890  -29.7560 C   0  0  0  0  0  0  0  0  0  0  0  0
   -3.5070   23.4440  -29.9290 C   0  0  0  0  0  0  0  0  0  0  0  0
   -2.4070   22.8410  -29.3510 C   0  0  0  0  0  0  0  0  0  0  0  0
   -2.1849   21.7647  -29.3037 H   0  0  0  0  0  0  0  0  0  0  0  0
   -1.6390   23.8840  -28.8410 C   0  0  0  0  0  0  0  0  0  0  0  0
   -0.6862   23.7551  -28.3067 H   0  0  0  0  0  0  0  0  0  0  0  0
   -2.2240   25.0780  -29.0920 N   0  0  0  0  0  0  0  0  0  0  0  0
   -1.8640   26.0230  -28.8360 H   0  0  0  0  0  0  0  0  0  0  0  0
   -4.5860   22.9140  -30.6390 C   0  0  0  0  0  0  0  0  0  0  0  0
   -4.6020   21.6260  -30.8680 N   0  0  0  0  0  0  0  0  0  0  0  0
   -5.4680   20.8810  -31.7320 C   0  0  0  0  0  0  0  0  0  0  0  0
   -6.7310   20.5030  -31.2590 C   0  0  0  0  0  0  0  0  0  0  0  0
   -7.0386   20.7865  -30.2417 H   0  0  0  0  0  0  0  0  0  0  0  0
   -7.6070   19.7670  -32.0690 C   0  0  0  0  0  0  0  0  0  0  0  0
   -8.9870   19.4370  -31.5840 C   0  0  0  0  0  0  0  0  0  0  0  0
   -8.9982   19.4343  -30.4841 H   0  0  0  0  0  0  0  0  0  0  0  0
   -9.6964   20.1908  -31.9561 H   0  0  0  0  0  0  0  0  0  0  0  0
   -9.2787   18.4438  -31.9561 H   0  0  0  0  0  0  0  0  0  0  0  0
   -7.2100   19.4090  -33.3650 C   0  0  0  0  0  0  0  0  0  0  0  0
   -7.9081   18.8701  -34.0225 H   0  0  0  0  0  0  0  0  0  0  0  0
   -5.9310   19.7340  -33.8250 C   0  0  0  0  0  0  0  0  0  0  0  0
   -5.6226   19.4342  -34.8374 H   0  0  0  0  0  0  0  0  0  0  0  0
   -5.0370   20.4400  -33.0050 C   0  0  0  0  0  0  0  0  0  0  0  0
   -3.6480   20.7300  -33.5090 C   0  0  0  0  0  0  0  0  0  0  0  0
   -2.9700   20.8716  -32.6544 H   0  0  0  0  0  0  0  0  0  0  0  0
   -3.2961   19.8860  -34.1204 H   0  0  0  0  0  0  0  0  0  0  0  0
   -3.6632   21.6443  -34.1204 H   0  0  0  0  0  0  0  0  0  0  0  0
   -5.5700   23.8510  -31.1030 C   0  0  0  0  0  0  0  0  0  0  0  0
   -6.8810   23.4610  -31.6540 C   0  0  0  0  0  0  0  0  0  0  0  0
   -7.7710   23.0040  -30.8870 O   0  0  0  0  0  0  0  0  0  0  0  0
   -7.1220   23.5140  -33.0600 N   0  0  0  0  0  0  0  0  0  0  0  0
   -8.0560   23.2480  -33.4450 H   0  0  0  0  0  0  0  0  0  0  0  0
   -6.3660   23.8060  -33.7170 H   0  0  0  0  0  0  0  0  0  0  0  0
  1  2  1  0
  2  3  1  0
  3  4  1  0
  4  5  2  0
  5  6  1  0
  6  7  1  0
  6  8  2  0
  8  9  1  0
  8 10  1  0
 10 11  1  0
  5 12  1  0
 12 13  2  0
 13 14  1  0
 14 15  2  0
 15 16  1  0
 15 17  1  0
 17 18  1  0
 18 19  1  0
 18 20  1  0
 18 21  1  0
 17 22  2  0
 22 23  1  0
 22 24  1  0
 24 25  1  0
 24 26  2  0
 26 27  1  0
 27 28  1  0
 27 29  1  0
 27 30  1  0
 12 31  1  0
 31 32  1  0
 32 33  2  0
 32 34  1  0
 34 35  1  0
 34 36  1  0
 31  2  2  0
 10  4  1  0
 26 14  1  0
M  CHG  1   3  -1
M  END
>  <UniqueID>  (43) 
41

>  <SMILES>  (43) 
Cc1ccc(C)c(/N=c2\c(C(N)=O)c[n-]c3[nH]ccc23)c1

>  <Energy>  (43) 
91.3246982070469

>  <Genealogy>  (43) 
Cc1ccc(C)c(N=c2c(C(N)=O)c[n-]c3[nH]ccc23)c1 (protonated)
Cc1ccc(C)c(/N=c2\c(C(N)=O)c[n-]c3[nH]ccc23)c1 (cis-trans isomerization)
Cc1ccc(C)c(/N=c2\c(C(N)=O)c[n-]c3[nH]ccc23)c1 (3D coordinates assigned)
Cc1ccc(C)c(/N=c2\c(C(N)=O)c[n-]c3[nH]ccc23)c1 (optimized conformer: 91.3246982070469 kcal/mol)

>  <smiles>  (43) 
Cc1ccc(C)c(N=c2c(C(N)=O)c[nH]c3[nH]ccc23)c1

>  <score_type>  (43) 
oracle

>  <origin>  (43) 
adgpu

>  <m_score__min__energy>  (43) 
-9.3000000000000007

>  <m_primary>  (43) 
energy

$$$$
43:0
     RDKit          3D

 25 27  0  0  0  0  0  0  0  0999 V2000
    0.8690   22.8930  -26.3400 O   0  0  0  0  0  0  0  0  0  0  0  0
    0.0880   23.2950  -27.4190 C   0  0  0  0  0  0  0  0  0  0  0  0
   -0.5020   22.4340  -28.3250 C   0  0  0  0  0  0  0  0  0  0  0  0
   -1.2270   23.2420  -29.1800 C   0  0  0  0  0  0  0  0  0  0  0  0
   -2.2260   22.6960  -30.5610 S   0  0  0  0  0  0  0  0  0  0  0  0
   -3.5650   23.8010  -30.1320 C   0  0  0  0  0  0  0  0  0  0  0  0
   -4.4070   23.5840  -29.1060 N   0  0  0  0  0  0  0  0  0  0  0  0
   -5.2200   24.6550  -29.1910 C   0  0  0  0  0  0  0  0  0  0  0  0
   -4.8880   25.4710  -30.2080 N   0  0  0  0  0  0  0  0  0  0  0  0
   -3.8400   24.9310  -30.8050 N   0  0  0  0  0  0  0  0  0  0  0  0
   -1.0450   24.5420  -28.7570 C   0  0  0  0  0  0  0  0  0  0  0  0
   -1.6170   25.6660  -29.3430 O   0  0  0  0  0  0  0  0  0  0  0  0
   -0.2240   24.5800  -27.6910 N   0  0  0  0  0  0  0  0  0  0  0  0
    0.1430   25.7450  -26.9410 C   0  0  0  0  0  0  0  0  0  0  0  0
    1.3920   26.2670  -27.0970 N   0  0  0  0  0  0  0  0  0  0  0  0
    1.8030   27.3710  -26.4180 C   0  0  0  0  0  0  0  0  0  0  0  0
    0.9380   28.0040  -25.5240 C   0  0  0  0  0  0  0  0  0  0  0  0
   -0.3410   27.4830  -25.3290 C   0  0  0  0  0  0  0  0  0  0  0  0
   -0.7500   26.3460  -26.0310 C   0  0  0  0  0  0  0  0  0  0  0  0
   -2.3320   25.6570  -25.6870 Cl  0  0  0  0  0  0  0  0  0  0  0  0
   -0.4133   21.3381  -28.3584 H   0  0  0  0  0  0  0  0  0  0  0  0
   -6.0604   24.8413  -28.5062 H   0  0  0  0  0  0  0  0  0  0  0  0
    2.8180   27.7656  -26.5734 H   0  0  0  0  0  0  0  0  0  0  0  0
    1.2613   28.9034  -24.9795 H   0  0  0  0  0  0  0  0  0  0  0  0
   -1.0292   27.9681  -24.6212 H   0  0  0  0  0  0  0  0  0  0  0  0
  1  2  1  0
  2  3  2  0
  3  4  1  0
  4  5  1  0
  5  6  1  0
  6  7  1  0
  7  8  2  0
  8  9  1  0
  9 10  1  0
  4 11  2  0
 11 12  1  0
 11 13  1  0
 13 14  1  0
 14 15  2  0
 15 16  1  0
 16 17  2  0
 17 18  1  0
 18 19  2  0
 19 20  1  0
 13  2  1  0
 19 14  1  0
 10  6  2  0
  3 21  1  0
  8 22  1  0
 16 23  1  0
 17 24  1  0
 18 25  1  0
M  CHG  3   1  -1   9  -1  12  -1
M  END
>  <UniqueID>  (44) 
42

>  <SMILES>  (44) 
[O-]c1cc(Sc2nc[n-]n2)c([O-])n1-c1ncccc1Cl

>  <Energy>  (44) 
92.17346859402818

>  <Genealogy>  (44) 
[O-]c1cc(Sc2nc[n-]n2)c([O-])n1-c1ncccc1Cl (protonated)
[O-]c1cc(Sc2nc[n-]n2)c([O-])n1-c1ncccc1Cl (3D coordinates assigned)
[O-]c1cc(Sc2nc[n-]n2)c([O-])n1-c1ncccc1Cl (optimized conformer: 92.17346859402818 kcal/mol)

>  <smiles>  (44) 
Oc1cc(Sc2nc[nH]n2)c(O)n1-c1ncccc1Cl

>  <score_type>  (44) 
oracle

>  <origin>  (44) 
adgpu

>  <m_score__min__energy>  (44) 
-10.26

>  <m_primary>  (44) 
energy

$$$$
44:0
     RDKit          3D

 40 42  0  0  0  0  0  0  0  0999 V2000
   -8.4070   19.3690  -32.3780 C   0  0  0  0  0  0  0  0  0  0  0  0
   -7.6490   20.3320  -33.1040 O   0  0  0  0  0  0  0  0  0  0  0  0
   -6.5340   21.0150  -32.5920 C   0  0  0  0  0  0  0  0  0  0  0  0
   -5.2410   20.4600  -32.6150 C   0  0  0  0  0  0  0  0  0  0  0  0
   -4.1570   21.1740  -32.0960 C   0  0  0  0  0  0  0  0  0  0  0  0
   -4.3380   22.4550  -31.5630 C   0  0  0  0  0  0  0  0  0  0  0  0
   -3.2000   23.1380  -31.0170 N   0  0  0  0  0  0  0  0  0  0  0  0
   -3.2200   24.2660  -30.1340 C   0  0  0  0  0  0  0  0  0  0  0  0
   -3.8630   25.3040  -30.4520 O   0  0  0  0  0  0  0  0  0  0  0  0
   -2.4090   24.2630  -28.8920 C   0  0  0  0  0  0  0  0  0  0  0  0
   -1.4480   25.2780  -28.7140 C   0  0  0  0  0  0  0  0  0  0  0  0
   -0.6400   25.3050  -27.5760 C   0  0  0  0  0  0  0  0  0  0  0  0
   -0.7810   24.3250  -26.5960 C   0  0  0  0  0  0  0  0  0  0  0  0
   -1.7360   23.3200  -26.7450 C   0  0  0  0  0  0  0  0  0  0  0  0
   -2.5630   23.2840  -27.8770 C   0  0  0  0  0  0  0  0  0  0  0  0
   -3.8280   22.0020  -27.9390 S   0  0  0  0  0  0  0  0  0  0  0  0
   -2.6320   20.6700  -27.8290 C   0  0  0  0  0  0  0  0  0  0  0  0
   -1.5540   20.6200  -28.7220 C   0  0  0  0  0  0  0  0  0  0  0  0
   -0.6180   19.5850  -28.6330 C   0  0  0  0  0  0  0  0  0  0  0  0
   -0.7600   18.5940  -27.6550 C   0  0  0  0  0  0  0  0  0  0  0  0
    0.4140   17.2960  -27.5430 Cl  0  0  0  0  0  0  0  0  0  0  0  0
   -1.8420   18.6390  -26.7680 C   0  0  0  0  0  0  0  0  0  0  0  0
   -2.7770   19.6740  -26.8560 C   0  0  0  0  0  0  0  0  0  0  0  0
   -5.6310   23.0040  -31.5210 C   0  0  0  0  0  0  0  0  0  0  0  0
   -6.7200   22.2910  -32.0370 C   0  0  0  0  0  0  0  0  0  0  0  0
   -8.3230   23.0060  -31.9670 Cl  0  0  0  0  0  0  0  0  0  0  0  0
   -8.2752   19.5365  -31.2988 H   0  0  0  0  0  0  0  0  0  0  0  0
   -9.4713   19.4689  -32.6373 H   0  0  0  0  0  0  0  0  0  0  0  0
   -8.0598   18.3579  -32.6373 H   0  0  0  0  0  0  0  0  0  0  0  0
   -5.0825   19.4594  -33.0435 H   0  0  0  0  0  0  0  0  0  0  0  0
   -3.1529   20.7248  -32.1067 H   0  0  0  0  0  0  0  0  0  0  0  0
   -1.3331   26.0583  -29.4808 H   0  0  0  0  0  0  0  0  0  0  0  0
    0.1090   26.1011  -27.4529 H   0  0  0  0  0  0  0  0  0  0  0  0
   -0.1382   24.3440  -25.7036 H   0  0  0  0  0  0  0  0  0  0  0  0
   -1.8416   22.5487  -25.9679 H   0  0  0  0  0  0  0  0  0  0  0  0
   -1.4437   21.3957  -29.4941 H   0  0  0  0  0  0  0  0  0  0  0  0
    0.2305   19.5497  -29.3321 H   0  0  0  0  0  0  0  0  0  0  0  0
   -1.9564   17.8589  -26.0009 H   0  0  0  0  0  0  0  0  0  0  0  0
   -3.6280   19.7061  -26.1598 H   0  0  0  0  0  0  0  0  0  0  0  0
   -5.7884   23.9995  -31.0803 H   0  0  0  0  0  0  0  0  0  0  0  0
  1  2  1  0
  2  3  1  0
  3  4  2  0
  4  5  1  0
  5  6  2  0
  6  7  1  0
  7  8  1  0
  8  9  2  0
  8 10  1  0
 10 11  2  0
 11 12  1  0
 12 13  2  0
 13 14  1  0
 14 15  2  0
 15 16  1  0
 16 17  1  0
 17 18  2  0
 18 19  1  0
 19 20  2  0
 20 21  1  0
 20 22  1  0
 22 23  2  0
  6 24  1  0
 24 25  2  0
 25 26  1  0
 25  3  1  0
 15 10  1  0
 23 17  1  0
  1 27  1  0
  1 28  1  0
  1 29  1  0
  4 30  1  0
  5 31  1  0
 11 32  1  0
 12 33  1  0
 13 34  1  0
 14 35  1  0
 18 36  1  0
 19 37  1  0
 22 38  1  0
 23 39  1  0
 24 40  1  0
M  CHG  1   7  -1
M  END
>  <UniqueID>  (45) 
43

>  <SMILES>  (45) 
COc1ccc([N-]C(=O)c2ccccc2Sc2ccc(Cl)cc2)cc1Cl

>  <Energy>  (45) 
45.104485726905445

>  <Genealogy>  (45) 
COc1ccc([N-]C(=O)c2ccccc2Sc2ccc(Cl)cc2)cc1Cl (protonated)
COc1ccc([N-]C(=O)c2ccccc2Sc2ccc(Cl)cc2)cc1Cl (3D coordinates assigned)
COc1ccc([N-]C(=O)c2ccccc2Sc2ccc(Cl)cc2)cc1Cl (optimized conformer: 45.104485726905445 kcal/mol)

>  <smiles>  (45) 
COc1ccc(NC(=O)c2ccccc2Sc2ccc(Cl)cc2)cc1Cl

>  <score_type>  (45) 
oracle

>  <origin>  (45) 
adgpu

>  <m_score__min__energy>  (45) 
-10.09

>  <m_primary>  (45) 
energy

$$$$
45:0
     RDKit          3D

 41 44  0  0  0  0  0  0  0  0999 V2000
   -0.9250   19.1450  -34.9490 F   0  0  0  0  0  0  0  0  0  0  0  0
   -1.0060   19.6400  -33.6610 C   0  0  0  0  0  0  0  0  0  0  0  0
   -0.1980   20.7590  -33.5580 F   0  0  0  0  0  0  0  0  0  0  0  0
   -0.5320   18.6830  -32.7810 F   0  0  0  0  0  0  0  0  0  0  0  0
   -2.4400   19.9870  -33.3520 C   0  0  0  0  0  0  0  0  0  0  0  0
   -2.8930   21.3130  -33.4720 C   0  0  0  0  0  0  0  0  0  0  0  0
   -4.2090   21.6450  -33.1380 C   0  0  0  0  0  0  0  0  0  0  0  0
   -5.0860   20.6640  -32.6530 C   0  0  0  0  0  0  0  0  0  0  0  0
   -6.4820   21.0160  -32.3090 C   0  0  0  0  0  0  0  0  0  0  0  0
   -7.5170   20.2210  -32.8330 C   0  0  0  0  0  0  0  0  0  0  0  0
   -8.8460   20.4630  -32.4840 C   0  0  0  0  0  0  0  0  0  0  0  0
   -9.1600   21.4990  -31.6070 C   0  0  0  0  0  0  0  0  0  0  0  0
   -8.1480   22.3080  -31.0860 C   0  0  0  0  0  0  0  0  0  0  0  0
   -6.8010   22.0890  -31.4340 C   0  0  0  0  0  0  0  0  0  0  0  0
   -5.7640   23.0190  -30.9230 C   0  0  0  0  0  0  0  0  0  0  0  0
   -5.0990   22.9380  -29.7150 C   0  0  0  0  0  0  0  0  0  0  0  0
   -4.2550   24.0360  -29.7250 C   0  0  0  0  0  0  0  0  0  0  0  0
   -3.2950   24.4380  -28.6690 C   0  0  0  0  0  0  0  0  0  0  0  0
   -1.9480   24.7150  -28.9700 C   0  0  0  0  0  0  0  0  0  0  0  0
   -1.0590   25.0940  -27.9590 C   0  0  0  0  0  0  0  0  0  0  0  0
   -1.5010   25.1970  -26.6380 C   0  0  0  0  0  0  0  0  0  0  0  0
   -2.8340   24.9240  -26.3270 C   0  0  0  0  0  0  0  0  0  0  0  0
   -3.7280   24.5470  -27.3330 C   0  0  0  0  0  0  0  0  0  0  0  0
   -4.4290   24.7150  -30.8770 N   0  0  0  0  0  0  0  0  0  0  0  0
   -5.3350   24.0820  -31.5640 O   0  0  0  0  0  0  0  0  0  0  0  0
   -4.6340   19.3410  -32.5220 C   0  0  0  0  0  0  0  0  0  0  0  0
   -3.3180   19.0090  -32.8540 C   0  0  0  0  0  0  0  0  0  0  0  0
   -2.2069   22.0942  -33.8312 H   0  0  0  0  0  0  0  0  0  0  0  0
   -4.5586   22.6812  -33.2562 H   0  0  0  0  0  0  0  0  0  0  0  0
   -7.2764   19.4003  -33.5248 H   0  0  0  0  0  0  0  0  0  0  0  0
   -9.6468   19.8351  -32.9017 H   0  0  0  0  0  0  0  0  0  0  0  0
  -10.2075   21.6801  -31.3243 H   0  0  0  0  0  0  0  0  0  0  0  0
   -8.4057   23.1252  -30.3963 H   0  0  0  0  0  0  0  0  0  0  0  0
   -5.2132   22.1780  -28.9280 H   0  0  0  0  0  0  0  0  0  0  0  0
   -1.5922   24.6328  -30.0076 H   0  0  0  0  0  0  0  0  0  0  0  0
   -0.0091   25.3115  -28.2048 H   0  0  0  0  0  0  0  0  0  0  0  0
   -0.7996   25.4928  -25.8440 H   0  0  0  0  0  0  0  0  0  0  0  0
   -3.1821   25.0058  -25.2867 H   0  0  0  0  0  0  0  0  0  0  0  0
   -4.7770   24.3339  -27.0797 H   0  0  0  0  0  0  0  0  0  0  0  0
   -5.3193   18.5622  -32.1562 H   0  0  0  0  0  0  0  0  0  0  0  0
   -2.9666   17.9747  -32.7247 H   0  0  0  0  0  0  0  0  0  0  0  0
  1  2  1  0
  2  3  1  0
  2  4  1  0
  2  5  1  0
  5  6  2  0
  6  7  1  0
  7  8  2  0
  8  9  1  0
  9 10  2  0
 10 11  1  0
 11 12  2  0
 12 13  1  0
 13 14  2  0
 14 15  1  0
 15 16  2  0
 16 17  1  0
 17 18  1  0
 18 19  2  0
 19 20  1  0
 20 21  2  0
 21 22  1  0
 22 23  2  0
 17 24  2  0
 24 25  1  0
  8 26  1  0
 26 27  2  0
 27  5  1  0
 14  9  1  0
 25 15  1  0
 23 18  1  0
  6 28  1  0
  7 29  1  0
 10 30  1  0
 11 31  1  0
 12 32  1  0
 13 33  1  0
 16 34  1  0
 19 35  1  0
 20 36  1  0
 21 37  1  0
 22 38  1  0
 23 39  1  0
 26 40  1  0
 27 41  1  0
M  END
>  <UniqueID>  (46) 
44

>  <SMILES>  (46) 
FC(F)(F)c1ccc(-c2ccccc2-c2cc(-c3ccccc3)no2)cc1

>  <Energy>  (46) 
88.33248183695306

>  <Genealogy>  (46) 
FC(F)(F)c1ccc(-c2ccccc2-c2cc(-c3ccccc3)no2)cc1 (3D coordinates assigned)
FC(F)(F)c1ccc(-c2ccccc2-c2cc(-c3ccccc3)no2)cc1 (optimized conformer: 88.33248183695306 kcal/mol)

>  <smiles>  (46) 
FC(F)(F)c1ccc(-c2ccccc2-c2cc(-c3ccccc3)no2)cc1

>  <score_type>  (46) 
oracle

>  <origin>  (46) 
adgpu

>  <m_score__min__energy>  (46) 
-9.5600000000000005

>  <m_primary>  (46) 
energy

$$$$
46:0
     RDKit          3D

 42 44  0  0  0  0  0  0  0  0999 V2000
   -0.3130   23.4300  -26.0200 C   0  0  0  0  0  0  0  0  0  0  0  0
   -1.2110   23.7880  -27.1670 C   0  0  0  0  0  0  0  0  0  0  0  0
   -2.6020   23.7810  -27.0110 C   0  0  0  0  0  0  0  0  0  0  0  0
   -3.4290   24.1530  -28.0740 C   0  0  0  0  0  0  0  0  0  0  0  0
   -2.8520   24.5480  -29.2960 C   0  0  0  0  0  0  0  0  0  0  0  0
   -3.5650   24.9050  -30.3260 N   0  0  0  0  0  0  0  0  0  0  0  0
   -5.2990   24.9690  -30.4110 S   0  0  0  0  0  0  0  0  0  0  0  0
   -5.8600   25.0290  -29.0180 O   0  0  0  0  0  0  0  0  0  0  0  0
   -5.7320   26.1760  -31.1940 O   0  0  0  0  0  0  0  0  0  0  0  0
   -5.8900   23.5220  -31.2190 C   0  0  0  0  0  0  0  0  0  0  0  0
   -7.2270   23.1260  -31.0750 C   0  0  0  0  0  0  0  0  0  0  0  0
   -7.6960   21.9820  -31.7260 C   0  0  0  0  0  0  0  0  0  0  0  0
   -6.8280   21.2150  -32.5240 C   0  0  0  0  0  0  0  0  0  0  0  0
   -7.2650   20.0680  -33.2050 O   0  0  0  0  0  0  0  0  0  0  0  0
   -6.6730   18.7980  -33.1230 C   0  0  0  0  0  0  0  0  0  0  0  0
   -6.1120   18.2430  -34.2770 C   0  0  0  0  0  0  0  0  0  0  0  0
   -5.5010   16.9860  -34.2350 C   0  0  0  0  0  0  0  0  0  0  0  0
   -5.4490   16.2600  -33.0330 C   0  0  0  0  0  0  0  0  0  0  0  0
   -4.7470   14.9270  -32.9750 C   0  0  0  0  0  0  0  0  0  0  0  0
   -4.6630   14.5130  -31.6580 F   0  0  0  0  0  0  0  0  0  0  0  0
   -3.4680   15.0260  -33.4980 F   0  0  0  0  0  0  0  0  0  0  0  0
   -5.4400   13.9770  -33.7040 F   0  0  0  0  0  0  0  0  0  0  0  0
   -5.9720   16.8400  -31.8640 C   0  0  0  0  0  0  0  0  0  0  0  0
   -6.5830   18.0960  -31.9080 C   0  0  0  0  0  0  0  0  0  0  0  0
   -5.5020   21.6280  -32.6870 C   0  0  0  0  0  0  0  0  0  0  0  0
   -5.0320   22.7740  -32.0360 C   0  0  0  0  0  0  0  0  0  0  0  0
   -1.4960   24.5630  -29.4120 N   0  0  0  0  0  0  0  0  0  0  0  0
   -0.6730   24.2030  -28.3920 C   0  0  0  0  0  0  0  0  0  0  0  0
   -0.8301   23.6362  -25.0713 H   0  0  0  0  0  0  0  0  0  0  0  0
   -0.0578   22.3614  -26.0738 H   0  0  0  0  0  0  0  0  0  0  0  0
    0.6074   24.0300  -26.0738 H   0  0  0  0  0  0  0  0  0  0  0  0
   -3.0450   23.4820  -26.0496 H   0  0  0  0  0  0  0  0  0  0  0  0
   -4.5226   24.1374  -27.9570 H   0  0  0  0  0  0  0  0  0  0  0  0
   -7.9093   23.7179  -30.4473 H   0  0  0  0  0  0  0  0  0  0  0  0
   -8.7478   21.6801  -31.6140 H   0  0  0  0  0  0  0  0  0  0  0  0
   -6.1516   18.7993  -35.2251 H   0  0  0  0  0  0  0  0  0  0  0  0
   -5.0582   16.5628  -35.1487 H   0  0  0  0  0  0  0  0  0  0  0  0
   -5.8997   16.3012  -30.9077 H   0  0  0  0  0  0  0  0  0  0  0  0
   -6.9952   18.5372  -30.9885 H   0  0  0  0  0  0  0  0  0  0  0  0
   -4.8242   21.0484  -33.3310 H   0  0  0  0  0  0  0  0  0  0  0  0
   -3.9860   23.0885  -32.1660 H   0  0  0  0  0  0  0  0  0  0  0  0
    0.4179   24.2376  -28.5287 H   0  0  0  0  0  0  0  0  0  0  0  0
  1  2  1  0
  2  3  1  0
  3  4  2  0
  4  5  1  0
  5  6  2  3
  6  7  1  0
  7  8  2  0
  7  9  2  0
  7 10  1  0
 10 11  2  0
 11 12  1  0
 12 13  2  0
 13 14  1  0
 14 15  1  0
 15 16  2  0
 16 17  1  0
 17 18  2  0
 18 19  1  0
 19 20  1  0
 19 21  1  0
 19 22  1  0
 18 23  1  0
 23 24  2  0
 13 25  1  0
 25 26  2  0
  5 27  1  0
 27 28  1  0
 28  2  2  0
 26 10  1  0
 24 15  1  0
  1 29  1  0
  1 30  1  0
  1 31  1  0
  3 32  1  0
  4 33  1  0
 11 34  1  0
 12 35  1  0
 16 36  1  0
 17 37  1  0
 23 38  1  0
 24 39  1  0
 25 40  1  0
 26 41  1  0
 28 42  1  0
M  CHG  1  27  -1
M  END
>  <UniqueID>  (47) 
45

>  <SMILES>  (47) 
Cc1ccc(=NS(=O)(=O)c2ccc(Oc3ccc(C(F)(F)F)cc3)cc2)[n-]c1

>  <Energy>  (47) 
57.795297391651225

>  <Genealogy>  (47) 
Cc1ccc(=NS(=O)(=O)c2ccc(Oc3ccc(C(F)(F)F)cc3)cc2)[n-]c1 (protonated)
Cc1ccc(=NS(=O)(=O)c2ccc(Oc3ccc(C(F)(F)F)cc3)cc2)[n-]c1 (3D coordinates assigned)
Cc1ccc(=NS(=O)(=O)c2ccc(Oc3ccc(C(F)(F)F)cc3)cc2)[n-]c1 (optimized conformer: 57.795297391651225 kcal/mol)

>  <smiles>  (47) 
Cc1ccc(=NS(=O)(=O)c2ccc(Oc3ccc(C(F)(F)F)cc3)cc2)[nH]c1

>  <score_type>  (47) 
oracle

>  <origin>  (47) 
adgpu

>  <m_score__min__energy>  (47) 
-10.119999999999999

>  <m_primary>  (47) 
energy

$$$$
47:0
     RDKit          3D

 40 42  0  0  0  0  0  0  0  0999 V2000
   -4.0450   24.2580  -27.0600 O   0  0  0  0  0  0  0  0  0  0  0  0
   -3.1590   24.6850  -27.8510 C   0  0  0  0  0  0  0  0  0  0  0  0
   -3.4850   24.9160  -29.2320 N   0  0  0  0  0  0  0  0  0  0  0  0
   -4.6100   24.3180  -29.8960 C   0  0  0  0  0  0  0  0  0  0  0  0
   -5.8770   24.9060  -29.7690 C   0  0  0  0  0  0  0  0  0  0  0  0
   -6.9860   24.3390  -30.4030 C   0  0  0  0  0  0  0  0  0  0  0  0
   -6.8400   23.1870  -31.1840 C   0  0  0  0  0  0  0  0  0  0  0  0
   -8.2620   22.4370  -31.9040 S   0  0  0  0  0  0  0  0  0  0  0  0
   -9.1470   21.9220  -30.8050 O   0  0  0  0  0  0  0  0  0  0  0  0
   -9.0370   23.4450  -32.7070 O   0  0  0  0  0  0  0  0  0  0  0  0
   -7.7930   21.1070  -32.9270 N   0  0  0  0  0  0  0  0  0  0  0  0
   -8.3580   19.8440  -32.4460 C   0  0  0  0  0  0  0  0  0  0  0  0
   -7.3850   18.7210  -32.6250 C   0  0  0  0  0  0  0  0  0  0  0  0
   -6.9320   17.8730  -31.6340 C   0  0  0  0  0  0  0  0  0  0  0  0
   -6.0490   17.0150  -32.2550 C   0  0  0  0  0  0  0  0  0  0  0  0
   -6.0260   17.3860  -33.5850 C   0  0  0  0  0  0  0  0  0  0  0  0
   -6.8340   18.4030  -33.7740 O   0  0  0  0  0  0  0  0  0  0  0  0
   -5.5700   22.6150  -31.3430 C   0  0  0  0  0  0  0  0  0  0  0  0
   -4.4610   23.1790  -30.7070 C   0  0  0  0  0  0  0  0  0  0  0  0
   -1.8120   25.0110  -27.3240 C   0  0  0  0  0  0  0  0  0  0  0  0
   -1.4110   24.4890  -26.0800 C   0  0  0  0  0  0  0  0  0  0  0  0
   -0.1510   24.7880  -25.5570 C   0  0  0  0  0  0  0  0  0  0  0  0
    0.7280   25.6040  -26.2710 C   0  0  0  0  0  0  0  0  0  0  0  0
    0.3510   26.1160  -27.5150 C   0  0  0  0  0  0  0  0  0  0  0  0
   -0.9090   25.8190  -28.0490 C   0  0  0  0  0  0  0  0  0  0  0  0
   -1.2340   26.3090  -29.3090 O   0  0  0  0  0  0  0  0  0  0  0  0
   -2.9470   25.6540  -29.7420 H   0  0  0  0  0  0  0  0  0  0  0  0
   -5.9985   25.8186  -29.1670 H   0  0  0  0  0  0  0  0  0  0  0  0
   -7.9779   24.8003  -30.2876 H   0  0  0  0  0  0  0  0  0  0  0  0
   -8.6020   19.9423  -31.3779 H   0  0  0  0  0  0  0  0  0  0  0  0
   -9.2641   19.6201  -33.0282 H   0  0  0  0  0  0  0  0  0  0  0  0
   -7.2161   17.8803  -30.5713 H   0  0  0  0  0  0  0  0  0  0  0  0
   -5.4784   16.1999  -31.7859 H   0  0  0  0  0  0  0  0  0  0  0  0
   -5.4222   16.9026  -34.3672 H   0  0  0  0  0  0  0  0  0  0  0  0
   -5.4462   21.7198  -31.9701 H   0  0  0  0  0  0  0  0  0  0  0  0
   -3.4661   22.7296  -30.8415 H   0  0  0  0  0  0  0  0  0  0  0  0
   -2.0959   23.8399  -25.5147 H   0  0  0  0  0  0  0  0  0  0  0  0
    0.1492   24.3797  -24.5807 H   0  0  0  0  0  0  0  0  0  0  0  0
    1.7173   25.8439  -25.8543 H   0  0  0  0  0  0  0  0  0  0  0  0
    1.0472   26.7554  -28.0776 H   0  0  0  0  0  0  0  0  0  0  0  0
  1  2  2  0
  2  3  1  0
  3  4  1  0
  4  5  2  0
  5  6  1  0
  6  7  2  0
  7  8  1  0
  8  9  2  0
  8 10  2  0
  8 11  1  0
 11 12  1  0
 12 13  1  0
 13 14  2  0
 14 15  1  0
 15 16  2  0
 16 17  1  0
  7 18  1  0
 18 19  2  0
  2 20  1  0
 20 21  2  0
 21 22  1  0
 22 23  2  0
 23 24  1  0
 24 25  2  0
 25 26  1  0
 19  4  1  0
 25 20  1  0
 17 13  1  0
  3 27  1  0
  5 28  1  0
  6 29  1  0
 12 30  1  0
 12 31  1  0
 14 32  1  0
 15 33  1  0
 16 34  1  0
 18 35  1  0
 19 36  1  0
 21 37  1  0
 22 38  1  0
 23 39  1  0
 24 40  1  0
M  CHG  2  11  -1  26  -1
M  END
>  <UniqueID>  (48) 
46

>  <SMILES>  (48) 
O=C(Nc1ccc(S(=O)(=O)[N-]Cc2ccco2)cc1)c1ccccc1[O-]

>  <Energy>  (48) 
71.5355512825234

>  <Genealogy>  (48) 
O=C(Nc1ccc(S(=O)(=O)[N-]Cc2ccco2)cc1)c1ccccc1[O-] (protonated)
O=C(Nc1ccc(S(=O)(=O)[N-]Cc2ccco2)cc1)c1ccccc1[O-] (3D coordinates assigned)
O=C(Nc1ccc(S(=O)(=O)[N-]Cc2ccco2)cc1)c1ccccc1[O-] (optimized conformer: 71.5355512825234 kcal/mol)

>  <smiles>  (48) 
O=C(Nc1ccc(S(=O)(=O)NCc2ccco2)cc1)c1ccccc1O

>  <score_type>  (48) 
oracle

>  <origin>  (48) 
adgpu

>  <m_score__min__energy>  (48) 
-11.17

>  <m_primary>  (48) 
energy

$$$$
48:0
     RDKit          3D

 50 52  0  0  0  0  0  0  0  0999 V2000
   -5.7510   24.9740  -29.3770 C   0  0  0  0  0  0  0  0  0  0  0  0
   -5.3520   25.5590  -30.7220 C   0  0  0  0  0  0  0  0  0  0  0  0
   -5.3570   24.5290  -31.7050 O   0  0  0  0  0  0  0  0  0  0  0  0
   -6.1690   23.3840  -31.6590 C   0  0  0  0  0  0  0  0  0  0  0  0
   -7.5600   23.4510  -31.8300 C   0  0  0  0  0  0  0  0  0  0  0  0
   -8.3210   22.2790  -31.8240 C   0  0  0  0  0  0  0  0  0  0  0  0
   -9.5690   22.3580  -31.9930 O   0  0  0  0  0  0  0  0  0  0  0  0
   -7.7190   21.0620  -31.6410 N   0  0  0  0  0  0  0  0  0  0  0  0
   -8.5250   19.8350  -31.6590 C   0  0  0  0  0  0  0  0  0  0  0  0
   -6.3680   20.9800  -31.4560 C   0  0  0  0  0  0  0  0  0  0  0  0
   -5.5670   22.1310  -31.4660 C   0  0  0  0  0  0  0  0  0  0  0  0
   -4.0960   22.0060  -31.3350 C   0  0  0  0  0  0  0  0  0  0  0  0
   -3.4710   22.4660  -30.1650 C   0  0  0  0  0  0  0  0  0  0  0  0
   -2.0960   22.2940  -29.9710 C   0  0  0  0  0  0  0  0  0  0  0  0
   -1.5120   22.7820  -28.7550 N   0  0  0  0  0  0  0  0  0  0  0  0
   -1.3070   24.4490  -28.3230 S   0  0  0  0  0  0  0  0  0  0  0  0
   -2.0150   24.7590  -26.7200 C   0  0  0  0  0  0  0  0  0  0  0  0
    0.1530   24.8070  -28.3310 O   0  0  0  0  0  0  0  0  0  0  0  0
   -2.0170   25.3000  -29.3380 O   0  0  0  0  0  0  0  0  0  0  0  0
   -1.3380   21.6450  -30.9600 C   0  0  0  0  0  0  0  0  0  0  0  0
   -1.9500   21.1900  -32.1300 C   0  0  0  0  0  0  0  0  0  0  0  0
   -3.3170   21.3880  -32.3420 C   0  0  0  0  0  0  0  0  0  0  0  0
   -3.8760   20.9460  -33.5510 O   0  0  0  0  0  0  0  0  0  0  0  0
   -4.3230   19.6350  -33.7830 C   0  0  0  0  0  0  0  0  0  0  0  0
   -5.6880   19.3020  -33.6980 C   0  0  0  0  0  0  0  0  0  0  0  0
   -6.1060   17.9850  -33.9000 C   0  0  0  0  0  0  0  0  0  0  0  0
   -5.1690   16.9930  -34.2040 C   0  0  0  0  0  0  0  0  0  0  0  0
   -3.8150   17.3210  -34.3130 C   0  0  0  0  0  0  0  0  0  0  0  0
   -3.3910   18.6390  -34.1110 C   0  0  0  0  0  0  0  0  0  0  0  0
   -1.6800   19.0210  -34.2210 Cl  0  0  0  0  0  0  0  0  0  0  0  0
   -5.3302   25.5910  -28.5694 H   0  0  0  0  0  0  0  0  0  0  0  0
   -6.8478   24.9599  -29.2941 H   0  0  0  0  0  0  0  0  0  0  0  0
   -5.3638   23.9477  -29.2941 H   0  0  0  0  0  0  0  0  0  0  0  0
   -6.0682   26.3432  -31.0083 H   0  0  0  0  0  0  0  0  0  0  0  0
   -4.3440   25.9935  -30.6497 H   0  0  0  0  0  0  0  0  0  0  0  0
   -8.0512   24.4254  -31.9687 H   0  0  0  0  0  0  0  0  0  0  0  0
   -8.7333   19.5179  -30.6265 H   0  0  0  0  0  0  0  0  0  0  0  0
   -9.4735   20.0270  -32.1820 H   0  0  0  0  0  0  0  0  0  0  0  0
   -7.9721   19.0408  -32.1820 H   0  0  0  0  0  0  0  0  0  0  0  0
   -5.9016   19.9966  -31.2968 H   0  0  0  0  0  0  0  0  0  0  0  0
   -4.0699   22.9681  -29.3909 H   0  0  0  0  0  0  0  0  0  0  0  0
   -1.3051   24.4482  -25.9393 H   0  0  0  0  0  0  0  0  0  0  0  0
   -2.2285   25.8330  -26.6149 H   0  0  0  0  0  0  0  0  0  0  0  0
   -2.9490   24.1875  -26.6149 H   0  0  0  0  0  0  0  0  0  0  0  0
   -0.2584   21.4947  -30.8122 H   0  0  0  0  0  0  0  0  0  0  0  0
   -1.3502   20.6708  -32.8920 H   0  0  0  0  0  0  0  0  0  0  0  0
   -6.4289   20.0828  -33.4714 H   0  0  0  0  0  0  0  0  0  0  0  0
   -7.1726   17.7281  -33.8199 H   0  0  0  0  0  0  0  0  0  0  0  0
   -5.4975   15.9545  -34.3574 H   0  0  0  0  0  0  0  0  0  0  0  0
   -3.0800   16.5403  -34.5585 H   0  0  0  0  0  0  0  0  0  0  0  0
  1  2  1  0
  2  3  1  0
  3  4  1  0
  4  5  2  0
  5  6  1  0
  6  7  2  0
  6  8  1  0
  8  9  1  0
  8 10  1  0
 10 11  2  0
 11 12  1  0
 12 13  2  0
 13 14  1  0
 14 15  1  0
 15 16  1  0
 16 17  1  0
 16 18  2  0
 16 19  2  0
 14 20  2  0
 20 21  1  0
 21 22  2  0
 22 23  1  0
 23 24  1  0
 24 25  2  0
 25 26  1  0
 26 27  2  0
 27 28  1  0
 28 29  2  0
 29 30  1  0
 11  4  1  0
 22 12  1  0
 29 24  1  0
  1 31  1  0
  1 32  1  0
  1 33  1  0
  2 34  1  0
  2 35  1  0
  5 36  1  0
  9 37  1  0
  9 38  1  0
  9 39  1  0
 10 40  1  0
 13 41  1  0
 17 42  1  0
 17 43  1  0
 17 44  1  0
 20 45  1  0
 21 46  1  0
 25 47  1  0
 26 48  1  0
 27 49  1  0
 28 50  1  0
M  CHG  1  15  -1
M  END
>  <UniqueID>  (49) 
47

>  <SMILES>  (49) 
CCOc1cc(=O)n(C)cc1-c1cc([N-]S(C)(=O)=O)ccc1Oc1ccccc1Cl

>  <Energy>  (49) 
60.89697451857134

>  <Genealogy>  (49) 
CCOc1cc(=O)n(C)cc1-c1cc([N-]S(C)(=O)=O)ccc1Oc1ccccc1Cl (protonated)
CCOc1cc(=O)n(C)cc1-c1cc([N-]S(C)(=O)=O)ccc1Oc1ccccc1Cl (3D coordinates assigned)
CCOc1cc(=O)n(C)cc1-c1cc([N-]S(C)(=O)=O)ccc1Oc1ccccc1Cl (optimized conformer: 60.89697451857134 kcal/mol)

>  <smiles>  (49) 
CCOc1cc(=O)n(C)cc1-c1cc(NS(C)(=O)=O)ccc1Oc1ccccc1Cl

>  <score_type>  (49) 
oracle

>  <origin>  (49) 
adgpu

>  <m_score__min__energy>  (49) 
-10.220000000000001

>  <m_primary>  (49) 
energy

$$$$
49:0
     RDKit          3D

 48 51  0  0  1  0  0  0  0  0999 V2000
   -4.9390   18.8730  -34.3170 O   0  0  0  0  0  0  0  0  0  0  0  0
   -4.3010   19.7680  -33.7290 N   0  0  0  0  0  0  0  0  0  0  0  0
   -2.9560   19.9370  -33.9100 O   0  0  0  0  0  0  0  0  0  0  0  0
   -5.0120   20.6330  -32.8460 C   0  0  0  0  0  0  0  0  0  0  0  0
   -6.3260   20.3370  -32.4930 C   0  0  0  0  0  0  0  0  0  0  0  0
   -7.0110   21.1800  -31.6340 C   0  0  0  0  0  0  0  0  0  0  0  0
   -6.4290   22.3190  -31.1080 C   0  0  0  0  0  0  0  0  0  0  0  0
   -5.1270   22.6160  -31.4550 C   0  0  0  0  0  0  0  0  0  0  0  0
   -4.4610   23.7890  -30.9400 N   0  0  0  0  0  0  0  0  0  0  0  0
   -3.6050   23.6860  -29.9720 C   0  0  0  0  0  0  0  0  0  0  0  0
   -3.3650   22.4170  -29.4610 C   0  0  0  0  0  0  0  0  0  0  0  0
   -2.4750   22.1880  -28.4340 C   0  0  0  0  0  0  0  0  0  0  0  0
   -2.2050   20.8690  -27.8800 C   0  0  0  0  0  0  0  0  0  0  0  0
   -3.1090   20.1530  -27.1290 C   0  0  0  0  0  0  0  0  0  0  0  0
   -2.8330   18.8970  -26.6080 C   0  0  0  0  0  0  0  0  0  0  0  0
   -1.5990   18.3250  -26.8430 C   0  0  0  0  0  0  0  0  0  0  0  0
   -0.6740   19.0290  -27.5950 C   0  0  0  0  0  0  0  0  0  0  0  0
   -0.9770   20.2860  -28.1070 C   0  0  0  0  0  0  0  0  0  0  0  0
   -1.8410   23.2800  -27.9440 N   0  0  0  0  0  0  0  0  0  0  0  0
   -2.0810   24.5270  -28.4500 C   0  0  0  0  0  0  0  0  0  0  0  0
   -1.1590   25.8580  -27.6830 S   0  0  0  0  0  0  0  0  0  0  0  0
   -1.9180   26.4090  -26.1550 C   0  0  0  0  0  0  0  0  0  0  0  0
   -0.8810   26.9930  -25.2660 C   0  0  0  0  0  0  0  0  0  0  0  0
   -0.6550   28.3560  -25.2750 C   0  0  0  0  0  0  0  0  0  0  0  0
    0.3140   28.8990  -24.4440 C   0  0  0  0  0  0  0  0  0  0  0  0
    1.0670   28.1160  -23.6010 C   0  0  0  0  0  0  0  0  0  0  0  0
    0.8280   26.7380  -23.6010 C   0  0  0  0  0  0  0  0  0  0  0  0
   -0.1320   26.1910  -24.4230 C   0  0  0  0  0  0  0  0  0  0  0  0
   -0.4620   24.4610  -24.4510 Cl  0  0  0  0  0  0  0  0  0  0  0  0
   -2.9490   24.7290  -29.4480 N   0  0  0  0  0  0  0  0  0  0  0  0
   -4.4360   21.7630  -32.3240 C   0  0  0  0  0  0  0  0  0  0  0  0
   -6.8173   19.4384  -32.8943 H   0  0  0  0  0  0  0  0  0  0  0  0
   -8.0487   20.9365  -31.3620 H   0  0  0  0  0  0  0  0  0  0  0  0
   -6.9922   22.9743  -30.4273 H   0  0  0  0  0  0  0  0  0  0  0  0
   -3.9060   21.5620  -29.8926 H   0  0  0  0  0  0  0  0  0  0  0  0
   -4.0961   20.5970  -26.9327 H   0  0  0  0  0  0  0  0  0  0  0  0
   -3.5894   18.3629  -26.0141 H   0  0  0  0  0  0  0  0  0  0  0  0
   -1.3556   17.3304  -26.4411 H   0  0  0  0  0  0  0  0  0  0  0  0
    0.3146   18.5879  -27.7903 H   0  0  0  0  0  0  0  0  0  0  0  0
   -0.2245   20.8235  -28.7027 H   0  0  0  0  0  0  0  0  0  0  0  0
   -2.6798   27.1704  -26.3784 H   0  0  0  0  0  0  0  0  0  0  0  0
   -2.3902   25.5523  -25.6519 H   0  0  0  0  0  0  0  0  0  0  0  0
   -1.2414   29.0083  -25.9388 H   0  0  0  0  0  0  0  0  0  0  0  0
    0.4846   29.9856  -24.4599 H   0  0  0  0  0  0  0  0  0  0  0  0
    1.8328   28.5593  -22.9475 H   0  0  0  0  0  0  0  0  0  0  0  0
    1.4130   26.0842  -22.9374 H   0  0  0  0  0  0  0  0  0  0  0  0
   -3.1150   25.6820  -29.8140 H   0  0  0  0  0  0  0  0  0  0  0  0
   -3.3986   22.0068  -32.5967 H   0  0  0  0  0  0  0  0  0  0  0  0
  1  2  2  0
  2  3  1  0
  2  4  1  0
  4  5  2  0
  5  6  1  0
  6  7  2  0
  7  8  1  0
  8  9  1  0
  9 10  2  0
 10 11  1  0
 11 12  2  0
 12 13  1  0
 13 14  2  0
 14 15  1  0
 15 16  2  0
 16 17  1  0
 17 18  2  0
 12 19  1  0
 19 20  2  0
 20 21  1  0
 21 22  1  0
 22 23  1  0
 23 24  2  0
 24 25  1  0
 25 26  2  0
 26 27  1  0
 27 28  2  0
 28 29  1  0
 20 30  1  0
  8 31  2  0
 31  4  1  0
 30 10  1  0
 18 13  1  0
 28 23  1  0
  5 32  1  0
  6 33  1  0
  7 34  1  0
 11 35  1  0
 14 36  1  0
 15 37  1  0
 16 38  1  0
 17 39  1  0
 18 40  1  0
 22 41  1  0
 22 42  1  0
 24 43  1  0
 25 44  1  0
 26 45  1  0
 27 46  1  0
 30 47  1  0
 31 48  1  0
M  CHG  2   2   1   3  -1
M  END
>  <smiles>  (50) 
O=[N+]([O-])c1cccc(N=c2cc(-c3ccccc3)nc(SCc3ccccc3Cl)[nH]2)c1

>  <score_type>  (50) 
oracle

>  <origin>  (50) 
adgpu

>  <m_score__min__energy>  (50) 
-10.199999999999999

>  <m_primary>  (50) 
energy

$$$$
