0:0
     RDKit          3D

 45 47  0  0  0  0  0  0  0  0999 V2000
   -7.2180   14.0110  -34.3270 C   0  0  0  0  0  0  0  0  0  0  0  0
   -6.1660   15.0760  -34.1870 C   0  0  0  0  0  0  0  0  0  0  0  0
   -6.4890   16.3080  -33.5950 C   0  0  0  0  0  0  0  0  0  0  0  0
   -5.5130   17.3060  -33.4410 C   0  0  0  0  0  0  0  0  0  0  0  0
   -5.8580   18.6030  -32.8180 C   0  0  0  0  0  0  0  0  0  0  0  0
   -7.0860   18.9130  -32.3560 N   0  0  0  0  0  0  0  0  0  0  0  0
   -6.9770   20.1190  -31.8920 O   0  0  0  0  0  0  0  0  0  0  0  0
   -5.7470   20.5460  -32.0520 C   0  0  0  0  0  0  0  0  0  0  0  0
   -5.2670   21.8770  -31.6360 C   0  0  0  0  0  0  0  0  0  0  0  0
   -3.9410   22.0450  -31.1970 C   0  0  0  0  0  0  0  0  0  0  0  0
   -3.4830   23.3050  -30.8010 C   0  0  0  0  0  0  0  0  0  0  0  0
   -4.3420   24.4080  -30.8380 C   0  0  0  0  0  0  0  0  0  0  0  0
   -3.8850   25.6590  -30.4450 O   0  0  0  0  0  0  0  0  0  0  0  0
   -5.6620   24.2500  -31.2730 C   0  0  0  0  0  0  0  0  0  0  0  0
   -6.1240   22.9910  -31.6700 C   0  0  0  0  0  0  0  0  0  0  0  0
   -4.9770   19.6110  -32.6440 N   0  0  0  0  0  0  0  0  0  0  0  0
   -4.2080   17.0590  -33.8880 C   0  0  0  0  0  0  0  0  0  0  0  0
   -3.8780   15.8340  -34.4730 C   0  0  0  0  0  0  0  0  0  0  0  0
   -4.8490   14.8260  -34.6160 C   0  0  0  0  0  0  0  0  0  0  0  0
   -4.5540   13.5760  -35.1900 O   0  0  0  0  0  0  0  0  0  0  0  0
   -3.8870   12.4890  -34.5440 C   0  0  0  0  0  0  0  0  0  0  0  0
   -4.4380   12.2730  -33.1300 C   0  0  0  0  0  0  0  0  0  0  0  0
   -3.9590   13.3280  -32.2100 N   0  0  0  0  0  0  0  0  0  0  0  0
   -2.4970   13.2590  -32.0420 C   0  0  0  0  0  0  0  0  0  0  0  0
   -4.6130   13.2100  -30.8970 C   0  0  0  0  0  0  0  0  0  0  0  0
   -7.5424   13.6826  -33.3286 H   0  0  0  0  0  0  0  0  0  0  0  0
   -8.0796   14.4168  -34.8774 H   0  0  0  0  0  0  0  0  0  0  0  0
   -6.8017   13.1545  -34.8774 H   0  0  0  0  0  0  0  0  0  0  0  0
   -7.5165   16.4930  -33.2486 H   0  0  0  0  0  0  0  0  0  0  0  0
   -3.2613   21.1807  -31.1652 H   0  0  0  0  0  0  0  0  0  0  0  0
   -2.4447   23.4292  -30.4596 H   0  0  0  0  0  0  0  0  0  0  0  0
   -6.3378   25.1174  -31.3029 H   0  0  0  0  0  0  0  0  0  0  0  0
   -7.1631   22.8718  -32.0106 H   0  0  0  0  0  0  0  0  0  0  0  0
   -3.4372   17.8360  -33.7774 H   0  0  0  0  0  0  0  0  0  0  0  0
   -2.8510   15.6562  -34.8245 H   0  0  0  0  0  0  0  0  0  0  0  0
   -4.0376   11.5725  -35.1333 H   0  0  0  0  0  0  0  0  0  0  0  0
   -2.8155   12.7269  -34.4715 H   0  0  0  0  0  0  0  0  0  0  0  0
   -5.5372   12.2969  -33.1642 H   0  0  0  0  0  0  0  0  0  0  0  0
   -4.0862   11.2984  -32.7608 H   0  0  0  0  0  0  0  0  0  0  0  0
   -2.2513   13.2474  -30.9699 H   0  0  0  0  0  0  0  0  0  0  0  0
   -2.1164   12.3419  -32.5154 H   0  0  0  0  0  0  0  0  0  0  0  0
   -2.0317   14.1362  -32.5154 H   0  0  0  0  0  0  0  0  0  0  0  0
   -3.8653   13.3449  -30.1015 H   0  0  0  0  0  0  0  0  0  0  0  0
   -5.3907   13.9823  -30.8040 H   0  0  0  0  0  0  0  0  0  0  0  0
   -5.0718   12.2146  -30.8040 H   0  0  0  0  0  0  0  0  0  0  0  0
  1  2  1  0
  2  3  2  0
  3  4  1  0
  4  5  1  0
  5  6  2  0
  6  7  1  0
  7  8  1  0
  8  9  1  0
  9 10  2  0
 10 11  1  0
 11 12  2  0
 12 13  1  0
 12 14  1  0
 14 15  2  0
  8 16  2  0
  4 17  2  0
 17 18  1  0
 18 19  2  0
 19 20  1  0
 20 21  1  0
 21 22  1  0
 22 23  1  0
 23 24  1  0
 23 25  1  0
 19  2  1  0
 16  5  1  0
 15  9  1  0
  1 26  1  0
  1 27  1  0
  1 28  1  0
  3 29  1  0
 10 30  1  0
 11 31  1  0
 14 32  1  0
 15 33  1  0
 17 34  1  0
 18 35  1  0
 21 36  1  0
 21 37  1  0
 22 38  1  0
 22 39  1  0
 24 40  1  0
 24 41  1  0
 24 42  1  0
 25 43  1  0
 25 44  1  0
 25 45  1  0
M  CHG  1  13  -1
M  END
>  <UniqueID>  (1) 
1

>  <SMILES>  (1) 
Cc1cc(-c2noc(-c3ccc([O-])cc3)n2)ccc1OCCN(C)C

>  <Energy>  (1) 
80.55787774930798

>  <Genealogy>  (1) 
Cc1cc(-c2noc(-c3ccc([O-])cc3)n2)ccc1OCCN(C)C (protonated)
Cc1cc(-c2noc(-c3ccc([O-])cc3)n2)ccc1OCCN(C)C (3D coordinates assigned)
Cc1cc(-c2noc(-c3ccc([O-])cc3)n2)ccc1OCCN(C)C (optimized conformer: 80.55787774930798 kcal/mol)

>  <smiles>  (1) 
Cc1cc(-c2noc(-c3ccc(O)cc3)n2)ccc1OCCN(C)C

>  <score_type>  (1) 
oracle

>  <origin>  (1) 
adgpu

>  <m_score__min__energy>  (1) 
-9.1899999999999995

>  <m_primary>  (1) 
energy

$$$$
1:0
     RDKit          3D

 50 53  0  0  0  0  0  0  0  0999 V2000
   -6.8913   19.6139  -32.5231 H   0  0  0  0  0  0  0  0  0  0  0  0
   -5.9290   20.1400  -32.4380 C   0  0  0  0  0  0  0  0  0  0  0  0
   -5.1830   20.4240  -33.5830 C   0  0  0  0  0  0  0  0  0  0  0  0
   -5.5782   20.1613  -34.5754 H   0  0  0  0  0  0  0  0  0  0  0  0
   -3.9360   21.0410  -33.4700 C   0  0  0  0  0  0  0  0  0  0  0  0
   -3.3492   21.2517  -34.3762 H   0  0  0  0  0  0  0  0  0  0  0  0
   -3.4220   21.3960  -32.2110 C   0  0  0  0  0  0  0  0  0  0  0  0
   -2.0280   21.9570  -32.1400 C   0  0  0  0  0  0  0  0  0  0  0  0
   -1.7336   22.0755  -31.0868 H   0  0  0  0  0  0  0  0  0  0  0  0
   -1.3302   21.2697  -32.6407 H   0  0  0  0  0  0  0  0  0  0  0  0
   -2.0008   22.9361  -32.6407 H   0  0  0  0  0  0  0  0  0  0  0  0
   -4.2310   21.2090  -31.0600 C   0  0  0  0  0  0  0  0  0  0  0  0
   -3.8080   21.5760  -29.7350 N   0  0  0  0  0  0  0  0  0  0  0  0
   -3.3700   22.7100  -29.2450 C   0  0  0  0  0  0  0  0  0  0  0  0
   -3.4010   23.9670  -29.9330 C   0  0  0  0  0  0  0  0  0  0  0  0
   -4.2900   24.3180  -30.8230 N   0  0  0  0  0  0  0  0  0  0  0  0
   -5.5740   23.7580  -31.1220 C   0  0  0  0  0  0  0  0  0  0  0  0
   -6.3630   23.2790  -30.0690 C   0  0  0  0  0  0  0  0  0  0  0  0
   -6.0269   23.4112  -29.0300 H   0  0  0  0  0  0  0  0  0  0  0  0
   -7.5730   22.6350  -30.3300 C   0  0  0  0  0  0  0  0  0  0  0  0
   -8.2044   22.2986  -29.4944 H   0  0  0  0  0  0  0  0  0  0  0  0
   -7.9890   22.4140  -31.6500 C   0  0  0  0  0  0  0  0  0  0  0  0
   -9.2820   21.6900  -31.9220 C   0  0  0  0  0  0  0  0  0  0  0  0
   -9.9859   21.8987  -31.1028 H   0  0  0  0  0  0  0  0  0  0  0  0
   -9.6775   22.0471  -32.8843 H   0  0  0  0  0  0  0  0  0  0  0  0
   -9.0760   20.1740  -32.0250 C   0  0  0  0  0  0  0  0  0  0  0  0
   -8.0193   19.9410  -31.8275 H   0  0  0  0  0  0  0  0  0  0  0  0
   -9.7256   19.6827  -31.2857 H   0  0  0  0  0  0  0  0  0  0  0  0
   -9.4320   19.6830  -33.3530 N   0  0  0  0  0  0  0  0  0  0  0  0
   -9.1590   18.6710  -33.4040 H   0  0  0  0  0  0  0  0  0  0  0  0
   -8.8310   20.1850  -34.0510 H   0  0  0  0  0  0  0  0  0  0  0  0
   -7.1850   22.8660  -32.7080 C   0  0  0  0  0  0  0  0  0  0  0  0
   -7.5024   22.6997  -33.7480 H   0  0  0  0  0  0  0  0  0  0  0  0
   -5.9800   23.5280  -32.4430 C   0  0  0  0  0  0  0  0  0  0  0  0
   -5.3486   23.8694  -33.2766 H   0  0  0  0  0  0  0  0  0  0  0  0
   -2.5190   24.9280  -29.5530 N   0  0  0  0  0  0  0  0  0  0  0  0
   -1.7350   24.7970  -28.4560 C   0  0  0  0  0  0  0  0  0  0  0  0
   -0.8490   25.8160  -28.0880 C   0  0  0  0  0  0  0  0  0  0  0  0
   -0.7487   26.7124  -28.7175 H   0  0  0  0  0  0  0  0  0  0  0  0
   -0.0900   25.6930  -26.9170 C   0  0  0  0  0  0  0  0  0  0  0  0
    0.6121   26.4903  -26.6318 H   0  0  0  0  0  0  0  0  0  0  0  0
   -0.2230   24.5590  -26.1100 C   0  0  0  0  0  0  0  0  0  0  0  0
    0.3663   24.4702  -25.1854 H   0  0  0  0  0  0  0  0  0  0  0  0
   -1.1060   23.5360  -26.4780 C   0  0  0  0  0  0  0  0  0  0  0  0
   -1.2051   22.6422  -25.8445 H   0  0  0  0  0  0  0  0  0  0  0  0
   -1.8650   23.6490  -27.6540 C   0  0  0  0  0  0  0  0  0  0  0  0
   -2.6920   22.6470  -28.0620 N   0  0  0  0  0  0  0  0  0  0  0  0
   -2.7170   21.7560  -27.5120 H   0  0  0  0  0  0  0  0  0  0  0  0
   -5.4510   20.5250  -31.1860 C   0  0  0  0  0  0  0  0  0  0  0  0
   -6.0371   20.2899  -30.2853 H   0  0  0  0  0  0  0  0  0  0  0  0
  1  2  1  0
  2  3  2  0
  3  4  1  0
  3  5  1  0
  5  6  1  0
  5  7  2  0
  7  8  1  0
  8  9  1  0
  8 10  1  0
  8 11  1  0
  7 12  1  0
 12 13  1  0
 13 14  2  0
 14 15  1  0
 15 16  2  0
 16 17  1  0
 17 18  2  0
 18 19  1  0
 18 20  1  0
 20 21  1  0
 20 22  2  0
 22 23  1  0
 23 24  1  0
 23 25  1  0
 23 26  1  0
 26 27  1  0
 26 28  1  0
 26 29  1  0
 29 30  1  0
 29 31  1  0
 22 32  1  0
 32 33  1  0
 32 34  2  0
 34 35  1  0
 15 36  1  0
 36 37  1  0
 37 38  2  0
 38 39  1  0
 38 40  1  0
 40 41  1  0
 40 42  2  0
 42 43  1  0
 42 44  1  0
 44 45  1  0
 44 46  2  0
 46 47  1  0
 47 48  1  0
 12 49  2  0
 49 50  1  0
 49  2  1  0
 47 14  1  0
 34 17  1  0
 46 37  1  0
M  CHG  1  36  -1
M  END
>  <UniqueID>  (2) 
2

>  <SMILES>  (2) 
Cc1ccccc1/N=c1/[nH]c2ccccc2[n-]/c1=N/c1ccc(CCN)cc1

>  <Energy>  (2) 
88.39892151682842

>  <Genealogy>  (2) 
Cc1ccccc1N=c1[nH]c2ccccc2[n-]c1=Nc1ccc(CCN)cc1 (protonated)
Cc1ccccc1/N=c1/[nH]c2ccccc2[n-]/c1=N/c1ccc(CCN)cc1 (cis-trans isomerization)
Cc1ccccc1/N=c1/[nH]c2ccccc2[n-]/c1=N/c1ccc(CCN)cc1 (3D coordinates assigned)
Cc1ccccc1/N=c1/[nH]c2ccccc2[n-]/c1=N/c1ccc(CCN)cc1 (optimized conformer: 88.39892151682842 kcal/mol)

>  <smiles>  (2) 
Cc1ccccc1N=c1[nH]c2ccccc2[nH]c1=Nc1ccc(CCN)cc1

>  <score_type>  (2) 
oracle

>  <origin>  (2) 
adgpu

>  <m_score__min__energy>  (2) 
-10.48

>  <m_primary>  (2) 
energy

$$$$
2:0
     RDKit          3D

 35 37  0  0  0  0  0  0  0  0999 V2000
   -1.9720   24.9110  -28.7060 C   0  0  0  0  0  0  0  0  0  0  0  0
   -2.9390   25.2910  -29.6810 O   0  0  0  0  0  0  0  0  0  0  0  0
   -4.0900   24.5500  -29.9840 C   0  0  0  0  0  0  0  0  0  0  0  0
   -3.9640   23.1670  -30.1590 C   0  0  0  0  0  0  0  0  0  0  0  0
   -5.0820   22.3830  -30.4630 C   0  0  0  0  0  0  0  0  0  0  0  0
   -6.3480   22.9740  -30.5960 C   0  0  0  0  0  0  0  0  0  0  0  0
   -7.5250   22.1430  -30.9130 C   0  0  0  0  0  0  0  0  0  0  0  0
   -8.7410   22.2940  -30.3510 N   0  0  0  0  0  0  0  0  0  0  0  0
   -9.5190   21.3680  -30.8890 N   0  0  0  0  0  0  0  0  0  0  0  0
   -8.7470   20.6890  -31.7570 C   0  0  0  0  0  0  0  0  0  0  0  0
   -9.3220   19.3130  -32.7460 S   0  0  0  0  0  0  0  0  0  0  0  0
   -8.0810   18.1380  -32.1000 C   0  0  0  0  0  0  0  0  0  0  0  0
   -6.6960   18.5240  -32.5400 C   0  0  0  0  0  0  0  0  0  0  0  0
   -5.7530   18.9630  -31.5970 C   0  0  0  0  0  0  0  0  0  0  0  0
   -4.4720   19.3480  -32.0060 C   0  0  0  0  0  0  0  0  0  0  0  0
   -4.1260   19.3010  -33.3610 C   0  0  0  0  0  0  0  0  0  0  0  0
   -2.5200   19.7880  -33.8730 Cl  0  0  0  0  0  0  0  0  0  0  0  0
   -5.0620   18.8690  -34.3060 C   0  0  0  0  0  0  0  0  0  0  0  0
   -6.3420   18.4830  -33.9000 C   0  0  0  0  0  0  0  0  0  0  0  0
   -7.5240   21.1590  -31.7820 O   0  0  0  0  0  0  0  0  0  0  0  0
   -6.4780   24.3620  -30.4190 C   0  0  0  0  0  0  0  0  0  0  0  0
   -5.3590   25.1450  -30.1160 C   0  0  0  0  0  0  0  0  0  0  0  0
   -2.3837   25.0728  -27.6988 H   0  0  0  0  0  0  0  0  0  0  0  0
   -1.7214   23.8475  -28.8332 H   0  0  0  0  0  0  0  0  0  0  0  0
   -1.0644   25.5193  -28.8332 H   0  0  0  0  0  0  0  0  0  0  0  0
   -2.9770   22.6923  -30.0566 H   0  0  0  0  0  0  0  0  0  0  0  0
   -4.9682   21.2973  -30.5985 H   0  0  0  0  0  0  0  0  0  0  0  0
   -8.1228   18.1383  -31.0008 H   0  0  0  0  0  0  0  0  0  0  0  0
   -8.3080   17.1360  -32.4930 H   0  0  0  0  0  0  0  0  0  0  0  0
   -6.0229   19.0044  -30.5314 H   0  0  0  0  0  0  0  0  0  0  0  0
   -3.7363   19.6878  -31.2622 H   0  0  0  0  0  0  0  0  0  0  0  0
   -4.7899   18.8330  -35.3712 H   0  0  0  0  0  0  0  0  0  0  0  0
   -7.0755   18.1458  -34.6472 H   0  0  0  0  0  0  0  0  0  0  0  0
   -7.4657   24.8357  -30.5193 H   0  0  0  0  0  0  0  0  0  0  0  0
   -5.4712   26.2308  -29.9802 H   0  0  0  0  0  0  0  0  0  0  0  0
  1  2  1  0
  2  3  1  0
  3  4  2  0
  4  5  1  0
  5  6  2  0
  6  7  1  0
  7  8  2  0
  8  9  1  0
  9 10  2  0
 10 11  1  0
 11 12  1  0
 12 13  1  0
 13 14  2  0
 14 15  1  0
 15 16  2  0
 16 17  1  0
 16 18  1  0
 18 19  2  0
 10 20  1  0
  6 21  1  0
 21 22  2  0
 22  3  1  0
 20  7  1  0
 19 13  1  0
  1 23  1  0
  1 24  1  0
  1 25  1  0
  4 26  1  0
  5 27  1  0
 12 28  1  0
 12 29  1  0
 14 30  1  0
 15 31  1  0
 18 32  1  0
 19 33  1  0
 21 34  1  0
 22 35  1  0
M  END
>  <UniqueID>  (3) 
3

>  <SMILES>  (3) 
COc1ccc(-c2nnc(SCc3ccc(Cl)cc3)o2)cc1

>  <Energy>  (3) 
67.07211797372008

>  <Genealogy>  (3) 
COc1ccc(-c2nnc(SCc3ccc(Cl)cc3)o2)cc1 (3D coordinates assigned)
COc1ccc(-c2nnc(SCc3ccc(Cl)cc3)o2)cc1 (optimized conformer: 67.07211797372008 kcal/mol)

>  <smiles>  (3) 
COc1ccc(-c2nnc(SCc3ccc(Cl)cc3)o2)cc1

>  <score_type>  (3) 
oracle

>  <origin>  (3) 
adgpu

>  <m_score__min__energy>  (3) 
-8.9299999999999997

>  <m_primary>  (3) 
energy

$$$$
3:0
     RDKit          3D

 49 51  0  0  0  0  0  0  0  0999 V2000
   -3.2270   15.3480  -35.7170 C   0  0  0  0  0  0  0  0  0  0  0  0
   -3.0420   16.5520  -34.8530 C   0  0  0  0  0  0  0  0  0  0  0  0
   -2.0310   17.4280  -35.0120 N   0  0  0  0  0  0  0  0  0  0  0  0
   -2.1950   18.3990  -34.1260 N   0  0  0  0  0  0  0  0  0  0  0  0
   -1.3030   19.5480  -34.0180 C   0  0  0  0  0  0  0  0  0  0  0  0
   -3.2960   18.1590  -33.3800 C   0  0  0  0  0  0  0  0  0  0  0  0
   -3.8500   19.0860  -32.3400 C   0  0  0  0  0  0  0  0  0  0  0  0
   -3.8750   16.9860  -33.8310 C   0  0  0  0  0  0  0  0  0  0  0  0
   -5.3590   16.2390  -33.2360 S   0  0  0  0  0  0  0  0  0  0  0  0
   -5.4670   14.8600  -33.8240 O   0  0  0  0  0  0  0  0  0  0  0  0
   -5.3480   16.1260  -31.7380 O   0  0  0  0  0  0  0  0  0  0  0  0
   -6.7320   17.1800  -33.7250 N   0  0  0  0  0  0  0  0  0  0  0  0
   -7.0750   18.4410  -33.1280 C   0  0  0  0  0  0  0  0  0  0  0  0
   -6.5270   19.6230  -33.6490 C   0  0  0  0  0  0  0  0  0  0  0  0
   -6.8300   20.8600  -33.0740 C   0  0  0  0  0  0  0  0  0  0  0  0
   -7.6890   20.9320  -31.9700 C   0  0  0  0  0  0  0  0  0  0  0  0
   -8.0760   22.4960  -31.2560 S   0  0  0  0  0  0  0  0  0  0  0  0
   -9.1310   23.1820  -32.0800 O   0  0  0  0  0  0  0  0  0  0  0  0
   -8.6200   22.2760  -29.8720 O   0  0  0  0  0  0  0  0  0  0  0  0
   -6.6380   23.4800  -31.1730 N   0  0  0  0  0  0  0  0  0  0  0  0
   -6.8530   24.6130  -30.2590 C   0  0  0  0  0  0  0  0  0  0  0  0
   -5.5640   25.4540  -30.1330 C   0  0  0  0  0  0  0  0  0  0  0  0
   -4.4820   24.8780  -30.8440 O   0  0  0  0  0  0  0  0  0  0  0  0
   -4.2770   23.5500  -30.4020 C   0  0  0  0  0  0  0  0  0  0  0  0
   -5.5000   22.6640  -30.7150 C   0  0  0  0  0  0  0  0  0  0  0  0
   -8.2580   19.7580  -31.4590 C   0  0  0  0  0  0  0  0  0  0  0  0
   -7.9570   18.5220  -32.0350 C   0  0  0  0  0  0  0  0  0  0  0  0
   -3.3635   14.4594  -35.0832 H   0  0  0  0  0  0  0  0  0  0  0  0
   -4.1146   15.4853  -36.3521 H   0  0  0  0  0  0  0  0  0  0  0  0
   -2.3391   15.2125  -36.3521 H   0  0  0  0  0  0  0  0  0  0  0  0
   -1.1259   19.7762  -32.9566 H   0  0  0  0  0  0  0  0  0  0  0  0
   -0.3458   19.3164  -34.5080 H   0  0  0  0  0  0  0  0  0  0  0  0
   -1.7647   20.4179  -34.5080 H   0  0  0  0  0  0  0  0  0  0  0  0
   -3.6164   18.6952  -31.3386 H   0  0  0  0  0  0  0  0  0  0  0  0
   -3.3991   20.0822  -32.4592 H   0  0  0  0  0  0  0  0  0  0  0  0
   -4.9410   19.1607  -32.4592 H   0  0  0  0  0  0  0  0  0  0  0  0
   -7.2240   16.8830  -34.5980 H   0  0  0  0  0  0  0  0  0  0  0  0
   -5.8533   19.5755  -34.5173 H   0  0  0  0  0  0  0  0  0  0  0  0
   -6.3927   21.7798  -33.4895 H   0  0  0  0  0  0  0  0  0  0  0  0
   -7.6624   25.2465  -30.6509 H   0  0  0  0  0  0  0  0  0  0  0  0
   -7.1245   24.2246  -29.2663 H   0  0  0  0  0  0  0  0  0  0  0  0
   -5.7562   26.4604  -30.5332 H   0  0  0  0  0  0  0  0  0  0  0  0
   -5.2878   25.4946  -29.0690 H   0  0  0  0  0  0  0  0  0  0  0  0
   -3.3938   23.1350  -30.9096 H   0  0  0  0  0  0  0  0  0  0  0  0
   -4.1265   23.5644  -29.3124 H   0  0  0  0  0  0  0  0  0  0  0  0
   -5.2317   21.9456  -31.5036 H   0  0  0  0  0  0  0  0  0  0  0  0
   -5.7945   22.1349  -29.7967 H   0  0  0  0  0  0  0  0  0  0  0  0
   -8.9443   19.8101  -30.6010 H   0  0  0  0  0  0  0  0  0  0  0  0
   -8.4125   17.6057  -31.6314 H   0  0  0  0  0  0  0  0  0  0  0  0
  1  2  1  0
  2  3  2  0
  3  4  1  0
  4  5  1  0
  4  6  1  0
  6  7  1  0
  6  8  2  0
  8  9  1  0
  9 10  2  0
  9 11  2  0
  9 12  1  0
 12 13  1  0
 13 14  2  0
 14 15  1  0
 15 16  2  0
 16 17  1  0
 17 18  2  0
 17 19  2  0
 17 20  1  0
 20 21  1  0
 21 22  1  0
 22 23  1  0
 23 24  1  0
 24 25  1  0
 16 26  1  0
 26 27  2  0
  8  2  1  0
 27 13  1  0
 25 20  1  0
  1 28  1  0
  1 29  1  0
  1 30  1  0
  5 31  1  0
  5 32  1  0
  5 33  1  0
  7 34  1  0
  7 35  1  0
  7 36  1  0
 12 37  1  0
 14 38  1  0
 15 39  1  0
 21 40  1  0
 21 41  1  0
 22 42  1  0
 22 43  1  0
 24 44  1  0
 24 45  1  0
 25 46  1  0
 25 47  1  0
 26 48  1  0
 27 49  1  0
M  END
>  <UniqueID>  (4) 
4

>  <SMILES>  (4) 
Cc1nn(C)c(C)c1S(=O)(=O)Nc1ccc(S(=O)(=O)N2CCOCC2)cc1

>  <Energy>  (4) 
87.49193310853077

>  <Genealogy>  (4) 
Cc1nn(C)c(C)c1S(=O)(=O)Nc1ccc(S(=O)(=O)N2CCOCC2)cc1 (3D coordinates assigned)
Cc1nn(C)c(C)c1S(=O)(=O)Nc1ccc(S(=O)(=O)N2CCOCC2)cc1 (nonaromatic ring conformer: 87.49193310853077 kcal/mol)

>  <smiles>  (4) 
Cc1nn(C)c(C)c1S(=O)(=O)Nc1ccc(S(=O)(=O)N2CCOCC2)cc1

>  <score_type>  (4) 
oracle

>  <origin>  (4) 
adgpu

>  <m_score__min__energy>  (4) 
-9.25

>  <m_primary>  (4) 
energy

$$$$
4:0
     RDKit          3D

 26 27  0  0  0  0  0  0  0  0999 V2000
   -9.1570   18.9810  -33.6220 H   0  0  0  0  0  0  0  0  0  0  0  0
   -9.4260   19.5750  -32.8060 N   0  0  0  0  0  0  0  0  0  0  0  0
   -8.6310   20.4890  -32.3490 C   0  0  0  0  0  0  0  0  0  0  0  0
   -8.9860   21.4850  -31.0410 S   0  0  0  0  0  0  0  0  0  0  0  0
   -7.4860   22.2420  -31.2060 C   0  0  0  0  0  0  0  0  0  0  0  0
   -6.8990   23.5670  -30.1560 S   0  0  0  0  0  0  0  0  0  0  0  0
   -5.7700   24.2690  -31.4120 C   0  0  0  0  0  0  0  0  0  0  0  0
   -5.1646   23.4563  -31.8397 H   0  0  0  0  0  0  0  0  0  0  0  0
   -6.3816   24.7573  -32.1850 H   0  0  0  0  0  0  0  0  0  0  0  0
   -4.8480   25.3050  -30.8230 C   0  0  0  0  0  0  0  0  0  0  0  0
   -5.3170   26.4210  -30.4740 O   0  0  0  0  0  0  0  0  0  0  0  0
   -3.4920   24.9930  -30.4770 N   0  0  0  0  0  0  0  0  0  0  0  0
   -3.0590   23.9080  -29.6450 C   0  0  0  0  0  0  0  0  0  0  0  0
   -3.6210   22.6280  -29.7810 C   0  0  0  0  0  0  0  0  0  0  0  0
   -4.4238   22.4586  -30.5136 H   0  0  0  0  0  0  0  0  0  0  0  0
   -3.1670   21.5690  -28.9920 C   0  0  0  0  0  0  0  0  0  0  0  0
   -3.6239   20.5735  -29.0927 H   0  0  0  0  0  0  0  0  0  0  0  0
   -2.1320   21.7730  -28.0740 C   0  0  0  0  0  0  0  0  0  0  0  0
   -1.5610   20.4430  -27.0840 Cl  0  0  0  0  0  0  0  0  0  0  0  0
   -1.5450   23.0370  -27.9560 C   0  0  0  0  0  0  0  0  0  0  0  0
   -0.7245   23.1956  -27.2407 H   0  0  0  0  0  0  0  0  0  0  0  0
   -1.9980   24.1010  -28.7450 C   0  0  0  0  0  0  0  0  0  0  0  0
   -1.2350   25.6770  -28.5780 Cl  0  0  0  0  0  0  0  0  0  0  0  0
   -6.7720   21.7320  -32.2350 N   0  0  0  0  0  0  0  0  0  0  0  0
   -7.4130   20.7540  -32.8690 N   0  0  0  0  0  0  0  0  0  0  0  0
   -6.9990   20.2510  -33.6850 H   0  0  0  0  0  0  0  0  0  0  0  0
  1  2  1  0
  2  3  2  0
  3  4  1  0
  4  5  1  0
  5  6  1  0
  6  7  1  0
  7  8  1  0
  7  9  1  0
  7 10  1  0
 10 11  2  0
 10 12  1  0
 12 13  1  0
 13 14  2  0
 14 15  1  0
 14 16  1  0
 16 17  1  0
 16 18  2  0
 18 19  1  0
 18 20  1  0
 20 21  1  0
 20 22  2  0
 22 23  1  0
  5 24  2  0
 24 25  1  0
 25 26  1  0
 25  3  1  0
 22 13  1  0
M  CHG  1  12  -1
M  END
>  <UniqueID>  (5) 
5

>  <SMILES>  (5) 
[H]/N=c1\[nH]nc(SCC(=O)[N-]c2ccc(Cl)cc2Cl)s1

>  <Energy>  (5) 
61.67416116073604

>  <Genealogy>  (5) 
N=c1[nH]nc(SCC(=O)[N-]c2ccc(Cl)cc2Cl)s1 (protonated)
[H]/N=c1\[nH]nc(SCC(=O)[N-]c2ccc(Cl)cc2Cl)s1 (cis-trans isomerization)
[H]/N=c1\[nH]nc(SCC(=O)[N-]c2ccc(Cl)cc2Cl)s1 (3D coordinates assigned)
[H]/N=c1\[nH]nc(SCC(=O)[N-]c2ccc(Cl)cc2Cl)s1 (optimized conformer: 61.67416116073604 kcal/mol)

>  <smiles>  (5) 
N=c1[nH]nc(SCC(=O)Nc2ccc(Cl)cc2Cl)s1

>  <score_type>  (5) 
oracle

>  <origin>  (5) 
adgpu

>  <m_score__min__energy>  (5) 
-9.6799999999999997

>  <m_primary>  (5) 
energy

$$$$
5:0
     RDKit          3D

 34 36  0  0  1  0  0  0  0  0999 V2000
    2.3920   24.2400  -26.8980 C   0  0  0  0  0  0  0  0  0  0  0  0
    0.9740   24.7570  -26.9780 C   0  0  0  0  0  0  0  0  0  0  0  0
    0.3280   25.2660  -25.9010 C   0  0  0  0  0  0  0  0  0  0  0  0
   -1.2930   25.7170  -26.5630 S   0  0  0  0  0  0  0  0  0  0  0  0
   -0.7880   25.1000  -28.2990 C   0  0  0  0  0  0  0  0  0  0  0  0
   -1.8150   25.2310  -29.3410 N   0  0  0  0  0  0  0  0  0  0  0  0
   -2.8850   24.5480  -29.3320 C   0  0  0  0  0  0  0  0  0  0  0  0
   -3.1030   23.6440  -28.3110 C   0  0  0  0  0  0  0  0  0  0  0  0
   -4.2900   22.9110  -28.3340 C   0  0  0  0  0  0  0  0  0  0  0  0
   -5.2010   23.0690  -29.3130 N   0  0  0  0  0  0  0  0  0  0  0  0
   -4.9470   23.9620  -30.2890 C   0  0  0  0  0  0  0  0  0  0  0  0
   -6.1130   24.2240  -31.6190 S   0  0  0  0  0  0  0  0  0  0  0  0
   -7.0700   22.7520  -31.8760 C   0  0  0  0  0  0  0  0  0  0  0  0
   -8.4250   22.6660  -31.6180 C   0  0  0  0  0  0  0  0  0  0  0  0
   -9.0710   21.4720  -31.8540 C   0  0  0  0  0  0  0  0  0  0  0  0
   -8.4370   20.3480  -32.3370 C   0  0  0  0  0  0  0  0  0  0  0  0
   -9.0990   19.1170  -32.5800 N   0  0  0  0  0  0  0  0  0  0  0  0
   -7.0870   20.4340  -32.5930 C   0  0  0  0  0  0  0  0  0  0  0  0
   -6.4290   21.6300  -32.3600 C   0  0  0  0  0  0  0  0  0  0  0  0
   -3.8090   24.6910  -30.3020 N   0  0  0  0  0  0  0  0  0  0  0  0
    0.2750   24.7480  -28.0880 N   0  0  0  0  0  0  0  0  0  0  0  0
    2.6844   24.1334  -25.8430 H   0  0  0  0  0  0  0  0  0  0  0  0
    2.4541   23.2614  -27.3964 H   0  0  0  0  0  0  0  0  0  0  0  0
    3.0694   24.9490  -27.3964 H   0  0  0  0  0  0  0  0  0  0  0  0
    0.7001   25.3779  -24.8719 H   0  0  0  0  0  0  0  0  0  0  0  0
   -2.3655   23.5064  -27.5065 H   0  0  0  0  0  0  0  0  0  0  0  0
   -4.4868   22.1850  -27.5314 H   0  0  0  0  0  0  0  0  0  0  0  0
   -6.0960   22.5160  -29.3300 H   0  0  0  0  0  0  0  0  0  0  0  0
   -8.9777   23.5349  -31.2313 H   0  0  0  0  0  0  0  0  0  0  0  0
  -10.1495   21.4130  -31.6459 H   0  0  0  0  0  0  0  0  0  0  0  0
   -9.1350   18.7020  -33.5430 H   0  0  0  0  0  0  0  0  0  0  0  0
   -9.5590   18.6130  -31.7830 H   0  0  0  0  0  0  0  0  0  0  0  0
   -6.5373   19.5626  -32.9782 H   0  0  0  0  0  0  0  0  0  0  0  0
   -5.3507   21.6880  -32.5694 H   0  0  0  0  0  0  0  0  0  0  0  0
  1  2  1  0
  2  3  2  0
  3  4  1  0
  4  5  1  0
  5  6  1  0
  6  7  2  0
  7  8  1  0
  8  9  2  0
  9 10  1  0
 10 11  1  0
 11 12  1  0
 12 13  1  0
 13 14  2  0
 14 15  1  0
 15 16  2  0
 16 17  1  0
 16 18  1  0
 18 19  2  0
 11 20  2  0
  5 21  2  0
 21  2  1  0
 20  7  1  0
 19 13  1  0
  1 22  1  0
  1 23  1  0
  1 24  1  0
  3 25  1  0
  8 26  1  0
  9 27  1  0
 10 28  1  0
 14 29  1  0
 15 30  1  0
 17 31  1  0
 17 32  1  0
 18 33  1  0
 19 34  1  0
M  END
>  <smiles>  (6) 
Cc1csc(N=c2cc[nH]c(Sc3ccc(N)cc3)n2)n1

>  <score_type>  (6) 
oracle

>  <origin>  (6) 
adgpu

>  <m_score__min__energy>  (6) 
-8.1300000000000008

>  <m_primary>  (6) 
energy

$$$$
6:0
     RDKit          3D

 52 55  0  0  0  0  0  0  0  0999 V2000
   -6.2674   24.2328  -32.3352 H   0  0  0  0  0  0  0  0  0  0  0  0
   -5.3550   23.7410  -31.9670 C   0  0  0  0  0  0  0  0  0  0  0  0
   -4.7490   24.1950  -30.8400 N   0  0  0  0  0  0  0  0  0  0  0  0
   -3.6180   23.6270  -30.3440 C   0  0  0  0  0  0  0  0  0  0  0  0
   -3.1110   24.1150  -29.2460 N   0  0  0  0  0  0  0  0  0  0  0  0
   -1.8850   23.7330  -28.6020 C   0  0  0  0  0  0  0  0  0  0  0  0
   -1.6090   22.3820  -28.3240 C   0  0  0  0  0  0  0  0  0  0  0  0
   -2.3551   21.6105  -28.5651 H   0  0  0  0  0  0  0  0  0  0  0  0
   -0.3940   22.0150  -27.7440 C   0  0  0  0  0  0  0  0  0  0  0  0
   -0.1919   20.9587  -27.5129 H   0  0  0  0  0  0  0  0  0  0  0  0
    0.5650   22.9880  -27.4570 C   0  0  0  0  0  0  0  0  0  0  0  0
    1.5186   22.6985  -26.9913 H   0  0  0  0  0  0  0  0  0  0  0  0
    0.3160   24.3280  -27.7600 C   0  0  0  0  0  0  0  0  0  0  0  0
    1.0793   25.0894  -27.5417 H   0  0  0  0  0  0  0  0  0  0  0  0
   -0.9080   24.7100  -28.3440 C   0  0  0  0  0  0  0  0  0  0  0  0
   -1.1940   26.0460  -28.6740 O   0  0  0  0  0  0  0  0  0  0  0  0
   -0.8620   27.1650  -27.8590 C   0  0  0  0  0  0  0  0  0  0  0  0
   -0.9454   26.8840  -26.7988 H   0  0  0  0  0  0  0  0  0  0  0  0
    0.1690   27.4824  -28.0742 H   0  0  0  0  0  0  0  0  0  0  0  0
   -1.5531   27.9933  -28.0742 H   0  0  0  0  0  0  0  0  0  0  0  0
   -3.0640   22.5100  -31.0060 C   0  0  0  0  0  0  0  0  0  0  0  0
   -2.1673   22.0182  -30.6009 H   0  0  0  0  0  0  0  0  0  0  0  0
   -3.6610   22.0270  -32.1850 C   0  0  0  0  0  0  0  0  0  0  0  0
   -3.1050   20.8550  -32.9080 C   0  0  0  0  0  0  0  0  0  0  0  0
   -3.9540   19.9920  -33.5310 N   0  0  0  0  0  0  0  0  0  0  0  0
   -3.4980   18.9030  -34.2110 C   0  0  0  0  0  0  0  0  0  0  0  0
   -4.3290   18.0890  -34.7900 N   0  0  0  0  0  0  0  0  0  0  0  0
   -5.7820   18.2480  -34.7710 C   0  0  0  0  0  0  0  0  0  0  0  0
   -6.0314   19.3138  -34.8800 H   0  0  0  0  0  0  0  0  0  0  0  0
   -6.2149   17.6716  -35.6019 H   0  0  0  0  0  0  0  0  0  0  0  0
   -6.3590   17.7270  -33.4510 C   0  0  0  0  0  0  0  0  0  0  0  0
   -5.3180   17.3790  -32.6040 F   0  0  0  0  0  0  0  0  0  0  0  0
   -7.0940   16.5810  -33.7060 F   0  0  0  0  0  0  0  0  0  0  0  0
   -7.2480   18.7680  -32.8030 C   0  0  0  0  0  0  0  0  0  0  0  0
   -6.9690   20.1380  -32.9650 C   0  0  0  0  0  0  0  0  0  0  0  0
   -6.1226   20.4524  -33.5933 H   0  0  0  0  0  0  0  0  0  0  0  0
   -7.7600   21.1020  -32.3330 C   0  0  0  0  0  0  0  0  0  0  0  0
   -7.5419   22.1707  -32.4753 H   0  0  0  0  0  0  0  0  0  0  0  0
   -8.8270   20.7100  -31.5210 C   0  0  0  0  0  0  0  0  0  0  0  0
   -9.4504   21.4696  -31.0267 H   0  0  0  0  0  0  0  0  0  0  0  0
   -9.1020   19.3520  -31.3370 C   0  0  0  0  0  0  0  0  0  0  0  0
   -9.9395   19.0440  -30.6937 H   0  0  0  0  0  0  0  0  0  0  0  0
   -8.3160   18.3850  -31.9680 C   0  0  0  0  0  0  0  0  0  0  0  0
   -8.5323   17.3178  -31.8120 H   0  0  0  0  0  0  0  0  0  0  0  0
   -2.1600   18.6650  -34.2830 N   0  0  0  0  0  0  0  0  0  0  0  0
   -1.8020   17.8310  -34.8020 H   0  0  0  0  0  0  0  0  0  0  0  0
   -1.2720   19.5040  -33.6850 C   0  0  0  0  0  0  0  0  0  0  0  0
   -0.1933   19.2998  -33.7536 H   0  0  0  0  0  0  0  0  0  0  0  0
   -1.7240   20.6210  -32.9860 C   0  0  0  0  0  0  0  0  0  0  0  0
   -1.0114   21.3067  -32.5042 H   0  0  0  0  0  0  0  0  0  0  0  0
   -4.8240   22.6530  -32.6590 C   0  0  0  0  0  0  0  0  0  0  0  0
   -5.3149   22.2869  -33.5728 H   0  0  0  0  0  0  0  0  0  0  0  0
  1  2  1  0
  2  3  1  0
  3  4  1  0
  4  5  2  0
  5  6  1  0
  6  7  2  0
  7  8  1  0
  7  9  1  0
  9 10  1  0
  9 11  2  0
 11 12  1  0
 11 13  1  0
 13 14  1  0
 13 15  2  0
 15 16  1  0
 16 17  1  0
 17 18  1  0
 17 19  1  0
 17 20  1  0
  4 21  1  0
 21 22  1  0
 21 23  2  0
 23 24  1  0
 24 25  2  0
 25 26  1  0
 26 27  2  0
 27 28  1  0
 28 29  1  0
 28 30  1  0
 28 31  1  0
 31 32  1  0
 31 33  1  0
 31 34  1  0
 34 35  2  0
 35 36  1  0
 35 37  1  0
 37 38  1  0
 37 39  2  0
 39 40  1  0
 39 41  1  0
 41 42  1  0
 41 43  2  0
 43 44  1  0
 26 45  1  0
 45 46  1  0
 45 47  1  0
 47 48  1  0
 47 49  2  0
 49 50  1  0
 23 51  1  0
 51 52  1  0
 51  2  2  0
 15  6  1  0
 49 24  1  0
 43 34  1  0
M  CHG  1   3  -1
M  END
>  <UniqueID>  (7) 
6

>  <SMILES>  (7) 
COc1ccccc1/N=c1\cc(-c2cc[nH]/c(=N/CC(F)(F)c3ccccc3)n2)cc[n-]1

>  <Energy>  (7) 
68.6255318326777

>  <Genealogy>  (7) 
COc1ccccc1N=c1cc(-c2cc[nH]c(=NCC(F)(F)c3ccccc3)n2)cc[n-]1 (protonated)
COc1ccccc1/N=c1\cc(-c2cc[nH]/c(=N/CC(F)(F)c3ccccc3)n2)cc[n-]1 (cis-trans isomerization)
COc1ccccc1/N=c1\cc(-c2cc[nH]/c(=N/CC(F)(F)c3ccccc3)n2)cc[n-]1 (3D coordinates assigned)
COc1ccccc1/N=c1\cc(-c2cc[nH]/c(=N/CC(F)(F)c3ccccc3)n2)cc[n-]1 (optimized conformer: 68.6255318326777 kcal/mol)

>  <smiles>  (7) 
COc1ccccc1N=c1cc(-c2cc[nH]c(=NCC(F)(F)c3ccccc3)n2)cc[nH]1

>  <score_type>  (7) 
oracle

>  <origin>  (7) 
adgpu

>  <m_score__min__energy>  (7) 
-10.43

>  <m_primary>  (7) 
energy

$$$$
7:0
     RDKit          3D

 27 28  0  0  0  0  0  0  0  0999 V2000
   -4.7150   24.3240  -29.0420 O   0  0  0  0  0  0  0  0  0  0  0  0
   -4.6080   24.1820  -30.5340 S   0  0  0  0  0  0  0  0  0  0  0  0
   -4.6660   25.5460  -31.1620 O   0  0  0  0  0  0  0  0  0  0  0  0
   -3.0890   23.4430  -30.9250 N   0  0  0  0  0  0  0  0  0  0  0  0
   -2.0180   23.2010  -30.0000 C   0  0  0  0  0  0  0  0  0  0  0  0
   -1.3380   21.9670  -29.9670 C   0  0  0  0  0  0  0  0  0  0  0  0
   -0.3030   21.7560  -29.0520 C   0  0  0  0  0  0  0  0  0  0  0  0
    0.0670   22.7680  -28.1660 C   0  0  0  0  0  0  0  0  0  0  0  0
   -0.5970   23.9960  -28.1940 C   0  0  0  0  0  0  0  0  0  0  0  0
   -1.6360   24.2190  -29.1040 C   0  0  0  0  0  0  0  0  0  0  0  0
   -2.2770   25.4590  -29.0990 O   0  0  0  0  0  0  0  0  0  0  0  0
   -5.9350   23.1780  -31.1070 C   0  0  0  0  0  0  0  0  0  0  0  0
   -5.6690   22.0270  -31.8630 C   0  0  0  0  0  0  0  0  0  0  0  0
   -6.7210   21.2320  -32.3270 C   0  0  0  0  0  0  0  0  0  0  0  0
   -8.0440   21.5790  -32.0340 C   0  0  0  0  0  0  0  0  0  0  0  0
   -8.3130   22.7220  -31.2750 C   0  0  0  0  0  0  0  0  0  0  0  0
   -7.2630   23.5190  -30.8110 C   0  0  0  0  0  0  0  0  0  0  0  0
   -1.6233   21.1660  -30.6649 H   0  0  0  0  0  0  0  0  0  0  0  0
    0.2214   20.7893  -29.0304 H   0  0  0  0  0  0  0  0  0  0  0  0
    0.8811   22.5987  -27.4459 H   0  0  0  0  0  0  0  0  0  0  0  0
   -0.3013   24.7932  -27.4961 H   0  0  0  0  0  0  0  0  0  0  0  0
   -3.0480   25.6750  -29.7200 H   0  0  0  0  0  0  0  0  0  0  0  0
   -4.6295   21.7491  -32.0915 H   0  0  0  0  0  0  0  0  0  0  0  0
   -6.5082   20.3325  -32.9233 H   0  0  0  0  0  0  0  0  0  0  0  0
   -8.8715   20.9536  -32.4002 H   0  0  0  0  0  0  0  0  0  0  0  0
   -9.3531   22.9944  -31.0426 H   0  0  0  0  0  0  0  0  0  0  0  0
   -7.4785   24.4161  -30.2121 H   0  0  0  0  0  0  0  0  0  0  0  0
  1  2  2  0
  2  3  2  0
  2  4  1  0
  4  5  1  0
  5  6  2  0
  6  7  1  0
  7  8  2  0
  8  9  1  0
  9 10  2  0
 10 11  1  0
  2 12  1  0
 12 13  2  0
 13 14  1  0
 14 15  2  0
 15 16  1  0
 16 17  2  0
 10  5  1  0
 17 12  1  0
  6 18  1  0
  7 19  1  0
  8 20  1  0
  9 21  1  0
 11 22  1  0
 13 23  1  0
 14 24  1  0
 15 25  1  0
 16 26  1  0
 17 27  1  0
M  CHG  1   4  -1
M  END
>  <UniqueID>  (8) 
7

>  <SMILES>  (8) 
O=S(=O)([N-]c1ccccc1O)c1ccccc1

>  <Energy>  (8) 
31.220696358914

>  <Genealogy>  (8) 
O=S(=O)([N-]c1ccccc1O)c1ccccc1 (protonated)
O=S(=O)([N-]c1ccccc1O)c1ccccc1 (3D coordinates assigned)
O=S(=O)([N-]c1ccccc1O)c1ccccc1 (optimized conformer: 31.220696358914 kcal/mol)

>  <smiles>  (8) 
O=S(=O)(Nc1ccccc1O)c1ccccc1

>  <score_type>  (8) 
oracle

>  <origin>  (8) 
adgpu

>  <m_score__min__energy>  (8) 
-9.1300000000000008

>  <m_primary>  (8) 
energy

$$$$
8:0
     RDKit          3D

 37 39  0  0  0  0  0  0  0  0999 V2000
   -4.2552   20.1399  -33.5334 H   0  0  0  0  0  0  0  0  0  0  0  0
   -5.2960   20.3260  -33.2300 C   0  0  0  0  0  0  0  0  0  0  0  0
   -5.6120   21.4750  -32.4990 C   0  0  0  0  0  0  0  0  0  0  0  0
   -4.8208   22.1932  -32.2377 H   0  0  0  0  0  0  0  0  0  0  0  0
   -6.9330   21.7150  -32.0980 C   0  0  0  0  0  0  0  0  0  0  0  0
   -7.3360   23.1520  -31.1660 S   0  0  0  0  0  0  0  0  0  0  0  0
   -7.4760   22.7720  -29.7180 O   0  0  0  0  0  0  0  0  0  0  0  0
   -8.6320   23.7460  -31.6420 O   0  0  0  0  0  0  0  0  0  0  0  0
   -6.0790   24.3370  -31.3230 N   0  0  0  0  0  0  0  0  0  0  0  0
   -4.9960   24.3560  -30.6050 C   0  0  0  0  0  0  0  0  0  0  0  0
   -4.0430   25.2950  -30.7480 N   0  0  0  0  0  0  0  0  0  0  0  0
   -3.1170   25.0150  -29.8770 O   0  0  0  0  0  0  0  0  0  0  0  0
   -3.4290   23.9450  -29.1810 C   0  0  0  0  0  0  0  0  0  0  0  0
   -2.5750   23.3520  -28.1130 C   0  0  0  0  0  0  0  0  0  0  0  0
   -2.9753   23.6300  -27.1269 H   0  0  0  0  0  0  0  0  0  0  0  0
   -2.5720   22.2565  -28.2120 H   0  0  0  0  0  0  0  0  0  0  0  0
   -1.5475   23.7319  -28.2120 H   0  0  0  0  0  0  0  0  0  0  0  0
   -4.6460   23.4620  -29.6100 C   0  0  0  0  0  0  0  0  0  0  0  0
   -5.2013   22.5833  -29.2502 H   0  0  0  0  0  0  0  0  0  0  0  0
   -7.9340   20.7970  -32.4350 C   0  0  0  0  0  0  0  0  0  0  0  0
   -8.9730   20.9816  -32.1245 H   0  0  0  0  0  0  0  0  0  0  0  0
   -7.6200   19.6470  -33.1640 C   0  0  0  0  0  0  0  0  0  0  0  0
   -8.4119   18.9255  -33.4135 H   0  0  0  0  0  0  0  0  0  0  0  0
   -6.3020   19.4060  -33.5800 C   0  0  0  0  0  0  0  0  0  0  0  0
   -6.0010   18.2060  -34.3140 N   0  0  0  0  0  0  0  0  0  0  0  0
   -6.6910   17.8780  -35.0260 H   0  0  0  0  0  0  0  0  0  0  0  0
   -4.8780   17.3520  -34.0380 C   0  0  0  0  0  0  0  0  0  0  0  0
   -5.0470   15.9710  -33.8220 C   0  0  0  0  0  0  0  0  0  0  0  0
   -6.3670   15.4020  -33.8420 N   0  0  0  0  0  0  0  0  0  0  0  0
   -7.2840   15.8500  -34.5600 O   0  0  0  0  0  0  0  0  0  0  0  0
   -3.9010   15.2010  -33.5490 C   0  0  0  0  0  0  0  0  0  0  0  0
   -3.9810   13.9590  -33.3600 O   0  0  0  0  0  0  0  0  0  0  0  0
   -2.6850   15.8000  -33.4820 N   0  0  0  0  0  0  0  0  0  0  0  0
   -2.5470   17.1370  -33.6650 C   0  0  0  0  0  0  0  0  0  0  0  0
   -1.4060   17.6640  -33.5890 O   0  0  0  0  0  0  0  0  0  0  0  0
   -3.6370   17.9040  -33.9320 N   0  0  0  0  0  0  0  0  0  0  0  0
   -3.5190   18.9340  -34.0730 H   0  0  0  0  0  0  0  0  0  0  0  0
  1  2  1  0
  2  3  2  0
  3  4  1  0
  3  5  1  0
  5  6  1  0
  6  7  2  0
  6  8  2  0
  6  9  1  0
  9 10  2  0
 10 11  1  0
 11 12  1  0
 12 13  1  0
 13 14  1  0
 14 15  1  0
 14 16  1  0
 14 17  1  0
 13 18  2  0
 18 19  1  0
  5 20  2  0
 20 21  1  0
 20 22  1  0
 22 23  1  0
 22 24  2  0
 24 25  1  0
 25 26  1  0
 25 27  1  0
 27 28  2  0
 28 29  1  0
 29 30  2  0
 28 31  1  0
 31 32  2  0
 31 33  1  0
 33 34  1  0
 34 35  2  0
 34 36  1  0
 36 37  1  0
 24  2  1  0
 36 27  1  0
 18 10  1  0
M  CHG  2  11  -1  33  -1
M  END
>  <UniqueID>  (9) 
8

>  <SMILES>  (9) 
Cc1c/c(=N\S(=O)(=O)c2ccc(Nc3[nH]c(=O)[n-]c(=O)c3N=O)cc2)[n-]o1

>  <Energy>  (9) 
82.53815273330507

>  <Genealogy>  (9) 
Cc1cc(=NS(=O)(=O)c2ccc(Nc3[nH]c(=O)[n-]c(=O)c3N=O)cc2)[n-]o1 (protonated)
Cc1c/c(=N\S(=O)(=O)c2ccc(Nc3[nH]c(=O)[n-]c(=O)c3N=O)cc2)[n-]o1 (cis-trans isomerization)
Cc1c/c(=N\S(=O)(=O)c2ccc(Nc3[nH]c(=O)[n-]c(=O)c3N=O)cc2)[n-]o1 (3D coordinates assigned)
Cc1c/c(=N\S(=O)(=O)c2ccc(Nc3[nH]c(=O)[n-]c(=O)c3N=O)cc2)[n-]o1 (optimized conformer: 82.53815273330507 kcal/mol)

>  <smiles>  (9) 
Cc1cc(=NS(=O)(=O)c2ccc(Nc3[nH]c(=O)[nH]c(=O)c3N=O)cc2)[nH]o1

>  <score_type>  (9) 
oracle

>  <origin>  (9) 
adgpu

>  <m_score__min__energy>  (9) 
-10.68

>  <m_primary>  (9) 
energy

$$$$
9:0
     RDKit          3D

 44 46  0  0  0  0  0  0  0  0999 V2000
   -3.9210   16.6260  -35.0750 C   0  0  0  0  0  0  0  0  0  0  0  0
   -5.0350   17.2630  -34.2990 C   0  0  0  0  0  0  0  0  0  0  0  0
   -5.3880   18.6010  -34.5330 C   0  0  0  0  0  0  0  0  0  0  0  0
   -6.4610   19.1800  -33.8450 C   0  0  0  0  0  0  0  0  0  0  0  0
   -7.2120   18.4210  -32.9320 C   0  0  0  0  0  0  0  0  0  0  0  0
   -8.3750   19.0270  -32.2380 C   0  0  0  0  0  0  0  0  0  0  0  0
   -9.0740   18.3180  -31.4660 O   0  0  0  0  0  0  0  0  0  0  0  0
   -8.7470   20.3970  -32.4480 N   0  0  0  0  0  0  0  0  0  0  0  0
   -8.0590   21.5180  -31.8790 C   0  0  0  0  0  0  0  0  0  0  0  0
   -7.0810   22.1770  -32.6300 C   0  0  0  0  0  0  0  0  0  0  0  0
   -6.3030   23.1830  -32.0450 C   0  0  0  0  0  0  0  0  0  0  0  0
   -6.5240   23.5570  -30.7130 C   0  0  0  0  0  0  0  0  0  0  0  0
   -5.4200   24.6740  -29.9180 S   0  0  0  0  0  0  0  0  0  0  0  0
   -4.7280   25.5140  -30.9530 O   0  0  0  0  0  0  0  0  0  0  0  0
   -6.1670   25.5820  -28.9810 O   0  0  0  0  0  0  0  0  0  0  0  0
   -4.2400   23.7620  -29.0340 N   0  0  0  0  0  0  0  0  0  0  0  0
   -3.0210   24.1760  -28.8710 C   0  0  0  0  0  0  0  0  0  0  0  0
   -2.5390   25.2960  -29.3580 O   0  0  0  0  0  0  0  0  0  0  0  0
   -1.3010   25.4630  -28.9890 N   0  0  0  0  0  0  0  0  0  0  0  0
   -0.9640   24.3950  -28.2360 C   0  0  0  0  0  0  0  0  0  0  0  0
    0.3500   24.2520  -27.5400 C   0  0  0  0  0  0  0  0  0  0  0  0
   -2.0440   23.5330  -28.1450 C   0  0  0  0  0  0  0  0  0  0  0  0
   -2.1780   22.3020  -27.3060 C   0  0  0  0  0  0  0  0  0  0  0  0
   -7.5560   22.9510  -29.9850 C   0  0  0  0  0  0  0  0  0  0  0  0
   -8.3210   21.9370  -30.5640 C   0  0  0  0  0  0  0  0  0  0  0  0
   -6.8480   17.0840  -32.6930 C   0  0  0  0  0  0  0  0  0  0  0  0
   -5.7770   16.5070  -33.3800 C   0  0  0  0  0  0  0  0  0  0  0  0
   -3.1828   16.2039  -34.3773 H   0  0  0  0  0  0  0  0  0  0  0  0
   -4.3274   15.8238  -35.7085 H   0  0  0  0  0  0  0  0  0  0  0  0
   -3.4357   17.3831  -35.7085 H   0  0  0  0  0  0  0  0  0  0  0  0
   -4.8187   19.1979  -35.2607 H   0  0  0  0  0  0  0  0  0  0  0  0
   -6.7175   20.2352  -34.0203 H   0  0  0  0  0  0  0  0  0  0  0  0
   -6.9224   21.9041  -33.6838 H   0  0  0  0  0  0  0  0  0  0  0  0
   -5.5170   23.6806  -32.6320 H   0  0  0  0  0  0  0  0  0  0  0  0
    0.1922   24.2692  -26.4515 H   0  0  0  0  0  0  0  0  0  0  0  0
    0.8155   23.2979  -27.8280 H   0  0  0  0  0  0  0  0  0  0  0  0
    1.0099   25.0836  -27.8280 H   0  0  0  0  0  0  0  0  0  0  0  0
   -2.1479   22.5786  -26.2418 H   0  0  0  0  0  0  0  0  0  0  0  0
   -3.1352   21.8083  -27.5296 H   0  0  0  0  0  0  0  0  0  0  0  0
   -1.3495   21.6139  -27.5296 H   0  0  0  0  0  0  0  0  0  0  0  0
   -7.7641   23.2749  -28.9546 H   0  0  0  0  0  0  0  0  0  0  0  0
   -9.1312   21.4648  -29.9890 H   0  0  0  0  0  0  0  0  0  0  0  0
   -7.4107   16.4878  -31.9596 H   0  0  0  0  0  0  0  0  0  0  0  0
   -5.5144   15.4542  -33.1991 H   0  0  0  0  0  0  0  0  0  0  0  0
  1  2  1  0
  2  3  2  0
  3  4  1  0
  4  5  2  0
  5  6  1  0
  6  7  2  0
  6  8  1  0
  8  9  1  0
  9 10  2  0
 10 11  1  0
 11 12  2  0
 12 13  1  0
 13 14  2  0
 13 15  2  0
 13 16  1  0
 16 17  2  3
 17 18  1  0
 18 19  1  0
 19 20  1  0
 20 21  1  0
 20 22  2  0
 22 23  1  0
 12 24  1  0
 24 25  2  0
  5 26  1  0
 26 27  2  0
 27  2  1  0
 25  9  1  0
 22 17  1  0
  1 28  1  0
  1 29  1  0
  1 30  1  0
  3 31  1  0
  4 32  1  0
 10 33  1  0
 11 34  1  0
 21 35  1  0
 21 36  1  0
 21 37  1  0
 23 38  1  0
 23 39  1  0
 23 40  1  0
 24 41  1  0
 25 42  1  0
 26 43  1  0
 27 44  1  0
M  CHG  2   8  -1  19  -1
M  END
>  <UniqueID>  (10) 
9

>  <SMILES>  (10) 
Cc1ccc(C(=O)[N-]c2ccc(S(=O)(=O)N=c3o[n-]c(C)c3C)cc2)cc1

>  <Energy>  (10) 
83.2999377419643

>  <Genealogy>  (10) 
Cc1ccc(C(=O)[N-]c2ccc(S(=O)(=O)N=c3o[n-]c(C)c3C)cc2)cc1 (protonated)
Cc1ccc(C(=O)[N-]c2ccc(S(=O)(=O)N=c3o[n-]c(C)c3C)cc2)cc1 (3D coordinates assigned)
Cc1ccc(C(=O)[N-]c2ccc(S(=O)(=O)N=c3o[n-]c(C)c3C)cc2)cc1 (optimized conformer: 83.2999377419643 kcal/mol)

>  <smiles>  (10) 
Cc1ccc(C(=O)Nc2ccc(S(=O)(=O)N=c3o[nH]c(C)c3C)cc2)cc1

>  <score_type>  (10) 
oracle

>  <origin>  (10) 
adgpu

>  <m_score__min__energy>  (10) 
-13

>  <m_primary>  (10) 
energy

$$$$
10:0
     RDKit          3D

 60 63  0  0  0  0  0  0  0  0999 V2000
   -9.6160   18.9580  -32.9860 N   0  0  0  0  0  0  0  0  0  0  0  0
   -8.3260   19.3560  -32.5150 C   0  0  0  0  0  0  0  0  0  0  0  0
   -7.4010   18.3910  -32.1010 C   0  0  0  0  0  0  0  0  0  0  0  0
   -6.1370   18.7780  -31.6550 C   0  0  0  0  0  0  0  0  0  0  0  0
   -5.7810   20.1300  -31.6180 C   0  0  0  0  0  0  0  0  0  0  0  0
   -4.4900   20.4690  -31.2010 O   0  0  0  0  0  0  0  0  0  0  0  0
   -3.4000   20.6210  -32.0710 C   0  0  0  0  0  0  0  0  0  0  0  0
   -2.2970   21.3640  -31.6370 C   0  0  0  0  0  0  0  0  0  0  0  0
   -1.1930   21.5460  -32.4730 C   0  0  0  0  0  0  0  0  0  0  0  0
   -1.1750   20.9780  -33.7540 C   0  0  0  0  0  0  0  0  0  0  0  0
    0.2260   21.2040  -34.8060 S   0  0  0  0  0  0  0  0  0  0  0  0
    0.3800   22.6680  -35.1090 O   0  0  0  0  0  0  0  0  0  0  0  0
   -0.0080   20.4820  -36.1040 O   0  0  0  0  0  0  0  0  0  0  0  0
    1.6950   20.6110  -34.0700 N   0  0  0  0  0  0  0  0  0  0  0  0
    1.4000   19.5030  -33.1510 C   0  0  0  0  0  0  0  0  0  0  0  0
    2.7030   19.0260  -32.4750 C   0  0  0  0  0  0  0  0  0  0  0  0
    3.8610   19.5880  -33.0700 O   0  0  0  0  0  0  0  0  0  0  0  0
    3.8220   19.3980  -34.4720 C   0  0  0  0  0  0  0  0  0  0  0  0
    2.6520   20.1780  -35.1030 C   0  0  0  0  0  0  0  0  0  0  0  0
   -2.2740   20.2270  -34.1910 C   0  0  0  0  0  0  0  0  0  0  0  0
   -3.3790   20.0450  -33.3560 C   0  0  0  0  0  0  0  0  0  0  0  0
   -6.7220   21.1170  -31.9920 C   0  0  0  0  0  0  0  0  0  0  0  0
   -6.3440   22.8480  -31.8660 S   0  0  0  0  0  0  0  0  0  0  0  0
   -7.3690   23.6170  -32.6510 O   0  0  0  0  0  0  0  0  0  0  0  0
   -4.9830   23.1020  -32.4510 O   0  0  0  0  0  0  0  0  0  0  0  0
   -6.3580   23.3830  -30.1940 N   0  0  0  0  0  0  0  0  0  0  0  0
   -6.4750   24.8570  -30.1050 C   0  0  0  0  0  0  0  0  0  0  0  0
   -5.1680   25.6020  -30.4450 C   0  0  0  0  0  0  0  0  0  0  0  0
   -3.9100   24.8970  -29.9110 C   0  0  0  0  0  0  0  0  0  0  0  0
   -4.2510   23.8550  -28.8510 C   0  0  0  0  0  0  0  0  0  0  0  0
   -5.2160   22.8060  -29.4260 C   0  0  0  0  0  0  0  0  0  0  0  0
   -7.9830   20.7140  -32.4610 C   0  0  0  0  0  0  0  0  0  0  0  0
   -9.9510   19.2420  -33.9340 H   0  0  0  0  0  0  0  0  0  0  0  0
  -10.2450   18.3710  -32.3920 H   0  0  0  0  0  0  0  0  0  0  0  0
   -7.6711   17.3250  -32.1273 H   0  0  0  0  0  0  0  0  0  0  0  0
   -5.4151   18.0142  -31.3301 H   0  0  0  0  0  0  0  0  0  0  0  0
   -2.2992   21.8079  -30.6305 H   0  0  0  0  0  0  0  0  0  0  0  0
   -0.3338   22.1378  -32.1243 H   0  0  0  0  0  0  0  0  0  0  0  0
    0.6928   19.8451  -32.3811 H   0  0  0  0  0  0  0  0  0  0  0  0
    0.9568   18.6697  -33.7159 H   0  0  0  0  0  0  0  0  0  0  0  0
    2.6761   19.3149  -31.4140 H   0  0  0  0  0  0  0  0  0  0  0  0
    2.7617   17.9342  -32.5957 H   0  0  0  0  0  0  0  0  0  0  0  0
    4.7674   19.7516  -34.9093 H   0  0  0  0  0  0  0  0  0  0  0  0
    3.6796   18.3266  -34.6765 H   0  0  0  0  0  0  0  0  0  0  0  0
    3.0472   21.0634  -35.6224 H   0  0  0  0  0  0  0  0  0  0  0  0
    2.1307   19.5189  -35.8128 H   0  0  0  0  0  0  0  0  0  0  0  0
   -2.2667   19.7789  -35.1956 H   0  0  0  0  0  0  0  0  0  0  0  0
   -4.2361   19.4495  -33.7035 H   0  0  0  0  0  0  0  0  0  0  0  0
   -7.2420   23.0080  -29.7800 H   0  0  0  0  0  0  0  0  0  0  0  0
   -7.2557   25.1868  -30.8062 H   0  0  0  0  0  0  0  0  0  0  0  0
   -6.7215   25.0985  -29.0605 H   0  0  0  0  0  0  0  0  0  0  0  0
   -5.0859   25.6816  -31.5390 H   0  0  0  0  0  0  0  0  0  0  0  0
   -5.2194   26.5882  -29.9606 H   0  0  0  0  0  0  0  0  0  0  0  0
   -3.3986   24.3991  -30.7480 H   0  0  0  0  0  0  0  0  0  0  0  0
   -3.2632   25.6567  -29.4478 H   0  0  0  0  0  0  0  0  0  0  0  0
   -3.3274   23.3566  -28.5216 H   0  0  0  0  0  0  0  0  0  0  0  0
   -4.7332   24.3559  -27.9986 H   0  0  0  0  0  0  0  0  0  0  0  0
   -4.6476   22.1451  -30.0970 H   0  0  0  0  0  0  0  0  0  0  0  0
   -5.6495   22.2707  -28.5683 H   0  0  0  0  0  0  0  0  0  0  0  0
   -8.7092   21.4721  -32.7894 H   0  0  0  0  0  0  0  0  0  0  0  0
  1  2  1  0
  2  3  2  0
  3  4  1  0
  4  5  2  0
  5  6  1  0
  6  7  1  0
  7  8  2  0
  8  9  1  0
  9 10  2  0
 10 11  1  0
 11 12  2  0
 11 13  2  0
 11 14  1  0
 14 15  1  0
 15 16  1  0
 16 17  1  0
 17 18  1  0
 18 19  1  0
 10 20  1  0
 20 21  2  0
  5 22  1  0
 22 23  1  0
 23 24  2  0
 23 25  2  0
 23 26  1  0
 26 27  1  0
 27 28  1  0
 28 29  1  0
 29 30  1  0
 30 31  1  0
 22 32  2  0
 32  2  1  0
 21  7  1  0
 31 26  1  0
 19 14  1  0
  1 33  1  0
  1 34  1  0
  3 35  1  0
  4 36  1  0
  8 37  1  0
  9 38  1  0
 15 39  1  0
 15 40  1  0
 16 41  1  0
 16 42  1  0
 18 43  1  0
 18 44  1  0
 19 45  1  0
 19 46  1  0
 20 47  1  0
 21 48  1  0
 26 49  1  0
 27 50  1  0
 27 51  1  0
 28 52  1  0
 28 53  1  0
 29 54  1  0
 29 55  1  0
 30 56  1  0
 30 57  1  0
 31 58  1  0
 31 59  1  0
 32 60  1  0
M  CHG  1  26   1
M  END
>  <UniqueID>  (11) 
10

>  <SMILES>  (11) 
Nc1ccc(Oc2ccc(S(=O)(=O)N3CCOCC3)cc2)c(S(=O)(=O)[NH+]2CCCCC2)c1

>  <Energy>  (11) 
84.70039983481547

>  <Genealogy>  (11) 
Nc1ccc(Oc2ccc(S(=O)(=O)N3CCOCC3)cc2)c(S(=O)(=O)[NH+]2CCCCC2)c1 (protonated)
Nc1ccc(Oc2ccc(S(=O)(=O)N3CCOCC3)cc2)c(S(=O)(=O)[NH+]2CCCCC2)c1 (3D coordinates assigned)
Nc1ccc(Oc2ccc(S(=O)(=O)N3CCOCC3)cc2)c(S(=O)(=O)[NH+]2CCCCC2)c1 (nonaromatic ring conformer: 84.70039983481547 kcal/mol)

>  <smiles>  (11) 
Nc1ccc(Oc2ccc(S(=O)(=O)N3CCOCC3)cc2)c(S(=O)(=O)N2CCCCC2)c1

>  <score_type>  (11) 
oracle

>  <origin>  (11) 
adgpu

>  <m_score__min__energy>  (11) 
-9.4399999999999995

>  <m_primary>  (11) 
energy

$$$$
11:0
     RDKit          3D

 63 66  0  0  1  0  0  0  0  0999 V2000
   -2.6750   19.2030  -34.1560 C   0  0  0  0  0  0  0  0  0  0  0  0
   -3.7440   18.3730  -34.5440 O   0  0  0  0  0  0  0  0  0  0  0  0
   -4.5750   17.8680  -33.5500 C   0  0  0  0  0  0  0  0  0  0  0  0
   -5.6440   18.6070  -33.1100 C   0  0  0  0  0  0  0  0  0  0  0  0
   -6.4980   18.1280  -32.1130 C   0  0  0  0  0  0  0  0  0  0  0  0
   -7.4980   18.8190  -31.7010 N   0  0  0  0  0  0  0  0  0  0  0  0
   -7.8240   20.3820  -32.3770 S   0  0  0  0  0  0  0  0  0  0  0  0
   -9.2470   20.8220  -32.0590 O   0  0  0  0  0  0  0  0  0  0  0  0
   -7.5750   20.4160  -33.8520 O   0  0  0  0  0  0  0  0  0  0  0  0
   -6.7940   21.5210  -31.5360 C   0  0  0  0  0  0  0  0  0  0  0  0
   -7.3740   22.2090  -30.4740 C   0  0  0  0  0  0  0  0  0  0  0  0
   -6.6420   23.1270  -29.7510 C   0  0  0  0  0  0  0  0  0  0  0  0
   -5.3110   23.3360  -30.1250 C   0  0  0  0  0  0  0  0  0  0  0  0
   -4.5980   24.2930  -29.3470 N   0  0  0  0  0  0  0  0  0  0  0  0
   -3.6010   23.7920  -28.4660 C   0  0  0  0  0  0  0  0  0  0  0  0
   -3.4530   22.5250  -28.4700 O   0  0  0  0  0  0  0  0  0  0  0  0
   -2.7980   24.6620  -27.6130 C   0  0  0  0  0  0  0  0  0  0  0  0
   -3.1330   24.9720  -26.3150 C   0  0  0  0  0  0  0  0  0  0  0  0
   -2.3350   25.8050  -25.5440 C   0  0  0  0  0  0  0  0  0  0  0  0
   -1.1840   26.3250  -26.1070 C   0  0  0  0  0  0  0  0  0  0  0  0
   -0.1440   27.3860  -25.1630 S   0  0  0  0  0  0  0  0  0  0  0  0
    0.0160   28.7020  -25.9100 O   0  0  0  0  0  0  0  0  0  0  0  0
   -0.7810   27.7270  -23.8440 O   0  0  0  0  0  0  0  0  0  0  0  0
    1.4060   26.6880  -24.9080 N   0  0  0  0  0  0  0  0  0  0  0  0
    1.3210   25.2500  -24.9650 C   0  0  0  0  0  0  0  0  0  0  0  0
    2.4090   24.5980  -24.1450 C   0  0  0  0  0  0  0  0  0  0  0  0
    3.5530   25.3950  -24.1070 O   0  0  0  0  0  0  0  0  0  0  0  0
    3.3330   26.5930  -23.4330 C   0  0  0  0  0  0  0  0  0  0  0  0
    1.9100   27.0620  -23.6170 C   0  0  0  0  0  0  0  0  0  0  0  0
   -0.8090   26.0350  -27.4190 C   0  0  0  0  0  0  0  0  0  0  0  0
   -1.6440   25.1940  -28.1500 C   0  0  0  0  0  0  0  0  0  0  0  0
   -4.7360   22.6530  -31.1790 C   0  0  0  0  0  0  0  0  0  0  0  0
   -5.4750   21.7280  -31.9070 C   0  0  0  0  0  0  0  0  0  0  0  0
   -6.2210   16.9010  -31.6000 N   0  0  0  0  0  0  0  0  0  0  0  0
   -5.1740   16.1690  -32.0240 C   0  0  0  0  0  0  0  0  0  0  0  0
   -4.9590   14.9240  -31.4500 O   0  0  0  0  0  0  0  0  0  0  0  0
   -4.2380   13.9140  -32.1320 C   0  0  0  0  0  0  0  0  0  0  0  0
   -4.3720   16.6600  -32.9870 N   0  0  0  0  0  0  0  0  0  0  0  0
   -2.6224   19.2439  -33.0580 H   0  0  0  0  0  0  0  0  0  0  0  0
   -1.7329   18.7974  -34.5534 H   0  0  0  0  0  0  0  0  0  0  0  0
   -2.8345   20.2162  -34.5534 H   0  0  0  0  0  0  0  0  0  0  0  0
   -5.8327   19.5969  -33.5511 H   0  0  0  0  0  0  0  0  0  0  0  0
   -8.4246   22.0188  -30.2094 H   0  0  0  0  0  0  0  0  0  0  0  0
   -7.0896   23.6758  -28.9093 H   0  0  0  0  0  0  0  0  0  0  0  0
   -4.7860   25.3090  -29.4100 H   0  0  0  0  0  0  0  0  0  0  0  0
   -4.0515   24.5512  -25.8800 H   0  0  0  0  0  0  0  0  0  0  0  0
   -2.6120   26.0466  -24.5072 H   0  0  0  0  0  0  0  0  0  0  0  0
    0.3420   24.9341  -24.5754 H   0  0  0  0  0  0  0  0  0  0  0  0
    1.4448   24.9383  -26.0126 H   0  0  0  0  0  0  0  0  0  0  0  0
    2.0431   24.4450  -23.1190 H   0  0  0  0  0  0  0  0  0  0  0  0
    2.6683   23.6353  -24.6097 H   0  0  0  0  0  0  0  0  0  0  0  0
    3.5270   26.4436  -22.3606 H   0  0  0  0  0  0  0  0  0  0  0  0
    4.0102   27.3564  -23.8437 H   0  0  0  0  0  0  0  0  0  0  0  0
    1.2785   26.6077  -22.8393 H   0  0  0  0  0  0  0  0  0  0  0  0
    1.8905   28.1590  -23.5385 H   0  0  0  0  0  0  0  0  0  0  0  0
    0.1087   26.4535  -27.8580 H   0  0  0  0  0  0  0  0  0  0  0  0
   -1.3752   24.9462  -29.1875 H   0  0  0  0  0  0  0  0  0  0  0  0
   -3.6854   22.8426  -31.4442 H   0  0  0  0  0  0  0  0  0  0  0  0
   -5.0281   21.1790  -32.7489 H   0  0  0  0  0  0  0  0  0  0  0  0
   -6.8610   16.5380  -30.8490 H   0  0  0  0  0  0  0  0  0  0  0  0
   -3.7611   13.2459  -31.3997 H   0  0  0  0  0  0  0  0  0  0  0  0
   -4.9274   13.3339  -32.7630 H   0  0  0  0  0  0  0  0  0  0  0  0
   -3.4654   14.3776  -32.7630 H   0  0  0  0  0  0  0  0  0  0  0  0
  1  2  1  0
  2  3  1  0
  3  4  2  0
  4  5  1  0
  5  6  2  0
  6  7  1  0
  7  8  2  0
  7  9  2  0
  7 10  1  0
 10 11  2  0
 11 12  1  0
 12 13  2  0
 13 14  1  0
 14 15  1  0
 15 16  2  0
 15 17  1  0
 17 18  2  0
 18 19  1  0
 19 20  2  0
 20 21  1  0
 21 22  2  0
 21 23  2  0
 21 24  1  0
 24 25  1  0
 25 26  1  0
 26 27  1  0
 27 28  1  0
 28 29  1  0
 20 30  1  0
 30 31  2  0
 13 32  1  0
 32 33  2  0
  5 34  1  0
 34 35  1  0
 35 36  1  0
 36 37  1  0
 35 38  2  0
 38  3  1  0
 33 10  1  0
 31 17  1  0
 29 24  1  0
  1 39  1  0
  1 40  1  0
  1 41  1  0
  4 42  1  0
 11 43  1  0
 12 44  1  0
 14 45  1  0
 18 46  1  0
 19 47  1  0
 25 48  1  0
 25 49  1  0
 26 50  1  0
 26 51  1  0
 28 52  1  0
 28 53  1  0
 29 54  1  0
 29 55  1  0
 30 56  1  0
 31 57  1  0
 32 58  1  0
 33 59  1  0
 34 60  1  0
 37 61  1  0
 37 62  1  0
 37 63  1  0
M  END
>  <smiles>  (12) 
COc1cc(=NS(=O)(=O)c2ccc(NC(=O)c3ccc(S(=O)(=O)N4CCOCC4)cc3)cc2)[nH]c(OC)n1

>  <score_type>  (12) 
oracle

>  <origin>  (12) 
adgpu

>  <m_score__min__energy>  (12) 
-8.6199999999999992

>  <m_primary>  (12) 
energy

$$$$
12:0
     RDKit          3D

 56 58  0  0  0  0  0  0  0  0999 V2000
   -9.0770   20.0780  -32.7500 C   0  0  0  0  0  0  0  0  0  0  0  0
   -8.0030   19.7710  -31.6990 C   0  0  1  0  0  0  0  0  0  0  0  0
   -7.0370   18.7950  -32.2160 N   0  0  0  0  0  0  0  0  0  0  0  0
   -6.3750   18.9710  -33.4770 C   0  0  0  0  0  0  0  0  0  0  0  0
   -6.6360   19.9730  -34.2020 O   0  0  0  0  0  0  0  0  0  0  0  0
   -5.3230   18.0000  -33.9170 C   0  0  0  0  0  0  0  0  0  0  0  0
   -3.9890   18.6900  -33.9890 C   0  0  0  0  0  0  0  0  0  0  0  0
   -3.8390   19.9940  -33.4970 C   0  0  0  0  0  0  0  0  0  0  0  0
   -2.5880   20.6150  -33.5120 C   0  0  0  0  0  0  0  0  0  0  0  0
   -1.4640   19.9380  -34.0120 C   0  0  0  0  0  0  0  0  0  0  0  0
   -0.1660   20.5580  -33.9850 N   0  0  0  0  0  0  0  0  0  0  0  0
    0.1590   21.6230  -34.9380 C   0  0  0  0  0  0  0  0  0  0  0  0
    1.6810   21.7330  -35.1340 C   0  0  0  0  0  0  0  0  0  0  0  0
    2.3330   20.4050  -35.1230 N   0  0  0  0  0  0  0  0  0  0  0  0
    1.9540   19.5990  -36.2950 C   0  0  0  0  0  0  0  0  0  0  0  0
    2.1310   19.6630  -33.8520 C   0  0  0  0  0  0  0  0  0  0  0  0
    0.8770   20.0950  -33.0660 C   0  0  0  0  0  0  0  0  0  0  0  0
   -1.6130   18.6260  -34.4890 C   0  0  0  0  0  0  0  0  0  0  0  0
   -2.8650   18.0080  -34.4800 C   0  0  0  0  0  0  0  0  0  0  0  0
   -7.3040   21.0480  -31.2810 C   0  0  0  0  0  0  0  0  0  0  0  0
   -8.0400   22.1770  -30.8800 C   0  0  0  0  0  0  0  0  0  0  0  0
   -7.3840   23.3520  -30.4970 C   0  0  0  0  0  0  0  0  0  0  0  0
   -5.9840   23.4080  -30.4920 C   0  0  0  0  0  0  0  0  0  0  0  0
   -5.1510   24.8910  -30.0340 S   0  0  0  0  0  0  0  0  0  0  0  0
   -3.6140   24.9560  -30.8240 N   0  0  0  0  0  0  0  0  0  0  0  0
   -4.9520   24.9230  -28.5440 O   0  0  0  0  0  0  0  0  0  0  0  0
   -5.9670   26.0860  -30.4360 O   0  0  0  0  0  0  0  0  0  0  0  0
   -5.2460   22.2800  -30.8800 C   0  0  0  0  0  0  0  0  0  0  0  0
   -5.9000   21.1070  -31.2670 C   0  0  0  0  0  0  0  0  0  0  0  0
  -10.0171   20.3467  -32.2459 H   0  0  0  0  0  0  0  0  0  0  0  0
   -8.7453   20.9173  -33.3789 H   0  0  0  0  0  0  0  0  0  0  0  0
   -9.2390   19.1902  -33.3789 H   0  0  0  0  0  0  0  0  0  0  0  0
   -8.4898   19.3323  -30.8155 H   0  0  0  0  0  0  0  0  0  0  0  0
   -6.7870   17.9610  -31.6390 H   0  0  0  0  0  0  0  0  0  0  0  0
   -5.2667   17.1713  -33.1958 H   0  0  0  0  0  0  0  0  0  0  0  0
   -5.5834   17.6095  -34.9118 H   0  0  0  0  0  0  0  0  0  0  0  0
   -4.7115   20.5313  -33.0968 H   0  0  0  0  0  0  0  0  0  0  0  0
   -2.4826   21.6410  -33.1297 H   0  0  0  0  0  0  0  0  0  0  0  0
   -0.3141   21.3984  -35.9053 H   0  0  0  0  0  0  0  0  0  0  0  0
   -0.2160   22.5781  -34.5417 H   0  0  0  0  0  0  0  0  0  0  0  0
    1.8815   22.2203  -36.0996 H   0  0  0  0  0  0  0  0  0  0  0  0
    2.0916   22.3228  -34.3012 H   0  0  0  0  0  0  0  0  0  0  0  0
    1.5082   18.6510  -35.9594 H   0  0  0  0  0  0  0  0  0  0  0  0
    1.2225   20.1540  -36.9007 H   0  0  0  0  0  0  0  0  0  0  0  0
    2.8480   19.3897  -36.9007 H   0  0  0  0  0  0  0  0  0  0  0  0
    2.0399   18.5923  -34.0873 H   0  0  0  0  0  0  0  0  0  0  0  0
    2.9988   19.8840  -33.2132 H   0  0  0  0  0  0  0  0  0  0  0  0
    0.4979   19.2387  -32.4889 H   0  0  0  0  0  0  0  0  0  0  0  0
    1.1464   20.9178  -32.3875 H   0  0  0  0  0  0  0  0  0  0  0  0
   -0.7376   18.0813  -34.8724 H   0  0  0  0  0  0  0  0  0  0  0  0
   -2.9709   16.9811  -34.8598 H   0  0  0  0  0  0  0  0  0  0  0  0
   -9.1392   22.1362  -30.8673 H   0  0  0  0  0  0  0  0  0  0  0  0
   -7.9691   24.2345  -30.1989 H   0  0  0  0  0  0  0  0  0  0  0  0
   -3.5190   25.9170  -31.2250 H   0  0  0  0  0  0  0  0  0  0  0  0
   -4.1467   22.3188  -30.8797 H   0  0  0  0  0  0  0  0  0  0  0  0
   -5.3125   20.2251  -31.5623 H   0  0  0  0  0  0  0  0  0  0  0  0
  1  2  1  0
  2  3  1  0
  3  4  1  0
  4  5  2  0
  4  6  1  0
  6  7  1  0
  7  8  2  0
  8  9  1  0
  9 10  2  0
 10 11  1  0
 11 12  1  0
 12 13  1  0
 13 14  1  0
 14 15  1  0
 14 16  1  0
 16 17  1  0
 10 18  1  0
 18 19  2  0
  2 20  1  0
 20 21  2  0
 21 22  1  0
 22 23  2  0
 23 24  1  0
 24 25  1  0
 24 26  2  0
 24 27  2  0
 23 28  1  0
 28 29  2  0
 19  7  1  0
 29 20  1  0
 17 11  1  0
  1 30  1  0
  1 31  1  0
  1 32  1  0
  2 33  1  1
  3 34  1  0
  6 35  1  0
  6 36  1  0
  8 37  1  0
  9 38  1  0
 12 39  1  0
 12 40  1  0
 13 41  1  0
 13 42  1  0
 15 43  1  0
 15 44  1  0
 15 45  1  0
 16 46  1  0
 16 47  1  0
 17 48  1  0
 17 49  1  0
 18 50  1  0
 19 51  1  0
 21 52  1  0
 22 53  1  0
 25 54  1  0
 28 55  1  0
 29 56  1  0
M  CHG  1  25  -1
M  END
>  <UniqueID>  (13) 
11

>  <SMILES>  (13) 
C[C@@H](NC(=O)Cc1ccc(N2CCN(C)CC2)cc1)c1ccc(S([NH-])(=O)=O)cc1

>  <Energy>  (13) 
62.10968013965306

>  <Genealogy>  (13) 
CC(NC(=O)Cc1ccc(N2CCN(C)CC2)cc1)c1ccc(S([NH-])(=O)=O)cc1 (protonated)
C[C@@H](NC(=O)Cc1ccc(N2CCN(C)CC2)cc1)c1ccc(S([NH-])(=O)=O)cc1 (chirality)
C[C@@H](NC(=O)Cc1ccc(N2CCN(C)CC2)cc1)c1ccc(S([NH-])(=O)=O)cc1 (3D coordinates assigned)
C[C@@H](NC(=O)Cc1ccc(N2CCN(C)CC2)cc1)c1ccc(S([NH-])(=O)=O)cc1 (nonaromatic ring conformer: 62.10968013965306 kcal/mol)

>  <smiles>  (13) 
CC(NC(=O)Cc1ccc(N2CCN(C)CC2)cc1)c1ccc(S(N)(=O)=O)cc1

>  <score_type>  (13) 
oracle

>  <origin>  (13) 
adgpu

>  <m_score__min__energy>  (13) 
-11.58

>  <m_primary>  (13) 
energy

$$$$
13:0
     RDKit          3D

 43 45  0  0  0  0  0  0  0  0999 V2000
   -5.7430   26.1740  -31.1640 O   0  0  0  0  0  0  0  0  0  0  0  0
   -5.2840   25.0360  -30.2970 S   0  0  0  0  0  0  0  0  0  0  0  0
   -5.6960   25.3210  -28.8780 O   0  0  0  0  0  0  0  0  0  0  0  0
   -3.5550   24.9090  -30.3900 N   0  0  0  0  0  0  0  0  0  0  0  0
   -3.0940   23.7960  -29.5640 C   0  0  0  0  0  0  0  0  0  0  0  0
   -2.0170   24.2830  -28.6400 C   0  0  0  0  0  0  0  0  0  0  0  0
   -2.3440   24.9250  -27.4370 C   0  0  0  0  0  0  0  0  0  0  0  0
   -1.3300   25.4040  -26.6040 C   0  0  0  0  0  0  0  0  0  0  0  0
    0.0020   25.2450  -26.9880 C   0  0  0  0  0  0  0  0  0  0  0  0
    0.3040   24.6360  -28.1660 N   0  0  0  0  0  0  0  0  0  0  0  0
   -0.6650   24.1600  -28.9930 C   0  0  0  0  0  0  0  0  0  0  0  0
   -6.0330   23.5450  -30.8640 C   0  0  0  0  0  0  0  0  0  0  0  0
   -5.4490   22.8330  -31.9190 C   0  0  0  0  0  0  0  0  0  0  0  0
   -6.0220   21.6380  -32.3640 C   0  0  0  0  0  0  0  0  0  0  0  0
   -7.1800   21.1420  -31.7520 C   0  0  0  0  0  0  0  0  0  0  0  0
   -7.9120   19.6490  -32.3330 S   0  0  0  0  0  0  0  0  0  0  0  0
   -8.6590   18.9930  -31.2040 O   0  0  0  0  0  0  0  0  0  0  0  0
   -8.8890   19.9570  -33.4360 O   0  0  0  0  0  0  0  0  0  0  0  0
   -6.6600   18.5760  -32.9030 N   0  0  0  0  0  0  0  0  0  0  0  0
   -6.1370   19.0100  -34.1980 C   0  0  0  0  0  0  0  0  0  0  0  0
   -5.6170   17.7630  -34.8960 C   0  0  0  0  0  0  0  0  0  0  0  0
   -6.3000   16.5970  -34.1970 C   0  0  0  0  0  0  0  0  0  0  0  0
   -7.1750   17.2260  -33.1240 C   0  0  0  0  0  0  0  0  0  0  0  0
   -7.7670   21.8550  -30.6980 C   0  0  0  0  0  0  0  0  0  0  0  0
   -7.1940   23.0500  -30.2520 C   0  0  0  0  0  0  0  0  0  0  0  0
   -3.9349   23.4021  -28.9743 H   0  0  0  0  0  0  0  0  0  0  0  0
   -2.6968   22.9970  -30.2073 H   0  0  0  0  0  0  0  0  0  0  0  0
   -3.3982   25.0514  -27.1494 H   0  0  0  0  0  0  0  0  0  0  0  0
   -1.5791   25.9014  -25.6550 H   0  0  0  0  0  0  0  0  0  0  0  0
    0.8089   25.6127  -26.3371 H   0  0  0  0  0  0  0  0  0  0  0  0
   -0.3877   23.6771  -29.9416 H   0  0  0  0  0  0  0  0  0  0  0  0
   -4.5362   23.2153  -32.3992 H   0  0  0  0  0  0  0  0  0  0  0  0
   -5.5622   21.0859  -33.1969 H   0  0  0  0  0  0  0  0  0  0  0  0
   -6.9367   19.4733  -34.7944 H   0  0  0  0  0  0  0  0  0  0  0  0
   -5.3393   19.7571  -34.0737 H   0  0  0  0  0  0  0  0  0  0  0  0
   -5.8814   17.7805  -35.9636 H   0  0  0  0  0  0  0  0  0  0  0  0
   -4.5209   17.6891  -34.8406 H   0  0  0  0  0  0  0  0  0  0  0  0
   -6.9145   16.0275  -34.9098 H   0  0  0  0  0  0  0  0  0  0  0  0
   -5.5713   15.8925  -33.7696 H   0  0  0  0  0  0  0  0  0  0  0  0
   -8.2202   17.2695  -33.4641 H   0  0  0  0  0  0  0  0  0  0  0  0
   -7.1508   16.6356  -32.1962 H   0  0  0  0  0  0  0  0  0  0  0  0
   -8.6813   21.4734  -30.2201 H   0  0  0  0  0  0  0  0  0  0  0  0
   -7.6545   23.6028  -29.4199 H   0  0  0  0  0  0  0  0  0  0  0  0
  1  2  2  0
  2  3  2  0
  2  4  1  0
  4  5  1  0
  5  6  1  0
  6  7  2  0
  7  8  1  0
  8  9  2  0
  9 10  1  0
 10 11  2  0
  2 12  1  0
 12 13  2  0
 13 14  1  0
 14 15  2  0
 15 16  1  0
 16 17  2  0
 16 18  2  0
 16 19  1  0
 19 20  1  0
 20 21  1  0
 21 22  1  0
 22 23  1  0
 15 24  1  0
 24 25  2  0
 11  6  1  0
 25 12  1  0
 23 19  1  0
  5 26  1  0
  5 27  1  0
  7 28  1  0
  8 29  1  0
  9 30  1  0
 11 31  1  0
 13 32  1  0
 14 33  1  0
 20 34  1  0
 20 35  1  0
 21 36  1  0
 21 37  1  0
 22 38  1  0
 22 39  1  0
 23 40  1  0
 23 41  1  0
 24 42  1  0
 25 43  1  0
M  CHG  1   4  -1
M  END
>  <UniqueID>  (14) 
12

>  <SMILES>  (14) 
O=S(=O)([N-]Cc1cccnc1)c1ccc(S(=O)(=O)N2CCCC2)cc1

>  <Energy>  (14) 
43.1171089161251

>  <Genealogy>  (14) 
O=S(=O)([N-]Cc1cccnc1)c1ccc(S(=O)(=O)N2CCCC2)cc1 (protonated)
O=S(=O)([N-]Cc1cccnc1)c1ccc(S(=O)(=O)N2CCCC2)cc1 (3D coordinates assigned)
O=S(=O)([N-]Cc1cccnc1)c1ccc(S(=O)(=O)N2CCCC2)cc1 (nonaromatic ring conformer: 43.1171089161251 kcal/mol)

>  <smiles>  (14) 
O=S(=O)(NCc1cccnc1)c1ccc(S(=O)(=O)N2CCCC2)cc1

>  <score_type>  (14) 
oracle

>  <origin>  (14) 
adgpu

>  <m_score__min__energy>  (14) 
-11.130000000000001

>  <m_primary>  (14) 
energy

$$$$
14:0
     RDKit          3D

 40 42  0  0  0  0  0  0  0  0999 V2000
  -10.0190   21.8170  -31.6140 O   0  0  0  0  0  0  0  0  0  0  0  0
   -8.8420   21.5240  -31.2770 C   0  0  0  0  0  0  0  0  0  0  0  0
   -8.2290   22.2640  -30.2120 N   0  0  0  0  0  0  0  0  0  0  0  0
   -7.0070   23.0110  -30.2940 C   0  0  0  0  0  0  0  0  0  0  0  0
   -5.7500   22.3820  -30.2260 C   0  0  0  0  0  0  0  0  0  0  0  0
   -4.5780   23.1420  -30.2940 C   0  0  0  0  0  0  0  0  0  0  0  0
   -4.6510   24.5330  -30.4140 C   0  0  0  0  0  0  0  0  0  0  0  0
   -3.4860   25.2880  -30.4820 O   0  0  0  0  0  0  0  0  0  0  0  0
   -5.8980   25.1650  -30.4580 C   0  0  0  0  0  0  0  0  0  0  0  0
   -7.0710   24.4070  -30.3910 C   0  0  0  0  0  0  0  0  0  0  0  0
   -8.1150   20.4680  -32.0220 C   0  0  0  0  0  0  0  0  0  0  0  0
   -8.5190   19.1240  -31.9460 C   0  0  0  0  0  0  0  0  0  0  0  0
   -7.8250   18.1360  -32.6490 C   0  0  0  0  0  0  0  0  0  0  0  0
   -6.7070   18.4720  -33.4230 C   0  0  0  0  0  0  0  0  0  0  0  0
   -5.8180   17.2200  -34.2940 S   0  0  0  0  0  0  0  0  0  0  0  0
   -6.7400   16.0640  -34.5720 O   0  0  0  0  0  0  0  0  0  0  0  0
   -5.3570   17.7700  -35.6140 O   0  0  0  0  0  0  0  0  0  0  0  0
   -4.4310   16.6480  -33.3900 N   0  0  0  0  0  0  0  0  0  0  0  0
   -4.8380   15.7460  -32.3080 C   0  0  0  0  0  0  0  0  0  0  0  0
   -4.6550   14.3120  -32.7840 C   0  0  0  0  0  0  0  0  0  0  0  0
   -3.8020   14.3970  -34.0340 C   0  0  0  0  0  0  0  0  0  0  0  0
   -3.5210   15.8780  -34.2450 C   0  0  0  0  0  0  0  0  0  0  0  0
   -6.2950   19.8090  -33.4950 C   0  0  0  0  0  0  0  0  0  0  0  0
   -6.9890   20.7990  -32.7930 C   0  0  0  0  0  0  0  0  0  0  0  0
   -5.6891   21.2889  -30.1190 H   0  0  0  0  0  0  0  0  0  0  0  0
   -3.5976   22.6448  -30.2530 H   0  0  0  0  0  0  0  0  0  0  0  0
   -5.9560   26.2600  -30.5454 H   0  0  0  0  0  0  0  0  0  0  0  0
   -8.0492   24.9095  -30.4146 H   0  0  0  0  0  0  0  0  0  0  0  0
   -9.3870   18.8483  -31.3292 H   0  0  0  0  0  0  0  0  0  0  0  0
   -8.1582   17.0891  -32.5944 H   0  0  0  0  0  0  0  0  0  0  0  0
   -4.2138   15.9253  -31.4202 H   0  0  0  0  0  0  0  0  0  0  0  0
   -5.8904   15.9248  -32.0424 H   0  0  0  0  0  0  0  0  0  0  0  0
   -4.1463   13.7146  -32.0131 H   0  0  0  0  0  0  0  0  0  0  0  0
   -5.6211   13.8261  -32.9856 H   0  0  0  0  0  0  0  0  0  0  0  0
   -2.8610   13.8448  -33.8938 H   0  0  0  0  0  0  0  0  0  0  0  0
   -4.3115   13.9541  -34.9025 H   0  0  0  0  0  0  0  0  0  0  0  0
   -2.4785   16.1008  -33.9736 H   0  0  0  0  0  0  0  0  0  0  0  0
   -3.6766   16.1457  -35.3005 H   0  0  0  0  0  0  0  0  0  0  0  0
   -5.4219   20.0810  -34.1063 H   0  0  0  0  0  0  0  0  0  0  0  0
   -6.6507   21.8444  -32.8450 H   0  0  0  0  0  0  0  0  0  0  0  0
  1  2  2  0
  2  3  1  0
  3  4  1  0
  4  5  2  0
  5  6  1  0
  6  7  2  0
  7  8  1  0
  7  9  1  0
  9 10  2  0
  2 11  1  0
 11 12  2  0
 12 13  1  0
 13 14  2  0
 14 15  1  0
 15 16  2  0
 15 17  2  0
 15 18  1  0
 18 19  1  0
 19 20  1  0
 20 21  1  0
 21 22  1  0
 14 23  1  0
 23 24  2  0
 10  4  1  0
 24 11  1  0
 22 18  1  0
  5 25  1  0
  6 26  1  0
  9 27  1  0
 10 28  1  0
 12 29  1  0
 13 30  1  0
 19 31  1  0
 19 32  1  0
 20 33  1  0
 20 34  1  0
 21 35  1  0
 21 36  1  0
 22 37  1  0
 22 38  1  0
 23 39  1  0
 24 40  1  0
M  CHG  2   3  -1   8  -1
M  END
>  <UniqueID>  (15) 
13

>  <SMILES>  (15) 
O=C([N-]c1ccc([O-])cc1)c1ccc(S(=O)(=O)N2CCCC2)cc1

>  <Energy>  (15) 
48.359622409995715

>  <Genealogy>  (15) 
O=C([N-]c1ccc([O-])cc1)c1ccc(S(=O)(=O)N2CCCC2)cc1 (protonated)
O=C([N-]c1ccc([O-])cc1)c1ccc(S(=O)(=O)N2CCCC2)cc1 (3D coordinates assigned)
O=C([N-]c1ccc([O-])cc1)c1ccc(S(=O)(=O)N2CCCC2)cc1 (nonaromatic ring conformer: 48.359622409995715 kcal/mol)

>  <smiles>  (15) 
O=C(Nc1ccc(O)cc1)c1ccc(S(=O)(=O)N2CCCC2)cc1

>  <score_type>  (15) 
oracle

>  <origin>  (15) 
adgpu

>  <m_score__min__energy>  (15) 
-11.710000000000001

>  <m_primary>  (15) 
energy

$$$$
15:0
     RDKit          3D

 41 42  0  0  0  0  0  0  0  0999 V2000
   -2.8210   21.9270  -32.3160 C   0  0  0  0  0  0  0  0  0  0  0  0
   -3.8220   22.8840  -31.9890 O   0  0  0  0  0  0  0  0  0  0  0  0
   -5.1690   22.5760  -31.7360 C   0  0  0  0  0  0  0  0  0  0  0  0
   -5.7720   21.4120  -32.2490 C   0  0  0  0  0  0  0  0  0  0  0  0
   -7.1180   21.1320  -31.9930 C   0  0  0  0  0  0  0  0  0  0  0  0
   -7.8120   19.6570  -32.6610 Cl  0  0  0  0  0  0  0  0  0  0  0  0
   -7.8880   22.0210  -31.2220 C   0  0  0  0  0  0  0  0  0  0  0  0
   -9.3390   21.7400  -30.9390 C   0  0  0  0  0  0  0  0  0  0  0  0
   -7.2890   23.1830  -30.7110 C   0  0  0  0  0  0  0  0  0  0  0  0
   -5.9350   23.4580  -30.9510 C   0  0  0  0  0  0  0  0  0  0  0  0
   -5.2110   24.9210  -30.2750 S   0  0  0  0  0  0  0  0  0  0  0  0
   -5.3800   26.0810  -31.2160 O   0  0  0  0  0  0  0  0  0  0  0  0
   -5.8910   25.2410  -28.9740 O   0  0  0  0  0  0  0  0  0  0  0  0
   -3.5180   24.6870  -29.9770 N   0  0  0  0  0  0  0  0  0  0  0  0
   -2.9390   23.5360  -29.3460 C   0  0  0  0  0  0  0  0  0  0  0  0
   -3.7570   22.7220  -28.5590 C   0  0  0  0  0  0  0  0  0  0  0  0
   -3.2410   21.5830  -27.9350 C   0  0  0  0  0  0  0  0  0  0  0  0
   -1.8840   21.2300  -28.0870 C   0  0  0  0  0  0  0  0  0  0  0  0
   -1.3440   20.0460  -27.4420 N   0  0  0  0  0  0  0  0  0  0  0  0
   -2.1150   19.3430  -26.4080 C   0  0  0  0  0  0  0  0  0  0  0  0
   -0.0190   19.5320  -27.8110 C   0  0  0  0  0  0  0  0  0  0  0  0
   -1.0660   22.0590  -28.8830 C   0  0  0  0  0  0  0  0  0  0  0  0
   -1.5860   23.1970  -29.5040 C   0  0  0  0  0  0  0  0  0  0  0  0
   -2.3908   21.5157  -31.3909 H   0  0  0  0  0  0  0  0  0  0  0  0
   -3.2699   21.1136  -32.9049 H   0  0  0  0  0  0  0  0  0  0  0  0
   -2.0285   22.4119  -32.9049 H   0  0  0  0  0  0  0  0  0  0  0  0
   -5.1778   20.7149  -32.8580 H   0  0  0  0  0  0  0  0  0  0  0  0
   -9.5011   21.7086  -29.8515 H   0  0  0  0  0  0  0  0  0  0  0  0
   -9.9591   22.5348  -31.3793 H   0  0  0  0  0  0  0  0  0  0  0  0
   -9.6175   20.7712  -31.3793 H   0  0  0  0  0  0  0  0  0  0  0  0
   -7.8890   23.8865  -30.1150 H   0  0  0  0  0  0  0  0  0  0  0  0
   -4.8183   22.9802  -28.4291 H   0  0  0  0  0  0  0  0  0  0  0  0
   -3.9006   20.9547  -27.3184 H   0  0  0  0  0  0  0  0  0  0  0  0
   -1.7680   19.6594  -25.4133 H   0  0  0  0  0  0  0  0  0  0  0  0
   -3.1823   19.5853  -26.5182 H   0  0  0  0  0  0  0  0  0  0  0  0
   -1.9720   18.2579  -26.5182 H   0  0  0  0  0  0  0  0  0  0  0  0
    0.5549   19.3094  -26.8993 H   0  0  0  0  0  0  0  0  0  0  0  0
   -0.1344   18.6134  -28.4051 H   0  0  0  0  0  0  0  0  0  0  0  0
    0.5152   20.2881  -28.4051 H   0  0  0  0  0  0  0  0  0  0  0  0
   -0.0039   21.8057  -29.0165 H   0  0  0  0  0  0  0  0  0  0  0  0
   -0.9316   23.8311  -30.1203 H   0  0  0  0  0  0  0  0  0  0  0  0
  1  2  1  0
  2  3  1  0
  3  4  2  0
  4  5  1  0
  5  6  1  0
  5  7  2  0
  7  8  1  0
  7  9  1  0
  9 10  2  0
 10 11  1  0
 11 12  2  0
 11 13  2  0
 11 14  1  0
 14 15  1  0
 15 16  2  0
 16 17  1  0
 17 18  2  0
 18 19  1  0
 19 20  1  0
 19 21  1  0
 18 22  1  0
 22 23  2  0
 10  3  1  0
 23 15  1  0
  1 24  1  0
  1 25  1  0
  1 26  1  0
  4 27  1  0
  8 28  1  0
  8 29  1  0
  8 30  1  0
  9 31  1  0
 16 32  1  0
 17 33  1  0
 20 34  1  0
 20 35  1  0
 20 36  1  0
 21 37  1  0
 21 38  1  0
 21 39  1  0
 22 40  1  0
 23 41  1  0
M  CHG  1  14  -1
M  END
>  <UniqueID>  (16) 
14

>  <SMILES>  (16) 
COc1cc(Cl)c(C)cc1S(=O)(=O)[N-]c1ccc(N(C)C)cc1

>  <Energy>  (16) 
45.802867810133804

>  <Genealogy>  (16) 
COc1cc(Cl)c(C)cc1S(=O)(=O)[N-]c1ccc(N(C)C)cc1 (protonated)
COc1cc(Cl)c(C)cc1S(=O)(=O)[N-]c1ccc(N(C)C)cc1 (3D coordinates assigned)
COc1cc(Cl)c(C)cc1S(=O)(=O)[N-]c1ccc(N(C)C)cc1 (optimized conformer: 45.802867810133804 kcal/mol)

>  <smiles>  (16) 
COc1cc(Cl)c(C)cc1S(=O)(=O)Nc1ccc(N(C)C)cc1

>  <score_type>  (16) 
oracle

>  <origin>  (16) 
adgpu

>  <m_score__min__energy>  (16) 
-9.3300000000000001

>  <m_primary>  (16) 
energy

$$$$
16:0
     RDKit          3D

 67 71  0  0  0  0  0  0  0  0999 V2000
   -6.5060   12.0770  -33.4490 C   0  0  0  0  0  0  0  0  0  0  0  0
   -5.1740   12.4900  -33.8780 N   0  0  0  0  0  0  0  0  0  0  0  0
   -4.5360   13.6600  -32.7620 S   0  0  0  0  0  0  0  0  0  0  0  0
   -4.9720   13.3000  -31.3690 O   0  0  0  0  0  0  0  0  0  0  0  0
   -3.0330   13.6390  -32.8080 O   0  0  0  0  0  0  0  0  0  0  0  0
   -5.1350   15.2700  -33.1520 C   0  0  0  0  0  0  0  0  0  0  0  0
   -6.0260   15.4410  -34.2190 C   0  0  0  0  0  0  0  0  0  0  0  0
   -6.4820   16.7190  -34.5530 C   0  0  0  0  0  0  0  0  0  0  0  0
   -6.0570   17.8300  -33.8200 C   0  0  0  0  0  0  0  0  0  0  0  0
   -5.1810   17.6670  -32.7310 C   0  0  0  0  0  0  0  0  0  0  0  0
   -4.6840   18.7870  -31.9790 N   0  0  0  0  0  0  0  0  0  0  0  0
   -3.4970   19.3150  -32.0550 C   0  0  0  0  0  0  0  0  0  0  0  0
   -2.5750   18.8920  -32.9750 N   0  0  0  0  0  0  0  0  0  0  0  0
   -1.3310   19.4580  -33.0740 C   0  0  0  0  0  0  0  0  0  0  0  0
   -0.9610   20.5170  -32.2270 C   0  0  0  0  0  0  0  0  0  0  0  0
   -1.9110   20.9530  -31.2990 C   0  0  0  0  0  0  0  0  0  0  0  0
   -3.1410   20.3710  -31.2200 C   0  0  0  0  0  0  0  0  0  0  0  0
   -3.8800   20.9520  -30.2590 N   0  0  0  0  0  0  0  0  0  0  0  0
   -3.0450   21.8970  -29.7570 C   0  0  0  0  0  0  0  0  0  0  0  0
   -3.4230   22.6560  -28.7650 N   0  0  0  0  0  0  0  0  0  0  0  0
   -2.6330   23.5980  -28.0340 C   0  0  0  0  0  0  0  0  0  0  0  0
   -1.9730   23.1840  -26.8760 C   0  0  0  0  0  0  0  0  0  0  0  0
   -1.1730   24.0750  -26.1600 C   0  0  0  0  0  0  0  0  0  0  0  0
   -0.9870   25.4070  -26.5990 C   0  0  0  0  0  0  0  0  0  0  0  0
   -0.1570   26.3460  -25.8400 N   0  0  0  0  0  0  0  0  0  0  0  0
    0.8940   27.1050  -26.5540 C   0  0  0  0  0  0  0  0  0  0  0  0
    1.7560   28.0090  -25.6630 C   0  0  0  0  0  0  0  0  0  0  0  0
    1.0010   28.6220  -24.5640 N   0  0  0  0  0  0  0  0  0  0  0  0
   -0.0220   29.5730  -25.0290 C   0  0  0  0  0  0  0  0  0  0  0  0
    0.4560   27.5730  -23.6970 C   0  0  0  0  0  0  0  0  0  0  0  0
   -0.5020   26.6200  -24.4270 C   0  0  0  0  0  0  0  0  0  0  0  0
   -1.6380   25.7980  -27.7960 C   0  0  0  0  0  0  0  0  0  0  0  0
   -2.4460   24.8990  -28.5190 C   0  0  0  0  0  0  0  0  0  0  0  0
   -3.0790   25.2610  -29.7190 O   0  0  0  0  0  0  0  0  0  0  0  0
   -4.4200   24.9250  -30.0620 C   0  0  0  0  0  0  0  0  0  0  0  0
   -1.8290   21.9430  -30.3880 N   0  0  0  0  0  0  0  0  0  0  0  0
   -0.7050   22.8680  -30.2090 C   0  0  0  0  0  0  0  0  0  0  0  0
   -4.7030   16.3860  -32.4220 C   0  0  0  0  0  0  0  0  0  0  0  0
   -6.5495   12.0635  -32.3499 H   0  0  0  0  0  0  0  0  0  0  0  0
   -7.2524   12.7859  -33.8368 H   0  0  0  0  0  0  0  0  0  0  0  0
   -6.7204   11.0702  -33.8368 H   0  0  0  0  0  0  0  0  0  0  0  0
   -6.3673   14.5681  -34.7949 H   0  0  0  0  0  0  0  0  0  0  0  0
   -7.1773   16.8507  -35.3951 H   0  0  0  0  0  0  0  0  0  0  0  0
   -6.4084   18.8354  -34.0952 H   0  0  0  0  0  0  0  0  0  0  0  0
   -0.6172   19.0811  -33.8213 H   0  0  0  0  0  0  0  0  0  0  0  0
    0.0335   20.9826  -32.2917 H   0  0  0  0  0  0  0  0  0  0  0  0
   -2.0844   22.1474  -26.5252 H   0  0  0  0  0  0  0  0  0  0  0  0
   -0.6782   23.7359  -25.2380 H   0  0  0  0  0  0  0  0  0  0  0  0
    1.5578   26.3833  -27.0524 H   0  0  0  0  0  0  0  0  0  0  0  0
    0.3707   27.7715  -27.2553 H   0  0  0  0  0  0  0  0  0  0  0  0
    2.5698   27.4053  -25.2348 H   0  0  0  0  0  0  0  0  0  0  0  0
    2.1372   28.8250  -26.2945 H   0  0  0  0  0  0  0  0  0  0  0  0
   -0.5167   30.0329  -24.1608 H   0  0  0  0  0  0  0  0  0  0  0  0
    0.4547   30.3562  -25.6368 H   0  0  0  0  0  0  0  0  0  0  0  0
   -0.7684   29.0405  -25.6368 H   0  0  0  0  0  0  0  0  0  0  0  0
    1.2927   26.9848  -23.2921 H   0  0  0  0  0  0  0  0  0  0  0  0
   -0.1210   28.0718  -22.9044 H   0  0  0  0  0  0  0  0  0  0  0  0
   -0.5087   25.6624  -23.8857 H   0  0  0  0  0  0  0  0  0  0  0  0
   -1.4813   27.1209  -24.4416 H   0  0  0  0  0  0  0  0  0  0  0  0
   -1.5094   26.8252  -28.1680 H   0  0  0  0  0  0  0  0  0  0  0  0
   -5.0075   24.7778  -29.1437 H   0  0  0  0  0  0  0  0  0  0  0  0
   -4.8624   25.7401  -30.6536 H   0  0  0  0  0  0  0  0  0  0  0  0
   -4.4258   23.9976  -30.6536 H   0  0  0  0  0  0  0  0  0  0  0  0
   -0.5217   23.0188  -29.1349 H   0  0  0  0  0  0  0  0  0  0  0  0
    0.1956   22.4460  -30.6789 H   0  0  0  0  0  0  0  0  0  0  0  0
   -0.9458   23.8330  -30.6789 H   0  0  0  0  0  0  0  0  0  0  0  0
   -3.9834   16.2555  -31.6004 H   0  0  0  0  0  0  0  0  0  0  0  0
  1  2  1  0
  2  3  1  0
  3  4  2  0
  3  5  2  0
  3  6  1  0
  6  7  2  0
  7  8  1  0
  8  9  2  0
  9 10  1  0
 10 11  1  0
 11 12  2  3
 12 13  1  0
 13 14  1  0
 14 15  2  0
 15 16  1  0
 16 17  2  0
 17 18  1  0
 18 19  1  0
 19 20  2  3
 20 21  1  0
 21 22  2  0
 22 23  1  0
 23 24  2  0
 24 25  1  0
 25 26  1  0
 26 27  1  0
 27 28  1  0
 28 29  1  0
 28 30  1  0
 30 31  1  0
 24 32  1  0
 32 33  2  0
 33 34  1  0
 34 35  1  0
 19 36  1  0
 36 37  1  0
 10 38  2  0
 38  6  1  0
 17 12  1  0
 33 21  1  0
 36 16  1  0
 31 25  1  0
  1 39  1  0
  1 40  1  0
  1 41  1  0
  7 42  1  0
  8 43  1  0
  9 44  1  0
 14 45  1  0
 15 46  1  0
 22 47  1  0
 23 48  1  0
 26 49  1  0
 26 50  1  0
 27 51  1  0
 27 52  1  0
 29 53  1  0
 29 54  1  0
 29 55  1  0
 30 56  1  0
 30 57  1  0
 31 58  1  0
 31 59  1  0
 32 60  1  0
 35 61  1  0
 35 62  1  0
 35 63  1  0
 37 64  1  0
 37 65  1  0
 37 66  1  0
 38 67  1  0
M  CHG  3   2  -1  13  -1  18  -1
M  END
>  <UniqueID>  (17) 
15

>  <SMILES>  (17) 
C[N-]S(=O)(=O)c1cccc(N=c2[n-]ccc3c2[n-]c(=Nc2ccc(N4CCN(C)CC4)cc2OC)n3C)c1

>  <Energy>  (17) 
139.02083976737845

>  <Genealogy>  (17) 
C[N-]S(=O)(=O)c1cccc(N=c2[n-]ccc3c2[n-]c(=Nc2ccc(N4CCN(C)CC4)cc2OC)n3C)c1 (protonated)
C[N-]S(=O)(=O)c1cccc(N=c2[n-]ccc3c2[n-]c(=Nc2ccc(N4CCN(C)CC4)cc2OC)n3C)c1 (3D coordinates assigned)
C[N-]S(=O)(=O)c1cccc(N=c2[n-]ccc3c2[n-]c(=Nc2ccc(N4CCN(C)CC4)cc2OC)n3C)c1 (nonaromatic ring conformer: 139.02083976737845 kcal/mol)

>  <smiles>  (17) 
CNS(=O)(=O)c1cccc(N=c2[nH]ccc3c2[nH]c(=Nc2ccc(N4CCN(C)CC4)cc2OC)n3C)c1

>  <score_type>  (17) 
oracle

>  <origin>  (17) 
adgpu

>  <m_score__min__energy>  (17) 
-9.5399999999999991

>  <m_primary>  (17) 
energy

$$$$
17:0
     RDKit          3D

 52 54  0  0  0  0  0  0  0  0999 V2000
   -1.9830   16.2180  -35.3320 C   0  0  0  0  0  0  0  0  0  0  0  0
   -3.0680   16.9640  -34.6840 N   0  0  0  0  0  0  0  0  0  0  0  0
   -4.4140   16.3900  -34.5800 C   0  0  0  0  0  0  0  0  0  0  0  0
   -2.8220   18.2990  -34.2030 C   0  0  0  0  0  0  0  0  0  0  0  0
   -1.6070   18.8800  -34.3840 N   0  0  0  0  0  0  0  0  0  0  0  0
   -1.3660   20.1370  -33.9270 C   0  0  0  0  0  0  0  0  0  0  0  0
   -0.0670   20.7380  -34.0990 N   0  0  0  0  0  0  0  0  0  0  0  0
    1.0050   20.4320  -33.1440 C   0  0  0  0  0  0  0  0  0  0  0  0
    0.1740   21.6460  -35.2250 C   0  0  0  0  0  0  0  0  0  0  0  0
   -2.3520   20.8130  -33.2800 N   0  0  0  0  0  0  0  0  0  0  0  0
   -3.5710   20.2450  -33.0920 C   0  0  0  0  0  0  0  0  0  0  0  0
   -4.6120   20.9730  -32.4070 N   0  0  0  0  0  0  0  0  0  0  0  0
   -5.8860   21.2450  -33.0930 C   0  0  0  0  0  0  0  0  0  0  0  0
   -6.9470   20.2930  -32.6140 C   0  0  0  0  0  0  0  0  0  0  0  0
   -6.7320   18.9040  -32.6520 C   0  0  0  0  0  0  0  0  0  0  0  0
   -7.7100   18.0260  -32.1750 C   0  0  0  0  0  0  0  0  0  0  0  0
   -8.9040   18.5280  -31.6530 C   0  0  0  0  0  0  0  0  0  0  0  0
   -9.1260   19.9080  -31.6050 C   0  0  0  0  0  0  0  0  0  0  0  0
   -8.1480   20.7880  -32.0750 C   0  0  0  0  0  0  0  0  0  0  0  0
   -4.4540   21.3630  -30.9970 C   0  0  0  0  0  0  0  0  0  0  0  0
   -4.8070   22.8140  -30.8040 C   0  0  0  0  0  0  0  0  0  0  0  0
   -6.1400   23.1970  -30.5900 C   0  0  0  0  0  0  0  0  0  0  0  0
   -6.4560   24.5410  -30.3980 C   0  0  0  0  0  0  0  0  0  0  0  0
   -5.4370   25.4960  -30.4310 C   0  0  0  0  0  0  0  0  0  0  0  0
   -4.1520   25.1130  -30.6480 N   0  0  0  0  0  0  0  0  0  0  0  0
   -3.8160   23.8080  -30.8340 C   0  0  0  0  0  0  0  0  0  0  0  0
   -3.7990   18.9880  -33.5560 N   0  0  0  0  0  0  0  0  0  0  0  0
   -1.3346   15.7722  -34.5634 H   0  0  0  0  0  0  0  0  0  0  0  0
   -2.4094   15.4212  -35.9592 H   0  0  0  0  0  0  0  0  0  0  0  0
   -1.3917   16.9014  -35.9592 H   0  0  0  0  0  0  0  0  0  0  0  0
   -4.6828   16.2754  -33.5195 H   0  0  0  0  0  0  0  0  0  0  0  0
   -5.1366   17.0583  -35.0712 H   0  0  0  0  0  0  0  0  0  0  0  0
   -4.4319   15.4059  -35.0712 H   0  0  0  0  0  0  0  0  0  0  0  0
    0.6240   20.5408  -32.1178 H   0  0  0  0  0  0  0  0  0  0  0  0
    1.3506   19.3993  -33.2993 H   0  0  0  0  0  0  0  0  0  0  0  0
    1.8437   21.1266  -33.2993 H   0  0  0  0  0  0  0  0  0  0  0  0
    0.4385   22.6427  -34.8421 H   0  0  0  0  0  0  0  0  0  0  0  0
    1.0002   21.2578  -35.8387 H   0  0  0  0  0  0  0  0  0  0  0  0
   -0.7360   21.7186  -35.8387 H   0  0  0  0  0  0  0  0  0  0  0  0
   -6.2006   22.2772  -32.8794 H   0  0  0  0  0  0  0  0  0  0  0  0
   -5.7463   21.1116  -34.1759 H   0  0  0  0  0  0  0  0  0  0  0  0
   -5.7904   18.5064  -33.0587 H   0  0  0  0  0  0  0  0  0  0  0  0
   -7.5389   16.9400  -32.2109 H   0  0  0  0  0  0  0  0  0  0  0  0
   -9.6724   17.8358  -31.2784 H   0  0  0  0  0  0  0  0  0  0  0  0
  -10.0696   20.3001  -31.1976 H   0  0  0  0  0  0  0  0  0  0  0  0
   -8.3182   21.8735  -32.0232 H   0  0  0  0  0  0  0  0  0  0  0  0
   -5.1170   20.7441  -30.3746 H   0  0  0  0  0  0  0  0  0  0  0  0
   -3.4047   21.2120  -30.7035 H   0  0  0  0  0  0  0  0  0  0  0  0
   -6.9351   22.4370  -30.5738 H   0  0  0  0  0  0  0  0  0  0  0  0
   -7.4979   24.8467  -30.2222 H   0  0  0  0  0  0  0  0  0  0  0  0
   -5.6755   26.5593  -30.2811 H   0  0  0  0  0  0  0  0  0  0  0  0
   -2.7658   23.5310  -31.0082 H   0  0  0  0  0  0  0  0  0  0  0  0
  1  2  1  0
  2  3  1  0
  2  4  1  0
  4  5  2  0
  5  6  1  0
  6  7  1  0
  7  8  1  0
  7  9  1  0
  6 10  2  0
 10 11  1  0
 11 12  1  0
 12 13  1  0
 13 14  1  0
 14 15  2  0
 15 16  1  0
 16 17  2  0
 17 18  1  0
 18 19  2  0
 12 20  1  0
 20 21  1  0
 21 22  2  0
 22 23  1  0
 23 24  2  0
 24 25  1  0
 25 26  2  0
 11 27  2  0
 27  4  1  0
 19 14  1  0
 26 21  1  0
  1 28  1  0
  1 29  1  0
  1 30  1  0
  3 31  1  0
  3 32  1  0
  3 33  1  0
  8 34  1  0
  8 35  1  0
  8 36  1  0
  9 37  1  0
  9 38  1  0
  9 39  1  0
 13 40  1  0
 13 41  1  0
 15 42  1  0
 16 43  1  0
 17 44  1  0
 18 45  1  0
 19 46  1  0
 20 47  1  0
 20 48  1  0
 22 49  1  0
 23 50  1  0
 24 51  1  0
 26 52  1  0
M  END
>  <UniqueID>  (18) 
16

>  <SMILES>  (18) 
CN(C)c1nc(N(C)C)nc(N(Cc2ccccc2)Cc2cccnc2)n1

>  <Energy>  (18) 
47.583982965637674

>  <Genealogy>  (18) 
CN(C)c1nc(N(C)C)nc(N(Cc2ccccc2)Cc2cccnc2)n1 (3D coordinates assigned)
CN(C)c1nc(N(C)C)nc(N(Cc2ccccc2)Cc2cccnc2)n1 (optimized conformer: 47.583982965637674 kcal/mol)

>  <smiles>  (18) 
CN(C)c1nc(N(C)C)nc(N(Cc2ccccc2)Cc2cccnc2)n1

>  <score_type>  (18) 
oracle

>  <origin>  (18) 
adgpu

>  <m_score__min__energy>  (18) 
-7.75

>  <m_primary>  (18) 
energy

$$$$
18:0
     RDKit          3D

 47 50  0  0  0  0  0  0  0  0999 V2000
   -5.7090   25.4720  -30.8100 O   0  0  0  0  0  0  0  0  0  0  0  0
   -4.7900   24.6090  -30.8400 C   0  0  0  0  0  0  0  0  0  0  0  0
   -3.4760   24.9320  -30.3730 N   0  0  0  0  0  0  0  0  0  0  0  0
   -3.0200   24.7150  -29.0000 C   0  0  0  0  0  0  0  0  0  0  0  0
   -3.4410   23.3170  -28.5130 C   0  0  0  0  0  0  0  0  0  0  0  0
   -2.8130   22.1900  -29.3590 C   0  0  0  0  0  0  0  0  0  0  0  0
   -1.4330   22.5550  -29.9430 C   0  0  0  0  0  0  0  0  0  0  0  0
   -0.6950   23.5710  -29.0660 C   0  0  0  0  0  0  0  0  0  0  0  0
   -1.4830   24.8910  -28.9290 C   0  0  0  0  0  0  0  0  0  0  0  0
   -5.0660   23.2670  -31.3570 C   0  0  0  0  0  0  0  0  0  0  0  0
   -4.1430   22.4950  -31.9690 N   0  0  0  0  0  0  0  0  0  0  0  0
   -4.8490   21.3850  -32.2680 C   0  0  0  0  0  0  0  0  0  0  0  0
   -4.2740   20.2640  -33.0420 C   0  0  0  0  0  0  0  0  0  0  0  0
   -5.1130   19.4590  -33.8290 C   0  0  0  0  0  0  0  0  0  0  0  0
   -4.5850   18.3850  -34.5520 C   0  0  0  0  0  0  0  0  0  0  0  0
   -3.2200   18.0960  -34.4830 C   0  0  0  0  0  0  0  0  0  0  0  0
   -2.3810   18.8780  -33.6840 C   0  0  0  0  0  0  0  0  0  0  0  0
   -2.9050   19.9520  -32.9590 C   0  0  0  0  0  0  0  0  0  0  0  0
   -6.1300   21.4880  -31.8450 N   0  0  0  0  0  0  0  0  0  0  0  0
   -7.1770   20.5050  -31.8730 C   0  0  0  0  0  0  0  0  0  0  0  0
   -6.9030   19.1810  -31.4960 C   0  0  0  0  0  0  0  0  0  0  0  0
   -7.9100   18.2120  -31.5370 C   0  0  0  0  0  0  0  0  0  0  0  0
   -9.1940   18.5530  -31.9690 C   0  0  0  0  0  0  0  0  0  0  0  0
   -9.4700   19.8630  -32.3690 C   0  0  0  0  0  0  0  0  0  0  0  0
   -8.4660   20.8360  -32.3280 C   0  0  0  0  0  0  0  0  0  0  0  0
   -6.2730   22.6730  -31.2760 N   0  0  0  0  0  0  0  0  0  0  0  0
   -3.4881   25.4580  -28.3376 H   0  0  0  0  0  0  0  0  0  0  0  0
   -3.1211   23.1951  -27.4676 H   0  0  0  0  0  0  0  0  0  0  0  0
   -4.5342   23.2416  -28.6093 H   0  0  0  0  0  0  0  0  0  0  0  0
   -2.6975   21.3002  -28.7227 H   0  0  0  0  0  0  0  0  0  0  0  0
   -3.4869   22.0101  -30.2096 H   0  0  0  0  0  0  0  0  0  0  0  0
   -0.8251   21.6413  -30.0179 H   0  0  0  0  0  0  0  0  0  0  0  0
   -1.5896   23.0079  -30.9331 H   0  0  0  0  0  0  0  0  0  0  0  0
   -0.5495   23.1380  -28.0653 H   0  0  0  0  0  0  0  0  0  0  0  0
    0.2697   23.7973  -29.5437 H   0  0  0  0  0  0  0  0  0  0  0  0
   -1.2310   25.3457  -27.9596 H   0  0  0  0  0  0  0  0  0  0  0  0
   -1.1947   25.5247  -29.7807 H   0  0  0  0  0  0  0  0  0  0  0  0
   -6.1907   19.6742  -33.8770 H   0  0  0  0  0  0  0  0  0  0  0  0
   -5.2460   17.7662  -35.1766 H   0  0  0  0  0  0  0  0  0  0  0  0
   -2.8058   17.2539  -35.0569 H   0  0  0  0  0  0  0  0  0  0  0  0
   -1.3069   18.6479  -33.6257 H   0  0  0  0  0  0  0  0  0  0  0  0
   -2.2436   20.5561  -32.3205 H   0  0  0  0  0  0  0  0  0  0  0  0
   -5.8906   18.9043  -31.1665 H   0  0  0  0  0  0  0  0  0  0  0  0
   -7.6908   17.1791  -31.2285 H   0  0  0  0  0  0  0  0  0  0  0  0
   -9.9869   17.7910  -31.9942 H   0  0  0  0  0  0  0  0  0  0  0  0
  -10.4789   20.1297  -32.7169 H   0  0  0  0  0  0  0  0  0  0  0  0
   -8.6854   21.8638  -32.6528 H   0  0  0  0  0  0  0  0  0  0  0  0
  1  2  2  0
  2  3  1  0
  3  4  1  0
  4  5  1  0
  5  6  1  0
  6  7  1  0
  7  8  1  0
  8  9  1  0
  2 10  1  0
 10 11  1  0
 11 12  2  0
 12 13  1  0
 13 14  2  0
 14 15  1  0
 15 16  2  0
 16 17  1  0
 17 18  2  0
 12 19  1  0
 19 20  1  0
 20 21  2  0
 21 22  1  0
 22 23  2  0
 23 24  1  0
 24 25  2  0
 19 26  1  0
  9  4  1  0
 26 10  2  0
 18 13  1  0
 25 20  1  0
  4 27  1  0
  5 28  1  0
  5 29  1  0
  6 30  1  0
  6 31  1  0
  7 32  1  0
  7 33  1  0
  8 34  1  0
  8 35  1  0
  9 36  1  0
  9 37  1  0
 14 38  1  0
 15 39  1  0
 16 40  1  0
 17 41  1  0
 18 42  1  0
 21 43  1  0
 22 44  1  0
 23 45  1  0
 24 46  1  0
 25 47  1  0
M  CHG  1   3  -1
M  END
>  <UniqueID>  (19) 
17

>  <SMILES>  (19) 
O=C([N-]C1CCCCC1)c1nc(-c2ccccc2)n(-c2ccccc2)n1

>  <Energy>  (19) 
90.97235055139427

>  <Genealogy>  (19) 
O=C([N-]C1CCCCC1)c1nc(-c2ccccc2)n(-c2ccccc2)n1 (protonated)
O=C([N-]C1CCCCC1)c1nc(-c2ccccc2)n(-c2ccccc2)n1 (3D coordinates assigned)
O=C([N-]C1CCCCC1)c1nc(-c2ccccc2)n(-c2ccccc2)n1 (nonaromatic ring conformer: 90.97235055139427 kcal/mol)

>  <smiles>  (19) 
O=C(NC1CCCCC1)c1nc(-c2ccccc2)n(-c2ccccc2)n1

>  <score_type>  (19) 
oracle

>  <origin>  (19) 
adgpu

>  <m_score__min__energy>  (19) 
-10.74

>  <m_primary>  (19) 
energy

$$$$
19:0
     RDKit          3D

 35 37  0  0  0  0  0  0  0  0999 V2000
   -5.6010   14.5570  -33.5630 N   0  0  0  0  0  0  0  0  0  0  0  0
   -6.2630   15.7240  -34.0560 C   0  0  0  0  0  0  0  0  0  0  0  0
   -7.3890   15.5970  -34.6090 O   0  0  0  0  0  0  0  0  0  0  0  0
   -5.6650   17.0740  -33.9150 C   0  0  0  0  0  0  0  0  0  0  0  0
   -6.4580   18.1970  -33.6150 C   0  0  0  0  0  0  0  0  0  0  0  0
   -5.8770   19.4620  -33.4790 C   0  0  0  0  0  0  0  0  0  0  0  0
   -4.4890   19.6250  -33.6200 C   0  0  0  0  0  0  0  0  0  0  0  0
   -3.8760   20.9180  -33.5080 N   0  0  0  0  0  0  0  0  0  0  0  0
   -2.5900   21.1350  -32.9170 C   0  0  0  0  0  0  0  0  0  0  0  0
   -2.1540   21.8140  -31.7960 C   0  0  0  0  0  0  0  0  0  0  0  0
   -2.7970   22.5470  -30.7950 O   0  0  0  0  0  0  0  0  0  0  0  0
   -4.1220   22.9860  -30.8900 C   0  0  0  0  0  0  0  0  0  0  0  0
   -5.1310   22.0360  -31.0840 C   0  0  0  0  0  0  0  0  0  0  0  0
   -6.4670   22.4350  -31.1890 C   0  0  0  0  0  0  0  0  0  0  0  0
   -6.8030   23.7880  -31.0890 C   0  0  0  0  0  0  0  0  0  0  0  0
   -8.1000   24.1740  -31.1930 F   0  0  0  0  0  0  0  0  0  0  0  0
   -5.8050   24.7410  -30.8700 C   0  0  0  0  0  0  0  0  0  0  0  0
   -4.4670   24.3460  -30.7580 C   0  0  0  0  0  0  0  0  0  0  0  0
   -3.4970   25.3040  -30.4820 O   0  0  0  0  0  0  0  0  0  0  0  0
   -0.8460   21.4830  -32.1040 C   0  0  0  0  0  0  0  0  0  0  0  0
    0.2780   21.7150  -31.5890 O   0  0  0  0  0  0  0  0  0  0  0  0
   -1.2790   20.8110  -33.2280 C   0  0  0  0  0  0  0  0  0  0  0  0
   -0.7100   20.1830  -34.1580 O   0  0  0  0  0  0  0  0  0  0  0  0
   -3.6990   18.5120  -33.9320 C   0  0  0  0  0  0  0  0  0  0  0  0
   -4.2780   17.2470  -34.0660 C   0  0  0  0  0  0  0  0  0  0  0  0
   -4.7530   14.6180  -32.9600 H   0  0  0  0  0  0  0  0  0  0  0  0
   -6.0190   13.6140  -33.7290 H   0  0  0  0  0  0  0  0  0  0  0  0
   -7.5441   18.0790  -33.4863 H   0  0  0  0  0  0  0  0  0  0  0  0
   -6.5106   20.3342  -33.2604 H   0  0  0  0  0  0  0  0  0  0  0  0
   -4.3440   21.7370  -33.9570 H   0  0  0  0  0  0  0  0  0  0  0  0
   -4.8717   20.9693  -31.1543 H   0  0  0  0  0  0  0  0  0  0  0  0
   -7.2540   21.6836  -31.3504 H   0  0  0  0  0  0  0  0  0  0  0  0
   -6.0717   25.8048  -30.7854 H   0  0  0  0  0  0  0  0  0  0  0  0
   -2.6149   18.6340  -34.0727 H   0  0  0  0  0  0  0  0  0  0  0  0
   -3.6422   16.3782  -34.2918 H   0  0  0  0  0  0  0  0  0  0  0  0
  1  2  1  0
  2  3  2  0
  2  4  1  0
  4  5  2  0
  5  6  1  0
  6  7  2  0
  7  8  1  0
  8  9  1  0
  9 10  2  0
 10 11  1  0
 11 12  1  0
 12 13  2  0
 13 14  1  0
 14 15  2  0
 15 16  1  0
 15 17  1  0
 17 18  2  0
 18 19  1  0
 10 20  1  0
 20 21  2  0
 20 22  1  0
 22 23  2  0
  7 24  1  0
 24 25  2  0
 25  4  1  0
 22  9  1  0
 18 12  1  0
  1 26  1  0
  1 27  1  0
  5 28  1  0
  6 29  1  0
  8 30  1  0
 13 31  1  0
 14 32  1  0
 17 33  1  0
 24 34  1  0
 25 35  1  0
M  CHG  1  19  -1
M  END
>  <UniqueID>  (20) 
18

>  <SMILES>  (20) 
NC(=O)c1ccc(Nc2c(Oc3ccc(F)cc3[O-])c(=O)c2=O)cc1

>  <Energy>  (20) 
39.48254868966202

>  <Genealogy>  (20) 
NC(=O)c1ccc(Nc2c(Oc3ccc(F)cc3[O-])c(=O)c2=O)cc1 (protonated)
NC(=O)c1ccc(Nc2c(Oc3ccc(F)cc3[O-])c(=O)c2=O)cc1 (3D coordinates assigned)
NC(=O)c1ccc(Nc2c(Oc3ccc(F)cc3[O-])c(=O)c2=O)cc1 (optimized conformer: 39.48254868966202 kcal/mol)

>  <smiles>  (20) 
NC(=O)c1ccc(Nc2c(Oc3ccc(F)cc3O)c(=O)c2=O)cc1

>  <score_type>  (20) 
oracle

>  <origin>  (20) 
adgpu

>  <m_score__min__energy>  (20) 
-11.59

>  <m_primary>  (20) 
energy

$$$$
20:0
     RDKit          3D

 46 48  0  0  0  0  0  0  0  0999 V2000
   -1.7360   21.0650  -29.0590 C   0  0  0  0  0  0  0  0  0  0  0  0
   -0.9370   21.1740  -30.3540 C   0  0  0  0  0  0  0  0  0  0  0  0
   -1.8300   20.9820  -31.5390 C   0  0  0  0  0  0  0  0  0  0  0  0
   -1.8060   21.7780  -32.6330 N   0  0  0  0  0  0  0  0  0  0  0  0
   -2.6500   21.3840  -33.5840 N   0  0  0  0  0  0  0  0  0  0  0  0
   -3.3420   20.2680  -33.2670 C   0  0  0  0  0  0  0  0  0  0  0  0
   -4.1910   19.7150  -34.0800 N   0  0  0  0  0  0  0  0  0  0  0  0
   -5.1030   18.2820  -33.7280 S   0  0  0  0  0  0  0  0  0  0  0  0
   -4.2910   17.3470  -32.8720 O   0  0  0  0  0  0  0  0  0  0  0  0
   -5.4230   17.5760  -35.0170 O   0  0  0  0  0  0  0  0  0  0  0  0
   -6.6080   18.7200  -32.9260 C   0  0  0  0  0  0  0  0  0  0  0  0
   -7.5600   17.7430  -32.6040 C   0  0  0  0  0  0  0  0  0  0  0  0
   -8.7470   18.1040  -31.9610 C   0  0  0  0  0  0  0  0  0  0  0  0
   -8.9900   19.4420  -31.6360 C   0  0  0  0  0  0  0  0  0  0  0  0
   -8.0420   20.4260  -31.9530 C   0  0  0  0  0  0  0  0  0  0  0  0
   -8.3430   22.1240  -31.5930 S   0  0  0  0  0  0  0  0  0  0  0  0
   -9.6620   22.5710  -32.1560 O   0  0  0  0  0  0  0  0  0  0  0  0
   -8.3670   22.3080  -30.1020 O   0  0  0  0  0  0  0  0  0  0  0  0
   -7.0650   23.0850  -32.2650 N   0  0  0  0  0  0  0  0  0  0  0  0
   -5.9610   23.6190  -31.5220 C   0  0  0  0  0  0  0  0  0  0  0  0
   -4.7380   22.9330  -31.4020 C   0  0  0  0  0  0  0  0  0  0  0  0
   -3.6860   23.4940  -30.6720 C   0  0  0  0  0  0  0  0  0  0  0  0
   -3.8310   24.7420  -30.0530 C   0  0  0  0  0  0  0  0  0  0  0  0
   -2.7460   25.2580  -29.3290 O   0  0  0  0  0  0  0  0  0  0  0  0
   -2.1830   24.6400  -28.1740 C   0  0  0  0  0  0  0  0  0  0  0  0
   -5.0530   25.4310  -30.1790 C   0  0  0  0  0  0  0  0  0  0  0  0
   -6.1070   24.8700  -30.9070 C   0  0  0  0  0  0  0  0  0  0  0  0
   -6.8520   20.0600  -32.5940 C   0  0  0  0  0  0  0  0  0  0  0  0
   -2.9240   19.7100  -31.7260 S   0  0  0  0  0  0  0  0  0  0  0  0
   -1.0558   21.1578  -28.1995 H   0  0  0  0  0  0  0  0  0  0  0  0
   -2.4856   21.8692  -29.0218 H   0  0  0  0  0  0  0  0  0  0  0  0
   -2.2428   20.0894  -29.0218 H   0  0  0  0  0  0  0  0  0  0  0  0
   -0.4713   22.1690  -30.4092 H   0  0  0  0  0  0  0  0  0  0  0  0
   -0.1634   20.3920  -30.3614 H   0  0  0  0  0  0  0  0  0  0  0  0
   -2.7510   21.8950  -34.4890 H   0  0  0  0  0  0  0  0  0  0  0  0
   -7.3723   16.6893  -32.8581 H   0  0  0  0  0  0  0  0  0  0  0  0
   -9.4915   17.3341  -31.7101 H   0  0  0  0  0  0  0  0  0  0  0  0
   -9.9259   19.7233  -31.1310 H   0  0  0  0  0  0  0  0  0  0  0  0
   -4.6095   21.9526  -31.8840 H   0  0  0  0  0  0  0  0  0  0  0  0
   -2.7344   22.9496  -30.5828 H   0  0  0  0  0  0  0  0  0  0  0  0
   -2.6040   25.1021  -27.2689 H   0  0  0  0  0  0  0  0  0  0  0  0
   -2.4193   23.5657  -28.1810 H   0  0  0  0  0  0  0  0  0  0  0  0
   -1.0914   24.7754  -28.1810 H   0  0  0  0  0  0  0  0  0  0  0  0
   -5.1788   26.4145  -29.7027 H   0  0  0  0  0  0  0  0  0  0  0  0
   -7.0583   25.4149  -30.9977 H   0  0  0  0  0  0  0  0  0  0  0  0
   -6.1041   20.8286  -32.8385 H   0  0  0  0  0  0  0  0  0  0  0  0
  1  2  1  0
  2  3  1  0
  3  4  2  0
  4  5  1  0
  5  6  1  0
  6  7  2  3
  7  8  1  0
  8  9  2  0
  8 10  2  0
  8 11  1  0
 11 12  2  0
 12 13  1  0
 13 14  2  0
 14 15  1  0
 15 16  1  0
 16 17  2  0
 16 18  2  0
 16 19  1  0
 19 20  1  0
 20 21  2  0
 21 22  1  0
 22 23  2  0
 23 24  1  0
 24 25  1  0
 23 26  1  0
 26 27  2  0
 15 28  2  0
  6 29  1  0
 29  3  1  0
 28 11  1  0
 27 20  1  0
  1 30  1  0
  1 31  1  0
  1 32  1  0
  2 33  1  0
  2 34  1  0
  5 35  1  0
 12 36  1  0
 13 37  1  0
 14 38  1  0
 21 39  1  0
 22 40  1  0
 25 41  1  0
 25 42  1  0
 25 43  1  0
 26 44  1  0
 27 45  1  0
 28 46  1  0
M  CHG  1  19  -1
M  END
>  <UniqueID>  (21) 
19

>  <SMILES>  (21) 
CCc1n[nH]c(=NS(=O)(=O)c2cccc(S(=O)(=O)[N-]c3ccc(OC)cc3)c2)s1

>  <Energy>  (21) 
84.12457934018192

>  <Genealogy>  (21) 
CCc1n[nH]c(=NS(=O)(=O)c2cccc(S(=O)(=O)[N-]c3ccc(OC)cc3)c2)s1 (protonated)
CCc1n[nH]c(=NS(=O)(=O)c2cccc(S(=O)(=O)[N-]c3ccc(OC)cc3)c2)s1 (3D coordinates assigned)
CCc1n[nH]c(=NS(=O)(=O)c2cccc(S(=O)(=O)[N-]c3ccc(OC)cc3)c2)s1 (optimized conformer: 84.12457934018192 kcal/mol)

>  <smiles>  (21) 
CCc1n[nH]c(=NS(=O)(=O)c2cccc(S(=O)(=O)Nc3ccc(OC)cc3)c2)s1

>  <score_type>  (21) 
oracle

>  <origin>  (21) 
adgpu

>  <m_score__min__energy>  (21) 
-10.470000000000001

>  <m_primary>  (21) 
energy

$$$$
21:0
     RDKit          3D

 26 27  0  0  0  0  0  0  0  0999 V2000
   -0.4670   25.3030  -29.6690 H   0  0  0  0  0  0  0  0  0  0  0  0
   -1.3480   25.6780  -29.3430 O   0  0  0  0  0  0  0  0  0  0  0  0
   -2.5160   24.9180  -29.2730 C   0  0  0  0  0  0  0  0  0  0  0  0
   -3.3240   24.8710  -30.3640 N   0  0  0  0  0  0  0  0  0  0  0  0
   -4.4450   24.1080  -30.3820 C   0  0  0  0  0  0  0  0  0  0  0  0
   -5.1740   24.0880  -31.4070 O   0  0  0  0  0  0  0  0  0  0  0  0
   -4.7770   23.3630  -29.2990 N   0  0  0  0  0  0  0  0  0  0  0  0
   -4.0130   23.3770  -28.1760 C   0  0  0  0  0  0  0  0  0  0  0  0
   -4.3560   22.6740  -27.1870 O   0  0  0  0  0  0  0  0  0  0  0  0
   -2.8630   24.1820  -28.1190 C   0  0  0  0  0  0  0  0  0  0  0  0
   -2.0530   24.2210  -26.8800 C   0  0  0  0  0  0  0  0  0  0  0  0
   -2.0108   25.1659  -26.3184 H   0  0  0  0  0  0  0  0  0  0  0  0
   -1.3870   23.2010  -26.4160 N   0  0  0  0  0  0  0  0  0  0  0  0
   -1.2140   21.9160  -27.0410 C   0  0  0  0  0  0  0  0  0  0  0  0
   -1.6790   20.7500  -26.4040 C   0  0  0  0  0  0  0  0  0  0  0  0
   -2.1393   20.8217  -25.4075 H   0  0  0  0  0  0  0  0  0  0  0  0
   -1.5630   19.5060  -27.0210 C   0  0  0  0  0  0  0  0  0  0  0  0
   -1.9132   18.6006  -26.5037 H   0  0  0  0  0  0  0  0  0  0  0  0
   -1.0030   19.4090  -28.2940 C   0  0  0  0  0  0  0  0  0  0  0  0
   -0.9030   18.4256  -28.7766 H   0  0  0  0  0  0  0  0  0  0  0  0
   -0.5690   20.5580  -28.9570 C   0  0  0  0  0  0  0  0  0  0  0  0
   -0.1409   20.4730  -29.9667 H   0  0  0  0  0  0  0  0  0  0  0  0
   -0.6720   21.8250  -28.3500 C   0  0  0  0  0  0  0  0  0  0  0  0
   -0.2130   22.9890  -29.0710 N   0  0  0  0  0  0  0  0  0  0  0  0
    0.5940   23.7920  -28.5610 O   0  0  0  0  0  0  0  0  0  0  0  0
   -0.6170   23.2030  -30.3680 O   0  0  0  0  0  0  0  0  0  0  0  0
  1  2  1  0
  2  3  1  0
  3  4  1  0
  4  5  1  0
  5  6  2  0
  5  7  1  0
  7  8  1  0
  8  9  2  0
  8 10  1  0
 10 11  1  0
 11 12  1  0
 11 13  2  0
 13 14  1  0
 14 15  2  0
 15 16  1  0
 15 17  1  0
 17 18  1  0
 17 19  2  0
 19 20  1  0
 19 21  1  0
 21 22  1  0
 21 23  2  0
 23 24  1  0
 24 25  2  0
 24 26  1  0
 10  3  2  0
 23 14  1  0
M  CHG  4   4  -1   7  -1  24   1  26  -1
M  END
>  <UniqueID>  (22) 
20

>  <SMILES>  (22) 
O=c1[n-]c(O)c(/C=N\c2ccccc2[N+](=O)[O-])c(=O)[n-]1

>  <Energy>  (22) 
45.79311943726232

>  <Genealogy>  (22) 
O=c1[n-]c(O)c(C=Nc2ccccc2[N+](=O)[O-])c(=O)[n-]1 (protonated)
O=c1[n-]c(O)c(/C=N\c2ccccc2[N+](=O)[O-])c(=O)[n-]1 (cis-trans isomerization)
O=c1[n-]c(O)c(/C=N\c2ccccc2[N+](=O)[O-])c(=O)[n-]1 (3D coordinates assigned)
O=c1[n-]c(O)c(/C=N\c2ccccc2[N+](=O)[O-])c(=O)[n-]1 (optimized conformer: 45.79311943726232 kcal/mol)

>  <smiles>  (22) 
O=c1[nH]c(O)c(C=Nc2ccccc2[N+](=O)[O-])c(=O)[nH]1

>  <score_type>  (22) 
oracle

>  <origin>  (22) 
adgpu

>  <m_score__min__energy>  (22) 
-8.6400000000000006

>  <m_primary>  (22) 
energy

$$$$
22:0
     RDKit          3D

 36 37  0  0  0  0  0  0  0  0999 V2000
   -3.3470   23.7960  -27.7270 C   0  0  0  0  0  0  0  0  0  0  0  0
   -2.4510   24.5780  -29.0540 S   0  0  0  0  0  0  0  0  0  0  0  0
   -1.2930   23.7110  -29.4560 O   0  0  0  0  0  0  0  0  0  0  0  0
   -1.9360   25.9010  -28.5650 O   0  0  0  0  0  0  0  0  0  0  0  0
   -3.4900   24.8470  -30.4140 N   0  0  0  0  0  0  0  0  0  0  0  0
   -4.7240   24.1440  -30.5900 C   0  0  0  0  0  0  0  0  0  0  0  0
   -5.8970   24.7190  -30.0880 C   0  0  0  0  0  0  0  0  0  0  0  0
   -7.1130   24.0370  -30.1720 C   0  0  0  0  0  0  0  0  0  0  0  0
   -7.1650   22.7720  -30.7610 C   0  0  0  0  0  0  0  0  0  0  0  0
   -8.6910   21.9120  -30.8560 Cl  0  0  0  0  0  0  0  0  0  0  0  0
   -6.0040   22.1980  -31.2880 C   0  0  0  0  0  0  0  0  0  0  0  0
   -4.7800   22.8840  -31.2310 C   0  0  0  0  0  0  0  0  0  0  0  0
   -3.5920   22.2720  -31.8660 C   0  0  0  0  0  0  0  0  0  0  0  0
   -3.4990   22.3050  -33.1240 O   0  0  0  0  0  0  0  0  0  0  0  0
   -2.4960   21.6610  -31.0700 C   0  0  0  0  0  0  0  0  0  0  0  0
   -1.2090   21.4960  -31.6090 C   0  0  0  0  0  0  0  0  0  0  0  0
   -0.2030   20.9170  -30.8330 C   0  0  0  0  0  0  0  0  0  0  0  0
   -0.4690   20.5050  -29.5660 N   0  0  0  0  0  0  0  0  0  0  0  0
   -1.7060   20.6380  -29.0170 C   0  0  0  0  0  0  0  0  0  0  0  0
   -1.9970   20.0930  -27.3740 S   0  0  0  0  0  0  0  0  0  0  0  0
   -1.1720   18.5430  -27.0810 C   0  0  0  0  0  0  0  0  0  0  0  0
   -1.4710   21.1150  -26.4060 O   0  0  0  0  0  0  0  0  0  0  0  0
   -3.4730   19.9080  -27.1600 O   0  0  0  0  0  0  0  0  0  0  0  0
   -2.7420   21.2100  -29.7620 C   0  0  0  0  0  0  0  0  0  0  0  0
   -2.9495   24.1429  -26.7618 H   0  0  0  0  0  0  0  0  0  0  0  0
   -4.4129   24.0578  -27.8000 H   0  0  0  0  0  0  0  0  0  0  0  0
   -3.2317   22.7045  -27.8000 H   0  0  0  0  0  0  0  0  0  0  0  0
   -5.8610   25.7156  -29.6238 H   0  0  0  0  0  0  0  0  0  0  0  0
   -8.0298   24.4965  -29.7741 H   0  0  0  0  0  0  0  0  0  0  0  0
   -6.0498   21.2012  -31.7509 H   0  0  0  0  0  0  0  0  0  0  0  0
   -0.9949   21.8215  -32.6377 H   0  0  0  0  0  0  0  0  0  0  0  0
    0.8080   20.7941  -31.2487 H   0  0  0  0  0  0  0  0  0  0  0  0
   -1.0823   18.3744  -25.9977 H   0  0  0  0  0  0  0  0  0  0  0  0
   -1.7548   17.7264  -27.5321 H   0  0  0  0  0  0  0  0  0  0  0  0
   -0.1691   18.5704  -27.5321 H   0  0  0  0  0  0  0  0  0  0  0  0
   -3.7470   21.3067  -29.3253 H   0  0  0  0  0  0  0  0  0  0  0  0
  1  2  1  0
  2  3  2  0
  2  4  2  0
  2  5  1  0
  5  6  1  0
  6  7  2  0
  7  8  1  0
  8  9  2  0
  9 10  1  0
  9 11  1  0
 11 12  2  0
 12 13  1  0
 13 14  2  0
 13 15  1  0
 15 16  2  0
 16 17  1  0
 17 18  2  0
 18 19  1  0
 19 20  1  0
 20 21  1  0
 20 22  2  0
 20 23  2  0
 19 24  2  0
 12  6  1  0
 24 15  1  0
  1 25  1  0
  1 26  1  0
  1 27  1  0
  7 28  1  0
  8 29  1  0
 11 30  1  0
 16 31  1  0
 17 32  1  0
 21 33  1  0
 21 34  1  0
 21 35  1  0
 24 36  1  0
M  CHG  1   5  -1
M  END
>  <UniqueID>  (23) 
21

>  <SMILES>  (23) 
CS(=O)(=O)[N-]c1ccc(Cl)cc1C(=O)c1ccnc(S(C)(=O)=O)c1

>  <Energy>  (23) 
45.465709214710934

>  <Genealogy>  (23) 
CS(=O)(=O)[N-]c1ccc(Cl)cc1C(=O)c1ccnc(S(C)(=O)=O)c1 (protonated)
CS(=O)(=O)[N-]c1ccc(Cl)cc1C(=O)c1ccnc(S(C)(=O)=O)c1 (3D coordinates assigned)
CS(=O)(=O)[N-]c1ccc(Cl)cc1C(=O)c1ccnc(S(C)(=O)=O)c1 (optimized conformer: 45.465709214710934 kcal/mol)

>  <smiles>  (23) 
CS(=O)(=O)Nc1ccc(Cl)cc1C(=O)c1ccnc(S(C)(=O)=O)c1

>  <score_type>  (23) 
oracle

>  <origin>  (23) 
adgpu

>  <m_score__min__energy>  (23) 
-10.609999999999999

>  <m_primary>  (23) 
energy

$$$$
23:0
     RDKit          3D

 50 53  0  0  0  0  0  0  0  0999 V2000
   -3.1420   18.8980  -26.1000 C   0  0  0  0  0  0  0  0  0  0  0  0
   -1.9590   19.6770  -26.2480 O   0  0  0  0  0  0  0  0  0  0  0  0
   -1.6600   20.4580  -27.3740 C   0  0  0  0  0  0  0  0  0  0  0  0
   -0.8480   19.9880  -28.4260 C   0  0  0  0  0  0  0  0  0  0  0  0
   -0.5870   20.8030  -29.5300 C   0  0  0  0  0  0  0  0  0  0  0  0
   -1.1240   22.0900  -29.5970 C   0  0  0  0  0  0  0  0  0  0  0  0
   -1.9220   22.5770  -28.5510 C   0  0  0  0  0  0  0  0  0  0  0  0
   -2.5330   23.9480  -28.6390 C   0  0  0  0  0  0  0  0  0  0  0  0
   -3.6720   23.9350  -29.6050 C   0  0  0  0  0  0  0  0  0  0  0  0
   -4.5960   22.9580  -29.6660 N   0  0  0  0  0  0  0  0  0  0  0  0
   -5.3650   23.3810  -30.6930 C   0  0  0  0  0  0  0  0  0  0  0  0
   -6.5510   22.6520  -31.1880 C   0  0  0  0  0  0  0  0  0  0  0  0
   -7.7380   23.3410  -31.4900 C   0  0  0  0  0  0  0  0  0  0  0  0
   -8.8570   22.6490  -31.9580 C   0  0  0  0  0  0  0  0  0  0  0  0
   -8.8070   21.2640  -32.1250 C   0  0  0  0  0  0  0  0  0  0  0  0
   -7.6340   20.5600  -31.8210 C   0  0  0  0  0  0  0  0  0  0  0  0
   -7.5770   18.8040  -32.0130 S   0  0  0  0  0  0  0  0  0  0  0  0
   -8.9750   18.2540  -31.9610 O   0  0  0  0  0  0  0  0  0  0  0  0
   -6.7990   18.2070  -30.8730 O   0  0  0  0  0  0  0  0  0  0  0  0
   -6.8260   18.3450  -33.5240 N   0  0  0  0  0  0  0  0  0  0  0  0
   -5.4700   18.9160  -33.6210 C   0  0  0  0  0  0  0  0  0  0  0  0
   -4.6280   18.1400  -34.6480 C   0  0  0  0  0  0  0  0  0  0  0  0
   -4.4630   16.7610  -34.3390 O   0  0  0  0  0  0  0  0  0  0  0  0
   -5.4770   16.2370  -33.4940 C   0  0  0  0  0  0  0  0  0  0  0  0
   -6.8560   16.8800  -33.7270 C   0  0  0  0  0  0  0  0  0  0  0  0
   -6.5080   21.2570  -31.3610 C   0  0  0  0  0  0  0  0  0  0  0  0
   -4.9230   24.5430  -31.2190 N   0  0  0  0  0  0  0  0  0  0  0  0
   -3.8740   24.8500  -30.5200 O   0  0  0  0  0  0  0  0  0  0  0  0
   -2.1940   21.7510  -27.4490 C   0  0  0  0  0  0  0  0  0  0  0  0
   -3.3566   18.7567  -25.0304 H   0  0  0  0  0  0  0  0  0  0  0  0
   -3.9855   19.4179  -26.5776 H   0  0  0  0  0  0  0  0  0  0  0  0
   -2.9976   17.9177  -26.5776 H   0  0  0  0  0  0  0  0  0  0  0  0
   -0.4186   18.9764  -28.3774 H   0  0  0  0  0  0  0  0  0  0  0  0
    0.0441   20.4293  -30.3498 H   0  0  0  0  0  0  0  0  0  0  0  0
   -0.9208   22.7241  -30.4726 H   0  0  0  0  0  0  0  0  0  0  0  0
   -2.8998   24.2484  -27.6464 H   0  0  0  0  0  0  0  0  0  0  0  0
   -1.7719   24.6625  -28.9856 H   0  0  0  0  0  0  0  0  0  0  0  0
   -7.7859   24.4319  -31.3569 H   0  0  0  0  0  0  0  0  0  0  0  0
   -9.7807   23.1970  -32.1958 H   0  0  0  0  0  0  0  0  0  0  0  0
   -9.6905   20.7239  -32.4961 H   0  0  0  0  0  0  0  0  0  0  0  0
   -5.5423   19.9681  -33.9338 H   0  0  0  0  0  0  0  0  0  0  0  0
   -4.9837   18.8442  -32.6369 H   0  0  0  0  0  0  0  0  0  0  0  0
   -5.1205   18.2180  -35.6285 H   0  0  0  0  0  0  0  0  0  0  0  0
   -3.6241   18.5896  -34.6406 H   0  0  0  0  0  0  0  0  0  0  0  0
   -5.5604   15.1557  -33.6778 H   0  0  0  0  0  0  0  0  0  0  0  0
   -5.1846   16.4598  -32.4573 H   0  0  0  0  0  0  0  0  0  0  0  0
   -7.1756   16.6709  -34.7586 H   0  0  0  0  0  0  0  0  0  0  0  0
   -7.5587   16.4504  -32.9979 H   0  0  0  0  0  0  0  0  0  0  0  0
   -5.5825   20.7078  -31.1333 H   0  0  0  0  0  0  0  0  0  0  0  0
   -2.8337   22.1232  -26.6352 H   0  0  0  0  0  0  0  0  0  0  0  0
  1  2  1  0
  2  3  1  0
  3  4  2  0
  4  5  1  0
  5  6  2  0
  6  7  1  0
  7  8  1  0
  8  9  1  0
  9 10  2  0
 10 11  1  0
 11 12  1  0
 12 13  2  0
 13 14  1  0
 14 15  2  0
 15 16  1  0
 16 17  1  0
 17 18  2  0
 17 19  2  0
 17 20  1  0
 20 21  1  0
 21 22  1  0
 22 23  1  0
 23 24  1  0
 24 25  1  0
 16 26  2  0
 11 27  2  0
 27 28  1  0
  7 29  2  0
 29  3  1  0
 28  9  1  0
 26 12  1  0
 25 20  1  0
  1 30  1  0
  1 31  1  0
  1 32  1  0
  4 33  1  0
  5 34  1  0
  6 35  1  0
  8 36  1  0
  8 37  1  0
 13 38  1  0
 14 39  1  0
 15 40  1  0
 21 41  1  0
 21 42  1  0
 22 43  1  0
 22 44  1  0
 24 45  1  0
 24 46  1  0
 25 47  1  0
 25 48  1  0
 26 49  1  0
 29 50  1  0
M  END
>  <UniqueID>  (24) 
22

>  <SMILES>  (24) 
COc1cccc(Cc2nc(-c3cccc(S(=O)(=O)N4CCOCC4)c3)no2)c1

>  <Energy>  (24) 
95.62092598460292

>  <Genealogy>  (24) 
COc1cccc(Cc2nc(-c3cccc(S(=O)(=O)N4CCOCC4)c3)no2)c1 (3D coordinates assigned)
COc1cccc(Cc2nc(-c3cccc(S(=O)(=O)N4CCOCC4)c3)no2)c1 (nonaromatic ring conformer: 95.62092598460292 kcal/mol)

>  <smiles>  (24) 
COc1cccc(Cc2nc(-c3cccc(S(=O)(=O)N4CCOCC4)c3)no2)c1

>  <score_type>  (24) 
oracle

>  <origin>  (24) 
adgpu

>  <m_score__min__energy>  (24) 
-10.539999999999999

>  <m_primary>  (24) 
energy

$$$$
24:0
     RDKit          3D

 49 52  0  0  0  0  0  0  0  0999 V2000
   -0.1730   21.2260  -31.7290 O   0  0  0  0  0  0  0  0  0  0  0  0
   -1.1940   20.9310  -31.0520 C   0  0  0  0  0  0  0  0  0  0  0  0
   -1.0140   20.3000  -29.7770 N   0  0  0  0  0  0  0  0  0  0  0  0
   -0.8130   20.9760  -28.5260 C   0  0  0  0  0  0  0  0  0  0  0  0
   -0.0460   22.1470  -28.5040 C   0  0  0  0  0  0  0  0  0  0  0  0
    0.1540   22.8360  -27.3050 C   0  0  0  0  0  0  0  0  0  0  0  0
   -0.4020   22.3560  -26.1110 C   0  0  0  0  0  0  0  0  0  0  0  0
   -0.1690   23.2400  -24.5990 S   0  0  0  0  0  0  0  0  0  0  0  0
   -0.5320   22.3430  -23.4470 O   0  0  0  0  0  0  0  0  0  0  0  0
    1.2820   23.6050  -24.4630 O   0  0  0  0  0  0  0  0  0  0  0  0
   -1.1320   24.6950  -24.5120 N   0  0  0  0  0  0  0  0  0  0  0  0
   -0.4820   25.7390  -23.7230 C   0  0  0  0  0  0  0  0  0  0  0  0
   -1.0370   27.0640  -24.2220 C   0  0  0  0  0  0  0  0  0  0  0  0
   -1.6080   26.7670  -25.6020 C   0  0  0  0  0  0  0  0  0  0  0  0
   -1.3580   25.2850  -25.8310 C   0  0  0  0  0  0  0  0  0  0  0  0
   -1.1320   21.1590  -26.1250 C   0  0  0  0  0  0  0  0  0  0  0  0
   -1.3340   20.4700  -27.3240 C   0  0  0  0  0  0  0  0  0  0  0  0
   -2.5360   21.2890  -31.5690 C   0  0  0  0  0  0  0  0  0  0  0  0
   -3.0940   20.5990  -32.6590 C   0  0  0  0  0  0  0  0  0  0  0  0
   -4.3580   20.9440  -33.1410 C   0  0  0  0  0  0  0  0  0  0  0  0
   -5.0830   21.9730  -32.5370 C   0  0  0  0  0  0  0  0  0  0  0  0
   -4.5510   22.6660  -31.4380 C   0  0  0  0  0  0  0  0  0  0  0  0
   -5.2970   23.7260  -30.8150 N   0  0  0  0  0  0  0  0  0  0  0  0
   -4.8170   24.9010  -30.3570 C   0  0  0  0  0  0  0  0  0  0  0  0
   -3.4850   25.2910  -30.4440 O   0  0  0  0  0  0  0  0  0  0  0  0
   -5.8250   25.6740  -29.8170 C   0  0  0  0  0  0  0  0  0  0  0  0
   -6.9870   24.9370  -29.9500 C   0  0  0  0  0  0  0  0  0  0  0  0
   -6.6220   23.7520  -30.5620 C   0  0  0  0  0  0  0  0  0  0  0  0
   -7.4940   22.7080  -30.8610 O   0  0  0  0  0  0  0  0  0  0  0  0
   -3.2780   22.3130  -30.9560 C   0  0  0  0  0  0  0  0  0  0  0  0
    0.4011   22.5263  -29.4347 H   0  0  0  0  0  0  0  0  0  0  0  0
    0.7509   23.7599  -27.2979 H   0  0  0  0  0  0  0  0  0  0  0  0
   -0.7126   25.6080  -22.6555 H   0  0  0  0  0  0  0  0  0  0  0  0
    0.6118   25.6986  -23.8328 H   0  0  0  0  0  0  0  0  0  0  0  0
   -1.8267   27.4289  -23.5488 H   0  0  0  0  0  0  0  0  0  0  0  0
   -0.2632   27.8450  -24.2580 H   0  0  0  0  0  0  0  0  0  0  0  0
   -2.6861   26.9840  -25.6275 H   0  0  0  0  0  0  0  0  0  0  0  0
   -1.1394   27.3864  -26.3810 H   0  0  0  0  0  0  0  0  0  0  0  0
   -2.2329   24.8213  -26.3102 H   0  0  0  0  0  0  0  0  0  0  0  0
   -0.4942   25.1242  -26.4928 H   0  0  0  0  0  0  0  0  0  0  0  0
   -1.5477   20.7603  -25.1878 H   0  0  0  0  0  0  0  0  0  0  0  0
   -1.9028   19.5285  -27.3263 H   0  0  0  0  0  0  0  0  0  0  0  0
   -2.5315   19.7824  -33.1351 H   0  0  0  0  0  0  0  0  0  0  0  0
   -4.7840   20.4035  -33.9992 H   0  0  0  0  0  0  0  0  0  0  0  0
   -6.0767   22.2423  -32.9244 H   0  0  0  0  0  0  0  0  0  0  0  0
   -5.7241   26.6744  -29.3709 H   0  0  0  0  0  0  0  0  0  0  0  0
   -7.9978   25.2334  -29.6330 H   0  0  0  0  0  0  0  0  0  0  0  0
   -7.4970   21.8590  -30.3090 H   0  0  0  0  0  0  0  0  0  0  0  0
   -2.8582   22.8445  -30.0892 H   0  0  0  0  0  0  0  0  0  0  0  0
  1  2  2  0
  2  3  1  0
  3  4  1  0
  4  5  2  0
  5  6  1  0
  6  7  2  0
  7  8  1  0
  8  9  2  0
  8 10  2  0
  8 11  1  0
 11 12  1  0
 12 13  1  0
 13 14  1  0
 14 15  1  0
  7 16  1  0
 16 17  2  0
  2 18  1  0
 18 19  2  0
 19 20  1  0
 20 21  2  0
 21 22  1  0
 22 23  1  0
 23 24  1  0
 24 25  1  0
 24 26  2  0
 26 27  1  0
 27 28  2  0
 28 29  1  0
 22 30  2  0
 17  4  1  0
 30 18  1  0
 15 11  1  0
 28 23  1  0
  5 31  1  0
  6 32  1  0
 12 33  1  0
 12 34  1  0
 13 35  1  0
 13 36  1  0
 14 37  1  0
 14 38  1  0
 15 39  1  0
 15 40  1  0
 16 41  1  0
 17 42  1  0
 19 43  1  0
 20 44  1  0
 21 45  1  0
 26 46  1  0
 27 47  1  0
 29 48  1  0
 30 49  1  0
M  CHG  2   3  -1  25  -1
M  END
>  <UniqueID>  (25) 
23

>  <SMILES>  (25) 
O=C([N-]c1ccc(S(=O)(=O)N2CCCC2)cc1)c1cccc(-n2c([O-])ccc2O)c1

>  <Energy>  (25) 
92.42623908384964

>  <Genealogy>  (25) 
O=C([N-]c1ccc(S(=O)(=O)N2CCCC2)cc1)c1cccc(-n2c([O-])ccc2O)c1 (protonated)
O=C([N-]c1ccc(S(=O)(=O)N2CCCC2)cc1)c1cccc(-n2c([O-])ccc2O)c1 (3D coordinates assigned)
O=C([N-]c1ccc(S(=O)(=O)N2CCCC2)cc1)c1cccc(-n2c([O-])ccc2O)c1 (nonaromatic ring conformer: 92.42623908384964 kcal/mol)

>  <smiles>  (25) 
O=C(Nc1ccc(S(=O)(=O)N2CCCC2)cc1)c1cccc(-n2c(O)ccc2O)c1

>  <score_type>  (25) 
oracle

>  <origin>  (25) 
adgpu

>  <m_score__min__energy>  (25) 
-11.890000000000001

>  <m_primary>  (25) 
energy

$$$$
25:0
     RDKit          3D

 47 49  0  0  0  0  0  0  0  0999 V2000
   -5.9220   25.8010  -31.5810 O   0  0  0  0  0  0  0  0  0  0  0  0
   -5.7060   24.7590  -30.5210 S   0  0  0  0  0  0  0  0  0  0  0  0
   -6.3320   25.2270  -29.2370 O   0  0  0  0  0  0  0  0  0  0  0  0
   -4.0000   24.5300  -30.2830 N   0  0  0  0  0  0  0  0  0  0  0  0
   -3.6890   24.5540  -28.8560 C   0  0  0  0  0  0  0  0  0  0  0  0
   -2.3230   23.9670  -28.6400 C   0  0  0  0  0  0  0  0  0  0  0  0
   -2.1930   22.6550  -28.1540 C   0  0  0  0  0  0  0  0  0  0  0  0
   -0.9280   22.1110  -27.9170 C   0  0  0  0  0  0  0  0  0  0  0  0
    0.2170   22.8740  -28.1550 C   0  0  0  0  0  0  0  0  0  0  0  0
    0.1000   24.1850  -28.6230 C   0  0  0  0  0  0  0  0  0  0  0  0
   -1.1640   24.7370  -28.8610 C   0  0  0  0  0  0  0  0  0  0  0  0
   -1.2580   26.0490  -29.3140 O   0  0  0  0  0  0  0  0  0  0  0  0
   -6.4430   23.2470  -31.0440 C   0  0  0  0  0  0  0  0  0  0  0  0
   -6.1690   22.7190  -32.3130 C   0  0  0  0  0  0  0  0  0  0  0  0
   -6.7730   21.5270  -32.7240 C   0  0  0  0  0  0  0  0  0  0  0  0
   -7.6590   20.8550  -31.8710 C   0  0  0  0  0  0  0  0  0  0  0  0
   -8.4360   19.3610  -32.3830 S   0  0  0  0  0  0  0  0  0  0  0  0
   -9.4270   19.6810  -33.4680 O   0  0  0  0  0  0  0  0  0  0  0  0
   -9.1600   18.7360  -31.2210 O   0  0  0  0  0  0  0  0  0  0  0  0
   -7.2320   18.2470  -32.9850 N   0  0  0  0  0  0  0  0  0  0  0  0
   -6.4440   18.8550  -34.0880 C   0  0  0  0  0  0  0  0  0  0  0  0
   -5.0510   19.3240  -33.6450 C   0  0  0  0  0  0  0  0  0  0  0  0
   -4.2320   18.1610  -33.0590 C   0  0  0  0  0  0  0  0  0  0  0  0
   -5.1110   17.1100  -32.3560 C   0  0  0  0  0  0  0  0  0  0  0  0
   -6.4210   17.7300  -31.8600 C   0  0  0  0  0  0  0  0  0  0  0  0
   -7.9210   21.3760  -30.5960 C   0  0  0  0  0  0  0  0  0  0  0  0
   -7.3160   22.5660  -30.1850 C   0  0  0  0  0  0  0  0  0  0  0  0
   -3.7052   25.5922  -28.4930 H   0  0  0  0  0  0  0  0  0  0  0  0
   -4.4366   23.9653  -28.3041 H   0  0  0  0  0  0  0  0  0  0  0  0
   -3.0925   22.0526  -27.9590 H   0  0  0  0  0  0  0  0  0  0  0  0
   -0.8340   21.0809  -27.5427 H   0  0  0  0  0  0  0  0  0  0  0  0
    1.2123   22.4422  -27.9737 H   0  0  0  0  0  0  0  0  0  0  0  0
    1.0037   24.7851  -28.8050 H   0  0  0  0  0  0  0  0  0  0  0  0
   -5.4767   23.2440  -32.9876 H   0  0  0  0  0  0  0  0  0  0  0  0
   -6.5522   21.1153  -33.7199 H   0  0  0  0  0  0  0  0  0  0  0  0
   -6.3244   18.1076  -34.8862 H   0  0  0  0  0  0  0  0  0  0  0  0
   -6.9943   19.7424  -34.4340 H   0  0  0  0  0  0  0  0  0  0  0  0
   -4.5178   19.7358  -34.5146 H   0  0  0  0  0  0  0  0  0  0  0  0
   -5.1734   20.0908  -32.8659 H   0  0  0  0  0  0  0  0  0  0  0  0
   -3.6827   17.6706  -33.8762 H   0  0  0  0  0  0  0  0  0  0  0  0
   -3.5500   18.5816  -32.3053 H   0  0  0  0  0  0  0  0  0  0  0  0
   -5.3420   16.3019  -33.0657 H   0  0  0  0  0  0  0  0  0  0  0  0
   -4.5600   16.7169  -31.4889 H   0  0  0  0  0  0  0  0  0  0  0  0
   -6.9997   16.9634  -31.3239 H   0  0  0  0  0  0  0  0  0  0  0  0
   -6.1766   18.5704  -31.1937 H   0  0  0  0  0  0  0  0  0  0  0  0
   -8.6052   20.8459  -29.9171 H   0  0  0  0  0  0  0  0  0  0  0  0
   -7.5256   22.9700  -29.1836 H   0  0  0  0  0  0  0  0  0  0  0  0
  1  2  2  0
  2  3  2  0
  2  4  1  0
  4  5  1  0
  5  6  1  0
  6  7  2  0
  7  8  1  0
  8  9  2  0
  9 10  1  0
 10 11  2  0
 11 12  1  0
  2 13  1  0
 13 14  2  0
 14 15  1  0
 15 16  2  0
 16 17  1  0
 17 18  2  0
 17 19  2  0
 17 20  1  0
 20 21  1  0
 21 22  1  0
 22 23  1  0
 23 24  1  0
 24 25  1  0
 16 26  1  0
 26 27  2  0
 11  6  1  0
 27 13  1  0
 25 20  1  0
  5 28  1  0
  5 29  1  0
  7 30  1  0
  8 31  1  0
  9 32  1  0
 10 33  1  0
 14 34  1  0
 15 35  1  0
 21 36  1  0
 21 37  1  0
 22 38  1  0
 22 39  1  0
 23 40  1  0
 23 41  1  0
 24 42  1  0
 24 43  1  0
 25 44  1  0
 25 45  1  0
 26 46  1  0
 27 47  1  0
M  CHG  2   4  -1  12  -1
M  END
>  <UniqueID>  (26) 
24

>  <SMILES>  (26) 
O=S(=O)([N-]Cc1ccccc1[O-])c1ccc(S(=O)(=O)N2CCCCC2)cc1

>  <Energy>  (26) 
51.295120367144456

>  <Genealogy>  (26) 
O=S(=O)([N-]Cc1ccccc1[O-])c1ccc(S(=O)(=O)N2CCCCC2)cc1 (protonated)
O=S(=O)([N-]Cc1ccccc1[O-])c1ccc(S(=O)(=O)N2CCCCC2)cc1 (3D coordinates assigned)
O=S(=O)([N-]Cc1ccccc1[O-])c1ccc(S(=O)(=O)N2CCCCC2)cc1 (nonaromatic ring conformer: 51.295120367144456 kcal/mol)

>  <smiles>  (26) 
O=S(=O)(NCc1ccccc1O)c1ccc(S(=O)(=O)N2CCCCC2)cc1

>  <score_type>  (26) 
oracle

>  <origin>  (26) 
adgpu

>  <m_score__min__energy>  (26) 
-14.1

>  <m_primary>  (26) 
energy

$$$$
26:0
     RDKit          3D

 55 57  0  0  0  0  0  0  0  0999 V2000
   -6.1140   17.5780  -30.9980 C   0  0  0  0  0  0  0  0  0  0  0  0
   -6.5020   17.0940  -32.3230 N   0  0  0  0  0  0  0  0  0  0  0  0
   -7.1770   18.1570  -33.0770 C   0  0  0  0  0  0  0  0  0  0  0  0
   -8.3840   18.6900  -32.2960 C   0  0  0  0  0  0  0  0  0  0  0  0
   -8.2870   20.1770  -32.0820 C   0  0  0  0  0  0  0  0  0  0  0  0
   -9.4160   20.9120  -31.6880 C   0  0  0  0  0  0  0  0  0  0  0  0
   -9.3270   22.2940  -31.5060 C   0  0  0  0  0  0  0  0  0  0  0  0
   -8.1150   22.9540  -31.7160 C   0  0  0  0  0  0  0  0  0  0  0  0
   -6.9770   22.2340  -32.1100 C   0  0  0  0  0  0  0  0  0  0  0  0
   -5.6610   22.9410  -32.3110 C   0  0  0  0  0  0  0  0  0  0  0  0
   -4.5890   22.2880  -31.5400 N   0  0  0  0  0  0  0  0  0  0  0  0
   -4.3750   22.5930  -30.1430 C   0  0  0  0  0  0  0  0  0  0  0  0
   -5.3210   22.4700  -29.3180 O   0  0  0  0  0  0  0  0  0  0  0  0
   -3.0610   23.0260  -29.6410 C   0  0  0  0  0  0  0  0  0  0  0  0
   -2.2120   22.1040  -29.0110 C   0  0  0  0  0  0  0  0  0  0  0  0
   -0.9770   22.5220  -28.5040 C   0  0  0  0  0  0  0  0  0  0  0  0
   -0.5820   23.8580  -28.6300 C   0  0  0  0  0  0  0  0  0  0  0  0
    0.6430   24.2700  -28.1190 O   0  0  0  0  0  0  0  0  0  0  0  0
   -1.4180   24.7770  -29.2690 C   0  0  0  0  0  0  0  0  0  0  0  0
   -2.6560   24.3650  -29.7760 C   0  0  0  0  0  0  0  0  0  0  0  0
   -3.4830   25.2950  -30.3990 O   0  0  0  0  0  0  0  0  0  0  0  0
   -3.6960   21.3760  -32.2090 C   0  0  0  0  0  0  0  0  0  0  0  0
   -2.3630   21.7390  -32.4420 C   0  0  0  0  0  0  0  0  0  0  0  0
   -1.4990   20.8630  -33.0990 C   0  0  0  0  0  0  0  0  0  0  0  0
   -1.9570   19.6190  -33.5340 C   0  0  0  0  0  0  0  0  0  0  0  0
   -3.2940   19.2320  -33.3170 C   0  0  0  0  0  0  0  0  0  0  0  0
   -3.7710   17.9060  -33.7960 C   0  0  0  0  0  0  0  0  0  0  0  0
   -4.5830   17.7610  -35.0490 C   0  0  0  0  0  0  0  0  0  0  0  0
   -3.4920   16.8660  -33.1410 O   0  0  0  0  0  0  0  0  0  0  0  0
   -4.1550   20.1220  -32.6460 C   0  0  0  0  0  0  0  0  0  0  0  0
   -7.0750   20.8460  -32.3120 C   0  0  0  0  0  0  0  0  0  0  0  0
   -6.6042   16.9665  -30.2262 H   0  0  0  0  0  0  0  0  0  0  0  0
   -5.0222   17.5039  -30.8858 H   0  0  0  0  0  0  0  0  0  0  0  0
   -6.4238   18.6275  -30.8858 H   0  0  0  0  0  0  0  0  0  0  0  0
   -5.6240   16.8380  -32.8340 H   0  0  0  0  0  0  0  0  0  0  0  0
   -6.4690   18.9800  -33.2541 H   0  0  0  0  0  0  0  0  0  0  0  0
   -7.5283   17.7444  -34.0343 H   0  0  0  0  0  0  0  0  0  0  0  0
   -9.3017   18.4689  -32.8608 H   0  0  0  0  0  0  0  0  0  0  0  0
   -8.4034   18.1993  -31.3117 H   0  0  0  0  0  0  0  0  0  0  0  0
  -10.3742   20.3979  -31.5220 H   0  0  0  0  0  0  0  0  0  0  0  0
  -10.2151   22.8643  -31.1961 H   0  0  0  0  0  0  0  0  0  0  0  0
   -8.0519   24.0427  -31.5720 H   0  0  0  0  0  0  0  0  0  0  0  0
   -5.4003   22.9194  -33.3794 H   0  0  0  0  0  0  0  0  0  0  0  0
   -5.7630   23.9787  -31.9607 H   0  0  0  0  0  0  0  0  0  0  0  0
   -2.5176   21.0516  -28.9156 H   0  0  0  0  0  0  0  0  0  0  0  0
   -0.3152   21.7986  -28.0053 H   0  0  0  0  0  0  0  0  0  0  0  0
   -1.1030   25.8257  -29.3738 H   0  0  0  0  0  0  0  0  0  0  0  0
   -1.9960   22.7197  -32.1051 H   0  0  0  0  0  0  0  0  0  0  0  0
   -0.4529   21.1540  -33.2748 H   0  0  0  0  0  0  0  0  0  0  0  0
   -1.2682   18.9346  -34.0508 H   0  0  0  0  0  0  0  0  0  0  0  0
   -5.6342   17.5733  -34.7850 H   0  0  0  0  0  0  0  0  0  0  0  0
   -4.5130   18.6859  -35.6404 H   0  0  0  0  0  0  0  0  0  0  0  0
   -4.1972   16.9175  -35.6404 H   0  0  0  0  0  0  0  0  0  0  0  0
   -5.1999   19.8317  -32.4618 H   0  0  0  0  0  0  0  0  0  0  0  0
   -6.1953   20.2804  -32.6528 H   0  0  0  0  0  0  0  0  0  0  0  0
  1  2  1  0
  2  3  1  0
  3  4  1  0
  4  5  1  0
  5  6  2  0
  6  7  1  0
  7  8  2  0
  8  9  1  0
  9 10  1  0
 10 11  1  0
 11 12  1  0
 12 13  2  0
 12 14  1  0
 14 15  2  0
 15 16  1  0
 16 17  2  0
 17 18  1  0
 17 19  1  0
 19 20  2  0
 20 21  1  0
 11 22  1  0
 22 23  2  0
 23 24  1  0
 24 25  2  0
 25 26  1  0
 26 27  1  0
 27 28  1  0
 27 29  2  0
 26 30  2  0
  9 31  2  0
 31  5  1  0
 20 14  1  0
 30 22  1  0
  1 32  1  0
  1 33  1  0
  1 34  1  0
  2 35  1  0
  3 36  1  0
  3 37  1  0
  4 38  1  0
  4 39  1  0
  6 40  1  0
  7 41  1  0
  8 42  1  0
 10 43  1  0
 10 44  1  0
 15 45  1  0
 16 46  1  0
 19 47  1  0
 23 48  1  0
 24 49  1  0
 25 50  1  0
 28 51  1  0
 28 52  1  0
 28 53  1  0
 30 54  1  0
 31 55  1  0
M  CHG  2  18  -1  21  -1
M  END
>  <UniqueID>  (27) 
25

>  <SMILES>  (27) 
CNCCc1cccc(CN(C(=O)c2ccc([O-])cc2[O-])c2cccc(C(C)=O)c2)c1

>  <Energy>  (27) 
62.498593458350896

>  <Genealogy>  (27) 
CNCCc1cccc(CN(C(=O)c2ccc([O-])cc2[O-])c2cccc(C(C)=O)c2)c1 (protonated)
CNCCc1cccc(CN(C(=O)c2ccc([O-])cc2[O-])c2cccc(C(C)=O)c2)c1 (3D coordinates assigned)
CNCCc1cccc(CN(C(=O)c2ccc([O-])cc2[O-])c2cccc(C(C)=O)c2)c1 (optimized conformer: 62.498593458350896 kcal/mol)

>  <smiles>  (27) 
CNCCc1cccc(CN(C(=O)c2ccc(O)cc2O)c2cccc(C(C)=O)c2)c1

>  <score_type>  (27) 
oracle

>  <origin>  (27) 
adgpu

>  <m_score__min__energy>  (27) 
-13.17

>  <m_primary>  (27) 
energy

$$$$
27:0
     RDKit          3D

 44 46  0  0  0  0  0  0  0  0999 V2000
   -4.0690   20.3990  -33.4230 C   0  0  0  0  0  0  0  0  0  0  0  0
   -5.1790   19.5810  -33.7770 O   0  0  0  0  0  0  0  0  0  0  0  0
   -5.1290   18.1830  -33.8970 C   0  0  0  0  0  0  0  0  0  0  0  0
   -3.9290   17.4990  -34.1770 C   0  0  0  0  0  0  0  0  0  0  0  0
   -3.9220   16.1070  -34.2890 C   0  0  0  0  0  0  0  0  0  0  0  0
   -5.1050   15.3830  -34.1290 C   0  0  0  0  0  0  0  0  0  0  0  0
   -6.2990   16.0510  -33.8510 C   0  0  0  0  0  0  0  0  0  0  0  0
   -6.3140   17.4460  -33.7290 C   0  0  0  0  0  0  0  0  0  0  0  0
   -7.5390   18.1100  -33.4180 N   0  0  0  0  0  0  0  0  0  0  0  0
   -7.8660   18.6430  -31.8040 S   0  0  0  0  0  0  0  0  0  0  0  0
   -9.2270   18.1620  -31.3890 O   0  0  0  0  0  0  0  0  0  0  0  0
   -6.8490   18.0540  -30.8660 O   0  0  0  0  0  0  0  0  0  0  0  0
   -7.8000   20.4040  -31.7420 C   0  0  0  0  0  0  0  0  0  0  0  0
   -6.5720   21.0380  -31.4990 C   0  0  0  0  0  0  0  0  0  0  0  0
   -6.4730   22.4400  -31.5330 C   0  0  0  0  0  0  0  0  0  0  0  0
   -5.2230   23.1100  -31.3070 N   0  0  0  0  0  0  0  0  0  0  0  0
   -5.1070   24.4400  -30.7700 C   0  0  0  0  0  0  0  0  0  0  0  0
   -6.1270   25.1570  -30.6020 O   0  0  0  0  0  0  0  0  0  0  0  0
   -3.8190   24.9900  -30.4670 N   0  0  0  0  0  0  0  0  0  0  0  0
   -3.0950   24.7550  -29.4080 C   0  0  0  0  0  0  0  0  0  0  0  0
   -3.5700   23.9990  -28.3150 C   0  0  0  0  0  0  0  0  0  0  0  0
   -2.7440   23.8010  -27.2070 C   0  0  0  0  0  0  0  0  0  0  0  0
   -1.4660   24.3570  -27.1830 C   0  0  0  0  0  0  0  0  0  0  0  0
   -1.0320   25.1160  -28.2700 C   0  0  0  0  0  0  0  0  0  0  0  0
   -1.8480   25.2980  -29.3420 N   0  0  0  0  0  0  0  0  0  0  0  0
   -7.6290   23.2020  -31.7560 C   0  0  0  0  0  0  0  0  0  0  0  0
   -8.8530   22.5750  -31.9980 C   0  0  0  0  0  0  0  0  0  0  0  0
   -8.9400   21.1800  -32.0050 C   0  0  0  0  0  0  0  0  0  0  0  0
  -10.1320   20.5960  -32.2820 F   0  0  0  0  0  0  0  0  0  0  0  0
   -3.9907   20.4567  -32.3273 H   0  0  0  0  0  0  0  0  0  0  0  0
   -3.1465   19.9632  -33.8341 H   0  0  0  0  0  0  0  0  0  0  0  0
   -4.2121   21.4092  -33.8341 H   0  0  0  0  0  0  0  0  0  0  0  0
   -2.9942   18.0638  -34.3078 H   0  0  0  0  0  0  0  0  0  0  0  0
   -2.9812   15.5792  -34.5040 H   0  0  0  0  0  0  0  0  0  0  0  0
   -5.0963   14.2870  -34.2219 H   0  0  0  0  0  0  0  0  0  0  0  0
   -7.2309   15.4798  -33.7274 H   0  0  0  0  0  0  0  0  0  0  0  0
   -5.6796   20.4332  -31.2801 H   0  0  0  0  0  0  0  0  0  0  0  0
   -4.3480   22.5530  -31.4300 H   0  0  0  0  0  0  0  0  0  0  0  0
   -4.5824   23.5694  -28.3359 H   0  0  0  0  0  0  0  0  0  0  0  0
   -3.1016   23.2065  -26.3533 H   0  0  0  0  0  0  0  0  0  0  0  0
   -0.8070   24.1990  -26.3165 H   0  0  0  0  0  0  0  0  0  0  0  0
   -0.0290   25.5675  -28.2597 H   0  0  0  0  0  0  0  0  0  0  0  0
   -7.5712   24.3004  -31.7402 H   0  0  0  0  0  0  0  0  0  0  0  0
   -9.7520   23.1811  -32.1838 H   0  0  0  0  0  0  0  0  0  0  0  0
  1  2  1  0
  2  3  1  0
  3  4  2  0
  4  5  1  0
  5  6  2  0
  6  7  1  0
  7  8  2  0
  8  9  1  0
  9 10  1  0
 10 11  2  0
 10 12  2  0
 10 13  1  0
 13 14  2  0
 14 15  1  0
 15 16  1  0
 16 17  1  0
 17 18  2  0
 17 19  1  0
 19 20  2  3
 20 21  1  0
 21 22  2  0
 22 23  1  0
 23 24  2  0
 24 25  1  0
 15 26  2  0
 26 27  1  0
 27 28  2  0
 28 29  1  0
  8  3  1  0
 28 13  1  0
 25 20  1  0
  1 30  1  0
  1 31  1  0
  1 32  1  0
  4 33  1  0
  5 34  1  0
  6 35  1  0
  7 36  1  0
 14 37  1  0
 16 38  1  0
 21 39  1  0
 22 40  1  0
 23 41  1  0
 24 42  1  0
 26 43  1  0
 27 44  1  0
M  CHG  2   9  -1  25  -1
M  END
>  <UniqueID>  (28) 
26

>  <SMILES>  (28) 
COc1ccccc1[N-]S(=O)(=O)c1cc(NC(=O)N=c2cccc[n-]2)ccc1F

>  <Energy>  (28) 
66.72216748941973

>  <Genealogy>  (28) 
COc1ccccc1[N-]S(=O)(=O)c1cc(NC(=O)N=c2cccc[n-]2)ccc1F (protonated)
COc1ccccc1[N-]S(=O)(=O)c1cc(NC(=O)N=c2cccc[n-]2)ccc1F (3D coordinates assigned)
COc1ccccc1[N-]S(=O)(=O)c1cc(NC(=O)N=c2cccc[n-]2)ccc1F (optimized conformer: 66.72216748941973 kcal/mol)

>  <smiles>  (28) 
COc1ccccc1NS(=O)(=O)c1cc(NC(=O)N=c2cccc[nH]2)ccc1F

>  <score_type>  (28) 
oracle

>  <origin>  (28) 
adgpu

>  <m_score__min__energy>  (28) 
-11.01

>  <m_primary>  (28) 
energy

$$$$
28:0
     RDKit          3D

 43 45  0  0  0  0  0  0  0  0999 V2000
   -7.6310   17.6450  -32.1300 C   0  0  0  0  0  0  0  0  0  0  0  0
   -7.1570   19.0240  -32.2410 N   0  0  0  0  0  0  0  0  0  0  0  0
   -5.7850   19.2930  -32.5860 C   0  0  0  0  0  0  0  0  0  0  0  0
   -4.9390   19.9570  -31.6810 C   0  0  0  0  0  0  0  0  0  0  0  0
   -3.6080   20.2250  -32.0200 C   0  0  0  0  0  0  0  0  0  0  0  0
   -3.1110   19.8380  -33.2700 C   0  0  0  0  0  0  0  0  0  0  0  0
   -1.7420   20.1150  -33.6190 C   0  0  0  0  0  0  0  0  0  0  0  0
   -0.6420   20.3370  -33.8990 N   0  0  0  0  0  0  0  0  0  0  0  0
   -3.9480   19.1840  -34.1800 C   0  0  0  0  0  0  0  0  0  0  0  0
   -5.2780   18.9140  -33.8410 C   0  0  0  0  0  0  0  0  0  0  0  0
   -8.2550   20.3290  -31.8880 S   0  0  0  0  0  0  0  0  0  0  0  0
   -9.1160   19.9790  -30.7070 O   0  0  0  0  0  0  0  0  0  0  0  0
   -9.1320   20.5660  -33.0860 O   0  0  0  0  0  0  0  0  0  0  0  0
   -7.3410   21.7800  -31.4910 C   0  0  0  0  0  0  0  0  0  0  0  0
   -6.8490   22.5910  -32.5190 C   0  0  0  0  0  0  0  0  0  0  0  0
   -6.1270   23.7490  -32.2200 C   0  0  0  0  0  0  0  0  0  0  0  0
   -5.8830   24.1140  -30.8830 C   0  0  0  0  0  0  0  0  0  0  0  0
   -5.1200   25.3440  -30.5640 C   0  0  0  0  0  0  0  0  0  0  0  0
   -5.7190   26.4500  -30.4790 O   0  0  0  0  0  0  0  0  0  0  0  0
   -3.6960   25.2840  -30.4040 N   0  0  0  0  0  0  0  0  0  0  0  0
   -2.9540   24.2900  -29.6830 C   0  0  0  0  0  0  0  0  0  0  0  0
   -2.7430   23.0400  -30.2760 C   0  0  0  0  0  0  0  0  0  0  0  0
   -2.0430   22.0470  -29.5890 C   0  0  0  0  0  0  0  0  0  0  0  0
   -1.5710   22.3100  -28.3020 C   0  0  0  0  0  0  0  0  0  0  0  0
   -1.8070   23.5180  -27.7250 N   0  0  0  0  0  0  0  0  0  0  0  0
   -2.4830   24.5030  -28.3760 C   0  0  0  0  0  0  0  0  0  0  0  0
   -6.3800   23.2920  -29.8540 C   0  0  0  0  0  0  0  0  0  0  0  0
   -7.1020   22.1340  -30.1570 C   0  0  0  0  0  0  0  0  0  0  0  0
   -7.7243   17.3737  -31.0681 H   0  0  0  0  0  0  0  0  0  0  0  0
   -8.6120   17.5540  -32.6192 H   0  0  0  0  0  0  0  0  0  0  0  0
   -6.9133   16.9701  -32.6192 H   0  0  0  0  0  0  0  0  0  0  0  0
   -5.3259   20.2682  -30.6994 H   0  0  0  0  0  0  0  0  0  0  0  0
   -2.9516   20.7404  -31.3034 H   0  0  0  0  0  0  0  0  0  0  0  0
   -3.5598   18.8815  -35.1638 H   0  0  0  0  0  0  0  0  0  0  0  0
   -5.9319   18.4013  -34.5618 H   0  0  0  0  0  0  0  0  0  0  0  0
   -7.0315   22.3156  -33.5682 H   0  0  0  0  0  0  0  0  0  0  0  0
   -5.7462   24.3805  -33.0362 H   0  0  0  0  0  0  0  0  0  0  0  0
   -3.1298   22.8396  -31.2861 H   0  0  0  0  0  0  0  0  0  0  0  0
   -1.8652   21.0675  -30.0569 H   0  0  0  0  0  0  0  0  0  0  0  0
   -1.0080   21.5397  -27.7546 H   0  0  0  0  0  0  0  0  0  0  0  0
   -2.6612   25.4678  -27.8786 H   0  0  0  0  0  0  0  0  0  0  0  0
   -6.1988   23.5630  -28.8034 H   0  0  0  0  0  0  0  0  0  0  0  0
   -7.4840   21.4983  -29.3446 H   0  0  0  0  0  0  0  0  0  0  0  0
  1  2  1  0
  2  3  1  0
  3  4  2  0
  4  5  1  0
  5  6  2  0
  6  7  1  0
  7  8  3  0
  6  9  1  0
  9 10  2  0
  2 11  1  0
 11 12  2  0
 11 13  2  0
 11 14  1  0
 14 15  2  0
 15 16  1  0
 16 17  2  0
 17 18  1  0
 18 19  2  0
 18 20  1  0
 20 21  1  0
 21 22  2  0
 22 23  1  0
 23 24  2  0
 24 25  1  0
 25 26  2  0
 17 27  1  0
 27 28  2  0
 10  3  1  0
 28 14  1  0
 26 21  1  0
  1 29  1  0
  1 30  1  0
  1 31  1  0
  4 32  1  0
  5 33  1  0
  9 34  1  0
 10 35  1  0
 15 36  1  0
 16 37  1  0
 22 38  1  0
 23 39  1  0
 24 40  1  0
 26 41  1  0
 27 42  1  0
 28 43  1  0
M  CHG  1  20  -1
M  END
>  <UniqueID>  (29) 
27

>  <SMILES>  (29) 
CN(c1ccc(C#N)cc1)S(=O)(=O)c1ccc(C(=O)[N-]c2cccnc2)cc1

>  <Energy>  (29) 
54.828849148529955

>  <Genealogy>  (29) 
CN(c1ccc(C#N)cc1)S(=O)(=O)c1ccc(C(=O)[N-]c2cccnc2)cc1 (protonated)
CN(c1ccc(C#N)cc1)S(=O)(=O)c1ccc(C(=O)[N-]c2cccnc2)cc1 (3D coordinates assigned)
CN(c1ccc(C#N)cc1)S(=O)(=O)c1ccc(C(=O)[N-]c2cccnc2)cc1 (optimized conformer: 54.828849148529955 kcal/mol)

>  <smiles>  (29) 
CN(c1ccc(C#N)cc1)S(=O)(=O)c1ccc(C(=O)Nc2cccnc2)cc1

>  <score_type>  (29) 
oracle

>  <origin>  (29) 
adgpu

>  <m_score__min__energy>  (29) 
-10.550000000000001

>  <m_primary>  (29) 
energy

$$$$
29:0
     RDKit          3D

 45 47  0  0  0  0  0  0  0  0999 V2000
   -0.7086   22.5926  -33.6853 H   0  0  0  0  0  0  0  0  0  0  0  0
   -0.9790   21.5420  -33.8670 C   0  0  0  0  0  0  0  0  0  0  0  0
   -2.1890   21.0750  -33.4610 N   0  0  0  0  0  0  0  0  0  0  0  0
   -2.5750   19.7850  -33.6660 C   0  0  0  0  0  0  0  0  0  0  0  0
   -3.9100   19.3320  -33.2030 C   0  0  0  0  0  0  0  0  0  0  0  0
   -4.2000   17.9560  -33.2060 C   0  0  0  0  0  0  0  0  0  0  0  0
   -3.4292   17.2388  -33.5245 H   0  0  0  0  0  0  0  0  0  0  0  0
   -5.4530   17.4900  -32.8100 C   0  0  0  0  0  0  0  0  0  0  0  0
   -5.6605   16.4097  -32.8117 H   0  0  0  0  0  0  0  0  0  0  0  0
   -6.4490   18.3900  -32.4100 C   0  0  0  0  0  0  0  0  0  0  0  0
   -7.7990   17.8870  -31.9650 C   0  0  0  0  0  0  0  0  0  0  0  0
   -7.6593   17.1897  -31.1258 H   0  0  0  0  0  0  0  0  0  0  0  0
   -8.2751   17.3878  -32.8218 H   0  0  0  0  0  0  0  0  0  0  0  0
   -8.7170   19.0300  -31.5120 C   0  0  0  0  0  0  0  0  0  0  0  0
   -8.1046   19.8015  -31.0224 H   0  0  0  0  0  0  0  0  0  0  0  0
   -9.4619   18.6072  -30.8219 H   0  0  0  0  0  0  0  0  0  0  0  0
   -9.4730   19.6700  -32.6770 C   0  0  0  0  0  0  0  0  0  0  0  0
  -10.2573   20.3340  -32.2846 H   0  0  0  0  0  0  0  0  0  0  0  0
   -8.7724   20.2537  -33.2922 H   0  0  0  0  0  0  0  0  0  0  0  0
   -9.9331   18.8827  -33.2922 H   0  0  0  0  0  0  0  0  0  0  0  0
   -6.1680   19.7630  -32.3910 C   0  0  0  0  0  0  0  0  0  0  0  0
   -6.9471   20.4717  -32.0736 H   0  0  0  0  0  0  0  0  0  0  0  0
   -4.9040   20.2470  -32.7720 C   0  0  0  0  0  0  0  0  0  0  0  0
   -4.6470   21.7300  -32.7110 C   0  0  0  0  0  0  0  0  0  0  0  0
   -4.5916   22.0496  -31.6599 H   0  0  0  0  0  0  0  0  0  0  0  0
   -3.6959   21.9583  -33.2143 H   0  0  0  0  0  0  0  0  0  0  0  0
   -5.4658   22.2650  -33.2143 H   0  0  0  0  0  0  0  0  0  0  0  0
   -1.7080   18.9070  -34.3340 C   0  0  0  0  0  0  0  0  0  0  0  0
   -2.0093   17.8655  -34.5199 H   0  0  0  0  0  0  0  0  0  0  0  0
   -0.4600   19.3650  -34.7610 C   0  0  0  0  0  0  0  0  0  0  0  0
    0.2219   18.6836  -35.2908 H   0  0  0  0  0  0  0  0  0  0  0  0
   -0.0730   20.6900  -34.5170 C   0  0  0  0  0  0  0  0  0  0  0  0
    1.2460   21.1840  -34.9790 C   0  0  0  0  0  0  0  0  0  0  0  0
    1.9810   20.4240  -35.6640 O   0  0  0  0  0  0  0  0  0  0  0  0
    1.6970   22.5230  -34.7200 N   0  0  0  0  0  0  0  0  0  0  0  0
    1.7320   23.4900  -35.5890 C   0  0  0  0  0  0  0  0  0  0  0  0
    1.2740   23.4040  -36.8550 N   0  0  0  0  0  0  0  0  0  0  0  0
    1.4570   24.5780  -37.3860 O   0  0  0  0  0  0  0  0  0  0  0  0
    1.9970   25.4100  -36.5240 C   0  0  0  0  0  0  0  0  0  0  0  0
    2.3490   26.8270  -36.8220 C   0  0  0  0  0  0  0  0  0  0  0  0
    2.4856   27.3769  -35.8792 H   0  0  0  0  0  0  0  0  0  0  0  0
    3.2823   26.8585  -37.4034 H   0  0  0  0  0  0  0  0  0  0  0  0
    1.5390   27.2916  -37.4034 H   0  0  0  0  0  0  0  0  0  0  0  0
    2.2000   24.7560  -35.3260 C   0  0  0  0  0  0  0  0  0  0  0  0
    2.6294   25.1495  -34.3928 H   0  0  0  0  0  0  0  0  0  0  0  0
  1  2  1  0
  2  3  2  0
  3  4  1  0
  4  5  1  0
  5  6  2  0
  6  7  1  0
  6  8  1  0
  8  9  1  0
  8 10  2  0
 10 11  1  0
 11 12  1  0
 11 13  1  0
 11 14  1  0
 14 15  1  0
 14 16  1  0
 14 17  1  0
 17 18  1  0
 17 19  1  0
 17 20  1  0
 10 21  1  0
 21 22  1  0
 21 23  2  0
 23 24  1  0
 24 25  1  0
 24 26  1  0
 24 27  1  0
  4 28  2  0
 28 29  1  0
 28 30  1  0
 30 31  1  0
 30 32  2  0
 32 33  1  0
 33 34  2  0
 33 35  1  0
 35 36  2  0
 36 37  1  0
 37 38  1  0
 38 39  1  0
 39 40  1  0
 40 41  1  0
 40 42  1  0
 40 43  1  0
 39 44  2  0
 44 45  1  0
 32  2  1  0
 44 36  1  0
 23  5  1  0
M  CHG  1  37  -1
M  END
>  <UniqueID>  (30) 
28

>  <SMILES>  (30) 
CCCc1ccc(-c2ccc(C(=O)/N=c3/cc(C)o[n-]3)cn2)c(C)c1

>  <Energy>  (30) 
86.08540544107507

>  <Genealogy>  (30) 
CCCc1ccc(-c2ccc(C(=O)N=c3cc(C)o[n-]3)cn2)c(C)c1 (protonated)
CCCc1ccc(-c2ccc(C(=O)/N=c3/cc(C)o[n-]3)cn2)c(C)c1 (cis-trans isomerization)
CCCc1ccc(-c2ccc(C(=O)/N=c3/cc(C)o[n-]3)cn2)c(C)c1 (3D coordinates assigned)
CCCc1ccc(-c2ccc(C(=O)/N=c3/cc(C)o[n-]3)cn2)c(C)c1 (optimized conformer: 86.08540544107507 kcal/mol)

>  <smiles>  (30) 
CCCc1ccc(-c2ccc(C(=O)N=c3cc(C)o[nH]3)cn2)c(C)c1

>  <score_type>  (30) 
oracle

>  <origin>  (30) 
adgpu

>  <m_score__min__energy>  (30) 
-10.18

>  <m_primary>  (30) 
energy

$$$$
30:0
     RDKit          3D

 55 58  0  0  1  0  0  0  0  0999 V2000
   -1.5110   26.0870  -28.5710 N   0  0  0  0  0  0  0  0  0  0  0  0
   -2.0950   25.0090  -28.9250 C   0  0  0  0  0  0  0  0  0  0  0  0
   -1.6360   23.8160  -28.5060 N   0  0  0  0  0  0  0  0  0  0  0  0
   -2.2190   22.6430  -28.8530 C   0  0  0  0  0  0  0  0  0  0  0  0
   -1.7250   21.3500  -28.4010 C   0  0  0  0  0  0  0  0  0  0  0  0
   -0.4820   20.8530  -28.7700 C   0  0  0  0  0  0  0  0  0  0  0  0
   -0.0170   19.6280  -28.3410 C   0  0  0  0  0  0  0  0  0  0  0  0
   -0.7760   18.8080  -27.5020 C   0  0  0  0  0  0  0  0  0  0  0  0
   -0.2220   17.5770  -27.1150 N   0  0  0  0  0  0  0  0  0  0  0  0
    0.9720   16.9930  -27.5860 C   0  0  0  0  0  0  0  0  0  0  0  0
    1.6830   17.5690  -28.4460 O   0  0  0  0  0  0  0  0  0  0  0  0
    1.4750   15.6930  -27.1200 C   0  0  0  0  0  0  0  0  0  0  0  0
    2.8310   15.4850  -27.0650 C   0  0  0  0  0  0  0  0  0  0  0  0
    3.3810   14.2780  -26.6330 C   0  0  0  0  0  0  0  0  0  0  0  0
    2.5640   13.2580  -26.2500 C   0  0  0  0  0  0  0  0  0  0  0  0
    1.1980   13.4650  -26.3060 C   0  0  0  0  0  0  0  0  0  0  0  0
    0.3230   12.4130  -25.9100 N   0  0  0  0  0  0  0  0  0  0  0  0
   -0.2630   11.7140  -26.7610 O   0  0  0  0  0  0  0  0  0  0  0  0
    0.1110   12.1510  -24.5770 O   0  0  0  0  0  0  0  0  0  0  0  0
    0.6580   14.6610  -26.7330 C   0  0  0  0  0  0  0  0  0  0  0  0
   -2.0010   19.2990  -27.1380 C   0  0  0  0  0  0  0  0  0  0  0  0
   -2.4760   20.5420  -27.5730 C   0  0  0  0  0  0  0  0  0  0  0  0
   -3.3270   22.7500  -29.6740 C   0  0  0  0  0  0  0  0  0  0  0  0
   -3.8040   23.9870  -30.1100 C   0  0  0  0  0  0  0  0  0  0  0  0
   -4.8450   24.0550  -30.8780 N   0  0  0  0  0  0  0  0  0  0  0  0
   -5.5420   22.8910  -31.3100 C   0  0  0  0  0  0  0  0  0  0  0  0
   -5.0370   22.0130  -32.2470 C   0  0  0  0  0  0  0  0  0  0  0  0
   -5.8220   20.9150  -32.5770 C   0  0  0  0  0  0  0  0  0  0  0  0
   -7.0590   20.6900  -32.0060 C   0  0  0  0  0  0  0  0  0  0  0  0
   -8.0530   19.3050  -32.4220 S   0  0  0  0  0  0  0  0  0  0  0  0
   -7.2170   18.2110  -33.4570 N   0  0  0  0  0  0  0  0  0  0  0  0
   -9.3350   19.6870  -33.0730 O   0  0  0  0  0  0  0  0  0  0  0  0
   -8.3880   18.5460  -31.1690 O   0  0  0  0  0  0  0  0  0  0  0  0
   -7.5590   21.5820  -31.0630 C   0  0  0  0  0  0  0  0  0  0  0  0
   -6.7930   22.6790  -30.7220 C   0  0  0  0  0  0  0  0  0  0  0  0
   -3.1720   25.1080  -29.7220 N   0  0  0  0  0  0  0  0  0  0  0  0
   -1.8280   27.0270  -28.8680 H   0  0  0  0  0  0  0  0  0  0  0  0
   -0.7960   23.8370  -27.8910 H   0  0  0  0  0  0  0  0  0  0  0  0
    0.1559   21.4597  -29.4296 H   0  0  0  0  0  0  0  0  0  0  0  0
    0.9767   19.2876  -28.6675 H   0  0  0  0  0  0  0  0  0  0  0  0
   -0.7480   17.0060  -26.3880 H   0  0  0  0  0  0  0  0  0  0  0  0
    3.5063   16.2973  -27.3718 H   0  0  0  0  0  0  0  0  0  0  0  0
    4.4731   14.1503  -26.6018 H   0  0  0  0  0  0  0  0  0  0  0  0
    2.9782   12.2986  -25.9065 H   0  0  0  0  0  0  0  0  0  0  0  0
   -0.4343   14.7877  -26.7633 H   0  0  0  0  0  0  0  0  0  0  0  0
   -2.6377   18.6924  -26.4771 H   0  0  0  0  0  0  0  0  0  0  0  0
   -3.4702   20.8818  -27.2472 H   0  0  0  0  0  0  0  0  0  0  0  0
   -3.8469   21.8343  -29.9922 H   0  0  0  0  0  0  0  0  0  0  0  0
   -4.0540   22.1755  -32.7133 H   0  0  0  0  0  0  0  0  0  0  0  0
   -5.4439   20.1982  -33.3209 H   0  0  0  0  0  0  0  0  0  0  0  0
   -7.0450   18.6200  -34.4130 H   0  0  0  0  0  0  0  0  0  0  0  0
   -7.6660   17.2700  -33.5080 H   0  0  0  0  0  0  0  0  0  0  0  0
   -8.5428   21.4171  -30.5993 H   0  0  0  0  0  0  0  0  0  0  0  0
   -7.1717   23.3955  -29.9782 H   0  0  0  0  0  0  0  0  0  0  0  0
   -3.5070   26.0450  -30.0330 H   0  0  0  0  0  0  0  0  0  0  0  0
  1  2  2  3
  2  3  1  0
  3  4  1  0
  4  5  1  0
  5  6  2  0
  6  7  1  0
  7  8  2  0
  8  9  1  0
  9 10  1  0
 10 11  2  0
 10 12  1  0
 12 13  2  0
 13 14  1  0
 14 15  2  0
 15 16  1  0
 16 17  1  0
 17 18  2  0
 17 19  1  0
 16 20  2  0
  8 21  1  0
 21 22  2  0
  4 23  2  0
 23 24  1  0
 24 25  2  0
 25 26  1  0
 26 27  2  0
 27 28  1  0
 28 29  2  0
 29 30  1  0
 30 31  1  0
 30 32  2  0
 30 33  2  0
 29 34  1  0
 34 35  2  0
 24 36  1  0
 36  2  1  0
 22  5  1  0
 35 26  1  0
 20 12  1  0
  1 37  1  0
  3 38  1  0
  6 39  1  0
  7 40  1  0
  9 41  1  0
 13 42  1  0
 14 43  1  0
 15 44  1  0
 20 45  1  0
 21 46  1  0
 22 47  1  0
 23 48  1  0
 27 49  1  0
 28 50  1  0
 31 51  1  0
 31 52  1  0
 34 53  1  0
 35 54  1  0
 36 55  1  0
M  CHG  2  17   1  19  -1
M  END
>  <smiles>  (31) 
N=c1[nH]c(-c2ccc(NC(=O)c3cccc([N+](=O)[O-])c3)cc2)cc(=Nc2ccc(S(N)(=O)=O)cc2)[nH]1

>  <score_type>  (31) 
oracle

>  <origin>  (31) 
adgpu

>  <m_score__min__energy>  (31) 
-10.369999999999999

>  <m_primary>  (31) 
energy

$$$$
31:0
     RDKit          3D

 43 45  0  0  0  0  0  0  0  0999 V2000
   -0.1450   19.6570  -31.7090 C   0  0  0  0  0  0  0  0  0  0  0  0
   -1.4820   20.2960  -31.9440 C   0  0  0  0  0  0  0  0  0  0  0  0
   -1.8500   20.7140  -33.2330 C   0  0  0  0  0  0  0  0  0  0  0  0
   -3.1110   21.2730  -33.4590 C   0  0  0  0  0  0  0  0  0  0  0  0
   -4.0220   21.4040  -32.4040 C   0  0  0  0  0  0  0  0  0  0  0  0
   -5.6410   22.1140  -32.6960 S   0  0  0  0  0  0  0  0  0  0  0  0
   -6.4880   20.5450  -32.4380 C   0  0  0  0  0  0  0  0  0  0  0  0
   -5.9800   19.4090  -33.0830 C   0  0  0  0  0  0  0  0  0  0  0  0
   -6.6380   18.1830  -32.9810 C   0  0  0  0  0  0  0  0  0  0  0  0
   -7.8150   18.0810  -32.2380 C   0  0  0  0  0  0  0  0  0  0  0  0
   -8.3270   19.2020  -31.5820 C   0  0  0  0  0  0  0  0  0  0  0  0
   -7.6620   20.4380  -31.6530 C   0  0  0  0  0  0  0  0  0  0  0  0
   -8.2250   21.5890  -30.9130 C   0  0  0  0  0  0  0  0  0  0  0  0
   -9.3680   22.0160  -31.2230 O   0  0  0  0  0  0  0  0  0  0  0  0
   -7.5040   22.2510  -29.8640 N   0  0  0  0  0  0  0  0  0  0  0  0
   -6.5650   23.3230  -30.0240 C   0  0  0  0  0  0  0  0  0  0  0  0
   -6.8730   24.4740  -30.7700 C   0  0  0  0  0  0  0  0  0  0  0  0
   -5.9320   25.4990  -30.9000 C   0  0  0  0  0  0  0  0  0  0  0  0
   -4.6750   25.3780  -30.3050 C   0  0  0  0  0  0  0  0  0  0  0  0
   -4.3460   24.2210  -29.5870 C   0  0  0  0  0  0  0  0  0  0  0  0
   -2.7650   24.0690  -28.8290 S   0  0  0  0  0  0  0  0  0  0  0  0
   -1.9170   25.5690  -28.9570 N   0  0  0  0  0  0  0  0  0  0  0  0
   -2.9290   23.7090  -27.3780 O   0  0  0  0  0  0  0  0  0  0  0  0
   -1.9740   22.9850  -29.5070 O   0  0  0  0  0  0  0  0  0  0  0  0
   -5.2920   23.1960  -29.4530 C   0  0  0  0  0  0  0  0  0  0  0  0
   -3.6620   20.9810  -31.1180 C   0  0  0  0  0  0  0  0  0  0  0  0
   -2.4020   20.4210  -30.8910 C   0  0  0  0  0  0  0  0  0  0  0  0
    0.0352   19.5709  -30.6273 H   0  0  0  0  0  0  0  0  0  0  0  0
   -0.1323   18.6555  -32.1637 H   0  0  0  0  0  0  0  0  0  0  0  0
    0.6423   20.2762  -32.1637 H   0  0  0  0  0  0  0  0  0  0  0  0
   -1.1431   20.6011  -34.0682 H   0  0  0  0  0  0  0  0  0  0  0  0
   -3.3883   21.6109  -34.4684 H   0  0  0  0  0  0  0  0  0  0  0  0
   -5.0554   19.4847  -33.6741 H   0  0  0  0  0  0  0  0  0  0  0  0
   -6.2287   17.2960  -33.4866 H   0  0  0  0  0  0  0  0  0  0  0  0
   -8.3397   17.1166  -32.1692 H   0  0  0  0  0  0  0  0  0  0  0  0
   -9.2593   19.1170  -31.0044 H   0  0  0  0  0  0  0  0  0  0  0  0
   -7.8570   24.5681  -31.2526 H   0  0  0  0  0  0  0  0  0  0  0  0
   -6.1826   26.4039  -31.4730 H   0  0  0  0  0  0  0  0  0  0  0  0
   -3.9417   26.1924  -30.4001 H   0  0  0  0  0  0  0  0  0  0  0  0
   -1.6110   25.6620  -29.9500 H   0  0  0  0  0  0  0  0  0  0  0  0
   -5.0330   22.2842  -28.8949 H   0  0  0  0  0  0  0  0  0  0  0  0
   -4.3725   21.0899  -30.2853 H   0  0  0  0  0  0  0  0  0  0  0  0
   -2.1297   20.0765  -29.8824 H   0  0  0  0  0  0  0  0  0  0  0  0
  1  2  1  0
  2  3  2  0
  3  4  1  0
  4  5  2  0
  5  6  1  0
  6  7  1  0
  7  8  2  0
  8  9  1  0
  9 10  2  0
 10 11  1  0
 11 12  2  0
 12 13  1  0
 13 14  2  0
 13 15  1  0
 15 16  1  0
 16 17  2  0
 17 18  1  0
 18 19  2  0
 19 20  1  0
 20 21  1  0
 21 22  1  0
 21 23  2  0
 21 24  2  0
 20 25  2  0
  5 26  1  0
 26 27  2  0
 27  2  1  0
 12  7  1  0
 25 16  1  0
  1 28  1  0
  1 29  1  0
  1 30  1  0
  3 31  1  0
  4 32  1  0
  8 33  1  0
  9 34  1  0
 10 35  1  0
 11 36  1  0
 17 37  1  0
 18 38  1  0
 19 39  1  0
 22 40  1  0
 25 41  1  0
 26 42  1  0
 27 43  1  0
M  CHG  2  15  -1  22  -1
M  END
>  <UniqueID>  (32) 
29

>  <SMILES>  (32) 
Cc1ccc(Sc2ccccc2C(=O)[N-]c2cccc(S([NH-])(=O)=O)c2)cc1

>  <Energy>  (32) 
48.74130993567829

>  <Genealogy>  (32) 
Cc1ccc(Sc2ccccc2C(=O)[N-]c2cccc(S([NH-])(=O)=O)c2)cc1 (protonated)
Cc1ccc(Sc2ccccc2C(=O)[N-]c2cccc(S([NH-])(=O)=O)c2)cc1 (3D coordinates assigned)
Cc1ccc(Sc2ccccc2C(=O)[N-]c2cccc(S([NH-])(=O)=O)c2)cc1 (optimized conformer: 48.74130993567829 kcal/mol)

>  <smiles>  (32) 
Cc1ccc(Sc2ccccc2C(=O)Nc2cccc(S(N)(=O)=O)c2)cc1

>  <score_type>  (32) 
oracle

>  <origin>  (32) 
adgpu

>  <m_score__min__energy>  (32) 
-12.1

>  <m_primary>  (32) 
energy

$$$$
32:0
     RDKit          3D

 42 44  0  0  0  0  0  0  0  0999 V2000
   -1.3590   19.5603  -28.1717 H   0  0  0  0  0  0  0  0  0  0  0  0
   -0.9700   20.5890  -28.1930 C   0  0  0  0  0  0  0  0  0  0  0  0
    0.3410   20.8470  -27.7910 C   0  0  0  0  0  0  0  0  0  0  0  0
    0.9871   20.0194  -27.4630 H   0  0  0  0  0  0  0  0  0  0  0  0
    0.8350   22.1530  -27.8040 C   0  0  0  0  0  0  0  0  0  0  0  0
    1.8655   22.3518  -27.4745 H   0  0  0  0  0  0  0  0  0  0  0  0
    0.0200   23.2170  -28.2370 C   0  0  0  0  0  0  0  0  0  0  0  0
    0.4770   24.5450  -28.2560 O   0  0  0  0  0  0  0  0  0  0  0  0
    0.0950   25.5430  -27.3140 C   0  0  0  0  0  0  0  0  0  0  0  0
    0.2418   25.1594  -26.2936 H   0  0  0  0  0  0  0  0  0  0  0  0
    0.7129   26.4412  -27.4605 H   0  0  0  0  0  0  0  0  0  0  0  0
   -0.9647   25.7991  -27.4605 H   0  0  0  0  0  0  0  0  0  0  0  0
   -1.2910   22.9530  -28.6710 C   0  0  0  0  0  0  0  0  0  0  0  0
   -2.1220   24.0550  -29.0810 N   0  0  0  0  0  0  0  0  0  0  0  0
   -3.1900   23.9930  -29.8250 C   0  0  0  0  0  0  0  0  0  0  0  0
   -3.5900   22.8170  -30.3800 N   0  0  0  0  0  0  0  0  0  0  0  0
   -4.6890   22.7310  -31.1770 C   0  0  0  0  0  0  0  0  0  0  0  0
   -5.0720   21.4130  -31.7440 C   0  0  0  0  0  0  0  0  0  0  0  0
   -6.4030   20.9510  -31.7040 C   0  0  0  0  0  0  0  0  0  0  0  0
   -7.1852   21.5788  -31.2523 H   0  0  0  0  0  0  0  0  0  0  0  0
   -6.7370   19.7010  -32.2340 C   0  0  0  0  0  0  0  0  0  0  0  0
   -7.7808   19.3553  -32.2047 H   0  0  0  0  0  0  0  0  0  0  0  0
   -5.7490   18.8870  -32.8020 C   0  0  0  0  0  0  0  0  0  0  0  0
   -6.1760   17.3220  -33.4840 S   0  0  0  0  0  0  0  0  0  0  0  0
   -7.5760   16.9540  -33.0790 O   0  0  0  0  0  0  0  0  0  0  0  0
   -6.1100   17.3840  -34.9850 O   0  0  0  0  0  0  0  0  0  0  0  0
   -5.0400   16.0890  -32.8900 C   0  0  0  0  0  0  0  0  0  0  0  0
   -5.0405   16.0895  -31.7900 H   0  0  0  0  0  0  0  0  0  0  0  0
   -5.3490   15.0989  -33.2563 H   0  0  0  0  0  0  0  0  0  0  0  0
   -4.0279   16.3160  -33.2563 H   0  0  0  0  0  0  0  0  0  0  0  0
   -4.4240   19.3360  -32.8430 C   0  0  0  0  0  0  0  0  0  0  0  0
   -3.6450   18.7039  -33.2942 H   0  0  0  0  0  0  0  0  0  0  0  0
   -4.0870   20.5840  -32.3130 C   0  0  0  0  0  0  0  0  0  0  0  0
   -3.0407   20.9223  -32.3407 H   0  0  0  0  0  0  0  0  0  0  0  0
   -5.4150   23.9000  -31.4520 C   0  0  0  0  0  0  0  0  0  0  0  0
   -6.3024   23.8681  -32.1012 H   0  0  0  0  0  0  0  0  0  0  0  0
   -4.9910   25.1040  -30.8870 C   0  0  0  0  0  0  0  0  0  0  0  0
   -5.6240   26.1670  -31.1240 O   0  0  0  0  0  0  0  0  0  0  0  0
   -3.8900   25.1310  -30.0870 N   0  0  0  0  0  0  0  0  0  0  0  0
   -3.5790   26.0400  -29.6720 H   0  0  0  0  0  0  0  0  0  0  0  0
   -1.7880   21.6350  -28.6220 C   0  0  0  0  0  0  0  0  0  0  0  0
   -2.8258   21.4299  -28.9234 H   0  0  0  0  0  0  0  0  0  0  0  0
  1  2  1  0
  2  3  2  0
  3  4  1  0
  3  5  1  0
  5  6  1  0
  5  7  2  0
  7  8  1  0
  8  9  1  0
  9 10  1  0
  9 11  1  0
  9 12  1  0
  7 13  1  0
 13 14  1  0
 14 15  2  0
 15 16  1  0
 16 17  1  0
 17 18  1  0
 18 19  2  0
 19 20  1  0
 19 21  1  0
 21 22  1  0
 21 23  2  0
 23 24  1  0
 24 25  2  0
 24 26  2  0
 24 27  1  0
 27 28  1  0
 27 29  1  0
 27 30  1  0
 23 31  1  0
 31 32  1  0
 31 33  2  0
 33 34  1  0
 17 35  2  0
 35 36  1  0
 35 37  1  0
 37 38  2  0
 37 39  1  0
 39 40  1  0
 13 41  2  0
 41 42  1  0
 41  2  1  0
 39 15  1  0
 33 18  1  0
M  CHG  1  16  -1
M  END
>  <UniqueID>  (33) 
30

>  <SMILES>  (33) 
COc1ccccc1/N=c1\[n-]c(-c2ccc(S(C)(=O)=O)cc2)cc(=O)[nH]1

>  <Energy>  (33) 
52.19776319611468

>  <Genealogy>  (33) 
COc1ccccc1N=c1[n-]c(-c2ccc(S(C)(=O)=O)cc2)cc(=O)[nH]1 (protonated)
COc1ccccc1/N=c1\[n-]c(-c2ccc(S(C)(=O)=O)cc2)cc(=O)[nH]1 (cis-trans isomerization)
COc1ccccc1/N=c1\[n-]c(-c2ccc(S(C)(=O)=O)cc2)cc(=O)[nH]1 (3D coordinates assigned)
COc1ccccc1/N=c1\[n-]c(-c2ccc(S(C)(=O)=O)cc2)cc(=O)[nH]1 (optimized conformer: 52.19776319611468 kcal/mol)

>  <smiles>  (33) 
COc1ccccc1N=c1[nH]c(-c2ccc(S(C)(=O)=O)cc2)cc(=O)[nH]1

>  <score_type>  (33) 
oracle

>  <origin>  (33) 
adgpu

>  <m_score__min__energy>  (33) 
-9.2699999999999996

>  <m_primary>  (33) 
energy

$$$$
33:0
     RDKit          3D

 40 41  0  0  0  0  0  0  0  0999 V2000
   -2.0750   23.1220  -29.6260 C   0  0  0  0  0  0  0  0  0  0  0  0
   -2.6940   24.4840  -29.3320 C   0  0  0  0  0  0  0  0  0  0  0  0
   -3.5010   24.9310  -30.4710 N   0  0  0  0  0  0  0  0  0  0  0  0
   -5.2010   24.8680  -30.1070 S   0  0  0  0  0  0  0  0  0  0  0  0
   -5.3850   24.8320  -28.6150 O   0  0  0  0  0  0  0  0  0  0  0  0
   -5.8780   26.1030  -30.6360 O   0  0  0  0  0  0  0  0  0  0  0  0
   -5.9310   23.4280  -30.8090 C   0  0  0  0  0  0  0  0  0  0  0  0
   -5.1280   22.3590  -31.2350 C   0  0  0  0  0  0  0  0  0  0  0  0
   -5.7150   21.2080  -31.7690 C   0  0  0  0  0  0  0  0  0  0  0  0
   -7.1100   21.1180  -31.8850 C   0  0  0  0  0  0  0  0  0  0  0  0
   -7.8650   19.6860  -32.5750 S   0  0  0  0  0  0  0  0  0  0  0  0
   -8.0400   18.6110  -31.5380 O   0  0  0  0  0  0  0  0  0  0  0  0
   -9.2150   20.0640  -33.1150 O   0  0  0  0  0  0  0  0  0  0  0  0
   -6.8820   19.0820  -33.8690 N   0  0  0  0  0  0  0  0  0  0  0  0
   -6.1540   17.8450  -33.8470 C   0  0  0  0  0  0  0  0  0  0  0  0
   -6.8120   16.6000  -33.8450 C   0  0  0  0  0  0  0  0  0  0  0  0
   -6.0760   15.4130  -33.8280 C   0  0  0  0  0  0  0  0  0  0  0  0
   -4.6820   15.4520  -33.8130 C   0  0  0  0  0  0  0  0  0  0  0  0
   -4.0180   16.6810  -33.8120 C   0  0  0  0  0  0  0  0  0  0  0  0
   -4.7470   17.8770  -33.8240 C   0  0  0  0  0  0  0  0  0  0  0  0
   -3.8600   19.4410  -33.8050 S   0  0  0  0  0  0  0  0  0  0  0  0
   -2.2220   18.6440  -33.8530 C   0  0  0  0  0  0  0  0  0  0  0  0
   -7.9110   22.1830  -31.4550 C   0  0  0  0  0  0  0  0  0  0  0  0
   -7.3240   23.3320  -30.9180 C   0  0  0  0  0  0  0  0  0  0  0  0
   -1.8434   22.6124  -28.6791 H   0  0  0  0  0  0  0  0  0  0  0  0
   -2.7852   22.5139  -30.2055 H   0  0  0  0  0  0  0  0  0  0  0  0
   -1.1498   23.2571  -30.2055 H   0  0  0  0  0  0  0  0  0  0  0  0
   -3.3345   24.4071  -28.4411 H   0  0  0  0  0  0  0  0  0  0  0  0
   -1.8893   25.2127  -29.1549 H   0  0  0  0  0  0  0  0  0  0  0  0
   -4.0335   22.4268  -31.1485 H   0  0  0  0  0  0  0  0  0  0  0  0
   -5.0816   20.3713  -32.0988 H   0  0  0  0  0  0  0  0  0  0  0  0
   -7.9113   16.5621  -33.8569 H   0  0  0  0  0  0  0  0  0  0  0  0
   -6.5975   14.4445  -33.8264 H   0  0  0  0  0  0  0  0  0  0  0  0
   -4.1055   14.5152  -33.8020 H   0  0  0  0  0  0  0  0  0  0  0  0
   -2.9184   16.7097  -33.8017 H   0  0  0  0  0  0  0  0  0  0  0  0
   -1.8678   18.4717  -32.8259 H   0  0  0  0  0  0  0  0  0  0  0  0
   -2.2976   17.6820  -34.3810 H   0  0  0  0  0  0  0  0  0  0  0  0
   -1.5117   19.2972  -34.3810 H   0  0  0  0  0  0  0  0  0  0  0  0
   -9.0056   22.1151  -31.5401 H   0  0  0  0  0  0  0  0  0  0  0  0
   -7.9586   24.1643  -30.5796 H   0  0  0  0  0  0  0  0  0  0  0  0
  1  2  1  0
  2  3  1  0
  3  4  1  0
  4  5  2  0
  4  6  2  0
  4  7  1  0
  7  8  2  0
  8  9  1  0
  9 10  2  0
 10 11  1  0
 11 12  2  0
 11 13  2  0
 11 14  1  0
 14 15  1  0
 15 16  2  0
 16 17  1  0
 17 18  2  0
 18 19  1  0
 19 20  2  0
 20 21  1  0
 21 22  1  0
 10 23  1  0
 23 24  2  0
 24  7  1  0
 20 15  1  0
  1 25  1  0
  1 26  1  0
  1 27  1  0
  2 28  1  0
  2 29  1  0
  8 30  1  0
  9 31  1  0
 16 32  1  0
 17 33  1  0
 18 34  1  0
 19 35  1  0
 22 36  1  0
 22 37  1  0
 22 38  1  0
 23 39  1  0
 24 40  1  0
M  CHG  2   3  -1  14  -1
M  END
>  <UniqueID>  (34) 
31

>  <SMILES>  (34) 
CC[N-]S(=O)(=O)c1ccc(S(=O)(=O)[N-]c2ccccc2SC)cc1

>  <Energy>  (34) 
35.77279022685312

>  <Genealogy>  (34) 
CC[N-]S(=O)(=O)c1ccc(S(=O)(=O)[N-]c2ccccc2SC)cc1 (protonated)
CC[N-]S(=O)(=O)c1ccc(S(=O)(=O)[N-]c2ccccc2SC)cc1 (3D coordinates assigned)
CC[N-]S(=O)(=O)c1ccc(S(=O)(=O)[N-]c2ccccc2SC)cc1 (optimized conformer: 35.77279022685312 kcal/mol)

>  <smiles>  (34) 
CCNS(=O)(=O)c1ccc(S(=O)(=O)Nc2ccccc2SC)cc1

>  <score_type>  (34) 
oracle

>  <origin>  (34) 
adgpu

>  <m_score__min__energy>  (34) 
-9.6099999999999994

>  <m_primary>  (34) 
energy

$$$$
34:0
     RDKit          3D

 39 41  0  0  0  0  0  0  0  0999 V2000
   -5.7200   26.2750  -30.6540 O   0  0  0  0  0  0  0  0  0  0  0  0
   -5.1080   25.1820  -30.7880 C   0  0  0  0  0  0  0  0  0  0  0  0
   -3.7010   25.1510  -30.5100 N   0  0  0  0  0  0  0  0  0  0  0  0
   -3.0670   24.4860  -29.4060 C   0  0  0  0  0  0  0  0  0  0  0  0
   -3.6900   23.3590  -28.8550 C   0  0  0  0  0  0  0  0  0  0  0  0
   -3.0920   22.6670  -27.7990 C   0  0  0  0  0  0  0  0  0  0  0  0
   -1.8700   23.1000  -27.2800 C   0  0  0  0  0  0  0  0  0  0  0  0
   -1.2510   24.2360  -27.8080 C   0  0  0  0  0  0  0  0  0  0  0  0
   -1.8490   24.9420  -28.8570 C   0  0  0  0  0  0  0  0  0  0  0  0
   -1.2350   26.0940  -29.3330 O   0  0  0  0  0  0  0  0  0  0  0  0
   -5.8690   23.9650  -31.1720 C   0  0  0  0  0  0  0  0  0  0  0  0
   -7.2450   23.8790  -30.8970 C   0  0  0  0  0  0  0  0  0  0  0  0
   -7.9660   22.7360  -31.2510 C   0  0  0  0  0  0  0  0  0  0  0  0
   -7.3240   21.6670  -31.8790 C   0  0  0  0  0  0  0  0  0  0  0  0
   -5.9530   21.7300  -32.1490 C   0  0  0  0  0  0  0  0  0  0  0  0
   -5.1610   20.3790  -32.9580 S   0  0  0  0  0  0  0  0  0  0  0  0
   -5.9650   20.0070  -34.1720 O   0  0  0  0  0  0  0  0  0  0  0  0
   -5.0890   19.1940  -32.0350 O   0  0  0  0  0  0  0  0  0  0  0  0
   -3.5570   20.8040  -33.4700 N   0  0  0  0  0  0  0  0  0  0  0  0
   -2.3960   20.8360  -32.6280 C   0  0  0  0  0  0  0  0  0  0  0  0
   -2.2870   21.8590  -31.6780 C   0  0  0  0  0  0  0  0  0  0  0  0
   -1.1810   21.9160  -30.8220 C   0  0  0  0  0  0  0  0  0  0  0  0
   -0.1730   20.9520  -30.9170 C   0  0  0  0  0  0  0  0  0  0  0  0
   -0.2740   19.9250  -31.8600 C   0  0  0  0  0  0  0  0  0  0  0  0
    0.6970   18.9830  -31.9410 F   0  0  0  0  0  0  0  0  0  0  0  0
   -1.3800   19.8650  -32.7140 C   0  0  0  0  0  0  0  0  0  0  0  0
   -5.2290   22.8750  -31.7880 C   0  0  0  0  0  0  0  0  0  0  0  0
   -4.6555   23.0169  -29.2560 H   0  0  0  0  0  0  0  0  0  0  0  0
   -3.5846   21.7793  -27.3755 H   0  0  0  0  0  0  0  0  0  0  0  0
   -1.3951   22.5472  -26.4561 H   0  0  0  0  0  0  0  0  0  0  0  0
   -0.2892   24.5766  -27.3969 H   0  0  0  0  0  0  0  0  0  0  0  0
   -7.7568   24.7164  -30.4003 H   0  0  0  0  0  0  0  0  0  0  0  0
   -9.0429   22.6780  -31.0343 H   0  0  0  0  0  0  0  0  0  0  0  0
   -7.8981   20.7725  -32.1623 H   0  0  0  0  0  0  0  0  0  0  0  0
   -3.0754   22.6225  -31.6040 H   0  0  0  0  0  0  0  0  0  0  0  0
   -1.1050   22.7194  -30.0745 H   0  0  0  0  0  0  0  0  0  0  0  0
    0.6999   21.0016  -30.2495 H   0  0  0  0  0  0  0  0  0  0  0  0
   -1.4564   19.0562  -33.4556 H   0  0  0  0  0  0  0  0  0  0  0  0
   -4.1485   22.9212  -31.9888 H   0  0  0  0  0  0  0  0  0  0  0  0
  1  2  2  0
  2  3  1  0
  3  4  1  0
  4  5  2  0
  5  6  1  0
  6  7  2  0
  7  8  1  0
  8  9  2  0
  9 10  1  0
  2 11  1  0
 11 12  2  0
 12 13  1  0
 13 14  2  0
 14 15  1  0
 15 16  1  0
 16 17  2  0
 16 18  2  0
 16 19  1  0
 19 20  1  0
 20 21  2  0
 21 22  1  0
 22 23  2  0
 23 24  1  0
 24 25  1  0
 24 26  2  0
 15 27  2  0
  9  4  1  0
 27 11  1  0
 26 20  1  0
  5 28  1  0
  6 29  1  0
  7 30  1  0
  8 31  1  0
 12 32  1  0
 13 33  1  0
 14 34  1  0
 21 35  1  0
 22 36  1  0
 23 37  1  0
 26 38  1  0
 27 39  1  0
M  CHG  3   3  -1  10  -1  19  -1
M  END
>  <UniqueID>  (35) 
32

>  <SMILES>  (35) 
O=C([N-]c1ccccc1[O-])c1cccc(S(=O)(=O)[N-]c2cccc(F)c2)c1

>  <Energy>  (35) 
52.748737871810135

>  <Genealogy>  (35) 
O=C([N-]c1ccccc1[O-])c1cccc(S(=O)(=O)[N-]c2cccc(F)c2)c1 (protonated)
O=C([N-]c1ccccc1[O-])c1cccc(S(=O)(=O)[N-]c2cccc(F)c2)c1 (3D coordinates assigned)
O=C([N-]c1ccccc1[O-])c1cccc(S(=O)(=O)[N-]c2cccc(F)c2)c1 (optimized conformer: 52.748737871810135 kcal/mol)

>  <smiles>  (35) 
O=C(Nc1ccccc1O)c1cccc(S(=O)(=O)Nc2cccc(F)c2)c1

>  <score_type>  (35) 
oracle

>  <origin>  (35) 
adgpu

>  <m_score__min__energy>  (35) 
-13.82

>  <m_primary>  (35) 
energy

$$$$
35:0
     RDKit          3D

 36 38  0  0  0  0  0  0  0  0999 V2000
    2.2713   26.5026  -26.9971 H   0  0  0  0  0  0  0  0  0  0  0  0
    1.2640   26.3350  -26.5880 C   0  0  0  0  0  0  0  0  0  0  0  0
    0.2680   25.7770  -27.3960 C   0  0  0  0  0  0  0  0  0  0  0  0
    0.4979   25.5044  -28.4366 H   0  0  0  0  0  0  0  0  0  0  0  0
   -1.0260   25.5620  -26.8870 C   0  0  0  0  0  0  0  0  0  0  0  0
   -2.1030   24.9810  -27.7280 C   0  0  0  0  0  0  0  0  0  0  0  0
   -2.2850   25.3000  -29.0280 N   0  0  0  0  0  0  0  0  0  0  0  0
   -3.3500   24.5430  -29.3570 C   0  0  0  0  0  0  0  0  0  0  0  0
   -3.8890   24.5740  -30.5400 N   0  0  0  0  0  0  0  0  0  0  0  0
   -4.9990   23.7850  -30.9990 C   0  0  0  0  0  0  0  0  0  0  0  0
   -6.2970   24.2030  -30.6800 C   0  0  0  0  0  0  0  0  0  0  0  0
   -6.4449   25.1064  -30.0701 H   0  0  0  0  0  0  0  0  0  0  0  0
   -7.4050   23.4820  -31.1300 C   0  0  0  0  0  0  0  0  0  0  0  0
   -8.4179   23.8141  -30.8585 H   0  0  0  0  0  0  0  0  0  0  0  0
   -7.2390   22.3410  -31.9230 C   0  0  0  0  0  0  0  0  0  0  0  0
   -8.3860   21.6520  -32.3460 O   0  0  0  0  0  0  0  0  0  0  0  0
   -8.5290   20.2340  -32.3410 C   0  0  0  0  0  0  0  0  0  0  0  0
   -8.2863   19.8491  -31.3395 H   0  0  0  0  0  0  0  0  0  0  0  0
   -9.8300   19.8900  -32.6630 F   0  0  0  0  0  0  0  0  0  0  0  0
   -7.6760   19.6900  -33.2810 F   0  0  0  0  0  0  0  0  0  0  0  0
   -5.9370   21.9340  -32.2720 C   0  0  0  0  0  0  0  0  0  0  0  0
   -5.7923   21.0444  -32.9026 H   0  0  0  0  0  0  0  0  0  0  0  0
   -4.8270   22.6550  -31.8210 C   0  0  0  0  0  0  0  0  0  0  0  0
   -3.8142   22.3377  -32.1100 H   0  0  0  0  0  0  0  0  0  0  0  0
   -3.8150   23.8110  -28.3260 N   0  0  0  0  0  0  0  0  0  0  0  0
   -3.0230   24.0870  -27.3080 N   0  0  0  0  0  0  0  0  0  0  0  0
   -3.1320   23.6700  -26.3590 H   0  0  0  0  0  0  0  0  0  0  0  0
   -1.2970   25.9160  -25.5500 C   0  0  0  0  0  0  0  0  0  0  0  0
   -2.3074   25.7657  -25.1421 H   0  0  0  0  0  0  0  0  0  0  0  0
   -0.2930   26.4580  -24.7330 C   0  0  0  0  0  0  0  0  0  0  0  0
   -0.6040   26.8650  -23.3240 C   0  0  0  0  0  0  0  0  0  0  0  0
   -0.0883   26.1901  -22.6251 H   0  0  0  0  0  0  0  0  0  0  0  0
   -0.2623   27.8971  -23.1566 H   0  0  0  0  0  0  0  0  0  0  0  0
   -1.6896   26.8065  -23.1566 H   0  0  0  0  0  0  0  0  0  0  0  0
    0.9850   26.6800  -25.2650 C   0  0  0  0  0  0  0  0  0  0  0  0
    1.7700   27.1274  -24.6377 H   0  0  0  0  0  0  0  0  0  0  0  0
  1  2  1  0
  2  3  2  0
  3  4  1  0
  3  5  1  0
  5  6  1  0
  6  7  2  0
  7  8  1  0
  8  9  2  0
  9 10  1  0
 10 11  2  0
 11 12  1  0
 11 13  1  0
 13 14  1  0
 13 15  2  0
 15 16  1  0
 16 17  1  0
 17 18  1  0
 17 19  1  0
 17 20  1  0
 15 21  1  0
 21 22  1  0
 21 23  2  0
 23 24  1  0
  8 25  1  0
 25 26  1  0
 26 27  1  0
  5 28  2  0
 28 29  1  0
 28 30  1  0
 30 31  1  0
 31 32  1  0
 31 33  1  0
 31 34  1  0
 30 35  2  0
 35 36  1  0
 35  2  1  0
 26  6  1  0
 23 10  1  0
M  CHG  1  25  -1
M  END
>  <UniqueID>  (36) 
33

>  <SMILES>  (36) 
Cc1cccc(-c2n/c(=N/c3ccc(OC(F)F)cc3)[n-][nH]2)c1

>  <Energy>  (36) 
77.78186973636876

>  <Genealogy>  (36) 
Cc1cccc(-c2nc(=Nc3ccc(OC(F)F)cc3)[n-][nH]2)c1 (protonated)
Cc1cccc(-c2n/c(=N/c3ccc(OC(F)F)cc3)[n-][nH]2)c1 (cis-trans isomerization)
Cc1cccc(-c2n/c(=N/c3ccc(OC(F)F)cc3)[n-][nH]2)c1 (3D coordinates assigned)
Cc1cccc(-c2n/c(=N/c3ccc(OC(F)F)cc3)[n-][nH]2)c1 (optimized conformer: 77.78186973636876 kcal/mol)

>  <smiles>  (36) 
Cc1cccc(-c2nc(=Nc3ccc(OC(F)F)cc3)[nH][nH]2)c1

>  <score_type>  (36) 
oracle

>  <origin>  (36) 
adgpu

>  <m_score__min__energy>  (36) 
-7.96

>  <m_primary>  (36) 
energy

$$$$
36:0
     RDKit          3D

 39 41  0  0  0  0  0  0  0  0999 V2000
   -6.6040   17.5080  -31.2180 N   0  0  0  0  0  0  0  0  0  0  0  0
   -6.2550   17.5880  -32.5990 C   0  0  0  0  0  0  0  0  0  0  0  0
   -6.3330   18.5580  -33.5860 C   0  0  0  0  0  0  0  0  0  0  0  0
   -6.8050   19.9060  -33.6750 N   0  0  0  0  0  0  0  0  0  0  0  0
   -6.3740   20.9550  -32.7970 C   0  0  0  0  0  0  0  0  0  0  0  0
   -5.0090   21.2410  -32.6210 C   0  0  0  0  0  0  0  0  0  0  0  0
   -4.6070   22.2520  -31.7440 C   0  0  0  0  0  0  0  0  0  0  0  0
   -5.5620   22.9750  -31.0180 C   0  0  0  0  0  0  0  0  0  0  0  0
   -5.0420   24.2710  -29.9420 S   0  0  0  0  0  0  0  0  0  0  0  0
   -3.9190   25.0440  -30.5780 O   0  0  0  0  0  0  0  0  0  0  0  0
   -6.1990   25.2060  -29.7170 O   0  0  0  0  0  0  0  0  0  0  0  0
   -4.5180   23.6020  -28.4170 N   0  0  0  0  0  0  0  0  0  0  0  0
   -3.6440   24.5560  -27.6890 C   0  0  0  0  0  0  0  0  0  0  0  0
   -2.1580   24.1680  -27.7890 C   0  0  0  0  0  0  0  0  0  0  0  0
   -1.8800   22.8750  -27.2720 O   0  0  0  0  0  0  0  0  0  0  0  0
   -2.9340   21.9380  -27.4710 C   0  0  0  0  0  0  0  0  0  0  0  0
   -3.8720   22.2890  -28.6380 C   0  0  0  0  0  0  0  0  0  0  0  0
   -6.9220   22.6770  -31.1740 C   0  0  0  0  0  0  0  0  0  0  0  0
   -7.3240   21.6660  -32.0510 C   0  0  0  0  0  0  0  0  0  0  0  0
   -5.7080   17.7000  -34.4700 C   0  0  0  0  0  0  0  0  0  0  0  0
   -5.3400   17.7750  -35.6720 O   0  0  0  0  0  0  0  0  0  0  0  0
   -5.6610   16.7240  -33.4960 C   0  0  0  0  0  0  0  0  0  0  0  0
   -5.2340   15.5410  -33.4420 O   0  0  0  0  0  0  0  0  0  0  0  0
   -7.2670   18.2000  -30.8080 H   0  0  0  0  0  0  0  0  0  0  0  0
   -6.2440   16.7300  -30.6240 H   0  0  0  0  0  0  0  0  0  0  0  0
   -7.4680   20.1360  -34.4490 H   0  0  0  0  0  0  0  0  0  0  0  0
   -4.2534   20.6660  -33.1764 H   0  0  0  0  0  0  0  0  0  0  0  0
   -3.5378   22.4806  -31.6235 H   0  0  0  0  0  0  0  0  0  0  0  0
   -5.3800   23.4480  -27.8430 H   0  0  0  0  0  0  0  0  0  0  0  0
   -3.7787   25.5597  -28.1184 H   0  0  0  0  0  0  0  0  0  0  0  0
   -3.9297   24.5360  -26.6269 H   0  0  0  0  0  0  0  0  0  0  0  0
   -1.8612   24.1920  -28.8479 H   0  0  0  0  0  0  0  0  0  0  0  0
   -1.5908   24.8903  -27.1836 H   0  0  0  0  0  0  0  0  0  0  0  0
   -2.4876   20.9527  -27.6706 H   0  0  0  0  0  0  0  0  0  0  0  0
   -3.5459   21.9490  -26.5570 H   0  0  0  0  0  0  0  0  0  0  0  0
   -3.2893   22.3262  -29.5703 H   0  0  0  0  0  0  0  0  0  0  0  0
   -4.6541   21.5184  -28.7055 H   0  0  0  0  0  0  0  0  0  0  0  0
   -7.6757   23.2405  -30.6044 H   0  0  0  0  0  0  0  0  0  0  0  0
   -8.3925   21.4267  -32.1565 H   0  0  0  0  0  0  0  0  0  0  0  0
  1  2  1  0
  2  3  2  0
  3  4  1  0
  4  5  1  0
  5  6  2  0
  6  7  1  0
  7  8  2  0
  8  9  1  0
  9 10  2  0
  9 11  2  0
  9 12  1  0
 12 13  1  0
 13 14  1  0
 14 15  1  0
 15 16  1  0
 16 17  1  0
  8 18  1  0
 18 19  2  0
  3 20  1  0
 20 21  2  0
 20 22  1  0
 22 23  2  0
 22  2  1  0
 19  5  1  0
 17 12  1  0
  1 24  1  0
  1 25  1  0
  4 26  1  0
  6 27  1  0
  7 28  1  0
 12 29  1  0
 13 30  1  0
 13 31  1  0
 14 32  1  0
 14 33  1  0
 16 34  1  0
 16 35  1  0
 17 36  1  0
 17 37  1  0
 18 38  1  0
 19 39  1  0
M  CHG  1  12   1
M  END
>  <UniqueID>  (37) 
34

>  <SMILES>  (37) 
Nc1c(Nc2ccc(S(=O)(=O)[NH+]3CCOCC3)cc2)c(=O)c1=O

>  <Energy>  (37) 
45.42497650078451

>  <Genealogy>  (37) 
Nc1c(Nc2ccc(S(=O)(=O)[NH+]3CCOCC3)cc2)c(=O)c1=O (protonated)
Nc1c(Nc2ccc(S(=O)(=O)[NH+]3CCOCC3)cc2)c(=O)c1=O (3D coordinates assigned)
Nc1c(Nc2ccc(S(=O)(=O)[NH+]3CCOCC3)cc2)c(=O)c1=O (nonaromatic ring conformer: 45.42497650078451 kcal/mol)

>  <smiles>  (37) 
Nc1c(Nc2ccc(S(=O)(=O)N3CCOCC3)cc2)c(=O)c1=O

>  <score_type>  (37) 
oracle

>  <origin>  (37) 
adgpu

>  <m_score__min__energy>  (37) 
-7.9199999999999999

>  <m_primary>  (37) 
energy

$$$$
37:0
     RDKit          3D

 46 49  0  0  0  0  0  0  0  0999 V2000
   -1.4600   25.8010  -29.0330 N   0  0  0  0  0  0  0  0  0  0  0  0
   -2.4650   24.8500  -28.6940 C   0  0  0  0  0  0  0  0  0  0  0  0
   -2.4890   24.3490  -27.5370 O   0  0  0  0  0  0  0  0  0  0  0  0
   -3.4690   24.4560  -29.6900 C   0  0  0  0  0  0  0  0  0  0  0  0
   -4.3330   25.2970  -30.3550 C   0  0  0  0  0  0  0  0  0  0  0  0
   -5.0950   24.5680  -31.1870 N   0  0  0  0  0  0  0  0  0  0  0  0
   -4.6680   23.3010  -30.9970 C   0  0  0  0  0  0  0  0  0  0  0  0
   -5.2320   22.1510  -31.7150 C   0  0  0  0  0  0  0  0  0  0  0  0
   -6.4390   22.1270  -32.4000 C   0  0  0  0  0  0  0  0  0  0  0  0
   -6.7190   20.8870  -32.9880 C   0  0  0  0  0  0  0  0  0  0  0  0
   -5.7310   19.9240  -32.7700 C   0  0  0  0  0  0  0  0  0  0  0  0
   -5.7320   18.5210  -33.2570 C   0  0  0  0  0  0  0  0  0  0  0  0
   -6.8730   17.7060  -33.1220 C   0  0  0  0  0  0  0  0  0  0  0  0
   -6.8600   16.3850  -33.5770 C   0  0  0  0  0  0  0  0  0  0  0  0
   -5.7160   15.8600  -34.1790 C   0  0  0  0  0  0  0  0  0  0  0  0
   -4.5760   16.6590  -34.3410 C   0  0  0  0  0  0  0  0  0  0  0  0
   -3.3250   16.0820  -34.9540 C   0  0  0  0  0  0  0  0  0  0  0  0
   -2.3020   17.1290  -35.1140 N   0  0  0  0  0  0  0  0  0  0  0  0
   -1.4300   17.2340  -33.9320 C   0  0  0  0  0  0  0  0  0  0  0  0
   -1.4050   18.6370  -33.3740 C   0  0  0  0  0  0  0  0  0  0  0  0
   -1.5540   19.7430  -34.2230 C   0  0  0  0  0  0  0  0  0  0  0  0
   -1.5090   21.0360  -33.7000 C   0  0  0  0  0  0  0  0  0  0  0  0
   -1.3100   21.2130  -32.3290 C   0  0  0  0  0  0  0  0  0  0  0  0
   -1.1600   20.1320  -31.5180 N   0  0  0  0  0  0  0  0  0  0  0  0
   -1.2020   18.8630  -32.0040 C   0  0  0  0  0  0  0  0  0  0  0  0
   -4.5840   17.9800  -33.8680 C   0  0  0  0  0  0  0  0  0  0  0  0
   -4.5160   20.6360  -31.8380 S   0  0  0  0  0  0  0  0  0  0  0  0
   -3.6730   23.1890  -30.0910 N   0  0  0  0  0  0  0  0  0  0  0  0
   -1.2460   26.0220  -30.0290 H   0  0  0  0  0  0  0  0  0  0  0  0
   -4.3899   26.3879  -30.2260 H   0  0  0  0  0  0  0  0  0  0  0  0
   -7.1094   22.9960  -32.4738 H   0  0  0  0  0  0  0  0  0  0  0  0
   -7.6326   20.6897  -33.5679 H   0  0  0  0  0  0  0  0  0  0  0  0
   -7.7818   18.1129  -32.6545 H   0  0  0  0  0  0  0  0  0  0  0  0
   -7.7551   15.7565  -33.4601 H   0  0  0  0  0  0  0  0  0  0  0  0
   -5.7088   14.8166  -34.5273 H   0  0  0  0  0  0  0  0  0  0  0  0
   -2.9331   15.2893  -34.2998 H   0  0  0  0  0  0  0  0  0  0  0  0
   -3.5703   15.6685  -35.9434 H   0  0  0  0  0  0  0  0  0  0  0  0
   -1.7250   16.9370  -35.9680 H   0  0  0  0  0  0  0  0  0  0  0  0
   -2.7820   18.0500  -35.2450 H   0  0  0  0  0  0  0  0  0  0  0  0
   -1.7999   16.5488  -33.1551 H   0  0  0  0  0  0  0  0  0  0  0  0
   -0.4069   16.9705  -34.2384 H   0  0  0  0  0  0  0  0  0  0  0  0
   -1.7064   19.5913  -35.3018 H   0  0  0  0  0  0  0  0  0  0  0  0
   -1.6291   21.9071  -34.3609 H   0  0  0  0  0  0  0  0  0  0  0  0
   -1.2746   22.2274  -31.9051 H   0  0  0  0  0  0  0  0  0  0  0  0
   -1.0764   18.0102  -31.3207 H   0  0  0  0  0  0  0  0  0  0  0  0
   -3.6824   18.6009  -33.9757 H   0  0  0  0  0  0  0  0  0  0  0  0
  1  2  1  0
  2  3  2  0
  2  4  1  0
  4  5  2  0
  5  6  1  0
  6  7  1  0
  7  8  1  0
  8  9  2  0
  9 10  1  0
 10 11  2  0
 11 12  1  0
 12 13  2  0
 13 14  1  0
 14 15  2  0
 15 16  1  0
 16 17  1  0
 17 18  1  0
 18 19  1  0
 19 20  1  0
 20 21  2  0
 21 22  1  0
 22 23  2  0
 23 24  1  0
 24 25  2  0
 16 26  2  0
 11 27  1  0
  7 28  2  0
 28  4  1  0
 27  8  1  0
 26 12  1  0
 25 20  1  0
  1 29  1  0
  5 30  1  0
  9 31  1  0
 10 32  1  0
 13 33  1  0
 14 34  1  0
 15 35  1  0
 17 36  1  0
 17 37  1  0
 18 38  1  0
 18 39  1  0
 19 40  1  0
 19 41  1  0
 21 42  1  0
 22 43  1  0
 23 44  1  0
 25 45  1  0
 26 46  1  0
M  CHG  3   1  -1   6  -1  18   1
M  END
>  <UniqueID>  (38) 
35

>  <SMILES>  (38) 
[NH-]C(=O)c1c[n-]c(-c2ccc(-c3cccc(C[NH2+]Cc4cccnc4)c3)s2)n1

>  <Energy>  (38) 
103.78054657526087

>  <Genealogy>  (38) 
[NH-]C(=O)c1c[n-]c(-c2ccc(-c3cccc(C[NH2+]Cc4cccnc4)c3)s2)n1 (protonated)
[NH-]C(=O)c1c[n-]c(-c2ccc(-c3cccc(C[NH2+]Cc4cccnc4)c3)s2)n1 (3D coordinates assigned)
[NH-]C(=O)c1c[n-]c(-c2ccc(-c3cccc(C[NH2+]Cc4cccnc4)c3)s2)n1 (optimized conformer: 103.78054657526087 kcal/mol)

>  <smiles>  (38) 
NC(=O)c1c[nH]c(-c2ccc(-c3cccc(CNCc4cccnc4)c3)s2)n1

>  <score_type>  (38) 
oracle

>  <origin>  (38) 
adgpu

>  <m_score__min__energy>  (38) 
-10.300000000000001

>  <m_primary>  (38) 
energy

$$$$
38:0
     RDKit          3D

 68 72  0  0  1  0  0  0  0  0999 V2000
    2.1460   26.3510  -24.8070 C   0  0  0  0  0  0  0  0  0  0  0  0
    2.1160   26.6720  -26.1920 O   0  0  0  0  0  0  0  0  0  0  0  0
    1.0910   26.0380  -26.9130 C   0  0  0  0  0  0  0  0  0  0  0  0
   -0.1450   26.6550  -27.1040 C   0  0  0  0  0  0  0  0  0  0  0  0
   -1.1420   26.0330  -27.8080 C   0  0  0  0  0  0  0  0  0  0  0  0
   -0.9610   24.7790  -28.3510 C   0  0  0  0  0  0  0  0  0  0  0  0
   -2.0720   24.1810  -29.0940 C   0  0  0  0  0  0  0  0  0  0  0  0
   -2.0380   22.9100  -29.6050 C   0  0  0  0  0  0  0  0  0  0  0  0
   -3.0910   22.3710  -30.3100 C   0  0  0  0  0  0  0  0  0  0  0  0
   -3.0510   21.0050  -30.8640 C   0  0  0  0  0  0  0  0  0  0  0  0
   -2.8050   20.0410  -30.1110 O   0  0  0  0  0  0  0  0  0  0  0  0
   -3.2990   20.8540  -32.2500 N   0  0  0  0  0  0  0  0  0  0  0  0
   -3.3180   19.6330  -32.9560 C   0  0  0  0  0  0  0  0  0  0  0  0
   -4.5070   18.9360  -33.0320 C   0  0  0  0  0  0  0  0  0  0  0  0
   -4.6340   17.7220  -33.6750 C   0  0  0  0  0  0  0  0  0  0  0  0
   -3.5300   17.1730  -34.2670 C   0  0  0  0  0  0  0  0  0  0  0  0
   -3.5540   15.6290  -35.1130 S   0  0  0  0  0  0  0  0  0  0  0  0
   -4.8490   14.9250  -34.7540 O   0  0  0  0  0  0  0  0  0  0  0  0
   -3.4600   15.9290  -36.5800 O   0  0  0  0  0  0  0  0  0  0  0  0
   -2.2000   14.7180  -34.5490 N   0  0  0  0  0  0  0  0  0  0  0  0
   -2.2890   13.9950  -33.5070 C   0  0  0  0  0  0  0  0  0  0  0  0
   -3.4310   13.8720  -32.7530 C   0  0  0  0  0  0  0  0  0  0  0  0
   -3.4940   13.0930  -31.6240 C   0  0  0  0  0  0  0  0  0  0  0  0
   -4.7240   12.9770  -30.8190 C   0  0  0  0  0  0  0  0  0  0  0  0
   -2.3940   12.4190  -31.2320 N   0  0  0  0  0  0  0  0  0  0  0  0
   -1.2640   12.5250  -31.9560 C   0  0  0  0  0  0  0  0  0  0  0  0
   -0.0320   11.7860  -31.5400 C   0  0  0  0  0  0  0  0  0  0  0  0
   -1.2000   13.3000  -33.0810 N   0  0  0  0  0  0  0  0  0  0  0  0
   -2.3100   17.8240  -34.2250 C   0  0  0  0  0  0  0  0  0  0  0  0
   -2.2290   19.0540  -33.5630 C   0  0  0  0  0  0  0  0  0  0  0  0
   -4.2020   23.1830  -30.4840 C   0  0  0  0  0  0  0  0  0  0  0  0
   -5.3170   22.7430  -31.1790 C   0  0  0  0  0  0  0  0  0  0  0  0
   -6.4370   23.5400  -31.3650 C   0  0  0  0  0  0  0  0  0  0  0  0
   -6.4730   24.8180  -30.8510 C   0  0  0  0  0  0  0  0  0  0  0  0
   -5.3600   25.2690  -30.1520 C   0  0  0  0  0  0  0  0  0  0  0  0
   -4.2470   24.4670  -29.9720 C   0  0  0  0  0  0  0  0  0  0  0  0
   -3.1820   24.9200  -29.2970 N   0  0  0  0  0  0  0  0  0  0  0  0
    0.2500   24.1430  -28.1790 C   0  0  0  0  0  0  0  0  0  0  0  0
    1.2400   24.7890  -27.4660 C   0  0  0  0  0  0  0  0  0  0  0  0
    2.4900   24.1690  -27.2690 O   0  0  0  0  0  0  0  0  0  0  0  0
    3.6620   24.6840  -27.8620 C   0  0  0  0  0  0  0  0  0  0  0  0
    2.0597   27.2739  -24.2148 H   0  0  0  0  0  0  0  0  0  0  0  0
    1.3065   25.6818  -24.5674 H   0  0  0  0  0  0  0  0  0  0  0  0
    3.0950   25.8490  -24.5674 H   0  0  0  0  0  0  0  0  0  0  0  0
   -0.3219   27.6558  -26.6832 H   0  0  0  0  0  0  0  0  0  0  0  0
   -2.1065   26.5445  -27.9427 H   0  0  0  0  0  0  0  0  0  0  0  0
   -1.1375   22.2985  -29.4464 H   0  0  0  0  0  0  0  0  0  0  0  0
   -3.4850   21.7350  -32.7860 H   0  0  0  0  0  0  0  0  0  0  0  0
   -5.3983   19.3705  -32.5558 H   0  0  0  0  0  0  0  0  0  0  0  0
   -5.6045   17.2055  -33.7109 H   0  0  0  0  0  0  0  0  0  0  0  0
   -4.3317   14.4200  -33.0666 H   0  0  0  0  0  0  0  0  0  0  0  0
   -4.4662   13.0013  -29.7499 H   0  0  0  0  0  0  0  0  0  0  0  0
   -5.3960   13.8158  -31.0533 H   0  0  0  0  0  0  0  0  0  0  0  0
   -5.2274   12.0274  -31.0533 H   0  0  0  0  0  0  0  0  0  0  0  0
   -2.3550   11.8070  -30.3900 H   0  0  0  0  0  0  0  0  0  0  0  0
    0.0227   11.7532  -30.4418 H   0  0  0  0  0  0  0  0  0  0  0  0
   -0.0683   10.7604  -31.9361 H   0  0  0  0  0  0  0  0  0  0  0  0
    0.8557   12.3008  -31.9361 H   0  0  0  0  0  0  0  0  0  0  0  0
   -1.4220   17.3837  -34.7022 H   0  0  0  0  0  0  0  0  0  0  0  0
   -1.2611   19.5754  -33.5271 H   0  0  0  0  0  0  0  0  0  0  0  0
   -5.3139   21.7259  -31.5980 H   0  0  0  0  0  0  0  0  0  0  0  0
   -7.2998   23.1503  -31.9250 H   0  0  0  0  0  0  0  0  0  0  0  0
   -7.3548   25.4608  -30.9896 H   0  0  0  0  0  0  0  0  0  0  0  0
   -5.3638   26.2859  -29.7326 H   0  0  0  0  0  0  0  0  0  0  0  0
    0.4237   23.1421  -28.6009 H   0  0  0  0  0  0  0  0  0  0  0  0
    4.3657   24.9932  -27.0751 H   0  0  0  0  0  0  0  0  0  0  0  0
    4.1284   23.9079  -28.4866 H   0  0  0  0  0  0  0  0  0  0  0  0
    3.4057   25.5524  -28.4866 H   0  0  0  0  0  0  0  0  0  0  0  0
  1  2  1  0
  2  3  1  0
  3  4  2  0
  4  5  1  0
  5  6  2  0
  6  7  1  0
  7  8  2  0
  8  9  1  0
  9 10  1  0
 10 11  2  0
 10 12  1  0
 12 13  1  0
 13 14  2  0
 14 15  1  0
 15 16  2  0
 16 17  1  0
 17 18  2  0
 17 19  2  0
 17 20  1  0
 20 21  2  0
 21 22  1  0
 22 23  2  0
 23 24  1  0
 23 25  1  0
 25 26  1  0
 26 27  1  0
 26 28  2  0
 16 29  1  0
 29 30  2  0
  9 31  2  0
 31 32  1  0
 32 33  2  0
 33 34  1  0
 34 35  2  0
 35 36  1  0
 36 37  2  0
  6 38  1  0
 38 39  2  0
 39 40  1  0
 40 41  1  0
 39  3  1  0
 37  7  1  0
 30 13  1  0
 36 31  1  0
 28 21  1  0
  1 42  1  0
  1 43  1  0
  1 44  1  0
  4 45  1  0
  5 46  1  0
  8 47  1  0
 12 48  1  0
 14 49  1  0
 15 50  1  0
 22 51  1  0
 24 52  1  0
 24 53  1  0
 24 54  1  0
 25 55  1  0
 27 56  1  0
 27 57  1  0
 27 58  1  0
 29 59  1  0
 30 60  1  0
 32 61  1  0
 33 62  1  0
 34 63  1  0
 35 64  1  0
 38 65  1  0
 41 66  1  0
 41 67  1  0
 41 68  1  0
M  END
>  <smiles>  (39) 
COc1ccc(-c2cc(C(=O)Nc3ccc(S(=O)(=O)N=c4cc(C)[nH]c(C)n4)cc3)c3ccccc3n2)cc1OC

>  <score_type>  (39) 
oracle

>  <origin>  (39) 
adgpu

>  <m_score__min__energy>  (39) 
-10.6

>  <m_primary>  (39) 
energy

$$$$
39:0
     RDKit          3D

 59 62  0  0  0  0  0  0  0  0999 V2000
   -3.7210   24.9800  -26.3870 C   0  0  0  0  0  0  0  0  0  0  0  0
   -4.4750   24.5400  -27.6360 C   0  0  0  0  0  0  0  0  0  0  0  0
   -3.5400   24.2410  -28.7320 N   0  0  0  0  0  0  0  0  0  0  0  0
   -3.9630   24.2020  -30.1130 C   0  0  0  0  0  0  0  0  0  0  0  0
   -3.8600   25.2320  -30.8330 O   0  0  0  0  0  0  0  0  0  0  0  0
   -4.5020   22.9760  -30.7220 C   0  0  0  0  0  0  0  0  0  0  0  0
   -3.8050   22.0370  -31.4600 C   0  0  0  0  0  0  0  0  0  0  0  0
   -2.3550   22.0800  -31.8160 C   0  0  0  0  0  0  0  0  0  0  0  0
   -4.6550   21.0900  -31.9020 N   0  0  0  0  0  0  0  0  0  0  0  0
   -5.8690   21.3990  -31.4710 N   0  0  0  0  0  0  0  0  0  0  0  0
   -7.0220   20.5950  -31.7660 C   0  0  0  0  0  0  0  0  0  0  0  0
   -8.2490   21.1850  -32.1170 C   0  0  0  0  0  0  0  0  0  0  0  0
   -9.3550   20.3850  -32.4200 C   0  0  0  0  0  0  0  0  0  0  0  0
   -9.2420   18.9920  -32.3880 C   0  0  0  0  0  0  0  0  0  0  0  0
   -8.0210   18.3980  -32.0620 C   0  0  0  0  0  0  0  0  0  0  0  0
   -6.9120   19.1950  -31.7600 C   0  0  0  0  0  0  0  0  0  0  0  0
   -5.8130   22.5390  -30.7400 C   0  0  0  0  0  0  0  0  0  0  0  0
   -6.9860   23.2440  -30.1210 C   0  0  0  0  0  0  0  0  0  0  0  0
   -2.1790   23.9120  -28.4020 C   0  0  0  0  0  0  0  0  0  0  0  0
   -1.8250   22.6370  -27.9130 C   0  0  0  0  0  0  0  0  0  0  0  0
   -2.8600   21.6570  -27.7160 N   0  0  0  0  0  0  0  0  0  0  0  0
   -0.5030   22.3570  -27.6180 N   0  0  0  0  0  0  0  0  0  0  0  0
   -0.0540   20.9950  -27.2530 C   0  0  0  0  0  0  0  0  0  0  0  0
    0.0410   20.1260  -28.4810 C   0  0  0  0  0  0  0  0  0  0  0  0
    0.2430   18.7400  -28.3590 C   0  0  0  0  0  0  0  0  0  0  0  0
    0.2890   17.9300  -29.4980 C   0  0  0  0  0  0  0  0  0  0  0  0
    0.1390   18.4980  -30.7670 C   0  0  0  0  0  0  0  0  0  0  0  0
   -0.0620   19.8740  -30.8980 C   0  0  0  0  0  0  0  0  0  0  0  0
   -0.1150   20.6870  -29.7610 C   0  0  0  0  0  0  0  0  0  0  0  0
    0.4450   23.3430  -27.7730 C   0  0  0  0  0  0  0  0  0  0  0  0
    1.6570   23.1220  -27.5090 O   0  0  0  0  0  0  0  0  0  0  0  0
    0.0960   24.5740  -28.2210 N   0  0  0  0  0  0  0  0  0  0  0  0
   -1.1810   24.8760  -28.5410 C   0  0  0  0  0  0  0  0  0  0  0  0
   -1.4590   26.0300  -28.9650 O   0  0  0  0  0  0  0  0  0  0  0  0
   -4.2737   24.6574  -25.4923 H   0  0  0  0  0  0  0  0  0  0  0  0
   -2.7198   24.5244  -26.3835 H   0  0  0  0  0  0  0  0  0  0  0  0
   -3.6252   26.0758  -26.3835 H   0  0  0  0  0  0  0  0  0  0  0  0
   -5.0603   23.6378  -27.4049 H   0  0  0  0  0  0  0  0  0  0  0  0
   -5.1401   25.3569  -27.9527 H   0  0  0  0  0  0  0  0  0  0  0  0
   -1.7520   22.0979  -30.8962 H   0  0  0  0  0  0  0  0  0  0  0  0
   -2.0960   21.1891  -32.4070 H   0  0  0  0  0  0  0  0  0  0  0  0
   -2.1492   22.9846  -32.4070 H   0  0  0  0  0  0  0  0  0  0  0  0
   -8.3392   22.2807  -32.1534 H   0  0  0  0  0  0  0  0  0  0  0  0
  -10.3152   20.8523  -32.6839 H   0  0  0  0  0  0  0  0  0  0  0  0
  -10.1148   18.3639  -32.6196 H   0  0  0  0  0  0  0  0  0  0  0  0
   -7.9312   17.3018  -32.0427 H   0  0  0  0  0  0  0  0  0  0  0  0
   -5.9488   18.7228  -31.5166 H   0  0  0  0  0  0  0  0  0  0  0  0
   -6.9060   23.1959  -29.0250 H   0  0  0  0  0  0  0  0  0  0  0  0
   -6.9928   24.2960  -30.4424 H   0  0  0  0  0  0  0  0  0  0  0  0
   -7.9182   22.7564  -30.4424 H   0  0  0  0  0  0  0  0  0  0  0  0
   -2.6620   20.6970  -27.3660 H   0  0  0  0  0  0  0  0  0  0  0  0
   -3.8670   21.9220  -27.7460 H   0  0  0  0  0  0  0  0  0  0  0  0
    0.9346   21.0554  -26.7744 H   0  0  0  0  0  0  0  0  0  0  0  0
   -0.7838   20.5529  -26.5588 H   0  0  0  0  0  0  0  0  0  0  0  0
    0.3655   18.2905  -27.3625 H   0  0  0  0  0  0  0  0  0  0  0  0
    0.4432   16.8457  -29.3957 H   0  0  0  0  0  0  0  0  0  0  0  0
    0.1793   17.8607  -31.6627 H   0  0  0  0  0  0  0  0  0  0  0  0
   -0.1788   20.3191  -31.8971 H   0  0  0  0  0  0  0  0  0  0  0  0
   -0.2793   21.7693  -29.8685 H   0  0  0  0  0  0  0  0  0  0  0  0
  1  2  1  0
  2  3  1  0
  3  4  1  0
  4  5  2  0
  4  6  1  0
  6  7  1  0
  7  8  1  0
  7  9  2  0
  9 10  1  0
 10 11  1  0
 11 12  2  0
 12 13  1  0
 13 14  2  0
 14 15  1  0
 15 16  2  0
 10 17  1  0
 17 18  1  0
  3 19  1  0
 19 20  2  0
 20 21  1  0
 20 22  1  0
 22 23  1  0
 23 24  1  0
 24 25  2  0
 25 26  1  0
 26 27  2  0
 27 28  1  0
 28 29  2  0
 22 30  1  0
 30 31  2  0
 30 32  1  0
 32 33  1  0
 33 34  2  0
 17  6  2  0
 33 19  1  0
 16 11  1  0
 29 24  1  0
  1 35  1  0
  1 36  1  0
  1 37  1  0
  2 38  1  0
  2 39  1  0
  8 40  1  0
  8 41  1  0
  8 42  1  0
 12 43  1  0
 13 44  1  0
 14 45  1  0
 15 46  1  0
 16 47  1  0
 18 48  1  0
 18 49  1  0
 18 50  1  0
 21 51  1  0
 21 52  1  0
 23 53  1  0
 23 54  1  0
 25 55  1  0
 26 56  1  0
 27 57  1  0
 28 58  1  0
 29 59  1  0
M  CHG  1  32  -1
M  END
>  <UniqueID>  (40) 
36

>  <SMILES>  (40) 
CCN(C(=O)c1c(C)nn(-c2ccccc2)c1C)c1c(N)n(Cc2ccccc2)c(=O)[n-]c1=O

>  <Energy>  (40) 
115.44874322664951

>  <Genealogy>  (40) 
CCN(C(=O)c1c(C)nn(-c2ccccc2)c1C)c1c(N)n(Cc2ccccc2)c(=O)[n-]c1=O (protonated)
CCN(C(=O)c1c(C)nn(-c2ccccc2)c1C)c1c(N)n(Cc2ccccc2)c(=O)[n-]c1=O (3D coordinates assigned)
CCN(C(=O)c1c(C)nn(-c2ccccc2)c1C)c1c(N)n(Cc2ccccc2)c(=O)[n-]c1=O (optimized conformer: 115.44874322664951 kcal/mol)

>  <smiles>  (40) 
CCN(C(=O)c1c(C)nn(-c2ccccc2)c1C)c1c(N)n(Cc2ccccc2)c(=O)[nH]c1=O

>  <score_type>  (40) 
oracle

>  <origin>  (40) 
adgpu

>  <m_score__min__energy>  (40) 
-10.93

>  <m_primary>  (40) 
energy

$$$$
40:0
     RDKit          3D

 56 59  0  0  0  0  0  0  0  0999 V2000
   -1.8540   26.0460  -28.9250 O   0  0  0  0  0  0  0  0  0  0  0  0
   -1.4820   24.7080  -28.9910 C   0  0  0  0  0  0  0  0  0  0  0  0
   -0.1910   24.3270  -28.6210 C   0  0  0  0  0  0  0  0  0  0  0  0
    0.1900   22.9880  -28.6940 C   0  0  0  0  0  0  0  0  0  0  0  0
   -0.7340   22.0340  -29.1440 C   0  0  0  0  0  0  0  0  0  0  0  0
   -0.3560   20.5770  -29.2320 C   0  0  0  0  0  0  0  0  0  0  0  0
   -1.0790   19.8780  -30.3230 N   0  0  0  0  0  0  0  0  0  0  0  0
   -0.4060   18.5880  -30.6230 C   0  0  0  0  0  0  0  0  0  0  0  0
   -0.7510   18.0930  -32.0330 C   0  0  0  0  0  0  0  0  0  0  0  0
   -0.2500   19.0260  -33.0740 N   0  0  0  0  0  0  0  0  0  0  0  0
   -1.0180   18.8970  -34.3300 C   0  0  0  0  0  0  0  0  0  0  0  0
   -2.5010   18.9010  -34.0580 C   0  0  0  0  0  0  0  0  0  0  0  0
   -3.1460   20.0940  -33.7000 C   0  0  0  0  0  0  0  0  0  0  0  0
   -4.5260   20.1100  -33.4760 C   0  0  0  0  0  0  0  0  0  0  0  0
   -5.2790   18.9360  -33.5990 C   0  0  0  0  0  0  0  0  0  0  0  0
   -6.6620   19.0030  -33.3760 O   0  0  0  0  0  0  0  0  0  0  0  0
   -7.3210   20.0090  -32.6580 C   0  0  0  0  0  0  0  0  0  0  0  0
   -8.4520   19.6820  -31.9040 C   0  0  0  0  0  0  0  0  0  0  0  0
   -9.1240   20.6850  -31.2020 C   0  0  0  0  0  0  0  0  0  0  0  0
   -8.6670   22.0020  -31.2660 C   0  0  0  0  0  0  0  0  0  0  0  0
   -7.5410   22.2970  -32.0380 C   0  0  0  0  0  0  0  0  0  0  0  0
   -6.9010   21.3060  -32.7140 N   0  0  0  0  0  0  0  0  0  0  0  0
   -4.6380   17.7460  -33.9840 C   0  0  0  0  0  0  0  0  0  0  0  0
   -3.2570   17.7280  -34.2080 C   0  0  0  0  0  0  0  0  0  0  0  0
   -0.1880   20.4360  -32.6140 C   0  0  0  0  0  0  0  0  0  0  0  0
   -1.2370   20.7420  -31.5300 C   0  0  0  0  0  0  0  0  0  0  0  0
   -1.9880   22.4280  -29.5000 N   0  0  0  0  0  0  0  0  0  0  0  0
   -2.3880   23.7270  -29.4300 C   0  0  0  0  0  0  0  0  0  0  0  0
   -3.7780   24.0920  -29.8660 C   0  0  0  0  0  0  0  0  0  0  0  0
   -3.7770   25.3520  -30.4820 O   0  0  0  0  0  0  0  0  0  0  0  0
    0.5264   25.0841  -28.2715 H   0  0  0  0  0  0  0  0  0  0  0  0
    1.2055   22.6828  -28.4015 H   0  0  0  0  0  0  0  0  0  0  0  0
    0.7255   20.5017  -29.4180 H   0  0  0  0  0  0  0  0  0  0  0  0
   -0.6316   20.0974  -28.2812 H   0  0  0  0  0  0  0  0  0  0  0  0
   -2.0410   19.6420  -29.9780 H   0  0  0  0  0  0  0  0  0  0  0  0
    0.6827   18.7262  -30.5484 H   0  0  0  0  0  0  0  0  0  0  0  0
   -0.7543   17.8382  -29.8974 H   0  0  0  0  0  0  0  0  0  0  0  0
   -0.2923   17.1052  -32.1874 H   0  0  0  0  0  0  0  0  0  0  0  0
   -1.8459   18.0337  -32.1202 H   0  0  0  0  0  0  0  0  0  0  0  0
   -0.7711   19.7407  -34.9912 H   0  0  0  0  0  0  0  0  0  0  0  0
   -0.7514   17.9428  -34.8079 H   0  0  0  0  0  0  0  0  0  0  0  0
   -2.5635   21.0212  -33.5950 H   0  0  0  0  0  0  0  0  0  0  0  0
   -5.0237   21.0517  -33.2012 H   0  0  0  0  0  0  0  0  0  0  0  0
   -8.8098   18.6426  -31.8640 H   0  0  0  0  0  0  0  0  0  0  0  0
  -10.0110   20.4376  -30.6003 H   0  0  0  0  0  0  0  0  0  0  0  0
   -9.1877   22.7988  -30.7147 H   0  0  0  0  0  0  0  0  0  0  0  0
   -7.1719   23.3314  -32.0991 H   0  0  0  0  0  0  0  0  0  0  0  0
   -5.2249   16.8242  -34.1099 H   0  0  0  0  0  0  0  0  0  0  0  0
   -2.7619   16.7910  -34.5028 H   0  0  0  0  0  0  0  0  0  0  0  0
    0.8134   20.6304  -32.2024 H   0  0  0  0  0  0  0  0  0  0  0  0
   -0.3985   21.0823  -33.4788 H   0  0  0  0  0  0  0  0  0  0  0  0
   -1.1344   21.7944  -31.2266 H   0  0  0  0  0  0  0  0  0  0  0  0
   -2.2298   20.5401  -31.9585 H   0  0  0  0  0  0  0  0  0  0  0  0
   -4.1446   23.3391  -30.5793 H   0  0  0  0  0  0  0  0  0  0  0  0
   -4.4342   24.1242  -28.9837 H   0  0  0  0  0  0  0  0  0  0  0  0
   -3.5030   26.0060  -29.7870 H   0  0  0  0  0  0  0  0  0  0  0  0
  1  2  1  0
  2  3  2  0
  3  4  1  0
  4  5  2  0
  5  6  1  0
  6  7  1  0
  7  8  1  0
  8  9  1  0
  9 10  1  0
 10 11  1  0
 11 12  1  0
 12 13  2  0
 13 14  1  0
 14 15  2  0
 15 16  1  0
 16 17  1  0
 17 18  2  0
 18 19  1  0
 19 20  2  0
 20 21  1  0
 21 22  2  0
 15 23  1  0
 23 24  2  0
 10 25  1  0
 25 26  1  0
  5 27  1  0
 27 28  2  0
 28 29  1  0
 29 30  1  0
 28  2  1  0
 26  7  1  0
 24 12  1  0
 22 17  1  0
  3 31  1  0
  4 32  1  0
  6 33  1  0
  6 34  1  0
  7 35  1  0
  8 36  1  0
  8 37  1  0
  9 38  1  0
  9 39  1  0
 11 40  1  0
 11 41  1  0
 13 42  1  0
 14 43  1  0
 18 44  1  0
 19 45  1  0
 20 46  1  0
 21 47  1  0
 23 48  1  0
 24 49  1  0
 25 50  1  0
 25 51  1  0
 26 52  1  0
 26 53  1  0
 29 54  1  0
 29 55  1  0
 30 56  1  0
M  CHG  2   1  -1   7   1
M  END
>  <UniqueID>  (41) 
37

>  <SMILES>  (41) 
[O-]c1ccc(C[NH+]2CCN(Cc3ccc(Oc4ccccn4)cc3)CC2)nc1CO

>  <Energy>  (41) 
78.82147890990538

>  <Genealogy>  (41) 
[O-]c1ccc(C[NH+]2CCN(Cc3ccc(Oc4ccccn4)cc3)CC2)nc1CO (protonated)
[O-]c1ccc(C[NH+]2CCN(Cc3ccc(Oc4ccccn4)cc3)CC2)nc1CO (3D coordinates assigned)
[O-]c1ccc(C[NH+]2CCN(Cc3ccc(Oc4ccccn4)cc3)CC2)nc1CO (nonaromatic ring conformer: 78.82147890990538 kcal/mol)

>  <smiles>  (41) 
OCc1nc(CN2CCN(Cc3ccc(Oc4ccccn4)cc3)CC2)ccc1O

>  <score_type>  (41) 
oracle

>  <origin>  (41) 
adgpu

>  <m_score__min__energy>  (41) 
-10.869999999999999

>  <m_primary>  (41) 
energy

$$$$
41:0
     RDKit          3D

 51 54  0  0  1  0  0  0  0  0999 V2000
    0.4100   19.4310  -30.2450 C   0  0  0  0  0  0  0  0  0  0  0  0
    0.9370   19.7760  -28.8680 C   0  0  0  0  0  0  0  0  0  0  0  0
   -0.2450   19.8220  -27.9510 C   0  0  0  0  0  0  0  0  0  0  0  0
   -0.9310   18.7720  -27.4480 N   0  0  0  0  0  0  0  0  0  0  0  0
   -1.9310   19.2320  -26.6600 C   0  0  0  0  0  0  0  0  0  0  0  0
   -1.8320   20.6140  -26.6990 C   0  0  0  0  0  0  0  0  0  0  0  0
   -0.7910   20.9610  -27.4980 N   0  0  0  0  0  0  0  0  0  0  0  0
   -0.4200   22.3130  -27.7490 C   0  0  0  0  0  0  0  0  0  0  0  0
    0.8040   22.7270  -27.3780 N   0  0  0  0  0  0  0  0  0  0  0  0
    1.1410   24.0090  -27.6220 C   0  0  0  0  0  0  0  0  0  0  0  0
    0.3050   24.8810  -28.2170 N   0  0  0  0  0  0  0  0  0  0  0  0
   -0.9150   24.4610  -28.5850 C   0  0  0  0  0  0  0  0  0  0  0  0
   -1.6810   25.2930  -29.1390 O   0  0  0  0  0  0  0  0  0  0  0  0
   -1.3190   23.1610  -28.3620 C   0  0  0  0  0  0  0  0  0  0  0  0
   -2.6200   22.7560  -28.7660 N   0  0  0  0  0  0  0  0  0  0  0  0
   -2.8440   22.2250  -29.9340 C   0  0  0  0  0  0  0  0  0  0  0  0
   -1.7680   22.0740  -30.7600 C   0  0  0  0  0  0  0  0  0  0  0  0
   -1.9940   21.5090  -32.0060 C   0  0  0  0  0  0  0  0  0  0  0  0
   -3.2340   21.1330  -32.3680 N   0  0  0  0  0  0  0  0  0  0  0  0
   -4.2990   21.2840  -31.5480 C   0  0  0  0  0  0  0  0  0  0  0  0
   -5.6130   20.8960  -31.9050 N   0  0  0  0  0  0  0  0  0  0  0  0
   -5.8100   19.9380  -33.0020 C   0  0  0  0  0  0  0  0  0  0  0  0
   -7.1220   19.2390  -32.7100 C   0  0  0  0  0  0  0  0  0  0  0  0
   -8.1960   20.1890  -32.8120 N   0  0  0  0  0  0  0  0  0  0  0  0
   -9.4950   19.5860  -32.7440 C   0  0  0  0  0  0  0  0  0  0  0  0
   -8.0330   21.3530  -32.0040 C   0  0  0  0  0  0  0  0  0  0  0  0
   -6.7550   21.4220  -31.2180 C   0  0  0  0  0  0  0  0  0  0  0  0
   -4.0450   21.8360  -30.3420 N   0  0  0  0  0  0  0  0  0  0  0  0
   -0.5067   18.8309  -30.1470 H   0  0  0  0  0  0  0  0  0  0  0  0
    0.1850   20.3572  -30.7941 H   0  0  0  0  0  0  0  0  0  0  0  0
    1.1688   18.8543  -30.7941 H   0  0  0  0  0  0  0  0  0  0  0  0
    1.6478   19.0071  -28.5311 H   0  0  0  0  0  0  0  0  0  0  0  0
    1.4660   20.7404  -28.8783 H   0  0  0  0  0  0  0  0  0  0  0  0
   -2.6683   18.6338  -26.1046 H   0  0  0  0  0  0  0  0  0  0  0  0
   -2.4910   21.3166  -26.1679 H   0  0  0  0  0  0  0  0  0  0  0  0
    1.5040   22.0820  -26.9060 H   0  0  0  0  0  0  0  0  0  0  0  0
    2.1405   24.3574  -27.3227 H   0  0  0  0  0  0  0  0  0  0  0  0
   -0.7607   22.3883  -30.4494 H   0  0  0  0  0  0  0  0  0  0  0  0
   -1.1545   21.3674  -32.7025 H   0  0  0  0  0  0  0  0  0  0  0  0
   -3.3690   20.7130  -33.3110 H   0  0  0  0  0  0  0  0  0  0  0  0
   -5.8633   20.4653  -33.9659 H   0  0  0  0  0  0  0  0  0  0  0  0
   -4.9768   19.2229  -33.0691 H   0  0  0  0  0  0  0  0  0  0  0  0
   -7.2771   18.4286  -33.4375 H   0  0  0  0  0  0  0  0  0  0  0  0
   -7.0977   18.8159  -31.6949 H   0  0  0  0  0  0  0  0  0  0  0  0
   -9.7826   19.4525  -31.6907 H   0  0  0  0  0  0  0  0  0  0  0  0
  -10.2277   20.2361  -33.2446 H   0  0  0  0  0  0  0  0  0  0  0  0
   -9.4714   18.6068  -33.2446 H   0  0  0  0  0  0  0  0  0  0  0  0
   -8.0724   22.2319  -32.6643 H   0  0  0  0  0  0  0  0  0  0  0  0
   -8.8429   21.3197  -31.2604 H   0  0  0  0  0  0  0  0  0  0  0  0
   -6.5560   22.4763  -30.9752 H   0  0  0  0  0  0  0  0  0  0  0  0
   -6.9003   20.7984  -30.3236 H   0  0  0  0  0  0  0  0  0  0  0  0
  1  2  1  0
  2  3  1  0
  3  4  2  0
  4  5  1  0
  5  6  2  0
  6  7  1  0
  7  8  1  0
  8  9  1  0
  9 10  1  0
 10 11  2  0
 11 12  1  0
 12 13  2  0
 12 14  1  0
 14 15  1  0
 15 16  2  0
 16 17  1  0
 17 18  2  0
 18 19  1  0
 19 20  1  0
 20 21  1  0
 21 22  1  0
 22 23  1  0
 23 24  1  0
 24 25  1  0
 24 26  1  0
 26 27  1  0
 20 28  2  0
  7  3  1  0
 14  8  2  0
 28 16  1  0
 27 21  1  0
  1 29  1  0
  1 30  1  0
  1 31  1  0
  2 32  1  0
  2 33  1  0
  5 34  1  0
  6 35  1  0
  9 36  1  0
 10 37  1  0
 17 38  1  0
 18 39  1  0
 19 40  1  0
 22 41  1  0
 22 42  1  0
 23 43  1  0
 23 44  1  0
 25 45  1  0
 25 46  1  0
 25 47  1  0
 26 48  1  0
 26 49  1  0
 27 50  1  0
 27 51  1  0
M  END
>  <smiles>  (42) 
CCc1nccn1-c1[nH]cnc(=O)c1N=c1cc[nH]c(N2CCN(C)CC2)n1

>  <score_type>  (42) 
oracle

>  <origin>  (42) 
adgpu

>  <m_score__min__energy>  (42) 
-8.2300000000000004

>  <m_primary>  (42) 
energy

$$$$
42:0
     RDKit          3D

 36 37  0  0  0  0  0  0  0  0999 V2000
   -6.8100   15.4130  -34.2040 C   0  0  0  0  0  0  0  0  0  0  0  0
   -6.1000   16.9120  -33.5570 S   0  0  0  0  0  0  0  0  0  0  0  0
   -6.0990   17.9480  -34.6440 O   0  0  0  0  0  0  0  0  0  0  0  0
   -4.6830   16.6740  -33.1150 O   0  0  0  0  0  0  0  0  0  0  0  0
   -7.0480   17.5000  -32.2260 N   0  0  0  0  0  0  0  0  0  0  0  0
   -7.6250   18.8170  -32.1520 C   0  0  0  0  0  0  0  0  0  0  0  0
   -8.9930   19.0470  -32.3840 C   0  0  0  0  0  0  0  0  0  0  0  0
   -9.5150   20.3390  -32.2960 C   0  0  0  0  0  0  0  0  0  0  0  0
   -8.6870   21.4150  -31.9780 C   0  0  0  0  0  0  0  0  0  0  0  0
   -7.3140   21.2120  -31.7450 C   0  0  0  0  0  0  0  0  0  0  0  0
   -6.4140   22.3400  -31.3940 C   0  0  0  0  0  0  0  0  0  0  0  0
   -6.8870   23.6500  -31.2430 C   0  0  0  0  0  0  0  0  0  0  0  0
   -5.9930   24.6660  -30.9260 C   0  0  0  0  0  0  0  0  0  0  0  0
   -4.6410   24.3650  -30.7670 C   0  0  0  0  0  0  0  0  0  0  0  0
   -3.8310   25.2910  -30.4860 O   0  0  0  0  0  0  0  0  0  0  0  0
   -4.2110   23.0740  -30.9230 N   0  0  0  0  0  0  0  0  0  0  0  0
   -2.7950   22.7090  -30.7980 C   0  0  0  0  0  0  0  0  0  0  0  0
   -2.3320   22.7900  -29.3400 C   0  0  0  0  0  0  0  0  0  0  0  0
   -1.4750   23.9600  -29.1160 C   0  0  0  0  0  0  0  0  0  0  0  0
   -0.7980   24.8810  -28.9400 N   0  0  0  0  0  0  0  0  0  0  0  0
   -5.0820   22.1080  -31.2330 N   0  0  0  0  0  0  0  0  0  0  0  0
   -6.7990   19.9050  -31.8250 C   0  0  0  0  0  0  0  0  0  0  0  0
   -7.1176   14.7637  -33.3711 H   0  0  0  0  0  0  0  0  0  0  0  0
   -7.6873   15.6590  -34.8203 H   0  0  0  0  0  0  0  0  0  0  0  0
   -6.0639   14.8901  -34.8203 H   0  0  0  0  0  0  0  0  0  0  0  0
   -7.1410   16.8630  -31.4030 H   0  0  0  0  0  0  0  0  0  0  0  0
   -9.6547   18.2052  -32.6359 H   0  0  0  0  0  0  0  0  0  0  0  0
  -10.5863   20.5092  -32.4787 H   0  0  0  0  0  0  0  0  0  0  0  0
   -9.1094   22.4283  -31.9089 H   0  0  0  0  0  0  0  0  0  0  0  0
   -7.9562   23.8725  -31.3741 H   0  0  0  0  0  0  0  0  0  0  0  0
   -6.3493   25.6992  -30.8016 H   0  0  0  0  0  0  0  0  0  0  0  0
   -2.6554   21.6807  -31.1628 H   0  0  0  0  0  0  0  0  0  0  0  0
   -2.1980   23.4148  -31.3942 H   0  0  0  0  0  0  0  0  0  0  0  0
   -3.2146   22.8623  -28.6874 H   0  0  0  0  0  0  0  0  0  0  0  0
   -1.7505   21.8850  -29.1100 H   0  0  0  0  0  0  0  0  0  0  0  0
   -5.7307   19.7322  -31.6280 H   0  0  0  0  0  0  0  0  0  0  0  0
  1  2  1  0
  2  3  2  0
  2  4  2  0
  2  5  1  0
  5  6  1  0
  6  7  2  0
  7  8  1  0
  8  9  2  0
  9 10  1  0
 10 11  1  0
 11 12  1  0
 12 13  2  0
 13 14  1  0
 14 15  2  0
 14 16  1  0
 16 17  1  0
 17 18  1  0
 18 19  1  0
 19 20  3  0
 16 21  1  0
 10 22  2  0
 22  6  1  0
 21 11  2  0
  1 23  1  0
  1 24  1  0
  1 25  1  0
  5 26  1  0
  7 27  1  0
  8 28  1  0
  9 29  1  0
 12 30  1  0
 13 31  1  0
 17 32  1  0
 17 33  1  0
 18 34  1  0
 18 35  1  0
 22 36  1  0
M  END
>  <UniqueID>  (43) 
38

>  <SMILES>  (43) 
CS(=O)(=O)Nc1cccc(-c2ccc(=O)n(CCC#N)n2)c1

>  <Energy>  (43) 
37.24983291645388

>  <Genealogy>  (43) 
CS(=O)(=O)Nc1cccc(-c2ccc(=O)n(CCC#N)n2)c1 (3D coordinates assigned)
CS(=O)(=O)Nc1cccc(-c2ccc(=O)n(CCC#N)n2)c1 (optimized conformer: 37.24983291645388 kcal/mol)

>  <smiles>  (43) 
CS(=O)(=O)Nc1cccc(-c2ccc(=O)n(CCC#N)n2)c1

>  <score_type>  (43) 
oracle

>  <origin>  (43) 
adgpu

>  <m_score__min__energy>  (43) 
-8.7400000000000002

>  <m_primary>  (43) 
energy

$$$$
43:0
     RDKit          3D

 40 42  0  0  0  0  0  0  0  0999 V2000
    0.3860   20.0770  -29.6800 C   0  0  0  0  0  0  0  0  0  0  0  0
    0.0470   19.8370  -31.1120 C   0  0  0  0  0  0  0  0  0  0  0  0
   -0.8710   18.9220  -31.5850 C   0  0  0  0  0  0  0  0  0  0  0  0
   -0.7570   19.0340  -32.9550 C   0  0  0  0  0  0  0  0  0  0  0  0
   -1.5330   18.2850  -33.9590 C   0  0  0  0  0  0  0  0  0  0  0  0
   -0.9510   17.4310  -34.6800 O   0  0  0  0  0  0  0  0  0  0  0  0
   -2.9500   18.4530  -34.0930 N   0  0  0  0  0  0  0  0  0  0  0  0
   -3.7170   19.5360  -33.5500 C   0  0  0  0  0  0  0  0  0  0  0  0
   -3.2270   20.8540  -33.5500 C   0  0  0  0  0  0  0  0  0  0  0  0
   -3.9960   21.8910  -33.0150 C   0  0  0  0  0  0  0  0  0  0  0  0
   -5.2630   21.6230  -32.4810 C   0  0  0  0  0  0  0  0  0  0  0  0
   -6.2160   22.9140  -31.7590 S   0  0  0  0  0  0  0  0  0  0  0  0
   -6.9320   22.3440  -30.5680 O   0  0  0  0  0  0  0  0  0  0  0  0
   -7.2440   23.4450  -32.7180 O   0  0  0  0  0  0  0  0  0  0  0  0
   -5.2010   24.2140  -31.2160 N   0  0  0  0  0  0  0  0  0  0  0  0
   -4.1420   24.1920  -30.4570 C   0  0  0  0  0  0  0  0  0  0  0  0
   -3.4960   25.2940  -30.1570 O   0  0  0  0  0  0  0  0  0  0  0  0
   -2.4840   25.0580  -29.3780 N   0  0  0  0  0  0  0  0  0  0  0  0
   -2.4600   23.7330  -29.1500 C   0  0  0  0  0  0  0  0  0  0  0  0
   -1.4500   23.0670  -28.2730 C   0  0  0  0  0  0  0  0  0  0  0  0
   -3.5000   23.1170  -29.8340 C   0  0  0  0  0  0  0  0  0  0  0  0
   -3.8430   21.6580  -29.7550 C   0  0  0  0  0  0  0  0  0  0  0  0
   -5.7720   20.3180  -32.5230 C   0  0  0  0  0  0  0  0  0  0  0  0
   -5.0040   19.2820  -33.0620 C   0  0  0  0  0  0  0  0  0  0  0  0
    0.1550   19.9380  -33.2320 O   0  0  0  0  0  0  0  0  0  0  0  0
    0.6690   20.4360  -32.1460 N   0  0  0  0  0  0  0  0  0  0  0  0
   -0.3436   19.5605  -29.0389 H   0  0  0  0  0  0  0  0  0  0  0  0
    1.3948   19.6907  -29.4723 H   0  0  0  0  0  0  0  0  0  0  0  0
    0.3569   21.1568  -29.4723 H   0  0  0  0  0  0  0  0  0  0  0  0
   -1.5347   18.2615  -31.0078 H   0  0  0  0  0  0  0  0  0  0  0  0
   -2.2346   21.0696  -33.9727 H   0  0  0  0  0  0  0  0  0  0  0  0
   -3.6057   22.9194  -33.0132 H   0  0  0  0  0  0  0  0  0  0  0  0
   -1.7103   23.2387  -27.2181 H   0  0  0  0  0  0  0  0  0  0  0  0
   -1.4425   21.9862  -28.4776 H   0  0  0  0  0  0  0  0  0  0  0  0
   -0.4537   23.4858  -28.4776 H   0  0  0  0  0  0  0  0  0  0  0  0
   -3.9143   21.3547  -28.7000 H   0  0  0  0  0  0  0  0  0  0  0  0
   -4.8074   21.4805  -30.2535 H   0  0  0  0  0  0  0  0  0  0  0  0
   -3.0587   21.0694  -30.2535 H   0  0  0  0  0  0  0  0  0  0  0  0
   -6.7782   20.1085  -32.1309 H   0  0  0  0  0  0  0  0  0  0  0  0
   -5.4132   18.2618  -33.1029 H   0  0  0  0  0  0  0  0  0  0  0  0
  1  2  1  0
  2  3  1  0
  3  4  2  0
  4  5  1  0
  5  6  2  0
  5  7  1  0
  7  8  1  0
  8  9  2  0
  9 10  1  0
 10 11  2  0
 11 12  1  0
 12 13  2  0
 12 14  2  0
 12 15  1  0
 15 16  2  3
 16 17  1  0
 17 18  1  0
 18 19  1  0
 19 20  1  0
 19 21  2  0
 21 22  1  0
 11 23  1  0
 23 24  2  0
  4 25  1  0
 25 26  1  0
 26  2  2  0
 24  8  1  0
 21 16  1  0
  1 27  1  0
  1 28  1  0
  1 29  1  0
  3 30  1  0
  9 31  1  0
 10 32  1  0
 20 33  1  0
 20 34  1  0
 20 35  1  0
 22 36  1  0
 22 37  1  0
 22 38  1  0
 23 39  1  0
 24 40  1  0
M  CHG  2   7  -1  18  -1
M  END
>  <UniqueID>  (44) 
39

>  <SMILES>  (44) 
Cc1cc(C(=O)[N-]c2ccc(S(=O)(=O)N=c3o[n-]c(C)c3C)cc2)on1

>  <Energy>  (44) 
114.22664745735894

>  <Genealogy>  (44) 
Cc1cc(C(=O)[N-]c2ccc(S(=O)(=O)N=c3o[n-]c(C)c3C)cc2)on1 (protonated)
Cc1cc(C(=O)[N-]c2ccc(S(=O)(=O)N=c3o[n-]c(C)c3C)cc2)on1 (3D coordinates assigned)
Cc1cc(C(=O)[N-]c2ccc(S(=O)(=O)N=c3o[n-]c(C)c3C)cc2)on1 (optimized conformer: 114.22664745735894 kcal/mol)

>  <smiles>  (44) 
Cc1cc(C(=O)Nc2ccc(S(=O)(=O)N=c3o[nH]c(C)c3C)cc2)on1

>  <score_type>  (44) 
oracle

>  <origin>  (44) 
adgpu

>  <m_score__min__energy>  (44) 
-10.43

>  <m_primary>  (44) 
energy

$$$$
44:0
     RDKit          3D

 38 40  0  0  0  0  0  0  0  0999 V2000
   -5.7440   26.2300  -30.1520 O   0  0  0  0  0  0  0  0  0  0  0  0
   -5.0670   25.2170  -30.4720 C   0  0  0  0  0  0  0  0  0  0  0  0
   -3.6370   25.2970  -30.4000 N   0  0  0  0  0  0  0  0  0  0  0  0
   -2.7710   24.3780  -29.7140 C   0  0  0  0  0  0  0  0  0  0  0  0
   -2.9640   22.9890  -29.7730 C   0  0  0  0  0  0  0  0  0  0  0  0
   -2.1090   22.1570  -29.1240 N   0  0  0  0  0  0  0  0  0  0  0  0
   -1.0550   22.6450  -28.4240 C   0  0  0  0  0  0  0  0  0  0  0  0
   -0.2770   21.8580  -27.8260 O   0  0  0  0  0  0  0  0  0  0  0  0
   -0.8350   23.9850  -28.3700 N   0  0  0  0  0  0  0  0  0  0  0  0
   -1.6630   24.8560  -29.0040 C   0  0  0  0  0  0  0  0  0  0  0  0
   -1.4310   26.0930  -28.9420 O   0  0  0  0  0  0  0  0  0  0  0  0
   -5.7650   23.9690  -30.8600 C   0  0  0  0  0  0  0  0  0  0  0  0
   -5.3730   23.2710  -32.0130 C   0  0  0  0  0  0  0  0  0  0  0  0
   -6.0170   22.0840  -32.3740 C   0  0  0  0  0  0  0  0  0  0  0  0
   -7.0650   21.5810  -31.5910 C   0  0  0  0  0  0  0  0  0  0  0  0
   -7.8670   20.0710  -32.0380 S   0  0  0  0  0  0  0  0  0  0  0  0
   -8.6470   19.5630  -30.8580 O   0  0  0  0  0  0  0  0  0  0  0  0
   -8.8370   20.3440  -33.1540 O   0  0  0  0  0  0  0  0  0  0  0  0
   -6.7440   18.8340  -32.5520 N   0  0  0  0  0  0  0  0  0  0  0  0
   -7.3920   17.5330  -32.7060 C   0  0  0  0  0  0  0  0  0  0  0  0
   -6.5550   16.7520  -33.7070 C   0  0  0  0  0  0  0  0  0  0  0  0
   -5.7480   17.8000  -34.4600 C   0  0  0  0  0  0  0  0  0  0  0  0
   -6.1560   19.1340  -33.8560 C   0  0  0  0  0  0  0  0  0  0  0  0
   -7.4830   22.2940  -30.4600 C   0  0  0  0  0  0  0  0  0  0  0  0
   -6.8390   23.4800  -30.0960 C   0  0  0  0  0  0  0  0  0  0  0  0
   -3.8074   22.5745  -30.3447 H   0  0  0  0  0  0  0  0  0  0  0  0
   -4.5543   23.6603  -32.6361 H   0  0  0  0  0  0  0  0  0  0  0  0
   -5.6997   21.5420  -33.2771 H   0  0  0  0  0  0  0  0  0  0  0  0
   -7.4209   17.0058  -31.7410 H   0  0  0  0  0  0  0  0  0  0  0  0
   -8.4297   17.6432  -33.0540 H   0  0  0  0  0  0  0  0  0  0  0  0
   -5.8858   16.0514  -33.1861 H   0  0  0  0  0  0  0  0  0  0  0  0
   -7.1801   16.1513  -34.3840 H   0  0  0  0  0  0  0  0  0  0  0  0
   -4.6703   17.6284  -34.3218 H   0  0  0  0  0  0  0  0  0  0  0  0
   -5.9406   17.7649  -35.5424 H   0  0  0  0  0  0  0  0  0  0  0  0
   -5.2756   19.7825  -33.7362 H   0  0  0  0  0  0  0  0  0  0  0  0
   -6.8707   19.6630  -34.5035 H   0  0  0  0  0  0  0  0  0  0  0  0
   -8.3219   21.9188  -29.8555 H   0  0  0  0  0  0  0  0  0  0  0  0
   -7.1745   24.0338  -29.2068 H   0  0  0  0  0  0  0  0  0  0  0  0
  1  2  2  0
  2  3  1  0
  3  4  1  0
  4  5  2  0
  5  6  1  0
  6  7  1  0
  7  8  2  0
  7  9  1  0
  9 10  1  0
 10 11  2  0
  2 12  1  0
 12 13  2  0
 13 14  1  0
 14 15  2  0
 15 16  1  0
 16 17  2  0
 16 18  2  0
 16 19  1  0
 19 20  1  0
 20 21  1  0
 21 22  1  0
 22 23  1  0
 15 24  1  0
 24 25  2  0
 10  4  1  0
 25 12  1  0
 23 19  1  0
  5 26  1  0
 13 27  1  0
 14 28  1  0
 20 29  1  0
 20 30  1  0
 21 31  1  0
 21 32  1  0
 22 33  1  0
 22 34  1  0
 23 35  1  0
 23 36  1  0
 24 37  1  0
 25 38  1  0
M  CHG  3   3  -1   6  -1   9  -1
M  END
>  <UniqueID>  (45) 
40

>  <SMILES>  (45) 
O=C([N-]c1c[n-]c(=O)[n-]c1=O)c1ccc(S(=O)(=O)N2CCCC2)cc1

>  <Energy>  (45) 
49.02218683656795

>  <Genealogy>  (45) 
O=C([N-]c1c[n-]c(=O)[n-]c1=O)c1ccc(S(=O)(=O)N2CCCC2)cc1 (protonated)
O=C([N-]c1c[n-]c(=O)[n-]c1=O)c1ccc(S(=O)(=O)N2CCCC2)cc1 (3D coordinates assigned)
O=C([N-]c1c[n-]c(=O)[n-]c1=O)c1ccc(S(=O)(=O)N2CCCC2)cc1 (nonaromatic ring conformer: 49.02218683656795 kcal/mol)

>  <smiles>  (45) 
O=C(Nc1c[nH]c(=O)[nH]c1=O)c1ccc(S(=O)(=O)N2CCCC2)cc1

>  <score_type>  (45) 
oracle

>  <origin>  (45) 
adgpu

>  <m_score__min__energy>  (45) 
-12.15

>  <m_primary>  (45) 
energy

$$$$
45:0
     RDKit          3D

 44 46  0  0  0  0  0  0  0  0999 V2000
   -1.7250   24.8220  -29.3170 N   0  0  0  0  0  0  0  0  0  0  0  0
   -3.1960   24.0800  -29.8380 S   0  0  0  0  0  0  0  0  0  0  0  0
   -3.9460   23.5520  -28.6470 O   0  0  0  0  0  0  0  0  0  0  0  0
   -4.0500   25.1060  -30.5300 O   0  0  0  0  0  0  0  0  0  0  0  0
   -2.8300   22.7550  -30.9380 C   0  0  0  0  0  0  0  0  0  0  0  0
   -3.4500   22.6750  -32.1920 C   0  0  0  0  0  0  0  0  0  0  0  0
   -3.1730   21.6040  -33.0450 C   0  0  0  0  0  0  0  0  0  0  0  0
   -2.2780   20.5990  -32.6520 C   0  0  0  0  0  0  0  0  0  0  0  0
   -2.0670   19.1730  -33.6700 S   0  0  0  0  0  0  0  0  0  0  0  0
   -1.2650   19.5590  -34.8800 O   0  0  0  0  0  0  0  0  0  0  0  0
   -1.3440   18.0900  -32.9210 O   0  0  0  0  0  0  0  0  0  0  0  0
   -3.6210   18.5810  -34.1720 N   0  0  0  0  0  0  0  0  0  0  0  0
   -4.6840   18.3030  -33.2520 C   0  0  0  0  0  0  0  0  0  0  0  0
   -4.7620   17.0250  -32.6890 C   0  0  0  0  0  0  0  0  0  0  0  0
   -5.8500   16.6720  -31.8920 C   0  0  0  0  0  0  0  0  0  0  0  0
   -6.8830   17.5850  -31.6760 C   0  0  0  0  0  0  0  0  0  0  0  0
   -6.8180   18.8790  -32.2180 C   0  0  0  0  0  0  0  0  0  0  0  0
   -8.2090   19.9570  -32.0350 S   0  0  0  0  0  0  0  0  0  0  0  0
   -9.1290   19.4490  -30.9600 O   0  0  0  0  0  0  0  0  0  0  0  0
   -8.9610   20.0250  -33.3350 O   0  0  0  0  0  0  0  0  0  0  0  0
   -7.6810   21.5650  -31.5460 C   0  0  0  0  0  0  0  0  0  0  0  0
   -7.2930   22.4910  -32.5240 C   0  0  0  0  0  0  0  0  0  0  0  0
   -6.8810   23.7740  -32.1550 C   0  0  0  0  0  0  0  0  0  0  0  0
   -6.8590   24.1400  -30.8050 C   0  0  0  0  0  0  0  0  0  0  0  0
   -7.2480   23.2230  -29.8250 C   0  0  0  0  0  0  0  0  0  0  0  0
   -7.6600   21.9370  -30.1930 C   0  0  0  0  0  0  0  0  0  0  0  0
   -5.6670   19.2650  -32.9450 C   0  0  0  0  0  0  0  0  0  0  0  0
   -5.4630   20.5880  -33.3420 O   0  0  0  0  0  0  0  0  0  0  0  0
   -1.6360   20.6950  -31.4090 C   0  0  0  0  0  0  0  0  0  0  0  0
   -1.9110   21.7680  -30.5570 C   0  0  0  0  0  0  0  0  0  0  0  0
   -1.5980   25.6840  -29.8930 H   0  0  0  0  0  0  0  0  0  0  0  0
   -4.1566   23.4575  -32.5056 H   0  0  0  0  0  0  0  0  0  0  0  0
   -3.6596   21.5489  -34.0300 H   0  0  0  0  0  0  0  0  0  0  0  0
   -3.9609   16.2948  -32.8760 H   0  0  0  0  0  0  0  0  0  0  0  0
   -5.8942   15.6732  -31.4332 H   0  0  0  0  0  0  0  0  0  0  0  0
   -7.7559   17.2886  -31.0759 H   0  0  0  0  0  0  0  0  0  0  0  0
   -7.3130   22.2064  -33.5864 H   0  0  0  0  0  0  0  0  0  0  0  0
   -6.5740   24.4962  -32.9258 H   0  0  0  0  0  0  0  0  0  0  0  0
   -6.5352   25.1504  -30.5147 H   0  0  0  0  0  0  0  0  0  0  0  0
   -7.2304   23.5120  -28.7638 H   0  0  0  0  0  0  0  0  0  0  0  0
   -7.9678   21.2168  -29.4206 H   0  0  0  0  0  0  0  0  0  0  0  0
   -4.9800   20.8460  -34.1920 H   0  0  0  0  0  0  0  0  0  0  0  0
   -0.9138   19.9235  -31.1037 H   0  0  0  0  0  0  0  0  0  0  0  0
   -1.4040   21.8382  -29.5833 H   0  0  0  0  0  0  0  0  0  0  0  0
  1  2  1  0
  2  3  2  0
  2  4  2  0
  2  5  1  0
  5  6  2  0
  6  7  1  0
  7  8  2  0
  8  9  1  0
  9 10  2  0
  9 11  2  0
  9 12  1  0
 12 13  1  0
 13 14  2  0
 14 15  1  0
 15 16  2  0
 16 17  1  0
 17 18  1  0
 18 19  2  0
 18 20  2  0
 18 21  1  0
 21 22  2  0
 22 23  1  0
 23 24  2  0
 24 25  1  0
 25 26  2  0
 17 27  2  0
 27 28  1  0
  8 29  1  0
 29 30  2  0
 30  5  1  0
 27 13  1  0
 26 21  1  0
  1 31  1  0
  6 32  1  0
  7 33  1  0
 14 34  1  0
 15 35  1  0
 16 36  1  0
 22 37  1  0
 23 38  1  0
 24 39  1  0
 25 40  1  0
 26 41  1  0
 28 42  1  0
 29 43  1  0
 30 44  1  0
M  CHG  2   1  -1  12  -1
M  END
>  <UniqueID>  (46) 
41

>  <SMILES>  (46) 
[NH-]S(=O)(=O)c1ccc(S(=O)(=O)[N-]c2cccc(S(=O)(=O)c3ccccc3)c2O)cc1

>  <Energy>  (46) 
56.37384711959304

>  <Genealogy>  (46) 
[NH-]S(=O)(=O)c1ccc(S(=O)(=O)[N-]c2cccc(S(=O)(=O)c3ccccc3)c2O)cc1 (protonated)
[NH-]S(=O)(=O)c1ccc(S(=O)(=O)[N-]c2cccc(S(=O)(=O)c3ccccc3)c2O)cc1 (3D coordinates assigned)
[NH-]S(=O)(=O)c1ccc(S(=O)(=O)[N-]c2cccc(S(=O)(=O)c3ccccc3)c2O)cc1 (optimized conformer: 56.37384711959304 kcal/mol)

>  <smiles>  (46) 
NS(=O)(=O)c1ccc(S(=O)(=O)Nc2cccc(S(=O)(=O)c3ccccc3)c2O)cc1

>  <score_type>  (46) 
oracle

>  <origin>  (46) 
adgpu

>  <m_score__min__energy>  (46) 
-12.619999999999999

>  <m_primary>  (46) 
energy

$$$$
46:0
     RDKit          3D

 38 39  0  0  0  0  0  0  0  0999 V2000
    0.2320   23.9620  -24.8900 C   0  0  0  0  0  0  0  0  0  0  0  0
    0.1490   25.2840  -25.5200 N   0  0  0  0  0  0  0  0  0  0  0  0
   -0.9790   26.0420  -24.9620 C   0  0  0  0  0  0  0  0  0  0  0  0
   -0.0530   25.1070  -27.2460 S   0  0  0  0  0  0  0  0  0  0  0  0
   -0.3430   26.4500  -27.8570 O   0  0  0  0  0  0  0  0  0  0  0  0
    1.2260   24.5920  -27.8490 O   0  0  0  0  0  0  0  0  0  0  0  0
   -1.3670   23.9950  -27.6350 C   0  0  0  0  0  0  0  0  0  0  0  0
   -1.1580   22.6120  -27.5850 C   0  0  0  0  0  0  0  0  0  0  0  0
   -2.2030   21.7340  -27.8770 C   0  0  0  0  0  0  0  0  0  0  0  0
   -3.4640   22.2300  -28.2160 C   0  0  0  0  0  0  0  0  0  0  0  0
   -3.6940   23.6180  -28.2610 C   0  0  0  0  0  0  0  0  0  0  0  0
   -4.9830   24.1640  -28.5890 N   0  0  0  0  0  0  0  0  0  0  0  0
   -5.4390   24.6560  -30.1900 S   0  0  0  0  0  0  0  0  0  0  0  0
   -6.5510   25.6620  -30.1010 O   0  0  0  0  0  0  0  0  0  0  0  0
   -4.2540   25.2940  -30.8630 O   0  0  0  0  0  0  0  0  0  0  0  0
   -6.0040   23.2650  -31.1090 C   0  0  0  0  0  0  0  0  0  0  0  0
   -5.0820   22.4510  -31.7840 C   0  0  0  0  0  0  0  0  0  0  0  0
   -5.5260   21.3540  -32.5260 C   0  0  0  0  0  0  0  0  0  0  0  0
   -6.8910   21.0620  -32.5970 C   0  0  0  0  0  0  0  0  0  0  0  0
   -7.8140   21.8670  -31.9220 C   0  0  0  0  0  0  0  0  0  0  0  0
   -7.3720   22.9670  -31.1780 C   0  0  0  0  0  0  0  0  0  0  0  0
   -2.6320   24.4920  -27.9780 C   0  0  0  0  0  0  0  0  0  0  0  0
    0.2248   24.0761  -23.7960 H   0  0  0  0  0  0  0  0  0  0  0  0
   -0.6297   23.3530  -25.2008 H   0  0  0  0  0  0  0  0  0  0  0  0
    1.1631   23.4655  -25.2008 H   0  0  0  0  0  0  0  0  0  0  0  0
   -0.9336   26.0115  -23.8634 H   0  0  0  0  0  0  0  0  0  0  0  0
   -0.9231   27.0865  -25.3024 H   0  0  0  0  0  0  0  0  0  0  0  0
   -1.9249   25.5956  -25.3024 H   0  0  0  0  0  0  0  0  0  0  0  0
   -0.1679   22.2161  -27.3150 H   0  0  0  0  0  0  0  0  0  0  0  0
   -2.0329   20.6479  -27.8400 H   0  0  0  0  0  0  0  0  0  0  0  0
   -4.2818   21.5322  -28.4491 H   0  0  0  0  0  0  0  0  0  0  0  0
   -5.7350   24.1610  -27.8640 H   0  0  0  0  0  0  0  0  0  0  0  0
   -4.0069   22.6772  -31.7288 H   0  0  0  0  0  0  0  0  0  0  0  0
   -4.8003   20.7190  -33.0552 H   0  0  0  0  0  0  0  0  0  0  0  0
   -7.2392   20.1991  -33.1837 H   0  0  0  0  0  0  0  0  0  0  0  0
   -8.8880   21.6356  -31.9758 H   0  0  0  0  0  0  0  0  0  0  0  0
   -8.0992   23.5986  -30.6466 H   0  0  0  0  0  0  0  0  0  0  0  0
   -2.7946   25.5789  -28.0260 H   0  0  0  0  0  0  0  0  0  0  0  0
  1  2  1  0
  2  3  1  0
  2  4  1  0
  4  5  2  0
  4  6  2  0
  4  7  1  0
  7  8  2  0
  8  9  1  0
  9 10  2  0
 10 11  1  0
 11 12  1  0
 12 13  1  0
 13 14  2  0
 13 15  2  0
 13 16  1  0
 16 17  2  0
 17 18  1  0
 18 19  2  0
 19 20  1  0
 20 21  2  0
 11 22  2  0
 22  7  1  0
 21 16  1  0
  1 23  1  0
  1 24  1  0
  1 25  1  0
  3 26  1  0
  3 27  1  0
  3 28  1  0
  8 29  1  0
  9 30  1  0
 10 31  1  0
 12 32  1  0
 17 33  1  0
 18 34  1  0
 19 35  1  0
 20 36  1  0
 21 37  1  0
 22 38  1  0
M  END
>  <UniqueID>  (47) 
42

>  <SMILES>  (47) 
CN(C)S(=O)(=O)c1cccc(NS(=O)(=O)c2ccccc2)c1

>  <Energy>  (47) 
38.11819403078315

>  <Genealogy>  (47) 
CN(C)S(=O)(=O)c1cccc(NS(=O)(=O)c2ccccc2)c1 (3D coordinates assigned)
CN(C)S(=O)(=O)c1cccc(NS(=O)(=O)c2ccccc2)c1 (optimized conformer: 38.11819403078315 kcal/mol)

>  <smiles>  (47) 
CN(C)S(=O)(=O)c1cccc(NS(=O)(=O)c2ccccc2)c1

>  <score_type>  (47) 
oracle

>  <origin>  (47) 
adgpu

>  <m_score__min__energy>  (47) 
-8.9100000000000001

>  <m_primary>  (47) 
energy

$$$$
47:0
     RDKit          3D

 50 52  0  0  0  0  0  0  0  0999 V2000
   -8.8150   20.0260  -33.0420 C   0  0  0  0  0  0  0  0  0  0  0  0
   -7.9510   20.9000  -32.1730 C   0  0  0  0  0  0  0  0  0  0  0  0
   -8.5320   22.0450  -31.6010 C   0  0  0  0  0  0  0  0  0  0  0  0
   -7.7700   22.9280  -30.8380 C   0  0  0  0  0  0  0  0  0  0  0  0
   -6.4120   22.6910  -30.6360 C   0  0  0  0  0  0  0  0  0  0  0  0
   -5.6390   23.6640  -29.9200 N   0  0  0  0  0  0  0  0  0  0  0  0
   -4.9870   24.7720  -30.5460 C   0  0  0  0  0  0  0  0  0  0  0  0
   -5.5180   25.3140  -31.5510 O   0  0  0  0  0  0  0  0  0  0  0  0
   -3.7480   25.2680  -30.0190 N   0  0  0  0  0  0  0  0  0  0  0  0
   -2.6790   24.4870  -29.4740 C   0  0  0  0  0  0  0  0  0  0  0  0
   -2.8310   23.0950  -29.4330 C   0  0  0  0  0  0  0  0  0  0  0  0
   -1.8120   22.2850  -28.9270 C   0  0  0  0  0  0  0  0  0  0  0  0
   -0.6230   22.8600  -28.4730 C   0  0  0  0  0  0  0  0  0  0  0  0
   -0.4440   24.2450  -28.5430 C   0  0  0  0  0  0  0  0  0  0  0  0
    0.7530   24.8070  -28.1120 O   0  0  0  0  0  0  0  0  0  0  0  0
   -1.4610   25.0620  -29.0550 C   0  0  0  0  0  0  0  0  0  0  0  0
   -1.2380   26.4290  -29.1800 O   0  0  0  0  0  0  0  0  0  0  0  0
   -5.8300   21.5100  -31.1300 C   0  0  0  0  0  0  0  0  0  0  0  0
   -4.5000   21.2260  -30.8300 O   0  0  0  0  0  0  0  0  0  0  0  0
   -6.5840   20.6100  -31.9110 C   0  0  0  0  0  0  0  0  0  0  0  0
   -5.7410   19.1870  -32.5800 S   0  0  0  0  0  0  0  0  0  0  0  0
   -6.4530   18.5990  -33.7640 O   0  0  0  0  0  0  0  0  0  0  0  0
   -5.6600   18.1290  -31.5160 O   0  0  0  0  0  0  0  0  0  0  0  0
   -4.0770   19.6620  -33.0630 C   0  0  0  0  0  0  0  0  0  0  0  0
   -3.0700   19.3160  -31.9620 C   0  0  0  0  0  0  0  0  0  0  0  0
   -1.6350   19.6420  -32.4220 C   0  0  0  0  0  0  0  0  0  0  0  0
   -1.5160   20.9070  -33.1940 N   0  0  0  0  0  0  0  0  0  0  0  0
   -1.1900   20.6750  -34.6110 C   0  0  0  0  0  0  0  0  0  0  0  0
   -2.6690   21.8160  -33.0370 C   0  0  0  0  0  0  0  0  0  0  0  0
   -4.0080   21.1600  -33.4320 C   0  0  0  0  0  0  0  0  0  0  0  0
   -9.4464   19.3873  -32.4069 H   0  0  0  0  0  0  0  0  0  0  0  0
   -9.4537   20.6574  -33.6771 H   0  0  0  0  0  0  0  0  0  0  0  0
   -8.1763   19.3946  -33.6771 H   0  0  0  0  0  0  0  0  0  0  0  0
   -9.6019   22.2468  -31.7576 H   0  0  0  0  0  0  0  0  0  0  0  0
   -8.2429   23.8160  -30.3933 H   0  0  0  0  0  0  0  0  0  0  0  0
   -3.7602   22.6364  -29.8022 H   0  0  0  0  0  0  0  0  0  0  0  0
   -1.9459   21.1940  -28.8860 H   0  0  0  0  0  0  0  0  0  0  0  0
    0.1731   22.2230  -28.0601 H   0  0  0  0  0  0  0  0  0  0  0  0
   -3.8082   19.0866  -33.9611 H   0  0  0  0  0  0  0  0  0  0  0  0
   -3.3033   19.9019  -31.0607 H   0  0  0  0  0  0  0  0  0  0  0  0
   -3.1379   18.2402  -31.7426 H   0  0  0  0  0  0  0  0  0  0  0  0
   -0.9961   19.7206  -31.5300 H   0  0  0  0  0  0  0  0  0  0  0  0
   -1.3265   18.8295  -33.0963 H   0  0  0  0  0  0  0  0  0  0  0  0
   -0.2957   20.0385  -34.6820 H   0  0  0  0  0  0  0  0  0  0  0  0
   -2.0362   20.1748  -35.1048 H   0  0  0  0  0  0  0  0  0  0  0  0
   -0.9946   21.6383  -35.1048 H   0  0  0  0  0  0  0  0  0  0  0  0
   -2.7285   22.1290  -31.9841 H   0  0  0  0  0  0  0  0  0  0  0  0
   -2.5092   22.6715  -33.7097 H   0  0  0  0  0  0  0  0  0  0  0  0
   -4.8229   21.6867  -32.9138 H   0  0  0  0  0  0  0  0  0  0  0  0
   -4.1015   21.2346  -34.5255 H   0  0  0  0  0  0  0  0  0  0  0  0
  1  2  1  0
  2  3  2  0
  3  4  1  0
  4  5  2  0
  5  6  1  0
  6  7  1  0
  7  8  2  0
  7  9  1  0
  9 10  1  0
 10 11  2  0
 11 12  1  0
 12 13  2  0
 13 14  1  0
 14 15  1  0
 14 16  2  0
 16 17  1  0
  5 18  1  0
 18 19  1  0
 18 20  2  0
 20 21  1  0
 21 22  2  0
 21 23  2  0
 21 24  1  0
 24 25  1  0
 25 26  1  0
 26 27  1  0
 27 28  1  0
 27 29  1  0
 29 30  1  0
 20  2  1  0
 30 24  1  0
 16 10  1  0
  1 31  1  0
  1 32  1  0
  1 33  1  0
  3 34  1  0
  4 35  1  0
 11 36  1  0
 12 37  1  0
 13 38  1  0
 24 39  1  0
 25 40  1  0
 25 41  1  0
 26 42  1  0
 26 43  1  0
 28 44  1  0
 28 45  1  0
 28 46  1  0
 29 47  1  0
 29 48  1  0
 30 49  1  0
 30 50  1  0
M  CHG  5   6  -1   9  -1  15  -1  17  -1  19  -1
M  END
>  <UniqueID>  (48) 
43

>  <SMILES>  (48) 
Cc1ccc([N-]C(=O)[N-]c2cccc([O-])c2[O-])c([O-])c1S(=O)(=O)C1CCN(C)CC1

>  <Energy>  (48) 
70.24023049245683

>  <Genealogy>  (48) 
Cc1ccc([N-]C(=O)[N-]c2cccc([O-])c2[O-])c([O-])c1S(=O)(=O)C1CCN(C)CC1 (protonated)
Cc1ccc([N-]C(=O)[N-]c2cccc([O-])c2[O-])c([O-])c1S(=O)(=O)C1CCN(C)CC1 (3D coordinates assigned)
Cc1ccc([N-]C(=O)[N-]c2cccc([O-])c2[O-])c([O-])c1S(=O)(=O)C1CCN(C)CC1 (nonaromatic ring conformer: 70.24023049245683 kcal/mol)

>  <smiles>  (48) 
Cc1ccc(NC(=O)Nc2cccc(O)c2O)c(O)c1S(=O)(=O)C1CCN(C)CC1

>  <score_type>  (48) 
oracle

>  <origin>  (48) 
adgpu

>  <m_score__min__energy>  (48) 
-15.6

>  <m_primary>  (48) 
energy

$$$$
48:0
     RDKit          3D

 22 23  0  0  0  0  0  0  0  0999 V2000
   -3.8650   25.6600  -30.8280 O   0  0  0  0  0  0  0  0  0  0  0  0
   -3.4870   24.5390  -30.0980 C   0  0  0  0  0  0  0  0  0  0  0  0
   -2.9340   24.5500  -28.8400 C   0  0  0  0  0  0  0  0  0  0  0  0
   -2.6920   23.2790  -28.4600 N   0  0  0  0  0  0  0  0  0  0  0  0
   -3.1100   22.5320  -29.5060 C   0  0  0  0  0  0  0  0  0  0  0  0
   -3.0110   20.8970  -29.5110 S   0  0  0  0  0  0  0  0  0  0  0  0
   -3.6090   23.2720  -30.5230 N   0  0  0  0  0  0  0  0  0  0  0  0
   -4.0980   22.8220  -31.8290 C   0  0  0  0  0  0  0  0  0  0  0  0
   -5.5810   22.5670  -31.7700 C   0  0  0  0  0  0  0  0  0  0  0  0
   -6.4740   23.6370  -31.5950 C   0  0  0  0  0  0  0  0  0  0  0  0
   -7.8530   23.4070  -31.5690 C   0  0  0  0  0  0  0  0  0  0  0  0
   -8.3500   22.1100  -31.7210 C   0  0  0  0  0  0  0  0  0  0  0  0
   -7.4680   21.0400  -31.9010 C   0  0  0  0  0  0  0  0  0  0  0  0
   -6.0890   21.2660  -31.9260 C   0  0  0  0  0  0  0  0  0  0  0  0
   -2.7233   25.4483  -28.2412 H   0  0  0  0  0  0  0  0  0  0  0  0
   -3.8925   23.5981  -32.5809 H   0  0  0  0  0  0  0  0  0  0  0  0
   -3.5841   21.8886  -32.1022 H   0  0  0  0  0  0  0  0  0  0  0  0
   -6.0870   24.6600  -31.4779 H   0  0  0  0  0  0  0  0  0  0  0  0
   -8.5476   24.2484  -31.4287 H   0  0  0  0  0  0  0  0  0  0  0  0
   -9.4351   21.9307  -31.6991 H   0  0  0  0  0  0  0  0  0  0  0  0
   -7.8599   20.0194  -32.0230 H   0  0  0  0  0  0  0  0  0  0  0  0
   -5.3983   20.4219  -32.0684 H   0  0  0  0  0  0  0  0  0  0  0  0
  1  2  1  0
  2  3  2  0
  3  4  1  0
  4  5  1  0
  5  6  2  0
  5  7  1  0
  7  8  1  0
  8  9  1  0
  9 10  2  0
 10 11  1  0
 11 12  2  0
 12 13  1  0
 13 14  2  0
  7  2  1  0
 14  9  1  0
  3 15  1  0
  8 16  1  0
  8 17  1  0
 10 18  1  0
 11 19  1  0
 12 20  1  0
 13 21  1  0
 14 22  1  0
M  CHG  2   1  -1   4  -1
M  END
>  <UniqueID>  (49) 
44

>  <SMILES>  (49) 
[O-]c1c[n-]c(=S)n1Cc1ccccc1

>  <Energy>  (49) 
53.240819512303425

>  <Genealogy>  (49) 
[O-]c1c[n-]c(=S)n1Cc1ccccc1 (protonated)
[O-]c1c[n-]c(=S)n1Cc1ccccc1 (3D coordinates assigned)
[O-]c1c[n-]c(=S)n1Cc1ccccc1 (optimized conformer: 53.240819512303425 kcal/mol)

>  <smiles>  (49) 
Oc1c[nH]c(=S)n1Cc1ccccc1

>  <score_type>  (49) 
oracle

>  <origin>  (49) 
adgpu

>  <m_score__min__energy>  (49) 
-8.8000000000000007

>  <m_primary>  (49) 
energy

$$$$
49:0
     RDKit          3D

 71 75  0  0  0  0  0  0  0  0999 V2000
   -0.7280   26.2000  -27.7170 C   0  0  0  0  0  0  0  0  0  0  0  0
   -0.5780   25.1340  -28.6490 O   0  0  0  0  0  0  0  0  0  0  0  0
   -0.5930   23.7680  -28.3110 C   0  0  0  0  0  0  0  0  0  0  0  0
    0.4430   23.1760  -27.5590 C   0  0  0  0  0  0  0  0  0  0  0  0
    0.4290   21.8050  -27.2900 C   0  0  0  0  0  0  0  0  0  0  0  0
   -0.6090   21.0070  -27.7750 C   0  0  0  0  0  0  0  0  0  0  0  0
   -1.6460   21.5800  -28.5140 C   0  0  0  0  0  0  0  0  0  0  0  0
   -1.6610   22.9630  -28.7610 C   0  0  0  0  0  0  0  0  0  0  0  0
   -2.7800   23.5460  -29.5240 C   0  0  0  0  0  0  0  0  0  0  0  0
   -2.8910   23.4470  -30.8650 N   0  0  0  0  0  0  0  0  0  0  0  0
   -3.9810   24.1140  -31.2140 N   0  0  0  0  0  0  0  0  0  0  0  0
   -4.5220   24.6050  -30.0800 C   0  0  0  0  0  0  0  0  0  0  0  0
   -5.9980   25.6290  -30.0470 S   0  0  0  0  0  0  0  0  0  0  0  0
   -7.1480   24.2110  -30.0910 C   0  0  0  0  0  0  0  0  0  0  0  0
   -7.2850   23.6610  -31.5120 C   0  0  0  0  0  0  0  0  0  0  0  0
   -8.2610   22.4690  -31.5980 C   0  0  0  0  0  0  0  0  0  0  0  0
   -7.5810   21.1390  -31.5620 N   0  0  1  0  0  0  0  0  0  0  0  0
   -8.2390   20.1070  -32.4190 C   0  0  0  0  0  0  0  0  0  0  0  0
   -7.9340   18.6480  -32.0440 C   0  0  0  0  0  0  0  0  0  0  0  0
   -6.6900   18.1510  -32.7190 C   0  0  0  0  0  0  0  0  0  0  0  0
   -6.7750   17.0990  -33.6460 C   0  0  0  0  0  0  0  0  0  0  0  0
   -5.6380   16.6470  -34.3160 C   0  0  0  0  0  0  0  0  0  0  0  0
   -4.3920   17.2440  -34.0770 C   0  0  0  0  0  0  0  0  0  0  0  0
   -3.1800   16.7670  -34.7870 C   0  0  0  0  0  0  0  0  0  0  0  0
   -1.9490   17.4220  -34.6140 C   0  0  0  0  0  0  0  0  0  0  0  0
   -0.8020   16.9670  -35.2740 C   0  0  0  0  0  0  0  0  0  0  0  0
   -0.8610   15.8330  -36.1050 C   0  0  0  0  0  0  0  0  0  0  0  0
    0.3630   15.3690  -36.8550 C   0  0  0  0  0  0  0  0  0  0  0  0
    0.7140   16.2900  -37.8300 F   0  0  0  0  0  0  0  0  0  0  0  0
    0.1280   14.1520  -37.4750 F   0  0  0  0  0  0  0  0  0  0  0  0
    1.4160   15.2280  -35.9680 F   0  0  0  0  0  0  0  0  0  0  0  0
   -2.1000   15.1980  -36.3040 C   0  0  0  0  0  0  0  0  0  0  0  0
   -3.2460   15.6560  -35.6460 C   0  0  0  0  0  0  0  0  0  0  0  0
   -4.3060   18.3040  -33.1580 C   0  0  0  0  0  0  0  0  0  0  0  0
   -5.4480   18.7810  -32.4880 C   0  0  0  0  0  0  0  0  0  0  0  0
   -5.2890   19.9280  -31.5050 C   0  0  0  0  0  0  0  0  0  0  0  0
   -6.1100   21.2260  -31.7680 C   0  0  0  0  0  0  0  0  0  0  0  0
   -3.8060   24.2510  -28.9970 N   0  0  0  0  0  0  0  0  0  0  0  0
   -4.0920   24.5580  -27.5970 C   0  0  0  0  0  0  0  0  0  0  0  0
   -0.6720   25.8023  -26.6929 H   0  0  0  0  0  0  0  0  0  0  0  0
    0.0755   26.9358  -27.8690 H   0  0  0  0  0  0  0  0  0  0  0  0
   -1.7033   26.6855  -27.8690 H   0  0  0  0  0  0  0  0  0  0  0  0
    1.2679   23.7981  -27.1816 H   0  0  0  0  0  0  0  0  0  0  0  0
    1.2369   21.3537  -26.6953 H   0  0  0  0  0  0  0  0  0  0  0  0
   -0.6099   19.9254  -27.5747 H   0  0  0  0  0  0  0  0  0  0  0  0
   -2.4551   20.9455  -28.9047 H   0  0  0  0  0  0  0  0  0  0  0  0
   -6.7654   23.4168  -29.4331 H   0  0  0  0  0  0  0  0  0  0  0  0
   -8.1369   24.5507  -29.7495 H   0  0  0  0  0  0  0  0  0  0  0  0
   -7.6529   24.4649  -32.1665 H   0  0  0  0  0  0  0  0  0  0  0  0
   -6.2938   23.3020  -31.8262 H   0  0  0  0  0  0  0  0  0  0  0  0
   -8.9575   22.5272  -30.7486 H   0  0  0  0  0  0  0  0  0  0  0  0
   -8.7775   22.5426  -32.5664 H   0  0  0  0  0  0  0  0  0  0  0  0
   -7.6730   20.7730  -30.5830 H   0  0  0  0  0  0  0  0  0  0  0  0
   -9.3271   20.2542  -32.3528 H   0  0  0  0  0  0  0  0  0  0  0  0
   -7.8347   20.2509  -33.4318 H   0  0  0  0  0  0  0  0  0  0  0  0
   -7.7998   18.5804  -30.9543 H   0  0  0  0  0  0  0  0  0  0  0  0
   -8.7773   18.0247  -32.3763 H   0  0  0  0  0  0  0  0  0  0  0  0
   -7.7482   16.6267  -33.8456 H   0  0  0  0  0  0  0  0  0  0  0  0
   -5.7193   15.8185  -35.0350 H   0  0  0  0  0  0  0  0  0  0  0  0
   -1.8864   18.2999  -33.9542 H   0  0  0  0  0  0  0  0  0  0  0  0
    0.1517   17.4991  -35.1424 H   0  0  0  0  0  0  0  0  0  0  0  0
   -2.1682   14.3347  -36.9822 H   0  0  0  0  0  0  0  0  0  0  0  0
   -4.2065   15.1430  -35.8018 H   0  0  0  0  0  0  0  0  0  0  0  0
   -3.3291   18.7688  -32.9590 H   0  0  0  0  0  0  0  0  0  0  0  0
   -5.5774   19.5523  -30.5122 H   0  0  0  0  0  0  0  0  0  0  0  0
   -4.2385   20.2379  -31.6068 H   0  0  0  0  0  0  0  0  0  0  0  0
   -5.7247   22.0063  -31.0952 H   0  0  0  0  0  0  0  0  0  0  0  0
   -5.9800   21.4384  -32.8394 H   0  0  0  0  0  0  0  0  0  0  0  0
   -3.4866   23.9081  -26.9480 H   0  0  0  0  0  0  0  0  0  0  0  0
   -3.8452   25.6107  -27.3946 H   0  0  0  0  0  0  0  0  0  0  0  0
   -5.1595   24.3863  -27.3946 H   0  0  0  0  0  0  0  0  0  0  0  0
  1  2  1  0
  2  3  1  0
  3  4  2  0
  4  5  1  0
  5  6  2  0
  6  7  1  0
  7  8  2  0
  8  9  1  0
  9 10  2  0
 10 11  1  0
 11 12  2  0
 12 13  1  0
 13 14  1  0
 14 15  1  0
 15 16  1  0
 16 17  1  0
 17 18  1  0
 18 19  1  0
 19 20  1  0
 20 21  2  0
 21 22  1  0
 22 23  2  0
 23 24  1  0
 24 25  2  0
 25 26  1  0
 26 27  2  0
 27 28  1  0
 28 29  1  0
 28 30  1  0
 28 31  1  0
 27 32  1  0
 32 33  2  0
 23 34  1  0
 34 35  2  0
 35 36  1  0
 36 37  1  0
 12 38  1  0
 38 39  1  0
  8  3  1  0
 38  9  1  0
 37 17  1  0
 35 20  1  0
 33 24  1  0
  1 40  1  0
  1 41  1  0
  1 42  1  0
  4 43  1  0
  5 44  1  0
  6 45  1  0
  7 46  1  0
 14 47  1  0
 14 48  1  0
 15 49  1  0
 15 50  1  0
 16 51  1  0
 16 52  1  0
 17 53  1  1
 18 54  1  0
 18 55  1  0
 19 56  1  0
 19 57  1  0
 21 58  1  0
 22 59  1  0
 25 60  1  0
 26 61  1  0
 32 62  1  0
 33 63  1  0
 34 64  1  0
 36 65  1  0
 36 66  1  0
 37 67  1  0
 37 68  1  0
 39 69  1  0
 39 70  1  0
 39 71  1  0
M  CHG  1  17   1
M  END
>  <UniqueID>  (50) 
45

>  <SMILES>  (50) 
COc1ccccc1-c1nnc(SCCC[N@H+]2CCc3ccc(-c4ccc(C(F)(F)F)cc4)cc3CC2)n1C

>  <Energy>  (50) 
134.86205835470926

>  <Genealogy>  (50) 
COc1ccccc1-c1nnc(SCCC[NH+]2CCc3ccc(-c4ccc(C(F)(F)F)cc4)cc3CC2)n1C (protonated)
COc1ccccc1-c1nnc(SCCC[N@H+]2CCc3ccc(-c4ccc(C(F)(F)F)cc4)cc3CC2)n1C (chirality)
COc1ccccc1-c1nnc(SCCC[N@H+]2CCc3ccc(-c4ccc(C(F)(F)F)cc4)cc3CC2)n1C (3D coordinates assigned)
COc1ccccc1-c1nnc(SCCC[N@H+]2CCc3ccc(-c4ccc(C(F)(F)F)cc4)cc3CC2)n1C (nonaromatic ring conformer: 134.86205835470926 kcal/mol)

>  <smiles>  (50) 
COc1ccccc1-c1nnc(SCCCN2CCc3ccc(-c4ccc(C(F)(F)F)cc4)cc3CC2)n1C

>  <score_type>  (50) 
oracle

>  <origin>  (50) 
adgpu

>  <m_score__min__energy>  (50) 
-7.2800000000000002

>  <m_primary>  (50) 
energy

$$$$
