0:0
     RDKit          3D

 60 63  0  0  0  0  0  0  0  0999 V2000
   -3.0830   18.5790  -25.5850 C   0  0  0  0  0  0  0  0  0  0  0  0
   -1.8560   19.0210  -26.1540 O   0  0  0  0  0  0  0  0  0  0  0  0
   -1.6860   19.3750  -27.5010 C   0  0  0  0  0  0  0  0  0  0  0  0
   -2.6210   20.1750  -28.1870 C   0  0  0  0  0  0  0  0  0  0  0  0
   -2.4210   20.5000  -29.5280 C   0  0  0  0  0  0  0  0  0  0  0  0
   -1.2890   20.0400  -30.2050 C   0  0  0  0  0  0  0  0  0  0  0  0
   -1.1090   20.3780  -31.9260 S   0  0  0  0  0  0  0  0  0  0  0  0
   -1.4360   19.1610  -32.7450 O   0  0  0  0  0  0  0  0  0  0  0  0
    0.3130   20.7810  -32.1930 O   0  0  0  0  0  0  0  0  0  0  0  0
   -2.1720   21.6720  -32.3750 N   0  0  0  0  0  0  0  0  0  0  0  0
   -3.5990   21.5550  -32.2450 C   0  0  0  0  0  0  0  0  0  0  0  0
   -4.2780   20.5720  -32.9990 C   0  0  0  0  0  0  0  0  0  0  0  0
   -5.6540   20.4520  -32.8400 C   0  0  0  0  0  0  0  0  0  0  0  0
   -6.3540   21.2680  -32.0010 C   0  0  0  0  0  0  0  0  0  0  0  0
   -5.7290   22.2570  -31.2470 C   0  0  0  0  0  0  0  0  0  0  0  0
   -4.3260   22.4060  -31.3530 C   0  0  0  0  0  0  0  0  0  0  0  0
   -3.4630   23.6040  -30.3540 S   0  0  0  0  0  0  0  0  0  0  0  0
   -3.8770   24.9770  -30.8050 O   0  0  0  0  0  0  0  0  0  0  0  0
   -1.9890   23.4420  -30.5970 O   0  0  0  0  0  0  0  0  0  0  0  0
   -3.7160   23.4940  -28.6260 N   0  0  0  0  0  0  0  0  0  0  0  0
   -2.4730   23.5500  -27.8500 C   0  0  0  0  0  0  0  0  0  0  0  0
   -2.7050   24.4710  -26.6570 C   0  0  0  0  0  0  0  0  0  0  0  0
   -4.1750   24.8460  -26.7040 C   0  0  0  0  0  0  0  0  0  0  0  0
   -4.6280   24.5180  -28.1150 C   0  0  0  0  0  0  0  0  0  0  0  0
   -7.6500   20.8990  -31.9940 N   0  0  0  0  0  0  0  0  0  0  0  0
   -8.7250   21.4340  -31.1610 C   0  0  0  0  0  0  0  0  0  0  0  0
   -7.6950   19.8330  -32.8310 C   0  0  0  0  0  0  0  0  0  0  0  0
   -8.7390   19.1610  -33.0480 O   0  0  0  0  0  0  0  0  0  0  0  0
   -6.4920   19.5480  -33.3890 N   0  0  0  0  0  0  0  0  0  0  0  0
   -6.1470   18.4000  -34.2240 C   0  0  0  0  0  0  0  0  0  0  0  0
   -0.3510   19.2480  -29.5300 C   0  0  0  0  0  0  0  0  0  0  0  0
   -0.5470   18.9090  -28.1760 C   0  0  0  0  0  0  0  0  0  0  0  0
    0.3640   18.1060  -27.4700 O   0  0  0  0  0  0  0  0  0  0  0  0
    0.6930   16.7640  -27.8150 C   0  0  0  0  0  0  0  0  0  0  0  0
   -3.0090   18.6057  -24.4878 H   0  0  0  0  0  0  0  0  0  0  0  0
   -3.8987   19.2398  -25.9137 H   0  0  0  0  0  0  0  0  0  0  0  0
   -3.2899   17.5498  -25.9137 H   0  0  0  0  0  0  0  0  0  0  0  0
   -3.5137   20.5453  -27.6617 H   0  0  0  0  0  0  0  0  0  0  0  0
   -3.1588   21.1221  -30.0559 H   0  0  0  0  0  0  0  0  0  0  0  0
   -1.7390   22.5880  -32.6220 H   0  0  0  0  0  0  0  0  0  0  0  0
   -3.7317   19.9179  -33.6945 H   0  0  0  0  0  0  0  0  0  0  0  0
   -6.3140   22.9095  -30.5822 H   0  0  0  0  0  0  0  0  0  0  0  0
   -2.2068   22.5425  -27.4979 H   0  0  0  0  0  0  0  0  0  0  0  0
   -1.6499   23.9304  -28.4727 H   0  0  0  0  0  0  0  0  0  0  0  0
   -2.4731   23.9472  -25.7179 H   0  0  0  0  0  0  0  0  0  0  0  0
   -2.0587   25.3601  -26.7001 H   0  0  0  0  0  0  0  0  0  0  0  0
   -4.7460   24.2586  -25.9699 H   0  0  0  0  0  0  0  0  0  0  0  0
   -4.3355   25.9061  -26.4581 H   0  0  0  0  0  0  0  0  0  0  0  0
   -5.6588   24.1342  -28.1019 H   0  0  0  0  0  0  0  0  0  0  0  0
   -4.6114   25.4142  -28.7526 H   0  0  0  0  0  0  0  0  0  0  0  0
   -8.4655   21.3048  -30.0999 H   0  0  0  0  0  0  0  0  0  0  0  0
   -8.8592   22.5040  -31.3781 H   0  0  0  0  0  0  0  0  0  0  0  0
   -9.6595   20.8958  -31.3781 H   0  0  0  0  0  0  0  0  0  0  0  0
   -5.8898   17.5442  -33.5826 H   0  0  0  0  0  0  0  0  0  0  0  0
   -7.0059   18.1372  -34.8591 H   0  0  0  0  0  0  0  0  0  0  0  0
   -5.2856   18.6542  -34.8591 H   0  0  0  0  0  0  0  0  0  0  0  0
    0.5436   18.8887  -30.0597 H   0  0  0  0  0  0  0  0  0  0  0  0
    0.8375   16.1745  -26.8976 H   0  0  0  0  0  0  0  0  0  0  0  0
   -0.1245   16.3266  -28.4069 H   0  0  0  0  0  0  0  0  0  0  0  0
    1.6201   16.7543  -28.4069 H   0  0  0  0  0  0  0  0  0  0  0  0
  1  2  1  0
  2  3  1  0
  3  4  2  0
  4  5  1  0
  5  6  2  0
  6  7  1  0
  7  8  2  0
  7  9  2  0
  7 10  1  0
 10 11  1  0
 11 12  2  0
 12 13  1  0
 13 14  2  0
 14 15  1  0
 15 16  2  0
 16 17  1  0
 17 18  2  0
 17 19  2  0
 17 20  1  0
 20 21  1  0
 21 22  1  0
 22 23  1  0
 23 24  1  0
 14 25  1  0
 25 26  1  0
 25 27  1  0
 27 28  2  0
 27 29  1  0
 29 30  1  0
  6 31  1  0
 31 32  2  0
 32 33  1  0
 33 34  1  0
 32  3  1  0
 16 11  1  0
 24 20  1  0
 29 13  1  0
  1 35  1  0
  1 36  1  0
  1 37  1  0
  4 38  1  0
  5 39  1  0
 10 40  1  0
 12 41  1  0
 15 42  1  0
 21 43  1  0
 21 44  1  0
 22 45  1  0
 22 46  1  0
 23 47  1  0
 23 48  1  0
 24 49  1  0
 24 50  1  0
 26 51  1  0
 26 52  1  0
 26 53  1  0
 30 54  1  0
 30 55  1  0
 30 56  1  0
 31 57  1  0
 34 58  1  0
 34 59  1  0
 34 60  1  0
M  END
>  <UniqueID>  (1) 
1

>  <SMILES>  (1) 
COc1ccc(S(=O)(=O)Nc2cc3c(cc2S(=O)(=O)N2CCCC2)n(C)c(=O)n3C)cc1OC

>  <Energy>  (1) 
109.14021989134238

>  <Genealogy>  (1) 
COc1ccc(S(=O)(=O)Nc2cc3c(cc2S(=O)(=O)N2CCCC2)n(C)c(=O)n3C)cc1OC (3D coordinates assigned)
COc1ccc(S(=O)(=O)Nc2cc3c(cc2S(=O)(=O)N2CCCC2)n(C)c(=O)n3C)cc1OC (nonaromatic ring conformer: 109.14021989134238 kcal/mol)

>  <smiles>  (1) 
COc1ccc(S(=O)(=O)Nc2cc3c(cc2S(=O)(=O)N2CCCC2)n(C)c(=O)n3C)cc1OC

>  <score_type>  (1) 
oracle

>  <origin>  (1) 
adgpu

>  <m_score__min__energy>  (1) 
-10.1

>  <m_primary>  (1) 
energy

$$$$
1:0
     RDKit          3D

 48 50  0  0  0  0  0  0  0  0999 V2000
   -5.3060   14.9810  -33.4660 C   0  0  0  0  0  0  0  0  0  0  0  0
   -5.9940   16.2800  -33.7660 C   0  0  0  0  0  0  0  0  0  0  0  0
   -7.2130   16.2510  -34.0910 O   0  0  0  0  0  0  0  0  0  0  0  0
   -5.2890   17.5390  -33.7180 N   0  0  0  0  0  0  0  0  0  0  0  0
   -3.8440   17.5720  -33.4370 C   0  0  0  0  0  0  0  0  0  0  0  0
   -3.2210   18.9270  -33.7940 C   0  0  0  0  0  0  0  0  0  0  0  0
   -4.0070   20.0340  -33.2320 N   0  0  0  0  0  0  0  0  0  0  0  0
   -3.3570   21.3030  -32.9960 C   0  0  0  0  0  0  0  0  0  0  0  0
   -2.2430   21.5470  -33.5510 O   0  0  0  0  0  0  0  0  0  0  0  0
   -3.9670   22.3470  -32.1370 C   0  0  0  0  0  0  0  0  0  0  0  0
   -5.3410   22.6230  -32.2040 C   0  0  0  0  0  0  0  0  0  0  0  0
   -5.8980   23.6280  -31.4110 C   0  0  0  0  0  0  0  0  0  0  0  0
   -5.0910   24.3570  -30.5280 C   0  0  0  0  0  0  0  0  0  0  0  0
   -5.6500   25.3550  -29.7330 O   0  0  0  0  0  0  0  0  0  0  0  0
   -3.7230   24.0670  -30.4230 C   0  0  0  0  0  0  0  0  0  0  0  0
   -2.9180   24.8330  -29.5170 N   0  0  0  0  0  0  0  0  0  0  0  0
   -2.8370   24.5550  -27.8040 S   0  0  0  0  0  0  0  0  0  0  0  0
   -1.8190   25.4600  -27.1600 O   0  0  0  0  0  0  0  0  0  0  0  0
   -4.1790   24.8490  -27.1980 O   0  0  0  0  0  0  0  0  0  0  0  0
   -2.4400   22.8610  -27.5250 C   0  0  0  0  0  0  0  0  0  0  0  0
   -3.3420   21.8550  -27.9130 C   0  0  0  0  0  0  0  0  0  0  0  0
   -3.0150   20.5060  -27.7370 C   0  0  0  0  0  0  0  0  0  0  0  0
   -1.7850   20.1530  -27.1780 C   0  0  0  0  0  0  0  0  0  0  0  0
   -0.8810   21.1510  -26.7900 C   0  0  0  0  0  0  0  0  0  0  0  0
   -1.2060   22.5040  -26.9650 C   0  0  0  0  0  0  0  0  0  0  0  0
   -3.1670   23.0560  -31.2260 C   0  0  0  0  0  0  0  0  0  0  0  0
   -5.4790   19.9470  -33.2160 C   0  0  0  0  0  0  0  0  0  0  0  0
   -5.9870   18.7840  -34.0720 C   0  0  0  0  0  0  0  0  0  0  0  0
   -5.2349   14.8468  -32.3765 H   0  0  0  0  0  0  0  0  0  0  0  0
   -5.8830   14.1515  -33.9008 H   0  0  0  0  0  0  0  0  0  0  0  0
   -4.2956   14.9923  -33.9008 H   0  0  0  0  0  0  0  0  0  0  0  0
   -3.6859   17.3795  -32.3656 H   0  0  0  0  0  0  0  0  0  0  0  0
   -3.3597   16.8016  -34.0549 H   0  0  0  0  0  0  0  0  0  0  0  0
   -2.1989   18.9704  -33.3897 H   0  0  0  0  0  0  0  0  0  0  0  0
   -3.2076   19.0282  -34.8893 H   0  0  0  0  0  0  0  0  0  0  0  0
   -5.9827   22.0445  -32.8849 H   0  0  0  0  0  0  0  0  0  0  0  0
   -6.9736   23.8480  -31.4798 H   0  0  0  0  0  0  0  0  0  0  0  0
   -5.1680   25.7130  -28.9180 H   0  0  0  0  0  0  0  0  0  0  0  0
   -4.3100   22.1298  -28.3573 H   0  0  0  0  0  0  0  0  0  0  0  0
   -3.7268   19.7236  -28.0390 H   0  0  0  0  0  0  0  0  0  0  0  0
   -1.5260   19.0926  -27.0424 H   0  0  0  0  0  0  0  0  0  0  0  0
    0.0864   20.8723  -26.3468 H   0  0  0  0  0  0  0  0  0  0  0  0
   -0.4925   23.2848  -26.6628 H   0  0  0  0  0  0  0  0  0  0  0  0
   -2.0965   22.8182  -31.1401 H   0  0  0  0  0  0  0  0  0  0  0  0
   -5.8161   19.8004  -32.1793 H   0  0  0  0  0  0  0  0  0  0  0  0
   -5.8822   20.8815  -33.6333 H   0  0  0  0  0  0  0  0  0  0  0  0
   -7.0661   18.6545  -33.9025 H   0  0  0  0  0  0  0  0  0  0  0  0
   -5.7933   19.0111  -35.1307 H   0  0  0  0  0  0  0  0  0  0  0  0
  1  2  1  0
  2  3  2  0
  2  4  1  0
  4  5  1  0
  5  6  1  0
  6  7  1  0
  7  8  1  0
  8  9  2  0
  8 10  1  0
 10 11  2  0
 11 12  1  0
 12 13  2  0
 13 14  1  0
 13 15  1  0
 15 16  1  0
 16 17  1  0
 17 18  2  0
 17 19  2  0
 17 20  1  0
 20 21  2  0
 21 22  1  0
 22 23  2  0
 23 24  1  0
 24 25  2  0
 15 26  2  0
  7 27  1  0
 27 28  1  0
 28  4  1  0
 26 10  1  0
 25 20  1  0
  1 29  1  0
  1 30  1  0
  1 31  1  0
  5 32  1  0
  5 33  1  0
  6 34  1  0
  6 35  1  0
 11 36  1  0
 12 37  1  0
 14 38  1  0
 21 39  1  0
 22 40  1  0
 23 41  1  0
 24 42  1  0
 25 43  1  0
 26 44  1  0
 27 45  1  0
 27 46  1  0
 28 47  1  0
 28 48  1  0
M  CHG  1  16  -1
M  END
>  <UniqueID>  (2) 
2

>  <SMILES>  (2) 
CC(=O)N1CCN(C(=O)c2ccc(O)c([N-]S(=O)(=O)c3ccccc3)c2)CC1

>  <Energy>  (2) 
59.105082352180695

>  <Genealogy>  (2) 
CC(=O)N1CCN(C(=O)c2ccc(O)c([N-]S(=O)(=O)c3ccccc3)c2)CC1 (protonated)
CC(=O)N1CCN(C(=O)c2ccc(O)c([N-]S(=O)(=O)c3ccccc3)c2)CC1 (3D coordinates assigned)
CC(=O)N1CCN(C(=O)c2ccc(O)c([N-]S(=O)(=O)c3ccccc3)c2)CC1 (nonaromatic ring conformer: 59.105082352180695 kcal/mol)

>  <smiles>  (2) 
CC(=O)N1CCN(C(=O)c2ccc(O)c(NS(=O)(=O)c3ccccc3)c2)CC1

>  <score_type>  (2) 
oracle

>  <origin>  (2) 
adgpu

>  <m_score__min__energy>  (2) 
-9.5700000000000003

>  <m_primary>  (2) 
energy

$$$$
2:0
     RDKit          3D

 46 49  0  0  0  0  0  0  0  0999 V2000
   -9.0310   20.7280  -32.3850 C   0  0  0  0  0  0  0  0  0  0  0  0
   -8.0920   21.7580  -31.8510 C   0  0  0  0  0  0  0  0  0  0  0  0
   -6.7470   21.7140  -32.0590 N   0  0  0  0  0  0  0  0  0  0  0  0
   -6.3300   22.8130  -31.4020 C   0  0  0  0  0  0  0  0  0  0  0  0
   -5.0310   23.3010  -31.2860 C   0  0  0  0  0  0  0  0  0  0  0  0
   -4.8270   24.4850  -30.5470 C   0  0  0  0  0  0  0  0  0  0  0  0
   -3.4890   24.9840  -30.4070 N   0  0  0  0  0  0  0  0  0  0  0  0
   -2.2980   24.3220  -29.3330 S   0  0  0  0  0  0  0  0  0  0  0  0
   -1.1010   25.2290  -29.3070 O   0  0  0  0  0  0  0  0  0  0  0  0
   -2.8780   24.2270  -27.9490 O   0  0  0  0  0  0  0  0  0  0  0  0
   -1.7960   22.7340  -29.9090 C   0  0  0  0  0  0  0  0  0  0  0  0
   -0.8970   21.9580  -29.1650 C   0  0  0  0  0  0  0  0  0  0  0  0
   -0.5240   20.6890  -29.6190 C   0  0  0  0  0  0  0  0  0  0  0  0
   -1.0470   20.1890  -30.8150 C   0  0  0  0  0  0  0  0  0  0  0  0
   -1.9440   20.9630  -31.5670 C   0  0  0  0  0  0  0  0  0  0  0  0
   -2.6260   20.3560  -33.0730 S   0  0  0  0  0  0  0  0  0  0  0  0
   -1.4970   20.0440  -34.0130 O   0  0  0  0  0  0  0  0  0  0  0  0
   -3.5120   21.3960  -33.6980 O   0  0  0  0  0  0  0  0  0  0  0  0
   -3.5440   18.9040  -32.7390 N   0  0  0  0  0  0  0  0  0  0  0  0
   -4.9010   19.2450  -32.2850 C   0  0  0  0  0  0  0  0  0  0  0  0
   -5.8420   19.1790  -33.4830 C   0  0  0  0  0  0  0  0  0  0  0  0
   -5.0390   18.5370  -34.6010 C   0  0  0  0  0  0  0  0  0  0  0  0
   -3.7250   18.1150  -33.9620 C   0  0  0  0  0  0  0  0  0  0  0  0
   -2.3100   22.2360  -31.1140 C   0  0  0  0  0  0  0  0  0  0  0  0
   -5.9410   25.1470  -29.9610 C   0  0  0  0  0  0  0  0  0  0  0  0
   -7.2420   24.6280  -30.1110 C   0  0  0  0  0  0  0  0  0  0  0  0
   -7.3900   23.4560  -30.8410 C   0  0  0  0  0  0  0  0  0  0  0  0
   -8.4810   22.7940  -31.1240 O   0  0  0  0  0  0  0  0  0  0  0  0
   -9.5116   20.2008  -31.5477 H   0  0  0  0  0  0  0  0  0  0  0  0
   -9.8004   21.2172  -33.0004 H   0  0  0  0  0  0  0  0  0  0  0  0
   -8.4730   20.0070  -33.0004 H   0  0  0  0  0  0  0  0  0  0  0  0
   -4.1867   22.7772  -31.7580 H   0  0  0  0  0  0  0  0  0  0  0  0
   -0.4842   22.3476  -28.2227 H   0  0  0  0  0  0  0  0  0  0  0  0
    0.1828   20.0827  -29.0334 H   0  0  0  0  0  0  0  0  0  0  0  0
   -0.7553   19.1884  -31.1668 H   0  0  0  0  0  0  0  0  0  0  0  0
   -5.2267   18.5278  -31.5172 H   0  0  0  0  0  0  0  0  0  0  0  0
   -4.9111   20.2564  -31.8527 H   0  0  0  0  0  0  0  0  0  0  0  0
   -6.7245   18.5672  -33.2444 H   0  0  0  0  0  0  0  0  0  0  0  0
   -6.2083   20.1765  -33.7672 H   0  0  0  0  0  0  0  0  0  0  0  0
   -5.5703   17.6617  -35.0031 H   0  0  0  0  0  0  0  0  0  0  0  0
   -4.8820   19.2287  -35.4418 H   0  0  0  0  0  0  0  0  0  0  0  0
   -3.7571   17.0437  -33.7142 H   0  0  0  0  0  0  0  0  0  0  0  0
   -2.8890   18.2871  -34.6560 H   0  0  0  0  0  0  0  0  0  0  0  0
   -3.0048   22.8488  -31.7071 H   0  0  0  0  0  0  0  0  0  0  0  0
   -5.7855   26.0718  -29.3860 H   0  0  0  0  0  0  0  0  0  0  0  0
   -8.1110   25.1339  -29.6651 H   0  0  0  0  0  0  0  0  0  0  0  0
  1  2  1  0
  2  3  2  0
  3  4  1  0
  4  5  2  0
  5  6  1  0
  6  7  1  0
  7  8  1  0
  8  9  2  0
  8 10  2  0
  8 11  1  0
 11 12  2  0
 12 13  1  0
 13 14  2  0
 14 15  1  0
 15 16  1  0
 16 17  2  0
 16 18  2  0
 16 19  1  0
 19 20  1  0
 20 21  1  0
 21 22  1  0
 22 23  1  0
 15 24  2  0
  6 25  2  0
 25 26  1  0
 26 27  2  0
 27 28  1  0
 28  2  1  0
 27  4  1  0
 24 11  1  0
 23 19  1  0
  1 29  1  0
  1 30  1  0
  1 31  1  0
  5 32  1  0
 12 33  1  0
 13 34  1  0
 14 35  1  0
 20 36  1  0
 20 37  1  0
 21 38  1  0
 21 39  1  0
 22 40  1  0
 22 41  1  0
 23 42  1  0
 23 43  1  0
 24 44  1  0
 25 45  1  0
 26 46  1  0
M  CHG  1   7  -1
M  END
>  <UniqueID>  (3) 
3

>  <SMILES>  (3) 
Cc1nc2cc([N-]S(=O)(=O)c3cccc(S(=O)(=O)N4CCCC4)c3)ccc2o1

>  <Energy>  (3) 
88.59397879823966

>  <Genealogy>  (3) 
Cc1nc2cc([N-]S(=O)(=O)c3cccc(S(=O)(=O)N4CCCC4)c3)ccc2o1 (protonated)
Cc1nc2cc([N-]S(=O)(=O)c3cccc(S(=O)(=O)N4CCCC4)c3)ccc2o1 (3D coordinates assigned)
Cc1nc2cc([N-]S(=O)(=O)c3cccc(S(=O)(=O)N4CCCC4)c3)ccc2o1 (nonaromatic ring conformer: 88.59397879823966 kcal/mol)

>  <smiles>  (3) 
Cc1nc2cc(NS(=O)(=O)c3cccc(S(=O)(=O)N4CCCC4)c3)ccc2o1

>  <score_type>  (3) 
oracle

>  <origin>  (3) 
adgpu

>  <m_score__min__energy>  (3) 
-10.82

>  <m_primary>  (3) 
energy

$$$$
3:0
     RDKit          3D

 59 62  0  0  0  0  0  0  0  0999 V2000
   -3.4810   21.3720  -27.8560 O   0  0  0  0  0  0  0  0  0  0  0  0
   -2.5320   21.5620  -28.6630 C   0  0  0  0  0  0  0  0  0  0  0  0
   -1.2920   20.7320  -28.5710 C   0  0  0  0  0  0  0  0  0  0  0  0
   -1.1020   20.0120  -29.8350 N   0  0  0  0  0  0  0  0  0  0  0  0
   -0.0320   19.1740  -29.9910 C   0  0  0  0  0  0  0  0  0  0  0  0
    0.2050   18.5470  -31.2170 C   0  0  0  0  0  0  0  0  0  0  0  0
   -0.6490   18.7950  -32.2900 C   0  0  0  0  0  0  0  0  0  0  0  0
   -1.7260   19.6710  -32.1320 C   0  0  0  0  0  0  0  0  0  0  0  0
   -2.8080   20.0250  -33.4720 S   0  0  0  0  0  0  0  0  0  0  0  0
   -3.5760   21.2830  -33.1770 O   0  0  0  0  0  0  0  0  0  0  0  0
   -2.0240   20.2400  -34.7360 O   0  0  0  0  0  0  0  0  0  0  0  0
   -3.9200   18.6790  -33.6830 C   0  0  0  0  0  0  0  0  0  0  0  0
   -5.0940   18.8440  -34.4320 C   0  0  0  0  0  0  0  0  0  0  0  0
   -5.9670   17.7670  -34.6140 C   0  0  0  0  0  0  0  0  0  0  0  0
   -5.6680   16.5210  -34.0550 C   0  0  0  0  0  0  0  0  0  0  0  0
   -4.4950   16.3500  -33.3130 C   0  0  0  0  0  0  0  0  0  0  0  0
   -3.6210   17.4250  -33.1290 C   0  0  0  0  0  0  0  0  0  0  0  0
   -1.9430   20.2660  -30.8850 C   0  0  0  0  0  0  0  0  0  0  0  0
   -2.6760   22.4920  -29.7380 N   0  0  0  0  0  0  0  0  0  0  0  0
   -3.9080   23.1510  -30.0650 C   0  0  0  0  0  0  0  0  0  0  0  0
   -5.0310   22.4210  -30.4960 C   0  0  0  0  0  0  0  0  0  0  0  0
   -6.1950   23.0860  -30.9000 C   0  0  0  0  0  0  0  0  0  0  0  0
   -7.5670   22.1480  -31.4930 S   0  0  0  0  0  0  0  0  0  0  0  0
   -8.3510   21.6610  -30.3070 O   0  0  0  0  0  0  0  0  0  0  0  0
   -8.4580   23.0220  -32.3320 O   0  0  0  0  0  0  0  0  0  0  0  0
   -7.0260   20.7690  -32.4300 N   0  0  0  0  0  0  0  0  0  0  0  0
   -8.1160   20.1710  -33.2280 C   0  0  0  0  0  0  0  0  0  0  0  0
   -9.1220   19.3850  -32.3670 C   0  0  0  0  0  0  0  0  0  0  0  0
   -8.4460   18.5490  -31.2640 C   0  0  0  0  0  0  0  0  0  0  0  0
   -6.9410   18.4120  -31.4870 C   0  0  0  0  0  0  0  0  0  0  0  0
   -6.2770   19.7970  -31.5930 C   0  0  0  0  0  0  0  0  0  0  0  0
   -6.2460   24.4850  -30.8600 C   0  0  0  0  0  0  0  0  0  0  0  0
   -5.1320   25.2140  -30.4330 C   0  0  0  0  0  0  0  0  0  0  0  0
   -3.9630   24.5520  -30.0470 C   0  0  0  0  0  0  0  0  0  0  0  0
   -2.8550   25.2920  -29.6480 O   0  0  0  0  0  0  0  0  0  0  0  0
   -0.4256   21.3835  -28.3842 H   0  0  0  0  0  0  0  0  0  0  0  0
   -1.3882   20.0120  -27.7450 H   0  0  0  0  0  0  0  0  0  0  0  0
    0.6470   18.9924  -29.1448 H   0  0  0  0  0  0  0  0  0  0  0  0
    1.0587   17.8633  -31.3343 H   0  0  0  0  0  0  0  0  0  0  0  0
   -0.4757   18.3027  -33.2583 H   0  0  0  0  0  0  0  0  0  0  0  0
   -5.3285   19.8222  -34.8771 H   0  0  0  0  0  0  0  0  0  0  0  0
   -6.8899   17.9003  -35.1975 H   0  0  0  0  0  0  0  0  0  0  0  0
   -6.3557   15.6747  -34.1989 H   0  0  0  0  0  0  0  0  0  0  0  0
   -4.2602   15.3691  -32.8740 H   0  0  0  0  0  0  0  0  0  0  0  0
   -2.6967   17.2877  -32.5486 H   0  0  0  0  0  0  0  0  0  0  0  0
   -2.7976   20.9446  -30.7466 H   0  0  0  0  0  0  0  0  0  0  0  0
   -4.9942   21.3218  -30.5157 H   0  0  0  0  0  0  0  0  0  0  0  0
   -8.6534   20.9770  -33.7491 H   0  0  0  0  0  0  0  0  0  0  0  0
   -7.6595   19.4625  -33.9348 H   0  0  0  0  0  0  0  0  0  0  0  0
   -9.8109   20.0995  -31.8928 H   0  0  0  0  0  0  0  0  0  0  0  0
   -9.6495   18.6862  -33.0329 H   0  0  0  0  0  0  0  0  0  0  0  0
   -8.6176   19.0374  -30.2934 H   0  0  0  0  0  0  0  0  0  0  0  0
   -8.8847   17.5405  -31.2868 H   0  0  0  0  0  0  0  0  0  0  0  0
   -6.4994   17.8638  -30.6417 H   0  0  0  0  0  0  0  0  0  0  0  0
   -6.7715   17.8663  -32.4269 H   0  0  0  0  0  0  0  0  0  0  0  0
   -6.1848   20.2139  -30.5792 H   0  0  0  0  0  0  0  0  0  0  0  0
   -5.3032   19.6441  -32.0812 H   0  0  0  0  0  0  0  0  0  0  0  0
   -7.1630   25.0106  -31.1647 H   0  0  0  0  0  0  0  0  0  0  0  0
   -5.1757   26.3127  -30.4007 H   0  0  0  0  0  0  0  0  0  0  0  0
  1  2  2  0
  2  3  1  0
  3  4  1  0
  4  5  2  0
  5  6  1  0
  6  7  2  0
  7  8  1  0
  8  9  1  0
  9 10  2  0
  9 11  2  0
  9 12  1  0
 12 13  2  0
 13 14  1  0
 14 15  2  0
 15 16  1  0
 16 17  2  0
  8 18  2  0
  2 19  1  0
 19 20  1  0
 20 21  2  0
 21 22  1  0
 22 23  1  0
 23 24  2  0
 23 25  2  0
 23 26  1  0
 26 27  1  0
 27 28  1  0
 28 29  1  0
 29 30  1  0
 30 31  1  0
 22 32  2  0
 32 33  1  0
 33 34  2  0
 34 35  1  0
 18  4  1  0
 34 20  1  0
 17 12  1  0
 31 26  1  0
  3 36  1  0
  3 37  1  0
  5 38  1  0
  6 39  1  0
  7 40  1  0
 13 41  1  0
 14 42  1  0
 15 43  1  0
 16 44  1  0
 17 45  1  0
 18 46  1  0
 21 47  1  0
 27 48  1  0
 27 49  1  0
 28 50  1  0
 28 51  1  0
 29 52  1  0
 29 53  1  0
 30 54  1  0
 30 55  1  0
 31 56  1  0
 31 57  1  0
 32 58  1  0
 33 59  1  0
M  CHG  3   4   1  19  -1  35  -1
M  END
>  <UniqueID>  (4) 
4

>  <SMILES>  (4) 
O=C(C[n+]1cccc(S(=O)(=O)c2ccccc2)c1)[N-]c1cc(S(=O)(=O)N2CCCCC2)ccc1[O-]

>  <Energy>  (4) 
71.69160176429682

>  <Genealogy>  (4) 
O=C(C[n+]1cccc(S(=O)(=O)c2ccccc2)c1)[N-]c1cc(S(=O)(=O)N2CCCCC2)ccc1[O-] (protonated)
O=C(C[n+]1cccc(S(=O)(=O)c2ccccc2)c1)[N-]c1cc(S(=O)(=O)N2CCCCC2)ccc1[O-] (3D coordinates assigned)
O=C(C[n+]1cccc(S(=O)(=O)c2ccccc2)c1)[N-]c1cc(S(=O)(=O)N2CCCCC2)ccc1[O-] (nonaromatic ring conformer: 71.69160176429682 kcal/mol)

>  <smiles>  (4) 
O=C(C[n+]1cccc(S(=O)(=O)c2ccccc2)c1)Nc1cc(S(=O)(=O)N2CCCCC2)ccc1O

>  <score_type>  (4) 
oracle

>  <origin>  (4) 
adgpu

>  <m_score__min__energy>  (4) 
-14.130000000000001

>  <m_primary>  (4) 
energy

$$$$
4:0
     RDKit          3D

 34 35  0  0  0  0  0  0  0  0999 V2000
   -9.0040   22.9080  -31.9390 C   0  0  0  0  0  0  0  0  0  0  0  0
   -7.7310   22.9890  -31.3060 O   0  0  0  0  0  0  0  0  0  0  0  0
   -6.5540   22.4040  -31.8020 C   0  0  0  0  0  0  0  0  0  0  0  0
   -6.5840   21.2690  -32.6370 C   0  0  0  0  0  0  0  0  0  0  0  0
   -5.3950   20.7170  -33.1210 C   0  0  0  0  0  0  0  0  0  0  0  0
   -4.1670   21.2900  -32.7830 C   0  0  0  0  0  0  0  0  0  0  0  0
   -2.5460   20.5370  -33.4550 Br  0  0  0  0  0  0  0  0  0  0  0  0
   -4.1260   22.4140  -31.9540 C   0  0  0  0  0  0  0  0  0  0  0  0
   -5.3130   22.9710  -31.4550 C   0  0  0  0  0  0  0  0  0  0  0  0
   -5.2440   24.3950  -30.4150 S   0  0  0  0  0  0  0  0  0  0  0  0
   -4.2570   25.3900  -30.9580 O   0  0  0  0  0  0  0  0  0  0  0  0
   -6.6130   25.0120  -30.3610 O   0  0  0  0  0  0  0  0  0  0  0  0
   -4.7450   23.9040  -28.8270 N   0  0  0  0  0  0  0  0  0  0  0  0
   -3.4710   23.3510  -28.4700 C   0  0  0  0  0  0  0  0  0  0  0  0
   -3.4520   22.0650  -27.9120 C   0  0  0  0  0  0  0  0  0  0  0  0
   -2.2450   21.4660  -27.5240 C   0  0  0  0  0  0  0  0  0  0  0  0
   -2.2330   20.0810  -26.9460 C   0  0  0  0  0  0  0  0  0  0  0  0
   -1.0400   22.1480  -27.7350 C   0  0  0  0  0  0  0  0  0  0  0  0
   -1.0430   23.4190  -28.3110 C   0  0  0  0  0  0  0  0  0  0  0  0
   -2.2490   24.0250  -28.6920 C   0  0  0  0  0  0  0  0  0  0  0  0
   -2.2200   25.2710  -29.3140 O   0  0  0  0  0  0  0  0  0  0  0  0
   -9.7919   22.8579  -31.1730 H   0  0  0  0  0  0  0  0  0  0  0  0
   -9.1588   23.7981  -32.5665 H   0  0  0  0  0  0  0  0  0  0  0  0
   -9.0447   22.0054  -32.5665 H   0  0  0  0  0  0  0  0  0  0  0  0
   -7.5484   20.8153  -32.9091 H   0  0  0  0  0  0  0  0  0  0  0  0
   -5.4263   19.8292  -33.7697 H   0  0  0  0  0  0  0  0  0  0  0  0
   -3.1576   22.8647  -31.6911 H   0  0  0  0  0  0  0  0  0  0  0  0
   -4.3969   21.5184  -27.7767 H   0  0  0  0  0  0  0  0  0  0  0  0
   -2.2335   20.1420  -25.8477 H   0  0  0  0  0  0  0  0  0  0  0  0
   -3.1264   19.5351  -27.2833 H   0  0  0  0  0  0  0  0  0  0  0  0
   -1.3302   19.5507  -27.2833 H   0  0  0  0  0  0  0  0  0  0  0  0
   -0.0876   21.6799  -27.4455 H   0  0  0  0  0  0  0  0  0  0  0  0
   -0.0922   23.9496  -28.4674 H   0  0  0  0  0  0  0  0  0  0  0  0
   -3.0470   25.6780  -29.7320 H   0  0  0  0  0  0  0  0  0  0  0  0
  1  2  1  0
  2  3  1  0
  3  4  2  0
  4  5  1  0
  5  6  2  0
  6  7  1  0
  6  8  1  0
  8  9  2  0
  9 10  1  0
 10 11  2  0
 10 12  2  0
 10 13  1  0
 13 14  1  0
 14 15  2  0
 15 16  1  0
 16 17  1  0
 16 18  2  0
 18 19  1  0
 19 20  2  0
 20 21  1  0
  9  3  1  0
 20 14  1  0
  1 22  1  0
  1 23  1  0
  1 24  1  0
  4 25  1  0
  5 26  1  0
  8 27  1  0
 15 28  1  0
 17 29  1  0
 17 30  1  0
 17 31  1  0
 18 32  1  0
 19 33  1  0
 21 34  1  0
M  CHG  1  13  -1
M  END
>  <UniqueID>  (5) 
5

>  <SMILES>  (5) 
COc1ccc(Br)cc1S(=O)(=O)[N-]c1cc(C)ccc1O

>  <Energy>  (5) 
40.440065069577216

>  <Genealogy>  (5) 
COc1ccc(Br)cc1S(=O)(=O)[N-]c1cc(C)ccc1O (protonated)
COc1ccc(Br)cc1S(=O)(=O)[N-]c1cc(C)ccc1O (3D coordinates assigned)
COc1ccc(Br)cc1S(=O)(=O)[N-]c1cc(C)ccc1O (optimized conformer: 40.440065069577216 kcal/mol)

>  <smiles>  (5) 
COc1ccc(Br)cc1S(=O)(=O)Nc1cc(C)ccc1O

>  <score_type>  (5) 
oracle

>  <origin>  (5) 
adgpu

>  <m_score__min__energy>  (5) 
-10.539999999999999

>  <m_primary>  (5) 
energy

$$$$
5:0
     RDKit          3D

 56 58  0  0  0  0  0  0  0  0999 V2000
   -0.0810   25.5150  -25.8710 C   0  0  0  0  0  0  0  0  0  0  0  0
    0.2650   25.0400  -27.2790 C   0  0  0  0  0  0  0  0  0  0  0  0
   -0.9390   24.4210  -27.9450 C   0  0  0  0  0  0  0  0  0  0  0  0
   -1.3600   23.1390  -27.5580 C   0  0  0  0  0  0  0  0  0  0  0  0
   -2.4790   22.5460  -28.1570 C   0  0  0  0  0  0  0  0  0  0  0  0
   -2.9310   21.1760  -27.7440 C   0  0  0  0  0  0  0  0  0  0  0  0
   -3.2110   23.2610  -29.1120 C   0  0  0  0  0  0  0  0  0  0  0  0
   -2.8370   24.5600  -29.4740 C   0  0  0  0  0  0  0  0  0  0  0  0
   -3.6210   25.2420  -30.4630 N   0  0  0  0  0  0  0  0  0  0  0  0
   -5.0390   25.1220  -30.6440 C   0  0  0  0  0  0  0  0  0  0  0  0
   -5.7900   26.1030  -30.3910 O   0  0  0  0  0  0  0  0  0  0  0  0
   -5.6250   23.8310  -31.0730 C   0  0  0  0  0  0  0  0  0  0  0  0
   -4.8600   22.9060  -31.8070 C   0  0  0  0  0  0  0  0  0  0  0  0
   -5.4120   21.6850  -32.2040 C   0  0  0  0  0  0  0  0  0  0  0  0
   -6.7340   21.3630  -31.8720 C   0  0  0  0  0  0  0  0  0  0  0  0
   -7.4220   19.8100  -32.3560 S   0  0  0  0  0  0  0  0  0  0  0  0
   -8.3700   20.0240  -33.5020 O   0  0  0  0  0  0  0  0  0  0  0  0
   -8.2040   19.2350  -31.2070 O   0  0  0  0  0  0  0  0  0  0  0  0
   -6.1780   18.6800  -32.8400 N   0  0  0  0  0  0  0  0  0  0  0  0
   -6.6820   17.2870  -32.8450 C   0  0  0  0  0  0  0  0  0  0  0  0
   -6.7210   16.6860  -34.2660 C   0  0  2  0  0  0  0  0  0  0  0  0
   -7.2330   15.2470  -34.2230 C   0  0  0  0  0  0  0  0  0  0  0  0
   -5.4330   16.6950  -34.8560 O   0  0  0  0  0  0  0  0  0  0  0  0
   -4.7590   17.9500  -34.7600 C   0  0  2  0  0  0  0  0  0  0  0  0
   -3.4440   17.7470  -34.0030 C   0  0  0  0  0  0  0  0  0  0  0  0
   -5.5880   19.0950  -34.1250 C   0  0  0  0  0  0  0  0  0  0  0  0
   -7.5060   22.2850  -31.1530 C   0  0  0  0  0  0  0  0  0  0  0  0
   -6.9560   23.5070  -30.7540 C   0  0  0  0  0  0  0  0  0  0  0  0
   -1.6770   25.1310  -28.9140 C   0  0  0  0  0  0  0  0  0  0  0  0
   -1.2370   26.3830  -29.3340 O   0  0  0  0  0  0  0  0  0  0  0  0
    0.3994   24.8556  -25.1332 H   0  0  0  0  0  0  0  0  0  0  0  0
    0.2801   26.5448  -25.7323 H   0  0  0  0  0  0  0  0  0  0  0  0
   -1.1719   25.4871  -25.7323 H   0  0  0  0  0  0  0  0  0  0  0  0
    0.6060   25.8987  -27.8760 H   0  0  0  0  0  0  0  0  0  0  0  0
    1.0595   24.2823  -27.2109 H   0  0  0  0  0  0  0  0  0  0  0  0
   -0.8067   22.5955  -26.7780 H   0  0  0  0  0  0  0  0  0  0  0  0
   -2.9520   21.1123  -26.6460 H   0  0  0  0  0  0  0  0  0  0  0  0
   -3.9391   20.9871  -28.1416 H   0  0  0  0  0  0  0  0  0  0  0  0
   -2.2332   20.4243  -28.1416 H   0  0  0  0  0  0  0  0  0  0  0  0
   -4.0899   22.7967  -29.5832 H   0  0  0  0  0  0  0  0  0  0  0  0
   -3.8193   23.1457  -32.0704 H   0  0  0  0  0  0  0  0  0  0  0  0
   -4.8043   20.9723  -32.7809 H   0  0  0  0  0  0  0  0  0  0  0  0
   -7.6999   17.2771  -32.4282 H   0  0  0  0  0  0  0  0  0  0  0  0
   -5.9953   16.6774  -32.2393 H   0  0  0  0  0  0  0  0  0  0  0  0
   -7.4007   17.3052  -34.8698 H   0  0  0  0  0  0  0  0  0  0  0  0
   -7.3461   14.9292  -33.1760 H   0  0  0  0  0  0  0  0  0  0  0  0
   -8.2069   15.1890  -34.7310 H   0  0  0  0  0  0  0  0  0  0  0  0
   -6.5146   14.5869  -34.7310 H   0  0  0  0  0  0  0  0  0  0  0  0
   -4.5766   18.2861  -35.7914 H   0  0  0  0  0  0  0  0  0  0  0  0
   -3.6359   17.7766  -32.9203 H   0  0  0  0  0  0  0  0  0  0  0  0
   -3.0126   16.7716  -34.2724 H   0  0  0  0  0  0  0  0  0  0  0  0
   -2.7386   18.5469  -34.2724 H   0  0  0  0  0  0  0  0  0  0  0  0
   -6.3961   19.3778  -34.8156 H   0  0  0  0  0  0  0  0  0  0  0  0
   -4.9179   19.9475  -33.9401 H   0  0  0  0  0  0  0  0  0  0  0  0
   -8.5499   22.0463  -30.9012 H   0  0  0  0  0  0  0  0  0  0  0  0
   -7.5697   24.2213  -30.1856 H   0  0  0  0  0  0  0  0  0  0  0  0
  1  2  1  0
  2  3  1  0
  3  4  2  0
  4  5  1  0
  5  6  1  0
  5  7  2  0
  7  8  1  0
  8  9  1  0
  9 10  1  0
 10 11  2  0
 10 12  1  0
 12 13  2  0
 13 14  1  0
 14 15  2  0
 15 16  1  0
 16 17  2  0
 16 18  2  0
 16 19  1  0
 19 20  1  0
 20 21  1  0
 21 22  1  0
 21 23  1  0
 23 24  1  0
 24 25  1  0
 24 26  1  0
 15 27  1  0
 27 28  2  0
  8 29  2  0
 29 30  1  0
 29  3  1  0
 28 12  1  0
 26 19  1  0
  1 31  1  0
  1 32  1  0
  1 33  1  0
  2 34  1  0
  2 35  1  0
  4 36  1  0
  6 37  1  0
  6 38  1  0
  6 39  1  0
  7 40  1  0
 13 41  1  0
 14 42  1  0
 20 43  1  0
 20 44  1  0
 21 45  1  6
 22 46  1  0
 22 47  1  0
 22 48  1  0
 24 49  1  6
 25 50  1  0
 25 51  1  0
 25 52  1  0
 26 53  1  0
 26 54  1  0
 27 55  1  0
 28 56  1  0
M  CHG  2   9  -1  30  -1
M  END
>  <UniqueID>  (6) 
6

>  <SMILES>  (6) 
CCc1cc(C)cc([N-]C(=O)c2ccc(S(=O)(=O)N3C[C@@H](C)O[C@@H](C)C3)cc2)c1[O-]

>  <Energy>  (6) 
67.88441496520988

>  <Genealogy>  (6) 
CCc1cc(C)cc([N-]C(=O)c2ccc(S(=O)(=O)N3CC(C)OC(C)C3)cc2)c1[O-] (protonated)
CCc1cc(C)cc([N-]C(=O)c2ccc(S(=O)(=O)N3C[C@@H](C)O[C@@H](C)C3)cc2)c1[O-] (chirality)
CCc1cc(C)cc([N-]C(=O)c2ccc(S(=O)(=O)N3C[C@@H](C)O[C@@H](C)C3)cc2)c1[O-] (3D coordinates assigned)
CCc1cc(C)cc([N-]C(=O)c2ccc(S(=O)(=O)N3C[C@@H](C)O[C@@H](C)C3)cc2)c1[O-] (nonaromatic ring conformer: 67.88441496520988 kcal/mol)

>  <smiles>  (6) 
CCc1cc(C)cc(NC(=O)c2ccc(S(=O)(=O)N3CC(C)OC(C)C3)cc2)c1O

>  <score_type>  (6) 
oracle

>  <origin>  (6) 
adgpu

>  <m_score__min__energy>  (6) 
-15.77

>  <m_primary>  (6) 
energy

$$$$
6:0
     RDKit          3D

 34 36  0  0  0  0  0  0  0  0999 V2000
   -8.3320   18.5610  -32.3380 C   0  0  0  0  0  0  0  0  0  0  0  0
   -7.0010   19.1380  -32.6780 C   0  0  0  0  0  0  0  0  0  0  0  0
   -6.4650   19.1260  -33.9120 N   0  0  0  0  0  0  0  0  0  0  0  0
   -5.2780   19.7020  -33.8060 N   0  0  0  0  0  0  0  0  0  0  0  0
   -5.1340   20.0380  -32.5070 C   0  0  0  0  0  0  0  0  0  0  0  0
   -3.9470   20.7100  -31.9440 C   0  0  0  0  0  0  0  0  0  0  0  0
   -2.6620   20.1730  -32.1310 C   0  0  0  0  0  0  0  0  0  0  0  0
   -1.5430   20.8250  -31.6070 C   0  0  0  0  0  0  0  0  0  0  0  0
   -1.6940   22.0160  -30.8940 C   0  0  0  0  0  0  0  0  0  0  0  0
   -2.9690   22.5600  -30.6950 C   0  0  0  0  0  0  0  0  0  0  0  0
   -3.1460   24.0830  -29.8260 S   0  0  0  0  0  0  0  0  0  0  0  0
   -1.7860   24.5530  -29.3940 O   0  0  0  0  0  0  0  0  0  0  0  0
   -3.9880   23.8820  -28.5970 O   0  0  0  0  0  0  0  0  0  0  0  0
   -3.8690   25.3030  -30.8370 N   0  0  0  0  0  0  0  0  0  0  0  0
   -5.2640   25.5530  -30.4680 C   0  0  0  0  0  0  0  0  0  0  0  0
   -6.1330   24.3760  -30.7920 C   0  0  0  0  0  0  0  0  0  0  0  0
   -6.8260   23.5960  -29.8760 C   0  0  0  0  0  0  0  0  0  0  0  0
   -7.5700   22.5740  -30.4760 C   0  0  0  0  0  0  0  0  0  0  0  0
   -7.4720   22.5520  -31.8610 C   0  0  0  0  0  0  0  0  0  0  0  0
   -6.4570   23.8050  -32.3410 S   0  0  0  0  0  0  0  0  0  0  0  0
   -4.0920   21.9050  -31.2210 C   0  0  0  0  0  0  0  0  0  0  0  0
   -6.1900   19.6900  -31.8100 O   0  0  0  0  0  0  0  0  0  0  0  0
   -8.4424   18.5131  -31.2446 H   0  0  0  0  0  0  0  0  0  0  0  0
   -9.1253   19.1960  -32.7592 H   0  0  0  0  0  0  0  0  0  0  0  0
   -8.4109   17.5479  -32.7592 H   0  0  0  0  0  0  0  0  0  0  0  0
   -2.5366   19.2353  -32.6923 H   0  0  0  0  0  0  0  0  0  0  0  0
   -0.5400   20.3988  -31.7566 H   0  0  0  0  0  0  0  0  0  0  0  0
   -0.8094   22.5282  -30.4876 H   0  0  0  0  0  0  0  0  0  0  0  0
   -5.3186   25.7519  -29.3875 H   0  0  0  0  0  0  0  0  0  0  0  0
   -5.6248   26.4191  -31.0422 H   0  0  0  0  0  0  0  0  0  0  0  0
   -6.7935   23.7643  -28.7894 H   0  0  0  0  0  0  0  0  0  0  0  0
   -8.1756   21.8555  -29.9042 H   0  0  0  0  0  0  0  0  0  0  0  0
   -7.9728   21.8370  -32.5304 H   0  0  0  0  0  0  0  0  0  0  0  0
   -5.0944   22.3307  -31.0660 H   0  0  0  0  0  0  0  0  0  0  0  0
  1  2  1  0
  2  3  2  0
  3  4  1  0
  4  5  2  0
  5  6  1  0
  6  7  2  0
  7  8  1  0
  8  9  2  0
  9 10  1  0
 10 11  1  0
 11 12  2  0
 11 13  2  0
 11 14  1  0
 14 15  1  0
 15 16  1  0
 16 17  2  0
 17 18  1  0
 18 19  2  0
 19 20  1  0
 10 21  2  0
  5 22  1  0
 22  2  1  0
 21  6  1  0
 20 16  1  0
  1 23  1  0
  1 24  1  0
  1 25  1  0
  7 26  1  0
  8 27  1  0
  9 28  1  0
 15 29  1  0
 15 30  1  0
 17 31  1  0
 18 32  1  0
 19 33  1  0
 21 34  1  0
M  CHG  1  14  -1
M  END
>  <UniqueID>  (7) 
7

>  <SMILES>  (7) 
Cc1nnc(-c2cccc(S(=O)(=O)[N-]Cc3cccs3)c2)o1

>  <Energy>  (7) 
92.68660451550615

>  <Genealogy>  (7) 
Cc1nnc(-c2cccc(S(=O)(=O)[N-]Cc3cccs3)c2)o1 (protonated)
Cc1nnc(-c2cccc(S(=O)(=O)[N-]Cc3cccs3)c2)o1 (3D coordinates assigned)
Cc1nnc(-c2cccc(S(=O)(=O)[N-]Cc3cccs3)c2)o1 (optimized conformer: 92.68660451550615 kcal/mol)

>  <smiles>  (7) 
Cc1nnc(-c2cccc(S(=O)(=O)NCc3cccs3)c2)o1

>  <score_type>  (7) 
oracle

>  <origin>  (7) 
adgpu

>  <m_score__min__energy>  (7) 
-9.3499999999999996

>  <m_primary>  (7) 
energy

$$$$
7:0
     RDKit          3D

 72 77  0  0  0  0  0  0  0  0999 V2000
   -2.5930   11.4530  -32.7560 C   0  0  0  0  0  0  0  0  0  0  0  0
   -1.3580   12.2480  -32.3180 C   0  0  0  0  0  0  0  0  0  0  0  0
   -1.7170   13.7190  -32.0480 C   0  0  0  0  0  0  0  0  0  0  0  0
   -0.4820   14.5370  -31.6070 C   0  0  0  0  0  0  0  0  0  0  0  0
    0.6530   13.6760  -31.2140 N   0  0  0  0  0  0  0  0  0  0  0  0
    1.8920   14.6340  -30.4390 S   0  0  0  0  0  0  0  0  0  0  0  0
    2.8820   15.1080  -31.4670 O   0  0  0  0  0  0  0  0  0  0  0  0
    2.6280   13.7800  -29.4440 O   0  0  0  0  0  0  0  0  0  0  0  0
    1.2030   16.0270  -29.6050 C   0  0  0  0  0  0  0  0  0  0  0  0
    0.9880   15.9860  -28.2030 C   0  0  0  0  0  0  0  0  0  0  0  0
    0.4710   17.1050  -27.5240 C   0  0  0  0  0  0  0  0  0  0  0  0
    0.1860   18.2370  -28.2800 C   0  0  0  0  0  0  0  0  0  0  0  0
   -0.2830   19.3900  -27.8840 O   0  0  0  0  0  0  0  0  0  0  0  0
   -0.3740   20.1350  -28.9750 C   0  0  0  0  0  0  0  0  0  0  0  0
   -0.8620   21.5290  -28.9660 C   0  0  0  0  0  0  0  0  0  0  0  0
    0.0020   22.5900  -28.6570 C   0  0  0  0  0  0  0  0  0  0  0  0
   -0.4690   23.9040  -28.6450 C   0  0  0  0  0  0  0  0  0  0  0  0
   -1.8070   24.1840  -28.9390 C   0  0  0  0  0  0  0  0  0  0  0  0
   -2.2250   25.5160  -28.9050 O   0  0  0  0  0  0  0  0  0  0  0  0
   -2.6910   23.1250  -29.2560 C   0  0  0  0  0  0  0  0  0  0  0  0
   -4.1510   23.3720  -29.5550 C   0  0  0  0  0  0  0  0  0  0  0  0
   -4.3650   23.7640  -30.9670 N   0  0  0  0  0  0  0  0  0  0  0  0
   -3.9620   22.6780  -31.9030 C   0  0  0  0  0  0  0  0  0  0  0  0
   -5.1200   22.0760  -32.7220 C   0  0  0  0  0  0  0  0  0  0  0  0
   -6.3430   21.9800  -31.9110 N   0  0  0  0  0  0  0  0  0  0  0  0
   -7.1760   20.7920  -31.9640 C   0  0  0  0  0  0  0  0  0  0  0  0
   -6.6300   19.4970  -31.8310 C   0  0  0  0  0  0  0  0  0  0  0  0
   -7.4690   18.3830  -31.8890 C   0  0  0  0  0  0  0  0  0  0  0  0
   -8.8400   18.5510  -32.0790 C   0  0  0  0  0  0  0  0  0  0  0  0
   -9.3540   19.8400  -32.2090 C   0  0  0  0  0  0  0  0  0  0  0  0
   -8.5230   20.9140  -32.1480 N   0  0  0  0  0  0  0  0  0  0  0  0
   -6.7820   23.1760  -31.1770 C   0  0  0  0  0  0  0  0  0  0  0  0
   -5.7250   24.2870  -31.2320 C   0  0  0  0  0  0  0  0  0  0  0  0
   -2.2050   21.8060  -29.2650 C   0  0  0  0  0  0  0  0  0  0  0  0
    0.0330   19.4900  -30.1020 N   0  0  0  0  0  0  0  0  0  0  0  0
    0.3820   18.2830  -29.6240 C   0  0  0  0  0  0  0  0  0  0  0  0
    0.8900   17.1980  -30.3300 C   0  0  0  0  0  0  0  0  0  0  0  0
    0.2080   12.5970  -30.3180 C   0  0  0  0  0  0  0  0  0  0  0  0
   -0.7040   11.6110  -31.0710 C   0  0  0  0  0  0  0  0  0  0  0  0
   -3.1377   11.1024  -31.8669 H   0  0  0  0  0  0  0  0  0  0  0  0
   -3.2500   12.0982  -33.3577 H   0  0  0  0  0  0  0  0  0  0  0  0
   -2.2777   10.5878  -33.3577 H   0  0  0  0  0  0  0  0  0  0  0  0
   -0.6296   12.2178  -33.1417 H   0  0  0  0  0  0  0  0  0  0  0  0
   -2.1271   14.1606  -32.9682 H   0  0  0  0  0  0  0  0  0  0  0  0
   -2.4560   13.7478  -31.2338 H   0  0  0  0  0  0  0  0  0  0  0  0
   -0.1661   15.1782  -32.4431 H   0  0  0  0  0  0  0  0  0  0  0  0
   -0.7707   15.1330  -30.7287 H   0  0  0  0  0  0  0  0  0  0  0  0
    1.2277   15.0709  -27.6416 H   0  0  0  0  0  0  0  0  0  0  0  0
    0.2990   17.0851  -26.4377 H   0  0  0  0  0  0  0  0  0  0  0  0
    1.0571   22.3853  -28.4227 H   0  0  0  0  0  0  0  0  0  0  0  0
    0.2191   24.7271  -28.4019 H   0  0  0  0  0  0  0  0  0  0  0  0
   -3.0040   25.8390  -28.3460 H   0  0  0  0  0  0  0  0  0  0  0  0
   -4.7168   22.4509  -29.3516 H   0  0  0  0  0  0  0  0  0  0  0  0
   -4.4959   24.1976  -28.9151 H   0  0  0  0  0  0  0  0  0  0  0  0
   -3.2213   23.0876  -32.6055 H   0  0  0  0  0  0  0  0  0  0  0  0
   -3.5621   21.8629  -31.2819 H   0  0  0  0  0  0  0  0  0  0  0  0
   -5.3157   22.7174  -33.5940 H   0  0  0  0  0  0  0  0  0  0  0  0
   -4.8328   21.0645  -33.0452 H   0  0  0  0  0  0  0  0  0  0  0  0
   -5.5480   19.3664  -31.6823 H   0  0  0  0  0  0  0  0  0  0  0  0
   -7.0483   17.3720  -31.7848 H   0  0  0  0  0  0  0  0  0  0  0  0
   -9.5072   17.6777  -32.1257 H   0  0  0  0  0  0  0  0  0  0  0  0
  -10.4333   19.9884  -32.3611 H   0  0  0  0  0  0  0  0  0  0  0  0
   -7.7155   23.5479  -31.6246 H   0  0  0  0  0  0  0  0  0  0  0  0
   -6.9371   22.8980  -30.1241 H   0  0  0  0  0  0  0  0  0  0  0  0
   -5.7418   24.7457  -32.2317 H   0  0  0  0  0  0  0  0  0  0  0  0
   -5.9650   25.0269  -30.4542 H   0  0  0  0  0  0  0  0  0  0  0  0
   -2.8874   20.9787  -29.5100 H   0  0  0  0  0  0  0  0  0  0  0  0
    1.0431   17.2501  -31.4180 H   0  0  0  0  0  0  0  0  0  0  0  0
    1.0875   12.0574  -29.9368 H   0  0  0  0  0  0  0  0  0  0  0  0
   -0.3576   13.0382  -29.4841 H   0  0  0  0  0  0  0  0  0  0  0  0
   -0.1028   10.7468  -31.3900 H   0  0  0  0  0  0  0  0  0  0  0  0
   -1.5105   11.3102  -30.3861 H   0  0  0  0  0  0  0  0  0  0  0  0
  1  2  1  0
  2  3  1  0
  3  4  1  0
  4  5  1  0
  5  6  1  0
  6  7  2  0
  6  8  2  0
  6  9  1  0
  9 10  2  0
 10 11  1  0
 11 12  2  0
 12 13  1  0
 13 14  1  0
 14 15  1  0
 15 16  2  0
 16 17  1  0
 17 18  2  0
 18 19  1  0
 18 20  1  0
 20 21  1  0
 21 22  1  0
 22 23  1  0
 23 24  1  0
 24 25  1  0
 25 26  1  0
 26 27  2  0
 27 28  1  0
 28 29  2  0
 29 30  1  0
 30 31  2  0
 25 32  1  0
 32 33  1  0
 20 34  2  0
 14 35  2  0
 35 36  1  0
 36 37  2  0
  5 38  1  0
 38 39  1  0
 39  2  1  0
 37  9  1  0
 36 12  1  0
 34 15  1  0
 33 22  1  0
 31 26  1  0
  1 40  1  0
  1 41  1  0
  1 42  1  0
  2 43  1  0
  3 44  1  0
  3 45  1  0
  4 46  1  0
  4 47  1  0
 10 48  1  0
 11 49  1  0
 16 50  1  0
 17 51  1  0
 19 52  1  0
 21 53  1  0
 21 54  1  0
 23 55  1  0
 23 56  1  0
 24 57  1  0
 24 58  1  0
 27 59  1  0
 28 60  1  0
 29 61  1  0
 30 62  1  0
 32 63  1  0
 32 64  1  0
 33 65  1  0
 33 66  1  0
 34 67  1  0
 37 68  1  0
 38 69  1  0
 38 70  1  0
 39 71  1  0
 39 72  1  0
M  END
>  <UniqueID>  (8) 
8

>  <SMILES>  (8) 
CC1CCN(S(=O)(=O)c2ccc3oc(-c4ccc(O)c(CN5CCN(c6ccccn6)CC5)c4)nc3c2)CC1

>  <Energy>  (8) 
129.3824477804922

>  <Genealogy>  (8) 
CC1CCN(S(=O)(=O)c2ccc3oc(-c4ccc(O)c(CN5CCN(c6ccccn6)CC5)c4)nc3c2)CC1 (3D coordinates assigned)
CC1CCN(S(=O)(=O)c2ccc3oc(-c4ccc(O)c(CN5CCN(c6ccccn6)CC5)c4)nc3c2)CC1 (nonaromatic ring conformer: 129.3824477804922 kcal/mol)

>  <smiles>  (8) 
CC1CCN(S(=O)(=O)c2ccc3oc(-c4ccc(O)c(CN5CCN(c6ccccn6)CC5)c4)nc3c2)CC1

>  <score_type>  (8) 
oracle

>  <origin>  (8) 
adgpu

>  <m_score__min__energy>  (8) 
-9.5800000000000001

>  <m_primary>  (8) 
energy

$$$$
8:0
     RDKit          3D

 57 60  0  0  0  0  0  0  0  0999 V2000
   -2.6290   18.6350  -26.8110 C   0  0  0  0  0  0  0  0  0  0  0  0
   -2.4040   20.0440  -27.2910 C   0  0  0  0  0  0  0  0  0  0  0  0
   -3.4900   20.9200  -27.4630 C   0  0  0  0  0  0  0  0  0  0  0  0
   -3.2740   22.2450  -27.8730 C   0  0  0  0  0  0  0  0  0  0  0  0
   -1.9680   22.7170  -28.0860 C   0  0  0  0  0  0  0  0  0  0  0  0
   -1.7080   24.4320  -28.4540 S   0  0  0  0  0  0  0  0  0  0  0  0
   -1.6020   25.2420  -27.1840 O   0  0  0  0  0  0  0  0  0  0  0  0
   -0.4240   24.5600  -29.2350 O   0  0  0  0  0  0  0  0  0  0  0  0
   -3.0190   25.0410  -29.4140 N   0  0  0  0  0  0  0  0  0  0  0  0
   -3.7400   24.2290  -30.3500 C   0  0  0  0  0  0  0  0  0  0  0  0
   -5.1050   24.4530  -30.5970 C   0  0  0  0  0  0  0  0  0  0  0  0
   -5.8440   23.5390  -31.3640 C   0  0  0  0  0  0  0  0  0  0  0  0
   -5.2010   22.4330  -31.9390 C   0  0  0  0  0  0  0  0  0  0  0  0
   -3.8200   22.2560  -31.7700 C   0  0  0  0  0  0  0  0  0  0  0  0
   -3.0900   23.1480  -30.9670 C   0  0  0  0  0  0  0  0  0  0  0  0
   -1.7280   22.9460  -30.7470 O   0  0  0  0  0  0  0  0  0  0  0  0
   -6.0470   21.4270  -32.6670 C   0  0  0  0  0  0  0  0  0  0  0  0
   -7.2890   21.2080  -31.9030 N   0  0  0  0  0  0  0  0  0  0  0  0
   -7.7360   19.8760  -31.6070 C   0  0  0  0  0  0  0  0  0  0  0  0
   -8.7370   19.7160  -30.8540 O   0  0  0  0  0  0  0  0  0  0  0  0
   -7.0070   18.6910  -32.1140 C   0  0  0  0  0  0  0  0  0  0  0  0
   -6.8670   18.4800  -33.4960 C   0  0  0  0  0  0  0  0  0  0  0  0
   -6.1750   17.3610  -33.9760 C   0  0  0  0  0  0  0  0  0  0  0  0
   -5.6250   16.4340  -33.0820 C   0  0  0  0  0  0  0  0  0  0  0  0
   -4.7240   15.0450  -33.6860 S   0  0  0  0  0  0  0  0  0  0  0  0
   -3.4450   15.6100  -34.7880 C   0  0  0  0  0  0  0  0  0  0  0  0
   -5.6490   14.1130  -34.4200 O   0  0  0  0  0  0  0  0  0  0  0  0
   -4.1030   14.3020  -32.5350 O   0  0  0  0  0  0  0  0  0  0  0  0
   -5.7740   16.6340  -31.7020 C   0  0  0  0  0  0  0  0  0  0  0  0
   -6.4680   17.7480  -31.2220 C   0  0  0  0  0  0  0  0  0  0  0  0
   -8.0440   22.3430  -31.3420 C   0  0  0  0  0  0  0  0  0  0  0  0
   -7.3310   23.6930  -31.5600 C   0  0  0  0  0  0  0  0  0  0  0  0
   -0.8810   21.8460  -27.9060 C   0  0  0  0  0  0  0  0  0  0  0  0
   -1.0980   20.5190  -27.5060 C   0  0  0  0  0  0  0  0  0  0  0  0
   -2.6317   18.6184  -25.7111 H   0  0  0  0  0  0  0  0  0  0  0  0
   -3.5968   18.2702  -27.1856 H   0  0  0  0  0  0  0  0  0  0  0  0
   -1.8230   17.9869  -27.1856 H   0  0  0  0  0  0  0  0  0  0  0  0
   -4.5142   20.5653  -27.2753 H   0  0  0  0  0  0  0  0  0  0  0  0
   -4.1311   22.9168  -28.0282 H   0  0  0  0  0  0  0  0  0  0  0  0
   -5.5962   25.3481  -30.1877 H   0  0  0  0  0  0  0  0  0  0  0  0
   -3.3083   21.4183  -32.2665 H   0  0  0  0  0  0  0  0  0  0  0  0
   -1.1170   23.7000  -30.4480 H   0  0  0  0  0  0  0  0  0  0  0  0
   -6.2921   21.8068  -33.6699 H   0  0  0  0  0  0  0  0  0  0  0  0
   -5.4977   20.4792  -32.7665 H   0  0  0  0  0  0  0  0  0  0  0  0
   -7.3037   19.1983  -34.2055 H   0  0  0  0  0  0  0  0  0  0  0  0
   -6.0630   17.2096  -35.0598 H   0  0  0  0  0  0  0  0  0  0  0  0
   -2.5944   15.9858  -34.2004 H   0  0  0  0  0  0  0  0  0  0  0  0
   -3.1123   14.7751  -35.4222 H   0  0  0  0  0  0  0  0  0  0  0  0
   -3.8381   16.4182  -35.4222 H   0  0  0  0  0  0  0  0  0  0  0  0
   -5.3427   15.9108  -30.9942 H   0  0  0  0  0  0  0  0  0  0  0  0
   -6.5933   17.8878  -30.1381 H   0  0  0  0  0  0  0  0  0  0  0  0
   -9.0311   22.3834  -31.8257 H   0  0  0  0  0  0  0  0  0  0  0  0
   -8.1310   22.1827  -30.2572 H   0  0  0  0  0  0  0  0  0  0  0  0
   -7.5272   24.0456  -32.5833 H   0  0  0  0  0  0  0  0  0  0  0  0
   -7.7139   24.4211  -30.8298 H   0  0  0  0  0  0  0  0  0  0  0  0
    0.1440   22.2056  -28.0793 H   0  0  0  0  0  0  0  0  0  0  0  0
   -0.2407   19.8455  -27.3595 H   0  0  0  0  0  0  0  0  0  0  0  0
  1  2  1  0
  2  3  2  0
  3  4  1  0
  4  5  2  0
  5  6  1  0
  6  7  2  0
  6  8  2  0
  6  9  1  0
  9 10  1  0
 10 11  2  0
 11 12  1  0
 12 13  2  0
 13 14  1  0
 14 15  2  0
 15 16  1  0
 13 17  1  0
 17 18  1  0
 18 19  1  0
 19 20  2  0
 19 21  1  0
 21 22  2  0
 22 23  1  0
 23 24  2  0
 24 25  1  0
 25 26  1  0
 25 27  2  0
 25 28  2  0
 24 29  1  0
 29 30  2  0
 18 31  1  0
 31 32  1  0
  5 33  1  0
 33 34  2  0
 34  2  1  0
 15 10  1  0
 30 21  1  0
 32 12  1  0
  1 35  1  0
  1 36  1  0
  1 37  1  0
  3 38  1  0
  4 39  1  0
 11 40  1  0
 14 41  1  0
 16 42  1  0
 17 43  1  0
 17 44  1  0
 22 45  1  0
 23 46  1  0
 26 47  1  0
 26 48  1  0
 26 49  1  0
 29 50  1  0
 30 51  1  0
 31 52  1  0
 31 53  1  0
 32 54  1  0
 32 55  1  0
 33 56  1  0
 34 57  1  0
M  CHG  1   9  -1
M  END
>  <UniqueID>  (9) 
9

>  <SMILES>  (9) 
Cc1ccc(S(=O)(=O)[N-]c2cc3c(cc2O)CN(C(=O)c2ccc(S(C)(=O)=O)cc2)CC3)cc1

>  <Energy>  (9) 
69.20310706907695

>  <Genealogy>  (9) 
Cc1ccc(S(=O)(=O)[N-]c2cc3c(cc2O)CN(C(=O)c2ccc(S(C)(=O)=O)cc2)CC3)cc1 (protonated)
Cc1ccc(S(=O)(=O)[N-]c2cc3c(cc2O)CN(C(=O)c2ccc(S(C)(=O)=O)cc2)CC3)cc1 (3D coordinates assigned)
Cc1ccc(S(=O)(=O)[N-]c2cc3c(cc2O)CN(C(=O)c2ccc(S(C)(=O)=O)cc2)CC3)cc1 (nonaromatic ring conformer: 69.20310706907695 kcal/mol)

>  <smiles>  (9) 
Cc1ccc(S(=O)(=O)Nc2cc3c(cc2O)CN(C(=O)c2ccc(S(C)(=O)=O)cc2)CC3)cc1

>  <score_type>  (9) 
oracle

>  <origin>  (9) 
adgpu

>  <m_score__min__energy>  (9) 
-11.51

>  <m_primary>  (9) 
energy

$$$$
9:0
     RDKit          3D

 42 45  0  0  0  0  0  0  0  0999 V2000
   -6.0890   25.8130  -29.1570 N   0  0  0  0  0  0  0  0  0  0  0  0
   -6.1260   24.5810  -29.8910 C   0  0  0  0  0  0  0  0  0  0  0  0
   -7.2570   24.2760  -30.6580 C   0  0  0  0  0  0  0  0  0  0  0  0
   -7.3200   23.0880  -31.3850 C   0  0  0  0  0  0  0  0  0  0  0  0
   -6.2370   22.1960  -31.3500 C   0  0  0  0  0  0  0  0  0  0  0  0
   -6.2520   20.9150  -32.1020 C   0  0  0  0  0  0  0  0  0  0  0  0
   -7.4490   20.1960  -32.3060 C   0  0  0  0  0  0  0  0  0  0  0  0
   -7.4440   18.9930  -33.0200 C   0  0  0  0  0  0  0  0  0  0  0  0
   -6.2480   18.4970  -33.5400 C   0  0  0  0  0  0  0  0  0  0  0  0
   -5.0590   19.2200  -33.3790 C   0  0  0  0  0  0  0  0  0  0  0  0
   -5.0580   20.4160  -32.6550 C   0  0  0  0  0  0  0  0  0  0  0  0
   -3.8820   18.7280  -33.9510 O   0  0  0  0  0  0  0  0  0  0  0  0
   -3.9140   17.6700  -34.9120 C   0  0  0  0  0  0  0  0  0  0  0  0
   -4.9770   16.6330  -34.5260 C   0  0  0  0  0  0  0  0  0  0  0  0
   -6.2160   17.2800  -34.2290 O   0  0  0  0  0  0  0  0  0  0  0  0
   -5.1520   22.5090  -30.5890 N   0  0  0  0  0  0  0  0  0  0  0  0
   -5.0590   23.6570  -29.8670 C   0  0  0  0  0  0  0  0  0  0  0  0
   -3.5840   23.9390  -28.9440 S   0  0  0  0  0  0  0  0  0  0  0  0
   -3.9350   24.5150  -27.6000 O   0  0  0  0  0  0  0  0  0  0  0  0
   -2.7270   24.9280  -29.6840 O   0  0  0  0  0  0  0  0  0  0  0  0
   -2.7220   22.4230  -28.6990 C   0  0  0  0  0  0  0  0  0  0  0  0
   -2.8280   21.7310  -27.4830 C   0  0  0  0  0  0  0  0  0  0  0  0
   -2.1380   20.5300  -27.2960 C   0  0  0  0  0  0  0  0  0  0  0  0
   -1.3410   20.0140  -28.3210 C   0  0  0  0  0  0  0  0  0  0  0  0
   -1.2360   20.6960  -29.5370 C   0  0  0  0  0  0  0  0  0  0  0  0
   -1.9260   21.8980  -29.7270 C   0  0  0  0  0  0  0  0  0  0  0  0
   -6.7530   26.5940  -29.3410 H   0  0  0  0  0  0  0  0  0  0  0  0
   -5.3780   25.9590  -28.4070 H   0  0  0  0  0  0  0  0  0  0  0  0
   -8.1024   24.9792  -30.6872 H   0  0  0  0  0  0  0  0  0  0  0  0
   -8.2129   22.8513  -31.9823 H   0  0  0  0  0  0  0  0  0  0  0  0
   -8.3944   20.5849  -31.9000 H   0  0  0  0  0  0  0  0  0  0  0  0
   -8.3820   18.4387  -33.1713 H   0  0  0  0  0  0  0  0  0  0  0  0
   -4.1181   20.9704  -32.5167 H   0  0  0  0  0  0  0  0  0  0  0  0
   -4.1548   18.0856  -35.9016 H   0  0  0  0  0  0  0  0  0  0  0  0
   -2.9293   17.1805  -34.9387 H   0  0  0  0  0  0  0  0  0  0  0  0
   -5.1237   15.9348  -35.3633 H   0  0  0  0  0  0  0  0  0  0  0  0
   -4.6362   16.0860  -33.6346 H   0  0  0  0  0  0  0  0  0  0  0  0
   -3.4557   22.1347  -26.6749 H   0  0  0  0  0  0  0  0  0  0  0  0
   -2.2225   19.9906  -26.3411 H   0  0  0  0  0  0  0  0  0  0  0  0
   -0.7957   19.0705  -28.1712 H   0  0  0  0  0  0  0  0  0  0  0  0
   -0.6107   20.2873  -30.3445 H   0  0  0  0  0  0  0  0  0  0  0  0
   -1.8439   22.4324  -30.6849 H   0  0  0  0  0  0  0  0  0  0  0  0
  1  2  1  0
  2  3  2  0
  3  4  1  0
  4  5  2  0
  5  6  1  0
  6  7  2  0
  7  8  1  0
  8  9  2  0
  9 10  1  0
 10 11  2  0
 10 12  1  0
 12 13  1  0
 13 14  1  0
 14 15  1  0
  5 16  1  0
 16 17  2  0
 17 18  1  0
 18 19  2  0
 18 20  2  0
 18 21  1  0
 21 22  2  0
 22 23  1  0
 23 24  2  0
 24 25  1  0
 25 26  2  0
 17  2  1  0
 26 21  1  0
 11  6  1  0
 15  9  1  0
  1 27  1  0
  1 28  1  0
  3 29  1  0
  4 30  1  0
  7 31  1  0
  8 32  1  0
 11 33  1  0
 13 34  1  0
 13 35  1  0
 14 36  1  0
 14 37  1  0
 22 38  1  0
 23 39  1  0
 24 40  1  0
 25 41  1  0
 26 42  1  0
M  END
>  <UniqueID>  (10) 
10

>  <SMILES>  (10) 
Nc1ccc(-c2ccc3c(c2)OCCO3)nc1S(=O)(=O)c1ccccc1

>  <Energy>  (10) 
54.0464520948407

>  <Genealogy>  (10) 
Nc1ccc(-c2ccc3c(c2)OCCO3)nc1S(=O)(=O)c1ccccc1 (3D coordinates assigned)
Nc1ccc(-c2ccc3c(c2)OCCO3)nc1S(=O)(=O)c1ccccc1 (nonaromatic ring conformer: 54.0464520948407 kcal/mol)

>  <smiles>  (10) 
Nc1ccc(-c2ccc3c(c2)OCCO3)nc1S(=O)(=O)c1ccccc1

>  <score_type>  (10) 
oracle

>  <origin>  (10) 
adgpu

>  <m_score__min__energy>  (10) 
-8.8599999999999994

>  <m_primary>  (10) 
energy

$$$$
10:0
     RDKit          3D

 44 46  0  0  0  0  0  0  0  0999 V2000
   -2.9320   21.6900  -32.1920 C   0  0  0  0  0  0  0  0  0  0  0  0
   -3.2680   22.9920  -31.7240 O   0  0  0  0  0  0  0  0  0  0  0  0
   -4.5330   23.3660  -31.2410 C   0  0  0  0  0  0  0  0  0  0  0  0
   -5.6950   22.6440  -31.5750 C   0  0  0  0  0  0  0  0  0  0  0  0
   -6.9390   23.0130  -31.0470 C   0  0  0  0  0  0  0  0  0  0  0  0
   -8.4000   22.1460  -31.5180 S   0  0  0  0  0  0  0  0  0  0  0  0
   -9.1390   21.6870  -30.2900 O   0  0  0  0  0  0  0  0  0  0  0  0
   -9.2890   23.0770  -32.2920 O   0  0  0  0  0  0  0  0  0  0  0  0
   -7.9810   20.7720  -32.5130 N   0  0  0  0  0  0  0  0  0  0  0  0
   -6.7900   20.0910  -31.9560 C   0  0  0  0  0  0  0  0  0  0  0  0
   -6.6550   18.6650  -32.4980 C   0  0  0  0  0  0  0  0  0  0  0  0
   -7.8620   17.8010  -32.0910 C   0  0  0  0  0  0  0  0  0  0  0  0
   -9.1300   18.6340  -31.8380 C   0  0  0  0  0  0  0  0  0  0  0  0
   -9.1550   19.8880  -32.7230 C   0  0  0  0  0  0  0  0  0  0  0  0
   -7.0250   24.1010  -30.1740 C   0  0  0  0  0  0  0  0  0  0  0  0
   -5.8810   24.8240  -29.8380 C   0  0  0  0  0  0  0  0  0  0  0  0
   -4.6400   24.4870  -30.3890 C   0  0  0  0  0  0  0  0  0  0  0  0
   -3.4990   25.2830  -30.0410 N   0  0  0  0  0  0  0  0  0  0  0  0
   -2.3920   24.8630  -29.2320 C   0  0  0  0  0  0  0  0  0  0  0  0
   -1.4940   25.7000  -28.9530 O   0  0  0  0  0  0  0  0  0  0  0  0
   -2.2490   23.4700  -28.7600 C   0  0  0  0  0  0  0  0  0  0  0  0
   -3.1500   22.8010  -27.9380 C   0  0  0  0  0  0  0  0  0  0  0  0
   -2.7480   21.4970  -27.6210 C   0  0  0  0  0  0  0  0  0  0  0  0
   -1.5290   21.1370  -28.1770 C   0  0  0  0  0  0  0  0  0  0  0  0
   -0.9500   22.4410  -29.0630 S   0  0  0  0  0  0  0  0  0  0  0  0
   -2.7603   21.0246  -31.3331 H   0  0  0  0  0  0  0  0  0  0  0  0
   -3.7577   21.2953  -32.8023 H   0  0  0  0  0  0  0  0  0  0  0  0
   -2.0184   21.7442  -32.8023 H   0  0  0  0  0  0  0  0  0  0  0  0
   -5.6253   21.7831  -32.2562 H   0  0  0  0  0  0  0  0  0  0  0  0
   -5.8909   20.6635  -32.2279 H   0  0  0  0  0  0  0  0  0  0  0  0
   -6.9031   20.0359  -30.8632 H   0  0  0  0  0  0  0  0  0  0  0  0
   -6.5936   18.7022  -33.5957 H   0  0  0  0  0  0  0  0  0  0  0  0
   -5.7447   18.2151  -32.0749 H   0  0  0  0  0  0  0  0  0  0  0  0
   -8.0683   17.0823  -32.8978 H   0  0  0  0  0  0  0  0  0  0  0  0
   -7.6048   17.2932  -31.1497 H   0  0  0  0  0  0  0  0  0  0  0  0
  -10.0141   18.0190  -32.0618 H   0  0  0  0  0  0  0  0  0  0  0  0
   -9.1349   18.9505  -30.7845 H   0  0  0  0  0  0  0  0  0  0  0  0
   -9.1719   19.5727  -33.7767 H   0  0  0  0  0  0  0  0  0  0  0  0
  -10.0521   20.4637  -32.4512 H   0  0  0  0  0  0  0  0  0  0  0  0
   -7.9987   24.3880  -29.7504 H   0  0  0  0  0  0  0  0  0  0  0  0
   -5.9549   25.6660  -29.1341 H   0  0  0  0  0  0  0  0  0  0  0  0
   -4.0851   23.2511  -27.5732 H   0  0  0  0  0  0  0  0  0  0  0  0
   -3.3437   20.8212  -26.9898 H   0  0  0  0  0  0  0  0  0  0  0  0
   -1.0280   20.1650  -28.0580 H   0  0  0  0  0  0  0  0  0  0  0  0
  1  2  1  0
  2  3  1  0
  3  4  2  0
  4  5  1  0
  5  6  1  0
  6  7  2  0
  6  8  2  0
  6  9  1  0
  9 10  1  0
 10 11  1  0
 11 12  1  0
 12 13  1  0
 13 14  1  0
  5 15  2  0
 15 16  1  0
 16 17  2  0
 17 18  1  0
 18 19  1  0
 19 20  2  0
 19 21  1  0
 21 22  2  0
 22 23  1  0
 23 24  2  0
 24 25  1  0
 17  3  1  0
 25 21  1  0
 14  9  1  0
  1 26  1  0
  1 27  1  0
  1 28  1  0
  4 29  1  0
 10 30  1  0
 10 31  1  0
 11 32  1  0
 11 33  1  0
 12 34  1  0
 12 35  1  0
 13 36  1  0
 13 37  1  0
 14 38  1  0
 14 39  1  0
 15 40  1  0
 16 41  1  0
 22 42  1  0
 23 43  1  0
 24 44  1  0
M  CHG  1  18  -1
M  END
>  <UniqueID>  (11) 
11

>  <SMILES>  (11) 
COc1cc(S(=O)(=O)N2CCCCC2)ccc1[N-]C(=O)c1cccs1

>  <Energy>  (11) 
81.19053150162307

>  <Genealogy>  (11) 
COc1cc(S(=O)(=O)N2CCCCC2)ccc1[N-]C(=O)c1cccs1 (protonated)
COc1cc(S(=O)(=O)N2CCCCC2)ccc1[N-]C(=O)c1cccs1 (3D coordinates assigned)
COc1cc(S(=O)(=O)N2CCCCC2)ccc1[N-]C(=O)c1cccs1 (nonaromatic ring conformer: 81.19053150162307 kcal/mol)

>  <smiles>  (11) 
COc1cc(S(=O)(=O)N2CCCCC2)ccc1NC(=O)c1cccs1

>  <score_type>  (11) 
oracle

>  <origin>  (11) 
adgpu

>  <m_score__min__energy>  (11) 
-11.34

>  <m_primary>  (11) 
energy

$$$$
11:0
     RDKit          3D

 63 67  0  0  0  0  0  0  0  0999 V2000
   -2.9210   19.8840  -33.0650 C   0  0  0  0  0  0  0  0  0  0  0  0
   -4.4010   19.7680  -32.9450 C   0  0  0  0  0  0  0  0  0  0  0  0
   -5.1180   19.6900  -31.7700 C   0  0  0  0  0  0  0  0  0  0  0  0
   -6.4230   19.5630  -32.2060 C   0  0  0  0  0  0  0  0  0  0  0  0
   -7.6210   19.3560  -31.3350 C   0  0  0  0  0  0  0  0  0  0  0  0
   -8.7490   20.1550  -31.8340 N   0  0  0  0  0  0  0  0  0  0  0  0
   -9.4950   19.6790  -33.0060 C   0  0  0  0  0  0  0  0  0  0  0  0
   -9.0200   21.4520  -31.2530 C   0  0  0  0  0  0  0  0  0  0  0  0
   -9.4940   21.5240  -30.0860 O   0  0  0  0  0  0  0  0  0  0  0  0
   -8.6690   22.7350  -31.9690 C   0  0  0  0  0  0  0  0  0  0  0  0
   -7.3090   23.2380  -31.5610 C   0  0  0  0  0  0  0  0  0  0  0  0
   -7.1910   24.2060  -30.5500 C   0  0  0  0  0  0  0  0  0  0  0  0
   -5.9320   24.6950  -30.1850 C   0  0  0  0  0  0  0  0  0  0  0  0
   -4.7800   24.2320  -30.8320 C   0  0  0  0  0  0  0  0  0  0  0  0
   -3.5150   24.7900  -30.4630 N   0  0  0  0  0  0  0  0  0  0  0  0
   -2.7430   24.5920  -28.9150 S   0  0  0  0  0  0  0  0  0  0  0  0
   -1.6100   25.5770  -28.8030 O   0  0  0  0  0  0  0  0  0  0  0  0
   -3.7510   24.8860  -27.8330 O   0  0  0  0  0  0  0  0  0  0  0  0
   -2.0890   22.9690  -28.6840 C   0  0  0  0  0  0  0  0  0  0  0  0
   -0.8370   22.6210  -29.2340 C   0  0  0  0  0  0  0  0  0  0  0  0
   -0.3030   21.3410  -29.0310 C   0  0  0  0  0  0  0  0  0  0  0  0
   -1.0460   20.4080  -28.2950 C   0  0  0  0  0  0  0  0  0  0  0  0
   -2.2450   20.7600  -27.7330 C   0  0  0  0  0  0  0  0  0  0  0  0
   -2.8010   22.0260  -27.9220 C   0  0  0  0  0  0  0  0  0  0  0  0
   -2.7770   19.6570  -26.8890 C   0  0  0  0  0  0  0  0  0  0  0  0
   -1.6830   18.5690  -26.9910 C   0  0  0  0  0  0  0  0  0  0  0  0
   -0.6740   19.0840  -27.9220 N   0  0  0  0  0  0  0  0  0  0  0  0
    0.3750   18.2520  -28.4590 C   0  0  0  0  0  0  0  0  0  0  0  0
    1.3640   17.9710  -27.7260 O   0  0  0  0  0  0  0  0  0  0  0  0
    0.2760   17.6460  -29.8380 C   0  0  0  0  0  0  0  0  0  0  0  0
    1.2790   18.1310  -30.8820 C   0  0  0  0  0  0  0  0  0  0  0  0
   -0.1540   18.6280  -30.9150 C   0  0  0  0  0  0  0  0  0  0  0  0
   -4.8890   23.2120  -31.7910 C   0  0  0  0  0  0  0  0  0  0  0  0
   -6.1470   22.7270  -32.1630 C   0  0  0  0  0  0  0  0  0  0  0  0
   -6.4580   19.5570  -33.5550 N   0  0  0  0  0  0  0  0  0  0  0  0
   -5.2290   19.6860  -33.9620 O   0  0  0  0  0  0  0  0  0  0  0  0
   -2.4733   19.9191  -32.0608 H   0  0  0  0  0  0  0  0  0  0  0  0
   -2.5281   19.0139  -33.6114 H   0  0  0  0  0  0  0  0  0  0  0  0
   -2.6685   20.8047  -33.6114 H   0  0  0  0  0  0  0  0  0  0  0  0
   -4.7424   19.7213  -30.7366 H   0  0  0  0  0  0  0  0  0  0  0  0
   -7.8972   18.2913  -31.3424 H   0  0  0  0  0  0  0  0  0  0  0  0
   -7.3806   19.6718  -30.3091 H   0  0  0  0  0  0  0  0  0  0  0  0
  -10.3790   19.1150  -32.6737 H   0  0  0  0  0  0  0  0  0  0  0  0
   -9.8155   20.5399  -33.6111 H   0  0  0  0  0  0  0  0  0  0  0  0
   -8.8493   19.0256  -33.6111 H   0  0  0  0  0  0  0  0  0  0  0  0
   -8.6722   22.5519  -33.0537 H   0  0  0  0  0  0  0  0  0  0  0  0
   -9.4151   23.4970  -31.6994 H   0  0  0  0  0  0  0  0  0  0  0  0
   -8.0923   24.5812  -30.0431 H   0  0  0  0  0  0  0  0  0  0  0  0
   -5.8469   25.4465  -29.3862 H   0  0  0  0  0  0  0  0  0  0  0  0
   -0.2762   23.3592  -29.8261 H   0  0  0  0  0  0  0  0  0  0  0  0
    0.6816   21.0736  -29.4420 H   0  0  0  0  0  0  0  0  0  0  0  0
   -3.7770   22.2811  -27.4835 H   0  0  0  0  0  0  0  0  0  0  0  0
   -2.9088   19.9864  -25.8478 H   0  0  0  0  0  0  0  0  0  0  0  0
   -3.7660   19.3040  -27.2165 H   0  0  0  0  0  0  0  0  0  0  0  0
   -1.2329   18.3881  -26.0037 H   0  0  0  0  0  0  0  0  0  0  0  0
   -2.1009   17.6144  -27.3432 H   0  0  0  0  0  0  0  0  0  0  0  0
   -0.0437   16.6528  -29.4896 H   0  0  0  0  0  0  0  0  0  0  0  0
    2.0913   18.8127  -30.5897 H   0  0  0  0  0  0  0  0  0  0  0  0
    1.9499   17.6415  -31.6032 H   0  0  0  0  0  0  0  0  0  0  0  0
   -0.3796   19.6711  -30.6484 H   0  0  0  0  0  0  0  0  0  0  0  0
   -0.9508   18.6479  -31.6731 H   0  0  0  0  0  0  0  0  0  0  0  0
   -3.9820   22.7931  -32.2512 H   0  0  0  0  0  0  0  0  0  0  0  0
   -6.2269   21.9424  -32.9299 H   0  0  0  0  0  0  0  0  0  0  0  0
  1  2  1  0
  2  3  2  0
  3  4  1  0
  4  5  1  0
  5  6  1  0
  6  7  1  0
  6  8  1  0
  8  9  2  0
  8 10  1  0
 10 11  1  0
 11 12  2  0
 12 13  1  0
 13 14  2  0
 14 15  1  0
 15 16  1  0
 16 17  2  0
 16 18  2  0
 16 19  1  0
 19 20  2  0
 20 21  1  0
 21 22  2  0
 22 23  1  0
 23 24  2  0
 23 25  1  0
 25 26  1  0
 26 27  1  0
 27 28  1  0
 28 29  2  0
 28 30  1  0
 30 31  1  0
 31 32  1  0
 14 33  1  0
 33 34  2  0
  4 35  2  0
 35 36  1  0
 36  2  1  0
 34 11  1  0
 24 19  1  0
 32 30  1  0
 27 22  1  0
  1 37  1  0
  1 38  1  0
  1 39  1  0
  3 40  1  0
  5 41  1  0
  5 42  1  0
  7 43  1  0
  7 44  1  0
  7 45  1  0
 10 46  1  0
 10 47  1  0
 12 48  1  0
 13 49  1  0
 20 50  1  0
 21 51  1  0
 24 52  1  0
 25 53  1  0
 25 54  1  0
 26 55  1  0
 26 56  1  0
 30 57  1  0
 31 58  1  0
 31 59  1  0
 32 60  1  0
 32 61  1  0
 33 62  1  0
 34 63  1  0
M  CHG  1  15  -1
M  END
>  <UniqueID>  (12) 
12

>  <SMILES>  (12) 
Cc1cc(CN(C)C(=O)Cc2ccc([N-]S(=O)(=O)c3ccc4c(c3)CCN4C(=O)C3CC3)cc2)no1

>  <Energy>  (12) 
382.85963807409325

>  <Genealogy>  (12) 
Cc1cc(CN(C)C(=O)Cc2ccc([N-]S(=O)(=O)c3ccc4c(c3)CCN4C(=O)C3CC3)cc2)no1 (protonated)
Cc1cc(CN(C)C(=O)Cc2ccc([N-]S(=O)(=O)c3ccc4c(c3)CCN4C(=O)C3CC3)cc2)no1 (3D coordinates assigned)
Cc1cc(CN(C)C(=O)Cc2ccc([N-]S(=O)(=O)c3ccc4c(c3)CCN4C(=O)C3CC3)cc2)no1 (nonaromatic ring conformer: 382.85963807409325 kcal/mol)

>  <smiles>  (12) 
Cc1cc(CN(C)C(=O)Cc2ccc(NS(=O)(=O)c3ccc4c(c3)CCN4C(=O)C3CC3)cc2)no1

>  <score_type>  (12) 
oracle

>  <origin>  (12) 
adgpu

>  <m_score__min__energy>  (12) 
-12.42

>  <m_primary>  (12) 
energy

$$$$
12:0
     RDKit          3D

 49 51  0  0  0  0  0  0  0  0999 V2000
   -1.6760   20.8150  -28.4140 C   0  0  0  0  0  0  0  0  0  0  0  0
   -2.1870   22.1170  -27.7840 C   0  0  0  0  0  0  0  0  0  0  0  0
   -3.7320   22.1700  -27.8390 C   0  0  0  0  0  0  0  0  0  0  0  0
   -4.2350   23.6160  -27.7320 C   0  0  0  0  0  0  0  0  0  0  0  0
   -3.7220   24.4910  -28.8180 N   0  0  0  0  0  0  0  0  0  0  0  0
   -4.9480   24.7740  -30.0300 S   0  0  0  0  0  0  0  0  0  0  0  0
   -4.3320   25.4710  -31.2130 O   0  0  0  0  0  0  0  0  0  0  0  0
   -6.0400   25.6380  -29.4640 O   0  0  0  0  0  0  0  0  0  0  0  0
   -5.6470   23.2380  -30.5320 C   0  0  0  0  0  0  0  0  0  0  0  0
   -7.0370   23.0800  -30.6190 C   0  0  0  0  0  0  0  0  0  0  0  0
   -7.5820   21.8580  -31.0240 C   0  0  0  0  0  0  0  0  0  0  0  0
   -6.7420   20.7830  -31.3420 C   0  0  0  0  0  0  0  0  0  0  0  0
   -7.4460   19.2450  -31.8380 S   0  0  0  0  0  0  0  0  0  0  0  0
   -8.9320   19.2580  -31.6050 O   0  0  0  0  0  0  0  0  0  0  0  0
   -6.8370   18.1520  -31.0040 O   0  0  0  0  0  0  0  0  0  0  0  0
   -7.1080   18.9570  -33.5310 N   0  0  0  0  0  0  0  0  0  0  0  0
   -6.8460   17.5350  -33.7860 C   0  0  0  0  0  0  0  0  0  0  0  0
   -5.3410   17.3220  -33.7090 C   0  0  0  0  0  0  0  0  0  0  0  0
   -4.7240   18.7050  -33.8190 C   0  0  0  0  0  0  0  0  0  0  0  0
   -5.8960   19.6690  -33.9550 C   0  0  0  0  0  0  0  0  0  0  0  0
   -5.3520   20.9380  -31.2460 C   0  0  0  0  0  0  0  0  0  0  0  0
   -4.8080   22.1610  -30.8420 C   0  0  0  0  0  0  0  0  0  0  0  0
   -2.4820   24.0060  -29.4660 C   0  0  0  0  0  0  0  0  0  0  0  0
   -1.5380   23.3580  -28.4490 C   0  0  0  0  0  0  0  0  0  0  0  0
   -1.3983   20.1073  -27.6190 H   0  0  0  0  0  0  0  0  0  0  0  0
   -2.4677   20.3739  -29.0374 H   0  0  0  0  0  0  0  0  0  0  0  0
   -0.7956   21.0302  -29.0374 H   0  0  0  0  0  0  0  0  0  0  0  0
   -1.8882   22.1339  -26.7255 H   0  0  0  0  0  0  0  0  0  0  0  0
   -4.0733   21.7396  -28.7920 H   0  0  0  0  0  0  0  0  0  0  0  0
   -4.1336   21.5948  -26.9917 H   0  0  0  0  0  0  0  0  0  0  0  0
   -5.3341   23.6091  -27.7771 H   0  0  0  0  0  0  0  0  0  0  0  0
   -3.8657   24.0232  -26.7792 H   0  0  0  0  0  0  0  0  0  0  0  0
   -7.7011   23.9202  -30.3678 H   0  0  0  0  0  0  0  0  0  0  0  0
   -8.6735   21.7403  -31.0932 H   0  0  0  0  0  0  0  0  0  0  0  0
   -7.9320   19.2800  -34.0930 H   0  0  0  0  0  0  0  0  0  0  0  0
   -7.3511   16.9189  -33.0275 H   0  0  0  0  0  0  0  0  0  0  0  0
   -7.2266   17.2441  -34.7762 H   0  0  0  0  0  0  0  0  0  0  0  0
   -5.0682   16.8555  -32.7509 H   0  0  0  0  0  0  0  0  0  0  0  0
   -4.9843   16.6537  -34.5066 H   0  0  0  0  0  0  0  0  0  0  0  0
   -4.1391   18.9370  -32.9167 H   0  0  0  0  0  0  0  0  0  0  0  0
   -4.0376   18.7766  -34.6755 H   0  0  0  0  0  0  0  0  0  0  0  0
   -5.7344   20.5487  -33.3146 H   0  0  0  0  0  0  0  0  0  0  0  0
   -5.9942   20.0134  -34.9951 H   0  0  0  0  0  0  0  0  0  0  0  0
   -4.6878   20.0955  -31.4891 H   0  0  0  0  0  0  0  0  0  0  0  0
   -3.7167   22.2774  -30.7675 H   0  0  0  0  0  0  0  0  0  0  0  0
   -2.7459   23.2634  -30.2334 H   0  0  0  0  0  0  0  0  0  0  0  0
   -1.9672   24.8669  -29.9173 H   0  0  0  0  0  0  0  0  0  0  0  0
   -0.6167   23.0474  -28.9635 H   0  0  0  0  0  0  0  0  0  0  0  0
   -1.3173   24.0955  -27.6633 H   0  0  0  0  0  0  0  0  0  0  0  0
  1  2  1  0
  2  3  1  0
  3  4  1  0
  4  5  1  0
  5  6  1  0
  6  7  2  0
  6  8  2  0
  6  9  1  0
  9 10  2  0
 10 11  1  0
 11 12  2  0
 12 13  1  0
 13 14  2  0
 13 15  2  0
 13 16  1  0
 16 17  1  0
 17 18  1  0
 18 19  1  0
 19 20  1  0
 12 21  1  0
 21 22  2  0
  5 23  1  0
 23 24  1  0
 24  2  1  0
 22  9  1  0
 20 16  1  0
  1 25  1  0
  1 26  1  0
  1 27  1  0
  2 28  1  0
  3 29  1  0
  3 30  1  0
  4 31  1  0
  4 32  1  0
 10 33  1  0
 11 34  1  0
 16 35  1  0
 17 36  1  0
 17 37  1  0
 18 38  1  0
 18 39  1  0
 19 40  1  0
 19 41  1  0
 20 42  1  0
 20 43  1  0
 21 44  1  0
 22 45  1  0
 23 46  1  0
 23 47  1  0
 24 48  1  0
 24 49  1  0
M  CHG  1  16   1
M  END
>  <UniqueID>  (13) 
13

>  <SMILES>  (13) 
CC1CCN(S(=O)(=O)c2ccc(S(=O)(=O)[NH+]3CCCC3)cc2)CC1

>  <Energy>  (13) 
53.97777593428173

>  <Genealogy>  (13) 
CC1CCN(S(=O)(=O)c2ccc(S(=O)(=O)[NH+]3CCCC3)cc2)CC1 (protonated)
CC1CCN(S(=O)(=O)c2ccc(S(=O)(=O)[NH+]3CCCC3)cc2)CC1 (3D coordinates assigned)
CC1CCN(S(=O)(=O)c2ccc(S(=O)(=O)[NH+]3CCCC3)cc2)CC1 (nonaromatic ring conformer: 53.97777593428173 kcal/mol)

>  <smiles>  (13) 
CC1CCN(S(=O)(=O)c2ccc(S(=O)(=O)N3CCCC3)cc2)CC1

>  <score_type>  (13) 
oracle

>  <origin>  (13) 
adgpu

>  <m_score__min__energy>  (13) 
-9.1699999999999999

>  <m_primary>  (13) 
energy

$$$$
13:0
     RDKit          3D

 46 48  0  0  0  0  0  0  0  0999 V2000
   -5.1350   21.3050  -33.0180 O   0  0  0  0  0  0  0  0  0  0  0  0
   -4.0020   21.6470  -32.5720 C   0  0  0  0  0  0  0  0  0  0  0  0
   -2.7800   20.8780  -32.9860 C   0  0  0  0  0  0  0  0  0  0  0  0
   -1.9300   20.4580  -31.7800 C   0  0  0  0  0  0  0  0  0  0  0  0
   -1.8890   21.5270  -30.7580 N   0  0  0  0  0  0  0  0  0  0  0  0
   -0.4940   21.9310  -30.4400 C   0  0  0  0  0  0  0  0  0  0  0  0
   -0.3300   22.5730  -29.0430 C   0  0  0  0  0  0  0  0  0  0  0  0
   -1.5960   23.1250  -28.5390 N   0  0  0  0  0  0  0  0  0  0  0  0
   -1.5880   24.2920  -27.6920 C   0  0  0  0  0  0  0  0  0  0  0  0
   -0.5620   25.2470  -27.8040 C   0  0  0  0  0  0  0  0  0  0  0  0
   -0.5600   26.3800  -26.9850 C   0  0  0  0  0  0  0  0  0  0  0  0
   -1.5790   26.5710  -26.0470 C   0  0  0  0  0  0  0  0  0  0  0  0
   -2.5980   25.6290  -25.9250 C   0  0  0  0  0  0  0  0  0  0  0  0
   -2.6070   24.4940  -26.7410 C   0  0  0  0  0  0  0  0  0  0  0  0
   -2.8320   22.3390  -28.6610 C   0  0  0  0  0  0  0  0  0  0  0  0
   -2.6170   21.1120  -29.5460 C   0  0  0  0  0  0  0  0  0  0  0  0
   -3.8640   22.8230  -31.7570 N   0  0  0  0  0  0  0  0  0  0  0  0
   -4.9810   23.5360  -31.2010 C   0  0  0  0  0  0  0  0  0  0  0  0
   -6.2820   23.0080  -31.2650 C   0  0  0  0  0  0  0  0  0  0  0  0
   -7.3550   23.6990  -30.6970 C   0  0  0  0  0  0  0  0  0  0  0  0
   -7.1360   24.9230  -30.0440 C   0  0  0  0  0  0  0  0  0  0  0  0
   -5.8460   25.4500  -29.9680 C   0  0  0  0  0  0  0  0  0  0  0  0
   -4.7700   24.7570  -30.5410 C   0  0  0  0  0  0  0  0  0  0  0  0
   -3.4930   25.3000  -30.4600 O   0  0  0  0  0  0  0  0  0  0  0  0
   -3.0956   19.9754  -33.5298 H   0  0  0  0  0  0  0  0  0  0  0  0
   -2.1665   21.5319  -33.6232 H   0  0  0  0  0  0  0  0  0  0  0  0
   -2.3635   19.5509  -31.3336 H   0  0  0  0  0  0  0  0  0  0  0  0
   -0.9036   20.2666  -32.1262 H   0  0  0  0  0  0  0  0  0  0  0  0
    0.1447   21.0367  -30.4872 H   0  0  0  0  0  0  0  0  0  0  0  0
   -0.2070   22.6948  -31.1778 H   0  0  0  0  0  0  0  0  0  0  0  0
    0.0284   21.8068  -28.3398 H   0  0  0  0  0  0  0  0  0  0  0  0
    0.3902   23.3998  -29.1312 H   0  0  0  0  0  0  0  0  0  0  0  0
    0.2429   25.1019  -28.5396 H   0  0  0  0  0  0  0  0  0  0  0  0
    0.2455   27.1232  -27.0788 H   0  0  0  0  0  0  0  0  0  0  0  0
   -1.5761   27.4647  -25.4056 H   0  0  0  0  0  0  0  0  0  0  0  0
   -3.3976   25.7787  -25.1846 H   0  0  0  0  0  0  0  0  0  0  0  0
   -3.4148   23.7542  -26.6397 H   0  0  0  0  0  0  0  0  0  0  0  0
   -3.1487   22.0095  -27.6604 H   0  0  0  0  0  0  0  0  0  0  0  0
   -3.6050   22.9717  -29.1217 H   0  0  0  0  0  0  0  0  0  0  0  0
   -2.0287   20.3599  -28.9999 H   0  0  0  0  0  0  0  0  0  0  0  0
   -3.5874   20.6740  -29.8225 H   0  0  0  0  0  0  0  0  0  0  0  0
   -2.9100   23.2340  -31.6540 H   0  0  0  0  0  0  0  0  0  0  0  0
   -6.4564   22.0442  -31.7657 H   0  0  0  0  0  0  0  0  0  0  0  0
   -8.3718   23.2843  -30.7612 H   0  0  0  0  0  0  0  0  0  0  0  0
   -7.9801   25.4655  -29.5931 H   0  0  0  0  0  0  0  0  0  0  0  0
   -5.6732   26.4094  -29.4584 H   0  0  0  0  0  0  0  0  0  0  0  0
  1  2  2  0
  2  3  1  0
  3  4  1  0
  4  5  1  0
  5  6  1  0
  6  7  1  0
  7  8  1  0
  8  9  1  0
  9 10  2  0
 10 11  1  0
 11 12  2  0
 12 13  1  0
 13 14  2  0
  8 15  1  0
 15 16  1  0
  2 17  1  0
 17 18  1  0
 18 19  2  0
 19 20  1  0
 20 21  2  0
 21 22  1  0
 22 23  2  0
 23 24  1  0
 16  5  1  0
 23 18  1  0
 14  9  1  0
  3 25  1  0
  3 26  1  0
  4 27  1  0
  4 28  1  0
  6 29  1  0
  6 30  1  0
  7 31  1  0
  7 32  1  0
 10 33  1  0
 11 34  1  0
 12 35  1  0
 13 36  1  0
 14 37  1  0
 15 38  1  0
 15 39  1  0
 16 40  1  0
 16 41  1  0
 17 42  1  0
 19 43  1  0
 20 44  1  0
 21 45  1  0
 22 46  1  0
M  CHG  1  24  -1
M  END
>  <UniqueID>  (14) 
14

>  <SMILES>  (14) 
O=C(CCN1CCN(c2ccccc2)CC1)Nc1ccccc1[O-]

>  <Energy>  (14) 
59.608204617726244

>  <Genealogy>  (14) 
O=C(CCN1CCN(c2ccccc2)CC1)Nc1ccccc1[O-] (protonated)
O=C(CCN1CCN(c2ccccc2)CC1)Nc1ccccc1[O-] (3D coordinates assigned)
O=C(CCN1CCN(c2ccccc2)CC1)Nc1ccccc1[O-] (nonaromatic ring conformer: 59.608204617726244 kcal/mol)

>  <smiles>  (14) 
O=C(CCN1CCN(c2ccccc2)CC1)Nc1ccccc1O

>  <score_type>  (14) 
oracle

>  <origin>  (14) 
adgpu

>  <m_score__min__energy>  (14) 
-11.68

>  <m_primary>  (14) 
energy

$$$$
14:0
     RDKit          3D

 41 43  0  0  0  0  0  0  0  0999 V2000
   -9.8300   18.9250  -33.0920 O   0  0  0  0  0  0  0  0  0  0  0  0
   -8.6010   18.9820  -32.2270 S   0  0  0  0  0  0  0  0  0  0  0  0
   -8.8970   18.2250  -30.9600 O   0  0  0  0  0  0  0  0  0  0  0  0
   -8.2370   20.6690  -31.8220 C   0  0  0  0  0  0  0  0  0  0  0  0
   -6.9880   20.9920  -31.2680 C   0  0  0  0  0  0  0  0  0  0  0  0
   -6.6710   22.3160  -30.9400 C   0  0  0  0  0  0  0  0  0  0  0  0
   -5.3600   22.5970  -30.4200 N   0  0  0  0  0  0  0  0  0  0  0  0
   -5.1070   23.1860  -29.2910 C   0  0  0  0  0  0  0  0  0  0  0  0
   -3.7180   23.4820  -28.8650 C   0  0  0  0  0  0  0  0  0  0  0  0
   -3.1580   22.7150  -27.8280 C   0  0  0  0  0  0  0  0  0  0  0  0
   -1.8600   22.9670  -27.3780 C   0  0  0  0  0  0  0  0  0  0  0  0
   -1.1020   23.9850  -27.9560 C   0  0  0  0  0  0  0  0  0  0  0  0
   -1.6410   24.7560  -28.9880 C   0  0  0  0  0  0  0  0  0  0  0  0
   -2.9410   24.5120  -29.4480 C   0  0  0  0  0  0  0  0  0  0  0  0
   -3.4400   25.2990  -30.4800 O   0  0  0  0  0  0  0  0  0  0  0  0
   -7.6100   23.3320  -31.1970 C   0  0  0  0  0  0  0  0  0  0  0  0
   -8.8540   23.0160  -31.7460 C   0  0  0  0  0  0  0  0  0  0  0  0
   -9.1720   21.6930  -32.0600 C   0  0  0  0  0  0  0  0  0  0  0  0
  -10.4140   21.4120  -32.6190 O   0  0  0  0  0  0  0  0  0  0  0  0
   -7.2760   18.2120  -33.0650 N   0  0  0  0  0  0  0  0  0  0  0  0
   -6.4920   19.2000  -33.8200 C   0  0  0  0  0  0  0  0  0  0  0  0
   -5.3670   18.4870  -34.5980 C   0  0  0  0  0  0  0  0  0  0  0  0
   -5.2200   17.1290  -34.2130 O   0  0  0  0  0  0  0  0  0  0  0  0
   -5.1050   17.0390  -32.8080 C   0  0  0  0  0  0  0  0  0  0  0  0
   -6.4130   17.4820  -32.1200 C   0  0  0  0  0  0  0  0  0  0  0  0
   -6.2501   20.1960  -31.0896 H   0  0  0  0  0  0  0  0  0  0  0  0
   -5.9425   23.4721  -28.6352 H   0  0  0  0  0  0  0  0  0  0  0  0
   -3.7477   21.9090  -27.3669 H   0  0  0  0  0  0  0  0  0  0  0  0
   -1.4342   22.3605  -26.5650 H   0  0  0  0  0  0  0  0  0  0  0  0
   -0.0800   24.1805  -27.5991 H   0  0  0  0  0  0  0  0  0  0  0  0
   -1.0415   25.5589  -29.4418 H   0  0  0  0  0  0  0  0  0  0  0  0
   -7.3631   24.3784  -30.9646 H   0  0  0  0  0  0  0  0  0  0  0  0
   -9.5880   23.8138  -31.9323 H   0  0  0  0  0  0  0  0  0  0  0  0
   -7.1501   19.7251  -34.5280 H   0  0  0  0  0  0  0  0  0  0  0  0
   -6.0486   19.9242  -33.1208 H   0  0  0  0  0  0  0  0  0  0  0  0
   -5.6005   18.5264  -35.6722 H   0  0  0  0  0  0  0  0  0  0  0  0
   -4.4228   19.0040  -34.3717 H   0  0  0  0  0  0  0  0  0  0  0  0
   -4.8868   15.9972  -32.5303 H   0  0  0  0  0  0  0  0  0  0  0  0
   -4.2919   17.7024  -32.4783 H   0  0  0  0  0  0  0  0  0  0  0  0
   -6.9481   16.5930  -31.7548 H   0  0  0  0  0  0  0  0  0  0  0  0
   -6.1637   18.1483  -31.2810 H   0  0  0  0  0  0  0  0  0  0  0  0
  1  2  2  0
  2  3  2  0
  2  4  1  0
  4  5  2  0
  5  6  1  0
  6  7  1  0
  7  8  2  3
  8  9  1  0
  9 10  2  0
 10 11  1  0
 11 12  2  0
 12 13  1  0
 13 14  2  0
 14 15  1  0
  6 16  2  0
 16 17  1  0
 17 18  2  0
 18 19  1  0
  2 20  1  0
 20 21  1  0
 21 22  1  0
 22 23  1  0
 23 24  1  0
 24 25  1  0
 18  4  1  0
 25 20  1  0
 14  9  1  0
  5 26  1  0
  8 27  1  0
 10 28  1  0
 11 29  1  0
 12 30  1  0
 13 31  1  0
 16 32  1  0
 17 33  1  0
 21 34  1  0
 21 35  1  0
 22 36  1  0
 22 37  1  0
 24 38  1  0
 24 39  1  0
 25 40  1  0
 25 41  1  0
M  CHG  2  15  -1  19  -1
M  END
>  <UniqueID>  (15) 
15

>  <SMILES>  (15) 
O=S(=O)(c1cc(N=Cc2ccccc2[O-])ccc1[O-])N1CCOCC1

>  <Energy>  (15) 
55.64025237028263

>  <Genealogy>  (15) 
O=S(=O)(c1cc(N=Cc2ccccc2[O-])ccc1[O-])N1CCOCC1 (protonated)
O=S(=O)(c1cc(N=Cc2ccccc2[O-])ccc1[O-])N1CCOCC1 (3D coordinates assigned)
O=S(=O)(c1cc(N=Cc2ccccc2[O-])ccc1[O-])N1CCOCC1 (nonaromatic ring conformer: 55.64025237028263 kcal/mol)

>  <smiles>  (15) 
O=S(=O)(c1cc(N=Cc2ccccc2O)ccc1O)N1CCOCC1

>  <score_type>  (15) 
oracle

>  <origin>  (15) 
adgpu

>  <m_score__min__energy>  (15) 
-11.35

>  <m_primary>  (15) 
energy

$$$$
15:0
     RDKit          3D

 58 61  0  0  0  0  0  0  0  0999 V2000
   -1.0730   26.4990  -27.7940 C   0  0  0  0  0  0  0  0  0  0  0  0
   -1.5400   25.8390  -28.9660 O   0  0  0  0  0  0  0  0  0  0  0  0
   -2.2740   24.6420  -28.9740 C   0  0  0  0  0  0  0  0  0  0  0  0
   -3.5080   24.5450  -29.6500 C   0  0  0  0  0  0  0  0  0  0  0  0
   -4.2590   23.3600  -29.6130 C   0  0  0  0  0  0  0  0  0  0  0  0
   -5.5600   23.2600  -30.3140 C   0  0  0  0  0  0  0  0  0  0  0  0
   -6.6120   23.6230  -29.7200 O   0  0  0  0  0  0  0  0  0  0  0  0
   -5.6430   22.7340  -31.6500 N   0  0  0  0  0  0  0  0  0  0  0  0
   -6.9100   22.6590  -32.3810 C   0  0  0  0  0  0  0  0  0  0  0  0
   -7.4360   21.2360  -32.4070 C   0  0  0  0  0  0  0  0  0  0  0  0
   -6.6600   20.2470  -33.0430 C   0  0  0  0  0  0  0  0  0  0  0  0
   -7.0940   18.9180  -33.0970 C   0  0  0  0  0  0  0  0  0  0  0  0
   -6.0970   17.6890  -33.8770 S   0  0  0  0  0  0  0  0  0  0  0  0
   -5.7280   18.1690  -35.2520 O   0  0  0  0  0  0  0  0  0  0  0  0
   -6.9010   16.4280  -34.0350 O   0  0  0  0  0  0  0  0  0  0  0  0
   -4.6360   17.3330  -32.9800 N   0  0  0  0  0  0  0  0  0  0  0  0
   -3.7070   18.4780  -32.9360 C   0  0  0  0  0  0  0  0  0  0  0  0
   -2.8310   18.5980  -34.2070 C   0  0  0  0  0  0  0  0  0  0  0  0
   -2.9310   17.4780  -35.0650 O   0  0  0  0  0  0  0  0  0  0  0  0
   -2.7770   16.2930  -34.3200 C   0  0  0  0  0  0  0  0  0  0  0  0
   -3.9950   16.0710  -33.4040 C   0  0  0  0  0  0  0  0  0  0  0  0
   -8.3200   18.5670  -32.5200 C   0  0  0  0  0  0  0  0  0  0  0  0
   -9.1160   19.5390  -31.9160 C   0  0  0  0  0  0  0  0  0  0  0  0
   -8.6960   20.8790  -31.8600 C   0  0  0  0  0  0  0  0  0  0  0  0
   -9.5960   21.8950  -31.2030 C   0  0  0  0  0  0  0  0  0  0  0  0
   -3.7740   22.2700  -28.8790 C   0  0  0  0  0  0  0  0  0  0  0  0
   -2.5480   22.3490  -28.2180 C   0  0  0  0  0  0  0  0  0  0  0  0
   -1.7810   23.5230  -28.2640 C   0  0  0  0  0  0  0  0  0  0  0  0
   -0.4780   23.5640  -27.5500 C   0  0  0  0  0  0  0  0  0  0  0  0
   -0.2530   23.3200  -26.2080 C   0  0  0  0  0  0  0  0  0  0  0  0
    1.0650   23.4300  -25.9530 N   0  0  0  0  0  0  0  0  0  0  0  0
    1.6910   23.7230  -27.0830 N   0  0  0  0  0  0  0  0  0  0  0  0
    0.7790   23.8090  -28.0710 C   0  0  0  0  0  0  0  0  0  0  0  0
   -1.4458   25.9721  -26.9033 H   0  0  0  0  0  0  0  0  0  0  0  0
    0.0270   26.4986  -27.7866 H   0  0  0  0  0  0  0  0  0  0  0  0
   -1.4394   27.5362  -27.7866 H   0  0  0  0  0  0  0  0  0  0  0  0
   -3.8870   25.4100  -30.2140 H   0  0  0  0  0  0  0  0  0  0  0  0
   -4.7910   22.3410  -32.1100 H   0  0  0  0  0  0  0  0  0  0  0  0
   -7.6493   23.3074  -31.8880 H   0  0  0  0  0  0  0  0  0  0  0  0
   -6.7390   22.9897  -33.4161 H   0  0  0  0  0  0  0  0  0  0  0  0
   -5.6999   20.5234  -33.5033 H   0  0  0  0  0  0  0  0  0  0  0  0
   -4.2945   19.4016  -32.8271 H   0  0  0  0  0  0  0  0  0  0  0  0
   -3.0294   18.3183  -32.0843 H   0  0  0  0  0  0  0  0  0  0  0  0
   -3.1450   19.4932  -34.7639 H   0  0  0  0  0  0  0  0  0  0  0  0
   -1.7840   18.6611  -33.8755 H   0  0  0  0  0  0  0  0  0  0  0  0
   -2.6824   15.4413  -35.0097 H   0  0  0  0  0  0  0  0  0  0  0  0
   -1.8740   16.3783  -33.6976 H   0  0  0  0  0  0  0  0  0  0  0  0
   -4.7364   15.4664  -33.9470 H   0  0  0  0  0  0  0  0  0  0  0  0
   -3.6362   15.5631  -32.4967 H   0  0  0  0  0  0  0  0  0  0  0  0
   -8.6567   17.5200  -32.5433 H   0  0  0  0  0  0  0  0  0  0  0  0
  -10.0840   19.2539  -31.4782 H   0  0  0  0  0  0  0  0  0  0  0  0
   -9.5152   21.8038  -30.1098 H   0  0  0  0  0  0  0  0  0  0  0  0
   -9.2923   22.9067  -31.5100 H   0  0  0  0  0  0  0  0  0  0  0  0
  -10.6370   21.7156  -31.5100 H   0  0  0  0  0  0  0  0  0  0  0  0
   -4.3649   21.3438  -28.8233 H   0  0  0  0  0  0  0  0  0  0  0  0
   -2.1781   21.4802  -27.6538 H   0  0  0  0  0  0  0  0  0  0  0  0
   -1.0274   23.0749  -25.4662 H   0  0  0  0  0  0  0  0  0  0  0  0
    0.9994   24.0377  -29.1242 H   0  0  0  0  0  0  0  0  0  0  0  0
  1  2  1  0
  2  3  1  0
  3  4  2  0
  4  5  1  0
  5  6  1  0
  6  7  2  0
  6  8  1  0
  8  9  1  0
  9 10  1  0
 10 11  2  0
 11 12  1  0
 12 13  1  0
 13 14  2  0
 13 15  2  0
 13 16  1  0
 16 17  1  0
 17 18  1  0
 18 19  1  0
 19 20  1  0
 20 21  1  0
 12 22  2  0
 22 23  1  0
 23 24  2  0
 24 25  1  0
  5 26  2  0
 26 27  1  0
 27 28  2  0
 28 29  1  0
 29 30  1  0
 30 31  2  0
 31 32  1  0
 32 33  1  0
 28  3  1  0
 33 29  2  0
 24 10  1  0
 21 16  1  0
  1 34  1  0
  1 35  1  0
  1 36  1  0
  4 37  1  0
  8 38  1  0
  9 39  1  0
  9 40  1  0
 11 41  1  0
 17 42  1  0
 17 43  1  0
 18 44  1  0
 18 45  1  0
 20 46  1  0
 20 47  1  0
 21 48  1  0
 21 49  1  0
 22 50  1  0
 23 51  1  0
 25 52  1  0
 25 53  1  0
 25 54  1  0
 26 55  1  0
 27 56  1  0
 30 57  1  0
 33 58  1  0
M  CHG  1  32  -1
M  END
>  <UniqueID>  (16) 
16

>  <SMILES>  (16) 
COc1cc(C(=O)NCc2cc(S(=O)(=O)N3CCOCC3)ccc2C)ccc1-c1cn[n-]c1

>  <Energy>  (16) 
107.0188167166094

>  <Genealogy>  (16) 
COc1cc(C(=O)NCc2cc(S(=O)(=O)N3CCOCC3)ccc2C)ccc1-c1cn[n-]c1 (protonated)
COc1cc(C(=O)NCc2cc(S(=O)(=O)N3CCOCC3)ccc2C)ccc1-c1cn[n-]c1 (3D coordinates assigned)
COc1cc(C(=O)NCc2cc(S(=O)(=O)N3CCOCC3)ccc2C)ccc1-c1cn[n-]c1 (nonaromatic ring conformer: 107.0188167166094 kcal/mol)

>  <smiles>  (16) 
COc1cc(C(=O)NCc2cc(S(=O)(=O)N3CCOCC3)ccc2C)ccc1-c1cn[nH]c1

>  <score_type>  (16) 
oracle

>  <origin>  (16) 
adgpu

>  <m_score__min__energy>  (16) 
-10.960000000000001

>  <m_primary>  (16) 
energy

$$$$
16:0
     RDKit          3D

 54 56  0  0  0  0  0  0  0  0999 V2000
   -6.5210   17.1050  -33.7970 C   0  0  0  0  0  0  0  0  0  0  0  0
   -6.6020   18.4240  -33.0730 C   0  0  0  0  0  0  0  0  0  0  0  0
   -7.7800   18.7300  -32.3750 C   0  0  0  0  0  0  0  0  0  0  0  0
   -7.9100   19.9370  -31.6980 C   0  0  0  0  0  0  0  0  0  0  0  0
   -6.8780   20.8680  -31.7260 C   0  0  0  0  0  0  0  0  0  0  0  0
   -5.6880   20.6030  -32.4190 C   0  0  0  0  0  0  0  0  0  0  0  0
   -4.4360   21.8650  -32.4480 S   0  0  0  0  0  0  0  0  0  0  0  0
   -3.8890   21.9310  -33.8420 O   0  0  0  0  0  0  0  0  0  0  0  0
   -5.0370   23.1980  -32.1060 O   0  0  0  0  0  0  0  0  0  0  0  0
   -3.2000   21.5370  -31.2070 C   0  0  0  0  0  0  0  0  0  0  0  0
   -2.3770   20.4230  -31.4530 C   0  0  0  0  0  0  0  0  0  0  0  0
   -1.3540   20.0740  -30.5750 C   0  0  0  0  0  0  0  0  0  0  0  0
   -0.3390   18.6860  -30.9170 Cl  0  0  0  0  0  0  0  0  0  0  0  0
   -1.1340   20.8320  -29.4290 C   0  0  0  0  0  0  0  0  0  0  0  0
   -1.9410   21.9340  -29.1560 C   0  0  0  0  0  0  0  0  0  0  0  0
   -2.9860   22.3030  -30.0230 C   0  0  0  0  0  0  0  0  0  0  0  0
   -3.9700   23.7050  -29.5580 S   0  0  0  0  0  0  0  0  0  0  0  0
   -4.0030   24.6770  -30.7030 O   0  0  0  0  0  0  0  0  0  0  0  0
   -5.3830   23.2710  -29.2760 O   0  0  0  0  0  0  0  0  0  0  0  0
   -3.3490   24.4770  -28.1010 C   0  0  0  0  0  0  0  0  0  0  0  0
   -2.0390   24.9550  -28.0610 C   0  0  0  0  0  0  0  0  0  0  0  0
   -1.5510   25.5740  -26.9130 C   0  0  0  0  0  0  0  0  0  0  0  0
   -2.3900   25.7090  -25.7870 C   0  0  0  0  0  0  0  0  0  0  0  0
   -1.9930   26.2850  -24.6850 N   0  0  0  0  0  0  0  0  0  0  0  0
   -0.6930   26.9040  -24.4100 C   0  0  0  0  0  0  0  0  0  0  0  0
   -0.7050   28.3760  -24.8360 C   0  0  0  0  0  0  0  0  0  0  0  0
   -0.3970   26.7920  -22.9160 C   0  0  0  0  0  0  0  0  0  0  0  0
   -3.6670   25.2300  -25.8520 N   0  0  0  0  0  0  0  0  0  0  0  0
   -4.1610   24.6410  -26.9750 C   0  0  0  0  0  0  0  0  0  0  0  0
   -5.5150   19.3410  -33.0530 C   0  0  0  0  0  0  0  0  0  0  0  0
   -4.2100   18.9940  -33.7340 C   0  0  0  0  0  0  0  0  0  0  0  0
   -6.4707   16.2867  -33.0636 H   0  0  0  0  0  0  0  0  0  0  0  0
   -7.4130   16.9777  -34.4279 H   0  0  0  0  0  0  0  0  0  0  0  0
   -5.6201   17.0878  -34.4279 H   0  0  0  0  0  0  0  0  0  0  0  0
   -8.6092   18.0073  -32.3634 H   0  0  0  0  0  0  0  0  0  0  0  0
   -8.8316   20.1560  -31.1388 H   0  0  0  0  0  0  0  0  0  0  0  0
   -6.9964   21.8254  -31.1975 H   0  0  0  0  0  0  0  0  0  0  0  0
   -2.5446   19.8166  -32.3553 H   0  0  0  0  0  0  0  0  0  0  0  0
   -0.3221   20.5607  -28.7381 H   0  0  0  0  0  0  0  0  0  0  0  0
   -1.7582   22.5259  -28.2470 H   0  0  0  0  0  0  0  0  0  0  0  0
   -1.3883   24.8424  -28.9407 H   0  0  0  0  0  0  0  0  0  0  0  0
   -0.5194   25.9547  -26.8844 H   0  0  0  0  0  0  0  0  0  0  0  0
    0.0897   26.3848  -24.9826 H   0  0  0  0  0  0  0  0  0  0  0  0
   -0.7102   29.0165  -23.9417 H   0  0  0  0  0  0  0  0  0  0  0  0
    0.1914   28.5914  -25.4360 H   0  0  0  0  0  0  0  0  0  0  0  0
   -1.6048   28.5767  -25.4360 H   0  0  0  0  0  0  0  0  0  0  0  0
   -1.2749   27.1242  -22.3424 H   0  0  0  0  0  0  0  0  0  0  0  0
   -0.1693   25.7456  -22.6648 H   0  0  0  0  0  0  0  0  0  0  0  0
    0.4664   27.4256  -22.6648 H   0  0  0  0  0  0  0  0  0  0  0  0
   -4.2950   25.3260  -25.0260 H   0  0  0  0  0  0  0  0  0  0  0  0
   -5.2041   24.2924  -26.9968 H   0  0  0  0  0  0  0  0  0  0  0  0
   -3.4423   18.7899  -32.9731 H   0  0  0  0  0  0  0  0  0  0  0  0
   -4.3501   18.1019  -34.3621 H   0  0  0  0  0  0  0  0  0  0  0  0
   -3.8885   19.8379  -34.3621 H   0  0  0  0  0  0  0  0  0  0  0  0
  1  2  1  0
  2  3  2  0
  3  4  1  0
  4  5  2  0
  5  6  1  0
  6  7  1  0
  7  8  2  0
  7  9  2  0
  7 10  1  0
 10 11  2  0
 11 12  1  0
 12 13  1  0
 12 14  2  0
 14 15  1  0
 15 16  2  0
 16 17  1  0
 17 18  2  0
 17 19  2  0
 17 20  1  0
 20 21  1  0
 21 22  2  0
 22 23  1  0
 23 24  2  3
 24 25  1  0
 25 26  1  0
 25 27  1  0
 23 28  1  0
 28 29  1  0
  6 30  2  0
 30 31  1  0
 30  2  1  0
 16 10  1  0
 29 20  2  0
  1 32  1  0
  1 33  1  0
  1 34  1  0
  3 35  1  0
  4 36  1  0
  5 37  1  0
 11 38  1  0
 14 39  1  0
 15 40  1  0
 21 41  1  0
 22 42  1  0
 25 43  1  0
 26 44  1  0
 26 45  1  0
 26 46  1  0
 27 47  1  0
 27 48  1  0
 27 49  1  0
 28 50  1  0
 29 51  1  0
 31 52  1  0
 31 53  1  0
 31 54  1  0
M  END
>  <UniqueID>  (17) 
17

>  <SMILES>  (17) 
Cc1cccc(S(=O)(=O)c2cc(Cl)ccc2S(=O)(=O)c2ccc(=NC(C)C)[nH]c2)c1C

>  <Energy>  (17) 
67.73777801232268

>  <Genealogy>  (17) 
Cc1cccc(S(=O)(=O)c2cc(Cl)ccc2S(=O)(=O)c2ccc(=NC(C)C)[nH]c2)c1C (3D coordinates assigned)
Cc1cccc(S(=O)(=O)c2cc(Cl)ccc2S(=O)(=O)c2ccc(=NC(C)C)[nH]c2)c1C (optimized conformer: 67.73777801232268 kcal/mol)

>  <smiles>  (17) 
Cc1cccc(S(=O)(=O)c2cc(Cl)ccc2S(=O)(=O)c2ccc(=NC(C)C)[nH]c2)c1C

>  <score_type>  (17) 
oracle

>  <origin>  (17) 
adgpu

>  <m_score__min__energy>  (17) 
-10.550000000000001

>  <m_primary>  (17) 
energy

$$$$
17:0
     RDKit          3D

 55 59  0  0  0  0  0  0  0  0999 V2000
   -1.7770   20.3820  -27.0860 C   0  0  0  0  0  0  0  0  0  0  0  0
   -2.5290   21.0540  -28.1960 C   0  0  0  0  0  0  0  0  0  0  0  0
   -3.4470   22.0750  -27.9080 C   0  0  0  0  0  0  0  0  0  0  0  0
   -4.1770   22.6770  -28.9360 C   0  0  0  0  0  0  0  0  0  0  0  0
   -4.0060   22.2560  -30.2630 C   0  0  0  0  0  0  0  0  0  0  0  0
   -4.9440   22.9930  -31.5580 S   0  0  0  0  0  0  0  0  0  0  0  0
   -4.2900   22.6740  -32.8730 O   0  0  0  0  0  0  0  0  0  0  0  0
   -4.9950   24.4830  -31.3810 O   0  0  0  0  0  0  0  0  0  0  0  0
   -6.5620   22.3720  -31.5410 N   0  0  0  0  0  0  0  0  0  0  0  0
   -7.6660   23.0340  -31.1270 C   0  0  0  0  0  0  0  0  0  0  0  0
   -8.7940   22.2340  -31.2800 C   0  0  0  0  0  0  0  0  0  0  0  0
   -8.3320   21.0470  -31.8100 C   0  0  0  0  0  0  0  0  0  0  0  0
   -9.0190   19.8940  -32.1810 C   0  0  0  0  0  0  0  0  0  0  0  0
   -8.2740   18.8290  -32.7200 C   0  0  0  0  0  0  0  0  0  0  0  0
   -6.8710   18.9390  -32.8770 C   0  0  0  0  0  0  0  0  0  0  0  0
   -5.9330   17.6160  -33.5580 S   0  0  0  0  0  0  0  0  0  0  0  0
   -6.2170   16.3360  -32.8220 O   0  0  0  0  0  0  0  0  0  0  0  0
   -6.3100   17.4260  -35.0010 O   0  0  0  0  0  0  0  0  0  0  0  0
   -4.2200   17.9980  -33.4230 C   0  0  0  0  0  0  0  0  0  0  0  0
   -3.3010   16.9960  -33.0930 C   0  0  0  0  0  0  0  0  0  0  0  0
   -1.9400   17.2910  -33.0100 C   0  0  0  0  0  0  0  0  0  0  0  0
   -1.4760   18.5940  -33.2460 C   0  0  0  0  0  0  0  0  0  0  0  0
   -2.3980   19.6040  -33.6090 C   0  0  0  0  0  0  0  0  0  0  0  0
   -3.7660   19.2970  -33.6820 C   0  0  0  0  0  0  0  0  0  0  0  0
   -1.9610   21.0340  -33.8210 C   0  0  0  0  0  0  0  0  0  0  0  0
   -0.4610   21.1570  -34.1060 C   0  0  0  0  0  0  0  0  0  0  0  0
    0.3430   20.3460  -33.0910 C   0  0  0  0  0  0  0  0  0  0  0  0
    0.0110   18.8560  -33.2150 C   0  0  0  0  0  0  0  0  0  0  0  0
   -6.2090   20.1190  -32.4850 C   0  0  0  0  0  0  0  0  0  0  0  0
   -6.9750   21.1590  -31.9560 C   0  0  0  0  0  0  0  0  0  0  0  0
   -3.0970   21.2300  -30.5510 C   0  0  0  0  0  0  0  0  0  0  0  0
   -2.3690   20.6250  -29.5230 C   0  0  0  0  0  0  0  0  0  0  0  0
   -2.1655   20.7292  -26.1172 H   0  0  0  0  0  0  0  0  0  0  0  0
   -1.9054   19.2923  -27.1633 H   0  0  0  0  0  0  0  0  0  0  0  0
   -0.7085   20.6317  -27.1633 H   0  0  0  0  0  0  0  0  0  0  0  0
   -3.5927   22.4031  -26.8682 H   0  0  0  0  0  0  0  0  0  0  0  0
   -4.8880   23.4836  -28.7040 H   0  0  0  0  0  0  0  0  0  0  0  0
   -7.6715   24.0585  -30.7265 H   0  0  0  0  0  0  0  0  0  0  0  0
   -9.8337   22.4930  -31.0311 H   0  0  0  0  0  0  0  0  0  0  0  0
  -10.1093   19.8182  -32.0567 H   0  0  0  0  0  0  0  0  0  0  0  0
   -8.7857   17.9033  -33.0219 H   0  0  0  0  0  0  0  0  0  0  0  0
   -3.6528   15.9721  -32.8983 H   0  0  0  0  0  0  0  0  0  0  0  0
   -1.2242   16.4949  -32.7573 H   0  0  0  0  0  0  0  0  0  0  0  0
   -4.4879   20.0842  -33.9451 H   0  0  0  0  0  0  0  0  0  0  0  0
   -2.5167   21.4490  -34.6748 H   0  0  0  0  0  0  0  0  0  0  0  0
   -2.1695   21.5865  -32.8930 H   0  0  0  0  0  0  0  0  0  0  0  0
   -0.2524   20.7798  -35.1180 H   0  0  0  0  0  0  0  0  0  0  0  0
   -0.1690   22.2147  -34.0288 H   0  0  0  0  0  0  0  0  0  0  0  0
    1.4169   20.4948  -33.2772 H   0  0  0  0  0  0  0  0  0  0  0  0
    0.0845   20.6861  -32.0773 H   0  0  0  0  0  0  0  0  0  0  0  0
    0.4561   18.4719  -34.1447 H   0  0  0  0  0  0  0  0  0  0  0  0
    0.4209   18.3481  -32.3296 H   0  0  0  0  0  0  0  0  0  0  0  0
   -5.1188   20.2181  -32.5928 H   0  0  0  0  0  0  0  0  0  0  0  0
   -2.9556   20.8992  -31.5905 H   0  0  0  0  0  0  0  0  0  0  0  0
   -1.6680   19.8096  -29.7545 H   0  0  0  0  0  0  0  0  0  0  0  0
  1  2  1  0
  2  3  2  0
  3  4  1  0
  4  5  2  0
  5  6  1  0
  6  7  2  0
  6  8  2  0
  6  9  1  0
  9 10  1  0
 10 11  2  0
 11 12  1  0
 12 13  2  0
 13 14  1  0
 14 15  2  0
 15 16  1  0
 16 17  2  0
 16 18  2  0
 16 19  1  0
 19 20  2  0
 20 21  1  0
 21 22  2  0
 22 23  1  0
 23 24  2  0
 23 25  1  0
 25 26  1  0
 26 27  1  0
 27 28  1  0
 15 29  1  0
 29 30  2  0
  5 31  1  0
 31 32  2  0
 32  2  1  0
 30  9  1  0
 30 12  1  0
 24 19  1  0
 28 22  1  0
  1 33  1  0
  1 34  1  0
  1 35  1  0
  3 36  1  0
  4 37  1  0
 10 38  1  0
 11 39  1  0
 13 40  1  0
 14 41  1  0
 20 42  1  0
 21 43  1  0
 24 44  1  0
 25 45  1  0
 25 46  1  0
 26 47  1  0
 26 48  1  0
 27 49  1  0
 27 50  1  0
 28 51  1  0
 28 52  1  0
 29 53  1  0
 31 54  1  0
 32 55  1  0
M  END
>  <UniqueID>  (18) 
18

>  <SMILES>  (18) 
Cc1ccc(S(=O)(=O)n2ccc3ccc(S(=O)(=O)c4ccc5c(c4)CCCC5)cc32)cc1

>  <Energy>  (18) 
94.28641785196935

>  <Genealogy>  (18) 
Cc1ccc(S(=O)(=O)n2ccc3ccc(S(=O)(=O)c4ccc5c(c4)CCCC5)cc32)cc1 (3D coordinates assigned)
Cc1ccc(S(=O)(=O)n2ccc3ccc(S(=O)(=O)c4ccc5c(c4)CCCC5)cc32)cc1 (nonaromatic ring conformer: 94.28641785196935 kcal/mol)

>  <smiles>  (18) 
Cc1ccc(S(=O)(=O)n2ccc3ccc(S(=O)(=O)c4ccc5c(c4)CCCC5)cc32)cc1

>  <score_type>  (18) 
oracle

>  <origin>  (18) 
adgpu

>  <m_score__min__energy>  (18) 
-11.35

>  <m_primary>  (18) 
energy

$$$$
18:0
     RDKit          3D

 39 42  0  0  0  0  0  0  0  0999 V2000
   -2.9120   19.9600  -33.0850 O   0  0  0  0  0  0  0  0  0  0  0  0
   -4.1220   20.2750  -32.9400 C   0  0  0  0  0  0  0  0  0  0  0  0
   -4.5550   21.7080  -33.0650 C   0  0  0  0  0  0  0  0  0  0  0  0
   -5.7530   21.9430  -32.2480 N   0  0  0  0  0  0  0  0  0  0  0  0
   -5.7850   23.3000  -31.1530 S   0  0  0  0  0  0  0  0  0  0  0  0
   -5.8510   24.5630  -31.9650 O   0  0  0  0  0  0  0  0  0  0  0  0
   -6.9880   23.2280  -30.2540 O   0  0  0  0  0  0  0  0  0  0  0  0
   -4.3500   23.2720  -30.1210 C   0  0  0  0  0  0  0  0  0  0  0  0
   -4.0270   22.0840  -29.4510 C   0  0  0  0  0  0  0  0  0  0  0  0
   -2.8970   22.0170  -28.6370 C   0  0  0  0  0  0  0  0  0  0  0  0
   -2.0860   23.1400  -28.4690 C   0  0  0  0  0  0  0  0  0  0  0  0
   -2.4130   24.3520  -29.1010 C   0  0  0  0  0  0  0  0  0  0  0  0
   -1.5740   25.5080  -28.9450 N   0  0  0  0  0  0  0  0  0  0  0  0
   -0.7590   25.7370  -27.7900 C   0  0  0  0  0  0  0  0  0  0  0  0
    0.5530   25.4830  -27.4270 C   0  0  0  0  0  0  0  0  0  0  0  0
    1.6520   24.8980  -28.0410 O   0  0  0  0  0  0  0  0  0  0  0  0
    0.3180   26.0410  -26.1880 C   0  0  0  0  0  0  0  0  0  0  0  0
    1.0120   26.2400  -25.1570 O   0  0  0  0  0  0  0  0  0  0  0  0
   -0.9940   26.2770  -26.5410 C   0  0  0  0  0  0  0  0  0  0  0  0
   -1.9940   26.7790  -25.9630 O   0  0  0  0  0  0  0  0  0  0  0  0
   -3.5430   24.4120  -29.9380 C   0  0  0  0  0  0  0  0  0  0  0  0
   -3.8630   25.6110  -30.5670 O   0  0  0  0  0  0  0  0  0  0  0  0
   -6.8070   20.9600  -32.2670 C   0  0  0  0  0  0  0  0  0  0  0  0
   -8.1570   21.3140  -32.0940 C   0  0  0  0  0  0  0  0  0  0  0  0
   -9.1460   20.3250  -32.0920 C   0  0  0  0  0  0  0  0  0  0  0  0
   -8.7970   18.9830  -32.2710 C   0  0  0  0  0  0  0  0  0  0  0  0
   -7.4610   18.6250  -32.4720 C   0  0  0  0  0  0  0  0  0  0  0  0
   -6.4690   19.6120  -32.4860 C   0  0  0  0  0  0  0  0  0  0  0  0
   -5.1040   19.2570  -32.7270 N   0  0  0  0  0  0  0  0  0  0  0  0
   -3.7435   22.3654  -32.7195 H   0  0  0  0  0  0  0  0  0  0  0  0
   -4.7874   21.9249  -34.1181 H   0  0  0  0  0  0  0  0  0  0  0  0
   -4.6692   21.1987  -29.5682 H   0  0  0  0  0  0  0  0  0  0  0  0
   -2.6441   21.0764  -28.1259 H   0  0  0  0  0  0  0  0  0  0  0  0
   -1.1865   23.0764  -27.8390 H   0  0  0  0  0  0  0  0  0  0  0  0
   -1.6110   26.2620  -29.6650 H   0  0  0  0  0  0  0  0  0  0  0  0
   -8.4354   22.3697  -31.9601 H   0  0  0  0  0  0  0  0  0  0  0  0
  -10.2005   20.6036  -31.9493 H   0  0  0  0  0  0  0  0  0  0  0  0
   -9.5761   18.2067  -32.2536 H   0  0  0  0  0  0  0  0  0  0  0  0
   -7.1897   17.5692  -32.6189 H   0  0  0  0  0  0  0  0  0  0  0  0
  1  2  2  0
  2  3  1  0
  3  4  1  0
  4  5  1  0
  5  6  2  0
  5  7  2  0
  5  8  1  0
  8  9  2  0
  9 10  1  0
 10 11  2  0
 11 12  1  0
 12 13  1  0
 13 14  1  0
 14 15  2  0
 15 16  1  0
 15 17  1  0
 17 18  2  0
 17 19  1  0
 19 20  2  0
 12 21  2  0
 21 22  1  0
  4 23  1  0
 23 24  2  0
 24 25  1  0
 25 26  2  0
 26 27  1  0
 27 28  2  0
 28 29  1  0
 29  2  1  0
 21  8  1  0
 28 23  1  0
 19 14  1  0
  3 30  1  0
  3 31  1  0
  9 32  1  0
 10 33  1  0
 11 34  1  0
 13 35  1  0
 24 36  1  0
 25 37  1  0
 26 38  1  0
 27 39  1  0
M  CHG  3  16  -1  22  -1  29  -1
M  END
>  <UniqueID>  (19) 
19

>  <SMILES>  (19) 
O=C1CN(S(=O)(=O)c2cccc(Nc3c([O-])c(=O)c3=O)c2[O-])c2ccccc2[N-]1

>  <Energy>  (19) 
46.665646293144746

>  <Genealogy>  (19) 
O=C1CN(S(=O)(=O)c2cccc(Nc3c([O-])c(=O)c3=O)c2[O-])c2ccccc2[N-]1 (protonated)
O=C1CN(S(=O)(=O)c2cccc(Nc3c([O-])c(=O)c3=O)c2[O-])c2ccccc2[N-]1 (3D coordinates assigned)
O=C1CN(S(=O)(=O)c2cccc(Nc3c([O-])c(=O)c3=O)c2[O-])c2ccccc2[N-]1 (nonaromatic ring conformer: 46.665646293144746 kcal/mol)

>  <smiles>  (19) 
O=C1CN(S(=O)(=O)c2cccc(Nc3c(O)c(=O)c3=O)c2O)c2ccccc2N1

>  <score_type>  (19) 
oracle

>  <origin>  (19) 
adgpu

>  <m_score__min__energy>  (19) 
-13.699999999999999

>  <m_primary>  (19) 
energy

$$$$
19:0
     RDKit          3D

 50 52  0  0  1  0  0  0  0  0999 V2000
   -5.7340   18.1840  -34.5740 C   0  0  0  0  0  0  0  0  0  0  0  0
   -6.3340   19.4700  -34.3400 N   0  0  0  0  0  0  0  0  0  0  0  0
   -6.9050   19.5610  -32.6900 S   0  0  0  0  0  0  0  0  0  0  0  0
   -5.9560   18.7350  -31.8670 O   0  0  0  0  0  0  0  0  0  0  0  0
   -8.2550   18.9140  -32.5820 O   0  0  0  0  0  0  0  0  0  0  0  0
   -7.0030   21.2140  -32.1690 C   0  0  0  0  0  0  0  0  0  0  0  0
   -8.2720   21.7560  -32.0070 C   0  0  0  0  0  0  0  0  0  0  0  0
   -8.4760   23.0580  -31.5980 C   0  0  0  0  0  0  0  0  0  0  0  0
   -7.3770   23.8280  -31.3450 C   0  0  0  0  0  0  0  0  0  0  0  0
   -6.1000   23.3190  -31.4970 C   0  0  0  0  0  0  0  0  0  0  0  0
   -5.0160   24.1930  -31.2120 N   0  0  0  0  0  0  0  0  0  0  0  0
   -4.2740   24.0120  -30.1700 C   0  0  0  0  0  0  0  0  0  0  0  0
   -4.4880   22.9740  -29.2860 C   0  0  0  0  0  0  0  0  0  0  0  0
   -3.6330   22.8770  -28.2060 C   0  0  0  0  0  0  0  0  0  0  0  0
   -2.6260   23.7480  -28.0040 N   0  0  0  0  0  0  0  0  0  0  0  0
   -2.4610   24.7410  -28.8980 C   0  0  0  0  0  0  0  0  0  0  0  0
   -1.5240   25.5950  -28.7590 N   0  0  0  0  0  0  0  0  0  0  0  0
   -0.6010   25.5680  -27.6770 C   0  0  0  0  0  0  0  0  0  0  0  0
    0.5170   24.7580  -27.6560 C   0  0  0  0  0  0  0  0  0  0  0  0
    1.4070   24.7390  -26.6000 C   0  0  0  0  0  0  0  0  0  0  0  0
    1.1680   25.5710  -25.5140 C   0  0  0  0  0  0  0  0  0  0  0  0
    0.0570   26.4000  -25.4950 C   0  0  0  0  0  0  0  0  0  0  0  0
   -0.1660   27.4100  -24.0940 S   0  0  0  0  0  0  0  0  0  0  0  0
   -0.6380   28.7480  -24.5390 O   0  0  0  0  0  0  0  0  0  0  0  0
   -1.2420   26.8150  -23.2050 O   0  0  0  0  0  0  0  0  0  0  0  0
    1.2530   27.5440  -23.1270 N   0  0  0  0  0  0  0  0  0  0  0  0
    1.5920   28.9070  -22.8640 C   0  0  0  0  0  0  0  0  0  0  0  0
   -0.8100   26.3910  -26.5690 C   0  0  0  0  0  0  0  0  0  0  0  0
   -3.2710   24.8840  -29.9740 N   0  0  0  0  0  0  0  0  0  0  0  0
   -5.9380   22.0160  -31.9080 C   0  0  0  0  0  0  0  0  0  0  0  0
   -5.5097   17.7032  -33.6104 H   0  0  0  0  0  0  0  0  0  0  0  0
   -6.4306   17.5529  -35.1453 H   0  0  0  0  0  0  0  0  0  0  0  0
   -4.8028   18.3123  -35.1453 H   0  0  0  0  0  0  0  0  0  0  0  0
   -7.0920   19.7190  -34.9960 H   0  0  0  0  0  0  0  0  0  0  0  0
   -9.1477   21.1229  -32.2127 H   0  0  0  0  0  0  0  0  0  0  0  0
   -9.4919   23.4629  -31.4795 H   0  0  0  0  0  0  0  0  0  0  0  0
   -7.5094   24.8690  -31.0153 H   0  0  0  0  0  0  0  0  0  0  0  0
   -5.3058   22.2537  -29.4356 H   0  0  0  0  0  0  0  0  0  0  0  0
   -3.7797   22.0592  -27.4851 H   0  0  0  0  0  0  0  0  0  0  0  0
   -1.9730   23.6830  -27.1920 H   0  0  0  0  0  0  0  0  0  0  0  0
    0.7069   24.1000  -28.5168 H   0  0  0  0  0  0  0  0  0  0  0  0
    2.2866   24.0788  -26.6187 H   0  0  0  0  0  0  0  0  0  0  0  0
    1.8650   25.5722  -24.6630 H   0  0  0  0  0  0  0  0  0  0  0  0
    1.2500   26.9280  -22.3090 H   0  0  0  0  0  0  0  0  0  0  0  0
    1.6329   29.0715  -21.7771 H   0  0  0  0  0  0  0  0  0  0  0  0
    2.5736   29.1326  -23.3062 H   0  0  0  0  0  0  0  0  0  0  0  0
    0.8304   29.5661  -23.3062 H   0  0  0  0  0  0  0  0  0  0  0  0
   -1.6901   27.0507  -26.5513 H   0  0  0  0  0  0  0  0  0  0  0  0
   -3.1080   25.6700  -30.6440 H   0  0  0  0  0  0  0  0  0  0  0  0
   -4.9213   21.6138  -32.0282 H   0  0  0  0  0  0  0  0  0  0  0  0
  1  2  1  0
  2  3  1  0
  3  4  2  0
  3  5  2  0
  3  6  1  0
  6  7  2  0
  7  8  1  0
  8  9  2  0
  9 10  1  0
 10 11  1  0
 11 12  2  0
 12 13  1  0
 13 14  2  0
 14 15  1  0
 15 16  1  0
 16 17  2  0
 17 18  1  0
 18 19  2  0
 19 20  1  0
 20 21  2  0
 21 22  1  0
 22 23  1  0
 23 24  2  0
 23 25  2  0
 23 26  1  0
 26 27  1  0
 22 28  2  0
 16 29  1  0
 10 30  2  0
 30  6  1  0
 29 12  1  0
 28 18  1  0
  1 31  1  0
  1 32  1  0
  1 33  1  0
  2 34  1  0
  7 35  1  0
  8 36  1  0
  9 37  1  0
 13 38  1  0
 14 39  1  0
 15 40  1  0
 19 41  1  0
 20 42  1  0
 21 43  1  0
 26 44  1  0
 27 45  1  0
 27 46  1  0
 27 47  1  0
 28 48  1  0
 29 49  1  0
 30 50  1  0
M  END
>  <smiles>  (20) 
CNS(=O)(=O)c1cccc(N=c2cc[nH]c(=Nc3cccc(S(=O)(=O)NC)c3)[nH]2)c1

>  <score_type>  (20) 
oracle

>  <origin>  (20) 
adgpu

>  <m_score__min__energy>  (20) 
-11.07

>  <m_primary>  (20) 
energy

$$$$
20:0
     RDKit          3D

 54 56  0  0  0  0  0  0  0  0999 V2000
  -10.2050   22.7450  -31.6040 H   0  0  0  0  0  0  0  0  0  0  0  0
   -9.1810   22.7090  -31.8040 N   0  0  0  0  0  0  0  0  0  0  0  0
   -8.5590   21.5850  -31.9630 C   0  0  0  0  0  0  0  0  0  0  0  0
   -9.2470   20.4150  -31.8580 N   0  0  0  0  0  0  0  0  0  0  0  0
   -8.6380   19.2090  -31.9880 C   0  0  0  0  0  0  0  0  0  0  0  0
   -9.2290   18.2850  -31.9053 H   0  0  0  0  0  0  0  0  0  0  0  0
   -7.2660   19.1370  -32.2260 C   0  0  0  0  0  0  0  0  0  0  0  0
   -6.6680   17.9220  -32.3230 F   0  0  0  0  0  0  0  0  0  0  0  0
   -6.5180   20.3220  -32.3360 C   0  0  0  0  0  0  0  0  0  0  0  0
   -5.0610   20.2630  -32.6020 C   0  0  0  0  0  0  0  0  0  0  0  0
   -4.5550   19.4150  -33.5940 C   0  0  0  0  0  0  0  0  0  0  0  0
   -5.2434   18.7844  -34.1758 H   0  0  0  0  0  0  0  0  0  0  0  0
   -3.1840   19.3630  -33.8510 C   0  0  0  0  0  0  0  0  0  0  0  0
   -2.8003   18.6895  -34.6315 H   0  0  0  0  0  0  0  0  0  0  0  0
   -2.2870   20.1670  -33.1180 C   0  0  0  0  0  0  0  0  0  0  0  0
   -0.8940   20.1290  -33.3190 O   0  0  0  0  0  0  0  0  0  0  0  0
   -0.0700   21.1770  -33.8370 C   0  0  0  0  0  0  0  0  0  0  0  0
   -0.4568   22.1448  -33.4851 H   0  0  0  0  0  0  0  0  0  0  0  0
    0.9592   21.0187  -33.4823 H   0  0  0  0  0  0  0  0  0  0  0  0
   -0.0620   21.1690  -35.3770 C   0  0  0  0  0  0  0  0  0  0  0  0
   -1.1101   21.1561  -35.7105 H   0  0  0  0  0  0  0  0  0  0  0  0
    0.6300   22.4290  -35.9110 C   0  0  0  0  0  0  0  0  0  0  0  0
    0.9693   23.0468  -35.0665 H   0  0  0  0  0  0  0  0  0  0  0  0
    1.4958   22.1397  -36.5248 H   0  0  0  0  0  0  0  0  0  0  0  0
   -0.0787   23.0044  -36.5248 H   0  0  0  0  0  0  0  0  0  0  0  0
    0.6220   19.9180  -35.9410 C   0  0  0  0  0  0  0  0  0  0  0  0
    0.9686   19.2841  -35.1115 H   0  0  0  0  0  0  0  0  0  0  0  0
   -0.0940   19.3553  -36.5581 H   0  0  0  0  0  0  0  0  0  0  0  0
    1.4821   20.2171  -36.5581 H   0  0  0  0  0  0  0  0  0  0  0  0
   -2.7970   21.0380  -32.1330 C   0  0  0  0  0  0  0  0  0  0  0  0
   -1.8720   21.9020  -31.3100 C   0  0  0  0  0  0  0  0  0  0  0  0
   -1.1091   22.3430  -31.9683 H   0  0  0  0  0  0  0  0  0  0  0  0
   -2.4640   22.6936  -30.8275 H   0  0  0  0  0  0  0  0  0  0  0  0
   -1.1830   21.0770  -30.2280 C   0  0  0  0  0  0  0  0  0  0  0  0
   -1.4890   21.4434  -29.2370 H   0  0  0  0  0  0  0  0  0  0  0  0
   -1.4709   20.0206  -30.3333 H   0  0  0  0  0  0  0  0  0  0  0  0
   -0.0922   21.1720  -30.3333 H   0  0  0  0  0  0  0  0  0  0  0  0
   -4.1760   21.0700  -31.8730 C   0  0  0  0  0  0  0  0  0  0  0  0
   -4.5666   21.7353  -31.0889 H   0  0  0  0  0  0  0  0  0  0  0  0
   -7.1750   21.5620  -32.2210 C   0  0  0  0  0  0  0  0  0  0  0  0
   -6.4450   22.7500  -32.3770 O   0  0  0  0  0  0  0  0  0  0  0  0
   -6.6660   23.9110  -31.5780 C   0  0  0  0  0  0  0  0  0  0  0  0
   -6.9691   24.7463  -32.2264 H   0  0  0  0  0  0  0  0  0  0  0  0
   -7.4588   23.6978  -30.8459 H   0  0  0  0  0  0  0  0  0  0  0  0
   -5.4130   24.2810  -30.8480 C   0  0  0  0  0  0  0  0  0  0  0  0
   -4.6010   25.2890  -31.2170 N   0  0  0  0  0  0  0  0  0  0  0  0
   -3.5310   25.2660  -30.4360 N   0  0  0  0  0  0  0  0  0  0  0  0
   -3.6650   24.2420  -29.5710 C   0  0  0  0  0  0  0  0  0  0  0  0
   -2.6190   23.8430  -28.5860 C   0  0  0  0  0  0  0  0  0  0  0  0
   -3.0019   23.9890  -27.5652 H   0  0  0  0  0  0  0  0  0  0  0  0
   -2.3619   22.7836  -28.7331 H   0  0  0  0  0  0  0  0  0  0  0  0
   -1.7217   24.4620  -28.7331 H   0  0  0  0  0  0  0  0  0  0  0  0
   -4.8450   23.5730  -29.8110 C   0  0  0  0  0  0  0  0  0  0  0  0
   -5.2402   22.6844  -29.2969 H   0  0  0  0  0  0  0  0  0  0  0  0
  1  2  1  0
  2  3  2  0
  3  4  1  0
  4  5  1  0
  5  6  1  0
  5  7  2  0
  7  8  1  0
  7  9  1  0
  9 10  1  0
 10 11  2  0
 11 12  1  0
 11 13  1  0
 13 14  1  0
 13 15  2  0
 15 16  1  0
 16 17  1  0
 17 18  1  0
 17 19  1  0
 17 20  1  0
 20 21  1  0
 20 22  1  0
 22 23  1  0
 22 24  1  0
 22 25  1  0
 20 26  1  0
 26 27  1  0
 26 28  1  0
 26 29  1  0
 15 30  1  0
 30 31  1  0
 31 32  1  0
 31 33  1  0
 31 34  1  0
 34 35  1  0
 34 36  1  0
 34 37  1  0
 30 38  2  0
 38 39  1  0
  9 40  2  0
 40 41  1  0
 41 42  1  0
 42 43  1  0
 42 44  1  0
 42 45  1  0
 45 46  2  0
 46 47  1  0
 47 48  1  0
 48 49  1  0
 49 50  1  0
 49 51  1  0
 49 52  1  0
 48 53  2  0
 53 54  1  0
 40  3  1  0
 53 45  1  0
 38 10  1  0
M  CHG  2   4  -1  47  -1
M  END
>  <UniqueID>  (21) 
20

>  <SMILES>  (21) 
[H]/N=c1\[n-]cc(F)c(-c2ccc(OCC(C)C)c(CC)c2)c1OCc1cc(C)[n-]n1

>  <Energy>  (21) 
85.19421618942918

>  <Genealogy>  (21) 
CCc1cc(-c2c(F)c[n-]c(=N)c2OCc2cc(C)[n-]n2)ccc1OCC(C)C (protonated)
[H]/N=c1\[n-]cc(F)c(-c2ccc(OCC(C)C)c(CC)c2)c1OCc1cc(C)[n-]n1 (cis-trans isomerization)
[H]/N=c1\[n-]cc(F)c(-c2ccc(OCC(C)C)c(CC)c2)c1OCc1cc(C)[n-]n1 (3D coordinates assigned)
[H]/N=c1\[n-]cc(F)c(-c2ccc(OCC(C)C)c(CC)c2)c1OCc1cc(C)[n-]n1 (optimized conformer: 85.19421618942918 kcal/mol)

>  <smiles>  (21) 
CCc1cc(-c2c(F)c[nH]c(=N)c2OCc2cc(C)[nH]n2)ccc1OCC(C)C

>  <score_type>  (21) 
oracle

>  <origin>  (21) 
adgpu

>  <m_score__min__energy>  (21) 
-10.890000000000001

>  <m_primary>  (21) 
energy

$$$$
21:0
     RDKit          3D

 58 60  0  0  0  0  0  0  0  0999 V2000
   -7.7720   23.1140  -31.9560 C   0  0  0  0  0  0  0  0  0  0  0  0
   -6.9980   22.3650  -30.8780 C   0  0  0  0  0  0  0  0  0  0  0  0
   -6.1990   23.3280  -30.0860 N   0  0  0  0  0  0  0  0  0  0  0  0
   -6.3050   24.7220  -30.5640 C   0  0  0  0  0  0  0  0  0  0  0  0
   -6.4650   25.6760  -29.3840 C   0  0  0  0  0  0  0  0  0  0  0  0
   -4.8010   22.8840  -29.8740 C   0  0  0  0  0  0  0  0  0  0  0  0
   -3.7730   23.6310  -30.7070 C   0  0  0  0  0  0  0  0  0  0  0  0
   -3.5240   24.8410  -30.4620 O   0  0  0  0  0  0  0  0  0  0  0  0
   -3.1980   23.0450  -31.8820 N   0  0  0  0  0  0  0  0  0  0  0  0
   -3.1890   21.6470  -32.2000 C   0  0  0  0  0  0  0  0  0  0  0  0
   -4.3600   21.0080  -32.6390 C   0  0  0  0  0  0  0  0  0  0  0  0
   -4.3530   19.6420  -32.9430 C   0  0  0  0  0  0  0  0  0  0  0  0
   -5.8230   18.8490  -33.5030 S   0  0  0  0  0  0  0  0  0  0  0  0
   -5.6030   17.3620  -33.5250 O   0  0  0  0  0  0  0  0  0  0  0  0
   -6.1420   19.3060  -34.9010 O   0  0  0  0  0  0  0  0  0  0  0  0
   -7.1330   19.2300  -32.4160 N   0  0  0  0  0  0  0  0  0  0  0  0
   -8.1470   20.0510  -33.0750 C   0  0  0  0  0  0  0  0  0  0  0  0
   -9.4580   19.7750  -32.3560 C   0  0  0  0  0  0  0  0  0  0  0  0
   -9.2630   18.4320  -31.6680 C   0  0  0  0  0  0  0  0  0  0  0  0
   -7.8320   18.0210  -31.9810 C   0  0  0  0  0  0  0  0  0  0  0  0
   -3.1800   18.8990  -32.7640 C   0  0  0  0  0  0  0  0  0  0  0  0
   -2.0210   19.5210  -32.2950 C   0  0  0  0  0  0  0  0  0  0  0  0
   -2.0190   20.8910  -32.0100 C   0  0  0  0  0  0  0  0  0  0  0  0
   -0.5040   21.6630  -31.4290 S   0  0  0  0  0  0  0  0  0  0  0  0
   -1.1360   21.8760  -29.7640 C   0  0  0  0  0  0  0  0  0  0  0  0
   -0.9070   23.0720  -29.0710 C   0  0  0  0  0  0  0  0  0  0  0  0
   -1.4180   23.2430  -27.7810 C   0  0  0  0  0  0  0  0  0  0  0  0
   -2.1550   22.2190  -27.1790 C   0  0  0  0  0  0  0  0  0  0  0  0
   -2.3760   21.0200  -27.8640 C   0  0  0  0  0  0  0  0  0  0  0  0
   -1.8630   20.8460  -29.1530 C   0  0  0  0  0  0  0  0  0  0  0  0
   -8.4854   23.8044  -31.4824 H   0  0  0  0  0  0  0  0  0  0  0  0
   -7.0701   23.6846  -32.5819 H   0  0  0  0  0  0  0  0  0  0  0  0
   -8.3192   22.3937  -32.5819 H   0  0  0  0  0  0  0  0  0  0  0  0
   -7.7039   21.8421  -30.2160 H   0  0  0  0  0  0  0  0  0  0  0  0
   -6.3271   21.6322  -31.3500 H   0  0  0  0  0  0  0  0  0  0  0  0
   -5.3940   24.9845  -31.1219 H   0  0  0  0  0  0  0  0  0  0  0  0
   -7.1856   24.8102  -31.2172 H   0  0  0  0  0  0  0  0  0  0  0  0
   -6.3708   25.1143  -28.4430 H   0  0  0  0  0  0  0  0  0  0  0  0
   -5.6840   26.4493  -29.4292 H   0  0  0  0  0  0  0  0  0  0  0  0
   -7.4556   26.1522  -29.4292 H   0  0  0  0  0  0  0  0  0  0  0  0
   -4.5521   23.0257  -28.8119 H   0  0  0  0  0  0  0  0  0  0  0  0
   -4.7547   21.8308  -30.1879 H   0  0  0  0  0  0  0  0  0  0  0  0
   -5.2901   21.5858  -32.7447 H   0  0  0  0  0  0  0  0  0  0  0  0
   -7.8855   21.1164  -32.9935 H   0  0  0  0  0  0  0  0  0  0  0  0
   -8.2212   19.8093  -34.1455 H   0  0  0  0  0  0  0  0  0  0  0  0
   -9.6641   20.5613  -31.6149 H   0  0  0  0  0  0  0  0  0  0  0  0
  -10.3114   19.7604  -33.0499 H   0  0  0  0  0  0  0  0  0  0  0  0
   -9.4058   18.5318  -30.5819 H   0  0  0  0  0  0  0  0  0  0  0  0
   -9.9892   17.6838  -32.0185 H   0  0  0  0  0  0  0  0  0  0  0  0
   -7.3511   17.6077  -31.0822 H   0  0  0  0  0  0  0  0  0  0  0  0
   -7.8046   17.2458  -32.7610 H   0  0  0  0  0  0  0  0  0  0  0  0
   -3.1713   17.8232  -32.9932 H   0  0  0  0  0  0  0  0  0  0  0  0
   -1.1044   18.9307  -32.1488 H   0  0  0  0  0  0  0  0  0  0  0  0
   -0.3245   23.8773  -29.5424 H   0  0  0  0  0  0  0  0  0  0  0  0
   -1.2400   24.1838  -27.2394 H   0  0  0  0  0  0  0  0  0  0  0  0
   -2.5613   22.3564  -26.1661 H   0  0  0  0  0  0  0  0  0  0  0  0
   -2.9536   20.2135  -27.3886 H   0  0  0  0  0  0  0  0  0  0  0  0
   -2.0304   19.8995  -29.6879 H   0  0  0  0  0  0  0  0  0  0  0  0
  1  2  1  0
  2  3  1  0
  3  4  1  0
  4  5  1  0
  3  6  1  0
  6  7  1  0
  7  8  2  0
  7  9  1  0
  9 10  1  0
 10 11  2  0
 11 12  1  0
 12 13  1  0
 13 14  2  0
 13 15  2  0
 13 16  1  0
 16 17  1  0
 17 18  1  0
 18 19  1  0
 19 20  1  0
 12 21  2  0
 21 22  1  0
 22 23  2  0
 23 24  1  0
 24 25  1  0
 25 26  2  0
 26 27  1  0
 27 28  2  0
 28 29  1  0
 29 30  2  0
 23 10  1  0
 30 25  1  0
 20 16  1  0
  1 31  1  0
  1 32  1  0
  1 33  1  0
  2 34  1  0
  2 35  1  0
  4 36  1  0
  4 37  1  0
  5 38  1  0
  5 39  1  0
  5 40  1  0
  6 41  1  0
  6 42  1  0
 11 43  1  0
 17 44  1  0
 17 45  1  0
 18 46  1  0
 18 47  1  0
 19 48  1  0
 19 49  1  0
 20 50  1  0
 20 51  1  0
 21 52  1  0
 22 53  1  0
 26 54  1  0
 27 55  1  0
 28 56  1  0
 29 57  1  0
 30 58  1  0
M  CHG  1   9  -1
M  END
>  <UniqueID>  (22) 
21

>  <SMILES>  (22) 
CCN(CC)CC(=O)[N-]c1cc(S(=O)(=O)N2CCCC2)ccc1Sc1ccccc1

>  <Energy>  (22) 
60.43777903007169

>  <Genealogy>  (22) 
CCN(CC)CC(=O)[N-]c1cc(S(=O)(=O)N2CCCC2)ccc1Sc1ccccc1 (protonated)
CCN(CC)CC(=O)[N-]c1cc(S(=O)(=O)N2CCCC2)ccc1Sc1ccccc1 (3D coordinates assigned)
CCN(CC)CC(=O)[N-]c1cc(S(=O)(=O)N2CCCC2)ccc1Sc1ccccc1 (nonaromatic ring conformer: 60.43777903007169 kcal/mol)

>  <smiles>  (22) 
CCN(CC)CC(=O)Nc1cc(S(=O)(=O)N2CCCC2)ccc1Sc1ccccc1

>  <score_type>  (22) 
oracle

>  <origin>  (22) 
adgpu

>  <m_score__min__energy>  (22) 
-11.199999999999999

>  <m_primary>  (22) 
energy

$$$$
22:0
     RDKit          3D

 54 57  0  0  0  0  0  0  0  0999 V2000
   -8.9110   20.7780  -32.2950 C   0  0  0  0  0  0  0  0  0  0  0  0
   -7.9900   21.8250  -31.7440 C   0  0  0  0  0  0  0  0  0  0  0  0
   -7.2500   22.6440  -32.6110 C   0  0  0  0  0  0  0  0  0  0  0  0
   -6.4160   23.6420  -32.0990 C   0  0  0  0  0  0  0  0  0  0  0  0
   -6.3230   23.8390  -30.7140 C   0  0  0  0  0  0  0  0  0  0  0  0
   -5.2450   25.0630  -30.0490 S   0  0  0  0  0  0  0  0  0  0  0  0
   -5.7100   26.4400  -30.4360 O   0  0  0  0  0  0  0  0  0  0  0  0
   -5.2660   24.9590  -28.5510 O   0  0  0  0  0  0  0  0  0  0  0  0
   -3.6180   24.8090  -30.6120 N   0  0  0  0  0  0  0  0  0  0  0  0
   -2.7120   24.4510  -29.5150 C   0  0  0  0  0  0  0  0  0  0  0  0
   -2.0870   23.0630  -29.7170 C   0  0  0  0  0  0  0  0  0  0  0  0
   -3.1130   21.9350  -29.9400 C   0  0  0  0  0  0  0  0  0  0  0  0
   -2.7260   20.9970  -31.0130 N   0  0  0  0  0  0  0  0  0  0  0  0
   -3.7110   20.3480  -31.8520 C   0  0  0  0  0  0  0  0  0  0  0  0
   -4.9340   19.9450  -31.2750 C   0  0  0  0  0  0  0  0  0  0  0  0
   -5.9250   19.3300  -32.0340 C   0  0  0  0  0  0  0  0  0  0  0  0
   -5.7140   19.0840  -33.3860 C   0  0  0  0  0  0  0  0  0  0  0  0
   -4.5070   19.4450  -33.9790 C   0  0  0  0  0  0  0  0  0  0  0  0
   -3.4860   20.0760  -33.2410 C   0  0  0  0  0  0  0  0  0  0  0  0
   -2.1990   20.3400  -34.0140 C   0  0  0  0  0  0  0  0  0  0  0  0
   -1.1580   21.2560  -33.3650 C   0  0  0  0  0  0  0  0  0  0  0  0
   -0.5850   20.6060  -32.1430 C   0  0  0  0  0  0  0  0  0  0  0  0
    0.7240   20.0970  -32.1370 C   0  0  0  0  0  0  0  0  0  0  0  0
    1.2350   19.4890  -30.9870 C   0  0  0  0  0  0  0  0  0  0  0  0
    0.4430   19.3810  -29.8420 C   0  0  0  0  0  0  0  0  0  0  0  0
   -0.8640   19.8770  -29.8470 C   0  0  0  0  0  0  0  0  0  0  0  0
   -1.3850   20.4840  -31.0010 C   0  0  0  0  0  0  0  0  0  0  0  0
   -7.0740   23.0360  -29.8470 C   0  0  0  0  0  0  0  0  0  0  0  0
   -7.9080   22.0380  -30.3600 C   0  0  0  0  0  0  0  0  0  0  0  0
   -9.3880   20.2358  -31.4652 H   0  0  0  0  0  0  0  0  0  0  0  0
   -9.6847   21.2582  -32.9120 H   0  0  0  0  0  0  0  0  0  0  0  0
   -8.3360   20.0718  -32.9120 H   0  0  0  0  0  0  0  0  0  0  0  0
   -7.3268   22.4997  -33.6988 H   0  0  0  0  0  0  0  0  0  0  0  0
   -5.8316   24.2740  -32.7839 H   0  0  0  0  0  0  0  0  0  0  0  0
   -1.9071   25.1987  -29.4604 H   0  0  0  0  0  0  0  0  0  0  0  0
   -3.2971   24.4287  -28.5838 H   0  0  0  0  0  0  0  0  0  0  0  0
   -1.4260   23.1067  -30.5951 H   0  0  0  0  0  0  0  0  0  0  0  0
   -1.5476   22.8210  -28.7894 H   0  0  0  0  0  0  0  0  0  0  0  0
   -3.2187   21.3689  -29.0028 H   0  0  0  0  0  0  0  0  0  0  0  0
   -4.0570   22.4092  -30.2466 H   0  0  0  0  0  0  0  0  0  0  0  0
   -5.1076   20.1206  -30.2031 H   0  0  0  0  0  0  0  0  0  0  0  0
   -6.8758   19.0383  -31.5640 H   0  0  0  0  0  0  0  0  0  0  0  0
   -6.5004   18.6043  -33.9871 H   0  0  0  0  0  0  0  0  0  0  0  0
   -4.3472   19.2330  -35.0465 H   0  0  0  0  0  0  0  0  0  0  0  0
   -1.7165   19.3676  -34.1919 H   0  0  0  0  0  0  0  0  0  0  0  0
   -2.5210   20.8788  -34.9173 H   0  0  0  0  0  0  0  0  0  0  0  0
   -0.3494   21.4535  -34.0842 H   0  0  0  0  0  0  0  0  0  0  0  0
   -1.6425   22.2000  -33.0750 H   0  0  0  0  0  0  0  0  0  0  0  0
    1.3482   20.1770  -33.0392 H   0  0  0  0  0  0  0  0  0  0  0  0
    2.2621   19.0952  -30.9838 H   0  0  0  0  0  0  0  0  0  0  0  0
    0.8475   18.9057  -28.9362 H   0  0  0  0  0  0  0  0  0  0  0  0
   -1.4863   19.7915  -28.9440 H   0  0  0  0  0  0  0  0  0  0  0  0
   -7.0077   23.1907  -28.7600 H   0  0  0  0  0  0  0  0  0  0  0  0
   -8.5030   21.4165  -29.6746 H   0  0  0  0  0  0  0  0  0  0  0  0
  1  2  1  0
  2  3  2  0
  3  4  1  0
  4  5  2  0
  5  6  1  0
  6  7  2  0
  6  8  2  0
  6  9  1  0
  9 10  1  0
 10 11  1  0
 11 12  1  0
 12 13  1  0
 13 14  1  0
 14 15  2  0
 15 16  1  0
 16 17  2  0
 17 18  1  0
 18 19  2  0
 19 20  1  0
 20 21  1  0
 21 22  1  0
 22 23  2  0
 23 24  1  0
 24 25  2  0
 25 26  1  0
 26 27  2  0
  5 28  1  0
 28 29  2  0
 29  2  1  0
 27 13  1  0
 19 14  1  0
 27 22  1  0
  1 30  1  0
  1 31  1  0
  1 32  1  0
  3 33  1  0
  4 34  1  0
 10 35  1  0
 10 36  1  0
 11 37  1  0
 11 38  1  0
 12 39  1  0
 12 40  1  0
 15 41  1  0
 16 42  1  0
 17 43  1  0
 18 44  1  0
 20 45  1  0
 20 46  1  0
 21 47  1  0
 21 48  1  0
 23 49  1  0
 24 50  1  0
 25 51  1  0
 26 52  1  0
 28 53  1  0
 29 54  1  0
M  CHG  1   9  -1
M  END
>  <UniqueID>  (23) 
22

>  <SMILES>  (23) 
Cc1ccc(S(=O)(=O)[N-]CCCN2c3ccccc3CCc3ccccc32)cc1

>  <Energy>  (23) 
70.42642945876415

>  <Genealogy>  (23) 
Cc1ccc(S(=O)(=O)[N-]CCCN2c3ccccc3CCc3ccccc32)cc1 (protonated)
Cc1ccc(S(=O)(=O)[N-]CCCN2c3ccccc3CCc3ccccc32)cc1 (3D coordinates assigned)
Cc1ccc(S(=O)(=O)[N-]CCCN2c3ccccc3CCc3ccccc32)cc1 (nonaromatic ring conformer: 70.42642945876415 kcal/mol)

>  <smiles>  (23) 
Cc1ccc(S(=O)(=O)NCCCN2c3ccccc3CCc3ccccc32)cc1

>  <score_type>  (23) 
oracle

>  <origin>  (23) 
adgpu

>  <m_score__min__energy>  (23) 
-9.1600000000000001

>  <m_primary>  (23) 
energy

$$$$
23:0
     RDKit          3D

 42 44  0  0  0  0  0  0  0  0999 V2000
   -6.7882   24.4303  -29.3463 H   0  0  0  0  0  0  0  0  0  0  0  0
   -5.9560   23.7830  -29.6600 C   0  0  0  0  0  0  0  0  0  0  0  0
   -4.6240   24.0960  -29.1290 C   0  0  0  0  0  0  0  0  0  0  0  0
   -3.6810   24.9110  -29.7090 C   0  0  0  0  0  0  0  0  0  0  0  0
   -3.8660   25.6780  -30.8520 O   0  0  0  0  0  0  0  0  0  0  0  0
   -2.5280   24.8690  -29.0130 N   0  0  0  0  0  0  0  0  0  0  0  0
   -2.8080   23.9900  -28.0260 C   0  0  0  0  0  0  0  0  0  0  0  0
   -1.9690   23.6570  -27.1490 O   0  0  0  0  0  0  0  0  0  0  0  0
   -4.0590   23.4910  -28.0730 N   0  0  0  0  0  0  0  0  0  0  0  0
   -4.4790   22.7640  -27.4500 H   0  0  0  0  0  0  0  0  0  0  0  0
   -6.2450   22.7700  -30.4990 C   0  0  0  0  0  0  0  0  0  0  0  0
   -7.4510   22.6630  -31.1600 C   0  0  0  0  0  0  0  0  0  0  0  0
   -8.2893   23.3693  -31.0683 H   0  0  0  0  0  0  0  0  0  0  0  0
   -7.4450   21.5640  -31.9330 N   0  0  0  0  0  0  0  0  0  0  0  0
   -6.2380   20.9970  -31.7160 C   0  0  0  0  0  0  0  0  0  0  0  0
   -5.8460   19.8690  -32.3350 C   0  0  0  0  0  0  0  0  0  0  0  0
   -4.8596   19.4500  -32.0871 H   0  0  0  0  0  0  0  0  0  0  0  0
   -6.6950   19.1540  -33.3510 C   0  0  0  0  0  0  0  0  0  0  0  0
   -6.0388   18.6948  -34.1051 H   0  0  0  0  0  0  0  0  0  0  0  0
   -7.3705   19.8887  -33.8135 H   0  0  0  0  0  0  0  0  0  0  0  0
   -7.5500   18.0580  -32.7010 C   0  0  0  0  0  0  0  0  0  0  0  0
   -6.8974   17.4161  -32.0911 H   0  0  0  0  0  0  0  0  0  0  0  0
   -8.0355   17.4891  -33.5076 H   0  0  0  0  0  0  0  0  0  0  0  0
   -8.6500   18.6300  -31.8070 C   0  0  0  0  0  0  0  0  0  0  0  0
   -8.3757   18.4874  -30.7513 H   0  0  0  0  0  0  0  0  0  0  0  0
   -8.7686   19.7040  -32.0131 H   0  0  0  0  0  0  0  0  0  0  0  0
   -9.5973   18.1103  -32.0131 H   0  0  0  0  0  0  0  0  0  0  0  0
   -5.4750   21.6990  -30.8310 N   0  0  0  0  0  0  0  0  0  0  0  0
   -4.2080   21.2470  -30.2270 C   0  0  0  0  0  0  0  0  0  0  0  0
   -3.9683   21.9090  -29.3819 H   0  0  0  0  0  0  0  0  0  0  0  0
   -4.3526   20.2041  -29.9083 H   0  0  0  0  0  0  0  0  0  0  0  0
   -3.0420   21.2630  -31.1970 C   0  0  0  0  0  0  0  0  0  0  0  0
   -3.2310   21.5200  -32.5720 C   0  0  0  0  0  0  0  0  0  0  0  0
   -4.2421   21.7238  -32.9542 H   0  0  0  0  0  0  0  0  0  0  0  0
   -2.1460   21.5180  -33.4520 C   0  0  0  0  0  0  0  0  0  0  0  0
   -2.3053   21.7301  -34.5195 H   0  0  0  0  0  0  0  0  0  0  0  0
   -0.8620   21.2480  -32.9810 C   0  0  0  0  0  0  0  0  0  0  0  0
   -0.0091   21.2543  -33.6757 H   0  0  0  0  0  0  0  0  0  0  0  0
   -0.6580   20.9700  -31.6300 C   0  0  0  0  0  0  0  0  0  0  0  0
    0.3561   20.7526  -31.2634 H   0  0  0  0  0  0  0  0  0  0  0  0
   -1.7370   20.9660  -30.7370 C   0  0  0  0  0  0  0  0  0  0  0  0
   -1.4110   20.5860  -29.0490 Cl  0  0  0  0  0  0  0  0  0  0  0  0
  1  2  1  0
  2  3  1  0
  3  4  2  0
  4  5  1  0
  4  6  1  0
  6  7  1  0
  7  8  2  0
  7  9  1  0
  9 10  1  0
  2 11  2  3
 11 12  1  0
 12 13  1  0
 12 14  2  0
 14 15  1  0
 15 16  2  0
 16 17  1  0
 16 18  1  0
 18 19  1  0
 18 20  1  0
 18 21  1  0
 21 22  1  0
 21 23  1  0
 21 24  1  0
 24 25  1  0
 24 26  1  0
 24 27  1  0
 15 28  1  0
 28 29  1  0
 29 30  1  0
 29 31  1  0
 29 32  1  0
 32 33  2  0
 33 34  1  0
 33 35  1  0
 35 36  1  0
 35 37  2  0
 37 38  1  0
 37 39  1  0
 39 40  1  0
 39 41  2  0
 41 42  1  0
  9  3  1  0
 28 11  1  0
 41 32  1  0
M  CHG  2   5  -1   6  -1
M  END
>  <UniqueID>  (24) 
23

>  <SMILES>  (24) 
CCC/C=c1\ncc(=Cc2[nH]c(=O)[n-]c2[O-])n1Cc1ccccc1Cl

>  <Energy>  (24) 
113.64065149954419

>  <Genealogy>  (24) 
CCCC=c1ncc(=Cc2[nH]c(=O)[n-]c2[O-])n1Cc1ccccc1Cl (protonated)
CCC/C=c1\ncc(=Cc2[nH]c(=O)[n-]c2[O-])n1Cc1ccccc1Cl (cis-trans isomerization)
CCC/C=c1\ncc(=Cc2[nH]c(=O)[n-]c2[O-])n1Cc1ccccc1Cl (3D coordinates assigned)
CCC/C=c1\ncc(=Cc2[nH]c(=O)[n-]c2[O-])n1Cc1ccccc1Cl (optimized conformer: 113.64065149954419 kcal/mol)

>  <smiles>  (24) 
CCCC=c1ncc(=Cc2[nH]c(=O)[nH]c2O)n1Cc1ccccc1Cl

>  <score_type>  (24) 
oracle

>  <origin>  (24) 
adgpu

>  <m_score__min__energy>  (24) 
-11.470000000000001

>  <m_primary>  (24) 
energy

$$$$
24:0
     RDKit          3D

 58 61  0  0  0  0  0  0  0  0999 V2000
   -1.7970   25.6850  -28.6470 O   0  0  0  0  0  0  0  0  0  0  0  0
   -1.4220   24.2320  -28.5500 S   0  0  0  0  0  0  0  0  0  0  0  0
   -0.4210   23.9280  -29.6330 O   0  0  0  0  0  0  0  0  0  0  0  0
   -2.8540   23.2640  -28.7670 N   0  0  0  0  0  0  0  0  0  0  0  0
   -3.1630   23.0650  -30.1840 C   0  0  0  0  0  0  0  0  0  0  0  0
   -4.3340   23.9040  -30.6080 C   0  0  0  0  0  0  0  0  0  0  0  0
   -4.6060   25.1010  -30.0450 N   0  0  0  0  0  0  0  0  0  0  0  0
   -5.7280   25.5160  -30.6660 C   0  0  0  0  0  0  0  0  0  0  0  0
   -6.1270   24.5690  -31.5810 C   0  0  0  0  0  0  0  0  0  0  0  0
   -5.2500   23.5500  -31.5410 N   0  0  0  0  0  0  0  0  0  0  0  0
   -5.3180   22.3260  -32.3470 C   0  0  0  0  0  0  0  0  0  0  0  0
   -6.6140   21.5940  -32.1050 C   0  0  0  0  0  0  0  0  0  0  0  0
   -7.5040   22.0250  -31.1080 C   0  0  0  0  0  0  0  0  0  0  0  0
   -8.7050   21.3430  -30.8890 C   0  0  0  0  0  0  0  0  0  0  0  0
   -9.0280   20.2290  -31.6670 C   0  0  0  0  0  0  0  0  0  0  0  0
   -8.1550   19.8000  -32.6700 C   0  0  0  0  0  0  0  0  0  0  0  0
   -6.9540   20.4820  -32.8930 C   0  0  0  0  0  0  0  0  0  0  0  0
   -0.7190   23.9360  -26.9640 C   0  0  0  0  0  0  0  0  0  0  0  0
   -1.0900   22.7920  -26.2450 C   0  0  0  0  0  0  0  0  0  0  0  0
   -0.5060   22.5180  -25.0060 C   0  0  0  0  0  0  0  0  0  0  0  0
    0.4510   23.3880  -24.4760 C   0  0  0  0  0  0  0  0  0  0  0  0
    0.8220   24.5420  -25.1830 C   0  0  0  0  0  0  0  0  0  0  0  0
    2.0130   25.6600  -24.5220 S   0  0  0  0  0  0  0  0  0  0  0  0
    3.0780   24.8930  -23.7880 O   0  0  0  0  0  0  0  0  0  0  0  0
    2.6520   26.4040  -25.6620 O   0  0  0  0  0  0  0  0  0  0  0  0
    1.2090   26.7790  -23.4400 N   0  0  0  0  0  0  0  0  0  0  0  0
   -0.2630   26.6440  -23.5260 C   0  0  0  0  0  0  0  0  0  0  0  0
   -0.8530   27.2450  -24.8150 C   0  0  0  0  0  0  0  0  0  0  0  0
   -0.1980   28.5780  -25.2190 C   0  0  0  0  0  0  0  0  0  0  0  0
    0.6380   29.1710  -24.0880 C   0  0  0  0  0  0  0  0  0  0  0  0
    1.7110   28.1710  -23.6250 C   0  0  0  0  0  0  0  0  0  0  0  0
    0.2290   24.8160  -26.4230 C   0  0  0  0  0  0  0  0  0  0  0  0
   -2.2852   23.3443  -30.7852 H   0  0  0  0  0  0  0  0  0  0  0  0
   -3.4188   22.0065  -30.3392 H   0  0  0  0  0  0  0  0  0  0  0  0
   -6.2457   26.4668  -30.4710 H   0  0  0  0  0  0  0  0  0  0  0  0
   -7.0107   24.6341  -32.2328 H   0  0  0  0  0  0  0  0  0  0  0  0
   -5.2479   22.5917  -33.4121 H   0  0  0  0  0  0  0  0  0  0  0  0
   -4.4841   21.6689  -32.0594 H   0  0  0  0  0  0  0  0  0  0  0  0
   -7.2550   22.9042  -30.4957 H   0  0  0  0  0  0  0  0  0  0  0  0
   -9.3956   21.6840  -30.1037 H   0  0  0  0  0  0  0  0  0  0  0  0
   -9.9700   19.6892  -31.4901 H   0  0  0  0  0  0  0  0  0  0  0  0
   -8.4123   18.9250  -33.2850 H   0  0  0  0  0  0  0  0  0  0  0  0
   -6.2730   20.1460  -33.6888 H   0  0  0  0  0  0  0  0  0  0  0  0
   -1.8446   22.1065  -26.6581 H   0  0  0  0  0  0  0  0  0  0  0  0
   -0.7994   21.6171  -24.4472 H   0  0  0  0  0  0  0  0  0  0  0  0
    0.9142   23.1677  -23.5029 H   0  0  0  0  0  0  0  0  0  0  0  0
    1.4750   26.4720  -22.4750 H   0  0  0  0  0  0  0  0  0  0  0  0
   -0.5187   25.5747  -23.4899 H   0  0  0  0  0  0  0  0  0  0  0  0
   -0.6923   27.2003  -22.6797 H   0  0  0  0  0  0  0  0  0  0  0  0
   -0.7113   26.5239  -25.6335 H   0  0  0  0  0  0  0  0  0  0  0  0
   -1.9167   27.4491  -24.6228 H   0  0  0  0  0  0  0  0  0  0  0  0
    0.4531   28.4045  -26.0884 H   0  0  0  0  0  0  0  0  0  0  0  0
   -1.0002   29.2916  -25.4584 H   0  0  0  0  0  0  0  0  0  0  0  0
    1.1290   30.0886  -24.4444 H   0  0  0  0  0  0  0  0  0  0  0  0
   -0.0242   29.3981  -23.2395 H   0  0  0  0  0  0  0  0  0  0  0  0
    2.5126   28.1516  -24.3781 H   0  0  0  0  0  0  0  0  0  0  0  0
    2.0602   28.5149  -22.6402 H   0  0  0  0  0  0  0  0  0  0  0  0
    0.5087   25.7258  -26.9744 H   0  0  0  0  0  0  0  0  0  0  0  0
  1  2  2  0
  2  3  2  0
  2  4  1  0
  4  5  1  0
  5  6  1  0
  6  7  2  0
  7  8  1  0
  8  9  2  0
  9 10  1  0
 10 11  1  0
 11 12  1  0
 12 13  2  0
 13 14  1  0
 14 15  2  0
 15 16  1  0
 16 17  2  0
  2 18  1  0
 18 19  2  0
 19 20  1  0
 20 21  2  0
 21 22  1  0
 22 23  1  0
 23 24  2  0
 23 25  2  0
 23 26  1  0
 26 27  1  0
 27 28  1  0
 28 29  1  0
 29 30  1  0
 30 31  1  0
 22 32  2  0
 10  6  1  0
 17 12  1  0
 32 18  1  0
 31 26  1  0
  5 33  1  0
  5 34  1  0
  8 35  1  0
  9 36  1  0
 11 37  1  0
 11 38  1  0
 13 39  1  0
 14 40  1  0
 15 41  1  0
 16 42  1  0
 17 43  1  0
 19 44  1  0
 20 45  1  0
 21 46  1  0
 26 47  1  0
 27 48  1  0
 27 49  1  0
 28 50  1  0
 28 51  1  0
 29 52  1  0
 29 53  1  0
 30 54  1  0
 30 55  1  0
 31 56  1  0
 31 57  1  0
 32 58  1  0
M  CHG  2   4  -1  26   1
M  END
>  <UniqueID>  (25) 
24

>  <SMILES>  (25) 
O=S(=O)([N-]Cc1nccn1Cc1ccccc1)c1cccc(S(=O)(=O)[NH+]2CCCCC2)c1

>  <Energy>  (25) 
88.80407271720158

>  <Genealogy>  (25) 
O=S(=O)([N-]Cc1nccn1Cc1ccccc1)c1cccc(S(=O)(=O)[NH+]2CCCCC2)c1 (protonated)
O=S(=O)([N-]Cc1nccn1Cc1ccccc1)c1cccc(S(=O)(=O)[NH+]2CCCCC2)c1 (3D coordinates assigned)
O=S(=O)([N-]Cc1nccn1Cc1ccccc1)c1cccc(S(=O)(=O)[NH+]2CCCCC2)c1 (nonaromatic ring conformer: 88.80407271720158 kcal/mol)

>  <smiles>  (25) 
O=S(=O)(NCc1nccn1Cc1ccccc1)c1cccc(S(=O)(=O)N2CCCCC2)c1

>  <score_type>  (25) 
oracle

>  <origin>  (25) 
adgpu

>  <m_score__min__energy>  (25) 
-10.949999999999999

>  <m_primary>  (25) 
energy

$$$$
25:0
     RDKit          3D

 35 37  0  0  0  0  0  0  0  0999 V2000
   -1.4420   25.6600  -29.3430 N   0  0  0  0  0  0  0  0  0  0  0  0
   -1.2130   25.1160  -27.7190 S   0  0  0  0  0  0  0  0  0  0  0  0
    0.2440   25.2050  -27.3590 O   0  0  0  0  0  0  0  0  0  0  0  0
   -2.0000   26.0020  -26.7950 O   0  0  0  0  0  0  0  0  0  0  0  0
   -1.7540   23.4410  -27.5740 C   0  0  0  0  0  0  0  0  0  0  0  0
   -0.9180   22.4890  -26.9690 C   0  0  0  0  0  0  0  0  0  0  0  0
   -1.3310   21.1620  -26.8470 C   0  0  0  0  0  0  0  0  0  0  0  0
   -2.5820   20.7720  -27.3270 C   0  0  0  0  0  0  0  0  0  0  0  0
   -3.4230   21.7080  -27.9330 C   0  0  0  0  0  0  0  0  0  0  0  0
   -3.0170   23.0500  -28.0680 C   0  0  0  0  0  0  0  0  0  0  0  0
   -3.8590   24.0280  -28.6980 N   0  0  0  0  0  0  0  0  0  0  0  0
   -4.0840   24.2120  -30.4070 S   0  0  0  0  0  0  0  0  0  0  0  0
   -2.8730   23.6800  -31.1220 O   0  0  0  0  0  0  0  0  0  0  0  0
   -4.2420   25.6710  -30.7310 O   0  0  0  0  0  0  0  0  0  0  0  0
   -5.4970   23.2980  -30.9260 C   0  0  0  0  0  0  0  0  0  0  0  0
   -6.7680   23.8870  -30.8610 C   0  0  0  0  0  0  0  0  0  0  0  0
   -7.8980   23.1770  -31.2770 C   0  0  0  0  0  0  0  0  0  0  0  0
   -7.7660   21.8730  -31.7630 C   0  0  0  0  0  0  0  0  0  0  0  0
   -8.8650   21.1810  -32.1690 N   0  0  0  0  0  0  0  0  0  0  0  0
   -8.7720   19.9110  -32.6500 C   0  0  0  0  0  0  0  0  0  0  0  0
   -9.8130   19.3060  -33.0170 O   0  0  0  0  0  0  0  0  0  0  0  0
   -7.5260   19.2830  -32.7370 C   0  0  0  0  0  0  0  0  0  0  0  0
   -6.3800   19.9670  -32.3250 C   0  0  0  0  0  0  0  0  0  0  0  0
   -6.4880   21.2730  -31.8320 C   0  0  0  0  0  0  0  0  0  0  0  0
   -5.3580   21.9900  -31.4110 C   0  0  0  0  0  0  0  0  0  0  0  0
   -2.3620   25.2830  -29.6650 H   0  0  0  0  0  0  0  0  0  0  0  0
    0.0689   22.7913  -26.5888 H   0  0  0  0  0  0  0  0  0  0  0  0
   -0.6698   20.4223  -26.3719 H   0  0  0  0  0  0  0  0  0  0  0  0
   -2.9063   19.7256  -27.2279 H   0  0  0  0  0  0  0  0  0  0  0  0
   -4.4089   21.3951  -28.3073 H   0  0  0  0  0  0  0  0  0  0  0  0
   -6.8764   24.9134  -30.4805 H   0  0  0  0  0  0  0  0  0  0  0  0
   -8.8920   23.6449  -31.2219 H   0  0  0  0  0  0  0  0  0  0  0  0
   -7.4487   18.2574  -33.1272 H   0  0  0  0  0  0  0  0  0  0  0  0
   -5.3952   19.4809  -32.3877 H   0  0  0  0  0  0  0  0  0  0  0  0
   -4.3622   21.5255  -31.4615 H   0  0  0  0  0  0  0  0  0  0  0  0
  1  2  1  0
  2  3  2  0
  2  4  2  0
  2  5  1  0
  5  6  2  0
  6  7  1  0
  7  8  2  0
  8  9  1  0
  9 10  2  0
 10 11  1  0
 11 12  1  0
 12 13  2  0
 12 14  2  0
 12 15  1  0
 15 16  2  0
 16 17  1  0
 17 18  2  0
 18 19  1  0
 19 20  1  0
 20 21  2  0
 20 22  1  0
 22 23  2  0
 23 24  1  0
 24 25  2  0
 10  5  1  0
 25 15  1  0
 24 18  1  0
  1 26  1  0
  6 27  1  0
  7 28  1  0
  8 29  1  0
  9 30  1  0
 16 31  1  0
 17 32  1  0
 22 33  1  0
 23 34  1  0
 25 35  1  0
M  CHG  3   1  -1  11  -1  19  -1
M  END
>  <UniqueID>  (26) 
25

>  <SMILES>  (26) 
[NH-]S(=O)(=O)c1ccccc1[N-]S(=O)(=O)c1ccc2[n-]c(=O)ccc2c1

>  <Energy>  (26) 
44.700071484076744

>  <Genealogy>  (26) 
[NH-]S(=O)(=O)c1ccccc1[N-]S(=O)(=O)c1ccc2[n-]c(=O)ccc2c1 (protonated)
[NH-]S(=O)(=O)c1ccccc1[N-]S(=O)(=O)c1ccc2[n-]c(=O)ccc2c1 (3D coordinates assigned)
[NH-]S(=O)(=O)c1ccccc1[N-]S(=O)(=O)c1ccc2[n-]c(=O)ccc2c1 (optimized conformer: 44.700071484076744 kcal/mol)

>  <smiles>  (26) 
NS(=O)(=O)c1ccccc1NS(=O)(=O)c1ccc2[nH]c(=O)ccc2c1

>  <score_type>  (26) 
oracle

>  <origin>  (26) 
adgpu

>  <m_score__min__energy>  (26) 
-12.289999999999999

>  <m_primary>  (26) 
energy

$$$$
26:0
     RDKit          3D

 45 49  0  0  0  0  0  0  0  0999 V2000
   -6.3260   16.0890  -34.2690 H   0  0  0  0  0  0  0  0  0  0  0  0
   -7.0780   16.3030  -33.5750 N   0  0  0  0  0  0  0  0  0  0  0  0
   -7.2170   17.4920  -33.0940 C   0  0  0  0  0  0  0  0  0  0  0  0
   -8.1610   17.8070  -32.1870 N   0  0  0  0  0  0  0  0  0  0  0  0
   -8.0900   19.0770  -31.7940 N   0  0  0  0  0  0  0  0  0  0  0  0
   -7.0940   19.7800  -32.3880 C   0  0  0  0  0  0  0  0  0  0  0  0
   -6.7540   21.1750  -32.0310 C   0  0  0  0  0  0  0  0  0  0  0  0
   -5.5540   21.7660  -32.4670 C   0  0  0  0  0  0  0  0  0  0  0  0
   -4.9038   21.2264  -33.1714 H   0  0  0  0  0  0  0  0  0  0  0  0
   -5.1820   23.0350  -32.0110 C   0  0  0  0  0  0  0  0  0  0  0  0
   -4.2439   23.4896  -32.3621 H   0  0  0  0  0  0  0  0  0  0  0  0
   -5.9980   23.7290  -31.1100 C   0  0  0  0  0  0  0  0  0  0  0  0
   -5.4340   25.2110  -30.3430 S   0  0  0  0  0  0  0  0  0  0  0  0
   -6.1290   25.3630  -29.0170 O   0  0  0  0  0  0  0  0  0  0  0  0
   -5.7270   26.4080  -31.2050 O   0  0  0  0  0  0  0  0  0  0  0  0
   -3.7220   25.1080  -30.0680 N   0  0  0  0  0  0  0  0  0  0  0  0
   -3.0540   24.0420  -29.3740 C   0  0  0  0  0  0  0  0  0  0  0  0
   -2.2600   23.1000  -30.0500 C   0  0  0  0  0  0  0  0  0  0  0  0
   -2.0841   23.2097  -31.1303 H   0  0  0  0  0  0  0  0  0  0  0  0
   -1.6920   22.0250  -29.3610 C   0  0  0  0  0  0  0  0  0  0  0  0
   -1.8730   21.8980  -27.9720 C   0  0  0  0  0  0  0  0  0  0  0  0
   -2.6230   22.8670  -27.2890 C   0  0  0  0  0  0  0  0  0  0  0  0
   -2.7484   22.7910  -26.1988 H   0  0  0  0  0  0  0  0  0  0  0  0
   -3.2150   23.9330  -27.9850 C   0  0  0  0  0  0  0  0  0  0  0  0
   -3.9740   24.8860  -27.3030 O   0  0  0  0  0  0  0  0  0  0  0  0
   -4.4860   25.6070  -27.7940 H   0  0  0  0  0  0  0  0  0  0  0  0
   -1.2470   20.7570  -27.2060 C   0  0  0  0  0  0  0  0  0  0  0  0
   -0.5038   21.1742  -26.5106 H   0  0  0  0  0  0  0  0  0  0  0  0
   -2.0656   20.2346  -26.6892 H   0  0  0  0  0  0  0  0  0  0  0  0
   -0.5590   19.7340  -28.0780 C   0  0  0  0  0  0  0  0  0  0  0  0
   -0.0190   18.5730  -27.4960 C   0  0  0  0  0  0  0  0  0  0  0  0
   -0.1129   18.4107  -26.4121 H   0  0  0  0  0  0  0  0  0  0  0  0
    0.6370   17.6230  -28.2870 C   0  0  0  0  0  0  0  0  0  0  0  0
    1.0522   16.7148  -27.8258 H   0  0  0  0  0  0  0  0  0  0  0  0
    0.7640   17.8290  -29.6620 C   0  0  0  0  0  0  0  0  0  0  0  0
    1.2807   17.0834  -30.2843 H   0  0  0  0  0  0  0  0  0  0  0  0
    0.2350   18.9820  -30.2480 C   0  0  0  0  0  0  0  0  0  0  0  0
    0.3379   19.1414  -31.3315 H   0  0  0  0  0  0  0  0  0  0  0  0
   -0.4250   19.9350  -29.4640 C   0  0  0  0  0  0  0  0  0  0  0  0
   -0.9550   21.0770  -30.0700 O   0  0  0  0  0  0  0  0  0  0  0  0
   -7.2230   23.1740  -30.7210 C   0  0  0  0  0  0  0  0  0  0  0  0
   -7.8920   23.7362  -30.0529 H   0  0  0  0  0  0  0  0  0  0  0  0
   -7.5990   21.9070  -31.1790 C   0  0  0  0  0  0  0  0  0  0  0  0
   -8.5643   21.4797  -30.8698 H   0  0  0  0  0  0  0  0  0  0  0  0
   -6.2330   18.8050  -33.4690 S   0  0  0  0  0  0  0  0  0  0  0  0
  1  2  1  0
  2  3  2  0
  3  4  1  0
  4  5  1  0
  5  6  2  0
  6  7  1  0
  7  8  2  0
  8  9  1  0
  8 10  1  0
 10 11  1  0
 10 12  2  0
 12 13  1  0
 13 14  2  0
 13 15  2  0
 13 16  1  0
 16 17  1  0
 17 18  2  0
 18 19  1  0
 18 20  1  0
 20 21  2  0
 21 22  1  0
 22 23  1  0
 22 24  2  0
 24 25  1  0
 25 26  1  0
 21 27  1  0
 27 28  1  0
 27 29  1  0
 27 30  1  0
 30 31  2  0
 31 32  1  0
 31 33  1  0
 33 34  1  0
 33 35  2  0
 35 36  1  0
 35 37  1  0
 37 38  1  0
 37 39  2  0
 39 40  1  0
 12 41  1  0
 41 42  1  0
 41 43  2  0
 43 44  1  0
  6 45  1  0
 45  3  1  0
 43  7  1  0
 24 17  1  0
 39 30  1  0
 40 20  1  0
M  CHG  2   4  -1  16  -1
M  END
>  <UniqueID>  (27) 
26

>  <SMILES>  (27) 
[H]/N=c1/[n-]nc(-c2ccc(S(=O)(=O)[N-]c3cc4c(cc3O)Cc3ccccc3O4)cc2)s1

>  <Energy>  (27) 
93.97380015749305

>  <Genealogy>  (27) 
N=c1[n-]nc(-c2ccc(S(=O)(=O)[N-]c3cc4c(cc3O)Cc3ccccc3O4)cc2)s1 (protonated)
[H]/N=c1/[n-]nc(-c2ccc(S(=O)(=O)[N-]c3cc4c(cc3O)Cc3ccccc3O4)cc2)s1 (cis-trans isomerization)
[H]/N=c1/[n-]nc(-c2ccc(S(=O)(=O)[N-]c3cc4c(cc3O)Cc3ccccc3O4)cc2)s1 (3D coordinates assigned)
[H]/N=c1/[n-]nc(-c2ccc(S(=O)(=O)[N-]c3cc4c(cc3O)Cc3ccccc3O4)cc2)s1 (nonaromatic ring conformer: 93.97380015749305 kcal/mol)

>  <smiles>  (27) 
N=c1[nH]nc(-c2ccc(S(=O)(=O)Nc3cc4c(cc3O)Cc3ccccc3O4)cc2)s1

>  <score_type>  (27) 
oracle

>  <origin>  (27) 
adgpu

>  <m_score__min__energy>  (27) 
-12.57

>  <m_primary>  (27) 
energy

$$$$
27:0
     RDKit          3D

 39 40  0  0  0  0  0  0  0  0999 V2000
   -4.4420   18.7590  -34.0710 C   0  0  0  0  0  0  0  0  0  0  0  0
   -4.1040   20.0220  -33.4060 N   0  0  0  0  0  0  0  0  0  0  0  0
   -2.7430   20.5610  -33.4780 C   0  0  0  0  0  0  0  0  0  0  0  0
   -5.1190   20.7370  -32.6760 C   0  0  0  0  0  0  0  0  0  0  0  0
   -6.4150   20.3280  -32.7210 N   0  0  0  0  0  0  0  0  0  0  0  0
   -7.3780   21.0000  -32.0370 C   0  0  0  0  0  0  0  0  0  0  0  0
   -8.7500   20.5610  -32.0910 N   0  0  0  0  0  0  0  0  0  0  0  0
   -9.0510   19.1460  -32.3270 C   0  0  0  0  0  0  0  0  0  0  0  0
   -9.8310   21.5340  -31.9120 C   0  0  0  0  0  0  0  0  0  0  0  0
   -7.0340   22.0900  -31.3020 N   0  0  0  0  0  0  0  0  0  0  0  0
   -5.7440   22.5090  -31.2420 C   0  0  0  0  0  0  0  0  0  0  0  0
   -5.3890   23.6730  -30.4720 N   0  0  0  0  0  0  0  0  0  0  0  0
   -6.3960   24.5720  -30.0760 C   0  0  0  0  0  0  0  0  0  0  0  0
   -7.2250   25.3120  -29.7490 N   0  0  0  0  0  0  0  0  0  0  0  0
   -4.0130   24.0010  -30.2050 C   0  0  0  0  0  0  0  0  0  0  0  0
   -3.5920   25.1610  -30.4650 O   0  0  0  0  0  0  0  0  0  0  0  0
   -3.0800   23.0070  -29.6180 C   0  0  0  0  0  0  0  0  0  0  0  0
   -1.9180   22.6140  -30.3040 C   0  0  0  0  0  0  0  0  0  0  0  0
   -1.0510   21.6880  -29.7210 C   0  0  0  0  0  0  0  0  0  0  0  0
   -1.3250   21.1750  -28.4920 N   0  0  0  0  0  0  0  0  0  0  0  0
   -2.4340   21.5440  -27.7990 C   0  0  0  0  0  0  0  0  0  0  0  0
   -3.3280   22.4690  -28.3450 C   0  0  0  0  0  0  0  0  0  0  0  0
   -4.7920   21.8290  -31.9350 N   0  0  0  0  0  0  0  0  0  0  0  0
   -4.6480   17.9891  -33.3128 H   0  0  0  0  0  0  0  0  0  0  0  0
   -5.3333   18.9026  -34.6994 H   0  0  0  0  0  0  0  0  0  0  0  0
   -3.5981   18.4382  -34.6994 H   0  0  0  0  0  0  0  0  0  0  0  0
   -2.3551   20.7146  -32.4602 H   0  0  0  0  0  0  0  0  0  0  0  0
   -2.0955   19.8514  -34.0139 H   0  0  0  0  0  0  0  0  0  0  0  0
   -2.7569   21.5215  -34.0139 H   0  0  0  0  0  0  0  0  0  0  0  0
   -9.1610   18.6287  -31.3625 H   0  0  0  0  0  0  0  0  0  0  0  0
   -9.9874   19.0606  -32.8978 H   0  0  0  0  0  0  0  0  0  0  0  0
   -8.2304   18.6868  -32.8978 H   0  0  0  0  0  0  0  0  0  0  0  0
  -10.0073   21.6927  -30.8379 H   0  0  0  0  0  0  0  0  0  0  0  0
   -9.5477   22.4874  -32.3819 H   0  0  0  0  0  0  0  0  0  0  0  0
  -10.7494   21.1523  -32.3819 H   0  0  0  0  0  0  0  0  0  0  0  0
   -1.6928   23.0340  -31.2954 H   0  0  0  0  0  0  0  0  0  0  0  0
   -0.1439   21.3726  -30.2573 H   0  0  0  0  0  0  0  0  0  0  0  0
   -2.6286   21.1135  -26.8056 H   0  0  0  0  0  0  0  0  0  0  0  0
   -4.2214   22.7740  -27.7804 H   0  0  0  0  0  0  0  0  0  0  0  0
  1  2  1  0
  2  3  1  0
  2  4  1  0
  4  5  2  0
  5  6  1  0
  6  7  1  0
  7  8  1  0
  7  9  1  0
  6 10  2  0
 10 11  1  0
 11 12  1  0
 12 13  1  0
 13 14  3  0
 12 15  1  0
 15 16  2  0
 15 17  1  0
 17 18  2  0
 18 19  1  0
 19 20  2  0
 20 21  1  0
 21 22  2  0
 11 23  2  0
 23  4  1  0
 22 17  1  0
  1 24  1  0
  1 25  1  0
  1 26  1  0
  3 27  1  0
  3 28  1  0
  3 29  1  0
  8 30  1  0
  8 31  1  0
  8 32  1  0
  9 33  1  0
  9 34  1  0
  9 35  1  0
 18 36  1  0
 19 37  1  0
 21 38  1  0
 22 39  1  0
M  END
>  <UniqueID>  (28) 
27

>  <SMILES>  (28) 
CN(C)c1nc(N(C)C)nc(N(C#N)C(=O)c2ccncc2)n1

>  <Energy>  (28) 
40.15638365060116

>  <Genealogy>  (28) 
CN(C)c1nc(N(C)C)nc(N(C#N)C(=O)c2ccncc2)n1 (3D coordinates assigned)
CN(C)c1nc(N(C)C)nc(N(C#N)C(=O)c2ccncc2)n1 (optimized conformer: 40.15638365060116 kcal/mol)

>  <smiles>  (28) 
CN(C)c1nc(N(C)C)nc(N(C#N)C(=O)c2ccncc2)n1

>  <score_type>  (28) 
oracle

>  <origin>  (28) 
adgpu

>  <m_score__min__energy>  (28) 
-6.6299999999999999

>  <m_primary>  (28) 
energy

$$$$
28:0
     RDKit          3D

 59 62  0  0  0  0  0  0  0  0999 V2000
   -5.1040   21.1488  -34.3151 H   0  0  0  0  0  0  0  0  0  0  0  0
   -4.4460   21.3670  -33.4610 C   0  0  0  0  0  0  0  0  0  0  0  0
   -3.1070   21.1700  -33.5670 N   0  0  0  0  0  0  0  0  0  0  0  0
   -2.2740   21.4170  -32.5180 C   0  0  0  0  0  0  0  0  0  0  0  0
   -0.9870   21.2490  -32.6230 N   0  0  0  0  0  0  0  0  0  0  0  0
   -0.2730   20.7330  -33.7590 C   0  0  0  0  0  0  0  0  0  0  0  0
   -0.0580   19.3560  -33.9430 C   0  0  0  0  0  0  0  0  0  0  0  0
   -0.4344   18.6387  -33.1988 H   0  0  0  0  0  0  0  0  0  0  0  0
    0.6310   18.8950  -35.0660 C   0  0  0  0  0  0  0  0  0  0  0  0
    0.7754   17.8144  -35.2123 H   0  0  0  0  0  0  0  0  0  0  0  0
    1.1410   19.8000  -36.0100 C   0  0  0  0  0  0  0  0  0  0  0  0
    1.8860   19.2940  -37.2130 C   0  0  0  0  0  0  0  0  0  0  0  0
    2.7546   18.7041  -36.8850 H   0  0  0  0  0  0  0  0  0  0  0  0
    1.2198   18.6608  -37.8173 H   0  0  0  0  0  0  0  0  0  0  0  0
    2.2290   20.1467  -37.8173 H   0  0  0  0  0  0  0  0  0  0  0  0
    0.9960   21.1830  -35.7890 C   0  0  0  0  0  0  0  0  0  0  0  0
    1.5280   22.1190  -36.7300 N   0  0  0  0  0  0  0  0  0  0  0  0
    1.9800   23.7410  -36.3100 S   0  0  0  0  0  0  0  0  0  0  0  0
    2.0950   24.5530  -37.5700 O   0  0  0  0  0  0  0  0  0  0  0  0
    0.9150   24.3350  -35.4310 O   0  0  0  0  0  0  0  0  0  0  0  0
    3.5350   23.8040  -35.4410 C   0  0  0  0  0  0  0  0  0  0  0  0
    3.3497   23.7965  -34.3568 H   0  0  0  0  0  0  0  0  0  0  0  0
    4.1438   22.9298  -35.7150 H   0  0  0  0  0  0  0  0  0  0  0  0
    4.0711   24.7246  -35.7150 H   0  0  0  0  0  0  0  0  0  0  0  0
    0.2790   21.6370  -34.6730 C   0  0  0  0  0  0  0  0  0  0  0  0
    0.1488   22.7176  -34.5140 H   0  0  0  0  0  0  0  0  0  0  0  0
   -2.7870   21.8920  -31.3540 N   0  0  0  0  0  0  0  0  0  0  0  0
   -4.1210   22.1240  -31.2030 C   0  0  0  0  0  0  0  0  0  0  0  0
   -4.6190   22.6370  -29.9530 N   0  0  0  0  0  0  0  0  0  0  0  0
   -3.7100   23.2970  -29.0460 C   0  0  0  0  0  0  0  0  0  0  0  0
   -3.4220   22.7500  -27.7830 C   0  0  0  0  0  0  0  0  0  0  0  0
   -3.8997   21.8087  -27.4737 H   0  0  0  0  0  0  0  0  0  0  0  0
   -2.5330   23.3940  -26.9180 C   0  0  0  0  0  0  0  0  0  0  0  0
   -2.3296   22.9665  -25.9251 H   0  0  0  0  0  0  0  0  0  0  0  0
   -1.9000   24.5800  -27.3080 C   0  0  0  0  0  0  0  0  0  0  0  0
   -0.9710   25.2110  -26.4160 N   0  0  0  0  0  0  0  0  0  0  0  0
   -1.4470   26.1870  -25.4360 C   0  0  0  0  0  0  0  0  0  0  0  0
   -1.3900   27.1975  -25.8668 H   0  0  0  0  0  0  0  0  0  0  0  0
   -2.4901   25.9616  -25.1695 H   0  0  0  0  0  0  0  0  0  0  0  0
   -0.5710   26.1160  -24.1810 C   0  0  0  0  0  0  0  0  0  0  0  0
   -0.8452   26.9374  -23.5027 H   0  0  0  0  0  0  0  0  0  0  0  0
   -0.7343   25.1447  -23.6913 H   0  0  0  0  0  0  0  0  0  0  0  0
    0.8000   26.2300  -24.5180 O   0  0  0  0  0  0  0  0  0  0  0  0
    1.2000   25.1180  -25.2990 C   0  0  0  0  0  0  0  0  0  0  0  0
    2.2839   25.1748  -25.4778 H   0  0  0  0  0  0  0  0  0  0  0  0
    0.9481   24.1967  -24.7533 H   0  0  0  0  0  0  0  0  0  0  0  0
    0.4700   25.1040  -26.6450 C   0  0  0  0  0  0  0  0  0  0  0  0
    0.8089   25.9540  -27.2554 H   0  0  0  0  0  0  0  0  0  0  0  0
    0.6899   24.1645  -27.1731 H   0  0  0  0  0  0  0  0  0  0  0  0
   -2.1870   25.1370  -28.5650 C   0  0  0  0  0  0  0  0  0  0  0  0
   -1.5900   26.3280  -28.9650 O   0  0  0  0  0  0  0  0  0  0  0  0
   -3.0900   24.5020  -29.4250 C   0  0  0  0  0  0  0  0  0  0  0  0
   -3.3168   24.9481  -30.4045 H   0  0  0  0  0  0  0  0  0  0  0  0
   -6.0670   22.7280  -29.7310 C   0  0  0  0  0  0  0  0  0  0  0  0
   -6.2722   22.7409  -28.6504 H   0  0  0  0  0  0  0  0  0  0  0  0
   -6.4507   23.6520  -30.1881 H   0  0  0  0  0  0  0  0  0  0  0  0
   -6.5633   21.8593  -30.1881 H   0  0  0  0  0  0  0  0  0  0  0  0
   -4.9860   21.8460  -32.2690 C   0  0  0  0  0  0  0  0  0  0  0  0
   -6.0700   22.0027  -32.1673 H   0  0  0  0  0  0  0  0  0  0  0  0
  1  2  1  0
  2  3  1  0
  3  4  1  0
  4  5  2  0
  5  6  1  0
  6  7  2  0
  7  8  1  0
  7  9  1  0
  9 10  1  0
  9 11  2  0
 11 12  1  0
 12 13  1  0
 12 14  1  0
 12 15  1  0
 11 16  1  0
 16 17  1  0
 17 18  1  0
 18 19  2  0
 18 20  2  0
 18 21  1  0
 21 22  1  0
 21 23  1  0
 21 24  1  0
 16 25  2  0
 25 26  1  0
  4 27  1  0
 27 28  2  0
 28 29  1  0
 29 30  1  0
 30 31  2  0
 31 32  1  0
 31 33  1  0
 33 34  1  0
 33 35  2  0
 35 36  1  0
 36 37  1  0
 37 38  1  0
 37 39  1  0
 37 40  1  0
 40 41  1  0
 40 42  1  0
 40 43  1  0
 43 44  1  0
 44 45  1  0
 44 46  1  0
 44 47  1  0
 47 48  1  0
 47 49  1  0
 35 50  1  0
 50 51  1  0
 50 52  2  0
 52 53  1  0
 29 54  1  0
 54 55  1  0
 54 56  1  0
 54 57  1  0
 28 58  1  0
 58 59  1  0
 58  2  2  0
 25  6  1  0
 52 30  1  0
 47 36  1  0
M  CHG  3   3  -1  17  -1  51  -1
M  END
>  <UniqueID>  (29) 
28

>  <SMILES>  (29) 
Cc1ccc(/N=c2/nc(N(C)c3ccc(N4CCOCC4)c([O-])c3)cc[n-]2)cc1[N-]S(C)(=O)=O

>  <Energy>  (29) 
89.10624874105694

>  <Genealogy>  (29) 
Cc1ccc(N=c2nc(N(C)c3ccc(N4CCOCC4)c([O-])c3)cc[n-]2)cc1[N-]S(C)(=O)=O (protonated)
Cc1ccc(/N=c2/nc(N(C)c3ccc(N4CCOCC4)c([O-])c3)cc[n-]2)cc1[N-]S(C)(=O)=O (cis-trans isomerization)
Cc1ccc(/N=c2/nc(N(C)c3ccc(N4CCOCC4)c([O-])c3)cc[n-]2)cc1[N-]S(C)(=O)=O (3D coordinates assigned)
Cc1ccc(/N=c2/nc(N(C)c3ccc(N4CCOCC4)c([O-])c3)cc[n-]2)cc1[N-]S(C)(=O)=O (nonaromatic ring conformer: 89.10624874105694 kcal/mol)

>  <smiles>  (29) 
Cc1ccc(N=c2nc(N(C)c3ccc(N4CCOCC4)c(O)c3)cc[nH]2)cc1NS(C)(=O)=O

>  <score_type>  (29) 
oracle

>  <origin>  (29) 
adgpu

>  <m_score__min__energy>  (29) 
-12.720000000000001

>  <m_primary>  (29) 
energy

$$$$
29:0
     RDKit          3D

 29 31  0  0  0  0  0  0  0  0999 V2000
   -3.8780   25.6640  -30.4700 O   0  0  0  0  0  0  0  0  0  0  0  0
   -3.2090   24.5590  -29.9560 C   0  0  0  0  0  0  0  0  0  0  0  0
   -3.7930   23.2930  -30.0370 C   0  0  0  0  0  0  0  0  0  0  0  0
   -3.1260   22.1780  -29.5230 C   0  0  0  0  0  0  0  0  0  0  0  0
   -1.8620   22.3140  -28.9210 C   0  0  0  0  0  0  0  0  0  0  0  0
   -1.1670   21.1200  -28.3800 C   0  0  0  0  0  0  0  0  0  0  0  0
    0.0750   20.6370  -28.7510 C   0  0  0  0  0  0  0  0  0  0  0  0
    0.2520   19.5130  -27.9640 C   0  0  0  0  0  0  0  0  0  0  0  0
    1.4060   18.5810  -27.9770 C   0  0  0  0  0  0  0  0  0  0  0  0
    2.6280   19.0210  -28.5200 C   0  0  0  0  0  0  0  0  0  0  0  0
    3.7420   18.1770  -28.5400 C   0  0  0  0  0  0  0  0  0  0  0  0
    3.6500   16.8840  -28.0270 C   0  0  0  0  0  0  0  0  0  0  0  0
    2.4420   16.4260  -27.5000 C   0  0  0  0  0  0  0  0  0  0  0  0
    1.3130   17.2610  -27.4790 C   0  0  0  0  0  0  0  0  0  0  0  0
    0.1060   16.7660  -26.9900 O   0  0  0  0  0  0  0  0  0  0  0  0
   -0.8340   19.3400  -27.1840 N   0  0  0  0  0  0  0  0  0  0  0  0
   -1.6920   20.3160  -27.4340 N   0  0  0  0  0  0  0  0  0  0  0  0
   -1.2820   23.5960  -28.8440 C   0  0  0  0  0  0  0  0  0  0  0  0
   -1.9540   24.7110  -29.3590 C   0  0  0  0  0  0  0  0  0  0  0  0
   -1.3680   25.9690  -29.2760 O   0  0  0  0  0  0  0  0  0  0  0  0
   -4.7805   23.1733  -30.5066 H   0  0  0  0  0  0  0  0  0  0  0  0
   -3.5937   21.1846  -29.5897 H   0  0  0  0  0  0  0  0  0  0  0  0
    0.7647   21.0520  -29.5008 H   0  0  0  0  0  0  0  0  0  0  0  0
    2.7069   20.0378  -28.9321 H   0  0  0  0  0  0  0  0  0  0  0  0
    4.6934   18.5338  -28.9614 H   0  0  0  0  0  0  0  0  0  0  0  0
    4.5303   16.2245  -28.0377 H   0  0  0  0  0  0  0  0  0  0  0  0
    2.3735   15.4042  -27.0984 H   0  0  0  0  0  0  0  0  0  0  0  0
   -0.5120   17.3340  -26.4230 H   0  0  0  0  0  0  0  0  0  0  0  0
   -0.2945   23.7215  -28.3760 H   0  0  0  0  0  0  0  0  0  0  0  0
  1  2  1  0
  2  3  2  0
  3  4  1  0
  4  5  2  0
  5  6  1  0
  6  7  1  0
  7  8  2  0
  8  9  1  0
  9 10  2  0
 10 11  1  0
 11 12  2  0
 12 13  1  0
 13 14  2  0
 14 15  1  0
  8 16  1  0
 16 17  1  0
  5 18  1  0
 18 19  2  0
 19 20  1  0
 19  2  1  0
 17  6  2  0
 14  9  1  0
  3 21  1  0
  4 22  1  0
  7 23  1  0
 10 24  1  0
 11 25  1  0
 12 26  1  0
 13 27  1  0
 15 28  1  0
 18 29  1  0
M  CHG  3   1  -1  16  -1  20  -1
M  END
>  <UniqueID>  (30) 
29

>  <SMILES>  (30) 
[O-]c1ccc(-c2cc(-c3ccccc3O)[n-]n2)cc1[O-]

>  <Energy>  (30) 
66.88976849848964

>  <Genealogy>  (30) 
[O-]c1ccc(-c2cc(-c3ccccc3O)[n-]n2)cc1[O-] (protonated)
[O-]c1ccc(-c2cc(-c3ccccc3O)[n-]n2)cc1[O-] (3D coordinates assigned)
[O-]c1ccc(-c2cc(-c3ccccc3O)[n-]n2)cc1[O-] (optimized conformer: 66.88976849848964 kcal/mol)

>  <smiles>  (30) 
Oc1ccc(-c2cc(-c3ccccc3O)[nH]n2)cc1O

>  <score_type>  (30) 
oracle

>  <origin>  (30) 
adgpu

>  <m_score__min__energy>  (30) 
-11.34

>  <m_primary>  (30) 
energy

$$$$
30:0
     RDKit          3D

 52 54  0  0  0  0  0  0  0  0999 V2000
   -3.1080   18.9100  -26.5060 C   0  0  0  0  0  0  0  0  0  0  0  0
   -2.0770   19.9370  -26.8620 C   0  0  0  0  0  0  0  0  0  0  0  0
   -1.3800   20.4450  -25.9440 O   0  0  0  0  0  0  0  0  0  0  0  0
   -1.8820   20.3880  -28.2090 N   0  0  0  0  0  0  0  0  0  0  0  0
   -2.3210   21.6380  -28.7580 C   0  0  0  0  0  0  0  0  0  0  0  0
   -2.8510   21.6620  -30.0540 C   0  0  0  0  0  0  0  0  0  0  0  0
   -3.2940   22.8630  -30.6150 C   0  0  0  0  0  0  0  0  0  0  0  0
   -3.2150   24.0550  -29.8840 C   0  0  0  0  0  0  0  0  0  0  0  0
   -3.6850   25.2720  -30.4800 N   0  0  0  0  0  0  0  0  0  0  0  0
   -5.0570   25.6340  -30.6840 C   0  0  0  0  0  0  0  0  0  0  0  0
   -5.4410   26.7840  -30.3450 O   0  0  0  0  0  0  0  0  0  0  0  0
   -6.0730   24.6450  -31.1780 C   0  0  0  0  0  0  0  0  0  0  0  0
   -6.8410   23.7970  -29.7560 S   0  0  0  0  0  0  0  0  0  0  0  0
   -7.3950   22.3960  -30.7280 C   0  0  0  0  0  0  0  0  0  0  0  0
   -8.7300   21.9900  -30.6840 C   0  0  0  0  0  0  0  0  0  0  0  0
   -9.1620   20.9240  -31.4750 C   0  0  0  0  0  0  0  0  0  0  0  0
   -8.2680   20.2560  -32.3210 C   0  0  0  0  0  0  0  0  0  0  0  0
   -8.7580   19.1950  -33.0850 O   0  0  0  0  0  0  0  0  0  0  0  0
   -6.9140   20.6680  -32.3750 C   0  0  0  0  0  0  0  0  0  0  0  0
   -5.7440   19.8740  -33.4400 S   0  0  0  0  0  0  0  0  0  0  0  0
   -4.6490   20.8490  -33.7800 O   0  0  0  0  0  0  0  0  0  0  0  0
   -6.4560   19.4640  -34.6990 O   0  0  0  0  0  0  0  0  0  0  0  0
   -5.0640   18.4620  -32.6510 N   0  0  0  0  0  0  0  0  0  0  0  0
   -4.6360   17.4360  -33.6280 C   0  0  0  0  0  0  0  0  0  0  0  0
   -5.6840   16.3240  -33.8180 C   0  0  0  0  0  0  0  0  0  0  0  0
   -6.9840   16.8360  -33.6370 O   0  0  0  0  0  0  0  0  0  0  0  0
   -7.1890   17.1880  -32.2790 C   0  0  0  0  0  0  0  0  0  0  0  0
   -5.9770   17.9050  -31.6370 C   0  0  0  0  0  0  0  0  0  0  0  0
   -6.4900   21.7290  -31.5600 C   0  0  0  0  0  0  0  0  0  0  0  0
   -2.7510   24.0200  -28.5600 C   0  0  0  0  0  0  0  0  0  0  0  0
   -2.3030   22.8200  -28.0010 C   0  0  0  0  0  0  0  0  0  0  0  0
   -3.1857   18.8326  -25.4115 H   0  0  0  0  0  0  0  0  0  0  0  0
   -4.0815   19.2080  -26.9226 H   0  0  0  0  0  0  0  0  0  0  0  0
   -2.8138   17.9354  -26.9226 H   0  0  0  0  0  0  0  0  0  0  0  0
   -2.9191   20.7299  -30.6341 H   0  0  0  0  0  0  0  0  0  0  0  0
   -3.7064   22.8721  -31.6347 H   0  0  0  0  0  0  0  0  0  0  0  0
   -6.8486   25.1726  -31.7525 H   0  0  0  0  0  0  0  0  0  0  0  0
   -5.5786   23.9036  -31.8228 H   0  0  0  0  0  0  0  0  0  0  0  0
   -9.4416   22.5102  -30.0259 H   0  0  0  0  0  0  0  0  0  0  0  0
  -10.2142   20.6058  -31.4334 H   0  0  0  0  0  0  0  0  0  0  0  0
   -8.1900   18.6670  -33.7340 H   0  0  0  0  0  0  0  0  0  0  0  0
   -4.4613   17.9246  -34.5979 H   0  0  0  0  0  0  0  0  0  0  0  0
   -3.7203   16.9671  -33.2385 H   0  0  0  0  0  0  0  0  0  0  0  0
   -5.5951   15.9124  -34.8342 H   0  0  0  0  0  0  0  0  0  0  0  0
   -5.5051   15.5350  -33.0727 H   0  0  0  0  0  0  0  0  0  0  0  0
   -8.0602   17.8570  -32.2205 H   0  0  0  0  0  0  0  0  0  0  0  0
   -7.3433   16.2520  -31.7221 H   0  0  0  0  0  0  0  0  0  0  0  0
   -6.3447   18.7244  -31.0019 H   0  0  0  0  0  0  0  0  0  0  0  0
   -5.4177   17.1642  -31.0468 H   0  0  0  0  0  0  0  0  0  0  0  0
   -5.4348   22.0393  -31.5757 H   0  0  0  0  0  0  0  0  0  0  0  0
   -2.7399   24.9415  -27.9593 H   0  0  0  0  0  0  0  0  0  0  0  0
   -1.9351   22.8017  -26.9645 H   0  0  0  0  0  0  0  0  0  0  0  0
  1  2  1  0
  2  3  2  0
  2  4  1  0
  4  5  1  0
  5  6  2  0
  6  7  1  0
  7  8  2  0
  8  9  1  0
  9 10  1  0
 10 11  2  0
 10 12  1  0
 12 13  1  0
 13 14  1  0
 14 15  2  0
 15 16  1  0
 16 17  2  0
 17 18  1  0
 17 19  1  0
 19 20  1  0
 20 21  2  0
 20 22  2  0
 20 23  1  0
 23 24  1  0
 24 25  1  0
 25 26  1  0
 26 27  1  0
 27 28  1  0
 19 29  2  0
  8 30  1  0
 30 31  2  0
 31  5  1  0
 29 14  1  0
 28 23  1  0
  1 32  1  0
  1 33  1  0
  1 34  1  0
  6 35  1  0
  7 36  1  0
 12 37  1  0
 12 38  1  0
 15 39  1  0
 16 40  1  0
 18 41  1  0
 24 42  1  0
 24 43  1  0
 25 44  1  0
 25 45  1  0
 27 46  1  0
 27 47  1  0
 28 48  1  0
 28 49  1  0
 29 50  1  0
 30 51  1  0
 31 52  1  0
M  CHG  2   4  -1   9  -1
M  END
>  <UniqueID>  (31) 
30

>  <SMILES>  (31) 
CC(=O)[N-]c1ccc([N-]C(=O)CSc2ccc(O)c(S(=O)(=O)N3CCOCC3)c2)cc1

>  <Energy>  (31) 
65.84386944690671

>  <Genealogy>  (31) 
CC(=O)[N-]c1ccc([N-]C(=O)CSc2ccc(O)c(S(=O)(=O)N3CCOCC3)c2)cc1 (protonated)
CC(=O)[N-]c1ccc([N-]C(=O)CSc2ccc(O)c(S(=O)(=O)N3CCOCC3)c2)cc1 (3D coordinates assigned)
CC(=O)[N-]c1ccc([N-]C(=O)CSc2ccc(O)c(S(=O)(=O)N3CCOCC3)c2)cc1 (nonaromatic ring conformer: 65.84386944690671 kcal/mol)

>  <smiles>  (31) 
CC(=O)Nc1ccc(NC(=O)CSc2ccc(O)c(S(=O)(=O)N3CCOCC3)c2)cc1

>  <score_type>  (31) 
oracle

>  <origin>  (31) 
adgpu

>  <m_score__min__energy>  (31) 
-10.93

>  <m_primary>  (31) 
energy

$$$$
31:0
     RDKit          3D

 48 51  0  0  0  0  0  0  0  0999 V2000
   -1.6160   18.8890  -27.0820 C   0  0  0  0  0  0  0  0  0  0  0  0
   -1.5590   20.3840  -27.1930 C   0  0  0  0  0  0  0  0  0  0  0  0
   -2.7480   21.1170  -27.3120 C   0  0  0  0  0  0  0  0  0  0  0  0
   -2.7060   22.5010  -27.4860 C   0  0  0  0  0  0  0  0  0  0  0  0
   -1.4760   23.1680  -27.5540 C   0  0  0  0  0  0  0  0  0  0  0  0
   -1.4480   24.8890  -27.9330 S   0  0  0  0  0  0  0  0  0  0  0  0
   -2.0270   25.6460  -26.7690 O   0  0  0  0  0  0  0  0  0  0  0  0
   -0.0410   25.3590  -28.1810 O   0  0  0  0  0  0  0  0  0  0  0  0
   -2.4120   25.1820  -29.3460 N   0  0  0  0  0  0  0  0  0  0  0  0
   -3.0550   24.1310  -30.0810 C   0  0  0  0  0  0  0  0  0  0  0  0
   -2.3100   23.0430  -30.5580 C   0  0  0  0  0  0  0  0  0  0  0  0
   -2.9460   21.9440  -31.1300 C   0  0  0  0  0  0  0  0  0  0  0  0
   -4.3390   21.9050  -31.2400 C   0  0  0  0  0  0  0  0  0  0  0  0
   -4.9610   20.6950  -31.6910 N   0  0  0  0  0  0  0  0  0  0  0  0
   -4.6270   20.1240  -32.9680 C   0  0  0  0  0  0  0  0  0  0  0  0
   -3.8620   20.7550  -33.7500 O   0  0  0  0  0  0  0  0  0  0  0  0
   -5.1830   18.8180  -33.3950 C   0  0  0  0  0  0  0  0  0  0  0  0
   -4.4870   17.9940  -34.2980 C   0  0  0  0  0  0  0  0  0  0  0  0
   -5.0460   16.7740  -34.6890 C   0  0  0  0  0  0  0  0  0  0  0  0
   -6.2560   16.3880  -34.2030 N   0  0  0  0  0  0  0  0  0  0  0  0
   -6.9560   17.1650  -33.3340 C   0  0  0  0  0  0  0  0  0  0  0  0
   -6.4360   18.3930  -32.9180 C   0  0  0  0  0  0  0  0  0  0  0  0
   -5.1030   23.0330  -30.8560 C   0  0  0  0  0  0  0  0  0  0  0  0
   -6.5000   23.0650  -31.0410 C   0  0  0  0  0  0  0  0  0  0  0  0
   -7.2410   24.1800  -30.6430 C   0  0  0  0  0  0  0  0  0  0  0  0
   -6.6040   25.2740  -30.0600 C   0  0  0  0  0  0  0  0  0  0  0  0
   -5.2220   25.2650  -29.8740 C   0  0  0  0  0  0  0  0  0  0  0  0
   -4.4520   24.1560  -30.2760 C   0  0  0  0  0  0  0  0  0  0  0  0
   -0.2870   22.4400  -27.4280 C   0  0  0  0  0  0  0  0  0  0  0  0
   -0.3270   21.0540  -27.2550 C   0  0  0  0  0  0  0  0  0  0  0  0
   -1.6270   18.6003  -26.0206 H   0  0  0  0  0  0  0  0  0  0  0  0
   -2.5289   18.5195  -27.5720 H   0  0  0  0  0  0  0  0  0  0  0  0
   -0.7339   18.4510  -27.5720 H   0  0  0  0  0  0  0  0  0  0  0  0
   -3.7176   20.5994  -27.2681 H   0  0  0  0  0  0  0  0  0  0  0  0
   -3.6431   23.0708  -27.5702 H   0  0  0  0  0  0  0  0  0  0  0  0
   -1.2129   23.0577  -30.4796 H   0  0  0  0  0  0  0  0  0  0  0  0
   -2.3465   21.0986  -31.4987 H   0  0  0  0  0  0  0  0  0  0  0  0
   -5.8340   20.3830  -31.2060 H   0  0  0  0  0  0  0  0  0  0  0  0
   -3.5097   18.3076  -34.6936 H   0  0  0  0  0  0  0  0  0  0  0  0
   -4.5052   16.1238  -35.3924 H   0  0  0  0  0  0  0  0  0  0  0  0
   -7.9327   16.8263  -32.9582 H   0  0  0  0  0  0  0  0  0  0  0  0
   -7.0044   19.0252  -32.2200 H   0  0  0  0  0  0  0  0  0  0  0  0
   -7.0099   22.2062  -31.5019 H   0  0  0  0  0  0  0  0  0  0  0  0
   -8.3310   24.1948  -30.7902 H   0  0  0  0  0  0  0  0  0  0  0  0
   -7.1936   26.1478  -29.7454 H   0  0  0  0  0  0  0  0  0  0  0  0
   -4.7288   26.1315  -29.4093 H   0  0  0  0  0  0  0  0  0  0  0  0
    0.6814   22.9604  -27.4653 H   0  0  0  0  0  0  0  0  0  0  0  0
    0.6107   20.4857  -27.1670 H   0  0  0  0  0  0  0  0  0  0  0  0
  1  2  1  0
  2  3  2  0
  3  4  1  0
  4  5  2  0
  5  6  1  0
  6  7  2  0
  6  8  2  0
  6  9  1  0
  9 10  1  0
 10 11  2  0
 11 12  1  0
 12 13  2  0
 13 14  1  0
 14 15  1  0
 15 16  2  0
 15 17  1  0
 17 18  2  0
 18 19  1  0
 19 20  2  0
 20 21  1  0
 21 22  2  0
 13 23  1  0
 23 24  2  0
 24 25  1  0
 25 26  2  0
 26 27  1  0
 27 28  2  0
  5 29  1  0
 29 30  2  0
 30  2  1  0
 28 10  1  0
 22 17  1  0
 28 23  1  0
  1 31  1  0
  1 32  1  0
  1 33  1  0
  3 34  1  0
  4 35  1  0
 11 36  1  0
 12 37  1  0
 14 38  1  0
 18 39  1  0
 19 40  1  0
 21 41  1  0
 22 42  1  0
 24 43  1  0
 25 44  1  0
 26 45  1  0
 27 46  1  0
 29 47  1  0
 30 48  1  0
M  CHG  1   9  -1
M  END
>  <UniqueID>  (32) 
31

>  <SMILES>  (32) 
Cc1ccc(S(=O)(=O)[N-]c2ccc(NC(=O)c3ccncc3)c3ccccc23)cc1

>  <Energy>  (32) 
71.7631806937666

>  <Genealogy>  (32) 
Cc1ccc(S(=O)(=O)[N-]c2ccc(NC(=O)c3ccncc3)c3ccccc23)cc1 (protonated)
Cc1ccc(S(=O)(=O)[N-]c2ccc(NC(=O)c3ccncc3)c3ccccc23)cc1 (3D coordinates assigned)
Cc1ccc(S(=O)(=O)[N-]c2ccc(NC(=O)c3ccncc3)c3ccccc23)cc1 (optimized conformer: 71.7631806937666 kcal/mol)

>  <smiles>  (32) 
Cc1ccc(S(=O)(=O)Nc2ccc(NC(=O)c3ccncc3)c3ccccc23)cc1

>  <score_type>  (32) 
oracle

>  <origin>  (32) 
adgpu

>  <m_score__min__energy>  (32) 
-10.99

>  <m_primary>  (32) 
energy

$$$$
32:0
     RDKit          3D

 26 28  0  0  0  0  0  0  0  0999 V2000
   -2.0840   25.2580  -29.3270 O   0  0  0  0  0  0  0  0  0  0  0  0
   -2.8120   24.1830  -29.8240 C   0  0  0  0  0  0  0  0  0  0  0  0
   -2.3720   22.8800  -29.5740 C   0  0  0  0  0  0  0  0  0  0  0  0
   -3.0910   21.7880  -30.0660 C   0  0  0  0  0  0  0  0  0  0  0  0
   -4.2630   21.9830  -30.8180 C   0  0  0  0  0  0  0  0  0  0  0  0
   -5.0150   20.8130  -31.3330 C   0  0  0  0  0  0  0  0  0  0  0  0
   -4.4900   19.6740  -31.9220 C   0  0  0  0  0  0  0  0  0  0  0  0
   -5.6050   18.9150  -32.2130 C   0  0  0  0  0  0  0  0  0  0  0  0
   -5.6290   17.5930  -32.8520 C   0  0  0  0  0  0  0  0  0  0  0  0
   -4.6360   16.6210  -32.7810 C   0  0  0  0  0  0  0  0  0  0  0  0
   -4.9500   15.4610  -33.4990 C   0  0  0  0  0  0  0  0  0  0  0  0
   -6.1840   15.5150  -34.1360 C   0  0  0  0  0  0  0  0  0  0  0  0
   -6.8840   17.0070  -33.8030 S   0  0  0  0  0  0  0  0  0  0  0  0
   -6.6750   19.5650  -31.8230 O   0  0  0  0  0  0  0  0  0  0  0  0
   -6.3590   20.7090  -31.2910 N   0  0  0  0  0  0  0  0  0  0  0  0
   -4.7000   23.3000  -31.0640 C   0  0  0  0  0  0  0  0  0  0  0  0
   -3.9800   24.3950  -30.5720 C   0  0  0  0  0  0  0  0  0  0  0  0
   -4.4420   25.6840  -30.8360 O   0  0  0  0  0  0  0  0  0  0  0  0
   -1.4562   22.7139  -28.9877 H   0  0  0  0  0  0  0  0  0  0  0  0
   -2.7371   20.7664  -29.8633 H   0  0  0  0  0  0  0  0  0  0  0  0
   -3.4340   19.4320  -32.1126 H   0  0  0  0  0  0  0  0  0  0  0  0
   -3.6998   16.7508  -32.2182 H   0  0  0  0  0  0  0  0  0  0  0  0
   -4.2825   14.5884  -33.5539 H   0  0  0  0  0  0  0  0  0  0  0  0
   -6.6267   14.7185  -34.7522 H   0  0  0  0  0  0  0  0  0  0  0  0
   -5.6163   23.4693  -31.6486 H   0  0  0  0  0  0  0  0  0  0  0  0
   -3.8710   26.5040  -30.6700 H   0  0  0  0  0  0  0  0  0  0  0  0
  1  2  1  0
  2  3  2  0
  3  4  1  0
  4  5  2  0
  5  6  1  0
  6  7  1  0
  7  8  2  0
  8  9  1  0
  9 10  2  0
 10 11  1  0
 11 12  2  0
 12 13  1  0
  8 14  1  0
 14 15  1  0
  5 16  1  0
 16 17  2  0
 17 18  1  0
 17  2  1  0
 15  6  2  0
 13  9  1  0
  3 19  1  0
  4 20  1  0
  7 21  1  0
 10 22  1  0
 11 23  1  0
 12 24  1  0
 16 25  1  0
 18 26  1  0
M  CHG  1   1  -1
M  END
>  <UniqueID>  (33) 
32

>  <SMILES>  (33) 
[O-]c1ccc(-c2cc(-c3cccs3)on2)cc1O

>  <Energy>  (33) 
86.07626677448076

>  <Genealogy>  (33) 
[O-]c1ccc(-c2cc(-c3cccs3)on2)cc1O (protonated)
[O-]c1ccc(-c2cc(-c3cccs3)on2)cc1O (3D coordinates assigned)
[O-]c1ccc(-c2cc(-c3cccs3)on2)cc1O (optimized conformer: 86.07626677448076 kcal/mol)

>  <smiles>  (33) 
Oc1ccc(-c2cc(-c3cccs3)on2)cc1O

>  <score_type>  (33) 
oracle

>  <origin>  (33) 
adgpu

>  <m_score__min__energy>  (33) 
-9.3300000000000001

>  <m_primary>  (33) 
energy

$$$$
33:0
     RDKit          3D

 61 65  0  0  0  0  0  0  0  0999 V2000
   -3.7450   22.0560  -27.8830 C   0  0  0  0  0  0  0  0  0  0  0  0
   -2.7930   21.9800  -29.0470 C   0  0  0  0  0  0  0  0  0  0  0  0
   -2.8540   20.8710  -29.9070 C   0  0  0  0  0  0  0  0  0  0  0  0
   -2.0180   20.7920  -31.0290 C   0  0  0  0  0  0  0  0  0  0  0  0
   -2.1720   19.6710  -31.9750 C   0  0  0  0  0  0  0  0  0  0  0  0
   -1.1900   18.6680  -31.9620 C   0  0  0  0  0  0  0  0  0  0  0  0
   -1.2890   17.5650  -32.8140 C   0  0  0  0  0  0  0  0  0  0  0  0
   -0.2740   16.5440  -32.7930 C   0  0  0  0  0  0  0  0  0  0  0  0
    0.5420   15.7240  -32.7760 N   0  0  0  0  0  0  0  0  0  0  0  0
   -2.3740   17.4540  -33.6850 C   0  0  0  0  0  0  0  0  0  0  0  0
   -3.3630   18.4390  -33.7030 C   0  0  0  0  0  0  0  0  0  0  0  0
   -3.2910   19.5540  -32.8470 C   0  0  0  0  0  0  0  0  0  0  0  0
   -4.4100   20.5870  -32.9410 C   0  0  2  0  0  0  0  0  0  0  0  0
   -3.8560   21.9150  -33.4590 C   0  0  0  0  0  0  0  0  0  0  0  0
   -5.0570   20.7640  -31.6780 O   0  0  0  0  0  0  0  0  0  0  0  0
   -6.4320   20.9610  -31.5280 C   0  0  0  0  0  0  0  0  0  0  0  0
   -6.9570   22.2010  -31.0830 C   0  0  0  0  0  0  0  0  0  0  0  0
   -6.0790   23.3490  -30.7860 C   0  0  0  0  0  0  0  0  0  0  0  0
   -5.3910   24.1530  -31.6750 C   0  0  0  0  0  0  0  0  0  0  0  0
   -4.6930   25.0770  -30.9850 N   0  0  0  0  0  0  0  0  0  0  0  0
   -4.9200   24.8770  -29.6960 N   0  0  0  0  0  0  0  0  0  0  0  0
   -5.7470   23.8300  -29.5370 C   0  0  0  0  0  0  0  0  0  0  0  0
   -8.3650   22.3710  -31.0110 C   0  0  0  0  0  0  0  0  0  0  0  0
   -9.2130   21.3620  -31.3720 N   0  0  0  0  0  0  0  0  0  0  0  0
   -8.6910   20.1920  -31.8070 C   0  0  0  0  0  0  0  0  0  0  0  0
   -9.3800   19.1480  -32.2920 N   0  0  0  0  0  0  0  0  0  0  0  0
   -8.4820   18.2620  -32.7170 N   0  0  0  0  0  0  0  0  0  0  0  0
   -7.2350   18.7490  -32.5030 C   0  0  0  0  0  0  0  0  0  0  0  0
   -7.3500   19.9820  -31.9050 C   0  0  0  0  0  0  0  0  0  0  0  0
   -1.0900   21.8070  -31.2780 C   0  0  0  0  0  0  0  0  0  0  0  0
   -1.0210   22.9140  -30.4320 C   0  0  0  0  0  0  0  0  0  0  0  0
   -1.8700   23.0180  -29.3200 C   0  0  0  0  0  0  0  0  0  0  0  0
   -1.8050   24.2350  -28.4830 C   0  0  0  0  0  0  0  0  0  0  0  0
   -2.3380   25.2950  -28.9140 O   0  0  0  0  0  0  0  0  0  0  0  0
   -1.1460   24.2360  -27.1990 N   0  0  0  0  0  0  0  0  0  0  0  0
   -0.8410   25.5160  -26.5540 C   0  0  0  0  0  0  0  0  0  0  0  0
   -0.8740   22.9750  -26.5010 C   0  0  0  0  0  0  0  0  0  0  0  0
   -3.1776   22.0107  -26.9417 H   0  0  0  0  0  0  0  0  0  0  0  0
   -4.3050   23.0017  -27.9284 H   0  0  0  0  0  0  0  0  0  0  0  0
   -4.4479   21.2111  -27.9284 H   0  0  0  0  0  0  0  0  0  0  0  0
   -3.5642   20.0574  -29.6979 H   0  0  0  0  0  0  0  0  0  0  0  0
   -0.3350   18.7511  -31.2750 H   0  0  0  0  0  0  0  0  0  0  0  0
   -2.4500   16.5880  -34.3590 H   0  0  0  0  0  0  0  0  0  0  0  0
   -4.2113   18.3423  -34.3966 H   0  0  0  0  0  0  0  0  0  0  0  0
   -5.1641   20.2176  -33.6515 H   0  0  0  0  0  0  0  0  0  0  0  0
   -3.5879   22.5576  -32.6074 H   0  0  0  0  0  0  0  0  0  0  0  0
   -2.9619   21.7255  -34.0711 H   0  0  0  0  0  0  0  0  0  0  0  0
   -4.6197   22.4171  -34.0711 H   0  0  0  0  0  0  0  0  0  0  0  0
   -5.4100   24.0546  -32.7704 H   0  0  0  0  0  0  0  0  0  0  0  0
   -4.5040   25.4520  -28.9310 H   0  0  0  0  0  0  0  0  0  0  0  0
   -6.0986   23.4262  -28.5761 H   0  0  0  0  0  0  0  0  0  0  0  0
   -8.7787   23.3279  -30.6599 H   0  0  0  0  0  0  0  0  0  0  0  0
   -6.2928   18.2444  -32.7631 H   0  0  0  0  0  0  0  0  0  0  0  0
   -0.4133   21.7328  -32.1420 H   0  0  0  0  0  0  0  0  0  0  0  0
   -0.2939   23.7131  -30.6388 H   0  0  0  0  0  0  0  0  0  0  0  0
   -0.8705   25.3922  -25.4614 H   0  0  0  0  0  0  0  0  0  0  0  0
    0.1619   25.8501  -26.8582 H   0  0  0  0  0  0  0  0  0  0  0  0
   -1.5855   26.2665  -26.8582 H   0  0  0  0  0  0  0  0  0  0  0  0
   -0.9101   23.1422  -25.4144 H   0  0  0  0  0  0  0  0  0  0  0  0
   -1.6319   22.2292  -26.7826 H   0  0  0  0  0  0  0  0  0  0  0  0
    0.1240   22.6079  -26.7826 H   0  0  0  0  0  0  0  0  0  0  0  0
  1  2  1  0
  2  3  2  0
  3  4  1  0
  4  5  1  0
  5  6  2  0
  6  7  1  0
  7  8  1  0
  8  9  3  0
  7 10  2  0
 10 11  1  0
 11 12  2  0
 12 13  1  0
 13 14  1  0
 13 15  1  0
 15 16  1  0
 16 17  1  0
 17 18  1  0
 18 19  1  0
 19 20  2  0
 20 21  1  0
 21 22  1  0
 17 23  2  0
 23 24  1  0
 24 25  2  0
 25 26  1  0
 26 27  1  0
 27 28  2  0
 28 29  1  0
  4 30  2  0
 30 31  1  0
 31 32  2  0
 32 33  1  0
 33 34  2  0
 33 35  1  0
 35 36  1  0
 35 37  1  0
 32  2  1  0
 12  5  1  0
 29 16  2  0
 22 18  2  0
 29 25  1  0
  1 38  1  0
  1 39  1  0
  1 40  1  0
  3 41  1  0
  6 42  1  0
 10 43  1  0
 11 44  1  0
 13 45  1  6
 14 46  1  0
 14 47  1  0
 14 48  1  0
 19 49  1  0
 21 50  1  0
 22 51  1  0
 23 52  1  0
 28 53  1  0
 30 54  1  0
 31 55  1  0
 36 56  1  0
 36 57  1  0
 36 58  1  0
 37 59  1  0
 37 60  1  0
 37 61  1  0
M  CHG  1  26  -1
M  END
>  <UniqueID>  (34) 
33

>  <SMILES>  (34) 
Cc1cc(-c2cc(C#N)ccc2[C@H](C)Oc2c(-c3cn[nH]c3)cnc3[n-]ncc23)ccc1C(=O)N(C)C

>  <Energy>  (34) 
157.72858641937998

>  <Genealogy>  (34) 
Cc1cc(-c2cc(C#N)ccc2C(C)Oc2c(-c3cn[nH]c3)cnc3[n-]ncc23)ccc1C(=O)N(C)C (protonated)
Cc1cc(-c2cc(C#N)ccc2[C@H](C)Oc2c(-c3cn[nH]c3)cnc3[n-]ncc23)ccc1C(=O)N(C)C (chirality)
Cc1cc(-c2cc(C#N)ccc2[C@H](C)Oc2c(-c3cn[nH]c3)cnc3[n-]ncc23)ccc1C(=O)N(C)C (3D coordinates assigned)
Cc1cc(-c2cc(C#N)ccc2[C@H](C)Oc2c(-c3cn[nH]c3)cnc3[n-]ncc23)ccc1C(=O)N(C)C (optimized conformer: 157.72858641937998 kcal/mol)

>  <smiles>  (34) 
Cc1cc(-c2cc(C#N)ccc2C(C)Oc2c(-c3cn[nH]c3)cnc3[nH]ncc23)ccc1C(=O)N(C)C

>  <score_type>  (34) 
oracle

>  <origin>  (34) 
adgpu

>  <m_score__min__energy>  (34) 
-10.33

>  <m_primary>  (34) 
energy

$$$$
34:0
     RDKit          3D

 46 49  0  0  0  0  0  0  0  0999 V2000
    1.0040   19.0700  -27.8600 C   0  0  0  0  0  0  0  0  0  0  0  0
   -0.1310   19.9680  -27.6100 N   0  0  0  0  0  0  0  0  0  0  0  0
   -1.3930   19.2610  -27.8430 C   0  0  0  0  0  0  0  0  0  0  0  0
   -2.5540   20.1210  -27.3630 C   0  0  0  0  0  0  0  0  0  0  0  0
   -2.4880   21.4910  -27.9550 C   0  0  0  0  0  0  0  0  0  0  0  0
   -3.6410   22.2740  -27.9770 C   0  0  0  0  0  0  0  0  0  0  0  0
   -3.6230   23.5490  -28.5580 C   0  0  0  0  0  0  0  0  0  0  0  0
   -4.8170   24.3410  -28.6570 N   0  0  0  0  0  0  0  0  0  0  0  0
   -5.5380   24.8470  -30.1540 S   0  0  0  0  0  0  0  0  0  0  0  0
   -4.5560   25.6810  -30.9270 O   0  0  0  0  0  0  0  0  0  0  0  0
   -6.7560   25.6840  -29.8560 O   0  0  0  0  0  0  0  0  0  0  0  0
   -6.0430   23.4350  -31.0860 C   0  0  0  0  0  0  0  0  0  0  0  0
   -5.0680   22.6000  -31.6850 C   0  0  0  0  0  0  0  0  0  0  0  0
   -5.4420   21.4170  -32.3480 C   0  0  0  0  0  0  0  0  0  0  0  0
   -6.8070   21.1020  -32.4210 C   0  0  0  0  0  0  0  0  0  0  0  0
   -7.7620   21.9300  -31.8540 C   0  0  0  0  0  0  0  0  0  0  0  0
   -7.4150   23.0940  -31.1610 C   0  0  0  0  0  0  0  0  0  0  0  0
   -9.0440   21.2410  -31.9230 C   0  0  0  0  0  0  0  0  0  0  0  0
  -10.1060   21.5700  -31.3400 O   0  0  0  0  0  0  0  0  0  0  0  0
   -8.7670   19.9700  -32.5790 C   0  0  0  0  0  0  0  0  0  0  0  0
   -9.5940   19.0500  -32.7860 O   0  0  0  0  0  0  0  0  0  0  0  0
   -7.3810   19.8870  -32.9210 N   0  0  0  0  0  0  0  0  0  0  0  0
   -6.6510   18.6730  -33.2850 C   0  0  0  0  0  0  0  0  0  0  0  0
   -2.4130   24.0420  -29.0800 C   0  0  0  0  0  0  0  0  0  0  0  0
   -2.3560   25.2960  -29.6670 O   0  0  0  0  0  0  0  0  0  0  0  0
   -1.2510   23.2820  -29.0120 C   0  0  0  0  0  0  0  0  0  0  0  0
   -1.2730   22.0100  -28.4410 C   0  0  0  0  0  0  0  0  0  0  0  0
   -0.0250   21.1690  -28.4730 C   0  0  0  0  0  0  0  0  0  0  0  0
    1.4258   18.7363  -26.9005 H   0  0  0  0  0  0  0  0  0  0  0  0
    0.6609   18.1962  -28.4334 H   0  0  0  0  0  0  0  0  0  0  0  0
    1.7754   19.6049  -28.4334 H   0  0  0  0  0  0  0  0  0  0  0  0
   -1.5067   19.0589  -28.9183 H   0  0  0  0  0  0  0  0  0  0  0  0
   -1.3879   18.3106  -27.2892 H   0  0  0  0  0  0  0  0  0  0  0  0
   -3.5004   19.6460  -27.6609 H   0  0  0  0  0  0  0  0  0  0  0  0
   -2.4943   20.2098  -26.2682 H   0  0  0  0  0  0  0  0  0  0  0  0
   -4.5716   21.8883  -27.5351 H   0  0  0  0  0  0  0  0  0  0  0  0
   -5.3540   24.5570  -27.7960 H   0  0  0  0  0  0  0  0  0  0  0  0
   -4.0056   22.8800  -31.6311 H   0  0  0  0  0  0  0  0  0  0  0  0
   -4.6849   20.7571  -32.7968 H   0  0  0  0  0  0  0  0  0  0  0  0
   -8.1833   23.7243  -30.6894 H   0  0  0  0  0  0  0  0  0  0  0  0
   -6.3350   18.1475  -32.3718 H   0  0  0  0  0  0  0  0  0  0  0  0
   -7.3042   18.0164  -33.8785 H   0  0  0  0  0  0  0  0  0  0  0  0
   -5.7648   18.9421  -33.8785 H   0  0  0  0  0  0  0  0  0  0  0  0
   -0.3089   23.6863  -29.4108 H   0  0  0  0  0  0  0  0  0  0  0  0
    0.1564   20.8451  -29.5085 H   0  0  0  0  0  0  0  0  0  0  0  0
    0.8038   21.7838  -28.0922 H   0  0  0  0  0  0  0  0  0  0  0  0
  1  2  1  0
  2  3  1  0
  3  4  1  0
  4  5  1  0
  5  6  2  0
  6  7  1  0
  7  8  1  0
  8  9  1  0
  9 10  2  0
  9 11  2  0
  9 12  1  0
 12 13  2  0
 13 14  1  0
 14 15  2  0
 15 16  1  0
 16 17  2  0
 16 18  1  0
 18 19  2  0
 18 20  1  0
 20 21  2  0
 20 22  1  0
 22 23  1  0
  7 24  2  0
 24 25  1  0
 24 26  1  0
 26 27  2  0
 27 28  1  0
 28  2  1  0
 27  5  1  0
 17 12  1  0
 22 15  1  0
  1 29  1  0
  1 30  1  0
  1 31  1  0
  3 32  1  0
  3 33  1  0
  4 34  1  0
  4 35  1  0
  6 36  1  0
  8 37  1  0
 13 38  1  0
 14 39  1  0
 17 40  1  0
 23 41  1  0
 23 42  1  0
 23 43  1  0
 26 44  1  0
 28 45  1  0
 28 46  1  0
M  CHG  1  25  -1
M  END
>  <UniqueID>  (35) 
34

>  <SMILES>  (35) 
CN1CCc2cc(NS(=O)(=O)c3ccc4c(c3)C(=O)C(=O)N4C)c([O-])cc2C1

>  <Energy>  (35) 
88.56474167996558

>  <Genealogy>  (35) 
CN1CCc2cc(NS(=O)(=O)c3ccc4c(c3)C(=O)C(=O)N4C)c([O-])cc2C1 (protonated)
CN1CCc2cc(NS(=O)(=O)c3ccc4c(c3)C(=O)C(=O)N4C)c([O-])cc2C1 (3D coordinates assigned)
CN1CCc2cc(NS(=O)(=O)c3ccc4c(c3)C(=O)C(=O)N4C)c([O-])cc2C1 (nonaromatic ring conformer: 88.56474167996558 kcal/mol)

>  <smiles>  (35) 
CN1CCc2cc(NS(=O)(=O)c3ccc4c(c3)C(=O)C(=O)N4C)c(O)cc2C1

>  <score_type>  (35) 
oracle

>  <origin>  (35) 
adgpu

>  <m_score__min__energy>  (35) 
-14.359999999999999

>  <m_primary>  (35) 
energy

$$$$
35:0
     RDKit          3D

 57 60  0  0  1  0  0  0  0  0999 V2000
   -9.3640   23.1110  -32.2310 C   0  0  0  0  0  0  0  0  0  0  0  0
   -8.0110   22.6190  -31.9390 C   0  0  0  0  0  0  0  0  0  0  0  0
   -7.1820   23.3720  -31.1670 C   0  0  0  0  0  0  0  0  0  0  0  0
   -5.9250   22.8690  -30.9200 C   0  0  0  0  0  0  0  0  0  0  0  0
   -5.0900   23.5360  -30.1950 N   0  0  0  0  0  0  0  0  0  0  0  0
   -3.7800   23.0560  -29.9130 C   0  0  0  0  0  0  0  0  0  0  0  0
   -3.4470   21.7520  -29.9570 N   0  0  0  0  0  0  0  0  0  0  0  0
   -2.1680   21.3660  -29.6730 C   0  0  0  0  0  0  0  0  0  0  0  0
   -1.8360   20.1220  -29.7120 N   0  0  0  0  0  0  0  0  0  0  0  0
   -0.5030   19.6850  -29.4200 C   0  0  0  0  0  0  0  0  0  0  0  0
   -0.2210   19.2760  -28.1430 C   0  0  0  0  0  0  0  0  0  0  0  0
    1.0470   18.8460  -27.8110 C   0  0  0  0  0  0  0  0  0  0  0  0
    2.0200   18.8350  -28.7810 C   0  0  0  0  0  0  0  0  0  0  0  0
    3.3760   18.4010  -28.5200 C   0  0  0  0  0  0  0  0  0  0  0  0
    4.4700   18.0550  -28.2910 N   0  0  0  0  0  0  0  0  0  0  0  0
    1.7690   19.2440  -30.0900 C   0  0  0  0  0  0  0  0  0  0  0  0
    0.4890   19.6700  -30.3980 C   0  0  0  0  0  0  0  0  0  0  0  0
   -1.2220   22.2660  -29.3460 N   0  0  0  0  0  0  0  0  0  0  0  0
   -1.4950   23.5890  -29.2840 C   0  0  0  0  0  0  0  0  0  0  0  0
   -0.4870   24.4370  -28.9460 O   0  0  0  0  0  0  0  0  0  0  0  0
    0.6880   24.2510  -27.7720 S   0  0  0  0  0  0  0  0  0  0  0  0
    0.0280   24.7770  -26.2080 C   0  0  0  0  0  0  0  0  0  0  0  0
    1.0190   22.7740  -27.6220 O   0  0  0  0  0  0  0  0  0  0  0  0
    1.9870   24.9380  -28.0690 O   0  0  0  0  0  0  0  0  0  0  0  0
   -2.7920   23.9570  -29.5740 C   0  0  0  0  0  0  0  0  0  0  0  0
   -3.1210   25.2970  -29.5250 O   0  0  0  0  0  0  0  0  0  0  0  0
   -5.5620   21.6590  -31.4470 N   0  0  0  0  0  0  0  0  0  0  0  0
   -6.3540   20.9100  -32.1980 C   0  0  0  0  0  0  0  0  0  0  0  0
   -6.1570   19.6000  -32.7360 C   0  0  0  0  0  0  0  0  0  0  0  0
   -7.2560   18.7250  -32.6750 C   0  0  0  0  0  0  0  0  0  0  0  0
   -7.2320   17.4230  -33.0650 C   0  0  0  0  0  0  0  0  0  0  0  0
   -6.0760   16.8960  -33.5560 C   0  0  0  0  0  0  0  0  0  0  0  0
   -4.9840   17.7190  -33.6300 C   0  0  0  0  0  0  0  0  0  0  0  0
   -5.0000   19.0600  -33.2310 C   0  0  0  0  0  0  0  0  0  0  0  0
   -3.7350   19.7800  -33.3850 C   0  0  0  0  0  0  0  0  0  0  0  0
   -3.0310   19.2880  -34.4520 F   0  0  0  0  0  0  0  0  0  0  0  0
   -2.9870   19.8720  -32.2620 F   0  0  0  0  0  0  0  0  0  0  0  0
   -4.0220   21.1230  -33.8110 F   0  0  0  0  0  0  0  0  0  0  0  0
   -7.6030   21.4610  -32.4170 N   0  0  0  0  0  0  0  0  0  0  0  0
   -9.8954   23.3043  -31.2875 H   0  0  0  0  0  0  0  0  0  0  0  0
   -9.2979   24.0427  -32.8121 H   0  0  0  0  0  0  0  0  0  0  0  0
   -9.9118   22.3545  -32.8121 H   0  0  0  0  0  0  0  0  0  0  0  0
   -7.5025   24.3414  -30.7577 H   0  0  0  0  0  0  0  0  0  0  0  0
   -1.0109   19.2906  -27.3776 H   0  0  0  0  0  0  0  0  0  0  0  0
    1.2754   18.5173  -26.7864 H   0  0  0  0  0  0  0  0  0  0  0  0
    2.5619   19.2286  -30.8523 H   0  0  0  0  0  0  0  0  0  0  0  0
    0.2534   19.9987  -31.4210 H   0  0  0  0  0  0  0  0  0  0  0  0
   -0.2610   21.9250  -29.1370 H   0  0  0  0  0  0  0  0  0  0  0  0
    0.6056   24.3167  -25.3928 H   0  0  0  0  0  0  0  0  0  0  0  0
    0.0947   25.8723  -26.1316 H   0  0  0  0  0  0  0  0  0  0  0  0
   -1.0248   24.4676  -26.1316 H   0  0  0  0  0  0  0  0  0  0  0  0
   -4.1090   25.4950  -29.3360 H   0  0  0  0  0  0  0  0  0  0  0  0
   -4.6150   21.3760  -31.2560 H   0  0  0  0  0  0  0  0  0  0  0  0
   -8.2038   19.1229  -32.2833 H   0  0  0  0  0  0  0  0  0  0  0  0
   -8.1363   16.8018  -32.9849 H   0  0  0  0  0  0  0  0  0  0  0  0
   -6.0215   15.8467  -33.8815 H   0  0  0  0  0  0  0  0  0  0  0  0
   -4.0446   17.3039  -34.0240 H   0  0  0  0  0  0  0  0  0  0  0  0
  1  2  1  0
  2  3  2  0
  3  4  1  0
  4  5  2  0
  5  6  1  0
  6  7  2  0
  7  8  1  0
  8  9  2  0
  9 10  1  0
 10 11  2  0
 11 12  1  0
 12 13  2  0
 13 14  1  0
 14 15  3  0
 13 16  1  0
 16 17  2  0
  8 18  1  0
 18 19  1  0
 19 20  1  0
 20 21  1  0
 21 22  1  0
 21 23  2  0
 21 24  2  0
 19 25  2  0
 25 26  1  0
  4 27  1  0
 27 28  1  0
 28 29  1  0
 29 30  2  0
 30 31  1  0
 31 32  2  0
 32 33  1  0
 33 34  2  0
 34 35  1  0
 35 36  1  0
 35 37  1  0
 35 38  1  0
 28 39  2  0
 39  2  1  0
 25  6  1  0
 34 29  1  0
 17 10  1  0
  1 40  1  0
  1 41  1  0
  1 42  1  0
  3 43  1  0
 11 44  1  0
 12 45  1  0
 16 46  1  0
 17 47  1  0
 18 48  1  0
 22 49  1  0
 22 50  1  0
 22 51  1  0
 26 52  1  0
 27 53  1  0
 30 54  1  0
 31 55  1  0
 32 56  1  0
 33 57  1  0
M  END
>  <smiles>  (36) 
Cc1cc(=Nc2nc(=Nc3ccc(C#N)cc3)[nH]c(OS(C)(=O)=O)c2O)[nH]c(-c2ccccc2C(F)(F)F)n1

>  <score_type>  (36) 
oracle

>  <origin>  (36) 
adgpu

>  <m_score__min__energy>  (36) 
-10.41

>  <m_primary>  (36) 
energy

$$$$
36:0
     RDKit          3D

 58 61  0  0  0  0  0  0  0  0999 V2000
   -9.5010   19.2700  -32.2310 C   0  0  0  0  0  0  0  0  0  0  0  0
   -8.1070   19.7140  -32.5420 C   0  0  0  0  0  0  0  0  0  0  0  0
   -7.2130   18.8150  -33.0260 N   0  0  0  0  0  0  0  0  0  0  0  0
   -5.9330   19.1770  -33.3290 C   0  0  0  0  0  0  0  0  0  0  0  0
   -5.0720   18.3080  -33.7710 N   0  0  0  0  0  0  0  0  0  0  0  0
   -5.2480   16.8850  -33.8800 C   0  0  0  0  0  0  0  0  0  0  0  0
   -6.4980   16.3100  -34.1860 C   0  0  0  0  0  0  0  0  0  0  0  0
   -6.6530   14.9260  -34.1880 C   0  0  0  0  0  0  0  0  0  0  0  0
   -5.5730   14.0940  -33.8690 C   0  0  0  0  0  0  0  0  0  0  0  0
   -5.8130   12.3450  -33.8100 S   0  0  0  0  0  0  0  0  0  0  0  0
   -7.4880   11.9620  -34.3000 C   0  0  0  0  0  0  0  0  0  0  0  0
   -5.5740   11.8260  -32.4180 O   0  0  0  0  0  0  0  0  0  0  0  0
   -4.8480   11.6700  -34.7440 O   0  0  0  0  0  0  0  0  0  0  0  0
   -4.3310   14.6610  -33.5440 C   0  0  0  0  0  0  0  0  0  0  0  0
   -4.1750   16.0480  -33.5430 C   0  0  0  0  0  0  0  0  0  0  0  0
   -5.5500   20.4700  -33.1730 N   0  0  0  0  0  0  0  0  0  0  0  0
   -6.3870   21.4100  -32.6580 C   0  0  0  0  0  0  0  0  0  0  0  0
   -5.9390   22.7660  -32.4470 N   0  0  0  0  0  0  0  0  0  0  0  0
   -5.0640   23.2090  -31.3880 C   0  0  0  0  0  0  0  0  0  0  0  0
   -5.5770   24.0870  -30.4150 C   0  0  0  0  0  0  0  0  0  0  0  0
   -4.7760   24.5270  -29.3590 C   0  0  0  0  0  0  0  0  0  0  0  0
   -3.4400   24.0960  -29.2540 C   0  0  0  0  0  0  0  0  0  0  0  0
   -2.4280   24.6660  -27.9200 S   0  0  0  0  0  0  0  0  0  0  0  0
   -1.6100   25.8420  -28.3920 O   0  0  0  0  0  0  0  0  0  0  0  0
   -3.3210   25.1410  -26.8040 O   0  0  0  0  0  0  0  0  0  0  0  0
   -1.3680   23.4120  -27.3140 N   0  0  0  0  0  0  0  0  0  0  0  0
   -2.0950   22.1380  -27.1940 C   0  0  0  0  0  0  0  0  0  0  0  0
   -1.1360   21.0150  -26.7410 C   0  0  0  0  0  0  0  0  0  0  0  0
    0.1840   21.4910  -26.5460 O   0  0  0  0  0  0  0  0  0  0  0  0
    0.6670   22.0650  -27.7450 C   0  0  0  0  0  0  0  0  0  0  0  0
   -0.2030   23.2530  -28.2000 C   0  0  0  0  0  0  0  0  0  0  0  0
   -2.9250   23.2050  -30.2080 C   0  0  0  0  0  0  0  0  0  0  0  0
   -3.7360   22.7420  -31.2540 C   0  0  0  0  0  0  0  0  0  0  0  0
   -7.7050   21.0400  -32.3290 C   0  0  0  0  0  0  0  0  0  0  0  0
   -8.5990   21.9700  -31.8110 O   0  0  0  0  0  0  0  0  0  0  0  0
   -9.6373   19.2266  -31.1403 H   0  0  0  0  0  0  0  0  0  0  0  0
  -10.2181   19.9842  -32.6620 H   0  0  0  0  0  0  0  0  0  0  0  0
   -9.6729   18.2726  -32.6620 H   0  0  0  0  0  0  0  0  0  0  0  0
   -7.3549   16.9573  -34.4243 H   0  0  0  0  0  0  0  0  0  0  0  0
   -7.6282   14.4846  -34.4413 H   0  0  0  0  0  0  0  0  0  0  0  0
   -8.1090   11.8200  -33.4032 H   0  0  0  0  0  0  0  0  0  0  0  0
   -7.8933   12.7906  -34.8992 H   0  0  0  0  0  0  0  0  0  0  0  0
   -7.4929   11.0396  -34.8992 H   0  0  0  0  0  0  0  0  0  0  0  0
   -3.4800   14.0119  -33.2899 H   0  0  0  0  0  0  0  0  0  0  0  0
   -3.2028   16.4877  -33.2758 H   0  0  0  0  0  0  0  0  0  0  0  0
   -6.1270   23.4580  -33.2120 H   0  0  0  0  0  0  0  0  0  0  0  0
   -6.6196   24.4302  -30.4870 H   0  0  0  0  0  0  0  0  0  0  0  0
   -5.1908   25.2133  -28.6061 H   0  0  0  0  0  0  0  0  0  0  0  0
   -2.9006   22.2482  -26.4532 H   0  0  0  0  0  0  0  0  0  0  0  0
   -2.5185   21.8736  -28.1742 H   0  0  0  0  0  0  0  0  0  0  0  0
   -1.5049   20.5933  -25.7944 H   0  0  0  0  0  0  0  0  0  0  0  0
   -1.1085   20.2518  -27.5326 H   0  0  0  0  0  0  0  0  0  0  0  0
    1.6957   22.4186  -27.5816 H   0  0  0  0  0  0  0  0  0  0  0  0
    0.6343   21.2957  -28.5306 H   0  0  0  0  0  0  0  0  0  0  0  0
    0.3993   24.1731  -28.1737 H   0  0  0  0  0  0  0  0  0  0  0  0
   -0.5592   23.0602  -29.2227 H   0  0  0  0  0  0  0  0  0  0  0  0
   -1.8804   22.8683  -30.1349 H   0  0  0  0  0  0  0  0  0  0  0  0
   -3.3372   22.0120  -31.9738 H   0  0  0  0  0  0  0  0  0  0  0  0
  1  2  1  0
  2  3  2  0
  3  4  1  0
  4  5  2  3
  5  6  1  0
  6  7  2  0
  7  8  1  0
  8  9  2  0
  9 10  1  0
 10 11  1  0
 10 12  2  0
 10 13  2  0
  9 14  1  0
 14 15  2  0
  4 16  1  0
 16 17  1  0
 17 18  1  0
 18 19  1  0
 19 20  2  0
 20 21  1  0
 21 22  2  0
 22 23  1  0
 23 24  2  0
 23 25  2  0
 23 26  1  0
 26 27  1  0
 27 28  1  0
 28 29  1  0
 29 30  1  0
 30 31  1  0
 22 32  1  0
 32 33  2  0
 17 34  2  0
 34 35  1  0
 34  2  1  0
 15  6  1  0
 33 19  1  0
 31 26  1  0
  1 36  1  0
  1 37  1  0
  1 38  1  0
  7 39  1  0
  8 40  1  0
 11 41  1  0
 11 42  1  0
 11 43  1  0
 14 44  1  0
 15 45  1  0
 18 46  1  0
 20 47  1  0
 21 48  1  0
 27 49  1  0
 27 50  1  0
 28 51  1  0
 28 52  1  0
 30 53  1  0
 30 54  1  0
 31 55  1  0
 31 56  1  0
 32 57  1  0
 33 58  1  0
M  CHG  2  16  -1  35  -1
M  END
>  <UniqueID>  (37) 
35

>  <SMILES>  (37) 
Cc1nc(=Nc2ccc(S(C)(=O)=O)cc2)[n-]c(Nc2ccc(S(=O)(=O)N3CCOCC3)cc2)c1[O-]

>  <Energy>  (37) 
79.09372088529304

>  <Genealogy>  (37) 
Cc1nc(=Nc2ccc(S(C)(=O)=O)cc2)[n-]c(Nc2ccc(S(=O)(=O)N3CCOCC3)cc2)c1[O-] (protonated)
Cc1nc(=Nc2ccc(S(C)(=O)=O)cc2)[n-]c(Nc2ccc(S(=O)(=O)N3CCOCC3)cc2)c1[O-] (3D coordinates assigned)
Cc1nc(=Nc2ccc(S(C)(=O)=O)cc2)[n-]c(Nc2ccc(S(=O)(=O)N3CCOCC3)cc2)c1[O-] (nonaromatic ring conformer: 79.09372088529304 kcal/mol)

>  <smiles>  (37) 
Cc1nc(=Nc2ccc(S(C)(=O)=O)cc2)[nH]c(Nc2ccc(S(=O)(=O)N3CCOCC3)cc2)c1O

>  <score_type>  (37) 
oracle

>  <origin>  (37) 
adgpu

>  <m_score__min__energy>  (37) 
-13.380000000000001

>  <m_primary>  (37) 
energy

$$$$
37:0
     RDKit          3D

 40 42  0  0  0  0  0  0  0  0999 V2000
   -4.9640   17.6280  -34.9520 C   0  0  0  0  0  0  0  0  0  0  0  0
   -5.7310   18.1460  -33.7840 C   0  0  0  0  0  0  0  0  0  0  0  0
   -6.0280   19.4500  -33.6070 N   0  0  0  0  0  0  0  0  0  0  0  0
   -6.6750   19.6810  -32.4290 C   0  0  0  0  0  0  0  0  0  0  0  0
   -7.0960   21.0500  -32.0340 C   0  0  0  0  0  0  0  0  0  0  0  0
   -8.3990   21.5230  -32.2870 C   0  0  0  0  0  0  0  0  0  0  0  0
   -8.7740   22.8110  -31.8990 C   0  0  0  0  0  0  0  0  0  0  0  0
   -7.8580   23.6480  -31.2600 C   0  0  0  0  0  0  0  0  0  0  0  0
   -6.5550   23.2020  -31.0120 C   0  0  0  0  0  0  0  0  0  0  0  0
   -5.4140   24.2590  -30.1810 S   0  0  0  0  0  0  0  0  0  0  0  0
   -6.1070   25.5580  -29.8780 O   0  0  0  0  0  0  0  0  0  0  0  0
   -4.2440   24.5500  -31.0790 O   0  0  0  0  0  0  0  0  0  0  0  0
   -4.8730   23.5290  -28.6820 N   0  0  0  0  0  0  0  0  0  0  0  0
   -4.0160   22.3460  -28.9270 C   0  0  0  0  0  0  0  0  0  0  0  0
   -2.6170   22.7140  -29.4540 C   0  0  0  0  0  0  0  0  0  0  0  0
   -2.0210   23.9580  -28.7720 C   0  0  0  0  0  0  0  0  0  0  0  0
   -2.7670   24.3180  -27.4890 C   0  0  0  0  0  0  0  0  0  0  0  0
   -4.2640   24.5420  -27.7720 C   0  0  0  0  0  0  0  0  0  0  0  0
   -6.1790   21.9080  -31.3970 C   0  0  0  0  0  0  0  0  0  0  0  0
   -6.8720   18.5360  -31.6490 C   0  0  0  0  0  0  0  0  0  0  0  0
   -6.2190   17.2230  -32.4710 S   0  0  0  0  0  0  0  0  0  0  0  0
   -4.1017   17.0456  -34.5953 H   0  0  0  0  0  0  0  0  0  0  0  0
   -5.6148   16.9837  -35.5614 H   0  0  0  0  0  0  0  0  0  0  0  0
   -4.6094   18.4723  -35.5614 H   0  0  0  0  0  0  0  0  0  0  0  0
   -9.1267   20.8724  -32.7942 H   0  0  0  0  0  0  0  0  0  0  0  0
   -9.7955   23.1673  -32.0978 H   0  0  0  0  0  0  0  0  0  0  0  0
   -8.1606   24.6594  -30.9510 H   0  0  0  0  0  0  0  0  0  0  0  0
   -5.7430   23.1730  -28.2190 H   0  0  0  0  0  0  0  0  0  0  0  0
   -3.9006   21.7952  -27.9818 H   0  0  0  0  0  0  0  0  0  0  0  0
   -4.5087   21.7378  -29.6999 H   0  0  0  0  0  0  0  0  0  0  0  0
   -1.9425   21.8627  -29.2797 H   0  0  0  0  0  0  0  0  0  0  0  0
   -2.7211   22.9459  -30.5242 H   0  0  0  0  0  0  0  0  0  0  0  0
   -0.9675   23.7583  -28.5264 H   0  0  0  0  0  0  0  0  0  0  0  0
   -2.1129   24.8047  -29.4682 H   0  0  0  0  0  0  0  0  0  0  0  0
   -2.6556   23.4977  -26.7647 H   0  0  0  0  0  0  0  0  0  0  0  0
   -2.3418   25.2476  -27.0827 H   0  0  0  0  0  0  0  0  0  0  0  0
   -4.8040   24.5140  -26.8141 H   0  0  0  0  0  0  0  0  0  0  0  0
   -4.3474   25.5139  -28.2803 H   0  0  0  0  0  0  0  0  0  0  0  0
   -5.1550   21.5583  -31.1992 H   0  0  0  0  0  0  0  0  0  0  0  0
   -7.3682   18.5011  -30.6679 H   0  0  0  0  0  0  0  0  0  0  0  0
  1  2  1  0
  2  3  2  0
  3  4  1  0
  4  5  1  0
  5  6  2  0
  6  7  1  0
  7  8  2  0
  8  9  1  0
  9 10  1  0
 10 11  2  0
 10 12  2  0
 10 13  1  0
 13 14  1  0
 14 15  1  0
 15 16  1  0
 16 17  1  0
 17 18  1  0
  9 19  2  0
  4 20  2  0
 20 21  1  0
 21  2  1  0
 19  5  1  0
 18 13  1  0
  1 22  1  0
  1 23  1  0
  1 24  1  0
  6 25  1  0
  7 26  1  0
  8 27  1  0
 13 28  1  0
 14 29  1  0
 14 30  1  0
 15 31  1  0
 15 32  1  0
 16 33  1  0
 16 34  1  0
 17 35  1  0
 17 36  1  0
 18 37  1  0
 18 38  1  0
 19 39  1  0
 20 40  1  0
M  CHG  1  13   1
M  END
>  <UniqueID>  (38) 
36

>  <SMILES>  (38) 
Cc1nc(-c2cccc(S(=O)(=O)[NH+]3CCCCC3)c2)cs1

>  <Energy>  (38) 
77.84701079920247

>  <Genealogy>  (38) 
Cc1nc(-c2cccc(S(=O)(=O)[NH+]3CCCCC3)c2)cs1 (protonated)
Cc1nc(-c2cccc(S(=O)(=O)[NH+]3CCCCC3)c2)cs1 (3D coordinates assigned)
Cc1nc(-c2cccc(S(=O)(=O)[NH+]3CCCCC3)c2)cs1 (nonaromatic ring conformer: 77.84701079920247 kcal/mol)

>  <smiles>  (38) 
Cc1nc(-c2cccc(S(=O)(=O)N3CCCCC3)c2)cs1

>  <score_type>  (38) 
oracle

>  <origin>  (38) 
adgpu

>  <m_score__min__energy>  (38) 
-8.2300000000000004

>  <m_primary>  (38) 
energy

$$$$
38:0
     RDKit          3D

 56 59  0  0  0  0  0  0  0  0999 V2000
   -3.9720   25.1690  -30.6180 O   0  0  0  0  0  0  0  0  0  0  0  0
   -3.6500   23.9550  -30.4970 C   0  0  0  0  0  0  0  0  0  0  0  0
   -4.1230   22.9970  -31.4540 N   0  0  0  0  0  0  0  0  0  0  0  0
   -5.4800   22.5730  -31.6440 C   0  0  0  0  0  0  0  0  0  0  0  0
   -6.5410   23.4900  -31.7460 C   0  0  0  0  0  0  0  0  0  0  0  0
   -7.8520   23.0330  -31.9130 C   0  0  0  0  0  0  0  0  0  0  0  0
   -8.1170   21.6620  -31.9610 C   0  0  0  0  0  0  0  0  0  0  0  0
   -7.0710   20.7400  -31.8280 C   0  0  0  0  0  0  0  0  0  0  0  0
   -7.3950   19.0100  -31.8990 S   0  0  0  0  0  0  0  0  0  0  0  0
   -6.5780   18.3120  -30.8480 O   0  0  0  0  0  0  0  0  0  0  0  0
   -8.8510   18.7540  -31.6190 O   0  0  0  0  0  0  0  0  0  0  0  0
   -6.9570   18.4050  -33.4760 N   0  0  0  0  0  0  0  0  0  0  0  0
   -6.6530   16.9750  -33.4310 C   0  0  0  0  0  0  0  0  0  0  0  0
   -5.6830   16.7030  -34.5700 C   0  0  0  0  0  0  0  0  0  0  0  0
   -5.0830   18.0560  -34.9210 C   0  0  0  0  0  0  0  0  0  0  0  0
   -5.7400   19.0460  -33.9710 C   0  0  0  0  0  0  0  0  0  0  0  0
   -5.7560   21.2000  -31.6690 C   0  0  0  0  0  0  0  0  0  0  0  0
   -2.7330   23.5420  -29.4000 C   0  0  0  0  0  0  0  0  0  0  0  0
   -2.8210   22.2340  -28.8810 C   0  0  0  0  0  0  0  0  0  0  0  0
   -1.9750   21.8120  -27.8460 C   0  0  0  0  0  0  0  0  0  0  0  0
   -2.0780   20.1660  -27.2240 S   0  0  0  0  0  0  0  0  0  0  0  0
   -1.5170   20.1380  -25.8290 O   0  0  0  0  0  0  0  0  0  0  0  0
   -3.5160   19.7310  -27.1690 O   0  0  0  0  0  0  0  0  0  0  0  0
   -1.1590   19.0910  -28.2480 N   0  0  0  0  0  0  0  0  0  0  0  0
   -0.0590   18.4800  -27.4810 C   0  0  0  0  0  0  0  0  0  0  0  0
    0.9430   17.7770  -28.4170 C   0  0  0  0  0  0  0  0  0  0  0  0
    0.3990   17.6180  -29.7120 O   0  0  0  0  0  0  0  0  0  0  0  0
    0.1940   18.8880  -30.3050 C   0  0  0  0  0  0  0  0  0  0  0  0
   -0.6260   19.8330  -29.4000 C   0  0  0  0  0  0  0  0  0  0  0  0
   -1.0210   22.6920  -27.3280 C   0  0  0  0  0  0  0  0  0  0  0  0
   -0.9190   23.9890  -27.8320 C   0  0  0  0  0  0  0  0  0  0  0  0
   -1.7630   24.4200  -28.8600 C   0  0  0  0  0  0  0  0  0  0  0  0
   -1.6140   25.7170  -29.3380 O   0  0  0  0  0  0  0  0  0  0  0  0
   -6.3392   24.5701  -31.6943 H   0  0  0  0  0  0  0  0  0  0  0  0
   -8.6768   23.7548  -32.0068 H   0  0  0  0  0  0  0  0  0  0  0  0
   -9.1481   21.3063  -32.1034 H   0  0  0  0  0  0  0  0  0  0  0  0
   -6.1901   16.7152  -32.4676 H   0  0  0  0  0  0  0  0  0  0  0  0
   -7.5665   16.3710  -33.5341 H   0  0  0  0  0  0  0  0  0  0  0  0
   -4.8963   16.0051  -34.2473 H   0  0  0  0  0  0  0  0  0  0  0  0
   -6.1847   16.2415  -35.4333 H   0  0  0  0  0  0  0  0  0  0  0  0
   -3.9932   18.0444  -34.7720 H   0  0  0  0  0  0  0  0  0  0  0  0
   -5.2578   18.3210  -35.9742 H   0  0  0  0  0  0  0  0  0  0  0  0
   -5.0640   19.2746  -33.1339 H   0  0  0  0  0  0  0  0  0  0  0  0
   -5.9698   19.9929  -34.4814 H   0  0  0  0  0  0  0  0  0  0  0  0
   -4.9342   20.4765  -31.5630 H   0  0  0  0  0  0  0  0  0  0  0  0
   -3.5635   21.5353  -29.2938 H   0  0  0  0  0  0  0  0  0  0  0  0
    0.4657   19.2652  -26.9169 H   0  0  0  0  0  0  0  0  0  0  0  0
   -0.4832   17.7312  -26.7958 H   0  0  0  0  0  0  0  0  0  0  0  0
    1.8592   18.3821  -28.4833 H   0  0  0  0  0  0  0  0  0  0  0  0
    1.1681   16.7817  -28.0063 H   0  0  0  0  0  0  0  0  0  0  0  0
    1.1734   19.3486  -30.5018 H   0  0  0  0  0  0  0  0  0  0  0  0
   -0.3736   18.7370  -31.2350 H   0  0  0  0  0  0  0  0  0  0  0  0
    0.0219   20.6463  -29.0410 H   0  0  0  0  0  0  0  0  0  0  0  0
   -1.4632   20.2500  -29.9789 H   0  0  0  0  0  0  0  0  0  0  0  0
   -0.3495   22.3617  -26.5218 H   0  0  0  0  0  0  0  0  0  0  0  0
   -0.1685   24.6780  -27.4172 H   0  0  0  0  0  0  0  0  0  0  0  0
  1  2  2  0
  2  3  1  0
  3  4  1  0
  4  5  2  0
  5  6  1  0
  6  7  2  0
  7  8  1  0
  8  9  1  0
  9 10  2  0
  9 11  2  0
  9 12  1  0
 12 13  1  0
 13 14  1  0
 14 15  1  0
 15 16  1  0
  8 17  2  0
  2 18  1  0
 18 19  2  0
 19 20  1  0
 20 21  1  0
 21 22  2  0
 21 23  2  0
 21 24  1  0
 24 25  1  0
 25 26  1  0
 26 27  1  0
 27 28  1  0
 28 29  1  0
 20 30  2  0
 30 31  1  0
 31 32  2  0
 32 33  1  0
 17  4  1  0
 32 18  1  0
 16 12  1  0
 29 24  1  0
  5 34  1  0
  6 35  1  0
  7 36  1  0
 13 37  1  0
 13 38  1  0
 14 39  1  0
 14 40  1  0
 15 41  1  0
 15 42  1  0
 16 43  1  0
 16 44  1  0
 17 45  1  0
 19 46  1  0
 25 47  1  0
 25 48  1  0
 26 49  1  0
 26 50  1  0
 28 51  1  0
 28 52  1  0
 29 53  1  0
 29 54  1  0
 30 55  1  0
 31 56  1  0
M  CHG  2   3  -1  33  -1
M  END
>  <UniqueID>  (39) 
37

>  <SMILES>  (39) 
O=C([N-]c1cccc(S(=O)(=O)N2CCCC2)c1)c1cc(S(=O)(=O)N2CCOCC2)ccc1[O-]

>  <Energy>  (39) 
72.20976101861152

>  <Genealogy>  (39) 
O=C([N-]c1cccc(S(=O)(=O)N2CCCC2)c1)c1cc(S(=O)(=O)N2CCOCC2)ccc1[O-] (protonated)
O=C([N-]c1cccc(S(=O)(=O)N2CCCC2)c1)c1cc(S(=O)(=O)N2CCOCC2)ccc1[O-] (3D coordinates assigned)
O=C([N-]c1cccc(S(=O)(=O)N2CCCC2)c1)c1cc(S(=O)(=O)N2CCOCC2)ccc1[O-] (nonaromatic ring conformer: 72.20976101861152 kcal/mol)

>  <smiles>  (39) 
O=C(Nc1cccc(S(=O)(=O)N2CCCC2)c1)c1cc(S(=O)(=O)N2CCOCC2)ccc1O

>  <score_type>  (39) 
oracle

>  <origin>  (39) 
adgpu

>  <m_score__min__energy>  (39) 
-15.19

>  <m_primary>  (39) 
energy

$$$$
39:0
     RDKit          3D

 53 55  0  0  0  0  0  0  0  0999 V2000
   -6.0690   25.2910  -29.4740 C   0  0  0  0  0  0  0  0  0  0  0  0
   -5.2540   25.4670  -30.7500 C   0  0  0  0  0  0  0  0  0  0  0  0
   -3.8650   25.2700  -30.4950 O   0  0  0  0  0  0  0  0  0  0  0  0
   -3.3600   24.2090  -29.7310 C   0  0  0  0  0  0  0  0  0  0  0  0
   -3.2350   24.3320  -28.4800 O   0  0  0  0  0  0  0  0  0  0  0  0
   -2.9660   22.9490  -30.3960 C   0  0  0  0  0  0  0  0  0  0  0  0
   -3.3900   22.6760  -31.7080 C   0  0  0  0  0  0  0  0  0  0  0  0
   -3.0210   21.4850  -32.3400 C   0  0  0  0  0  0  0  0  0  0  0  0
   -2.2320   20.5380  -31.6650 C   0  0  0  0  0  0  0  0  0  0  0  0
   -1.8120   19.3140  -32.2880 N   0  0  0  0  0  0  0  0  0  0  0  0
   -2.4880   18.6210  -33.3460 C   0  0  0  0  0  0  0  0  0  0  0  0
   -1.9900   18.5880  -34.5040 O   0  0  0  0  0  0  0  0  0  0  0  0
   -3.8260   18.0400  -33.0990 C   0  0  0  0  0  0  0  0  0  0  0  0
   -4.9250   18.9080  -32.9730 C   0  0  0  0  0  0  0  0  0  0  0  0
   -6.2200   18.4070  -32.8050 C   0  0  0  0  0  0  0  0  0  0  0  0
   -7.5840   19.5180  -32.7020 S   0  0  0  0  0  0  0  0  0  0  0  0
   -7.6230   20.3840  -33.9300 O   0  0  0  0  0  0  0  0  0  0  0  0
   -8.8500   18.7090  -32.6520 O   0  0  0  0  0  0  0  0  0  0  0  0
   -7.4500   20.4830  -31.2460 N   0  0  0  0  0  0  0  0  0  0  0  0
   -6.3350   21.4500  -31.2880 C   0  0  0  0  0  0  0  0  0  0  0  0
   -6.6520   22.6970  -32.1270 C   0  0  0  0  0  0  0  0  0  0  0  0
   -7.9520   23.3490  -31.6580 C   0  0  0  0  0  0  0  0  0  0  0  0
   -9.0970   22.3360  -31.6630 C   0  0  0  0  0  0  0  0  0  0  0  0
   -8.7320   21.0910  -30.8400 C   0  0  0  0  0  0  0  0  0  0  0  0
   -6.4280   17.0240  -32.7690 C   0  0  0  0  0  0  0  0  0  0  0  0
   -5.3450   16.1500  -32.8740 C   0  0  0  0  0  0  0  0  0  0  0  0
   -4.0420   16.6420  -33.0180 C   0  0  0  0  0  0  0  0  0  0  0  0
   -2.9960   15.7160  -33.0480 O   0  0  0  0  0  0  0  0  0  0  0  0
   -1.7880   20.8190  -30.3700 C   0  0  0  0  0  0  0  0  0  0  0  0
   -2.1560   22.0090  -29.7350 C   0  0  0  0  0  0  0  0  0  0  0  0
   -5.4164   25.4319  -28.5998 H   0  0  0  0  0  0  0  0  0  0  0  0
   -6.8789   26.0349  -29.4507 H   0  0  0  0  0  0  0  0  0  0  0  0
   -6.4998   24.2791  -29.4507 H   0  0  0  0  0  0  0  0  0  0  0  0
   -5.5910   24.7335  -31.4972 H   0  0  0  0  0  0  0  0  0  0  0  0
   -5.4020   26.4907  -31.1244 H   0  0  0  0  0  0  0  0  0  0  0  0
   -4.0171   23.4053  -32.2417 H   0  0  0  0  0  0  0  0  0  0  0  0
   -3.3499   21.2880  -33.3710 H   0  0  0  0  0  0  0  0  0  0  0  0
   -4.7641   19.9956  -33.0070 H   0  0  0  0  0  0  0  0  0  0  0  0
   -6.1081   21.7680  -30.2597 H   0  0  0  0  0  0  0  0  0  0  0  0
   -5.4796   20.9449  -31.7604 H   0  0  0  0  0  0  0  0  0  0  0  0
   -5.8287   23.4194  -32.0250 H   0  0  0  0  0  0  0  0  0  0  0  0
   -6.7677   22.3951  -33.1784 H   0  0  0  0  0  0  0  0  0  0  0  0
   -7.8149   23.7340  -30.6367 H   0  0  0  0  0  0  0  0  0  0  0  0
   -8.2036   24.1705  -32.3450 H   0  0  0  0  0  0  0  0  0  0  0  0
   -9.9934   22.8038  -31.2299 H   0  0  0  0  0  0  0  0  0  0  0  0
   -9.2880   22.0270  -32.7013 H   0  0  0  0  0  0  0  0  0  0  0  0
   -8.6625   21.3797  -29.7808 H   0  0  0  0  0  0  0  0  0  0  0  0
   -9.5190   20.3420  -31.0124 H   0  0  0  0  0  0  0  0  0  0  0  0
   -7.4469   16.6248  -32.6577 H   0  0  0  0  0  0  0  0  0  0  0  0
   -5.5167   15.0639  -32.8433 H   0  0  0  0  0  0  0  0  0  0  0  0
   -2.0550   15.9500  -33.3360 H   0  0  0  0  0  0  0  0  0  0  0  0
   -1.1436   20.0979  -29.8459 H   0  0  0  0  0  0  0  0  0  0  0  0
   -1.8093   22.2113  -28.7109 H   0  0  0  0  0  0  0  0  0  0  0  0
  1  2  1  0
  2  3  1  0
  3  4  1  0
  4  5  2  0
  4  6  1  0
  6  7  2  0
  7  8  1  0
  8  9  2  0
  9 10  1  0
 10 11  1  0
 11 12  2  0
 11 13  1  0
 13 14  2  0
 14 15  1  0
 15 16  1  0
 16 17  2  0
 16 18  2  0
 16 19  1  0
 19 20  1  0
 20 21  1  0
 21 22  1  0
 22 23  1  0
 23 24  1  0
 15 25  2  0
 25 26  1  0
 26 27  2  0
 27 28  1  0
  9 29  1  0
 29 30  2  0
 30  6  1  0
 27 13  1  0
 24 19  1  0
  1 31  1  0
  1 32  1  0
  1 33  1  0
  2 34  1  0
  2 35  1  0
  7 36  1  0
  8 37  1  0
 14 38  1  0
 20 39  1  0
 20 40  1  0
 21 41  1  0
 21 42  1  0
 22 43  1  0
 22 44  1  0
 23 45  1  0
 23 46  1  0
 24 47  1  0
 24 48  1  0
 25 49  1  0
 26 50  1  0
 28 51  1  0
 29 52  1  0
 30 53  1  0
M  CHG  1  10  -1
M  END
>  <UniqueID>  (40) 
38

>  <SMILES>  (40) 
CCOC(=O)c1ccc([N-]C(=O)c2cc(S(=O)(=O)N3CCCCC3)ccc2O)cc1

>  <Energy>  (40) 
58.94015390279563

>  <Genealogy>  (40) 
CCOC(=O)c1ccc([N-]C(=O)c2cc(S(=O)(=O)N3CCCCC3)ccc2O)cc1 (protonated)
CCOC(=O)c1ccc([N-]C(=O)c2cc(S(=O)(=O)N3CCCCC3)ccc2O)cc1 (3D coordinates assigned)
CCOC(=O)c1ccc([N-]C(=O)c2cc(S(=O)(=O)N3CCCCC3)ccc2O)cc1 (nonaromatic ring conformer: 58.94015390279563 kcal/mol)

>  <smiles>  (40) 
CCOC(=O)c1ccc(NC(=O)c2cc(S(=O)(=O)N3CCCCC3)ccc2O)cc1

>  <score_type>  (40) 
oracle

>  <origin>  (40) 
adgpu

>  <m_score__min__energy>  (40) 
-10.390000000000001

>  <m_primary>  (40) 
energy

$$$$
40:0
     RDKit          3D

 46 49  0  0  0  0  0  0  0  0999 V2000
   -5.3940   26.4110  -29.1860 H   0  0  0  0  0  0  0  0  0  0  0  0
   -5.9770   25.8750  -29.8670 N   0  0  0  0  0  0  0  0  0  0  0  0
   -5.4990   24.8640  -30.5180 C   0  0  0  0  0  0  0  0  0  0  0  0
   -4.2120   24.4750  -30.3240 N   0  0  0  0  0  0  0  0  0  0  0  0
   -3.6860   23.4190  -30.9980 C   0  0  0  0  0  0  0  0  0  0  0  0
   -2.6419   23.1207  -30.8222 H   0  0  0  0  0  0  0  0  0  0  0  0
   -4.4720   22.7080  -31.9180 C   0  0  0  0  0  0  0  0  0  0  0  0
   -3.9450   21.5390  -32.6690 C   0  0  0  0  0  0  0  0  0  0  0  0
   -4.7410   20.4520  -32.8470 N   0  0  0  0  0  0  0  0  0  0  0  0
   -4.3190   19.3550  -33.5310 C   0  0  0  0  0  0  0  0  0  0  0  0
   -5.1920   18.2190  -33.7020 N   0  0  0  0  0  0  0  0  0  0  0  0
   -4.7690   17.0950  -34.5500 C   0  0  0  0  0  0  0  0  0  0  0  0
   -4.9714   17.3399  -35.6031 H   0  0  0  0  0  0  0  0  0  0  0  0
   -3.6929   16.9221  -34.4009 H   0  0  0  0  0  0  0  0  0  0  0  0
   -5.5320   15.8220  -34.1730 C   0  0  0  0  0  0  0  0  0  0  0  0
   -5.3178   15.0402  -34.9165 H   0  0  0  0  0  0  0  0  0  0  0  0
   -5.2065   15.5003  -33.1727 H   0  0  0  0  0  0  0  0  0  0  0  0
   -6.9240   16.0600  -34.1400 O   0  0  0  0  0  0  0  0  0  0  0  0
   -7.2220   16.9590  -33.0900 C   0  0  0  0  0  0  0  0  0  0  0  0
   -8.3138   17.0557  -32.9972 H   0  0  0  0  0  0  0  0  0  0  0  0
   -6.7913   16.5662  -32.1572 H   0  0  0  0  0  0  0  0  0  0  0  0
   -6.6180   18.3380  -33.3660 C   0  0  0  0  0  0  0  0  0  0  0  0
   -7.1504   18.8041  -34.2082 H   0  0  0  0  0  0  0  0  0  0  0  0
   -6.7196   18.9575  -32.4627 H   0  0  0  0  0  0  0  0  0  0  0  0
   -3.0630   19.3430  -34.0550 N   0  0  0  0  0  0  0  0  0  0  0  0
   -2.2160   20.3970  -33.9190 C   0  0  0  0  0  0  0  0  0  0  0  0
   -0.8990   20.3330  -34.5090 N   0  0  0  0  0  0  0  0  0  0  0  0
   -0.0930   21.5570  -34.5990 C   0  0  0  0  0  0  0  0  0  0  0  0
   -0.7578   22.4173  -34.7662 H   0  0  0  0  0  0  0  0  0  0  0  0
    0.4644   21.6872  -33.6597 H   0  0  0  0  0  0  0  0  0  0  0  0
    0.9030   21.4560  -35.7580 C   0  0  0  0  0  0  0  0  0  0  0  0
    0.3519   21.4749  -36.7098 H   0  0  0  0  0  0  0  0  0  0  0  0
    1.5979   22.3068  -35.7011 H   0  0  0  0  0  0  0  0  0  0  0  0
    1.6470   20.2570  -35.6770 O   0  0  0  0  0  0  0  0  0  0  0  0
    0.7850   19.1530  -35.8680 C   0  0  0  0  0  0  0  0  0  0  0  0
    0.2409   19.2801  -36.8155 H   0  0  0  0  0  0  0  0  0  0  0  0
    1.3894   18.2343  -35.8936 H   0  0  0  0  0  0  0  0  0  0  0  0
   -0.2240   19.0450  -34.7200 C   0  0  0  0  0  0  0  0  0  0  0  0
   -0.9738   18.2790  -34.9672 H   0  0  0  0  0  0  0  0  0  0  0  0
    0.3107   18.7672  -33.7997 H   0  0  0  0  0  0  0  0  0  0  0  0
   -2.6540   21.5340  -33.2200 C   0  0  0  0  0  0  0  0  0  0  0  0
   -1.9951   22.4074  -33.1061 H   0  0  0  0  0  0  0  0  0  0  0  0
   -5.8020   23.1210  -32.0900 C   0  0  0  0  0  0  0  0  0  0  0  0
   -6.4561   22.5809  -32.7903 H   0  0  0  0  0  0  0  0  0  0  0  0
   -6.2870   24.1850  -31.3960 N   0  0  0  0  0  0  0  0  0  0  0  0
   -7.2800   24.4790  -31.5450 H   0  0  0  0  0  0  0  0  0  0  0  0
  1  2  1  0
  2  3  2  0
  3  4  1  0
  4  5  2  0
  5  6  1  0
  5  7  1  0
  7  8  1  0
  8  9  2  0
  9 10  1  0
 10 11  1  0
 11 12  1  0
 12 13  1  0
 12 14  1  0
 12 15  1  0
 15 16  1  0
 15 17  1  0
 15 18  1  0
 18 19  1  0
 19 20  1  0
 19 21  1  0
 19 22  1  0
 22 23  1  0
 22 24  1  0
 10 25  2  0
 25 26  1  0
 26 27  1  0
 27 28  1  0
 28 29  1  0
 28 30  1  0
 28 31  1  0
 31 32  1  0
 31 33  1  0
 31 34  1  0
 34 35  1  0
 35 36  1  0
 35 37  1  0
 35 38  1  0
 38 39  1  0
 38 40  1  0
 26 41  2  0
 41 42  1  0
  7 43  2  0
 43 44  1  0
 43 45  1  0
 45 46  1  0
 45  3  1  0
 41  8  1  0
 22 11  1  0
 38 27  1  0
M  END
>  <UniqueID>  (41) 
39

>  <SMILES>  (41) 
[H]/N=c1\ncc(-c2cc(N3CCOCC3)nc(N3CCOCC3)n2)c[nH]1

>  <Energy>  (41) 
58.44782416711858

>  <Genealogy>  (41) 
[H]/N=c1\ncc(-c2cc(N3CCOCC3)nc(N3CCOCC3)n2)c[nH]1 (cis-trans isomerization)
[H]/N=c1\ncc(-c2cc(N3CCOCC3)nc(N3CCOCC3)n2)c[nH]1 (3D coordinates assigned)
[H]/N=c1\ncc(-c2cc(N3CCOCC3)nc(N3CCOCC3)n2)c[nH]1 (nonaromatic ring conformer: 58.44782416711858 kcal/mol)

>  <smiles>  (41) 
N=c1ncc(-c2cc(N3CCOCC3)nc(N3CCOCC3)n2)c[nH]1

>  <score_type>  (41) 
oracle

>  <origin>  (41) 
adgpu

>  <m_score__min__energy>  (41) 
-7.04

>  <m_primary>  (41) 
energy

$$$$
41:0
     RDKit          3D

 45 48  0  0  0  0  0  0  0  0999 V2000
   -8.5650   18.3660  -32.1710 C   0  0  0  0  0  0  0  0  0  0  0  0
   -7.8310   19.6820  -32.1590 C   0  0  0  0  0  0  0  0  0  0  0  0
   -8.3800   20.7510  -31.4280 C   0  0  0  0  0  0  0  0  0  0  0  0
   -7.7520   21.9970  -31.4070 C   0  0  0  0  0  0  0  0  0  0  0  0
   -6.5740   22.1960  -32.1250 C   0  0  0  0  0  0  0  0  0  0  0  0
   -6.0210   21.1530  -32.8680 C   0  0  0  0  0  0  0  0  0  0  0  0
   -6.6390   19.8920  -32.9020 C   0  0  0  0  0  0  0  0  0  0  0  0
   -5.9030   18.6130  -33.8870 S   0  0  0  0  0  0  0  0  0  0  0  0
   -6.1060   18.9220  -35.3430 O   0  0  0  0  0  0  0  0  0  0  0  0
   -6.5390   17.2830  -33.5930 O   0  0  0  0  0  0  0  0  0  0  0  0
   -4.1900   18.4980  -33.5290 C   0  0  0  0  0  0  0  0  0  0  0  0
   -3.5740   17.2550  -33.3990 C   0  0  0  0  0  0  0  0  0  0  0  0
   -2.2310   17.1990  -33.0410 C   0  0  0  0  0  0  0  0  0  0  0  0
   -1.3790   15.4970  -32.8400 Br  0  0  0  0  0  0  0  0  0  0  0  0
   -1.5350   18.3910  -32.8090 C   0  0  0  0  0  0  0  0  0  0  0  0
   -0.3250   18.3490  -32.4530 O   0  0  0  0  0  0  0  0  0  0  0  0
   -2.1790   19.5930  -32.9620 N   0  0  0  0  0  0  0  0  0  0  0  0
   -1.5230   20.8640  -32.6450 C   0  0  0  0  0  0  0  0  0  0  0  0
   -2.3890   21.6490  -31.7020 C   0  0  0  0  0  0  0  0  0  0  0  0
   -3.1770   22.6720  -32.1320 N   0  0  0  0  0  0  0  0  0  0  0  0
   -3.7060   23.1320  -30.9880 C   0  0  0  0  0  0  0  0  0  0  0  0
   -4.5870   24.1560  -30.8650 N   0  0  0  0  0  0  0  0  0  0  0  0
   -5.0380   24.4940  -29.6190 C   0  0  0  0  0  0  0  0  0  0  0  0
   -4.5960   23.7850  -28.4780 C   0  0  0  0  0  0  0  0  0  0  0  0
   -3.6820   22.7260  -28.6230 C   0  0  0  0  0  0  0  0  0  0  0  0
   -3.2510   22.4310  -29.9160 C   0  0  0  0  0  0  0  0  0  0  0  0
   -2.3930   21.4920  -30.3470 N   0  0  0  0  0  0  0  0  0  0  0  0
   -1.7300   20.4590  -29.5520 C   0  0  0  0  0  0  0  0  0  0  0  0
   -3.4700   19.6260  -33.3060 N   0  0  0  0  0  0  0  0  0  0  0  0
   -8.7476   18.0386  -31.1369 H   0  0  0  0  0  0  0  0  0  0  0  0
   -9.5260   18.4869  -32.6925 H   0  0  0  0  0  0  0  0  0  0  0  0
   -7.9572   17.6119  -32.6925 H   0  0  0  0  0  0  0  0  0  0  0  0
   -9.3145   20.6032  -30.8668 H   0  0  0  0  0  0  0  0  0  0  0  0
   -8.1867   22.8222  -30.8238 H   0  0  0  0  0  0  0  0  0  0  0  0
   -6.0791   23.1782  -32.1057 H   0  0  0  0  0  0  0  0  0  0  0  0
   -5.0919   21.3196  -33.4328 H   0  0  0  0  0  0  0  0  0  0  0  0
   -4.1422   16.3301  -33.5771 H   0  0  0  0  0  0  0  0  0  0  0  0
   -0.5496   20.6670  -32.1720 H   0  0  0  0  0  0  0  0  0  0  0  0
   -1.3697   21.4397  -33.5697 H   0  0  0  0  0  0  0  0  0  0  0  0
   -5.7504   25.3241  -29.5033 H   0  0  0  0  0  0  0  0  0  0  0  0
   -4.9661   24.0611  -27.4796 H   0  0  0  0  0  0  0  0  0  0  0  0
   -3.3227   22.1551  -27.7541 H   0  0  0  0  0  0  0  0  0  0  0  0
   -1.8683   20.6745  -28.4822 H   0  0  0  0  0  0  0  0  0  0  0  0
   -2.1674   19.4776  -29.7879 H   0  0  0  0  0  0  0  0  0  0  0  0
   -0.6557   20.4479  -29.7879 H   0  0  0  0  0  0  0  0  0  0  0  0
  1  2  1  0
  2  3  2  0
  3  4  1  0
  4  5  2  0
  5  6  1  0
  6  7  2  0
  7  8  1  0
  8  9  2  0
  8 10  2  0
  8 11  1  0
 11 12  1  0
 12 13  2  0
 13 14  1  0
 13 15  1  0
 15 16  2  0
 15 17  1  0
 17 18  1  0
 18 19  1  0
 19 20  2  0
 20 21  1  0
 21 22  2  0
 22 23  1  0
 23 24  2  0
 24 25  1  0
 25 26  2  0
 26 27  1  0
 27 28  1  0
 17 29  1  0
  7  2  1  0
 29 11  2  0
 27 19  1  0
 26 21  1  0
  1 30  1  0
  1 31  1  0
  1 32  1  0
  3 33  1  0
  4 34  1  0
  5 35  1  0
  6 36  1  0
 12 37  1  0
 18 38  1  0
 18 39  1  0
 23 40  1  0
 24 41  1  0
 25 42  1  0
 28 43  1  0
 28 44  1  0
 28 45  1  0
M  END
>  <UniqueID>  (42) 
40

>  <SMILES>  (42) 
Cc1ccccc1S(=O)(=O)c1cc(Br)c(=O)n(Cc2nc3ncccc3n2C)n1

>  <Energy>  (42) 
90.76944792466259

>  <Genealogy>  (42) 
Cc1ccccc1S(=O)(=O)c1cc(Br)c(=O)n(Cc2nc3ncccc3n2C)n1 (3D coordinates assigned)
Cc1ccccc1S(=O)(=O)c1cc(Br)c(=O)n(Cc2nc3ncccc3n2C)n1 (optimized conformer: 90.76944792466259 kcal/mol)

>  <smiles>  (42) 
Cc1ccccc1S(=O)(=O)c1cc(Br)c(=O)n(Cc2nc3ncccc3n2C)n1

>  <score_type>  (42) 
oracle

>  <origin>  (42) 
adgpu

>  <m_score__min__energy>  (42) 
-9.6699999999999999

>  <m_primary>  (42) 
energy

$$$$
42:0
     RDKit          3D

 51 54  0  0  0  0  0  0  0  0999 V2000
    0.1420   26.4040  -28.2960 H   0  0  0  0  0  0  0  0  0  0  0  0
    0.1270   25.4240  -27.9330 N   0  0  0  0  0  0  0  0  0  0  0  0
   -0.8330   24.6090  -28.2250 C   0  0  0  0  0  0  0  0  0  0  0  0
   -1.8580   25.0150  -29.0160 N   0  0  0  0  0  0  0  0  0  0  0  0
   -2.8680   24.1600  -29.3230 C   0  0  0  0  0  0  0  0  0  0  0  0
   -3.9760   24.5940  -30.1930 C   0  0  0  0  0  0  0  0  0  0  0  0
   -3.8660   25.6710  -30.8370 O   0  0  0  0  0  0  0  0  0  0  0  0
   -5.2090   23.8630  -30.2700 N   0  0  0  0  0  0  0  0  0  0  0  0
   -5.4150   22.6510  -31.0090 C   0  0  0  0  0  0  0  0  0  0  0  0
   -6.7020   22.3310  -31.4490 C   0  0  0  0  0  0  0  0  0  0  0  0
   -7.5404   23.0066  -31.2238 H   0  0  0  0  0  0  0  0  0  0  0  0
   -6.9310   21.1570  -32.1740 C   0  0  0  0  0  0  0  0  0  0  0  0
   -7.9508   20.9086  -32.5032 H   0  0  0  0  0  0  0  0  0  0  0  0
   -5.8670   20.2920  -32.4850 C   0  0  0  0  0  0  0  0  0  0  0  0
   -6.1020   19.0740  -33.2220 N   0  0  0  0  0  0  0  0  0  0  0  0
   -5.1310   18.6280  -34.2290 C   0  0  0  0  0  0  0  0  0  0  0  0
   -4.9125   19.4621  -34.9121 H   0  0  0  0  0  0  0  0  0  0  0  0
   -4.2158   18.3023  -33.7129 H   0  0  0  0  0  0  0  0  0  0  0  0
   -5.6820   17.4460  -35.0400 C   0  0  0  0  0  0  0  0  0  0  0  0
   -6.4966   17.8076  -35.6847 H   0  0  0  0  0  0  0  0  0  0  0  0
   -4.8558   17.0299  -35.6351 H   0  0  0  0  0  0  0  0  0  0  0  0
   -6.2050   16.3670  -34.1700 N   0  0  0  0  0  0  0  0  0  0  0  0
   -5.1170   15.5110  -33.6580 C   0  0  0  0  0  0  0  0  0  0  0  0
   -5.1295   15.5208  -32.5581 H   0  0  0  0  0  0  0  0  0  0  0  0
   -5.2607   14.4813  -34.0172 H   0  0  0  0  0  0  0  0  0  0  0  0
   -4.1500   15.8930  -34.0172 H   0  0  0  0  0  0  0  0  0  0  0  0
   -7.0950   16.8330  -33.0680 C   0  0  0  0  0  0  0  0  0  0  0  0
   -8.0578   16.3082  -33.1556 H   0  0  0  0  0  0  0  0  0  0  0  0
   -6.5759   16.6108  -32.1240 H   0  0  0  0  0  0  0  0  0  0  0  0
   -7.3660   18.3450  -33.0810 C   0  0  0  0  0  0  0  0  0  0  0  0
   -8.0257   18.5907  -33.9263 H   0  0  0  0  0  0  0  0  0  0  0  0
   -7.8500   18.6357  -32.1370 H   0  0  0  0  0  0  0  0  0  0  0  0
   -4.5690   20.6360  -32.0690 C   0  0  0  0  0  0  0  0  0  0  0  0
   -3.7239   19.9769  -32.3169 H   0  0  0  0  0  0  0  0  0  0  0  0
   -4.3440   21.8070  -31.3440 C   0  0  0  0  0  0  0  0  0  0  0  0
   -3.3222   22.0702  -31.0333 H   0  0  0  0  0  0  0  0  0  0  0  0
   -2.8380   22.8890  -28.8410 N   0  0  0  0  0  0  0  0  0  0  0  0
   -1.8220   22.4790  -28.0360 C   0  0  0  0  0  0  0  0  0  0  0  0
   -1.7800   21.0840  -27.5480 C   0  0  0  0  0  0  0  0  0  0  0  0
   -2.9870   20.4630  -27.1740 C   0  0  0  0  0  0  0  0  0  0  0  0
   -3.9242   21.0387  -27.1923 H   0  0  0  0  0  0  0  0  0  0  0  0
   -3.0060   19.1230  -26.7800 C   0  0  0  0  0  0  0  0  0  0  0  0
   -3.9559   18.6489  -26.4920 H   0  0  0  0  0  0  0  0  0  0  0  0
   -1.8230   18.3850  -26.7510 C   0  0  0  0  0  0  0  0  0  0  0  0
   -1.8422   17.3263  -26.4531 H   0  0  0  0  0  0  0  0  0  0  0  0
   -0.6150   18.9900  -27.1000 C   0  0  0  0  0  0  0  0  0  0  0  0
    0.3151   18.4031  -27.0773 H   0  0  0  0  0  0  0  0  0  0  0  0
   -0.5760   20.3380  -27.4790 C   0  0  0  0  0  0  0  0  0  0  0  0
    0.6740   20.9040  -27.7380 O   0  0  0  0  0  0  0  0  0  0  0  0
    0.8150   21.8940  -27.8920 H   0  0  0  0  0  0  0  0  0  0  0  0
   -0.8150   23.3420  -27.7410 N   0  0  0  0  0  0  0  0  0  0  0  0
  1  2  1  0
  2  3  2  0
  3  4  1  0
  4  5  2  0
  5  6  1  0
  6  7  2  0
  6  8  1  0
  8  9  1  0
  9 10  2  0
 10 11  1  0
 10 12  1  0
 12 13  1  0
 12 14  2  0
 14 15  1  0
 15 16  1  0
 16 17  1  0
 16 18  1  0
 16 19  1  0
 19 20  1  0
 19 21  1  0
 19 22  1  0
 22 23  1  0
 23 24  1  0
 23 25  1  0
 23 26  1  0
 22 27  1  0
 27 28  1  0
 27 29  1  0
 27 30  1  0
 30 31  1  0
 30 32  1  0
 14 33  1  0
 33 34  1  0
 33 35  2  0
 35 36  1  0
  5 37  1  0
 37 38  2  0
 38 39  1  0
 39 40  2  0
 40 41  1  0
 40 42  1  0
 42 43  1  0
 42 44  2  0
 44 45  1  0
 44 46  1  0
 46 47  1  0
 46 48  2  0
 48 49  1  0
 49 50  1  0
 38 51  1  0
 51  3  1  0
 35  9  1  0
 48 39  1  0
 30 15  1  0
M  CHG  2   8  -1  51  -1
M  END
>  <UniqueID>  (43) 
41

>  <SMILES>  (43) 
[H]/N=c1\nc(C(=O)[N-]c2ccc(N3CCN(C)CC3)cc2)nc(-c2ccccc2O)[n-]1

>  <Energy>  (43) 
76.61028541613778

>  <Genealogy>  (43) 
CN1CCN(c2ccc([N-]C(=O)c3nc(-c4ccccc4O)[n-]c(=N)n3)cc2)CC1 (protonated)
[H]/N=c1\nc(C(=O)[N-]c2ccc(N3CCN(C)CC3)cc2)nc(-c2ccccc2O)[n-]1 (cis-trans isomerization)
[H]/N=c1\nc(C(=O)[N-]c2ccc(N3CCN(C)CC3)cc2)nc(-c2ccccc2O)[n-]1 (3D coordinates assigned)
[H]/N=c1\nc(C(=O)[N-]c2ccc(N3CCN(C)CC3)cc2)nc(-c2ccccc2O)[n-]1 (nonaromatic ring conformer: 76.61028541613778 kcal/mol)

>  <smiles>  (43) 
CN1CCN(c2ccc(NC(=O)c3nc(-c4ccccc4O)[nH]c(=N)n3)cc2)CC1

>  <score_type>  (43) 
oracle

>  <origin>  (43) 
adgpu

>  <m_score__min__energy>  (43) 
-10.380000000000001

>  <m_primary>  (43) 
energy

$$$$
43:0
     RDKit          3D

 55 58  0  0  0  0  0  0  0  0999 V2000
   -1.6530   25.8100  -28.7560 O   0  0  0  0  0  0  0  0  0  0  0  0
   -2.3270   24.9130  -29.3280 C   0  0  0  0  0  0  0  0  0  0  0  0
   -3.4780   25.2980  -30.0940 N   0  0  0  0  0  0  0  0  0  0  0  0
   -4.6050   24.4630  -30.3970 C   0  0  0  0  0  0  0  0  0  0  0  0
   -4.4450   23.1500  -30.8780 C   0  0  0  0  0  0  0  0  0  0  0  0
   -5.5630   22.3670  -31.1760 C   0  0  0  0  0  0  0  0  0  0  0  0
   -6.8540   22.8870  -31.0100 C   0  0  0  0  0  0  0  0  0  0  0  0
   -8.2540   21.8920  -31.3960 S   0  0  0  0  0  0  0  0  0  0  0  0
   -9.1490   22.6370  -32.3470 O   0  0  0  0  0  0  0  0  0  0  0  0
   -9.0330   21.5850  -30.1470 O   0  0  0  0  0  0  0  0  0  0  0  0
   -7.7240   20.3750  -32.1180 C   0  0  0  0  0  0  0  0  0  0  0  0
   -6.8140   20.3730  -33.1850 C   0  0  0  0  0  0  0  0  0  0  0  0
   -6.3980   19.1630  -33.7500 C   0  0  0  0  0  0  0  0  0  0  0  0
   -6.8840   17.9520  -33.2490 C   0  0  0  0  0  0  0  0  0  0  0  0
   -7.7790   17.9470  -32.1770 C   0  0  0  0  0  0  0  0  0  0  0  0
   -8.1980   19.1550  -31.6100 C   0  0  0  0  0  0  0  0  0  0  0  0
   -7.0150   24.2050  -30.5610 C   0  0  0  0  0  0  0  0  0  0  0  0
   -5.8960   24.9880  -30.2610 C   0  0  0  0  0  0  0  0  0  0  0  0
   -1.9420   23.4940  -29.1580 C   0  0  0  0  0  0  0  0  0  0  0  0
   -1.1960   22.8310  -30.1460 C   0  0  0  0  0  0  0  0  0  0  0  0
   -0.8050   21.5030  -29.9640 C   0  0  0  0  0  0  0  0  0  0  0  0
   -1.1540   20.8180  -28.7920 C   0  0  0  0  0  0  0  0  0  0  0  0
   -0.6110   19.1570  -28.5440 S   0  0  0  0  0  0  0  0  0  0  0  0
   -0.7130   18.4090  -29.8460 O   0  0  0  0  0  0  0  0  0  0  0  0
   -1.5150   18.4830  -27.5480 O   0  0  0  0  0  0  0  0  0  0  0  0
    1.0400   19.0940  -27.9700 N   0  0  0  0  0  0  0  0  0  0  0  0
    1.4290   17.7060  -27.6510 C   0  0  0  0  0  0  0  0  0  0  0  0
    2.9100   17.6330  -27.2160 C   0  0  0  0  0  0  0  0  0  0  0  0
    3.5450   18.8980  -27.2760 O   0  0  0  0  0  0  0  0  0  0  0  0
    3.4340   19.4210  -28.5870 C   0  0  0  0  0  0  0  0  0  0  0  0
    1.9590   19.6820  -28.9650 C   0  0  0  0  0  0  0  0  0  0  0  0
   -1.9220   21.4660  -27.8160 C   0  0  0  0  0  0  0  0  0  0  0  0
   -2.3200   22.7950  -28.0010 C   0  0  0  0  0  0  0  0  0  0  0  0
   -3.4349   22.7384  -31.0200 H   0  0  0  0  0  0  0  0  0  0  0  0
   -5.4296   21.3384  -31.5423 H   0  0  0  0  0  0  0  0  0  0  0  0
   -6.4267   21.3245  -33.5782 H   0  0  0  0  0  0  0  0  0  0  0  0
   -5.6874   19.1644  -34.5897 H   0  0  0  0  0  0  0  0  0  0  0  0
   -6.5611   17.0019  -33.6996 H   0  0  0  0  0  0  0  0  0  0  0  0
   -8.1545   16.9930  -31.7785 H   0  0  0  0  0  0  0  0  0  0  0  0
   -8.9008   19.1492  -30.7638 H   0  0  0  0  0  0  0  0  0  0  0  0
   -8.0250   24.6248  -30.4442 H   0  0  0  0  0  0  0  0  0  0  0  0
   -6.0308   26.0237  -29.9157 H   0  0  0  0  0  0  0  0  0  0  0  0
   -0.9180   23.3611  -31.0689 H   0  0  0  0  0  0  0  0  0  0  0  0
   -0.2207   20.9923  -30.7436 H   0  0  0  0  0  0  0  0  0  0  0  0
    1.0790   19.6660  -27.0910 H   0  0  0  0  0  0  0  0  0  0  0  0
    0.7949   17.3335  -26.8330 H   0  0  0  0  0  0  0  0  0  0  0  0
    1.2971   17.0888  -28.5519 H   0  0  0  0  0  0  0  0  0  0  0  0
    2.9583   17.2604  -26.1822 H   0  0  0  0  0  0  0  0  0  0  0  0
    3.4339   16.9573  -27.9081 H   0  0  0  0  0  0  0  0  0  0  0  0
    3.9911   20.3678  -28.6433 H   0  0  0  0  0  0  0  0  0  0  0  0
    3.8472   18.6835  -29.2908 H   0  0  0  0  0  0  0  0  0  0  0  0
    1.7879   20.7675  -29.0138 H   0  0  0  0  0  0  0  0  0  0  0  0
    1.7616   19.2137  -29.9405 H   0  0  0  0  0  0  0  0  0  0  0  0
   -2.2132   20.9287  -26.9014 H   0  0  0  0  0  0  0  0  0  0  0  0
   -2.9323   23.2943  -27.2356 H   0  0  0  0  0  0  0  0  0  0  0  0
  1  2  2  0
  2  3  1  0
  3  4  1  0
  4  5  2  0
  5  6  1  0
  6  7  2  0
  7  8  1  0
  8  9  2  0
  8 10  2  0
  8 11  1  0
 11 12  2  0
 12 13  1  0
 13 14  2  0
 14 15  1  0
 15 16  2  0
  7 17  1  0
 17 18  2  0
  2 19  1  0
 19 20  2  0
 20 21  1  0
 21 22  2  0
 22 23  1  0
 23 24  2  0
 23 25  2  0
 23 26  1  0
 26 27  1  0
 27 28  1  0
 28 29  1  0
 29 30  1  0
 30 31  1  0
 22 32  1  0
 32 33  2  0
 18  4  1  0
 33 19  1  0
 16 11  1  0
 31 26  1  0
  5 34  1  0
  6 35  1  0
 12 36  1  0
 13 37  1  0
 14 38  1  0
 15 39  1  0
 16 40  1  0
 17 41  1  0
 18 42  1  0
 20 43  1  0
 21 44  1  0
 26 45  1  0
 27 46  1  0
 27 47  1  0
 28 48  1  0
 28 49  1  0
 30 50  1  0
 30 51  1  0
 31 52  1  0
 31 53  1  0
 32 54  1  0
 33 55  1  0
M  CHG  2   3  -1  26   1
M  END
>  <UniqueID>  (44) 
42

>  <SMILES>  (44) 
O=C([N-]c1ccc(S(=O)(=O)c2ccccc2)cc1)c1ccc(S(=O)(=O)[NH+]2CCOCC2)cc1

>  <Energy>  (44) 
72.25610221528916

>  <Genealogy>  (44) 
O=C([N-]c1ccc(S(=O)(=O)c2ccccc2)cc1)c1ccc(S(=O)(=O)[NH+]2CCOCC2)cc1 (protonated)
O=C([N-]c1ccc(S(=O)(=O)c2ccccc2)cc1)c1ccc(S(=O)(=O)[NH+]2CCOCC2)cc1 (3D coordinates assigned)
O=C([N-]c1ccc(S(=O)(=O)c2ccccc2)cc1)c1ccc(S(=O)(=O)[NH+]2CCOCC2)cc1 (nonaromatic ring conformer: 72.25610221528916 kcal/mol)

>  <smiles>  (44) 
O=C(Nc1ccc(S(=O)(=O)c2ccccc2)cc1)c1ccc(S(=O)(=O)N2CCOCC2)cc1

>  <score_type>  (44) 
oracle

>  <origin>  (44) 
adgpu

>  <m_score__min__energy>  (44) 
-12.5

>  <m_primary>  (44) 
energy

$$$$
44:0
     RDKit          3D

 28 29  0  0  0  0  0  0  0  0999 V2000
   -4.1260   18.2600  -34.0350 H   0  0  0  0  0  0  0  0  0  0  0  0
   -4.9950   17.8780  -33.5960 N   0  0  0  0  0  0  0  0  0  0  0  0
   -5.9310   18.6390  -33.1210 C   0  0  0  0  0  0  0  0  0  0  0  0
   -5.8120   20.0330  -33.1810 C   0  0  0  0  0  0  0  0  0  0  0  0
   -4.9258   20.4910  -33.6445 H   0  0  0  0  0  0  0  0  0  0  0  0
   -6.8210   20.8410  -32.6510 C   0  0  0  0  0  0  0  0  0  0  0  0
   -6.6760   22.2690  -32.7270 N   0  0  0  0  0  0  0  0  0  0  0  0
   -7.2210   22.7710  -33.4650 H   0  0  0  0  0  0  0  0  0  0  0  0
   -5.7270   23.0220  -31.9500 C   0  0  0  0  0  0  0  0  0  0  0  0
   -6.0830   24.2940  -31.4740 C   0  0  0  0  0  0  0  0  0  0  0  0
   -7.0825   24.6990  -31.6906 H   0  0  0  0  0  0  0  0  0  0  0  0
   -5.1740   25.0490  -30.7260 C   0  0  0  0  0  0  0  0  0  0  0  0
   -5.4638   26.0407  -30.3486 H   0  0  0  0  0  0  0  0  0  0  0  0
   -3.8980   24.5460  -30.4570 C   0  0  0  0  0  0  0  0  0  0  0  0
   -2.9980   25.2970  -29.7130 O   0  0  0  0  0  0  0  0  0  0  0  0
   -3.5290   23.2880  -30.9390 C   0  0  0  0  0  0  0  0  0  0  0  0
   -2.5238   22.8935  -30.7295 H   0  0  0  0  0  0  0  0  0  0  0  0
   -4.4340   22.5290  -31.6870 C   0  0  0  0  0  0  0  0  0  0  0  0
   -4.1351   21.5428  -32.0717 H   0  0  0  0  0  0  0  0  0  0  0  0
   -7.9740   20.2410  -32.1040 C   0  0  0  0  0  0  0  0  0  0  0  0
   -9.0730   21.0600  -31.6430 C   0  0  0  0  0  0  0  0  0  0  0  0
   -9.9510   21.7160  -31.2740 N   0  0  0  0  0  0  0  0  0  0  0  0
   -8.0590   18.8320  -32.0590 C   0  0  0  0  0  0  0  0  0  0  0  0
   -9.2040   18.1740  -31.5010 N   0  0  0  0  0  0  0  0  0  0  0  0
   -9.7710   17.4880  -32.0460 H   0  0  0  0  0  0  0  0  0  0  0  0
   -9.5040   18.3780  -30.5220 H   0  0  0  0  0  0  0  0  0  0  0  0
   -7.0380   18.0780  -32.5610 N   0  0  0  0  0  0  0  0  0  0  0  0
   -7.1120   17.0350  -32.5230 H   0  0  0  0  0  0  0  0  0  0  0  0
  1  2  1  0
  2  3  2  0
  3  4  1  0
  4  5  1  0
  4  6  2  0
  6  7  1  0
  7  8  1  0
  7  9  1  0
  9 10  2  0
 10 11  1  0
 10 12  1  0
 12 13  1  0
 12 14  2  0
 14 15  1  0
 14 16  1  0
 16 17  1  0
 16 18  2  0
 18 19  1  0
  6 20  1  0
 20 21  1  0
 21 22  3  0
 20 23  2  0
 23 24  1  0
 24 25  1  0
 24 26  1  0
 23 27  1  0
 27 28  1  0
 27  3  1  0
 18  9  1  0
M  CHG  1  15  -1
M  END
>  <UniqueID>  (45) 
43

>  <SMILES>  (45) 
[H]/N=c1\cc(Nc2ccc([O-])cc2)c(C#N)c(N)[nH]1

>  <Energy>  (45) 
36.786269548490125

>  <Genealogy>  (45) 
N#Cc1c(Nc2ccc([O-])cc2)cc(=N)[nH]c1N (protonated)
[H]/N=c1\cc(Nc2ccc([O-])cc2)c(C#N)c(N)[nH]1 (cis-trans isomerization)
[H]/N=c1\cc(Nc2ccc([O-])cc2)c(C#N)c(N)[nH]1 (3D coordinates assigned)
[H]/N=c1\cc(Nc2ccc([O-])cc2)c(C#N)c(N)[nH]1 (optimized conformer: 36.786269548490125 kcal/mol)

>  <smiles>  (45) 
N#Cc1c(Nc2ccc(O)cc2)cc(=N)[nH]c1N

>  <score_type>  (45) 
oracle

>  <origin>  (45) 
adgpu

>  <m_score__min__energy>  (45) 
-9.6799999999999997

>  <m_primary>  (45) 
energy

$$$$
45:0
     RDKit          3D

 67 71  0  0  0  0  0  0  0  0999 V2000
    0.8510   26.4540  -24.6060 C   0  0  0  0  0  0  0  0  0  0  0  0
    0.1240   25.2110  -24.2900 N   0  0  0  0  0  0  0  0  0  0  0  0
    0.9960   24.0330  -24.5320 C   0  0  0  0  0  0  0  0  0  0  0  0
    0.1700   22.7700  -24.8150 C   0  0  0  0  0  0  0  0  0  0  0  0
   -0.6610   22.9120  -26.0390 N   0  0  0  0  0  0  0  0  0  0  0  0
   -0.0060   22.2870  -27.2130 C   0  0  0  0  0  0  0  0  0  0  0  0
   -0.4310   20.8180  -27.4000 C   0  0  0  0  0  0  0  0  0  0  0  0
   -0.0420   20.2740  -28.7500 C   0  0  0  0  0  0  0  0  0  0  0  0
   -0.4500   20.6930  -29.9730 C   0  0  0  0  0  0  0  0  0  0  0  0
    0.1240   20.2320  -31.1560 C   0  0  0  0  0  0  0  0  0  0  0  0
   -0.5150   20.8630  -32.1950 C   0  0  0  0  0  0  0  0  0  0  0  0
   -1.4310   21.7250  -31.7320 N   0  0  0  0  0  0  0  0  0  0  0  0
   -1.4270   21.6330  -30.3800 C   0  0  0  0  0  0  0  0  0  0  0  0
   -2.3230   22.2850  -29.6130 C   0  0  0  0  0  0  0  0  0  0  0  0
   -3.2310   23.3310  -30.1240 C   0  0  0  0  0  0  0  0  0  0  0  0
   -3.1300   24.7100  -29.9700 C   0  0  0  0  0  0  0  0  0  0  0  0
   -2.0810   25.3650  -29.3350 O   0  0  0  0  0  0  0  0  0  0  0  0
   -4.2030   25.3640  -30.4730 N   0  0  0  0  0  0  0  0  0  0  0  0
   -5.0020   24.3790  -30.9280 C   0  0  0  0  0  0  0  0  0  0  0  0
   -6.2500   24.5320  -31.5250 C   0  0  0  0  0  0  0  0  0  0  0  0
   -6.9460   23.3730  -31.9130 C   0  0  0  0  0  0  0  0  0  0  0  0
   -6.3900   22.0910  -31.6900 C   0  0  0  0  0  0  0  0  0  0  0  0
   -7.2620   20.6450  -32.1820 S   0  0  0  0  0  0  0  0  0  0  0  0
   -9.0080   20.9020  -31.9620 C   0  0  0  0  0  0  0  0  0  0  0  0
   -6.9720   20.3490  -33.6280 O   0  0  0  0  0  0  0  0  0  0  0  0
   -6.8220   19.4710  -31.3530 O   0  0  0  0  0  0  0  0  0  0  0  0
   -5.1210   21.9680  -31.0870 C   0  0  0  0  0  0  0  0  0  0  0  0
   -4.4560   23.1370  -30.7180 C   0  0  0  0  0  0  0  0  0  0  0  0
   -0.1750   20.6570  -33.6410 C   0  0  0  0  0  0  0  0  0  0  0  0
    0.6050   19.3440  -33.8320 C   0  0  0  0  0  0  0  0  0  0  0  0
    1.7330   19.2070  -32.7920 C   0  0  0  0  0  0  0  0  0  0  0  0
    1.1810   19.1770  -31.3550 C   0  0  0  0  0  0  0  0  0  0  0  0
   -1.0560   24.3180  -26.3160 C   0  0  0  0  0  0  0  0  0  0  0  0
   -1.1670   25.1460  -25.0260 C   0  0  0  0  0  0  0  0  0  0  0  0
    1.1440   26.9550  -23.6716 H   0  0  0  0  0  0  0  0  0  0  0  0
    1.7510   26.2138  -25.1911 H   0  0  0  0  0  0  0  0  0  0  0  0
    0.2004   27.1207  -25.1911 H   0  0  0  0  0  0  0  0  0  0  0  0
   -0.0990   25.2390  -23.2650 H   0  0  0  0  0  0  0  0  0  0  0  0
    1.6425   24.2387  -25.3979 H   0  0  0  0  0  0  0  0  0  0  0  0
    1.5969   23.8569  -23.6276 H   0  0  0  0  0  0  0  0  0  0  0  0
    0.8551   21.9196  -24.9474 H   0  0  0  0  0  0  0  0  0  0  0  0
   -0.5055   22.6071  -23.9622 H   0  0  0  0  0  0  0  0  0  0  0  0
   -0.2803   22.8532  -28.1153 H   0  0  0  0  0  0  0  0  0  0  0  0
    1.0809   22.3063  -27.0446 H   0  0  0  0  0  0  0  0  0  0  0  0
    0.0517   20.2090  -26.6215 H   0  0  0  0  0  0  0  0  0  0  0  0
   -1.5275   20.7743  -27.3245 H   0  0  0  0  0  0  0  0  0  0  0  0
    0.6627   19.4294  -28.7423 H   0  0  0  0  0  0  0  0  0  0  0  0
   -2.0720   22.2880  -32.3340 H   0  0  0  0  0  0  0  0  0  0  0  0
   -2.3811   22.0231  -28.5462 H   0  0  0  0  0  0  0  0  0  0  0  0
   -6.6799   25.5312  -31.6887 H   0  0  0  0  0  0  0  0  0  0  0  0
   -7.9311   23.4639  -32.3940 H   0  0  0  0  0  0  0  0  0  0  0  0
   -9.2410   20.9363  -30.8875 H   0  0  0  0  0  0  0  0  0  0  0  0
   -9.3006   21.8529  -32.4312 H   0  0  0  0  0  0  0  0  0  0  0  0
   -9.5622   20.0758  -32.4312 H   0  0  0  0  0  0  0  0  0  0  0  0
   -4.6695   20.9801  -30.9130 H   0  0  0  0  0  0  0  0  0  0  0  0
   -1.1041   20.6143  -34.2284 H   0  0  0  0  0  0  0  0  0  0  0  0
    0.4518   21.4946  -33.9809 H   0  0  0  0  0  0  0  0  0  0  0  0
   -0.0878   18.4965  -33.7230 H   0  0  0  0  0  0  0  0  0  0  0  0
    1.0564   19.3510  -34.8351 H   0  0  0  0  0  0  0  0  0  0  0  0
    2.2823   18.2732  -32.9826 H   0  0  0  0  0  0  0  0  0  0  0  0
    2.3954   20.0800  -32.8871 H   0  0  0  0  0  0  0  0  0  0  0  0
    0.7418   18.1876  -31.1598 H   0  0  0  0  0  0  0  0  0  0  0  0
    2.0090   19.3775  -30.6592 H   0  0  0  0  0  0  0  0  0  0  0  0
   -0.3002   24.7776  -26.9699 H   0  0  0  0  0  0  0  0  0  0  0  0
   -2.0438   24.3059  -26.7998 H   0  0  0  0  0  0  0  0  0  0  0  0
   -1.4787   26.1683  -25.2864 H   0  0  0  0  0  0  0  0  0  0  0  0
   -1.9052   24.6579  -24.3727 H   0  0  0  0  0  0  0  0  0  0  0  0
  1  2  1  0
  2  3  1  0
  3  4  1  0
  4  5  1  0
  5  6  1  0
  6  7  1  0
  7  8  1  0
  8  9  2  3
  9 10  1  0
 10 11  2  0
 11 12  1  0
 12 13  1  0
 13 14  2  3
 14 15  1  0
 15 16  2  0
 16 17  1  0
 16 18  1  0
 18 19  1  0
 19 20  2  0
 20 21  1  0
 21 22  2  0
 22 23  1  0
 23 24  1  0
 23 25  2  0
 23 26  2  0
 22 27  1  0
 27 28  2  0
 11 29  1  0
 29 30  1  0
 30 31  1  0
 31 32  1  0
  5 33  1  0
 33 34  1  0
 34  2  1  0
 13  9  1  0
 28 15  1  0
 32 10  1  0
 28 19  1  0
  1 35  1  0
  1 36  1  0
  1 37  1  0
  2 38  1  0
  3 39  1  0
  3 40  1  0
  4 41  1  0
  4 42  1  0
  6 43  1  0
  6 44  1  0
  7 45  1  0
  7 46  1  0
  8 47  1  0
 12 48  1  0
 14 49  1  0
 20 50  1  0
 21 51  1  0
 24 52  1  0
 24 53  1  0
 24 54  1  0
 27 55  1  0
 29 56  1  0
 29 57  1  0
 30 58  1  0
 30 59  1  0
 31 60  1  0
 31 61  1  0
 32 62  1  0
 32 63  1  0
 33 64  1  0
 33 65  1  0
 34 66  1  0
 34 67  1  0
M  CHG  3   2   1  17  -1  18  -1
M  END
>  <UniqueID>  (46) 
44

>  <SMILES>  (46) 
C[NH+]1CCN(CCC=c2c3c([nH]c2=Cc2c([O-])[n-]c4ccc(S(C)(=O)=O)cc24)CCCC3)CC1

>  <Energy>  (46) 
152.61184578317355

>  <Genealogy>  (46) 
C[NH+]1CCN(CCC=c2c3c([nH]c2=Cc2c([O-])[n-]c4ccc(S(C)(=O)=O)cc24)CCCC3)CC1 (protonated)
C[NH+]1CCN(CCC=c2c3c([nH]c2=Cc2c([O-])[n-]c4ccc(S(C)(=O)=O)cc24)CCCC3)CC1 (3D coordinates assigned)
C[NH+]1CCN(CCC=c2c3c([nH]c2=Cc2c([O-])[n-]c4ccc(S(C)(=O)=O)cc24)CCCC3)CC1 (nonaromatic ring conformer: 152.61184578317355 kcal/mol)

>  <smiles>  (46) 
CN1CCN(CCC=c2c3c([nH]c2=Cc2c(O)[nH]c4ccc(S(C)(=O)=O)cc24)CCCC3)CC1

>  <score_type>  (46) 
oracle

>  <origin>  (46) 
adgpu

>  <m_score__min__energy>  (46) 
-14.970000000000001

>  <m_primary>  (46) 
energy

$$$$
46:0
     RDKit          3D

 52 55  0  0  0  0  0  0  0  0999 V2000
   -8.7280   23.2250  -32.0960 O   0  0  0  0  0  0  0  0  0  0  0  0
   -7.9400   22.4690  -31.4690 C   0  0  0  0  0  0  0  0  0  0  0  0
   -7.1680   23.0180  -30.3930 N   0  0  0  0  0  0  0  0  0  0  0  0
   -5.9060   24.1980  -30.5650 S   0  0  0  0  0  0  0  0  0  0  0  0
   -5.3580   24.1330  -31.9620 O   0  0  0  0  0  0  0  0  0  0  0  0
   -6.4750   25.5690  -30.3300 O   0  0  0  0  0  0  0  0  0  0  0  0
   -4.5940   23.8670  -29.4370 C   0  0  0  0  0  0  0  0  0  0  0  0
   -3.5230   23.0430  -29.8080 C   0  0  0  0  0  0  0  0  0  0  0  0
   -2.4320   22.8780  -28.9520 C   0  0  0  0  0  0  0  0  0  0  0  0
   -2.4030   23.5290  -27.7050 C   0  0  0  0  0  0  0  0  0  0  0  0
   -1.2860   23.4120  -26.8130 N   0  0  0  0  0  0  0  0  0  0  0  0
    0.3790   23.5690  -27.2690 S   0  0  0  0  0  0  0  0  0  0  0  0
    1.0100   22.2040  -27.3070 O   0  0  0  0  0  0  0  0  0  0  0  0
    0.4610   24.1750  -28.6410 O   0  0  0  0  0  0  0  0  0  0  0  0
    1.2140   24.6200  -26.1310 C   0  0  0  0  0  0  0  0  0  0  0  0
    2.5950   24.4990  -25.9250 C   0  0  0  0  0  0  0  0  0  0  0  0
    3.2440   25.3260  -25.0080 C   0  0  0  0  0  0  0  0  0  0  0  0
    2.5250   26.2920  -24.2890 C   0  0  0  0  0  0  0  0  0  0  0  0
    1.1310   26.4040  -24.4770 C   0  0  0  0  0  0  0  0  0  0  0  0
    0.4890   25.5770  -25.4110 C   0  0  0  0  0  0  0  0  0  0  0  0
    0.3400   27.4750  -23.7620 C   0  0  0  0  0  0  0  0  0  0  0  0
    1.0170   27.9360  -22.5390 N   0  0  0  0  0  0  0  0  0  0  0  0
    2.4020   28.3350  -22.8200 C   0  0  0  0  0  0  0  0  0  0  0  0
    3.2380   27.1260  -23.2550 C   0  0  0  0  0  0  0  0  0  0  0  0
   -3.4870   24.3320  -27.3270 C   0  0  0  0  0  0  0  0  0  0  0  0
   -3.4730   24.9780  -26.1350 F   0  0  0  0  0  0  0  0  0  0  0  0
   -4.5750   24.5030  -28.1890 C   0  0  0  0  0  0  0  0  0  0  0  0
   -7.8280   21.0560  -31.8790 C   0  0  0  0  0  0  0  0  0  0  0  0
   -8.8110   20.1330  -31.4860 C   0  0  0  0  0  0  0  0  0  0  0  0
   -8.7380   18.8020  -31.9110 C   0  0  0  0  0  0  0  0  0  0  0  0
   -7.6740   18.3820  -32.7130 C   0  0  0  0  0  0  0  0  0  0  0  0
   -6.6760   19.2880  -33.0830 C   0  0  0  0  0  0  0  0  0  0  0  0
   -6.7480   20.6210  -32.6640 C   0  0  0  0  0  0  0  0  0  0  0  0
   -3.5417   22.5239  -30.7776 H   0  0  0  0  0  0  0  0  0  0  0  0
   -1.5914   22.2361  -29.2541 H   0  0  0  0  0  0  0  0  0  0  0  0
    3.1694   23.7490  -26.4886 H   0  0  0  0  0  0  0  0  0  0  0  0
    4.3271   25.2198  -24.8477 H   0  0  0  0  0  0  0  0  0  0  0  0
   -0.5931   25.6814  -25.5790 H   0  0  0  0  0  0  0  0  0  0  0  0
    0.2085   28.3315  -24.4396 H   0  0  0  0  0  0  0  0  0  0  0  0
   -0.6300   27.0448  -23.4720 H   0  0  0  0  0  0  0  0  0  0  0  0
    1.0010   27.1760  -21.8170 H   0  0  0  0  0  0  0  0  0  0  0  0
    0.4980   28.7610  -22.1600 H   0  0  0  0  0  0  0  0  0  0  0  0
    2.4053   29.0845  -23.6251 H   0  0  0  0  0  0  0  0  0  0  0  0
    2.8409   28.7564  -21.9036 H   0  0  0  0  0  0  0  0  0  0  0  0
    4.1871   27.4844  -23.6801 H   0  0  0  0  0  0  0  0  0  0  0  0
    3.4124   26.4961  -22.3702 H   0  0  0  0  0  0  0  0  0  0  0  0
   -5.4193   25.1395  -27.8857 H   0  0  0  0  0  0  0  0  0  0  0  0
   -9.6413   20.4578  -30.8417 H   0  0  0  0  0  0  0  0  0  0  0  0
   -9.5185   18.0862  -31.6136 H   0  0  0  0  0  0  0  0  0  0  0  0
   -7.6216   17.3374  -33.0536 H   0  0  0  0  0  0  0  0  0  0  0  0
   -5.8327   18.9525  -33.7045 H   0  0  0  0  0  0  0  0  0  0  0  0
   -5.9569   21.3297  -32.9501 H   0  0  0  0  0  0  0  0  0  0  0  0
  1  2  2  0
  2  3  1  0
  3  4  1  0
  4  5  2  0
  4  6  2  0
  4  7  1  0
  7  8  2  0
  8  9  1  0
  9 10  2  0
 10 11  1  0
 11 12  1  0
 12 13  2  0
 12 14  2  0
 12 15  1  0
 15 16  2  0
 16 17  1  0
 17 18  2  0
 18 19  1  0
 19 20  2  0
 19 21  1  0
 21 22  1  0
 22 23  1  0
 23 24  1  0
 10 25  1  0
 25 26  1  0
 25 27  2  0
  2 28  1  0
 28 29  2  0
 29 30  1  0
 30 31  2  0
 31 32  1  0
 32 33  2  0
 27  7  1  0
 33 28  1  0
 20 15  1  0
 24 18  1  0
  8 34  1  0
  9 35  1  0
 16 36  1  0
 17 37  1  0
 20 38  1  0
 21 39  1  0
 21 40  1  0
 22 41  1  0
 22 42  1  0
 23 43  1  0
 23 44  1  0
 24 45  1  0
 24 46  1  0
 27 47  1  0
 29 48  1  0
 30 49  1  0
 31 50  1  0
 32 51  1  0
 33 52  1  0
M  CHG  3   3  -1  11  -1  22   1
M  END
>  <UniqueID>  (47) 
45

>  <SMILES>  (47) 
O=C([N-]S(=O)(=O)c1ccc([N-]S(=O)(=O)c2ccc3c(c2)C[NH2+]CC3)c(F)c1)c1ccccc1

>  <Energy>  (47) 
65.45056515655813

>  <Genealogy>  (47) 
O=C([N-]S(=O)(=O)c1ccc([N-]S(=O)(=O)c2ccc3c(c2)C[NH2+]CC3)c(F)c1)c1ccccc1 (protonated)
O=C([N-]S(=O)(=O)c1ccc([N-]S(=O)(=O)c2ccc3c(c2)C[NH2+]CC3)c(F)c1)c1ccccc1 (3D coordinates assigned)
O=C([N-]S(=O)(=O)c1ccc([N-]S(=O)(=O)c2ccc3c(c2)C[NH2+]CC3)c(F)c1)c1ccccc1 (nonaromatic ring conformer: 65.45056515655813 kcal/mol)

>  <smiles>  (47) 
O=C(NS(=O)(=O)c1ccc(NS(=O)(=O)c2ccc3c(c2)CNCC3)c(F)c1)c1ccccc1

>  <score_type>  (47) 
oracle

>  <origin>  (47) 
adgpu

>  <m_score__min__energy>  (47) 
-12.48

>  <m_primary>  (47) 
energy

$$$$
47:0
     RDKit          3D

 59 62  0  0  0  0  0  0  0  0999 V2000
   -1.6680   20.8770  -26.3280 C   0  0  0  0  0  0  0  0  0  0  0  0
   -1.6720   22.1680  -27.0910 C   0  0  0  0  0  0  0  0  0  0  0  0
   -0.5940   23.0550  -26.9810 C   0  0  0  0  0  0  0  0  0  0  0  0
   -0.5760   24.2490  -27.7170 C   0  0  0  0  0  0  0  0  0  0  0  0
    0.5870   25.1930  -27.5930 C   0  0  0  0  0  0  0  0  0  0  0  0
   -1.6380   24.5450  -28.5930 C   0  0  0  0  0  0  0  0  0  0  0  0
   -1.6040   25.7280  -29.3260 O   0  0  0  0  0  0  0  0  0  0  0  0
   -2.7220   23.6480  -28.7250 C   0  0  0  0  0  0  0  0  0  0  0  0
   -3.8520   23.9190  -29.6490 C   0  0  0  0  0  0  0  0  0  0  0  0
   -3.8610   24.9300  -30.5410 N   0  0  0  0  0  0  0  0  0  0  0  0
   -5.0230   24.8810  -31.1680 N   0  0  0  0  0  0  0  0  0  0  0  0
   -5.6920   23.8410  -30.6420 C   0  0  0  0  0  0  0  0  0  0  0  0
   -7.3550   23.3870  -31.1310 S   0  0  0  0  0  0  0  0  0  0  0  0
   -6.8390   22.5170  -32.6530 C   0  0  0  0  0  0  0  0  0  0  0  0
   -5.6090   21.6960  -32.4140 C   0  0  0  0  0  0  0  0  0  0  0  0
   -5.7340   20.4760  -32.1170 O   0  0  0  0  0  0  0  0  0  0  0  0
   -4.3140   22.3180  -32.4400 N   0  0  0  0  0  0  0  0  0  0  0  0
   -3.0790   21.6200  -32.2120 C   0  0  0  0  0  0  0  0  0  0  0  0
   -2.1250   22.1760  -31.3480 C   0  0  0  0  0  0  0  0  0  0  0  0
   -0.9120   21.5220  -31.1210 C   0  0  0  0  0  0  0  0  0  0  0  0
   -0.6330   20.3170  -31.7690 C   0  0  0  0  0  0  0  0  0  0  0  0
   -1.5630   19.7650  -32.6590 C   0  0  0  0  0  0  0  0  0  0  0  0
   -1.2150   18.2510  -33.4890 S   0  0  0  0  0  0  0  0  0  0  0  0
    0.1220   17.7500  -33.0190 O   0  0  0  0  0  0  0  0  0  0  0  0
   -1.1460   18.5080  -34.9700 O   0  0  0  0  0  0  0  0  0  0  0  0
   -2.4980   17.1110  -33.1170 N   0  0  0  0  0  0  0  0  0  0  0  0
   -2.4350   15.8760  -33.9230 C   0  0  0  0  0  0  0  0  0  0  0  0
   -2.9900   16.0640  -35.3440 C   0  0  0  0  0  0  0  0  0  0  0  0
   -4.4000   16.6490  -35.3030 C   0  0  0  0  0  0  0  0  0  0  0  0
   -4.4100   17.9500  -34.5030 C   0  0  0  0  0  0  0  0  0  0  0  0
   -3.8420   17.7200  -33.0930 C   0  0  0  0  0  0  0  0  0  0  0  0
   -2.7840   20.4180  -32.8800 C   0  0  0  0  0  0  0  0  0  0  0  0
   -4.9960   23.2030  -29.6830 N   0  0  0  0  0  0  0  0  0  0  0  0
   -2.7220   22.4620  -27.9700 C   0  0  0  0  0  0  0  0  0  0  0  0
   -1.6687   21.0890  -25.2486 H   0  0  0  0  0  0  0  0  0  0  0  0
   -2.5643   20.2947  -26.5878 H   0  0  0  0  0  0  0  0  0  0  0  0
   -0.7681   20.3003  -26.5878 H   0  0  0  0  0  0  0  0  0  0  0  0
    0.2453   22.8135  -26.3122 H   0  0  0  0  0  0  0  0  0  0  0  0
    0.8043   25.3694  -26.5292 H   0  0  0  0  0  0  0  0  0  0  0  0
    1.4700   24.7529  -28.0795 H   0  0  0  0  0  0  0  0  0  0  0  0
    0.3379   26.1476  -28.0795 H   0  0  0  0  0  0  0  0  0  0  0  0
   -7.6539   21.8558  -32.9827 H   0  0  0  0  0  0  0  0  0  0  0  0
   -6.6137   23.2674  -33.4251 H   0  0  0  0  0  0  0  0  0  0  0  0
   -4.2760   23.3610  -32.4940 H   0  0  0  0  0  0  0  0  0  0  0  0
   -2.3330   23.1325  -30.8462 H   0  0  0  0  0  0  0  0  0  0  0  0
   -0.1748   21.9571  -30.4302 H   0  0  0  0  0  0  0  0  0  0  0  0
    0.3194   19.8001  -31.5801 H   0  0  0  0  0  0  0  0  0  0  0  0
   -1.3849   15.5564  -33.9951 H   0  0  0  0  0  0  0  0  0  0  0  0
   -3.0575   15.1206  -33.4212 H   0  0  0  0  0  0  0  0  0  0  0  0
   -2.3321   16.7477  -35.9005 H   0  0  0  0  0  0  0  0  0  0  0  0
   -3.0299   15.0827  -35.8394 H   0  0  0  0  0  0  0  0  0  0  0  0
   -4.7390   16.8515  -36.3297 H   0  0  0  0  0  0  0  0  0  0  0  0
   -5.0738   15.9262  -34.8198 H   0  0  0  0  0  0  0  0  0  0  0  0
   -3.7952   18.6994  -35.0230 H   0  0  0  0  0  0  0  0  0  0  0  0
   -5.4473   18.3052  -34.4149 H   0  0  0  0  0  0  0  0  0  0  0  0
   -3.7811   18.6885  -32.5750 H   0  0  0  0  0  0  0  0  0  0  0  0
   -4.5150   17.0236  -32.5713 H   0  0  0  0  0  0  0  0  0  0  0  0
   -3.5154   19.9877  -33.5799 H   0  0  0  0  0  0  0  0  0  0  0  0
   -3.5586   21.7549  -28.0711 H   0  0  0  0  0  0  0  0  0  0  0  0
  1  2  1  0
  2  3  2  0
  3  4  1  0
  4  5  1  0
  4  6  2  0
  6  7  1  0
  6  8  1  0
  8  9  1  0
  9 10  2  0
 10 11  1  0
 11 12  1  0
 12 13  1  0
 13 14  1  0
 14 15  1  0
 15 16  2  0
 15 17  1  0
 17 18  1  0
 18 19  2  0
 19 20  1  0
 20 21  2  0
 21 22  1  0
 22 23  1  0
 23 24  2  0
 23 25  2  0
 23 26  1  0
 26 27  1  0
 27 28  1  0
 28 29  1  0
 29 30  1  0
 30 31  1  0
 22 32  2  0
 12 33  2  0
  8 34  2  0
 34  2  1  0
 33  9  1  0
 32 18  1  0
 31 26  1  0
  1 35  1  0
  1 36  1  0
  1 37  1  0
  3 38  1  0
  5 39  1  0
  5 40  1  0
  5 41  1  0
 14 42  1  0
 14 43  1  0
 17 44  1  0
 19 45  1  0
 20 46  1  0
 21 47  1  0
 27 48  1  0
 27 49  1  0
 28 50  1  0
 28 51  1  0
 29 52  1  0
 29 53  1  0
 30 54  1  0
 30 55  1  0
 31 56  1  0
 31 57  1  0
 32 58  1  0
 34 59  1  0
M  CHG  2   7  -1  11  -1
M  END
>  <UniqueID>  (48) 
46

>  <SMILES>  (48) 
Cc1cc(C)c([O-])c(-c2n[n-]c(SCC(=O)Nc3cccc(S(=O)(=O)N4CCCCC4)c3)n2)c1

>  <Energy>  (48) 
93.77836188386574

>  <Genealogy>  (48) 
Cc1cc(C)c([O-])c(-c2n[n-]c(SCC(=O)Nc3cccc(S(=O)(=O)N4CCCCC4)c3)n2)c1 (protonated)
Cc1cc(C)c([O-])c(-c2n[n-]c(SCC(=O)Nc3cccc(S(=O)(=O)N4CCCCC4)c3)n2)c1 (3D coordinates assigned)
Cc1cc(C)c([O-])c(-c2n[n-]c(SCC(=O)Nc3cccc(S(=O)(=O)N4CCCCC4)c3)n2)c1 (nonaromatic ring conformer: 93.77836188386574 kcal/mol)

>  <smiles>  (48) 
Cc1cc(C)c(O)c(-c2n[nH]c(SCC(=O)Nc3cccc(S(=O)(=O)N4CCCCC4)c3)n2)c1

>  <score_type>  (48) 
oracle

>  <origin>  (48) 
adgpu

>  <m_score__min__energy>  (48) 
-14.15

>  <m_primary>  (48) 
energy

$$$$
