0:0
     RDKit          3D

 42 44  0  0  0  0  0  0  0  0999 V2000
   -2.5520   25.2180  -29.4120 O   0  0  0  0  0  0  0  0  0  0  0  0
   -3.0120   24.0770  -30.0650 C   0  0  0  0  0  0  0  0  0  0  0  0
   -2.2700   22.8880  -30.0350 C   0  0  0  0  0  0  0  0  0  0  0  0
   -2.7430   21.7490  -30.6920 C   0  0  0  0  0  0  0  0  0  0  0  0
   -3.9660   21.7830  -31.3850 C   0  0  0  0  0  0  0  0  0  0  0  0
   -4.4670   20.6080  -32.0570 N   0  0  0  0  0  0  0  0  0  0  0  0
   -4.2990   20.4690  -33.5130 C   0  0  0  0  0  0  0  0  0  0  0  0
   -3.6660   19.1220  -33.8850 C   0  0  0  0  0  0  0  0  0  0  0  0
   -4.6630   18.0540  -33.8860 N   0  0  0  0  0  0  0  0  0  0  0  0
   -4.6350   16.9400  -33.1310 C   0  0  0  0  0  0  0  0  0  0  0  0
   -5.7480   16.1700  -33.3990 C   0  0  0  0  0  0  0  0  0  0  0  0
   -6.4760   16.8460  -34.3590 C   0  0  0  0  0  0  0  0  0  0  0  0
   -5.7790   18.0040  -34.6390 C   0  0  0  0  0  0  0  0  0  0  0  0
   -5.3830   19.7080  -31.3350 C   0  0  0  0  0  0  0  0  0  0  0  0
   -6.8260   19.9790  -31.6810 C   0  0  0  0  0  0  0  0  0  0  0  0
   -7.6820   18.9240  -32.0460 C   0  0  0  0  0  0  0  0  0  0  0  0
   -9.0170   19.1780  -32.3720 C   0  0  0  0  0  0  0  0  0  0  0  0
   -9.5080   20.4860  -32.3500 C   0  0  0  0  0  0  0  0  0  0  0  0
   -8.6620   21.5420  -32.0020 C   0  0  0  0  0  0  0  0  0  0  0  0
   -7.3270   21.2910  -31.6680 C   0  0  0  0  0  0  0  0  0  0  0  0
   -4.6990   22.9800  -31.4150 C   0  0  0  0  0  0  0  0  0  0  0  0
   -4.2260   24.1180  -30.7570 C   0  0  0  0  0  0  0  0  0  0  0  0
   -3.1150   26.0580  -29.3530 H   0  0  0  0  0  0  0  0  0  0  0  0
   -1.3134   22.8515  -29.4931 H   0  0  0  0  0  0  0  0  0  0  0  0
   -2.1548   20.8198  -30.6669 H   0  0  0  0  0  0  0  0  0  0  0  0
   -5.2851   20.5446  -33.9945 H   0  0  0  0  0  0  0  0  0  0  0  0
   -3.6291   21.2699  -33.8589 H   0  0  0  0  0  0  0  0  0  0  0  0
   -3.2212   19.1990  -34.8881 H   0  0  0  0  0  0  0  0  0  0  0  0
   -2.8959   18.8800  -33.1378 H   0  0  0  0  0  0  0  0  0  0  0  0
   -3.8450   16.6827  -32.4101 H   0  0  0  0  0  0  0  0  0  0  0  0
   -6.0057   15.2052  -32.9378 H   0  0  0  0  0  0  0  0  0  0  0  0
   -7.4255   16.5243  -34.8117 H   0  0  0  0  0  0  0  0  0  0  0  0
   -6.0877   18.7694  -35.3662 H   0  0  0  0  0  0  0  0  0  0  0  0
   -5.1427   18.6680  -31.6008 H   0  0  0  0  0  0  0  0  0  0  0  0
   -5.2524   19.8818  -30.2567 H   0  0  0  0  0  0  0  0  0  0  0  0
   -7.2984   17.8935  -32.0750 H   0  0  0  0  0  0  0  0  0  0  0  0
   -9.6827   18.3464  -32.6465 H   0  0  0  0  0  0  0  0  0  0  0  0
  -10.5592   20.6840  -32.6063 H   0  0  0  0  0  0  0  0  0  0  0  0
   -9.0464   22.5726  -31.9906 H   0  0  0  0  0  0  0  0  0  0  0  0
   -6.6657   22.1261  -31.3936 H   0  0  0  0  0  0  0  0  0  0  0  0
   -5.6531   23.0222  -31.9608 H   0  0  0  0  0  0  0  0  0  0  0  0
   -4.8107   25.0493  -30.7835 H   0  0  0  0  0  0  0  0  0  0  0  0
  1  2  1  0
  2  3  2  0
  3  4  1  0
  4  5  2  0
  5  6  1  0
  6  7  1  0
  7  8  1  0
  8  9  1  0
  9 10  1  0
 10 11  2  0
 11 12  1  0
 12 13  2  0
  6 14  1  0
 14 15  1  0
 15 16  2  0
 16 17  1  0
 17 18  2  0
 18 19  1  0
 19 20  2  0
  5 21  1  0
 21 22  2  0
 22  2  1  0
 13  9  1  0
 20 15  1  0
  1 23  1  0
  3 24  1  0
  4 25  1  0
  7 26  1  0
  7 27  1  0
  8 28  1  0
  8 29  1  0
 10 30  1  0
 11 31  1  0
 12 32  1  0
 13 33  1  0
 14 34  1  0
 14 35  1  0
 16 36  1  0
 17 37  1  0
 18 38  1  0
 19 39  1  0
 20 40  1  0
 21 41  1  0
 22 42  1  0
M  END
>  <UniqueID>  (1) 
1

>  <SMILES>  (1) 
Oc1ccc(N(CCn2cccc2)Cc2ccccc2)cc1

>  <Energy>  (1) 
65.63041544758693

>  <Genealogy>  (1) 
Oc1ccc(N(CCn2cccc2)Cc2ccccc2)cc1 (3D coordinates assigned)
Oc1ccc(N(CCn2cccc2)Cc2ccccc2)cc1 (optimized conformer: 65.63041544758693 kcal/mol)

>  <smiles>  (1) 
Oc1ccc(N(CCn2cccc2)Cc2ccccc2)cc1

>  <score_type>  (1) 
oracle

>  <origin>  (1) 
adgpu

>  <m_score__min__energy>  (1) 
-7.4900000000000002

>  <m_primary>  (1) 
energy

$$$$
1:0
     RDKit          3D

 47 49  0  0  0  0  0  0  0  0999 V2000
   -5.3100   21.4080  -32.0730 C   0  0  0  0  0  0  0  0  0  0  0  0
   -6.8250   21.3600  -32.0340 C   0  0  0  0  0  0  0  0  0  0  0  0
   -7.5950   22.4690  -31.5710 C   0  0  0  0  0  0  0  0  0  0  0  0
   -6.9710   23.7700  -31.0960 C   0  0  0  0  0  0  0  0  0  0  0  0
   -6.4380   23.6800  -29.7210 N   0  0  0  0  0  0  0  0  0  0  0  0
   -5.3890   24.6800  -29.4230 C   0  0  0  0  0  0  0  0  0  0  0  0
   -4.3300   24.1870  -28.4180 C   0  0  0  0  0  0  0  0  0  0  0  0
   -3.5250   23.0270  -28.9470 C   0  0  0  0  0  0  0  0  0  0  0  0
   -2.9460   23.0870  -30.2260 C   0  0  0  0  0  0  0  0  0  0  0  0
   -2.1860   22.0160  -30.7070 C   0  0  0  0  0  0  0  0  0  0  0  0
   -2.0020   20.8770  -29.9180 C   0  0  0  0  0  0  0  0  0  0  0  0
   -2.5790   20.8070  -28.6480 C   0  0  0  0  0  0  0  0  0  0  0  0
   -3.3390   21.8760  -28.1630 C   0  0  0  0  0  0  0  0  0  0  0  0
   -8.9960   22.3660  -31.5300 C   0  0  0  0  0  0  0  0  0  0  0  0
   -9.6400   21.2100  -31.9570 C   0  0  0  0  0  0  0  0  0  0  0  0
   -8.9020   20.1340  -32.4360 C   0  0  0  0  0  0  0  0  0  0  0  0
   -7.5020   20.1950  -32.4930 C   0  0  0  0  0  0  0  0  0  0  0  0
   -6.7800   19.0160  -33.0270 C   0  0  0  0  0  0  0  0  0  0  0  0
   -6.0820   19.1110  -34.2430 C   0  0  0  0  0  0  0  0  0  0  0  0
   -5.3880   18.0060  -34.7460 C   0  0  0  0  0  0  0  0  0  0  0  0
   -5.3800   16.8020  -34.0360 C   0  0  0  0  0  0  0  0  0  0  0  0
   -6.0630   16.7020  -32.8210 C   0  0  0  0  0  0  0  0  0  0  0  0
   -6.7570   17.8050  -32.3150 C   0  0  0  0  0  0  0  0  0  0  0  0
   -4.9170   21.4205  -31.0457 H   0  0  0  0  0  0  0  0  0  0  0  0
   -4.9285   20.5215  -32.6008 H   0  0  0  0  0  0  0  0  0  0  0  0
   -4.9854   22.3169  -32.6008 H   0  0  0  0  0  0  0  0  0  0  0  0
   -6.1474   24.0337  -31.7758 H   0  0  0  0  0  0  0  0  0  0  0  0
   -7.7606   24.5358  -31.0960 H   0  0  0  0  0  0  0  0  0  0  0  0
   -7.2390   23.8650  -29.0720 H   0  0  0  0  0  0  0  0  0  0  0  0
   -6.1120   22.7100  -29.5100 H   0  0  0  0  0  0  0  0  0  0  0  0
   -4.8807   24.9406  -30.3631 H   0  0  0  0  0  0  0  0  0  0  0  0
   -5.8905   25.5443  -28.9631 H   0  0  0  0  0  0  0  0  0  0  0  0
   -3.6449   25.0175  -28.1922 H   0  0  0  0  0  0  0  0  0  0  0  0
   -4.8598   23.8422  -27.5178 H   0  0  0  0  0  0  0  0  0  0  0  0
   -3.0911   23.9801  -30.8515 H   0  0  0  0  0  0  0  0  0  0  0  0
   -1.7324   22.0701  -31.7077 H   0  0  0  0  0  0  0  0  0  0  0  0
   -1.4029   20.0360  -30.2972 H   0  0  0  0  0  0  0  0  0  0  0  0
   -2.4354   19.9096  -28.0283 H   0  0  0  0  0  0  0  0  0  0  0  0
   -3.7933   21.8155  -27.1630 H   0  0  0  0  0  0  0  0  0  0  0  0
   -9.5913   23.2115  -31.1549 H   0  0  0  0  0  0  0  0  0  0  0  0
  -10.7374   21.1468  -31.9156 H   0  0  0  0  0  0  0  0  0  0  0  0
   -9.4214   19.2251  -32.7739 H   0  0  0  0  0  0  0  0  0  0  0  0
   -6.0815   20.0586  -34.8016 H   0  0  0  0  0  0  0  0  0  0  0  0
   -4.8480   18.0844  -35.7011 H   0  0  0  0  0  0  0  0  0  0  0  0
   -4.8358   15.9328  -34.4339 H   0  0  0  0  0  0  0  0  0  0  0  0
   -6.0546   15.7545  -32.2622 H   0  0  0  0  0  0  0  0  0  0  0  0
   -7.2876   17.7244  -31.3548 H   0  0  0  0  0  0  0  0  0  0  0  0
  1  2  1  0
  2  3  2  0
  3  4  1  0
  4  5  1  0
  5  6  1  0
  6  7  1  0
  7  8  1  0
  8  9  2  0
  9 10  1  0
 10 11  2  0
 11 12  1  0
 12 13  2  0
  3 14  1  0
 14 15  2  0
 15 16  1  0
 16 17  2  0
 17 18  1  0
 18 19  2  0
 19 20  1  0
 20 21  2  0
 21 22  1  0
 22 23  2  0
 17  2  1  0
 23 18  1  0
 13  8  1  0
  1 24  1  0
  1 25  1  0
  1 26  1  0
  4 27  1  0
  4 28  1  0
  5 29  1  0
  5 30  1  0
  6 31  1  0
  6 32  1  0
  7 33  1  0
  7 34  1  0
  9 35  1  0
 10 36  1  0
 11 37  1  0
 12 38  1  0
 13 39  1  0
 14 40  1  0
 15 41  1  0
 16 42  1  0
 19 43  1  0
 20 44  1  0
 21 45  1  0
 22 46  1  0
 23 47  1  0
M  CHG  1   5   1
M  END
>  <UniqueID>  (2) 
2

>  <SMILES>  (2) 
Cc1c(C[NH2+]CCc2ccccc2)cccc1-c1ccccc1

>  <Energy>  (2) 
58.40248940158615

>  <Genealogy>  (2) 
Cc1c(C[NH2+]CCc2ccccc2)cccc1-c1ccccc1 (protonated)
Cc1c(C[NH2+]CCc2ccccc2)cccc1-c1ccccc1 (3D coordinates assigned)
Cc1c(C[NH2+]CCc2ccccc2)cccc1-c1ccccc1 (optimized conformer: 58.40248940158615 kcal/mol)

>  <smiles>  (2) 
Cc1c(CNCCc2ccccc2)cccc1-c1ccccc1

>  <score_type>  (2) 
oracle

>  <origin>  (2) 
adgpu

>  <m_score__min__energy>  (2) 
-8.1799999999999997

>  <m_primary>  (2) 
energy

$$$$
2:0
     RDKit          3D

 43 45  0  0  0  0  0  0  0  0999 V2000
   -5.2737   15.6567  -30.7459 H   0  0  0  0  0  0  0  0  0  0  0  0
   -5.3560   16.0110  -31.7840 C   0  0  0  0  0  0  0  0  0  0  0  0
   -6.2450   16.9910  -32.1000 N   0  0  0  0  0  0  0  0  0  0  0  0
   -6.3770   17.4620  -33.3720 C   0  0  0  0  0  0  0  0  0  0  0  0
   -7.2320   18.3980  -33.6520 N   0  0  0  0  0  0  0  0  0  0  0  0
   -8.2760   19.1320  -32.4760 S   0  0  0  0  0  0  0  0  0  0  0  0
   -9.6540   19.2690  -33.0620 O   0  0  0  0  0  0  0  0  0  0  0  0
   -8.3460   18.2540  -31.2590 O   0  0  0  0  0  0  0  0  0  0  0  0
   -7.6400   20.7070  -32.0100 C   0  0  0  0  0  0  0  0  0  0  0  0
   -8.5230   21.7570  -31.7270 C   0  0  0  0  0  0  0  0  0  0  0  0
   -9.6084   21.5961  -31.8042 H   0  0  0  0  0  0  0  0  0  0  0  0
   -8.0300   23.0080  -31.3470 C   0  0  0  0  0  0  0  0  0  0  0  0
   -8.7288   23.8307  -31.1353 H   0  0  0  0  0  0  0  0  0  0  0  0
   -6.6440   23.2200  -31.2340 C   0  0  0  0  0  0  0  0  0  0  0  0
   -6.0940   24.4940  -30.8670 N   0  0  0  0  0  0  0  0  0  0  0  0
   -4.8610   24.7240  -30.1750 C   0  0  0  0  0  0  0  0  0  0  0  0
   -3.8900   25.2710  -30.7650 O   0  0  0  0  0  0  0  0  0  0  0  0
   -4.7770   24.4110  -28.7790 N   0  0  0  0  0  0  0  0  0  0  0  0
   -5.6750   24.2470  -28.2680 H   0  0  0  0  0  0  0  0  0  0  0  0
   -3.5550   24.4130  -28.0210 C   0  0  0  0  0  0  0  0  0  0  0  0
   -3.5550   24.9360  -26.7230 C   0  0  0  0  0  0  0  0  0  0  0  0
   -4.4818   25.3532  -26.3023 H   0  0  0  0  0  0  0  0  0  0  0  0
   -2.3880   24.9320  -25.9590 C   0  0  0  0  0  0  0  0  0  0  0  0
   -2.3984   25.3574  -24.9446 H   0  0  0  0  0  0  0  0  0  0  0  0
   -1.2060   24.3920  -26.4720 C   0  0  0  0  0  0  0  0  0  0  0  0
    0.2280   24.4170  -25.4490 Cl  0  0  0  0  0  0  0  0  0  0  0  0
   -1.1870   23.8340  -27.7710 C   0  0  0  0  0  0  0  0  0  0  0  0
    0.0810   23.2260  -28.3320 C   0  0  0  0  0  0  0  0  0  0  0  0
    0.4700   22.1570  -27.5450 F   0  0  0  0  0  0  0  0  0  0  0  0
   -0.0940   22.7690  -29.6270 F   0  0  0  0  0  0  0  0  0  0  0  0
    1.0880   24.1740  -28.3400 F   0  0  0  0  0  0  0  0  0  0  0  0
   -2.3740   23.8440  -28.5320 C   0  0  0  0  0  0  0  0  0  0  0  0
   -2.3767   23.4009  -29.5388 H   0  0  0  0  0  0  0  0  0  0  0  0
   -5.7650   22.1750  -31.5460 C   0  0  0  0  0  0  0  0  0  0  0  0
   -4.6788   22.3402  -31.4918 H   0  0  0  0  0  0  0  0  0  0  0  0
   -6.2590   20.9230  -31.9260 C   0  0  0  0  0  0  0  0  0  0  0  0
   -5.5608   20.1057  -32.1595 H   0  0  0  0  0  0  0  0  0  0  0  0
   -5.5810   16.9270  -34.3930 C   0  0  0  0  0  0  0  0  0  0  0  0
   -5.6773   17.2982  -35.4240 H   0  0  0  0  0  0  0  0  0  0  0  0
   -4.6640   15.9180  -34.0900 C   0  0  0  0  0  0  0  0  0  0  0  0
   -4.0345   15.4890  -34.8835 H   0  0  0  0  0  0  0  0  0  0  0  0
   -4.5480   15.4550  -32.7780 C   0  0  0  0  0  0  0  0  0  0  0  0
   -3.8281   14.6611  -32.5300 H   0  0  0  0  0  0  0  0  0  0  0  0
  1  2  1  0
  2  3  1  0
  3  4  1  0
  4  5  2  0
  5  6  1  0
  6  7  2  0
  6  8  2  0
  6  9  1  0
  9 10  2  0
 10 11  1  0
 10 12  1  0
 12 13  1  0
 12 14  2  0
 14 15  1  0
 15 16  1  0
 16 17  2  0
 16 18  1  0
 18 19  1  0
 18 20  1  0
 20 21  2  0
 21 22  1  0
 21 23  1  0
 23 24  1  0
 23 25  2  0
 25 26  1  0
 25 27  1  0
 27 28  1  0
 28 29  1  0
 28 30  1  0
 28 31  1  0
 27 32  2  0
 32 33  1  0
 14 34  1  0
 34 35  1  0
 34 36  2  0
 36 37  1  0
  4 38  1  0
 38 39  1  0
 38 40  2  0
 40 41  1  0
 40 42  1  0
 42 43  1  0
 42  2  2  0
 36  9  1  0
 32 20  1  0
M  CHG  2   3  -1  15  -1
M  END
>  <UniqueID>  (3) 
3

>  <SMILES>  (3) 
O=C([N-]c1ccc(S(=O)(=O)/N=c2/cccc[n-]2)cc1)Nc1ccc(Cl)c(C(F)(F)F)c1

>  <Energy>  (3) 
58.42346034636266

>  <Genealogy>  (3) 
O=C([N-]c1ccc(S(=O)(=O)N=c2cccc[n-]2)cc1)Nc1ccc(Cl)c(C(F)(F)F)c1 (protonated)
O=C([N-]c1ccc(S(=O)(=O)/N=c2/cccc[n-]2)cc1)Nc1ccc(Cl)c(C(F)(F)F)c1 (cis-trans isomerization)
O=C([N-]c1ccc(S(=O)(=O)/N=c2/cccc[n-]2)cc1)Nc1ccc(Cl)c(C(F)(F)F)c1 (3D coordinates assigned)
O=C([N-]c1ccc(S(=O)(=O)/N=c2/cccc[n-]2)cc1)Nc1ccc(Cl)c(C(F)(F)F)c1 (optimized conformer: 58.42346034636266 kcal/mol)

>  <smiles>  (3) 
O=C(Nc1ccc(S(=O)(=O)N=c2cccc[nH]2)cc1)Nc1ccc(Cl)c(C(F)(F)F)c1

>  <score_type>  (3) 
oracle

>  <origin>  (3) 
adgpu

>  <m_score__min__energy>  (3) 
-10.9

>  <m_primary>  (3) 
energy

$$$$
3:0
     RDKit          3D

 54 56  0  0  0  0  0  0  0  0999 V2000
   -0.8590   26.0920  -24.2330 C   0  0  0  0  0  0  0  0  0  0  0  0
   -0.2950   25.0800  -25.1390 N   0  0  0  0  0  0  0  0  0  0  0  0
    1.1520   24.9310  -24.9220 C   0  0  0  0  0  0  0  0  0  0  0  0
   -0.6460   25.3190  -26.5600 C   0  0  0  0  0  0  0  0  0  0  0  0
   -1.5710   24.2690  -27.1590 C   0  0  0  0  0  0  0  0  0  0  0  0
   -2.5010   24.6780  -28.1330 C   0  0  0  0  0  0  0  0  0  0  0  0
   -3.4010   23.7670  -28.6980 C   0  0  0  0  0  0  0  0  0  0  0  0
   -4.5490   24.3060  -29.9180 S   0  0  0  0  0  0  0  0  0  0  0  0
   -5.7140   24.9950  -29.2620 O   0  0  0  0  0  0  0  0  0  0  0  0
   -3.8870   25.2890  -30.8420 O   0  0  0  0  0  0  0  0  0  0  0  0
   -5.1150   22.9100  -30.8260 C   0  0  0  0  0  0  0  0  0  0  0  0
   -6.4770   22.5870  -30.8410 C   0  0  0  0  0  0  0  0  0  0  0  0
   -6.9270   21.4660  -31.5440 C   0  0  0  0  0  0  0  0  0  0  0  0
   -6.0180   20.6460  -32.2330 C   0  0  0  0  0  0  0  0  0  0  0  0
   -6.4820   19.4990  -32.9710 N   0  0  0  0  0  0  0  0  0  0  0  0
   -7.3270   18.4930  -32.3190 C   0  0  0  0  0  0  0  0  0  0  0  0
   -7.2870   17.1640  -33.0930 C   0  0  0  0  0  0  0  0  0  0  0  0
   -5.9380   16.8810  -33.6320 N   0  0  0  0  0  0  0  0  0  0  0  0
   -4.9670   16.6070  -32.5580 C   0  0  0  0  0  0  0  0  0  0  0  0
   -5.4490   17.9270  -34.5680 C   0  0  0  0  0  0  0  0  0  0  0  0
   -6.1180   19.3010  -34.3770 C   0  0  0  0  0  0  0  0  0  0  0  0
   -4.6520   20.9770  -32.2160 C   0  0  0  0  0  0  0  0  0  0  0  0
   -4.2030   22.0970  -31.5110 C   0  0  0  0  0  0  0  0  0  0  0  0
   -3.3600   22.4250  -28.3140 C   0  0  0  0  0  0  0  0  0  0  0  0
   -2.4320   21.9970  -27.3650 C   0  0  0  0  0  0  0  0  0  0  0  0
   -1.5310   22.8990  -26.7870 C   0  0  0  0  0  0  0  0  0  0  0  0
   -0.6170   22.3890  -25.8620 O   0  0  0  0  0  0  0  0  0  0  0  0
   -0.6886   25.7862  -23.1902 H   0  0  0  0  0  0  0  0  0  0  0  0
   -0.3706   27.0606  -24.4156 H   0  0  0  0  0  0  0  0  0  0  0  0
   -1.9396   26.1861  -24.4156 H   0  0  0  0  0  0  0  0  0  0  0  0
    1.3605   24.9095  -23.8422 H   0  0  0  0  0  0  0  0  0  0  0  0
    1.4969   23.9926  -25.3808 H   0  0  0  0  0  0  0  0  0  0  0  0
    1.6809   25.7794  -25.3808 H   0  0  0  0  0  0  0  0  0  0  0  0
   -1.1423   26.2980  -26.6329 H   0  0  0  0  0  0  0  0  0  0  0  0
    0.2939   25.2744  -27.1297 H   0  0  0  0  0  0  0  0  0  0  0  0
   -2.5209   25.7296  -28.4551 H   0  0  0  0  0  0  0  0  0  0  0  0
   -7.1958   23.2178  -30.2975 H   0  0  0  0  0  0  0  0  0  0  0  0
   -8.0000   21.2242  -31.5579 H   0  0  0  0  0  0  0  0  0  0  0  0
   -6.9633   18.3252  -31.2945 H   0  0  0  0  0  0  0  0  0  0  0  0
   -8.3637   18.8603  -32.3009 H   0  0  0  0  0  0  0  0  0  0  0  0
   -7.5775   16.3483  -32.4146 H   0  0  0  0  0  0  0  0  0  0  0  0
   -7.9840   17.2414  -33.9405 H   0  0  0  0  0  0  0  0  0  0  0  0
   -5.4529   16.7441  -31.5807 H   0  0  0  0  0  0  0  0  0  0  0  0
   -4.6056   15.5718  -32.6458 H   0  0  0  0  0  0  0  0  0  0  0  0
   -4.1177   17.3006  -32.6458 H   0  0  0  0  0  0  0  0  0  0  0  0
   -4.3657   18.0460  -34.4184 H   0  0  0  0  0  0  0  0  0  0  0  0
   -5.7017   17.5885  -35.5836 H   0  0  0  0  0  0  0  0  0  0  0  0
   -5.4178   20.0914  -34.6853 H   0  0  0  0  0  0  0  0  0  0  0  0
   -7.0292   19.3437  -34.9917 H   0  0  0  0  0  0  0  0  0  0  0  0
   -3.9313   20.3500  -32.7615 H   0  0  0  0  0  0  0  0  0  0  0  0
   -3.1305   22.3408  -31.4940 H   0  0  0  0  0  0  0  0  0  0  0  0
   -4.0608   21.7043  -28.7607 H   0  0  0  0  0  0  0  0  0  0  0  0
   -2.4078   20.9383  -27.0672 H   0  0  0  0  0  0  0  0  0  0  0  0
   -0.2230   22.9220  -25.1010 H   0  0  0  0  0  0  0  0  0  0  0  0
  1  2  1  0
  2  3  1  0
  2  4  1  0
  4  5  1  0
  5  6  2  0
  6  7  1  0
  7  8  1  0
  8  9  2  0
  8 10  2  0
  8 11  1  0
 11 12  2  0
 12 13  1  0
 13 14  2  0
 14 15  1  0
 15 16  1  0
 16 17  1  0
 17 18  1  0
 18 19  1  0
 18 20  1  0
 20 21  1  0
 14 22  1  0
 22 23  2  0
  7 24  2  0
 24 25  1  0
 25 26  2  0
 26 27  1  0
 26  5  1  0
 23 11  1  0
 21 15  1  0
  1 28  1  0
  1 29  1  0
  1 30  1  0
  3 31  1  0
  3 32  1  0
  3 33  1  0
  4 34  1  0
  4 35  1  0
  6 36  1  0
 12 37  1  0
 13 38  1  0
 16 39  1  0
 16 40  1  0
 17 41  1  0
 17 42  1  0
 19 43  1  0
 19 44  1  0
 19 45  1  0
 20 46  1  0
 20 47  1  0
 21 48  1  0
 21 49  1  0
 22 50  1  0
 23 51  1  0
 24 52  1  0
 25 53  1  0
 27 54  1  0
M  END
>  <UniqueID>  (4) 
4

>  <SMILES>  (4) 
CN(C)Cc1cc(S(=O)(=O)c2ccc(N3CCN(C)CC3)cc2)ccc1O

>  <Energy>  (4) 
72.76972795111189

>  <Genealogy>  (4) 
CN(C)Cc1cc(S(=O)(=O)c2ccc(N3CCN(C)CC3)cc2)ccc1O (3D coordinates assigned)
CN(C)Cc1cc(S(=O)(=O)c2ccc(N3CCN(C)CC3)cc2)ccc1O (nonaromatic ring conformer: 72.76972795111189 kcal/mol)

>  <smiles>  (4) 
CN(C)Cc1cc(S(=O)(=O)c2ccc(N3CCN(C)CC3)cc2)ccc1O

>  <score_type>  (4) 
oracle

>  <origin>  (4) 
adgpu

>  <m_score__min__energy>  (4) 
-10.449999999999999

>  <m_primary>  (4) 
energy

$$$$
4:0
     RDKit          3D

 45 47  0  0  0  0  0  0  0  0999 V2000
   -0.9960   27.6020  -23.8140 N   0  0  0  0  0  0  0  0  0  0  0  0
   -0.5260   26.3920  -24.4200 C   0  0  0  0  0  0  0  0  0  0  0  0
    0.3160   25.6390  -23.7770 N   0  0  0  0  0  0  0  0  0  0  0  0
   -1.0110   26.0060  -25.7700 C   0  0  0  0  0  0  0  0  0  0  0  0
   -0.4030   26.5380  -26.9190 C   0  0  0  0  0  0  0  0  0  0  0  0
   -0.8530   26.1760  -28.1920 C   0  0  0  0  0  0  0  0  0  0  0  0
   -1.9010   25.2600  -28.3410 C   0  0  0  0  0  0  0  0  0  0  0  0
   -2.3460   24.9310  -29.6650 N   0  0  0  0  0  0  0  0  0  0  0  0
   -3.6920   24.6390  -30.0530 C   0  0  0  0  0  0  0  0  0  0  0  0
   -4.2880   25.4270  -30.8350 O   0  0  0  0  0  0  0  0  0  0  0  0
   -4.3460   23.4500  -29.5920 N   0  0  0  0  0  0  0  0  0  0  0  0
   -5.4720   22.8460  -30.2400 C   0  0  0  0  0  0  0  0  0  0  0  0
   -6.6800   23.5460  -30.2540 C   0  0  0  0  0  0  0  0  0  0  0  0
   -7.7930   23.0170  -30.9000 C   0  0  0  0  0  0  0  0  0  0  0  0
   -7.7220   21.7790  -31.5440 C   0  0  0  0  0  0  0  0  0  0  0  0
   -9.1940   21.1980  -32.3140 Cl  0  0  0  0  0  0  0  0  0  0  0  0
   -6.5110   21.0440  -31.5280 C   0  0  0  0  0  0  0  0  0  0  0  0
   -6.3590   19.4480  -32.2990 S   0  0  0  0  0  0  0  0  0  0  0  0
   -6.0180   18.3760  -31.3010 O   0  0  0  0  0  0  0  0  0  0  0  0
   -7.6700   19.0800  -32.9340 O   0  0  0  0  0  0  0  0  0  0  0  0
   -5.1010   19.5350  -33.5740 C   0  0  0  0  0  0  0  0  0  0  0  0
   -4.2060   20.7560  -33.4750 C   0  0  0  0  0  0  0  0  0  0  0  0
   -3.0220   19.9600  -33.1460 N   0  0  0  0  0  0  0  0  0  0  0  0
   -3.8440   18.7530  -33.2410 C   0  0  0  0  0  0  0  0  0  0  0  0
   -5.3980   21.5660  -30.8330 C   0  0  0  0  0  0  0  0  0  0  0  0
   -4.2460   20.7850  -30.7060 O   0  0  0  0  0  0  0  0  0  0  0  0
   -2.5270   24.7420  -27.1950 C   0  0  0  0  0  0  0  0  0  0  0  0
   -2.0800   25.1060  -25.9210 C   0  0  0  0  0  0  0  0  0  0  0  0
   -0.6990   27.8660  -22.8480 H   0  0  0  0  0  0  0  0  0  0  0  0
   -1.6030   28.2690  -24.3410 H   0  0  0  0  0  0  0  0  0  0  0  0
    0.6600   25.9120  -22.8290 H   0  0  0  0  0  0  0  0  0  0  0  0
    0.6540   24.7310  -24.1690 H   0  0  0  0  0  0  0  0  0  0  0  0
    0.4336   27.2448  -26.8163 H   0  0  0  0  0  0  0  0  0  0  0  0
   -0.3801   26.6142  -29.0833 H   0  0  0  0  0  0  0  0  0  0  0  0
   -6.7522   24.5217  -29.7512 H   0  0  0  0  0  0  0  0  0  0  0  0
   -8.7385   23.5791  -30.9038 H   0  0  0  0  0  0  0  0  0  0  0  0
   -5.7316   19.3230  -34.4500 H   0  0  0  0  0  0  0  0  0  0  0  0
   -4.1124   21.3069  -34.4225 H   0  0  0  0  0  0  0  0  0  0  0  0
   -4.4987   21.5727  -32.7987 H   0  0  0  0  0  0  0  0  0  0  0  0
   -2.7850   20.1200  -32.1380 H   0  0  0  0  0  0  0  0  0  0  0  0
   -3.5279   18.0716  -34.0446 H   0  0  0  0  0  0  0  0  0  0  0  0
   -3.8639   18.0586  -32.3881 H   0  0  0  0  0  0  0  0  0  0  0  0
   -4.1080   19.9200  -31.2120 H   0  0  0  0  0  0  0  0  0  0  0  0
   -3.3729   24.0467  -27.3003 H   0  0  0  0  0  0  0  0  0  0  0  0
   -2.5688   24.6847  -25.0301 H   0  0  0  0  0  0  0  0  0  0  0  0
  1  2  1  0
  2  3  2  0
  2  4  1  0
  4  5  2  0
  5  6  1  0
  6  7  2  0
  7  8  1  0
  8  9  1  0
  9 10  2  0
  9 11  1  0
 11 12  1  0
 12 13  2  0
 13 14  1  0
 14 15  2  0
 15 16  1  0
 15 17  1  0
 17 18  1  0
 18 19  2  0
 18 20  2  0
 18 21  1  0
 21 22  1  0
 22 23  1  0
 23 24  1  0
 17 25  2  0
 25 26  1  0
  7 27  1  0
 27 28  2  0
 28  4  1  0
 25 12  1  0
 24 21  1  0
  1 29  1  0
  1 30  1  0
  3 31  1  0
  3 32  1  0
  5 33  1  0
  6 34  1  0
 13 35  1  0
 14 36  1  0
 21 37  1  0
 22 38  1  0
 22 39  1  0
 23 40  1  0
 24 41  1  0
 24 42  1  0
 26 43  1  0
 27 44  1  0
 28 45  1  0
M  CHG  3   3   1   8  -1  11  -1
M  END
>  <UniqueID>  (5) 
5

>  <SMILES>  (5) 
NC(=[NH2+])c1ccc([N-]C(=O)[N-]c2ccc(Cl)c(S(=O)(=O)C3CNC3)c2O)cc1

>  <Energy>  (5) 
127.47252162048972

>  <Genealogy>  (5) 
NC(=[NH2+])c1ccc([N-]C(=O)[N-]c2ccc(Cl)c(S(=O)(=O)C3CNC3)c2O)cc1 (protonated)
NC(=[NH2+])c1ccc([N-]C(=O)[N-]c2ccc(Cl)c(S(=O)(=O)C3CNC3)c2O)cc1 (3D coordinates assigned)
NC(=[NH2+])c1ccc([N-]C(=O)[N-]c2ccc(Cl)c(S(=O)(=O)C3CNC3)c2O)cc1 (nonaromatic ring conformer: 127.47252162048972 kcal/mol)

>  <smiles>  (5) 
N=C(N)c1ccc(NC(=O)Nc2ccc(Cl)c(S(=O)(=O)C3CNC3)c2O)cc1

>  <score_type>  (5) 
oracle

>  <origin>  (5) 
adgpu

>  <m_score__min__energy>  (5) 
-13.07

>  <m_primary>  (5) 
energy

$$$$
5:0
     RDKit          3D

 44 46  0  0  0  0  0  0  0  0999 V2000
   -8.1830   18.5720  -32.1530 C   0  0  0  0  0  0  0  0  0  0  0  0
   -7.7900   19.9380  -32.7270 C   0  0  0  0  0  0  0  0  0  0  0  0
   -8.5150   21.0740  -31.9950 C   0  0  0  0  0  0  0  0  0  0  0  0
   -6.2860   20.1360  -32.6890 C   0  0  0  0  0  0  0  0  0  0  0  0
   -5.7460   21.4320  -32.7160 C   0  0  0  0  0  0  0  0  0  0  0  0
   -4.3630   21.6280  -32.6800 C   0  0  0  0  0  0  0  0  0  0  0  0
   -3.4900   20.5270  -32.6290 C   0  0  0  0  0  0  0  0  0  0  0  0
   -2.0630   20.7030  -32.5680 N   0  0  0  0  0  0  0  0  0  0  0  0
   -1.1980   19.9550  -31.6950 C   0  0  0  0  0  0  0  0  0  0  0  0
   -0.8520   18.6330  -32.0230 C   0  0  0  0  0  0  0  0  0  0  0  0
   -0.0760   17.8650  -31.1520 C   0  0  0  0  0  0  0  0  0  0  0  0
    0.3530   18.4040  -29.9400 C   0  0  0  0  0  0  0  0  0  0  0  0
    0.0090   19.7130  -29.5940 C   0  0  0  0  0  0  0  0  0  0  0  0
   -0.7700   20.5020  -30.4600 C   0  0  0  0  0  0  0  0  0  0  0  0
   -1.0780   21.9030  -30.0870 C   0  0  0  0  0  0  0  0  0  0  0  0
   -0.1690   22.6230  -29.3780 N   0  0  0  0  0  0  0  0  0  0  0  0
   -0.4160   23.9020  -29.0060 C   0  0  0  0  0  0  0  0  0  0  0  0
    0.4520   24.5390  -28.3520 O   0  0  0  0  0  0  0  0  0  0  0  0
   -1.6270   24.5050  -29.3470 C   0  0  0  0  0  0  0  0  0  0  0  0
   -1.8760   25.8200  -28.9600 O   0  0  0  0  0  0  0  0  0  0  0  0
   -2.5720   23.7600  -30.0810 C   0  0  0  0  0  0  0  0  0  0  0  0
   -3.8800   24.3380  -30.4820 C   0  0  0  0  0  0  0  0  0  0  0  0
   -4.9230   23.6340  -30.5060 O   0  0  0  0  0  0  0  0  0  0  0  0
   -3.9690   25.6780  -30.8390 O   0  0  0  0  0  0  0  0  0  0  0  0
   -2.2700   22.4730  -30.4320 N   0  0  0  0  0  0  0  0  0  0  0  0
   -4.0270   19.2330  -32.5820 C   0  0  0  0  0  0  0  0  0  0  0  0
   -5.4090   19.0370  -32.6180 C   0  0  0  0  0  0  0  0  0  0  0  0
   -8.1696   18.6185  -31.0541 H   0  0  0  0  0  0  0  0  0  0  0  0
   -9.1938   18.3070  -32.4965 H   0  0  0  0  0  0  0  0  0  0  0  0
   -7.4676   17.8103  -32.4965 H   0  0  0  0  0  0  0  0  0  0  0  0
   -8.1049   19.9619  -33.7807 H   0  0  0  0  0  0  0  0  0  0  0  0
   -8.4220   20.9283  -30.9087 H   0  0  0  0  0  0  0  0  0  0  0  0
   -8.0644   22.0374  -32.2757 H   0  0  0  0  0  0  0  0  0  0  0  0
   -9.5786   21.0711  -32.2757 H   0  0  0  0  0  0  0  0  0  0  0  0
   -6.4182   22.3013  -32.7660 H   0  0  0  0  0  0  0  0  0  0  0  0
   -3.9549   22.6494  -32.6916 H   0  0  0  0  0  0  0  0  0  0  0  0
   -1.6290   21.4300  -33.1800 H   0  0  0  0  0  0  0  0  0  0  0  0
   -1.1953   18.1994  -32.9739 H   0  0  0  0  0  0  0  0  0  0  0  0
    0.1968   16.8343  -31.4225 H   0  0  0  0  0  0  0  0  0  0  0  0
    0.9635   17.7975  -29.2549 H   0  0  0  0  0  0  0  0  0  0  0  0
    0.3504   20.1308  -28.6354 H   0  0  0  0  0  0  0  0  0  0  0  0
   -2.9530   21.9180  -30.9930 H   0  0  0  0  0  0  0  0  0  0  0  0
   -3.3543   18.3651  -32.5162 H   0  0  0  0  0  0  0  0  0  0  0  0
   -5.8159   18.0154  -32.5907 H   0  0  0  0  0  0  0  0  0  0  0  0
  1  2  1  0
  2  3  1  0
  2  4  1  0
  4  5  2  0
  5  6  1  0
  6  7  2  0
  7  8  1  0
  8  9  1  0
  9 10  2  0
 10 11  1  0
 11 12  2  0
 12 13  1  0
 13 14  2  0
 14 15  1  0
 15 16  2  0
 16 17  1  0
 17 18  2  0
 17 19  1  0
 19 20  1  0
 19 21  2  0
 21 22  1  0
 22 23  2  0
 22 24  1  0
 21 25  1  0
  7 26  1  0
 26 27  2  0
 27  4  1  0
 14  9  1  0
 25 15  1  0
  1 28  1  0
  1 29  1  0
  1 30  1  0
  2 31  1  0
  3 32  1  0
  3 33  1  0
  3 34  1  0
  5 35  1  0
  6 36  1  0
  8 37  1  0
 10 38  1  0
 11 39  1  0
 12 40  1  0
 13 41  1  0
 25 42  1  0
 26 43  1  0
 27 44  1  0
M  CHG  2  20  -1  24  -1
M  END
>  <UniqueID>  (6) 
6

>  <SMILES>  (6) 
CC(C)c1ccc(Nc2ccccc2-c2nc(=O)c([O-])c(C(=O)[O-])[nH]2)cc1

>  <Energy>  (6) 
56.90360177771172

>  <Genealogy>  (6) 
CC(C)c1ccc(Nc2ccccc2-c2nc(=O)c([O-])c(C(=O)[O-])[nH]2)cc1 (protonated)
CC(C)c1ccc(Nc2ccccc2-c2nc(=O)c([O-])c(C(=O)[O-])[nH]2)cc1 (3D coordinates assigned)
CC(C)c1ccc(Nc2ccccc2-c2nc(=O)c([O-])c(C(=O)[O-])[nH]2)cc1 (optimized conformer: 56.90360177771172 kcal/mol)

>  <smiles>  (6) 
CC(C)c1ccc(Nc2ccccc2-c2nc(=O)c(O)c(C(=O)O)[nH]2)cc1

>  <score_type>  (6) 
oracle

>  <origin>  (6) 
adgpu

>  <m_score__min__energy>  (6) 
-12.720000000000001

>  <m_primary>  (6) 
energy

$$$$
6:0
     RDKit          3D

 46 48  0  0  1  0  0  0  0  0999 V2000
   -5.2850   25.2840  -30.4810 C   0  0  0  0  0  0  0  0  0  0  0  0
   -3.8690   25.3050  -30.4360 O   0  0  0  0  0  0  0  0  0  0  0  0
   -3.2350   24.1700  -29.9440 C   0  0  0  0  0  0  0  0  0  0  0  0
   -2.9260   24.0110  -28.6080 C   0  0  0  0  0  0  0  0  0  0  0  0
   -2.2940   22.8590  -28.1800 C   0  0  0  0  0  0  0  0  0  0  0  0
   -1.9860   21.8840  -29.1090 C   0  0  0  0  0  0  0  0  0  0  0  0
   -2.2790   22.0070  -30.4520 C   0  0  0  0  0  0  0  0  0  0  0  0
   -1.8430   20.7170  -31.5120 S   0  0  0  0  0  0  0  0  0  0  0  0
   -1.0860   19.6710  -30.7420 O   0  0  0  0  0  0  0  0  0  0  0  0
   -0.9530   21.1690  -32.6330 O   0  0  0  0  0  0  0  0  0  0  0  0
   -3.2460   19.9600  -32.1570 N   0  0  0  0  0  0  0  0  0  0  0  0
   -3.2430   18.9790  -32.9850 C   0  0  0  0  0  0  0  0  0  0  0  0
   -2.0580   18.5020  -33.3790 N   0  0  0  0  0  0  0  0  0  0  0  0
   -1.9520   17.4850  -34.2360 C   0  0  0  0  0  0  0  0  0  0  0  0
   -3.0910   16.9440  -34.6990 N   0  0  0  0  0  0  0  0  0  0  0  0
   -4.3070   17.3900  -34.3300 C   0  0  0  0  0  0  0  0  0  0  0  0
   -5.4010   16.7620  -34.8660 O   0  0  0  0  0  0  0  0  0  0  0  0
   -6.3800   16.0370  -34.1990 C   0  0  0  0  0  0  0  0  0  0  0  0
   -4.4560   18.4330  -33.4520 C   0  0  0  0  0  0  0  0  0  0  0  0
   -5.6960   18.9920  -32.9870 C   0  0  0  0  0  0  0  0  0  0  0  0
   -6.1230   20.2230  -33.0800 C   0  0  0  0  0  0  0  0  0  0  0  0
   -7.4030   20.7110  -32.5790 C   0  0  0  0  0  0  0  0  0  0  0  0
   -7.4880   21.9660  -31.9650 C   0  0  0  0  0  0  0  0  0  0  0  0
   -8.6750   22.4670  -31.4780 C   0  0  0  0  0  0  0  0  0  0  0  0
   -9.7930   21.6740  -31.6180 C   0  0  0  0  0  0  0  0  0  0  0  0
   -9.7620   20.4650  -32.1990 N   0  0  0  0  0  0  0  0  0  0  0  0
   -8.5820   20.0090  -32.6640 C   0  0  0  0  0  0  0  0  0  0  0  0
   -2.9090   23.1690  -30.8460 C   0  0  0  0  0  0  0  0  0  0  0  0
   -5.6844   25.2781  -29.4561 H   0  0  0  0  0  0  0  0  0  0  0  0
   -5.6483   26.1769  -31.0109 H   0  0  0  0  0  0  0  0  0  0  0  0
   -5.6217   24.3808  -31.0109 H   0  0  0  0  0  0  0  0  0  0  0  0
   -3.1824   24.7998  -27.8855 H   0  0  0  0  0  0  0  0  0  0  0  0
   -2.0407   22.7208  -27.1185 H   0  0  0  0  0  0  0  0  0  0  0  0
   -1.4846   20.9683  -28.7626 H   0  0  0  0  0  0  0  0  0  0  0  0
   -0.9694   17.1041  -34.5514 H   0  0  0  0  0  0  0  0  0  0  0  0
   -3.0000   16.1340  -35.3810 H   0  0  0  0  0  0  0  0  0  0  0  0
   -6.2382   16.1420  -33.1132 H   0  0  0  0  0  0  0  0  0  0  0  0
   -7.3731   16.4192  -34.4777 H   0  0  0  0  0  0  0  0  0  0  0  0
   -6.3041   14.9756  -34.4777 H   0  0  0  0  0  0  0  0  0  0  0  0
   -6.3769   18.2886  -32.4854 H   0  0  0  0  0  0  0  0  0  0  0  0
   -5.4639   20.9505  -33.5763 H   0  0  0  0  0  0  0  0  0  0  0  0
   -6.5757   22.5729  -31.8681 H   0  0  0  0  0  0  0  0  0  0  0  0
   -8.7280   23.4557  -30.9989 H   0  0  0  0  0  0  0  0  0  0  0  0
  -10.7541   22.0489  -31.2363 H   0  0  0  0  0  0  0  0  0  0  0  0
   -8.5611   19.0172  -33.1393 H   0  0  0  0  0  0  0  0  0  0  0  0
   -3.1604   23.3056  -31.9081 H   0  0  0  0  0  0  0  0  0  0  0  0
  1  2  1  0
  2  3  1  0
  3  4  2  0
  4  5  1  0
  5  6  2  0
  6  7  1  0
  7  8  1  0
  8  9  2  0
  8 10  2  0
  8 11  1  0
 11 12  2  0
 12 13  1  0
 13 14  2  0
 14 15  1  0
 15 16  1  0
 16 17  1  0
 17 18  1  0
 16 19  2  0
 19 20  1  0
 20 21  2  0
 21 22  1  0
 22 23  2  0
 23 24  1  0
 24 25  2  0
 25 26  1  0
 26 27  2  0
  7 28  2  0
 28  3  1  0
 19 12  1  0
 27 22  1  0
  1 29  1  0
  1 30  1  0
  1 31  1  0
  4 32  1  0
  5 33  1  0
  6 34  1  0
 14 35  1  0
 15 36  1  0
 18 37  1  0
 18 38  1  0
 18 39  1  0
 20 40  1  0
 21 41  1  0
 23 42  1  0
 24 43  1  0
 25 44  1  0
 27 45  1  0
 28 46  1  0
M  END
>  <smiles>  (7) 
COc1cccc(S(=O)(=O)N=c2nc[nH]c(OC)c2C=Cc2cccnc2)c1

>  <score_type>  (7) 
oracle

>  <origin>  (7) 
adgpu

>  <m_score__min__energy>  (7) 
-9.5099999999999998

>  <m_primary>  (7) 
energy

$$$$
7:0
     RDKit          3D

 49 51  0  0  0  0  0  0  0  0999 V2000
   -8.2910   19.4810  -32.5180 C   0  0  0  0  0  0  0  0  0  0  0  0
   -7.8550   20.8250  -32.6740 O   0  0  0  0  0  0  0  0  0  0  0  0
   -7.9340   21.7660  -31.6430 C   0  0  0  0  0  0  0  0  0  0  0  0
   -8.9870   21.8720  -30.9570 O   0  0  0  0  0  0  0  0  0  0  0  0
   -6.7580   22.5920  -31.3020 C   0  0  0  0  0  0  0  0  0  0  0  0
   -6.9730   23.9540  -31.0360 C   0  0  0  0  0  0  0  0  0  0  0  0
   -5.9160   24.7870  -30.6750 C   0  0  0  0  0  0  0  0  0  0  0  0
   -4.6110   24.2820  -30.5990 C   0  0  0  0  0  0  0  0  0  0  0  0
   -3.4960   25.1120  -30.2410 N   0  0  0  0  0  0  0  0  0  0  0  0
   -2.4130   24.7620  -29.3690 C   0  0  0  0  0  0  0  0  0  0  0  0
   -1.6600   25.6790  -28.9470 O   0  0  0  0  0  0  0  0  0  0  0  0
   -2.2100   23.3720  -28.8860 C   0  0  0  0  0  0  0  0  0  0  0  0
   -1.1640   22.6090  -29.4340 C   0  0  0  0  0  0  0  0  0  0  0  0
   -0.9470   21.2940  -29.0140 C   0  0  0  0  0  0  0  0  0  0  0  0
   -1.7760   20.7230  -28.0500 C   0  0  0  0  0  0  0  0  0  0  0  0
   -2.8190   21.4640  -27.4960 C   0  0  0  0  0  0  0  0  0  0  0  0
   -3.0420   22.7950  -27.8930 C   0  0  0  0  0  0  0  0  0  0  0  0
   -4.1630   23.5680  -27.2490 C   0  0  0  0  0  0  0  0  0  0  0  0
   -4.3880   22.9240  -30.8420 C   0  0  0  0  0  0  0  0  0  0  0  0
   -5.4400   22.0660  -31.2120 C   0  0  0  0  0  0  0  0  0  0  0  0
   -5.0850   20.6510  -31.6170 C   0  0  0  0  0  0  0  0  0  0  0  0
   -4.0590   20.6450  -33.0820 S   0  0  0  0  0  0  0  0  0  0  0  0
   -4.1690   21.9700  -33.7820 O   0  0  0  0  0  0  0  0  0  0  0  0
   -4.5370   19.5650  -34.0120 O   0  0  0  0  0  0  0  0  0  0  0  0
   -2.3790   20.3460  -32.6650 C   0  0  0  0  0  0  0  0  0  0  0  0
   -1.9510   19.0580  -32.3240 C   0  0  0  0  0  0  0  0  0  0  0  0
   -0.6020   18.8400  -32.0380 C   0  0  0  0  0  0  0  0  0  0  0  0
    0.2990   19.9040  -32.0870 C   0  0  0  0  0  0  0  0  0  0  0  0
   -0.1660   21.1780  -32.4230 C   0  0  0  0  0  0  0  0  0  0  0  0
   -1.4820   21.3690  -32.7070 N   0  0  0  0  0  0  0  0  0  0  0  0
   -8.3683   19.2426  -31.4469 H   0  0  0  0  0  0  0  0  0  0  0  0
   -9.2753   19.3573  -32.9932 H   0  0  0  0  0  0  0  0  0  0  0  0
   -7.5667   18.8031  -32.9932 H   0  0  0  0  0  0  0  0  0  0  0  0
   -7.9889   24.3686  -31.1136 H   0  0  0  0  0  0  0  0  0  0  0  0
   -6.1069   25.8464  -30.4485 H   0  0  0  0  0  0  0  0  0  0  0  0
   -0.5104   23.0512  -30.2004 H   0  0  0  0  0  0  0  0  0  0  0  0
   -0.1210   20.7089  -29.4447 H   0  0  0  0  0  0  0  0  0  0  0  0
   -1.6070   19.6856  -27.7256 H   0  0  0  0  0  0  0  0  0  0  0  0
   -3.4737   21.0035  -26.7414 H   0  0  0  0  0  0  0  0  0  0  0  0
   -4.0708   23.5045  -26.1547 H   0  0  0  0  0  0  0  0  0  0  0  0
   -4.1085   24.6214  -27.5610 H   0  0  0  0  0  0  0  0  0  0  0  0
   -5.1283   23.1426  -27.5610 H   0  0  0  0  0  0  0  0  0  0  0  0
   -3.3705   22.5181  -30.7421 H   0  0  0  0  0  0  0  0  0  0  0  0
   -4.5398   20.1667  -30.7935 H   0  0  0  0  0  0  0  0  0  0  0  0
   -6.0141   20.1046  -31.8363 H   0  0  0  0  0  0  0  0  0  0  0  0
   -2.6697   18.2263  -32.2818 H   0  0  0  0  0  0  0  0  0  0  0  0
   -0.2503   17.8316  -31.7746 H   0  0  0  0  0  0  0  0  0  0  0  0
    1.3638   19.7417  -31.8636 H   0  0  0  0  0  0  0  0  0  0  0  0
    0.5328   22.0268  -32.4578 H   0  0  0  0  0  0  0  0  0  0  0  0
  1  2  1  0
  2  3  1  0
  3  4  2  0
  3  5  1  0
  5  6  2  0
  6  7  1  0
  7  8  2  0
  8  9  1  0
  9 10  1  0
 10 11  2  0
 10 12  1  0
 12 13  2  0
 13 14  1  0
 14 15  2  0
 15 16  1  0
 16 17  2  0
 17 18  1  0
  8 19  1  0
 19 20  2  0
 20 21  1  0
 21 22  1  0
 22 23  2  0
 22 24  2  0
 22 25  1  0
 25 26  2  0
 26 27  1  0
 27 28  2  0
 28 29  1  0
 29 30  2  0
 20  5  1  0
 30 25  1  0
 17 12  1  0
  1 31  1  0
  1 32  1  0
  1 33  1  0
  6 34  1  0
  7 35  1  0
 13 36  1  0
 14 37  1  0
 15 38  1  0
 16 39  1  0
 18 40  1  0
 18 41  1  0
 18 42  1  0
 19 43  1  0
 21 44  1  0
 21 45  1  0
 26 46  1  0
 27 47  1  0
 28 48  1  0
 29 49  1  0
M  CHG  1   9  -1
M  END
>  <UniqueID>  (8) 
7

>  <SMILES>  (8) 
COC(=O)c1ccc([N-]C(=O)c2ccccc2C)cc1CS(=O)(=O)c1ccccn1

>  <Energy>  (8) 
59.72449386159343

>  <Genealogy>  (8) 
COC(=O)c1ccc([N-]C(=O)c2ccccc2C)cc1CS(=O)(=O)c1ccccn1 (protonated)
COC(=O)c1ccc([N-]C(=O)c2ccccc2C)cc1CS(=O)(=O)c1ccccn1 (3D coordinates assigned)
COC(=O)c1ccc([N-]C(=O)c2ccccc2C)cc1CS(=O)(=O)c1ccccn1 (optimized conformer: 59.72449386159343 kcal/mol)

>  <smiles>  (8) 
COC(=O)c1ccc(NC(=O)c2ccccc2C)cc1CS(=O)(=O)c1ccccn1

>  <score_type>  (8) 
oracle

>  <origin>  (8) 
adgpu

>  <m_score__min__energy>  (8) 
-10.619999999999999

>  <m_primary>  (8) 
energy

$$$$
8:0
     RDKit          3D

 29 30  0  0  0  0  0  0  0  0999 V2000
    0.4150   20.4800  -33.1610 C   0  0  0  0  0  0  0  0  0  0  0  0
    0.0730   19.8860  -31.4760 S   0  0  0  0  0  0  0  0  0  0  0  0
   -1.1050   21.1950  -31.1270 C   0  0  0  0  0  0  0  0  0  0  0  0
   -0.8380   22.4440  -30.0360 S   0  0  0  0  0  0  0  0  0  0  0  0
   -2.3510   23.1260  -30.3100 C   0  0  0  0  0  0  0  0  0  0  0  0
   -2.9400   24.5740  -29.5210 S   0  0  0  0  0  0  0  0  0  0  0  0
   -1.6080   25.5980  -29.1150 N   0  0  0  0  0  0  0  0  0  0  0  0
   -3.6880   24.1960  -28.2740 O   0  0  0  0  0  0  0  0  0  0  0  0
   -3.8660   25.3090  -30.4480 O   0  0  0  0  0  0  0  0  0  0  0  0
   -3.0670   22.4230  -31.2130 N   0  0  0  0  0  0  0  0  0  0  0  0
   -2.3790   21.3440  -31.6720 C   0  0  0  0  0  0  0  0  0  0  0  0
   -3.0910   20.2310  -32.8300 S   0  0  0  0  0  0  0  0  0  0  0  0
   -2.5740   18.8450  -32.5610 O   0  0  0  0  0  0  0  0  0  0  0  0
   -2.6990   20.6330  -34.2240 O   0  0  0  0  0  0  0  0  0  0  0  0
   -4.8460   20.2800  -32.6980 C   0  0  0  0  0  0  0  0  0  0  0  0
   -5.4910   21.5080  -32.4910 C   0  0  0  0  0  0  0  0  0  0  0  0
   -6.8830   21.5590  -32.3700 C   0  0  0  0  0  0  0  0  0  0  0  0
   -7.6380   20.3830  -32.4570 C   0  0  0  0  0  0  0  0  0  0  0  0
   -9.3840   20.4470  -32.3040 Cl  0  0  0  0  0  0  0  0  0  0  0  0
   -6.9970   19.1560  -32.6650 C   0  0  0  0  0  0  0  0  0  0  0  0
   -5.6050   19.1040  -32.7850 C   0  0  0  0  0  0  0  0  0  0  0  0
    0.9633   21.4323  -33.1099 H   0  0  0  0  0  0  0  0  0  0  0  0
    1.0226   19.7353  -33.6960 H   0  0  0  0  0  0  0  0  0  0  0  0
   -0.5341   20.6316  -33.6960 H   0  0  0  0  0  0  0  0  0  0  0  0
   -1.2410   25.9880  -30.0130 H   0  0  0  0  0  0  0  0  0  0  0  0
   -4.9002   22.4334  -32.4237 H   0  0  0  0  0  0  0  0  0  0  0  0
   -7.3854   22.5238  -32.2063 H   0  0  0  0  0  0  0  0  0  0  0  0
   -7.5892   18.2316  -32.7341 H   0  0  0  0  0  0  0  0  0  0  0  0
   -5.1040   18.1384  -32.9480 H   0  0  0  0  0  0  0  0  0  0  0  0
  1  2  1  0
  2  3  1  0
  3  4  1  0
  4  5  1  0
  5  6  1  0
  6  7  1  0
  6  8  2  0
  6  9  2  0
  5 10  2  0
 10 11  1  0
 11 12  1  0
 12 13  2  0
 12 14  2  0
 12 15  1  0
 15 16  2  0
 16 17  1  0
 17 18  2  0
 18 19  1  0
 18 20  1  0
 20 21  2  0
 11  3  2  0
 21 15  1  0
  1 22  1  0
  1 23  1  0
  1 24  1  0
  7 25  1  0
 16 26  1  0
 17 27  1  0
 20 28  1  0
 21 29  1  0
M  CHG  1   7  -1
M  END
>  <UniqueID>  (9) 
8

>  <SMILES>  (9) 
CSc1sc(S([NH-])(=O)=O)nc1S(=O)(=O)c1ccc(Cl)cc1

>  <Energy>  (9) 
55.97875320994867

>  <Genealogy>  (9) 
CSc1sc(S([NH-])(=O)=O)nc1S(=O)(=O)c1ccc(Cl)cc1 (protonated)
CSc1sc(S([NH-])(=O)=O)nc1S(=O)(=O)c1ccc(Cl)cc1 (3D coordinates assigned)
CSc1sc(S([NH-])(=O)=O)nc1S(=O)(=O)c1ccc(Cl)cc1 (optimized conformer: 55.97875320994867 kcal/mol)

>  <smiles>  (9) 
CSc1sc(S(N)(=O)=O)nc1S(=O)(=O)c1ccc(Cl)cc1

>  <score_type>  (9) 
oracle

>  <origin>  (9) 
adgpu

>  <m_score__min__energy>  (9) 
-10.02

>  <m_primary>  (9) 
energy

$$$$
9:0
     RDKit          3D

 46 48  0  0  0  0  0  0  0  0999 V2000
   -1.9130   17.7390  -34.2570 C   0  0  0  0  0  0  0  0  0  0  0  0
   -3.2700   17.5710  -34.6490 O   0  0  0  0  0  0  0  0  0  0  0  0
   -3.9950   16.3710  -34.5310 C   0  0  0  0  0  0  0  0  0  0  0  0
   -3.4690   15.1430  -34.9810 C   0  0  0  0  0  0  0  0  0  0  0  0
   -4.2240   13.9730  -34.8850 C   0  0  0  0  0  0  0  0  0  0  0  0
   -5.5080   14.0100  -34.3410 C   0  0  0  0  0  0  0  0  0  0  0  0
   -6.0400   15.2170  -33.8850 C   0  0  0  0  0  0  0  0  0  0  0  0
   -5.2890   16.4030  -33.9680 C   0  0  0  0  0  0  0  0  0  0  0  0
   -5.8680   17.6720  -33.4620 C   0  0  0  0  0  0  0  0  0  0  0  0
   -7.1820   17.7030  -32.9780 C   0  0  0  0  0  0  0  0  0  0  0  0
   -7.7010   18.9140  -32.5110 C   0  0  0  0  0  0  0  0  0  0  0  0
   -9.1110   18.9950  -32.0080 C   0  0  0  0  0  0  0  0  0  0  0  0
   -9.1810   19.8900  -30.9560 F   0  0  0  0  0  0  0  0  0  0  0  0
   -9.5200   17.7470  -31.5720 F   0  0  0  0  0  0  0  0  0  0  0  0
   -9.9630   19.4200  -33.0130 F   0  0  0  0  0  0  0  0  0  0  0  0
   -6.9230   20.0270  -32.5400 N   0  0  0  0  0  0  0  0  0  0  0  0
   -5.6450   19.9910  -33.0070 C   0  0  0  0  0  0  0  0  0  0  0  0
   -4.9140   21.0680  -33.0270 N   0  0  0  0  0  0  0  0  0  0  0  0
   -5.3600   22.3900  -32.5840 C   0  0  0  0  0  0  0  0  0  0  0  0
   -4.4040   22.9580  -31.5690 C   0  0  0  0  0  0  0  0  0  0  0  0
   -4.7470   24.0980  -30.8230 C   0  0  0  0  0  0  0  0  0  0  0  0
   -3.8430   24.6370  -29.9040 C   0  0  0  0  0  0  0  0  0  0  0  0
   -2.5870   24.0440  -29.7170 C   0  0  0  0  0  0  0  0  0  0  0  0
   -1.4390   24.7330  -28.5760 S   0  0  0  0  0  0  0  0  0  0  0  0
   -1.2080   26.4090  -28.9290 N   0  0  0  0  0  0  0  0  0  0  0  0
   -0.1240   24.0110  -28.6800 O   0  0  0  0  0  0  0  0  0  0  0  0
   -1.9590   24.5860  -27.1740 O   0  0  0  0  0  0  0  0  0  0  0  0
   -2.2400   22.9120  -30.4670 C   0  0  0  0  0  0  0  0  0  0  0  0
   -3.1430   22.3710  -31.3850 C   0  0  0  0  0  0  0  0  0  0  0  0
   -5.1240   18.8170  -33.4580 N   0  0  0  0  0  0  0  0  0  0  0  0
   -1.8468   17.7472  -33.1590 H   0  0  0  0  0  0  0  0  0  0  0  0
   -1.3110   16.9085  -34.6544 H   0  0  0  0  0  0  0  0  0  0  0  0
   -1.5317   18.6912  -34.6544 H   0  0  0  0  0  0  0  0  0  0  0  0
   -2.4570   15.1066  -35.4106 H   0  0  0  0  0  0  0  0  0  0  0  0
   -3.8055   13.0194  -35.2392 H   0  0  0  0  0  0  0  0  0  0  0  0
   -6.1019   13.0867  -34.2714 H   0  0  0  0  0  0  0  0  0  0  0  0
   -7.0534   15.2407  -33.4579 H   0  0  0  0  0  0  0  0  0  0  0  0
   -7.7952   16.7898  -32.9656 H   0  0  0  0  0  0  0  0  0  0  0  0
   -5.4094   23.0645  -33.4515 H   0  0  0  0  0  0  0  0  0  0  0  0
   -6.3531   22.2930  -32.1210 H   0  0  0  0  0  0  0  0  0  0  0  0
   -5.7315   24.5683  -30.9630 H   0  0  0  0  0  0  0  0  0  0  0  0
   -4.1183   25.5307  -29.3247 H   0  0  0  0  0  0  0  0  0  0  0  0
   -0.8610   26.4680  -29.9120 H   0  0  0  0  0  0  0  0  0  0  0  0
   -1.2520   22.4475  -30.3320 H   0  0  0  0  0  0  0  0  0  0  0  0
   -2.8641   21.4801  -31.9668 H   0  0  0  0  0  0  0  0  0  0  0  0
   -4.1340   18.7940  -33.7930 H   0  0  0  0  0  0  0  0  0  0  0  0
  1  2  1  0
  2  3  1  0
  3  4  2  0
  4  5  1  0
  5  6  2  0
  6  7  1  0
  7  8  2  0
  8  9  1  0
  9 10  2  0
 10 11  1  0
 11 12  1  0
 12 13  1  0
 12 14  1  0
 12 15  1  0
 11 16  2  0
 16 17  1  0
 17 18  2  3
 18 19  1  0
 19 20  1  0
 20 21  2  0
 21 22  1  0
 22 23  2  0
 23 24  1  0
 24 25  1  0
 24 26  2  0
 24 27  2  0
 23 28  1  0
 28 29  2  0
 17 30  1  0
  8  3  1  0
 30  9  1  0
 29 20  1  0
  1 31  1  0
  1 32  1  0
  1 33  1  0
  4 34  1  0
  5 35  1  0
  6 36  1  0
  7 37  1  0
 10 38  1  0
 19 39  1  0
 19 40  1  0
 21 41  1  0
 22 42  1  0
 25 43  1  0
 28 44  1  0
 29 45  1  0
 30 46  1  0
M  CHG  1  25  -1
M  END
>  <UniqueID>  (10) 
9

>  <SMILES>  (10) 
COc1ccccc1-c1cc(C(F)(F)F)nc(=NCc2ccc(S([NH-])(=O)=O)cc2)[nH]1

>  <Energy>  (10) 
52.0690105330174

>  <Genealogy>  (10) 
COc1ccccc1-c1cc(C(F)(F)F)nc(=NCc2ccc(S([NH-])(=O)=O)cc2)[nH]1 (protonated)
COc1ccccc1-c1cc(C(F)(F)F)nc(=NCc2ccc(S([NH-])(=O)=O)cc2)[nH]1 (3D coordinates assigned)
COc1ccccc1-c1cc(C(F)(F)F)nc(=NCc2ccc(S([NH-])(=O)=O)cc2)[nH]1 (optimized conformer: 52.0690105330174 kcal/mol)

>  <smiles>  (10) 
COc1ccccc1-c1cc(C(F)(F)F)nc(=NCc2ccc(S(N)(=O)=O)cc2)[nH]1

>  <score_type>  (10) 
oracle

>  <origin>  (10) 
adgpu

>  <m_score__min__energy>  (10) 
-9.7100000000000009

>  <m_primary>  (10) 
energy

$$$$
10:0
     RDKit          3D

 43 46  0  0  0  0  0  0  0  0999 V2000
   -6.8790   15.9860  -33.8930 C   0  0  0  0  0  0  0  0  0  0  0  0
   -6.4070   17.4000  -33.9150 C   0  0  0  0  0  0  0  0  0  0  0  0
   -6.0870   18.0730  -35.0350 N   0  0  0  0  0  0  0  0  0  0  0  0
   -5.7440   19.2910  -34.6480 N   0  0  0  0  0  0  0  0  0  0  0  0
   -5.8720   19.3160  -33.3070 C   0  0  0  0  0  0  0  0  0  0  0  0
   -5.5900   20.4920  -32.4620 C   0  0  0  0  0  0  0  0  0  0  0  0
   -4.3360   21.1210  -32.5240 C   0  0  0  0  0  0  0  0  0  0  0  0
   -4.0640   22.2350  -31.7250 C   0  0  0  0  0  0  0  0  0  0  0  0
   -5.0400   22.7340  -30.8520 C   0  0  0  0  0  0  0  0  0  0  0  0
   -4.6800   24.1290  -29.8400 S   0  0  0  0  0  0  0  0  0  0  0  0
   -5.9580   24.7810  -29.3870 O   0  0  0  0  0  0  0  0  0  0  0  0
   -3.9010   25.1390  -30.6360 O   0  0  0  0  0  0  0  0  0  0  0  0
   -3.7560   23.6380  -28.4510 N   0  0  0  0  0  0  0  0  0  0  0  0
   -4.1980   24.1100  -27.1250 C   0  0  0  0  0  0  0  0  0  0  0  0
   -3.3160   25.2290  -26.5360 C   0  0  0  0  0  0  0  0  0  0  0  0
   -1.8050   24.9140  -26.5560 C   0  0  0  0  0  0  0  0  0  0  0  0
   -1.0290   25.0000  -28.2130 S   0  0  0  0  0  0  0  0  0  0  0  0
   -1.3150   23.2750  -28.6120 C   0  0  0  0  0  0  0  0  0  0  0  0
   -0.2270   22.4360  -28.8760 C   0  0  0  0  0  0  0  0  0  0  0  0
   -0.4370   21.0820  -29.1480 C   0  0  0  0  0  0  0  0  0  0  0  0
   -1.7350   20.5650  -29.1640 C   0  0  0  0  0  0  0  0  0  0  0  0
   -2.8250   21.4020  -28.9140 C   0  0  0  0  0  0  0  0  0  0  0  0
   -2.6250   22.7640  -28.6370 C   0  0  0  0  0  0  0  0  0  0  0  0
   -6.2930   22.1110  -30.7890 C   0  0  0  0  0  0  0  0  0  0  0  0
   -6.5670   20.9970  -31.5880 C   0  0  0  0  0  0  0  0  0  0  0  0
   -6.2830   18.1550  -32.8510 O   0  0  0  0  0  0  0  0  0  0  0  0
   -6.9902   15.6528  -32.8506 H   0  0  0  0  0  0  0  0  0  0  0  0
   -7.8494   15.9154  -34.4061 H   0  0  0  0  0  0  0  0  0  0  0  0
   -6.1456   15.3466  -34.4061 H   0  0  0  0  0  0  0  0  0  0  0  0
   -3.5635   20.7348  -33.2052 H   0  0  0  0  0  0  0  0  0  0  0  0
   -3.0794   22.7222  -31.7817 H   0  0  0  0  0  0  0  0  0  0  0  0
   -5.2257   24.4912  -27.2176 H   0  0  0  0  0  0  0  0  0  0  0  0
   -4.1267   23.2523  -26.4399 H   0  0  0  0  0  0  0  0  0  0  0  0
   -3.4858   26.1462  -27.1190 H   0  0  0  0  0  0  0  0  0  0  0  0
   -3.6042   25.3386  -25.4801 H   0  0  0  0  0  0  0  0  0  0  0  0
   -1.2955   25.6359  -25.9008 H   0  0  0  0  0  0  0  0  0  0  0  0
   -1.6994   23.8731  -26.2164 H   0  0  0  0  0  0  0  0  0  0  0  0
    0.7949   22.8430  -28.8694 H   0  0  0  0  0  0  0  0  0  0  0  0
    0.4199   20.4225  -29.3497 H   0  0  0  0  0  0  0  0  0  0  0  0
   -1.8987   19.4977  -29.3737 H   0  0  0  0  0  0  0  0  0  0  0  0
   -3.8455   20.9920  -28.9342 H   0  0  0  0  0  0  0  0  0  0  0  0
   -7.0645   22.4999  -30.1081 H   0  0  0  0  0  0  0  0  0  0  0  0
   -7.5533   20.5131  -31.5320 H   0  0  0  0  0  0  0  0  0  0  0  0
  1  2  1  0
  2  3  2  0
  3  4  1  0
  4  5  2  0
  5  6  1  0
  6  7  2  0
  7  8  1  0
  8  9  2  0
  9 10  1  0
 10 11  2  0
 10 12  2  0
 10 13  1  0
 13 14  1  0
 14 15  1  0
 15 16  1  0
 16 17  1  0
 17 18  1  0
 18 19  2  0
 19 20  1  0
 20 21  2  0
 21 22  1  0
 22 23  2  0
  9 24  1  0
 24 25  2  0
  5 26  1  0
 26  2  1  0
 25  6  1  0
 23 13  1  0
 23 18  1  0
  1 27  1  0
  1 28  1  0
  1 29  1  0
  7 30  1  0
  8 31  1  0
 14 32  1  0
 14 33  1  0
 15 34  1  0
 15 35  1  0
 16 36  1  0
 16 37  1  0
 19 38  1  0
 20 39  1  0
 21 40  1  0
 22 41  1  0
 24 42  1  0
 25 43  1  0
M  END
>  <UniqueID>  (11) 
10

>  <SMILES>  (11) 
Cc1nnc(-c2ccc(S(=O)(=O)N3CCCSc4ccccc43)cc2)o1

>  <Energy>  (11) 
89.58657579299248

>  <Genealogy>  (11) 
Cc1nnc(-c2ccc(S(=O)(=O)N3CCCSc4ccccc43)cc2)o1 (3D coordinates assigned)
Cc1nnc(-c2ccc(S(=O)(=O)N3CCCSc4ccccc43)cc2)o1 (nonaromatic ring conformer: 89.58657579299248 kcal/mol)

>  <smiles>  (11) 
Cc1nnc(-c2ccc(S(=O)(=O)N3CCCSc4ccccc43)cc2)o1

>  <score_type>  (11) 
oracle

>  <origin>  (11) 
adgpu

>  <m_score__min__energy>  (11) 
-7.3300000000000001

>  <m_primary>  (11) 
energy

$$$$
11:0
     RDKit          3D

 41 43  0  0  0  0  0  0  0  0999 V2000
   -3.0120   21.4670  -30.0660 C   0  0  0  0  0  0  0  0  0  0  0  0
   -2.8330   22.9380  -29.8280 C   0  0  0  0  0  0  0  0  0  0  0  0
   -3.7910   23.9300  -30.0030 C   0  0  0  0  0  0  0  0  0  0  0  0
   -5.2190   23.7290  -30.4310 C   0  0  0  0  0  0  0  0  0  0  0  0
   -5.3200   23.0980  -31.8260 C   0  0  0  0  0  0  0  0  0  0  0  0
   -6.5370   22.2180  -31.9550 C   0  0  0  0  0  0  0  0  0  0  0  0
   -7.7920   22.6830  -31.5300 C   0  0  0  0  0  0  0  0  0  0  0  0
   -8.9290   21.8850  -31.6880 C   0  0  0  0  0  0  0  0  0  0  0  0
   -8.8210   20.6210  -32.2740 C   0  0  0  0  0  0  0  0  0  0  0  0
   -7.5770   20.1550  -32.7080 C   0  0  0  0  0  0  0  0  0  0  0  0
   -6.4370   20.9500  -32.5520 C   0  0  0  0  0  0  0  0  0  0  0  0
   -3.2890   25.1470  -29.7060 N   0  0  0  0  0  0  0  0  0  0  0  0
   -2.0110   24.9270  -29.3440 C   0  0  0  0  0  0  0  0  0  0  0  0
   -1.1410   25.9430  -28.9630 O   0  0  0  0  0  0  0  0  0  0  0  0
   -1.6880   23.5850  -29.3860 C   0  0  0  0  0  0  0  0  0  0  0  0
   -0.3660   23.0020  -29.0770 C   0  0  0  0  0  0  0  0  0  0  0  0
    0.5740   23.7650  -28.7320 O   0  0  0  0  0  0  0  0  0  0  0  0
   -0.1100   21.5980  -29.1900 N   0  0  0  0  0  0  0  0  0  0  0  0
   -0.6570   20.5780  -28.3440 C   0  0  0  0  0  0  0  0  0  0  0  0
   -1.4820   20.8820  -27.2500 C   0  0  0  0  0  0  0  0  0  0  0  0
   -1.9710   19.8560  -26.4390 C   0  0  0  0  0  0  0  0  0  0  0  0
   -1.6280   18.5340  -26.7280 C   0  0  0  0  0  0  0  0  0  0  0  0
   -0.8130   18.2560  -27.7810 N   0  0  0  0  0  0  0  0  0  0  0  0
   -0.3190   19.2400  -28.5800 C   0  0  0  0  0  0  0  0  0  0  0  0
   -3.0756   20.9444  -29.1002 H   0  0  0  0  0  0  0  0  0  0  0  0
   -3.9374   21.2977  -30.6361 H   0  0  0  0  0  0  0  0  0  0  0  0
   -2.1542   21.0808  -30.6361 H   0  0  0  0  0  0  0  0  0  0  0  0
   -5.7170   23.0684  -29.7060 H   0  0  0  0  0  0  0  0  0  0  0  0
   -5.7032   24.7160  -30.4698 H   0  0  0  0  0  0  0  0  0  0  0  0
   -5.3794   23.9002  -32.5763 H   0  0  0  0  0  0  0  0  0  0  0  0
   -4.4282   22.4739  -31.9846 H   0  0  0  0  0  0  0  0  0  0  0  0
   -7.8808   23.6788  -31.0711 H   0  0  0  0  0  0  0  0  0  0  0  0
   -9.9094   22.2524  -31.3508 H   0  0  0  0  0  0  0  0  0  0  0  0
   -9.7157   19.9924  -32.3937 H   0  0  0  0  0  0  0  0  0  0  0  0
   -7.4944   19.1615  -33.1730 H   0  0  0  0  0  0  0  0  0  0  0  0
   -5.4598   20.5817  -32.8975 H   0  0  0  0  0  0  0  0  0  0  0  0
   -0.1400   25.8060  -28.9970 H   0  0  0  0  0  0  0  0  0  0  0  0
   -1.7432   21.9280  -27.0316 H   0  0  0  0  0  0  0  0  0  0  0  0
   -2.6198   20.0870  -25.5813 H   0  0  0  0  0  0  0  0  0  0  0  0
   -2.0172   17.7163  -26.1036 H   0  0  0  0  0  0  0  0  0  0  0  0
    0.3491   18.9832  -29.4153 H   0  0  0  0  0  0  0  0  0  0  0  0
  1  2  1  0
  2  3  2  0
  3  4  1  0
  4  5  1  0
  5  6  1  0
  6  7  2  0
  7  8  1  0
  8  9  2  0
  9 10  1  0
 10 11  2  0
  3 12  1  0
 12 13  1  0
 13 14  1  0
 13 15  2  0
 15 16  1  0
 16 17  2  0
 16 18  1  0
 18 19  1  0
 19 20  2  0
 20 21  1  0
 21 22  2  0
 22 23  1  0
 23 24  2  0
 15  2  1  0
 24 19  1  0
 11  6  1  0
  1 25  1  0
  1 26  1  0
  1 27  1  0
  4 28  1  0
  4 29  1  0
  5 30  1  0
  5 31  1  0
  7 32  1  0
  8 33  1  0
  9 34  1  0
 10 35  1  0
 11 36  1  0
 14 37  1  0
 20 38  1  0
 21 39  1  0
 22 40  1  0
 24 41  1  0
M  CHG  2  12  -1  18  -1
M  END
>  <UniqueID>  (12) 
11

>  <SMILES>  (12) 
Cc1c(CCc2ccccc2)[n-]c(O)c1C(=O)[N-]c1cccnc1

>  <Energy>  (12) 
69.66229202564601

>  <Genealogy>  (12) 
Cc1c(CCc2ccccc2)[n-]c(O)c1C(=O)[N-]c1cccnc1 (protonated)
Cc1c(CCc2ccccc2)[n-]c(O)c1C(=O)[N-]c1cccnc1 (3D coordinates assigned)
Cc1c(CCc2ccccc2)[n-]c(O)c1C(=O)[N-]c1cccnc1 (optimized conformer: 69.66229202564601 kcal/mol)

>  <smiles>  (12) 
Cc1c(CCc2ccccc2)[nH]c(O)c1C(=O)Nc1cccnc1

>  <score_type>  (12) 
oracle

>  <origin>  (12) 
adgpu

>  <m_score__min__energy>  (12) 
-11.16

>  <m_primary>  (12) 
energy

$$$$
12:0
     RDKit          3D

 40 41  0  0  0  0  0  0  0  0999 V2000
   -3.3920   21.5530  -32.6350 C   0  0  0  0  0  0  0  0  0  0  0  0
   -3.4420   22.7670  -31.8930 O   0  0  0  0  0  0  0  0  0  0  0  0
   -3.2760   22.8550  -30.5010 C   0  0  0  0  0  0  0  0  0  0  0  0
   -2.7610   21.7870  -29.7420 C   0  0  0  0  0  0  0  0  0  0  0  0
   -2.6100   21.9120  -28.3590 C   0  0  0  0  0  0  0  0  0  0  0  0
   -2.9750   23.0980  -27.7220 C   0  0  0  0  0  0  0  0  0  0  0  0
   -3.4880   24.1630  -28.4630 C   0  0  0  0  0  0  0  0  0  0  0  0
   -3.6350   24.0550  -29.8620 C   0  0  0  0  0  0  0  0  0  0  0  0
   -4.1410   25.0960  -30.6570 O   0  0  0  0  0  0  0  0  0  0  0  0
   -5.3610   25.8130  -30.4550 C   0  0  0  0  0  0  0  0  0  0  0  0
   -6.3900   24.9540  -29.7100 C   0  0  0  0  0  0  0  0  0  0  0  0
   -7.1580   23.9990  -30.6400 C   0  0  0  0  0  0  0  0  0  0  0  0
   -6.2490   23.0940  -31.3710 N   0  0  0  0  0  0  0  0  0  0  0  0
   -6.8600   22.5060  -32.5760 C   0  0  0  0  0  0  0  0  0  0  0  0
   -7.3490   21.1000  -32.3360 C   0  0  0  0  0  0  0  0  0  0  0  0
   -6.4480   20.0250  -32.2840 C   0  0  0  0  0  0  0  0  0  0  0  0
   -6.9150   18.7350  -32.0270 C   0  0  0  0  0  0  0  0  0  0  0  0
   -8.2810   18.5300  -31.8190 C   0  0  0  0  0  0  0  0  0  0  0  0
   -9.1410   19.5810  -31.8680 N   0  0  0  0  0  0  0  0  0  0  0  0
   -8.7110   20.8460  -32.1180 C   0  0  0  0  0  0  0  0  0  0  0  0
   -3.3569   20.7003  -31.9410 H   0  0  0  0  0  0  0  0  0  0  0  0
   -4.2876   21.4734  -33.2687 H   0  0  0  0  0  0  0  0  0  0  0  0
   -2.4929   21.5473  -33.2687 H   0  0  0  0  0  0  0  0  0  0  0  0
   -2.4760   20.8489  -30.2408 H   0  0  0  0  0  0  0  0  0  0  0  0
   -2.2033   21.0752  -27.7723 H   0  0  0  0  0  0  0  0  0  0  0  0
   -2.8581   23.1939  -26.6324 H   0  0  0  0  0  0  0  0  0  0  0  0
   -3.7798   25.0930  -27.9531 H   0  0  0  0  0  0  0  0  0  0  0  0
   -5.1526   26.7171  -29.8641 H   0  0  0  0  0  0  0  0  0  0  0  0
   -5.7757   26.0804  -31.4381 H   0  0  0  0  0  0  0  0  0  0  0  0
   -5.8646   24.3569  -28.9501 H   0  0  0  0  0  0  0  0  0  0  0  0
   -7.1247   25.6366  -29.2580 H   0  0  0  0  0  0  0  0  0  0  0  0
   -7.8512   23.3952  -30.0360 H   0  0  0  0  0  0  0  0  0  0  0  0
   -7.7018   24.6061  -31.3787 H   0  0  0  0  0  0  0  0  0  0  0  0
   -5.3480   23.5660  -31.6220 H   0  0  0  0  0  0  0  0  0  0  0  0
   -7.7122   23.1304  -32.8822 H   0  0  0  0  0  0  0  0  0  0  0  0
   -6.0907   22.4675  -33.3613 H   0  0  0  0  0  0  0  0  0  0  0  0
   -5.3740   20.1991  -32.4458 H   0  0  0  0  0  0  0  0  0  0  0  0
   -6.2142   17.8880  -31.9886 H   0  0  0  0  0  0  0  0  0  0  0  0
   -8.6605   17.5178  -31.6155 H   0  0  0  0  0  0  0  0  0  0  0  0
   -9.4344   21.6741  -32.1495 H   0  0  0  0  0  0  0  0  0  0  0  0
  1  2  1  0
  2  3  1  0
  3  4  2  0
  4  5  1  0
  5  6  2  0
  6  7  1  0
  7  8  2  0
  8  9  1  0
  9 10  1  0
 10 11  1  0
 11 12  1  0
 12 13  1  0
 13 14  1  0
 14 15  1  0
 15 16  2  0
 16 17  1  0
 17 18  2  0
 18 19  1  0
 19 20  2  0
  8  3  1  0
 20 15  1  0
  1 21  1  0
  1 22  1  0
  1 23  1  0
  4 24  1  0
  5 25  1  0
  6 26  1  0
  7 27  1  0
 10 28  1  0
 10 29  1  0
 11 30  1  0
 11 31  1  0
 12 32  1  0
 12 33  1  0
 13 34  1  0
 14 35  1  0
 14 36  1  0
 16 37  1  0
 17 38  1  0
 18 39  1  0
 20 40  1  0
M  END
>  <UniqueID>  (13) 
12

>  <SMILES>  (13) 
COc1ccccc1OCCCNCc1cccnc1

>  <Energy>  (13) 
38.90900961406057

>  <Genealogy>  (13) 
COc1ccccc1OCCCNCc1cccnc1 (3D coordinates assigned)
COc1ccccc1OCCCNCc1cccnc1 (optimized conformer: 38.90900961406057 kcal/mol)

>  <smiles>  (13) 
COc1ccccc1OCCCNCc1cccnc1

>  <score_type>  (13) 
oracle

>  <origin>  (13) 
adgpu

>  <m_score__min__energy>  (13) 
-8.1500000000000004

>  <m_primary>  (13) 
energy

$$$$
13:0
     RDKit          3D

 52 54  0  0  0  0  0  0  0  0999 V2000
   -3.2410   24.0730  -27.7350 C   0  0  0  0  0  0  0  0  0  0  0  0
   -2.4700   24.4930  -29.2830 S   0  0  0  0  0  0  0  0  0  0  0  0
   -1.6950   23.3060  -29.7790 O   0  0  0  0  0  0  0  0  0  0  0  0
   -1.5230   25.6460  -29.0990 O   0  0  0  0  0  0  0  0  0  0  0  0
   -3.6780   24.9000  -30.4590 N   0  0  0  0  0  0  0  0  0  0  0  0
   -4.8240   24.1030  -30.7930 C   0  0  0  0  0  0  0  0  0  0  0  0
   -4.7100   22.8560  -31.4330 C   0  0  0  0  0  0  0  0  0  0  0  0
   -5.8540   22.1110  -31.7300 C   0  0  0  0  0  0  0  0  0  0  0  0
   -7.1240   22.5940  -31.3930 C   0  0  0  0  0  0  0  0  0  0  0  0
   -8.5620   21.6350  -31.7490 S   0  0  0  0  0  0  0  0  0  0  0  0
   -9.6200   22.5170  -32.3500 O   0  0  0  0  0  0  0  0  0  0  0  0
   -9.1030   21.0510  -30.4750 O   0  0  0  0  0  0  0  0  0  0  0  0
   -8.1850   20.3880  -32.9000 N   0  0  0  0  0  0  0  0  0  0  0  0
   -7.2320   19.3490  -32.6360 C   0  0  0  0  0  0  0  0  0  0  0  0
   -7.4320   18.4960  -31.5420 C   0  0  0  0  0  0  0  0  0  0  0  0
   -6.5300   17.4630  -31.2790 C   0  0  0  0  0  0  0  0  0  0  0  0
   -5.4160   17.2790  -32.1000 C   0  0  0  0  0  0  0  0  0  0  0  0
   -5.1960   18.1300  -33.1930 C   0  0  0  0  0  0  0  0  0  0  0  0
   -3.7650   17.9230  -34.2070 S   0  0  0  0  0  0  0  0  0  0  0  0
   -2.9460   16.7790  -33.6760 O   0  0  0  0  0  0  0  0  0  0  0  0
   -4.2090   17.5610  -35.5960 O   0  0  0  0  0  0  0  0  0  0  0  0
   -2.7720   19.3630  -34.2880 N   0  0  0  0  0  0  0  0  0  0  0  0
   -3.2850   20.4750  -33.4520 C   0  0  0  0  0  0  0  0  0  0  0  0
   -2.2680   21.0080  -32.4330 C   0  0  0  0  0  0  0  0  0  0  0  0
   -1.5770   19.8460  -31.7300 C   0  0  0  0  0  0  0  0  0  0  0  0
   -0.8240   18.9540  -32.7280 C   0  0  0  0  0  0  0  0  0  0  0  0
   -1.3260   19.0840  -34.1790 C   0  0  0  0  0  0  0  0  0  0  0  0
   -6.0950   19.1770  -33.4430 C   0  0  0  0  0  0  0  0  0  0  0  0
   -7.2390   23.8370  -30.7580 C   0  0  0  0  0  0  0  0  0  0  0  0
   -6.0940   24.5850  -30.4620 C   0  0  0  0  0  0  0  0  0  0  0  0
   -2.6077   24.4180  -26.9044 H   0  0  0  0  0  0  0  0  0  0  0  0
   -4.2256   24.5594  -27.6719 H   0  0  0  0  0  0  0  0  0  0  0  0
   -3.3663   22.9820  -27.6719 H   0  0  0  0  0  0  0  0  0  0  0  0
   -3.7169   22.4659  -31.7006 H   0  0  0  0  0  0  0  0  0  0  0  0
   -5.7560   21.1374  -32.2325 H   0  0  0  0  0  0  0  0  0  0  0  0
   -8.4260   20.5940  -33.8950 H   0  0  0  0  0  0  0  0  0  0  0  0
   -8.3039   18.6410  -30.8873 H   0  0  0  0  0  0  0  0  0  0  0  0
   -6.6976   16.7928  -30.4230 H   0  0  0  0  0  0  0  0  0  0  0  0
   -4.7083   16.4638  -31.8890 H   0  0  0  0  0  0  0  0  0  0  0  0
   -3.5755   21.3022  -34.1164 H   0  0  0  0  0  0  0  0  0  0  0  0
   -4.1340   20.0767  -32.8771 H   0  0  0  0  0  0  0  0  0  0  0  0
   -1.5155   21.6179  -32.9542 H   0  0  0  0  0  0  0  0  0  0  0  0
   -2.7929   21.6215  -31.6859 H   0  0  0  0  0  0  0  0  0  0  0  0
   -0.8611   20.2461  -30.9970 H   0  0  0  0  0  0  0  0  0  0  0  0
   -2.3457   19.2362  -31.2328 H   0  0  0  0  0  0  0  0  0  0  0  0
    0.2410   19.2283  -32.7035 H   0  0  0  0  0  0  0  0  0  0  0  0
   -0.9973   17.9120  -32.4209 H   0  0  0  0  0  0  0  0  0  0  0  0
   -0.7772   19.9051  -34.6633 H   0  0  0  0  0  0  0  0  0  0  0  0
   -1.1499   18.1138  -34.6665 H   0  0  0  0  0  0  0  0  0  0  0  0
   -5.9084   19.8689  -34.2775 H   0  0  0  0  0  0  0  0  0  0  0  0
   -8.2325   24.2265  -30.4911 H   0  0  0  0  0  0  0  0  0  0  0  0
   -6.1940   25.5609  -29.9645 H   0  0  0  0  0  0  0  0  0  0  0  0
  1  2  1  0
  2  3  2  0
  2  4  2  0
  2  5  1  0
  5  6  1  0
  6  7  2  0
  7  8  1  0
  8  9  2  0
  9 10  1  0
 10 11  2  0
 10 12  2  0
 10 13  1  0
 13 14  1  0
 14 15  2  0
 15 16  1  0
 16 17  2  0
 17 18  1  0
 18 19  1  0
 19 20  2  0
 19 21  2  0
 19 22  1  0
 22 23  1  0
 23 24  1  0
 24 25  1  0
 25 26  1  0
 26 27  1  0
 18 28  2  0
  9 29  1  0
 29 30  2  0
 30  6  1  0
 28 14  1  0
 27 22  1  0
  1 31  1  0
  1 32  1  0
  1 33  1  0
  7 34  1  0
  8 35  1  0
 13 36  1  0
 15 37  1  0
 16 38  1  0
 17 39  1  0
 23 40  1  0
 23 41  1  0
 24 42  1  0
 24 43  1  0
 25 44  1  0
 25 45  1  0
 26 46  1  0
 26 47  1  0
 27 48  1  0
 27 49  1  0
 28 50  1  0
 29 51  1  0
 30 52  1  0
M  CHG  1   5  -1
M  END
>  <UniqueID>  (14) 
13

>  <SMILES>  (14) 
CS(=O)(=O)[N-]c1ccc(S(=O)(=O)Nc2cccc(S(=O)(=O)N3CCCCC3)c2)cc1

>  <Energy>  (14) 
62.7827349412028

>  <Genealogy>  (14) 
CS(=O)(=O)[N-]c1ccc(S(=O)(=O)Nc2cccc(S(=O)(=O)N3CCCCC3)c2)cc1 (protonated)
CS(=O)(=O)[N-]c1ccc(S(=O)(=O)Nc2cccc(S(=O)(=O)N3CCCCC3)c2)cc1 (3D coordinates assigned)
CS(=O)(=O)[N-]c1ccc(S(=O)(=O)Nc2cccc(S(=O)(=O)N3CCCCC3)c2)cc1 (nonaromatic ring conformer: 62.7827349412028 kcal/mol)

>  <smiles>  (14) 
CS(=O)(=O)Nc1ccc(S(=O)(=O)Nc2cccc(S(=O)(=O)N3CCCCC3)c2)cc1

>  <score_type>  (14) 
oracle

>  <origin>  (14) 
adgpu

>  <m_score__min__energy>  (14) 
-11.890000000000001

>  <m_primary>  (14) 
energy

$$$$
14:0
     RDKit          3D

 28 30  0  0  0  0  0  0  0  0999 V2000
   -3.1120   25.2990  -29.8850 O   0  0  0  0  0  0  0  0  0  0  0  0
   -4.2310   24.6310  -30.3720 C   0  0  0  0  0  0  0  0  0  0  0  0
   -5.3630   25.3670  -30.7110 C   0  0  0  0  0  0  0  0  0  0  0  0
   -6.4960   24.7360  -31.2180 C   0  0  0  0  0  0  0  0  0  0  0  0
   -6.5270   23.3370  -31.3910 C   0  0  0  0  0  0  0  0  0  0  0  0
   -7.6740   22.6680  -31.9020 C   0  0  0  0  0  0  0  0  0  0  0  0
   -8.8350   23.3400  -32.3030 O   0  0  0  0  0  0  0  0  0  0  0  0
   -7.6670   21.2710  -32.0210 C   0  0  0  0  0  0  0  0  0  0  0  0
   -9.0750   20.4210  -32.6440 Cl  0  0  0  0  0  0  0  0  0  0  0  0
   -6.5480   20.5330  -31.6460 C   0  0  0  0  0  0  0  0  0  0  0  0
   -5.4150   21.1730  -31.1550 C   0  0  0  0  0  0  0  0  0  0  0  0
   -5.3750   22.5760  -31.0290 C   0  0  0  0  0  0  0  0  0  0  0  0
   -4.2190   23.2360  -30.5290 C   0  0  0  0  0  0  0  0  0  0  0  0
   -2.9840   22.4970  -30.1810 C   0  0  0  0  0  0  0  0  0  0  0  0
   -2.6620   22.2370  -28.8420 C   0  0  0  0  0  0  0  0  0  0  0  0
   -1.4990   21.5310  -28.5280 C   0  0  0  0  0  0  0  0  0  0  0  0
   -0.6690   21.0850  -29.5630 C   0  0  0  0  0  0  0  0  0  0  0  0
    0.6990   20.2550  -29.2270 S   0  0  0  0  0  0  0  0  0  0  0  0
   -1.0010   21.3390  -30.8570 N   0  0  0  0  0  0  0  0  0  0  0  0
   -2.1270   22.0260  -31.1870 C   0  0  0  0  0  0  0  0  0  0  0  0
   -5.3624   26.4588  -30.5769 H   0  0  0  0  0  0  0  0  0  0  0  0
   -7.3777   25.3363  -31.4869 H   0  0  0  0  0  0  0  0  0  0  0  0
   -9.1520   24.2220  -31.9290 H   0  0  0  0  0  0  0  0  0  0  0  0
   -6.5598   19.4370  -31.7385 H   0  0  0  0  0  0  0  0  0  0  0  0
   -4.5388   20.5763  -30.8612 H   0  0  0  0  0  0  0  0  0  0  0  0
   -3.3255   22.5891  -28.0384 H   0  0  0  0  0  0  0  0  0  0  0  0
   -1.2380   21.3276  -27.4789 H   0  0  0  0  0  0  0  0  0  0  0  0
   -2.3664   22.2128  -32.2443 H   0  0  0  0  0  0  0  0  0  0  0  0
  1  2  1  0
  2  3  2  0
  3  4  1  0
  4  5  2  0
  5  6  1  0
  6  7  1  0
  6  8  2  0
  8  9  1  0
  8 10  1  0
 10 11  2  0
 11 12  1  0
 12 13  2  0
 13 14  1  0
 14 15  1  0
 15 16  2  0
 16 17  1  0
 17 18  2  0
 17 19  1  0
 19 20  1  0
 13  2  1  0
 20 14  2  0
 12  5  1  0
  3 21  1  0
  4 22  1  0
  7 23  1  0
 10 24  1  0
 11 25  1  0
 15 26  1  0
 16 27  1  0
 20 28  1  0
M  CHG  2   1  -1  19  -1
M  END
>  <UniqueID>  (15) 
14

>  <SMILES>  (15) 
[O-]c1ccc2c(O)c(Cl)ccc2c1-c1ccc(=S)[n-]c1

>  <Energy>  (15) 
48.77777693660593

>  <Genealogy>  (15) 
[O-]c1ccc2c(O)c(Cl)ccc2c1-c1ccc(=S)[n-]c1 (protonated)
[O-]c1ccc2c(O)c(Cl)ccc2c1-c1ccc(=S)[n-]c1 (3D coordinates assigned)
[O-]c1ccc2c(O)c(Cl)ccc2c1-c1ccc(=S)[n-]c1 (optimized conformer: 48.77777693660593 kcal/mol)

>  <smiles>  (15) 
Oc1ccc2c(O)c(Cl)ccc2c1-c1ccc(=S)[nH]c1

>  <score_type>  (15) 
oracle

>  <origin>  (15) 
adgpu

>  <m_score__min__energy>  (15) 
-9.8699999999999992

>  <m_primary>  (15) 
energy

$$$$
15:0
     RDKit          3D

 50 53  0  0  0  0  0  0  0  0999 V2000
   -9.1010   21.8750  -30.4410 C   0  0  0  0  0  0  0  0  0  0  0  0
   -8.2490   20.8890  -31.1820 C   0  0  0  0  0  0  0  0  0  0  0  0
   -8.6640   19.6240  -31.5570 C   0  0  0  0  0  0  0  0  0  0  0  0
   -7.5880   19.0260  -32.1800 C   0  0  0  0  0  0  0  0  0  0  0  0
   -6.5640   19.9560  -32.1780 C   0  0  0  0  0  0  0  0  0  0  0  0
   -5.2280   19.7280  -32.7690 C   0  0  0  0  0  0  0  0  0  0  0  0
   -4.1340   20.4770  -32.3100 C   0  0  0  0  0  0  0  0  0  0  0  0
   -2.8610   20.2940  -32.8630 C   0  0  0  0  0  0  0  0  0  0  0  0
   -1.5310   21.2730  -32.2570 Cl  0  0  0  0  0  0  0  0  0  0  0  0
   -2.6720   19.3450  -33.8840 C   0  0  0  0  0  0  0  0  0  0  0  0
   -1.4210   19.1330  -34.4680 O   0  0  0  0  0  0  0  0  0  0  0  0
   -3.7580   18.5850  -34.3310 C   0  0  0  0  0  0  0  0  0  0  0  0
   -5.0280   18.7630  -33.7740 C   0  0  0  0  0  0  0  0  0  0  0  0
   -6.0770   17.9600  -34.2080 O   0  0  0  0  0  0  0  0  0  0  0  0
   -6.9700   21.0960  -31.5690 N   0  0  0  0  0  0  0  0  0  0  0  0
   -6.1670   22.2570  -31.2830 C   0  0  0  0  0  0  0  0  0  0  0  0
   -6.4150   23.4670  -31.9430 C   0  0  0  0  0  0  0  0  0  0  0  0
   -5.6460   24.5940  -31.6570 C   0  0  0  0  0  0  0  0  0  0  0  0
   -4.6170   24.5290  -30.7110 C   0  0  0  0  0  0  0  0  0  0  0  0
   -3.8740   25.6760  -30.4570 O   0  0  0  0  0  0  0  0  0  0  0  0
   -4.3510   23.3160  -30.0320 C   0  0  0  0  0  0  0  0  0  0  0  0
   -3.2680   23.2070  -29.0190 C   0  0  0  0  0  0  0  0  0  0  0  0
   -3.4970   22.7050  -27.8850 O   0  0  0  0  0  0  0  0  0  0  0  0
   -1.9500   23.6740  -29.3270 N   0  0  0  0  0  0  0  0  0  0  0  0
   -1.4420   24.9670  -28.8890 C   0  0  0  0  0  0  0  0  0  0  0  0
   -1.1920   24.9250  -27.4090 C   0  0  0  0  0  0  0  0  0  0  0  0
   -1.6050   25.9890  -26.5900 C   0  0  0  0  0  0  0  0  0  0  0  0
   -1.4040   25.9300  -25.2070 C   0  0  0  0  0  0  0  0  0  0  0  0
   -0.8020   24.8070  -24.6320 C   0  0  0  0  0  0  0  0  0  0  0  0
   -0.4050   23.7370  -25.4400 C   0  0  0  0  0  0  0  0  0  0  0  0
   -0.6030   23.7910  -26.8230 C   0  0  0  0  0  0  0  0  0  0  0  0
   -5.1400   22.1880  -30.3310 C   0  0  0  0  0  0  0  0  0  0  0  0
   -8.9742   21.7283  -29.3582 H   0  0  0  0  0  0  0  0  0  0  0  0
   -8.7974   22.8973  -30.7105 H   0  0  0  0  0  0  0  0  0  0  0  0
  -10.1566   21.7229  -30.7105 H   0  0  0  0  0  0  0  0  0  0  0  0
   -9.6573   19.1815  -31.3910 H   0  0  0  0  0  0  0  0  0  0  0  0
   -7.5515   18.0087  -32.5968 H   0  0  0  0  0  0  0  0  0  0  0  0
   -4.2780   21.2155  -31.5075 H   0  0  0  0  0  0  0  0  0  0  0  0
   -1.2010   18.3040  -35.0040 H   0  0  0  0  0  0  0  0  0  0  0  0
   -3.6115   17.8408  -35.1277 H   0  0  0  0  0  0  0  0  0  0  0  0
   -7.2199   23.5284  -32.6902 H   0  0  0  0  0  0  0  0  0  0  0  0
   -5.8495   25.5409  -32.1786 H   0  0  0  0  0  0  0  0  0  0  0  0
   -0.5017   25.1898  -29.4146 H   0  0  0  0  0  0  0  0  0  0  0  0
   -2.1804   25.7499  -29.1165 H   0  0  0  0  0  0  0  0  0  0  0  0
   -2.0875   26.8705  -27.0373 H   0  0  0  0  0  0  0  0  0  0  0  0
   -1.7204   26.7693  -24.5703 H   0  0  0  0  0  0  0  0  0  0  0  0
   -0.6407   24.7651  -23.5447 H   0  0  0  0  0  0  0  0  0  0  0  0
    0.0639   22.8512  -24.9867 H   0  0  0  0  0  0  0  0  0  0  0  0
   -0.2970   22.9438  -27.4543 H   0  0  0  0  0  0  0  0  0  0  0  0
   -4.9475   21.2387  -29.8097 H   0  0  0  0  0  0  0  0  0  0  0  0
  1  2  1  0
  2  3  2  0
  3  4  1  0
  4  5  2  0
  5  6  1  0
  6  7  2  0
  7  8  1  0
  8  9  1  0
  8 10  2  0
 10 11  1  0
 10 12  1  0
 12 13  2  0
 13 14  1  0
  5 15  1  0
 15 16  1  0
 16 17  2  0
 17 18  1  0
 18 19  2  0
 19 20  1  0
 19 21  1  0
 21 22  1  0
 22 23  2  0
 22 24  1  0
 24 25  1  0
 25 26  1  0
 26 27  2  0
 27 28  1  0
 28 29  2  0
 29 30  1  0
 30 31  2  0
 21 32  2  0
 15  2  1  0
 32 16  1  0
 13  6  1  0
 31 26  1  0
  1 33  1  0
  1 34  1  0
  1 35  1  0
  3 36  1  0
  4 37  1  0
  7 38  1  0
 11 39  1  0
 12 40  1  0
 17 41  1  0
 18 42  1  0
 25 43  1  0
 25 44  1  0
 27 45  1  0
 28 46  1  0
 29 47  1  0
 30 48  1  0
 31 49  1  0
 32 50  1  0
M  CHG  3  14  -1  20  -1  24  -1
M  END
>  <UniqueID>  (16) 
15

>  <SMILES>  (16) 
Cc1ccc(-c2cc(Cl)c(O)cc2[O-])n1-c1ccc([O-])c(C(=O)[N-]Cc2ccccc2)c1

>  <Energy>  (16) 
91.38261935725626

>  <Genealogy>  (16) 
Cc1ccc(-c2cc(Cl)c(O)cc2[O-])n1-c1ccc([O-])c(C(=O)[N-]Cc2ccccc2)c1 (protonated)
Cc1ccc(-c2cc(Cl)c(O)cc2[O-])n1-c1ccc([O-])c(C(=O)[N-]Cc2ccccc2)c1 (3D coordinates assigned)
Cc1ccc(-c2cc(Cl)c(O)cc2[O-])n1-c1ccc([O-])c(C(=O)[N-]Cc2ccccc2)c1 (optimized conformer: 91.38261935725626 kcal/mol)

>  <smiles>  (16) 
Cc1ccc(-c2cc(Cl)c(O)cc2O)n1-c1ccc(O)c(C(=O)NCc2ccccc2)c1

>  <score_type>  (16) 
oracle

>  <origin>  (16) 
adgpu

>  <m_score__min__energy>  (16) 
-13.58

>  <m_primary>  (16) 
energy

$$$$
16:0
     RDKit          3D

 43 46  0  0  0  0  0  0  0  0999 V2000
   -0.2860   29.0770  -23.6550 H   0  0  0  0  0  0  0  0  0  0  0  0
   -0.8870   29.0550  -24.4700 O   0  0  0  0  0  0  0  0  0  0  0  0
   -0.7950   28.0370  -25.4170 C   0  0  0  0  0  0  0  0  0  0  0  0
   -0.9690   26.6980  -25.0440 C   0  0  0  0  0  0  0  0  0  0  0  0
   -1.1798   26.4429  -23.9950 H   0  0  0  0  0  0  0  0  0  0  0  0
   -0.8750   25.6850  -26.0040 C   0  0  0  0  0  0  0  0  0  0  0  0
   -0.9951   24.6340  -25.7022 H   0  0  0  0  0  0  0  0  0  0  0  0
   -0.6290   25.9990  -27.3470 C   0  0  0  0  0  0  0  0  0  0  0  0
   -0.5070   24.9260  -28.2950 N   0  0  0  0  0  0  0  0  0  0  0  0
   -1.4730   24.3350  -28.9370 C   0  0  0  0  0  0  0  0  0  0  0  0
   -2.7750   24.6400  -28.6890 N   0  0  0  0  0  0  0  0  0  0  0  0
   -3.7840   24.0070  -29.3390 C   0  0  0  0  0  0  0  0  0  0  0  0
   -5.1090   24.3550  -29.0660 C   0  0  0  0  0  0  0  0  0  0  0  0
   -5.3281   25.1402  -28.3274 H   0  0  0  0  0  0  0  0  0  0  0  0
   -6.1550   23.7110  -29.7260 C   0  0  0  0  0  0  0  0  0  0  0  0
   -7.1948   23.9979  -29.5102 H   0  0  0  0  0  0  0  0  0  0  0  0
   -5.8920   22.6980  -30.6650 C   0  0  0  0  0  0  0  0  0  0  0  0
   -6.9740   22.0400  -31.3560 N   0  0  0  0  0  0  0  0  0  0  0  0
   -6.8630   20.9120  -32.2090 C   0  0  0  0  0  0  0  0  0  0  0  0
   -5.7610   20.4180  -32.5690 O   0  0  0  0  0  0  0  0  0  0  0  0
   -8.1680   20.4280  -32.7000 C   0  0  0  0  0  0  0  0  0  0  0  0
   -8.2506   20.5540  -33.7896 H   0  0  0  0  0  0  0  0  0  0  0  0
   -8.3279   19.3559  -32.5129 H   0  0  0  0  0  0  0  0  0  0  0  0
   -9.1750   21.3230  -31.9650 C   0  0  0  0  0  0  0  0  0  0  0  0
   -9.8917   21.7518  -32.6808 H   0  0  0  0  0  0  0  0  0  0  0  0
   -9.7440   20.7449  -31.2221 H   0  0  0  0  0  0  0  0  0  0  0  0
   -8.3690   22.4470  -31.2860 C   0  0  0  0  0  0  0  0  0  0  0  0
   -8.5166   23.3982  -31.8184 H   0  0  0  0  0  0  0  0  0  0  0  0
   -8.6915   22.6016  -30.2457 H   0  0  0  0  0  0  0  0  0  0  0  0
   -4.5580   22.3570  -30.9490 C   0  0  0  0  0  0  0  0  0  0  0  0
   -4.3425   21.5767  -31.6937 H   0  0  0  0  0  0  0  0  0  0  0  0
   -3.4930   23.0050  -30.2890 C   0  0  0  0  0  0  0  0  0  0  0  0
   -2.1360   22.6950  -30.5280 C   0  0  0  0  0  0  0  0  0  0  0  0
   -1.7200   21.6340  -31.5180 C   0  0  0  0  0  0  0  0  0  0  0  0
   -2.1454   20.6683  -31.2076 H   0  0  0  0  0  0  0  0  0  0  0  0
   -2.0922   21.9228  -32.5120 H   0  0  0  0  0  0  0  0  0  0  0  0
   -0.3230   21.5170  -31.5860 O   0  0  0  0  0  0  0  0  0  0  0  0
    0.0480   22.1490  -30.9160 H   0  0  0  0  0  0  0  0  0  0  0  0
   -1.1720   23.3670  -29.8390 N   0  0  0  0  0  0  0  0  0  0  0  0
   -0.4240   27.3440  -27.7110 C   0  0  0  0  0  0  0  0  0  0  0  0
   -0.1891   27.5996  -28.7548 H   0  0  0  0  0  0  0  0  0  0  0  0
   -0.5180   28.3560  -26.7500 C   0  0  0  0  0  0  0  0  0  0  0  0
   -0.3736   29.4062  -27.0438 H   0  0  0  0  0  0  0  0  0  0  0  0
  1  2  1  0
  2  3  1  0
  3  4  2  0
  4  5  1  0
  4  6  1  0
  6  7  1  0
  6  8  2  0
  8  9  1  0
  9 10  2  0
 10 11  1  0
 11 12  2  0
 12 13  1  0
 13 14  1  0
 13 15  2  0
 15 16  1  0
 15 17  1  0
 17 18  1  0
 18 19  1  0
 19 20  2  0
 19 21  1  0
 21 22  1  0
 21 23  1  0
 21 24  1  0
 24 25  1  0
 24 26  1  0
 24 27  1  0
 27 28  1  0
 27 29  1  0
 17 30  2  0
 30 31  1  0
 30 32  1  0
 32 33  2  0
 33 34  1  0
 34 35  1  0
 34 36  1  0
 34 37  1  0
 37 38  1  0
 33 39  1  0
  8 40  1  0
 40 41  1  0
 40 42  2  0
 42 43  1  0
 42  3  1  0
 39 10  1  0
 32 12  1  0
 27 18  1  0
M  CHG  1  39  -1
M  END
>  <UniqueID>  (17) 
16

>  <SMILES>  (17) 
O=C1CCCN1c1ccc2n/c(=N\c3ccc(O)cc3)[n-]c(CO)c2c1

>  <Energy>  (17) 
67.96657764284292

>  <Genealogy>  (17) 
O=C1CCCN1c1ccc2nc(=Nc3ccc(O)cc3)[n-]c(CO)c2c1 (protonated)
O=C1CCCN1c1ccc2n/c(=N\c3ccc(O)cc3)[n-]c(CO)c2c1 (cis-trans isomerization)
O=C1CCCN1c1ccc2n/c(=N\c3ccc(O)cc3)[n-]c(CO)c2c1 (3D coordinates assigned)
O=C1CCCN1c1ccc2n/c(=N\c3ccc(O)cc3)[n-]c(CO)c2c1 (nonaromatic ring conformer: 67.96657764284292 kcal/mol)

>  <smiles>  (17) 
O=C1CCCN1c1ccc2nc(=Nc3ccc(O)cc3)[nH]c(CO)c2c1

>  <score_type>  (17) 
oracle

>  <origin>  (17) 
adgpu

>  <m_score__min__energy>  (17) 
-9.1400000000000006

>  <m_primary>  (17) 
energy

$$$$
17:0
     RDKit          3D

 27 28  0  0  0  0  0  0  0  0999 V2000
   -2.1160   18.1370  -33.5400 H   0  0  0  0  0  0  0  0  0  0  0  0
   -2.4440   18.9480  -34.0510 O   0  0  0  0  0  0  0  0  0  0  0  0
   -3.3130   19.8710  -33.4730 C   0  0  0  0  0  0  0  0  0  0  0  0
   -2.8770   21.1670  -33.1660 C   0  0  0  0  0  0  0  0  0  0  0  0
   -1.8400   21.4632  -33.3825 H   0  0  0  0  0  0  0  0  0  0  0  0
   -3.7580   22.0840  -32.5850 C   0  0  0  0  0  0  0  0  0  0  0  0
   -3.4163   23.1057  -32.3629 H   0  0  0  0  0  0  0  0  0  0  0  0
   -5.0790   21.7070  -32.2830 C   0  0  0  0  0  0  0  0  0  0  0  0
   -6.0450   22.6590  -31.6870 C   0  0  0  0  0  0  0  0  0  0  0  0
   -7.0634   22.6732  -32.1026 H   0  0  0  0  0  0  0  0  0  0  0  0
   -5.7770   23.5060  -30.6800 C   0  0  0  0  0  0  0  0  0  0  0  0
   -6.5561   24.2326  -30.4061 H   0  0  0  0  0  0  0  0  0  0  0  0
   -4.5150   23.5360  -29.9120 C   0  0  0  0  0  0  0  0  0  0  0  0
   -4.1860   22.4340  -29.1090 C   0  0  0  0  0  0  0  0  0  0  0  0
   -4.8650   21.5698  -29.0622 H   0  0  0  0  0  0  0  0  0  0  0  0
   -3.0010   22.4270  -28.3680 C   0  0  0  0  0  0  0  0  0  0  0  0
   -2.7585   21.5655  -27.7285 H   0  0  0  0  0  0  0  0  0  0  0  0
   -2.1240   23.5120  -28.4380 C   0  0  0  0  0  0  0  0  0  0  0  0
   -0.9500   23.5000  -27.6930 O   0  0  0  0  0  0  0  0  0  0  0  0
   -2.4250   24.6030  -29.2600 C   0  0  0  0  0  0  0  0  0  0  0  0
   -1.5430   25.6760  -29.3410 O   0  0  0  0  0  0  0  0  0  0  0  0
   -3.6100   24.6140  -30.0090 C   0  0  0  0  0  0  0  0  0  0  0  0
   -3.8720   25.6850  -30.8570 O   0  0  0  0  0  0  0  0  0  0  0  0
   -5.5160   20.4170  -32.6200 C   0  0  0  0  0  0  0  0  0  0  0  0
   -6.5582   20.1241  -32.4249 H   0  0  0  0  0  0  0  0  0  0  0  0
   -4.6330   19.5010  -33.2030 C   0  0  0  0  0  0  0  0  0  0  0  0
   -4.9793   18.4864  -33.4495 H   0  0  0  0  0  0  0  0  0  0  0  0
  1  2  1  0
  2  3  1  0
  3  4  2  0
  4  5  1  0
  4  6  1  0
  6  7  1  0
  6  8  2  0
  8  9  1  0
  9 10  1  0
  9 11  2  0
 11 12  1  0
 11 13  1  0
 13 14  2  0
 14 15  1  0
 14 16  1  0
 16 17  1  0
 16 18  2  0
 18 19  1  0
 18 20  1  0
 20 21  1  0
 20 22  2  0
 22 23  1  0
  8 24  1  0
 24 25  1  0
 24 26  2  0
 26 27  1  0
 26  3  1  0
 22 13  1  0
M  CHG  3  19  -1  21  -1  23  -1
M  END
>  <UniqueID>  (18) 
17

>  <SMILES>  (18) 
[O-]c1ccc(/C=C\c2ccc(O)cc2)c([O-])c1[O-]

>  <Energy>  (18) 
39.02187326121852

>  <Genealogy>  (18) 
[O-]c1ccc(C=Cc2ccc(O)cc2)c([O-])c1[O-] (protonated)
[O-]c1ccc(/C=C\c2ccc(O)cc2)c([O-])c1[O-] (cis-trans isomerization)
[O-]c1ccc(/C=C\c2ccc(O)cc2)c([O-])c1[O-] (3D coordinates assigned)
[O-]c1ccc(/C=C\c2ccc(O)cc2)c([O-])c1[O-] (optimized conformer: 39.02187326121852 kcal/mol)

>  <smiles>  (18) 
Oc1ccc(C=Cc2ccc(O)c(O)c2O)cc1

>  <score_type>  (18) 
oracle

>  <origin>  (18) 
adgpu

>  <m_score__min__energy>  (18) 
-12.550000000000001

>  <m_primary>  (18) 
energy

$$$$
18:0
     RDKit          3D

 46 48  0  0  0  0  0  0  0  0999 V2000
   -0.8257   22.3483  -33.4791 H   0  0  0  0  0  0  0  0  0  0  0  0
   -1.5700   21.5470  -33.3610 C   0  0  0  0  0  0  0  0  0  0  0  0
   -2.7520   21.8030  -32.7460 N   0  0  0  0  0  0  0  0  0  0  0  0
   -3.6980   20.8340  -32.5970 C   0  0  0  0  0  0  0  0  0  0  0  0
   -4.8370   21.0880  -32.0190 N   0  0  0  0  0  0  0  0  0  0  0  0
   -5.2280   22.3190  -31.3850 C   0  0  0  0  0  0  0  0  0  0  0  0
   -6.4930   22.3960  -30.7930 C   0  0  0  0  0  0  0  0  0  0  0  0
   -7.1723   21.5322  -30.8417 H   0  0  0  0  0  0  0  0  0  0  0  0
   -6.9000   23.5630  -30.1400 C   0  0  0  0  0  0  0  0  0  0  0  0
   -7.9003   23.6144  -29.6852 H   0  0  0  0  0  0  0  0  0  0  0  0
   -6.0400   24.6700  -30.0610 C   0  0  0  0  0  0  0  0  0  0  0  0
   -6.4720   25.9130  -29.3370 C   0  0  0  0  0  0  0  0  0  0  0  0
   -6.4133   25.7442  -28.2516 H   0  0  0  0  0  0  0  0  0  0  0  0
   -5.8112   26.7474  -29.6146 H   0  0  0  0  0  0  0  0  0  0  0  0
   -7.5079   26.1577  -29.6146 H   0  0  0  0  0  0  0  0  0  0  0  0
   -4.7500   24.5780  -30.6120 C   0  0  0  0  0  0  0  0  0  0  0  0
   -3.8610   25.6430  -30.5100 O   0  0  0  0  0  0  0  0  0  0  0  0
   -4.3460   23.4090  -31.2660 C   0  0  0  0  0  0  0  0  0  0  0  0
   -3.3331   23.3416  -31.6896 H   0  0  0  0  0  0  0  0  0  0  0  0
   -3.4700   19.5920  -33.1080 N   0  0  0  0  0  0  0  0  0  0  0  0
   -4.2000   18.8480  -33.0240 H   0  0  0  0  0  0  0  0  0  0  0  0
   -2.2990   19.2950  -33.7330 C   0  0  0  0  0  0  0  0  0  0  0  0
   -2.1398   18.2901  -34.1512 H   0  0  0  0  0  0  0  0  0  0  0  0
   -1.2990   20.2620  -33.8450 C   0  0  0  0  0  0  0  0  0  0  0  0
   -0.0880   19.9580  -34.5550 N   0  0  0  0  0  0  0  0  0  0  0  0
    0.6450   20.7700  -35.2660 C   0  0  0  0  0  0  0  0  0  0  0  0
    1.7440   20.2440  -35.9580 C   0  0  0  0  0  0  0  0  0  0  0  0
    1.9631   19.1676  -35.9011 H   0  0  0  0  0  0  0  0  0  0  0  0
    2.5690   21.0880  -36.7260 C   0  0  0  0  0  0  0  0  0  0  0  0
    3.7120   20.5800  -37.4570 N   0  0  0  0  0  0  0  0  0  0  0  0
    3.5850   19.3100  -38.1790 C   0  0  0  0  0  0  0  0  0  0  0  0
    3.5024   18.4844  -37.4569 H   0  0  0  0  0  0  0  0  0  0  0  0
    2.6850   19.3359  -38.8109 H   0  0  0  0  0  0  0  0  0  0  0  0
    4.4723   19.1571  -38.8109 H   0  0  0  0  0  0  0  0  0  0  0  0
    4.9790   21.3190  -37.5050 C   0  0  0  0  0  0  0  0  0  0  0  0
    5.3249   21.5207  -36.4805 H   0  0  0  0  0  0  0  0  0  0  0  0
    5.7334   20.7193  -38.0353 H   0  0  0  0  0  0  0  0  0  0  0  0
    4.8284   22.2709  -38.0353 H   0  0  0  0  0  0  0  0  0  0  0  0
    2.2830   22.4200  -36.7730 N   0  0  0  0  0  0  0  0  0  0  0  0
    1.2350   22.9690  -36.1060 C   0  0  0  0  0  0  0  0  0  0  0  0
    0.9950   24.4420  -36.1830 C   0  0  0  0  0  0  0  0  0  0  0  0
    0.9275   24.8562  -35.1662 H   0  0  0  0  0  0  0  0  0  0  0  0
    1.8269   24.9215  -36.7197 H   0  0  0  0  0  0  0  0  0  0  0  0
    0.0540   24.6326  -36.7197 H   0  0  0  0  0  0  0  0  0  0  0  0
    0.4020   22.1560  -35.3290 C   0  0  0  0  0  0  0  0  0  0  0  0
   -0.4373   22.5966  -34.7709 H   0  0  0  0  0  0  0  0  0  0  0  0
  1  2  1  0
  2  3  2  0
  3  4  1  0
  4  5  2  0
  5  6  1  0
  6  7  2  0
  7  8  1  0
  7  9  1  0
  9 10  1  0
  9 11  2  0
 11 12  1  0
 12 13  1  0
 12 14  1  0
 12 15  1  0
 11 16  1  0
 16 17  1  0
 16 18  2  0
 18 19  1  0
  4 20  1  0
 20 21  1  0
 20 22  1  0
 22 23  1  0
 22 24  2  0
 24 25  1  0
 25 26  2  0
 26 27  1  0
 27 28  1  0
 27 29  2  0
 29 30  1  0
 30 31  1  0
 31 32  1  0
 31 33  1  0
 31 34  1  0
 30 35  1  0
 35 36  1  0
 35 37  1  0
 35 38  1  0
 29 39  1  0
 39 40  1  0
 40 41  1  0
 41 42  1  0
 41 43  1  0
 41 44  1  0
 40 45  2  0
 45 46  1  0
 24  2  1  0
 45 26  1  0
 18  6  1  0
M  CHG  2  17  -1  39  -1
M  END
>  <UniqueID>  (19) 
18

>  <SMILES>  (19) 
Cc1c/c(=N\c2cn/c(=N\c3ccc(C)c([O-])c3)[nH]c2)cc(N(C)C)[n-]1

>  <Energy>  (19) 
62.99747409544267

>  <Genealogy>  (19) 
Cc1cc(=Nc2cnc(=Nc3ccc(C)c([O-])c3)[nH]c2)cc(N(C)C)[n-]1 (protonated)
Cc1c/c(=N\c2cn/c(=N\c3ccc(C)c([O-])c3)[nH]c2)cc(N(C)C)[n-]1 (cis-trans isomerization)
Cc1c/c(=N\c2cn/c(=N\c3ccc(C)c([O-])c3)[nH]c2)cc(N(C)C)[n-]1 (3D coordinates assigned)
Cc1c/c(=N\c2cn/c(=N\c3ccc(C)c([O-])c3)[nH]c2)cc(N(C)C)[n-]1 (optimized conformer: 62.99747409544267 kcal/mol)

>  <smiles>  (19) 
Cc1cc(=Nc2cnc(=Nc3ccc(C)c(O)c3)[nH]c2)cc(N(C)C)[nH]1

>  <score_type>  (19) 
oracle

>  <origin>  (19) 
adgpu

>  <m_score__min__energy>  (19) 
-10.81

>  <m_primary>  (19) 
energy

$$$$
19:0
     RDKit          3D

 46 48  0  0  0  0  0  0  0  0999 V2000
   -7.6660   18.0680  -32.6680 C   0  0  0  0  0  0  0  0  0  0  0  0
   -6.2180   17.9160  -32.7250 N   0  0  0  0  0  0  0  0  0  0  0  0
   -5.4730   18.2340  -33.9100 C   0  0  0  0  0  0  0  0  0  0  0  0
   -6.0800   18.6580  -34.9330 O   0  0  0  0  0  0  0  0  0  0  0  0
   -4.0030   18.0690  -33.9420 C   0  0  0  0  0  0  0  0  0  0  0  0
   -3.1820   18.7050  -32.9940 C   0  0  0  0  0  0  0  0  0  0  0  0
   -1.7880   18.5360  -33.0570 C   0  0  0  0  0  0  0  0  0  0  0  0
   -0.9250   19.1340  -32.1270 O   0  0  0  0  0  0  0  0  0  0  0  0
   -1.2560   20.2060  -31.2840 C   0  0  0  0  0  0  0  0  0  0  0  0
   -2.3740   20.1660  -30.4300 C   0  0  0  0  0  0  0  0  0  0  0  0
   -2.6840   21.2640  -29.6250 C   0  0  0  0  0  0  0  0  0  0  0  0
   -1.9050   22.4260  -29.6810 C   0  0  0  0  0  0  0  0  0  0  0  0
   -2.2750   23.5500  -28.8710 N   0  0  0  0  0  0  0  0  0  0  0  0
   -2.4380   24.8990  -29.3320 C   0  0  0  0  0  0  0  0  0  0  0  0
   -1.6130   25.7730  -28.9620 O   0  0  0  0  0  0  0  0  0  0  0  0
   -3.5130   25.2840  -30.2010 N   0  0  0  0  0  0  0  0  0  0  0  0
   -4.6680   24.4930  -30.5170 C   0  0  0  0  0  0  0  0  0  0  0  0
   -5.9220   24.9270  -30.0810 C   0  0  0  0  0  0  0  0  0  0  0  0
   -7.0700   24.2040  -30.4070 C   0  0  0  0  0  0  0  0  0  0  0  0
   -6.9790   23.0320  -31.1640 C   0  0  0  0  0  0  0  0  0  0  0  0
   -8.4720   22.1840  -31.5580 Cl  0  0  0  0  0  0  0  0  0  0  0  0
   -5.7160   22.5590  -31.5870 C   0  0  0  0  0  0  0  0  0  0  0  0
   -5.6010   21.2950  -32.4120 C   0  0  0  0  0  0  0  0  0  0  0  0
   -4.4070   21.3040  -33.1120 F   0  0  0  0  0  0  0  0  0  0  0  0
   -6.6360   21.1770  -33.3230 F   0  0  0  0  0  0  0  0  0  0  0  0
   -5.6300   20.1920  -31.5780 F   0  0  0  0  0  0  0  0  0  0  0  0
   -4.5650   23.2910  -31.2380 C   0  0  0  0  0  0  0  0  0  0  0  0
   -0.7820   22.4620  -30.5230 C   0  0  0  0  0  0  0  0  0  0  0  0
   -0.4710   21.3630  -31.3290 C   0  0  0  0  0  0  0  0  0  0  0  0
   -1.2450   17.7100  -34.0430 C   0  0  0  0  0  0  0  0  0  0  0  0
   -2.0880   17.0950  -34.9690 C   0  0  0  0  0  0  0  0  0  0  0  0
   -3.4310   17.2880  -34.9000 N   0  0  0  0  0  0  0  0  0  0  0  0
   -7.9900   18.1020  -31.6174 H   0  0  0  0  0  0  0  0  0  0  0  0
   -7.9568   19.0016  -33.1718 H   0  0  0  0  0  0  0  0  0  0  0  0
   -8.1443   17.2151  -33.1718 H   0  0  0  0  0  0  0  0  0  0  0  0
   -5.7250   17.5630  -31.8750 H   0  0  0  0  0  0  0  0  0  0  0  0
   -3.6282   19.3313  -32.2075 H   0  0  0  0  0  0  0  0  0  0  0  0
   -3.0060   19.2663  -30.3966 H   0  0  0  0  0  0  0  0  0  0  0  0
   -3.5455   21.2157  -28.9427 H   0  0  0  0  0  0  0  0  0  0  0  0
   -6.0049   25.8431  -29.4778 H   0  0  0  0  0  0  0  0  0  0  0  0
   -8.0538   24.5587  -30.0659 H   0  0  0  0  0  0  0  0  0  0  0  0
   -3.5733   22.9176  -31.5332 H   0  0  0  0  0  0  0  0  0  0  0  0
   -0.1447   23.3582  -30.5485 H   0  0  0  0  0  0  0  0  0  0  0  0
    0.3970   21.4083  -32.0032 H   0  0  0  0  0  0  0  0  0  0  0  0
   -0.1584   17.5450  -34.0895 H   0  0  0  0  0  0  0  0  0  0  0  0
   -1.6648   16.4532  -35.7558 H   0  0  0  0  0  0  0  0  0  0  0  0
  1  2  1  0
  2  3  1  0
  3  4  2  0
  3  5  1  0
  5  6  2  0
  6  7  1  0
  7  8  1  0
  8  9  1  0
  9 10  2  0
 10 11  1  0
 11 12  2  0
 12 13  1  0
 13 14  1  0
 14 15  2  0
 14 16  1  0
 16 17  1  0
 17 18  2  0
 18 19  1  0
 19 20  2  0
 20 21  1  0
 20 22  1  0
 22 23  1  0
 23 24  1  0
 23 25  1  0
 23 26  1  0
 22 27  2  0
 12 28  1  0
 28 29  2  0
  7 30  2  0
 30 31  1  0
 31 32  2  0
 32  5  1  0
 29  9  1  0
 27 17  1  0
  1 33  1  0
  1 34  1  0
  1 35  1  0
  2 36  1  0
  6 37  1  0
 10 38  1  0
 11 39  1  0
 18 40  1  0
 19 41  1  0
 27 42  1  0
 28 43  1  0
 29 44  1  0
 30 45  1  0
 31 46  1  0
M  CHG  2  13  -1  16  -1
M  END
>  <UniqueID>  (20) 
19

>  <SMILES>  (20) 
CNC(=O)c1cc(Oc2ccc([N-]C(=O)[N-]c3ccc(Cl)c(C(F)(F)F)c3)cc2)ccn1

>  <Energy>  (20) 
61.81021591630672

>  <Genealogy>  (20) 
CNC(=O)c1cc(Oc2ccc([N-]C(=O)[N-]c3ccc(Cl)c(C(F)(F)F)c3)cc2)ccn1 (protonated)
CNC(=O)c1cc(Oc2ccc([N-]C(=O)[N-]c3ccc(Cl)c(C(F)(F)F)c3)cc2)ccn1 (3D coordinates assigned)
CNC(=O)c1cc(Oc2ccc([N-]C(=O)[N-]c3ccc(Cl)c(C(F)(F)F)c3)cc2)ccn1 (optimized conformer: 61.81021591630672 kcal/mol)

>  <smiles>  (20) 
CNC(=O)c1cc(Oc2ccc(NC(=O)Nc3ccc(Cl)c(C(F)(F)F)c3)cc2)ccn1

>  <score_type>  (20) 
oracle

>  <origin>  (20) 
adgpu

>  <m_score__min__energy>  (20) 
-12.26

>  <m_primary>  (20) 
energy

$$$$
20:0
     RDKit          3D

 50 53  0  0  0  0  0  0  0  0999 V2000
   -6.0890   25.5230  -29.9880 O   0  0  0  0  0  0  0  0  0  0  0  0
   -5.9120   24.4860  -30.6830 C   0  0  0  0  0  0  0  0  0  0  0  0
   -4.6210   24.1790  -31.2230 N   0  0  0  0  0  0  0  0  0  0  0  0
   -3.4770   23.6940  -30.5040 C   0  0  0  0  0  0  0  0  0  0  0  0
   -2.7820   24.5070  -29.5910 C   0  0  0  0  0  0  0  0  0  0  0  0
   -1.6770   24.0050  -28.8910 C   0  0  0  0  0  0  0  0  0  0  0  0
   -0.8330   25.0390  -27.7420 S   0  0  0  0  0  0  0  0  0  0  0  0
   -1.1220   26.4720  -28.0910 O   0  0  0  0  0  0  0  0  0  0  0  0
    0.6500   24.8040  -27.8260 O   0  0  0  0  0  0  0  0  0  0  0  0
   -1.4020   24.6940  -26.1210 N   0  0  0  0  0  0  0  0  0  0  0  0
   -0.2930   24.7530  -25.1640 C   0  0  0  0  0  0  0  0  0  0  0  0
   -0.2460   26.1570  -24.5780 C   0  0  0  0  0  0  0  0  0  0  0  0
   -1.5820   26.7870  -24.9200 C   0  0  0  0  0  0  0  0  0  0  0  0
   -2.3540   25.7210  -25.6820 C   0  0  0  0  0  0  0  0  0  0  0  0
   -1.2530   22.6890  -29.1140 C   0  0  0  0  0  0  0  0  0  0  0  0
   -1.9230   21.8840  -30.0370 C   0  0  0  0  0  0  0  0  0  0  0  0
   -3.0250   22.3840  -30.7460 C   0  0  0  0  0  0  0  0  0  0  0  0
   -3.7060   21.5500  -31.6980 N   0  0  0  0  0  0  0  0  0  0  0  0
   -3.2020   21.4340  -33.0670 C   0  0  0  0  0  0  0  0  0  0  0  0
   -3.6040   20.0730  -33.6430 C   0  0  0  0  0  0  0  0  0  0  0  0
   -4.9970   19.8580  -33.5040 O   0  0  0  0  0  0  0  0  0  0  0  0
   -5.3360   19.7800  -32.1300 C   0  0  0  0  0  0  0  0  0  0  0  0
   -5.0790   21.1200  -31.4330 C   0  0  0  0  0  0  0  0  0  0  0  0
   -7.0230   23.5520  -30.8970 C   0  0  0  0  0  0  0  0  0  0  0  0
   -7.7670   23.4150  -32.0630 C   0  0  0  0  0  0  0  0  0  0  0  0
   -8.7620   22.4340  -31.9700 C   0  0  0  0  0  0  0  0  0  0  0  0
   -8.8070   21.7990  -30.7350 C   0  0  0  0  0  0  0  0  0  0  0  0
   -7.6060   22.4590  -29.7590 S   0  0  0  0  0  0  0  0  0  0  0  0
   -3.1082   25.5444  -29.4252 H   0  0  0  0  0  0  0  0  0  0  0  0
   -0.4547   24.0192  -24.3606 H   0  0  0  0  0  0  0  0  0  0  0  0
    0.6567   24.5189  -25.6674 H   0  0  0  0  0  0  0  0  0  0  0  0
   -0.1101   26.1134  -23.4873 H   0  0  0  0  0  0  0  0  0  0  0  0
    0.5942   26.7394  -24.9840 H   0  0  0  0  0  0  0  0  0  0  0  0
   -2.1198   27.0685  -24.0027 H   0  0  0  0  0  0  0  0  0  0  0  0
   -1.4591   27.7039  -25.5151 H   0  0  0  0  0  0  0  0  0  0  0  0
   -3.1128   25.2697  -25.0258 H   0  0  0  0  0  0  0  0  0  0  0  0
   -2.8615   26.1661  -26.5506 H   0  0  0  0  0  0  0  0  0  0  0  0
   -0.3905   22.2889  -28.5609 H   0  0  0  0  0  0  0  0  0  0  0  0
   -1.5847   20.8516  -30.2092 H   0  0  0  0  0  0  0  0  0  0  0  0
   -3.6317   22.2358  -33.6855 H   0  0  0  0  0  0  0  0  0  0  0  0
   -2.1056   21.5225  -33.0638 H   0  0  0  0  0  0  0  0  0  0  0  0
   -3.3392   20.0409  -34.7102 H   0  0  0  0  0  0  0  0  0  0  0  0
   -3.0696   19.2856  -33.0912 H   0  0  0  0  0  0  0  0  0  0  0  0
   -6.4010   19.5216  -32.0347 H   0  0  0  0  0  0  0  0  0  0  0  0
   -4.7126   19.0083  -31.6547 H   0  0  0  0  0  0  0  0  0  0  0  0
   -5.7807   21.8745  -31.8181 H   0  0  0  0  0  0  0  0  0  0  0  0
   -5.2251   21.0043  -30.3489 H   0  0  0  0  0  0  0  0  0  0  0  0
   -7.5920   24.0163  -32.9673 H   0  0  0  0  0  0  0  0  0  0  0  0
   -9.4442   22.1890  -32.7974 H   0  0  0  0  0  0  0  0  0  0  0  0
   -9.5074   21.0018  -30.4452 H   0  0  0  0  0  0  0  0  0  0  0  0
  1  2  2  0
  2  3  1  0
  3  4  1  0
  4  5  2  0
  5  6  1  0
  6  7  1  0
  7  8  2  0
  7  9  2  0
  7 10  1  0
 10 11  1  0
 11 12  1  0
 12 13  1  0
 13 14  1  0
  6 15  2  0
 15 16  1  0
 16 17  2  0
 17 18  1  0
 18 19  1  0
 19 20  1  0
 20 21  1  0
 21 22  1  0
 22 23  1  0
  2 24  1  0
 24 25  2  0
 25 26  1  0
 26 27  2  0
 27 28  1  0
 17  4  1  0
 23 18  1  0
 28 24  1  0
 14 10  1  0
  5 29  1  0
 11 30  1  0
 11 31  1  0
 12 32  1  0
 12 33  1  0
 13 34  1  0
 13 35  1  0
 14 36  1  0
 14 37  1  0
 15 38  1  0
 16 39  1  0
 19 40  1  0
 19 41  1  0
 20 42  1  0
 20 43  1  0
 22 44  1  0
 22 45  1  0
 23 46  1  0
 23 47  1  0
 25 48  1  0
 26 49  1  0
 27 50  1  0
M  CHG  1   3  -1
M  END
>  <UniqueID>  (21) 
20

>  <SMILES>  (21) 
O=C([N-]c1cc(S(=O)(=O)N2CCCC2)ccc1N1CCOCC1)c1cccs1

>  <Energy>  (21) 
86.59638586762547

>  <Genealogy>  (21) 
O=C([N-]c1cc(S(=O)(=O)N2CCCC2)ccc1N1CCOCC1)c1cccs1 (protonated)
O=C([N-]c1cc(S(=O)(=O)N2CCCC2)ccc1N1CCOCC1)c1cccs1 (3D coordinates assigned)
O=C([N-]c1cc(S(=O)(=O)N2CCCC2)ccc1N1CCOCC1)c1cccs1 (nonaromatic ring conformer: 86.59638586762547 kcal/mol)

>  <smiles>  (21) 
O=C(Nc1cc(S(=O)(=O)N2CCCC2)ccc1N1CCOCC1)c1cccs1

>  <score_type>  (21) 
oracle

>  <origin>  (21) 
adgpu

>  <m_score__min__energy>  (21) 
-10.119999999999999

>  <m_primary>  (21) 
energy

$$$$
21:0
     RDKit          3D

 28 30  0  0  0  0  0  0  0  0999 V2000
   -9.5130   19.4790  -33.0310 O   0  0  0  0  0  0  0  0  0  0  0  0
   -8.5880   20.3880  -32.5240 C   0  0  0  0  0  0  0  0  0  0  0  0
   -7.2200   20.1440  -32.6850 C   0  0  0  0  0  0  0  0  0  0  0  0
   -6.2800   21.0480  -32.1810 C   0  0  0  0  0  0  0  0  0  0  0  0
   -6.6990   22.2070  -31.5080 C   0  0  0  0  0  0  0  0  0  0  0  0
   -5.7030   23.1590  -30.9780 C   0  0  0  0  0  0  0  0  0  0  0  0
   -5.0340   22.9930  -29.8200 N   0  0  0  0  0  0  0  0  0  0  0  0
   -4.2670   24.1030  -29.7870 C   0  0  0  0  0  0  0  0  0  0  0  0
   -3.3210   24.4190  -28.6960 C   0  0  0  0  0  0  0  0  0  0  0  0
   -1.9510   24.5950  -28.9690 C   0  0  0  0  0  0  0  0  0  0  0  0
   -1.0580   24.8940  -27.9350 C   0  0  0  0  0  0  0  0  0  0  0  0
   -1.5210   25.0190  -26.6230 C   0  0  0  0  0  0  0  0  0  0  0  0
   -2.8780   24.8460  -26.3410 C   0  0  0  0  0  0  0  0  0  0  0  0
   -3.7760   24.5470  -27.3710 C   0  0  0  0  0  0  0  0  0  0  0  0
   -4.4650   24.8920  -30.8630 N   0  0  0  0  0  0  0  0  0  0  0  0
   -5.3570   24.2750  -31.5740 O   0  0  0  0  0  0  0  0  0  0  0  0
   -8.0760   22.4480  -31.3490 C   0  0  0  0  0  0  0  0  0  0  0  0
   -9.0130   21.5420  -31.8530 C   0  0  0  0  0  0  0  0  0  0  0  0
   -9.6190   19.3310  -34.0270 H   0  0  0  0  0  0  0  0  0  0  0  0
   -6.8828   19.2380  -33.2098 H   0  0  0  0  0  0  0  0  0  0  0  0
   -5.2060   20.8501  -32.3124 H   0  0  0  0  0  0  0  0  0  0  0  0
   -1.5813   24.4969  -30.0004 H   0  0  0  0  0  0  0  0  0  0  0  0
    0.0110   25.0310  -28.1553 H   0  0  0  0  0  0  0  0  0  0  0  0
   -0.8165   25.2538  -25.8115 H   0  0  0  0  0  0  0  0  0  0  0  0
   -3.2411   24.9450  -25.3074 H   0  0  0  0  0  0  0  0  0  0  0  0
   -4.8437   24.4112  -27.1437 H   0  0  0  0  0  0  0  0  0  0  0  0
   -8.4165   23.3536  -30.8256 H   0  0  0  0  0  0  0  0  0  0  0  0
  -10.0879   21.7356  -31.7224 H   0  0  0  0  0  0  0  0  0  0  0  0
  1  2  1  0
  2  3  2  0
  3  4  1  0
  4  5  2  0
  5  6  1  0
  6  7  2  0
  7  8  1  0
  8  9  1  0
  9 10  2  0
 10 11  1  0
 11 12  2  0
 12 13  1  0
 13 14  2  0
  8 15  2  0
 15 16  1  0
  5 17  1  0
 17 18  2  0
 18  2  1  0
 16  6  1  0
 14  9  1  0
  1 19  1  0
  3 20  1  0
  4 21  1  0
 10 22  1  0
 11 23  1  0
 12 24  1  0
 13 25  1  0
 14 26  1  0
 17 27  1  0
 18 28  1  0
M  END
>  <UniqueID>  (22) 
21

>  <SMILES>  (22) 
Oc1ccc(-c2nc(-c3ccccc3)no2)cc1

>  <Energy>  (22) 
64.15196540721779

>  <Genealogy>  (22) 
Oc1ccc(-c2nc(-c3ccccc3)no2)cc1 (3D coordinates assigned)
Oc1ccc(-c2nc(-c3ccccc3)no2)cc1 (optimized conformer: 64.15196540721779 kcal/mol)

>  <smiles>  (22) 
Oc1ccc(-c2nc(-c3ccccc3)no2)cc1

>  <score_type>  (22) 
oracle

>  <origin>  (22) 
adgpu

>  <m_score__min__energy>  (22) 
-7.4800000000000004

>  <m_primary>  (22) 
energy

$$$$
22:0
     RDKit          3D

 63 66  0  0  0  0  0  0  0  0999 V2000
   -0.6260   21.4880  -31.0990 C   0  0  0  0  0  0  0  0  0  0  0  0
   -1.7470   21.9930  -31.8170 O   0  0  0  0  0  0  0  0  0  0  0  0
   -2.9510   21.2990  -31.9980 C   0  0  0  0  0  0  0  0  0  0  0  0
   -3.5000   20.4620  -31.0080 C   0  0  0  0  0  0  0  0  0  0  0  0
   -4.7200   19.8140  -31.2270 C   0  0  0  0  0  0  0  0  0  0  0  0
   -5.4090   20.0010  -32.4320 C   0  0  0  0  0  0  0  0  0  0  0  0
   -6.7250   19.4620  -32.5970 N   0  0  0  0  0  0  0  0  0  0  0  0
   -6.9060   18.1650  -33.2380 C   0  0  0  0  0  0  0  0  0  0  0  0
   -8.0890   20.3620  -32.0090 S   0  0  0  0  0  0  0  0  0  0  0  0
   -8.6820   19.6680  -30.8160 O   0  0  0  0  0  0  0  0  0  0  0  0
   -9.1310   20.4730  -33.0880 O   0  0  0  0  0  0  0  0  0  0  0  0
   -7.5390   21.9670  -31.5360 C   0  0  0  0  0  0  0  0  0  0  0  0
   -7.1640   22.8980  -32.5120 C   0  0  0  0  0  0  0  0  0  0  0  0
   -6.4780   24.0600  -32.1480 C   0  0  0  0  0  0  0  0  0  0  0  0
   -6.1490   24.3000  -30.8010 C   0  0  0  0  0  0  0  0  0  0  0  0
   -5.2610   25.4240  -30.4330 C   0  0  0  0  0  0  0  0  0  0  0  0
   -5.7460   26.5510  -30.1430 O   0  0  0  0  0  0  0  0  0  0  0  0
   -3.8410   25.2480  -30.4540 N   0  0  0  0  0  0  0  0  0  0  0  0
   -3.0970   24.4780  -29.4980 C   0  0  0  0  0  0  0  0  0  0  0  0
   -3.5600   23.2030  -29.1500 C   0  0  0  0  0  0  0  0  0  0  0  0
   -2.8040   22.3810  -28.3090 C   0  0  0  0  0  0  0  0  0  0  0  0
   -1.5720   22.8240  -27.8090 C   0  0  0  0  0  0  0  0  0  0  0  0
   -0.5630   21.7620  -26.8320 S   0  0  0  0  0  0  0  0  0  0  0  0
    0.7380   22.4430  -26.5060 O   0  0  0  0  0  0  0  0  0  0  0  0
   -1.2580   21.4270  -25.5420 O   0  0  0  0  0  0  0  0  0  0  0  0
   -0.2730   20.2940  -27.7080 N   0  0  0  0  0  0  0  0  0  0  0  0
    0.9150   19.8730  -28.0090 C   0  0  0  0  0  0  0  0  0  0  0  0
    2.0320   20.4790  -27.6810 O   0  0  0  0  0  0  0  0  0  0  0  0
    3.0620   19.8390  -28.1570 N   0  0  0  0  0  0  0  0  0  0  0  0
    2.5860   18.7640  -28.8210 C   0  0  0  0  0  0  0  0  0  0  0  0
    3.4450   17.8110  -29.5850 C   0  0  0  0  0  0  0  0  0  0  0  0
    1.2050   18.7420  -28.7370 C   0  0  0  0  0  0  0  0  0  0  0  0
    0.2500   17.8260  -29.4350 C   0  0  0  0  0  0  0  0  0  0  0  0
   -1.1110   24.1030  -28.1480 C   0  0  0  0  0  0  0  0  0  0  0  0
   -1.8640   24.9220  -28.9920 C   0  0  0  0  0  0  0  0  0  0  0  0
   -6.5850   23.3900  -29.8230 C   0  0  0  0  0  0  0  0  0  0  0  0
   -7.2750   22.2330  -30.1900 C   0  0  0  0  0  0  0  0  0  0  0  0
   -4.8580   20.8190  -33.4260 C   0  0  0  0  0  0  0  0  0  0  0  0
   -3.6340   21.4590  -33.2110 C   0  0  0  0  0  0  0  0  0  0  0  0
   -0.8142   21.5728  -30.0185 H   0  0  0  0  0  0  0  0  0  0  0  0
   -0.4678   20.4317  -31.3619 H   0  0  0  0  0  0  0  0  0  0  0  0
    0.2700   22.0694  -31.3619 H   0  0  0  0  0  0  0  0  0  0  0  0
   -2.9665   20.3169  -30.0570 H   0  0  0  0  0  0  0  0  0  0  0  0
   -5.1392   19.1562  -30.4514 H   0  0  0  0  0  0  0  0  0  0  0  0
   -7.0145   17.3873  -32.4677 H   0  0  0  0  0  0  0  0  0  0  0  0
   -7.8095   18.1887  -33.8649 H   0  0  0  0  0  0  0  0  0  0  0  0
   -6.0305   17.9405  -33.8649 H   0  0  0  0  0  0  0  0  0  0  0  0
   -7.4100   22.7144  -33.5683 H   0  0  0  0  0  0  0  0  0  0  0  0
   -6.1936   24.7912  -32.9190 H   0  0  0  0  0  0  0  0  0  0  0  0
   -4.5243   22.8461  -29.5407 H   0  0  0  0  0  0  0  0  0  0  0  0
   -3.1777   21.3824  -28.0386 H   0  0  0  0  0  0  0  0  0  0  0  0
    4.0112   17.1829  -28.8815 H   0  0  0  0  0  0  0  0  0  0  0  0
    2.8112   17.1727  -30.2181 H   0  0  0  0  0  0  0  0  0  0  0  0
    4.1454   18.3754  -30.2181 H   0  0  0  0  0  0  0  0  0  0  0  0
   -0.3332   17.2666  -28.6888 H   0  0  0  0  0  0  0  0  0  0  0  0
   -0.4312   18.4172  -30.0647 H   0  0  0  0  0  0  0  0  0  0  0  0
    0.8123   17.1208  -30.0647 H   0  0  0  0  0  0  0  0  0  0  0  0
   -0.1519   24.4635  -27.7476 H   0  0  0  0  0  0  0  0  0  0  0  0
   -1.4896   25.9204  -29.2621 H   0  0  0  0  0  0  0  0  0  0  0  0
   -6.3813   23.5906  -28.7608 H   0  0  0  0  0  0  0  0  0  0  0  0
   -7.6122   21.5278  -29.4161 H   0  0  0  0  0  0  0  0  0  0  0  0
   -5.3899   20.9584  -34.3787 H   0  0  0  0  0  0  0  0  0  0  0  0
   -3.2037   22.0931  -34.0001 H   0  0  0  0  0  0  0  0  0  0  0  0
  1  2  1  0
  2  3  1  0
  3  4  2  0
  4  5  1  0
  5  6  2  0
  6  7  1  0
  7  8  1  0
  7  9  1  0
  9 10  2  0
  9 11  2  0
  9 12  1  0
 12 13  2  0
 13 14  1  0
 14 15  2  0
 15 16  1  0
 16 17  2  0
 16 18  1  0
 18 19  1  0
 19 20  2  0
 20 21  1  0
 21 22  2  0
 22 23  1  0
 23 24  2  0
 23 25  2  0
 23 26  1  0
 26 27  2  3
 27 28  1  0
 28 29  1  0
 29 30  1  0
 30 31  1  0
 30 32  2  0
 32 33  1  0
 22 34  1  0
 34 35  2  0
 15 36  1  0
 36 37  2  0
  6 38  1  0
 38 39  2  0
 39  3  1  0
 37 12  1  0
 35 19  1  0
 32 27  1  0
  1 40  1  0
  1 41  1  0
  1 42  1  0
  4 43  1  0
  5 44  1  0
  8 45  1  0
  8 46  1  0
  8 47  1  0
 13 48  1  0
 14 49  1  0
 20 50  1  0
 21 51  1  0
 31 52  1  0
 31 53  1  0
 31 54  1  0
 33 55  1  0
 33 56  1  0
 33 57  1  0
 34 58  1  0
 35 59  1  0
 36 60  1  0
 37 61  1  0
 38 62  1  0
 39 63  1  0
M  CHG  2  18  -1  29  -1
M  END
>  <UniqueID>  (23) 
22

>  <SMILES>  (23) 
COc1ccc(N(C)S(=O)(=O)c2ccc(C(=O)[N-]c3ccc(S(=O)(=O)N=c4o[n-]c(C)c4C)cc3)cc2)cc1

>  <Energy>  (23) 
108.42866512125401

>  <Genealogy>  (23) 
COc1ccc(N(C)S(=O)(=O)c2ccc(C(=O)[N-]c3ccc(S(=O)(=O)N=c4o[n-]c(C)c4C)cc3)cc2)cc1 (protonated)
COc1ccc(N(C)S(=O)(=O)c2ccc(C(=O)[N-]c3ccc(S(=O)(=O)N=c4o[n-]c(C)c4C)cc3)cc2)cc1 (3D coordinates assigned)
COc1ccc(N(C)S(=O)(=O)c2ccc(C(=O)[N-]c3ccc(S(=O)(=O)N=c4o[n-]c(C)c4C)cc3)cc2)cc1 (optimized conformer: 108.42866512125401 kcal/mol)

>  <smiles>  (23) 
COc1ccc(N(C)S(=O)(=O)c2ccc(C(=O)Nc3ccc(S(=O)(=O)N=c4o[nH]c(C)c4C)cc3)cc2)cc1

>  <score_type>  (23) 
oracle

>  <origin>  (23) 
adgpu

>  <m_score__min__energy>  (23) 
-13.9

>  <m_primary>  (23) 
energy

$$$$
23:0
     RDKit          3D

 62 66  0  0  0  0  0  0  0  0999 V2000
    1.7340   29.1080  -22.3600 C   0  0  0  0  0  0  0  0  0  0  0  0
    1.1770   27.8610  -22.7610 O   0  0  0  0  0  0  0  0  0  0  0  0
    0.6440   27.6010  -24.0340 C   0  0  0  0  0  0  0  0  0  0  0  0
   -0.7220   27.3280  -24.2310 C   0  0  0  0  0  0  0  0  0  0  0  0
   -1.2150   27.0790  -25.5120 C   0  0  0  0  0  0  0  0  0  0  0  0
   -0.3530   27.0870  -26.6160 C   0  0  0  0  0  0  0  0  0  0  0  0
   -0.8920   26.8660  -28.0040 C   0  0  0  0  0  0  0  0  0  0  0  0
   -0.8640   25.4090  -28.3590 C   0  0  0  0  0  0  0  0  0  0  0  0
    0.1370   24.5640  -28.0300 N   0  0  0  0  0  0  0  0  0  0  0  0
   -0.2220   23.3990  -28.6100 C   0  0  0  0  0  0  0  0  0  0  0  0
    0.4610   22.3470  -28.4960 O   0  0  0  0  0  0  0  0  0  0  0  0
   -1.3850   23.4680  -29.2980 N   0  0  0  0  0  0  0  0  0  0  0  0
   -2.0440   22.4240  -30.0390 C   0  0  0  0  0  0  0  0  0  0  0  0
   -3.4320   22.2340  -29.9220 C   0  0  0  0  0  0  0  0  0  0  0  0
   -4.0710   21.2210  -30.6420 C   0  0  0  0  0  0  0  0  0  0  0  0
   -3.3330   20.3830  -31.4870 C   0  0  0  0  0  0  0  0  0  0  0  0
   -4.1570   19.1240  -32.4030 S   0  0  0  0  0  0  0  0  0  0  0  0
   -3.1590   18.1050  -32.8820 O   0  0  0  0  0  0  0  0  0  0  0  0
   -5.1300   18.4350  -31.4890 O   0  0  0  0  0  0  0  0  0  0  0  0
   -5.0300   19.8160  -33.7570 N   0  0  0  0  0  0  0  0  0  0  0  0
   -6.0990   18.9380  -34.2680 C   0  0  0  0  0  0  0  0  0  0  0  0
   -7.2370   18.7410  -33.2580 C   0  0  0  0  0  0  0  0  0  0  0  0
   -7.6330   20.0260  -32.5830 C   0  0  0  0  0  0  0  0  0  0  0  0
   -8.8180   20.0670  -31.8310 C   0  0  0  0  0  0  0  0  0  0  0  0
   -9.1800   21.2280  -31.1450 C   0  0  0  0  0  0  0  0  0  0  0  0
   -8.3610   22.3560  -31.1980 C   0  0  0  0  0  0  0  0  0  0  0  0
   -7.1720   22.3230  -31.9320 C   0  0  0  0  0  0  0  0  0  0  0  0
   -6.7900   21.1570  -32.6140 C   0  0  0  0  0  0  0  0  0  0  0  0
   -5.5310   21.1670  -33.4490 C   0  0  0  0  0  0  0  0  0  0  0  0
   -1.9500   20.5690  -31.6100 C   0  0  0  0  0  0  0  0  0  0  0  0
   -1.3090   21.5820  -30.8900 C   0  0  0  0  0  0  0  0  0  0  0  0
   -1.7810   24.7430  -29.1410 C   0  0  0  0  0  0  0  0  0  0  0  0
   -2.9180   25.2990  -29.7180 O   0  0  0  0  0  0  0  0  0  0  0  0
    1.0080   27.3670  -26.4260 C   0  0  0  0  0  0  0  0  0  0  0  0
    1.5140   27.6220  -25.1360 C   0  0  0  0  0  0  0  0  0  0  0  0
    2.8690   27.9040  -24.9080 O   0  0  0  0  0  0  0  0  0  0  0  0
    3.7640   28.4150  -25.8910 C   0  0  0  0  0  0  0  0  0  0  0  0
    1.7583   29.1625  -21.2616 H   0  0  0  0  0  0  0  0  0  0  0  0
    2.7571   29.1963  -22.7542 H   0  0  0  0  0  0  0  0  0  0  0  0
    1.1170   29.9289  -22.7542 H   0  0  0  0  0  0  0  0  0  0  0  0
   -1.4057   27.3108  -23.3694 H   0  0  0  0  0  0  0  0  0  0  0  0
   -2.2864   26.8753  -25.6559 H   0  0  0  0  0  0  0  0  0  0  0  0
   -1.9294   27.2289  -28.0503 H   0  0  0  0  0  0  0  0  0  0  0  0
   -0.2625   27.4159  -28.7191 H   0  0  0  0  0  0  0  0  0  0  0  0
   -4.0189   22.8870  -29.2594 H   0  0  0  0  0  0  0  0  0  0  0  0
   -5.1577   21.0814  -30.5446 H   0  0  0  0  0  0  0  0  0  0  0  0
   -6.5143   19.3852  -35.1832 H   0  0  0  0  0  0  0  0  0  0  0  0
   -5.6536   17.9513  -34.4632 H   0  0  0  0  0  0  0  0  0  0  0  0
   -8.1122   18.3352  -33.7865 H   0  0  0  0  0  0  0  0  0  0  0  0
   -6.8797   18.0497  -32.4805 H   0  0  0  0  0  0  0  0  0  0  0  0
   -9.4652   19.1789  -31.7820 H   0  0  0  0  0  0  0  0  0  0  0  0
  -10.1124   21.2532  -30.5619 H   0  0  0  0  0  0  0  0  0  0  0  0
   -8.6510   23.2717  -30.6620 H   0  0  0  0  0  0  0  0  0  0  0  0
   -6.5316   23.2163  -31.9755 H   0  0  0  0  0  0  0  0  0  0  0  0
   -5.7430   21.6858  -34.3955 H   0  0  0  0  0  0  0  0  0  0  0  0
   -4.7534   21.6791  -32.8633 H   0  0  0  0  0  0  0  0  0  0  0  0
   -1.3662   19.9159  -32.2753 H   0  0  0  0  0  0  0  0  0  0  0  0
   -0.2224   21.7204  -30.9906 H   0  0  0  0  0  0  0  0  0  0  0  0
    1.6864   27.3877  -27.2917 H   0  0  0  0  0  0  0  0  0  0  0  0
    4.6160   28.9015  -25.3936 H   0  0  0  0  0  0  0  0  0  0  0  0
    4.1289   27.5891  -26.5193 H   0  0  0  0  0  0  0  0  0  0  0  0
    3.2383   29.1491  -26.5193 H   0  0  0  0  0  0  0  0  0  0  0  0
  1  2  1  0
  2  3  1  0
  3  4  2  0
  4  5  1  0
  5  6  2  0
  6  7  1  0
  7  8  1  0
  8  9  1  0
  9 10  1  0
 10 11  2  0
 10 12  1  0
 12 13  1  0
 13 14  2  0
 14 15  1  0
 15 16  2  0
 16 17  1  0
 17 18  2  0
 17 19  2  0
 17 20  1  0
 20 21  1  0
 21 22  1  0
 22 23  1  0
 23 24  2  0
 24 25  1  0
 25 26  2  0
 26 27  1  0
 27 28  2  0
 28 29  1  0
 16 30  1  0
 30 31  2  0
 12 32  1  0
 32 33  1  0
  6 34  1  0
 34 35  2  0
 35 36  1  0
 36 37  1  0
 35  3  1  0
 32  8  2  0
 31 13  1  0
 29 20  1  0
 28 23  1  0
  1 38  1  0
  1 39  1  0
  1 40  1  0
  4 41  1  0
  5 42  1  0
  7 43  1  0
  7 44  1  0
 14 45  1  0
 15 46  1  0
 21 47  1  0
 21 48  1  0
 22 49  1  0
 22 50  1  0
 24 51  1  0
 25 52  1  0
 26 53  1  0
 27 54  1  0
 29 55  1  0
 29 56  1  0
 30 57  1  0
 31 58  1  0
 34 59  1  0
 37 60  1  0
 37 61  1  0
 37 62  1  0
M  CHG  2   9  -1  33  -1
M  END
>  <UniqueID>  (24) 
23

>  <SMILES>  (24) 
COc1ccc(Cc2[n-]c(=O)n(-c3ccc(S(=O)(=O)N4CCc5ccccc5C4)cc3)c2[O-])cc1OC

>  <Energy>  (24) 
107.82807636813808

>  <Genealogy>  (24) 
COc1ccc(Cc2[n-]c(=O)n(-c3ccc(S(=O)(=O)N4CCc5ccccc5C4)cc3)c2[O-])cc1OC (protonated)
COc1ccc(Cc2[n-]c(=O)n(-c3ccc(S(=O)(=O)N4CCc5ccccc5C4)cc3)c2[O-])cc1OC (3D coordinates assigned)
COc1ccc(Cc2[n-]c(=O)n(-c3ccc(S(=O)(=O)N4CCc5ccccc5C4)cc3)c2[O-])cc1OC (nonaromatic ring conformer: 107.82807636813808 kcal/mol)

>  <smiles>  (24) 
COc1ccc(Cc2[nH]c(=O)n(-c3ccc(S(=O)(=O)N4CCc5ccccc5C4)cc3)c2O)cc1OC

>  <score_type>  (24) 
oracle

>  <origin>  (24) 
adgpu

>  <m_score__min__energy>  (24) 
-12.119999999999999

>  <m_primary>  (24) 
energy

$$$$
24:0
     RDKit          3D

 32 33  0  0  0  0  0  0  0  0999 V2000
   -6.4110   19.2900  -33.4730 C   0  0  0  0  0  0  0  0  0  0  0  0
   -7.1200   20.4000  -32.7550 C   0  0  0  0  0  0  0  0  0  0  0  0
   -8.4490   20.2340  -32.3370 C   0  0  0  0  0  0  0  0  0  0  0  0
   -9.0960   21.2520  -31.6320 C   0  0  0  0  0  0  0  0  0  0  0  0
   -8.4210   22.4370  -31.3300 C   0  0  0  0  0  0  0  0  0  0  0  0
   -7.0870   22.6120  -31.7320 C   0  0  0  0  0  0  0  0  0  0  0  0
   -6.3550   23.8760  -31.3710 C   0  0  0  0  0  0  0  0  0  0  0  0
   -5.3110   23.5940  -30.3920 N   0  0  0  0  0  0  0  0  0  0  0  0
   -4.0390   24.2520  -30.3700 C   0  0  0  0  0  0  0  0  0  0  0  0
   -3.9500   25.4370  -30.7970 O   0  0  0  0  0  0  0  0  0  0  0  0
   -2.8310   23.5650  -29.8410 C   0  0  0  0  0  0  0  0  0  0  0  0
   -2.7970   22.1560  -29.8160 C   0  0  0  0  0  0  0  0  0  0  0  0
   -1.6800   21.4780  -29.3280 C   0  0  0  0  0  0  0  0  0  0  0  0
   -0.5780   22.1900  -28.8560 C   0  0  0  0  0  0  0  0  0  0  0  0
   -0.5870   23.5860  -28.8640 C   0  0  0  0  0  0  0  0  0  0  0  0
    0.5300   24.2690  -28.3820 O   0  0  0  0  0  0  0  0  0  0  0  0
   -1.7100   24.2790  -29.3540 C   0  0  0  0  0  0  0  0  0  0  0  0
   -1.7010   25.6720  -29.3400 O   0  0  0  0  0  0  0  0  0  0  0  0
   -6.4380   21.5840  -32.4360 C   0  0  0  0  0  0  0  0  0  0  0  0
   -5.9705   18.6004  -32.7379 H   0  0  0  0  0  0  0  0  0  0  0  0
   -7.1282   18.7444  -34.1038 H   0  0  0  0  0  0  0  0  0  0  0  0
   -5.6144   19.7113  -34.1038 H   0  0  0  0  0  0  0  0  0  0  0  0
   -8.9830   19.2997  -32.5650 H   0  0  0  0  0  0  0  0  0  0  0  0
  -10.1406   21.1198  -31.3137 H   0  0  0  0  0  0  0  0  0  0  0  0
   -8.9359   23.2354  -30.7756 H   0  0  0  0  0  0  0  0  0  0  0  0
   -5.8980   24.3020  -32.2764 H   0  0  0  0  0  0  0  0  0  0  0  0
   -7.0689   24.5916  -30.9370 H   0  0  0  0  0  0  0  0  0  0  0  0
   -3.6613   21.5846  -30.1856 H   0  0  0  0  0  0  0  0  0  0  0  0
   -1.6684   20.3781  -29.3155 H   0  0  0  0  0  0  0  0  0  0  0  0
    0.3016   21.6498  -28.4760 H   0  0  0  0  0  0  0  0  0  0  0  0
    0.6610   25.2630  -28.5310 H   0  0  0  0  0  0  0  0  0  0  0  0
   -5.3879   21.7081  -32.7392 H   0  0  0  0  0  0  0  0  0  0  0  0
  1  2  1  0
  2  3  2  0
  3  4  1  0
  4  5  2  0
  5  6  1  0
  6  7  1  0
  7  8  1  0
  8  9  1  0
  9 10  2  0
  9 11  1  0
 11 12  2  0
 12 13  1  0
 13 14  2  0
 14 15  1  0
 15 16  1  0
 15 17  2  0
 17 18  1  0
  6 19  2  0
 19  2  1  0
 17 11  1  0
  1 20  1  0
  1 21  1  0
  1 22  1  0
  3 23  1  0
  4 24  1  0
  5 25  1  0
  7 26  1  0
  7 27  1  0
 12 28  1  0
 13 29  1  0
 14 30  1  0
 16 31  1  0
 19 32  1  0
M  CHG  2   8  -1  18  -1
M  END
>  <UniqueID>  (25) 
24

>  <SMILES>  (25) 
Cc1cccc(C[N-]C(=O)c2cccc(O)c2[O-])c1

>  <Energy>  (25) 
32.49836986676449

>  <Genealogy>  (25) 
Cc1cccc(C[N-]C(=O)c2cccc(O)c2[O-])c1 (protonated)
Cc1cccc(C[N-]C(=O)c2cccc(O)c2[O-])c1 (3D coordinates assigned)
Cc1cccc(C[N-]C(=O)c2cccc(O)c2[O-])c1 (optimized conformer: 32.49836986676449 kcal/mol)

>  <smiles>  (25) 
Cc1cccc(CNC(=O)c2cccc(O)c2O)c1

>  <score_type>  (25) 
oracle

>  <origin>  (25) 
adgpu

>  <m_score__min__energy>  (25) 
-11.65

>  <m_primary>  (25) 
energy

$$$$
25:0
     RDKit          3D

 45 47  0  0  0  0  0  0  0  0999 V2000
   -1.4810   25.3670  -28.0690 C   0  0  0  0  0  0  0  0  0  0  0  0
   -2.1210   25.3010  -29.3390 O   0  0  0  0  0  0  0  0  0  0  0  0
   -3.3120   24.6020  -29.5900 C   0  0  0  0  0  0  0  0  0  0  0  0
   -3.6010   23.3610  -28.9910 C   0  0  0  0  0  0  0  0  0  0  0  0
   -4.8020   22.7050  -29.2730 C   0  0  0  0  0  0  0  0  0  0  0  0
   -5.7350   23.2760  -30.1540 C   0  0  0  0  0  0  0  0  0  0  0  0
   -7.0110   22.5920  -30.4450 C   0  0  0  0  0  0  0  0  0  0  0  0
   -7.2250   21.8410  -31.5460 N   0  0  0  0  0  0  0  0  0  0  0  0
   -8.4890   21.4100  -31.3840 C   0  0  0  0  0  0  0  0  0  0  0  0
   -9.1970   20.4890  -32.3380 C   0  0  0  0  0  0  0  0  0  0  0  0
   -8.2440   19.7820  -33.2100 N   0  0  0  0  0  0  0  0  0  0  0  0
   -7.9420   18.4280  -32.7100 C   0  0  0  0  0  0  0  0  0  0  0  0
   -6.6740   17.9030  -33.3380 C   0  0  0  0  0  0  0  0  0  0  0  0
   -6.5680   16.5400  -33.6600 C   0  0  0  0  0  0  0  0  0  0  0  0
   -5.4150   16.0470  -34.2740 C   0  0  0  0  0  0  0  0  0  0  0  0
   -4.3630   16.9100  -34.5820 C   0  0  0  0  0  0  0  0  0  0  0  0
   -4.4620   18.2720  -34.2830 C   0  0  0  0  0  0  0  0  0  0  0  0
   -5.6200   18.7840  -33.6640 C   0  0  0  0  0  0  0  0  0  0  0  0
   -5.7580   20.1490  -33.3640 O   0  0  0  0  0  0  0  0  0  0  0  0
   -4.6770   21.0310  -33.0850 C   0  0  0  0  0  0  0  0  0  0  0  0
   -9.0000   21.9110  -30.2070 C   0  0  0  0  0  0  0  0  0  0  0  0
   -8.0620   22.6370  -29.6530 O   0  0  0  0  0  0  0  0  0  0  0  0
   -5.4450   24.5120  -30.7500 C   0  0  0  0  0  0  0  0  0  0  0  0
   -4.2420   25.1670  -30.4690 C   0  0  0  0  0  0  0  0  0  0  0  0
   -2.2364   25.2891  -27.2732 H   0  0  0  0  0  0  0  0  0  0  0  0
   -0.7639   24.5380  -27.9763 H   0  0  0  0  0  0  0  0  0  0  0  0
   -0.9482   26.3249  -27.9763 H   0  0  0  0  0  0  0  0  0  0  0  0
   -2.8781   22.9059  -28.2980 H   0  0  0  0  0  0  0  0  0  0  0  0
   -5.0183   21.7348  -28.8019 H   0  0  0  0  0  0  0  0  0  0  0  0
   -9.7712   19.7489  -31.7612 H   0  0  0  0  0  0  0  0  0  0  0  0
   -9.8634   21.0928  -32.9715 H   0  0  0  0  0  0  0  0  0  0  0  0
   -7.3670   20.3470  -33.3000 H   0  0  0  0  0  0  0  0  0  0  0  0
   -8.6690   19.6960  -34.1620 H   0  0  0  0  0  0  0  0  0  0  0  0
   -7.8165   18.4651  -31.6178 H   0  0  0  0  0  0  0  0  0  0  0  0
   -8.7734   17.7578  -32.9737 H   0  0  0  0  0  0  0  0  0  0  0  0
   -7.3982   15.8570  -33.4271 H   0  0  0  0  0  0  0  0  0  0  0  0
   -5.3360   14.9767  -34.5152 H   0  0  0  0  0  0  0  0  0  0  0  0
   -3.4538   16.5179  -35.0611 H   0  0  0  0  0  0  0  0  0  0  0  0
   -3.6310   18.9482  -34.5324 H   0  0  0  0  0  0  0  0  0  0  0  0
   -4.5560   21.1297  -31.9961 H   0  0  0  0  0  0  0  0  0  0  0  0
   -3.7518   20.6267  -33.5216 H   0  0  0  0  0  0  0  0  0  0  0  0
   -4.8874   22.0185  -33.5216 H   0  0  0  0  0  0  0  0  0  0  0  0
  -10.0092   21.7339  -29.8068 H   0  0  0  0  0  0  0  0  0  0  0  0
   -6.1678   24.9686  -31.4422 H   0  0  0  0  0  0  0  0  0  0  0  0
   -4.0250   26.1354  -30.9435 H   0  0  0  0  0  0  0  0  0  0  0  0
  1  2  1  0
  2  3  1  0
  3  4  2  0
  4  5  1  0
  5  6  2  0
  6  7  1  0
  7  8  2  0
  8  9  1  0
  9 10  1  0
 10 11  1  0
 11 12  1  0
 12 13  1  0
 13 14  2  0
 14 15  1  0
 15 16  2  0
 16 17  1  0
 17 18  2  0
 18 19  1  0
 19 20  1  0
  9 21  2  0
 21 22  1  0
  6 23  1  0
 23 24  2  0
 24  3  1  0
 22  7  1  0
 18 13  1  0
  1 25  1  0
  1 26  1  0
  1 27  1  0
  4 28  1  0
  5 29  1  0
 10 30  1  0
 10 31  1  0
 11 32  1  0
 11 33  1  0
 12 34  1  0
 12 35  1  0
 14 36  1  0
 15 37  1  0
 16 38  1  0
 17 39  1  0
 20 40  1  0
 20 41  1  0
 20 42  1  0
 21 43  1  0
 23 44  1  0
 24 45  1  0
M  CHG  1  11   1
M  END
>  <UniqueID>  (26) 
25

>  <SMILES>  (26) 
COc1ccc(-c2nc(C[NH2+]Cc3ccccc3OC)co2)cc1

>  <Energy>  (26) 
73.50583682390943

>  <Genealogy>  (26) 
COc1ccc(-c2nc(C[NH2+]Cc3ccccc3OC)co2)cc1 (protonated)
COc1ccc(-c2nc(C[NH2+]Cc3ccccc3OC)co2)cc1 (3D coordinates assigned)
COc1ccc(-c2nc(C[NH2+]Cc3ccccc3OC)co2)cc1 (optimized conformer: 73.50583682390943 kcal/mol)

>  <smiles>  (26) 
COc1ccc(-c2nc(CNCc3ccccc3OC)co2)cc1

>  <score_type>  (26) 
oracle

>  <origin>  (26) 
adgpu

>  <m_score__min__energy>  (26) 
-7.6600000000000001

>  <m_primary>  (26) 
energy

$$$$
26:0
     RDKit          3D

 55 58  0  0  0  0  0  0  0  0999 V2000
   -1.2410   26.0110  -29.8200 H   0  0  0  0  0  0  0  0  0  0  0  0
   -1.8080   25.3170  -29.2830 N   0  0  0  0  0  0  0  0  0  0  0  0
   -0.8400   24.8010  -27.9470 S   0  0  0  0  0  0  0  0  0  0  0  0
    0.3770   25.6780  -27.8400 O   0  0  0  0  0  0  0  0  0  0  0  0
   -1.6340   24.9230  -26.6770 O   0  0  0  0  0  0  0  0  0  0  0  0
   -0.3490   23.1270  -28.1870 C   0  0  0  0  0  0  0  0  0  0  0  0
    0.6370   22.5580  -27.3690 C   0  0  0  0  0  0  0  0  0  0  0  0
    1.1215   23.1643  -26.5895 H   0  0  0  0  0  0  0  0  0  0  0  0
    1.0050   21.2210  -27.5430 C   0  0  0  0  0  0  0  0  0  0  0  0
    1.7770   20.7761  -26.8979 H   0  0  0  0  0  0  0  0  0  0  0  0
    0.3950   20.4480  -28.5340 C   0  0  0  0  0  0  0  0  0  0  0  0
    0.6739   19.3908  -28.6546 H   0  0  0  0  0  0  0  0  0  0  0  0
   -0.5740   21.0180  -29.3770 C   0  0  0  0  0  0  0  0  0  0  0  0
   -1.2570   20.2290  -30.3640 N   0  0  0  0  0  0  0  0  0  0  0  0
   -2.4110   20.4820  -30.9150 C   0  0  0  0  0  0  0  0  0  0  0  0
   -2.8440   19.6660  -31.9080 N   0  0  0  0  0  0  0  0  0  0  0  0
   -4.0360   19.8850  -32.5130 C   0  0  0  0  0  0  0  0  0  0  0  0
   -4.4220   19.0950  -33.4710 N   0  0  0  0  0  0  0  0  0  0  0  0
   -5.6870   19.2160  -34.2030 C   0  0  0  0  0  0  0  0  0  0  0  0
   -5.6105   20.0413  -34.9262 H   0  0  0  0  0  0  0  0  0  0  0  0
   -5.9580   17.9090  -34.9640 C   0  0  0  0  0  0  0  0  0  0  0  0
   -6.8692   18.0341  -35.5673 H   0  0  0  0  0  0  0  0  0  0  0  0
   -5.0815   17.7009  -35.5953 H   0  0  0  0  0  0  0  0  0  0  0  0
   -6.1520   16.7050  -34.0170 C   0  0  0  0  0  0  0  0  0  0  0  0
   -6.8053   15.9726  -34.5138 H   0  0  0  0  0  0  0  0  0  0  0  0
   -5.1534   16.2955  -33.8045 H   0  0  0  0  0  0  0  0  0  0  0  0
   -6.7850   17.0850  -32.6630 C   0  0  0  0  0  0  0  0  0  0  0  0
   -7.3995   16.2443  -32.3085 H   0  0  0  0  0  0  0  0  0  0  0  0
   -5.9725   17.3060  -31.9552 H   0  0  0  0  0  0  0  0  0  0  0  0
   -7.6670   18.3290  -32.7790 C   0  0  0  0  0  0  0  0  0  0  0  0
   -8.4650   18.1341  -33.5106 H   0  0  0  0  0  0  0  0  0  0  0  0
   -8.0890   18.5458  -31.7866 H   0  0  0  0  0  0  0  0  0  0  0  0
   -6.8560   19.5580  -33.2380 C   0  0  0  0  0  0  0  0  0  0  0  0
   -7.5383   20.2509  -33.7522 H   0  0  0  0  0  0  0  0  0  0  0  0
   -6.4069   19.9994  -32.3360 H   0  0  0  0  0  0  0  0  0  0  0  0
   -4.8090   20.9260  -32.1120 N   0  0  0  0  0  0  0  0  0  0  0  0
   -4.4090   21.7420  -31.1040 C   0  0  0  0  0  0  0  0  0  0  0  0
   -5.2650   22.8260  -30.6850 N   0  0  0  0  0  0  0  0  0  0  0  0
   -4.7100   23.8990  -29.8500 C   0  0  0  0  0  0  0  0  0  0  0  0
   -4.7669   23.6020  -28.7924 H   0  0  0  0  0  0  0  0  0  0  0  0
   -3.6621   24.0704  -30.1374 H   0  0  0  0  0  0  0  0  0  0  0  0
   -5.5000   25.1930  -30.0540 C   0  0  0  0  0  0  0  0  0  0  0  0
   -5.1650   25.9399  -29.3192 H   0  0  0  0  0  0  0  0  0  0  0  0
   -5.3234   25.5570  -31.0769 H   0  0  0  0  0  0  0  0  0  0  0  0
   -6.8850   24.9660  -29.8860 O   0  0  0  0  0  0  0  0  0  0  0  0
   -7.3510   24.1160  -30.9130 C   0  0  0  0  0  0  0  0  0  0  0  0
   -8.4448   24.0268  -30.8378 H   0  0  0  0  0  0  0  0  0  0  0  0
   -7.0661   24.5490  -31.8832 H   0  0  0  0  0  0  0  0  0  0  0  0
   -6.7250   22.7220  -30.7970 C   0  0  0  0  0  0  0  0  0  0  0  0
   -7.1225   22.2191  -29.9030 H   0  0  0  0  0  0  0  0  0  0  0  0
   -6.9740   22.1422  -31.6980 H   0  0  0  0  0  0  0  0  0  0  0  0
   -3.2040   21.5170  -30.5010 N   0  0  0  0  0  0  0  0  0  0  0  0
   -2.9040   22.1330  -29.7170 H   0  0  0  0  0  0  0  0  0  0  0  0
   -0.9650   22.3470  -29.1770 C   0  0  0  0  0  0  0  0  0  0  0  0
   -1.7602   22.7825  -29.7999 H   0  0  0  0  0  0  0  0  0  0  0  0
  1  2  1  0
  2  3  1  0
  3  4  2  0
  3  5  2  0
  3  6  1  0
  6  7  2  0
  7  8  1  0
  7  9  1  0
  9 10  1  0
  9 11  2  0
 11 12  1  0
 11 13  1  0
 13 14  1  0
 14 15  2  0
 15 16  1  0
 16 17  1  0
 17 18  2  3
 18 19  1  0
 19 20  1  0
 19 21  1  0
 21 22  1  0
 21 23  1  0
 21 24  1  0
 24 25  1  0
 24 26  1  0
 24 27  1  0
 27 28  1  0
 27 29  1  0
 27 30  1  0
 30 31  1  0
 30 32  1  0
 30 33  1  0
 33 34  1  0
 33 35  1  0
 17 36  1  0
 36 37  2  0
 37 38  1  0
 38 39  1  0
 39 40  1  0
 39 41  1  0
 39 42  1  0
 42 43  1  0
 42 44  1  0
 42 45  1  0
 45 46  1  0
 46 47  1  0
 46 48  1  0
 46 49  1  0
 49 50  1  0
 49 51  1  0
 37 52  1  0
 52 53  1  0
 13 54  2  0
 54 55  1  0
 54  6  1  0
 52 15  1  0
 33 19  1  0
 49 38  1  0
M  CHG  2   2  -1  16  -1
M  END
>  <UniqueID>  (27) 
26

>  <SMILES>  (27) 
[NH-]S(=O)(=O)c1cccc(/N=c2/[n-]c(=NC3CCCCC3)nc(N3CCOCC3)[nH]2)c1

>  <Energy>  (27) 
71.0008352391357

>  <Genealogy>  (27) 
[NH-]S(=O)(=O)c1cccc(N=c2[n-]c(=NC3CCCCC3)nc(N3CCOCC3)[nH]2)c1 (protonated)
[NH-]S(=O)(=O)c1cccc(/N=c2/[n-]c(=NC3CCCCC3)nc(N3CCOCC3)[nH]2)c1 (cis-trans isomerization)
[NH-]S(=O)(=O)c1cccc(/N=c2/[n-]c(=NC3CCCCC3)nc(N3CCOCC3)[nH]2)c1 (3D coordinates assigned)
[NH-]S(=O)(=O)c1cccc(/N=c2/[n-]c(=NC3CCCCC3)nc(N3CCOCC3)[nH]2)c1 (nonaromatic ring conformer: 71.0008352391357 kcal/mol)

>  <smiles>  (27) 
NS(=O)(=O)c1cccc(N=c2[nH]c(N3CCOCC3)nc(=NC3CCCCC3)[nH]2)c1

>  <score_type>  (27) 
oracle

>  <origin>  (27) 
adgpu

>  <m_score__min__energy>  (27) 
-11.220000000000001

>  <m_primary>  (27) 
energy

$$$$
27:0
     RDKit          3D

 46 48  0  0  0  0  0  0  0  0999 V2000
   -0.1140   18.3040  -27.8770 C   0  0  0  0  0  0  0  0  0  0  0  0
   -0.4040   19.0360  -29.0630 O   0  0  0  0  0  0  0  0  0  0  0  0
   -0.8390   20.3690  -29.0860 C   0  0  0  0  0  0  0  0  0  0  0  0
   -0.5090   21.2540  -30.1300 C   0  0  0  0  0  0  0  0  0  0  0  0
   -0.9690   22.5750  -30.1060 C   0  0  0  0  0  0  0  0  0  0  0  0
   -1.7640   23.0250  -29.0440 C   0  0  0  0  0  0  0  0  0  0  0  0
   -2.3690   24.6790  -29.0140 S   0  0  0  0  0  0  0  0  0  0  0  0
   -3.0500   24.9240  -27.6970 O   0  0  0  0  0  0  0  0  0  0  0  0
   -1.2460   25.6660  -29.1720 O   0  0  0  0  0  0  0  0  0  0  0  0
   -3.5140   24.9100  -30.2960 N   0  0  0  0  0  0  0  0  0  0  0  0
   -4.6870   24.1120  -30.5110 C   0  0  0  0  0  0  0  0  0  0  0  0
   -4.6460   22.8900  -31.2060 C   0  0  0  0  0  0  0  0  0  0  0  0
   -5.8120   22.1390  -31.3800 C   0  0  0  0  0  0  0  0  0  0  0  0
   -7.0340   22.6060  -30.8800 C   0  0  0  0  0  0  0  0  0  0  0  0
   -8.5090   21.6740  -31.1250 S   0  0  0  0  0  0  0  0  0  0  0  0
   -9.4140   21.8850  -29.9440 O   0  0  0  0  0  0  0  0  0  0  0  0
   -9.2180   22.1280  -32.3710 O   0  0  0  0  0  0  0  0  0  0  0  0
   -8.1480   19.9800  -31.2610 N   0  0  0  0  0  0  0  0  0  0  0  0
   -7.4730   19.4100  -32.2200 C   0  0  0  0  0  0  0  0  0  0  0  0
   -7.2560   18.0300  -32.1600 C   0  0  0  0  0  0  0  0  0  0  0  0
   -6.5180   17.4070  -33.1620 C   0  0  0  0  0  0  0  0  0  0  0  0
   -6.0080   18.1750  -34.2090 C   0  0  0  0  0  0  0  0  0  0  0  0
   -5.1950   17.5420  -35.2950 C   0  0  0  0  0  0  0  0  0  0  0  0
   -6.2470   19.5120  -34.2290 N   0  0  0  0  0  0  0  0  0  0  0  0
   -6.9570   20.1170  -33.2730 N   0  0  0  0  0  0  0  0  0  0  0  0
   -7.0780   23.8240  -30.1910 C   0  0  0  0  0  0  0  0  0  0  0  0
   -5.9110   24.5700  -30.0060 C   0  0  0  0  0  0  0  0  0  0  0  0
   -2.0910   22.1470  -28.0030 C   0  0  0  0  0  0  0  0  0  0  0  0
   -1.6290   20.8270  -28.0240 C   0  0  0  0  0  0  0  0  0  0  0  0
   -0.3575   18.9187  -26.9979 H   0  0  0  0  0  0  0  0  0  0  0  0
   -0.7152   17.3830  -27.8583 H   0  0  0  0  0  0  0  0  0  0  0  0
    0.9548   18.0446  -27.8583 H   0  0  0  0  0  0  0  0  0  0  0  0
    0.1129   20.9055  -30.9677 H   0  0  0  0  0  0  0  0  0  0  0  0
   -0.7056   23.2623  -30.9235 H   0  0  0  0  0  0  0  0  0  0  0  0
   -3.6925   22.5238  -31.6143 H   0  0  0  0  0  0  0  0  0  0  0  0
   -5.7696   21.1771  -31.9119 H   0  0  0  0  0  0  0  0  0  0  0  0
   -7.6658   17.4408  -31.3264 H   0  0  0  0  0  0  0  0  0  0  0  0
   -6.3390   16.3222  -33.1288 H   0  0  0  0  0  0  0  0  0  0  0  0
   -4.4022   16.9248  -34.8472 H   0  0  0  0  0  0  0  0  0  0  0  0
   -5.8445   16.9094  -35.9179 H   0  0  0  0  0  0  0  0  0  0  0  0
   -4.7409   18.3267  -35.9179 H   0  0  0  0  0  0  0  0  0  0  0  0
   -7.1010   21.1450  -33.3610 H   0  0  0  0  0  0  0  0  0  0  0  0
   -8.0344   24.1949  -29.7940 H   0  0  0  0  0  0  0  0  0  0  0  0
   -5.9536   25.5239  -29.4598 H   0  0  0  0  0  0  0  0  0  0  0  0
   -2.7133   22.4967  -27.1661 H   0  0  0  0  0  0  0  0  0  0  0  0
   -1.8877   20.1443  -27.2012 H   0  0  0  0  0  0  0  0  0  0  0  0
  1  2  1  0
  2  3  1  0
  3  4  2  0
  4  5  1  0
  5  6  2  0
  6  7  1  0
  7  8  2  0
  7  9  2  0
  7 10  1  0
 10 11  1  0
 11 12  2  0
 12 13  1  0
 13 14  2  0
 14 15  1  0
 15 16  2  0
 15 17  2  0
 15 18  1  0
 18 19  2  3
 19 20  1  0
 20 21  2  0
 21 22  1  0
 22 23  1  0
 22 24  2  0
 24 25  1  0
 14 26  1  0
 26 27  2  0
  6 28  1  0
 28 29  2  0
 29  3  1  0
 27 11  1  0
 25 19  1  0
  1 30  1  0
  1 31  1  0
  1 32  1  0
  4 33  1  0
  5 34  1  0
 12 35  1  0
 13 36  1  0
 20 37  1  0
 21 38  1  0
 23 39  1  0
 23 40  1  0
 23 41  1  0
 25 42  1  0
 26 43  1  0
 27 44  1  0
 28 45  1  0
 29 46  1  0
M  CHG  1  10  -1
M  END
>  <UniqueID>  (28) 
27

>  <SMILES>  (28) 
COc1ccc(S(=O)(=O)[N-]c2ccc(S(=O)(=O)N=c3ccc(C)n[nH]3)cc2)cc1

>  <Energy>  (28) 
55.04831338385432

>  <Genealogy>  (28) 
COc1ccc(S(=O)(=O)[N-]c2ccc(S(=O)(=O)N=c3ccc(C)n[nH]3)cc2)cc1 (protonated)
COc1ccc(S(=O)(=O)[N-]c2ccc(S(=O)(=O)N=c3ccc(C)n[nH]3)cc2)cc1 (3D coordinates assigned)
COc1ccc(S(=O)(=O)[N-]c2ccc(S(=O)(=O)N=c3ccc(C)n[nH]3)cc2)cc1 (optimized conformer: 55.04831338385432 kcal/mol)

>  <smiles>  (28) 
COc1ccc(S(=O)(=O)Nc2ccc(S(=O)(=O)N=c3ccc(C)n[nH]3)cc2)cc1

>  <score_type>  (28) 
oracle

>  <origin>  (28) 
adgpu

>  <m_score__min__energy>  (28) 
-11.119999999999999

>  <m_primary>  (28) 
energy

$$$$
28:0
     RDKit          3D

 55 58  0  0  0  0  0  0  0  0999 V2000
   -8.6790   23.0110  -31.9900 C   0  0  0  0  0  0  0  0  0  0  0  0
   -7.8440   22.5410  -30.8020 C   0  0  0  0  0  0  0  0  0  0  0  0
   -6.4180   22.8930  -30.9920 N   0  0  0  0  0  0  0  0  0  0  0  0
   -5.9900   24.1460  -30.6090 C   0  0  0  0  0  0  0  0  0  0  0  0
   -6.7910   24.9710  -30.0870 O   0  0  0  0  0  0  0  0  0  0  0  0
   -4.6560   24.5230  -30.7960 C   0  0  0  0  0  0  0  0  0  0  0  0
   -4.2600   25.6730  -30.4610 O   0  0  0  0  0  0  0  0  0  0  0  0
   -3.7800   23.6480  -31.3370 N   0  0  0  0  0  0  0  0  0  0  0  0
   -4.1590   22.3980  -31.6950 C   0  0  0  0  0  0  0  0  0  0  0  0
   -3.2120   21.5230  -32.2330 C   0  0  0  0  0  0  0  0  0  0  0  0
   -3.5670   20.2110  -32.5760 C   0  0  0  0  0  0  0  0  0  0  0  0
   -2.5660   19.2870  -33.1540 C   0  0  0  0  0  0  0  0  0  0  0  0
   -2.8250   18.0550  -33.2210 O   0  0  0  0  0  0  0  0  0  0  0  0
   -1.3100   19.7710  -33.6600 N   0  0  0  0  0  0  0  0  0  0  0  0
   -0.4570   20.6050  -32.7970 C   0  0  0  0  0  0  0  0  0  0  0  0
    0.9340   20.8060  -33.4090 C   0  0  0  0  0  0  0  0  0  0  0  0
    0.8070   21.1320  -34.8330 N   0  0  0  0  0  0  0  0  0  0  0  0
    1.4480   22.3030  -35.3560 C   0  0  0  0  0  0  0  0  0  0  0  0
    0.6500   23.3750  -35.7750 C   0  0  0  0  0  0  0  0  0  0  0  0
    1.2310   24.5180  -36.3180 C   0  0  0  0  0  0  0  0  0  0  0  0
    2.6150   24.5970  -36.4620 C   0  0  0  0  0  0  0  0  0  0  0  0
    3.4400   23.5330  -36.0630 C   0  0  0  0  0  0  0  0  0  0  0  0
    4.9300   23.6600  -36.2440 C   0  0  0  0  0  0  0  0  0  0  0  0
    2.8570   22.3820  -35.4670 C   0  0  0  0  0  0  0  0  0  0  0  0
    3.7210   21.2340  -35.0000 C   0  0  0  0  0  0  0  0  0  0  0  0
   -0.0820   20.3530  -35.7040 C   0  0  0  0  0  0  0  0  0  0  0  0
   -0.7920   19.2400  -34.9270 C   0  0  0  0  0  0  0  0  0  0  0  0
   -4.8920   19.7940  -32.3950 C   0  0  0  0  0  0  0  0  0  0  0  0
   -5.8490   20.6640  -31.8640 C   0  0  0  0  0  0  0  0  0  0  0  0
   -5.5040   21.9900  -31.5100 C   0  0  0  0  0  0  0  0  0  0  0  0
   -9.5831   23.5199  -31.6243 H   0  0  0  0  0  0  0  0  0  0  0  0
   -8.0873   23.7086  -32.6009 H   0  0  0  0  0  0  0  0  0  0  0  0
   -8.9684   22.1433  -32.6009 H   0  0  0  0  0  0  0  0  0  0  0  0
   -8.2159   23.0232  -29.8860 H   0  0  0  0  0  0  0  0  0  0  0  0
   -7.9303   21.4475  -30.7199 H   0  0  0  0  0  0  0  0  0  0  0  0
   -2.1787   21.8666  -32.3888 H   0  0  0  0  0  0  0  0  0  0  0  0
   -0.9345   21.5870  -32.6640 H   0  0  0  0  0  0  0  0  0  0  0  0
   -0.3385   20.0935  -31.8304 H   0  0  0  0  0  0  0  0  0  0  0  0
    1.4459   21.6297  -32.8899 H   0  0  0  0  0  0  0  0  0  0  0  0
    1.5169   19.8797  -33.2987 H   0  0  0  0  0  0  0  0  0  0  0  0
   -0.4437   23.3136  -35.6744 H   0  0  0  0  0  0  0  0  0  0  0  0
    0.5969   25.3596  -36.6337 H   0  0  0  0  0  0  0  0  0  0  0  0
    3.0661   25.5029  -36.8930 H   0  0  0  0  0  0  0  0  0  0  0  0
    5.4169   23.7015  -35.2585 H   0  0  0  0  0  0  0  0  0  0  0  0
    5.3069   22.7907  -36.8028 H   0  0  0  0  0  0  0  0  0  0  0  0
    5.1543   24.5805  -36.8028 H   0  0  0  0  0  0  0  0  0  0  0  0
    3.7379   21.2115  -33.9004 H   0  0  0  0  0  0  0  0  0  0  0  0
    3.3095   20.2872  -35.3798 H   0  0  0  0  0  0  0  0  0  0  0  0
    4.7447   21.3674  -35.3798 H   0  0  0  0  0  0  0  0  0  0  0  0
   -0.8375   21.0251  -36.1371 H   0  0  0  0  0  0  0  0  0  0  0  0
    0.5270   19.8892  -36.4939 H   0  0  0  0  0  0  0  0  0  0  0  0
   -1.6267   18.8501  -35.5281 H   0  0  0  0  0  0  0  0  0  0  0  0
   -0.0772   18.4308  -34.7167 H   0  0  0  0  0  0  0  0  0  0  0  0
   -5.1828   18.7704  -32.6738 H   0  0  0  0  0  0  0  0  0  0  0  0
   -6.8818   20.3138  -31.7198 H   0  0  0  0  0  0  0  0  0  0  0  0
  1  2  1  0
  2  3  1  0
  3  4  1  0
  4  5  2  0
  4  6  1  0
  6  7  2  0
  6  8  1  0
  8  9  1  0
  9 10  2  0
 10 11  1  0
 11 12  1  0
 12 13  2  0
 12 14  1  0
 14 15  1  0
 15 16  1  0
 16 17  1  0
 17 18  1  0
 18 19  2  0
 19 20  1  0
 20 21  2  0
 21 22  1  0
 22 23  1  0
 22 24  2  0
 24 25  1  0
 17 26  1  0
 26 27  1  0
 11 28  2  0
 28 29  1  0
 29 30  2  0
 30  3  1  0
 30  9  1  0
 27 14  1  0
 24 18  1  0
  1 31  1  0
  1 32  1  0
  1 33  1  0
  2 34  1  0
  2 35  1  0
 10 36  1  0
 15 37  1  0
 15 38  1  0
 16 39  1  0
 16 40  1  0
 19 41  1  0
 20 42  1  0
 21 43  1  0
 23 44  1  0
 23 45  1  0
 23 46  1  0
 25 47  1  0
 25 48  1  0
 25 49  1  0
 26 50  1  0
 26 51  1  0
 27 52  1  0
 27 53  1  0
 28 54  1  0
 29 55  1  0
M  CHG  1   8  -1
M  END
>  <UniqueID>  (29) 
28

>  <SMILES>  (29) 
CCn1c(=O)c(=O)[n-]c2cc(C(=O)N3CCN(c4cccc(C)c4C)CC3)ccc21

>  <Energy>  (29) 
78.62377973505203

>  <Genealogy>  (29) 
CCn1c(=O)c(=O)[n-]c2cc(C(=O)N3CCN(c4cccc(C)c4C)CC3)ccc21 (protonated)
CCn1c(=O)c(=O)[n-]c2cc(C(=O)N3CCN(c4cccc(C)c4C)CC3)ccc21 (3D coordinates assigned)
CCn1c(=O)c(=O)[n-]c2cc(C(=O)N3CCN(c4cccc(C)c4C)CC3)ccc21 (nonaromatic ring conformer: 78.62377973505203 kcal/mol)

>  <smiles>  (29) 
CCn1c(=O)c(=O)[nH]c2cc(C(=O)N3CCN(c4cccc(C)c4C)CC3)ccc21

>  <score_type>  (29) 
oracle

>  <origin>  (29) 
adgpu

>  <m_score__min__energy>  (29) 
-10.550000000000001

>  <m_primary>  (29) 
energy

$$$$
29:0
     RDKit          3D

 53 56  0  0  0  0  0  0  0  0999 V2000
    2.1170   24.4410  -37.1690 O   0  0  0  0  0  0  0  0  0  0  0  0
    1.2520   23.7840  -36.5330 C   0  0  0  0  0  0  0  0  0  0  0  0
    1.5470   22.4340  -36.1570 N   0  0  0  0  0  0  0  0  0  0  0  0
    0.6150   21.5120  -35.5760 C   0  0  0  0  0  0  0  0  0  0  0  0
   -0.3110   21.9180  -34.6010 C   0  0  0  0  0  0  0  0  0  0  0  0
   -1.1970   20.9920  -34.0440 C   0  0  0  0  0  0  0  0  0  0  0  0
   -1.1590   19.6480  -34.4400 C   0  0  0  0  0  0  0  0  0  0  0  0
   -2.3300   18.5200  -33.7590 S   0  0  0  0  0  0  0  0  0  0  0  0
   -2.6700   17.4370  -34.7450 O   0  0  0  0  0  0  0  0  0  0  0  0
   -1.7460   17.8680  -32.5370 O   0  0  0  0  0  0  0  0  0  0  0  0
   -3.7840   19.4130  -33.3320 C   0  0  0  0  0  0  0  0  0  0  0  0
   -5.0450   18.9040  -33.6710 C   0  0  0  0  0  0  0  0  0  0  0  0
   -6.1990   19.6280  -33.3610 C   0  0  0  0  0  0  0  0  0  0  0  0
   -6.1000   20.8630  -32.7140 C   0  0  0  0  0  0  0  0  0  0  0  0
   -4.8420   21.3840  -32.3740 C   0  0  0  0  0  0  0  0  0  0  0  0
   -4.7330   22.6600  -31.7210 N   0  0  0  0  0  0  0  0  0  0  0  0
   -3.4920   22.9790  -31.0050 C   0  0  0  0  0  0  0  0  0  0  0  0
   -3.6860   24.1620  -30.0490 C   0  0  0  0  0  0  0  0  0  0  0  0
   -4.3050   25.2960  -30.7440 N   0  0  0  0  0  0  0  0  0  0  0  0
   -5.6740   24.9710  -31.1620 C   0  0  0  0  0  0  0  0  0  0  0  0
   -5.7400   23.6720  -31.9190 C   0  0  0  0  0  0  0  0  0  0  0  0
   -6.7360   23.4460  -32.6580 O   0  0  0  0  0  0  0  0  0  0  0  0
   -3.6860   20.6560  -32.6910 C   0  0  0  0  0  0  0  0  0  0  0  0
   -0.2230   19.2380  -35.4050 C   0  0  0  0  0  0  0  0  0  0  0  0
   -0.1720   17.9490  -35.8230 F   0  0  0  0  0  0  0  0  0  0  0  0
    0.6680   20.1650  -35.9540 C   0  0  0  0  0  0  0  0  0  0  0  0
   -0.0460   24.3470  -36.2840 N   0  0  0  0  0  0  0  0  0  0  0  0
   -0.3310   25.7560  -36.3070 C   0  0  0  0  0  0  0  0  0  0  0  0
    0.2790   26.5960  -35.3610 C   0  0  0  0  0  0  0  0  0  0  0  0
    0.0390   27.9740  -35.3800 C   0  0  0  0  0  0  0  0  0  0  0  0
   -0.8000   28.5250  -36.3520 C   0  0  0  0  0  0  0  0  0  0  0  0
   -1.3950   27.7020  -37.3100 C   0  0  0  0  0  0  0  0  0  0  0  0
   -1.1590   26.3230  -37.2940 C   0  0  0  0  0  0  0  0  0  0  0  0
   -0.3388   22.9682  -34.2749 H   0  0  0  0  0  0  0  0  0  0  0  0
   -1.9284   21.3197  -33.2905 H   0  0  0  0  0  0  0  0  0  0  0  0
   -5.1263   17.9332  -34.1818 H   0  0  0  0  0  0  0  0  0  0  0  0
   -7.1875   19.2252  -33.6267 H   0  0  0  0  0  0  0  0  0  0  0  0
   -7.0114   21.4286  -32.4704 H   0  0  0  0  0  0  0  0  0  0  0  0
   -3.1766   22.0987  -30.4257 H   0  0  0  0  0  0  0  0  0  0  0  0
   -2.7262   23.2540  -31.7452 H   0  0  0  0  0  0  0  0  0  0  0  0
   -4.3349   23.8509  -29.2170 H   0  0  0  0  0  0  0  0  0  0  0  0
   -2.7018   24.4747  -29.6701 H   0  0  0  0  0  0  0  0  0  0  0  0
   -3.7370   25.5290  -31.5930 H   0  0  0  0  0  0  0  0  0  0  0  0
   -6.3093   24.8931  -30.2674 H   0  0  0  0  0  0  0  0  0  0  0  0
   -6.0237   25.7715  -31.8305 H   0  0  0  0  0  0  0  0  0  0  0  0
   -2.6965   21.0627  -32.4352 H   0  0  0  0  0  0  0  0  0  0  0  0
    1.4165   19.8334  -36.6887 H   0  0  0  0  0  0  0  0  0  0  0  0
   -0.8450   23.6850  -36.1610 H   0  0  0  0  0  0  0  0  0  0  0  0
    0.9492   26.1679  -34.6010 H   0  0  0  0  0  0  0  0  0  0  0  0
    0.5112   28.6244  -34.6290 H   0  0  0  0  0  0  0  0  0  0  0  0
   -0.9919   29.6081  -36.3624 H   0  0  0  0  0  0  0  0  0  0  0  0
   -2.0502   28.1383  -38.0784 H   0  0  0  0  0  0  0  0  0  0  0  0
   -1.6225   25.6792  -38.0560 H   0  0  0  0  0  0  0  0  0  0  0  0
  1  2  2  0
  2  3  1  0
  3  4  1  0
  4  5  2  0
  5  6  1  0
  6  7  2  0
  7  8  1  0
  8  9  2  0
  8 10  2  0
  8 11  1  0
 11 12  2  0
 12 13  1  0
 13 14  2  0
 14 15  1  0
 15 16  1  0
 16 17  1  0
 17 18  1  0
 18 19  1  0
 19 20  1  0
 20 21  1  0
 21 22  2  0
 15 23  2  0
  7 24  1  0
 24 25  1  0
 24 26  2  0
  2 27  1  0
 27 28  1  0
 28 29  2  0
 29 30  1  0
 30 31  2  0
 31 32  1  0
 32 33  2  0
 26  4  1  0
 33 28  1  0
 23 11  1  0
 21 16  1  0
  5 34  1  0
  6 35  1  0
 12 36  1  0
 13 37  1  0
 14 38  1  0
 17 39  1  0
 17 40  1  0
 18 41  1  0
 18 42  1  0
 19 43  1  0
 20 44  1  0
 20 45  1  0
 23 46  1  0
 26 47  1  0
 27 48  1  0
 29 49  1  0
 30 50  1  0
 31 51  1  0
 32 52  1  0
 33 53  1  0
M  CHG  1   3  -1
M  END
>  <UniqueID>  (30) 
29

>  <SMILES>  (30) 
O=C([N-]c1ccc(S(=O)(=O)c2cccc(N3CCNCC3=O)c2)c(F)c1)Nc1ccccc1

>  <Energy>  (30) 
72.73446897317388

>  <Genealogy>  (30) 
O=C([N-]c1ccc(S(=O)(=O)c2cccc(N3CCNCC3=O)c2)c(F)c1)Nc1ccccc1 (protonated)
O=C([N-]c1ccc(S(=O)(=O)c2cccc(N3CCNCC3=O)c2)c(F)c1)Nc1ccccc1 (3D coordinates assigned)
O=C([N-]c1ccc(S(=O)(=O)c2cccc(N3CCNCC3=O)c2)c(F)c1)Nc1ccccc1 (nonaromatic ring conformer: 72.73446897317388 kcal/mol)

>  <smiles>  (30) 
O=C(Nc1ccccc1)Nc1ccc(S(=O)(=O)c2cccc(N3CCNCC3=O)c2)c(F)c1

>  <score_type>  (30) 
oracle

>  <origin>  (30) 
adgpu

>  <m_score__min__energy>  (30) 
-11.75

>  <m_primary>  (30) 
energy

$$$$
30:0
     RDKit          3D

 57 59  0  0  0  0  0  0  0  0999 V2000
   -3.1610   18.6400  -25.9670 C   0  0  0  0  0  0  0  0  0  0  0  0
   -2.8120   19.6440  -27.0580 C   0  0  0  0  0  0  0  0  0  0  0  0
   -1.3980   19.7700  -27.1910 O   0  0  0  0  0  0  0  0  0  0  0  0
   -0.7520   20.9780  -27.4850 C   0  0  0  0  0  0  0  0  0  0  0  0
    0.4290   21.1760  -27.0880 O   0  0  0  0  0  0  0  0  0  0  0  0
   -1.4630   22.0230  -28.2530 C   0  0  0  0  0  0  0  0  0  0  0  0
   -1.8530   23.2210  -27.6270 C   0  0  0  0  0  0  0  0  0  0  0  0
   -2.5330   24.2080  -28.3450 C   0  0  0  0  0  0  0  0  0  0  0  0
   -2.8170   24.0240  -29.7080 C   0  0  0  0  0  0  0  0  0  0  0  0
   -3.5550   24.9980  -30.4590 N   0  0  0  0  0  0  0  0  0  0  0  0
   -4.9810   25.1260  -30.4870 C   0  0  0  0  0  0  0  0  0  0  0  0
   -5.4860   26.2700  -30.6310 O   0  0  0  0  0  0  0  0  0  0  0  0
   -5.8850   23.9410  -30.2680 C   0  0  0  0  0  0  0  0  0  0  0  0
   -6.9270   23.7950  -31.3860 C   0  0  0  0  0  0  0  0  0  0  0  0
   -7.0250   22.3790  -31.8960 C   0  0  0  0  0  0  0  0  0  0  0  0
   -8.1410   21.5580  -31.8580 C   0  0  0  0  0  0  0  0  0  0  0  0
   -9.4950   21.9130  -31.3340 C   0  0  0  0  0  0  0  0  0  0  0  0
   -7.8250   20.3390  -32.3330 N   0  0  0  0  0  0  0  0  0  0  0  0
   -6.5480   20.3520  -32.6840 N   0  0  0  0  0  0  0  0  0  0  0  0
   -5.8940   19.1940  -33.2320 C   0  0  0  0  0  0  0  0  0  0  0  0
   -6.6160   18.0650  -33.4720 N   0  0  0  0  0  0  0  0  0  0  0  0
   -6.0350   16.9510  -33.9920 C   0  0  0  0  0  0  0  0  0  0  0  0
   -6.8590   15.7270  -34.2370 C   0  0  0  0  0  0  0  0  0  0  0  0
   -4.6730   16.9640  -34.3030 C   0  0  0  0  0  0  0  0  0  0  0  0
   -3.9460   18.1360  -34.0730 C   0  0  0  0  0  0  0  0  0  0  0  0
   -2.4810   18.1940  -34.3720 C   0  0  0  0  0  0  0  0  0  0  0  0
   -4.5680   19.2170  -33.5350 N   0  0  0  0  0  0  0  0  0  0  0  0
   -6.0210   21.5760  -32.4260 C   0  0  0  0  0  0  0  0  0  0  0  0
   -4.5880   21.9710  -32.6550 C   0  0  0  0  0  0  0  0  0  0  0  0
   -2.4480   22.8250  -30.3290 C   0  0  0  0  0  0  0  0  0  0  0  0
   -1.7700   21.8350  -29.6110 C   0  0  0  0  0  0  0  0  0  0  0  0
   -3.0011   19.1000  -24.9807 H   0  0  0  0  0  0  0  0  0  0  0  0
   -4.2153   18.3424  -26.0662 H   0  0  0  0  0  0  0  0  0  0  0  0
   -2.5186   17.7526  -26.0662 H   0  0  0  0  0  0  0  0  0  0  0  0
   -3.2358   19.3013  -28.0135 H   0  0  0  0  0  0  0  0  0  0  0  0
   -3.2310   20.6238  -26.7852 H   0  0  0  0  0  0  0  0  0  0  0  0
   -1.6208   23.3819  -26.5639 H   0  0  0  0  0  0  0  0  0  0  0  0
   -2.8474   25.1335  -27.8404 H   0  0  0  0  0  0  0  0  0  0  0  0
   -5.2716   23.0286  -30.2335 H   0  0  0  0  0  0  0  0  0  0  0  0
   -6.4234   24.0961  -29.3214 H   0  0  0  0  0  0  0  0  0  0  0  0
   -7.9094   24.0992  -30.9958 H   0  0  0  0  0  0  0  0  0  0  0  0
   -6.6124   24.4336  -32.2246 H   0  0  0  0  0  0  0  0  0  0  0  0
   -9.4755   21.9079  -30.2342 H   0  0  0  0  0  0  0  0  0  0  0  0
   -9.7752   22.9150  -31.6911 H   0  0  0  0  0  0  0  0  0  0  0  0
  -10.2308   21.1774  -31.6911 H   0  0  0  0  0  0  0  0  0  0  0  0
   -7.1559   15.2860  -33.2740 H   0  0  0  0  0  0  0  0  0  0  0  0
   -7.7586   15.9990  -34.8086 H   0  0  0  0  0  0  0  0  0  0  0  0
   -6.2685   14.9958  -34.8086 H   0  0  0  0  0  0  0  0  0  0  0  0
   -4.1832   16.0716  -34.7198 H   0  0  0  0  0  0  0  0  0  0  0  0
   -1.9149   18.2164  -33.4291 H   0  0  0  0  0  0  0  0  0  0  0  0
   -2.1900   17.3067  -34.9534 H   0  0  0  0  0  0  0  0  0  0  0  0
   -2.2611   19.1016  -34.9534 H   0  0  0  0  0  0  0  0  0  0  0  0
   -4.0864   22.1093  -31.6858 H   0  0  0  0  0  0  0  0  0  0  0  0
   -4.0761   21.1805  -33.2233 H   0  0  0  0  0  0  0  0  0  0  0  0
   -4.5534   22.9122  -33.2233 H   0  0  0  0  0  0  0  0  0  0  0  0
   -2.6930   22.6605  -31.3887 H   0  0  0  0  0  0  0  0  0  0  0  0
   -1.4748   20.9019  -30.1133 H   0  0  0  0  0  0  0  0  0  0  0  0
  1  2  1  0
  2  3  1  0
  3  4  1  0
  4  5  2  0
  4  6  1  0
  6  7  2  0
  7  8  1  0
  8  9  2  0
  9 10  1  0
 10 11  1  0
 11 12  2  0
 11 13  1  0
 13 14  1  0
 14 15  1  0
 15 16  1  0
 16 17  1  0
 16 18  2  0
 18 19  1  0
 19 20  1  0
 20 21  2  0
 21 22  1  0
 22 23  1  0
 22 24  2  0
 24 25  1  0
 25 26  1  0
 25 27  2  0
 19 28  1  0
 28 29  1  0
  9 30  1  0
 30 31  2  0
 31  6  1  0
 28 15  2  0
 27 20  1  0
  1 32  1  0
  1 33  1  0
  1 34  1  0
  2 35  1  0
  2 36  1  0
  7 37  1  0
  8 38  1  0
 13 39  1  0
 13 40  1  0
 14 41  1  0
 14 42  1  0
 17 43  1  0
 17 44  1  0
 17 45  1  0
 23 46  1  0
 23 47  1  0
 23 48  1  0
 24 49  1  0
 26 50  1  0
 26 51  1  0
 26 52  1  0
 29 53  1  0
 29 54  1  0
 29 55  1  0
 30 56  1  0
 31 57  1  0
M  CHG  1  10  -1
M  END
>  <UniqueID>  (31) 
30

>  <SMILES>  (31) 
CCOC(=O)c1ccc([N-]C(=O)CCc2c(C)nn(-c3nc(C)cc(C)n3)c2C)cc1

>  <Energy>  (31) 
86.41058974847769

>  <Genealogy>  (31) 
CCOC(=O)c1ccc([N-]C(=O)CCc2c(C)nn(-c3nc(C)cc(C)n3)c2C)cc1 (protonated)
CCOC(=O)c1ccc([N-]C(=O)CCc2c(C)nn(-c3nc(C)cc(C)n3)c2C)cc1 (3D coordinates assigned)
CCOC(=O)c1ccc([N-]C(=O)CCc2c(C)nn(-c3nc(C)cc(C)n3)c2C)cc1 (optimized conformer: 86.41058974847769 kcal/mol)

>  <smiles>  (31) 
CCOC(=O)c1ccc(NC(=O)CCc2c(C)nn(-c3nc(C)cc(C)n3)c2C)cc1

>  <score_type>  (31) 
oracle

>  <origin>  (31) 
adgpu

>  <m_score__min__energy>  (31) 
-11.35

>  <m_primary>  (31) 
energy

$$$$
31:0
     RDKit          3D

 37 39  0  0  0  0  0  0  0  0999 V2000
   -6.1060   16.1970  -33.4340 C   0  0  0  0  0  0  0  0  0  0  0  0
   -6.0460   16.9760  -34.5940 C   0  0  0  0  0  0  0  0  0  0  0  0
   -5.7680   18.3430  -34.5060 C   0  0  0  0  0  0  0  0  0  0  0  0
   -5.5580   18.9370  -33.2540 C   0  0  0  0  0  0  0  0  0  0  0  0
   -5.2130   20.6920  -33.1420 S   0  0  0  0  0  0  0  0  0  0  0  0
   -6.8270   21.0740  -32.4480 C   0  0  0  0  0  0  0  0  0  0  0  0
   -7.8950   20.2120  -32.7350 C   0  0  0  0  0  0  0  0  0  0  0  0
   -9.1750   20.4850  -32.2490 C   0  0  0  0  0  0  0  0  0  0  0  0
   -9.3980   21.6200  -31.4690 C   0  0  0  0  0  0  0  0  0  0  0  0
   -8.3410   22.4810  -31.1670 C   0  0  0  0  0  0  0  0  0  0  0  0
   -7.0460   22.2180  -31.6470 C   0  0  0  0  0  0  0  0  0  0  0  0
   -5.9690   23.1080  -31.2980 N   0  0  0  0  0  0  0  0  0  0  0  0
   -6.1070   24.5510  -31.5140 C   0  0  0  0  0  0  0  0  0  0  0  0
   -6.1340   25.3010  -30.1650 C   0  0  0  0  0  0  0  0  0  0  0  0
   -5.4350   24.5880  -29.0770 N   0  0  0  0  0  0  0  0  0  0  0  0
   -4.3290   23.7550  -29.5690 C   0  0  0  0  0  0  0  0  0  0  0  0
   -4.8660   22.6240  -30.4600 C   0  0  0  0  0  0  0  0  0  0  0  0
   -5.6060   18.1520  -32.0940 C   0  0  0  0  0  0  0  0  0  0  0  0
   -5.8830   16.7850  -32.1850 C   0  0  0  0  0  0  0  0  0  0  0  0
   -6.3286   15.1220  -33.5041 H   0  0  0  0  0  0  0  0  0  0  0  0
   -6.2178   16.5124  -35.5766 H   0  0  0  0  0  0  0  0  0  0  0  0
   -5.7140   18.9529  -35.4198 H   0  0  0  0  0  0  0  0  0  0  0  0
   -7.7232   19.3145  -33.3473 H   0  0  0  0  0  0  0  0  0  0  0  0
  -10.0079   19.8050  -32.4811 H   0  0  0  0  0  0  0  0  0  0  0  0
  -10.4081   21.8370  -31.0913 H   0  0  0  0  0  0  0  0  0  0  0  0
   -8.5230   23.3723  -30.5485 H   0  0  0  0  0  0  0  0  0  0  0  0
   -5.2557   24.9105  -32.1107 H   0  0  0  0  0  0  0  0  0  0  0  0
   -7.0510   24.7419  -32.0454 H   0  0  0  0  0  0  0  0  0  0  0  0
   -5.6542   26.2812  -30.3026 H   0  0  0  0  0  0  0  0  0  0  0  0
   -7.1891   25.3893  -29.8666 H   0  0  0  0  0  0  0  0  0  0  0  0
   -6.1210   23.9700  -28.5810 H   0  0  0  0  0  0  0  0  0  0  0  0
   -3.6371   24.3793  -30.1533 H   0  0  0  0  0  0  0  0  0  0  0  0
   -3.8047   23.3134  -28.7087 H   0  0  0  0  0  0  0  0  0  0  0  0
   -4.0551   22.2565  -31.1061 H   0  0  0  0  0  0  0  0  0  0  0  0
   -5.2377   21.8119  -29.8178 H   0  0  0  0  0  0  0  0  0  0  0  0
   -5.4256   18.6120  -31.1112 H   0  0  0  0  0  0  0  0  0  0  0  0
   -5.9256   16.1711  -31.2732 H   0  0  0  0  0  0  0  0  0  0  0  0
  1  2  2  0
  2  3  1  0
  3  4  2  0
  4  5  1  0
  5  6  1  0
  6  7  2  0
  7  8  1  0
  8  9  2  0
  9 10  1  0
 10 11  2  0
 11 12  1  0
 12 13  1  0
 13 14  1  0
 14 15  1  0
 15 16  1  0
 16 17  1  0
  4 18  1  0
 18 19  2  0
 19  1  1  0
 11  6  1  0
 17 12  1  0
  1 20  1  0
  2 21  1  0
  3 22  1  0
  7 23  1  0
  8 24  1  0
  9 25  1  0
 10 26  1  0
 13 27  1  0
 13 28  1  0
 14 29  1  0
 14 30  1  0
 15 31  1  0
 16 32  1  0
 16 33  1  0
 17 34  1  0
 17 35  1  0
 18 36  1  0
 19 37  1  0
M  END
>  <UniqueID>  (32) 
31

>  <SMILES>  (32) 
c1ccc(Sc2ccccc2N2CCNCC2)cc1

>  <Energy>  (32) 
43.5650618182739

>  <Genealogy>  (32) 
c1ccc(Sc2ccccc2N2CCNCC2)cc1 (3D coordinates assigned)
c1ccc(Sc2ccccc2N2CCNCC2)cc1 (nonaromatic ring conformer: 43.5650618182739 kcal/mol)

>  <smiles>  (32) 
c1ccc(Sc2ccccc2N2CCNCC2)cc1

>  <score_type>  (32) 
oracle

>  <origin>  (32) 
adgpu

>  <m_score__min__energy>  (32) 
-7.8899999999999997

>  <m_primary>  (32) 
energy

$$$$
32:0
     RDKit          3D

 36 38  0  0  0  0  0  0  0  0999 V2000
   -8.5820   22.6240  -31.5980 C   0  0  0  0  0  0  0  0  0  0  0  0
   -7.2690   23.1360  -31.3880 O   0  0  0  0  0  0  0  0  0  0  0  0
   -6.0900   22.5120  -31.8280 C   0  0  0  0  0  0  0  0  0  0  0  0
   -6.1180   21.3550  -32.6280 C   0  0  0  0  0  0  0  0  0  0  0  0
   -4.9300   20.7620  -33.0580 C   0  0  0  0  0  0  0  0  0  0  0  0
   -3.6880   21.3090  -32.7030 C   0  0  0  0  0  0  0  0  0  0  0  0
   -2.4350   20.6630  -33.1640 C   0  0  0  0  0  0  0  0  0  0  0  0
   -2.0010   19.4640  -32.7100 N   0  0  0  0  0  0  0  0  0  0  0  0
   -0.8790   19.2410  -33.3310 O   0  0  0  0  0  0  0  0  0  0  0  0
   -0.6220   20.2450  -34.1290 C   0  0  0  0  0  0  0  0  0  0  0  0
    0.3990   20.3240  -34.8620 O   0  0  0  0  0  0  0  0  0  0  0  0
   -1.5770   21.1850  -34.0670 N   0  0  0  0  0  0  0  0  0  0  0  0
   -3.6600   22.4710  -31.9130 C   0  0  0  0  0  0  0  0  0  0  0  0
   -4.8480   23.0630  -31.4610 C   0  0  0  0  0  0  0  0  0  0  0  0
   -4.7730   24.5090  -30.4460 S   0  0  0  0  0  0  0  0  0  0  0  0
   -5.5070   24.2840  -29.1540 O   0  0  0  0  0  0  0  0  0  0  0  0
   -5.4130   25.6510  -31.1830 O   0  0  0  0  0  0  0  0  0  0  0  0
   -3.1270   24.9270  -30.0880 N   0  0  0  0  0  0  0  0  0  0  0  0
   -2.2750   24.2240  -29.1750 C   0  0  0  0  0  0  0  0  0  0  0  0
   -1.3370   23.2670  -29.6100 C   0  0  0  0  0  0  0  0  0  0  0  0
   -0.5130   22.6190  -28.6840 C   0  0  0  0  0  0  0  0  0  0  0  0
   -0.6190   22.9160  -27.3220 C   0  0  0  0  0  0  0  0  0  0  0  0
    0.1820   22.2860  -26.4270 F   0  0  0  0  0  0  0  0  0  0  0  0
   -1.5480   23.8620  -26.8850 C   0  0  0  0  0  0  0  0  0  0  0  0
   -2.3730   24.5130  -27.8080 C   0  0  0  0  0  0  0  0  0  0  0  0
   -9.0623   22.4367  -30.6263 H   0  0  0  0  0  0  0  0  0  0  0  0
   -9.1750   23.3568  -32.1649 H   0  0  0  0  0  0  0  0  0  0  0  0
   -8.5224   21.6832  -32.1649 H   0  0  0  0  0  0  0  0  0  0  0  0
   -7.0836   20.9144  -32.9168 H   0  0  0  0  0  0  0  0  0  0  0  0
   -4.9680   19.8566  -33.6815 H   0  0  0  0  0  0  0  0  0  0  0  0
   -1.6150   22.0920  -34.5840 H   0  0  0  0  0  0  0  0  0  0  0  0
   -2.6931   22.9222  -31.6457 H   0  0  0  0  0  0  0  0  0  0  0  0
   -1.2525   23.0288  -30.6806 H   0  0  0  0  0  0  0  0  0  0  0  0
    0.2198   21.8743  -29.0281 H   0  0  0  0  0  0  0  0  0  0  0  0
   -1.6313   24.0957  -25.8134 H   0  0  0  0  0  0  0  0  0  0  0  0
   -3.1037   25.2570  -27.4579 H   0  0  0  0  0  0  0  0  0  0  0  0
  1  2  1  0
  2  3  1  0
  3  4  2  0
  4  5  1  0
  5  6  2  0
  6  7  1  0
  7  8  2  0
  8  9  1  0
  9 10  1  0
 10 11  2  0
 10 12  1  0
  6 13  1  0
 13 14  2  0
 14 15  1  0
 15 16  2  0
 15 17  2  0
 15 18  1  0
 18 19  1  0
 19 20  2  0
 20 21  1  0
 21 22  2  0
 22 23  1  0
 22 24  1  0
 24 25  2  0
 14  3  1  0
 25 19  1  0
 12  7  1  0
  1 26  1  0
  1 27  1  0
  1 28  1  0
  4 29  1  0
  5 30  1  0
 12 31  1  0
 13 32  1  0
 20 33  1  0
 21 34  1  0
 24 35  1  0
 25 36  1  0
M  CHG  1  18  -1
M  END
>  <UniqueID>  (33) 
32

>  <SMILES>  (33) 
COc1ccc(-c2noc(=O)[nH]2)cc1S(=O)(=O)[N-]c1ccc(F)cc1

>  <Energy>  (33) 
79.21062828648985

>  <Genealogy>  (33) 
COc1ccc(-c2noc(=O)[nH]2)cc1S(=O)(=O)[N-]c1ccc(F)cc1 (protonated)
COc1ccc(-c2noc(=O)[nH]2)cc1S(=O)(=O)[N-]c1ccc(F)cc1 (3D coordinates assigned)
COc1ccc(-c2noc(=O)[nH]2)cc1S(=O)(=O)[N-]c1ccc(F)cc1 (optimized conformer: 79.21062828648985 kcal/mol)

>  <smiles>  (33) 
COc1ccc(-c2noc(=O)[nH]2)cc1S(=O)(=O)Nc1ccc(F)cc1

>  <score_type>  (33) 
oracle

>  <origin>  (33) 
adgpu

>  <m_score__min__energy>  (33) 
-8.9000000000000004

>  <m_primary>  (33) 
energy

$$$$
33:0
     RDKit          3D

 46 48  0  0  0  0  0  0  0  0999 V2000
    1.9710   24.8550  -26.6780 C   0  0  0  0  0  0  0  0  0  0  0  0
    1.2760   24.5410  -27.8820 O   0  0  0  0  0  0  0  0  0  0  0  0
   -0.1220   24.5240  -28.0080 C   0  0  0  0  0  0  0  0  0  0  0  0
   -0.9740   25.1270  -27.0620 C   0  0  0  0  0  0  0  0  0  0  0  0
   -2.3610   25.0860  -27.2350 C   0  0  0  0  0  0  0  0  0  0  0  0
   -2.9190   24.4510  -28.3500 C   0  0  0  0  0  0  0  0  0  0  0  0
   -4.3460   24.4480  -28.4950 N   0  0  0  0  0  0  0  0  0  0  0  0
   -5.2090   24.9040  -29.9280 S   0  0  0  0  0  0  0  0  0  0  0  0
   -4.2890   25.6630  -30.8420 O   0  0  0  0  0  0  0  0  0  0  0  0
   -6.3560   25.7980  -29.5480 O   0  0  0  0  0  0  0  0  0  0  0  0
   -5.8470   23.4690  -30.7240 C   0  0  0  0  0  0  0  0  0  0  0  0
   -7.1940   23.4280  -31.0990 C   0  0  0  0  0  0  0  0  0  0  0  0
   -7.7150   22.2960  -31.7330 C   0  0  0  0  0  0  0  0  0  0  0  0
   -6.8930   21.1860  -32.0040 C   0  0  0  0  0  0  0  0  0  0  0  0
   -7.4620   19.9900  -32.6750 C   0  0  0  0  0  0  0  0  0  0  0  0
   -8.6670   20.0080  -33.0510 O   0  0  0  0  0  0  0  0  0  0  0  0
   -6.6650   18.8170  -32.9150 N   0  0  0  0  0  0  0  0  0  0  0  0
   -7.2490   17.5610  -33.3820 C   0  0  0  0  0  0  0  0  0  0  0  0
   -6.1910   16.5010  -33.4900 C   0  0  0  0  0  0  0  0  0  0  0  0
   -6.4930   15.2400  -34.0250 C   0  0  0  0  0  0  0  0  0  0  0  0
   -5.4790   14.2860  -34.1410 C   0  0  0  0  0  0  0  0  0  0  0  0
   -4.1820   14.5960  -33.7270 C   0  0  0  0  0  0  0  0  0  0  0  0
   -3.9170   15.8630  -33.2010 C   0  0  0  0  0  0  0  0  0  0  0  0
   -4.9160   16.7800  -33.0970 N   0  0  0  0  0  0  0  0  0  0  0  0
   -5.5440   21.2290  -31.6060 C   0  0  0  0  0  0  0  0  0  0  0  0
   -5.0250   22.3640  -30.9760 C   0  0  0  0  0  0  0  0  0  0  0  0
   -2.0680   23.8460  -29.2940 C   0  0  0  0  0  0  0  0  0  0  0  0
   -0.6810   23.8850  -29.1190 C   0  0  0  0  0  0  0  0  0  0  0  0
    1.3514   24.5751  -25.8133 H   0  0  0  0  0  0  0  0  0  0  0  0
    2.9188   24.2977  -26.6457 H   0  0  0  0  0  0  0  0  0  0  0  0
    2.1792   25.9346  -26.6457 H   0  0  0  0  0  0  0  0  0  0  0  0
   -0.5464   25.6323  -26.1835 H   0  0  0  0  0  0  0  0  0  0  0  0
   -3.0183   25.5565  -26.4890 H   0  0  0  0  0  0  0  0  0  0  0  0
   -7.8460   24.2899  -30.8942 H   0  0  0  0  0  0  0  0  0  0  0  0
   -8.7760   22.2727  -32.0224 H   0  0  0  0  0  0  0  0  0  0  0  0
   -5.6270   18.8630  -32.8200 H   0  0  0  0  0  0  0  0  0  0  0  0
   -8.0200   17.2325  -32.6694 H   0  0  0  0  0  0  0  0  0  0  0  0
   -7.6959   17.7220  -34.3742 H   0  0  0  0  0  0  0  0  0  0  0  0
   -7.5173   15.0048  -34.3498 H   0  0  0  0  0  0  0  0  0  0  0  0
   -5.7019   13.2927  -34.5576 H   0  0  0  0  0  0  0  0  0  0  0  0
   -3.3776   13.8508  -33.8140 H   0  0  0  0  0  0  0  0  0  0  0  0
   -2.8995   16.1190  -32.8707 H   0  0  0  0  0  0  0  0  0  0  0  0
   -4.8925   20.3625  -31.7921 H   0  0  0  0  0  0  0  0  0  0  0  0
   -3.9667   22.3890  -30.6771 H   0  0  0  0  0  0  0  0  0  0  0  0
   -2.4955   23.3407  -30.1726 H   0  0  0  0  0  0  0  0  0  0  0  0
   -0.0241   23.4088  -29.8618 H   0  0  0  0  0  0  0  0  0  0  0  0
  1  2  1  0
  2  3  1  0
  3  4  2  0
  4  5  1  0
  5  6  2  0
  6  7  1  0
  7  8  1  0
  8  9  2  0
  8 10  2  0
  8 11  1  0
 11 12  2  0
 12 13  1  0
 13 14  2  0
 14 15  1  0
 15 16  2  0
 15 17  1  0
 17 18  1  0
 18 19  1  0
 19 20  2  0
 20 21  1  0
 21 22  2  0
 22 23  1  0
 23 24  2  0
 14 25  1  0
 25 26  2  0
  6 27  1  0
 27 28  2  0
 28  3  1  0
 26 11  1  0
 24 19  1  0
  1 29  1  0
  1 30  1  0
  1 31  1  0
  4 32  1  0
  5 33  1  0
 12 34  1  0
 13 35  1  0
 17 36  1  0
 18 37  1  0
 18 38  1  0
 20 39  1  0
 21 40  1  0
 22 41  1  0
 23 42  1  0
 25 43  1  0
 26 44  1  0
 27 45  1  0
 28 46  1  0
M  CHG  1   7  -1
M  END
>  <UniqueID>  (34) 
33

>  <SMILES>  (34) 
COc1ccc([N-]S(=O)(=O)c2ccc(C(=O)NCc3ccccn3)cc2)cc1

>  <Energy>  (34) 
51.4628934478036

>  <Genealogy>  (34) 
COc1ccc([N-]S(=O)(=O)c2ccc(C(=O)NCc3ccccn3)cc2)cc1 (protonated)
COc1ccc([N-]S(=O)(=O)c2ccc(C(=O)NCc3ccccn3)cc2)cc1 (3D coordinates assigned)
COc1ccc([N-]S(=O)(=O)c2ccc(C(=O)NCc3ccccn3)cc2)cc1 (optimized conformer: 51.4628934478036 kcal/mol)

>  <smiles>  (34) 
COc1ccc(NS(=O)(=O)c2ccc(C(=O)NCc3ccccn3)cc2)cc1

>  <score_type>  (34) 
oracle

>  <origin>  (34) 
adgpu

>  <m_score__min__energy>  (34) 
-9.4600000000000009

>  <m_primary>  (34) 
energy

$$$$
34:0
     RDKit          3D

 45 46  0  0  0  0  0  0  0  0999 V2000
   -2.7230   19.4900  -26.7770 C   0  0  0  0  0  0  0  0  0  0  0  0
   -1.7240   20.4970  -27.3420 C   0  0  0  0  0  0  0  0  0  0  0  0
   -2.3680   21.8790  -27.5130 C   0  0  0  0  0  0  0  0  0  0  0  0
   -1.8300   22.6220  -28.7470 C   0  0  0  0  0  0  0  0  0  0  0  0
   -2.9260   23.1170  -29.6090 N   0  0  0  0  0  0  0  0  0  0  0  0
   -3.7240   22.2450  -30.3270 C   0  0  0  0  0  0  0  0  0  0  0  0
   -3.5140   20.8200  -30.2760 N   0  0  0  0  0  0  0  0  0  0  0  0
   -4.7580   22.7520  -31.1430 C   0  0  0  0  0  0  0  0  0  0  0  0
   -5.6210   21.8660  -31.8830 N   0  0  0  0  0  0  0  0  0  0  0  0
   -7.0530   22.1970  -31.9800 C   0  0  0  0  0  0  0  0  0  0  0  0
   -7.7880   21.9500  -30.6550 C   0  0  0  0  0  0  0  0  0  0  0  0
   -9.2490   21.5540  -30.8640 C   0  0  0  0  0  0  0  0  0  0  0  0
   -5.0370   20.7870  -32.6430 C   0  0  0  0  0  0  0  0  0  0  0  0
   -3.8870   20.9280  -33.1400 O   0  0  0  0  0  0  0  0  0  0  0  0
   -5.7330   19.5040  -32.8500 C   0  0  0  0  0  0  0  0  0  0  0  0
   -5.6760   18.6940  -33.9790 C   0  0  0  0  0  0  0  0  0  0  0  0
   -6.5090   17.5720  -33.8990 C   0  0  0  0  0  0  0  0  0  0  0  0
   -7.2370   17.4990  -32.7190 C   0  0  0  0  0  0  0  0  0  0  0  0
   -6.8460   18.8360  -31.7790 S   0  0  0  0  0  0  0  0  0  0  0  0
   -4.9350   24.1370  -31.2140 C   0  0  0  0  0  0  0  0  0  0  0  0
   -5.8420   24.6340  -31.9320 O   0  0  0  0  0  0  0  0  0  0  0  0
   -4.1290   24.9550  -30.5040 N   0  0  0  0  0  0  0  0  0  0  0  0
   -3.1410   24.4720  -29.7130 C   0  0  0  0  0  0  0  0  0  0  0  0
   -2.4230   25.2940  -29.0820 O   0  0  0  0  0  0  0  0  0  0  0  0
   -2.6926   19.5206  -25.6778 H   0  0  0  0  0  0  0  0  0  0  0  0
   -3.7357   19.7445  -27.1231 H   0  0  0  0  0  0  0  0  0  0  0  0
   -2.4604   18.4794  -27.1231 H   0  0  0  0  0  0  0  0  0  0  0  0
   -0.8706   20.5813  -26.6531 H   0  0  0  0  0  0  0  0  0  0  0  0
   -1.3914   20.1425  -28.3288 H   0  0  0  0  0  0  0  0  0  0  0  0
   -3.4552   21.7521  -27.6220 H   0  0  0  0  0  0  0  0  0  0  0  0
   -2.1220   22.4785  -26.6241 H   0  0  0  0  0  0  0  0  0  0  0  0
   -1.2255   23.4779  -28.4123 H   0  0  0  0  0  0  0  0  0  0  0  0
   -1.2237   21.9168  -29.3344 H   0  0  0  0  0  0  0  0  0  0  0  0
   -3.4950   20.2720  -29.3910 H   0  0  0  0  0  0  0  0  0  0  0  0
   -3.3440   20.2670  -31.1430 H   0  0  0  0  0  0  0  0  0  0  0  0
   -7.1553   23.2582  -32.2511 H   0  0  0  0  0  0  0  0  0  0  0  0
   -7.5022   21.5474  -32.7456 H   0  0  0  0  0  0  0  0  0  0  0  0
   -7.2768   21.1407  -30.1130 H   0  0  0  0  0  0  0  0  0  0  0  0
   -7.7738   22.8898  -30.0835 H   0  0  0  0  0  0  0  0  0  0  0  0
   -9.7365   21.4219  -29.8868 H   0  0  0  0  0  0  0  0  0  0  0  0
   -9.7661   22.3444  -31.4278 H   0  0  0  0  0  0  0  0  0  0  0  0
   -9.2962   20.6107  -31.4278 H   0  0  0  0  0  0  0  0  0  0  0  0
   -5.0393   18.9133  -34.8488 H   0  0  0  0  0  0  0  0  0  0  0  0
   -6.5802   16.8181  -34.6969 H   0  0  0  0  0  0  0  0  0  0  0  0
   -7.9467   16.7039  -32.4467 H   0  0  0  0  0  0  0  0  0  0  0  0
  1  2  1  0
  2  3  1  0
  3  4  1  0
  4  5  1  0
  5  6  1  0
  6  7  1  0
  6  8  2  0
  8  9  1  0
  9 10  1  0
 10 11  1  0
 11 12  1  0
  9 13  1  0
 13 14  2  0
 13 15  1  0
 15 16  2  0
 16 17  1  0
 17 18  2  0
 18 19  1  0
  8 20  1  0
 20 21  2  0
 20 22  1  0
 22 23  1  0
 23 24  2  0
 23  5  1  0
 19 15  1  0
  1 25  1  0
  1 26  1  0
  1 27  1  0
  2 28  1  0
  2 29  1  0
  3 30  1  0
  3 31  1  0
  4 32  1  0
  4 33  1  0
  7 34  1  0
  7 35  1  0
 10 36  1  0
 10 37  1  0
 11 38  1  0
 11 39  1  0
 12 40  1  0
 12 41  1  0
 12 42  1  0
 16 43  1  0
 17 44  1  0
 18 45  1  0
M  CHG  1  22  -1
M  END
>  <UniqueID>  (35) 
34

>  <SMILES>  (35) 
CCCCn1c(N)c(N(CCC)C(=O)c2cccs2)c(=O)[n-]c1=O

>  <Energy>  (35) 
77.22182740769378

>  <Genealogy>  (35) 
CCCCn1c(N)c(N(CCC)C(=O)c2cccs2)c(=O)[n-]c1=O (protonated)
CCCCn1c(N)c(N(CCC)C(=O)c2cccs2)c(=O)[n-]c1=O (3D coordinates assigned)
CCCCn1c(N)c(N(CCC)C(=O)c2cccs2)c(=O)[n-]c1=O (optimized conformer: 77.22182740769378 kcal/mol)

>  <smiles>  (35) 
CCCCn1c(N)c(N(CCC)C(=O)c2cccs2)c(=O)[nH]c1=O

>  <score_type>  (35) 
oracle

>  <origin>  (35) 
adgpu

>  <m_score__min__energy>  (35) 
-8.2400000000000002

>  <m_primary>  (35) 
energy

$$$$
35:0
     RDKit          3D

 53 56  0  0  0  0  0  0  0  0999 V2000
   -6.8510   16.5930  -33.4410 C   0  0  0  0  0  0  0  0  0  0  0  0
   -6.7770   18.0720  -33.1750 C   0  0  0  0  0  0  0  0  0  0  0  0
   -7.9290   18.7250  -32.7030 C   0  0  0  0  0  0  0  0  0  0  0  0
   -7.9210   20.0960  -32.4470 C   0  0  0  0  0  0  0  0  0  0  0  0
   -6.7660   20.8490  -32.6690 C   0  0  0  0  0  0  0  0  0  0  0  0
   -6.7700   22.2550  -32.3710 N   0  0  0  0  0  0  0  0  0  0  0  0
   -5.7710   22.9100  -31.5780 C   0  0  0  0  0  0  0  0  0  0  0  0
   -5.5290   24.2700  -31.5690 C   0  0  0  0  0  0  0  0  0  0  0  0
   -4.4480   24.4440  -30.7250 C   0  0  0  0  0  0  0  0  0  0  0  0
   -3.8600   25.6730  -30.4450 O   0  0  0  0  0  0  0  0  0  0  0  0
   -4.0100   23.2630  -30.2350 N   0  0  0  0  0  0  0  0  0  0  0  0
   -2.9000   23.0540  -29.3430 C   0  0  0  0  0  0  0  0  0  0  0  0
   -2.9170   21.9950  -28.4190 C   0  0  0  0  0  0  0  0  0  0  0  0
   -1.8360   21.7950  -27.5530 C   0  0  0  0  0  0  0  0  0  0  0  0
   -0.7320   22.6500  -27.6020 C   0  0  0  0  0  0  0  0  0  0  0  0
   -0.7050   23.7060  -28.5180 C   0  0  0  0  0  0  0  0  0  0  0  0
    0.3930   24.5560  -28.5640 O   0  0  0  0  0  0  0  0  0  0  0  0
   -1.7830   23.9080  -29.3850 C   0  0  0  0  0  0  0  0  0  0  0  0
   -4.8140   22.3200  -30.7710 C   0  0  0  0  0  0  0  0  0  0  0  0
   -4.6740   20.9540  -30.5440 O   0  0  0  0  0  0  0  0  0  0  0  0
   -5.6020   20.2050  -33.1140 C   0  0  0  0  0  0  0  0  0  0  0  0
   -5.5940   18.8290  -33.3890 C   0  0  0  0  0  0  0  0  0  0  0  0
   -4.0560   18.1410  -33.9540 S   0  0  0  0  0  0  0  0  0  0  0  0
   -4.2510   17.6790  -35.3720 O   0  0  0  0  0  0  0  0  0  0  0  0
   -3.6180   16.9590  -33.1360 O   0  0  0  0  0  0  0  0  0  0  0  0
   -2.8180   19.3730  -33.9170 N   0  0  0  0  0  0  0  0  0  0  0  0
   -2.7160   19.9470  -32.5570 C   0  0  0  0  0  0  0  0  0  0  0  0
   -1.3910   20.6910  -32.3630 C   0  0  0  0  0  0  0  0  0  0  0  0
   -0.1940   19.7350  -32.5050 C   0  0  0  0  0  0  0  0  0  0  0  0
   -0.5110   18.5120  -33.3820 C   0  0  0  0  0  0  0  0  0  0  0  0
   -1.5380   18.8600  -34.4690 C   0  0  0  0  0  0  0  0  0  0  0  0
   -6.8782   16.0494  -32.4851 H   0  0  0  0  0  0  0  0  0  0  0  0
   -7.7615   16.3690  -34.0162 H   0  0  0  0  0  0  0  0  0  0  0  0
   -5.9674   16.2792  -34.0162 H   0  0  0  0  0  0  0  0  0  0  0  0
   -8.8492   18.1468  -32.5333 H   0  0  0  0  0  0  0  0  0  0  0  0
   -8.8295   20.5869  -32.0681 H   0  0  0  0  0  0  0  0  0  0  0  0
   -7.5510   22.8380  -32.7490 H   0  0  0  0  0  0  0  0  0  0  0  0
   -6.0794   25.0490  -32.1169 H   0  0  0  0  0  0  0  0  0  0  0  0
   -3.7844   21.3199  -28.3763 H   0  0  0  0  0  0  0  0  0  0  0  0
   -1.8555   20.9637  -26.8329 H   0  0  0  0  0  0  0  0  0  0  0  0
    0.1162   22.4923  -26.9197 H   0  0  0  0  0  0  0  0  0  0  0  0
   -1.7575   24.7398  -30.1044 H   0  0  0  0  0  0  0  0  0  0  0  0
   -4.6796   20.7887  -33.2497 H   0  0  0  0  0  0  0  0  0  0  0  0
   -3.5475   20.6502  -32.4019 H   0  0  0  0  0  0  0  0  0  0  0  0
   -2.7608   19.1235  -31.8291 H   0  0  0  0  0  0  0  0  0  0  0  0
   -1.3097   21.4839  -33.1211 H   0  0  0  0  0  0  0  0  0  0  0  0
   -1.3766   21.1215  -31.3508 H   0  0  0  0  0  0  0  0  0  0  0  0
    0.6438   20.2852  -32.9582 H   0  0  0  0  0  0  0  0  0  0  0  0
    0.0574   19.3663  -31.4996 H   0  0  0  0  0  0  0  0  0  0  0  0
    0.4158   18.1646  -33.8619 H   0  0  0  0  0  0  0  0  0  0  0  0
   -0.9347   17.7243  -32.7416 H   0  0  0  0  0  0  0  0  0  0  0  0
   -1.1061   19.6298  -35.1254 H   0  0  0  0  0  0  0  0  0  0  0  0
   -1.7643   17.9328  -35.0160 H   0  0  0  0  0  0  0  0  0  0  0  0
  1  2  1  0
  2  3  2  0
  3  4  1  0
  4  5  2  0
  5  6  1  0
  6  7  1  0
  7  8  1  0
  8  9  2  0
  9 10  1  0
  9 11  1  0
 11 12  1  0
 12 13  2  0
 13 14  1  0
 14 15  2  0
 15 16  1  0
 16 17  1  0
 16 18  2  0
 11 19  1  0
 19 20  1  0
  5 21  1  0
 21 22  2  0
 22 23  1  0
 23 24  2  0
 23 25  2  0
 23 26  1  0
 26 27  1  0
 27 28  1  0
 28 29  1  0
 29 30  1  0
 30 31  1  0
 22  2  1  0
 31 26  1  0
 19  7  2  0
 18 12  1  0
  1 32  1  0
  1 33  1  0
  1 34  1  0
  3 35  1  0
  4 36  1  0
  6 37  1  0
  8 38  1  0
 13 39  1  0
 14 40  1  0
 15 41  1  0
 18 42  1  0
 21 43  1  0
 27 44  1  0
 27 45  1  0
 28 46  1  0
 28 47  1  0
 29 48  1  0
 29 49  1  0
 30 50  1  0
 30 51  1  0
 31 52  1  0
 31 53  1  0
M  CHG  3  10  -1  17  -1  20  -1
M  END
>  <UniqueID>  (36) 
35

>  <SMILES>  (36) 
Cc1ccc(Nc2cc([O-])n(-c3cccc([O-])c3)c2[O-])cc1S(=O)(=O)N1CCCCC1

>  <Energy>  (36) 
103.92679868006093

>  <Genealogy>  (36) 
Cc1ccc(Nc2cc([O-])n(-c3cccc([O-])c3)c2[O-])cc1S(=O)(=O)N1CCCCC1 (protonated)
Cc1ccc(Nc2cc([O-])n(-c3cccc([O-])c3)c2[O-])cc1S(=O)(=O)N1CCCCC1 (3D coordinates assigned)
Cc1ccc(Nc2cc([O-])n(-c3cccc([O-])c3)c2[O-])cc1S(=O)(=O)N1CCCCC1 (nonaromatic ring conformer: 103.92679868006093 kcal/mol)

>  <smiles>  (36) 
Cc1ccc(Nc2cc(O)n(-c3cccc(O)c3)c2O)cc1S(=O)(=O)N1CCCCC1

>  <score_type>  (36) 
oracle

>  <origin>  (36) 
adgpu

>  <m_score__min__energy>  (36) 
-13.93

>  <m_primary>  (36) 
energy

$$$$
36:0
     RDKit          3D

 53 57  0  0  1  0  0  0  0  0999 V2000
   -0.5780   26.1290  -28.3280 O   0  0  0  0  0  0  0  0  0  0  0  0
   -0.6190   24.6590  -27.9460 S   0  0  0  0  0  0  0  0  0  0  0  0
    0.4910   23.9910  -28.7060 O   0  0  0  0  0  0  0  0  0  0  0  0
   -0.4420   24.5000  -26.2560 N   0  0  0  0  0  0  0  0  0  0  0  0
   -0.5570   25.5040  -25.4550 C   0  0  0  0  0  0  0  0  0  0  0  0
   -0.8250   26.7580  -25.8660 N   0  0  0  0  0  0  0  0  0  0  0  0
   -0.9420   27.7900  -25.0170 C   0  0  0  0  0  0  0  0  0  0  0  0
   -0.7750   27.5280  -23.6680 C   0  0  0  0  0  0  0  0  0  0  0  0
   -0.5010   26.2430  -23.2460 C   0  0  0  0  0  0  0  0  0  0  0  0
   -0.3960   25.2500  -24.1440 N   0  0  0  0  0  0  0  0  0  0  0  0
   -2.1960   24.0680  -28.4840 C   0  0  0  0  0  0  0  0  0  0  0  0
   -2.8910   23.1350  -27.7090 C   0  0  0  0  0  0  0  0  0  0  0  0
   -4.1230   22.6980  -28.1690 C   0  0  0  0  0  0  0  0  0  0  0  0
   -4.6630   23.1660  -29.3640 C   0  0  0  0  0  0  0  0  0  0  0  0
   -5.9360   22.7050  -29.8240 N   0  0  0  0  0  0  0  0  0  0  0  0
   -5.9360   21.9200  -30.8440 C   0  0  0  0  0  0  0  0  0  0  0  0
   -4.7810   21.5460  -31.4530 N   0  0  0  0  0  0  0  0  0  0  0  0
   -4.7550   20.7300  -32.5160 C   0  0  0  0  0  0  0  0  0  0  0  0
   -3.5330   20.3120  -33.1900 C   0  0  0  0  0  0  0  0  0  0  0  0
   -3.3010   18.9720  -33.4860 C   0  0  0  0  0  0  0  0  0  0  0  0
   -2.1560   18.5420  -34.1230 C   0  0  0  0  0  0  0  0  0  0  0  0
   -1.1910   19.4620  -34.4880 C   0  0  0  0  0  0  0  0  0  0  0  0
   -0.0130   19.1140  -35.1310 O   0  0  0  0  0  0  0  0  0  0  0  0
   -1.3850   20.7990  -34.2110 C   0  0  0  0  0  0  0  0  0  0  0  0
   -0.4230   21.7530  -34.5710 O   0  0  0  0  0  0  0  0  0  0  0  0
   -2.5450   21.1940  -33.5720 C   0  0  0  0  0  0  0  0  0  0  0  0
   -5.9330   20.2750  -32.9770 N   0  0  0  0  0  0  0  0  0  0  0  0
   -7.1160   20.5930  -32.4370 C   0  0  0  0  0  0  0  0  0  0  0  0
   -8.2500   20.0640  -32.9990 C   0  0  0  0  0  0  0  0  0  0  0  0
   -9.4620   20.4130  -32.4150 C   0  0  0  0  0  0  0  0  0  0  0  0
   -9.5270   21.2550  -31.3140 C   0  0  0  0  0  0  0  0  0  0  0  0
   -8.3560   21.7530  -30.7970 C   0  0  0  0  0  0  0  0  0  0  0  0
   -7.1260   21.4350  -31.3440 C   0  0  0  0  0  0  0  0  0  0  0  0
   -3.9680   24.0990  -30.1410 C   0  0  0  0  0  0  0  0  0  0  0  0
   -2.7320   24.5360  -29.6770 C   0  0  0  0  0  0  0  0  0  0  0  0
   -1.1621   28.8052  -25.3788 H   0  0  0  0  0  0  0  0  0  0  0  0
   -0.8606   28.3426  -22.9338 H   0  0  0  0  0  0  0  0  0  0  0  0
   -0.3687   26.0322  -22.1745 H   0  0  0  0  0  0  0  0  0  0  0  0
   -0.1880   24.2890  -23.7910 H   0  0  0  0  0  0  0  0  0  0  0  0
   -2.4730   22.7594  -26.7634 H   0  0  0  0  0  0  0  0  0  0  0  0
   -4.6879   21.9638  -27.5758 H   0  0  0  0  0  0  0  0  0  0  0  0
   -3.9100   21.9160  -31.0670 H   0  0  0  0  0  0  0  0  0  0  0  0
   -4.0595   18.2280  -33.2011 H   0  0  0  0  0  0  0  0  0  0  0  0
   -2.0114   17.4732  -34.3394 H   0  0  0  0  0  0  0  0  0  0  0  0
    0.7190   19.7520  -35.3940 H   0  0  0  0  0  0  0  0  0  0  0  0
   -0.4960   22.3350  -35.3830 H   0  0  0  0  0  0  0  0  0  0  0  0
   -2.6866   22.2636  -33.3580 H   0  0  0  0  0  0  0  0  0  0  0  0
   -8.2024   19.3950  -33.8709 H   0  0  0  0  0  0  0  0  0  0  0  0
  -10.3948   20.0109  -32.8370 H   0  0  0  0  0  0  0  0  0  0  0  0
  -10.4960   21.5181  -30.8647 H   0  0  0  0  0  0  0  0  0  0  0  0
   -8.3974   22.4223  -29.9250 H   0  0  0  0  0  0  0  0  0  0  0  0
   -4.3852   24.4743  -31.0871 H   0  0  0  0  0  0  0  0  0  0  0  0
   -2.1652   25.2698  -30.2689 H   0  0  0  0  0  0  0  0  0  0  0  0
  1  2  2  0
  2  3  2  0
  2  4  1  0
  4  5  2  3
  5  6  1  0
  6  7  2  0
  7  8  1  0
  8  9  2  0
  9 10  1  0
  2 11  1  0
 11 12  2  0
 12 13  1  0
 13 14  2  0
 14 15  1  0
 15 16  2  0
 16 17  1  0
 17 18  1  0
 18 19  1  0
 19 20  2  0
 20 21  1  0
 21 22  2  0
 22 23  1  0
 22 24  1  0
 24 25  1  0
 24 26  2  0
 18 27  2  0
 27 28  1  0
 28 29  2  0
 29 30  1  0
 30 31  2  0
 31 32  1  0
 32 33  2  0
 14 34  1  0
 34 35  2  0
 10  5  1  0
 35 11  1  0
 33 16  1  0
 26 19  1  0
 33 28  1  0
  7 36  1  0
  8 37  1  0
  9 38  1  0
 10 39  1  0
 12 40  1  0
 13 41  1  0
 17 42  1  0
 20 43  1  0
 21 44  1  0
 23 45  1  0
 25 46  1  0
 26 47  1  0
 29 48  1  0
 30 49  1  0
 31 50  1  0
 32 51  1  0
 34 52  1  0
 35 53  1  0
M  END
>  <smiles>  (37) 
O=S(=O)(N=c1nccc[nH]1)c1ccc(N=c2[nH]c(-c3ccc(O)c(O)c3)nc3ccccc23)cc1

>  <score_type>  (37) 
oracle

>  <origin>  (37) 
adgpu

>  <m_score__min__energy>  (37) 
-9.7899999999999991

>  <m_primary>  (37) 
energy

$$$$
37:0
     RDKit          3D

 32 34  0  0  0  0  0  0  0  0999 V2000
   -5.6180   16.7480  -32.4820 C   0  0  0  0  0  0  0  0  0  0  0  0
   -5.5660   18.2210  -32.5720 N   0  0  0  0  0  0  0  0  0  0  0  0
   -4.3710   18.8410  -32.8570 C   0  0  0  0  0  0  0  0  0  0  0  0
   -3.3210   18.1680  -33.0550 O   0  0  0  0  0  0  0  0  0  0  0  0
   -4.2850   20.2290  -32.9340 C   0  0  0  0  0  0  0  0  0  0  0  0
   -5.4090   21.0170  -32.7120 C   0  0  0  0  0  0  0  0  0  0  0  0
   -5.2690   22.4440  -32.7660 N   0  0  0  0  0  0  0  0  0  0  0  0
   -5.3380   23.2960  -31.6060 C   0  0  0  0  0  0  0  0  0  0  0  0
   -6.5390   23.9060  -31.2020 C   0  0  0  0  0  0  0  0  0  0  0  0
   -6.5610   24.7220  -30.0700 C   0  0  0  0  0  0  0  0  0  0  0  0
   -5.3850   24.9180  -29.3440 C   0  0  0  0  0  0  0  0  0  0  0  0
   -4.2330   24.3160  -29.7390 N   0  0  0  0  0  0  0  0  0  0  0  0
   -4.1840   23.5160  -30.8390 C   0  0  0  0  0  0  0  0  0  0  0  0
   -6.6480   20.3980  -32.4640 C   0  0  0  0  0  0  0  0  0  0  0  0
   -7.8260   21.1590  -32.3150 C   0  0  0  0  0  0  0  0  0  0  0  0
   -9.0450   20.5350  -32.0590 C   0  0  0  0  0  0  0  0  0  0  0  0
   -9.1140   19.1500  -31.9570 C   0  0  0  0  0  0  0  0  0  0  0  0
   -7.9660   18.3740  -32.1220 C   0  0  0  0  0  0  0  0  0  0  0  0
   -6.7100   18.9760  -32.3840 C   0  0  0  0  0  0  0  0  0  0  0  0
   -5.6287   16.4454  -31.4245 H   0  0  0  0  0  0  0  0  0  0  0  0
   -6.5296   16.3823  -32.9772 H   0  0  0  0  0  0  0  0  0  0  0  0
   -4.7344   16.3190  -32.9772 H   0  0  0  0  0  0  0  0  0  0  0  0
   -3.3221   20.7047  -33.1719 H   0  0  0  0  0  0  0  0  0  0  0  0
   -4.9560   22.8630  -33.6710 H   0  0  0  0  0  0  0  0  0  0  0  0
   -7.4611   23.7400  -31.7783 H   0  0  0  0  0  0  0  0  0  0  0  0
   -7.4964   25.2062  -29.7528 H   0  0  0  0  0  0  0  0  0  0  0  0
   -5.3911   25.5605  -28.4512 H   0  0  0  0  0  0  0  0  0  0  0  0
   -3.2354   23.0398  -31.1280 H   0  0  0  0  0  0  0  0  0  0  0  0
   -7.7819   22.2547  -32.4017 H   0  0  0  0  0  0  0  0  0  0  0  0
   -9.9557   21.1398  -31.9372 H   0  0  0  0  0  0  0  0  0  0  0  0
  -10.0778   18.6639  -31.7453 H   0  0  0  0  0  0  0  0  0  0  0  0
   -8.0370   17.2788  -32.0476 H   0  0  0  0  0  0  0  0  0  0  0  0
  1  2  1  0
  2  3  1  0
  3  4  2  0
  3  5  1  0
  5  6  2  0
  6  7  1  0
  7  8  1  0
  8  9  2  0
  9 10  1  0
 10 11  2  0
 11 12  1  0
 12 13  2  0
  6 14  1  0
 14 15  2  0
 15 16  1  0
 16 17  2  0
 17 18  1  0
 18 19  2  0
 19  2  1  0
 13  8  1  0
 19 14  1  0
  1 20  1  0
  1 21  1  0
  1 22  1  0
  5 23  1  0
  7 24  1  0
  9 25  1  0
 10 26  1  0
 11 27  1  0
 13 28  1  0
 15 29  1  0
 16 30  1  0
 17 31  1  0
 18 32  1  0
M  END
>  <UniqueID>  (38) 
36

>  <SMILES>  (38) 
Cn1c(=O)cc(Nc2cccnc2)c2ccccc21

>  <Energy>  (38) 
53.65117180373896

>  <Genealogy>  (38) 
Cn1c(=O)cc(Nc2cccnc2)c2ccccc21 (3D coordinates assigned)
Cn1c(=O)cc(Nc2cccnc2)c2ccccc21 (optimized conformer: 53.65117180373896 kcal/mol)

>  <smiles>  (38) 
Cn1c(=O)cc(Nc2cccnc2)c2ccccc21

>  <score_type>  (38) 
oracle

>  <origin>  (38) 
adgpu

>  <m_score__min__energy>  (38) 
-7.46

>  <m_primary>  (38) 
energy

$$$$
38:0
     RDKit          3D

 34 36  0  0  0  0  0  0  0  0999 V2000
   -3.7590   22.2360  -27.8460 C   0  0  0  0  0  0  0  0  0  0  0  0
   -3.9490   23.2780  -28.8970 C   0  0  0  0  0  0  0  0  0  0  0  0
   -3.0790   24.2900  -29.1430 N   0  0  0  0  0  0  0  0  0  0  0  0
   -3.5500   24.9740  -30.1560 O   0  0  0  0  0  0  0  0  0  0  0  0
   -4.6710   24.4400  -30.5680 C   0  0  0  0  0  0  0  0  0  0  0  0
   -5.4550   24.8570  -31.5910 N   0  0  0  0  0  0  0  0  0  0  0  0
   -6.5950   24.1550  -31.8730 C   0  0  0  0  0  0  0  0  0  0  0  0
   -6.9470   23.0090  -31.1110 C   0  0  0  0  0  0  0  0  0  0  0  0
   -8.4260   22.1170  -31.4600 S   0  0  0  0  0  0  0  0  0  0  0  0
   -8.9410   21.4850  -30.1980 O   0  0  0  0  0  0  0  0  0  0  0  0
   -9.4580   23.0920  -31.9560 O   0  0  0  0  0  0  0  0  0  0  0  0
   -8.1140   20.9140  -32.6930 N   0  0  0  0  0  0  0  0  0  0  0  0
   -6.7010   20.4860  -32.7460 C   0  0  0  0  0  0  0  0  0  0  0  0
   -6.3310   19.4900  -31.6380 C   0  0  0  0  0  0  0  0  0  0  0  0
   -7.2870   18.2980  -31.6400 C   0  0  0  0  0  0  0  0  0  0  0  0
   -8.7370   18.7690  -31.5380 C   0  0  0  0  0  0  0  0  0  0  0  0
   -9.0630   19.7830  -32.6450 C   0  0  0  0  0  0  0  0  0  0  0  0
   -6.1170   22.5990  -30.0490 C   0  0  0  0  0  0  0  0  0  0  0  0
   -4.9760   23.3550  -29.8100 C   0  0  0  0  0  0  0  0  0  0  0  0
   -3.8433   22.6986  -26.8516 H   0  0  0  0  0  0  0  0  0  0  0  0
   -4.5304   21.4595  -27.9558 H   0  0  0  0  0  0  0  0  0  0  0  0
   -2.7632   21.7817  -27.9558 H   0  0  0  0  0  0  0  0  0  0  0  0
   -7.2454   24.4813  -32.6979 H   0  0  0  0  0  0  0  0  0  0  0  0
   -6.5157   20.0103  -33.7204 H   0  0  0  0  0  0  0  0  0  0  0  0
   -6.0811   21.3830  -32.6008 H   0  0  0  0  0  0  0  0  0  0  0  0
   -5.3050   19.1299  -31.8044 H   0  0  0  0  0  0  0  0  0  0  0  0
   -6.4044   19.9998  -30.6661 H   0  0  0  0  0  0  0  0  0  0  0  0
   -7.1561   17.7316  -32.5738 H   0  0  0  0  0  0  0  0  0  0  0  0
   -7.0600   17.6609  -30.7725 H   0  0  0  0  0  0  0  0  0  0  0  0
   -9.4054   17.9010  -31.6365 H   0  0  0  0  0  0  0  0  0  0  0  0
   -8.8807   19.2557  -30.5621 H   0  0  0  0  0  0  0  0  0  0  0  0
   -9.0376   19.2634  -33.6142 H   0  0  0  0  0  0  0  0  0  0  0  0
  -10.0577   20.1987  -32.4263 H   0  0  0  0  0  0  0  0  0  0  0  0
   -6.3615   21.7190  -29.4359 H   0  0  0  0  0  0  0  0  0  0  0  0
  1  2  1  0
  2  3  2  0
  3  4  1  0
  4  5  1  0
  5  6  2  0
  6  7  1  0
  7  8  2  0
  8  9  1  0
  9 10  2  0
  9 11  2  0
  9 12  1  0
 12 13  1  0
 13 14  1  0
 14 15  1  0
 15 16  1  0
 16 17  1  0
  8 18  1  0
 18 19  2  0
 19  2  1  0
 19  5  1  0
 17 12  1  0
  1 20  1  0
  1 21  1  0
  1 22  1  0
  7 23  1  0
 13 24  1  0
 13 25  1  0
 14 26  1  0
 14 27  1  0
 15 28  1  0
 15 29  1  0
 16 30  1  0
 16 31  1  0
 17 32  1  0
 17 33  1  0
 18 34  1  0
M  END
>  <UniqueID>  (39) 
37

>  <SMILES>  (39) 
Cc1noc2ncc(S(=O)(=O)N3CCCCC3)cc12

>  <Energy>  (39) 
75.29840136982358

>  <Genealogy>  (39) 
Cc1noc2ncc(S(=O)(=O)N3CCCCC3)cc12 (3D coordinates assigned)
Cc1noc2ncc(S(=O)(=O)N3CCCCC3)cc12 (nonaromatic ring conformer: 75.29840136982358 kcal/mol)

>  <smiles>  (39) 
Cc1noc2ncc(S(=O)(=O)N3CCCCC3)cc12

>  <score_type>  (39) 
oracle

>  <origin>  (39) 
adgpu

>  <m_score__min__energy>  (39) 
-8.9000000000000004

>  <m_primary>  (39) 
energy

$$$$
39:0
     RDKit          3D

 48 50  0  0  0  0  0  0  0  0999 V2000
   -8.6990   20.5370  -32.6420 C   0  0  0  0  0  0  0  0  0  0  0  0
   -8.6560   21.5580  -31.5860 N   0  0  0  0  0  0  0  0  0  0  0  0
   -9.8600   21.7890  -30.7770 C   0  0  0  0  0  0  0  0  0  0  0  0
   -7.4450   22.3220  -31.3460 C   0  0  0  0  0  0  0  0  0  0  0  0
   -6.5690   22.6440  -32.4040 C   0  0  0  0  0  0  0  0  0  0  0  0
   -5.4040   23.3780  -32.1710 C   0  0  0  0  0  0  0  0  0  0  0  0
   -5.0740   23.7970  -30.8790 C   0  0  0  0  0  0  0  0  0  0  0  0
   -3.8810   24.5710  -30.6880 N   0  0  0  0  0  0  0  0  0  0  0  0
   -2.8630   24.3280  -29.7070 C   0  0  0  0  0  0  0  0  0  0  0  0
   -2.2160   25.2980  -29.2290 O   0  0  0  0  0  0  0  0  0  0  0  0
   -2.5900   22.9360  -29.2500 C   0  0  0  0  0  0  0  0  0  0  0  0
   -2.4210   22.6930  -27.8710 C   0  0  0  0  0  0  0  0  0  0  0  0
   -2.2430   21.3950  -27.3900 C   0  0  0  0  0  0  0  0  0  0  0  0
   -2.2310   20.3160  -28.2720 C   0  0  0  0  0  0  0  0  0  0  0  0
   -2.3870   20.5340  -29.6400 C   0  0  0  0  0  0  0  0  0  0  0  0
   -2.5540   21.8320  -30.1430 C   0  0  0  0  0  0  0  0  0  0  0  0
   -2.6860   22.0080  -31.5570 N   0  0  0  0  0  0  0  0  0  0  0  0
   -2.4580   20.6640  -32.6240 S   0  0  0  0  0  0  0  0  0  0  0  0
   -1.3260   19.8070  -32.1310 O   0  0  0  0  0  0  0  0  0  0  0  0
   -2.1200   21.1670  -33.9990 O   0  0  0  0  0  0  0  0  0  0  0  0
   -3.9520   19.7330  -32.6950 C   0  0  0  0  0  0  0  0  0  0  0  0
   -4.2860   19.0290  -33.8620 C   0  0  0  0  0  0  0  0  0  0  0  0
   -5.4980   18.3370  -33.9410 C   0  0  0  0  0  0  0  0  0  0  0  0
   -6.3830   18.3490  -32.8590 C   0  0  0  0  0  0  0  0  0  0  0  0
   -6.0580   19.0550  -31.6980 C   0  0  0  0  0  0  0  0  0  0  0  0
   -4.8460   19.7490  -31.6150 C   0  0  0  0  0  0  0  0  0  0  0  0
   -5.9490   23.5050  -29.8210 C   0  0  0  0  0  0  0  0  0  0  0  0
   -7.1160   22.7720  -30.0490 C   0  0  0  0  0  0  0  0  0  0  0  0
   -8.7411   19.5376  -32.1843 H   0  0  0  0  0  0  0  0  0  0  0  0
   -9.5914   20.6923  -33.2661 H   0  0  0  0  0  0  0  0  0  0  0  0
   -7.7967   20.6168  -33.2661 H   0  0  0  0  0  0  0  0  0  0  0  0
   -9.5996   21.7390  -29.7094 H   0  0  0  0  0  0  0  0  0  0  0  0
  -10.2718   22.7825  -31.0079 H   0  0  0  0  0  0  0  0  0  0  0  0
  -10.6103   21.0184  -31.0079 H   0  0  0  0  0  0  0  0  0  0  0  0
   -6.8067   22.3126  -33.4256 H   0  0  0  0  0  0  0  0  0  0  0  0
   -4.7402   23.6286  -33.0116 H   0  0  0  0  0  0  0  0  0  0  0  0
   -2.4296   23.5371  -27.1657 H   0  0  0  0  0  0  0  0  0  0  0  0
   -2.1118   21.2231  -26.3115 H   0  0  0  0  0  0  0  0  0  0  0  0
   -2.0986   19.2933  -27.8891 H   0  0  0  0  0  0  0  0  0  0  0  0
   -2.3790   19.6789  -30.3319 H   0  0  0  0  0  0  0  0  0  0  0  0
   -3.1160   22.8800  -31.9350 H   0  0  0  0  0  0  0  0  0  0  0  0
   -3.5929   19.0217  -34.7161 H   0  0  0  0  0  0  0  0  0  0  0  0
   -5.7556   17.7825  -34.8554 H   0  0  0  0  0  0  0  0  0  0  0  0
   -7.3355   17.8024  -32.9217 H   0  0  0  0  0  0  0  0  0  0  0  0
   -6.7560   19.0652  -30.8479 H   0  0  0  0  0  0  0  0  0  0  0  0
   -4.5942   20.3077  -30.7015 H   0  0  0  0  0  0  0  0  0  0  0  0
   -5.7141   23.8558  -28.8053 H   0  0  0  0  0  0  0  0  0  0  0  0
   -7.7867   22.5426  -29.2078 H   0  0  0  0  0  0  0  0  0  0  0  0
  1  2  1  0
  2  3  1  0
  2  4  1  0
  4  5  2  0
  5  6  1  0
  6  7  2  0
  7  8  1  0
  8  9  1  0
  9 10  2  0
  9 11  1  0
 11 12  2  0
 12 13  1  0
 13 14  2  0
 14 15  1  0
 15 16  2  0
 16 17  1  0
 17 18  1  0
 18 19  2  0
 18 20  2  0
 18 21  1  0
 21 22  2  0
 22 23  1  0
 23 24  2  0
 24 25  1  0
 25 26  2  0
  7 27  1  0
 27 28  2  0
 28  4  1  0
 16 11  1  0
 26 21  1  0
  1 29  1  0
  1 30  1  0
  1 31  1  0
  3 32  1  0
  3 33  1  0
  3 34  1  0
  5 35  1  0
  6 36  1  0
 12 37  1  0
 13 38  1  0
 14 39  1  0
 15 40  1  0
 17 41  1  0
 22 42  1  0
 23 43  1  0
 24 44  1  0
 25 45  1  0
 26 46  1  0
 27 47  1  0
 28 48  1  0
M  CHG  1   8  -1
M  END
>  <UniqueID>  (40) 
38

>  <SMILES>  (40) 
CN(C)c1ccc([N-]C(=O)c2ccccc2NS(=O)(=O)c2ccccc2)cc1

>  <Energy>  (40) 
63.8861656497111

>  <Genealogy>  (40) 
CN(C)c1ccc([N-]C(=O)c2ccccc2NS(=O)(=O)c2ccccc2)cc1 (protonated)
CN(C)c1ccc([N-]C(=O)c2ccccc2NS(=O)(=O)c2ccccc2)cc1 (3D coordinates assigned)
CN(C)c1ccc([N-]C(=O)c2ccccc2NS(=O)(=O)c2ccccc2)cc1 (optimized conformer: 63.8861656497111 kcal/mol)

>  <smiles>  (40) 
CN(C)c1ccc(NC(=O)c2ccccc2NS(=O)(=O)c2ccccc2)cc1

>  <score_type>  (40) 
oracle

>  <origin>  (40) 
adgpu

>  <m_score__min__energy>  (40) 
-10.609999999999999

>  <m_primary>  (40) 
energy

$$$$
40:0
     RDKit          3D

 49 50  0  0  0  0  0  0  0  0999 V2000
   -2.8770   22.1769  -31.9860 H   0  0  0  0  0  0  0  0  0  0  0  0
   -3.9760   22.1320  -32.0010 C   0  0  0  0  0  0  0  0  0  0  0  0
   -4.6220   21.1840  -32.8140 C   0  0  0  0  0  0  0  0  0  0  0  0
   -3.9110   20.2750  -33.6120 O   0  0  0  0  0  0  0  0  0  0  0  0
   -2.8630   19.4300  -33.1430 C   0  0  0  0  0  0  0  0  0  0  0  0
   -2.9543   19.3021  -32.0543 H   0  0  0  0  0  0  0  0  0  0  0  0
   -1.8903   19.8868  -33.3778 H   0  0  0  0  0  0  0  0  0  0  0  0
   -2.9640   18.0740  -33.8230 C   0  0  0  0  0  0  0  0  0  0  0  0
   -3.0228   17.2844  -33.0594 H   0  0  0  0  0  0  0  0  0  0  0  0
   -3.8668   18.0450  -34.4508 H   0  0  0  0  0  0  0  0  0  0  0  0
   -2.0755   17.9115  -34.4508 H   0  0  0  0  0  0  0  0  0  0  0  0
   -6.0210   21.1240  -32.8310 C   0  0  0  0  0  0  0  0  0  0  0  0
   -6.6370   20.1600  -33.6380 O   0  0  0  0  0  0  0  0  0  0  0  0
   -6.4450   18.7560  -33.4660 C   0  0  0  0  0  0  0  0  0  0  0  0
   -7.2243   18.2135  -34.0213 H   0  0  0  0  0  0  0  0  0  0  0  0
   -5.4492   18.4842  -33.8461 H   0  0  0  0  0  0  0  0  0  0  0  0
   -6.5280   18.3820  -31.9910 C   0  0  0  0  0  0  0  0  0  0  0  0
   -6.3305   19.2720  -31.3754 H   0  0  0  0  0  0  0  0  0  0  0  0
   -7.5335   17.9966  -31.7665 H   0  0  0  0  0  0  0  0  0  0  0  0
   -5.7799   17.6075  -31.7665 H   0  0  0  0  0  0  0  0  0  0  0  0
   -6.7830   22.0290  -32.0680 C   0  0  0  0  0  0  0  0  0  0  0  0
   -8.1840   21.9780  -32.1670 O   0  0  0  0  0  0  0  0  0  0  0  0
   -9.0410   21.0670  -31.4790 C   0  0  0  0  0  0  0  0  0  0  0  0
   -8.5088   20.6594  -30.6069 H   0  0  0  0  0  0  0  0  0  0  0  0
   -9.9445   21.6061  -31.1578 H   0  0  0  0  0  0  0  0  0  0  0  0
   -9.4550   19.9190  -32.3940 C   0  0  0  0  0  0  0  0  0  0  0  0
   -9.7656   19.0578  -31.7842 H   0  0  0  0  0  0  0  0  0  0  0  0
  -10.2939   20.2403  -33.0288 H   0  0  0  0  0  0  0  0  0  0  0  0
   -8.6041   19.6310  -33.0288 H   0  0  0  0  0  0  0  0  0  0  0  0
   -6.1210   22.9630  -31.2480 C   0  0  0  0  0  0  0  0  0  0  0  0
   -6.7107   23.6561  -30.6301 H   0  0  0  0  0  0  0  0  0  0  0  0
   -4.7180   23.0220  -31.2080 C   0  0  0  0  0  0  0  0  0  0  0  0
   -4.0330   24.0100  -30.3400 C   0  0  0  0  0  0  0  0  0  0  0  0
   -3.8610   25.1910  -30.7480 O   0  0  0  0  0  0  0  0  0  0  0  0
   -3.4860   23.5940  -29.0760 N   0  0  0  0  0  0  0  0  0  0  0  0
   -2.4280   24.0420  -28.4570 C   0  0  0  0  0  0  0  0  0  0  0  0
   -2.0280   23.3960  -27.2790 C   0  0  0  0  0  0  0  0  0  0  0  0
   -2.6090   22.5440  -26.8963 H   0  0  0  0  0  0  0  0  0  0  0  0
   -0.8890   23.8330  -26.5870 C   0  0  0  0  0  0  0  0  0  0  0  0
   -0.4820   23.1460  -25.3080 C   0  0  0  0  0  0  0  0  0  0  0  0
    0.8960   23.0200  -25.2210 F   0  0  0  0  0  0  0  0  0  0  0  0
   -1.0390   21.8790  -25.2510 F   0  0  0  0  0  0  0  0  0  0  0  0
   -0.9340   23.8880  -24.2290 F   0  0  0  0  0  0  0  0  0  0  0  0
   -0.1940   24.9490  -27.0690 C   0  0  0  0  0  0  0  0  0  0  0  0
    0.6923   25.3210  -26.5341 H   0  0  0  0  0  0  0  0  0  0  0  0
   -0.6300   25.5870  -28.2300 C   0  0  0  0  0  0  0  0  0  0  0  0
   -0.0825   26.4617  -28.6109 H   0  0  0  0  0  0  0  0  0  0  0  0
   -1.7280   25.1350  -28.8950 N   0  0  0  0  0  0  0  0  0  0  0  0
   -2.0330   25.6890  -29.7230 H   0  0  0  0  0  0  0  0  0  0  0  0
  1  2  1  0
  2  3  2  0
  3  4  1  0
  4  5  1  0
  5  6  1  0
  5  7  1  0
  5  8  1  0
  8  9  1  0
  8 10  1  0
  8 11  1  0
  3 12  1  0
 12 13  1  0
 13 14  1  0
 14 15  1  0
 14 16  1  0
 14 17  1  0
 17 18  1  0
 17 19  1  0
 17 20  1  0
 12 21  2  0
 21 22  1  0
 22 23  1  0
 23 24  1  0
 23 25  1  0
 23 26  1  0
 26 27  1  0
 26 28  1  0
 26 29  1  0
 21 30  1  0
 30 31  1  0
 30 32  2  0
 32 33  1  0
 33 34  2  0
 33 35  1  0
 35 36  2  0
 36 37  1  0
 37 38  1  0
 37 39  2  0
 39 40  1  0
 40 41  1  0
 40 42  1  0
 40 43  1  0
 39 44  1  0
 44 45  1  0
 44 46  2  0
 46 47  1  0
 46 48  1  0
 48 49  1  0
 32  2  1  0
 48 36  1  0
M  END
>  <UniqueID>  (41) 
39

>  <SMILES>  (41) 
CCOc1cc(C(=O)/N=c2/cc(C(F)(F)F)cc[nH]2)cc(OCC)c1OCC

>  <Energy>  (41) 
55.02234723133227

>  <Genealogy>  (41) 
CCOc1cc(C(=O)/N=c2/cc(C(F)(F)F)cc[nH]2)cc(OCC)c1OCC (cis-trans isomerization)
CCOc1cc(C(=O)/N=c2/cc(C(F)(F)F)cc[nH]2)cc(OCC)c1OCC (3D coordinates assigned)
CCOc1cc(C(=O)/N=c2/cc(C(F)(F)F)cc[nH]2)cc(OCC)c1OCC (optimized conformer: 55.02234723133227 kcal/mol)

>  <smiles>  (41) 
CCOc1cc(C(=O)N=c2cc(C(F)(F)F)cc[nH]2)cc(OCC)c1OCC

>  <score_type>  (41) 
oracle

>  <origin>  (41) 
adgpu

>  <m_score__min__energy>  (41) 
-7.25

>  <m_primary>  (41) 
energy

$$$$
41:0
     RDKit          3D

 45 47  0  0  0  0  0  0  0  0999 V2000
   -2.1806   26.3347  -28.4427 H   0  0  0  0  0  0  0  0  0  0  0  0
   -1.9860   25.2640  -28.6030 C   0  0  0  0  0  0  0  0  0  0  0  0
   -1.0630   24.5950  -27.7920 C   0  0  0  0  0  0  0  0  0  0  0  0
   -0.5268   25.1433  -27.0034 H   0  0  0  0  0  0  0  0  0  0  0  0
   -0.8200   23.2280  -27.9820 C   0  0  0  0  0  0  0  0  0  0  0  0
    0.3630   22.3770  -26.9930 S   0  0  0  0  0  0  0  0  0  0  0  0
    1.7310   22.9770  -27.1590 O   0  0  0  0  0  0  0  0  0  0  0  0
   -0.0420   22.4850  -25.5490 O   0  0  0  0  0  0  0  0  0  0  0  0
    0.4120   20.7030  -27.4480 N   0  0  0  0  0  0  0  0  0  0  0  0
   -0.5370   19.8510  -27.2050 C   0  0  0  0  0  0  0  0  0  0  0  0
   -0.4620   18.5550  -27.5630 N   0  0  0  0  0  0  0  0  0  0  0  0
   -1.5700   17.9990  -27.1640 O   0  0  0  0  0  0  0  0  0  0  0  0
   -2.3530   18.8730  -26.5700 C   0  0  0  0  0  0  0  0  0  0  0  0
   -3.6920   18.5580  -25.9940 C   0  0  0  0  0  0  0  0  0  0  0  0
   -3.6313   18.5723  -24.8958 H   0  0  0  0  0  0  0  0  0  0  0  0
   -4.4219   19.3090  -26.3307 H   0  0  0  0  0  0  0  0  0  0  0  0
   -4.0105   17.5604  -26.3307 H   0  0  0  0  0  0  0  0  0  0  0  0
   -1.7360   20.1050  -26.5630 C   0  0  0  0  0  0  0  0  0  0  0  0
   -2.1052   21.0551  -26.1495 H   0  0  0  0  0  0  0  0  0  0  0  0
   -1.5190   22.5330  -28.9770 C   0  0  0  0  0  0  0  0  0  0  0  0
   -1.3401   21.4575  -29.1229 H   0  0  0  0  0  0  0  0  0  0  0  0
   -2.4440   23.2020  -29.7860 C   0  0  0  0  0  0  0  0  0  0  0  0
   -3.0000   22.6463  -30.5555 H   0  0  0  0  0  0  0  0  0  0  0  0
   -2.6660   24.5740  -29.6220 C   0  0  0  0  0  0  0  0  0  0  0  0
   -3.6240   25.2250  -30.4670 N   0  0  0  0  0  0  0  0  0  0  0  0
   -4.9070   24.7030  -30.8340 C   0  0  0  0  0  0  0  0  0  0  0  0
   -5.9040   24.9800  -30.1180 O   0  0  0  0  0  0  0  0  0  0  0  0
   -5.0300   23.7900  -31.9320 N   0  0  0  0  0  0  0  0  0  0  0  0
   -5.9610   22.7020  -32.0440 C   0  0  0  0  0  0  0  0  0  0  0  0
   -5.5530   21.5390  -32.7080 C   0  0  0  0  0  0  0  0  0  0  0  0
   -4.5273   21.4663  -33.0986 H   0  0  0  0  0  0  0  0  0  0  0  0
   -6.4390   20.4660  -32.8800 C   0  0  0  0  0  0  0  0  0  0  0  0
   -5.9800   19.2070  -33.5570 C   0  0  0  0  0  0  0  0  0  0  0  0
   -5.7077   18.4602  -32.7967 H   0  0  0  0  0  0  0  0  0  0  0  0
   -6.7918   18.8116  -34.1852 H   0  0  0  0  0  0  0  0  0  0  0  0
   -5.1042   19.4268  -34.1852 H   0  0  0  0  0  0  0  0  0  0  0  0
   -7.7400   20.5540  -32.3660 C   0  0  0  0  0  0  0  0  0  0  0  0
   -8.4320   19.7067  -32.4813 H   0  0  0  0  0  0  0  0  0  0  0  0
   -8.1650   21.7170  -31.7050 C   0  0  0  0  0  0  0  0  0  0  0  0
   -9.5800   21.8370  -31.2220 C   0  0  0  0  0  0  0  0  0  0  0  0
   -9.5931   21.8381  -30.1221 H   0  0  0  0  0  0  0  0  0  0  0  0
  -10.0164   22.7754  -31.5949 H   0  0  0  0  0  0  0  0  0  0  0  0
  -10.1682   20.9855  -31.5949 H   0  0  0  0  0  0  0  0  0  0  0  0
   -7.2800   22.7980  -31.5690 C   0  0  0  0  0  0  0  0  0  0  0  0
   -7.6212   23.7263  -31.0875 H   0  0  0  0  0  0  0  0  0  0  0  0
  1  2  1  0
  2  3  2  0
  3  4  1  0
  3  5  1  0
  5  6  1  0
  6  7  2  0
  6  8  2  0
  6  9  1  0
  9 10  2  0
 10 11  1  0
 11 12  1  0
 12 13  1  0
 13 14  1  0
 14 15  1  0
 14 16  1  0
 14 17  1  0
 13 18  2  0
 18 19  1  0
  5 20  2  0
 20 21  1  0
 20 22  1  0
 22 23  1  0
 22 24  2  0
 24 25  1  0
 25 26  1  0
 26 27  2  0
 26 28  1  0
 28 29  1  0
 29 30  2  0
 30 31  1  0
 30 32  1  0
 32 33  1  0
 33 34  1  0
 33 35  1  0
 33 36  1  0
 32 37  2  0
 37 38  1  0
 37 39  1  0
 39 40  1  0
 40 41  1  0
 40 42  1  0
 40 43  1  0
 39 44  2  0
 44 45  1  0
 24  2  1  0
 44 29  1  0
 18 10  1  0
M  CHG  3  11  -1  25  -1  28  -1
M  END
>  <UniqueID>  (42) 
40

>  <SMILES>  (42) 
Cc1cc(C)cc([N-]C(=O)[N-]c2ccc(S(=O)(=O)/N=c3\cc(C)o[n-]3)cc2)c1

>  <Energy>  (42) 
85.03201883193728

>  <Genealogy>  (42) 
Cc1cc(C)cc([N-]C(=O)[N-]c2ccc(S(=O)(=O)N=c3cc(C)o[n-]3)cc2)c1 (protonated)
Cc1cc(C)cc([N-]C(=O)[N-]c2ccc(S(=O)(=O)/N=c3\cc(C)o[n-]3)cc2)c1 (cis-trans isomerization)
Cc1cc(C)cc([N-]C(=O)[N-]c2ccc(S(=O)(=O)/N=c3\cc(C)o[n-]3)cc2)c1 (3D coordinates assigned)
Cc1cc(C)cc([N-]C(=O)[N-]c2ccc(S(=O)(=O)/N=c3\cc(C)o[n-]3)cc2)c1 (optimized conformer: 85.03201883193728 kcal/mol)

>  <smiles>  (42) 
Cc1cc(C)cc(NC(=O)Nc2ccc(S(=O)(=O)N=c3cc(C)o[nH]3)cc2)c1

>  <score_type>  (42) 
oracle

>  <origin>  (42) 
adgpu

>  <m_score__min__energy>  (42) 
-12.390000000000001

>  <m_primary>  (42) 
energy

$$$$
42:0
     RDKit          3D

 36 38  0  0  0  0  0  0  0  0999 V2000
   -4.2960   25.6490  -30.5150 F   0  0  0  0  0  0  0  0  0  0  0  0
   -5.5240   25.1240  -30.1550 C   0  0  0  0  0  0  0  0  0  0  0  0
   -6.1540   26.0030  -29.2970 F   0  0  0  0  0  0  0  0  0  0  0  0
   -6.3050   24.9560  -31.2830 F   0  0  0  0  0  0  0  0  0  0  0  0
   -5.2970   23.5260  -29.3040 S   0  0  0  0  0  0  0  0  0  0  0  0
   -4.4130   22.7490  -30.6610 C   0  0  0  0  0  0  0  0  0  0  0  0
   -3.2030   22.0890  -30.4220 C   0  0  0  0  0  0  0  0  0  0  0  0
   -2.5190   21.4750  -31.4740 C   0  0  0  0  0  0  0  0  0  0  0  0
   -3.0370   21.5090  -32.7790 C   0  0  0  0  0  0  0  0  0  0  0  0
   -2.3080   20.8690  -33.8430 N   0  0  0  0  0  0  0  0  0  0  0  0
   -2.0990   19.4220  -33.9140 C   0  0  0  0  0  0  0  0  0  0  0  0
   -3.4060   18.6970  -33.8470 C   0  0  0  0  0  0  0  0  0  0  0  0
   -4.5350   19.2410  -33.3440 N   0  0  0  0  0  0  0  0  0  0  0  0
   -5.5710   18.3560  -33.3290 C   0  0  0  0  0  0  0  0  0  0  0  0
   -6.9040   18.7590  -32.8330 C   0  0  0  0  0  0  0  0  0  0  0  0
   -7.3810   20.0530  -33.0920 C   0  0  0  0  0  0  0  0  0  0  0  0
   -8.6330   20.4380  -32.6060 C   0  0  0  0  0  0  0  0  0  0  0  0
   -9.3770   19.5680  -31.8740 N   0  0  0  0  0  0  0  0  0  0  0  0
   -8.9330   18.3150  -31.5910 C   0  0  0  0  0  0  0  0  0  0  0  0
   -7.6870   17.8900  -32.0590 C   0  0  0  0  0  0  0  0  0  0  0  0
   -5.2530   17.0870  -33.8270 C   0  0  0  0  0  0  0  0  0  0  0  0
   -6.4280   15.6070  -34.1220 Br  0  0  0  0  0  0  0  0  0  0  0  0
   -3.6350   17.0910  -34.2820 S   0  0  0  0  0  0  0  0  0  0  0  0
   -4.2600   22.1690  -33.0100 C   0  0  0  0  0  0  0  0  0  0  0  0
   -4.9420   22.7810  -31.9540 C   0  0  0  0  0  0  0  0  0  0  0  0
   -2.7892   22.0534  -29.4034 H   0  0  0  0  0  0  0  0  0  0  0  0
   -1.5666   20.9605  -31.2786 H   0  0  0  0  0  0  0  0  0  0  0  0
   -1.9120   21.4730  -34.6010 H   0  0  0  0  0  0  0  0  0  0  0  0
   -1.5970   19.1753  -34.8612 H   0  0  0  0  0  0  0  0  0  0  0  0
   -1.4772   19.1114  -33.0615 H   0  0  0  0  0  0  0  0  0  0  0  0
   -6.7725   20.7604  -33.6745 H   0  0  0  0  0  0  0  0  0  0  0  0
   -9.0171   21.4471  -32.8163 H   0  0  0  0  0  0  0  0  0  0  0  0
   -9.5559   17.6341  -30.9923 H   0  0  0  0  0  0  0  0  0  0  0  0
   -7.3222   16.8797  -31.8218 H   0  0  0  0  0  0  0  0  0  0  0  0
   -4.6803   22.2030  -34.0260 H   0  0  0  0  0  0  0  0  0  0  0  0
   -5.8990   23.2898  -32.1418 H   0  0  0  0  0  0  0  0  0  0  0  0
  1  2  1  0
  2  3  1  0
  2  4  1  0
  2  5  1  0
  5  6  1  0
  6  7  2  0
  7  8  1  0
  8  9  2  0
  9 10  1  0
 10 11  1  0
 11 12  1  0
 12 13  2  0
 13 14  1  0
 14 15  1  0
 15 16  2  0
 16 17  1  0
 17 18  2  0
 18 19  1  0
 19 20  2  0
 14 21  2  0
 21 22  1  0
 21 23  1  0
  9 24  1  0
 24 25  2  0
 25  6  1  0
 23 12  1  0
 20 15  1  0
  7 26  1  0
  8 27  1  0
 10 28  1  0
 11 29  1  0
 11 30  1  0
 16 31  1  0
 17 32  1  0
 19 33  1  0
 20 34  1  0
 24 35  1  0
 25 36  1  0
M  END
>  <UniqueID>  (43) 
41

>  <SMILES>  (43) 
FC(F)(F)Sc1ccc(NCc2nc(-c3ccncc3)c(Br)s2)cc1

>  <Energy>  (43) 
69.33969536881983

>  <Genealogy>  (43) 
FC(F)(F)Sc1ccc(NCc2nc(-c3ccncc3)c(Br)s2)cc1 (3D coordinates assigned)
FC(F)(F)Sc1ccc(NCc2nc(-c3ccncc3)c(Br)s2)cc1 (optimized conformer: 69.33969536881983 kcal/mol)

>  <smiles>  (43) 
FC(F)(F)Sc1ccc(NCc2nc(-c3ccncc3)c(Br)s2)cc1

>  <score_type>  (43) 
oracle

>  <origin>  (43) 
adgpu

>  <m_score__min__energy>  (43) 
-8.5899999999999999

>  <m_primary>  (43) 
energy

$$$$
43:0
     RDKit          3D

 37 38  0  0  0  0  0  0  0  0999 V2000
   -9.5410   21.8390  -32.1730 C   0  0  0  0  0  0  0  0  0  0  0  0
   -8.3070   22.4450  -31.5750 C   0  0  0  0  0  0  0  0  0  0  0  0
   -7.4780   23.2730  -32.3500 C   0  0  0  0  0  0  0  0  0  0  0  0
   -6.3080   23.8080  -31.8040 C   0  0  0  0  0  0  0  0  0  0  0  0
   -5.9490   23.5160  -30.4820 C   0  0  0  0  0  0  0  0  0  0  0  0
   -4.4790   24.2010  -29.7970 S   0  0  0  0  0  0  0  0  0  0  0  0
   -4.7550   24.5920  -28.3730 O   0  0  0  0  0  0  0  0  0  0  0  0
   -4.0620   25.4290  -30.5590 O   0  0  0  0  0  0  0  0  0  0  0  0
   -3.1900   23.0240  -29.8660 N   0  0  0  0  0  0  0  0  0  0  0  0
   -2.2320   22.9890  -28.7510 C   0  0  0  0  0  0  0  0  0  0  0  0
   -1.2330   24.1470  -28.8480 C   0  0  0  0  0  0  0  0  0  0  0  0
   -1.9270   25.4270  -28.9550 N   0  0  0  0  0  0  0  0  0  0  0  0
   -3.0380   22.1230  -30.9920 C   0  0  0  0  0  0  0  0  0  0  0  0
   -2.2500   20.9550  -30.9140 C   0  0  0  0  0  0  0  0  0  0  0  0
   -2.1320   20.1240  -32.0300 C   0  0  0  0  0  0  0  0  0  0  0  0
   -2.7890   20.4500  -33.2150 C   0  0  0  0  0  0  0  0  0  0  0  0
   -3.5590   21.6100  -33.2680 C   0  0  0  0  0  0  0  0  0  0  0  0
   -3.6620   22.4080  -32.1720 N   0  0  0  0  0  0  0  0  0  0  0  0
   -6.7620   22.6720  -29.7140 C   0  0  0  0  0  0  0  0  0  0  0  0
   -7.9320   22.1350  -30.2580 C   0  0  0  0  0  0  0  0  0  0  0  0
  -10.2141   21.5084  -31.3682 H   0  0  0  0  0  0  0  0  0  0  0  0
  -10.0531   22.5881  -32.7948 H   0  0  0  0  0  0  0  0  0  0  0  0
   -9.2612   20.9758  -32.7948 H   0  0  0  0  0  0  0  0  0  0  0  0
   -7.7509   23.5012  -33.3909 H   0  0  0  0  0  0  0  0  0  0  0  0
   -5.6668   24.4607  -32.4146 H   0  0  0  0  0  0  0  0  0  0  0  0
   -2.7821   23.0672  -27.8016 H   0  0  0  0  0  0  0  0  0  0  0  0
   -1.6753   22.0414  -28.7972 H   0  0  0  0  0  0  0  0  0  0  0  0
   -0.6015   24.1541  -27.9474 H   0  0  0  0  0  0  0  0  0  0  0  0
   -0.6172   24.0051  -29.7484 H   0  0  0  0  0  0  0  0  0  0  0  0
   -1.9820   25.6750  -29.9690 H   0  0  0  0  0  0  0  0  0  0  0  0
   -2.9120   25.2910  -28.6290 H   0  0  0  0  0  0  0  0  0  0  0  0
   -1.7310   20.7002  -29.9782 H   0  0  0  0  0  0  0  0  0  0  0  0
   -1.5201   19.2116  -31.9737 H   0  0  0  0  0  0  0  0  0  0  0  0
   -2.7008   19.7995  -34.0976 H   0  0  0  0  0  0  0  0  0  0  0  0
   -4.0835   21.8802  -34.1964 H   0  0  0  0  0  0  0  0  0  0  0  0
   -6.4783   22.4311  -28.6789 H   0  0  0  0  0  0  0  0  0  0  0  0
   -8.5615   21.4669  -29.6520 H   0  0  0  0  0  0  0  0  0  0  0  0
  1  2  1  0
  2  3  2  0
  3  4  1  0
  4  5  2  0
  5  6  1  0
  6  7  2  0
  6  8  2  0
  6  9  1  0
  9 10  1  0
 10 11  1  0
 11 12  1  0
  9 13  1  0
 13 14  2  0
 14 15  1  0
 15 16  2  0
 16 17  1  0
 17 18  2  0
  5 19  1  0
 19 20  2  0
 20  2  1  0
 18 13  1  0
  1 21  1  0
  1 22  1  0
  1 23  1  0
  3 24  1  0
  4 25  1  0
 10 26  1  0
 10 27  1  0
 11 28  1  0
 11 29  1  0
 12 30  1  0
 12 31  1  0
 14 32  1  0
 15 33  1  0
 16 34  1  0
 17 35  1  0
 19 36  1  0
 20 37  1  0
M  END
>  <UniqueID>  (44) 
42

>  <SMILES>  (44) 
Cc1ccc(S(=O)(=O)N(CCN)c2ccccn2)cc1

>  <Energy>  (44) 
37.148042616681856

>  <Genealogy>  (44) 
Cc1ccc(S(=O)(=O)N(CCN)c2ccccn2)cc1 (3D coordinates assigned)
Cc1ccc(S(=O)(=O)N(CCN)c2ccccn2)cc1 (optimized conformer: 37.148042616681856 kcal/mol)

>  <smiles>  (44) 
Cc1ccc(S(=O)(=O)N(CCN)c2ccccn2)cc1

>  <score_type>  (44) 
oracle

>  <origin>  (44) 
adgpu

>  <m_score__min__energy>  (44) 
-7.5099999999999998

>  <m_primary>  (44) 
energy

$$$$
44:0
     RDKit          3D

 42 44  0  0  0  0  0  0  0  0999 V2000
   -1.5520   22.9520  -29.2990 O   0  0  0  0  0  0  0  0  0  0  0  0
   -2.2660   23.9160  -29.6870 C   0  0  0  0  0  0  0  0  0  0  0  0
   -1.9210   25.2540  -29.3000 N   0  0  0  0  0  0  0  0  0  0  0  0
   -1.5910   25.7060  -27.9780 C   0  0  0  0  0  0  0  0  0  0  0  0
   -2.2400   25.2150  -26.8320 C   0  0  0  0  0  0  0  0  0  0  0  0
   -1.8620   25.6730  -25.5680 C   0  0  0  0  0  0  0  0  0  0  0  0
   -0.8300   26.6070  -25.4590 C   0  0  0  0  0  0  0  0  0  0  0  0
   -0.1970   27.0550  -26.5740 N   0  0  0  0  0  0  0  0  0  0  0  0
   -0.5480   26.6240  -27.8170 C   0  0  0  0  0  0  0  0  0  0  0  0
   -3.4840   23.6500  -30.5000 C   0  0  0  0  0  0  0  0  0  0  0  0
   -3.7310   22.3420  -30.9660 C   0  0  0  0  0  0  0  0  0  0  0  0
   -4.8640   22.0540  -31.7360 C   0  0  0  0  0  0  0  0  0  0  0  0
   -5.1230   20.4130  -32.3250 S   0  0  0  0  0  0  0  0  0  0  0  0
   -5.2890   20.4610  -33.8180 O   0  0  0  0  0  0  0  0  0  0  0  0
   -3.9320   19.5530  -32.0000 O   0  0  0  0  0  0  0  0  0  0  0  0
   -6.5590   19.7380  -31.5930 N   0  0  0  0  0  0  0  0  0  0  0  0
   -7.5540   20.7990  -31.2980 C   0  0  0  0  0  0  0  0  0  0  0  0
   -8.6940   20.8540  -32.3250 C   0  0  0  0  0  0  0  0  0  0  0  0
   -9.4440   19.5140  -32.3960 C   0  0  0  0  0  0  0  0  0  0  0  0
   -8.5340   18.3080  -32.0980 C   0  0  0  0  0  0  0  0  0  0  0  0
   -7.0720   18.6260  -32.4240 C   0  0  0  0  0  0  0  0  0  0  0  0
   -5.7630   23.0780  -32.0580 C   0  0  0  0  0  0  0  0  0  0  0  0
   -5.5350   24.3760  -31.6040 C   0  0  0  0  0  0  0  0  0  0  0  0
   -4.4080   24.6710  -30.8310 C   0  0  0  0  0  0  0  0  0  0  0  0
   -4.2260   25.9810  -30.4020 O   0  0  0  0  0  0  0  0  0  0  0  0
   -3.0444   24.4712  -26.9306 H   0  0  0  0  0  0  0  0  0  0  0  0
   -2.3723   25.3015  -24.6671 H   0  0  0  0  0  0  0  0  0  0  0  0
   -0.5293   26.9804  -24.4690 H   0  0  0  0  0  0  0  0  0  0  0  0
   -0.0086   26.9996  -28.6990 H   0  0  0  0  0  0  0  0  0  0  0  0
   -3.0231   21.5365  -30.7209 H   0  0  0  0  0  0  0  0  0  0  0  0
   -7.9860   20.6081  -30.3045 H   0  0  0  0  0  0  0  0  0  0  0  0
   -7.0278   21.7642  -31.3382 H   0  0  0  0  0  0  0  0  0  0  0  0
   -9.4005   21.6456  -32.0347 H   0  0  0  0  0  0  0  0  0  0  0  0
   -8.2614   21.0637  -33.3144 H   0  0  0  0  0  0  0  0  0  0  0  0
  -10.2614   19.5286  -31.6600 H   0  0  0  0  0  0  0  0  0  0  0  0
   -9.8231   19.3990  -33.4222 H   0  0  0  0  0  0  0  0  0  0  0  0
   -8.6164   18.0507  -31.0317 H   0  0  0  0  0  0  0  0  0  0  0  0
   -8.8561   17.4640  -32.7257 H   0  0  0  0  0  0  0  0  0  0  0  0
   -6.4616   17.7300  -32.2380 H   0  0  0  0  0  0  0  0  0  0  0  0
   -7.0125   18.9290  -33.4798 H   0  0  0  0  0  0  0  0  0  0  0  0
   -6.6502   22.8579  -32.6699 H   0  0  0  0  0  0  0  0  0  0  0  0
   -6.2478   25.1750  -31.8560 H   0  0  0  0  0  0  0  0  0  0  0  0
  1  2  2  0
  2  3  1  0
  3  4  1  0
  4  5  2  0
  5  6  1  0
  6  7  2  0
  7  8  1  0
  8  9  2  0
  2 10  1  0
 10 11  2  0
 11 12  1  0
 12 13  1  0
 13 14  2  0
 13 15  2  0
 13 16  1  0
 16 17  1  0
 17 18  1  0
 18 19  1  0
 19 20  1  0
 20 21  1  0
 12 22  2  0
 22 23  1  0
 23 24  2  0
 24 25  1  0
  9  4  1  0
 24 10  1  0
 21 16  1  0
  5 26  1  0
  6 27  1  0
  7 28  1  0
  9 29  1  0
 11 30  1  0
 17 31  1  0
 17 32  1  0
 18 33  1  0
 18 34  1  0
 19 35  1  0
 19 36  1  0
 20 37  1  0
 20 38  1  0
 21 39  1  0
 21 40  1  0
 22 41  1  0
 23 42  1  0
M  CHG  2   3  -1  25  -1
M  END
>  <UniqueID>  (45) 
43

>  <SMILES>  (45) 
O=C([N-]c1cccnc1)c1cc(S(=O)(=O)N2CCCCC2)ccc1[O-]

>  <Energy>  (45) 
55.82652452690096

>  <Genealogy>  (45) 
O=C([N-]c1cccnc1)c1cc(S(=O)(=O)N2CCCCC2)ccc1[O-] (protonated)
O=C([N-]c1cccnc1)c1cc(S(=O)(=O)N2CCCCC2)ccc1[O-] (3D coordinates assigned)
O=C([N-]c1cccnc1)c1cc(S(=O)(=O)N2CCCCC2)ccc1[O-] (nonaromatic ring conformer: 55.82652452690096 kcal/mol)

>  <smiles>  (45) 
O=C(Nc1cccnc1)c1cc(S(=O)(=O)N2CCCCC2)ccc1O

>  <score_type>  (45) 
oracle

>  <origin>  (45) 
adgpu

>  <m_score__min__energy>  (45) 
-12.369999999999999

>  <m_primary>  (45) 
energy

$$$$
45:0
     RDKit          3D

 39 41  0  0  0  0  0  0  0  0999 V2000
   -5.3060   14.9540  -32.9830 O   0  0  0  0  0  0  0  0  0  0  0  0
   -5.3850   16.1440  -33.3910 C   0  0  0  0  0  0  0  0  0  0  0  0
   -6.6850   16.7320  -33.5410 N   0  0  0  0  0  0  0  0  0  0  0  0
   -7.1100   17.9910  -32.9980 C   0  0  0  0  0  0  0  0  0  0  0  0
   -6.6770   19.1740  -33.6100 C   0  0  0  0  0  0  0  0  0  0  0  0
   -7.0740   20.4150  -33.1050 C   0  0  0  0  0  0  0  0  0  0  0  0
   -7.9270   20.4870  -31.9960 C   0  0  0  0  0  0  0  0  0  0  0  0
   -8.3950   22.0470  -31.3340 S   0  0  0  0  0  0  0  0  0  0  0  0
   -9.2960   22.7680  -32.2980 O   0  0  0  0  0  0  0  0  0  0  0  0
   -9.1490   21.8520  -30.0480 O   0  0  0  0  0  0  0  0  0  0  0  0
   -6.9450   22.9980  -31.0410 C   0  0  0  0  0  0  0  0  0  0  0  0
   -5.6820   22.4720  -31.3510 C   0  0  0  0  0  0  0  0  0  0  0  0
   -4.5320   23.2380  -31.1420 C   0  0  0  0  0  0  0  0  0  0  0  0
   -4.6360   24.5340  -30.6250 C   0  0  0  0  0  0  0  0  0  0  0  0
   -3.4910   25.2930  -30.4170 O   0  0  0  0  0  0  0  0  0  0  0  0
   -5.8930   25.0650  -30.3210 C   0  0  0  0  0  0  0  0  0  0  0  0
   -7.0460   24.3010  -30.5310 C   0  0  0  0  0  0  0  0  0  0  0  0
   -8.3800   19.3050  -31.3940 C   0  0  0  0  0  0  0  0  0  0  0  0
   -7.9830   18.0630  -31.8980 C   0  0  0  0  0  0  0  0  0  0  0  0
   -4.1450   16.8740  -33.7480 C   0  0  0  0  0  0  0  0  0  0  0  0
   -3.2350   16.3370  -34.6750 C   0  0  0  0  0  0  0  0  0  0  0  0
   -2.0690   17.0330  -35.0060 C   0  0  0  0  0  0  0  0  0  0  0  0
   -1.7900   18.2680  -34.4050 C   0  0  0  0  0  0  0  0  0  0  0  0
   -0.6300   18.9670  -34.7320 O   0  0  0  0  0  0  0  0  0  0  0  0
   -2.6840   18.8000  -33.4680 C   0  0  0  0  0  0  0  0  0  0  0  0
   -2.4130   20.0230  -32.8640 O   0  0  0  0  0  0  0  0  0  0  0  0
   -3.8510   18.1050  -33.1380 C   0  0  0  0  0  0  0  0  0  0  0  0
   -6.0215   19.1260  -34.4921 H   0  0  0  0  0  0  0  0  0  0  0  0
   -6.7151   21.3397  -33.5805 H   0  0  0  0  0  0  0  0  0  0  0  0
   -5.5967   21.4543  -31.7595 H   0  0  0  0  0  0  0  0  0  0  0  0
   -3.5433   22.8213  -31.3844 H   0  0  0  0  0  0  0  0  0  0  0  0
   -5.9756   26.0845  -29.9163 H   0  0  0  0  0  0  0  0  0  0  0  0
   -8.0342   24.7230  -30.2957 H   0  0  0  0  0  0  0  0  0  0  0  0
   -9.0496   19.3548  -30.5227 H   0  0  0  0  0  0  0  0  0  0  0  0
   -8.3550   17.1385  -31.4323 H   0  0  0  0  0  0  0  0  0  0  0  0
   -3.4418   15.3631  -35.1428 H   0  0  0  0  0  0  0  0  0  0  0  0
   -1.3680   16.6101  -35.7406 H   0  0  0  0  0  0  0  0  0  0  0  0
   -0.4020   19.8500  -34.2910 H   0  0  0  0  0  0  0  0  0  0  0  0
   -4.5447   18.5252  -32.3948 H   0  0  0  0  0  0  0  0  0  0  0  0
  1  2  2  0
  2  3  1  0
  3  4  1  0
  4  5  2  0
  5  6  1  0
  6  7  2  0
  7  8  1  0
  8  9  2  0
  8 10  2  0
  8 11  1  0
 11 12  2  0
 12 13  1  0
 13 14  2  0
 14 15  1  0
 14 16  1  0
 16 17  2  0
  7 18  1  0
 18 19  2  0
  2 20  1  0
 20 21  2  0
 21 22  1  0
 22 23  2  0
 23 24  1  0
 23 25  1  0
 25 26  1  0
 25 27  2  0
 19  4  1  0
 27 20  1  0
 17 11  1  0
  5 28  1  0
  6 29  1  0
 12 30  1  0
 13 31  1  0
 16 32  1  0
 17 33  1  0
 18 34  1  0
 19 35  1  0
 21 36  1  0
 22 37  1  0
 24 38  1  0
 27 39  1  0
M  CHG  3   3  -1  15  -1  26  -1
M  END
>  <UniqueID>  (46) 
44

>  <SMILES>  (46) 
O=C([N-]c1ccc(S(=O)(=O)c2ccc([O-])cc2)cc1)c1ccc(O)c([O-])c1

>  <Energy>  (46) 
50.661857267782096

>  <Genealogy>  (46) 
O=C([N-]c1ccc(S(=O)(=O)c2ccc([O-])cc2)cc1)c1ccc(O)c([O-])c1 (protonated)
O=C([N-]c1ccc(S(=O)(=O)c2ccc([O-])cc2)cc1)c1ccc(O)c([O-])c1 (3D coordinates assigned)
O=C([N-]c1ccc(S(=O)(=O)c2ccc([O-])cc2)cc1)c1ccc(O)c([O-])c1 (optimized conformer: 50.661857267782096 kcal/mol)

>  <smiles>  (46) 
O=C(Nc1ccc(S(=O)(=O)c2ccc(O)cc2)cc1)c1ccc(O)c(O)c1

>  <score_type>  (46) 
oracle

>  <origin>  (46) 
adgpu

>  <m_score__min__energy>  (46) 
-11.83

>  <m_primary>  (46) 
energy

$$$$
46:0
     RDKit          3D

 49 51  0  0  0  0  0  0  0  0999 V2000
   -8.1660   18.5790  -32.6110 C   0  0  0  0  0  0  0  0  0  0  0  0
   -8.1710   20.0080  -32.1320 C   0  0  0  0  0  0  0  0  0  0  0  0
   -9.3680   20.7400  -32.1970 C   0  0  0  0  0  0  0  0  0  0  0  0
   -9.4120   22.0670  -31.7790 C   0  0  0  0  0  0  0  0  0  0  0  0
   -8.2690   22.6790  -31.2720 C   0  0  0  0  0  0  0  0  0  0  0  0
   -7.0640   21.9730  -31.1810 C   0  0  0  0  0  0  0  0  0  0  0  0
   -5.9250   22.6400  -30.6180 N   0  0  0  0  0  0  0  0  0  0  0  0
   -5.1260   23.5610  -31.3690 C   0  0  0  0  0  0  0  0  0  0  0  0
   -5.4220   23.8320  -32.5650 O   0  0  0  0  0  0  0  0  0  0  0  0
   -4.0060   24.1930  -30.7400 N   0  0  0  0  0  0  0  0  0  0  0  0
   -3.1070   23.5510  -29.8240 C   0  0  0  0  0  0  0  0  0  0  0  0
   -3.1710   22.1650  -29.6920 C   0  0  0  0  0  0  0  0  0  0  0  0
   -2.3320   21.5010  -28.8030 C   0  0  0  0  0  0  0  0  0  0  0  0
   -1.4040   22.2100  -28.0220 C   0  0  0  0  0  0  0  0  0  0  0  0
   -0.5360   21.4260  -27.0720 C   0  0  0  0  0  0  0  0  0  0  0  0
   -1.2850   23.6200  -28.1870 C   0  0  0  0  0  0  0  0  0  0  0  0
   -0.1140   24.5870  -27.2460 S   0  0  0  0  0  0  0  0  0  0  0  0
    1.0870   24.8850  -28.0990 O   0  0  0  0  0  0  0  0  0  0  0  0
    0.3760   23.8130  -26.0560 O   0  0  0  0  0  0  0  0  0  0  0  0
   -0.8030   26.1480  -26.6640 C   0  0  0  0  0  0  0  0  0  0  0  0
   -0.0450   26.7990  -25.5090 C   0  0  0  0  0  0  0  0  0  0  0  0
   -1.2620   26.6230  -24.6120 C   0  0  0  0  0  0  0  0  0  0  0  0
   -2.0240   25.9820  -25.7630 C   0  0  0  0  0  0  0  0  0  0  0  0
   -2.1360   24.2740  -29.1080 C   0  0  0  0  0  0  0  0  0  0  0  0
   -1.9940   25.6380  -29.3420 O   0  0  0  0  0  0  0  0  0  0  0  0
   -6.9890   20.6400  -31.6620 C   0  0  0  0  0  0  0  0  0  0  0  0
   -5.6710   19.8980  -31.6690 C   0  0  0  0  0  0  0  0  0  0  0  0
   -8.1636   17.9017  -31.7442 H   0  0  0  0  0  0  0  0  0  0  0  0
   -9.0635   18.3930  -33.2192 H   0  0  0  0  0  0  0  0  0  0  0  0
   -7.2672   18.3993  -33.2192 H   0  0  0  0  0  0  0  0  0  0  0  0
  -10.2797   20.2598  -32.5820 H   0  0  0  0  0  0  0  0  0  0  0  0
  -10.3523   22.6335  -31.8495 H   0  0  0  0  0  0  0  0  0  0  0  0
   -8.3133   23.7268  -30.9400 H   0  0  0  0  0  0  0  0  0  0  0  0
   -5.5440   22.2880  -29.7100 H   0  0  0  0  0  0  0  0  0  0  0  0
   -3.8904   21.5919  -30.2953 H   0  0  0  0  0  0  0  0  0  0  0  0
   -2.3960   20.4068  -28.7103 H   0  0  0  0  0  0  0  0  0  0  0  0
   -0.8100   21.6735  -26.0358 H   0  0  0  0  0  0  0  0  0  0  0  0
   -0.6842   20.3496  -27.2433 H   0  0  0  0  0  0  0  0  0  0  0  0
    0.5198   21.6826  -27.2433 H   0  0  0  0  0  0  0  0  0  0  0  0
   -0.8773   26.6662  -27.6314 H   0  0  0  0  0  0  0  0  0  0  0  0
    0.8410   26.2365  -25.1795 H   0  0  0  0  0  0  0  0  0  0  0  0
    0.4163   27.7898  -25.6337 H   0  0  0  0  0  0  0  0  0  0  0  0
   -1.0950   25.9523  -23.7563 H   0  0  0  0  0  0  0  0  0  0  0  0
   -1.6867   27.4853  -24.0772 H   0  0  0  0  0  0  0  0  0  0  0  0
   -2.3109   24.9353  -25.5839 H   0  0  0  0  0  0  0  0  0  0  0  0
   -3.0022   26.3787  -26.0724 H   0  0  0  0  0  0  0  0  0  0  0  0
   -5.3473   19.7158  -30.6336 H   0  0  0  0  0  0  0  0  0  0  0  0
   -5.7942   18.9367  -32.1892 H   0  0  0  0  0  0  0  0  0  0  0  0
   -4.9130   20.5019  -32.1892 H   0  0  0  0  0  0  0  0  0  0  0  0
  1  2  1  0
  2  3  2  0
  3  4  1  0
  4  5  2  0
  5  6  1  0
  6  7  1  0
  7  8  1  0
  8  9  2  0
  8 10  1  0
 10 11  1  0
 11 12  2  0
 12 13  1  0
 13 14  2  0
 14 15  1  0
 14 16  1  0
 16 17  1  0
 17 18  2  0
 17 19  2  0
 17 20  1  0
 20 21  1  0
 21 22  1  0
 22 23  1  0
 16 24  2  0
 24 25  1  0
  6 26  2  0
 26 27  1  0
 26  2  1  0
 24 11  1  0
 23 20  1  0
  1 28  1  0
  1 29  1  0
  1 30  1  0
  3 31  1  0
  4 32  1  0
  5 33  1  0
  7 34  1  0
 12 35  1  0
 13 36  1  0
 15 37  1  0
 15 38  1  0
 15 39  1  0
 20 40  1  0
 21 41  1  0
 21 42  1  0
 22 43  1  0
 22 44  1  0
 23 45  1  0
 23 46  1  0
 27 47  1  0
 27 48  1  0
 27 49  1  0
M  CHG  2  10  -1  25  -1
M  END
>  <UniqueID>  (47) 
45

>  <SMILES>  (47) 
Cc1cccc(NC(=O)[N-]c2ccc(C)c(S(=O)(=O)C3CCC3)c2[O-])c1C

>  <Energy>  (47) 
124.65386601230283

>  <Genealogy>  (47) 
Cc1cccc(NC(=O)[N-]c2ccc(C)c(S(=O)(=O)C3CCC3)c2[O-])c1C (protonated)
Cc1cccc(NC(=O)[N-]c2ccc(C)c(S(=O)(=O)C3CCC3)c2[O-])c1C (3D coordinates assigned)
Cc1cccc(NC(=O)[N-]c2ccc(C)c(S(=O)(=O)C3CCC3)c2[O-])c1C (nonaromatic ring conformer: 124.65386601230283 kcal/mol)

>  <smiles>  (47) 
Cc1cccc(NC(=O)Nc2ccc(C)c(S(=O)(=O)C3CCC3)c2O)c1C

>  <score_type>  (47) 
oracle

>  <origin>  (47) 
adgpu

>  <m_score__min__energy>  (47) 
-13.91

>  <m_primary>  (47) 
energy

$$$$
47:0
     RDKit          3D

 43 45  0  0  1  0  0  0  0  0999 V2000
   -3.5500   22.3000  -32.2520 C   0  0  0  0  0  0  0  0  0  0  0  0
   -4.8880   22.8120  -31.8930 C   0  0  0  0  0  0  0  0  0  0  0  0
   -6.0600   22.2800  -32.3830 C   0  0  0  0  0  0  0  0  0  0  0  0
   -7.3120   22.7470  -32.0610 C   0  0  0  0  0  0  0  0  0  0  0  0
   -7.4180   23.8150  -31.1960 C   0  0  0  0  0  0  0  0  0  0  0  0
   -6.2550   24.3710  -30.6880 C   0  0  0  0  0  0  0  0  0  0  0  0
   -6.4240   25.5240  -29.7620 C   0  0  0  0  0  0  0  0  0  0  0  0
   -4.9950   23.8760  -31.0310 C   0  0  0  0  0  0  0  0  0  0  0  0
   -3.8890   24.5330  -30.4340 N   0  0  0  0  0  0  0  0  0  0  0  0
   -3.3630   24.0870  -29.3500 C   0  0  0  0  0  0  0  0  0  0  0  0
   -3.8230   22.9640  -28.7000 C   0  0  0  0  0  0  0  0  0  0  0  0
   -3.1450   22.5960  -27.5500 C   0  0  0  0  0  0  0  0  0  0  0  0
   -2.0850   23.2910  -27.0770 N   0  0  0  0  0  0  0  0  0  0  0  0
   -1.6530   24.3830  -27.7270 C   0  0  0  0  0  0  0  0  0  0  0  0
   -0.5490   25.1730  -27.3360 N   0  0  0  0  0  0  0  0  0  0  0  0
    0.7810   24.6320  -27.6290 C   0  0  0  0  0  0  0  0  0  0  0  0
   -0.6280   26.4230  -26.6940 C   0  0  0  0  0  0  0  0  0  0  0  0
   -0.4380   27.5630  -27.4700 C   0  0  0  0  0  0  0  0  0  0  0  0
   -0.4860   28.8220  -26.8840 C   0  0  0  0  0  0  0  0  0  0  0  0
   -0.7190   29.0140  -25.5420 C   0  0  0  0  0  0  0  0  0  0  0  0
   -0.7680   30.6220  -24.8550 Cl  0  0  0  0  0  0  0  0  0  0  0  0
   -0.9100   27.8700  -24.7650 C   0  0  0  0  0  0  0  0  0  0  0  0
   -0.8620   26.6050  -25.3500 C   0  0  0  0  0  0  0  0  0  0  0  0
   -2.3070   24.7600  -28.8590 N   0  0  0  0  0  0  0  0  0  0  0  0
   -2.9824   22.0828  -31.3351 H   0  0  0  0  0  0  0  0  0  0  0  0
   -3.6565   21.3791  -32.8441 H   0  0  0  0  0  0  0  0  0  0  0  0
   -3.0146   23.0568  -32.8441 H   0  0  0  0  0  0  0  0  0  0  0  0
   -5.9897   21.4281  -33.0753 H   0  0  0  0  0  0  0  0  0  0  0  0
   -8.2118   22.2776  -32.4853 H   0  0  0  0  0  0  0  0  0  0  0  0
   -8.4030   24.2165  -30.9156 H   0  0  0  0  0  0  0  0  0  0  0  0
   -6.3721   25.1696  -28.7219 H   0  0  0  0  0  0  0  0  0  0  0  0
   -5.6238   26.2575  -29.9399 H   0  0  0  0  0  0  0  0  0  0  0  0
   -7.4011   25.9970  -29.9399 H   0  0  0  0  0  0  0  0  0  0  0  0
   -4.6833   22.3896  -29.0742 H   0  0  0  0  0  0  0  0  0  0  0  0
   -3.4811   21.7046  -27.0001 H   0  0  0  0  0  0  0  0  0  0  0  0
   -1.5820   23.0020  -26.2080 H   0  0  0  0  0  0  0  0  0  0  0  0
    1.3059   24.4185  -26.6862 H   0  0  0  0  0  0  0  0  0  0  0  0
    0.6793   23.7037  -28.2104 H   0  0  0  0  0  0  0  0  0  0  0  0
    1.3562   25.3676  -28.2104 H   0  0  0  0  0  0  0  0  0  0  0  0
   -0.2495   27.4669  -28.5495 H   0  0  0  0  0  0  0  0  0  0  0  0
   -0.3307   29.7046  -27.5218 H   0  0  0  0  0  0  0  0  0  0  0  0
   -1.0993   27.9669  -23.6858 H   0  0  0  0  0  0  0  0  0  0  0  0
   -1.0167   25.7207  -24.7143 H   0  0  0  0  0  0  0  0  0  0  0  0
  1  2  1  0
  2  3  2  0
  3  4  1  0
  4  5  2  0
  5  6  1  0
  6  7  1  0
  6  8  2  0
  8  9  1  0
  9 10  2  0
 10 11  1  0
 11 12  2  0
 12 13  1  0
 13 14  1  0
 14 15  1  0
 15 16  1  0
 15 17  1  0
 17 18  2  0
 18 19  1  0
 19 20  2  0
 20 21  1  0
 20 22  1  0
 22 23  2  0
 14 24  2  0
  8  2  1  0
 24 10  1  0
 23 17  1  0
  1 25  1  0
  1 26  1  0
  1 27  1  0
  3 28  1  0
  4 29  1  0
  5 30  1  0
  7 31  1  0
  7 32  1  0
  7 33  1  0
 11 34  1  0
 12 35  1  0
 13 36  1  0
 16 37  1  0
 16 38  1  0
 16 39  1  0
 18 40  1  0
 19 41  1  0
 22 42  1  0
 23 43  1  0
M  END
>  <smiles>  (48) 
Cc1cccc(C)c1N=c1cc[nH]c(N(C)c2ccc(Cl)cc2)n1

>  <score_type>  (48) 
oracle

>  <origin>  (48) 
adgpu

>  <m_score__min__energy>  (48) 
-8.4700000000000006

>  <m_primary>  (48) 
energy

$$$$
48:0
     RDKit          3D

 41 43  0  0  0  0  0  0  0  0999 V2000
   -0.5420   25.9266  -27.9195 H   0  0  0  0  0  0  0  0  0  0  0  0
   -1.2040   25.1000  -28.2170 C   0  0  0  0  0  0  0  0  0  0  0  0
   -2.1540   25.2990  -29.1670 N   0  0  0  0  0  0  0  0  0  0  0  0
   -2.9880   24.2950  -29.5490 C   0  0  0  0  0  0  0  0  0  0  0  0
   -3.8670   24.5210  -30.4800 N   0  0  0  0  0  0  0  0  0  0  0  0
   -4.8560   23.6020  -30.9750 C   0  0  0  0  0  0  0  0  0  0  0  0
   -6.0890   24.1060  -31.3980 C   0  0  0  0  0  0  0  0  0  0  0  0
   -6.2737   25.1900  -31.3675 H   0  0  0  0  0  0  0  0  0  0  0  0
   -7.0910   23.2450  -31.8600 C   0  0  0  0  0  0  0  0  0  0  0  0
   -8.0508   23.6587  -32.2030 H   0  0  0  0  0  0  0  0  0  0  0  0
   -6.8800   21.8550  -31.8890 C   0  0  0  0  0  0  0  0  0  0  0  0
   -7.9300   20.9150  -32.3690 C   0  0  0  0  0  0  0  0  0  0  0  0
   -9.1420   21.2650  -32.2790 O   0  0  0  0  0  0  0  0  0  0  0  0
   -7.5980   19.6330  -32.9600 N   0  0  0  0  0  0  0  0  0  0  0  0
   -8.3800   19.3380  -33.5910 H   0  0  0  0  0  0  0  0  0  0  0  0
   -6.3890   19.7410  -33.8000 C   0  0  0  0  0  0  0  0  0  0  0  0
   -6.5388   20.5350  -34.5464 H   0  0  0  0  0  0  0  0  0  0  0  0
   -5.5317   19.9785  -33.1530 H   0  0  0  0  0  0  0  0  0  0  0  0
   -6.1030   18.4090  -34.5290 C   0  0  0  0  0  0  0  0  0  0  0  0
   -6.5295   18.4650  -35.5414 H   0  0  0  0  0  0  0  0  0  0  0  0
   -5.0116   18.2734  -34.5497 H   0  0  0  0  0  0  0  0  0  0  0  0
   -6.6790   17.2400  -33.8410 N   0  0  0  0  0  0  0  0  0  0  0  0
   -7.6810   17.1320  -34.1240 H   0  0  0  0  0  0  0  0  0  0  0  0
   -6.6140   17.3870  -32.3830 C   0  0  0  0  0  0  0  0  0  0  0  0
   -7.0273   16.4816  -31.9146 H   0  0  0  0  0  0  0  0  0  0  0  0
   -5.5611   17.5318  -32.0994 H   0  0  0  0  0  0  0  0  0  0  0  0
   -7.4180   18.6150  -31.8960 C   0  0  0  0  0  0  0  0  0  0  0  0
   -8.4092   18.2771  -31.5594 H   0  0  0  0  0  0  0  0  0  0  0  0
   -6.8515   19.0829  -31.0774 H   0  0  0  0  0  0  0  0  0  0  0  0
   -5.6550   21.3480  -31.4200 C   0  0  0  0  0  0  0  0  0  0  0  0
   -5.4826   20.2616  -31.4143 H   0  0  0  0  0  0  0  0  0  0  0  0
   -4.6540   22.2090  -30.9610 C   0  0  0  0  0  0  0  0  0  0  0  0
   -3.7051   21.7965  -30.5876 H   0  0  0  0  0  0  0  0  0  0  0  0
   -2.8580   23.0630  -28.9810 N   0  0  0  0  0  0  0  0  0  0  0  0
   -1.9230   22.8170  -28.0240 C   0  0  0  0  0  0  0  0  0  0  0  0
   -1.8080   21.4500  -27.4160 C   0  0  0  0  0  0  0  0  0  0  0  0
   -0.9200   20.6720  -28.1380 F   0  0  0  0  0  0  0  0  0  0  0  0
   -1.3540   21.5570  -26.1150 F   0  0  0  0  0  0  0  0  0  0  0  0
   -3.0460   20.8340  -27.4190 F   0  0  0  0  0  0  0  0  0  0  0  0
   -1.0680   23.8480  -27.6190 C   0  0  0  0  0  0  0  0  0  0  0  0
   -0.3052   23.6744  -26.8457 H   0  0  0  0  0  0  0  0  0  0  0  0
  1  2  1  0
  2  3  1  0
  3  4  1  0
  4  5  2  0
  5  6  1  0
  6  7  2  0
  7  8  1  0
  7  9  1  0
  9 10  1  0
  9 11  2  0
 11 12  1  0
 12 13  2  0
 12 14  1  0
 14 15  1  0
 14 16  1  0
 16 17  1  0
 16 18  1  0
 16 19  1  0
 19 20  1  0
 19 21  1  0
 19 22  1  0
 22 23  1  0
 22 24  1  0
 24 25  1  0
 24 26  1  0
 24 27  1  0
 27 28  1  0
 27 29  1  0
 11 30  1  0
 30 31  1  0
 30 32  2  0
 32 33  1  0
  4 34  1  0
 34 35  2  0
 35 36  1  0
 36 37  1  0
 36 38  1  0
 36 39  1  0
 35 40  1  0
 40 41  1  0
 40  2  2  0
 32  6  1  0
 27 14  1  0
M  CHG  2   3  -1  14   1
M  END
>  <UniqueID>  (49) 
46

>  <SMILES>  (49) 
O=C(c1ccc(/N=c2\nc(C(F)(F)F)cc[n-]2)cc1)[NH+]1CCNCC1

>  <Energy>  (49) 
61.27185652754395

>  <Genealogy>  (49) 
O=C(c1ccc(N=c2nc(C(F)(F)F)cc[n-]2)cc1)[NH+]1CCNCC1 (protonated)
O=C(c1ccc(/N=c2\nc(C(F)(F)F)cc[n-]2)cc1)[NH+]1CCNCC1 (cis-trans isomerization)
O=C(c1ccc(/N=c2\nc(C(F)(F)F)cc[n-]2)cc1)[NH+]1CCNCC1 (3D coordinates assigned)
O=C(c1ccc(/N=c2\nc(C(F)(F)F)cc[n-]2)cc1)[NH+]1CCNCC1 (nonaromatic ring conformer: 61.27185652754395 kcal/mol)

>  <smiles>  (49) 
O=C(c1ccc(N=c2nc(C(F)(F)F)cc[nH]2)cc1)N1CCNCC1

>  <score_type>  (49) 
oracle

>  <origin>  (49) 
adgpu

>  <m_score__min__energy>  (49) 
-9.0700000000000003

>  <m_primary>  (49) 
energy

$$$$
49:0
     RDKit          3D

 47 50  0  0  0  0  0  0  0  0999 V2000
   -5.3540   25.6880  -30.4700 C   0  0  0  0  0  0  0  0  0  0  0  0
   -4.0280   25.1700  -30.4710 O   0  0  0  0  0  0  0  0  0  0  0  0
   -3.7010   23.8320  -30.2050 C   0  0  0  0  0  0  0  0  0  0  0  0
   -3.6580   23.3110  -28.8990 C   0  0  0  0  0  0  0  0  0  0  0  0
   -3.3260   21.9710  -28.6870 C   0  0  0  0  0  0  0  0  0  0  0  0
   -3.0350   21.1380  -29.7700 C   0  0  0  0  0  0  0  0  0  0  0  0
   -3.0750   21.6420  -31.0810 C   0  0  0  0  0  0  0  0  0  0  0  0
   -2.7670   20.7690  -32.2320 C   0  0  0  0  0  0  0  0  0  0  0  0
   -3.0540   19.4500  -32.2710 N   0  0  0  0  0  0  0  0  0  0  0  0
   -2.5950   19.0740  -33.4800 C   0  0  0  0  0  0  0  0  0  0  0  0
   -2.7050   17.6830  -34.0260 C   0  0  0  0  0  0  0  0  0  0  0  0
   -4.1040   17.3400  -34.2740 N   0  0  0  0  0  0  0  0  0  0  0  0
   -5.2250   17.9670  -33.6180 C   0  0  0  0  0  0  0  0  0  0  0  0
   -5.7160   17.4150  -32.4250 C   0  0  0  0  0  0  0  0  0  0  0  0
   -6.8040   17.9950  -31.7670 C   0  0  0  0  0  0  0  0  0  0  0  0
   -7.4280   19.1330  -32.2990 C   0  0  0  0  0  0  0  0  0  0  0  0
   -8.5710   19.7820  -31.5700 C   0  0  0  0  0  0  0  0  0  0  0  0
   -8.4740   21.2340  -31.6840 N   0  0  0  0  0  0  0  0  0  0  0  0
   -7.4180   22.0000  -31.3660 C   0  0  0  0  0  0  0  0  0  0  0  0
   -7.7820   23.3150  -31.5480 C   0  0  0  0  0  0  0  0  0  0  0  0
   -9.0640   23.3760  -31.9650 N   0  0  0  0  0  0  0  0  0  0  0  0
   -9.4560   22.0870  -32.0330 C   0  0  0  0  0  0  0  0  0  0  0  0
   -6.9300   19.7000  -33.4800 C   0  0  0  0  0  0  0  0  0  0  0  0
   -5.8410   19.1220  -34.1380 C   0  0  0  0  0  0  0  0  0  0  0  0
   -2.0660   20.1630  -34.1330 C   0  0  0  0  0  0  0  0  0  0  0  0
   -2.1840   21.1930  -33.3340 O   0  0  0  0  0  0  0  0  0  0  0  0
   -3.4090   22.9920  -31.2880 C   0  0  0  0  0  0  0  0  0  0  0  0
   -5.6948   25.8212  -29.4327 H   0  0  0  0  0  0  0  0  0  0  0  0
   -5.3691   26.6581  -30.9883 H   0  0  0  0  0  0  0  0  0  0  0  0
   -6.0227   24.9850  -30.9883 H   0  0  0  0  0  0  0  0  0  0  0  0
   -3.8867   23.9612  -28.0417 H   0  0  0  0  0  0  0  0  0  0  0  0
   -3.2935   21.5700  -27.6632 H   0  0  0  0  0  0  0  0  0  0  0  0
   -2.7736   20.0838  -29.5959 H   0  0  0  0  0  0  0  0  0  0  0  0
   -2.1437   17.6191  -34.9699 H   0  0  0  0  0  0  0  0  0  0  0  0
   -2.2907   16.9780  -33.2902 H   0  0  0  0  0  0  0  0  0  0  0  0
   -4.2950   16.6010  -34.9890 H   0  0  0  0  0  0  0  0  0  0  0  0
   -5.2400   16.5172  -32.0037 H   0  0  0  0  0  0  0  0  0  0  0  0
   -7.1727   17.5571  -30.8277 H   0  0  0  0  0  0  0  0  0  0  0  0
   -9.5217   19.4446  -32.0086 H   0  0  0  0  0  0  0  0  0  0  0  0
   -8.5298   19.4991  -30.5078 H   0  0  0  0  0  0  0  0  0  0  0  0
   -6.4370   21.6408  -31.0215 H   0  0  0  0  0  0  0  0  0  0  0  0
   -7.1280   24.1832  -31.3793 H   0  0  0  0  0  0  0  0  0  0  0  0
  -10.4635   21.7687  -32.3388 H   0  0  0  0  0  0  0  0  0  0  0  0
   -7.3993   20.6057  -33.8916 H   0  0  0  0  0  0  0  0  0  0  0  0
   -5.4626   19.5718  -35.0678 H   0  0  0  0  0  0  0  0  0  0  0  0
   -1.6251   20.1674  -35.1408 H   0  0  0  0  0  0  0  0  0  0  0  0
   -3.4415   23.3933  -32.3117 H   0  0  0  0  0  0  0  0  0  0  0  0
  1  2  1  0
  2  3  1  0
  3  4  2  0
  4  5  1  0
  5  6  2  0
  6  7  1  0
  7  8  1  0
  8  9  2  0
  9 10  1  0
 10 11  1  0
 11 12  1  0
 12 13  1  0
 13 14  2  0
 14 15  1  0
 15 16  2  0
 16 17  1  0
 17 18  1  0
 18 19  1  0
 19 20  2  0
 20 21  1  0
 21 22  2  0
 16 23  1  0
 23 24  2  0
 10 25  2  0
 25 26  1  0
  7 27  2  0
 27  3  1  0
 26  8  1  0
 24 13  1  0
 22 18  1  0
  1 28  1  0
  1 29  1  0
  1 30  1  0
  4 31  1  0
  5 32  1  0
  6 33  1  0
 11 34  1  0
 11 35  1  0
 12 36  1  0
 14 37  1  0
 15 38  1  0
 17 39  1  0
 17 40  1  0
 19 41  1  0
 20 42  1  0
 22 43  1  0
 23 44  1  0
 24 45  1  0
 25 46  1  0
 27 47  1  0
M  END
>  <UniqueID>  (50) 
47

>  <SMILES>  (50) 
COc1cccc(-c2nc(CNc3ccc(Cn4ccnc4)cc3)co2)c1

>  <Energy>  (50) 
106.01358641447761

>  <Genealogy>  (50) 
COc1cccc(-c2nc(CNc3ccc(Cn4ccnc4)cc3)co2)c1 (3D coordinates assigned)
COc1cccc(-c2nc(CNc3ccc(Cn4ccnc4)cc3)co2)c1 (optimized conformer: 106.01358641447761 kcal/mol)

>  <smiles>  (50) 
COc1cccc(-c2nc(CNc3ccc(Cn4ccnc4)cc3)co2)c1

>  <score_type>  (50) 
oracle

>  <origin>  (50) 
adgpu

>  <m_score__min__energy>  (50) 
-8.9600000000000009

>  <m_primary>  (50) 
energy

$$$$
