0:0
     RDKit          3D

 37 39  0  0  0  0  0  0  0  0999 V2000
   -9.3470   19.2610  -32.7230 C   0  0  0  0  0  0  0  0  0  0  0  0
   -8.4310   20.3120  -32.2520 N   0  0  0  0  0  0  0  0  0  0  0  0
   -7.0720   20.1780  -32.4040 C   0  0  0  0  0  0  0  0  0  0  0  0
   -6.5000   18.9950  -32.9830 N   0  0  0  0  0  0  0  0  0  0  0  0
   -6.7450   17.6900  -32.3640 C   0  0  0  0  0  0  0  0  0  0  0  0
   -6.8650   16.5840  -33.4340 C   0  0  0  0  0  0  0  0  0  0  0  0
   -6.1890   16.9020  -34.7070 N   0  0  0  0  0  0  0  0  0  0  0  0
   -5.0140   17.7620  -34.5150 C   0  0  0  0  0  0  0  0  0  0  0  0
   -5.4400   19.1360  -33.9830 C   0  0  0  0  0  0  0  0  0  0  0  0
   -6.2400   21.1760  -32.0040 N   0  0  0  0  0  0  0  0  0  0  0  0
   -6.7010   22.3110  -31.4210 C   0  0  0  0  0  0  0  0  0  0  0  0
   -5.7340   23.3600  -31.0050 C   0  0  0  0  0  0  0  0  0  0  0  0
   -4.3850   23.0250  -30.7920 C   0  0  0  0  0  0  0  0  0  0  0  0
   -3.4760   24.0130  -30.4080 C   0  0  0  0  0  0  0  0  0  0  0  0
   -3.8900   25.2970  -30.2510 N   0  0  0  0  0  0  0  0  0  0  0  0
   -5.1830   25.6590  -30.4600 C   0  0  0  0  0  0  0  0  0  0  0  0
   -6.1260   24.7020  -30.8440 C   0  0  0  0  0  0  0  0  0  0  0  0
   -8.0760   22.4430  -31.2010 C   0  0  0  0  0  0  0  0  0  0  0  0
   -8.9300   21.4230  -31.6220 C   0  0  0  0  0  0  0  0  0  0  0  0
  -10.1690   21.5430  -31.4110 O   0  0  0  0  0  0  0  0  0  0  0  0
   -9.7933   18.7489  -31.8578 H   0  0  0  0  0  0  0  0  0  0  0  0
  -10.1433   19.7144  -33.3316 H   0  0  0  0  0  0  0  0  0  0  0  0
   -8.7891   18.5341  -33.3316 H   0  0  0  0  0  0  0  0  0  0  0  0
   -5.9098   17.4492  -31.6898 H   0  0  0  0  0  0  0  0  0  0  0  0
   -7.6904   17.7398  -31.8039 H   0  0  0  0  0  0  0  0  0  0  0  0
   -6.4228   15.6618  -33.0289 H   0  0  0  0  0  0  0  0  0  0  0  0
   -7.9359   16.4770  -33.6613 H   0  0  0  0  0  0  0  0  0  0  0  0
   -6.8660   17.3970  -35.3350 H   0  0  0  0  0  0  0  0  0  0  0  0
   -4.3324   17.2889  -33.7928 H   0  0  0  0  0  0  0  0  0  0  0  0
   -4.5064   17.8948  -35.4818 H   0  0  0  0  0  0  0  0  0  0  0  0
   -4.5720   19.6304  -33.5225 H   0  0  0  0  0  0  0  0  0  0  0  0
   -5.8206   19.7385  -34.8210 H   0  0  0  0  0  0  0  0  0  0  0  0
   -4.0466   21.9872  -30.9275 H   0  0  0  0  0  0  0  0  0  0  0  0
   -2.4223   23.7508  -30.2323 H   0  0  0  0  0  0  0  0  0  0  0  0
   -5.4879   26.7074  -30.3266 H   0  0  0  0  0  0  0  0  0  0  0  0
   -7.1711   24.9966  -31.0198 H   0  0  0  0  0  0  0  0  0  0  0  0
   -8.4782   23.3378  -30.7034 H   0  0  0  0  0  0  0  0  0  0  0  0
  1  2  1  0
  2  3  1  0
  3  4  1  0
  4  5  1  0
  5  6  1  0
  6  7  1  0
  7  8  1  0
  8  9  1  0
  3 10  2  0
 10 11  1  0
 11 12  1  0
 12 13  2  0
 13 14  1  0
 14 15  2  0
 15 16  1  0
 16 17  2  0
 11 18  2  0
 18 19  1  0
 19 20  2  0
 19  2  1  0
  9  4  1  0
 17 12  1  0
  1 21  1  0
  1 22  1  0
  1 23  1  0
  5 24  1  0
  5 25  1  0
  6 26  1  0
  6 27  1  0
  7 28  1  0
  8 29  1  0
  8 30  1  0
  9 31  1  0
  9 32  1  0
 13 33  1  0
 14 34  1  0
 16 35  1  0
 17 36  1  0
 18 37  1  0
M  END
>  <UniqueID>  (1) 
1

>  <SMILES>  (1) 
Cn1c(N2CCNCC2)nc(-c2ccncc2)cc1=O

>  <Energy>  (1) 
55.28743002075505

>  <Genealogy>  (1) 
Cn1c(N2CCNCC2)nc(-c2ccncc2)cc1=O (3D coordinates assigned)
Cn1c(N2CCNCC2)nc(-c2ccncc2)cc1=O (nonaromatic ring conformer: 55.28743002075505 kcal/mol)

>  <smiles>  (1) 
Cn1c(N2CCNCC2)nc(-c2ccncc2)cc1=O

>  <score_type>  (1) 
oracle

>  <origin>  (1) 
adgpu

>  <m_score__min__energy>  (1) 
-7.8200000000000003

>  <m_primary>  (1) 
energy

$$$$
1:0
     RDKit          3D

 56 59  0  0  0  0  0  0  0  0999 V2000
   -4.4460   16.0330  -33.0360 C   0  0  0  0  0  0  0  0  0  0  0  0
   -5.8670   16.3170  -32.7660 N   0  0  0  0  0  0  0  0  0  0  0  0
   -6.0570   17.1320  -31.5430 C   0  0  0  0  0  0  0  0  0  0  0  0
   -6.1730   18.6430  -31.8260 C   0  0  0  0  0  0  0  0  0  0  0  0
   -5.4650   18.9730  -33.0720 N   0  0  0  0  0  0  0  0  0  0  0  0
   -5.2080   20.4210  -33.2490 C   0  0  0  0  0  0  0  0  0  0  0  0
   -6.1580   21.3150  -32.4750 C   0  0  0  0  0  0  0  0  0  0  0  0
   -5.6500   22.3540  -31.6760 C   0  0  0  0  0  0  0  0  0  0  0  0
   -6.5150   23.1780  -30.9350 C   0  0  0  0  0  0  0  0  0  0  0  0
   -6.0260   24.2380  -30.1020 N   0  0  0  0  0  0  0  0  0  0  0  0
   -5.1500   25.3020  -30.5010 C   0  0  0  0  0  0  0  0  0  0  0  0
   -5.6160   26.4170  -30.8540 O   0  0  0  0  0  0  0  0  0  0  0  0
   -3.7310   25.1140  -30.5000 N   0  0  0  0  0  0  0  0  0  0  0  0
   -3.0020   24.2000  -29.6670 C   0  0  0  0  0  0  0  0  0  0  0  0
   -3.2960   22.8300  -29.6530 C   0  0  0  0  0  0  0  0  0  0  0  0
   -2.5460   21.9580  -28.8640 C   0  0  0  0  0  0  0  0  0  0  0  0
   -1.4920   22.4370  -28.0790 C   0  0  0  0  0  0  0  0  0  0  0  0
   -0.5720   21.2520  -27.1580 Cl  0  0  0  0  0  0  0  0  0  0  0  0
   -1.1840   23.8160  -28.0760 C   0  0  0  0  0  0  0  0  0  0  0  0
    0.1450   24.4640  -27.0880 S   0  0  0  0  0  0  0  0  0  0  0  0
    1.3600   24.7160  -27.9370 O   0  0  0  0  0  0  0  0  0  0  0  0
    0.5300   23.4700  -26.0280 O   0  0  0  0  0  0  0  0  0  0  0  0
   -0.4170   25.9640  -26.2830 C   0  0  0  0  0  0  0  0  0  0  0  0
   -1.8580   25.9140  -25.8050 C   0  0  0  0  0  0  0  0  0  0  0  0
   -0.7190   25.8390  -24.7990 C   0  0  0  0  0  0  0  0  0  0  0  0
   -1.9300   24.6860  -28.9030 C   0  0  0  0  0  0  0  0  0  0  0  0
   -1.6120   26.0380  -28.9730 O   0  0  0  0  0  0  0  0  0  0  0  0
   -7.8980   22.9970  -31.0500 C   0  0  0  0  0  0  0  0  0  0  0  0
   -8.4130   21.9820  -31.8570 C   0  0  0  0  0  0  0  0  0  0  0  0
   -7.5520   21.1410  -32.5660 C   0  0  0  0  0  0  0  0  0  0  0  0
   -8.0790   20.1620  -33.3440 F   0  0  0  0  0  0  0  0  0  0  0  0
   -6.1040   18.3420  -34.2430 C   0  0  0  0  0  0  0  0  0  0  0  0
   -6.5500   16.8930  -33.9430 C   0  0  0  0  0  0  0  0  0  0  0  0
   -3.9063   15.9251  -32.0836 H   0  0  0  0  0  0  0  0  0  0  0  0
   -4.3617   15.1002  -33.6129 H   0  0  0  0  0  0  0  0  0  0  0  0
   -4.0096   16.8617  -33.6129 H   0  0  0  0  0  0  0  0  0  0  0  0
   -6.9781   16.7994  -31.0420 H   0  0  0  0  0  0  0  0  0  0  0  0
   -5.1660   16.9868  -30.9144 H   0  0  0  0  0  0  0  0  0  0  0  0
   -7.2341   18.9153  -31.9260 H   0  0  0  0  0  0  0  0  0  0  0  0
   -5.7229   19.2037  -30.9935 H   0  0  0  0  0  0  0  0  0  0  0  0
   -4.1822   20.6338  -32.9137 H   0  0  0  0  0  0  0  0  0  0  0  0
   -5.3595   20.6432  -34.3156 H   0  0  0  0  0  0  0  0  0  0  0  0
   -4.5642   22.5241  -31.6301 H   0  0  0  0  0  0  0  0  0  0  0  0
   -4.1217   22.4407  -30.2668 H   0  0  0  0  0  0  0  0  0  0  0  0
   -2.7854   20.8844  -28.8590 H   0  0  0  0  0  0  0  0  0  0  0  0
    0.1864   26.6528  -26.8925 H   0  0  0  0  0  0  0  0  0  0  0  0
   -2.4867   26.8151  -25.8580 H   0  0  0  0  0  0  0  0  0  0  0  0
   -2.7334   25.2897  -26.0370 H   0  0  0  0  0  0  0  0  0  0  0  0
   -0.5239   26.6858  -24.1246 H   0  0  0  0  0  0  0  0  0  0  0  0
   -0.4293   25.1381  -24.0022 H   0  0  0  0  0  0  0  0  0  0  0  0
   -8.5834   23.6592  -30.5006 H   0  0  0  0  0  0  0  0  0  0  0  0
   -9.5014   21.8435  -31.9352 H   0  0  0  0  0  0  0  0  0  0  0  0
   -6.9859   18.9338  -34.5292 H   0  0  0  0  0  0  0  0  0  0  0  0
   -5.3668   18.3105  -35.0588 H   0  0  0  0  0  0  0  0  0  0  0  0
   -7.6341   16.8901  -33.7568 H   0  0  0  0  0  0  0  0  0  0  0  0
   -6.2847   16.2770  -34.8149 H   0  0  0  0  0  0  0  0  0  0  0  0
  1  2  1  0
  2  3  1  0
  3  4  1  0
  4  5  1  0
  5  6  1  0
  6  7  1  0
  7  8  2  0
  8  9  1  0
  9 10  1  0
 10 11  1  0
 11 12  2  0
 11 13  1  0
 13 14  1  0
 14 15  2  0
 15 16  1  0
 16 17  2  0
 17 18  1  0
 17 19  1  0
 19 20  1  0
 20 21  2  0
 20 22  2  0
 20 23  1  0
 23 24  1  0
 24 25  1  0
 19 26  2  0
 26 27  1  0
  9 28  2  0
 28 29  1  0
 29 30  2  0
 30 31  1  0
  5 32  1  0
 32 33  1  0
 33  2  1  0
 30  7  1  0
 26 14  1  0
 25 23  1  0
  1 34  1  0
  1 35  1  0
  1 36  1  0
  3 37  1  0
  3 38  1  0
  4 39  1  0
  4 40  1  0
  6 41  1  0
  6 42  1  0
  8 43  1  0
 15 44  1  0
 16 45  1  0
 23 46  1  0
 24 47  1  0
 24 48  1  0
 25 49  1  0
 25 50  1  0
 28 51  1  0
 29 52  1  0
 32 53  1  0
 32 54  1  0
 33 55  1  0
 33 56  1  0
M  CHG  3  10  -1  13  -1  27  -1
M  END
>  <UniqueID>  (2) 
2

>  <SMILES>  (2) 
CN1CCN(Cc2cc([N-]C(=O)[N-]c3ccc(Cl)c(S(=O)(=O)C4CC4)c3[O-])ccc2F)CC1

>  <Energy>  (2) 
345.5077640036779

>  <Genealogy>  (2) 
CN1CCN(Cc2cc([N-]C(=O)[N-]c3ccc(Cl)c(S(=O)(=O)C4CC4)c3[O-])ccc2F)CC1 (protonated)
CN1CCN(Cc2cc([N-]C(=O)[N-]c3ccc(Cl)c(S(=O)(=O)C4CC4)c3[O-])ccc2F)CC1 (3D coordinates assigned)
CN1CCN(Cc2cc([N-]C(=O)[N-]c3ccc(Cl)c(S(=O)(=O)C4CC4)c3[O-])ccc2F)CC1 (nonaromatic ring conformer: 345.5077640036779 kcal/mol)

>  <smiles>  (2) 
CN1CCN(Cc2cc(NC(=O)Nc3ccc(Cl)c(S(=O)(=O)C4CC4)c3O)ccc2F)CC1

>  <score_type>  (2) 
oracle

>  <origin>  (2) 
adgpu

>  <m_score__min__energy>  (2) 
-16.260000000000002

>  <m_primary>  (2) 
energy

$$$$
2:0
     RDKit          3D

 44 47  0  0  0  0  0  0  0  0999 V2000
   -9.6030   21.6190  -31.8320 C   0  0  0  0  0  0  0  0  0  0  0  0
   -8.1810   21.3620  -32.1250 N   0  0  0  0  0  0  0  0  0  0  0  0
   -7.2330   22.2760  -31.7460 C   0  0  0  0  0  0  0  0  0  0  0  0
   -7.5960   23.3510  -31.1950 O   0  0  0  0  0  0  0  0  0  0  0  0
   -5.8650   22.0180  -31.9740 C   0  0  0  0  0  0  0  0  0  0  0  0
   -4.8050   22.8870  -31.5950 C   0  0  0  0  0  0  0  0  0  0  0  0
   -5.0380   24.4230  -30.6870 S   0  0  0  0  0  0  0  0  0  0  0  0
   -3.8850   23.9380  -29.4000 C   0  0  0  0  0  0  0  0  0  0  0  0
   -4.2430   22.9440  -28.4820 C   0  0  0  0  0  0  0  0  0  0  0  0
   -3.3540   22.5690  -27.4700 C   0  0  0  0  0  0  0  0  0  0  0  0
   -2.0990   23.1830  -27.3740 C   0  0  0  0  0  0  0  0  0  0  0  0
   -1.2220   22.8010  -26.3610 O   0  0  0  0  0  0  0  0  0  0  0  0
   -1.7380   24.1740  -28.2980 C   0  0  0  0  0  0  0  0  0  0  0  0
   -2.6280   24.5490  -29.3090 C   0  0  0  0  0  0  0  0  0  0  0  0
   -3.5250   22.5480  -31.8940 N   0  0  0  0  0  0  0  0  0  0  0  0
   -3.2160   21.3910  -32.5300 C   0  0  0  0  0  0  0  0  0  0  0  0
   -1.8020   21.0520  -32.8260 C   0  0  0  0  0  0  0  0  0  0  0  0
   -0.9310   20.6480  -31.7950 C   0  0  0  0  0  0  0  0  0  0  0  0
    0.3990   20.3260  -32.0760 C   0  0  0  0  0  0  0  0  0  0  0  0
    0.8780   20.4020  -33.3850 C   0  0  0  0  0  0  0  0  0  0  0  0
    0.0260   20.8020  -34.4190 C   0  0  0  0  0  0  0  0  0  0  0  0
    0.6280   20.8970  -36.0640 Cl  0  0  0  0  0  0  0  0  0  0  0  0
   -1.3080   21.1250  -34.1420 C   0  0  0  0  0  0  0  0  0  0  0  0
   -4.2130   20.5420  -32.8800 N   0  0  0  0  0  0  0  0  0  0  0  0
   -5.5230   20.8160  -32.6270 C   0  0  0  0  0  0  0  0  0  0  0  0
   -6.4930   19.9240  -32.9980 N   0  0  0  0  0  0  0  0  0  0  0  0
   -6.1090   18.6520  -33.6380 C   0  0  0  0  0  0  0  0  0  0  0  0
   -7.8080   20.1760  -32.7050 C   0  0  0  0  0  0  0  0  0  0  0  0
   -8.6860   19.3080  -32.9710 O   0  0  0  0  0  0  0  0  0  0  0  0
   -9.7538   21.6463  -30.7427 H   0  0  0  0  0  0  0  0  0  0  0  0
   -9.8983   22.5851  -32.2673 H   0  0  0  0  0  0  0  0  0  0  0  0
  -10.2178   20.8174  -32.2673 H   0  0  0  0  0  0  0  0  0  0  0  0
   -5.2263   22.4566  -28.5568 H   0  0  0  0  0  0  0  0  0  0  0  0
   -3.6409   21.7903  -26.7480 H   0  0  0  0  0  0  0  0  0  0  0  0
   -0.9020   23.4620  -25.6630 H   0  0  0  0  0  0  0  0  0  0  0  0
   -0.7525   24.6574  -28.2273 H   0  0  0  0  0  0  0  0  0  0  0  0
   -2.3406   25.3249  -30.0339 H   0  0  0  0  0  0  0  0  0  0  0  0
   -1.3010   20.5856  -30.7610 H   0  0  0  0  0  0  0  0  0  0  0  0
    1.0707   20.0117  -31.2635 H   0  0  0  0  0  0  0  0  0  0  0  0
    1.9256   20.1472  -33.6030 H   0  0  0  0  0  0  0  0  0  0  0  0
   -1.9748   21.4381  -34.9589 H   0  0  0  0  0  0  0  0  0  0  0  0
   -5.8835   17.9049  -32.8628 H   0  0  0  0  0  0  0  0  0  0  0  0
   -6.9384   18.2916  -34.2643 H   0  0  0  0  0  0  0  0  0  0  0  0
   -5.2187   18.8107  -34.2643 H   0  0  0  0  0  0  0  0  0  0  0  0
  1  2  1  0
  2  3  1  0
  3  4  2  0
  3  5  1  0
  5  6  2  0
  6  7  1  0
  7  8  1  0
  8  9  2  0
  9 10  1  0
 10 11  2  0
 11 12  1  0
 11 13  1  0
 13 14  2  0
  6 15  1  0
 15 16  2  0
 16 17  1  0
 17 18  2  0
 18 19  1  0
 19 20  2  0
 20 21  1  0
 21 22  1  0
 21 23  2  0
 16 24  1  0
 24 25  2  0
 25 26  1  0
 26 27  1  0
 26 28  1  0
 28 29  2  0
 28  2  1  0
 25  5  1  0
 14  8  1  0
 23 17  1  0
  1 30  1  0
  1 31  1  0
  1 32  1  0
  9 33  1  0
 10 34  1  0
 12 35  1  0
 13 36  1  0
 14 37  1  0
 18 38  1  0
 19 39  1  0
 20 40  1  0
 23 41  1  0
 27 42  1  0
 27 43  1  0
 27 44  1  0
M  END
>  <UniqueID>  (3) 
3

>  <SMILES>  (3) 
Cn1c(=O)c2c(Sc3ccc(O)cc3)nc(-c3cccc(Cl)c3)nc2n(C)c1=O

>  <Energy>  (3) 
61.09948093874938

>  <Genealogy>  (3) 
Cn1c(=O)c2c(Sc3ccc(O)cc3)nc(-c3cccc(Cl)c3)nc2n(C)c1=O (3D coordinates assigned)
Cn1c(=O)c2c(Sc3ccc(O)cc3)nc(-c3cccc(Cl)c3)nc2n(C)c1=O (optimized conformer: 61.09948093874938 kcal/mol)

>  <smiles>  (3) 
Cn1c(=O)c2c(Sc3ccc(O)cc3)nc(-c3cccc(Cl)c3)nc2n(C)c1=O

>  <score_type>  (3) 
oracle

>  <origin>  (3) 
adgpu

>  <m_score__min__energy>  (3) 
-8.2300000000000004

>  <m_primary>  (3) 
energy

$$$$
3:0
     RDKit          3D

 41 43  0  0  0  0  0  0  0  0999 V2000
   -9.4770   19.2980  -32.6680 C   0  0  0  0  0  0  0  0  0  0  0  0
   -8.2790   20.1680  -32.4340 C   0  0  0  0  0  0  0  0  0  0  0  0
   -8.3820   21.3140  -31.6320 C   0  0  0  0  0  0  0  0  0  0  0  0
   -7.2570   22.1050  -31.3830 C   0  0  0  0  0  0  0  0  0  0  0  0
   -6.0060   21.7450  -31.9110 C   0  0  0  0  0  0  0  0  0  0  0  0
   -4.8410   22.5530  -31.6800 N   0  0  0  0  0  0  0  0  0  0  0  0
   -3.6760   22.0470  -31.0700 N   0  0  0  0  0  0  0  0  0  0  0  0
   -3.4540   21.9350  -29.7470 C   0  0  0  0  0  0  0  0  0  0  0  0
   -4.6170   22.4570  -28.4780 S   0  0  0  0  0  0  0  0  0  0  0  0
   -4.4620   24.2750  -28.7250 C   0  0  2  0  0  0  0  0  0  0  0  0
   -5.7150   24.9390  -29.3230 C   0  0  0  0  0  0  0  0  0  0  0  0
   -5.3340   25.3750  -30.7510 C   0  0  0  0  0  0  0  0  0  0  0  0
   -3.9270   25.2280  -30.8380 O   0  0  0  0  0  0  0  0  0  0  0  0
   -3.4210   24.6020  -29.7220 C   0  0  0  0  0  0  0  0  0  0  0  0
   -2.1960   24.3480  -29.5780 O   0  0  0  0  0  0  0  0  0  0  0  0
   -2.2690   21.3490  -29.4660 N   0  0  0  0  0  0  0  0  0  0  0  0
   -1.7210   21.1190  -30.6790 C   0  0  0  0  0  0  0  0  0  0  0  0
   -0.3610   20.5340  -30.8740 C   0  0  0  0  0  0  0  0  0  0  0  0
   -2.5700   21.5700  -31.6730 C   0  0  0  0  0  0  0  0  0  0  0  0
   -2.3130   21.5480  -33.1500 C   0  0  0  0  0  0  0  0  0  0  0  0
   -5.9050   20.6010  -32.7150 C   0  0  0  0  0  0  0  0  0  0  0  0
   -7.0290   19.8100  -32.9640 C   0  0  0  0  0  0  0  0  0  0  0  0
   -9.9010   18.9901  -31.7009 H   0  0  0  0  0  0  0  0  0  0  0  0
  -10.2323   19.8595  -33.2374 H   0  0  0  0  0  0  0  0  0  0  0  0
   -9.1768   18.4060  -33.2374 H   0  0  0  0  0  0  0  0  0  0  0  0
   -9.3533   21.5917  -31.1967 H   0  0  0  0  0  0  0  0  0  0  0  0
   -7.3516   23.0139  -30.7706 H   0  0  0  0  0  0  0  0  0  0  0  0
   -4.9120   23.5780  -31.8640 H   0  0  0  0  0  0  0  0  0  0  0  0
   -4.2499   24.6409  -27.7095 H   0  0  0  0  0  0  0  0  0  0  0  0
   -6.5484   24.2217  -29.3534 H   0  0  0  0  0  0  0  0  0  0  0  0
   -6.0406   25.7971  -28.7166 H   0  0  0  0  0  0  0  0  0  0  0  0
   -5.8326   24.7339  -31.4929 H   0  0  0  0  0  0  0  0  0  0  0  0
   -5.6460   26.4100  -30.9547 H   0  0  0  0  0  0  0  0  0  0  0  0
    0.0973   20.3368  -29.8937 H   0  0  0  0  0  0  0  0  0  0  0  0
   -0.4442   19.5921  -31.4360 H   0  0  0  0  0  0  0  0  0  0  0  0
    0.2656   21.2422  -31.4360 H   0  0  0  0  0  0  0  0  0  0  0  0
   -1.2322   21.4555  -33.3328 H   0  0  0  0  0  0  0  0  0  0  0  0
   -2.8357   20.6913  -33.6004 H   0  0  0  0  0  0  0  0  0  0  0  0
   -2.6825   22.4811  -33.6004 H   0  0  0  0  0  0  0  0  0  0  0  0
   -4.9344   20.3245  -33.1526 H   0  0  0  0  0  0  0  0  0  0  0  0
   -6.9345   18.9023  -33.5782 H   0  0  0  0  0  0  0  0  0  0  0  0
  1  2  1  0
  2  3  2  0
  3  4  1  0
  4  5  2  0
  5  6  1  0
  6  7  1  0
  7  8  1  0
  8  9  1  0
  9 10  1  0
 10 11  1  0
 11 12  1  0
 12 13  1  0
 13 14  1  0
 14 15  2  0
  8 16  2  0
 16 17  1  0
 17 18  1  0
 17 19  2  0
 19 20  1  0
  5 21  1  0
 21 22  2  0
 22  2  1  0
 19  7  1  0
 14 10  1  0
  1 23  1  0
  1 24  1  0
  1 25  1  0
  3 26  1  0
  4 27  1  0
  6 28  1  0
 10 29  1  1
 11 30  1  0
 11 31  1  0
 12 32  1  0
 12 33  1  0
 18 34  1  0
 18 35  1  0
 18 36  1  0
 20 37  1  0
 20 38  1  0
 20 39  1  0
 21 40  1  0
 22 41  1  0
M  END
>  <UniqueID>  (4) 
4

>  <SMILES>  (4) 
Cc1ccc(Nn2c(S[C@@H]3CCOC3=O)nc(C)c2C)cc1

>  <Energy>  (4) 
81.64204665448962

>  <Genealogy>  (4) 
Cc1ccc(Nn2c(S[C@@H]3CCOC3=O)nc(C)c2C)cc1 (chirality)
Cc1ccc(Nn2c(S[C@@H]3CCOC3=O)nc(C)c2C)cc1 (3D coordinates assigned)
Cc1ccc(Nn2c(S[C@@H]3CCOC3=O)nc(C)c2C)cc1 (nonaromatic ring conformer: 81.64204665448962 kcal/mol)

>  <smiles>  (4) 
Cc1ccc(Nn2c(SC3CCOC3=O)nc(C)c2C)cc1

>  <score_type>  (4) 
oracle

>  <origin>  (4) 
adgpu

>  <m_score__min__energy>  (4) 
-8.5299999999999994

>  <m_primary>  (4) 
energy

$$$$
4:0
     RDKit          3D

 62 65  0  0  0  0  0  0  0  0999 V2000
   -6.8600   16.0250  -34.4490 C   0  0  0  0  0  0  0  0  0  0  0  0
   -5.5550   16.5970  -33.9610 C   0  0  0  0  0  0  0  0  0  0  0  0
   -4.3620   16.0510  -34.4610 C   0  0  0  0  0  0  0  0  0  0  0  0
   -3.1270   16.5450  -34.0520 C   0  0  0  0  0  0  0  0  0  0  0  0
   -3.0510   17.5970  -33.1410 C   0  0  0  0  0  0  0  0  0  0  0  0
   -1.7550   18.0440  -32.7240 N   0  0  0  0  0  0  0  0  0  0  0  0
   -0.8070   18.6530  -33.6040 C   0  0  0  0  0  0  0  0  0  0  0  0
    0.2920   18.0760  -33.8230 O   0  0  0  0  0  0  0  0  0  0  0  0
   -1.0960   19.9160  -34.2150 N   0  0  0  0  0  0  0  0  0  0  0  0
   -2.3470   20.6390  -34.0240 C   0  0  0  0  0  0  0  0  0  0  0  0
   -2.2930   21.3960  -32.7270 C   0  0  0  0  0  0  0  0  0  0  0  0
   -1.1540   21.3370  -31.9230 C   0  0  0  0  0  0  0  0  0  0  0  0
   -1.0660   22.1100  -30.7680 C   0  0  0  0  0  0  0  0  0  0  0  0
   -2.1160   22.9580  -30.3720 C   0  0  0  0  0  0  0  0  0  0  0  0
   -1.9310   23.9630  -28.9040 S   0  0  0  0  0  0  0  0  0  0  0  0
   -3.2610   24.0760  -28.2160 O   0  0  0  0  0  0  0  0  0  0  0  0
   -1.4890   25.3360  -29.3290 O   0  0  0  0  0  0  0  0  0  0  0  0
   -0.7990   23.3820  -27.7020 N   0  0  0  0  0  0  0  0  0  0  0  0
   -0.8060   24.1710  -26.4720 C   0  0  0  0  0  0  0  0  0  0  0  0
   -0.4500   23.2230  -25.3440 C   0  0  0  0  0  0  0  0  0  0  0  0
   -0.8670   21.8490  -25.8340 C   0  0  0  0  0  0  0  0  0  0  0  0
   -0.9840   21.9700  -27.3500 C   0  0  0  0  0  0  0  0  0  0  0  0
   -3.2780   23.0280  -31.1960 C   0  0  0  0  0  0  0  0  0  0  0  0
   -4.6840   24.0460  -30.8190 S   0  0  0  0  0  0  0  0  0  0  0  0
   -4.1710   25.6740  -30.5470 N   0  0  0  0  0  0  0  0  0  0  0  0
   -5.3630   23.5470  -29.5740 O   0  0  0  0  0  0  0  0  0  0  0  0
   -5.6850   24.0080  -31.9390 O   0  0  0  0  0  0  0  0  0  0  0  0
   -3.3440   22.2450  -32.3630 C   0  0  0  0  0  0  0  0  0  0  0  0
   -4.2380   18.1990  -32.6680 C   0  0  0  0  0  0  0  0  0  0  0  0
   -4.1900   19.3590  -31.8910 O   0  0  0  0  0  0  0  0  0  0  0  0
   -5.4950   17.6580  -33.0190 C   0  0  0  0  0  0  0  0  0  0  0  0
   -6.9620   18.3800  -32.3160 S   0  0  0  0  0  0  0  0  0  0  0  0
   -6.7380   18.6410  -30.8530 O   0  0  0  0  0  0  0  0  0  0  0  0
   -8.1360   17.4490  -32.4330 O   0  0  0  0  0  0  0  0  0  0  0  0
   -7.2820   19.9450  -33.1310 C   0  0  0  0  0  0  0  0  0  0  0  0
   -8.0490   20.9780  -32.3220 C   0  0  0  0  0  0  0  0  0  0  0  0
   -6.5460   21.1190  -32.5080 C   0  0  0  0  0  0  0  0  0  0  0  0
   -7.4855   15.7508  -33.5867 H   0  0  0  0  0  0  0  0  0  0  0  0
   -7.3844   16.7758  -35.0584 H   0  0  0  0  0  0  0  0  0  0  0  0
   -6.6633   15.1306  -35.0584 H   0  0  0  0  0  0  0  0  0  0  0  0
   -4.4040   15.2233  -35.1843 H   0  0  0  0  0  0  0  0  0  0  0  0
   -2.2029   16.1014  -34.4511 H   0  0  0  0  0  0  0  0  0  0  0  0
   -2.4936   21.3447  -34.8550 H   0  0  0  0  0  0  0  0  0  0  0  0
   -3.1836   19.9253  -33.9983 H   0  0  0  0  0  0  0  0  0  0  0  0
   -0.3207   20.6759  -32.2032 H   0  0  0  0  0  0  0  0  0  0  0  0
   -0.1560   22.0563  -30.1523 H   0  0  0  0  0  0  0  0  0  0  0  0
   -0.0631   24.9797  -26.5362 H   0  0  0  0  0  0  0  0  0  0  0  0
   -1.7899   24.6335  -26.3043 H   0  0  0  0  0  0  0  0  0  0  0  0
    0.6314   23.2497  -25.1442 H   0  0  0  0  0  0  0  0  0  0  0  0
   -0.9525   23.4947  -24.4040 H   0  0  0  0  0  0  0  0  0  0  0  0
   -0.1076   21.0995  -25.5664 H   0  0  0  0  0  0  0  0  0  0  0  0
   -1.8143   21.5253  -25.3780 H   0  0  0  0  0  0  0  0  0  0  0  0
   -0.2089   21.3586  -27.8352 H   0  0  0  0  0  0  0  0  0  0  0  0
   -1.9683   21.6149  -27.6893 H   0  0  0  0  0  0  0  0  0  0  0  0
   -3.5060   25.6530  -29.7410 H   0  0  0  0  0  0  0  0  0  0  0  0
   -4.2383   22.3013  -33.0010 H   0  0  0  0  0  0  0  0  0  0  0  0
   -4.7800   19.5070  -31.0820 H   0  0  0  0  0  0  0  0  0  0  0  0
   -7.3965   19.5256  -34.1415 H   0  0  0  0  0  0  0  0  0  0  0  0
   -8.7337   21.6749  -32.8275 H   0  0  0  0  0  0  0  0  0  0  0  0
   -8.7258   20.9418  -31.4556 H   0  0  0  0  0  0  0  0  0  0  0  0
   -6.1435   21.9181  -33.1479 H   0  0  0  0  0  0  0  0  0  0  0  0
   -5.6852   21.2271  -31.8317 H   0  0  0  0  0  0  0  0  0  0  0  0
  1  2  1  0
  2  3  2  0
  3  4  1  0
  4  5  2  0
  5  6  1  0
  6  7  1  0
  7  8  2  0
  7  9  1  0
  9 10  1  0
 10 11  1  0
 11 12  2  0
 12 13  1  0
 13 14  2  0
 14 15  1  0
 15 16  2  0
 15 17  2  0
 15 18  1  0
 18 19  1  0
 19 20  1  0
 20 21  1  0
 21 22  1  0
 14 23  1  0
 23 24  1  0
 24 25  1  0
 24 26  2  0
 24 27  2  0
 23 28  2  0
  5 29  1  0
 29 30  1  0
 29 31  2  0
 31 32  1  0
 32 33  2  0
 32 34  2  0
 32 35  1  0
 35 36  1  0
 36 37  1  0
 31  2  1  0
 37 35  1  0
 28 11  1  0
 22 18  1  0
  1 38  1  0
  1 39  1  0
  1 40  1  0
  3 41  1  0
  4 42  1  0
 10 43  1  0
 10 44  1  0
 12 45  1  0
 13 46  1  0
 19 47  1  0
 19 48  1  0
 20 49  1  0
 20 50  1  0
 21 51  1  0
 21 52  1  0
 22 53  1  0
 22 54  1  0
 25 55  1  0
 28 56  1  0
 30 57  1  0
 35 58  1  0
 36 59  1  0
 36 60  1  0
 37 61  1  0
 37 62  1  0
M  CHG  3   6  -1   9  -1  25  -1
M  END
>  <UniqueID>  (5) 
5

>  <SMILES>  (5) 
Cc1ccc([N-]C(=O)[N-]Cc2ccc(S(=O)(=O)N3CCCC3)c(S([NH-])(=O)=O)c2)c(O)c1S(=O)(=O)C1CC1

>  <Energy>  (5) 
341.18551378015746

>  <Genealogy>  (5) 
Cc1ccc([N-]C(=O)[N-]Cc2ccc(S(=O)(=O)N3CCCC3)c(S([NH-])(=O)=O)c2)c(O)c1S(=O)(=O)C1CC1 (protonated)
Cc1ccc([N-]C(=O)[N-]Cc2ccc(S(=O)(=O)N3CCCC3)c(S([NH-])(=O)=O)c2)c(O)c1S(=O)(=O)C1CC1 (3D coordinates assigned)
Cc1ccc([N-]C(=O)[N-]Cc2ccc(S(=O)(=O)N3CCCC3)c(S([NH-])(=O)=O)c2)c(O)c1S(=O)(=O)C1CC1 (nonaromatic ring conformer: 341.18551378015746 kcal/mol)

>  <smiles>  (5) 
Cc1ccc(NC(=O)NCc2ccc(S(=O)(=O)N3CCCC3)c(S(N)(=O)=O)c2)c(O)c1S(=O)(=O)C1CC1

>  <score_type>  (5) 
oracle

>  <origin>  (5) 
adgpu

>  <m_score__min__energy>  (5) 
-14.130000000000001

>  <m_primary>  (5) 
energy

$$$$
5:0
     RDKit          3D

 59 62  0  0  0  0  0  0  0  0999 V2000
    0.0970   19.4510  -31.1770 O   0  0  0  0  0  0  0  0  0  0  0  0
   -0.5170   20.5480  -31.2740 C   0  0  0  0  0  0  0  0  0  0  0  0
   -0.4720   21.2830  -32.5090 N   0  0  0  0  0  0  0  0  0  0  0  0
   -0.0870   20.6870  -33.7600 C   0  0  0  0  0  0  0  0  0  0  0  0
   -0.4490   19.3670  -34.0790 C   0  0  0  0  0  0  0  0  0  0  0  0
   -0.0810   18.8080  -35.3040 C   0  0  0  0  0  0  0  0  0  0  0  0
    0.6370   19.5660  -36.2430 C   0  0  0  0  0  0  0  0  0  0  0  0
    1.0450   18.9650  -37.5300 C   0  0  0  0  0  0  0  0  0  0  0  0
    0.2820   19.0680  -38.5300 O   0  0  0  0  0  0  0  0  0  0  0  0
    2.3080   18.2920  -37.6700 N   0  0  0  0  0  0  0  0  0  0  0  0
    2.7160   17.2910  -36.6700 C   0  0  0  0  0  0  0  0  0  0  0  0
    3.8180   16.3720  -37.2150 C   0  0  0  0  0  0  0  0  0  0  0  0
    5.0000   17.1680  -37.7930 C   0  0  0  0  0  0  0  0  0  0  0  0
    4.5840   18.4440  -38.5560 C   0  0  0  0  0  0  0  0  0  0  0  0
    3.0920   18.4680  -38.8970 C   0  0  0  0  0  0  0  0  0  0  0  0
    0.9930   20.8890  -35.9290 C   0  0  0  0  0  0  0  0  0  0  0  0
    0.6200   21.4480  -34.7020 C   0  0  0  0  0  0  0  0  0  0  0  0
   -1.2620   21.0570  -30.1020 C   0  0  0  0  0  0  0  0  0  0  0  0
   -1.3800   20.2510  -28.9580 C   0  0  0  0  0  0  0  0  0  0  0  0
   -2.0460   20.7230  -27.8250 C   0  0  0  0  0  0  0  0  0  0  0  0
   -2.5820   22.0110  -27.8120 C   0  0  0  0  0  0  0  0  0  0  0  0
   -2.4590   22.8340  -28.9390 C   0  0  0  0  0  0  0  0  0  0  0  0
   -3.0380   24.4980  -28.8970 S   0  0  0  0  0  0  0  0  0  0  0  0
   -1.9400   25.4190  -28.4410 O   0  0  0  0  0  0  0  0  0  0  0  0
   -4.1760   24.5900  -27.9200 O   0  0  0  0  0  0  0  0  0  0  0  0
   -3.5910   25.0020  -30.4690 N   0  0  0  0  0  0  0  0  0  0  0  0
   -5.0410   25.2140  -30.4840 C   0  0  0  0  0  0  0  0  0  0  0  0
   -5.7480   23.9750  -30.9690 C   0  0  0  0  0  0  0  0  0  0  0  0
   -5.0870   23.0410  -31.7860 C   0  0  0  0  0  0  0  0  0  0  0  0
   -5.7480   21.8790  -32.1880 C   0  0  0  0  0  0  0  0  0  0  0  0
   -7.0710   21.6700  -31.7900 C   0  0  0  0  0  0  0  0  0  0  0  0
   -7.7070   22.5960  -31.0200 N   0  0  0  0  0  0  0  0  0  0  0  0
   -7.0840   23.7320  -30.6100 C   0  0  0  0  0  0  0  0  0  0  0  0
   -1.8140   22.3510  -30.0860 C   0  0  0  0  0  0  0  0  0  0  0  0
   -0.7060   22.3000  -32.5100 H   0  0  0  0  0  0  0  0  0  0  0  0
   -1.0266   18.7699  -33.3580 H   0  0  0  0  0  0  0  0  0  0  0  0
   -0.3550   17.7680  -35.5350 H   0  0  0  0  0  0  0  0  0  0  0  0
    3.0926   17.8105  -35.7765 H   0  0  0  0  0  0  0  0  0  0  0  0
    1.8407   16.6726  -36.4220 H   0  0  0  0  0  0  0  0  0  0  0  0
    4.1854   15.7347  -36.3971 H   0  0  0  0  0  0  0  0  0  0  0  0
    3.3859   15.7687  -38.0270 H   0  0  0  0  0  0  0  0  0  0  0  0
    5.6590   17.4609  -36.9624 H   0  0  0  0  0  0  0  0  0  0  0  0
    5.5010   16.5115  -38.5197 H   0  0  0  0  0  0  0  0  0  0  0  0
    4.8164   19.3191  -37.9314 H   0  0  0  0  0  0  0  0  0  0  0  0
    5.1419   18.4613  -39.5039 H   0  0  0  0  0  0  0  0  0  0  0  0
    2.8370   19.4327  -39.3600 H   0  0  0  0  0  0  0  0  0  0  0  0
    2.8628   17.6528  -39.5991 H   0  0  0  0  0  0  0  0  0  0  0  0
    1.5675   21.4875  -36.6513 H   0  0  0  0  0  0  0  0  0  0  0  0
    0.8831   22.4916  -34.4746 H   0  0  0  0  0  0  0  0  0  0  0  0
   -0.9447   19.2408  -28.9544 H   0  0  0  0  0  0  0  0  0  0  0  0
   -2.1483   20.0774  -26.9402 H   0  0  0  0  0  0  0  0  0  0  0  0
   -3.1018   22.3807  -26.9158 H   0  0  0  0  0  0  0  0  0  0  0  0
   -5.3831   25.4514  -29.4659 H   0  0  0  0  0  0  0  0  0  0  0  0
   -5.2729   26.0466  -31.1645 H   0  0  0  0  0  0  0  0  0  0  0  0
   -4.0514   23.2255  -32.1077 H   0  0  0  0  0  0  0  0  0  0  0  0
   -5.2321   21.1347  -32.8124 H   0  0  0  0  0  0  0  0  0  0  0  0
   -7.5996   20.7562  -32.0991 H   0  0  0  0  0  0  0  0  0  0  0  0
   -7.6280   24.4639  -29.9948 H   0  0  0  0  0  0  0  0  0  0  0  0
   -1.7389   22.9880  -30.9796 H   0  0  0  0  0  0  0  0  0  0  0  0
  1  2  2  0
  2  3  1  0
  3  4  1  0
  4  5  2  0
  5  6  1  0
  6  7  2  0
  7  8  1  0
  8  9  2  0
  8 10  1  0
 10 11  1  0
 11 12  1  0
 12 13  1  0
 13 14  1  0
 14 15  1  0
  7 16  1  0
 16 17  2  0
  2 18  1  0
 18 19  2  0
 19 20  1  0
 20 21  2  0
 21 22  1  0
 22 23  1  0
 23 24  2  0
 23 25  2  0
 23 26  1  0
 26 27  1  0
 27 28  1  0
 28 29  2  0
 29 30  1  0
 30 31  2  0
 31 32  1  0
 32 33  2  0
 22 34  2  0
 17  4  1  0
 34 18  1  0
 15 10  1  0
 33 28  1  0
  3 35  1  0
  5 36  1  0
  6 37  1  0
 11 38  1  0
 11 39  1  0
 12 40  1  0
 12 41  1  0
 13 42  1  0
 13 43  1  0
 14 44  1  0
 14 45  1  0
 15 46  1  0
 15 47  1  0
 16 48  1  0
 17 49  1  0
 19 50  1  0
 20 51  1  0
 21 52  1  0
 27 53  1  0
 27 54  1  0
 29 55  1  0
 30 56  1  0
 31 57  1  0
 33 58  1  0
 34 59  1  0
M  CHG  1  26  -1
M  END
>  <UniqueID>  (6) 
6

>  <SMILES>  (6) 
O=C(Nc1ccc(C(=O)N2CCCCC2)cc1)c1cccc(S(=O)(=O)[N-]Cc2cccnc2)c1

>  <Energy>  (6) 
72.03368398825816

>  <Genealogy>  (6) 
O=C(Nc1ccc(C(=O)N2CCCCC2)cc1)c1cccc(S(=O)(=O)[N-]Cc2cccnc2)c1 (protonated)
O=C(Nc1ccc(C(=O)N2CCCCC2)cc1)c1cccc(S(=O)(=O)[N-]Cc2cccnc2)c1 (3D coordinates assigned)
O=C(Nc1ccc(C(=O)N2CCCCC2)cc1)c1cccc(S(=O)(=O)[N-]Cc2cccnc2)c1 (nonaromatic ring conformer: 72.03368398825816 kcal/mol)

>  <smiles>  (6) 
O=C(Nc1ccc(C(=O)N2CCCCC2)cc1)c1cccc(S(=O)(=O)NCc2cccnc2)c1

>  <score_type>  (6) 
oracle

>  <origin>  (6) 
adgpu

>  <m_score__min__energy>  (6) 
-11.23

>  <m_primary>  (6) 
energy

$$$$
6:0
     RDKit          3D

 43 45  0  0  0  0  0  0  0  0999 V2000
   -4.6600   23.3380  -31.6990 O   0  0  0  0  0  0  0  0  0  0  0  0
   -5.5590   23.1200  -30.8400 C   0  0  0  0  0  0  0  0  0  0  0  0
   -5.3070   23.4160  -29.4560 N   0  0  0  0  0  0  0  0  0  0  0  0
   -3.9870   23.5120  -28.8910 C   0  0  0  0  0  0  0  0  0  0  0  0
   -3.6030   22.6990  -27.8080 C   0  0  0  0  0  0  0  0  0  0  0  0
   -2.3260   22.8200  -27.2510 C   0  0  0  0  0  0  0  0  0  0  0  0
   -1.4270   23.7580  -27.7600 C   0  0  0  0  0  0  0  0  0  0  0  0
   -1.8030   24.5820  -28.8230 C   0  0  0  0  0  0  0  0  0  0  0  0
   -3.0780   24.4670  -29.3860 C   0  0  0  0  0  0  0  0  0  0  0  0
   -3.4330   25.2970  -30.4440 O   0  0  0  0  0  0  0  0  0  0  0  0
   -6.8780   22.6060  -31.2810 C   0  0  0  0  0  0  0  0  0  0  0  0
   -7.9360   23.4970  -31.5330 C   0  0  0  0  0  0  0  0  0  0  0  0
   -9.1770   23.0210  -31.9610 C   0  0  0  0  0  0  0  0  0  0  0  0
   -9.3780   21.6520  -32.1480 C   0  0  0  0  0  0  0  0  0  0  0  0
   -8.3360   20.7500  -31.9060 C   0  0  0  0  0  0  0  0  0  0  0  0
   -8.5910   19.0290  -32.1810 S   0  0  0  0  0  0  0  0  0  0  0  0
   -9.9090   18.8330  -32.8770 O   0  0  0  0  0  0  0  0  0  0  0  0
   -8.6300   18.2920  -30.8700 O   0  0  0  0  0  0  0  0  0  0  0  0
   -7.3170   18.4010  -33.1830 N   0  0  0  0  0  0  0  0  0  0  0  0
   -6.0210   18.4840  -32.4990 C   0  0  0  0  0  0  0  0  0  0  0  0
   -5.0340   19.2350  -33.3780 C   0  0  0  0  0  0  0  0  0  0  0  0
   -4.4220   18.1890  -34.2970 C   0  0  0  0  0  0  0  0  0  0  0  0
   -4.5420   16.8540  -33.5690 C   0  0  0  0  0  0  0  0  0  0  0  0
   -5.4160   17.0930  -32.3410 C   0  0  0  0  0  0  0  0  0  0  0  0
   -7.0870   21.2280  -31.4800 C   0  0  0  0  0  0  0  0  0  0  0  0
   -6.1220   23.6700  -28.8530 H   0  0  0  0  0  0  0  0  0  0  0  0
   -4.3114   21.9644  -27.3975 H   0  0  0  0  0  0  0  0  0  0  0  0
   -2.0299   22.1750  -26.4106 H   0  0  0  0  0  0  0  0  0  0  0  0
   -0.4213   23.8485  -27.3236 H   0  0  0  0  0  0  0  0  0  0  0  0
   -1.0939   25.3240  -29.2188 H   0  0  0  0  0  0  0  0  0  0  0  0
   -7.7850   24.5774  -31.3919 H   0  0  0  0  0  0  0  0  0  0  0  0
   -9.9989   23.7268  -32.1515 H   0  0  0  0  0  0  0  0  0  0  0  0
  -10.3571   21.2819  -32.4861 H   0  0  0  0  0  0  0  0  0  0  0  0
   -6.1892   18.9737  -31.5285 H   0  0  0  0  0  0  0  0  0  0  0  0
   -5.5537   20.0055  -33.9664 H   0  0  0  0  0  0  0  0  0  0  0  0
   -4.2668   19.7483  -32.7798 H   0  0  0  0  0  0  0  0  0  0  0  0
   -4.9694   18.1531  -35.2505 H   0  0  0  0  0  0  0  0  0  0  0  0
   -3.3726   18.4251  -34.5273 H   0  0  0  0  0  0  0  0  0  0  0  0
   -5.0099   16.1061  -34.2260 H   0  0  0  0  0  0  0  0  0  0  0  0
   -3.5512   16.4748  -33.2781 H   0  0  0  0  0  0  0  0  0  0  0  0
   -6.2128   16.3364  -32.2895 H   0  0  0  0  0  0  0  0  0  0  0  0
   -4.8266   17.0203  -31.4151 H   0  0  0  0  0  0  0  0  0  0  0  0
   -6.2645   20.5201  -31.3001 H   0  0  0  0  0  0  0  0  0  0  0  0
  1  2  2  0
  2  3  1  0
  3  4  1  0
  4  5  2  0
  5  6  1  0
  6  7  2  0
  7  8  1  0
  8  9  2  0
  9 10  1  0
  2 11  1  0
 11 12  2  0
 12 13  1  0
 13 14  2  0
 14 15  1  0
 15 16  1  0
 16 17  2  0
 16 18  2  0
 16 19  1  0
 19 20  1  0
 20 21  1  0
 21 22  1  0
 22 23  1  0
 23 24  1  0
 15 25  2  0
  9  4  1  0
 25 11  1  0
 24 20  1  0
  3 26  1  0
  5 27  1  0
  6 28  1  0
  7 29  1  0
  8 30  1  0
 12 31  1  0
 13 32  1  0
 14 33  1  0
 20 34  1  0
 21 35  1  0
 21 36  1  0
 22 37  1  0
 22 38  1  0
 23 39  1  0
 23 40  1  0
 24 41  1  0
 24 42  1  0
 25 43  1  0
M  CHG  2  10  -1  19  -1
M  END
>  <UniqueID>  (7) 
7

>  <SMILES>  (7) 
O=C(Nc1ccccc1[O-])c1cccc(S(=O)(=O)[N-]C2CCCC2)c1

>  <Energy>  (7) 
49.98559399271818

>  <Genealogy>  (7) 
O=C(Nc1ccccc1[O-])c1cccc(S(=O)(=O)[N-]C2CCCC2)c1 (protonated)
O=C(Nc1ccccc1[O-])c1cccc(S(=O)(=O)[N-]C2CCCC2)c1 (3D coordinates assigned)
O=C(Nc1ccccc1[O-])c1cccc(S(=O)(=O)[N-]C2CCCC2)c1 (nonaromatic ring conformer: 49.98559399271818 kcal/mol)

>  <smiles>  (7) 
O=C(Nc1ccccc1O)c1cccc(S(=O)(=O)NC2CCCC2)c1

>  <score_type>  (7) 
oracle

>  <origin>  (7) 
adgpu

>  <m_score__min__energy>  (7) 
-12.800000000000001

>  <m_primary>  (7) 
energy

$$$$
7:0
     RDKit          3D

 61 63  0  0  0  0  0  0  0  0999 V2000
   -5.3830   26.3850  -30.4340 C   0  0  0  0  0  0  0  0  0  0  0  0
   -5.0250   25.1400  -31.0260 O   0  0  0  0  0  0  0  0  0  0  0  0
   -5.9150   24.0750  -31.2290 C   0  0  0  0  0  0  0  0  0  0  0  0
   -5.8090   23.3360  -32.4130 C   0  0  0  0  0  0  0  0  0  0  0  0
   -6.6690   22.2620  -32.6600 C   0  0  0  0  0  0  0  0  0  0  0  0
   -7.6480   21.9110  -31.7210 C   0  0  0  0  0  0  0  0  0  0  0  0
   -8.7320   20.5600  -32.0490 S   0  0  0  0  0  0  0  0  0  0  0  0
  -10.1290   21.0640  -32.2920 O   0  0  0  0  0  0  0  0  0  0  0  0
   -8.7560   19.6520  -30.8520 O   0  0  0  0  0  0  0  0  0  0  0  0
   -8.1850   19.6650  -33.4340 N   0  0  0  0  0  0  0  0  0  0  0  0
   -6.9690   18.9190  -33.0970 C   0  0  0  0  0  0  0  0  0  0  0  0
   -5.8250   19.2840  -34.0540 C   0  0  0  0  0  0  0  0  0  0  0  0
   -4.8700   18.1140  -34.3160 C   0  0  0  0  0  0  0  0  0  0  0  0
   -3.6790   18.2330  -33.4810 N   0  0  0  0  0  0  0  0  0  0  0  0
   -2.8180   19.3790  -33.4360 C   0  0  0  0  0  0  0  0  0  0  0  0
   -1.9470   19.5170  -34.3350 O   0  0  0  0  0  0  0  0  0  0  0  0
   -2.8990   20.3810  -32.3560 C   0  0  0  0  0  0  0  0  0  0  0  0
   -4.0100   20.4290  -31.5000 C   0  0  0  0  0  0  0  0  0  0  0  0
   -4.0820   21.3960  -30.4920 C   0  0  0  0  0  0  0  0  0  0  0  0
   -3.0500   22.3290  -30.3330 C   0  0  0  0  0  0  0  0  0  0  0  0
   -3.1630   23.5540  -29.0720 S   0  0  0  0  0  0  0  0  0  0  0  0
   -2.7110   24.8720  -29.6400 O   0  0  0  0  0  0  0  0  0  0  0  0
   -4.5910   23.6930  -28.6190 O   0  0  0  0  0  0  0  0  0  0  0  0
   -2.1430   23.1080  -27.7270 N   0  0  0  0  0  0  0  0  0  0  0  0
   -0.7440   23.4610  -28.0190 C   0  0  0  0  0  0  0  0  0  0  0  0
    0.1380   23.2590  -26.7730 C   0  0  0  0  0  0  0  0  0  0  0  0
   -0.4820   22.2790  -25.7650 C   0  0  0  0  0  0  0  0  0  0  0  0
   -1.2000   21.1350  -26.4850 C   0  0  0  0  0  0  0  0  0  0  0  0
   -2.2740   21.6580  -27.4670 C   0  0  0  0  0  0  0  0  0  0  0  0
   -1.9520   22.3010  -31.2030 C   0  0  0  0  0  0  0  0  0  0  0  0
   -1.8800   21.3360  -32.2130 C   0  0  0  0  0  0  0  0  0  0  0  0
   -7.7650   22.6510  -30.5360 C   0  0  0  0  0  0  0  0  0  0  0  0
   -6.9040   23.7250  -30.2880 C   0  0  0  0  0  0  0  0  0  0  0  0
   -5.3560   26.2912  -29.3383 H   0  0  0  0  0  0  0  0  0  0  0  0
   -4.6716   27.1608  -30.7532 H   0  0  0  0  0  0  0  0  0  0  0  0
   -6.3979   26.6644  -30.7532 H   0  0  0  0  0  0  0  0  0  0  0  0
   -5.0424   23.6027  -33.1555 H   0  0  0  0  0  0  0  0  0  0  0  0
   -6.5768   21.6902  -33.5952 H   0  0  0  0  0  0  0  0  0  0  0  0
   -8.9370   18.9750  -33.6630 H   0  0  0  0  0  0  0  0  0  0  0  0
   -6.6697   19.1628  -32.0670 H   0  0  0  0  0  0  0  0  0  0  0  0
   -7.1775   17.8429  -33.1895 H   0  0  0  0  0  0  0  0  0  0  0  0
   -6.2584   19.6048  -35.0128 H   0  0  0  0  0  0  0  0  0  0  0  0
   -5.2412   20.0866  -33.5796 H   0  0  0  0  0  0  0  0  0  0  0  0
   -5.3825   17.1688  -34.0839 H   0  0  0  0  0  0  0  0  0  0  0  0
   -4.5676   18.1300  -35.3735 H   0  0  0  0  0  0  0  0  0  0  0  0
   -4.8275   19.7032  -31.6223 H   0  0  0  0  0  0  0  0  0  0  0  0
   -4.9533   21.4237  -29.8211 H   0  0  0  0  0  0  0  0  0  0  0  0
   -0.3721   22.8210  -28.8327 H   0  0  0  0  0  0  0  0  0  0  0  0
   -0.7002   24.5191  -28.3164 H   0  0  0  0  0  0  0  0  0  0  0  0
    1.1145   22.8658  -27.0922 H   0  0  0  0  0  0  0  0  0  0  0  0
    0.2379   24.2337  -26.2730 H   0  0  0  0  0  0  0  0  0  0  0  0
    0.3148   21.8619  -25.1317 H   0  0  0  0  0  0  0  0  0  0  0  0
   -1.2155   22.8232  -25.1519 H   0  0  0  0  0  0  0  0  0  0  0  0
   -0.4592   20.5478  -27.0475 H   0  0  0  0  0  0  0  0  0  0  0  0
   -1.7025   20.5162  -25.7270 H   0  0  0  0  0  0  0  0  0  0  0  0
   -2.1740   21.1179  -28.4201 H   0  0  0  0  0  0  0  0  0  0  0  0
   -3.2591   21.4875  -27.0081 H   0  0  0  0  0  0  0  0  0  0  0  0
   -1.1446   23.0397  -31.0914 H   0  0  0  0  0  0  0  0  0  0  0  0
   -1.0202   21.3253  -32.8990 H   0  0  0  0  0  0  0  0  0  0  0  0
   -8.5369   22.3859  -29.7985 H   0  0  0  0  0  0  0  0  0  0  0  0
   -6.9992   24.2989  -29.3544 H   0  0  0  0  0  0  0  0  0  0  0  0
  1  2  1  0
  2  3  1  0
  3  4  2  0
  4  5  1  0
  5  6  2  0
  6  7  1  0
  7  8  2  0
  7  9  2  0
  7 10  1  0
 10 11  1  0
 11 12  1  0
 12 13  1  0
 13 14  1  0
 14 15  1  0
 15 16  2  0
 15 17  1  0
 17 18  2  0
 18 19  1  0
 19 20  2  0
 20 21  1  0
 21 22  2  0
 21 23  2  0
 21 24  1  0
 24 25  1  0
 25 26  1  0
 26 27  1  0
 27 28  1  0
 28 29  1  0
 20 30  1  0
 30 31  2  0
  6 32  1  0
 32 33  2  0
 33  3  1  0
 31 17  1  0
 29 24  1  0
  1 34  1  0
  1 35  1  0
  1 36  1  0
  4 37  1  0
  5 38  1  0
 10 39  1  0
 11 40  1  0
 11 41  1  0
 12 42  1  0
 12 43  1  0
 13 44  1  0
 13 45  1  0
 18 46  1  0
 19 47  1  0
 25 48  1  0
 25 49  1  0
 26 50  1  0
 26 51  1  0
 27 52  1  0
 27 53  1  0
 28 54  1  0
 28 55  1  0
 29 56  1  0
 29 57  1  0
 30 58  1  0
 31 59  1  0
 32 60  1  0
 33 61  1  0
M  CHG  1  14  -1
M  END
>  <UniqueID>  (8) 
8

>  <SMILES>  (8) 
COc1ccc(S(=O)(=O)NCCC[N-]C(=O)c2ccc(S(=O)(=O)N3CCCCC3)cc2)cc1

>  <Energy>  (8) 
61.574762162610305

>  <Genealogy>  (8) 
COc1ccc(S(=O)(=O)NCCC[N-]C(=O)c2ccc(S(=O)(=O)N3CCCCC3)cc2)cc1 (protonated)
COc1ccc(S(=O)(=O)NCCC[N-]C(=O)c2ccc(S(=O)(=O)N3CCCCC3)cc2)cc1 (3D coordinates assigned)
COc1ccc(S(=O)(=O)NCCC[N-]C(=O)c2ccc(S(=O)(=O)N3CCCCC3)cc2)cc1 (nonaromatic ring conformer: 61.574762162610305 kcal/mol)

>  <smiles>  (8) 
COc1ccc(S(=O)(=O)NCCCNC(=O)c2ccc(S(=O)(=O)N3CCCCC3)cc2)cc1

>  <score_type>  (8) 
oracle

>  <origin>  (8) 
adgpu

>  <m_score__min__energy>  (8) 
-11.4

>  <m_primary>  (8) 
energy

$$$$
8:0
     RDKit          3D

 55 58  0  0  0  0  0  0  0  0999 V2000
    1.0070   19.6420  -31.4750 C   0  0  0  0  0  0  0  0  0  0  0  0
    0.1660   19.7360  -32.6230 O   0  0  0  0  0  0  0  0  0  0  0  0
    0.6110   19.9960  -33.9260 C   0  0  0  0  0  0  0  0  0  0  0  0
    1.7470   20.8000  -34.1490 C   0  0  0  0  0  0  0  0  0  0  0  0
    2.2060   21.0360  -35.4420 C   0  0  0  0  0  0  0  0  0  0  0  0
    1.5320   20.4700  -36.5170 C   0  0  0  0  0  0  0  0  0  0  0  0
    0.4330   19.7050  -36.3000 N   0  0  0  0  0  0  0  0  0  0  0  0
   -0.0600   19.4490  -35.0570 C   0  0  0  0  0  0  0  0  0  0  0  0
   -1.1350   18.7090  -34.9890 N   0  0  0  0  0  0  0  0  0  0  0  0
   -2.0770   18.2110  -33.6160 S   0  0  0  0  0  0  0  0  0  0  0  0
   -3.0970   17.2070  -34.0710 O   0  0  0  0  0  0  0  0  0  0  0  0
   -1.1870   17.5520  -32.5980 O   0  0  0  0  0  0  0  0  0  0  0  0
   -2.9290   19.5950  -32.9380 C   0  0  0  0  0  0  0  0  0  0  0  0
   -4.1630   19.9790  -33.4760 C   0  0  0  0  0  0  0  0  0  0  0  0
   -4.8350   21.0970  -32.9730 C   0  0  0  0  0  0  0  0  0  0  0  0
   -4.2670   21.8560  -31.9390 C   0  0  0  0  0  0  0  0  0  0  0  0
   -4.9440   23.0740  -31.4450 C   0  0  0  0  0  0  0  0  0  0  0  0
   -5.4990   23.8550  -32.2630 O   0  0  0  0  0  0  0  0  0  0  0  0
   -5.0090   23.3690  -30.0440 N   0  0  0  0  0  0  0  0  0  0  0  0
   -3.9300   23.1460  -29.1240 C   0  0  0  0  0  0  0  0  0  0  0  0
   -3.8520   21.9580  -28.3880 C   0  0  0  0  0  0  0  0  0  0  0  0
   -2.8180   21.7610  -27.4790 C   0  0  0  0  0  0  0  0  0  0  0  0
   -1.8450   22.7500  -27.2740 C   0  0  0  0  0  0  0  0  0  0  0  0
   -0.7780   22.4960  -26.2410 C   0  0  0  0  0  0  0  0  0  0  0  0
   -1.8830   23.9400  -28.0500 C   0  0  0  0  0  0  0  0  0  0  0  0
   -0.6740   25.2300  -27.8220 S   0  0  0  0  0  0  0  0  0  0  0  0
    0.6860   24.7150  -28.1990 O   0  0  0  0  0  0  0  0  0  0  0  0
   -0.9770   26.3940  -28.7230 O   0  0  0  0  0  0  0  0  0  0  0  0
   -0.6110   25.8300  -26.1300 C   0  0  0  0  0  0  0  0  0  0  0  0
   -1.9350   25.9760  -25.3920 C   0  0  0  0  0  0  0  0  0  0  0  0
   -1.2340   27.2040  -25.9460 C   0  0  0  0  0  0  0  0  0  0  0  0
   -2.9400   24.1240  -28.9710 C   0  0  0  0  0  0  0  0  0  0  0  0
   -3.0330   25.2910  -29.7220 O   0  0  0  0  0  0  0  0  0  0  0  0
   -3.0390   21.4540  -31.3850 C   0  0  0  0  0  0  0  0  0  0  0  0
   -2.3810   20.3230  -31.8750 C   0  0  0  0  0  0  0  0  0  0  0  0
    0.3936   19.7106  -30.5645 H   0  0  0  0  0  0  0  0  0  0  0  0
    1.5383   18.6789  -31.4875 H   0  0  0  0  0  0  0  0  0  0  0  0
    1.7378   20.4641  -31.4875 H   0  0  0  0  0  0  0  0  0  0  0  0
    2.2759   21.2452  -33.2934 H   0  0  0  0  0  0  0  0  0  0  0  0
    3.0931   21.6641  -35.6108 H   0  0  0  0  0  0  0  0  0  0  0  0
    1.8892   20.6420  -37.5431 H   0  0  0  0  0  0  0  0  0  0  0  0
   -4.6060   19.3983  -34.2985 H   0  0  0  0  0  0  0  0  0  0  0  0
   -5.8123   21.3824  -33.3894 H   0  0  0  0  0  0  0  0  0  0  0  0
   -4.6126   21.1760  -28.5293 H   0  0  0  0  0  0  0  0  0  0  0  0
   -2.7627   20.8186  -26.9143 H   0  0  0  0  0  0  0  0  0  0  0  0
   -1.2101   22.5989  -25.2346 H   0  0  0  0  0  0  0  0  0  0  0  0
   -0.3805   21.4781  -26.3671 H   0  0  0  0  0  0  0  0  0  0  0  0
    0.0355   23.2256  -26.3671 H   0  0  0  0  0  0  0  0  0  0  0  0
    0.3457   25.3453  -25.8853 H   0  0  0  0  0  0  0  0  0  0  0  0
   -2.8658   25.6177  -25.8559 H   0  0  0  0  0  0  0  0  0  0  0  0
   -2.3120   25.6750  -24.4034 H   0  0  0  0  0  0  0  0  0  0  0  0
   -1.6579   27.7355  -26.8108 H   0  0  0  0  0  0  0  0  0  0  0  0
   -0.8938   28.1611  -25.5238 H   0  0  0  0  0  0  0  0  0  0  0  0
   -2.5942   22.0326  -30.5620 H   0  0  0  0  0  0  0  0  0  0  0  0
   -1.4297   20.0036  -31.4243 H   0  0  0  0  0  0  0  0  0  0  0  0
  1  2  1  0
  2  3  1  0
  3  4  2  0
  4  5  1  0
  5  6  2  0
  6  7  1  0
  7  8  1  0
  8  9  2  3
  9 10  1  0
 10 11  2  0
 10 12  2  0
 10 13  1  0
 13 14  2  0
 14 15  1  0
 15 16  2  0
 16 17  1  0
 17 18  2  0
 17 19  1  0
 19 20  1  0
 20 21  2  0
 21 22  1  0
 22 23  2  0
 23 24  1  0
 23 25  1  0
 25 26  1  0
 26 27  2  0
 26 28  2  0
 26 29  1  0
 29 30  1  0
 30 31  1  0
 25 32  2  0
 32 33  1  0
 16 34  1  0
 34 35  2  0
  8  3  1  0
 35 13  1  0
 32 20  1  0
 31 29  1  0
  1 36  1  0
  1 37  1  0
  1 38  1  0
  4 39  1  0
  5 40  1  0
  6 41  1  0
 14 42  1  0
 15 43  1  0
 21 44  1  0
 22 45  1  0
 24 46  1  0
 24 47  1  0
 24 48  1  0
 29 49  1  0
 30 50  1  0
 30 51  1  0
 31 52  1  0
 31 53  1  0
 34 54  1  0
 35 55  1  0
M  CHG  3   7  -1  19  -1  33  -1
M  END
>  <UniqueID>  (9) 
9

>  <SMILES>  (9) 
COc1ccc[n-]c1=NS(=O)(=O)c1ccc(C(=O)[N-]c2ccc(C)c(S(=O)(=O)C3CC3)c2[O-])cc1

>  <Energy>  (9) 
339.4433802051205

>  <Genealogy>  (9) 
COc1ccc[n-]c1=NS(=O)(=O)c1ccc(C(=O)[N-]c2ccc(C)c(S(=O)(=O)C3CC3)c2[O-])cc1 (protonated)
COc1ccc[n-]c1=NS(=O)(=O)c1ccc(C(=O)[N-]c2ccc(C)c(S(=O)(=O)C3CC3)c2[O-])cc1 (3D coordinates assigned)
COc1ccc[n-]c1=NS(=O)(=O)c1ccc(C(=O)[N-]c2ccc(C)c(S(=O)(=O)C3CC3)c2[O-])cc1 (nonaromatic ring conformer: 339.4433802051205 kcal/mol)

>  <smiles>  (9) 
COc1ccc[nH]c1=NS(=O)(=O)c1ccc(C(=O)Nc2ccc(C)c(S(=O)(=O)C3CC3)c2O)cc1

>  <score_type>  (9) 
oracle

>  <origin>  (9) 
adgpu

>  <m_score__min__energy>  (9) 
-15.460000000000001

>  <m_primary>  (9) 
energy

$$$$
9:0
     RDKit          3D

 29 30  0  0  0  0  0  0  0  0999 V2000
   -5.4650   24.1420  -31.9700 O   0  0  0  0  0  0  0  0  0  0  0  0
   -5.1210   23.1860  -31.2240 C   0  0  0  0  0  0  0  0  0  0  0  0
   -3.8590   23.2340  -30.4570 C   0  0  0  0  0  0  0  0  0  0  0  0
   -3.2180   22.0460  -30.0640 C   0  0  0  0  0  0  0  0  0  0  0  0
   -2.0170   22.0890  -29.3390 C   0  0  0  0  0  0  0  0  0  0  0  0
   -1.3520   20.8320  -28.9230 C   0  0  0  0  0  0  0  0  0  0  0  0
   -1.8590   20.0420  -27.8580 C   0  0  0  0  0  0  0  0  0  0  0  0
   -3.0830   20.4470  -27.0660 C   0  0  0  0  0  0  0  0  0  0  0  0
   -3.6470   19.3300  -26.4350 O   0  0  0  0  0  0  0  0  0  0  0  0
   -1.2360   18.8170  -27.5630 C   0  0  0  0  0  0  0  0  0  0  0  0
   -0.0990   18.4050  -28.2590 C   0  0  0  0  0  0  0  0  0  0  0  0
    0.5080   17.1980  -27.9330 O   0  0  0  0  0  0  0  0  0  0  0  0
    0.4270   19.1980  -29.2800 C   0  0  0  0  0  0  0  0  0  0  0  0
    1.5690   18.7680  -29.9580 O   0  0  0  0  0  0  0  0  0  0  0  0
   -0.2010   20.4080  -29.6180 C   0  0  0  0  0  0  0  0  0  0  0  0
    0.3110   21.1810  -30.6570 O   0  0  0  0  0  0  0  0  0  0  0  0
   -1.4580   23.3280  -28.9970 C   0  0  0  0  0  0  0  0  0  0  0  0
   -2.0870   24.5140  -29.3830 C   0  0  0  0  0  0  0  0  0  0  0  0
   -1.5200   25.7360  -29.0420 O   0  0  0  0  0  0  0  0  0  0  0  0
   -3.2830   24.4730  -30.1120 C   0  0  0  0  0  0  0  0  0  0  0  0
   -3.8930   25.6670  -30.4870 O   0  0  0  0  0  0  0  0  0  0  0  0
   -5.7706   22.3020  -31.1427 H   0  0  0  0  0  0  0  0  0  0  0  0
   -3.6616   21.0744  -30.3270 H   0  0  0  0  0  0  0  0  0  0  0  0
   -2.7939   21.1862  -26.3044 H   0  0  0  0  0  0  0  0  0  0  0  0
   -3.8246   20.8821  -27.7521 H   0  0  0  0  0  0  0  0  0  0  0  0
   -4.4580   19.6570  -25.9650 H   0  0  0  0  0  0  0  0  0  0  0  0
   -1.6506   18.1742  -26.7725 H   0  0  0  0  0  0  0  0  0  0  0  0
    2.0290   17.8930  -29.7370 H   0  0  0  0  0  0  0  0  0  0  0  0
   -0.5207   23.3666  -28.4226 H   0  0  0  0  0  0  0  0  0  0  0  0
  1  2  2  0
  2  3  1  0
  3  4  2  0
  4  5  1  0
  5  6  1  0
  6  7  2  0
  7  8  1  0
  8  9  1  0
  7 10  1  0
 10 11  2  0
 11 12  1  0
 11 13  1  0
 13 14  1  0
 13 15  2  0
 15 16  1  0
  5 17  2  0
 17 18  1  0
 18 19  1  0
 18 20  2  0
 20 21  1  0
 20  3  1  0
 15  6  1  0
  2 22  1  0
  4 23  1  0
  8 24  1  0
  8 25  1  0
  9 26  1  0
 10 27  1  0
 14 28  1  0
 17 29  1  0
M  CHG  4  12  -1  16  -1  19  -1  21  -1
M  END
>  <UniqueID>  (10) 
10

>  <SMILES>  (10) 
O=Cc1cc(-c2c(CO)cc([O-])c(O)c2[O-])cc([O-])c1[O-]

>  <Energy>  (10) 
40.84493066085405

>  <Genealogy>  (10) 
O=Cc1cc(-c2c(CO)cc([O-])c(O)c2[O-])cc([O-])c1[O-] (protonated)
O=Cc1cc(-c2c(CO)cc([O-])c(O)c2[O-])cc([O-])c1[O-] (3D coordinates assigned)
O=Cc1cc(-c2c(CO)cc([O-])c(O)c2[O-])cc([O-])c1[O-] (optimized conformer: 40.84493066085405 kcal/mol)

>  <smiles>  (10) 
O=Cc1cc(-c2c(CO)cc(O)c(O)c2O)cc(O)c1O

>  <score_type>  (10) 
oracle

>  <origin>  (10) 
adgpu

>  <m_score__min__energy>  (10) 
-11.550000000000001

>  <m_primary>  (10) 
energy

$$$$
10:0
     RDKit          3D

 54 58  0  0  0  0  0  0  0  0999 V2000
   -1.3640   24.2340  -26.7970 C   0  0  0  0  0  0  0  0  0  0  0  0
   -1.1390   25.0720  -28.3600 S   0  0  0  0  0  0  0  0  0  0  0  0
   -0.2540   24.2360  -29.2510 O   0  0  0  0  0  0  0  0  0  0  0  0
   -0.4820   26.4050  -28.1390 O   0  0  0  0  0  0  0  0  0  0  0  0
   -2.6650   25.2960  -29.1450 N   0  0  0  0  0  0  0  0  0  0  0  0
   -3.2760   24.3740  -30.0640 C   0  0  0  0  0  0  0  0  0  0  0  0
   -2.6040   23.2010  -30.4920 C   0  0  0  0  0  0  0  0  0  0  0  0
   -3.2740   22.3290  -31.3500 C   0  0  0  0  0  0  0  0  0  0  0  0
   -4.5690   22.5630  -31.7640 C   0  0  0  0  0  0  0  0  0  0  0  0
   -5.2360   23.7240  -31.3810 C   0  0  0  0  0  0  0  0  0  0  0  0
   -4.5880   24.6440  -30.5390 C   0  0  0  0  0  0  0  0  0  0  0  0
   -5.2630   25.8230  -30.1860 O   0  0  0  0  0  0  0  0  0  0  0  0
   -5.0730   21.4650  -32.6530 C   0  0  0  0  0  0  0  0  0  0  0  0
   -3.8550   20.5870  -32.7160 C   0  0  0  0  0  0  0  0  0  0  0  0
   -3.6880   19.4230  -33.4670 C   0  0  0  0  0  0  0  0  0  0  0  0
   -2.4190   18.7940  -33.4970 C   0  0  0  0  0  0  0  0  0  0  0  0
   -2.1880   17.5740  -34.3300 C   0  0  0  0  0  0  0  0  0  0  0  0
   -0.9540   17.3540  -34.9730 C   0  0  0  0  0  0  0  0  0  0  0  0
   -0.7660   16.2520  -35.7460 N   0  0  0  0  0  0  0  0  0  0  0  0
   -1.7360   15.3140  -35.9110 C   0  0  0  0  0  0  0  0  0  0  0  0
   -2.9690   15.4570  -35.2600 C   0  0  0  0  0  0  0  0  0  0  0  0
   -3.9940   14.4580  -35.3240 N   0  0  0  0  0  0  0  0  0  0  0  0
   -5.2310   14.1760  -34.1370 S   0  0  0  0  0  0  0  0  0  0  0  0
   -4.7210   13.2060  -33.1140 O   0  0  0  0  0  0  0  0  0  0  0  0
   -6.4290   13.5900  -34.8190 O   0  0  0  0  0  0  0  0  0  0  0  0
   -5.7250   15.6920  -33.3820 C   0  0  0  0  0  0  0  0  0  0  0  0
   -5.3660   15.9750  -32.0590 C   0  0  0  0  0  0  0  0  0  0  0  0
   -5.7460   17.1870  -31.4710 C   0  0  0  0  0  0  0  0  0  0  0  0
   -6.4930   18.1160  -32.1980 C   0  0  0  0  0  0  0  0  0  0  0  0
   -6.8610   17.8370  -33.5150 C   0  0  0  0  0  0  0  0  0  0  0  0
   -6.4860   16.6280  -34.1030 C   0  0  0  0  0  0  0  0  0  0  0  0
   -3.1980   16.6050  -34.4980 C   0  0  0  0  0  0  0  0  0  0  0  0
   -1.3600   19.3630  -32.7410 C   0  0  0  0  0  0  0  0  0  0  0  0
   -1.5610   20.5170  -31.9660 C   0  0  0  0  0  0  0  0  0  0  0  0
   -2.8190   21.1020  -31.9670 C   0  0  0  0  0  0  0  0  0  0  0  0
   -1.1750   24.9378  -25.9731 H   0  0  0  0  0  0  0  0  0  0  0  0
   -2.3951   23.8572  -26.7281 H   0  0  0  0  0  0  0  0  0  0  0  0
   -0.6603   23.3914  -26.7281 H   0  0  0  0  0  0  0  0  0  0  0  0
   -1.5794   22.9841  -30.1556 H   0  0  0  0  0  0  0  0  0  0  0  0
   -6.2595   23.9190  -31.7339 H   0  0  0  0  0  0  0  0  0  0  0  0
   -5.0210   26.3590  -29.3620 H   0  0  0  0  0  0  0  0  0  0  0  0
   -5.9298   20.9402  -32.2052 H   0  0  0  0  0  0  0  0  0  0  0  0
   -5.4483   21.8012  -33.6308 H   0  0  0  0  0  0  0  0  0  0  0  0
   -4.5325   18.9984  -34.0296 H   0  0  0  0  0  0  0  0  0  0  0  0
   -0.1366   18.0795  -34.8485 H   0  0  0  0  0  0  0  0  0  0  0  0
   -1.5531   14.4419  -36.5560 H   0  0  0  0  0  0  0  0  0  0  0  0
   -4.7838   15.2431  -31.4800 H   0  0  0  0  0  0  0  0  0  0  0  0
   -5.4554   17.4082  -30.4334 H   0  0  0  0  0  0  0  0  0  0  0  0
   -6.7913   19.0672  -31.7330 H   0  0  0  0  0  0  0  0  0  0  0  0
   -7.4465   18.5698  -34.0895 H   0  0  0  0  0  0  0  0  0  0  0  0
   -6.7880   16.4064  -35.1373 H   0  0  0  0  0  0  0  0  0  0  0  0
   -4.1788   16.7549  -34.0230 H   0  0  0  0  0  0  0  0  0  0  0  0
   -0.3661   18.8923  -32.7627 H   0  0  0  0  0  0  0  0  0  0  0  0
   -0.7406   20.9467  -31.3724 H   0  0  0  0  0  0  0  0  0  0  0  0
  1  2  1  0
  2  3  2  0
  2  4  2  0
  2  5  1  0
  5  6  1  0
  6  7  2  0
  7  8  1  0
  8  9  2  0
  9 10  1  0
 10 11  2  0
 11 12  1  0
  9 13  1  0
 13 14  1  0
 14 15  2  0
 15 16  1  0
 16 17  1  0
 17 18  2  0
 18 19  1  0
 19 20  2  0
 20 21  1  0
 21 22  1  0
 22 23  1  0
 23 24  2  0
 23 25  2  0
 23 26  1  0
 26 27  2  0
 27 28  1  0
 28 29  2  0
 29 30  1  0
 30 31  2  0
 21 32  2  0
 16 33  2  0
 33 34  1  0
 34 35  2  0
 11  6  1  0
 35 14  1  0
 35  8  1  0
 32 17  1  0
 31 26  1  0
  1 36  1  0
  1 37  1  0
  1 38  1  0
  7 39  1  0
 10 40  1  0
 12 41  1  0
 13 42  1  0
 13 43  1  0
 15 44  1  0
 18 45  1  0
 20 46  1  0
 27 47  1  0
 28 48  1  0
 29 49  1  0
 30 50  1  0
 31 51  1  0
 32 52  1  0
 33 53  1  0
 34 54  1  0
M  CHG  2   5  -1  22  -1
M  END
>  <UniqueID>  (11) 
11

>  <SMILES>  (11) 
CS(=O)(=O)[N-]c1cc2c(cc1O)Cc1cc(-c3cncc([N-]S(=O)(=O)c4ccccc4)c3)ccc1-2

>  <Energy>  (11) 
93.56068712770762

>  <Genealogy>  (11) 
CS(=O)(=O)[N-]c1cc2c(cc1O)Cc1cc(-c3cncc([N-]S(=O)(=O)c4ccccc4)c3)ccc1-2 (protonated)
CS(=O)(=O)[N-]c1cc2c(cc1O)Cc1cc(-c3cncc([N-]S(=O)(=O)c4ccccc4)c3)ccc1-2 (3D coordinates assigned)
CS(=O)(=O)[N-]c1cc2c(cc1O)Cc1cc(-c3cncc([N-]S(=O)(=O)c4ccccc4)c3)ccc1-2 (nonaromatic ring conformer: 93.56068712770762 kcal/mol)

>  <smiles>  (11) 
CS(=O)(=O)Nc1cc2c(cc1O)Cc1cc(-c3cncc(NS(=O)(=O)c4ccccc4)c3)ccc1-2

>  <score_type>  (11) 
oracle

>  <origin>  (11) 
adgpu

>  <m_score__min__energy>  (11) 
-11.08

>  <m_primary>  (11) 
energy

$$$$
11:0
     RDKit          3D

 36 38  0  0  0  0  0  0  0  0999 V2000
   -6.4800   17.0910  -34.5170 O   0  0  0  0  0  0  0  0  0  0  0  0
   -6.4700   18.1270  -33.8020 C   0  0  0  0  0  0  0  0  0  0  0  0
   -7.5270   18.3400  -32.7590 C   0  0  0  0  0  0  0  0  0  0  0  0
   -7.8310   19.8360  -32.5820 C   0  0  0  0  0  0  0  0  0  0  0  0
   -6.5720   20.6620  -32.4650 C   0  0  0  0  0  0  0  0  0  0  0  0
   -6.5780   21.8640  -31.7420 C   0  0  0  0  0  0  0  0  0  0  0  0
   -5.4310   22.6690  -31.6990 C   0  0  0  0  0  0  0  0  0  0  0  0
   -5.4390   24.1630  -30.7660 S   0  0  0  0  0  0  0  0  0  0  0  0
   -5.8280   23.8530  -29.3480 O   0  0  0  0  0  0  0  0  0  0  0  0
   -6.4300   25.1310  -31.3500 O   0  0  0  0  0  0  0  0  0  0  0  0
   -3.8570   24.8810  -30.7780 N   0  0  0  0  0  0  0  0  0  0  0  0
   -2.9120   24.0180  -30.0730 C   0  0  0  0  0  0  0  0  0  0  0  0
   -2.7310   24.5300  -28.6720 C   0  0  0  0  0  0  0  0  0  0  0  0
   -3.5680   24.0570  -27.6450 C   0  0  0  0  0  0  0  0  0  0  0  0
   -3.4360   24.5480  -26.3440 C   0  0  0  0  0  0  0  0  0  0  0  0
   -2.4780   25.5230  -26.0570 C   0  0  0  0  0  0  0  0  0  0  0  0
   -1.6540   26.0130  -27.0720 C   0  0  0  0  0  0  0  0  0  0  0  0
   -1.7800   25.5280  -28.3790 C   0  0  0  0  0  0  0  0  0  0  0  0
   -0.9610   26.0430  -29.3780 O   0  0  0  0  0  0  0  0  0  0  0  0
   -4.2860   22.2880  -32.4120 C   0  0  0  0  0  0  0  0  0  0  0  0
   -4.2820   21.1030  -33.1530 C   0  0  0  0  0  0  0  0  0  0  0  0
   -5.4170   20.2880  -33.1800 C   0  0  0  0  0  0  0  0  0  0  0  0
   -5.4020   19.0670  -33.9270 N   0  0  0  0  0  0  0  0  0  0  0  0
   -8.4462   17.8199  -33.0666 H   0  0  0  0  0  0  0  0  0  0  0  0
   -7.1609   17.9407  -31.8017 H   0  0  0  0  0  0  0  0  0  0  0  0
   -8.4055   20.1865  -33.4521 H   0  0  0  0  0  0  0  0  0  0  0  0
   -8.4033   19.9573  -31.6505 H   0  0  0  0  0  0  0  0  0  0  0  0
   -7.4866   22.1764  -31.2064 H   0  0  0  0  0  0  0  0  0  0  0  0
   -3.3035   22.9905  -30.0422 H   0  0  0  0  0  0  0  0  0  0  0  0
   -1.9448   24.0209  -30.5969 H   0  0  0  0  0  0  0  0  0  0  0  0
   -4.3307   23.2963  -27.8677 H   0  0  0  0  0  0  0  0  0  0  0  0
   -4.0876   24.1662  -25.5442 H   0  0  0  0  0  0  0  0  0  0  0  0
   -2.3727   25.9050  -25.0308 H   0  0  0  0  0  0  0  0  0  0  0  0
   -0.9027   26.7833  -26.8437 H   0  0  0  0  0  0  0  0  0  0  0  0
   -3.3883   22.9233  -32.3883 H   0  0  0  0  0  0  0  0  0  0  0  0
   -3.3834   20.8111  -33.7163 H   0  0  0  0  0  0  0  0  0  0  0  0
  1  2  2  0
  2  3  1  0
  3  4  1  0
  4  5  1  0
  5  6  2  0
  6  7  1  0
  7  8  1  0
  8  9  2  0
  8 10  2  0
  8 11  1  0
 11 12  1  0
 12 13  1  0
 13 14  2  0
 14 15  1  0
 15 16  2  0
 16 17  1  0
 17 18  2  0
 18 19  1  0
  7 20  2  0
 20 21  1  0
 21 22  2  0
 22 23  1  0
 23  2  1  0
 22  5  1  0
 18 13  1  0
  3 24  1  0
  3 25  1  0
  4 26  1  0
  4 27  1  0
  6 28  1  0
 12 29  1  0
 12 30  1  0
 14 31  1  0
 15 32  1  0
 16 33  1  0
 17 34  1  0
 20 35  1  0
 21 36  1  0
M  CHG  3  11  -1  19  -1  23  -1
M  END
>  <UniqueID>  (12) 
12

>  <SMILES>  (12) 
O=C1CCc2cc(S(=O)(=O)[N-]Cc3ccccc3[O-])ccc2[N-]1

>  <Energy>  (12) 
36.30731559424957

>  <Genealogy>  (12) 
O=C1CCc2cc(S(=O)(=O)[N-]Cc3ccccc3[O-])ccc2[N-]1 (protonated)
O=C1CCc2cc(S(=O)(=O)[N-]Cc3ccccc3[O-])ccc2[N-]1 (3D coordinates assigned)
O=C1CCc2cc(S(=O)(=O)[N-]Cc3ccccc3[O-])ccc2[N-]1 (nonaromatic ring conformer: 36.30731559424957 kcal/mol)

>  <smiles>  (12) 
O=C1CCc2cc(S(=O)(=O)NCc3ccccc3O)ccc2N1

>  <score_type>  (12) 
oracle

>  <origin>  (12) 
adgpu

>  <m_score__min__energy>  (12) 
-12.800000000000001

>  <m_primary>  (12) 
energy

$$$$
12:0
     RDKit          3D

 40 43  0  0  0  0  0  0  0  0999 V2000
   -4.9550   18.7970  -34.5550 O   0  0  0  0  0  0  0  0  0  0  0  0
   -5.1570   19.4310  -33.4840 C   0  0  0  0  0  0  0  0  0  0  0  0
   -3.9760   20.0170  -32.7580 C   0  0  0  0  0  0  0  0  0  0  0  0
   -3.7870   21.8010  -33.1210 S   0  0  0  0  0  0  0  0  0  0  0  0
   -2.7540   22.1630  -31.6970 C   0  0  0  0  0  0  0  0  0  0  0  0
   -1.4810   21.7400  -31.5840 N   0  0  0  0  0  0  0  0  0  0  0  0
   -1.0400   22.1550  -30.4050 N   0  0  0  0  0  0  0  0  0  0  0  0
   -2.0500   22.8230  -29.8140 C   0  0  0  0  0  0  0  0  0  0  0  0
   -3.1410   22.8490  -30.6020 N   0  0  0  0  0  0  0  0  0  0  0  0
   -4.4110   23.4550  -30.3150 C   0  0  0  0  0  0  0  0  0  0  0  0
   -5.4940   22.6610  -29.9040 C   0  0  0  0  0  0  0  0  0  0  0  0
   -6.7280   23.2460  -29.6080 C   0  0  0  0  0  0  0  0  0  0  0  0
   -6.8940   24.6270  -29.7240 C   0  0  0  0  0  0  0  0  0  0  0  0
   -5.8260   25.4270  -30.1390 C   0  0  0  0  0  0  0  0  0  0  0  0
   -4.5870   24.8470  -30.4370 C   0  0  0  0  0  0  0  0  0  0  0  0
   -3.5330   25.6630  -30.8330 O   0  0  0  0  0  0  0  0  0  0  0  0
   -6.4670   19.3950  -32.8950 N   0  0  0  0  0  0  0  0  0  0  0  0
   -7.1700   18.1450  -32.6050 C   0  0  0  0  0  0  0  0  0  0  0  0
   -8.4560   18.5380  -31.8440 C   0  0  0  0  0  0  0  0  0  0  0  0
   -8.4240   20.0250  -31.8620 C   0  0  0  0  0  0  0  0  0  0  0  0
   -9.4100   20.9040  -31.4080 C   0  0  0  0  0  0  0  0  0  0  0  0
   -9.2190   22.2800  -31.5990 C   0  0  0  0  0  0  0  0  0  0  0  0
   -8.0680   22.7500  -32.2560 C   0  0  0  0  0  0  0  0  0  0  0  0
   -7.0940   21.8450  -32.7090 C   0  0  0  0  0  0  0  0  0  0  0  0
   -7.2830   20.4800  -32.4690 C   0  0  0  0  0  0  0  0  0  0  0  0
   -4.1201   19.8853  -31.6754 H   0  0  0  0  0  0  0  0  0  0  0  0
   -3.0681   19.4966  -33.0971 H   0  0  0  0  0  0  0  0  0  0  0  0
   -1.9907   23.2863  -28.8181 H   0  0  0  0  0  0  0  0  0  0  0  0
   -5.3701   21.5717  -29.8145 H   0  0  0  0  0  0  0  0  0  0  0  0
   -7.5700   22.6171  -29.2830 H   0  0  0  0  0  0  0  0  0  0  0  0
   -7.8657   25.0857  -29.4887 H   0  0  0  0  0  0  0  0  0  0  0  0
   -5.9591   26.5150  -30.2318 H   0  0  0  0  0  0  0  0  0  0  0  0
   -7.4246   17.6252  -33.5404 H   0  0  0  0  0  0  0  0  0  0  0  0
   -6.5451   17.4634  -32.0092 H   0  0  0  0  0  0  0  0  0  0  0  0
   -9.3504   18.1569  -32.3587 H   0  0  0  0  0  0  0  0  0  0  0  0
   -8.4986   18.1209  -30.8271 H   0  0  0  0  0  0  0  0  0  0  0  0
  -10.3158   20.5254  -30.9119 H   0  0  0  0  0  0  0  0  0  0  0  0
   -9.9719   22.9940  -31.2337 H   0  0  0  0  0  0  0  0  0  0  0  0
   -7.9300   23.8296  -32.4157 H   0  0  0  0  0  0  0  0  0  0  0  0
   -6.2005   22.2025  -33.2418 H   0  0  0  0  0  0  0  0  0  0  0  0
  1  2  2  0
  2  3  1  0
  3  4  1  0
  4  5  1  0
  5  6  2  0
  6  7  1  0
  7  8  2  0
  8  9  1  0
  9 10  1  0
 10 11  2  0
 11 12  1  0
 12 13  2  0
 13 14  1  0
 14 15  2  0
 15 16  1  0
  2 17  1  0
 17 18  1  0
 18 19  1  0
 19 20  1  0
 20 21  2  0
 21 22  1  0
 22 23  2  0
 23 24  1  0
 24 25  2  0
  9  5  1  0
 15 10  1  0
 25 17  1  0
 25 20  1  0
  3 26  1  0
  3 27  1  0
  8 28  1  0
 11 29  1  0
 12 30  1  0
 13 31  1  0
 14 32  1  0
 18 33  1  0
 18 34  1  0
 19 35  1  0
 19 36  1  0
 21 37  1  0
 22 38  1  0
 23 39  1  0
 24 40  1  0
M  CHG  1  16  -1
M  END
>  <UniqueID>  (13) 
13

>  <SMILES>  (13) 
O=C(CSc1nncn1-c1ccccc1[O-])N1CCc2ccccc21

>  <Energy>  (13) 
97.39270109770912

>  <Genealogy>  (13) 
O=C(CSc1nncn1-c1ccccc1[O-])N1CCc2ccccc21 (protonated)
O=C(CSc1nncn1-c1ccccc1[O-])N1CCc2ccccc21 (3D coordinates assigned)
O=C(CSc1nncn1-c1ccccc1[O-])N1CCc2ccccc21 (nonaromatic ring conformer: 97.39270109770912 kcal/mol)

>  <smiles>  (13) 
O=C(CSc1nncn1-c1ccccc1O)N1CCc2ccccc21

>  <score_type>  (13) 
oracle

>  <origin>  (13) 
adgpu

>  <m_score__min__energy>  (13) 
-12.300000000000001

>  <m_primary>  (13) 
energy

$$$$
13:0
     RDKit          3D

 52 55  0  0  0  0  0  0  0  0999 V2000
   -8.1590   20.7330  -32.0050 C   0  0  0  0  0  0  0  0  0  0  0  0
   -6.7040   20.3630  -32.3280 C   0  0  0  0  0  0  0  0  0  0  0  0
   -6.6660   19.3270  -33.4580 C   0  0  0  0  0  0  0  0  0  0  0  0
   -5.8760   21.6050  -32.7180 C   0  0  0  0  0  0  0  0  0  0  0  0
   -4.4080   21.2880  -32.8110 C   0  0  0  0  0  0  0  0  0  0  0  0
   -4.0030   20.6230  -33.8030 O   0  0  0  0  0  0  0  0  0  0  0  0
   -3.4390   21.6380  -31.7460 C   0  0  0  0  0  0  0  0  0  0  0  0
   -2.1090   21.2600  -31.7350 C   0  0  0  0  0  0  0  0  0  0  0  0
   -1.4800   20.4240  -32.6490 O   0  0  0  0  0  0  0  0  0  0  0  0
   -1.5110   21.8790  -30.6630 C   0  0  0  0  0  0  0  0  0  0  0  0
   -0.1680   21.7750  -30.3100 O   0  0  0  0  0  0  0  0  0  0  0  0
   -2.4120   22.6270  -29.9980 N   0  0  0  0  0  0  0  0  0  0  0  0
   -2.1130   23.5380  -28.9260 C   0  0  0  0  0  0  0  0  0  0  0  0
   -2.9480   23.6120  -27.8040 C   0  0  0  0  0  0  0  0  0  0  0  0
   -2.6660   24.5100  -26.7700 C   0  0  0  0  0  0  0  0  0  0  0  0
   -1.5360   25.3460  -26.8410 C   0  0  0  0  0  0  0  0  0  0  0  0
   -1.2160   26.3080  -25.7600 C   0  0  0  0  0  0  0  0  0  0  0  0
   -0.9920   26.0200  -24.4230 C   0  0  0  0  0  0  0  0  0  0  0  0
   -0.7350   27.2300  -23.8160 C   0  0  0  0  0  0  0  0  0  0  0  0
   -0.8160   28.1820  -24.8090 C   0  0  0  0  0  0  0  0  0  0  0  0
   -1.1030   27.6040  -25.9530 O   0  0  0  0  0  0  0  0  0  0  0  0
   -0.6960   25.2590  -27.9630 C   0  0  0  0  0  0  0  0  0  0  0  0
   -0.9810   24.3600  -28.9960 C   0  0  0  0  0  0  0  0  0  0  0  0
   -3.5970   22.4870  -30.6450 C   0  0  0  0  0  0  0  0  0  0  0  0
   -4.7700   23.3370  -30.3710 C   0  0  0  0  0  0  0  0  0  0  0  0
   -5.9850   22.7380  -30.0100 C   0  0  0  0  0  0  0  0  0  0  0  0
   -7.1150   23.5280  -29.7740 C   0  0  0  0  0  0  0  0  0  0  0  0
   -7.0360   24.9170  -29.8990 C   0  0  0  0  0  0  0  0  0  0  0  0
   -5.8280   25.5210  -30.2570 C   0  0  0  0  0  0  0  0  0  0  0  0
   -4.6930   24.7370  -30.4910 C   0  0  0  0  0  0  0  0  0  0  0  0
   -3.4910   25.3540  -30.8230 O   0  0  0  0  0  0  0  0  0  0  0  0
   -8.2950   20.7676  -30.9140 H   0  0  0  0  0  0  0  0  0  0  0  0
   -8.3908   21.7187  -32.4348 H   0  0  0  0  0  0  0  0  0  0  0  0
   -8.8335   19.9778  -32.4348 H   0  0  0  0  0  0  0  0  0  0  0  0
   -6.2548   19.9320  -31.4211 H   0  0  0  0  0  0  0  0  0  0  0  0
   -6.6289   18.3156  -33.0271 H   0  0  0  0  0  0  0  0  0  0  0  0
   -7.5685   19.4282  -34.0787 H   0  0  0  0  0  0  0  0  0  0  0  0
   -5.7734   19.4941  -34.0787 H   0  0  0  0  0  0  0  0  0  0  0  0
   -6.2238   21.9732  -33.6945 H   0  0  0  0  0  0  0  0  0  0  0  0
   -6.0135   22.3679  -31.9375 H   0  0  0  0  0  0  0  0  0  0  0  0
    0.4620   21.1730  -30.8250 H   0  0  0  0  0  0  0  0  0  0  0  0
   -3.8311   22.9597  -27.7358 H   0  0  0  0  0  0  0  0  0  0  0  0
   -3.3314   24.5634  -25.8957 H   0  0  0  0  0  0  0  0  0  0  0  0
   -1.0147   25.0296  -23.9449 H   0  0  0  0  0  0  0  0  0  0  0  0
   -0.5104   27.4015  -22.7529 H   0  0  0  0  0  0  0  0  0  0  0  0
   -0.6635   29.2619  -24.6654 H   0  0  0  0  0  0  0  0  0  0  0  0
    0.1932   25.9030  -28.0300 H   0  0  0  0  0  0  0  0  0  0  0  0
   -0.3129   24.2982  -29.8676 H   0  0  0  0  0  0  0  0  0  0  0  0
   -6.0499   21.6443  -29.9121 H   0  0  0  0  0  0  0  0  0  0  0  0
   -8.0666   23.0550  -29.4898 H   0  0  0  0  0  0  0  0  0  0  0  0
   -7.9263   25.5363  -29.7153 H   0  0  0  0  0  0  0  0  0  0  0  0
   -5.7692   26.6150  -30.3551 H   0  0  0  0  0  0  0  0  0  0  0  0
  1  2  1  0
  2  3  1  0
  2  4  1  0
  4  5  1  0
  5  6  2  0
  5  7  1  0
  7  8  1  0
  8  9  1  0
  8 10  2  0
 10 11  1  0
 10 12  1  0
 12 13  1  0
 13 14  2  0
 14 15  1  0
 15 16  2  0
 16 17  1  0
 17 18  2  0
 18 19  1  0
 19 20  2  0
 20 21  1  0
 16 22  1  0
 22 23  2  0
 12 24  1  0
 24 25  1  0
 25 26  2  0
 26 27  1  0
 27 28  2  0
 28 29  1  0
 29 30  2  0
 30 31  1  0
 24  7  2  0
 30 25  1  0
 23 13  1  0
 21 17  1  0
  1 32  1  0
  1 33  1  0
  1 34  1  0
  2 35  1  0
  3 36  1  0
  3 37  1  0
  3 38  1  0
  4 39  1  0
  4 40  1  0
 11 41  1  0
 14 42  1  0
 15 43  1  0
 18 44  1  0
 19 45  1  0
 20 46  1  0
 22 47  1  0
 23 48  1  0
 26 49  1  0
 27 50  1  0
 28 51  1  0
 29 52  1  0
M  CHG  2   9  -1  31  -1
M  END
>  <UniqueID>  (14) 
14

>  <SMILES>  (14) 
CC(C)CC(=O)c1c([O-])c(O)n(-c2ccc(-c3ccco3)cc2)c1-c1ccccc1[O-]

>  <Energy>  (14) 
122.5878076906897

>  <Genealogy>  (14) 
CC(C)CC(=O)c1c([O-])c(O)n(-c2ccc(-c3ccco3)cc2)c1-c1ccccc1[O-] (protonated)
CC(C)CC(=O)c1c([O-])c(O)n(-c2ccc(-c3ccco3)cc2)c1-c1ccccc1[O-] (3D coordinates assigned)
CC(C)CC(=O)c1c([O-])c(O)n(-c2ccc(-c3ccco3)cc2)c1-c1ccccc1[O-] (optimized conformer: 122.5878076906897 kcal/mol)

>  <smiles>  (14) 
CC(C)CC(=O)c1c(O)c(O)n(-c2ccc(-c3ccco3)cc2)c1-c1ccccc1O

>  <score_type>  (14) 
oracle

>  <origin>  (14) 
adgpu

>  <m_score__min__energy>  (14) 
-12.789999999999999

>  <m_primary>  (14) 
energy

$$$$
14:0
     RDKit          3D

 31 32  0  0  0  0  0  0  0  0999 V2000
   -2.8940   24.0700  -27.8990 C   0  0  0  0  0  0  0  0  0  0  0  0
   -2.3300   23.9160  -29.1980 O   0  0  0  0  0  0  0  0  0  0  0  0
   -2.6890   22.9140  -30.1160 C   0  0  0  0  0  0  0  0  0  0  0  0
   -1.9260   21.7360  -30.2410 C   0  0  0  0  0  0  0  0  0  0  0  0
   -2.2750   20.7480  -31.1670 C   0  0  0  0  0  0  0  0  0  0  0  0
   -1.5060   19.5880  -31.2730 O   0  0  0  0  0  0  0  0  0  0  0  0
   -3.3950   20.9250  -31.9880 C   0  0  0  0  0  0  0  0  0  0  0  0
   -3.8330   19.6940  -33.1770 S   0  0  0  0  0  0  0  0  0  0  0  0
   -2.8580   19.7530  -34.3180 O   0  0  0  0  0  0  0  0  0  0  0  0
   -3.7880   18.3200  -32.5690 O   0  0  0  0  0  0  0  0  0  0  0  0
   -5.4310   19.9960  -33.7720 N   0  0  0  0  0  0  0  0  0  0  0  0
   -6.6140   19.7590  -33.0070 C   0  0  0  0  0  0  0  0  0  0  0  0
   -7.2350   18.5330  -32.7980 C   0  0  0  0  0  0  0  0  0  0  0  0
   -8.3760   18.6380  -31.9950 C   0  0  0  0  0  0  0  0  0  0  0  0
   -8.6480   19.9350  -31.5760 C   0  0  0  0  0  0  0  0  0  0  0  0
   -7.4690   20.9590  -32.2060 S   0  0  0  0  0  0  0  0  0  0  0  0
   -4.1650   22.0880  -31.8670 C   0  0  0  0  0  0  0  0  0  0  0  0
   -3.8300   23.0920  -30.9370 C   0  0  0  0  0  0  0  0  0  0  0  0
   -4.6850   24.3090  -30.8510 C   0  0  0  0  0  0  0  0  0  0  0  0
   -4.1390   25.5760  -30.4910 N   0  0  0  0  0  0  0  0  0  0  0  0
   -5.9210   24.2290  -31.0880 O   0  0  0  0  0  0  0  0  0  0  0  0
   -2.1269   23.8605  -27.1390 H   0  0  0  0  0  0  0  0  0  0  0  0
   -3.2588   25.1006  -27.7775 H   0  0  0  0  0  0  0  0  0  0  0  0
   -3.7319   23.3678  -27.7775 H   0  0  0  0  0  0  0  0  0  0  0  0
   -1.0431   21.5915  -29.6010 H   0  0  0  0  0  0  0  0  0  0  0  0
   -1.7920   18.8120  -31.8600 H   0  0  0  0  0  0  0  0  0  0  0  0
   -6.8694   17.5843  -33.2179 H   0  0  0  0  0  0  0  0  0  0  0  0
   -8.9997   17.7744  -31.7208 H   0  0  0  0  0  0  0  0  0  0  0  0
   -9.4916   20.2411  -30.9398 H   0  0  0  0  0  0  0  0  0  0  0  0
   -5.0478   22.2203  -32.5098 H   0  0  0  0  0  0  0  0  0  0  0  0
   -3.4840   25.6700  -29.6840 H   0  0  0  0  0  0  0  0  0  0  0  0
  1  2  1  0
  2  3  1  0
  3  4  2  0
  4  5  1  0
  5  6  1  0
  5  7  2  0
  7  8  1  0
  8  9  2  0
  8 10  2  0
  8 11  1  0
 11 12  1  0
 12 13  2  0
 13 14  1  0
 14 15  2  0
 15 16  1  0
  7 17  1  0
 17 18  2  0
 18 19  1  0
 19 20  1  0
 19 21  2  0
 18  3  1  0
 16 12  1  0
  1 22  1  0
  1 23  1  0
  1 24  1  0
  4 25  1  0
  6 26  1  0
 13 27  1  0
 14 28  1  0
 15 29  1  0
 17 30  1  0
 20 31  1  0
M  CHG  2  11  -1  20  -1
M  END
>  <UniqueID>  (15) 
15

>  <SMILES>  (15) 
COc1cc(O)c(S(=O)(=O)[N-]c2cccs2)cc1C([NH-])=O

>  <Energy>  (15) 
62.240256684360425

>  <Genealogy>  (15) 
COc1cc(O)c(S(=O)(=O)[N-]c2cccs2)cc1C([NH-])=O (protonated)
COc1cc(O)c(S(=O)(=O)[N-]c2cccs2)cc1C([NH-])=O (3D coordinates assigned)
COc1cc(O)c(S(=O)(=O)[N-]c2cccs2)cc1C([NH-])=O (optimized conformer: 62.240256684360425 kcal/mol)

>  <smiles>  (15) 
COc1cc(O)c(S(=O)(=O)Nc2cccs2)cc1C(N)=O

>  <score_type>  (15) 
oracle

>  <origin>  (15) 
adgpu

>  <m_score__min__energy>  (15) 
-8.3000000000000007

>  <m_primary>  (15) 
energy

$$$$
15:0
     RDKit          3D

 47 50  0  0  0  0  0  0  0  0999 V2000
   -7.0380   25.2850  -30.1760 O   0  0  0  0  0  0  0  0  0  0  0  0
   -6.2190   24.5220  -30.7560 C   0  0  0  0  0  0  0  0  0  0  0  0
   -6.5990   23.8020  -31.9360 N   0  0  0  0  0  0  0  0  0  0  0  0
   -7.3690   22.5930  -31.9880 C   0  0  0  0  0  0  0  0  0  0  0  0
   -8.7720   22.5950  -31.8820 C   0  0  0  0  0  0  0  0  0  0  0  0
   -9.4820   21.3910  -31.9050 C   0  0  0  0  0  0  0  0  0  0  0  0
   -8.8000   20.1780  -32.0200 C   0  0  0  0  0  0  0  0  0  0  0  0
   -7.4040   20.1600  -32.1080 C   0  0  0  0  0  0  0  0  0  0  0  0
   -6.5560   18.6190  -32.2150 S   0  0  0  0  0  0  0  0  0  0  0  0
   -7.0880   17.6650  -31.1820 O   0  0  0  0  0  0  0  0  0  0  0  0
   -5.0970   18.8600  -31.9420 O   0  0  0  0  0  0  0  0  0  0  0  0
   -6.7550   17.9500  -33.8220 N   0  0  0  0  0  0  0  0  0  0  0  0
   -6.4780   16.5100  -33.8190 C   0  0  0  0  0  0  0  0  0  0  0  0
   -5.0160   16.3060  -34.1870 C   0  0  0  0  0  0  0  0  0  0  0  0
   -4.5550   17.6260  -34.7730 C   0  0  0  0  0  0  0  0  0  0  0  0
   -5.7760   18.5340  -34.7430 C   0  0  0  0  0  0  0  0  0  0  0  0
   -6.6920   21.3700  -32.0820 C   0  0  0  0  0  0  0  0  0  0  0  0
   -4.8470   24.4050  -30.2510 C   0  0  0  0  0  0  0  0  0  0  0  0
   -4.3470   23.3770  -29.4790 C   0  0  0  0  0  0  0  0  0  0  0  0
   -3.0240   23.7230  -29.2810 C   0  0  0  0  0  0  0  0  0  0  0  0
   -2.0430   22.9780  -28.4600 C   0  0  0  0  0  0  0  0  0  0  0  0
   -2.4680   21.8260  -27.7710 C   0  0  0  0  0  0  0  0  0  0  0  0
   -1.5940   21.1340  -26.9310 C   0  0  0  0  0  0  0  0  0  0  0  0
   -0.2830   21.5820  -26.7650 C   0  0  0  0  0  0  0  0  0  0  0  0
    0.1610   22.7120  -27.4520 C   0  0  0  0  0  0  0  0  0  0  0  0
   -0.6980   23.4060  -28.3130 C   0  0  0  0  0  0  0  0  0  0  0  0
   -0.1730   24.4870  -29.0250 O   0  0  0  0  0  0  0  0  0  0  0  0
   -2.7710   24.9000  -29.8870 N   0  0  0  0  0  0  0  0  0  0  0  0
   -3.8790   25.3120  -30.4840 N   0  0  0  0  0  0  0  0  0  0  0  0
   -9.3124   23.5478  -31.7806 H   0  0  0  0  0  0  0  0  0  0  0  0
  -10.5796   21.3992  -31.8324 H   0  0  0  0  0  0  0  0  0  0  0  0
   -9.3626   19.2330  -32.0415 H   0  0  0  0  0  0  0  0  0  0  0  0
   -6.6714   16.0958  -32.8185 H   0  0  0  0  0  0  0  0  0  0  0  0
   -7.1272   15.9968  -34.5437 H   0  0  0  0  0  0  0  0  0  0  0  0
   -4.4262   16.0560  -33.2927 H   0  0  0  0  0  0  0  0  0  0  0  0
   -4.8873   15.4775  -34.8991 H   0  0  0  0  0  0  0  0  0  0  0  0
   -3.7433   18.0534  -34.1659 H   0  0  0  0  0  0  0  0  0  0  0  0
   -4.1626   17.5041  -35.7934 H   0  0  0  0  0  0  0  0  0  0  0  0
   -5.4869   19.5362  -34.3936 H   0  0  0  0  0  0  0  0  0  0  0  0
   -6.2078   18.6254  -35.7505 H   0  0  0  0  0  0  0  0  0  0  0  0
   -5.5934   21.3576  -32.1359 H   0  0  0  0  0  0  0  0  0  0  0  0
   -4.8781   22.4883  -29.1074 H   0  0  0  0  0  0  0  0  0  0  0  0
   -3.5003   21.4673  -27.8961 H   0  0  0  0  0  0  0  0  0  0  0  0
   -1.9390   20.2348  -26.3995 H   0  0  0  0  0  0  0  0  0  0  0  0
    0.4008   21.0438  -26.0921 H   0  0  0  0  0  0  0  0  0  0  0  0
    1.1953   23.0610  -27.3161 H   0  0  0  0  0  0  0  0  0  0  0  0
   -0.6360   24.9110  -29.8160 H   0  0  0  0  0  0  0  0  0  0  0  0
  1  2  2  0
  2  3  1  0
  3  4  1  0
  4  5  2  0
  5  6  1  0
  6  7  2  0
  7  8  1  0
  8  9  1  0
  9 10  2  0
  9 11  2  0
  9 12  1  0
 12 13  1  0
 13 14  1  0
 14 15  1  0
 15 16  1  0
  8 17  2  0
  2 18  1  0
 18 19  1  0
 19 20  2  0
 20 21  1  0
 21 22  2  0
 22 23  1  0
 23 24  2  0
 24 25  1  0
 25 26  2  0
 26 27  1  0
 20 28  1  0
 28 29  1  0
 17  4  1  0
 29 18  2  0
 16 12  1  0
 26 21  1  0
  5 30  1  0
  6 31  1  0
  7 32  1  0
 13 33  1  0
 13 34  1  0
 14 35  1  0
 14 36  1  0
 15 37  1  0
 15 38  1  0
 16 39  1  0
 16 40  1  0
 17 41  1  0
 19 42  1  0
 22 43  1  0
 23 44  1  0
 24 45  1  0
 25 46  1  0
 27 47  1  0
M  CHG  2   3  -1  28  -1
M  END
>  <UniqueID>  (16) 
16

>  <SMILES>  (16) 
O=C([N-]c1cccc(S(=O)(=O)N2CCCC2)c1)c1cc(-c2ccccc2O)[n-]n1

>  <Energy>  (16) 
89.2459590189651

>  <Genealogy>  (16) 
O=C([N-]c1cccc(S(=O)(=O)N2CCCC2)c1)c1cc(-c2ccccc2O)[n-]n1 (protonated)
O=C([N-]c1cccc(S(=O)(=O)N2CCCC2)c1)c1cc(-c2ccccc2O)[n-]n1 (3D coordinates assigned)
O=C([N-]c1cccc(S(=O)(=O)N2CCCC2)c1)c1cc(-c2ccccc2O)[n-]n1 (nonaromatic ring conformer: 89.2459590189651 kcal/mol)

>  <smiles>  (16) 
O=C(Nc1cccc(S(=O)(=O)N2CCCC2)c1)c1cc(-c2ccccc2O)[nH]n1

>  <score_type>  (16) 
oracle

>  <origin>  (16) 
adgpu

>  <m_score__min__energy>  (16) 
-12.880000000000001

>  <m_primary>  (16) 
energy

$$$$
16:0
     RDKit          3D

 57 60  0  0  0  0  0  0  0  0999 V2000
   -4.2730   23.0970  -32.1340 O   0  0  0  0  0  0  0  0  0  0  0  0
   -3.2970   22.5810  -31.5230 C   0  0  0  0  0  0  0  0  0  0  0  0
   -2.4110   21.7040  -32.2290 N   0  0  0  0  0  0  0  0  0  0  0  0
   -2.7930   20.4530  -32.8280 C   0  0  0  0  0  0  0  0  0  0  0  0
   -4.0680   19.9040  -32.6070 C   0  0  0  0  0  0  0  0  0  0  0  0
   -4.4140   18.6630  -33.1630 C   0  0  0  0  0  0  0  0  0  0  0  0
   -6.0170   17.9780  -32.8910 S   0  0  0  0  0  0  0  0  0  0  0  0
   -6.2550   16.8340  -33.8410 O   0  0  0  0  0  0  0  0  0  0  0  0
   -6.0760   17.4460  -31.4830 O   0  0  0  0  0  0  0  0  0  0  0  0
   -7.2460   19.2050  -33.1070 N   0  0  0  0  0  0  0  0  0  0  0  0
   -8.5900   18.7070  -32.7100 C   0  0  0  0  0  0  0  0  0  0  0  0
   -9.0330   19.2080  -31.3290 C   0  0  0  0  0  0  0  0  0  0  0  0
   -9.0670   20.7470  -31.2810 C   0  0  0  0  0  0  0  0  0  0  0  0
   -8.0090   21.3950  -32.1890 C   0  0  0  0  0  0  0  0  0  0  0  0
   -6.8270   20.4490  -32.4210 C   0  0  0  0  0  0  0  0  0  0  0  0
   -3.4820   17.9690  -33.9430 C   0  0  0  0  0  0  0  0  0  0  0  0
   -2.2130   18.5070  -34.1650 C   0  0  0  0  0  0  0  0  0  0  0  0
   -1.8570   19.7420  -33.6010 C   0  0  0  0  0  0  0  0  0  0  0  0
   -0.5570   20.2960  -33.8490 N   0  0  0  0  0  0  0  0  0  0  0  0
   -0.4250   21.5500  -34.5990 C   0  0  0  0  0  0  0  0  0  0  0  0
    0.9190   21.5530  -35.3370 C   0  0  0  0  0  0  0  0  0  0  0  0
    1.9870   21.2820  -34.4450 O   0  0  0  0  0  0  0  0  0  0  0  0
    1.8630   19.9730  -33.9190 C   0  0  0  0  0  0  0  0  0  0  0  0
    0.5950   19.8460  -33.0670 C   0  0  0  0  0  0  0  0  0  0  0  0
   -3.0550   22.9040  -30.0930 C   0  0  0  0  0  0  0  0  0  0  0  0
   -2.6860   21.8810  -29.1960 C   0  0  0  0  0  0  0  0  0  0  0  0
   -2.4010   22.1810  -27.8590 C   0  0  0  0  0  0  0  0  0  0  0  0
   -2.4710   23.5020  -27.4010 C   0  0  0  0  0  0  0  0  0  0  0  0
   -2.8410   24.5280  -28.2800 C   0  0  0  0  0  0  0  0  0  0  0  0
   -3.1380   24.2390  -29.6220 C   0  0  0  0  0  0  0  0  0  0  0  0
   -3.4930   25.2770  -30.4850 O   0  0  0  0  0  0  0  0  0  0  0  0
   -4.7995   20.4510  -31.9940 H   0  0  0  0  0  0  0  0  0  0  0  0
   -9.3234   19.0449  -33.4570 H   0  0  0  0  0  0  0  0  0  0  0  0
   -8.5314   17.6098  -32.6579 H   0  0  0  0  0  0  0  0  0  0  0  0
  -10.0390   18.8197  -31.1119 H   0  0  0  0  0  0  0  0  0  0  0  0
   -8.3104   18.8514  -30.5802 H   0  0  0  0  0  0  0  0  0  0  0  0
  -10.0623   21.0868  -31.6033 H   0  0  0  0  0  0  0  0  0  0  0  0
   -8.8470   21.0510  -30.2470 H   0  0  0  0  0  0  0  0  0  0  0  0
   -8.4686   21.6399  -33.1579 H   0  0  0  0  0  0  0  0  0  0  0  0
   -7.6364   22.3053  -31.6965 H   0  0  0  0  0  0  0  0  0  0  0  0
   -6.0764   20.9619  -33.0403 H   0  0  0  0  0  0  0  0  0  0  0  0
   -6.4098   20.1755  -31.4406 H   0  0  0  0  0  0  0  0  0  0  0  0
   -3.7501   16.9969  -34.3824 H   0  0  0  0  0  0  0  0  0  0  0  0
   -1.4880   17.9599  -34.7855 H   0  0  0  0  0  0  0  0  0  0  0  0
   -1.2454   21.6320  -35.3271 H   0  0  0  0  0  0  0  0  0  0  0  0
   -0.4697   22.4032  -33.9061 H   0  0  0  0  0  0  0  0  0  0  0  0
    0.9007   20.7822  -36.1215 H   0  0  0  0  0  0  0  0  0  0  0  0
    1.0746   22.5481  -35.7793 H   0  0  0  0  0  0  0  0  0  0  0  0
    1.8126   19.2539  -34.7498 H   0  0  0  0  0  0  0  0  0  0  0  0
    2.7366   19.7642  -33.2840 H   0  0  0  0  0  0  0  0  0  0  0  0
    0.4527   18.7955  -32.7734 H   0  0  0  0  0  0  0  0  0  0  0  0
    0.6932   20.4656  -32.1635 H   0  0  0  0  0  0  0  0  0  0  0  0
   -2.6217   20.8411  -29.5489 H   0  0  0  0  0  0  0  0  0  0  0  0
   -2.1207   21.3750  -27.1648 H   0  0  0  0  0  0  0  0  0  0  0  0
   -2.2357   23.7341  -26.3518 H   0  0  0  0  0  0  0  0  0  0  0  0
   -2.8992   25.5649  -27.9175 H   0  0  0  0  0  0  0  0  0  0  0  0
   -3.5660   25.1360  -31.4870 H   0  0  0  0  0  0  0  0  0  0  0  0
  1  2  2  0
  2  3  1  0
  3  4  1  0
  4  5  2  0
  5  6  1  0
  6  7  1  0
  7  8  2  0
  7  9  2  0
  7 10  1  0
 10 11  1  0
 11 12  1  0
 12 13  1  0
 13 14  1  0
 14 15  1  0
  6 16  2  0
 16 17  1  0
 17 18  2  0
 18 19  1  0
 19 20  1  0
 20 21  1  0
 21 22  1  0
 22 23  1  0
 23 24  1  0
  2 25  1  0
 25 26  2  0
 26 27  1  0
 27 28  2  0
 28 29  1  0
 29 30  2  0
 30 31  1  0
 18  4  1  0
 24 19  1  0
 30 25  1  0
 15 10  1  0
  5 32  1  0
 11 33  1  0
 11 34  1  0
 12 35  1  0
 12 36  1  0
 13 37  1  0
 13 38  1  0
 14 39  1  0
 14 40  1  0
 15 41  1  0
 15 42  1  0
 16 43  1  0
 17 44  1  0
 20 45  1  0
 20 46  1  0
 21 47  1  0
 21 48  1  0
 23 49  1  0
 23 50  1  0
 24 51  1  0
 24 52  1  0
 26 53  1  0
 27 54  1  0
 28 55  1  0
 29 56  1  0
 31 57  1  0
M  CHG  1   3  -1
M  END
>  <UniqueID>  (17) 
17

>  <SMILES>  (17) 
O=C([N-]c1cc(S(=O)(=O)N2CCCCC2)ccc1N1CCOCC1)c1ccccc1O

>  <Energy>  (17) 
78.00687012876868

>  <Genealogy>  (17) 
O=C([N-]c1cc(S(=O)(=O)N2CCCCC2)ccc1N1CCOCC1)c1ccccc1O (protonated)
O=C([N-]c1cc(S(=O)(=O)N2CCCCC2)ccc1N1CCOCC1)c1ccccc1O (3D coordinates assigned)
O=C([N-]c1cc(S(=O)(=O)N2CCCCC2)ccc1N1CCOCC1)c1ccccc1O (nonaromatic ring conformer: 78.00687012876868 kcal/mol)

>  <smiles>  (17) 
O=C(Nc1cc(S(=O)(=O)N2CCCCC2)ccc1N1CCOCC1)c1ccccc1O

>  <score_type>  (17) 
oracle

>  <origin>  (17) 
adgpu

>  <m_score__min__energy>  (17) 
-10.970000000000001

>  <m_primary>  (17) 
energy

$$$$
17:0
     RDKit          3D

 54 57  0  0  0  0  0  0  0  0999 V2000
    0.3840   25.0160  -24.5090 C   0  0  0  0  0  0  0  0  0  0  0  0
   -0.4550   24.8280  -25.7270 C   0  0  0  0  0  0  0  0  0  0  0  0
   -1.2580   23.7580  -25.9230 N   0  0  0  0  0  0  0  0  0  0  0  0
   -1.9630   23.8300  -27.0500 N   0  0  0  0  0  0  0  0  0  0  0  0
   -1.7280   24.9670  -27.7430 C   0  0  0  0  0  0  0  0  0  0  0  0
   -2.2990   25.2610  -28.8690 N   0  0  0  0  0  0  0  0  0  0  0  0
   -3.4510   24.2260  -29.6490 S   0  0  0  0  0  0  0  0  0  0  0  0
   -4.5390   23.8770  -28.6730 O   0  0  0  0  0  0  0  0  0  0  0  0
   -4.0320   24.9470  -30.8330 O   0  0  0  0  0  0  0  0  0  0  0  0
   -2.6680   22.7380  -30.2000 C   0  0  0  0  0  0  0  0  0  0  0  0
   -1.5680   22.2400  -29.4860 C   0  0  0  0  0  0  0  0  0  0  0  0
   -0.9350   21.0650  -29.8900 C   0  0  0  0  0  0  0  0  0  0  0  0
    0.4400   20.4540  -28.9880 Cl  0  0  0  0  0  0  0  0  0  0  0  0
   -1.3920   20.3750  -31.0120 C   0  0  0  0  0  0  0  0  0  0  0  0
   -2.4970   20.8440  -31.7390 C   0  0  0  0  0  0  0  0  0  0  0  0
   -2.9580   20.0730  -32.9190 C   0  0  0  0  0  0  0  0  0  0  0  0
   -3.0360   20.6400  -34.0410 O   0  0  0  0  0  0  0  0  0  0  0  0
   -3.2710   18.6760  -32.8280 N   0  0  0  0  0  0  0  0  0  0  0  0
   -4.5680   18.1090  -33.0570 C   0  0  0  0  0  0  0  0  0  0  0  0
   -5.6880   18.7790  -32.5490 C   0  0  0  0  0  0  0  0  0  0  0  0
   -6.9810   18.3070  -32.8110 C   0  0  0  0  0  0  0  0  0  0  0  0
   -8.3860   19.1750  -32.1870 S   0  0  0  0  0  0  0  0  0  0  0  0
   -8.7360   18.6400  -30.8270 O   0  0  0  0  0  0  0  0  0  0  0  0
   -9.5580   18.9320  -33.0980 O   0  0  0  0  0  0  0  0  0  0  0  0
   -8.0920   20.8930  -32.0760 N   0  0  0  0  0  0  0  0  0  0  0  0
   -9.3350   21.6450  -32.3150 C   0  0  0  0  0  0  0  0  0  0  0  0
   -9.1390   23.1410  -31.9900 C   0  0  0  0  0  0  0  0  0  0  0  0
   -7.7690   23.4480  -31.8140 O   0  0  0  0  0  0  0  0  0  0  0  0
   -7.2620   22.7550  -30.6860 C   0  0  0  0  0  0  0  0  0  0  0  0
   -7.5350   21.2380  -30.7600 C   0  0  0  0  0  0  0  0  0  0  0  0
   -7.1510   17.1480  -33.5780 C   0  0  0  0  0  0  0  0  0  0  0  0
   -6.0390   16.4540  -34.0590 C   0  0  0  0  0  0  0  0  0  0  0  0
   -4.7450   16.9110  -33.7870 C   0  0  0  0  0  0  0  0  0  0  0  0
   -3.6640   16.1440  -34.2230 O   0  0  0  0  0  0  0  0  0  0  0  0
   -3.1390   22.0400  -31.3350 C   0  0  0  0  0  0  0  0  0  0  0  0
   -4.5590   22.6250  -32.2120 Cl  0  0  0  0  0  0  0  0  0  0  0  0
   -0.6120   25.9580  -26.9700 S   0  0  0  0  0  0  0  0  0  0  0  0
   -0.2364   24.8770  -23.6114 H   0  0  0  0  0  0  0  0  0  0  0  0
    1.2001   24.2785  -24.5085 H   0  0  0  0  0  0  0  0  0  0  0  0
    0.8073   26.0313  -24.5085 H   0  0  0  0  0  0  0  0  0  0  0  0
   -1.2020   22.7805  -28.6006 H   0  0  0  0  0  0  0  0  0  0  0  0
   -0.8815   19.4541  -31.3305 H   0  0  0  0  0  0  0  0  0  0  0  0
   -5.5514   19.6840  -31.9388 H   0  0  0  0  0  0  0  0  0  0  0  0
   -9.6232   21.5398  -33.3714 H   0  0  0  0  0  0  0  0  0  0  0  0
  -10.1232   21.2417  -31.6622 H   0  0  0  0  0  0  0  0  0  0  0  0
   -9.5389   23.7442  -32.8184 H   0  0  0  0  0  0  0  0  0  0  0  0
   -9.6713   23.3684  -31.0546 H   0  0  0  0  0  0  0  0  0  0  0  0
   -6.1754   22.9167  -30.6304 H   0  0  0  0  0  0  0  0  0  0  0  0
   -7.7722   23.1458  -29.7933 H   0  0  0  0  0  0  0  0  0  0  0  0
   -6.5934   20.6902  -30.6076 H   0  0  0  0  0  0  0  0  0  0  0  0
   -8.2571   20.9616  -29.9776 H   0  0  0  0  0  0  0  0  0  0  0  0
   -8.1641   16.7830  -33.8024 H   0  0  0  0  0  0  0  0  0  0  0  0
   -6.1814   15.5413  -34.6562 H   0  0  0  0  0  0  0  0  0  0  0  0
   -2.7030   16.4120  -34.0590 H   0  0  0  0  0  0  0  0  0  0  0  0
  1  2  1  0
  2  3  2  0
  3  4  1  0
  4  5  1  0
  5  6  2  3
  6  7  1  0
  7  8  2  0
  7  9  2  0
  7 10  1  0
 10 11  2  0
 11 12  1  0
 12 13  1  0
 12 14  2  0
 14 15  1  0
 15 16  1  0
 16 17  2  0
 16 18  1  0
 18 19  1  0
 19 20  2  0
 20 21  1  0
 21 22  1  0
 22 23  2  0
 22 24  2  0
 22 25  1  0
 25 26  1  0
 26 27  1  0
 27 28  1  0
 28 29  1  0
 29 30  1  0
 21 31  2  0
 31 32  1  0
 32 33  2  0
 33 34  1  0
 15 35  2  0
 35 36  1  0
  5 37  1  0
 37  2  1  0
 35 10  1  0
 33 19  1  0
 30 25  1  0
  1 38  1  0
  1 39  1  0
  1 40  1  0
 11 41  1  0
 14 42  1  0
 20 43  1  0
 26 44  1  0
 26 45  1  0
 27 46  1  0
 27 47  1  0
 29 48  1  0
 29 49  1  0
 30 50  1  0
 30 51  1  0
 31 52  1  0
 32 53  1  0
 34 54  1  0
M  CHG  2   4  -1  18  -1
M  END
>  <UniqueID>  (18) 
18

>  <SMILES>  (18) 
Cc1n[n-]c(=NS(=O)(=O)c2cc(Cl)cc(C(=O)[N-]c3cc(S(=O)(=O)N4CCOCC4)ccc3O)c2Cl)s1

>  <Energy>  (18) 
114.17373967079855

>  <Genealogy>  (18) 
Cc1n[n-]c(=NS(=O)(=O)c2cc(Cl)cc(C(=O)[N-]c3cc(S(=O)(=O)N4CCOCC4)ccc3O)c2Cl)s1 (protonated)
Cc1n[n-]c(=NS(=O)(=O)c2cc(Cl)cc(C(=O)[N-]c3cc(S(=O)(=O)N4CCOCC4)ccc3O)c2Cl)s1 (3D coordinates assigned)
Cc1n[n-]c(=NS(=O)(=O)c2cc(Cl)cc(C(=O)[N-]c3cc(S(=O)(=O)N4CCOCC4)ccc3O)c2Cl)s1 (nonaromatic ring conformer: 114.17373967079855 kcal/mol)

>  <smiles>  (18) 
Cc1n[nH]c(=NS(=O)(=O)c2cc(Cl)cc(C(=O)Nc3cc(S(=O)(=O)N4CCOCC4)ccc3O)c2Cl)s1

>  <score_type>  (18) 
oracle

>  <origin>  (18) 
adgpu

>  <m_score__min__energy>  (18) 
-11.98

>  <m_primary>  (18) 
energy

$$$$
18:0
     RDKit          3D

 41 43  0  0  0  0  0  0  0  0999 V2000
   -1.6150   25.9280  -24.9900 C   0  0  0  0  0  0  0  0  0  0  0  0
   -2.4210   25.3970  -26.0800 N   0  0  0  0  0  0  0  0  0  0  0  0
   -1.9700   25.0820  -27.3100 C   0  0  0  0  0  0  0  0  0  0  0  0
   -3.0210   24.5350  -28.0090 C   0  0  0  0  0  0  0  0  0  0  0  0
   -2.9880   23.9110  -29.6500 S   0  0  0  0  0  0  0  0  0  0  0  0
   -3.5050   24.9670  -30.5870 O   0  0  0  0  0  0  0  0  0  0  0  0
   -1.5660   23.6010  -30.0270 O   0  0  0  0  0  0  0  0  0  0  0  0
   -3.9570   22.4630  -29.8000 N   0  0  0  0  0  0  0  0  0  0  0  0
   -3.3490   21.5340  -30.7750 C   0  0  0  0  0  0  0  0  0  0  0  0
   -4.3740   20.5200  -31.2880 C   0  0  0  0  0  0  0  0  0  0  0  0
   -5.4650   21.2450  -32.1340 C   0  0  0  0  0  0  0  0  0  0  0  0
   -4.9350   21.4890  -33.4220 O   0  0  0  0  0  0  0  0  0  0  0  0
   -6.7470   20.3980  -32.2370 C   0  0  0  0  0  0  0  0  0  0  0  0
   -8.0240   21.0040  -32.2620 C   0  0  0  0  0  0  0  0  0  0  0  0
   -9.1850   20.2260  -32.3190 C   0  0  0  0  0  0  0  0  0  0  0  0
   -9.0970   18.8340  -32.3290 C   0  0  0  0  0  0  0  0  0  0  0  0
   -7.8490   18.2160  -32.2710 C   0  0  0  0  0  0  0  0  0  0  0  0
   -6.6840   18.9860  -32.2150 C   0  0  0  0  0  0  0  0  0  0  0  0
   -5.8050   22.6390  -31.5200 C   0  0  0  0  0  0  0  0  0  0  0  0
   -5.3850   22.7820  -30.0440 C   0  0  0  0  0  0  0  0  0  0  0  0
   -4.0910   24.5330  -27.1370 C   0  0  0  0  0  0  0  0  0  0  0  0
   -3.6960   25.0570  -25.9610 N   0  0  0  0  0  0  0  0  0  0  0  0
   -2.0604   25.6346  -24.0280 H   0  0  0  0  0  0  0  0  0  0  0  0
   -0.5937   25.5253  -25.0593 H   0  0  0  0  0  0  0  0  0  0  0  0
   -1.5819   27.0253  -25.0593 H   0  0  0  0  0  0  0  0  0  0  0  0
   -0.9478   25.2344  -27.6866 H   0  0  0  0  0  0  0  0  0  0  0  0
   -2.9592   22.1118  -31.6260 H   0  0  0  0  0  0  0  0  0  0  0  0
   -2.5378   20.9856  -30.2739 H   0  0  0  0  0  0  0  0  0  0  0  0
   -3.8648   19.7724  -31.9140 H   0  0  0  0  0  0  0  0  0  0  0  0
   -4.8525   20.0250  -30.4300 H   0  0  0  0  0  0  0  0  0  0  0  0
   -4.9970   22.4630  -33.6090 H   0  0  0  0  0  0  0  0  0  0  0  0
   -8.1056   22.1007  -32.2363 H   0  0  0  0  0  0  0  0  0  0  0  0
  -10.1704   20.7134  -32.3561 H   0  0  0  0  0  0  0  0  0  0  0  0
  -10.0113   18.2247  -32.3826 H   0  0  0  0  0  0  0  0  0  0  0  0
   -7.7808   17.1181  -32.2693 H   0  0  0  0  0  0  0  0  0  0  0  0
   -5.7057   18.4870  -32.1530 H   0  0  0  0  0  0  0  0  0  0  0  0
   -5.2868   23.4127  -32.1056 H   0  0  0  0  0  0  0  0  0  0  0  0
   -6.8988   22.7494  -31.5563 H   0  0  0  0  0  0  0  0  0  0  0  0
   -5.5683   23.8199  -29.7291 H   0  0  0  0  0  0  0  0  0  0  0  0
   -5.9805   22.0589  -29.4674 H   0  0  0  0  0  0  0  0  0  0  0  0
   -5.1016   24.1636  -27.3654 H   0  0  0  0  0  0  0  0  0  0  0  0
  1  2  1  0
  2  3  1  0
  3  4  2  0
  4  5  1  0
  5  6  2  0
  5  7  2  0
  5  8  1  0
  8  9  1  0
  9 10  1  0
 10 11  1  0
 11 12  1  0
 11 13  1  0
 13 14  2  0
 14 15  1  0
 15 16  2  0
 16 17  1  0
 17 18  2  0
 11 19  1  0
 19 20  1  0
  4 21  1  0
 21 22  2  0
 22  2  1  0
 20  8  1  0
 18 13  1  0
  1 23  1  0
  1 24  1  0
  1 25  1  0
  3 26  1  0
  9 27  1  0
  9 28  1  0
 10 29  1  0
 10 30  1  0
 12 31  1  0
 14 32  1  0
 15 33  1  0
 16 34  1  0
 17 35  1  0
 18 36  1  0
 19 37  1  0
 19 38  1  0
 20 39  1  0
 20 40  1  0
 21 41  1  0
M  END
>  <UniqueID>  (19) 
19

>  <SMILES>  (19) 
Cn1cc(S(=O)(=O)N2CCC(O)(c3ccccc3)CC2)cn1

>  <Energy>  (19) 
84.64348937396714

>  <Genealogy>  (19) 
Cn1cc(S(=O)(=O)N2CCC(O)(c3ccccc3)CC2)cn1 (3D coordinates assigned)
Cn1cc(S(=O)(=O)N2CCC(O)(c3ccccc3)CC2)cn1 (nonaromatic ring conformer: 84.64348937396714 kcal/mol)

>  <smiles>  (19) 
Cn1cc(S(=O)(=O)N2CCC(O)(c3ccccc3)CC2)cn1

>  <score_type>  (19) 
oracle

>  <origin>  (19) 
adgpu

>  <m_score__min__energy>  (19) 
-9.3599999999999994

>  <m_primary>  (19) 
energy

$$$$
19:0
     RDKit          3D

 58 61  0  0  0  0  0  0  0  0999 V2000
    0.5380   23.1330  -25.2200 C   0  0  0  0  0  0  0  0  0  0  0  0
    0.0610   22.8900  -26.5400 O   0  0  0  0  0  0  0  0  0  0  0  0
   -1.2010   23.2810  -27.0190 C   0  0  0  0  0  0  0  0  0  0  0  0
   -1.9300   24.3200  -26.4130 C   0  0  0  0  0  0  0  0  0  0  0  0
   -3.1680   24.7130  -26.9250 C   0  0  0  0  0  0  0  0  0  0  0  0
   -3.7080   24.0760  -28.0540 C   0  0  0  0  0  0  0  0  0  0  0  0
   -4.9840   24.4520  -28.6060 N   0  0  0  0  0  0  0  0  0  0  0  0
   -5.2770   24.7030  -30.2990 S   0  0  0  0  0  0  0  0  0  0  0  0
   -4.2410   25.6480  -30.8410 O   0  0  0  0  0  0  0  0  0  0  0  0
   -6.6370   25.3210  -30.4660 O   0  0  0  0  0  0  0  0  0  0  0  0
   -5.1630   23.1730  -31.1750 C   0  0  0  0  0  0  0  0  0  0  0  0
   -3.9080   22.7330  -31.6220 C   0  0  0  0  0  0  0  0  0  0  0  0
   -3.7850   21.5230  -32.3050 C   0  0  0  0  0  0  0  0  0  0  0  0
   -4.9150   20.7450  -32.5550 C   0  0  0  0  0  0  0  0  0  0  0  0
   -6.1720   21.1770  -32.1270 C   0  0  0  0  0  0  0  0  0  0  0  0
   -6.3100   22.3980  -31.4360 C   0  0  0  0  0  0  0  0  0  0  0  0
   -7.5620   22.8640  -31.0050 O   0  0  0  0  0  0  0  0  0  0  0  0
   -8.8140   22.3180  -31.4120 C   0  0  0  0  0  0  0  0  0  0  0  0
   -2.9840   23.0360  -28.6560 C   0  0  0  0  0  0  0  0  0  0  0  0
   -1.7410   22.6260  -28.1460 C   0  0  0  0  0  0  0  0  0  0  0  0
   -1.0140   21.5150  -28.8060 C   0  0  0  0  0  0  0  0  0  0  0  0
   -0.3450   20.5470  -28.0450 C   0  0  0  0  0  0  0  0  0  0  0  0
    0.3250   19.5100  -28.6870 C   0  0  0  0  0  0  0  0  0  0  0  0
    0.3250   19.4360  -30.0430 N   0  0  0  0  0  0  0  0  0  0  0  0
   -0.3170   20.3470  -30.8290 C   0  0  0  0  0  0  0  0  0  0  0  0
   -0.2860   20.2030  -32.2730 N   0  0  0  0  0  0  0  0  0  0  0  0
    0.5220   21.1070  -33.1070 C   0  0  0  0  0  0  0  0  0  0  0  0
    0.2960   20.8390  -34.5990 C   0  0  0  0  0  0  0  0  0  0  0  0
   -1.1370   20.6830  -34.8750 N   0  0  0  0  0  0  0  0  0  0  0  0
   -1.7260   19.5180  -34.1840 C   0  0  0  0  0  0  0  0  0  0  0  0
   -0.9540   19.0660  -32.9270 C   0  0  0  0  0  0  0  0  0  0  0  0
   -1.0030   21.4100  -30.2070 C   0  0  0  0  0  0  0  0  0  0  0  0
   -0.1956   22.7593  -24.4905 H   0  0  0  0  0  0  0  0  0  0  0  0
    1.4967   22.6134  -25.0751 H   0  0  0  0  0  0  0  0  0  0  0  0
    0.6813   24.2140  -25.0751 H   0  0  0  0  0  0  0  0  0  0  0  0
   -1.5208   24.8278  -25.5272 H   0  0  0  0  0  0  0  0  0  0  0  0
   -3.7249   25.5283  -26.4401 H   0  0  0  0  0  0  0  0  0  0  0  0
   -5.7910   24.6040  -27.9600 H   0  0  0  0  0  0  0  0  0  0  0  0
   -3.0148   23.3465  -31.4325 H   0  0  0  0  0  0  0  0  0  0  0  0
   -2.7964   21.1824  -32.6465 H   0  0  0  0  0  0  0  0  0  0  0  0
   -4.8160   19.7892  -33.0904 H   0  0  0  0  0  0  0  0  0  0  0  0
   -7.0602   20.5607  -32.3303 H   0  0  0  0  0  0  0  0  0  0  0  0
   -9.4076   22.0591  -30.5228 H   0  0  0  0  0  0  0  0  0  0  0  0
   -9.3594   23.0600  -32.0137 H   0  0  0  0  0  0  0  0  0  0  0  0
   -8.6413   21.4135  -32.0137 H   0  0  0  0  0  0  0  0  0  0  0  0
   -3.3969   22.5329  -29.5428 H   0  0  0  0  0  0  0  0  0  0  0  0
   -0.3494   20.6065  -26.9466 H   0  0  0  0  0  0  0  0  0  0  0  0
    0.8553   18.7492  -28.0954 H   0  0  0  0  0  0  0  0  0  0  0  0
    0.2420   22.1470  -32.8833 H   0  0  0  0  0  0  0  0  0  0  0  0
    1.5841   20.9325  -32.8799 H   0  0  0  0  0  0  0  0  0  0  0  0
    0.6886   21.6842  -35.1834 H   0  0  0  0  0  0  0  0  0  0  0  0
    0.8184   19.9127  -34.8803 H   0  0  0  0  0  0  0  0  0  0  0  0
   -1.6300   21.5500  -34.5580 H   0  0  0  0  0  0  0  0  0  0  0  0
   -2.7514   19.7787  -33.8829 H   0  0  0  0  0  0  0  0  0  0  0  0
   -1.6882   18.6791  -34.8945 H   0  0  0  0  0  0  0  0  0  0  0  0
   -1.6598   18.6087  -32.2180 H   0  0  0  0  0  0  0  0  0  0  0  0
   -0.1857   18.3407  -33.2331 H   0  0  0  0  0  0  0  0  0  0  0  0
   -1.5297   22.1573  -30.8186 H   0  0  0  0  0  0  0  0  0  0  0  0
  1  2  1  0
  2  3  1  0
  3  4  2  0
  4  5  1  0
  5  6  2  0
  6  7  1  0
  7  8  1  0
  8  9  2  0
  8 10  2  0
  8 11  1  0
 11 12  2  0
 12 13  1  0
 13 14  2  0
 14 15  1  0
 15 16  2  0
 16 17  1  0
 17 18  1  0
  6 19  1  0
 19 20  2  0
 20 21  1  0
 21 22  2  0
 22 23  1  0
 23 24  2  0
 24 25  1  0
 25 26  1  0
 26 27  1  0
 27 28  1  0
 28 29  1  0
 29 30  1  0
 30 31  1  0
 25 32  2  0
 20  3  1  0
 32 21  1  0
 16 11  1  0
 31 26  1  0
  1 33  1  0
  1 34  1  0
  1 35  1  0
  4 36  1  0
  5 37  1  0
  7 38  1  0
 12 39  1  0
 13 40  1  0
 14 41  1  0
 15 42  1  0
 18 43  1  0
 18 44  1  0
 18 45  1  0
 19 46  1  0
 22 47  1  0
 23 48  1  0
 27 49  1  0
 27 50  1  0
 28 51  1  0
 28 52  1  0
 29 53  1  0
 30 54  1  0
 30 55  1  0
 31 56  1  0
 31 57  1  0
 32 58  1  0
M  END
>  <UniqueID>  (20) 
20

>  <SMILES>  (20) 
COc1ccc(NS(=O)(=O)c2ccccc2OC)cc1-c1ccnc(N2CCNCC2)c1

>  <Energy>  (20) 
77.307018713013

>  <Genealogy>  (20) 
COc1ccc(NS(=O)(=O)c2ccccc2OC)cc1-c1ccnc(N2CCNCC2)c1 (3D coordinates assigned)
COc1ccc(NS(=O)(=O)c2ccccc2OC)cc1-c1ccnc(N2CCNCC2)c1 (nonaromatic ring conformer: 77.307018713013 kcal/mol)

>  <smiles>  (20) 
COc1ccc(NS(=O)(=O)c2ccccc2OC)cc1-c1ccnc(N2CCNCC2)c1

>  <score_type>  (20) 
oracle

>  <origin>  (20) 
adgpu

>  <m_score__min__energy>  (20) 
-9.3800000000000008

>  <m_primary>  (20) 
energy

$$$$
20:0
     RDKit          3D

 57 60  0  0  0  0  0  0  0  0999 V2000
   -3.8660   25.1290  -30.6130 O   0  0  0  0  0  0  0  0  0  0  0  0
   -3.5300   23.9200  -30.5180 C   0  0  0  0  0  0  0  0  0  0  0  0
   -4.0430   22.9810  -31.4740 N   0  0  0  0  0  0  0  0  0  0  0  0
   -5.4100   22.5620  -31.5730 C   0  0  0  0  0  0  0  0  0  0  0  0
   -5.6800   21.1920  -31.6800 C   0  0  0  0  0  0  0  0  0  0  0  0
   -6.9990   20.7230  -31.7140 C   0  0  0  0  0  0  0  0  0  0  0  0
   -7.3240   18.9920  -31.8360 S   0  0  0  0  0  0  0  0  0  0  0  0
   -8.7340   18.7220  -31.3900 O   0  0  0  0  0  0  0  0  0  0  0  0
   -6.3970   18.2500  -30.9130 O   0  0  0  0  0  0  0  0  0  0  0  0
   -7.1120   18.3980  -33.4700 N   0  0  0  0  0  0  0  0  0  0  0  0
   -6.1440   19.2160  -34.2090 C   0  0  0  0  0  0  0  0  0  0  0  0
   -4.7940   18.5150  -34.1680 C   0  0  0  0  0  0  0  0  0  0  0  0
   -5.0760   17.1020  -33.7000 C   0  0  0  0  0  0  0  0  0  0  0  0
   -6.5790   17.0310  -33.4720 C   0  0  0  0  0  0  0  0  0  0  0  0
   -8.0570   21.6360  -31.6440 C   0  0  0  0  0  0  0  0  0  0  0  0
   -7.8000   23.0060  -31.5780 C   0  0  0  0  0  0  0  0  0  0  0  0
   -6.4850   23.4830  -31.5710 C   0  0  0  0  0  0  0  0  0  0  0  0
   -6.2820   24.8620  -31.6000 O   0  0  0  0  0  0  0  0  0  0  0  0
   -2.6260   23.5050  -29.4230 C   0  0  0  0  0  0  0  0  0  0  0  0
   -2.7370   22.2090  -28.8920 C   0  0  0  0  0  0  0  0  0  0  0  0
   -1.8760   21.7810  -27.8720 C   0  0  0  0  0  0  0  0  0  0  0  0
   -2.0210   20.1560  -27.2080 S   0  0  0  0  0  0  0  0  0  0  0  0
   -1.4500   20.1220  -25.8170 O   0  0  0  0  0  0  0  0  0  0  0  0
   -3.4780   19.7910  -27.1340 O   0  0  0  0  0  0  0  0  0  0  0  0
   -1.1840   19.0200  -28.2350 N   0  0  0  0  0  0  0  0  0  0  0  0
   -0.6080   19.7200  -29.3980 C   0  0  0  0  0  0  0  0  0  0  0  0
    0.3870   18.8140  -30.1500 C   0  0  0  0  0  0  0  0  0  0  0  0
    0.2540   17.4680  -29.7400 O   0  0  0  0  0  0  0  0  0  0  0  0
    0.6250   17.3430  -28.3780 C   0  0  0  0  0  0  0  0  0  0  0  0
   -0.1240   18.3440  -27.4710 C   0  0  0  0  0  0  0  0  0  0  0  0
   -0.9150   22.6610  -27.3620 C   0  0  0  0  0  0  0  0  0  0  0  0
   -0.8140   23.9590  -27.8670 C   0  0  0  0  0  0  0  0  0  0  0  0
   -1.6680   24.3890  -28.8870 C   0  0  0  0  0  0  0  0  0  0  0  0
   -1.5780   25.7010  -29.3360 O   0  0  0  0  0  0  0  0  0  0  0  0
   -4.8466   20.4763  -31.7380 H   0  0  0  0  0  0  0  0  0  0  0  0
   -6.4727   19.3288  -35.2527 H   0  0  0  0  0  0  0  0  0  0  0  0
   -6.0661   20.2141  -33.7533 H   0  0  0  0  0  0  0  0  0  0  0  0
   -4.3382   18.5030  -35.1690 H   0  0  0  0  0  0  0  0  0  0  0  0
   -4.0906   19.0305  -33.4975 H   0  0  0  0  0  0  0  0  0  0  0  0
   -4.7707   16.3763  -34.4682 H   0  0  0  0  0  0  0  0  0  0  0  0
   -4.5165   16.8603  -32.7843 H   0  0  0  0  0  0  0  0  0  0  0  0
   -7.0501   16.4497  -34.2784 H   0  0  0  0  0  0  0  0  0  0  0  0
   -6.7928   16.5405  -32.5109 H   0  0  0  0  0  0  0  0  0  0  0  0
   -9.0952   21.2725  -31.6410 H   0  0  0  0  0  0  0  0  0  0  0  0
   -8.6383   23.7166  -31.5311 H   0  0  0  0  0  0  0  0  0  0  0  0
   -5.3740   25.2860  -31.4600 H   0  0  0  0  0  0  0  0  0  0  0  0
   -3.5058   21.5246  -29.2799 H   0  0  0  0  0  0  0  0  0  0  0  0
   -1.4194   20.0090  -30.0822 H   0  0  0  0  0  0  0  0  0  0  0  0
   -0.0703   20.6105  -29.0404 H   0  0  0  0  0  0  0  0  0  0  0  0
    0.1906   18.8824  -31.2302 H   0  0  0  0  0  0  0  0  0  0  0  0
    1.4092   19.1508  -29.9228 H   0  0  0  0  0  0  0  0  0  0  0  0
    0.3958   16.3211  -28.0415 H   0  0  0  0  0  0  0  0  0  0  0  0
    1.7007   17.5600  -28.3015 H   0  0  0  0  0  0  0  0  0  0  0  0
   -0.5732   17.8033  -26.6249 H   0  0  0  0  0  0  0  0  0  0  0  0
    0.5875   19.0955  -27.0982 H   0  0  0  0  0  0  0  0  0  0  0  0
   -0.2375   22.3295  -26.5613 H   0  0  0  0  0  0  0  0  0  0  0  0
   -0.0583   24.6470  -27.4600 H   0  0  0  0  0  0  0  0  0  0  0  0
  1  2  2  0
  2  3  1  0
  3  4  1  0
  4  5  2  0
  5  6  1  0
  6  7  1  0
  7  8  2  0
  7  9  2  0
  7 10  1  0
 10 11  1  0
 11 12  1  0
 12 13  1  0
 13 14  1  0
  6 15  2  0
 15 16  1  0
 16 17  2  0
 17 18  1  0
  2 19  1  0
 19 20  2  0
 20 21  1  0
 21 22  1  0
 22 23  2  0
 22 24  2  0
 22 25  1  0
 25 26  1  0
 26 27  1  0
 27 28  1  0
 28 29  1  0
 29 30  1  0
 21 31  2  0
 31 32  1  0
 32 33  2  0
 33 34  1  0
 17  4  1  0
 33 19  1  0
 14 10  1  0
 30 25  1  0
  5 35  1  0
 11 36  1  0
 11 37  1  0
 12 38  1  0
 12 39  1  0
 13 40  1  0
 13 41  1  0
 14 42  1  0
 14 43  1  0
 15 44  1  0
 16 45  1  0
 18 46  1  0
 20 47  1  0
 26 48  1  0
 26 49  1  0
 27 50  1  0
 27 51  1  0
 29 52  1  0
 29 53  1  0
 30 54  1  0
 30 55  1  0
 31 56  1  0
 32 57  1  0
M  CHG  2   3  -1  34  -1
M  END
>  <UniqueID>  (21) 
21

>  <SMILES>  (21) 
O=C([N-]c1cc(S(=O)(=O)N2CCCC2)ccc1O)c1cc(S(=O)(=O)N2CCOCC2)ccc1[O-]

>  <Energy>  (21) 
77.73669687543165

>  <Genealogy>  (21) 
O=C([N-]c1cc(S(=O)(=O)N2CCCC2)ccc1O)c1cc(S(=O)(=O)N2CCOCC2)ccc1[O-] (protonated)
O=C([N-]c1cc(S(=O)(=O)N2CCCC2)ccc1O)c1cc(S(=O)(=O)N2CCOCC2)ccc1[O-] (3D coordinates assigned)
O=C([N-]c1cc(S(=O)(=O)N2CCCC2)ccc1O)c1cc(S(=O)(=O)N2CCOCC2)ccc1[O-] (nonaromatic ring conformer: 77.73669687543165 kcal/mol)

>  <smiles>  (21) 
O=C(Nc1cc(S(=O)(=O)N2CCCC2)ccc1O)c1cc(S(=O)(=O)N2CCOCC2)ccc1O

>  <score_type>  (21) 
oracle

>  <origin>  (21) 
adgpu

>  <m_score__min__energy>  (21) 
-14.24

>  <m_primary>  (21) 
energy

$$$$
21:0
     RDKit          3D

 57 60  0  0  0  0  0  0  0  0999 V2000
   -3.6980   21.5470  -33.5250 O   0  0  0  0  0  0  0  0  0  0  0  0
   -3.0000   21.8690  -32.5250 C   0  0  0  0  0  0  0  0  0  0  0  0
   -3.2880   23.0730  -31.8030 N   0  0  0  0  0  0  0  0  0  0  0  0
   -4.5540   23.4270  -31.2310 C   0  0  0  0  0  0  0  0  0  0  0  0
   -5.7210   22.7000  -31.5320 C   0  0  0  0  0  0  0  0  0  0  0  0
   -6.9510   23.0810  -30.9820 C   0  0  0  0  0  0  0  0  0  0  0  0
   -8.4010   22.1740  -31.4010 S   0  0  0  0  0  0  0  0  0  0  0  0
   -9.3360   23.0270  -32.2160 O   0  0  0  0  0  0  0  0  0  0  0  0
   -9.0980   21.7690  -30.1320 O   0  0  0  0  0  0  0  0  0  0  0  0
   -7.9540   20.7530  -32.3150 N   0  0  0  0  0  0  0  0  0  0  0  0
   -9.1390   19.9200  -32.6250 C   0  0  0  0  0  0  0  0  0  0  0  0
   -9.1120   18.5610  -31.9040 C   0  0  0  0  0  0  0  0  0  0  0  0
   -7.9400   17.8190  -32.1980 O   0  0  0  0  0  0  0  0  0  0  0  0
   -6.7470   18.5960  -32.1740 C   0  0  0  0  0  0  0  0  0  0  0  0
   -6.9010   20.0150  -31.5930 C   0  0  0  0  0  0  0  0  0  0  0  0
   -7.0210   24.1990  -30.1380 C   0  0  0  0  0  0  0  0  0  0  0  0
   -5.8680   24.9370  -29.8520 C   0  0  0  0  0  0  0  0  0  0  0  0
   -4.6390   24.5590  -30.4030 C   0  0  0  0  0  0  0  0  0  0  0  0
   -3.5020   25.3040  -30.1130 O   0  0  0  0  0  0  0  0  0  0  0  0
   -1.9170   20.9790  -32.0560 C   0  0  0  0  0  0  0  0  0  0  0  0
   -1.7130   20.8160  -30.6750 C   0  0  0  0  0  0  0  0  0  0  0  0
   -0.7070   19.9710  -30.1950 C   0  0  0  0  0  0  0  0  0  0  0  0
   -0.4680   19.7760  -28.4560 S   0  0  0  0  0  0  0  0  0  0  0  0
   -0.4800   18.3120  -28.1160 O   0  0  0  0  0  0  0  0  0  0  0  0
    0.8790   20.3260  -28.0780 O   0  0  0  0  0  0  0  0  0  0  0  0
   -1.7100   20.5900  -27.5250 N   0  0  0  0  0  0  0  0  0  0  0  0
   -1.5100   20.3880  -26.0850 C   0  0  0  0  0  0  0  0  0  0  0  0
   -2.4210   19.2600  -25.6270 C   0  0  0  0  0  0  0  0  0  0  0  0
   -3.4290   19.0690  -26.7420 C   0  0  0  0  0  0  0  0  0  0  0  0
   -3.0410   20.0580  -27.8330 C   0  0  0  0  0  0  0  0  0  0  0  0
    0.1130   19.2880  -31.1010 C   0  0  0  0  0  0  0  0  0  0  0  0
   -0.0710   19.4530  -32.4750 C   0  0  0  0  0  0  0  0  0  0  0  0
   -1.0830   20.2910  -32.9610 C   0  0  0  0  0  0  0  0  0  0  0  0
   -1.2640   20.4250  -34.3380 O   0  0  0  0  0  0  0  0  0  0  0  0
   -5.6666   21.8292  -32.2019 H   0  0  0  0  0  0  0  0  0  0  0  0
  -10.0432   20.4649  -32.3160 H   0  0  0  0  0  0  0  0  0  0  0  0
   -9.1339   19.7231  -33.7072 H   0  0  0  0  0  0  0  0  0  0  0  0
   -9.1574   18.7353  -30.8188 H   0  0  0  0  0  0  0  0  0  0  0  0
   -9.9763   17.9773  -32.2536 H   0  0  0  0  0  0  0  0  0  0  0  0
   -6.0029   18.0587  -31.5677 H   0  0  0  0  0  0  0  0  0  0  0  0
   -6.4460   18.7265  -33.2239 H   0  0  0  0  0  0  0  0  0  0  0  0
   -7.1721   19.9440  -30.5293 H   0  0  0  0  0  0  0  0  0  0  0  0
   -5.9476   20.5522  -31.7042 H   0  0  0  0  0  0  0  0  0  0  0  0
   -7.9853   24.4961  -29.6999 H   0  0  0  0  0  0  0  0  0  0  0  0
   -5.9276   25.8157  -29.1930 H   0  0  0  0  0  0  0  0  0  0  0  0
   -2.3520   21.3593  -29.9633 H   0  0  0  0  0  0  0  0  0  0  0  0
   -0.4610   20.1208  -25.8896 H   0  0  0  0  0  0  0  0  0  0  0  0
   -1.7480   21.3118  -25.5373 H   0  0  0  0  0  0  0  0  0  0  0  0
   -1.8415   18.3380  -25.4717 H   0  0  0  0  0  0  0  0  0  0  0  0
   -2.9122   19.4971  -24.6717 H   0  0  0  0  0  0  0  0  0  0  0  0
   -3.3836   18.0392  -27.1260 H   0  0  0  0  0  0  0  0  0  0  0  0
   -4.4568   19.2408  -26.3896 H   0  0  0  0  0  0  0  0  0  0  0  0
   -3.0204   19.5472  -28.8070 H   0  0  0  0  0  0  0  0  0  0  0  0
   -3.7738   20.8772  -27.8778 H   0  0  0  0  0  0  0  0  0  0  0  0
    0.9040   18.6199  -30.7295 H   0  0  0  0  0  0  0  0  0  0  0  0
    0.5835   18.9211  -33.1812 H   0  0  0  0  0  0  0  0  0  0  0  0
   -1.9490   21.0670  -34.7260 H   0  0  0  0  0  0  0  0  0  0  0  0
  1  2  2  0
  2  3  1  0
  3  4  1  0
  4  5  2  0
  5  6  1  0
  6  7  1  0
  7  8  2  0
  7  9  2  0
  7 10  1  0
 10 11  1  0
 11 12  1  0
 12 13  1  0
 13 14  1  0
 14 15  1  0
  6 16  2  0
 16 17  1  0
 17 18  2  0
 18 19  1  0
  2 20  1  0
 20 21  2  0
 21 22  1  0
 22 23  1  0
 23 24  2  0
 23 25  2  0
 23 26  1  0
 26 27  1  0
 27 28  1  0
 28 29  1  0
 29 30  1  0
 22 31  2  0
 31 32  1  0
 32 33  2  0
 33 34  1  0
 18  4  1  0
 33 20  1  0
 15 10  1  0
 30 26  1  0
  5 35  1  0
 11 36  1  0
 11 37  1  0
 12 38  1  0
 12 39  1  0
 14 40  1  0
 14 41  1  0
 15 42  1  0
 15 43  1  0
 16 44  1  0
 17 45  1  0
 21 46  1  0
 27 47  1  0
 27 48  1  0
 28 49  1  0
 28 50  1  0
 29 51  1  0
 29 52  1  0
 30 53  1  0
 30 54  1  0
 31 55  1  0
 32 56  1  0
 34 57  1  0
M  CHG  2   3  -1  19  -1
M  END
>  <UniqueID>  (22) 
22

>  <SMILES>  (22) 
O=C([N-]c1cc(S(=O)(=O)N2CCOCC2)ccc1[O-])c1cc(S(=O)(=O)N2CCCC2)ccc1O

>  <Energy>  (22) 
77.83676257064565

>  <Genealogy>  (22) 
O=C([N-]c1cc(S(=O)(=O)N2CCOCC2)ccc1[O-])c1cc(S(=O)(=O)N2CCCC2)ccc1O (protonated)
O=C([N-]c1cc(S(=O)(=O)N2CCOCC2)ccc1[O-])c1cc(S(=O)(=O)N2CCCC2)ccc1O (3D coordinates assigned)
O=C([N-]c1cc(S(=O)(=O)N2CCOCC2)ccc1[O-])c1cc(S(=O)(=O)N2CCCC2)ccc1O (nonaromatic ring conformer: 77.83676257064565 kcal/mol)

>  <smiles>  (22) 
O=C(Nc1cc(S(=O)(=O)N2CCOCC2)ccc1O)c1cc(S(=O)(=O)N2CCCC2)ccc1O

>  <score_type>  (22) 
oracle

>  <origin>  (22) 
adgpu

>  <m_score__min__energy>  (22) 
-14.710000000000001

>  <m_primary>  (22) 
energy

$$$$
22:0
     RDKit          3D

 33 36  0  0  0  0  0  0  0  0999 V2000
   -6.0058   25.9261  -29.9438 H   0  0  0  0  0  0  0  0  0  0  0  0
   -5.8750   24.9180  -30.3640 C   0  0  0  0  0  0  0  0  0  0  0  0
   -6.9860   24.0980  -30.5610 C   0  0  0  0  0  0  0  0  0  0  0  0
   -7.9915   24.4649  -30.3075 H   0  0  0  0  0  0  0  0  0  0  0  0
   -6.8230   22.8110  -31.0800 C   0  0  0  0  0  0  0  0  0  0  0  0
   -8.3430   21.6810  -31.3260 Br  0  0  0  0  0  0  0  0  0  0  0  0
   -5.5460   22.3490  -31.4160 C   0  0  0  0  0  0  0  0  0  0  0  0
   -5.4199   21.3281  -31.8058 H   0  0  0  0  0  0  0  0  0  0  0  0
   -4.4210   23.1810  -31.2590 C   0  0  0  0  0  0  0  0  0  0  0  0
   -3.0340   22.6760  -31.5970 C   0  0  0  0  0  0  0  0  0  0  0  0
   -3.0300   22.3231  -32.6388 H   0  0  0  0  0  0  0  0  0  0  0  0
   -2.3283   23.5072  -31.4521 H   0  0  0  0  0  0  0  0  0  0  0  0
   -2.6170   21.5780  -30.7270 N   0  0  0  0  0  0  0  0  0  0  0  0
   -1.5970   20.7750  -30.8630 C   0  0  0  0  0  0  0  0  0  0  0  0
   -0.6200   20.7440  -31.8540 C   0  0  0  0  0  0  0  0  0  0  0  0
   -0.3280   21.5160  -32.9840 C   0  0  0  0  0  0  0  0  0  0  0  0
   -0.9480   22.3855  -33.2478 H   0  0  0  0  0  0  0  0  0  0  0  0
    0.7840   21.1510  -33.7790 C   0  0  0  0  0  0  0  0  0  0  0  0
    1.1160   21.9290  -34.9900 C   0  0  0  0  0  0  0  0  0  0  0  0
    2.1590   21.6720  -35.8000 N   0  0  0  0  0  0  0  0  0  0  0  0
    2.0850   22.5910  -36.7480 N   0  0  0  0  0  0  0  0  0  0  0  0
    1.0430   23.3760  -36.5290 N   0  0  0  0  0  0  0  0  0  0  0  0
    0.4130   22.9890  -35.4320 N   0  0  0  0  0  0  0  0  0  0  0  0
    1.5770   20.0360  -33.4070 C   0  0  0  0  0  0  0  0  0  0  0  0
    2.4418   19.7534  -34.0253 H   0  0  0  0  0  0  0  0  0  0  0  0
    1.2710   19.2880  -32.2580 C   0  0  0  0  0  0  0  0  0  0  0  0
    1.8866   18.4255  -31.9627 H   0  0  0  0  0  0  0  0  0  0  0  0
    0.1660   19.6710  -31.5050 C   0  0  0  0  0  0  0  0  0  0  0  0
   -0.2850   19.0860  -30.3810 N   0  0  0  0  0  0  0  0  0  0  0  0
   -1.3550   19.7680  -29.9970 N   0  0  0  0  0  0  0  0  0  0  0  0
   -1.9230   19.5350  -29.1510 H   0  0  0  0  0  0  0  0  0  0  0  0
   -4.5940   24.4630  -30.6990 C   0  0  0  0  0  0  0  0  0  0  0  0
   -3.5020   25.2930  -30.4710 O   0  0  0  0  0  0  0  0  0  0  0  0
  1  2  1  0
  2  3  2  0
  3  4  1  0
  3  5  1  0
  5  6  1  0
  5  7  2  0
  7  8  1  0
  7  9  1  0
  9 10  1  0
 10 11  1  0
 10 12  1  0
 10 13  1  0
 13 14  2  0
 14 15  1  0
 15 16  2  0
 16 17  1  0
 16 18  1  0
 18 19  1  0
 19 20  1  0
 20 21  2  0
 21 22  1  0
 22 23  1  0
 18 24  2  0
 24 25  1  0
 24 26  1  0
 26 27  1  0
 26 28  2  0
 28 29  1  0
 29 30  1  0
 30 31  1  0
  9 32  2  0
 32 33  1  0
 32  2  1  0
 30 14  1  0
 28 15  1  0
 23 19  2  0
M  CHG  3  22  -1  29  -1  33  -1
M  END
>  <UniqueID>  (23) 
23

>  <SMILES>  (23) 
[O-]c1ccc(Br)cc1C/N=c1/[nH][n-]c2ccc(-c3nn[n-]n3)cc12

>  <Energy>  (23) 
119.95777669169316

>  <Genealogy>  (23) 
[O-]c1ccc(Br)cc1CN=c1[nH][n-]c2ccc(-c3nn[n-]n3)cc12 (protonated)
[O-]c1ccc(Br)cc1C/N=c1/[nH][n-]c2ccc(-c3nn[n-]n3)cc12 (cis-trans isomerization)
[O-]c1ccc(Br)cc1C/N=c1/[nH][n-]c2ccc(-c3nn[n-]n3)cc12 (3D coordinates assigned)
[O-]c1ccc(Br)cc1C/N=c1/[nH][n-]c2ccc(-c3nn[n-]n3)cc12 (optimized conformer: 119.95777669169316 kcal/mol)

>  <smiles>  (23) 
Oc1ccc(Br)cc1CN=c1[nH][nH]c2ccc(-c3nn[nH]n3)cc12

>  <score_type>  (23) 
oracle

>  <origin>  (23) 
adgpu

>  <m_score__min__energy>  (23) 
-11.51

>  <m_primary>  (23) 
energy

$$$$
23:0
     RDKit          3D

 37 38  0  0  0  0  0  0  0  0999 V2000
   -6.2480   18.0780  -33.3100 C   0  0  0  0  0  0  0  0  0  0  0  0
   -5.5420   19.2060  -32.6050 C   0  0  0  0  0  0  0  0  0  0  0  0
   -4.1370   19.2300  -32.5990 C   0  0  0  0  0  0  0  0  0  0  0  0
   -3.4450   20.2490  -31.9430 C   0  0  0  0  0  0  0  0  0  0  0  0
   -4.1440   21.2560  -31.2740 C   0  0  0  0  0  0  0  0  0  0  0  0
   -3.2850   22.5430  -30.4360 S   0  0  0  0  0  0  0  0  0  0  0  0
   -2.1220   23.0370  -31.2510 O   0  0  0  0  0  0  0  0  0  0  0  0
   -4.2500   23.6830  -30.2640 O   0  0  0  0  0  0  0  0  0  0  0  0
   -2.6980   21.9940  -28.8520 C   0  0  0  0  0  0  0  0  0  0  0  0
   -3.0980   20.7160  -28.4180 C   0  0  0  0  0  0  0  0  0  0  0  0
   -2.6670   20.2060  -27.1930 C   0  0  0  0  0  0  0  0  0  0  0  0
   -3.1770   18.6090  -26.6780 Cl  0  0  0  0  0  0  0  0  0  0  0  0
   -1.8280   20.9640  -26.3810 C   0  0  0  0  0  0  0  0  0  0  0  0
   -1.4210   22.2340  -26.7880 C   0  0  0  0  0  0  0  0  0  0  0  0
   -1.8490   22.7730  -28.0140 C   0  0  0  0  0  0  0  0  0  0  0  0
   -1.2650   24.3950  -28.4470 S   0  0  0  0  0  0  0  0  0  0  0  0
   -2.4960   25.2710  -29.2910 N   0  0  0  0  0  0  0  0  0  0  0  0
   -0.0700   24.3100  -29.3510 O   0  0  0  0  0  0  0  0  0  0  0  0
   -0.9050   25.1550  -27.2010 O   0  0  0  0  0  0  0  0  0  0  0  0
   -5.5440   21.2450  -31.2740 C   0  0  0  0  0  0  0  0  0  0  0  0
   -6.2550   20.2210  -31.9200 C   0  0  0  0  0  0  0  0  0  0  0  0
   -8.0260   20.2470  -31.8650 S   0  0  0  0  0  0  0  0  0  0  0  0
   -8.6560   20.0560  -33.4640 N   0  0  0  0  0  0  0  0  0  0  0  0
   -8.5250   19.1350  -30.9870 O   0  0  0  0  0  0  0  0  0  0  0  0
   -8.5100   21.5540  -31.3020 O   0  0  0  0  0  0  0  0  0  0  0  0
   -6.6775   17.3918  -32.5652 H   0  0  0  0  0  0  0  0  0  0  0  0
   -7.0524   18.4856  -33.9399 H   0  0  0  0  0  0  0  0  0  0  0  0
   -5.5298   17.5326  -33.9399 H   0  0  0  0  0  0  0  0  0  0  0  0
   -3.5768   18.4374  -33.1167 H   0  0  0  0  0  0  0  0  0  0  0  0
   -2.3451   20.2590  -31.9529 H   0  0  0  0  0  0  0  0  0  0  0  0
   -3.7602   20.1104  -29.0542 H   0  0  0  0  0  0  0  0  0  0  0  0
   -1.4856   20.5604  -25.4167 H   0  0  0  0  0  0  0  0  0  0  0  0
   -0.7551   22.8230  -26.1402 H   0  0  0  0  0  0  0  0  0  0  0  0
   -2.4670   24.9630  -30.2890 H   0  0  0  0  0  0  0  0  0  0  0  0
   -6.0936   22.0484  -30.7617 H   0  0  0  0  0  0  0  0  0  0  0  0
   -9.0910   19.1070  -33.5090 H   0  0  0  0  0  0  0  0  0  0  0  0
   -7.8400   20.0480  -34.1150 H   0  0  0  0  0  0  0  0  0  0  0  0
  1  2  1  0
  2  3  2  0
  3  4  1  0
  4  5  2  0
  5  6  1  0
  6  7  2  0
  6  8  2  0
  6  9  1  0
  9 10  2  0
 10 11  1  0
 11 12  1  0
 11 13  2  0
 13 14  1  0
 14 15  2  0
 15 16  1  0
 16 17  1  0
 16 18  2  0
 16 19  2  0
  5 20  1  0
 20 21  2  0
 21 22  1  0
 22 23  1  0
 22 24  2  0
 22 25  2  0
 21  2  1  0
 15  9  1  0
  1 26  1  0
  1 27  1  0
  1 28  1  0
  3 29  1  0
  4 30  1  0
 10 31  1  0
 13 32  1  0
 14 33  1  0
 17 34  1  0
 20 35  1  0
 23 36  1  0
 23 37  1  0
M  CHG  1  17  -1
M  END
>  <UniqueID>  (24) 
24

>  <SMILES>  (24) 
Cc1ccc(S(=O)(=O)c2cc(Cl)ccc2S([NH-])(=O)=O)cc1S(N)(=O)=O

>  <Energy>  (24) 
42.983316886879095

>  <Genealogy>  (24) 
Cc1ccc(S(=O)(=O)c2cc(Cl)ccc2S([NH-])(=O)=O)cc1S(N)(=O)=O (protonated)
Cc1ccc(S(=O)(=O)c2cc(Cl)ccc2S([NH-])(=O)=O)cc1S(N)(=O)=O (3D coordinates assigned)
Cc1ccc(S(=O)(=O)c2cc(Cl)ccc2S([NH-])(=O)=O)cc1S(N)(=O)=O (optimized conformer: 42.983316886879095 kcal/mol)

>  <smiles>  (24) 
Cc1ccc(S(=O)(=O)c2cc(Cl)ccc2S(N)(=O)=O)cc1S(N)(=O)=O

>  <score_type>  (24) 
oracle

>  <origin>  (24) 
adgpu

>  <m_score__min__energy>  (24) 
-12.109999999999999

>  <m_primary>  (24) 
energy

$$$$
24:0
     RDKit          3D

 64 68  0  0  0  0  0  0  0  0999 V2000
   -3.4650   21.0930  -30.1840 O   0  0  0  0  0  0  0  0  0  0  0  0
   -3.4840   22.2990  -30.5510 C   0  0  0  0  0  0  0  0  0  0  0  0
   -2.2590   23.0120  -30.7440 N   0  0  0  0  0  0  0  0  0  0  0  0
   -1.2800   23.2620  -29.7300 C   0  0  0  0  0  0  0  0  0  0  0  0
   -0.9900   24.4560  -29.0800 C   0  0  0  0  0  0  0  0  0  0  0  0
   -1.5890   25.6820  -29.3430 O   0  0  0  0  0  0  0  0  0  0  0  0
   -0.0600   24.2880  -28.1100 N   0  0  0  0  0  0  0  0  0  0  0  0
    0.2200   22.9690  -28.1470 C   0  0  0  0  0  0  0  0  0  0  0  0
    1.1300   22.2900  -27.3410 C   0  0  0  0  0  0  0  0  0  0  0  0
    1.3020   20.9110  -27.5550 C   0  0  0  0  0  0  0  0  0  0  0  0
    0.5680   20.2390  -28.5660 C   0  0  0  0  0  0  0  0  0  0  0  0
    0.8550   18.5300  -28.8940 S   0  0  0  0  0  0  0  0  0  0  0  0
    0.2980   17.7200  -27.7560 O   0  0  0  0  0  0  0  0  0  0  0  0
    2.3320   18.2650  -28.9880 O   0  0  0  0  0  0  0  0  0  0  0  0
    0.0970   18.0170  -30.3780 N   0  0  0  0  0  0  0  0  0  0  0  0
    0.5750   18.7820  -31.5340 C   0  0  0  0  0  0  0  0  0  0  0  0
   -0.5470   19.5180  -32.2180 C   0  0  0  0  0  0  0  0  0  0  0  0
   -0.3280   20.7940  -32.7680 C   0  0  0  0  0  0  0  0  0  0  0  0
   -1.3600   21.4610  -33.4310 C   0  0  0  0  0  0  0  0  0  0  0  0
   -2.6200   20.8690  -33.5430 C   0  0  0  0  0  0  0  0  0  0  0  0
   -2.8510   19.6040  -32.9870 C   0  0  0  0  0  0  0  0  0  0  0  0
   -1.8180   18.9310  -32.3270 C   0  0  0  0  0  0  0  0  0  0  0  0
   -0.3690   20.9480  -29.3440 C   0  0  0  0  0  0  0  0  0  0  0  0
   -0.5080   22.3140  -29.1100 C   0  0  0  0  0  0  0  0  0  0  0  0
   -4.7690   22.9850  -30.7880 C   0  0  0  0  0  0  0  0  0  0  0  0
   -5.9040   22.1980  -31.0560 C   0  0  0  0  0  0  0  0  0  0  0  0
   -7.1630   22.7880  -31.2170 C   0  0  0  0  0  0  0  0  0  0  0  0
   -8.5710   21.7760  -31.5360 S   0  0  0  0  0  0  0  0  0  0  0  0
   -9.7240   22.6420  -31.9600 O   0  0  0  0  0  0  0  0  0  0  0  0
   -8.9490   21.0760  -30.2590 O   0  0  0  0  0  0  0  0  0  0  0  0
   -8.1880   20.5820  -32.7600 N   0  0  0  0  0  0  0  0  0  0  0  0
   -9.1350   19.4490  -32.7870 C   0  0  0  0  0  0  0  0  0  0  0  0
   -8.8730   18.4260  -31.6730 C   0  0  0  0  0  0  0  0  0  0  0  0
   -7.4260   17.9410  -31.7270 C   0  0  0  0  0  0  0  0  0  0  0  0
   -6.4660   19.1270  -31.6390 C   0  0  0  0  0  0  0  0  0  0  0  0
   -6.7710   20.1640  -32.7320 C   0  0  0  0  0  0  0  0  0  0  0  0
   -7.2910   24.1790  -31.1340 C   0  0  0  0  0  0  0  0  0  0  0  0
   -6.1710   24.9730  -30.8830 C   0  0  0  0  0  0  0  0  0  0  0  0
   -4.9070   24.3930  -30.7190 C   0  0  0  0  0  0  0  0  0  0  0  0
   -3.8180   25.2420  -30.5200 O   0  0  0  0  0  0  0  0  0  0  0  0
    1.6976   22.8169  -26.5599 H   0  0  0  0  0  0  0  0  0  0  0  0
    2.0127   20.3477  -26.9324 H   0  0  0  0  0  0  0  0  0  0  0  0
    1.3244   19.5116  -31.1934 H   0  0  0  0  0  0  0  0  0  0  0  0
    1.0117   18.0758  -32.2555 H   0  0  0  0  0  0  0  0  0  0  0  0
    0.6602   21.2682  -32.6754 H   0  0  0  0  0  0  0  0  0  0  0  0
   -1.1802   22.4551  -33.8662 H   0  0  0  0  0  0  0  0  0  0  0  0
   -3.4307   21.3958  -34.0676 H   0  0  0  0  0  0  0  0  0  0  0  0
   -3.8450   19.1401  -33.0696 H   0  0  0  0  0  0  0  0  0  0  0  0
   -2.0018   17.9378  -31.8915 H   0  0  0  0  0  0  0  0  0  0  0  0
   -0.9711   20.4391  -30.1112 H   0  0  0  0  0  0  0  0  0  0  0  0
   -5.8007   21.1061  -31.1400 H   0  0  0  0  0  0  0  0  0  0  0  0
  -10.1558   19.8417  -32.6701 H   0  0  0  0  0  0  0  0  0  0  0  0
   -9.0037   18.9313  -33.7486 H   0  0  0  0  0  0  0  0  0  0  0  0
   -9.0616   18.8966  -30.6968 H   0  0  0  0  0  0  0  0  0  0  0  0
   -9.5438   17.5655  -31.8130 H   0  0  0  0  0  0  0  0  0  0  0  0
   -7.2398   17.2599  -30.8835 H   0  0  0  0  0  0  0  0  0  0  0  0
   -7.2597   17.4157  -32.6790 H   0  0  0  0  0  0  0  0  0  0  0  0
   -6.5709   19.6024  -30.6526 H   0  0  0  0  0  0  0  0  0  0  0  0
   -5.4394   18.7586  -31.7817 H   0  0  0  0  0  0  0  0  0  0  0  0
   -6.1479   21.0529  -32.5540 H   0  0  0  0  0  0  0  0  0  0  0  0
   -6.5508   19.6917  -33.7007 H   0  0  0  0  0  0  0  0  0  0  0  0
   -8.2771   24.6479  -31.2670 H   0  0  0  0  0  0  0  0  0  0  0  0
   -6.2822   26.0651  -30.8133 H   0  0  0  0  0  0  0  0  0  0  0  0
   -2.8890   24.9150  -30.2900 H   0  0  0  0  0  0  0  0  0  0  0  0
  1  2  2  0
  2  3  1  0
  3  4  1  0
  4  5  2  0
  5  6  1  0
  5  7  1  0
  7  8  1  0
  8  9  2  0
  9 10  1  0
 10 11  2  0
 11 12  1  0
 12 13  2  0
 12 14  2  0
 12 15  1  0
 15 16  1  0
 16 17  1  0
 17 18  2  0
 18 19  1  0
 19 20  2  0
 20 21  1  0
 21 22  2  0
 11 23  1  0
 23 24  2  0
  2 25  1  0
 25 26  2  0
 26 27  1  0
 27 28  1  0
 28 29  2  0
 28 30  2  0
 28 31  1  0
 31 32  1  0
 32 33  1  0
 33 34  1  0
 34 35  1  0
 35 36  1  0
 27 37  2  0
 37 38  1  0
 38 39  2  0
 39 40  1  0
 24  4  1  0
 39 25  1  0
 24  8  1  0
 36 31  1  0
 22 17  1  0
  9 41  1  0
 10 42  1  0
 16 43  1  0
 16 44  1  0
 18 45  1  0
 19 46  1  0
 20 47  1  0
 21 48  1  0
 22 49  1  0
 23 50  1  0
 26 51  1  0
 32 52  1  0
 32 53  1  0
 33 54  1  0
 33 55  1  0
 34 56  1  0
 34 57  1  0
 35 58  1  0
 35 59  1  0
 36 60  1  0
 36 61  1  0
 37 62  1  0
 38 63  1  0
 40 64  1  0
M  CHG  4   3  -1   6  -1   7  -1  15  -1
M  END
>  <UniqueID>  (25) 
25

>  <SMILES>  (25) 
O=C([N-]c1c([O-])[n-]c2ccc(S(=O)(=O)[N-]Cc3ccccc3)cc12)c1cc(S(=O)(=O)N2CCCCC2)ccc1O

>  <Energy>  (25) 
110.82748684315938

>  <Genealogy>  (25) 
O=C([N-]c1c([O-])[n-]c2ccc(S(=O)(=O)[N-]Cc3ccccc3)cc12)c1cc(S(=O)(=O)N2CCCCC2)ccc1O (protonated)
O=C([N-]c1c([O-])[n-]c2ccc(S(=O)(=O)[N-]Cc3ccccc3)cc12)c1cc(S(=O)(=O)N2CCCCC2)ccc1O (3D coordinates assigned)
O=C([N-]c1c([O-])[n-]c2ccc(S(=O)(=O)[N-]Cc3ccccc3)cc12)c1cc(S(=O)(=O)N2CCCCC2)ccc1O (nonaromatic ring conformer: 110.82748684315938 kcal/mol)

>  <smiles>  (25) 
O=C(Nc1c(O)[nH]c2ccc(S(=O)(=O)NCc3ccccc3)cc12)c1cc(S(=O)(=O)N2CCCCC2)ccc1O

>  <score_type>  (25) 
oracle

>  <origin>  (25) 
adgpu

>  <m_score__min__energy>  (25) 
-15.699999999999999

>  <m_primary>  (25) 
energy

$$$$
25:0
     RDKit          3D

 34 35  0  0  0  0  0  0  0  0999 V2000
   -8.5489   24.2417  -30.9191 H   0  0  0  0  0  0  0  0  0  0  0  0
   -7.6280   23.7150  -31.2100 C   0  0  0  0  0  0  0  0  0  0  0  0
   -7.7030   22.5450  -31.9670 C   0  0  0  0  0  0  0  0  0  0  0  0
   -8.6836   22.1503  -32.2714 H   0  0  0  0  0  0  0  0  0  0  0  0
   -6.5360   21.8740  -32.3390 C   0  0  0  0  0  0  0  0  0  0  0  0
   -6.6022   20.9590  -32.9459 H   0  0  0  0  0  0  0  0  0  0  0  0
   -5.2760   22.3600  -31.9430 C   0  0  0  0  0  0  0  0  0  0  0  0
   -4.0290   21.6440  -32.4050 C   0  0  0  0  0  0  0  0  0  0  0  0
   -3.4014   21.4130  -31.5317 H   0  0  0  0  0  0  0  0  0  0  0  0
   -3.4865   22.2968  -33.1046 H   0  0  0  0  0  0  0  0  0  0  0  0
   -4.3840   20.3460  -33.1230 C   0  0  0  0  0  0  0  0  0  0  0  0
   -4.5981   19.5631  -32.3806 H   0  0  0  0  0  0  0  0  0  0  0  0
   -5.2713   20.5064  -33.7531 H   0  0  0  0  0  0  0  0  0  0  0  0
   -3.5386   20.0325  -33.7531 H   0  0  0  0  0  0  0  0  0  0  0  0
   -5.2070   23.5460  -31.1760 C   0  0  0  0  0  0  0  0  0  0  0  0
   -3.9460   24.1030  -30.7810 N   0  0  0  0  0  0  0  0  0  0  0  0
   -3.5960   24.3750  -29.5570 C   0  0  0  0  0  0  0  0  0  0  0  0
   -2.3590   24.8870  -29.3310 N   0  0  0  0  0  0  0  0  0  0  0  0
   -1.9240   25.1910  -28.0800 C   0  0  0  0  0  0  0  0  0  0  0  0
   -0.5430   25.7520  -27.9110 C   0  0  0  0  0  0  0  0  0  0  0  0
   -0.3137   25.8451  -26.8392 H   0  0  0  0  0  0  0  0  0  0  0  0
    0.1867   25.0790  -28.3849 H   0  0  0  0  0  0  0  0  0  0  0  0
   -0.4894   26.7432  -28.3849 H   0  0  0  0  0  0  0  0  0  0  0  0
   -2.7760   24.9720  -26.9800 C   0  0  0  0  0  0  0  0  0  0  0  0
   -2.3510   25.2880  -25.5710 C   0  0  0  0  0  0  0  0  0  0  0  0
   -3.0265   24.7857  -24.8629 H   0  0  0  0  0  0  0  0  0  0  0  0
   -1.3221   24.9338  -25.4102 H   0  0  0  0  0  0  0  0  0  0  0  0
   -2.3939   26.3753  -25.4102 H   0  0  0  0  0  0  0  0  0  0  0  0
   -4.0490   24.4460  -27.2310 C   0  0  0  0  0  0  0  0  0  0  0  0
   -4.7396   24.2639  -26.3944 H   0  0  0  0  0  0  0  0  0  0  0  0
   -4.4370   24.1590  -28.5010 N   0  0  0  0  0  0  0  0  0  0  0  0
   -5.3980   23.7720  -28.6400 H   0  0  0  0  0  0  0  0  0  0  0  0
   -6.3850   24.2170  -30.8220 C   0  0  0  0  0  0  0  0  0  0  0  0
   -6.3297   25.1453  -30.2345 H   0  0  0  0  0  0  0  0  0  0  0  0
  1  2  1  0
  2  3  2  0
  3  4  1  0
  3  5  1  0
  5  6  1  0
  5  7  2  0
  7  8  1  0
  8  9  1  0
  8 10  1  0
  8 11  1  0
 11 12  1  0
 11 13  1  0
 11 14  1  0
  7 15  1  0
 15 16  1  0
 16 17  2  0
 17 18  1  0
 18 19  2  0
 19 20  1  0
 20 21  1  0
 20 22  1  0
 20 23  1  0
 19 24  1  0
 24 25  1  0
 25 26  1  0
 25 27  1  0
 25 28  1  0
 24 29  2  0
 29 30  1  0
 29 31  1  0
 31 32  1  0
 15 33  2  0
 33 34  1  0
 33  2  1  0
 31 17  1  0
M  END
>  <UniqueID>  (26) 
26

>  <SMILES>  (26) 
CCc1ccccc1/N=c1/nc(C)c(C)c[nH]1

>  <Energy>  (26) 
41.069407619229835

>  <Genealogy>  (26) 
CCc1ccccc1/N=c1/nc(C)c(C)c[nH]1 (cis-trans isomerization)
CCc1ccccc1/N=c1/nc(C)c(C)c[nH]1 (3D coordinates assigned)
CCc1ccccc1/N=c1/nc(C)c(C)c[nH]1 (optimized conformer: 41.069407619229835 kcal/mol)

>  <smiles>  (26) 
CCc1ccccc1N=c1nc(C)c(C)c[nH]1

>  <score_type>  (26) 
oracle

>  <origin>  (26) 
adgpu

>  <m_score__min__energy>  (26) 
-6.8799999999999999

>  <m_primary>  (26) 
energy

$$$$
26:0
     RDKit          3D

 42 45  0  0  0  0  0  0  0  0999 V2000
   -6.4950   25.9140  -29.8200 O   0  0  0  0  0  0  0  0  0  0  0  0
   -5.3950   24.9270  -30.0900 S   0  0  0  0  0  0  0  0  0  0  0  0
   -4.3140   25.6100  -30.8830 O   0  0  0  0  0  0  0  0  0  0  0  0
   -4.7310   24.3860  -28.5820 N   0  0  0  0  0  0  0  0  0  0  0  0
   -3.5550   23.5740  -28.4350 C   0  0  0  0  0  0  0  0  0  0  0  0
   -3.6360   22.2330  -28.0220 C   0  0  0  0  0  0  0  0  0  0  0  0
   -2.4770   21.4600  -27.8560 C   0  0  0  0  0  0  0  0  0  0  0  0
   -1.2170   22.0220  -28.1580 C   0  0  0  0  0  0  0  0  0  0  0  0
   -1.1400   23.3610  -28.5660 C   0  0  0  0  0  0  0  0  0  0  0  0
   -2.2950   24.1360  -28.7060 C   0  0  0  0  0  0  0  0  0  0  0  0
   -2.1650   25.4640  -29.1130 O   0  0  0  0  0  0  0  0  0  0  0  0
    0.0650   21.2480  -27.9510 C   0  0  0  0  0  0  0  0  0  0  0  0
   -0.1640   19.7340  -27.8940 C   0  0  0  0  0  0  0  0  0  0  0  0
   -1.3120   19.4060  -26.9410 C   0  0  0  0  0  0  0  0  0  0  0  0
   -2.6220   20.0100  -27.4540 C   0  0  0  0  0  0  0  0  0  0  0  0
   -6.0650   23.5580  -30.9850 C   0  0  0  0  0  0  0  0  0  0  0  0
   -7.4570   23.3900  -31.0600 C   0  0  0  0  0  0  0  0  0  0  0  0
   -8.0060   22.3330  -31.7900 C   0  0  0  0  0  0  0  0  0  0  0  0
   -7.1750   21.4260  -32.4510 C   0  0  0  0  0  0  0  0  0  0  0  0
   -5.7840   21.5730  -32.3810 C   0  0  0  0  0  0  0  0  0  0  0  0
   -4.9300   20.6740  -33.0340 C   0  0  0  0  0  0  0  0  0  0  0  0
   -3.5470   20.8420  -32.9470 C   0  0  0  0  0  0  0  0  0  0  0  0
   -3.0300   21.9070  -32.2080 C   0  0  0  0  0  0  0  0  0  0  0  0
   -3.8680   22.7730  -31.5780 N   0  0  0  0  0  0  0  0  0  0  0  0
   -5.2230   22.6420  -31.6430 C   0  0  0  0  0  0  0  0  0  0  0  0
   -4.6208   21.7837  -27.8264 H   0  0  0  0  0  0  0  0  0  0  0  0
   -0.1576   23.8078  -28.7788 H   0  0  0  0  0  0  0  0  0  0  0  0
   -2.9640   26.0480  -29.3270 H   0  0  0  0  0  0  0  0  0  0  0  0
    0.7489   21.4699  -28.7835 H   0  0  0  0  0  0  0  0  0  0  0  0
    0.4890   21.5577  -26.9844 H   0  0  0  0  0  0  0  0  0  0  0  0
   -0.4121   19.3665  -28.9007 H   0  0  0  0  0  0  0  0  0  0  0  0
    0.7529   19.2473  -27.5300 H   0  0  0  0  0  0  0  0  0  0  0  0
   -1.4210   18.3139  -26.8674 H   0  0  0  0  0  0  0  0  0  0  0  0
   -1.0867   19.8314  -25.9519 H   0  0  0  0  0  0  0  0  0  0  0  0
   -2.9564   19.4338  -28.3293 H   0  0  0  0  0  0  0  0  0  0  0  0
   -3.3532   19.9639  -26.6335 H   0  0  0  0  0  0  0  0  0  0  0  0
   -8.1206   24.0964  -30.5397 H   0  0  0  0  0  0  0  0  0  0  0  0
   -9.0983   22.2146  -31.8444 H   0  0  0  0  0  0  0  0  0  0  0  0
   -7.6126   20.5968  -33.0262 H   0  0  0  0  0  0  0  0  0  0  0  0
   -5.3485   19.8380  -33.6137 H   0  0  0  0  0  0  0  0  0  0  0  0
   -2.8701   20.1406  -33.4568 H   0  0  0  0  0  0  0  0  0  0  0  0
   -1.9413   22.0463  -32.1349 H   0  0  0  0  0  0  0  0  0  0  0  0
  1  2  2  0
  2  3  2  0
  2  4  1  0
  4  5  1  0
  5  6  2  0
  6  7  1  0
  7  8  2  0
  8  9  1  0
  9 10  2  0
 10 11  1  0
  8 12  1  0
 12 13  1  0
 13 14  1  0
 14 15  1  0
  2 16  1  0
 16 17  2  0
 17 18  1  0
 18 19  2  0
 19 20  1  0
 20 21  2  0
 21 22  1  0
 22 23  2  0
 23 24  1  0
 24 25  2  0
 10  5  1  0
 25 16  1  0
 15  7  1  0
 25 20  1  0
  6 26  1  0
  9 27  1  0
 11 28  1  0
 12 29  1  0
 12 30  1  0
 13 31  1  0
 13 32  1  0
 14 33  1  0
 14 34  1  0
 15 35  1  0
 15 36  1  0
 17 37  1  0
 18 38  1  0
 19 39  1  0
 21 40  1  0
 22 41  1  0
 23 42  1  0
M  CHG  1   4  -1
M  END
>  <UniqueID>  (27) 
27

>  <SMILES>  (27) 
O=S(=O)([N-]c1cc2c(cc1O)CCCC2)c1cccc2cccnc12

>  <Energy>  (27) 
51.67399542545346

>  <Genealogy>  (27) 
O=S(=O)([N-]c1cc2c(cc1O)CCCC2)c1cccc2cccnc12 (protonated)
O=S(=O)([N-]c1cc2c(cc1O)CCCC2)c1cccc2cccnc12 (3D coordinates assigned)
O=S(=O)([N-]c1cc2c(cc1O)CCCC2)c1cccc2cccnc12 (nonaromatic ring conformer: 51.67399542545346 kcal/mol)

>  <smiles>  (27) 
O=S(=O)(Nc1cc2c(cc1O)CCCC2)c1cccc2cccnc12

>  <score_type>  (27) 
oracle

>  <origin>  (27) 
adgpu

>  <m_score__min__energy>  (27) 
-11.25

>  <m_primary>  (27) 
energy

$$$$
27:0
     RDKit          3D

 31 32  0  0  0  0  0  0  0  0999 V2000
   -8.3820   18.8080  -31.9340 C   0  0  0  0  0  0  0  0  0  0  0  0
   -9.0990   20.1120  -32.2640 C   0  0  0  0  0  0  0  0  0  0  0  0
   -8.7540   21.1280  -31.3230 O   0  0  0  0  0  0  0  0  0  0  0  0
   -8.5390   22.4660  -31.6730 C   0  0  0  0  0  0  0  0  0  0  0  0
   -9.4440   23.1180  -32.2660 O   0  0  0  0  0  0  0  0  0  0  0  0
   -7.2480   23.1130  -31.3520 C   0  0  0  0  0  0  0  0  0  0  0  0
   -6.0620   22.6670  -31.9580 C   0  0  0  0  0  0  0  0  0  0  0  0
   -4.8390   23.2740  -31.6550 C   0  0  0  0  0  0  0  0  0  0  0  0
   -4.7780   24.3230  -30.7320 C   0  0  0  0  0  0  0  0  0  0  0  0
   -3.5090   24.9350  -30.4590 N   0  0  0  0  0  0  0  0  0  0  0  0
   -2.6570   24.6450  -29.3440 C   0  0  0  0  0  0  0  0  0  0  0  0
   -1.8520   25.5280  -28.9480 O   0  0  0  0  0  0  0  0  0  0  0  0
   -2.6500   23.3270  -28.6840 C   0  0  0  0  0  0  0  0  0  0  0  0
   -3.6930   22.7450  -27.9860 C   0  0  0  0  0  0  0  0  0  0  0  0
   -3.2290   21.5150  -27.5720 C   0  0  0  0  0  0  0  0  0  0  0  0
   -1.9390   21.4220  -28.0490 C   0  0  0  0  0  0  0  0  0  0  0  0
   -0.7700   19.9360  -27.8010 Br  0  0  0  0  0  0  0  0  0  0  0  0
   -1.6210   22.5110  -28.7090 O   0  0  0  0  0  0  0  0  0  0  0  0
   -5.9640   24.7890  -30.1420 C   0  0  0  0  0  0  0  0  0  0  0  0
   -7.1870   24.1840  -30.4430 C   0  0  0  0  0  0  0  0  0  0  0  0
   -8.3177   18.6911  -30.8421 H   0  0  0  0  0  0  0  0  0  0  0  0
   -8.9425   17.9632  -32.3609 H   0  0  0  0  0  0  0  0  0  0  0  0
   -7.3684   18.8287  -32.3609 H   0  0  0  0  0  0  0  0  0  0  0  0
   -8.8071   20.4396  -33.2727 H   0  0  0  0  0  0  0  0  0  0  0  0
  -10.1846   19.9407  -32.2183 H   0  0  0  0  0  0  0  0  0  0  0  0
   -6.0953   21.8343  -32.6760 H   0  0  0  0  0  0  0  0  0  0  0  0
   -3.9189   22.9240  -32.1459 H   0  0  0  0  0  0  0  0  0  0  0  0
   -4.6880   23.1754  -27.7997 H   0  0  0  0  0  0  0  0  0  0  0  0
   -3.7749   20.7633  -26.9830 H   0  0  0  0  0  0  0  0  0  0  0  0
   -5.9301   25.6346  -29.4393 H   0  0  0  0  0  0  0  0  0  0  0  0
   -8.1086   24.5482  -29.9655 H   0  0  0  0  0  0  0  0  0  0  0  0
  1  2  1  0
  2  3  1  0
  3  4  1  0
  4  5  2  0
  4  6  1  0
  6  7  2  0
  7  8  1  0
  8  9  2  0
  9 10  1  0
 10 11  1  0
 11 12  2  0
 11 13  1  0
 13 14  2  0
 14 15  1  0
 15 16  2  0
 16 17  1  0
 16 18  1  0
  9 19  1  0
 19 20  2  0
 20  6  1  0
 18 13  1  0
  1 21  1  0
  1 22  1  0
  1 23  1  0
  2 24  1  0
  2 25  1  0
  7 26  1  0
  8 27  1  0
 14 28  1  0
 15 29  1  0
 19 30  1  0
 20 31  1  0
M  CHG  1  10  -1
M  END
>  <UniqueID>  (28) 
28

>  <SMILES>  (28) 
CCOC(=O)c1ccc([N-]C(=O)c2ccc(Br)o2)cc1

>  <Energy>  (28) 
58.75172844453807

>  <Genealogy>  (28) 
CCOC(=O)c1ccc([N-]C(=O)c2ccc(Br)o2)cc1 (protonated)
CCOC(=O)c1ccc([N-]C(=O)c2ccc(Br)o2)cc1 (3D coordinates assigned)
CCOC(=O)c1ccc([N-]C(=O)c2ccc(Br)o2)cc1 (optimized conformer: 58.75172844453807 kcal/mol)

>  <smiles>  (28) 
CCOC(=O)c1ccc(NC(=O)c2ccc(Br)o2)cc1

>  <score_type>  (28) 
oracle

>  <origin>  (28) 
adgpu

>  <m_score__min__energy>  (28) 
-8.7400000000000002

>  <m_primary>  (28) 
energy

$$$$
28:0
     RDKit          3D

 48 50  0  0  0  0  0  0  0  0999 V2000
    4.2240   23.7870  -25.2140 H   0  0  0  0  0  0  0  0  0  0  0  0
    3.5890   24.2340  -25.9130 N   0  0  0  0  0  0  0  0  0  0  0  0
    2.1410   24.6620  -25.0750 S   0  0  0  0  0  0  0  0  0  0  0  0
    2.3500   25.9550  -24.3370 O   0  0  0  0  0  0  0  0  0  0  0  0
    1.8040   23.5880  -24.0780 O   0  0  0  0  0  0  0  0  0  0  0  0
    0.8240   24.8410  -26.2290 C   0  0  0  0  0  0  0  0  0  0  0  0
    0.9270   24.2850  -27.5110 C   0  0  0  0  0  0  0  0  0  0  0  0
    1.8317   23.7275  -27.7952 H   0  0  0  0  0  0  0  0  0  0  0  0
   -0.1160   24.4360  -28.4310 C   0  0  0  0  0  0  0  0  0  0  0  0
   -0.0385   23.9761  -29.4272 H   0  0  0  0  0  0  0  0  0  0  0  0
   -1.2580   25.1700  -28.0890 C   0  0  0  0  0  0  0  0  0  0  0  0
   -2.3370   25.2650  -29.0320 N   0  0  0  0  0  0  0  0  0  0  0  0
   -2.8950   24.2950  -29.7020 C   0  0  0  0  0  0  0  0  0  0  0  0
   -3.8460   24.6040  -30.6220 N   0  0  0  0  0  0  0  0  0  0  0  0
   -4.4700   23.6660  -31.3350 N   0  0  0  0  0  0  0  0  0  0  0  0
   -4.2020   22.3400  -31.1770 C   0  0  0  0  0  0  0  0  0  0  0  0
   -4.9260   21.3440  -32.0070 C   0  0  0  0  0  0  0  0  0  0  0  0
   -4.2940   20.6850  -33.0810 C   0  0  0  0  0  0  0  0  0  0  0  0
   -3.2433   20.9092  -33.3171 H   0  0  0  0  0  0  0  0  0  0  0  0
   -4.9920   19.7500  -33.8470 C   0  0  0  0  0  0  0  0  0  0  0  0
   -4.4905   19.2445  -34.6855 H   0  0  0  0  0  0  0  0  0  0  0  0
   -6.3240   19.4540  -33.5530 C   0  0  0  0  0  0  0  0  0  0  0  0
   -6.8717   18.7224  -34.1652 H   0  0  0  0  0  0  0  0  0  0  0  0
   -6.9640   20.0860  -32.4810 C   0  0  0  0  0  0  0  0  0  0  0  0
   -8.6490   19.7120  -32.1290 S   0  0  0  0  0  0  0  0  0  0  0  0
   -8.7880   19.2000  -30.7230 O   0  0  0  0  0  0  0  0  0  0  0  0
   -9.1180   18.6400  -33.0740 O   0  0  0  0  0  0  0  0  0  0  0  0
   -9.6290   21.1320  -32.3480 N   0  0  0  0  0  0  0  0  0  0  0  0
   -9.3180   22.1550  -31.3450 C   0  0  0  0  0  0  0  0  0  0  0  0
   -8.7397   21.6954  -30.5299 H   0  0  0  0  0  0  0  0  0  0  0  0
  -10.2626   22.5686  -30.9621 H   0  0  0  0  0  0  0  0  0  0  0  0
   -8.4990   23.2960  -31.9590 C   0  0  0  0  0  0  0  0  0  0  0  0
   -9.1782   24.1225  -32.2152 H   0  0  0  0  0  0  0  0  0  0  0  0
   -7.9910   22.9058  -32.8533 H   0  0  0  0  0  0  0  0  0  0  0  0
   -7.4300   23.8160  -30.9990 C   0  0  0  0  0  0  0  0  0  0  0  0
   -7.7594   23.6558  -29.9618 H   0  0  0  0  0  0  0  0  0  0  0  0
   -6.4876   23.2756  -31.1721 H   0  0  0  0  0  0  0  0  0  0  0  0
   -7.2734   24.8910  -31.1721 H   0  0  0  0  0  0  0  0  0  0  0  0
   -6.2650   21.0280  -31.7120 C   0  0  0  0  0  0  0  0  0  0  0  0
   -6.7687   21.5248  -30.8697 H   0  0  0  0  0  0  0  0  0  0  0  0
   -3.2340   21.9620  -30.2360 C   0  0  0  0  0  0  0  0  0  0  0  0
   -2.9900   20.8995  -30.0891 H   0  0  0  0  0  0  0  0  0  0  0  0
   -2.5830   22.9410  -29.4880 C   0  0  0  0  0  0  0  0  0  0  0  0
   -1.8315   22.6569  -28.7366 H   0  0  0  0  0  0  0  0  0  0  0  0
   -1.3730   25.7040  -26.7940 C   0  0  0  0  0  0  0  0  0  0  0  0
   -2.2863   26.2435  -26.5027 H   0  0  0  0  0  0  0  0  0  0  0  0
   -0.3310   25.5520  -25.8750 C   0  0  0  0  0  0  0  0  0  0  0  0
   -0.4176   25.9918  -24.8705 H   0  0  0  0  0  0  0  0  0  0  0  0
  1  2  1  0
  2  3  1  0
  3  4  2  0
  3  5  2  0
  3  6  1  0
  6  7  2  0
  7  8  1  0
  7  9  1  0
  9 10  1  0
  9 11  2  0
 11 12  1  0
 12 13  2  0
 13 14  1  0
 14 15  1  0
 15 16  2  0
 16 17  1  0
 17 18  2  0
 18 19  1  0
 18 20  1  0
 20 21  1  0
 20 22  2  0
 22 23  1  0
 22 24  1  0
 24 25  1  0
 25 26  2  0
 25 27  2  0
 25 28  1  0
 28 29  1  0
 29 30  1  0
 29 31  1  0
 29 32  1  0
 32 33  1  0
 32 34  1  0
 32 35  1  0
 35 36  1  0
 35 37  1  0
 35 38  1  0
 24 39  2  0
 39 40  1  0
 16 41  1  0
 41 42  1  0
 41 43  2  0
 43 44  1  0
 11 45  1  0
 45 46  1  0
 45 47  2  0
 47 48  1  0
 47  6  1  0
 43 13  1  0
 39 17  1  0
M  CHG  3   2  -1  14  -1  28  -1
M  END
>  <UniqueID>  (29) 
29

>  <SMILES>  (29) 
CCC[N-]S(=O)(=O)c1cccc(-c2cc/c(=N\c3ccc(S([NH-])(=O)=O)cc3)[n-]n2)c1

>  <Energy>  (29) 
60.295192127064254

>  <Genealogy>  (29) 
CCC[N-]S(=O)(=O)c1cccc(-c2ccc(=Nc3ccc(S([NH-])(=O)=O)cc3)[n-]n2)c1 (protonated)
CCC[N-]S(=O)(=O)c1cccc(-c2cc/c(=N\c3ccc(S([NH-])(=O)=O)cc3)[n-]n2)c1 (cis-trans isomerization)
CCC[N-]S(=O)(=O)c1cccc(-c2cc/c(=N\c3ccc(S([NH-])(=O)=O)cc3)[n-]n2)c1 (3D coordinates assigned)
CCC[N-]S(=O)(=O)c1cccc(-c2cc/c(=N\c3ccc(S([NH-])(=O)=O)cc3)[n-]n2)c1 (optimized conformer: 60.295192127064254 kcal/mol)

>  <smiles>  (29) 
CCCNS(=O)(=O)c1cccc(-c2ccc(=Nc3ccc(S(N)(=O)=O)cc3)[nH]n2)c1

>  <score_type>  (29) 
oracle

>  <origin>  (29) 
adgpu

>  <m_score__min__energy>  (29) 
-11.539999999999999

>  <m_primary>  (29) 
energy

$$$$
29:0
     RDKit          3D

 57 60  0  0  0  0  0  0  0  0999 V2000
   -5.3480   16.2750  -32.3500 C   0  0  0  0  0  0  0  0  0  0  0  0
   -5.3260   17.6690  -32.0620 O   0  0  0  0  0  0  0  0  0  0  0  0
   -6.4230   18.5310  -32.2050 C   0  0  0  0  0  0  0  0  0  0  0  0
   -7.7290   18.1420  -31.8410 C   0  0  0  0  0  0  0  0  0  0  0  0
   -8.7940   19.0370  -31.9710 C   0  0  0  0  0  0  0  0  0  0  0  0
   -8.5720   20.3250  -32.4620 C   0  0  0  0  0  0  0  0  0  0  0  0
   -7.2850   20.7200  -32.8280 C   0  0  0  0  0  0  0  0  0  0  0  0
   -6.2070   19.8270  -32.7120 C   0  0  0  0  0  0  0  0  0  0  0  0
   -4.8890   20.2450  -33.1020 N   0  0  0  0  0  0  0  0  0  0  0  0
   -4.5440   21.6690  -33.0960 C   0  0  0  0  0  0  0  0  0  0  0  0
   -3.0750   21.8900  -32.6710 C   0  0  0  0  0  0  0  0  0  0  0  0
   -2.1720   20.7340  -32.9430 N   0  0  0  0  0  0  0  0  0  0  0  0
   -1.9600   19.8960  -31.7290 C   0  0  0  0  0  0  0  0  0  0  0  0
   -0.8110   20.4220  -30.8380 C   0  0  0  0  0  0  0  0  0  0  0  0
   -0.7920   21.9550  -30.7020 C   0  0  0  0  0  0  0  0  0  0  0  0
   -1.2130   22.4280  -29.3050 C   0  0  0  0  0  0  0  0  0  0  0  0
   -2.6090   22.8600  -29.3190 N   0  0  0  0  0  0  0  0  0  0  0  0
   -3.0750   24.2030  -29.4740 C   0  0  0  0  0  0  0  0  0  0  0  0
   -2.3490   25.2250  -29.3500 O   0  0  0  0  0  0  0  0  0  0  0  0
   -4.4900   24.2040  -29.8250 C   0  0  0  0  0  0  0  0  0  0  0  0
   -5.3680   25.2600  -30.0690 C   0  0  0  0  0  0  0  0  0  0  0  0
   -6.6960   24.9470  -30.4120 C   0  0  0  0  0  0  0  0  0  0  0  0
   -7.1140   23.6020  -30.5070 C   0  0  0  0  0  0  0  0  0  0  0  0
   -6.2070   22.5550  -30.2620 C   0  0  0  0  0  0  0  0  0  0  0  0
   -4.8990   22.8900  -29.9190 C   0  0  0  0  0  0  0  0  0  0  0  0
   -3.7440   22.0480  -29.6280 C   0  0  0  0  0  0  0  0  0  0  0  0
   -3.7260   20.7880  -29.6640 O   0  0  0  0  0  0  0  0  0  0  0  0
   -2.6460   19.9210  -34.0860 C   0  0  0  0  0  0  0  0  0  0  0  0
   -4.0210   19.2960  -33.8040 C   0  0  0  0  0  0  0  0  0  0  0  0
   -5.3570   15.7062  -31.4085 H   0  0  0  0  0  0  0  0  0  0  0  0
   -6.2500   16.0350  -32.9320 H   0  0  0  0  0  0  0  0  0  0  0  0
   -4.4540   16.0067  -32.9320 H   0  0  0  0  0  0  0  0  0  0  0  0
   -7.9100   17.1288  -31.4528 H   0  0  0  0  0  0  0  0  0  0  0  0
   -9.8099   18.7261  -31.6858 H   0  0  0  0  0  0  0  0  0  0  0  0
   -9.4120   21.0284  -32.5603 H   0  0  0  0  0  0  0  0  0  0  0  0
   -7.1134   21.7372  -33.2098 H   0  0  0  0  0  0  0  0  0  0  0  0
   -4.6896   22.0770  -34.1071 H   0  0  0  0  0  0  0  0  0  0  0  0
   -5.1952   22.1805  -32.3719 H   0  0  0  0  0  0  0  0  0  0  0  0
   -2.6877   22.7641  -33.2151 H   0  0  0  0  0  0  0  0  0  0  0  0
   -3.0826   22.0313  -31.5801 H   0  0  0  0  0  0  0  0  0  0  0  0
   -1.2480   21.1270  -33.2380 H   0  0  0  0  0  0  0  0  0  0  0  0
   -2.8884   19.8887  -31.1391 H   0  0  0  0  0  0  0  0  0  0  0  0
   -1.6856   18.8852  -32.0651 H   0  0  0  0  0  0  0  0  0  0  0  0
   -0.9204   19.9848  -29.8346 H   0  0  0  0  0  0  0  0  0  0  0  0
    0.1329   20.1283  -31.3204 H   0  0  0  0  0  0  0  0  0  0  0  0
    0.2282   22.3140  -30.9030 H   0  0  0  0  0  0  0  0  0  0  0  0
   -1.5149   22.3627  -31.4239 H   0  0  0  0  0  0  0  0  0  0  0  0
   -1.0958   21.6001  -28.5902 H   0  0  0  0  0  0  0  0  0  0  0  0
   -0.5778   23.2747  -29.0057 H   0  0  0  0  0  0  0  0  0  0  0  0
   -5.0325   26.3050  -29.9955 H   0  0  0  0  0  0  0  0  0  0  0  0
   -7.4143   25.7567  -30.6077 H   0  0  0  0  0  0  0  0  0  0  0  0
   -8.1557   23.3711  -30.7743 H   0  0  0  0  0  0  0  0  0  0  0  0
   -6.5211   21.5036  -30.3389 H   0  0  0  0  0  0  0  0  0  0  0  0
   -2.7220   20.5647  -34.9747 H   0  0  0  0  0  0  0  0  0  0  0  0
   -1.9253   19.1066  -34.2512 H   0  0  0  0  0  0  0  0  0  0  0  0
   -4.4915   19.0140  -34.7575 H   0  0  0  0  0  0  0  0  0  0  0  0
   -3.8818   18.4087  -33.1689 H   0  0  0  0  0  0  0  0  0  0  0  0
  1  2  1  0
  2  3  1  0
  3  4  2  0
  4  5  1  0
  5  6  2  0
  6  7  1  0
  7  8  2  0
  8  9  1  0
  9 10  1  0
 10 11  1  0
 11 12  1  0
 12 13  1  0
 13 14  1  0
 14 15  1  0
 15 16  1  0
 16 17  1  0
 17 18  1  0
 18 19  2  0
 18 20  1  0
 20 21  2  0
 21 22  1  0
 22 23  2  0
 23 24  1  0
 24 25  2  0
 25 26  1  0
 26 27  2  0
 12 28  1  0
 28 29  1  0
  8  3  1  0
 29  9  1  0
 26 17  1  0
 25 20  1  0
  1 30  1  0
  1 31  1  0
  1 32  1  0
  4 33  1  0
  5 34  1  0
  6 35  1  0
  7 36  1  0
 10 37  1  0
 10 38  1  0
 11 39  1  0
 11 40  1  0
 12 41  1  0
 13 42  1  0
 13 43  1  0
 14 44  1  0
 14 45  1  0
 15 46  1  0
 15 47  1  0
 16 48  1  0
 16 49  1  0
 21 50  1  0
 22 51  1  0
 23 52  1  0
 24 53  1  0
 28 54  1  0
 28 55  1  0
 29 56  1  0
 29 57  1  0
M  CHG  1  12   1
M  END
>  <UniqueID>  (30) 
30

>  <SMILES>  (30) 
COc1ccccc1N1CC[NH+](CCCCN2C(=O)c3ccccc3C2=O)CC1

>  <Energy>  (30) 
101.04169216437778

>  <Genealogy>  (30) 
COc1ccccc1N1CC[NH+](CCCCN2C(=O)c3ccccc3C2=O)CC1 (protonated)
COc1ccccc1N1CC[NH+](CCCCN2C(=O)c3ccccc3C2=O)CC1 (3D coordinates assigned)
COc1ccccc1N1CC[NH+](CCCCN2C(=O)c3ccccc3C2=O)CC1 (nonaromatic ring conformer: 101.04169216437778 kcal/mol)

>  <smiles>  (30) 
COc1ccccc1N1CCN(CCCCN2C(=O)c3ccccc3C2=O)CC1

>  <score_type>  (30) 
oracle

>  <origin>  (30) 
adgpu

>  <m_score__min__energy>  (30) 
-8

>  <m_primary>  (30) 
energy

$$$$
30:0
     RDKit          3D

 44 46  0  0  1  0  0  0  0  0999 V2000
   -9.1190   18.1590  -31.6060 C   0  0  0  0  0  0  0  0  0  0  0  0
   -9.2420   19.5680  -31.6700 O   0  0  0  0  0  0  0  0  0  0  0  0
   -8.1590   20.4050  -31.9260 C   0  0  0  0  0  0  0  0  0  0  0  0
   -6.8700   19.9180  -32.0690 C   0  0  0  0  0  0  0  0  0  0  0  0
   -5.8000   20.7580  -32.3240 C   0  0  0  0  0  0  0  0  0  0  0  0
   -4.6150   20.2860  -32.4520 N   0  0  0  0  0  0  0  0  0  0  0  0
   -3.2610   21.3010  -32.7700 S   0  0  0  0  0  0  0  0  0  0  0  0
   -3.6160   22.3020  -33.8030 O   0  0  0  0  0  0  0  0  0  0  0  0
   -2.0160   20.5340  -33.1100 O   0  0  0  0  0  0  0  0  0  0  0  0
   -2.8950   22.1280  -31.2520 C   0  0  0  0  0  0  0  0  0  0  0  0
   -3.7530   23.0870  -30.7330 C   0  0  0  0  0  0  0  0  0  0  0  0
   -3.4770   23.7410  -29.5440 C   0  0  0  0  0  0  0  0  0  0  0  0
   -2.3180   23.4270  -28.8620 C   0  0  0  0  0  0  0  0  0  0  0  0
   -1.9680   24.0600  -27.6320 N   0  0  0  0  0  0  0  0  0  0  0  0
   -1.5740   25.4160  -27.6610 C   0  0  0  0  0  0  0  0  0  0  0  0
   -1.5670   25.9590  -28.8140 O   0  0  0  0  0  0  0  0  0  0  0  0
   -1.1880   26.2170  -26.5290 C   0  0  0  0  0  0  0  0  0  0  0  0
   -1.3360   25.6640  -25.2500 C   0  0  0  0  0  0  0  0  0  0  0  0
   -0.9950   26.3510  -24.1110 C   0  0  0  0  0  0  0  0  0  0  0  0
   -0.4870   27.6240  -24.1610 C   0  0  0  0  0  0  0  0  0  0  0  0
   -0.3290   28.1920  -25.4070 C   0  0  0  0  0  0  0  0  0  0  0  0
   -0.6780   27.4880  -26.5670 C   0  0  0  0  0  0  0  0  0  0  0  0
   -0.4860   28.1360  -27.7530 O   0  0  0  0  0  0  0  0  0  0  0  0
   -1.4600   22.4840  -29.3580 C   0  0  0  0  0  0  0  0  0  0  0  0
   -1.7420   21.8370  -30.5430 C   0  0  0  0  0  0  0  0  0  0  0  0
   -6.0020   22.0820  -32.4390 N   0  0  0  0  0  0  0  0  0  0  0  0
   -7.2420   22.5630  -32.3040 C   0  0  0  0  0  0  0  0  0  0  0  0
   -8.2980   21.7470  -32.0530 N   0  0  0  0  0  0  0  0  0  0  0  0
   -9.0912   17.8408  -30.5534 H   0  0  0  0  0  0  0  0  0  0  0  0
   -9.9798   17.6926  -32.1074 H   0  0  0  0  0  0  0  0  0  0  0  0
   -8.1904   17.8488  -32.1074 H   0  0  0  0  0  0  0  0  0  0  0  0
   -6.6924   18.8363  -31.9776 H   0  0  0  0  0  0  0  0  0  0  0  0
   -4.6752   23.3339  -31.2795 H   0  0  0  0  0  0  0  0  0  0  0  0
   -4.1699   24.4985  -29.1491 H   0  0  0  0  0  0  0  0  0  0  0  0
   -2.0070   23.5300  -26.7490 H   0  0  0  0  0  0  0  0  0  0  0  0
   -1.7391   24.6449  -25.1552 H   0  0  0  0  0  0  0  0  0  0  0  0
   -1.1329   25.8676  -23.1326 H   0  0  0  0  0  0  0  0  0  0  0  0
   -0.2168   28.1692  -23.2446 H   0  0  0  0  0  0  0  0  0  0  0  0
    0.0763   29.2111  -25.4917 H   0  0  0  0  0  0  0  0  0  0  0  0
   -1.0100   28.0580  -28.5950 H   0  0  0  0  0  0  0  0  0  0  0  0
   -0.5391   22.2401  -28.8081 H   0  0  0  0  0  0  0  0  0  0  0  0
   -1.0426   21.0809  -30.9293 H   0  0  0  0  0  0  0  0  0  0  0  0
   -5.2310   22.7570  -32.6310 H   0  0  0  0  0  0  0  0  0  0  0  0
   -7.4110   23.6458  -32.3985 H   0  0  0  0  0  0  0  0  0  0  0  0
  1  2  1  0
  2  3  1  0
  3  4  2  0
  4  5  1  0
  5  6  2  0
  6  7  1  0
  7  8  2  0
  7  9  2  0
  7 10  1  0
 10 11  2  0
 11 12  1  0
 12 13  2  0
 13 14  1  0
 14 15  1  0
 15 16  2  0
 15 17  1  0
 17 18  2  0
 18 19  1  0
 19 20  2  0
 20 21  1  0
 21 22  2  0
 22 23  1  0
 13 24  1  0
 24 25  2  0
  5 26  1  0
 26 27  1  0
 27 28  2  0
 28  3  1  0
 25 10  1  0
 22 17  1  0
  1 29  1  0
  1 30  1  0
  1 31  1  0
  4 32  1  0
 11 33  1  0
 12 34  1  0
 14 35  1  0
 18 36  1  0
 19 37  1  0
 20 38  1  0
 21 39  1  0
 23 40  1  0
 24 41  1  0
 25 42  1  0
 26 43  1  0
 27 44  1  0
M  END
>  <smiles>  (31) 
COc1cc(=NS(=O)(=O)c2ccc(NC(=O)c3ccccc3O)cc2)[nH]cn1

>  <score_type>  (31) 
oracle

>  <origin>  (31) 
adgpu

>  <m_score__min__energy>  (31) 
-9.6699999999999999

>  <m_primary>  (31) 
energy

$$$$
31:0
     RDKit          3D

 61 64  0  0  0  0  0  0  0  0999 V2000
   -4.0260   25.2270  -30.5640 O   0  0  0  0  0  0  0  0  0  0  0  0
   -3.9800   23.9840  -30.7720 C   0  0  0  0  0  0  0  0  0  0  0  0
   -4.6880   23.4270  -31.8840 N   0  0  0  0  0  0  0  0  0  0  0  0
   -5.9330   22.7270  -31.7720 C   0  0  0  0  0  0  0  0  0  0  0  0
   -7.1310   23.4390  -31.8720 C   0  0  0  0  0  0  0  0  0  0  0  0
   -8.3570   22.7670  -31.8260 C   0  0  0  0  0  0  0  0  0  0  0  0
   -8.3890   21.3750  -31.7250 C   0  0  0  0  0  0  0  0  0  0  0  0
   -7.1940   20.6460  -31.6780 C   0  0  0  0  0  0  0  0  0  0  0  0
   -7.2200   18.8850  -31.7620 S   0  0  0  0  0  0  0  0  0  0  0  0
   -6.1440   18.3290  -30.8690 O   0  0  0  0  0  0  0  0  0  0  0  0
   -8.5460   18.3820  -31.2620 O   0  0  0  0  0  0  0  0  0  0  0  0
   -6.9450   18.3210  -33.3960 N   0  0  0  0  0  0  0  0  0  0  0  0
   -6.9550   16.8410  -33.4880 C   0  0  0  0  0  0  0  0  0  0  0  0
   -5.5530   16.2100  -33.4070 C   0  0  0  0  0  0  0  0  0  0  0  0
   -4.5490   16.8400  -34.3890 C   0  0  0  0  0  0  0  0  0  0  0  0
   -5.0850   18.1120  -35.0500 C   0  0  0  0  0  0  0  0  0  0  0  0
   -5.7700   18.9870  -34.0010 C   0  0  0  0  0  0  0  0  0  0  0  0
   -5.9690   21.3280  -31.6730 C   0  0  0  0  0  0  0  0  0  0  0  0
   -3.2140   23.1070  -29.8630 C   0  0  0  0  0  0  0  0  0  0  0  0
   -3.4140   21.7150  -29.8710 C   0  0  0  0  0  0  0  0  0  0  0  0
   -2.6320   20.8850  -29.0650 C   0  0  0  0  0  0  0  0  0  0  0  0
   -1.6310   21.4300  -28.2590 C   0  0  0  0  0  0  0  0  0  0  0  0
   -1.4200   22.8150  -28.2390 C   0  0  0  0  0  0  0  0  0  0  0  0
   -0.1240   23.5040  -27.2600 S   0  0  0  0  0  0  0  0  0  0  0  0
    0.6240   24.5220  -28.0730 O   0  0  0  0  0  0  0  0  0  0  0  0
    0.8370   22.4150  -26.8780 O   0  0  0  0  0  0  0  0  0  0  0  0
   -0.7500   24.2730  -25.8200 N   0  0  0  0  0  0  0  0  0  0  0  0
    0.3410   24.6780  -24.8980 C   0  0  0  0  0  0  0  0  0  0  0  0
    0.5770   26.1940  -24.8760 C   0  0  0  0  0  0  0  0  0  0  0  0
   -0.7020   26.9480  -24.4840 C   0  0  0  0  0  0  0  0  0  0  0  0
   -1.9820   26.2480  -24.9730 C   0  0  0  0  0  0  0  0  0  0  0  0
   -1.6910   25.3560  -26.1770 C   0  0  0  0  0  0  0  0  0  0  0  0
   -2.2240   23.6500  -29.0260 C   0  0  0  0  0  0  0  0  0  0  0  0
   -7.1100   24.5327  -31.9874 H   0  0  0  0  0  0  0  0  0  0  0  0
   -9.2973   23.3362  -31.8695 H   0  0  0  0  0  0  0  0  0  0  0  0
   -9.3545   20.8497  -31.6823 H   0  0  0  0  0  0  0  0  0  0  0  0
   -7.5631   16.4451  -32.6612 H   0  0  0  0  0  0  0  0  0  0  0  0
   -7.3697   16.5814  -34.4732 H   0  0  0  0  0  0  0  0  0  0  0  0
   -5.1698   16.3388  -32.3840 H   0  0  0  0  0  0  0  0  0  0  0  0
   -5.6550   15.1489  -33.6783 H   0  0  0  0  0  0  0  0  0  0  0  0
   -3.6295   17.0901  -33.8395 H   0  0  0  0  0  0  0  0  0  0  0  0
   -4.3607   16.1062  -35.1866 H   0  0  0  0  0  0  0  0  0  0  0  0
   -4.2510   18.6685  -35.5025 H   0  0  0  0  0  0  0  0  0  0  0  0
   -5.8123   17.8395  -35.8289 H   0  0  0  0  0  0  0  0  0  0  0  0
   -5.0461   19.2186  -33.2058 H   0  0  0  0  0  0  0  0  0  0  0  0
   -6.1216   19.9009  -34.5021 H   0  0  0  0  0  0  0  0  0  0  0  0
   -5.0293   20.7621  -31.5909 H   0  0  0  0  0  0  0  0  0  0  0  0
   -4.1906   21.2776  -30.5156 H   0  0  0  0  0  0  0  0  0  0  0  0
   -2.8053   19.7987  -29.0652 H   0  0  0  0  0  0  0  0  0  0  0  0
   -1.0065   20.7707  -27.6382 H   0  0  0  0  0  0  0  0  0  0  0  0
    0.0805   24.3492  -23.8811 H   0  0  0  0  0  0  0  0  0  0  0  0
    1.2673   24.2065  -25.2579 H   0  0  0  0  0  0  0  0  0  0  0  0
    1.3673   26.4238  -24.1462 H   0  0  0  0  0  0  0  0  0  0  0  0
    0.8762   26.5152  -25.8846 H   0  0  0  0  0  0  0  0  0  0  0  0
   -0.7415   27.0262  -23.3875 H   0  0  0  0  0  0  0  0  0  0  0  0
   -0.6626   27.9374  -24.9632 H   0  0  0  0  0  0  0  0  0  0  0  0
   -2.3885   25.6311  -24.1580 H   0  0  0  0  0  0  0  0  0  0  0  0
   -2.7092   27.0167  -25.2736 H   0  0  0  0  0  0  0  0  0  0  0  0
   -2.6328   24.9117  -26.5313 H   0  0  0  0  0  0  0  0  0  0  0  0
   -1.2337   25.9711  -26.9660 H   0  0  0  0  0  0  0  0  0  0  0  0
   -2.0792   24.7398  -28.9885 H   0  0  0  0  0  0  0  0  0  0  0  0
  1  2  2  0
  2  3  1  0
  3  4  1  0
  4  5  2  0
  5  6  1  0
  6  7  2  0
  7  8  1  0
  8  9  1  0
  9 10  2  0
  9 11  2  0
  9 12  1  0
 12 13  1  0
 13 14  1  0
 14 15  1  0
 15 16  1  0
 16 17  1  0
  8 18  2  0
  2 19  1  0
 19 20  2  0
 20 21  1  0
 21 22  2  0
 22 23  1  0
 23 24  1  0
 24 25  2  0
 24 26  2  0
 24 27  1  0
 27 28  1  0
 28 29  1  0
 29 30  1  0
 30 31  1  0
 31 32  1  0
 23 33  2  0
 18  4  1  0
 33 19  1  0
 17 12  1  0
 32 27  1  0
  5 34  1  0
  6 35  1  0
  7 36  1  0
 13 37  1  0
 13 38  1  0
 14 39  1  0
 14 40  1  0
 15 41  1  0
 15 42  1  0
 16 43  1  0
 16 44  1  0
 17 45  1  0
 17 46  1  0
 18 47  1  0
 20 48  1  0
 21 49  1  0
 22 50  1  0
 28 51  1  0
 28 52  1  0
 29 53  1  0
 29 54  1  0
 30 55  1  0
 30 56  1  0
 31 57  1  0
 31 58  1  0
 32 59  1  0
 32 60  1  0
 33 61  1  0
M  CHG  1   3  -1
M  END
>  <UniqueID>  (32) 
31

>  <SMILES>  (32) 
O=C([N-]c1cccc(S(=O)(=O)N2CCCCC2)c1)c1cccc(S(=O)(=O)N2CCCCC2)c1

>  <Energy>  (32) 
78.09376371874248

>  <Genealogy>  (32) 
O=C([N-]c1cccc(S(=O)(=O)N2CCCCC2)c1)c1cccc(S(=O)(=O)N2CCCCC2)c1 (protonated)
O=C([N-]c1cccc(S(=O)(=O)N2CCCCC2)c1)c1cccc(S(=O)(=O)N2CCCCC2)c1 (3D coordinates assigned)
O=C([N-]c1cccc(S(=O)(=O)N2CCCCC2)c1)c1cccc(S(=O)(=O)N2CCCCC2)c1 (nonaromatic ring conformer: 78.09376371874248 kcal/mol)

>  <smiles>  (32) 
O=C(Nc1cccc(S(=O)(=O)N2CCCCC2)c1)c1cccc(S(=O)(=O)N2CCCCC2)c1

>  <score_type>  (32) 
oracle

>  <origin>  (32) 
adgpu

>  <m_score__min__energy>  (32) 
-13.23

>  <m_primary>  (32) 
energy

$$$$
32:0
     RDKit          3D

 68 72  0  0  0  0  0  0  0  0999 V2000
   -3.5430   25.2870  -30.4500 O   0  0  0  0  0  0  0  0  0  0  0  0
   -3.4750   24.0480  -30.2300 C   0  0  0  0  0  0  0  0  0  0  0  0
   -4.3380   23.1350  -30.9200 N   0  0  0  0  0  0  0  0  0  0  0  0
   -3.9850   21.9810  -31.7030 C   0  0  0  0  0  0  0  0  0  0  0  0
   -2.6460   21.6260  -31.9420 C   0  0  0  0  0  0  0  0  0  0  0  0
   -2.3410   20.4760  -32.6750 C   0  0  0  0  0  0  0  0  0  0  0  0
   -3.3630   19.6690  -33.1990 C   0  0  0  0  0  0  0  0  0  0  0  0
   -3.0430   18.4670  -33.9330 N   0  0  0  0  0  0  0  0  0  0  0  0
   -4.0740   17.7630  -34.7040 C   0  0  0  0  0  0  0  0  0  0  0  0
   -3.7520   16.2650  -34.7380 C   0  0  0  0  0  0  0  0  0  0  0  0
   -2.4270   16.0370  -35.1850 O   0  0  0  0  0  0  0  0  0  0  0  0
   -1.5030   16.6010  -34.2710 C   0  0  0  0  0  0  0  0  0  0  0  0
   -1.6500   18.1250  -34.2340 C   0  0  0  0  0  0  0  0  0  0  0  0
   -4.7010   20.0400  -32.9820 C   0  0  0  0  0  0  0  0  0  0  0  0
   -5.0150   21.1930  -32.2510 C   0  0  0  0  0  0  0  0  0  0  0  0
   -6.3940   21.5290  -32.0310 N   0  0  0  0  0  0  0  0  0  0  0  0
   -7.3600   20.4550  -31.7650 C   0  0  0  0  0  0  0  0  0  0  0  0
   -8.6590   21.0140  -31.1890 C   0  0  0  0  0  0  0  0  0  0  0  0
   -9.1020   22.1120  -31.9550 O   0  0  0  0  0  0  0  0  0  0  0  0
   -8.2230   23.1990  -31.7550 C   0  0  0  0  0  0  0  0  0  0  0  0
   -6.8220   22.9060  -32.3110 C   0  0  0  0  0  0  0  0  0  0  0  0
   -2.4990   23.5320  -29.2480 C   0  0  0  0  0  0  0  0  0  0  0  0
   -2.6720   22.2290  -28.7440 C   0  0  0  0  0  0  0  0  0  0  0  0
   -1.7150   21.6590  -27.8940 C   0  0  0  0  0  0  0  0  0  0  0  0
   -1.9260   20.0140  -27.2860 S   0  0  0  0  0  0  0  0  0  0  0  0
   -3.3900   19.6710  -27.3060 O   0  0  0  0  0  0  0  0  0  0  0  0
   -1.4530   19.9420  -25.8610 O   0  0  0  0  0  0  0  0  0  0  0  0
   -1.0440   18.8450  -28.2430 N   0  0  0  0  0  0  0  0  0  0  0  0
   -0.4970   19.4720  -29.4570 C   0  0  0  0  0  0  0  0  0  0  0  0
    0.3340   18.4530  -30.2630 C   0  0  0  0  0  0  0  0  0  0  0  0
    0.3670   17.1860  -29.6330 O   0  0  0  0  0  0  0  0  0  0  0  0
    0.9030   17.3140  -28.3300 C   0  0  0  0  0  0  0  0  0  0  0  0
    0.0410   18.2450  -27.4490 C   0  0  0  0  0  0  0  0  0  0  0  0
   -0.5720   22.3890  -27.5530 C   0  0  0  0  0  0  0  0  0  0  0  0
   -0.4110   23.6970  -28.0090 C   0  0  0  0  0  0  0  0  0  0  0  0
   -1.3710   24.2850  -28.8370 C   0  0  0  0  0  0  0  0  0  0  0  0
   -1.1880   25.6220  -29.1970 O   0  0  0  0  0  0  0  0  0  0  0  0
   -1.8343   22.2565  -31.5501 H   0  0  0  0  0  0  0  0  0  0  0  0
   -1.2894   20.2004  -32.8430 H   0  0  0  0  0  0  0  0  0  0  0  0
   -5.0549   17.9166  -34.2305 H   0  0  0  0  0  0  0  0  0  0  0  0
   -4.0971   18.1567  -35.7309 H   0  0  0  0  0  0  0  0  0  0  0  0
   -3.8657   15.8502  -33.7256 H   0  0  0  0  0  0  0  0  0  0  0  0
   -4.4453   15.7749  -35.4374 H   0  0  0  0  0  0  0  0  0  0  0  0
   -1.6926   16.1942  -33.2667 H   0  0  0  0  0  0  0  0  0  0  0  0
   -0.4824   16.3491  -34.5948 H   0  0  0  0  0  0  0  0  0  0  0  0
   -0.9928   18.5393  -33.4553 H   0  0  0  0  0  0  0  0  0  0  0  0
   -1.3680   18.5475  -35.2097 H   0  0  0  0  0  0  0  0  0  0  0  0
   -5.5109   19.4180  -33.3908 H   0  0  0  0  0  0  0  0  0  0  0  0
   -7.5810   19.9295  -32.7058 H   0  0  0  0  0  0  0  0  0  0  0  0
   -6.9208   19.7643  -31.0302 H   0  0  0  0  0  0  0  0  0  0  0  0
   -9.4290   20.2286  -31.2016 H   0  0  0  0  0  0  0  0  0  0  0  0
   -8.4779   21.3480  -30.1567 H   0  0  0  0  0  0  0  0  0  0  0  0
   -8.6303   24.0851  -32.2638 H   0  0  0  0  0  0  0  0  0  0  0  0
   -8.1330   23.3726  -30.6725 H   0  0  0  0  0  0  0  0  0  0  0  0
   -6.8332   23.0595  -33.4002 H   0  0  0  0  0  0  0  0  0  0  0  0
   -6.1127   23.5881  -31.8195 H   0  0  0  0  0  0  0  0  0  0  0  0
   -3.5673   21.6527  -29.0202 H   0  0  0  0  0  0  0  0  0  0  0  0
   -1.3261   19.8374  -30.0808 H   0  0  0  0  0  0  0  0  0  0  0  0
    0.1535   20.3089  -29.1632 H   0  0  0  0  0  0  0  0  0  0  0  0
   -0.1110   18.3420  -31.2628 H   0  0  0  0  0  0  0  0  0  0  0  0
    1.3656   18.8290  -30.3289 H   0  0  0  0  0  0  0  0  0  0  0  0
    0.9460   16.3192  -27.8625 H   0  0  0  0  0  0  0  0  0  0  0  0
    1.9082   17.7530  -28.4133 H   0  0  0  0  0  0  0  0  0  0  0  0
   -0.3938   17.6623  -26.6235 H   0  0  0  0  0  0  0  0  0  0  0  0
    0.6776   19.0488  -27.0507 H   0  0  0  0  0  0  0  0  0  0  0  0
    0.2034   21.9295  -26.9224 H   0  0  0  0  0  0  0  0  0  0  0  0
    0.4798   24.2711  -27.7143 H   0  0  0  0  0  0  0  0  0  0  0  0
   -1.6300   26.0480  -29.9970 H   0  0  0  0  0  0  0  0  0  0  0  0
  1  2  2  0
  2  3  1  0
  3  4  1  0
  4  5  2  0
  5  6  1  0
  6  7  2  0
  7  8  1  0
  8  9  1  0
  9 10  1  0
 10 11  1  0
 11 12  1  0
 12 13  1  0
  7 14  1  0
 14 15  2  0
 15 16  1  0
 16 17  1  0
 17 18  1  0
 18 19  1  0
 19 20  1  0
 20 21  1  0
  2 22  1  0
 22 23  2  0
 23 24  1  0
 24 25  1  0
 25 26  2  0
 25 27  2  0
 25 28  1  0
 28 29  1  0
 29 30  1  0
 30 31  1  0
 31 32  1  0
 32 33  1  0
 24 34  2  0
 34 35  1  0
 35 36  2  0
 36 37  1  0
 15  4  1  0
 21 16  1  0
 36 22  1  0
 13  8  1  0
 33 28  1  0
  5 38  1  0
  6 39  1  0
  9 40  1  0
  9 41  1  0
 10 42  1  0
 10 43  1  0
 12 44  1  0
 12 45  1  0
 13 46  1  0
 13 47  1  0
 14 48  1  0
 17 49  1  0
 17 50  1  0
 18 51  1  0
 18 52  1  0
 20 53  1  0
 20 54  1  0
 21 55  1  0
 21 56  1  0
 23 57  1  0
 29 58  1  0
 29 59  1  0
 30 60  1  0
 30 61  1  0
 32 62  1  0
 32 63  1  0
 33 64  1  0
 33 65  1  0
 34 66  1  0
 35 67  1  0
 37 68  1  0
M  CHG  1   3  -1
M  END
>  <UniqueID>  (33) 
32

>  <SMILES>  (33) 
O=C([N-]c1ccc(N2CCOCC2)cc1N1CCOCC1)c1cc(S(=O)(=O)N2CCOCC2)ccc1O

>  <Energy>  (33) 
100.20756650563456

>  <Genealogy>  (33) 
O=C([N-]c1ccc(N2CCOCC2)cc1N1CCOCC1)c1cc(S(=O)(=O)N2CCOCC2)ccc1O (protonated)
O=C([N-]c1ccc(N2CCOCC2)cc1N1CCOCC1)c1cc(S(=O)(=O)N2CCOCC2)ccc1O (3D coordinates assigned)
O=C([N-]c1ccc(N2CCOCC2)cc1N1CCOCC1)c1cc(S(=O)(=O)N2CCOCC2)ccc1O (nonaromatic ring conformer: 100.20756650563456 kcal/mol)

>  <smiles>  (33) 
O=C(Nc1ccc(N2CCOCC2)cc1N1CCOCC1)c1cc(S(=O)(=O)N2CCOCC2)ccc1O

>  <score_type>  (33) 
oracle

>  <origin>  (33) 
adgpu

>  <m_score__min__energy>  (33) 
-11.31

>  <m_primary>  (33) 
energy

$$$$
33:0
     RDKit          3D

 82 87  0  0  0  0  0  0  0  0999 V2000
   -6.9480   23.6300  -30.3820 C   0  0  0  0  0  0  0  0  0  0  0  0
   -5.6370   24.0250  -29.8920 N   0  0  0  0  0  0  0  0  0  0  0  0
   -4.5050   24.1950  -30.7560 C   0  0  0  0  0  0  0  0  0  0  0  0
   -3.9300   25.3180  -30.8180 O   0  0  0  0  0  0  0  0  0  0  0  0
   -4.0150   23.0680  -31.5790 C   0  0  0  0  0  0  0  0  0  0  0  0
   -4.7580   22.6020  -32.6770 C   0  0  0  0  0  0  0  0  0  0  0  0
   -4.2910   21.5380  -33.4490 C   0  0  0  0  0  0  0  0  0  0  0  0
   -3.0690   20.9270  -33.1550 C   0  0  0  0  0  0  0  0  0  0  0  0
   -2.6400   19.8630  -33.9640 O   0  0  0  0  0  0  0  0  0  0  0  0
   -3.2630   18.6080  -34.0500 C   0  0  0  0  0  0  0  0  0  0  0  0
   -4.5830   18.4870  -33.6050 C   0  0  0  0  0  0  0  0  0  0  0  0
   -5.2390   17.2460  -33.6410 C   0  0  0  0  0  0  0  0  0  0  0  0
   -6.6230   17.1260  -33.1540 C   0  0  0  0  0  0  0  0  0  0  0  0
   -7.2240   16.0250  -33.2850 O   0  0  0  0  0  0  0  0  0  0  0  0
   -7.2960   18.2390  -32.5300 N   0  0  0  0  0  0  0  0  0  0  0  0
   -6.6090   19.2970  -31.8100 C   0  0  0  0  0  0  0  0  0  0  0  0
   -7.7010   20.2060  -31.2620 C   0  0  0  0  0  0  0  0  0  0  0  0
   -9.0070   19.4230  -31.3830 C   0  0  0  0  0  0  0  0  0  0  0  0
   -8.7410   18.2970  -32.3730 C   0  0  0  0  0  0  0  0  0  0  0  0
   -4.5750   16.1270  -34.1670 C   0  0  0  0  0  0  0  0  0  0  0  0
   -3.2630   16.2440  -34.6320 C   0  0  0  0  0  0  0  0  0  0  0  0
   -2.6080   17.4810  -34.5990 C   0  0  0  0  0  0  0  0  0  0  0  0
   -1.3160   17.6160  -35.1940 N   0  0  0  0  0  0  0  0  0  0  0  0
   -0.3920   18.6420  -34.8150 C   0  0  0  0  0  0  0  0  0  0  0  0
    0.1760   19.3140  -35.7120 O   0  0  0  0  0  0  0  0  0  0  0  0
   -0.1600   18.9730  -33.3900 C   0  0  0  0  0  0  0  0  0  0  0  0
   -0.5080   18.0440  -32.3940 C   0  0  0  0  0  0  0  0  0  0  0  0
   -0.3410   18.3480  -31.0430 C   0  0  0  0  0  0  0  0  0  0  0  0
    0.2210   19.5700  -30.6570 C   0  0  0  0  0  0  0  0  0  0  0  0
    0.3880   19.8910  -29.2250 C   0  0  0  0  0  0  0  0  0  0  0  0
    1.4920   19.6330  -28.6640 O   0  0  0  0  0  0  0  0  0  0  0  0
   -0.7000   20.4280  -28.4470 N   0  0  0  0  0  0  0  0  0  0  0  0
   -1.0310   21.8160  -28.5830 C   0  0  0  0  0  0  0  0  0  0  0  0
   -2.2420   22.3000  -28.0680 C   0  0  0  0  0  0  0  0  0  0  0  0
   -2.5660   23.6540  -28.2020 C   0  0  0  0  0  0  0  0  0  0  0  0
   -1.6760   24.5280  -28.8390 C   0  0  0  0  0  0  0  0  0  0  0  0
   -1.9950   25.8750  -28.9640 O   0  0  0  0  0  0  0  0  0  0  0  0
   -0.4650   24.0460  -29.3530 C   0  0  0  0  0  0  0  0  0  0  0  0
   -0.1440   22.6910  -29.2280 C   0  0  0  0  0  0  0  0  0  0  0  0
   -1.5000   19.5930  -27.5870 C   0  0  0  0  0  0  0  0  0  0  0  0
   -1.0630   18.5560  -26.7810 C   0  0  0  0  0  0  0  0  0  0  0  0
   -2.1290   18.0060  -26.1650 N   0  0  0  0  0  0  0  0  0  0  0  0
   -3.2100   18.6610  -26.5680 N   0  0  0  0  0  0  0  0  0  0  0  0
   -4.5610   18.3550  -26.1200 C   0  0  0  0  0  0  0  0  0  0  0  0
   -2.8730   19.6310  -27.4390 C   0  0  0  0  0  0  0  0  0  0  0  0
    0.5900   20.4980  -31.6430 C   0  0  0  0  0  0  0  0  0  0  0  0
    0.3990   20.2160  -33.0050 C   0  0  0  0  0  0  0  0  0  0  0  0
    0.7320   21.2230  -33.9720 N   0  0  0  0  0  0  0  0  0  0  0  0
   -2.3320   21.3700  -32.0420 C   0  0  0  0  0  0  0  0  0  0  0  0
   -2.7970   22.4370  -31.2670 C   0  0  0  0  0  0  0  0  0  0  0  0
   -7.6131   23.4296  -29.5291 H   0  0  0  0  0  0  0  0  0  0  0  0
   -7.3704   24.4408  -30.9938 H   0  0  0  0  0  0  0  0  0  0  0  0
   -6.8522   22.7209  -30.9938 H   0  0  0  0  0  0  0  0  0  0  0  0
   -5.7158   23.0802  -32.9299 H   0  0  0  0  0  0  0  0  0  0  0  0
   -4.8905   21.1764  -34.2975 H   0  0  0  0  0  0  0  0  0  0  0  0
   -5.1125   19.3723  -33.2231 H   0  0  0  0  0  0  0  0  0  0  0  0
   -6.0133   18.8754  -30.9869 H   0  0  0  0  0  0  0  0  0  0  0  0
   -5.9163   19.8468  -32.4641 H   0  0  0  0  0  0  0  0  0  0  0  0
   -7.4998   20.4518  -30.2089 H   0  0  0  0  0  0  0  0  0  0  0  0
   -7.7492   21.1546  -31.8169 H   0  0  0  0  0  0  0  0  0  0  0  0
   -9.2953   19.0100  -30.4051 H   0  0  0  0  0  0  0  0  0  0  0  0
   -9.8297   20.0686  -31.7239 H   0  0  0  0  0  0  0  0  0  0  0  0
   -9.1219   17.3431  -31.9793 H   0  0  0  0  0  0  0  0  0  0  0  0
   -9.2454   18.4759  -33.3341 H   0  0  0  0  0  0  0  0  0  0  0  0
   -5.0889   15.1555  -34.2132 H   0  0  0  0  0  0  0  0  0  0  0  0
   -2.7415   15.3593  -35.0263 H   0  0  0  0  0  0  0  0  0  0  0  0
   -0.9172   17.0649  -32.6838 H   0  0  0  0  0  0  0  0  0  0  0  0
   -0.6528   17.6231  -30.2767 H   0  0  0  0  0  0  0  0  0  0  0  0
   -2.9366   21.6155  -27.5591 H   0  0  0  0  0  0  0  0  0  0  0  0
   -3.5202   24.0326  -27.8069 H   0  0  0  0  0  0  0  0  0  0  0  0
    0.2326   24.7330  -29.8544 H   0  0  0  0  0  0  0  0  0  0  0  0
    0.8044   22.3108  -29.6355 H   0  0  0  0  0  0  0  0  0  0  0  0
   -0.0180   18.2336  -26.6625 H   0  0  0  0  0  0  0  0  0  0  0  0
   -4.5900   18.3484  -25.0204 H   0  0  0  0  0  0  0  0  0  0  0  0
   -5.2553   19.1186  -26.5006 H   0  0  0  0  0  0  0  0  0  0  0  0
   -4.8585   17.3667  -26.5006 H   0  0  0  0  0  0  0  0  0  0  0  0
   -3.5634   20.3254  -27.9401 H   0  0  0  0  0  0  0  0  0  0  0  0
    1.0347   21.4589  -31.3448 H   0  0  0  0  0  0  0  0  0  0  0  0
    0.1970   21.2960  -34.8680 H   0  0  0  0  0  0  0  0  0  0  0  0
    1.5520   21.8560  -33.8580 H   0  0  0  0  0  0  0  0  0  0  0  0
   -1.3854   20.8748  -31.7800 H   0  0  0  0  0  0  0  0  0  0  0  0
   -2.2061   22.7855  -30.4071 H   0  0  0  0  0  0  0  0  0  0  0  0
  1  2  1  0
  2  3  1  0
  3  4  2  0
  3  5  1  0
  5  6  2  0
  6  7  1  0
  7  8  2  0
  8  9  1  0
  9 10  1  0
 10 11  2  0
 11 12  1  0
 12 13  1  0
 13 14  2  0
 13 15  1  0
 15 16  1  0
 16 17  1  0
 17 18  1  0
 18 19  1  0
 12 20  2  0
 20 21  1  0
 21 22  2  0
 22 23  1  0
 23 24  1  0
 24 25  2  0
 24 26  1  0
 26 27  2  0
 27 28  1  0
 28 29  2  0
 29 30  1  0
 30 31  2  0
 30 32  1  0
 32 33  1  0
 33 34  2  0
 34 35  1  0
 35 36  2  0
 36 37  1  0
 36 38  1  0
 38 39  2  0
 32 40  1  0
 40 41  1  0
 41 42  2  0
 42 43  1  0
 43 44  1  0
 43 45  1  0
 29 46  1  0
 46 47  2  0
 47 48  1  0
  8 49  1  0
 49 50  2  0
 50  5  1  0
 22 10  1  0
 47 26  1  0
 19 15  1  0
 39 33  1  0
 45 40  2  0
  1 51  1  0
  1 52  1  0
  1 53  1  0
  6 54  1  0
  7 55  1  0
 11 56  1  0
 16 57  1  0
 16 58  1  0
 17 59  1  0
 17 60  1  0
 18 61  1  0
 18 62  1  0
 19 63  1  0
 19 64  1  0
 20 65  1  0
 21 66  1  0
 27 67  1  0
 28 68  1  0
 34 69  1  0
 35 70  1  0
 38 71  1  0
 39 72  1  0
 41 73  1  0
 44 74  1  0
 44 75  1  0
 44 76  1  0
 45 77  1  0
 46 78  1  0
 48 79  1  0
 48 80  1  0
 49 81  1  0
 50 82  1  0
M  CHG  3   2  -1  23  -1  37  -1
M  END
>  <UniqueID>  (34) 
33

>  <SMILES>  (34) 
C[N-]C(=O)c1ccc(Oc2cc(C(=O)N3CCCC3)ccc2[N-]C(=O)c2ccc(C(=O)N(c3ccc([O-])cc3)c3cnn(C)c3)cc2N)cc1

>  <Energy>  (34) 
162.87966724585803

>  <Genealogy>  (34) 
C[N-]C(=O)c1ccc(Oc2cc(C(=O)N3CCCC3)ccc2[N-]C(=O)c2ccc(C(=O)N(c3ccc([O-])cc3)c3cnn(C)c3)cc2N)cc1 (protonated)
C[N-]C(=O)c1ccc(Oc2cc(C(=O)N3CCCC3)ccc2[N-]C(=O)c2ccc(C(=O)N(c3ccc([O-])cc3)c3cnn(C)c3)cc2N)cc1 (3D coordinates assigned)
C[N-]C(=O)c1ccc(Oc2cc(C(=O)N3CCCC3)ccc2[N-]C(=O)c2ccc(C(=O)N(c3ccc([O-])cc3)c3cnn(C)c3)cc2N)cc1 (nonaromatic ring conformer: 162.87966724585803 kcal/mol)

>  <smiles>  (34) 
CNC(=O)c1ccc(Oc2cc(C(=O)N3CCCC3)ccc2NC(=O)c2ccc(C(=O)N(c3ccc(O)cc3)c3cnn(C)c3)cc2N)cc1

>  <score_type>  (34) 
oracle

>  <origin>  (34) 
adgpu

>  <m_score__min__energy>  (34) 
-13.539999999999999

>  <m_primary>  (34) 
energy

$$$$
34:0
     RDKit          3D

 36 38  0  0  0  0  0  0  0  0999 V2000
   -4.0660   18.2030  -32.4960 N   0  0  0  0  0  0  0  0  0  0  0  0
   -5.4500   18.4400  -32.7370 C   0  0  0  0  0  0  0  0  0  0  0  0
   -6.1760   17.4860  -33.1250 O   0  0  0  0  0  0  0  0  0  0  0  0
   -6.0300   19.7960  -32.5570 C   0  0  0  0  0  0  0  0  0  0  0  0
   -5.1930   20.9370  -32.4350 C   0  0  0  0  0  0  0  0  0  0  0  0
   -3.7720   20.8040  -32.4000 N   0  0  0  0  0  0  0  0  0  0  0  0
   -2.9540   20.6430  -30.8860 S   0  0  0  0  0  0  0  0  0  0  0  0
   -1.6810   19.8660  -31.0740 O   0  0  0  0  0  0  0  0  0  0  0  0
   -3.8360   19.8990  -29.9230 O   0  0  0  0  0  0  0  0  0  0  0  0
   -2.5990   22.2450  -30.2480 C   0  0  0  0  0  0  0  0  0  0  0  0
   -1.4440   22.4510  -29.4820 C   0  0  0  0  0  0  0  0  0  0  0  0
   -1.1180   23.7330  -29.0310 C   0  0  0  0  0  0  0  0  0  0  0  0
   -1.9440   24.8190  -29.3460 C   0  0  0  0  0  0  0  0  0  0  0  0
   -1.6140   26.0910  -28.8970 O   0  0  0  0  0  0  0  0  0  0  0  0
   -3.0970   24.6180  -30.1150 C   0  0  0  0  0  0  0  0  0  0  0  0
   -3.9170   25.6930  -30.4370 O   0  0  0  0  0  0  0  0  0  0  0  0
   -3.4230   23.3350  -30.5670 C   0  0  0  0  0  0  0  0  0  0  0  0
   -5.7560   22.2140  -32.2590 C   0  0  0  0  0  0  0  0  0  0  0  0
   -7.1440   22.3780  -32.2090 C   0  0  0  0  0  0  0  0  0  0  0  0
   -7.9580   21.2540  -32.3300 C   0  0  0  0  0  0  0  0  0  0  0  0
   -7.4260   19.9970  -32.4920 C   0  0  0  0  0  0  0  0  0  0  0  0
   -8.5040   18.9750  -32.5990 C   0  0  0  0  0  0  0  0  0  0  0  0
   -9.8070   19.7920  -32.6270 C   0  0  0  0  0  0  0  0  0  0  0  0
   -9.4380   21.2480  -32.3060 C   0  0  0  0  0  0  0  0  0  0  0  0
   -3.5400   18.7590  -31.7860 H   0  0  0  0  0  0  0  0  0  0  0  0
   -0.7915   21.6006  -29.2347 H   0  0  0  0  0  0  0  0  0  0  0  0
   -0.2115   23.8891  -28.4278 H   0  0  0  0  0  0  0  0  0  0  0  0
   -4.3273   23.1802  -31.1739 H   0  0  0  0  0  0  0  0  0  0  0  0
   -5.0992   23.0908  -32.1599 H   0  0  0  0  0  0  0  0  0  0  0  0
   -7.5852   23.3769  -32.0765 H   0  0  0  0  0  0  0  0  0  0  0  0
   -8.3931   18.3880  -33.5226 H   0  0  0  0  0  0  0  0  0  0  0  0
   -8.4803   18.2532  -31.7692 H   0  0  0  0  0  0  0  0  0  0  0  0
  -10.2684   19.7312  -33.6237 H   0  0  0  0  0  0  0  0  0  0  0  0
  -10.5282   19.4015  -31.8939 H   0  0  0  0  0  0  0  0  0  0  0  0
   -9.8445   21.9314  -33.0661 H   0  0  0  0  0  0  0  0  0  0  0  0
   -9.8479   21.5870  -31.3432 H   0  0  0  0  0  0  0  0  0  0  0  0
  1  2  1  0
  2  3  2  0
  2  4  1  0
  4  5  2  0
  5  6  1  0
  6  7  1  0
  7  8  2  0
  7  9  2  0
  7 10  1  0
 10 11  2  0
 11 12  1  0
 12 13  2  0
 13 14  1  0
 13 15  1  0
 15 16  1  0
 15 17  2  0
  5 18  1  0
 18 19  2  0
 19 20  1  0
 20 21  2  0
 21 22  1  0
 22 23  1  0
 23 24  1  0
 21  4  1  0
 17 10  1  0
 24 20  1  0
  1 25  1  0
 11 26  1  0
 12 27  1  0
 17 28  1  0
 18 29  1  0
 19 30  1  0
 22 31  1  0
 22 32  1  0
 23 33  1  0
 23 34  1  0
 24 35  1  0
 24 36  1  0
M  CHG  4   1  -1   6  -1  14  -1  16  -1
M  END
>  <UniqueID>  (35) 
34

>  <SMILES>  (35) 
[NH-]C(=O)c1c([N-]S(=O)(=O)c2ccc([O-])c([O-])c2)ccc2c1CCC2

>  <Energy>  (35) 
57.24252701297115

>  <Genealogy>  (35) 
[NH-]C(=O)c1c([N-]S(=O)(=O)c2ccc([O-])c([O-])c2)ccc2c1CCC2 (protonated)
[NH-]C(=O)c1c([N-]S(=O)(=O)c2ccc([O-])c([O-])c2)ccc2c1CCC2 (3D coordinates assigned)
[NH-]C(=O)c1c([N-]S(=O)(=O)c2ccc([O-])c([O-])c2)ccc2c1CCC2 (nonaromatic ring conformer: 57.24252701297115 kcal/mol)

>  <smiles>  (35) 
NC(=O)c1c(NS(=O)(=O)c2ccc(O)c(O)c2)ccc2c1CCC2

>  <score_type>  (35) 
oracle

>  <origin>  (35) 
adgpu

>  <m_score__min__energy>  (35) 
-12.77

>  <m_primary>  (35) 
energy

$$$$
35:0
     RDKit          3D

 45 47  0  0  0  0  0  0  0  0999 V2000
   -2.4070   18.4190  -26.1640 C   0  0  0  0  0  0  0  0  0  0  0  0
   -2.2900   19.4790  -27.2200 C   0  0  0  0  0  0  0  0  0  0  0  0
   -1.3650   19.3390  -28.2560 C   0  0  0  0  0  0  0  0  0  0  0  0
   -1.2170   20.3360  -29.2330 C   0  0  0  0  0  0  0  0  0  0  0  0
   -0.2400   20.0820  -30.3530 C   0  0  0  0  0  0  0  0  0  0  0  0
   -1.9660   21.5420  -29.1310 C   0  0  0  0  0  0  0  0  0  0  0  0
   -1.7120   22.8680  -30.3050 S   0  0  0  0  0  0  0  0  0  0  0  0
   -0.7170   23.8680  -29.7870 O   0  0  0  0  0  0  0  0  0  0  0  0
   -1.1710   22.3140  -31.5920 O   0  0  0  0  0  0  0  0  0  0  0  0
   -3.2540   23.6640  -30.5900 C   0  0  0  0  0  0  0  0  0  0  0  0
   -3.4870   24.9410  -30.2290 N   0  0  0  0  0  0  0  0  0  0  0  0
   -4.7540   25.1870  -30.6150 C   0  0  0  0  0  0  0  0  0  0  0  0
   -5.3900   26.4080  -30.4230 O   0  0  0  0  0  0  0  0  0  0  0  0
   -5.3360   24.0930  -31.2170 C   0  0  0  0  0  0  0  0  0  0  0  0
   -4.3700   23.1140  -31.2010 C   0  0  0  0  0  0  0  0  0  0  0  0
   -4.5530   21.4920  -31.8570 S   0  0  0  0  0  0  0  0  0  0  0  0
   -3.8760   20.5020  -30.9520 O   0  0  0  0  0  0  0  0  0  0  0  0
   -3.8920   21.4420  -33.2060 O   0  0  0  0  0  0  0  0  0  0  0  0
   -6.2650   21.0790  -31.9580 C   0  0  0  0  0  0  0  0  0  0  0  0
   -7.1560   21.6450  -31.0330 C   0  0  0  0  0  0  0  0  0  0  0  0
   -8.5210   21.3530  -31.0970 C   0  0  0  0  0  0  0  0  0  0  0  0
   -9.0060   20.4900  -32.0830 C   0  0  0  0  0  0  0  0  0  0  0  0
   -8.1260   19.9160  -33.0030 C   0  0  0  0  0  0  0  0  0  0  0  0
   -6.7570   20.2030  -32.9440 C   0  0  0  0  0  0  0  0  0  0  0  0
   -5.9260   19.6280  -33.8470 F   0  0  0  0  0  0  0  0  0  0  0  0
   -2.9480   21.6510  -28.1060 C   0  0  0  0  0  0  0  0  0  0  0  0
   -3.8740   22.8350  -27.9930 C   0  0  0  0  0  0  0  0  0  0  0  0
   -3.0700   20.6330  -27.1470 C   0  0  0  0  0  0  0  0  0  0  0  0
   -2.3555   18.8853  -25.1691 H   0  0  0  0  0  0  0  0  0  0  0  0
   -3.3683   17.8959  -26.2745 H   0  0  0  0  0  0  0  0  0  0  0  0
   -1.5829   17.6988  -26.2745 H   0  0  0  0  0  0  0  0  0  0  0  0
   -0.7425   18.4335  -28.3076 H   0  0  0  0  0  0  0  0  0  0  0  0
    0.7432   19.8264  -29.9310 H   0  0  0  0  0  0  0  0  0  0  0  0
   -0.6012   19.2479  -30.9725 H   0  0  0  0  0  0  0  0  0  0  0  0
   -0.1492   20.9864  -30.9725 H   0  0  0  0  0  0  0  0  0  0  0  0
   -5.3700   26.8630  -29.5170 H   0  0  0  0  0  0  0  0  0  0  0  0
   -6.3554   24.0184  -31.6236 H   0  0  0  0  0  0  0  0  0  0  0  0
   -6.7776   22.3223  -30.2532 H   0  0  0  0  0  0  0  0  0  0  0  0
   -9.2140   21.8028  -30.3708 H   0  0  0  0  0  0  0  0  0  0  0  0
  -10.0810   20.2627  -32.1346 H   0  0  0  0  0  0  0  0  0  0  0  0
   -8.5101   19.2355  -33.7772 H   0  0  0  0  0  0  0  0  0  0  0  0
   -4.0514   23.0618  -26.9313 H   0  0  0  0  0  0  0  0  0  0  0  0
   -3.4157   23.7069  -28.4826 H   0  0  0  0  0  0  0  0  0  0  0  0
   -4.8307   22.6003  -28.4826 H   0  0  0  0  0  0  0  0  0  0  0  0
   -3.7921   20.7473  -26.3251 H   0  0  0  0  0  0  0  0  0  0  0  0
  1  2  1  0
  2  3  2  0
  3  4  1  0
  4  5  1  0
  4  6  2  0
  6  7  1  0
  7  8  2  0
  7  9  2  0
  7 10  1  0
 10 11  1  0
 11 12  1  0
 12 13  1  0
 12 14  2  0
 14 15  1  0
 15 16  1  0
 16 17  2  0
 16 18  2  0
 16 19  1  0
 19 20  2  0
 20 21  1  0
 21 22  2  0
 22 23  1  0
 23 24  2  0
 24 25  1  0
  6 26  1  0
 26 27  1  0
 26 28  2  0
 28  2  1  0
 15 10  2  0
 24 19  1  0
  1 29  1  0
  1 30  1  0
  1 31  1  0
  3 32  1  0
  5 33  1  0
  5 34  1  0
  5 35  1  0
 13 36  1  0
 14 37  1  0
 20 38  1  0
 21 39  1  0
 22 40  1  0
 23 41  1  0
 27 42  1  0
 27 43  1  0
 27 44  1  0
 28 45  1  0
M  CHG  1  11  -1
M  END
>  <UniqueID>  (36) 
35

>  <SMILES>  (36) 
Cc1cc(C)c(S(=O)(=O)c2[n-]c(O)cc2S(=O)(=O)c2ccccc2F)c(C)c1

>  <Energy>  (36) 
80.5751247145106

>  <Genealogy>  (36) 
Cc1cc(C)c(S(=O)(=O)c2[n-]c(O)cc2S(=O)(=O)c2ccccc2F)c(C)c1 (protonated)
Cc1cc(C)c(S(=O)(=O)c2[n-]c(O)cc2S(=O)(=O)c2ccccc2F)c(C)c1 (3D coordinates assigned)
Cc1cc(C)c(S(=O)(=O)c2[n-]c(O)cc2S(=O)(=O)c2ccccc2F)c(C)c1 (optimized conformer: 80.5751247145106 kcal/mol)

>  <smiles>  (36) 
Cc1cc(C)c(S(=O)(=O)c2[nH]c(O)cc2S(=O)(=O)c2ccccc2F)c(C)c1

>  <score_type>  (36) 
oracle

>  <origin>  (36) 
adgpu

>  <m_score__min__energy>  (36) 
-10.66

>  <m_primary>  (36) 
energy

$$$$
36:0
     RDKit          3D

 58 60  0  0  0  0  0  0  0  0999 V2000
   -3.8280   24.1970  -27.0960 C   0  0  0  0  0  0  0  0  0  0  0  0
   -4.2340   22.8070  -27.5710 C   0  0  0  0  0  0  0  0  0  0  0  0
   -3.1220   22.1650  -28.3530 C   0  0  0  0  0  0  0  0  0  0  0  0
   -2.4780   22.7090  -29.4460 C   0  0  0  0  0  0  0  0  0  0  0  0
   -2.7650   23.9980  -30.0060 N   0  0  0  0  0  0  0  0  0  0  0  0
   -4.0450   24.4400  -30.4780 C   0  0  0  0  0  0  0  0  0  0  0  0
   -4.2300   25.6740  -30.6490 O   0  0  0  0  0  0  0  0  0  0  0  0
   -5.1370   23.4890  -30.8010 C   0  0  0  0  0  0  0  0  0  0  0  0
   -6.4580   23.8000  -30.4620 C   0  0  0  0  0  0  0  0  0  0  0  0
   -7.4880   22.9020  -30.7410 C   0  0  0  0  0  0  0  0  0  0  0  0
   -7.2210   21.6670  -31.3530 C   0  0  0  0  0  0  0  0  0  0  0  0
   -8.3860   20.7650  -31.6670 C   0  0  0  0  0  0  0  0  0  0  0  0
   -5.8890   21.3530  -31.7270 C   0  0  0  0  0  0  0  0  0  0  0  0
   -5.4530   19.8300  -32.5330 S   0  0  0  0  0  0  0  0  0  0  0  0
   -6.0780   19.7920  -33.8990 O   0  0  0  0  0  0  0  0  0  0  0  0
   -5.9960   18.6700  -31.7430 O   0  0  0  0  0  0  0  0  0  0  0  0
   -3.7180   19.6710  -32.6690 N   0  0  0  0  0  0  0  0  0  0  0  0
   -3.3600   18.3020  -33.0930 C   0  0  0  0  0  0  0  0  0  0  0  0
   -1.8980   18.2270  -33.5780 C   0  0  0  0  0  0  0  0  0  0  0  0
   -1.1610   19.3490  -33.1350 O   0  0  0  0  0  0  0  0  0  0  0  0
   -1.6560   20.5230  -33.7550 C   0  0  0  0  0  0  0  0  0  0  0  0
   -3.1890   20.6670  -33.6160 C   0  0  0  0  0  0  0  0  0  0  0  0
   -4.8670   22.2790  -31.4600 C   0  0  0  0  0  0  0  0  0  0  0  0
   -1.5620   21.7690  -29.8980 C   0  0  0  0  0  0  0  0  0  0  0  0
   -0.6940   21.8810  -31.1190 C   0  0  0  0  0  0  0  0  0  0  0  0
   -1.5930   20.6880  -29.0820 N   0  0  0  0  0  0  0  0  0  0  0  0
   -0.7960   19.4690  -29.2280 C   0  0  0  0  0  0  0  0  0  0  0  0
   -2.5690   20.9040  -28.1660 C   0  0  0  0  0  0  0  0  0  0  0  0
   -2.9500   19.9260  -27.0920 C   0  0  0  0  0  0  0  0  0  0  0  0
   -3.8209   24.2211  -25.9963 H   0  0  0  0  0  0  0  0  0  0  0  0
   -2.8229   24.4348  -27.4744 H   0  0  0  0  0  0  0  0  0  0  0  0
   -4.5471   24.9384  -27.4744 H   0  0  0  0  0  0  0  0  0  0  0  0
   -4.4685   22.1813  -26.6972 H   0  0  0  0  0  0  0  0  0  0  0  0
   -5.1155   22.9001  -28.2224 H   0  0  0  0  0  0  0  0  0  0  0  0
   -6.6858   24.7584  -29.9725 H   0  0  0  0  0  0  0  0  0  0  0  0
   -8.5233   23.1648  -30.4781 H   0  0  0  0  0  0  0  0  0  0  0  0
   -8.8405   20.4131  -30.7291 H   0  0  0  0  0  0  0  0  0  0  0  0
   -9.1339   21.3218  -32.2506 H   0  0  0  0  0  0  0  0  0  0  0  0
   -8.0343   19.9015  -32.2506 H   0  0  0  0  0  0  0  0  0  0  0  0
   -3.3040   19.8600  -31.7270 H   0  0  0  0  0  0  0  0  0  0  0  0
   -3.4900   17.6181  -32.2413 H   0  0  0  0  0  0  0  0  0  0  0  0
   -4.0166   18.0154  -33.9277 H   0  0  0  0  0  0  0  0  0  0  0  0
   -1.4337   17.3119  -33.1818 H   0  0  0  0  0  0  0  0  0  0  0  0
   -1.8929   18.2154  -34.6779 H   0  0  0  0  0  0  0  0  0  0  0  0
   -1.1763   21.3965  -33.2893 H   0  0  0  0  0  0  0  0  0  0  0  0
   -1.4233   20.4568  -34.8281 H   0  0  0  0  0  0  0  0  0  0  0  0
   -3.4257   21.6766  -33.2490 H   0  0  0  0  0  0  0  0  0  0  0  0
   -3.6520   20.5024  -34.6002 H   0  0  0  0  0  0  0  0  0  0  0  0
   -3.8371   22.0521  -31.7727 H   0  0  0  0  0  0  0  0  0  0  0  0
    0.3538   22.0162  -30.8128 H   0  0  0  0  0  0  0  0  0  0  0  0
   -0.7852   20.9636  -31.7191 H   0  0  0  0  0  0  0  0  0  0  0  0
   -1.0151   22.7452  -31.7191 H   0  0  0  0  0  0  0  0  0  0  0  0
   -0.5397   19.0771  -28.2327 H   0  0  0  0  0  0  0  0  0  0  0  0
   -1.3764   18.7154  -29.7805 H   0  0  0  0  0  0  0  0  0  0  0  0
    0.1271   19.6984  -29.7805 H   0  0  0  0  0  0  0  0  0  0  0  0
   -2.7738   20.3783  -26.1049 H   0  0  0  0  0  0  0  0  0  0  0  0
   -4.0145   19.6677  -27.1922 H   0  0  0  0  0  0  0  0  0  0  0  0
   -2.3408   19.0156  -27.1922 H   0  0  0  0  0  0  0  0  0  0  0  0
  1  2  1  0
  2  3  1  0
  3  4  1  0
  4  5  1  0
  5  6  1  0
  6  7  2  0
  6  8  1  0
  8  9  2  0
  9 10  1  0
 10 11  2  0
 11 12  1  0
 11 13  1  0
 13 14  1  0
 14 15  2  0
 14 16  2  0
 14 17  1  0
 17 18  1  0
 18 19  1  0
 19 20  1  0
 20 21  1  0
 21 22  1  0
 13 23  2  0
  4 24  2  0
 24 25  1  0
 24 26  1  0
 26 27  1  0
 26 28  1  0
 28 29  1  0
 28  3  2  0
 23  8  1  0
 22 17  1  0
  1 30  1  0
  1 31  1  0
  1 32  1  0
  2 33  1  0
  2 34  1  0
  9 35  1  0
 10 36  1  0
 12 37  1  0
 12 38  1  0
 12 39  1  0
 17 40  1  0
 18 41  1  0
 18 42  1  0
 19 43  1  0
 19 44  1  0
 21 45  1  0
 21 46  1  0
 22 47  1  0
 22 48  1  0
 23 49  1  0
 25 50  1  0
 25 51  1  0
 25 52  1  0
 27 53  1  0
 27 54  1  0
 27 55  1  0
 29 56  1  0
 29 57  1  0
 29 58  1  0
M  CHG  2   5  -1  17   1
M  END
>  <UniqueID>  (37) 
36

>  <SMILES>  (37) 
CCc1c([N-]C(=O)c2ccc(C)c(S(=O)(=O)[NH+]3CCOCC3)c2)c(C)n(C)c1C

>  <Energy>  (37) 
96.46624754982828

>  <Genealogy>  (37) 
CCc1c([N-]C(=O)c2ccc(C)c(S(=O)(=O)[NH+]3CCOCC3)c2)c(C)n(C)c1C (protonated)
CCc1c([N-]C(=O)c2ccc(C)c(S(=O)(=O)[NH+]3CCOCC3)c2)c(C)n(C)c1C (3D coordinates assigned)
CCc1c([N-]C(=O)c2ccc(C)c(S(=O)(=O)[NH+]3CCOCC3)c2)c(C)n(C)c1C (nonaromatic ring conformer: 96.46624754982828 kcal/mol)

>  <smiles>  (37) 
CCc1c(NC(=O)c2ccc(C)c(S(=O)(=O)N3CCOCC3)c2)c(C)n(C)c1C

>  <score_type>  (37) 
oracle

>  <origin>  (37) 
adgpu

>  <m_score__min__energy>  (37) 
-9.9700000000000006

>  <m_primary>  (37) 
energy

$$$$
37:0
     RDKit          3D

 43 45  0  0  0  0  0  0  0  0999 V2000
   -4.3140   25.3160  -30.9380 O   0  0  0  0  0  0  0  0  0  0  0  0
   -5.4420   24.7690  -30.1090 S   0  0  0  0  0  0  0  0  0  0  0  0
   -6.4080   25.8780  -29.8000 O   0  0  0  0  0  0  0  0  0  0  0  0
   -4.8030   24.1450  -28.6200 N   0  0  0  0  0  0  0  0  0  0  0  0
   -3.5770   23.3930  -28.5150 C   0  0  0  0  0  0  0  0  0  0  0  0
   -3.5640   22.0670  -28.0350 C   0  0  0  0  0  0  0  0  0  0  0  0
   -2.3670   21.3470  -27.9680 C   0  0  0  0  0  0  0  0  0  0  0  0
   -2.3740   19.6880  -27.4000 Cl  0  0  0  0  0  0  0  0  0  0  0  0
   -1.1680   21.9450  -28.3610 C   0  0  0  0  0  0  0  0  0  0  0  0
   -1.1650   23.2620  -28.8230 C   0  0  0  0  0  0  0  0  0  0  0  0
   -2.3590   23.9850  -28.9040 C   0  0  0  0  0  0  0  0  0  0  0  0
   -2.3270   25.2910  -29.3810 O   0  0  0  0  0  0  0  0  0  0  0  0
   -6.2430   23.4920  -31.0190 C   0  0  0  0  0  0  0  0  0  0  0  0
   -7.6380   23.4880  -31.1500 C   0  0  0  0  0  0  0  0  0  0  0  0
   -8.2760   22.4480  -31.8310 C   0  0  0  0  0  0  0  0  0  0  0  0
   -7.5250   21.4070  -32.3830 C   0  0  0  0  0  0  0  0  0  0  0  0
   -6.1290   21.4100  -32.2700 C   0  0  0  0  0  0  0  0  0  0  0  0
   -5.1910   20.0670  -32.9200 S   0  0  0  0  0  0  0  0  0  0  0  0
   -4.0920   20.6270  -33.7800 O   0  0  0  0  0  0  0  0  0  0  0  0
   -4.5590   19.3000  -31.7910 O   0  0  0  0  0  0  0  0  0  0  0  0
   -6.2080   19.0210  -33.8900 N   0  0  0  0  0  0  0  0  0  0  0  0
   -7.1930   18.2940  -33.0690 C   0  0  0  0  0  0  0  0  0  0  0  0
   -6.5450   17.1520  -32.2500 C   0  0  0  0  0  0  0  0  0  0  0  0
   -5.2710   16.7600  -32.7310 O   0  0  0  0  0  0  0  0  0  0  0  0
   -5.2790   16.6970  -34.1390 C   0  0  0  0  0  0  0  0  0  0  0  0
   -5.4070   18.1100  -34.7370 C   0  0  0  0  0  0  0  0  0  0  0  0
   -5.4900   22.4580  -31.5930 C   0  0  0  0  0  0  0  0  0  0  0  0
   -5.3330   24.3860  -27.7530 H   0  0  0  0  0  0  0  0  0  0  0  0
   -4.5032   21.5951  -27.7106 H   0  0  0  0  0  0  0  0  0  0  0  0
   -0.2266   21.3786  -28.3065 H   0  0  0  0  0  0  0  0  0  0  0  0
   -0.2183   23.7337  -29.1250 H   0  0  0  0  0  0  0  0  0  0  0  0
   -8.2323   24.3055  -30.7157 H   0  0  0  0  0  0  0  0  0  0  0  0
   -9.3713   22.4488  -31.9327 H   0  0  0  0  0  0  0  0  0  0  0  0
   -8.0313   20.5833  -32.9075 H   0  0  0  0  0  0  0  0  0  0  0  0
   -7.6668   19.0030  -32.3742 H   0  0  0  0  0  0  0  0  0  0  0  0
   -7.9316   17.8440  -33.7487 H   0  0  0  0  0  0  0  0  0  0  0  0
   -6.4346   17.4902  -31.2091 H   0  0  0  0  0  0  0  0  0  0  0  0
   -7.2059   16.2771  -32.3383 H   0  0  0  0  0  0  0  0  0  0  0  0
   -4.3412   16.2394  -34.4870 H   0  0  0  0  0  0  0  0  0  0  0  0
   -6.1377   16.0917  -34.4650 H   0  0  0  0  0  0  0  0  0  0  0  0
   -4.3990   18.5346  -34.8542 H   0  0  0  0  0  0  0  0  0  0  0  0
   -5.9249   18.0150  -35.7028 H   0  0  0  0  0  0  0  0  0  0  0  0
   -4.3931   22.4692  -31.5117 H   0  0  0  0  0  0  0  0  0  0  0  0
  1  2  2  0
  2  3  2  0
  2  4  1  0
  4  5  1  0
  5  6  2  0
  6  7  1  0
  7  8  1  0
  7  9  2  0
  9 10  1  0
 10 11  2  0
 11 12  1  0
  2 13  1  0
 13 14  2  0
 14 15  1  0
 15 16  2  0
 16 17  1  0
 17 18  1  0
 18 19  2  0
 18 20  2  0
 18 21  1  0
 21 22  1  0
 22 23  1  0
 23 24  1  0
 24 25  1  0
 25 26  1  0
 17 27  2  0
 11  5  1  0
 27 13  1  0
 26 21  1  0
  4 28  1  0
  6 29  1  0
  9 30  1  0
 10 31  1  0
 14 32  1  0
 15 33  1  0
 16 34  1  0
 22 35  1  0
 22 36  1  0
 23 37  1  0
 23 38  1  0
 25 39  1  0
 25 40  1  0
 26 41  1  0
 26 42  1  0
 27 43  1  0
M  CHG  1  12  -1
M  END
>  <UniqueID>  (38) 
37

>  <SMILES>  (38) 
O=S(=O)(Nc1cc(Cl)ccc1[O-])c1cccc(S(=O)(=O)N2CCOCC2)c1

>  <Energy>  (38) 
54.6259172049494

>  <Genealogy>  (38) 
O=S(=O)(Nc1cc(Cl)ccc1[O-])c1cccc(S(=O)(=O)N2CCOCC2)c1 (protonated)
O=S(=O)(Nc1cc(Cl)ccc1[O-])c1cccc(S(=O)(=O)N2CCOCC2)c1 (3D coordinates assigned)
O=S(=O)(Nc1cc(Cl)ccc1[O-])c1cccc(S(=O)(=O)N2CCOCC2)c1 (nonaromatic ring conformer: 54.6259172049494 kcal/mol)

>  <smiles>  (38) 
O=S(=O)(Nc1cc(Cl)ccc1O)c1cccc(S(=O)(=O)N2CCOCC2)c1

>  <score_type>  (38) 
oracle

>  <origin>  (38) 
adgpu

>  <m_score__min__energy>  (38) 
-13.66

>  <m_primary>  (38) 
energy

$$$$
38:0
     RDKit          3D

 45 48  0  0  0  0  0  0  0  0999 V2000
   -1.3710   23.6080  -27.3690 C   0  0  0  0  0  0  0  0  0  0  0  0
   -2.6730   23.7450  -28.1060 C   0  0  0  0  0  0  0  0  0  0  0  0
   -3.7270   22.8540  -27.8500 C   0  0  0  0  0  0  0  0  0  0  0  0
   -4.9340   22.9750  -28.5390 C   0  0  0  0  0  0  0  0  0  0  0  0
   -5.1040   23.9820  -29.4940 C   0  0  0  0  0  0  0  0  0  0  0  0
   -6.6630   24.1060  -30.3760 S   0  0  0  0  0  0  0  0  0  0  0  0
   -6.4240   22.5300  -31.1840 C   0  0  0  0  0  0  0  0  0  0  0  0
   -5.1710   22.1110  -31.4920 N   0  0  0  0  0  0  0  0  0  0  0  0
   -4.9510   20.9300  -32.1280 C   0  0  0  0  0  0  0  0  0  0  0  0
   -3.5530   20.5770  -32.4690 C   0  0  0  0  0  0  0  0  0  0  0  0
   -3.1480   20.4420  -33.8090 C   0  0  0  0  0  0  0  0  0  0  0  0
   -1.8220   20.1190  -34.1150 C   0  0  0  0  0  0  0  0  0  0  0  0
   -0.8890   19.9430  -33.0900 C   0  0  0  0  0  0  0  0  0  0  0  0
   -1.2790   20.0960  -31.7570 C   0  0  0  0  0  0  0  0  0  0  0  0
   -2.6040   20.4190  -31.4470 C   0  0  0  0  0  0  0  0  0  0  0  0
   -6.0520   20.1020  -32.4560 C   0  0  0  0  0  0  0  0  0  0  0  0
   -5.8750   18.7610  -33.0650 C   0  0  0  0  0  0  0  0  0  0  0  0
   -5.8590   17.6110  -32.2580 C   0  0  0  0  0  0  0  0  0  0  0  0
   -5.7030   16.3480  -32.8350 C   0  0  0  0  0  0  0  0  0  0  0  0
   -5.5570   16.2220  -34.2190 C   0  0  0  0  0  0  0  0  0  0  0  0
   -5.5670   17.3610  -35.0280 C   0  0  0  0  0  0  0  0  0  0  0  0
   -5.7230   18.6270  -34.4560 C   0  0  0  0  0  0  0  0  0  0  0  0
   -7.3400   20.5670  -32.1270 C   0  0  0  0  0  0  0  0  0  0  0  0
   -8.3610   19.8740  -32.3840 O   0  0  0  0  0  0  0  0  0  0  0  0
   -7.4940   21.7630  -31.5050 N   0  0  0  0  0  0  0  0  0  0  0  0
   -4.0590   24.8790  -29.7610 C   0  0  0  0  0  0  0  0  0  0  0  0
   -4.2390   25.8800  -30.7160 O   0  0  0  0  0  0  0  0  0  0  0  0
   -2.8420   24.7590  -29.0670 C   0  0  0  0  0  0  0  0  0  0  0  0
   -1.8010   25.6440  -29.3320 O   0  0  0  0  0  0  0  0  0  0  0  0
   -1.5592   23.6278  -26.2854 H   0  0  0  0  0  0  0  0  0  0  0  0
   -0.8942   22.6547  -27.6410 H   0  0  0  0  0  0  0  0  0  0  0  0
   -0.7063   24.4412  -27.6410 H   0  0  0  0  0  0  0  0  0  0  0  0
   -3.6007   22.0567  -27.1027 H   0  0  0  0  0  0  0  0  0  0  0  0
   -5.7561   22.2747  -28.3299 H   0  0  0  0  0  0  0  0  0  0  0  0
   -3.8767   20.5910  -34.6194 H   0  0  0  0  0  0  0  0  0  0  0  0
   -1.5132   20.0033  -35.1644 H   0  0  0  0  0  0  0  0  0  0  0  0
    0.1523   19.6841  -33.3323 H   0  0  0  0  0  0  0  0  0  0  0  0
   -0.5430   19.9623  -30.9505 H   0  0  0  0  0  0  0  0  0  0  0  0
   -2.9039   20.5499  -30.3968 H   0  0  0  0  0  0  0  0  0  0  0  0
   -5.9697   17.7053  -31.1677 H   0  0  0  0  0  0  0  0  0  0  0  0
   -5.6951   15.4510  -32.1984 H   0  0  0  0  0  0  0  0  0  0  0  0
   -5.4343   15.2268  -34.6712 H   0  0  0  0  0  0  0  0  0  0  0  0
   -5.4519   17.2614  -36.1174 H   0  0  0  0  0  0  0  0  0  0  0  0
   -5.7268   19.5213  -35.0965 H   0  0  0  0  0  0  0  0  0  0  0  0
   -4.2390   25.6860  -31.7100 H   0  0  0  0  0  0  0  0  0  0  0  0
  1  2  1  0
  2  3  2  0
  3  4  1  0
  4  5  2  0
  5  6  1  0
  6  7  1  0
  7  8  2  0
  8  9  1  0
  9 10  1  0
 10 11  2  0
 11 12  1  0
 12 13  2  0
 13 14  1  0
 14 15  2  0
  9 16  2  0
 16 17  1  0
 17 18  2  0
 18 19  1  0
 19 20  2  0
 20 21  1  0
 21 22  2  0
 16 23  1  0
 23 24  2  0
 23 25  1  0
  5 26  1  0
 26 27  1  0
 26 28  2  0
 28 29  1  0
 28  2  1  0
 25  7  1  0
 15 10  1  0
 22 17  1  0
  1 30  1  0
  1 31  1  0
  1 32  1  0
  3 33  1  0
  4 34  1  0
 11 35  1  0
 12 36  1  0
 13 37  1  0
 14 38  1  0
 15 39  1  0
 18 40  1  0
 19 41  1  0
 20 42  1  0
 21 43  1  0
 22 44  1  0
 27 45  1  0
M  CHG  2  25  -1  29  -1
M  END
>  <UniqueID>  (39) 
38

>  <SMILES>  (39) 
Cc1ccc(Sc2nc(-c3ccccc3)c(-c3ccccc3)c(=O)[n-]2)c(O)c1[O-]

>  <Energy>  (39) 
60.154823342874685

>  <Genealogy>  (39) 
Cc1ccc(Sc2nc(-c3ccccc3)c(-c3ccccc3)c(=O)[n-]2)c(O)c1[O-] (protonated)
Cc1ccc(Sc2nc(-c3ccccc3)c(-c3ccccc3)c(=O)[n-]2)c(O)c1[O-] (3D coordinates assigned)
Cc1ccc(Sc2nc(-c3ccccc3)c(-c3ccccc3)c(=O)[n-]2)c(O)c1[O-] (optimized conformer: 60.154823342874685 kcal/mol)

>  <smiles>  (39) 
Cc1ccc(Sc2nc(-c3ccccc3)c(-c3ccccc3)c(=O)[nH]2)c(O)c1O

>  <score_type>  (39) 
oracle

>  <origin>  (39) 
adgpu

>  <m_score__min__energy>  (39) 
-13.6

>  <m_primary>  (39) 
energy

$$$$
39:0
     RDKit          3D

 53 56  0  0  0  0  0  0  0  0999 V2000
   -9.4600   19.4450  -32.6570 O   0  0  0  0  0  0  0  0  0  0  0  0
   -8.7550   20.4290  -32.3030 C   0  0  0  0  0  0  0  0  0  0  0  0
   -9.3820   21.5710  -31.8010 C   0  0  0  0  0  0  0  0  0  0  0  0
   -8.6120   22.6730  -31.4450 C   0  0  0  0  0  0  0  0  0  0  0  0
   -7.2250   22.6100  -31.5920 C   0  0  0  0  0  0  0  0  0  0  0  0
   -6.3590   23.7890  -31.2420 C   0  0  2  0  0  0  0  0  0  0  0  0
   -5.2550   23.8060  -32.1060 O   0  0  0  0  0  0  0  0  0  0  0  0
   -5.8980   23.6880  -29.8530 N   0  0  0  0  0  0  0  0  0  0  0  0
   -4.5140   23.5370  -29.4770 C   0  0  0  0  0  0  0  0  0  0  0  0
   -4.0960   22.4320  -28.7110 C   0  0  0  0  0  0  0  0  0  0  0  0
   -2.7450   22.2440  -28.3930 C   0  0  0  0  0  0  0  0  0  0  0  0
   -2.2420   20.8360  -27.4510 S   0  0  0  0  0  0  0  0  0  0  0  0
   -1.5750   21.3060  -26.1880 O   0  0  0  0  0  0  0  0  0  0  0  0
   -3.4590   20.0430  -27.0660 O   0  0  0  0  0  0  0  0  0  0  0  0
   -1.1400   19.7970  -28.3230 N   0  0  0  0  0  0  0  0  0  0  0  0
    0.1560   20.4350  -28.5480 C   0  0  0  0  0  0  0  0  0  0  0  0
    1.1730   19.3110  -28.6830 C   0  0  0  0  0  0  0  0  0  0  0  0
    0.4970   18.0790  -28.0980 C   0  0  0  0  0  0  0  0  0  0  0  0
   -0.8490   18.5660  -27.5900 C   0  0  0  0  0  0  0  0  0  0  0  0
   -1.7940   23.1590  -28.8560 C   0  0  0  0  0  0  0  0  0  0  0  0
   -2.1920   24.2650  -29.6050 C   0  0  0  0  0  0  0  0  0  0  0  0
   -3.5430   24.4710  -29.9100 C   0  0  0  0  0  0  0  0  0  0  0  0
   -3.8830   25.6230  -30.6220 O   0  0  0  0  0  0  0  0  0  0  0  0
   -6.6630   21.4770  -32.0950 N   0  0  0  0  0  0  0  0  0  0  0  0
   -7.3890   20.4050  -32.4300 N   0  0  0  0  0  0  0  0  0  0  0  0
   -6.6930   19.2500  -32.9350 C   0  0  0  0  0  0  0  0  0  0  0  0
   -6.5660   18.0850  -32.1560 C   0  0  0  0  0  0  0  0  0  0  0  0
   -5.8620   16.9820  -32.6470 C   0  0  0  0  0  0  0  0  0  0  0  0
   -5.2700   17.0350  -33.9110 C   0  0  0  0  0  0  0  0  0  0  0  0
   -5.3760   18.1930  -34.6850 C   0  0  0  0  0  0  0  0  0  0  0  0
   -6.0800   19.2980  -34.1980 C   0  0  0  0  0  0  0  0  0  0  0  0
  -10.4758   21.5989  -31.6880 H   0  0  0  0  0  0  0  0  0  0  0  0
   -9.0897   23.5828  -31.0525 H   0  0  0  0  0  0  0  0  0  0  0  0
   -6.9397   24.7170  -31.3501 H   0  0  0  0  0  0  0  0  0  0  0  0
   -5.4550   23.1590  -32.8300 H   0  0  0  0  0  0  0  0  0  0  0  0
   -6.6110   23.8400  -29.1050 H   0  0  0  0  0  0  0  0  0  0  0  0
   -4.8419   21.7052  -28.3569 H   0  0  0  0  0  0  0  0  0  0  0  0
    0.1291   21.0358  -29.4690 H   0  0  0  0  0  0  0  0  0  0  0  0
    0.4165   21.1099  -27.7193 H   0  0  0  0  0  0  0  0  0  0  0  0
    1.4250   19.1455  -29.7409 H   0  0  0  0  0  0  0  0  0  0  0  0
    2.1132   19.5465  -28.1628 H   0  0  0  0  0  0  0  0  0  0  0  0
    0.3615   17.3093  -28.8721 H   0  0  0  0  0  0  0  0  0  0  0  0
    1.0974   17.6220  -27.2976 H   0  0  0  0  0  0  0  0  0  0  0  0
   -1.6260   17.8125  -27.7862 H   0  0  0  0  0  0  0  0  0  0  0  0
   -0.8284   18.7411  -26.5042 H   0  0  0  0  0  0  0  0  0  0  0  0
   -0.7288   23.0053  -28.6284 H   0  0  0  0  0  0  0  0  0  0  0  0
   -1.4377   24.9828  -29.9598 H   0  0  0  0  0  0  0  0  0  0  0  0
   -4.1650   25.6140  -31.5920 H   0  0  0  0  0  0  0  0  0  0  0  0
   -7.0228   18.0423  -31.1562 H   0  0  0  0  0  0  0  0  0  0  0  0
   -5.7740   16.0708  -32.0371 H   0  0  0  0  0  0  0  0  0  0  0  0
   -4.7199   16.1642  -34.2972 H   0  0  0  0  0  0  0  0  0  0  0  0
   -4.9052   18.2353  -35.6783 H   0  0  0  0  0  0  0  0  0  0  0  0
   -6.1544   20.2107  -34.8075 H   0  0  0  0  0  0  0  0  0  0  0  0
  1  2  2  0
  2  3  1  0
  3  4  2  0
  4  5  1  0
  5  6  1  0
  6  7  1  0
  6  8  1  0
  8  9  1  0
  9 10  2  0
 10 11  1  0
 11 12  1  0
 12 13  2  0
 12 14  2  0
 12 15  1  0
 15 16  1  0
 16 17  1  0
 17 18  1  0
 18 19  1  0
 11 20  2  0
 20 21  1  0
 21 22  2  0
 22 23  1  0
  5 24  2  0
 24 25  1  0
 25 26  1  0
 26 27  2  0
 27 28  1  0
 28 29  2  0
 29 30  1  0
 30 31  2  0
 25  2  1  0
 31 26  1  0
 22  9  1  0
 19 15  1  0
  3 32  1  0
  4 33  1  0
  6 34  1  1
  7 35  1  0
  8 36  1  0
 10 37  1  0
 16 38  1  0
 16 39  1  0
 17 40  1  0
 17 41  1  0
 18 42  1  0
 18 43  1  0
 19 44  1  0
 19 45  1  0
 20 46  1  0
 21 47  1  0
 23 48  1  0
 27 49  1  0
 28 50  1  0
 29 51  1  0
 30 52  1  0
 31 53  1  0
M  END
>  <UniqueID>  (40) 
39

>  <SMILES>  (40) 
O=c1ccc([C@H](O)Nc2cc(S(=O)(=O)N3CCCC3)ccc2O)nn1-c1ccccc1

>  <Energy>  (40) 
66.9505793908015

>  <Genealogy>  (40) 
O=c1ccc([C@H](O)Nc2cc(S(=O)(=O)N3CCCC3)ccc2O)nn1-c1ccccc1 (chirality)
O=c1ccc([C@H](O)Nc2cc(S(=O)(=O)N3CCCC3)ccc2O)nn1-c1ccccc1 (3D coordinates assigned)
O=c1ccc([C@H](O)Nc2cc(S(=O)(=O)N3CCCC3)ccc2O)nn1-c1ccccc1 (nonaromatic ring conformer: 66.9505793908015 kcal/mol)

>  <smiles>  (40) 
O=c1ccc(C(O)Nc2cc(S(=O)(=O)N3CCCC3)ccc2O)nn1-c1ccccc1

>  <score_type>  (40) 
oracle

>  <origin>  (40) 
adgpu

>  <m_score__min__energy>  (40) 
-11.359999999999999

>  <m_primary>  (40) 
energy

$$$$
40:0
     RDKit          3D

 61 64  0  0  0  0  0  0  0  0999 V2000
   -2.6930   19.5820  -27.0940 C   0  0  0  0  0  0  0  0  0  0  0  0
   -1.1860   19.6910  -26.8950 C   0  0  0  0  0  0  0  0  0  0  0  0
   -0.6170   20.6650  -27.8270 N   0  0  0  0  0  0  0  0  0  0  0  0
    0.3740   21.6440  -27.3660 C   0  0  0  0  0  0  0  0  0  0  0  0
   -0.2620   22.6020  -26.3670 C   0  0  0  0  0  0  0  0  0  0  0  0
   -0.8430   20.5070  -29.2340 C   0  0  0  0  0  0  0  0  0  0  0  0
   -0.4920   19.0820  -30.0920 S   0  0  0  0  0  0  0  0  0  0  0  0
   -1.0540   19.7080  -31.5410 C   0  0  0  0  0  0  0  0  0  0  0  0
   -1.4810   20.9760  -31.3940 C   0  0  0  0  0  0  0  0  0  0  0  0
   -1.3780   21.4830  -30.0920 C   0  0  0  0  0  0  0  0  0  0  0  0
   -1.6950   22.8760  -29.7110 C   0  0  0  0  0  0  0  0  0  0  0  0
   -0.7860   23.7500  -29.7240 O   0  0  0  0  0  0  0  0  0  0  0  0
   -3.0410   23.2370  -29.3930 N   0  0  0  0  0  0  0  0  0  0  0  0
   -4.1870   23.2750  -30.2590 C   0  0  0  0  0  0  0  0  0  0  0  0
   -4.9150   22.1200  -30.6070 C   0  0  0  0  0  0  0  0  0  0  0  0
   -6.0470   22.2140  -31.4270 C   0  0  0  0  0  0  0  0  0  0  0  0
   -6.9630   20.7610  -31.8160 S   0  0  0  0  0  0  0  0  0  0  0  0
   -7.5550   20.8780  -33.1940 O   0  0  0  0  0  0  0  0  0  0  0  0
   -8.0850   20.6230  -30.8240 O   0  0  0  0  0  0  0  0  0  0  0  0
   -5.9240   19.3590  -31.7330 N   0  0  0  0  0  0  0  0  0  0  0  0
   -4.8500   19.4300  -32.7550 C   0  0  0  0  0  0  0  0  0  0  0  0
   -5.1490   18.5810  -34.0000 C   0  0  0  0  0  0  0  0  0  0  0  0
   -5.3440   17.1000  -33.6290 C   0  0  0  0  0  0  0  0  0  0  0  0
   -5.9090   16.9120  -32.2090 C   0  0  0  0  0  0  0  0  0  0  0  0
   -6.7420   18.1280  -31.7870 C   0  0  0  0  0  0  0  0  0  0  0  0
   -6.4380   23.4600  -31.9330 C   0  0  0  0  0  0  0  0  0  0  0  0
   -5.6990   24.6030  -31.6230 C   0  0  0  0  0  0  0  0  0  0  0  0
   -4.5790   24.5130  -30.7920 C   0  0  0  0  0  0  0  0  0  0  0  0
   -3.8600   25.6640  -30.4860 O   0  0  0  0  0  0  0  0  0  0  0  0
   -1.8790   21.5750  -32.6870 C   0  0  0  0  0  0  0  0  0  0  0  0
   -1.6480   20.4230  -33.7010 C   0  0  0  0  0  0  0  0  0  0  0  0
   -1.0660   19.2170  -32.9270 C   0  0  0  0  0  0  0  0  0  0  0  0
   -3.1906   19.5460  -26.1137 H   0  0  0  0  0  0  0  0  0  0  0  0
   -3.0528   20.4565  -27.6560 H   0  0  0  0  0  0  0  0  0  0  0  0
   -2.9233   18.6649  -27.6560 H   0  0  0  0  0  0  0  0  0  0  0  0
   -0.9790   20.0126  -25.8636 H   0  0  0  0  0  0  0  0  0  0  0  0
   -0.7294   18.7082  -27.0836 H   0  0  0  0  0  0  0  0  0  0  0  0
    1.2093   21.1161  -26.8827 H   0  0  0  0  0  0  0  0  0  0  0  0
    0.7428   22.2169  -28.2296 H   0  0  0  0  0  0  0  0  0  0  0  0
   -0.0389   22.2659  -25.3436 H   0  0  0  0  0  0  0  0  0  0  0  0
    0.1451   23.6127  -26.5180 H   0  0  0  0  0  0  0  0  0  0  0  0
   -1.3515   22.6192  -26.5180 H   0  0  0  0  0  0  0  0  0  0  0  0
   -4.5923   21.1375  -30.2322 H   0  0  0  0  0  0  0  0  0  0  0  0
   -4.7308   20.4784  -33.0660 H   0  0  0  0  0  0  0  0  0  0  0  0
   -3.9330   19.0308  -32.2970 H   0  0  0  0  0  0  0  0  0  0  0  0
   -6.0665   18.9552  -34.4778 H   0  0  0  0  0  0  0  0  0  0  0  0
   -4.2945   18.6584  -34.6883 H   0  0  0  0  0  0  0  0  0  0  0  0
   -6.0417   16.6461  -34.3482 H   0  0  0  0  0  0  0  0  0  0  0  0
   -4.3561   16.6171  -33.6599 H   0  0  0  0  0  0  0  0  0  0  0  0
   -6.5456   16.0152  -32.1904 H   0  0  0  0  0  0  0  0  0  0  0  0
   -5.0687   16.8008  -31.5079 H   0  0  0  0  0  0  0  0  0  0  0  0
   -7.5556   18.2722  -32.5131 H   0  0  0  0  0  0  0  0  0  0  0  0
   -7.1416   17.9373  -30.7801 H   0  0  0  0  0  0  0  0  0  0  0  0
   -7.3278   23.5380  -32.5750 H   0  0  0  0  0  0  0  0  0  0  0  0
   -5.9993   25.5780  -32.0343 H   0  0  0  0  0  0  0  0  0  0  0  0
   -2.9358   21.8800  -32.6712 H   0  0  0  0  0  0  0  0  0  0  0  0
   -1.3113   22.4846  -32.9326 H   0  0  0  0  0  0  0  0  0  0  0  0
   -2.6023   20.1408  -34.1697 H   0  0  0  0  0  0  0  0  0  0  0  0
   -0.9528   20.7423  -34.4914 H   0  0  0  0  0  0  0  0  0  0  0  0
   -1.7089   18.3304  -33.0296 H   0  0  0  0  0  0  0  0  0  0  0  0
   -0.0775   18.8978  -33.2890 H   0  0  0  0  0  0  0  0  0  0  0  0
  1  2  1  0
  2  3  1  0
  3  4  1  0
  4  5  1  0
  3  6  1  0
  6  7  1  0
  7  8  1  0
  8  9  2  0
  9 10  1  0
 10 11  1  0
 11 12  2  0
 11 13  1  0
 13 14  1  0
 14 15  2  0
 15 16  1  0
 16 17  1  0
 17 18  2  0
 17 19  2  0
 17 20  1  0
 20 21  1  0
 21 22  1  0
 22 23  1  0
 23 24  1  0
 24 25  1  0
 16 26  2  0
 26 27  1  0
 27 28  2  0
 28 29  1  0
  9 30  1  0
 30 31  1  0
 31 32  1  0
 10  6  2  0
 28 14  1  0
 32  8  1  0
 25 20  1  0
  1 33  1  0
  1 34  1  0
  1 35  1  0
  2 36  1  0
  2 37  1  0
  4 38  1  0
  4 39  1  0
  5 40  1  0
  5 41  1  0
  5 42  1  0
 15 43  1  0
 21 44  1  0
 21 45  1  0
 22 46  1  0
 22 47  1  0
 23 48  1  0
 23 49  1  0
 24 50  1  0
 24 51  1  0
 25 52  1  0
 25 53  1  0
 26 54  1  0
 27 55  1  0
 30 56  1  0
 30 57  1  0
 31 58  1  0
 31 59  1  0
 32 60  1  0
 32 61  1  0
M  CHG  2  13  -1  29  -1
M  END
>  <UniqueID>  (41) 
40

>  <SMILES>  (41) 
CCN(CC)c1sc2c(c1C(=O)[N-]c1cc(S(=O)(=O)N3CCCCC3)ccc1[O-])CCC2

>  <Energy>  (41) 
112.46792349680098

>  <Genealogy>  (41) 
CCN(CC)c1sc2c(c1C(=O)[N-]c1cc(S(=O)(=O)N3CCCCC3)ccc1[O-])CCC2 (protonated)
CCN(CC)c1sc2c(c1C(=O)[N-]c1cc(S(=O)(=O)N3CCCCC3)ccc1[O-])CCC2 (3D coordinates assigned)
CCN(CC)c1sc2c(c1C(=O)[N-]c1cc(S(=O)(=O)N3CCCCC3)ccc1[O-])CCC2 (nonaromatic ring conformer: 112.46792349680098 kcal/mol)

>  <smiles>  (41) 
CCN(CC)c1sc2c(c1C(=O)Nc1cc(S(=O)(=O)N3CCCCC3)ccc1O)CCC2

>  <score_type>  (41) 
oracle

>  <origin>  (41) 
adgpu

>  <m_score__min__energy>  (41) 
-13.94

>  <m_primary>  (41) 
energy

$$$$
41:0
     RDKit          3D

 58 61  0  0  0  0  0  0  0  0999 V2000
    0.4650   17.5320  -27.8030 C   0  0  0  0  0  0  0  0  0  0  0  0
   -0.7180   18.1120  -27.2610 O   0  0  0  0  0  0  0  0  0  0  0  0
   -1.1760   19.4020  -27.5690 C   0  0  0  0  0  0  0  0  0  0  0  0
   -2.4490   19.8580  -27.1860 C   0  0  0  0  0  0  0  0  0  0  0  0
   -2.8420   21.1670  -27.4700 C   0  0  0  0  0  0  0  0  0  0  0  0
   -1.9710   22.0450  -28.1250 C   0  0  0  0  0  0  0  0  0  0  0  0
   -2.3550   23.4140  -28.3360 N   0  0  0  0  0  0  0  0  0  0  0  0
   -3.7370   23.7670  -28.6770 C   0  0  0  0  0  0  0  0  0  0  0  0
   -3.8790   24.1270  -30.1400 C   0  0  0  0  0  0  0  0  0  0  0  0
   -3.5910   25.3010  -30.4940 O   0  0  0  0  0  0  0  0  0  0  0  0
   -4.2530   23.1880  -31.1630 N   0  0  0  0  0  0  0  0  0  0  0  0
   -3.4660   22.1680  -31.8000 C   0  0  0  0  0  0  0  0  0  0  0  0
   -2.1010   21.9990  -31.5060 C   0  0  0  0  0  0  0  0  0  0  0  0
   -1.3550   21.0080  -32.1480 C   0  0  0  0  0  0  0  0  0  0  0  0
   -1.9710   20.1420  -33.0510 C   0  0  0  0  0  0  0  0  0  0  0  0
   -3.3460   20.2320  -33.2710 C   0  0  0  0  0  0  0  0  0  0  0  0
   -4.1020   21.2290  -32.6380 C   0  0  0  0  0  0  0  0  0  0  0  0
   -5.8990   21.1370  -32.7360 S   0  0  0  0  0  0  0  0  0  0  0  0
   -5.9830   19.3660  -33.0010 C   0  0  0  0  0  0  0  0  0  0  0  0
   -6.1600   18.5000  -31.9120 C   0  0  0  0  0  0  0  0  0  0  0  0
   -6.3140   17.1260  -32.1260 C   0  0  0  0  0  0  0  0  0  0  0  0
   -6.3140   16.6170  -33.4280 C   0  0  0  0  0  0  0  0  0  0  0  0
   -6.1600   17.4820  -34.5160 C   0  0  0  0  0  0  0  0  0  0  0  0
   -5.9920   18.8550  -34.3050 C   0  0  0  0  0  0  0  0  0  0  0  0
   -1.1740   24.6800  -28.1410 S   0  0  0  0  0  0  0  0  0  0  0  0
    0.1630   24.2080  -28.6410 O   0  0  0  0  0  0  0  0  0  0  0  0
   -1.5740   25.8800  -28.9540 O   0  0  0  0  0  0  0  0  0  0  0  0
   -1.0470   25.1270  -26.4430 C   0  0  0  0  0  0  0  0  0  0  0  0
   -1.3840   26.4250  -26.0340 C   0  0  0  0  0  0  0  0  0  0  0  0
   -1.2600   26.7930  -24.6920 C   0  0  0  0  0  0  0  0  0  0  0  0
   -0.8090   25.8640  -23.7500 C   0  0  0  0  0  0  0  0  0  0  0  0
   -0.4840   24.5660  -24.1500 C   0  0  0  0  0  0  0  0  0  0  0  0
   -0.6010   24.1960  -25.4930 C   0  0  0  0  0  0  0  0  0  0  0  0
   -0.7220   21.5730  -28.5580 C   0  0  0  0  0  0  0  0  0  0  0  0
   -0.3290   20.2610  -28.2780 C   0  0  0  0  0  0  0  0  0  0  0  0
    1.1237   17.2090  -26.9834 H   0  0  0  0  0  0  0  0  0  0  0  0
    0.1970   16.6631  -28.4220 H   0  0  0  0  0  0  0  0  0  0  0  0
    0.9877   18.2760  -28.4220 H   0  0  0  0  0  0  0  0  0  0  0  0
   -3.1383   19.1808  -26.6604 H   0  0  0  0  0  0  0  0  0  0  0  0
   -3.8447   21.5113  -27.1765 H   0  0  0  0  0  0  0  0  0  0  0  0
   -4.3888   22.9088  -28.4564 H   0  0  0  0  0  0  0  0  0  0  0  0
   -4.0239   24.6445  -28.0789 H   0  0  0  0  0  0  0  0  0  0  0  0
   -1.6173   22.6523  -30.7648 H   0  0  0  0  0  0  0  0  0  0  0  0
   -0.2791   20.9104  -31.9409 H   0  0  0  0  0  0  0  0  0  0  0  0
   -1.3746   19.3900  -33.5884 H   0  0  0  0  0  0  0  0  0  0  0  0
   -3.8398   19.5166  -33.9450 H   0  0  0  0  0  0  0  0  0  0  0  0
   -6.1778   18.9017  -30.8881 H   0  0  0  0  0  0  0  0  0  0  0  0
   -6.4351   16.4462  -31.2697 H   0  0  0  0  0  0  0  0  0  0  0  0
   -6.4351   15.5368  -33.5966 H   0  0  0  0  0  0  0  0  0  0  0  0
   -6.1710   17.0819  -35.5406 H   0  0  0  0  0  0  0  0  0  0  0  0
   -5.8671   19.5325  -35.1626 H   0  0  0  0  0  0  0  0  0  0  0  0
   -1.7470   27.1557  -26.7718 H   0  0  0  0  0  0  0  0  0  0  0  0
   -1.5175   27.8148  -24.3764 H   0  0  0  0  0  0  0  0  0  0  0  0
   -0.7101   26.1552  -22.6939 H   0  0  0  0  0  0  0  0  0  0  0  0
   -0.1354   23.8336  -23.4070 H   0  0  0  0  0  0  0  0  0  0  0  0
   -0.3430   23.1733  -25.8054 H   0  0  0  0  0  0  0  0  0  0  0  0
   -0.0498   22.2381  -29.1199 H   0  0  0  0  0  0  0  0  0  0  0  0
    0.6535   19.9012  -28.6176 H   0  0  0  0  0  0  0  0  0  0  0  0
  1  2  1  0
  2  3  1  0
  3  4  2  0
  4  5  1  0
  5  6  2  0
  6  7  1  0
  7  8  1  0
  8  9  1  0
  9 10  2  0
  9 11  1  0
 11 12  1  0
 12 13  2  0
 13 14  1  0
 14 15  2  0
 15 16  1  0
 16 17  2  0
 17 18  1  0
 18 19  1  0
 19 20  2  0
 20 21  1  0
 21 22  2  0
 22 23  1  0
 23 24  2  0
  7 25  1  0
 25 26  2  0
 25 27  2  0
 25 28  1  0
 28 29  2  0
 29 30  1  0
 30 31  2  0
 31 32  1  0
 32 33  2  0
  6 34  1  0
 34 35  2  0
 35  3  1  0
 17 12  1  0
 24 19  1  0
 33 28  1  0
  1 36  1  0
  1 37  1  0
  1 38  1  0
  4 39  1  0
  5 40  1  0
  8 41  1  0
  8 42  1  0
 13 43  1  0
 14 44  1  0
 15 45  1  0
 16 46  1  0
 20 47  1  0
 21 48  1  0
 22 49  1  0
 23 50  1  0
 24 51  1  0
 29 52  1  0
 30 53  1  0
 31 54  1  0
 32 55  1  0
 33 56  1  0
 34 57  1  0
 35 58  1  0
M  CHG  1  11  -1
M  END
>  <UniqueID>  (42) 
41

>  <SMILES>  (42) 
COc1ccc(N(CC(=O)[N-]c2ccccc2Sc2ccccc2)S(=O)(=O)c2ccccc2)cc1

>  <Energy>  (42) 
62.287175735084965

>  <Genealogy>  (42) 
COc1ccc(N(CC(=O)[N-]c2ccccc2Sc2ccccc2)S(=O)(=O)c2ccccc2)cc1 (protonated)
COc1ccc(N(CC(=O)[N-]c2ccccc2Sc2ccccc2)S(=O)(=O)c2ccccc2)cc1 (3D coordinates assigned)
COc1ccc(N(CC(=O)[N-]c2ccccc2Sc2ccccc2)S(=O)(=O)c2ccccc2)cc1 (optimized conformer: 62.287175735084965 kcal/mol)

>  <smiles>  (42) 
COc1ccc(N(CC(=O)Nc2ccccc2Sc2ccccc2)S(=O)(=O)c2ccccc2)cc1

>  <score_type>  (42) 
oracle

>  <origin>  (42) 
adgpu

>  <m_score__min__energy>  (42) 
-12.44

>  <m_primary>  (42) 
energy

$$$$
42:0
     RDKit          3D

 42 44  0  0  0  0  0  0  0  0999 V2000
   -5.6280   25.2920  -28.7180 O   0  0  0  0  0  0  0  0  0  0  0  0
   -5.2820   25.1680  -30.1740 S   0  0  0  0  0  0  0  0  0  0  0  0
   -5.7390   26.4050  -30.8960 O   0  0  0  0  0  0  0  0  0  0  0  0
   -3.5630   25.0140  -30.3460 N   0  0  0  0  0  0  0  0  0  0  0  0
   -2.7120   24.2670  -29.4630 C   0  0  0  0  0  0  0  0  0  0  0  0
   -3.0140   22.9460  -29.0800 C   0  0  0  0  0  0  0  0  0  0  0  0
   -2.1730   22.2580  -28.1970 C   0  0  0  0  0  0  0  0  0  0  0  0
   -2.5590   20.6130  -27.7250 Cl  0  0  0  0  0  0  0  0  0  0  0  0
   -1.0230   22.8780  -27.7000 C   0  0  0  0  0  0  0  0  0  0  0  0
   -0.7090   24.1830  -28.0880 C   0  0  0  0  0  0  0  0  0  0  0  0
   -1.5500   24.8770  -28.9650 C   0  0  0  0  0  0  0  0  0  0  0  0
   -1.2290   26.1780  -29.3350 O   0  0  0  0  0  0  0  0  0  0  0  0
   -6.0650   23.7340  -30.8290 C   0  0  0  0  0  0  0  0  0  0  0  0
   -7.2400   23.2550  -30.2360 C   0  0  0  0  0  0  0  0  0  0  0  0
   -7.8200   22.0680  -30.6850 C   0  0  0  0  0  0  0  0  0  0  0  0
   -7.2270   21.3420  -31.7270 C   0  0  0  0  0  0  0  0  0  0  0  0
   -7.9050   19.7910  -32.2280 S   0  0  0  0  0  0  0  0  0  0  0  0
   -8.7860   19.2580  -31.1320 O   0  0  0  0  0  0  0  0  0  0  0  0
   -8.7550   19.9930  -33.4530 O   0  0  0  0  0  0  0  0  0  0  0  0
   -6.6470   18.6280  -32.5790 N   0  0  0  0  0  0  0  0  0  0  0  0
   -5.6700   19.1570  -33.5580 C   0  0  0  0  0  0  0  0  0  0  0  0
   -5.8500   18.5290  -34.9510 C   0  0  0  0  0  0  0  0  0  0  0  0
   -5.7120   17.1160  -34.9450 O   0  0  0  0  0  0  0  0  0  0  0  0
   -6.2090   16.4950  -33.7640 C   0  0  0  0  0  0  0  0  0  0  0  0
   -7.2360   17.3390  -32.9910 C   0  0  0  0  0  0  0  0  0  0  0  0
   -6.0690   21.8390  -32.3430 C   0  0  0  0  0  0  0  0  0  0  0  0
   -5.4910   23.0290  -31.8960 C   0  0  0  0  0  0  0  0  0  0  0  0
   -3.9140   22.4528  -29.4760 H   0  0  0  0  0  0  0  0  0  0  0  0
   -0.3649   22.3383  -27.0031 H   0  0  0  0  0  0  0  0  0  0  0  0
    0.2013   24.6659  -27.7032 H   0  0  0  0  0  0  0  0  0  0  0  0
   -7.7072   23.8165  -29.4135 H   0  0  0  0  0  0  0  0  0  0  0  0
   -8.7463   21.7005  -30.2193 H   0  0  0  0  0  0  0  0  0  0  0  0
   -5.8035   20.2458  -33.6397 H   0  0  0  0  0  0  0  0  0  0  0  0
   -4.6609   18.9048  -33.2001 H   0  0  0  0  0  0  0  0  0  0  0  0
   -6.8543   18.7815  -35.3221 H   0  0  0  0  0  0  0  0  0  0  0  0
   -5.0587   18.9339  -35.5990 H   0  0  0  0  0  0  0  0  0  0  0  0
   -6.6869   15.5460  -34.0485 H   0  0  0  0  0  0  0  0  0  0  0  0
   -5.3475   16.3552  -33.0945 H   0  0  0  0  0  0  0  0  0  0  0  0
   -8.1061   17.5294  -33.6365 H   0  0  0  0  0  0  0  0  0  0  0  0
   -7.5425   16.7862  -32.0908 H   0  0  0  0  0  0  0  0  0  0  0  0
   -5.6148   21.2897  -33.1808 H   0  0  0  0  0  0  0  0  0  0  0  0
   -4.5828   23.4142  -32.3825 H   0  0  0  0  0  0  0  0  0  0  0  0
  1  2  2  0
  2  3  2  0
  2  4  1  0
  4  5  1  0
  5  6  2  0
  6  7  1  0
  7  8  1  0
  7  9  2  0
  9 10  1  0
 10 11  2  0
 11 12  1  0
  2 13  1  0
 13 14  2  0
 14 15  1  0
 15 16  2  0
 16 17  1  0
 17 18  2  0
 17 19  2  0
 17 20  1  0
 20 21  1  0
 21 22  1  0
 22 23  1  0
 23 24  1  0
 24 25  1  0
 16 26  1  0
 26 27  2  0
 11  5  1  0
 27 13  1  0
 25 20  1  0
  6 28  1  0
  9 29  1  0
 10 30  1  0
 14 31  1  0
 15 32  1  0
 21 33  1  0
 21 34  1  0
 22 35  1  0
 22 36  1  0
 24 37  1  0
 24 38  1  0
 25 39  1  0
 25 40  1  0
 26 41  1  0
 27 42  1  0
M  CHG  2   4  -1  12  -1
M  END
>  <UniqueID>  (43) 
42

>  <SMILES>  (43) 
O=S(=O)([N-]c1cc(Cl)ccc1[O-])c1ccc(S(=O)(=O)N2CCOCC2)cc1

>  <Energy>  (43) 
56.666244056794945

>  <Genealogy>  (43) 
O=S(=O)([N-]c1cc(Cl)ccc1[O-])c1ccc(S(=O)(=O)N2CCOCC2)cc1 (protonated)
O=S(=O)([N-]c1cc(Cl)ccc1[O-])c1ccc(S(=O)(=O)N2CCOCC2)cc1 (3D coordinates assigned)
O=S(=O)([N-]c1cc(Cl)ccc1[O-])c1ccc(S(=O)(=O)N2CCOCC2)cc1 (nonaromatic ring conformer: 56.666244056794945 kcal/mol)

>  <smiles>  (43) 
O=S(=O)(Nc1cc(Cl)ccc1O)c1ccc(S(=O)(=O)N2CCOCC2)cc1

>  <score_type>  (43) 
oracle

>  <origin>  (43) 
adgpu

>  <m_score__min__energy>  (43) 
-14.869999999999999

>  <m_primary>  (43) 
energy

$$$$
43:0
     RDKit          3D

 41 44  0  0  0  0  0  0  0  0999 V2000
   -1.3620   21.5840  -26.7790 C   0  0  0  0  0  0  0  0  0  0  0  0
   -1.9400   22.5660  -27.7630 C   0  0  0  0  0  0  0  0  0  0  0  0
   -2.9960   22.1400  -28.5830 C   0  0  0  0  0  0  0  0  0  0  0  0
   -3.6010   23.0150  -29.4810 C   0  0  0  0  0  0  0  0  0  0  0  0
   -3.1780   24.3410  -29.5670 C   0  0  0  0  0  0  0  0  0  0  0  0
   -3.8570   25.2190  -30.4750 N   0  0  0  0  0  0  0  0  0  0  0  0
   -5.2520   25.1480  -30.7840 C   0  0  0  0  0  0  0  0  0  0  0  0
   -6.0780   25.7080  -30.0150 O   0  0  0  0  0  0  0  0  0  0  0  0
   -5.6990   24.4420  -31.9500 N   0  0  0  0  0  0  0  0  0  0  0  0
   -6.5470   23.2860  -31.9910 C   0  0  0  0  0  0  0  0  0  0  0  0
   -7.9090   23.4400  -31.6300 C   0  0  0  0  0  0  0  0  0  0  0  0
   -8.7850   22.3380  -31.6300 C   0  0  0  0  0  0  0  0  0  0  0  0
   -8.2630   21.0980  -31.9820 C   0  0  0  0  0  0  0  0  0  0  0  0
   -8.9020   19.9180  -32.0390 N   0  0  0  0  0  0  0  0  0  0  0  0
   -8.0050   19.0040  -32.4030 N   0  0  0  0  0  0  0  0  0  0  0  0
   -6.8010   19.6000  -32.5760 C   0  0  0  0  0  0  0  0  0  0  0  0
   -6.9500   20.9390  -32.3120 C   0  0  0  0  0  0  0  0  0  0  0  0
   -6.0510   22.0020  -32.3250 C   0  0  0  0  0  0  0  0  0  0  0  0
   -2.0740   24.7700  -28.8060 C   0  0  0  0  0  0  0  0  0  0  0  0
   -1.6020   26.0700  -28.9620 O   0  0  0  0  0  0  0  0  0  0  0  0
   -1.4380   23.8880  -27.9040 C   0  0  0  0  0  0  0  0  0  0  0  0
   -0.0650   24.4860  -26.9410 S   0  0  0  0  0  0  0  0  0  0  0  0
    0.7330   25.4740  -27.7460 O   0  0  0  0  0  0  0  0  0  0  0  0
    0.8600   23.3630  -26.5600 O   0  0  0  0  0  0  0  0  0  0  0  0
   -0.7130   25.3190  -25.4930 C   0  0  0  0  0  0  0  0  0  0  0  0
   -2.1740   25.7170  -25.6130 C   0  0  0  0  0  0  0  0  0  0  0  0
   -1.0910   26.7810  -25.6730 C   0  0  0  0  0  0  0  0  0  0  0  0
   -1.5651   21.9290  -25.7544 H   0  0  0  0  0  0  0  0  0  0  0  0
   -1.8233   20.5972  -26.9318 H   0  0  0  0  0  0  0  0  0  0  0  0
   -0.2753   21.5083  -26.9318 H   0  0  0  0  0  0  0  0  0  0  0  0
   -3.3505   21.1009  -28.5154 H   0  0  0  0  0  0  0  0  0  0  0  0
   -4.4173   22.6584  -30.1264 H   0  0  0  0  0  0  0  0  0  0  0  0
   -8.2864   24.4335  -31.3462 H   0  0  0  0  0  0  0  0  0  0  0  0
   -9.8453   22.4537  -31.3610 H   0  0  0  0  0  0  0  0  0  0  0  0
   -5.8683   19.0994  -32.8752 H   0  0  0  0  0  0  0  0  0  0  0  0
   -4.9931   21.8501  -32.5854 H   0  0  0  0  0  0  0  0  0  0  0  0
   -0.0983   24.7697  -24.7647 H   0  0  0  0  0  0  0  0  0  0  0  0
   -2.7416   25.4585  -26.5191 H   0  0  0  0  0  0  0  0  0  0  0  0
   -3.0755   25.5588  -25.0028 H   0  0  0  0  0  0  0  0  0  0  0  0
   -0.8742   27.2924  -26.6225 H   0  0  0  0  0  0  0  0  0  0  0  0
   -0.8833   27.7116  -25.1245 H   0  0  0  0  0  0  0  0  0  0  0  0
  1  2  1  0
  2  3  2  0
  3  4  1  0
  4  5  2  0
  5  6  1  0
  6  7  1  0
  7  8  2  0
  7  9  1  0
  9 10  1  0
 10 11  2  0
 11 12  1  0
 12 13  2  0
 13 14  1  0
 14 15  1  0
 15 16  2  0
 16 17  1  0
 17 18  2  0
  5 19  1  0
 19 20  1  0
 19 21  2  0
 21 22  1  0
 22 23  2  0
 22 24  2  0
 22 25  1  0
 25 26  1  0
 26 27  1  0
 21  2  1  0
 27 25  1  0
 18 10  1  0
 17 13  1  0
  1 28  1  0
  1 29  1  0
  1 30  1  0
  3 31  1  0
  4 32  1  0
 11 33  1  0
 12 34  1  0
 16 35  1  0
 18 36  1  0
 25 37  1  0
 26 38  1  0
 26 39  1  0
 27 40  1  0
 27 41  1  0
M  CHG  4   6  -1   9  -1  14  -1  20  -1
M  END
>  <UniqueID>  (44) 
43

>  <SMILES>  (44) 
Cc1ccc([N-]C(=O)[N-]c2ccc3[n-]ncc3c2)c([O-])c1S(=O)(=O)C1CC1

>  <Energy>  (44) 
357.3564599841632

>  <Genealogy>  (44) 
Cc1ccc([N-]C(=O)[N-]c2ccc3[n-]ncc3c2)c([O-])c1S(=O)(=O)C1CC1 (protonated)
Cc1ccc([N-]C(=O)[N-]c2ccc3[n-]ncc3c2)c([O-])c1S(=O)(=O)C1CC1 (3D coordinates assigned)
Cc1ccc([N-]C(=O)[N-]c2ccc3[n-]ncc3c2)c([O-])c1S(=O)(=O)C1CC1 (nonaromatic ring conformer: 357.3564599841632 kcal/mol)

>  <smiles>  (44) 
Cc1ccc(NC(=O)Nc2ccc3[nH]ncc3c2)c(O)c1S(=O)(=O)C1CC1

>  <score_type>  (44) 
oracle

>  <origin>  (44) 
adgpu

>  <m_score__min__energy>  (44) 
-14.76

>  <m_primary>  (44) 
energy

$$$$
44:0
     RDKit          3D

 47 49  0  0  0  0  0  0  0  0999 V2000
   -8.6760   19.7360  -32.8730 N   0  0  0  0  0  0  0  0  0  0  0  0
   -8.3970   20.9420  -32.1600 C   0  0  0  0  0  0  0  0  0  0  0  0
   -9.3420   21.5470  -31.5870 O   0  0  0  0  0  0  0  0  0  0  0  0
   -7.0160   21.4730  -32.0910 C   0  0  0  0  0  0  0  0  0  0  0  0
   -5.9620   20.8080  -32.7410 C   0  0  0  0  0  0  0  0  0  0  0  0
   -4.6580   21.3100  -32.6720 C   0  0  0  0  0  0  0  0  0  0  0  0
   -4.3900   22.4790  -31.9590 C   0  0  0  0  0  0  0  0  0  0  0  0
   -5.4280   23.1550  -31.3110 C   0  0  0  0  0  0  0  0  0  0  0  0
   -5.1190   24.6450  -30.4240 S   0  0  0  0  0  0  0  0  0  0  0  0
   -5.6880   24.5800  -29.0330 O   0  0  0  0  0  0  0  0  0  0  0  0
   -5.7690   25.7850  -31.1540 O   0  0  0  0  0  0  0  0  0  0  0  0
   -3.4110   24.9260  -30.3320 N   0  0  0  0  0  0  0  0  0  0  0  0
   -2.5240   24.3300  -29.3750 C   0  0  0  0  0  0  0  0  0  0  0  0
   -2.7230   23.0270  -28.8860 C   0  0  0  0  0  0  0  0  0  0  0  0
   -1.8340   22.4710  -27.9580 C   0  0  0  0  0  0  0  0  0  0  0  0
   -2.1200   20.8360  -27.3630 S   0  0  0  0  0  0  0  0  0  0  0  0
   -3.5930   20.6070  -27.1550 O   0  0  0  0  0  0  0  0  0  0  0  0
   -1.4140   20.6740  -26.0440 O   0  0  0  0  0  0  0  0  0  0  0  0
   -1.4920   19.6930  -28.5260 N   0  0  0  0  0  0  0  0  0  0  0  0
   -0.5540   18.7350  -27.8840 C   0  0  0  0  0  0  0  0  0  0  0  0
    0.9210   19.0560  -28.1710 C   0  0  0  0  0  0  0  0  0  0  0  0
    1.2090   19.0820  -29.6840 C   0  0  0  0  0  0  0  0  0  0  0  0
   -0.0150   19.5080  -30.5140 C   0  0  0  0  0  0  0  0  0  0  0  0
   -0.9380   20.4120  -29.6940 C   0  0  0  0  0  0  0  0  0  0  0  0
   -0.7500   23.2280  -27.4940 C   0  0  0  0  0  0  0  0  0  0  0  0
   -0.5560   24.5280  -27.9630 C   0  0  0  0  0  0  0  0  0  0  0  0
   -1.4380   25.0790  -28.8980 C   0  0  0  0  0  0  0  0  0  0  0  0
   -1.2370   26.3800  -29.3460 O   0  0  0  0  0  0  0  0  0  0  0  0
   -6.7350   22.6510  -31.3750 C   0  0  0  0  0  0  0  0  0  0  0  0
   -9.0250   19.7650  -33.8570 H   0  0  0  0  0  0  0  0  0  0  0  0
   -6.1637   19.8870  -33.3076 H   0  0  0  0  0  0  0  0  0  0  0  0
   -3.8400   20.7805  -33.1824 H   0  0  0  0  0  0  0  0  0  0  0  0
   -3.3626   22.8685  -31.9068 H   0  0  0  0  0  0  0  0  0  0  0  0
   -3.5846   22.4392  -29.2355 H   0  0  0  0  0  0  0  0  0  0  0  0
   -0.7138   18.7636  -26.7960 H   0  0  0  0  0  0  0  0  0  0  0  0
   -0.7619   17.7395  -28.3033 H   0  0  0  0  0  0  0  0  0  0  0  0
    1.1621   20.0408  -27.7443 H   0  0  0  0  0  0  0  0  0  0  0  0
    1.5404   18.2695  -27.7152 H   0  0  0  0  0  0  0  0  0  0  0  0
    2.0276   19.7917  -29.8743 H   0  0  0  0  0  0  0  0  0  0  0  0
    1.4779   18.0598  -29.9888 H   0  0  0  0  0  0  0  0  0  0  0  0
    0.3261   20.0543  -31.4058 H   0  0  0  0  0  0  0  0  0  0  0  0
   -0.5733   18.6069  -30.8080 H   0  0  0  0  0  0  0  0  0  0  0  0
   -0.3662   21.2829  -29.3410 H   0  0  0  0  0  0  0  0  0  0  0  0
   -1.7732   20.7302  -30.3352 H   0  0  0  0  0  0  0  0  0  0  0  0
   -0.0523   22.7978  -26.7604 H   0  0  0  0  0  0  0  0  0  0  0  0
    0.2941   25.1217  -27.5957 H   0  0  0  0  0  0  0  0  0  0  0  0
   -7.5490   23.1822  -30.8600 H   0  0  0  0  0  0  0  0  0  0  0  0
  1  2  1  0
  2  3  2  0
  2  4  1  0
  4  5  2  0
  5  6  1  0
  6  7  2  0
  7  8  1  0
  8  9  1  0
  9 10  2  0
  9 11  2  0
  9 12  1  0
 12 13  1  0
 13 14  2  0
 14 15  1  0
 15 16  1  0
 16 17  2  0
 16 18  2  0
 16 19  1  0
 19 20  1  0
 20 21  1  0
 21 22  1  0
 22 23  1  0
 23 24  1  0
 15 25  2  0
 25 26  1  0
 26 27  2  0
 27 28  1  0
  8 29  2  0
 29  4  1  0
 27 13  1  0
 24 19  1  0
  1 30  1  0
  5 31  1  0
  6 32  1  0
  7 33  1  0
 14 34  1  0
 20 35  1  0
 20 36  1  0
 21 37  1  0
 21 38  1  0
 22 39  1  0
 22 40  1  0
 23 41  1  0
 23 42  1  0
 24 43  1  0
 24 44  1  0
 25 45  1  0
 26 46  1  0
 29 47  1  0
M  CHG  3   1  -1  12  -1  28  -1
M  END
>  <UniqueID>  (45) 
44

>  <SMILES>  (45) 
[NH-]C(=O)c1cccc(S(=O)(=O)[N-]c2cc(S(=O)(=O)N3CCCCC3)ccc2[O-])c1

>  <Energy>  (45) 
56.727777679486714

>  <Genealogy>  (45) 
[NH-]C(=O)c1cccc(S(=O)(=O)[N-]c2cc(S(=O)(=O)N3CCCCC3)ccc2[O-])c1 (protonated)
[NH-]C(=O)c1cccc(S(=O)(=O)[N-]c2cc(S(=O)(=O)N3CCCCC3)ccc2[O-])c1 (3D coordinates assigned)
[NH-]C(=O)c1cccc(S(=O)(=O)[N-]c2cc(S(=O)(=O)N3CCCCC3)ccc2[O-])c1 (nonaromatic ring conformer: 56.727777679486714 kcal/mol)

>  <smiles>  (45) 
NC(=O)c1cccc(S(=O)(=O)Nc2cc(S(=O)(=O)N3CCCCC3)ccc2O)c1

>  <score_type>  (45) 
oracle

>  <origin>  (45) 
adgpu

>  <m_score__min__energy>  (45) 
-15.16

>  <m_primary>  (45) 
energy

$$$$
45:0
     RDKit          3D

 64 67  0  0  0  0  0  0  0  0999 V2000
   -2.6380   24.9300  -26.9920 O   0  0  0  0  0  0  0  0  0  0  0  0
   -1.9570   25.1700  -28.0280 C   0  0  0  0  0  0  0  0  0  0  0  0
   -0.4660   25.3000  -27.9410 C   0  0  0  0  0  0  0  0  0  0  0  0
    0.1960   24.2200  -28.6070 O   0  0  0  0  0  0  0  0  0  0  0  0
   -0.3920   22.9870  -28.9460 C   0  0  0  0  0  0  0  0  0  0  0  0
   -1.1750   22.8220  -30.1080 C   0  0  0  0  0  0  0  0  0  0  0  0
   -1.7550   21.5820  -30.4070 C   0  0  0  0  0  0  0  0  0  0  0  0
   -2.7330   21.3840  -31.8610 S   0  0  0  0  0  0  0  0  0  0  0  0
   -3.5040   22.6490  -32.1250 O   0  0  0  0  0  0  0  0  0  0  0  0
   -3.7120   20.2650  -31.6410 O   0  0  0  0  0  0  0  0  0  0  0  0
   -1.7110   21.0060  -33.2280 N   0  0  0  0  0  0  0  0  0  0  0  0
   -2.0370   19.6610  -33.7410 C   0  0  0  0  0  0  0  0  0  0  0  0
   -0.8830   19.1100  -34.5980 C   0  0  0  0  0  0  0  0  0  0  0  0
    0.3730   19.0350  -33.9290 O   0  0  0  0  0  0  0  0  0  0  0  0
    0.4320   19.8030  -32.7390 C   0  0  0  0  0  0  0  0  0  0  0  0
   -0.2800   21.1590  -32.8790 C   0  0  0  0  0  0  0  0  0  0  0  0
   -1.5410   20.4930  -29.5530 C   0  0  0  0  0  0  0  0  0  0  0  0
   -0.7650   20.6470  -28.4020 C   0  0  0  0  0  0  0  0  0  0  0  0
   -0.1920   21.8850  -28.0930 C   0  0  0  0  0  0  0  0  0  0  0  0
    0.5710   22.0040  -26.9300 O   0  0  0  0  0  0  0  0  0  0  0  0
   -2.5910   25.2780  -29.3080 N   0  0  0  0  0  0  0  0  0  0  0  0
   -3.8050   24.6250  -29.7120 C   0  0  0  0  0  0  0  0  0  0  0  0
   -4.6350   25.1520  -30.7180 C   0  0  0  0  0  0  0  0  0  0  0  0
   -5.8060   24.4840  -31.0860 C   0  0  0  0  0  0  0  0  0  0  0  0
   -6.1560   23.2780  -30.4660 C   0  0  0  0  0  0  0  0  0  0  0  0
   -7.6500   22.4510  -30.9150 S   0  0  0  0  0  0  0  0  0  0  0  0
   -8.5070   22.2880  -29.6910 O   0  0  0  0  0  0  0  0  0  0  0  0
   -8.4070   23.2910  -31.9070 O   0  0  0  0  0  0  0  0  0  0  0  0
   -7.3260   20.8820  -31.6110 N   0  0  0  0  0  0  0  0  0  0  0  0
   -6.6420   21.0280  -32.9060 C   0  0  0  0  0  0  0  0  0  0  0  0
   -6.1270   19.6600  -33.3930 C   0  0  0  0  0  0  0  0  0  0  0  0
   -6.9430   18.4880  -32.8230 C   0  0  0  0  0  0  0  0  0  0  0  0
   -8.4150   18.8710  -32.6540 C   0  0  0  0  0  0  0  0  0  0  0  0
   -8.5820   20.1180  -31.7580 C   0  0  0  0  0  0  0  0  0  0  0  0
   -5.3150   22.7370  -29.4830 C   0  0  0  0  0  0  0  0  0  0  0  0
   -4.1420   23.4030  -29.1160 C   0  0  0  0  0  0  0  0  0  0  0  0
   -0.1623   26.2480  -28.4090 H   0  0  0  0  0  0  0  0  0  0  0  0
   -0.1797   25.2771  -26.8792 H   0  0  0  0  0  0  0  0  0  0  0  0
   -1.3316   23.6745  -30.7853 H   0  0  0  0  0  0  0  0  0  0  0  0
   -2.2116   18.9835  -32.8922 H   0  0  0  0  0  0  0  0  0  0  0  0
   -2.9393   19.7305  -34.3663 H   0  0  0  0  0  0  0  0  0  0  0  0
   -1.1557   18.0971  -34.9292 H   0  0  0  0  0  0  0  0  0  0  0  0
   -0.7497   19.8166  -35.4304 H   0  0  0  0  0  0  0  0  0  0  0  0
   -0.0470   19.2348  -31.9280 H   0  0  0  0  0  0  0  0  0  0  0  0
    1.4917   20.0021  -32.5211 H   0  0  0  0  0  0  0  0  0  0  0  0
   -0.2041   21.6992  -31.9238 H   0  0  0  0  0  0  0  0  0  0  0  0
    0.2086   21.7145  -33.6930 H   0  0  0  0  0  0  0  0  0  0  0  0
   -1.9848   19.5146  -29.7891 H   0  0  0  0  0  0  0  0  0  0  0  0
   -0.6033   19.7884  -27.7336 H   0  0  0  0  0  0  0  0  0  0  0  0
    0.9560   22.8900  -26.6260 H   0  0  0  0  0  0  0  0  0  0  0  0
   -4.3613   26.0934  -31.2169 H   0  0  0  0  0  0  0  0  0  0  0  0
   -6.4557   24.9073  -31.8661 H   0  0  0  0  0  0  0  0  0  0  0  0
   -7.3473   21.4350  -33.6456 H   0  0  0  0  0  0  0  0  0  0  0  0
   -5.7881   21.7109  -32.7859 H   0  0  0  0  0  0  0  0  0  0  0  0
   -6.1869   19.6308  -34.4910 H   0  0  0  0  0  0  0  0  0  0  0  0
   -5.0905   19.5482  -33.0420 H   0  0  0  0  0  0  0  0  0  0  0  0
   -6.8712   17.6325  -33.5107 H   0  0  0  0  0  0  0  0  0  0  0  0
   -6.5349   18.2263  -31.8356 H   0  0  0  0  0  0  0  0  0  0  0  0
   -8.8439   19.0837  -33.6444 H   0  0  0  0  0  0  0  0  0  0  0  0
   -8.9347   18.0301  -32.1714 H   0  0  0  0  0  0  0  0  0  0  0  0
   -9.3435   20.7740  -32.2049 H   0  0  0  0  0  0  0  0  0  0  0  0
   -8.8820   19.7727  -30.7576 H   0  0  0  0  0  0  0  0  0  0  0  0
   -5.5792   21.7852  -28.9990 H   0  0  0  0  0  0  0  0  0  0  0  0
   -3.4798   22.9649  -28.3547 H   0  0  0  0  0  0  0  0  0  0  0  0
  1  2  2  0
  2  3  1  0
  3  4  1  0
  4  5  1  0
  5  6  2  0
  6  7  1  0
  7  8  1  0
  8  9  2  0
  8 10  2  0
  8 11  1  0
 11 12  1  0
 12 13  1  0
 13 14  1  0
 14 15  1  0
 15 16  1  0
  7 17  2  0
 17 18  1  0
 18 19  2  0
 19 20  1  0
  2 21  1  0
 21 22  1  0
 22 23  2  0
 23 24  1  0
 24 25  2  0
 25 26  1  0
 26 27  2  0
 26 28  2  0
 26 29  1  0
 29 30  1  0
 30 31  1  0
 31 32  1  0
 32 33  1  0
 33 34  1  0
 25 35  1  0
 35 36  2  0
 19  5  1  0
 36 22  1  0
 16 11  1  0
 34 29  1  0
  3 37  1  0
  3 38  1  0
  6 39  1  0
 12 40  1  0
 12 41  1  0
 13 42  1  0
 13 43  1  0
 15 44  1  0
 15 45  1  0
 16 46  1  0
 16 47  1  0
 17 48  1  0
 18 49  1  0
 20 50  1  0
 23 51  1  0
 24 52  1  0
 30 53  1  0
 30 54  1  0
 31 55  1  0
 31 56  1  0
 32 57  1  0
 32 58  1  0
 33 59  1  0
 33 60  1  0
 34 61  1  0
 34 62  1  0
 35 63  1  0
 36 64  1  0
M  CHG  1  21  -1
M  END
>  <UniqueID>  (46) 
45

>  <SMILES>  (46) 
O=C(COc1cc(S(=O)(=O)N2CCOCC2)ccc1O)[N-]c1ccc(S(=O)(=O)N2CCCCC2)cc1

>  <Energy>  (46) 
83.9193482989115

>  <Genealogy>  (46) 
O=C(COc1cc(S(=O)(=O)N2CCOCC2)ccc1O)[N-]c1ccc(S(=O)(=O)N2CCCCC2)cc1 (protonated)
O=C(COc1cc(S(=O)(=O)N2CCOCC2)ccc1O)[N-]c1ccc(S(=O)(=O)N2CCCCC2)cc1 (3D coordinates assigned)
O=C(COc1cc(S(=O)(=O)N2CCOCC2)ccc1O)[N-]c1ccc(S(=O)(=O)N2CCCCC2)cc1 (nonaromatic ring conformer: 83.9193482989115 kcal/mol)

>  <smiles>  (46) 
O=C(COc1cc(S(=O)(=O)N2CCOCC2)ccc1O)Nc1ccc(S(=O)(=O)N2CCCCC2)cc1

>  <score_type>  (46) 
oracle

>  <origin>  (46) 
adgpu

>  <m_score__min__energy>  (46) 
-11.4

>  <m_primary>  (46) 
energy

$$$$
46:0
     RDKit          3D

 43 45  0  0  0  0  0  0  0  0999 V2000
   -1.2100   19.3610  -31.7540 O   0  0  0  0  0  0  0  0  0  0  0  0
   -2.0870   20.2610  -31.6760 C   0  0  0  0  0  0  0  0  0  0  0  0
   -3.1790   20.2470  -32.6070 N   0  0  0  0  0  0  0  0  0  0  0  0
   -4.0100   21.3990  -32.9520 C   0  0  0  0  0  0  0  0  0  0  0  0
   -5.3720   21.3210  -32.2520 C   0  0  0  0  0  0  0  0  0  0  0  0
   -5.6270   22.5680  -31.4510 C   0  0  0  0  0  0  0  0  0  0  0  0
   -6.8900   22.8050  -30.8870 C   0  0  0  0  0  0  0  0  0  0  0  0
   -7.1320   23.9850  -30.1760 C   0  0  0  0  0  0  0  0  0  0  0  0
   -6.1190   24.9430  -30.0310 C   0  0  0  0  0  0  0  0  0  0  0  0
   -6.3540   26.1200  -29.3230 O   0  0  0  0  0  0  0  0  0  0  0  0
   -4.8610   24.7150  -30.6040 C   0  0  0  0  0  0  0  0  0  0  0  0
   -3.8510   25.6610  -30.4720 O   0  0  0  0  0  0  0  0  0  0  0  0
   -4.6180   23.5350  -31.3140 C   0  0  0  0  0  0  0  0  0  0  0  0
   -1.9840   21.2730  -30.6060 C   0  0  0  0  0  0  0  0  0  0  0  0
   -0.9530   22.2230  -30.6140 C   0  0  0  0  0  0  0  0  0  0  0  0
   -0.8960   23.2100  -29.6280 C   0  0  0  0  0  0  0  0  0  0  0  0
   -1.8660   23.2620  -28.6120 C   0  0  0  0  0  0  0  0  0  0  0  0
   -1.8220   24.2890  -27.6040 N   0  0  0  0  0  0  0  0  0  0  0  0
   -2.9650   24.7390  -26.8250 C   0  0  0  0  0  0  0  0  0  0  0  0
   -2.4020   25.6800  -25.7450 C   0  0  0  0  0  0  0  0  0  0  0  0
   -0.9540   26.0020  -26.1390 C   0  0  0  0  0  0  0  0  0  0  0  0
   -0.6850   25.0560  -27.2400 C   0  0  0  0  0  0  0  0  0  0  0  0
    0.4200   24.9890  -27.8410 O   0  0  0  0  0  0  0  0  0  0  0  0
   -2.8660   22.2730  -28.5780 C   0  0  0  0  0  0  0  0  0  0  0  0
   -2.9230   21.2860  -29.5660 C   0  0  0  0  0  0  0  0  0  0  0  0
   -3.4965   22.3200  -32.6390 H   0  0  0  0  0  0  0  0  0  0  0  0
   -4.1737   21.4008  -34.0397 H   0  0  0  0  0  0  0  0  0  0  0  0
   -6.1620   21.2098  -33.0093 H   0  0  0  0  0  0  0  0  0  0  0  0
   -5.3726   20.4562  -31.5722 H   0  0  0  0  0  0  0  0  0  0  0  0
   -7.6916   22.0610  -31.0044 H   0  0  0  0  0  0  0  0  0  0  0  0
   -8.1213   24.1619  -29.7288 H   0  0  0  0  0  0  0  0  0  0  0  0
   -5.5920   26.6910  -28.9760 H   0  0  0  0  0  0  0  0  0  0  0  0
   -3.6308   23.3633  -31.7678 H   0  0  0  0  0  0  0  0  0  0  0  0
   -0.1851   22.1907  -31.4010 H   0  0  0  0  0  0  0  0  0  0  0  0
   -0.0852   23.9531  -29.6465 H   0  0  0  0  0  0  0  0  0  0  0  0
   -3.6766   25.2781  -27.4677 H   0  0  0  0  0  0  0  0  0  0  0  0
   -3.5050   23.8915  -26.3776 H   0  0  0  0  0  0  0  0  0  0  0  0
   -2.9963   26.6047  -25.7028 H   0  0  0  0  0  0  0  0  0  0  0  0
   -2.4423   25.2066  -24.7529 H   0  0  0  0  0  0  0  0  0  0  0  0
   -0.8608   27.0430  -26.4819 H   0  0  0  0  0  0  0  0  0  0  0  0
   -0.2471   25.9019  -25.3022 H   0  0  0  0  0  0  0  0  0  0  0  0
   -3.6092   22.2765  -27.7671 H   0  0  0  0  0  0  0  0  0  0  0  0
   -3.7080   20.5164  -29.5270 H   0  0  0  0  0  0  0  0  0  0  0  0
  1  2  2  0
  2  3  1  0
  3  4  1  0
  4  5  1  0
  5  6  1  0
  6  7  2  0
  7  8  1  0
  8  9  2  0
  9 10  1  0
  9 11  1  0
 11 12  1  0
 11 13  2  0
  2 14  1  0
 14 15  2  0
 15 16  1  0
 16 17  2  0
 17 18  1  0
 18 19  1  0
 19 20  1  0
 20 21  1  0
 21 22  1  0
 22 23  2  0
 17 24  1  0
 24 25  2  0
 13  6  1  0
 25 14  1  0
 22 18  1  0
  4 26  1  0
  4 27  1  0
  5 28  1  0
  5 29  1  0
  7 30  1  0
  8 31  1  0
 10 32  1  0
 13 33  1  0
 15 34  1  0
 16 35  1  0
 19 36  1  0
 19 37  1  0
 20 38  1  0
 20 39  1  0
 21 40  1  0
 21 41  1  0
 24 42  1  0
 25 43  1  0
M  CHG  2   3  -1  12  -1
M  END
>  <UniqueID>  (47) 
46

>  <SMILES>  (47) 
O=C([N-]CCc1ccc(O)c([O-])c1)c1ccc(N2CCCC2=O)cc1

>  <Energy>  (47) 
55.15341456757296

>  <Genealogy>  (47) 
O=C([N-]CCc1ccc(O)c([O-])c1)c1ccc(N2CCCC2=O)cc1 (protonated)
O=C([N-]CCc1ccc(O)c([O-])c1)c1ccc(N2CCCC2=O)cc1 (3D coordinates assigned)
O=C([N-]CCc1ccc(O)c([O-])c1)c1ccc(N2CCCC2=O)cc1 (nonaromatic ring conformer: 55.15341456757296 kcal/mol)

>  <smiles>  (47) 
O=C(NCCc1ccc(O)c(O)c1)c1ccc(N2CCCC2=O)cc1

>  <score_type>  (47) 
oracle

>  <origin>  (47) 
adgpu

>  <m_score__min__energy>  (47) 
-11.27

>  <m_primary>  (47) 
energy

$$$$
47:0
     RDKit          3D

 62 65  0  0  0  0  0  0  0  0999 V2000
    0.0200   19.4480  -33.1630 O   0  0  0  0  0  0  0  0  0  0  0  0
   -0.2650   20.0620  -34.2260 C   0  0  0  0  0  0  0  0  0  0  0  0
   -1.6440   20.2930  -34.5790 N   0  0  0  0  0  0  0  0  0  0  0  0
   -2.7670   19.7240  -33.8790 C   0  0  0  0  0  0  0  0  0  0  0  0
   -3.4590   18.6450  -34.4580 C   0  0  0  0  0  0  0  0  0  0  0  0
   -4.5720   18.0920  -33.8200 C   0  0  0  0  0  0  0  0  0  0  0  0
   -5.0140   18.6110  -32.5970 C   0  0  0  0  0  0  0  0  0  0  0  0
   -6.4840   17.9840  -31.8490 S   0  0  0  0  0  0  0  0  0  0  0  0
   -6.1170   17.0970  -30.6900 O   0  0  0  0  0  0  0  0  0  0  0  0
   -7.2320   17.1480  -32.8520 O   0  0  0  0  0  0  0  0  0  0  0  0
   -7.5080   19.2770  -31.2670 N   0  0  0  0  0  0  0  0  0  0  0  0
   -7.0700   20.5710  -31.8300 C   0  0  0  0  0  0  0  0  0  0  0  0
   -8.1260   21.6540  -31.6020 C   0  0  0  0  0  0  0  0  0  0  0  0
   -9.4370   21.3110  -32.3340 C   0  0  0  0  0  0  0  0  0  0  0  0
   -9.6100   19.7990  -32.5660 C   0  0  0  0  0  0  0  0  0  0  0  0
   -8.9510   18.9750  -31.4480 C   0  0  0  0  0  0  0  0  0  0  0  0
   -4.3000   19.6530  -31.9910 C   0  0  0  0  0  0  0  0  0  0  0  0
   -3.1740   20.1950  -32.6170 C   0  0  0  0  0  0  0  0  0  0  0  0
    0.8360   20.5910  -35.0700 C   0  0  0  0  0  0  0  0  0  0  0  0
    1.7600   19.7280  -35.6820 C   0  0  0  0  0  0  0  0  0  0  0  0
    2.7680   20.2390  -36.5010 C   0  0  0  0  0  0  0  0  0  0  0  0
    2.8820   21.6140  -36.7130 C   0  0  0  0  0  0  0  0  0  0  0  0
    3.8990   22.0860  -37.5380 O   0  0  0  0  0  0  0  0  0  0  0  0
    1.9750   22.4980  -36.0930 C   0  0  0  0  0  0  0  0  0  0  0  0
    2.0890   24.2530  -36.3190 S   0  0  0  0  0  0  0  0  0  0  0  0
    2.0620   24.9120  -34.9670 O   0  0  0  0  0  0  0  0  0  0  0  0
    3.3970   24.6040  -36.9680 O   0  0  0  0  0  0  0  0  0  0  0  0
    0.7850   24.8770  -37.3070 N   0  0  0  0  0  0  0  0  0  0  0  0
    1.2820   25.9290  -38.2210 C   0  0  0  0  0  0  0  0  0  0  0  0
    0.1330   26.7600  -38.8020 C   0  0  0  0  0  0  0  0  0  0  0  0
   -0.6580   27.4790  -37.6930 C   0  0  0  0  0  0  0  0  0  0  0  0
   -0.5260   26.7880  -36.3230 C   0  0  0  0  0  0  0  0  0  0  0  0
   -0.3900   25.2670  -36.4860 C   0  0  0  0  0  0  0  0  0  0  0  0
    0.9700   21.9790  -35.2650 C   0  0  0  0  0  0  0  0  0  0  0  0
   -1.8460   21.0800  -35.2320 H   0  0  0  0  0  0  0  0  0  0  0  0
   -3.1212   18.2334  -35.4206 H   0  0  0  0  0  0  0  0  0  0  0  0
   -5.1031   17.2457  -34.2802 H   0  0  0  0  0  0  0  0  0  0  0  0
   -6.1316   20.8756  -31.3436 H   0  0  0  0  0  0  0  0  0  0  0  0
   -6.9211   20.4494  -32.9131 H   0  0  0  0  0  0  0  0  0  0  0  0
   -8.3276   21.7382  -30.5239 H   0  0  0  0  0  0  0  0  0  0  0  0
   -7.7425   22.6057  -31.9984 H   0  0  0  0  0  0  0  0  0  0  0  0
  -10.2822   21.6734  -31.7304 H   0  0  0  0  0  0  0  0  0  0  0  0
   -9.4036   21.7968  -33.3204 H   0  0  0  0  0  0  0  0  0  0  0  0
  -10.6840   19.5634  -32.5972 H   0  0  0  0  0  0  0  0  0  0  0  0
   -9.1226   19.5393  -33.5173 H   0  0  0  0  0  0  0  0  0  0  0  0
   -9.4732   19.1878  -30.5035 H   0  0  0  0  0  0  0  0  0  0  0  0
   -9.0283   17.9160  -31.7355 H   0  0  0  0  0  0  0  0  0  0  0  0
   -4.6273   20.0466  -31.0174 H   0  0  0  0  0  0  0  0  0  0  0  0
   -2.6032   20.9937  -32.1207 H   0  0  0  0  0  0  0  0  0  0  0  0
    1.6887   18.6431  -35.5148 H   0  0  0  0  0  0  0  0  0  0  0  0
    3.4789   19.5522  -36.9837 H   0  0  0  0  0  0  0  0  0  0  0  0
    1.9584   26.5947  -37.6649 H   0  0  0  0  0  0  0  0  0  0  0  0
    1.8089   25.4405  -39.0539 H   0  0  0  0  0  0  0  0  0  0  0  0
    0.5473   27.5112  -39.4905 H   0  0  0  0  0  0  0  0  0  0  0  0
   -0.5520   26.0810  -39.3309 H   0  0  0  0  0  0  0  0  0  0  0  0
   -0.2826   28.5092  -37.6048 H   0  0  0  0  0  0  0  0  0  0  0  0
   -1.7209   27.4552  -37.9753 H   0  0  0  0  0  0  0  0  0  0  0  0
    0.3655   27.1760  -35.8086 H   0  0  0  0  0  0  0  0  0  0  0  0
   -1.4316   26.9984  -35.7351 H   0  0  0  0  0  0  0  0  0  0  0  0
   -0.2870   24.8148  -35.4885 H   0  0  0  0  0  0  0  0  0  0  0  0
   -1.2903   24.9087  -37.0066 H   0  0  0  0  0  0  0  0  0  0  0  0
    0.2755   22.6665  -34.7600 H   0  0  0  0  0  0  0  0  0  0  0  0
  1  2  2  0
  2  3  1  0
  3  4  1  0
  4  5  2  0
  5  6  1  0
  6  7  2  0
  7  8  1  0
  8  9  2  0
  8 10  2  0
  8 11  1  0
 11 12  1  0
 12 13  1  0
 13 14  1  0
 14 15  1  0
 15 16  1  0
  7 17  1  0
 17 18  2  0
  2 19  1  0
 19 20  2  0
 20 21  1  0
 21 22  2  0
 22 23  1  0
 22 24  1  0
 24 25  1  0
 25 26  2  0
 25 27  2  0
 25 28  1  0
 28 29  1  0
 29 30  1  0
 30 31  1  0
 31 32  1  0
 32 33  1  0
 24 34  2  0
 18  4  1  0
 34 19  1  0
 16 11  1  0
 33 28  1  0
  3 35  1  0
  5 36  1  0
  6 37  1  0
 12 38  1  0
 12 39  1  0
 13 40  1  0
 13 41  1  0
 14 42  1  0
 14 43  1  0
 15 44  1  0
 15 45  1  0
 16 46  1  0
 16 47  1  0
 17 48  1  0
 18 49  1  0
 20 50  1  0
 21 51  1  0
 29 52  1  0
 29 53  1  0
 30 54  1  0
 30 55  1  0
 31 56  1  0
 31 57  1  0
 32 58  1  0
 32 59  1  0
 33 60  1  0
 33 61  1  0
 34 62  1  0
M  CHG  1  23  -1
M  END
>  <UniqueID>  (48) 
47

>  <SMILES>  (48) 
O=C(Nc1ccc(S(=O)(=O)N2CCCCC2)cc1)c1ccc([O-])c(S(=O)(=O)N2CCCCC2)c1

>  <Energy>  (48) 
81.86820008827033

>  <Genealogy>  (48) 
O=C(Nc1ccc(S(=O)(=O)N2CCCCC2)cc1)c1ccc([O-])c(S(=O)(=O)N2CCCCC2)c1 (protonated)
O=C(Nc1ccc(S(=O)(=O)N2CCCCC2)cc1)c1ccc([O-])c(S(=O)(=O)N2CCCCC2)c1 (3D coordinates assigned)
O=C(Nc1ccc(S(=O)(=O)N2CCCCC2)cc1)c1ccc([O-])c(S(=O)(=O)N2CCCCC2)c1 (nonaromatic ring conformer: 81.86820008827033 kcal/mol)

>  <smiles>  (48) 
O=C(Nc1ccc(S(=O)(=O)N2CCCCC2)cc1)c1ccc(O)c(S(=O)(=O)N2CCCCC2)c1

>  <score_type>  (48) 
oracle

>  <origin>  (48) 
adgpu

>  <m_score__min__energy>  (48) 
-12.02

>  <m_primary>  (48) 
energy

$$$$
48:0
     RDKit          3D

 47 50  0  0  0  0  0  0  0  0999 V2000
   -4.6050   25.5330  -30.1660 O   0  0  0  0  0  0  0  0  0  0  0  0
   -3.9900   24.4440  -30.3240 C   0  0  0  0  0  0  0  0  0  0  0  0
   -4.1160   23.7570  -31.5780 N   0  0  0  0  0  0  0  0  0  0  0  0
   -4.7570   22.4860  -31.7490 C   0  0  0  0  0  0  0  0  0  0  0  0
   -6.1380   22.4420  -31.9690 C   0  0  0  0  0  0  0  0  0  0  0  0
   -6.8010   21.2130  -32.0300 C   0  0  0  0  0  0  0  0  0  0  0  0
   -6.0830   20.0160  -31.8910 C   0  0  0  0  0  0  0  0  0  0  0  0
   -6.9330   18.4700  -31.8160 S   0  0  0  0  0  0  0  0  0  0  0  0
   -6.4800   17.7130  -30.5980 O   0  0  0  0  0  0  0  0  0  0  0  0
   -8.4110   18.7210  -31.6880 O   0  0  0  0  0  0  0  0  0  0  0  0
   -6.6200   17.5060  -33.2420 N   0  0  0  0  0  0  0  0  0  0  0  0
   -5.7500   16.3490  -32.9370 C   0  0  0  0  0  0  0  0  0  0  0  0
   -4.3000   16.5760  -33.4090 C   0  0  0  0  0  0  0  0  0  0  0  0
   -4.1930   16.8270  -34.8050 O   0  0  0  0  0  0  0  0  0  0  0  0
   -5.3190   17.5010  -35.3550 C   0  0  0  0  0  0  0  0  0  0  0  0
   -6.0960   18.3490  -34.3350 C   0  0  0  0  0  0  0  0  0  0  0  0
   -4.6900   20.0600  -31.7510 C   0  0  0  0  0  0  0  0  0  0  0  0
   -4.0290   21.2870  -31.6790 C   0  0  0  0  0  0  0  0  0  0  0  0
   -3.2020   23.8770  -29.2020 C   0  0  0  0  0  0  0  0  0  0  0  0
   -3.6190   22.6810  -28.5930 C   0  0  0  0  0  0  0  0  0  0  0  0
   -2.8760   22.1070  -27.5630 C   0  0  0  0  0  0  0  0  0  0  0  0
   -1.7040   22.7250  -27.1090 C   0  0  0  0  0  0  0  0  0  0  0  0
   -0.9530   22.1460  -26.0740 C   0  0  0  0  0  0  0  0  0  0  0  0
    0.2140   22.7680  -25.6230 C   0  0  0  0  0  0  0  0  0  0  0  0
    0.6380   23.9680  -26.1960 C   0  0  0  0  0  0  0  0  0  0  0  0
   -0.1010   24.5540  -27.2280 C   0  0  0  0  0  0  0  0  0  0  0  0
   -1.2770   23.9430  -27.6970 C   0  0  0  0  0  0  0  0  0  0  0  0
   -2.0310   24.5140  -28.7420 C   0  0  0  0  0  0  0  0  0  0  0  0
   -1.6070   25.6990  -29.3400 O   0  0  0  0  0  0  0  0  0  0  0  0
   -6.7035   23.3771  -32.0943 H   0  0  0  0  0  0  0  0  0  0  0  0
   -7.8893   21.1844  -32.1875 H   0  0  0  0  0  0  0  0  0  0  0  0
   -5.7476   16.1835  -31.8495 H   0  0  0  0  0  0  0  0  0  0  0  0
   -6.1483   15.4742  -33.4719 H   0  0  0  0  0  0  0  0  0  0  0  0
   -3.8881   17.4399  -32.8668 H   0  0  0  0  0  0  0  0  0  0  0  0
   -3.7425   15.6507  -33.2018 H   0  0  0  0  0  0  0  0  0  0  0  0
   -4.9673   18.1632  -36.1598 H   0  0  0  0  0  0  0  0  0  0  0  0
   -6.0096   16.7256  -35.7181 H   0  0  0  0  0  0  0  0  0  0  0  0
   -5.4237   19.1103  -33.9125 H   0  0  0  0  0  0  0  0  0  0  0  0
   -6.9433   18.8279  -34.8477 H   0  0  0  0  0  0  0  0  0  0  0  0
   -4.1149   19.1239  -31.6976 H   0  0  0  0  0  0  0  0  0  0  0  0
   -2.9351   21.3151  -31.5671 H   0  0  0  0  0  0  0  0  0  0  0  0
   -4.5435   22.1918  -28.9336 H   0  0  0  0  0  0  0  0  0  0  0  0
   -3.2114   21.1649  -27.1048 H   0  0  0  0  0  0  0  0  0  0  0  0
   -1.2837   21.2014  -25.6175 H   0  0  0  0  0  0  0  0  0  0  0  0
    0.8009   22.3101  -24.8131 H   0  0  0  0  0  0  0  0  0  0  0  0
    1.5562   24.4540  -25.8346 H   0  0  0  0  0  0  0  0  0  0  0  0
    0.2399   25.4991  -27.6758 H   0  0  0  0  0  0  0  0  0  0  0  0
  1  2  2  0
  2  3  1  0
  3  4  1  0
  4  5  2  0
  5  6  1  0
  6  7  2  0
  7  8  1  0
  8  9  2  0
  8 10  2  0
  8 11  1  0
 11 12  1  0
 12 13  1  0
 13 14  1  0
 14 15  1  0
 15 16  1  0
  7 17  1  0
 17 18  2  0
  2 19  1  0
 19 20  2  0
 20 21  1  0
 21 22  2  0
 22 23  1  0
 23 24  2  0
 24 25  1  0
 25 26  2  0
 26 27  1  0
 27 28  2  0
 28 29  1  0
 18  4  1  0
 28 19  1  0
 16 11  1  0
 27 22  1  0
  5 30  1  0
  6 31  1  0
 12 32  1  0
 12 33  1  0
 13 34  1  0
 13 35  1  0
 15 36  1  0
 15 37  1  0
 16 38  1  0
 16 39  1  0
 17 40  1  0
 18 41  1  0
 20 42  1  0
 21 43  1  0
 23 44  1  0
 24 45  1  0
 25 46  1  0
 26 47  1  0
M  CHG  2   3  -1  29  -1
M  END
>  <UniqueID>  (49) 
48

>  <SMILES>  (49) 
O=C([N-]c1ccc(S(=O)(=O)N2CCOCC2)cc1)c1ccc2ccccc2c1[O-]

>  <Energy>  (49) 
73.52712191966752

>  <Genealogy>  (49) 
O=C([N-]c1ccc(S(=O)(=O)N2CCOCC2)cc1)c1ccc2ccccc2c1[O-] (protonated)
O=C([N-]c1ccc(S(=O)(=O)N2CCOCC2)cc1)c1ccc2ccccc2c1[O-] (3D coordinates assigned)
O=C([N-]c1ccc(S(=O)(=O)N2CCOCC2)cc1)c1ccc2ccccc2c1[O-] (nonaromatic ring conformer: 73.52712191966752 kcal/mol)

>  <smiles>  (49) 
O=C(Nc1ccc(S(=O)(=O)N2CCOCC2)cc1)c1ccc2ccccc2c1O

>  <score_type>  (49) 
oracle

>  <origin>  (49) 
adgpu

>  <m_score__min__energy>  (49) 
-14.199999999999999

>  <m_primary>  (49) 
energy

$$$$
49:0
     RDKit          3D

 43 45  0  0  0  0  0  0  0  0999 V2000
   -1.1990   22.2210  -25.7920 H   0  0  0  0  0  0  0  0  0  0  0  0
   -0.7960   23.1800  -25.8920 N   0  0  0  0  0  0  0  0  0  0  0  0
   -1.1080   23.9690  -26.8710 C   0  0  0  0  0  0  0  0  0  0  0  0
   -0.5310   25.2400  -26.9470 C   0  0  0  0  0  0  0  0  0  0  0  0
    0.1746   25.5756  -26.1728 H   0  0  0  0  0  0  0  0  0  0  0  0
   -0.8570   26.0790  -28.0120 C   0  0  0  0  0  0  0  0  0  0  0  0
   -0.4007   27.0773  -28.0844 H   0  0  0  0  0  0  0  0  0  0  0  0
   -1.7380   25.6650  -28.9610 N   0  0  0  0  0  0  0  0  0  0  0  0
   -2.3370   24.4420  -28.9100 C   0  0  0  0  0  0  0  0  0  0  0  0
   -3.2480   24.0530  -29.9560 N   0  0  0  0  0  0  0  0  0  0  0  0
   -2.8660   22.9570  -30.8600 C   0  0  0  0  0  0  0  0  0  0  0  0
   -1.9351   23.2308  -31.3782 H   0  0  0  0  0  0  0  0  0  0  0  0
   -2.7294   22.0475  -30.2565 H   0  0  0  0  0  0  0  0  0  0  0  0
   -3.9530   22.6770  -31.9060 C   0  0  0  0  0  0  0  0  0  0  0  0
   -3.9111   23.4489  -32.6886 H   0  0  0  0  0  0  0  0  0  0  0  0
   -3.7787   21.6842  -32.3465 H   0  0  0  0  0  0  0  0  0  0  0  0
   -5.2810   22.6950  -31.2780 N   0  0  0  0  0  0  0  0  0  0  0  0
   -6.2020   21.6150  -31.4950 C   0  0  0  0  0  0  0  0  0  0  0  0
   -5.7350   20.3410  -31.4550 N   0  0  0  0  0  0  0  0  0  0  0  0
   -6.5430   19.2790  -31.6940 C   0  0  0  0  0  0  0  0  0  0  0  0
   -6.0030   17.8910  -31.6030 C   0  0  0  0  0  0  0  0  0  0  0  0
   -5.8932   17.6089  -30.5455 H   0  0  0  0  0  0  0  0  0  0  0  0
   -6.6959   17.1948  -32.0982 H   0  0  0  0  0  0  0  0  0  0  0  0
   -5.0218   17.8461  -32.0982 H   0  0  0  0  0  0  0  0  0  0  0  0
   -7.8560   19.4790  -31.9720 N   0  0  0  0  0  0  0  0  0  0  0  0
   -8.3900   20.7280  -32.0230 C   0  0  0  0  0  0  0  0  0  0  0  0
   -9.8500   20.8630  -32.3440 C   0  0  0  0  0  0  0  0  0  0  0  0
  -10.4275   20.9164  -31.4093 H   0  0  0  0  0  0  0  0  0  0  0  0
  -10.0135   21.7801  -32.9290 H   0  0  0  0  0  0  0  0  0  0  0  0
  -10.1789   19.9914  -32.9290 H   0  0  0  0  0  0  0  0  0  0  0  0
   -7.5730   21.8490  -31.7450 C   0  0  0  0  0  0  0  0  0  0  0  0
   -8.1360   23.2500  -31.7320 C   0  0  0  0  0  0  0  0  0  0  0  0
   -8.2694   23.5819  -30.6918 H   0  0  0  0  0  0  0  0  0  0  0  0
   -7.4410   23.9293  -32.2474 H   0  0  0  0  0  0  0  0  0  0  0  0
   -9.1078   23.2595  -32.2474 H   0  0  0  0  0  0  0  0  0  0  0  0
   -5.6500   23.7660  -30.3410 C   0  0  0  0  0  0  0  0  0  0  0  0
   -6.5385   24.2885  -30.7250 H   0  0  0  0  0  0  0  0  0  0  0  0
   -5.8598   23.3142  -29.3603 H   0  0  0  0  0  0  0  0  0  0  0  0
   -4.5110   24.7730  -30.1770 C   0  0  0  0  0  0  0  0  0  0  0  0
   -4.4294   25.3856  -31.0869 H   0  0  0  0  0  0  0  0  0  0  0  0
   -4.7180   25.4234  -29.3144 H   0  0  0  0  0  0  0  0  0  0  0  0
   -2.0150   23.5630  -27.8610 C   0  0  0  0  0  0  0  0  0  0  0  0
   -2.4715   22.5632  -27.8169 H   0  0  0  0  0  0  0  0  0  0  0  0
  1  2  1  0
  2  3  2  0
  3  4  1  0
  4  5  1  0
  4  6  2  0
  6  7  1  0
  6  8  1  0
  8  9  1  0
  9 10  1  0
 10 11  1  0
 11 12  1  0
 11 13  1  0
 11 14  1  0
 14 15  1  0
 14 16  1  0
 14 17  1  0
 17 18  1  0
 18 19  2  0
 19 20  1  0
 20 21  1  0
 21 22  1  0
 21 23  1  0
 21 24  1  0
 20 25  2  0
 25 26  1  0
 26 27  1  0
 27 28  1  0
 27 29  1  0
 27 30  1  0
 26 31  2  0
 31 32  1  0
 32 33  1  0
 32 34  1  0
 32 35  1  0
 17 36  1  0
 36 37  1  0
 36 38  1  0
 36 39  1  0
 39 40  1  0
 39 41  1  0
  9 42  2  0
 42 43  1  0
 42  3  1  0
 39 10  1  0
 31 18  1  0
M  CHG  1   8  -1
M  END
>  <UniqueID>  (50) 
49

>  <SMILES>  (50) 
[H]/N=c1/cc[n-]c(N2CCN(c3nc(C)nc(C)c3C)CC2)c1

>  <Energy>  (50) 
53.56524101274913

>  <Genealogy>  (50) 
Cc1nc(C)c(C)c(N2CCN(c3cc(=N)cc[n-]3)CC2)n1 (protonated)
[H]/N=c1/cc[n-]c(N2CCN(c3nc(C)nc(C)c3C)CC2)c1 (cis-trans isomerization)
[H]/N=c1/cc[n-]c(N2CCN(c3nc(C)nc(C)c3C)CC2)c1 (3D coordinates assigned)
[H]/N=c1/cc[n-]c(N2CCN(c3nc(C)nc(C)c3C)CC2)c1 (nonaromatic ring conformer: 53.56524101274913 kcal/mol)

>  <smiles>  (50) 
Cc1nc(C)c(C)c(N2CCN(c3cc(=N)cc[nH]3)CC2)n1

>  <score_type>  (50) 
oracle

>  <origin>  (50) 
adgpu

>  <m_score__min__energy>  (50) 
-8.7400000000000002

>  <m_primary>  (50) 
energy

$$$$
