0:0
     RDKit          3D

 48 50  0  0  0  0  0  0  0  0999 V2000
   -6.4660   25.5170  -29.5040 O   0  0  0  0  0  0  0  0  0  0  0  0
   -5.2780   24.6560  -29.8480 S   0  0  0  0  0  0  0  0  0  0  0  0
   -4.2940   25.4990  -30.6190 O   0  0  0  0  0  0  0  0  0  0  0  0
   -4.5240   24.0970  -28.3870 N   0  0  0  0  0  0  0  0  0  0  0  0
   -3.2790   23.3780  -28.3140 C   0  0  0  0  0  0  0  0  0  0  0  0
   -3.2110   22.0850  -27.7640 C   0  0  0  0  0  0  0  0  0  0  0  0
   -1.9910   21.4060  -27.6990 C   0  0  0  0  0  0  0  0  0  0  0  0
   -0.8270   22.0080  -28.1780 C   0  0  0  0  0  0  0  0  0  0  0  0
   -0.8850   23.2920  -28.7170 C   0  0  0  0  0  0  0  0  0  0  0  0
   -2.1020   23.9770  -28.7940 C   0  0  0  0  0  0  0  0  0  0  0  0
   -2.1170   25.2540  -29.3470 O   0  0  0  0  0  0  0  0  0  0  0  0
   -5.7650   23.2900  -30.8460 C   0  0  0  0  0  0  0  0  0  0  0  0
   -7.0750   22.8000  -30.7620 C   0  0  0  0  0  0  0  0  0  0  0  0
   -7.4610   21.6870  -31.5170 C   0  0  0  0  0  0  0  0  0  0  0  0
   -6.5400   21.0590  -32.3670 C   0  0  0  0  0  0  0  0  0  0  0  0
   -6.9940   19.6030  -33.2520 S   0  0  0  0  0  0  0  0  0  0  0  0
   -6.7930   19.8360  -34.7240 O   0  0  0  0  0  0  0  0  0  0  0  0
   -8.4520   19.3170  -33.0240 O   0  0  0  0  0  0  0  0  0  0  0  0
   -6.0260   18.2330  -32.7470 N   0  0  0  0  0  0  0  0  0  0  0  0
   -6.8360   16.9880  -32.7420 C   0  0  0  0  0  0  0  0  0  0  0  0
   -6.4370   15.9300  -33.7960 C   0  0  0  0  0  0  0  0  0  0  0  0
   -5.2030   15.0630  -33.4520 C   0  0  0  0  0  0  0  0  0  0  0  0
   -3.8360   15.7520  -33.6030 C   0  0  0  0  0  0  0  0  0  0  0  0
   -3.7610   17.1650  -32.9910 C   0  0  0  0  0  0  0  0  0  0  0  0
   -4.7770   18.1870  -33.5350 C   0  0  0  0  0  0  0  0  0  0  0  0
   -5.2350   21.5640  -32.4680 C   0  0  0  0  0  0  0  0  0  0  0  0
   -4.8480   22.6690  -31.7060 C   0  0  0  0  0  0  0  0  0  0  0  0
   -4.1243   21.6050  -27.3825 H   0  0  0  0  0  0  0  0  0  0  0  0
   -1.9484   20.3944  -27.2691 H   0  0  0  0  0  0  0  0  0  0  0  0
    0.1322   21.4716  -28.1304 H   0  0  0  0  0  0  0  0  0  0  0  0
    0.0344   23.7708  -29.0851 H   0  0  0  0  0  0  0  0  0  0  0  0
   -2.9690   25.6810  -29.7010 H   0  0  0  0  0  0  0  0  0  0  0  0
   -7.8027   23.2922  -30.1000 H   0  0  0  0  0  0  0  0  0  0  0  0
   -8.4895   21.3039  -31.4434 H   0  0  0  0  0  0  0  0  0  0  0  0
   -6.7431   16.5273  -31.7474 H   0  0  0  0  0  0  0  0  0  0  0  0
   -7.8618   17.2942  -32.9949 H   0  0  0  0  0  0  0  0  0  0  0  0
   -7.2941   15.2550  -33.9367 H   0  0  0  0  0  0  0  0  0  0  0  0
   -6.1592   16.4978  -34.6962 H   0  0  0  0  0  0  0  0  0  0  0  0
   -5.3019   14.7354  -32.4066 H   0  0  0  0  0  0  0  0  0  0  0  0
   -5.2042   14.2398  -34.1816 H   0  0  0  0  0  0  0  0  0  0  0  0
   -3.0786   15.1240  -33.1112 H   0  0  0  0  0  0  0  0  0  0  0  0
   -3.6624   15.8693  -34.6829 H   0  0  0  0  0  0  0  0  0  0  0  0
   -3.9234   17.0722  -31.9070 H   0  0  0  0  0  0  0  0  0  0  0  0
   -2.7696   17.5559  -33.2636 H   0  0  0  0  0  0  0  0  0  0  0  0
   -4.3144   19.1848  -33.5177 H   0  0  0  0  0  0  0  0  0  0  0  0
   -5.0428   17.8760  -34.5561 H   0  0  0  0  0  0  0  0  0  0  0  0
   -4.5143   21.0883  -33.1494 H   0  0  0  0  0  0  0  0  0  0  0  0
   -3.8201   23.0534  -31.7809 H   0  0  0  0  0  0  0  0  0  0  0  0
  1  2  2  0
  2  3  2  0
  2  4  1  0
  4  5  1  0
  5  6  2  0
  6  7  1  0
  7  8  2  0
  8  9  1  0
  9 10  2  0
 10 11  1  0
  2 12  1  0
 12 13  2  0
 13 14  1  0
 14 15  2  0
 15 16  1  0
 16 17  2  0
 16 18  2  0
 16 19  1  0
 19 20  1  0
 20 21  1  0
 21 22  1  0
 22 23  1  0
 23 24  1  0
 24 25  1  0
 15 26  1  0
 26 27  2  0
 10  5  1  0
 27 12  1  0
 25 19  1  0
  6 28  1  0
  7 29  1  0
  8 30  1  0
  9 31  1  0
 11 32  1  0
 13 33  1  0
 14 34  1  0
 20 35  1  0
 20 36  1  0
 21 37  1  0
 21 38  1  0
 22 39  1  0
 22 40  1  0
 23 41  1  0
 23 42  1  0
 24 43  1  0
 24 44  1  0
 25 45  1  0
 25 46  1  0
 26 47  1  0
 27 48  1  0
M  CHG  1   4  -1
M  END
>  <UniqueID>  (1) 
1

>  <SMILES>  (1) 
O=S(=O)([N-]c1ccccc1O)c1ccc(S(=O)(=O)N2CCCCCC2)cc1

>  <Energy>  (1) 
65.10780542448634

>  <Genealogy>  (1) 
O=S(=O)([N-]c1ccccc1O)c1ccc(S(=O)(=O)N2CCCCCC2)cc1 (protonated)
O=S(=O)([N-]c1ccccc1O)c1ccc(S(=O)(=O)N2CCCCCC2)cc1 (3D coordinates assigned)
O=S(=O)([N-]c1ccccc1O)c1ccc(S(=O)(=O)N2CCCCCC2)cc1 (nonaromatic ring conformer: 65.10780542448634 kcal/mol)

>  <smiles>  (1) 
O=S(=O)(Nc1ccccc1O)c1ccc(S(=O)(=O)N2CCCCCC2)cc1

>  <score_type>  (1) 
oracle

>  <origin>  (1) 
adgpu

>  <m_score__min__energy>  (1) 
-8.8200000000000003

>  <m_primary>  (1) 
energy

$$$$
1:0
     RDKit          3D

 41 43  0  0  0  0  0  0  0  0999 V2000
   -3.2200   22.1610  -31.6520 O   0  0  0  0  0  0  0  0  0  0  0  0
   -4.0240   23.0530  -31.2660 C   0  0  0  0  0  0  0  0  0  0  0  0
   -3.5250   24.2780  -30.7090 N   0  0  0  0  0  0  0  0  0  0  0  0
   -3.1740   24.5140  -29.3380 C   0  0  0  0  0  0  0  0  0  0  0  0
   -1.8810   24.9260  -28.9600 C   0  0  0  0  0  0  0  0  0  0  0  0
   -1.5720   25.1230  -27.6100 C   0  0  0  0  0  0  0  0  0  0  0  0
   -2.5410   24.8990  -26.6290 C   0  0  0  0  0  0  0  0  0  0  0  0
   -2.2380   25.0880  -25.3210 F   0  0  0  0  0  0  0  0  0  0  0  0
   -3.8180   24.4670  -26.9940 C   0  0  0  0  0  0  0  0  0  0  0  0
   -4.1330   24.2670  -28.3440 C   0  0  0  0  0  0  0  0  0  0  0  0
   -5.3750   23.8430  -28.6850 F   0  0  0  0  0  0  0  0  0  0  0  0
   -5.4830   22.8580  -31.4400 C   0  0  0  0  0  0  0  0  0  0  0  0
   -6.3670   23.9480  -31.3520 C   0  0  0  0  0  0  0  0  0  0  0  0
   -7.7420   23.7590  -31.5060 C   0  0  0  0  0  0  0  0  0  0  0  0
   -8.2550   22.4850  -31.7550 C   0  0  0  0  0  0  0  0  0  0  0  0
   -9.5970   22.3290  -31.8830 F   0  0  0  0  0  0  0  0  0  0  0  0
   -7.3880   21.3850  -31.8560 C   0  0  0  0  0  0  0  0  0  0  0  0
   -8.0060   19.7560  -32.1450 S   0  0  0  0  0  0  0  0  0  0  0  0
   -9.1000   19.8300  -33.1740 O   0  0  0  0  0  0  0  0  0  0  0  0
   -8.5890   19.1900  -30.8790 O   0  0  0  0  0  0  0  0  0  0  0  0
   -6.7220   18.7320  -32.7340 N   0  0  0  0  0  0  0  0  0  0  0  0
   -7.2150   17.3550  -32.9170 C   0  0  0  0  0  0  0  0  0  0  0  0
   -6.1950   16.5040  -33.7000 C   0  0  0  0  0  0  0  0  0  0  0  0
   -4.9450   17.1580  -33.7810 O   0  0  0  0  0  0  0  0  0  0  0  0
   -5.0760   18.3490  -34.5370 C   0  0  0  0  0  0  0  0  0  0  0  0
   -6.2040   19.2600  -34.0050 C   0  0  0  0  0  0  0  0  0  0  0  0
   -6.0080   21.5760  -31.6890 C   0  0  0  0  0  0  0  0  0  0  0  0
   -1.1121   25.0933  -29.7287 H   0  0  0  0  0  0  0  0  0  0  0  0
   -0.5641   25.4549  -27.3203 H   0  0  0  0  0  0  0  0  0  0  0  0
   -4.5777   24.2835  -26.2199 H   0  0  0  0  0  0  0  0  0  0  0  0
   -5.9726   24.9568  -31.1605 H   0  0  0  0  0  0  0  0  0  0  0  0
   -8.4243   24.6185  -31.4307 H   0  0  0  0  0  0  0  0  0  0  0  0
   -7.3826   16.8985  -31.9303 H   0  0  0  0  0  0  0  0  0  0  0  0
   -8.1542   17.3914  -33.4885 H   0  0  0  0  0  0  0  0  0  0  0  0
   -6.0635   15.5392  -33.1883 H   0  0  0  0  0  0  0  0  0  0  0  0
   -6.5767   16.3507  -34.7202 H   0  0  0  0  0  0  0  0  0  0  0  0
   -4.1256   18.9013  -34.4945 H   0  0  0  0  0  0  0  0  0  0  0  0
   -5.3305   18.0661  -35.5691 H   0  0  0  0  0  0  0  0  0  0  0  0
   -5.8078   20.2734  -33.8436 H   0  0  0  0  0  0  0  0  0  0  0  0
   -7.0202   19.2906  -34.7418 H   0  0  0  0  0  0  0  0  0  0  0  0
   -5.3283   20.7135  -31.7534 H   0  0  0  0  0  0  0  0  0  0  0  0
  1  2  2  0
  2  3  1  0
  3  4  1  0
  4  5  2  0
  5  6  1  0
  6  7  2  0
  7  8  1  0
  7  9  1  0
  9 10  2  0
 10 11  1  0
  2 12  1  0
 12 13  2  0
 13 14  1  0
 14 15  2  0
 15 16  1  0
 15 17  1  0
 17 18  1  0
 18 19  2  0
 18 20  2  0
 18 21  1  0
 21 22  1  0
 22 23  1  0
 23 24  1  0
 24 25  1  0
 25 26  1  0
 17 27  2  0
 10  4  1  0
 27 12  1  0
 26 21  1  0
  5 28  1  0
  6 29  1  0
  9 30  1  0
 13 31  1  0
 14 32  1  0
 22 33  1  0
 22 34  1  0
 23 35  1  0
 23 36  1  0
 25 37  1  0
 25 38  1  0
 26 39  1  0
 26 40  1  0
 27 41  1  0
M  CHG  1   3  -1
M  END
>  <UniqueID>  (2) 
2

>  <SMILES>  (2) 
O=C([N-]c1ccc(F)cc1F)c1ccc(F)c(S(=O)(=O)N2CCOCC2)c1

>  <Energy>  (2) 
55.23986731115731

>  <Genealogy>  (2) 
O=C([N-]c1ccc(F)cc1F)c1ccc(F)c(S(=O)(=O)N2CCOCC2)c1 (protonated)
O=C([N-]c1ccc(F)cc1F)c1ccc(F)c(S(=O)(=O)N2CCOCC2)c1 (3D coordinates assigned)
O=C([N-]c1ccc(F)cc1F)c1ccc(F)c(S(=O)(=O)N2CCOCC2)c1 (nonaromatic ring conformer: 55.23986731115731 kcal/mol)

>  <smiles>  (2) 
O=C(Nc1ccc(F)cc1F)c1ccc(F)c(S(=O)(=O)N2CCOCC2)c1

>  <score_type>  (2) 
oracle

>  <origin>  (2) 
adgpu

>  <m_score__min__energy>  (2) 
-10.43

>  <m_primary>  (2) 
energy

$$$$
2:0
     RDKit          3D

 50 52  0  0  0  0  0  0  0  0999 V2000
    1.3040   15.8100  -27.7010 C   0  0  0  0  0  0  0  0  0  0  0  0
    0.5190   16.8700  -27.1710 O   0  0  0  0  0  0  0  0  0  0  0  0
    0.2370   18.0630  -27.8510 C   0  0  0  0  0  0  0  0  0  0  0  0
    1.0250   18.5290  -28.9200 C   0  0  0  0  0  0  0  0  0  0  0  0
    0.7000   19.7240  -29.5670 C   0  0  0  0  0  0  0  0  0  0  0  0
   -0.4080   20.4740  -29.1520 C   0  0  0  0  0  0  0  0  0  0  0  0
   -0.8090   21.9720  -29.9850 S   0  0  0  0  0  0  0  0  0  0  0  0
   -0.3020   21.8810  -31.3990 O   0  0  0  0  0  0  0  0  0  0  0  0
   -0.1510   23.1450  -29.3130 O   0  0  0  0  0  0  0  0  0  0  0  0
   -2.5340   22.1950  -29.9830 N   0  0  0  0  0  0  0  0  0  0  0  0
   -3.1340   23.1280  -29.0270 C   0  0  0  0  0  0  0  0  0  0  0  0
   -3.1050   24.5140  -29.5870 C   0  0  0  0  0  0  0  0  0  0  0  0
   -2.1310   25.2720  -29.3300 O   0  0  0  0  0  0  0  0  0  0  0  0
   -4.1410   24.9230  -30.4890 N   0  0  0  0  0  0  0  0  0  0  0  0
   -5.3860   24.2540  -30.7330 C   0  0  0  0  0  0  0  0  0  0  0  0
   -5.8150   24.1040  -32.0580 C   0  0  0  0  0  0  0  0  0  0  0  0
   -7.0150   23.4460  -32.3440 C   0  0  0  0  0  0  0  0  0  0  0  0
   -7.8040   22.9320  -31.3050 C   0  0  0  0  0  0  0  0  0  0  0  0
   -9.0630   22.1770  -31.6170 C   0  0  0  0  0  0  0  0  0  0  0  0
   -7.3570   23.0450  -29.9790 C   0  0  0  0  0  0  0  0  0  0  0  0
   -6.1540   23.6990  -29.6940 C   0  0  0  0  0  0  0  0  0  0  0  0
   -3.3270   21.6590  -31.0550 C   0  0  0  0  0  0  0  0  0  0  0  0
   -4.4400   20.8530  -30.7790 C   0  0  0  0  0  0  0  0  0  0  0  0
   -5.2140   20.3360  -31.8220 C   0  0  0  0  0  0  0  0  0  0  0  0
   -4.8810   20.6230  -33.1480 C   0  0  0  0  0  0  0  0  0  0  0  0
   -3.7740   21.4280  -33.4330 C   0  0  0  0  0  0  0  0  0  0  0  0
   -3.0000   21.9460  -32.3910 C   0  0  0  0  0  0  0  0  0  0  0  0
   -1.1980   20.0100  -28.0920 C   0  0  0  0  0  0  0  0  0  0  0  0
   -0.8760   18.8130  -27.4470 C   0  0  0  0  0  0  0  0  0  0  0  0
    1.7366   15.2259  -26.8754 H   0  0  0  0  0  0  0  0  0  0  0  0
    0.6697   15.1574  -28.3189 H   0  0  0  0  0  0  0  0  0  0  0  0
    2.1132   16.2265  -28.3189 H   0  0  0  0  0  0  0  0  0  0  0  0
    1.9008   17.9497  -29.2477 H   0  0  0  0  0  0  0  0  0  0  0  0
    1.3171   20.0775  -30.4062 H   0  0  0  0  0  0  0  0  0  0  0  0
   -4.1762   22.8336  -28.8342 H   0  0  0  0  0  0  0  0  0  0  0  0
   -2.5625   23.1035  -28.0875 H   0  0  0  0  0  0  0  0  0  0  0  0
   -5.2036   24.5066  -32.8790 H   0  0  0  0  0  0  0  0  0  0  0  0
   -7.3414   23.3311  -33.3881 H   0  0  0  0  0  0  0  0  0  0  0  0
   -9.5555   21.8817  -30.6788 H   0  0  0  0  0  0  0  0  0  0  0  0
   -9.7401   22.8182  -32.2004 H   0  0  0  0  0  0  0  0  0  0  0  0
   -8.8162   21.2777  -32.2004 H   0  0  0  0  0  0  0  0  0  0  0  0
   -7.9553   22.6175  -29.1609 H   0  0  0  0  0  0  0  0  0  0  0  0
   -5.8073   23.7795  -28.6532 H   0  0  0  0  0  0  0  0  0  0  0  0
   -4.7059   20.6260  -29.7360 H   0  0  0  0  0  0  0  0  0  0  0  0
   -6.0855   19.7030  -31.5985 H   0  0  0  0  0  0  0  0  0  0  0  0
   -5.4901   20.2154  -33.9683 H   0  0  0  0  0  0  0  0  0  0  0  0
   -3.5123   21.6536  -34.4773 H   0  0  0  0  0  0  0  0  0  0  0  0
   -2.1310   22.5812  -32.6178 H   0  0  0  0  0  0  0  0  0  0  0  0
   -2.0743   20.5897  -27.7666 H   0  0  0  0  0  0  0  0  0  0  0  0
   -1.5012   18.4563  -26.6152 H   0  0  0  0  0  0  0  0  0  0  0  0
  1  2  1  0
  2  3  1  0
  3  4  2  0
  4  5  1  0
  5  6  2  0
  6  7  1  0
  7  8  2  0
  7  9  2  0
  7 10  1  0
 10 11  1  0
 11 12  1  0
 12 13  2  0
 12 14  1  0
 14 15  1  0
 15 16  2  0
 16 17  1  0
 17 18  2  0
 18 19  1  0
 18 20  1  0
 20 21  2  0
 10 22  1  0
 22 23  2  0
 23 24  1  0
 24 25  2  0
 25 26  1  0
 26 27  2  0
  6 28  1  0
 28 29  2  0
 29  3  1  0
 21 15  1  0
 27 22  1  0
  1 30  1  0
  1 31  1  0
  1 32  1  0
  4 33  1  0
  5 34  1  0
 11 35  1  0
 11 36  1  0
 16 37  1  0
 17 38  1  0
 19 39  1  0
 19 40  1  0
 19 41  1  0
 20 42  1  0
 21 43  1  0
 23 44  1  0
 24 45  1  0
 25 46  1  0
 26 47  1  0
 27 48  1  0
 28 49  1  0
 29 50  1  0
M  CHG  1  14  -1
M  END
>  <UniqueID>  (3) 
3

>  <SMILES>  (3) 
COc1ccc(S(=O)(=O)N(CC(=O)[N-]c2ccc(C)cc2)c2ccccc2)cc1

>  <Energy>  (3) 
57.947317254850496

>  <Genealogy>  (3) 
COc1ccc(S(=O)(=O)N(CC(=O)[N-]c2ccc(C)cc2)c2ccccc2)cc1 (protonated)
COc1ccc(S(=O)(=O)N(CC(=O)[N-]c2ccc(C)cc2)c2ccccc2)cc1 (3D coordinates assigned)
COc1ccc(S(=O)(=O)N(CC(=O)[N-]c2ccc(C)cc2)c2ccccc2)cc1 (optimized conformer: 57.947317254850496 kcal/mol)

>  <smiles>  (3) 
COc1ccc(S(=O)(=O)N(CC(=O)Nc2ccc(C)cc2)c2ccccc2)cc1

>  <score_type>  (3) 
oracle

>  <origin>  (3) 
adgpu

>  <m_score__min__energy>  (3) 
-10.529999999999999

>  <m_primary>  (3) 
energy

$$$$
3:0
     RDKit          3D

 55 58  0  0  0  0  0  0  0  0999 V2000
   -0.3350   21.5750  -28.9630 C   0  0  0  0  0  0  0  0  0  0  0  0
   -1.5100   22.1570  -29.7050 C   0  0  0  0  0  0  0  0  0  0  0  0
   -2.1850   21.3360  -30.6200 C   0  0  0  0  0  0  0  0  0  0  0  0
   -3.3040   21.7990  -31.3010 C   0  0  0  0  0  0  0  0  0  0  0  0
   -3.7840   23.0880  -31.0780 C   0  0  0  0  0  0  0  0  0  0  0  0
   -4.9810   23.4900  -31.7550 N   0  0  0  0  0  0  0  0  0  0  0  0
   -5.9980   24.3200  -31.1820 C   0  0  0  0  0  0  0  0  0  0  0  0
   -5.7920   25.5510  -31.0070 O   0  0  0  0  0  0  0  0  0  0  0  0
   -7.2680   23.7680  -30.8230 N   0  0  0  0  0  0  0  0  0  0  0  0
   -7.7870   22.5130  -31.2850 C   0  0  0  0  0  0  0  0  0  0  0  0
   -9.1490   22.4100  -31.5910 C   0  0  0  0  0  0  0  0  0  0  0  0
   -9.6820   21.1990  -32.0440 C   0  0  0  0  0  0  0  0  0  0  0  0
   -8.8570   20.0790  -32.1870 C   0  0  0  0  0  0  0  0  0  0  0  0
   -7.4970   20.1650  -31.8620 C   0  0  0  0  0  0  0  0  0  0  0  0
   -6.4440   18.7630  -32.0330 S   0  0  0  0  0  0  0  0  0  0  0  0
   -6.7470   17.7620  -30.9510 O   0  0  0  0  0  0  0  0  0  0  0  0
   -5.0180   19.2200  -31.9020 O   0  0  0  0  0  0  0  0  0  0  0  0
   -6.6900   18.0320  -33.6070 N   0  0  0  0  0  0  0  0  0  0  0  0
   -6.4190   16.5910  -33.5550 C   0  0  0  0  0  0  0  0  0  0  0  0
   -4.9750   16.3610  -33.9800 C   0  0  0  0  0  0  0  0  0  0  0  0
   -4.5250   17.6620  -34.6190 C   0  0  0  0  0  0  0  0  0  0  0  0
   -5.7400   18.5760  -34.5820 C   0  0  0  0  0  0  0  0  0  0  0  0
   -6.9700   21.3730  -31.3910 C   0  0  0  0  0  0  0  0  0  0  0  0
   -3.0790   23.9610  -30.2200 C   0  0  0  0  0  0  0  0  0  0  0  0
   -3.4910   25.2870  -30.0610 O   0  0  0  0  0  0  0  0  0  0  0  0
   -1.9310   23.5030  -29.5310 C   0  0  0  0  0  0  0  0  0  0  0  0
   -1.0770   24.6200  -28.4350 S   0  0  0  0  0  0  0  0  0  0  0  0
    0.4040   24.3600  -28.4440 O   0  0  0  0  0  0  0  0  0  0  0  0
   -1.2850   26.0390  -28.8850 O   0  0  0  0  0  0  0  0  0  0  0  0
   -1.7640   24.4350  -26.7900 C   0  0  0  0  0  0  0  0  0  0  0  0
   -3.2640   24.6670  -26.7200 C   0  0  0  0  0  0  0  0  0  0  0  0
   -2.3090   25.7000  -26.1450 C   0  0  0  0  0  0  0  0  0  0  0  0
   -0.5067   21.6601  -27.8798 H   0  0  0  0  0  0  0  0  0  0  0  0
   -0.2188   20.5152  -29.2337 H   0  0  0  0  0  0  0  0  0  0  0  0
    0.5785   22.1248  -29.2337 H   0  0  0  0  0  0  0  0  0  0  0  0
   -1.8240   20.3128  -30.8007 H   0  0  0  0  0  0  0  0  0  0  0  0
   -3.8148   21.1432  -32.0215 H   0  0  0  0  0  0  0  0  0  0  0  0
   -9.8036   23.2863  -31.4745 H   0  0  0  0  0  0  0  0  0  0  0  0
  -10.7521   21.1274  -32.2883 H   0  0  0  0  0  0  0  0  0  0  0  0
   -9.2758   19.1306  -32.5546 H   0  0  0  0  0  0  0  0  0  0  0  0
   -6.5686   16.2211  -32.5299 H   0  0  0  0  0  0  0  0  0  0  0  0
   -7.1026   16.0521  -34.2274 H   0  0  0  0  0  0  0  0  0  0  0  0
   -4.3502   16.1265  -33.1056 H   0  0  0  0  0  0  0  0  0  0  0  0
   -4.8857   15.5137  -34.6758 H   0  0  0  0  0  0  0  0  0  0  0  0
   -3.6947   18.1034  -34.0482 H   0  0  0  0  0  0  0  0  0  0  0  0
   -4.1623   17.5076  -35.6459 H   0  0  0  0  0  0  0  0  0  0  0  0
   -5.4354   19.5891  -34.2805 H   0  0  0  0  0  0  0  0  0  0  0  0
   -6.2053   18.6316  -35.5772 H   0  0  0  0  0  0  0  0  0  0  0  0
   -5.9103   21.4312  -31.1019 H   0  0  0  0  0  0  0  0  0  0  0  0
   -4.3940   25.5440  -29.6840 H   0  0  0  0  0  0  0  0  0  0  0  0
   -1.0675   23.6477  -26.4659 H   0  0  0  0  0  0  0  0  0  0  0  0
   -3.8291   24.8908  -27.6368 H   0  0  0  0  0  0  0  0  0  0  0  0
   -4.1213   24.0986  -26.3301 H   0  0  0  0  0  0  0  0  0  0  0  0
   -2.1826   26.6712  -26.6458 H   0  0  0  0  0  0  0  0  0  0  0  0
   -2.1884   26.1888  -25.1670 H   0  0  0  0  0  0  0  0  0  0  0  0
  1  2  1  0
  2  3  2  0
  3  4  1  0
  4  5  2  0
  5  6  1  0
  6  7  1  0
  7  8  2  0
  7  9  1  0
  9 10  1  0
 10 11  2  0
 11 12  1  0
 12 13  2  0
 13 14  1  0
 14 15  1  0
 15 16  2  0
 15 17  2  0
 15 18  1  0
 18 19  1  0
 19 20  1  0
 20 21  1  0
 21 22  1  0
 14 23  2  0
  5 24  1  0
 24 25  1  0
 24 26  2  0
 26 27  1  0
 27 28  2  0
 27 29  2  0
 27 30  1  0
 30 31  1  0
 31 32  1  0
 26  2  1  0
 32 30  1  0
 23 10  1  0
 22 18  1  0
  1 33  1  0
  1 34  1  0
  1 35  1  0
  3 36  1  0
  4 37  1  0
 11 38  1  0
 12 39  1  0
 13 40  1  0
 19 41  1  0
 19 42  1  0
 20 43  1  0
 20 44  1  0
 21 45  1  0
 21 46  1  0
 22 47  1  0
 22 48  1  0
 23 49  1  0
 25 50  1  0
 30 51  1  0
 31 52  1  0
 31 53  1  0
 32 54  1  0
 32 55  1  0
M  CHG  2   6  -1   9  -1
M  END
>  <UniqueID>  (4) 
4

>  <SMILES>  (4) 
Cc1ccc([N-]C(=O)[N-]c2cccc(S(=O)(=O)N3CCCC3)c2)c(O)c1S(=O)(=O)C1CC1

>  <Energy>  (4) 
333.4820264761644

>  <Genealogy>  (4) 
Cc1ccc([N-]C(=O)[N-]c2cccc(S(=O)(=O)N3CCCC3)c2)c(O)c1S(=O)(=O)C1CC1 (protonated)
Cc1ccc([N-]C(=O)[N-]c2cccc(S(=O)(=O)N3CCCC3)c2)c(O)c1S(=O)(=O)C1CC1 (3D coordinates assigned)
Cc1ccc([N-]C(=O)[N-]c2cccc(S(=O)(=O)N3CCCC3)c2)c(O)c1S(=O)(=O)C1CC1 (nonaromatic ring conformer: 333.4820264761644 kcal/mol)

>  <smiles>  (4) 
Cc1ccc(NC(=O)Nc2cccc(S(=O)(=O)N3CCCC3)c2)c(O)c1S(=O)(=O)C1CC1

>  <score_type>  (4) 
oracle

>  <origin>  (4) 
adgpu

>  <m_score__min__energy>  (4) 
-13.869999999999999

>  <m_primary>  (4) 
energy

$$$$
4:0
     RDKit          3D

 56 59  0  0  0  0  0  0  0  0999 V2000
   -7.6410   23.8190  -31.1970 C   0  0  0  0  0  0  0  0  0  0  0  0
   -8.0980   22.4750  -31.6770 C   0  0  0  0  0  0  0  0  0  0  0  0
   -9.4700   22.1940  -31.7730 C   0  0  0  0  0  0  0  0  0  0  0  0
   -9.9000   20.9330  -32.1830 C   0  0  0  0  0  0  0  0  0  0  0  0
   -8.9690   19.9390  -32.4850 C   0  0  0  0  0  0  0  0  0  0  0  0
   -7.5870   20.1930  -32.3730 C   0  0  0  0  0  0  0  0  0  0  0  0
   -6.5930   19.1390  -32.6970 C   0  0  0  0  0  0  0  0  0  0  0  0
   -6.5520   18.0900  -31.9950 O   0  0  0  0  0  0  0  0  0  0  0  0
   -5.7030   19.2860  -33.8160 N   0  0  0  0  0  0  0  0  0  0  0  0
   -4.3880   18.7050  -33.8980 C   0  0  0  0  0  0  0  0  0  0  0  0
   -4.1740   17.6320  -34.7700 C   0  0  0  0  0  0  0  0  0  0  0  0
   -2.8980   17.0940  -34.9300 C   0  0  0  0  0  0  0  0  0  0  0  0
   -1.8070   17.6200  -34.2270 C   0  0  0  0  0  0  0  0  0  0  0  0
   -0.5040   17.0580  -34.4540 N   0  0  0  0  0  0  0  0  0  0  0  0
   -0.2460   15.6460  -34.1430 C   0  0  0  0  0  0  0  0  0  0  0  0
    0.2710   14.8920  -35.3930 C   0  0  0  0  0  0  0  0  0  0  0  0
    0.7600   15.7320  -36.4290 O   0  0  0  0  0  0  0  0  0  0  0  0
    1.4740   16.8320  -35.8940 C   0  0  0  0  0  0  0  0  0  0  0  0
    0.4800   17.8050  -35.2470 C   0  0  0  0  0  0  0  0  0  0  0  0
   -2.0070   18.6960  -33.3340 C   0  0  0  0  0  0  0  0  0  0  0  0
   -0.6660   19.4080  -32.4240 S   0  0  0  0  0  0  0  0  0  0  0  0
    0.3300   18.3470  -32.0490 O   0  0  0  0  0  0  0  0  0  0  0  0
    0.0320   20.4080  -33.3000 O   0  0  0  0  0  0  0  0  0  0  0  0
   -1.2840   20.1100  -30.9580 N   0  0  0  0  0  0  0  0  0  0  0  0
   -1.7840   21.4350  -30.7120 C   0  0  0  0  0  0  0  0  0  0  0  0
   -3.0440   21.8850  -31.1560 C   0  0  0  0  0  0  0  0  0  0  0  0
   -3.4880   23.1710  -30.8300 C   0  0  0  0  0  0  0  0  0  0  0  0
   -2.6780   24.0250  -30.0780 C   0  0  0  0  0  0  0  0  0  0  0  0
   -3.1320   25.2930  -29.7320 O   0  0  0  0  0  0  0  0  0  0  0  0
   -1.4110   23.6000  -29.6690 C   0  0  0  0  0  0  0  0  0  0  0  0
   -0.9670   22.3140  -29.9920 C   0  0  0  0  0  0  0  0  0  0  0  0
   -3.2960   19.2370  -33.1870 C   0  0  0  0  0  0  0  0  0  0  0  0
   -7.1630   21.4660  -31.9640 C   0  0  0  0  0  0  0  0  0  0  0  0
   -7.6361   23.8333  -30.0971 H   0  0  0  0  0  0  0  0  0  0  0  0
   -6.6254   24.0160  -31.5708 H   0  0  0  0  0  0  0  0  0  0  0  0
   -8.3260   24.5943  -31.5708 H   0  0  0  0  0  0  0  0  0  0  0  0
  -10.2078   22.9710  -31.5240 H   0  0  0  0  0  0  0  0  0  0  0  0
  -10.9760   20.7212  -32.2686 H   0  0  0  0  0  0  0  0  0  0  0  0
   -9.3164   18.9483  -32.8134 H   0  0  0  0  0  0  0  0  0  0  0  0
   -6.0440   19.8350  -34.6380 H   0  0  0  0  0  0  0  0  0  0  0  0
   -5.0190   17.2097  -35.3336 H   0  0  0  0  0  0  0  0  0  0  0  0
   -2.7465   16.2473  -35.6157 H   0  0  0  0  0  0  0  0  0  0  0  0
    0.5104   15.5847  -33.3467 H   0  0  0  0  0  0  0  0  0  0  0  0
   -1.1869   15.1801  -33.8149 H   0  0  0  0  0  0  0  0  0  0  0  0
    1.0868   14.2246  -35.0783 H   0  0  0  0  0  0  0  0  0  0  0  0
   -0.5913   14.3514  -35.8103 H   0  0  0  0  0  0  0  0  0  0  0  0
    2.1874   16.4754  -35.1364 H   0  0  0  0  0  0  0  0  0  0  0  0
    2.0257   17.3431  -36.6968 H   0  0  0  0  0  0  0  0  0  0  0  0
    1.0244   18.5009  -34.5917 H   0  0  0  0  0  0  0  0  0  0  0  0
   -0.0414   18.3683  -36.0350 H   0  0  0  0  0  0  0  0  0  0  0  0
   -3.6805   21.2225  -31.7610 H   0  0  0  0  0  0  0  0  0  0  0  0
   -4.4784   23.5108  -31.1671 H   0  0  0  0  0  0  0  0  0  0  0  0
   -0.7631   24.2771  -29.0930 H   0  0  0  0  0  0  0  0  0  0  0  0
    0.0357   21.9896  -29.6766 H   0  0  0  0  0  0  0  0  0  0  0  0
   -3.4534   20.0874  -32.5073 H   0  0  0  0  0  0  0  0  0  0  0  0
   -6.0877   21.6766  -31.8669 H   0  0  0  0  0  0  0  0  0  0  0  0
  1  2  1  0
  2  3  2  0
  3  4  1  0
  4  5  2  0
  5  6  1  0
  6  7  1  0
  7  8  2  0
  7  9  1  0
  9 10  1  0
 10 11  2  0
 11 12  1  0
 12 13  2  0
 13 14  1  0
 14 15  1  0
 15 16  1  0
 16 17  1  0
 17 18  1  0
 18 19  1  0
 13 20  1  0
 20 21  1  0
 21 22  2  0
 21 23  2  0
 21 24  1  0
 24 25  1  0
 25 26  2  0
 26 27  1  0
 27 28  2  0
 28 29  1  0
 28 30  1  0
 30 31  2  0
 20 32  2  0
  6 33  2  0
 33  2  1  0
 32 10  1  0
 19 14  1  0
 31 25  1  0
  1 34  1  0
  1 35  1  0
  1 36  1  0
  3 37  1  0
  4 38  1  0
  5 39  1  0
  9 40  1  0
 11 41  1  0
 12 42  1  0
 15 43  1  0
 15 44  1  0
 16 45  1  0
 16 46  1  0
 18 47  1  0
 18 48  1  0
 19 49  1  0
 19 50  1  0
 26 51  1  0
 27 52  1  0
 30 53  1  0
 31 54  1  0
 32 55  1  0
 33 56  1  0
M  CHG  2  24  -1  29  -1
M  END
>  <UniqueID>  (5) 
5

>  <SMILES>  (5) 
Cc1cccc(C(=O)Nc2ccc(N3CCOCC3)c(S(=O)(=O)[N-]c3ccc([O-])cc3)c2)c1

>  <Energy>  (5) 
84.71259437989859

>  <Genealogy>  (5) 
Cc1cccc(C(=O)Nc2ccc(N3CCOCC3)c(S(=O)(=O)[N-]c3ccc([O-])cc3)c2)c1 (protonated)
Cc1cccc(C(=O)Nc2ccc(N3CCOCC3)c(S(=O)(=O)[N-]c3ccc([O-])cc3)c2)c1 (3D coordinates assigned)
Cc1cccc(C(=O)Nc2ccc(N3CCOCC3)c(S(=O)(=O)[N-]c3ccc([O-])cc3)c2)c1 (nonaromatic ring conformer: 84.71259437989859 kcal/mol)

>  <smiles>  (5) 
Cc1cccc(C(=O)Nc2ccc(N3CCOCC3)c(S(=O)(=O)Nc3ccc(O)cc3)c2)c1

>  <score_type>  (5) 
oracle

>  <origin>  (5) 
adgpu

>  <m_score__min__energy>  (5) 
-11.140000000000001

>  <m_primary>  (5) 
energy

$$$$
5:0
     RDKit          3D

 56 59  0  0  0  0  0  0  0  0999 V2000
   -1.2390   26.4660  -28.9540 O   0  0  0  0  0  0  0  0  0  0  0  0
   -1.1550   25.2380  -28.6840 C   0  0  0  0  0  0  0  0  0  0  0  0
   -0.0380   24.7760  -27.9170 N   0  0  0  0  0  0  0  0  0  0  0  0
    0.7480   23.5880  -28.2360 C   0  0  0  0  0  0  0  0  0  0  0  0
    0.9100   22.7120  -26.9950 C   0  0  0  0  0  0  0  0  0  0  0  0
   -0.0230   21.5290  -27.0450 C   0  0  0  0  0  0  0  0  0  0  0  0
    0.2440   20.4570  -27.9140 C   0  0  0  0  0  0  0  0  0  0  0  0
   -0.5860   19.3310  -27.9200 C   0  0  0  0  0  0  0  0  0  0  0  0
   -1.6820   19.2650  -27.0540 C   0  0  0  0  0  0  0  0  0  0  0  0
   -2.4840   18.1720  -27.0590 F   0  0  0  0  0  0  0  0  0  0  0  0
   -1.9480   20.3240  -26.1810 C   0  0  0  0  0  0  0  0  0  0  0  0
   -1.1200   21.4500  -26.1730 C   0  0  0  0  0  0  0  0  0  0  0  0
   -2.1850   24.3110  -29.1990 C   0  0  0  0  0  0  0  0  0  0  0  0
   -3.5110   24.7430  -29.3490 C   0  0  0  0  0  0  0  0  0  0  0  0
   -4.4840   23.8750  -29.8550 C   0  0  0  0  0  0  0  0  0  0  0  0
   -4.1380   22.5690  -30.2440 C   0  0  0  0  0  0  0  0  0  0  0  0
   -5.1230   21.6470  -30.7420 N   0  0  0  0  0  0  0  0  0  0  0  0
   -6.2390   22.0260  -31.5660 C   0  0  0  0  0  0  0  0  0  0  0  0
   -6.3920   23.2240  -31.9260 O   0  0  0  0  0  0  0  0  0  0  0  0
   -7.1960   21.0380  -31.9820 N   0  0  0  0  0  0  0  0  0  0  0  0
   -8.6080   21.3010  -31.6570 C   0  0  0  0  0  0  0  0  0  0  0  0
   -9.5530   20.3310  -32.3730 C   0  0  0  0  0  0  0  0  0  0  0  0
   -9.1180   18.8860  -32.1290 C   0  0  0  0  0  0  0  0  0  0  0  0
   -7.7020   18.6890  -32.5770 C   0  0  0  0  0  0  0  0  0  0  0  0
   -7.3100   17.4730  -33.0450 N   0  0  0  0  0  0  0  0  0  0  0  0
   -6.0400   17.2350  -33.4720 C   0  0  0  0  0  0  0  0  0  0  0  0
   -5.6640   15.8790  -33.9930 C   0  0  0  0  0  0  0  0  0  0  0  0
   -5.1920   15.0980  -32.9540 F   0  0  0  0  0  0  0  0  0  0  0  0
   -6.7710   15.2700  -34.5540 F   0  0  0  0  0  0  0  0  0  0  0  0
   -4.6770   15.9860  -34.9570 F   0  0  0  0  0  0  0  0  0  0  0  0
   -5.1010   18.2720  -33.4520 C   0  0  0  0  0  0  0  0  0  0  0  0
   -5.4710   19.5270  -32.9680 C   0  0  0  0  0  0  0  0  0  0  0  0
   -6.7760   19.7460  -32.4890 C   0  0  0  0  0  0  0  0  0  0  0  0
   -2.8130   22.1380  -30.0890 C   0  0  0  0  0  0  0  0  0  0  0  0
   -1.8400   23.0060  -29.5860 C   0  0  0  0  0  0  0  0  0  0  0  0
    0.2353   23.0135  -29.0215 H   0  0  0  0  0  0  0  0  0  0  0  0
    1.7428   23.9000  -28.5867 H   0  0  0  0  0  0  0  0  0  0  0  0
    1.9475   22.3503  -26.9427 H   0  0  0  0  0  0  0  0  0  0  0  0
    0.6670   23.3134  -26.1066 H   0  0  0  0  0  0  0  0  0  0  0  0
    1.1090   20.5037  -28.5920 H   0  0  0  0  0  0  0  0  0  0  0  0
   -0.3765   18.4972  -28.6062 H   0  0  0  0  0  0  0  0  0  0  0  0
   -2.8099   20.2710  -25.4996 H   0  0  0  0  0  0  0  0  0  0  0  0
   -1.3291   22.2783  -25.4800 H   0  0  0  0  0  0  0  0  0  0  0  0
   -3.7871   25.7698  -29.0672 H   0  0  0  0  0  0  0  0  0  0  0  0
   -5.5256   24.2160  -29.9491 H   0  0  0  0  0  0  0  0  0  0  0  0
   -4.9710   20.6310  -30.5580 H   0  0  0  0  0  0  0  0  0  0  0  0
   -8.7478   21.1961  -30.5710 H   0  0  0  0  0  0  0  0  0  0  0  0
   -8.8494   22.3202  -31.9931 H   0  0  0  0  0  0  0  0  0  0  0  0
  -10.5747   20.4715  -31.9904 H   0  0  0  0  0  0  0  0  0  0  0  0
   -9.5227   20.5353  -33.4534 H   0  0  0  0  0  0  0  0  0  0  0  0
   -9.1941   18.6601  -31.0551 H   0  0  0  0  0  0  0  0  0  0  0  0
   -9.7726   18.2126  -32.7018 H   0  0  0  0  0  0  0  0  0  0  0  0
   -4.0774   18.0988  -33.8156 H   0  0  0  0  0  0  0  0  0  0  0  0
   -4.7397   20.3487  -32.9607 H   0  0  0  0  0  0  0  0  0  0  0  0
   -2.5373   21.1096  -30.3652 H   0  0  0  0  0  0  0  0  0  0  0  0
   -0.7983   22.6651  -29.4928 H   0  0  0  0  0  0  0  0  0  0  0  0
  1  2  2  0
  2  3  1  0
  3  4  1  0
  4  5  1  0
  5  6  1  0
  6  7  2  0
  7  8  1  0
  8  9  2  0
  9 10  1  0
  9 11  1  0
 11 12  2  0
  2 13  1  0
 13 14  2  0
 14 15  1  0
 15 16  2  0
 16 17  1  0
 17 18  1  0
 18 19  2  0
 18 20  1  0
 20 21  1  0
 21 22  1  0
 22 23  1  0
 23 24  1  0
 24 25  2  0
 25 26  1  0
 26 27  1  0
 27 28  1  0
 27 29  1  0
 27 30  1  0
 26 31  2  0
 31 32  1  0
 32 33  2  0
 16 34  1  0
 34 35  2  0
 12  6  1  0
 35 13  1  0
 33 20  1  0
 33 24  1  0
  4 36  1  0
  4 37  1  0
  5 38  1  0
  5 39  1  0
  7 40  1  0
  8 41  1  0
 11 42  1  0
 12 43  1  0
 14 44  1  0
 15 45  1  0
 17 46  1  0
 21 47  1  0
 21 48  1  0
 22 49  1  0
 22 50  1  0
 23 51  1  0
 23 52  1  0
 31 53  1  0
 32 54  1  0
 34 55  1  0
 35 56  1  0
M  CHG  1   3  -1
M  END
>  <UniqueID>  (6) 
6

>  <SMILES>  (6) 
O=C([N-]CCc1ccc(F)cc1)c1ccc(NC(=O)N2CCCc3nc(C(F)(F)F)ccc32)cc1

>  <Energy>  (6) 
70.88931568683812

>  <Genealogy>  (6) 
O=C([N-]CCc1ccc(F)cc1)c1ccc(NC(=O)N2CCCc3nc(C(F)(F)F)ccc32)cc1 (protonated)
O=C([N-]CCc1ccc(F)cc1)c1ccc(NC(=O)N2CCCc3nc(C(F)(F)F)ccc32)cc1 (3D coordinates assigned)
O=C([N-]CCc1ccc(F)cc1)c1ccc(NC(=O)N2CCCc3nc(C(F)(F)F)ccc32)cc1 (nonaromatic ring conformer: 70.88931568683812 kcal/mol)

>  <smiles>  (6) 
O=C(NCCc1ccc(F)cc1)c1ccc(NC(=O)N2CCCc3nc(C(F)(F)F)ccc32)cc1

>  <score_type>  (6) 
oracle

>  <origin>  (6) 
adgpu

>  <m_score__min__energy>  (6) 
-10.390000000000001

>  <m_primary>  (6) 
energy

$$$$
6:0
     RDKit          3D

 60 62  0  0  0  0  0  0  0  0999 V2000
    0.3980   20.0160  -36.6170 C   0  0  0  0  0  0  0  0  0  0  0  0
    1.7640   20.3240  -36.1610 N   0  0  0  0  0  0  0  0  0  0  0  0
    2.4660   19.1300  -35.6220 C   0  0  0  0  0  0  0  0  0  0  0  0
    2.8010   19.2200  -34.1210 C   0  0  0  0  0  0  0  0  0  0  0  0
    1.6220   19.8020  -33.3280 C   0  0  0  0  0  0  0  0  0  0  0  0
    0.4890   18.9310  -33.4090 O   0  0  0  0  0  0  0  0  0  0  0  0
   -0.8500   19.2960  -33.1920 C   0  0  0  0  0  0  0  0  0  0  0  0
   -1.2260   19.6720  -31.8980 C   0  0  0  0  0  0  0  0  0  0  0  0
   -2.5390   20.0590  -31.6220 C   0  0  0  0  0  0  0  0  0  0  0  0
   -3.5030   20.0770  -32.6430 C   0  0  0  0  0  0  0  0  0  0  0  0
   -4.8940   20.5080  -32.3640 C   0  0  0  0  0  0  0  0  0  0  0  0
   -5.1340   21.8460  -32.0040 C   0  0  0  0  0  0  0  0  0  0  0  0
   -6.4320   22.3080  -31.7480 C   0  0  0  0  0  0  0  0  0  0  0  0
   -6.6240   23.6900  -31.3890 N   0  0  0  0  0  0  0  0  0  0  0  0
   -5.5990   24.5780  -30.3060 S   0  0  0  0  0  0  0  0  0  0  0  0
   -6.5660   25.7260  -29.3470 C   0  0  0  0  0  0  0  0  0  0  0  0
   -4.5340   25.3040  -31.0800 O   0  0  0  0  0  0  0  0  0  0  0  0
   -4.9360   23.6110  -29.3650 O   0  0  0  0  0  0  0  0  0  0  0  0
   -7.5070   21.4110  -31.8630 C   0  0  0  0  0  0  0  0  0  0  0  0
   -7.2820   20.0790  -32.2080 C   0  0  0  0  0  0  0  0  0  0  0  0
   -5.9840   19.6120  -32.4600 C   0  0  0  0  0  0  0  0  0  0  0  0
   -5.7840   18.2180  -32.7590 N   0  0  0  0  0  0  0  0  0  0  0  0
   -5.7730   17.2220  -31.6890 C   0  0  0  0  0  0  0  0  0  0  0  0
   -5.7970   17.6630  -34.4070 S   0  0  0  0  0  0  0  0  0  0  0  0
   -4.2410   16.9050  -34.8330 C   0  0  0  0  0  0  0  0  0  0  0  0
   -6.8830   16.6390  -34.5820 O   0  0  0  0  0  0  0  0  0  0  0  0
   -6.0570   18.8240  -35.3250 O   0  0  0  0  0  0  0  0  0  0  0  0
   -3.1340   19.6790  -33.9370 C   0  0  0  0  0  0  0  0  0  0  0  0
   -1.8200   19.2910  -34.2130 C   0  0  0  0  0  0  0  0  0  0  0  0
    1.2290   21.1960  -33.8640 C   0  0  0  0  0  0  0  0  0  0  0  0
    1.7960   21.4990  -35.2660 C   0  0  0  0  0  0  0  0  0  0  0  0
   -0.2554   19.8687  -35.7444 H   0  0  0  0  0  0  0  0  0  0  0  0
    0.0170   20.8508  -37.2236 H   0  0  0  0  0  0  0  0  0  0  0  0
    0.4121   19.0985  -37.2236 H   0  0  0  0  0  0  0  0  0  0  0  0
    1.8236   18.2512  -35.7802 H   0  0  0  0  0  0  0  0  0  0  0  0
    3.4247   19.0582  -36.1566 H   0  0  0  0  0  0  0  0  0  0  0  0
    3.0271   18.2125  -33.7419 H   0  0  0  0  0  0  0  0  0  0  0  0
    3.6695   19.8831  -33.9949 H   0  0  0  0  0  0  0  0  0  0  0  0
    1.9391   19.8988  -32.2791 H   0  0  0  0  0  0  0  0  0  0  0  0
   -0.4798   19.6627  -31.0898 H   0  0  0  0  0  0  0  0  0  0  0  0
   -2.8197   20.3513  -30.5994 H   0  0  0  0  0  0  0  0  0  0  0  0
   -4.2870   22.5430  -31.9218 H   0  0  0  0  0  0  0  0  0  0  0  0
   -7.3940   24.2270  -31.8470 H   0  0  0  0  0  0  0  0  0  0  0  0
   -6.4053   25.5353  -28.2756 H   0  0  0  0  0  0  0  0  0  0  0  0
   -6.2580   26.7545  -29.5866 H   0  0  0  0  0  0  0  0  0  0  0  0
   -7.6318   25.5972  -29.5866 H   0  0  0  0  0  0  0  0  0  0  0  0
   -8.5333   21.7619  -31.6796 H   0  0  0  0  0  0  0  0  0  0  0  0
   -8.1330   19.3861  -32.2834 H   0  0  0  0  0  0  0  0  0  0  0  0
   -5.7786   17.7312  -30.7140 H   0  0  0  0  0  0  0  0  0  0  0  0
   -6.6641   16.5827  -31.7739 H   0  0  0  0  0  0  0  0  0  0  0  0
   -4.8680   16.6026  -31.7739 H   0  0  0  0  0  0  0  0  0  0  0  0
   -3.6981   16.6405  -33.9136 H   0  0  0  0  0  0  0  0  0  0  0  0
   -4.4257   15.9959  -35.4242 H   0  0  0  0  0  0  0  0  0  0  0  0
   -3.6390   17.6108  -35.4242 H   0  0  0  0  0  0  0  0  0  0  0  0
   -3.8850   19.6723  -34.7407 H   0  0  0  0  0  0  0  0  0  0  0  0
   -1.5425   18.9807  -35.2312 H   0  0  0  0  0  0  0  0  0  0  0  0
    0.1316   21.2536  -33.9125 H   0  0  0  0  0  0  0  0  0  0  0  0
    1.6561   21.9395  -33.1749 H   0  0  0  0  0  0  0  0  0  0  0  0
    1.1993   22.3036  -35.7204 H   0  0  0  0  0  0  0  0  0  0  0  0
    2.8487   21.7931  -35.1418 H   0  0  0  0  0  0  0  0  0  0  0  0
  1  2  1  0
  2  3  1  0
  3  4  1  0
  4  5  1  0
  5  6  1  0
  6  7  1  0
  7  8  2  0
  8  9  1  0
  9 10  2  0
 10 11  1  0
 11 12  2  0
 12 13  1  0
 13 14  1  0
 14 15  1  0
 15 16  1  0
 15 17  2  0
 15 18  2  0
 13 19  2  0
 19 20  1  0
 20 21  2  0
 21 22  1  0
 22 23  1  0
 22 24  1  0
 24 25  1  0
 24 26  2  0
 24 27  2  0
 10 28  1  0
 28 29  2  0
  5 30  1  0
 30 31  1  0
 31  2  1  0
 29  7  1  0
 21 11  1  0
  1 32  1  0
  1 33  1  0
  1 34  1  0
  3 35  1  0
  3 36  1  0
  4 37  1  0
  4 38  1  0
  5 39  1  0
  8 40  1  0
  9 41  1  0
 12 42  1  0
 14 43  1  0
 16 44  1  0
 16 45  1  0
 16 46  1  0
 19 47  1  0
 20 48  1  0
 23 49  1  0
 23 50  1  0
 23 51  1  0
 25 52  1  0
 25 53  1  0
 25 54  1  0
 28 55  1  0
 29 56  1  0
 30 57  1  0
 30 58  1  0
 31 59  1  0
 31 60  1  0
M  END
>  <UniqueID>  (7) 
7

>  <SMILES>  (7) 
CN1CCC(Oc2ccc(-c3cc(NS(C)(=O)=O)ccc3N(C)S(C)(=O)=O)cc2)CC1

>  <Energy>  (7) 
75.22980521196891

>  <Genealogy>  (7) 
CN1CCC(Oc2ccc(-c3cc(NS(C)(=O)=O)ccc3N(C)S(C)(=O)=O)cc2)CC1 (3D coordinates assigned)
CN1CCC(Oc2ccc(-c3cc(NS(C)(=O)=O)ccc3N(C)S(C)(=O)=O)cc2)CC1 (nonaromatic ring conformer: 75.22980521196891 kcal/mol)

>  <smiles>  (7) 
CN1CCC(Oc2ccc(-c3cc(NS(C)(=O)=O)ccc3N(C)S(C)(=O)=O)cc2)CC1

>  <score_type>  (7) 
oracle

>  <origin>  (7) 
adgpu

>  <m_score__min__energy>  (7) 
-9.1500000000000004

>  <m_primary>  (7) 
energy

$$$$
7:0
     RDKit          3D

 44 47  0  0  0  0  0  0  0  0999 V2000
    0.3140   20.3760  -30.8770 C   0  0  0  0  0  0  0  0  0  0  0  0
   -0.9010   21.2390  -30.6850 C   0  0  0  0  0  0  0  0  0  0  0  0
   -0.9220   22.1880  -29.6600 C   0  0  0  0  0  0  0  0  0  0  0  0
   -2.0240   23.0300  -29.5000 C   0  0  0  0  0  0  0  0  0  0  0  0
   -3.1290   22.9480  -30.3670 C   0  0  0  0  0  0  0  0  0  0  0  0
   -4.1980   23.9050  -30.2300 N   0  0  0  0  0  0  0  0  0  0  0  0
   -5.1420   23.8190  -29.3070 N   0  0  0  0  0  0  0  0  0  0  0  0
   -5.9040   24.9200  -29.4430 C   0  0  0  0  0  0  0  0  0  0  0  0
   -5.3780   25.6740  -30.4660 C   0  0  0  0  0  0  0  0  0  0  0  0
   -4.3030   25.0240  -30.9380 N   0  0  0  0  0  0  0  0  0  0  0  0
   -3.1190   21.9670  -31.3930 C   0  0  0  0  0  0  0  0  0  0  0  0
   -4.2600   21.7630  -32.3050 C   0  0  0  0  0  0  0  0  0  0  0  0
   -4.2310   22.2880  -33.4490 O   0  0  0  0  0  0  0  0  0  0  0  0
   -5.3970   20.9730  -31.9050 N   0  0  0  0  0  0  0  0  0  0  0  0
   -5.2260   19.5480  -31.5910 C   0  0  0  0  0  0  0  0  0  0  0  0
   -6.2050   18.7240  -32.4190 C   0  0  0  0  0  0  0  0  0  0  0  0
   -7.5780   19.1880  -32.1880 N   0  0  0  0  0  0  0  0  0  0  0  0
   -8.6450   18.2090  -31.9520 C   0  0  0  0  0  0  0  0  0  0  0  0
   -7.8290   20.6130  -32.0980 C   0  0  0  0  0  0  0  0  0  0  0  0
   -9.1380   21.1300  -32.1280 C   0  0  0  0  0  0  0  0  0  0  0  0
   -9.3640   22.4960  -31.9700 C   0  0  0  0  0  0  0  0  0  0  0  0
   -8.2930   23.3640  -31.7690 C   0  0  0  0  0  0  0  0  0  0  0  0
   -6.9890   22.8720  -31.7470 C   0  0  0  0  0  0  0  0  0  0  0  0
   -6.7410   21.5010  -31.9350 C   0  0  0  0  0  0  0  0  0  0  0  0
   -1.9960   21.1400  -31.5520 C   0  0  0  0  0  0  0  0  0  0  0  0
    0.7185   20.0887  -29.8953 H   0  0  0  0  0  0  0  0  0  0  0  0
    0.0364   19.4715  -31.4381 H   0  0  0  0  0  0  0  0  0  0  0  0
    1.0766   20.9360  -31.4381 H   0  0  0  0  0  0  0  0  0  0  0  0
   -0.0654   22.2723  -28.9751 H   0  0  0  0  0  0  0  0  0  0  0  0
   -2.0284   23.7681  -28.6844 H   0  0  0  0  0  0  0  0  0  0  0  0
   -6.7904   25.1722  -28.8424 H   0  0  0  0  0  0  0  0  0  0  0  0
   -5.7679   26.6356  -30.8311 H   0  0  0  0  0  0  0  0  0  0  0  0
   -4.1966   19.2413  -31.8281 H   0  0  0  0  0  0  0  0  0  0  0  0
   -5.4209   19.3824  -30.5211 H   0  0  0  0  0  0  0  0  0  0  0  0
   -5.9594   18.8317  -33.4858 H   0  0  0  0  0  0  0  0  0  0  0  0
   -6.1276   17.6679  -32.1212 H   0  0  0  0  0  0  0  0  0  0  0  0
   -8.7887   18.0771  -30.8694 H   0  0  0  0  0  0  0  0  0  0  0  0
   -9.5803   18.5697  -32.4048 H   0  0  0  0  0  0  0  0  0  0  0  0
   -8.3659   17.2462  -32.4048 H   0  0  0  0  0  0  0  0  0  0  0  0
   -9.9896   20.4500  -32.2774 H   0  0  0  0  0  0  0  0  0  0  0  0
  -10.3905   22.8898  -32.0041 H   0  0  0  0  0  0  0  0  0  0  0  0
   -8.4767   24.4393  -31.6274 H   0  0  0  0  0  0  0  0  0  0  0  0
   -6.1480   23.5614  -31.5814 H   0  0  0  0  0  0  0  0  0  0  0  0
   -1.9759   20.4039  -32.3691 H   0  0  0  0  0  0  0  0  0  0  0  0
  1  2  1  0
  2  3  2  0
  3  4  1  0
  4  5  2  0
  5  6  1  0
  6  7  1  0
  7  8  2  0
  8  9  1  0
  9 10  2  0
  5 11  1  0
 11 12  1  0
 12 13  2  0
 12 14  1  0
 14 15  1  0
 15 16  1  0
 16 17  1  0
 17 18  1  0
 17 19  1  0
 19 20  2  0
 20 21  1  0
 21 22  2  0
 22 23  1  0
 23 24  2  0
 11 25  2  0
 25  2  1  0
 10  6  1  0
 24 14  1  0
 24 19  1  0
  1 26  1  0
  1 27  1  0
  1 28  1  0
  3 29  1  0
  4 30  1  0
  8 31  1  0
  9 32  1  0
 15 33  1  0
 15 34  1  0
 16 35  1  0
 16 36  1  0
 18 37  1  0
 18 38  1  0
 18 39  1  0
 20 40  1  0
 21 41  1  0
 22 42  1  0
 23 43  1  0
 25 44  1  0
M  END
>  <UniqueID>  (8) 
8

>  <SMILES>  (8) 
Cc1ccc(-n2nccn2)c(C(=O)N2CCN(C)c3ccccc32)c1

>  <Energy>  (8) 
96.49662693487338

>  <Genealogy>  (8) 
Cc1ccc(-n2nccn2)c(C(=O)N2CCN(C)c3ccccc32)c1 (3D coordinates assigned)
Cc1ccc(-n2nccn2)c(C(=O)N2CCN(C)c3ccccc32)c1 (nonaromatic ring conformer: 96.49662693487338 kcal/mol)

>  <smiles>  (8) 
Cc1ccc(-n2nccn2)c(C(=O)N2CCN(C)c3ccccc32)c1

>  <score_type>  (8) 
oracle

>  <origin>  (8) 
adgpu

>  <m_score__min__energy>  (8) 
-8.7699999999999996

>  <m_primary>  (8) 
energy

$$$$
8:0
     RDKit          3D

 60 63  0  0  0  0  0  0  0  0999 V2000
    4.0740   13.6530  -30.3880 C   0  0  0  0  0  0  0  0  0  0  0  0
    3.5580   14.5520  -31.3660 O   0  0  0  0  0  0  0  0  0  0  0  0
    2.2210   14.5810  -31.7920 C   0  0  0  0  0  0  0  0  0  0  0  0
    1.8330   14.1260  -33.0660 C   0  0  0  0  0  0  0  0  0  0  0  0
    0.4940   14.1720  -33.4560 C   0  0  0  0  0  0  0  0  0  0  0  0
   -0.4860   14.6730  -32.5850 C   0  0  0  0  0  0  0  0  0  0  0  0
   -1.9110   14.7260  -33.0020 C   0  0  0  0  0  0  0  0  0  0  0  0
   -2.6070   13.5460  -33.3140 C   0  0  0  0  0  0  0  0  0  0  0  0
   -3.9430   13.5980  -33.7130 C   0  0  0  0  0  0  0  0  0  0  0  0
   -4.6030   14.8250  -33.8040 C   0  0  0  0  0  0  0  0  0  0  0  0
   -3.9320   16.0190  -33.4880 C   0  0  0  0  0  0  0  0  0  0  0  0
   -4.6380   17.3200  -33.5910 C   0  0  0  0  0  0  0  0  0  0  0  0
   -4.5650   17.9820  -34.6620 O   0  0  0  0  0  0  0  0  0  0  0  0
   -5.4430   17.8090  -32.5050 N   0  0  0  0  0  0  0  0  0  0  0  0
   -5.8110   19.1880  -32.3410 C   0  0  0  0  0  0  0  0  0  0  0  0
   -4.8130   20.1470  -32.1120 C   0  0  0  0  0  0  0  0  0  0  0  0
   -5.1450   21.4980  -31.9710 C   0  0  0  0  0  0  0  0  0  0  0  0
   -6.4800   21.9110  -32.0700 C   0  0  0  0  0  0  0  0  0  0  0  0
   -6.8760   23.6180  -31.9020 S   0  0  0  0  0  0  0  0  0  0  0  0
   -7.5630   24.0970  -33.1510 O   0  0  0  0  0  0  0  0  0  0  0  0
   -7.7890   23.7740  -30.7190 O   0  0  0  0  0  0  0  0  0  0  0  0
   -5.3950   24.4890  -31.6620 N   0  0  0  0  0  0  0  0  0  0  0  0
   -4.5740   24.4610  -30.6510 C   0  0  0  0  0  0  0  0  0  0  0  0
   -3.4890   25.2000  -30.6300 O   0  0  0  0  0  0  0  0  0  0  0  0
   -2.8080   25.0160  -29.5380 N   0  0  0  0  0  0  0  0  0  0  0  0
   -3.4790   24.1090  -28.8030 C   0  0  0  0  0  0  0  0  0  0  0  0
   -3.0060   23.6180  -27.4720 C   0  0  0  0  0  0  0  0  0  0  0  0
   -4.6330   23.7210  -29.4680 C   0  0  0  0  0  0  0  0  0  0  0  0
   -5.6150   22.6890  -28.9960 C   0  0  0  0  0  0  0  0  0  0  0  0
   -7.4790   20.9610  -32.3250 C   0  0  0  0  0  0  0  0  0  0  0  0
   -7.1480   19.6100  -32.4640 C   0  0  0  0  0  0  0  0  0  0  0  0
   -2.5820   15.9600  -33.0960 C   0  0  0  0  0  0  0  0  0  0  0  0
   -0.0980   15.1260  -31.3120 C   0  0  0  0  0  0  0  0  0  0  0  0
    1.2510   15.0830  -30.9110 C   0  0  0  0  0  0  0  0  0  0  0  0
    1.6690   15.5270  -29.6460 O   0  0  0  0  0  0  0  0  0  0  0  0
    1.0110   16.5380  -28.8890 C   0  0  0  0  0  0  0  0  0  0  0  0
    3.8525   14.0390  -29.3820 H   0  0  0  0  0  0  0  0  0  0  0  0
    3.6050   12.6660  -30.5135 H   0  0  0  0  0  0  0  0  0  0  0  0
    5.1629   13.5602  -30.5135 H   0  0  0  0  0  0  0  0  0  0  0  0
    2.5905   13.7314  -33.7591 H   0  0  0  0  0  0  0  0  0  0  0  0
    0.2041   13.8126  -34.4544 H   0  0  0  0  0  0  0  0  0  0  0  0
   -2.0953   12.5748  -33.2432 H   0  0  0  0  0  0  0  0  0  0  0  0
   -4.4784   12.6686  -33.9569 H   0  0  0  0  0  0  0  0  0  0  0  0
   -5.6546   14.8575  -34.1250 H   0  0  0  0  0  0  0  0  0  0  0  0
   -5.8750   17.1080  -31.8600 H   0  0  0  0  0  0  0  0  0  0  0  0
   -3.7608   19.8336  -32.0428 H   0  0  0  0  0  0  0  0  0  0  0  0
   -4.3548   22.2394  -31.7816 H   0  0  0  0  0  0  0  0  0  0  0  0
   -3.5304   24.1624  -26.6729 H   0  0  0  0  0  0  0  0  0  0  0  0
   -3.2167   22.5421  -27.3821 H   0  0  0  0  0  0  0  0  0  0  0  0
   -1.9230   23.7883  -27.3821 H   0  0  0  0  0  0  0  0  0  0  0  0
   -5.6301   22.6732  -27.8962 H   0  0  0  0  0  0  0  0  0  0  0  0
   -6.6180   22.9378  -29.3729 H   0  0  0  0  0  0  0  0  0  0  0  0
   -5.3167   21.6996  -29.3729 H   0  0  0  0  0  0  0  0  0  0  0  0
   -8.5278   21.2801  -32.4161 H   0  0  0  0  0  0  0  0  0  0  0  0
   -7.9373   18.8723  -32.6708 H   0  0  0  0  0  0  0  0  0  0  0  0
   -2.0440   16.8900  -32.8600 H   0  0  0  0  0  0  0  0  0  0  0  0
   -0.8579   15.5190  -30.6205 H   0  0  0  0  0  0  0  0  0  0  0  0
    1.1423   16.3363  -27.8157 H   0  0  0  0  0  0  0  0  0  0  0  0
    1.4440   17.5192  -29.1333 H   0  0  0  0  0  0  0  0  0  0  0  0
   -0.0615   16.5394  -29.1333 H   0  0  0  0  0  0  0  0  0  0  0  0
  1  2  1  0
  2  3  1  0
  3  4  2  0
  4  5  1  0
  5  6  2  0
  6  7  1  0
  7  8  2  0
  8  9  1  0
  9 10  2  0
 10 11  1  0
 11 12  1  0
 12 13  2  0
 12 14  1  0
 14 15  1  0
 15 16  2  0
 16 17  1  0
 17 18  2  0
 18 19  1  0
 19 20  2  0
 19 21  2  0
 19 22  1  0
 22 23  2  3
 23 24  1  0
 24 25  1  0
 25 26  1  0
 26 27  1  0
 26 28  2  0
 28 29  1  0
 18 30  1  0
 30 31  2  0
 11 32  2  0
  6 33  1  0
 33 34  2  0
 34 35  1  0
 35 36  1  0
 34  3  1  0
 32  7  1  0
 31 15  1  0
 28 23  1  0
  1 37  1  0
  1 38  1  0
  1 39  1  0
  4 40  1  0
  5 41  1  0
  8 42  1  0
  9 43  1  0
 10 44  1  0
 14 45  1  0
 16 46  1  0
 17 47  1  0
 27 48  1  0
 27 49  1  0
 27 50  1  0
 29 51  1  0
 29 52  1  0
 29 53  1  0
 30 54  1  0
 31 55  1  0
 32 56  1  0
 33 57  1  0
 36 58  1  0
 36 59  1  0
 36 60  1  0
M  CHG  1  25  -1
M  END
>  <UniqueID>  (9) 
9

>  <SMILES>  (9) 
COc1ccc(-c2cccc(C(=O)Nc3ccc(S(=O)(=O)N=c4o[n-]c(C)c4C)cc3)c2)cc1OC

>  <Energy>  (9) 
114.12256083813264

>  <Genealogy>  (9) 
COc1ccc(-c2cccc(C(=O)Nc3ccc(S(=O)(=O)N=c4o[n-]c(C)c4C)cc3)c2)cc1OC (protonated)
COc1ccc(-c2cccc(C(=O)Nc3ccc(S(=O)(=O)N=c4o[n-]c(C)c4C)cc3)c2)cc1OC (3D coordinates assigned)
COc1ccc(-c2cccc(C(=O)Nc3ccc(S(=O)(=O)N=c4o[n-]c(C)c4C)cc3)c2)cc1OC (optimized conformer: 114.12256083813264 kcal/mol)

>  <smiles>  (9) 
COc1ccc(-c2cccc(C(=O)Nc3ccc(S(=O)(=O)N=c4o[nH]c(C)c4C)cc3)c2)cc1OC

>  <score_type>  (9) 
oracle

>  <origin>  (9) 
adgpu

>  <m_score__min__energy>  (9) 
-10.470000000000001

>  <m_primary>  (9) 
energy

$$$$
9:0
     RDKit          3D

 55 58  0  0  0  0  0  0  0  0999 V2000
   -3.5680   24.7930  -30.8230 O   0  0  0  0  0  0  0  0  0  0  0  0
   -3.1980   23.5890  -30.8370 C   0  0  0  0  0  0  0  0  0  0  0  0
   -2.0730   23.2110  -30.1060 O   0  0  0  0  0  0  0  0  0  0  0  0
   -3.9650   22.5750  -31.6080 C   0  0  0  0  0  0  0  0  0  0  0  0
   -3.2810   21.7450  -32.5250 C   0  0  0  0  0  0  0  0  0  0  0  0
   -1.8700   21.9120  -32.7240 N   0  0  0  0  0  0  0  0  0  0  0  0
   -0.7370   20.5900  -32.7020 S   0  0  0  0  0  0  0  0  0  0  0  0
    0.6260   21.1180  -33.0720 O   0  0  0  0  0  0  0  0  0  0  0  0
   -1.1400   19.5460  -33.7100 O   0  0  0  0  0  0  0  0  0  0  0  0
   -0.6290   19.8840  -31.0900 C   0  0  0  0  0  0  0  0  0  0  0  0
    0.1290   18.7250  -30.8940 C   0  0  0  0  0  0  0  0  0  0  0  0
    0.2270   18.1570  -29.6220 C   0  0  0  0  0  0  0  0  0  0  0  0
   -0.4310   18.7370  -28.5360 C   0  0  0  0  0  0  0  0  0  0  0  0
   -0.3000   18.1580  -27.3150 F   0  0  0  0  0  0  0  0  0  0  0  0
   -1.2020   19.9060  -28.7190 C   0  0  0  0  0  0  0  0  0  0  0  0
   -2.0440   20.6780  -27.3540 S   0  0  0  0  0  0  0  0  0  0  0  0
   -1.2020   20.5220  -26.1170 O   0  0  0  0  0  0  0  0  0  0  0  0
   -3.3540   19.9710  -27.1140 O   0  0  0  0  0  0  0  0  0  0  0  0
   -2.4190   22.3690  -27.6300 N   0  0  0  0  0  0  0  0  0  0  0  0
   -1.6560   23.2360  -26.7180 C   0  0  0  0  0  0  0  0  0  0  0  0
   -1.9260   24.7240  -27.0440 C   0  0  0  0  0  0  0  0  0  0  0  0
   -3.0740   24.9160  -27.8570 O   0  0  0  0  0  0  0  0  0  0  0  0
   -4.1530   24.1440  -27.3650 C   0  0  0  0  0  0  0  0  0  0  0  0
   -3.8690   22.6380  -27.5470 C   0  0  0  0  0  0  0  0  0  0  0  0
   -1.2790   20.4790  -29.9990 C   0  0  0  0  0  0  0  0  0  0  0  0
   -3.9750   20.7410  -33.2100 C   0  0  0  0  0  0  0  0  0  0  0  0
   -5.3240   20.5100  -32.9530 C   0  0  0  0  0  0  0  0  0  0  0  0
   -6.0270   21.3180  -32.0470 C   0  0  0  0  0  0  0  0  0  0  0  0
   -5.3580   22.3810  -31.3920 C   0  0  0  0  0  0  0  0  0  0  0  0
   -6.1560   23.2990  -30.4900 C   0  0  0  0  0  0  0  0  0  0  0  0
   -7.5760   23.4660  -31.0350 C   0  0  0  0  0  0  0  0  0  0  0  0
   -8.2990   22.1150  -31.0690 C   0  0  0  0  0  0  0  0  0  0  0  0
   -7.4810   20.9850  -31.7560 C   0  0  0  0  0  0  0  0  0  0  0  0
    0.6494   18.2596  -31.7441 H   0  0  0  0  0  0  0  0  0  0  0  0
    0.8266   17.2466  -29.4748 H   0  0  0  0  0  0  0  0  0  0  0  0
   -2.1110   22.5830  -28.6080 H   0  0  0  0  0  0  0  0  0  0  0  0
   -1.9606   23.0302  -25.6813 H   0  0  0  0  0  0  0  0  0  0  0  0
   -0.5825   23.0306  -26.8420 H   0  0  0  0  0  0  0  0  0  0  0  0
   -2.0707   25.2688  -26.0994 H   0  0  0  0  0  0  0  0  0  0  0  0
   -1.0586   25.0994  -27.6068 H   0  0  0  0  0  0  0  0  0  0  0  0
   -4.2935   24.3590  -26.2954 H   0  0  0  0  0  0  0  0  0  0  0  0
   -5.0617   24.4046  -27.9274 H   0  0  0  0  0  0  0  0  0  0  0  0
   -4.2863   22.0890  -26.6900 H   0  0  0  0  0  0  0  0  0  0  0  0
   -4.3365   22.3087  -28.4867 H   0  0  0  0  0  0  0  0  0  0  0  0
   -1.8552   21.4042  -30.1473 H   0  0  0  0  0  0  0  0  0  0  0  0
   -3.4501   20.1288  -33.9582 H   0  0  0  0  0  0  0  0  0  0  0  0
   -5.8431   19.6864  -33.4651 H   0  0  0  0  0  0  0  0  0  0  0  0
   -6.2024   22.8664  -29.4797 H   0  0  0  0  0  0  0  0  0  0  0  0
   -5.6661   24.2832  -30.4531 H   0  0  0  0  0  0  0  0  0  0  0  0
   -8.1333   24.1589  -30.3875 H   0  0  0  0  0  0  0  0  0  0  0  0
   -7.5201   23.8660  -32.0582 H   0  0  0  0  0  0  0  0  0  0  0  0
   -8.5123   21.8092  -30.0341 H   0  0  0  0  0  0  0  0  0  0  0  0
   -9.2144   22.2553  -31.6625 H   0  0  0  0  0  0  0  0  0  0  0  0
   -7.5023   20.1030  -31.0990 H   0  0  0  0  0  0  0  0  0  0  0  0
   -7.9557   20.8188  -32.7343 H   0  0  0  0  0  0  0  0  0  0  0  0
  1  2  2  0
  2  3  1  0
  2  4  1  0
  4  5  2  0
  5  6  1  0
  6  7  1  0
  7  8  2  0
  7  9  2  0
  7 10  1  0
 10 11  2  0
 11 12  1  0
 12 13  2  0
 13 14  1  0
 13 15  1  0
 15 16  1  0
 16 17  2  0
 16 18  2  0
 16 19  1  0
 19 20  1  0
 20 21  1  0
 21 22  1  0
 22 23  1  0
 23 24  1  0
 15 25  2  0
  5 26  1  0
 26 27  2  0
 27 28  1  0
 28 29  2  0
 29 30  1  0
 30 31  1  0
 31 32  1  0
 32 33  1  0
 29  4  1  0
 25 10  1  0
 33 28  1  0
 24 19  1  0
 11 34  1  0
 12 35  1  0
 19 36  1  0
 20 37  1  0
 20 38  1  0
 21 39  1  0
 21 40  1  0
 23 41  1  0
 23 42  1  0
 24 43  1  0
 24 44  1  0
 25 45  1  0
 26 46  1  0
 27 47  1  0
 30 48  1  0
 30 49  1  0
 31 50  1  0
 31 51  1  0
 32 52  1  0
 32 53  1  0
 33 54  1  0
 33 55  1  0
M  CHG  3   3  -1   6  -1  19   1
M  END
>  <UniqueID>  (10) 
10

>  <SMILES>  (10) 
O=C([O-])c1c([N-]S(=O)(=O)c2ccc(F)c(S(=O)(=O)[NH+]3CCOCC3)c2)ccc2c1CCCC2

>  <Energy>  (10) 
85.91376639726633

>  <Genealogy>  (10) 
O=C([O-])c1c([N-]S(=O)(=O)c2ccc(F)c(S(=O)(=O)[NH+]3CCOCC3)c2)ccc2c1CCCC2 (protonated)
O=C([O-])c1c([N-]S(=O)(=O)c2ccc(F)c(S(=O)(=O)[NH+]3CCOCC3)c2)ccc2c1CCCC2 (3D coordinates assigned)
O=C([O-])c1c([N-]S(=O)(=O)c2ccc(F)c(S(=O)(=O)[NH+]3CCOCC3)c2)ccc2c1CCCC2 (nonaromatic ring conformer: 85.91376639726633 kcal/mol)

>  <smiles>  (10) 
O=C(O)c1c(NS(=O)(=O)c2ccc(F)c(S(=O)(=O)N3CCOCC3)c2)ccc2c1CCCC2

>  <score_type>  (10) 
oracle

>  <origin>  (10) 
adgpu

>  <m_score__min__energy>  (10) 
-13.5

>  <m_primary>  (10) 
energy

$$$$
10:0
     RDKit          3D

 44 46  0  0  0  0  0  0  0  0999 V2000
   -9.0340   20.5730  -32.4860 C   0  0  0  0  0  0  0  0  0  0  0  0
   -8.0900   21.5370  -31.8300 C   0  0  0  0  0  0  0  0  0  0  0  0
   -7.0240   22.0880  -32.5550 C   0  0  0  0  0  0  0  0  0  0  0  0
   -6.1260   22.9600  -31.9340 C   0  0  0  0  0  0  0  0  0  0  0  0
   -6.2830   23.2930  -30.5810 C   0  0  0  0  0  0  0  0  0  0  0  0
   -5.1660   24.4180  -29.8030 S   0  0  0  0  0  0  0  0  0  0  0  0
   -5.9440   25.5770  -29.2450 O   0  0  0  0  0  0  0  0  0  0  0  0
   -4.2430   24.9660  -30.8560 O   0  0  0  0  0  0  0  0  0  0  0  0
   -4.2180   23.6760  -28.5190 N   0  0  0  0  0  0  0  0  0  0  0  0
   -4.2010   24.5080  -27.2880 C   0  0  0  0  0  0  0  0  0  0  0  0
   -2.8010   24.7160  -26.6870 C   0  0  0  0  0  0  0  0  0  0  0  0
   -1.8130   25.1620  -27.7650 C   0  0  0  0  0  0  0  0  0  0  0  0
   -1.8040   24.2290  -28.9940 C   0  0  0  0  0  0  0  0  0  0  0  0
   -2.8950   23.1310  -28.9250 C   0  0  2  0  0  0  0  0  0  0  0  0
   -2.9870   22.2060  -30.1330 C   0  0  0  0  0  0  0  0  0  0  0  0
   -2.0320   22.3520  -31.1560 C   0  0  0  0  0  0  0  0  0  0  0  0
   -2.0620   21.5290  -32.2850 C   0  0  0  0  0  0  0  0  0  0  0  0
   -3.0510   20.5530  -32.4120 C   0  0  0  0  0  0  0  0  0  0  0  0
   -4.0200   20.4020  -31.4130 C   0  0  0  0  0  0  0  0  0  0  0  0
   -5.0140   19.4330  -31.5320 O   0  0  0  0  0  0  0  0  0  0  0  0
   -3.9930   21.2260  -30.2830 C   0  0  0  0  0  0  0  0  0  0  0  0
   -7.3260   22.7120  -29.8460 C   0  0  0  0  0  0  0  0  0  0  0  0
   -8.2240   21.8400  -30.4670 C   0  0  0  0  0  0  0  0  0  0  0  0
   -9.5820   20.0134  -31.7136 H   0  0  0  0  0  0  0  0  0  0  0  0
   -9.7478   21.1278  -33.1127 H   0  0  0  0  0  0  0  0  0  0  0  0
   -8.4644   19.8710  -33.1127 H   0  0  0  0  0  0  0  0  0  0  0  0
   -6.8940   21.8328  -33.6171 H   0  0  0  0  0  0  0  0  0  0  0  0
   -5.2916   23.3874  -32.5095 H   0  0  0  0  0  0  0  0  0  0  0  0
   -4.6214   25.4946  -27.5326 H   0  0  0  0  0  0  0  0  0  0  0  0
   -4.7919   23.9681  -26.5334 H   0  0  0  0  0  0  0  0  0  0  0  0
   -2.8545   25.4872  -25.9045 H   0  0  0  0  0  0  0  0  0  0  0  0
   -2.4536   23.7637  -26.2599 H   0  0  0  0  0  0  0  0  0  0  0  0
   -2.0873   26.1748  -28.0952 H   0  0  0  0  0  0  0  0  0  0  0  0
   -0.8065   25.1345  -27.3222 H   0  0  0  0  0  0  0  0  0  0  0  0
   -1.9727   24.8353  -29.8962 H   0  0  0  0  0  0  0  0  0  0  0  0
   -0.8275   23.7232  -29.0175 H   0  0  0  0  0  0  0  0  0  0  0  0
   -2.5454   22.4648  -28.1225 H   0  0  0  0  0  0  0  0  0  0  0  0
   -1.2526   23.1230  -31.0660 H   0  0  0  0  0  0  0  0  0  0  0  0
   -1.3054   21.6507  -33.0741 H   0  0  0  0  0  0  0  0  0  0  0  0
   -3.0693   19.9015  -33.2981 H   0  0  0  0  0  0  0  0  0  0  0  0
   -4.8530   18.5680  -32.0340 H   0  0  0  0  0  0  0  0  0  0  0  0
   -4.7616   21.1098  -29.5047 H   0  0  0  0  0  0  0  0  0  0  0  0
   -7.4378   22.9435  -28.7765 H   0  0  0  0  0  0  0  0  0  0  0  0
   -9.0403   21.3888  -29.8839 H   0  0  0  0  0  0  0  0  0  0  0  0
  1  2  1  0
  2  3  2  0
  3  4  1  0
  4  5  2  0
  5  6  1  0
  6  7  2  0
  6  8  2  0
  6  9  1  0
  9 10  1  0
 10 11  1  0
 11 12  1  0
 12 13  1  0
 13 14  1  0
 14 15  1  0
 15 16  2  0
 16 17  1  0
 17 18  2  0
 18 19  1  0
 19 20  1  0
 19 21  2  0
  5 22  1  0
 22 23  2  0
 23  2  1  0
 14  9  1  0
 21 15  1  0
  1 24  1  0
  1 25  1  0
  1 26  1  0
  3 27  1  0
  4 28  1  0
 10 29  1  0
 10 30  1  0
 11 31  1  0
 11 32  1  0
 12 33  1  0
 12 34  1  0
 13 35  1  0
 13 36  1  0
 14 37  1  1
 16 38  1  0
 17 39  1  0
 18 40  1  0
 20 41  1  0
 21 42  1  0
 22 43  1  0
 23 44  1  0
M  END
>  <UniqueID>  (11) 
11

>  <SMILES>  (11) 
Cc1ccc(S(=O)(=O)N2CCCC[C@@H]2c2cccc(O)c2)cc1

>  <Energy>  (11) 
58.27383140878844

>  <Genealogy>  (11) 
Cc1ccc(S(=O)(=O)N2CCCC[C@@H]2c2cccc(O)c2)cc1 (chirality)
Cc1ccc(S(=O)(=O)N2CCCC[C@@H]2c2cccc(O)c2)cc1 (3D coordinates assigned)
Cc1ccc(S(=O)(=O)N2CCCC[C@@H]2c2cccc(O)c2)cc1 (nonaromatic ring conformer: 58.27383140878844 kcal/mol)

>  <smiles>  (11) 
Cc1ccc(S(=O)(=O)N2CCCCC2c2cccc(O)c2)cc1

>  <score_type>  (11) 
oracle

>  <origin>  (11) 
adgpu

>  <m_score__min__energy>  (11) 
-8.7799999999999994

>  <m_primary>  (11) 
energy

$$$$
11:0
     RDKit          3D

 29 31  0  0  0  0  0  0  0  0999 V2000
   -5.7270   25.9710  -31.2220 O   0  0  0  0  0  0  0  0  0  0  0  0
   -5.1450   25.0940  -30.5300 C   0  0  0  0  0  0  0  0  0  0  0  0
   -3.8590   25.2960  -30.1470 N   0  0  0  0  0  0  0  0  0  0  0  0
   -3.1920   24.3790  -29.4010 C   0  0  0  0  0  0  0  0  0  0  0  0
   -1.6420   24.6660  -28.9650 S   0  0  0  0  0  0  0  0  0  0  0  0
   -3.8120   23.2280  -29.0240 N   0  0  0  0  0  0  0  0  0  0  0  0
   -5.1000   22.9830  -29.3850 C   0  0  0  0  0  0  0  0  0  0  0  0
   -5.8110   23.9170  -30.1500 C   0  0  0  0  0  0  0  0  0  0  0  0
   -7.2290   23.6240  -30.5770 C   0  0  0  0  0  0  0  0  0  0  0  0
   -7.3360   22.2220  -31.1280 C   0  0  0  0  0  0  0  0  0  0  0  0
   -6.3320   21.7250  -31.9710 C   0  0  0  0  0  0  0  0  0  0  0  0
   -6.4470   20.4400  -32.5090 C   0  0  0  0  0  0  0  0  0  0  0  0
   -5.4650   19.8990  -33.3590 C   0  0  0  0  0  0  0  0  0  0  0  0
   -4.3600   20.6150  -33.6880 F   0  0  0  0  0  0  0  0  0  0  0  0
   -5.6250   18.6080  -33.8720 C   0  0  0  0  0  0  0  0  0  0  0  0
   -6.7560   17.8540  -33.5450 C   0  0  0  0  0  0  0  0  0  0  0  0
   -7.7360   18.3860  -32.7020 C   0  0  0  0  0  0  0  0  0  0  0  0
   -7.5890   19.6760  -32.1820 C   0  0  0  0  0  0  0  0  0  0  0  0
   -8.5230   20.1780  -31.3820 O   0  0  0  0  0  0  0  0  0  0  0  0
   -8.4440   21.3960  -30.8550 C   0  0  0  0  0  0  0  0  0  0  0  0
   -9.3750   21.8000  -30.1070 O   0  0  0  0  0  0  0  0  0  0  0  0
   -3.3020   22.5160  -28.4520 H   0  0  0  0  0  0  0  0  0  0  0  0
   -5.5863   22.0464  -29.0747 H   0  0  0  0  0  0  0  0  0  0  0  0
   -7.8966   23.7236  -29.7084 H   0  0  0  0  0  0  0  0  0  0  0  0
   -7.5191   24.3380  -31.3619 H   0  0  0  0  0  0  0  0  0  0  0  0
   -5.4552   22.3453  -32.2086 H   0  0  0  0  0  0  0  0  0  0  0  0
   -4.8574   18.1837  -34.5359 H   0  0  0  0  0  0  0  0  0  0  0  0
   -6.8751   16.8391  -33.9523 H   0  0  0  0  0  0  0  0  0  0  0  0
   -8.6242   17.7891  -32.4472 H   0  0  0  0  0  0  0  0  0  0  0  0
  1  2  2  0
  2  3  1  0
  3  4  1  0
  4  5  2  0
  4  6  1  0
  6  7  1  0
  7  8  2  0
  8  9  1  0
  9 10  1  0
 10 11  2  0
 11 12  1  0
 12 13  2  0
 13 14  1  0
 13 15  1  0
 15 16  2  0
 16 17  1  0
 17 18  2  0
 18 19  1  0
 19 20  1  0
 20 21  2  0
  8  2  1  0
 20 10  1  0
 18 12  1  0
  6 22  1  0
  7 23  1  0
  9 24  1  0
  9 25  1  0
 11 26  1  0
 15 27  1  0
 16 28  1  0
 17 29  1  0
M  CHG  1   3  -1
M  END
>  <UniqueID>  (12) 
12

>  <SMILES>  (12) 
O=c1[n-]c(=S)[nH]cc1Cc1cc2c(F)cccc2oc1=O

>  <Energy>  (12) 
37.685493811414155

>  <Genealogy>  (12) 
O=c1[n-]c(=S)[nH]cc1Cc1cc2c(F)cccc2oc1=O (protonated)
O=c1[n-]c(=S)[nH]cc1Cc1cc2c(F)cccc2oc1=O (3D coordinates assigned)
O=c1[n-]c(=S)[nH]cc1Cc1cc2c(F)cccc2oc1=O (optimized conformer: 37.685493811414155 kcal/mol)

>  <smiles>  (12) 
O=c1[nH]c(=S)[nH]cc1Cc1cc2c(F)cccc2oc1=O

>  <score_type>  (12) 
oracle

>  <origin>  (12) 
adgpu

>  <m_score__min__energy>  (12) 
-8.9499999999999993

>  <m_primary>  (12) 
energy

$$$$
12:0
     RDKit          3D

 44 46  0  0  0  0  0  0  0  0999 V2000
    0.3360   18.6390  -29.7520 C   0  0  0  0  0  0  0  0  0  0  0  0
   -0.8700   19.1230  -30.3330 O   0  0  0  0  0  0  0  0  0  0  0  0
   -1.4090   20.3970  -30.0980 C   0  0  0  0  0  0  0  0  0  0  0  0
   -1.5380   21.3550  -31.1200 C   0  0  0  0  0  0  0  0  0  0  0  0
   -2.0540   22.6220  -30.8410 C   0  0  0  0  0  0  0  0  0  0  0  0
   -2.4450   22.9520  -29.5390 C   0  0  0  0  0  0  0  0  0  0  0  0
   -2.9930   24.5810  -29.1470 S   0  0  0  0  0  0  0  0  0  0  0  0
   -3.8850   24.5580  -27.9370 O   0  0  0  0  0  0  0  0  0  0  0  0
   -1.7940   25.4310  -28.8400 O   0  0  0  0  0  0  0  0  0  0  0  0
   -3.8500   25.2730  -30.4970 N   0  0  0  0  0  0  0  0  0  0  0  0
   -5.3010   25.2000  -30.3080 C   0  0  0  0  0  0  0  0  0  0  0  0
   -5.8610   23.9780  -30.9640 C   0  0  0  0  0  0  0  0  0  0  0  0
   -7.1670   23.6120  -30.8620 N   0  0  0  0  0  0  0  0  0  0  0  0
   -7.1500   22.4400  -31.5180 C   0  0  0  0  0  0  0  0  0  0  0  0
   -8.2090   21.6100  -31.6770 N   0  0  0  0  0  0  0  0  0  0  0  0
   -8.0250   20.4240  -32.3320 C   0  0  0  0  0  0  0  0  0  0  0  0
   -9.1820   19.4970  -32.5250 C   0  0  0  0  0  0  0  0  0  0  0  0
   -6.7490   20.0780  -32.8320 C   0  0  0  0  0  0  0  0  0  0  0  0
   -5.6750   20.9620  -32.6300 C   0  0  0  0  0  0  0  0  0  0  0  0
   -4.3120   20.6520  -33.1710 C   0  0  0  0  0  0  0  0  0  0  0  0
   -5.9390   22.1240  -31.9770 N   0  0  0  0  0  0  0  0  0  0  0  0
   -5.0990   23.0830  -31.6400 N   0  0  0  0  0  0  0  0  0  0  0  0
   -2.3460   21.9940  -28.5230 C   0  0  0  0  0  0  0  0  0  0  0  0
   -1.8250   20.7150  -28.7950 C   0  0  0  0  0  0  0  0  0  0  0  0
   -1.6940   19.7360  -27.7960 O   0  0  0  0  0  0  0  0  0  0  0  0
   -2.7280   19.3650  -26.8920 C   0  0  0  0  0  0  0  0  0  0  0  0
    0.2538   18.6720  -28.6556 H   0  0  0  0  0  0  0  0  0  0  0  0
    0.5086   17.6020  -30.0757 H   0  0  0  0  0  0  0  0  0  0  0  0
    1.1776   19.2690  -30.0757 H   0  0  0  0  0  0  0  0  0  0  0  0
   -1.2303   21.1042  -32.1459 H   0  0  0  0  0  0  0  0  0  0  0  0
   -2.1534   23.3632  -31.6477 H   0  0  0  0  0  0  0  0  0  0  0  0
   -5.5232   25.1653  -29.2312 H   0  0  0  0  0  0  0  0  0  0  0  0
   -5.7614   26.0882  -30.7654 H   0  0  0  0  0  0  0  0  0  0  0  0
   -9.5702   19.1859  -31.5439 H   0  0  0  0  0  0  0  0  0  0  0  0
   -9.9751   20.0124  -33.0865 H   0  0  0  0  0  0  0  0  0  0  0  0
   -8.8519   18.6106  -33.0865 H   0  0  0  0  0  0  0  0  0  0  0  0
   -6.5987   19.1310  -33.3712 H   0  0  0  0  0  0  0  0  0  0  0  0
   -3.6136   20.4931  -32.3362 H   0  0  0  0  0  0  0  0  0  0  0  0
   -4.3603   19.7419  -33.7869 H   0  0  0  0  0  0  0  0  0  0  0  0
   -3.9619   21.4935  -33.7869 H   0  0  0  0  0  0  0  0  0  0  0  0
   -2.6779   22.2427  -27.5042 H   0  0  0  0  0  0  0  0  0  0  0  0
   -2.3742   19.4919  -25.8582 H   0  0  0  0  0  0  0  0  0  0  0  0
   -3.6080   20.0035  -27.0594 H   0  0  0  0  0  0  0  0  0  0  0  0
   -3.0013   18.3127  -27.0594 H   0  0  0  0  0  0  0  0  0  0  0  0
  1  2  1  0
  2  3  1  0
  3  4  2  0
  4  5  1  0
  5  6  2  0
  6  7  1  0
  7  8  2  0
  7  9  2  0
  7 10  1  0
 10 11  1  0
 11 12  1  0
 12 13  1  0
 13 14  2  0
 14 15  1  0
 15 16  2  0
 16 17  1  0
 16 18  1  0
 18 19  2  0
 19 20  1  0
 19 21  1  0
 21 22  1  0
  6 23  1  0
 23 24  2  0
 24 25  1  0
 25 26  1  0
 24  3  1  0
 22 12  2  0
 21 14  1  0
  1 27  1  0
  1 28  1  0
  1 29  1  0
  4 30  1  0
  5 31  1  0
 11 32  1  0
 11 33  1  0
 17 34  1  0
 17 35  1  0
 17 36  1  0
 18 37  1  0
 20 38  1  0
 20 39  1  0
 20 40  1  0
 23 41  1  0
 26 42  1  0
 26 43  1  0
 26 44  1  0
M  CHG  1  10  -1
M  END
>  <UniqueID>  (13) 
13

>  <SMILES>  (13) 
COc1ccc(S(=O)(=O)[N-]Cc2nc3nc(C)cc(C)n3n2)cc1OC

>  <Energy>  (13) 
74.45265938031625

>  <Genealogy>  (13) 
COc1ccc(S(=O)(=O)[N-]Cc2nc3nc(C)cc(C)n3n2)cc1OC (protonated)
COc1ccc(S(=O)(=O)[N-]Cc2nc3nc(C)cc(C)n3n2)cc1OC (3D coordinates assigned)
COc1ccc(S(=O)(=O)[N-]Cc2nc3nc(C)cc(C)n3n2)cc1OC (optimized conformer: 74.45265938031625 kcal/mol)

>  <smiles>  (13) 
COc1ccc(S(=O)(=O)NCc2nc3nc(C)cc(C)n3n2)cc1OC

>  <score_type>  (13) 
oracle

>  <origin>  (13) 
adgpu

>  <m_score__min__energy>  (13) 
-9.7599999999999998

>  <m_primary>  (13) 
energy

$$$$
13:0
     RDKit          3D

 59 62  0  0  0  0  0  0  0  0999 V2000
   -1.8050   25.2830  -29.1380 O   0  0  0  0  0  0  0  0  0  0  0  0
   -2.6590   24.5430  -29.6940 C   0  0  0  0  0  0  0  0  0  0  0  0
   -3.9360   25.1040  -30.0310 N   0  0  0  0  0  0  0  0  0  0  0  0
   -5.1280   24.3690  -30.3410 C   0  0  0  0  0  0  0  0  0  0  0  0
   -5.7020   23.4700  -29.4240 C   0  0  0  0  0  0  0  0  0  0  0  0
   -6.8500   22.7510  -29.7710 C   0  0  0  0  0  0  0  0  0  0  0  0
   -7.4310   22.9130  -31.0340 C   0  0  0  0  0  0  0  0  0  0  0  0
   -8.8510   21.9670  -31.4790 S   0  0  0  0  0  0  0  0  0  0  0  0
   -9.7710   22.7980  -32.3290 O   0  0  0  0  0  0  0  0  0  0  0  0
   -9.5820   21.5730  -30.2250 O   0  0  0  0  0  0  0  0  0  0  0  0
   -8.3620   20.5330  -32.3490 N   0  0  0  0  0  0  0  0  0  0  0  0
   -8.8030   19.3250  -31.6160 C   0  0  0  0  0  0  0  0  0  0  0  0
   -8.0210   18.0830  -32.0550 C   0  0  0  0  0  0  0  0  0  0  0  0
   -6.5210   18.2370  -31.7450 C   0  0  0  0  0  0  0  0  0  0  0  0
   -6.0700   19.7090  -31.7140 C   0  0  0  0  0  0  0  0  0  0  0  0
   -6.9130   20.5690  -32.6670 C   0  0  0  0  0  0  0  0  0  0  0  0
   -6.8460   23.7910  -31.9580 C   0  0  0  0  0  0  0  0  0  0  0  0
   -5.6970   24.5090  -31.6120 C   0  0  0  0  0  0  0  0  0  0  0  0
   -2.3430   23.1140  -29.9280 C   0  0  0  0  0  0  0  0  0  0  0  0
   -1.6660   22.3580  -28.9550 C   0  0  0  0  0  0  0  0  0  0  0  0
   -1.3720   21.0120  -29.1850 C   0  0  0  0  0  0  0  0  0  0  0  0
   -1.7390   20.4100  -30.3900 C   0  0  0  0  0  0  0  0  0  0  0  0
   -2.3950   21.1550  -31.3780 C   0  0  0  0  0  0  0  0  0  0  0  0
   -2.8720   20.3980  -32.8980 S   0  0  0  0  0  0  0  0  0  0  0  0
   -4.0490   21.1320  -33.4810 O   0  0  0  0  0  0  0  0  0  0  0  0
   -3.2970   18.9840  -32.6080 O   0  0  0  0  0  0  0  0  0  0  0  0
   -1.5310   20.3750  -34.0270 N   0  0  0  0  0  0  0  0  0  0  0  0
   -1.1040   19.0020  -34.3530 C   0  0  0  0  0  0  0  0  0  0  0  0
   -0.3250   18.3370  -33.1920 C   0  0  0  0  0  0  0  0  0  0  0  0
    0.1790   19.2630  -32.2430 O   0  0  0  0  0  0  0  0  0  0  0  0
    0.7170   20.3890  -32.8980 C   0  0  0  0  0  0  0  0  0  0  0  0
   -0.4050   21.2140  -33.5560 C   0  0  0  0  0  0  0  0  0  0  0  0
   -2.6940   22.5040  -31.1460 C   0  0  0  0  0  0  0  0  0  0  0  0
   -5.2469   23.3323  -28.4321 H   0  0  0  0  0  0  0  0  0  0  0  0
   -7.2988   22.0544  -29.0476 H   0  0  0  0  0  0  0  0  0  0  0  0
   -8.6459   19.4837  -30.5389 H   0  0  0  0  0  0  0  0  0  0  0  0
   -9.8675   19.1576  -31.8369 H   0  0  0  0  0  0  0  0  0  0  0  0
   -8.4106   17.2047  -31.5194 H   0  0  0  0  0  0  0  0  0  0  0  0
   -8.1432   17.9578  -33.1410 H   0  0  0  0  0  0  0  0  0  0  0  0
   -6.3161   17.7852  -30.7632 H   0  0  0  0  0  0  0  0  0  0  0  0
   -5.9619   17.7344  -32.5480 H   0  0  0  0  0  0  0  0  0  0  0  0
   -6.1791   20.0961  -30.6902 H   0  0  0  0  0  0  0  0  0  0  0  0
   -5.0199   19.7581  -32.0377 H   0  0  0  0  0  0  0  0  0  0  0  0
   -6.5649   21.6104  -32.6006 H   0  0  0  0  0  0  0  0  0  0  0  0
   -6.7873   20.1589  -33.6799 H   0  0  0  0  0  0  0  0  0  0  0  0
   -7.2915   23.9150  -32.9561 H   0  0  0  0  0  0  0  0  0  0  0  0
   -5.2370   25.1889  -32.3442 H   0  0  0  0  0  0  0  0  0  0  0  0
   -1.3662   22.8291  -28.0073 H   0  0  0  0  0  0  0  0  0  0  0  0
   -0.8501   20.4250  -28.4149 H   0  0  0  0  0  0  0  0  0  0  0  0
   -1.5123   19.3477  -30.5639 H   0  0  0  0  0  0  0  0  0  0  0  0
   -1.9960   18.3970  -34.5726 H   0  0  0  0  0  0  0  0  0  0  0  0
   -0.4313   19.0564  -35.2216 H   0  0  0  0  0  0  0  0  0  0  0  0
   -1.0006   17.6407  -32.6737 H   0  0  0  0  0  0  0  0  0  0  0  0
    0.5419   17.8258  -33.6361 H   0  0  0  0  0  0  0  0  0  0  0  0
    1.2461   21.0161  -32.1653 H   0  0  0  0  0  0  0  0  0  0  0  0
    1.4143   20.0490  -33.6778 H   0  0  0  0  0  0  0  0  0  0  0  0
   -0.7882   21.9364  -32.8203 H   0  0  0  0  0  0  0  0  0  0  0  0
    0.0245   21.7171  -34.4349 H   0  0  0  0  0  0  0  0  0  0  0  0
   -3.2072   23.0906  -31.9222 H   0  0  0  0  0  0  0  0  0  0  0  0
  1  2  2  0
  2  3  1  0
  3  4  1  0
  4  5  2  0
  5  6  1  0
  6  7  2  0
  7  8  1  0
  8  9  2  0
  8 10  2  0
  8 11  1  0
 11 12  1  0
 12 13  1  0
 13 14  1  0
 14 15  1  0
 15 16  1  0
  7 17  1  0
 17 18  2  0
  2 19  1  0
 19 20  2  0
 20 21  1  0
 21 22  2  0
 22 23  1  0
 23 24  1  0
 24 25  2  0
 24 26  2  0
 24 27  1  0
 27 28  1  0
 28 29  1  0
 29 30  1  0
 30 31  1  0
 31 32  1  0
 23 33  2  0
 18  4  1  0
 33 19  1  0
 16 11  1  0
 32 27  1  0
  5 34  1  0
  6 35  1  0
 12 36  1  0
 12 37  1  0
 13 38  1  0
 13 39  1  0
 14 40  1  0
 14 41  1  0
 15 42  1  0
 15 43  1  0
 16 44  1  0
 16 45  1  0
 17 46  1  0
 18 47  1  0
 20 48  1  0
 21 49  1  0
 22 50  1  0
 28 51  1  0
 28 52  1  0
 29 53  1  0
 29 54  1  0
 31 55  1  0
 31 56  1  0
 32 57  1  0
 32 58  1  0
 33 59  1  0
M  CHG  1   3  -1
M  END
>  <UniqueID>  (14) 
14

>  <SMILES>  (14) 
O=C([N-]c1ccc(S(=O)(=O)N2CCCCC2)cc1)c1cccc(S(=O)(=O)N2CCOCC2)c1

>  <Energy>  (14) 
83.5953243937103

>  <Genealogy>  (14) 
O=C([N-]c1ccc(S(=O)(=O)N2CCCCC2)cc1)c1cccc(S(=O)(=O)N2CCOCC2)c1 (protonated)
O=C([N-]c1ccc(S(=O)(=O)N2CCCCC2)cc1)c1cccc(S(=O)(=O)N2CCOCC2)c1 (3D coordinates assigned)
O=C([N-]c1ccc(S(=O)(=O)N2CCCCC2)cc1)c1cccc(S(=O)(=O)N2CCOCC2)c1 (nonaromatic ring conformer: 83.5953243937103 kcal/mol)

>  <smiles>  (14) 
O=C(Nc1ccc(S(=O)(=O)N2CCCCC2)cc1)c1cccc(S(=O)(=O)N2CCOCC2)c1

>  <score_type>  (14) 
oracle

>  <origin>  (14) 
adgpu

>  <m_score__min__energy>  (14) 
-11.960000000000001

>  <m_primary>  (14) 
energy

$$$$
14:0
     RDKit          3D

 51 53  0  0  0  0  0  0  0  0999 V2000
   -7.9940   22.9960  -31.6340 C   0  0  0  0  0  0  0  0  0  0  0  0
   -6.6630   22.3030  -31.7510 C   0  0  0  0  0  0  0  0  0  0  0  0
   -6.6230   20.8990  -31.6880 C   0  0  0  0  0  0  0  0  0  0  0  0
   -5.4140   20.2160  -31.8400 C   0  0  0  0  0  0  0  0  0  0  0  0
   -4.2320   20.9260  -32.0580 C   0  0  0  0  0  0  0  0  0  0  0  0
   -4.2530   22.3220  -32.1020 C   0  0  0  0  0  0  0  0  0  0  0  0
   -5.4530   23.0210  -31.9200 C   0  0  0  0  0  0  0  0  0  0  0  0
   -5.4190   24.4520  -31.9520 N   0  0  0  0  0  0  0  0  0  0  0  0
   -5.0400   25.2630  -30.8370 C   0  0  0  0  0  0  0  0  0  0  0  0
   -5.9260   25.9220  -30.2300 O   0  0  0  0  0  0  0  0  0  0  0  0
   -3.6730   25.3010  -30.4070 N   0  0  0  0  0  0  0  0  0  0  0  0
   -3.0550   24.4710  -29.4120 C   0  0  0  0  0  0  0  0  0  0  0  0
   -3.6740   23.3100  -28.9340 C   0  0  0  0  0  0  0  0  0  0  0  0
   -3.0540   22.5350  -27.9570 C   0  0  0  0  0  0  0  0  0  0  0  0
   -1.8070   22.9020  -27.4250 C   0  0  0  0  0  0  0  0  0  0  0  0
   -1.2030   22.0160  -26.3680 C   0  0  0  0  0  0  0  0  0  0  0  0
   -1.1870   24.1000  -27.8750 C   0  0  0  0  0  0  0  0  0  0  0  0
    0.3880   24.6750  -27.2660 S   0  0  0  0  0  0  0  0  0  0  0  0
    0.7750   23.8290  -26.0850 O   0  0  0  0  0  0  0  0  0  0  0  0
    1.4750   24.5450  -28.2940 O   0  0  0  0  0  0  0  0  0  0  0  0
    0.2390   26.3920  -26.7370 C   0  0  0  0  0  0  0  0  0  0  0  0
    1.2590   26.7530  -25.6230 C   0  0  0  0  0  0  0  0  0  0  0  0
    0.6100   27.1080  -24.2750 C   0  0  0  0  0  0  0  0  0  0  0  0
   -0.5190   26.1330  -23.9380 C   0  0  0  0  0  0  0  0  0  0  0  0
   -1.6450   26.1540  -24.9920 C   0  0  0  0  0  0  0  0  0  0  0  0
   -1.2150   26.7390  -26.3520 C   0  0  0  0  0  0  0  0  0  0  0  0
   -1.8280   24.8730  -28.8670 C   0  0  0  0  0  0  0  0  0  0  0  0
   -1.2430   26.0480  -29.3280 O   0  0  0  0  0  0  0  0  0  0  0  0
   -8.2467   23.1276  -30.5715 H   0  0  0  0  0  0  0  0  0  0  0  0
   -7.9392   23.9801  -32.1225 H   0  0  0  0  0  0  0  0  0  0  0  0
   -8.7688   22.3868  -32.1225 H   0  0  0  0  0  0  0  0  0  0  0  0
   -7.5512   20.3338  -31.5176 H   0  0  0  0  0  0  0  0  0  0  0  0
   -5.3933   19.1174  -31.7879 H   0  0  0  0  0  0  0  0  0  0  0  0
   -3.2836   20.3859  -32.1952 H   0  0  0  0  0  0  0  0  0  0  0  0
   -3.3200   22.8766  -32.2809 H   0  0  0  0  0  0  0  0  0  0  0  0
   -4.6543   23.0085  -29.3317 H   0  0  0  0  0  0  0  0  0  0  0  0
   -3.5487   21.6211  -27.5963 H   0  0  0  0  0  0  0  0  0  0  0  0
   -1.4660   22.4018  -25.3720 H   0  0  0  0  0  0  0  0  0  0  0  0
   -1.5930   20.9936  -26.4799 H   0  0  0  0  0  0  0  0  0  0  0  0
   -0.1088   22.0054  -26.4799 H   0  0  0  0  0  0  0  0  0  0  0  0
    0.4980   27.0254  -27.5983 H   0  0  0  0  0  0  0  0  0  0  0  0
    1.9248   25.8908  -25.4704 H   0  0  0  0  0  0  0  0  0  0  0  0
    1.7992   27.6489  -25.9630 H   0  0  0  0  0  0  0  0  0  0  0  0
    1.3736   27.0616  -23.4846 H   0  0  0  0  0  0  0  0  0  0  0  0
    0.1891   28.1219  -24.3443 H   0  0  0  0  0  0  0  0  0  0  0  0
   -0.1037   25.1158  -23.8843 H   0  0  0  0  0  0  0  0  0  0  0  0
   -0.9534   26.4410  -22.9755 H   0  0  0  0  0  0  0  0  0  0  0  0
   -1.9892   25.1216  -25.1520 H   0  0  0  0  0  0  0  0  0  0  0  0
   -2.4385   26.8069  -24.5994 H   0  0  0  0  0  0  0  0  0  0  0  0
   -1.8853   26.3434  -27.1293 H   0  0  0  0  0  0  0  0  0  0  0  0
   -1.2760   27.8341  -26.2681 H   0  0  0  0  0  0  0  0  0  0  0  0
  1  2  1  0
  2  3  2  0
  3  4  1  0
  4  5  2  0
  5  6  1  0
  6  7  2  0
  7  8  1  0
  8  9  1  0
  9 10  2  0
  9 11  1  0
 11 12  1  0
 12 13  2  0
 13 14  1  0
 14 15  2  0
 15 16  1  0
 15 17  1  0
 17 18  1  0
 18 19  2  0
 18 20  2  0
 18 21  1  0
 21 22  1  0
 22 23  1  0
 23 24  1  0
 24 25  1  0
 25 26  1  0
 17 27  2  0
 27 28  1  0
  7  2  1  0
 27 12  1  0
 26 21  1  0
  1 29  1  0
  1 30  1  0
  1 31  1  0
  3 32  1  0
  4 33  1  0
  5 34  1  0
  6 35  1  0
 13 36  1  0
 14 37  1  0
 16 38  1  0
 16 39  1  0
 16 40  1  0
 21 41  1  0
 22 42  1  0
 22 43  1  0
 23 44  1  0
 23 45  1  0
 24 46  1  0
 24 47  1  0
 25 48  1  0
 25 49  1  0
 26 50  1  0
 26 51  1  0
M  CHG  3   8  -1  11  -1  28  -1
M  END
>  <UniqueID>  (15) 
15

>  <SMILES>  (15) 
Cc1ccccc1[N-]C(=O)[N-]c1ccc(C)c(S(=O)(=O)C2CCCCC2)c1[O-]

>  <Energy>  (15) 
67.12555438334803

>  <Genealogy>  (15) 
Cc1ccccc1[N-]C(=O)[N-]c1ccc(C)c(S(=O)(=O)C2CCCCC2)c1[O-] (protonated)
Cc1ccccc1[N-]C(=O)[N-]c1ccc(C)c(S(=O)(=O)C2CCCCC2)c1[O-] (3D coordinates assigned)
Cc1ccccc1[N-]C(=O)[N-]c1ccc(C)c(S(=O)(=O)C2CCCCC2)c1[O-] (nonaromatic ring conformer: 67.12555438334803 kcal/mol)

>  <smiles>  (15) 
Cc1ccccc1NC(=O)Nc1ccc(C)c(S(=O)(=O)C2CCCCC2)c1O

>  <score_type>  (15) 
oracle

>  <origin>  (15) 
adgpu

>  <m_score__min__energy>  (15) 
-15.48

>  <m_primary>  (15) 
energy

$$$$
15:0
     RDKit          3D

 37 39  0  0  0  0  0  0  0  0999 V2000
   -4.1870   20.1520  -31.2370 O   0  0  0  0  0  0  0  0  0  0  0  0
   -4.0560   20.7160  -32.3580 C   0  0  0  0  0  0  0  0  0  0  0  0
   -5.1170   21.5370  -32.8710 N   0  0  0  0  0  0  0  0  0  0  0  0
   -6.4620   21.4640  -32.3780 C   0  0  0  0  0  0  0  0  0  0  0  0
   -7.3010   20.4430  -32.8490 C   0  0  0  0  0  0  0  0  0  0  0  0
   -8.6230   20.3530  -32.4100 C   0  0  0  0  0  0  0  0  0  0  0  0
   -9.1180   21.2730  -31.4840 C   0  0  0  0  0  0  0  0  0  0  0  0
   -8.2860   22.2780  -30.9840 C   0  0  0  0  0  0  0  0  0  0  0  0
   -6.9510   22.3790  -31.4130 C   0  0  0  0  0  0  0  0  0  0  0  0
   -6.0890   23.3700  -30.8250 N   0  0  0  0  0  0  0  0  0  0  0  0
   -4.9410   22.9490  -30.0120 C   0  0  0  0  0  0  0  0  0  0  0  0
   -3.7880   23.9770  -30.0840 C   0  0  0  0  0  0  0  0  0  0  0  0
   -4.1110   25.1300  -30.8420 O   0  0  0  0  0  0  0  0  0  0  0  0
   -5.3330   25.6730  -30.3880 C   0  0  0  0  0  0  0  0  0  0  0  0
   -6.4910   24.7810  -30.8400 C   0  0  0  0  0  0  0  0  0  0  0  0
   -2.8110   20.5380  -33.1320 C   0  0  0  0  0  0  0  0  0  0  0  0
   -2.5610   19.3590  -33.8520 C   0  0  0  0  0  0  0  0  0  0  0  0
   -1.4130   19.2430  -34.5720 N   0  0  0  0  0  0  0  0  0  0  0  0
   -0.5010   20.2490  -34.6090 C   0  0  0  0  0  0  0  0  0  0  0  0
   -0.7470   21.4250  -33.8990 C   0  0  0  0  0  0  0  0  0  0  0  0
   -1.8930   21.5420  -33.1800 N   0  0  0  0  0  0  0  0  0  0  0  0
   -4.8800   22.3020  -33.5420 H   0  0  0  0  0  0  0  0  0  0  0  0
   -6.9141   19.7077  -33.5698 H   0  0  0  0  0  0  0  0  0  0  0  0
   -9.2760   19.5556  -32.7944 H   0  0  0  0  0  0  0  0  0  0  0  0
  -10.1633   21.2067  -31.1479 H   0  0  0  0  0  0  0  0  0  0  0  0
   -8.6787   22.9959  -30.2488 H   0  0  0  0  0  0  0  0  0  0  0  0
   -5.2630   22.8458  -28.9653 H   0  0  0  0  0  0  0  0  0  0  0  0
   -4.5731   21.9897  -30.4050 H   0  0  0  0  0  0  0  0  0  0  0  0
   -3.5363   24.2914  -29.0604 H   0  0  0  0  0  0  0  0  0  0  0  0
   -2.9427   23.4836  -30.5860 H   0  0  0  0  0  0  0  0  0  0  0  0
   -5.3224   25.7304  -29.2895 H   0  0  0  0  0  0  0  0  0  0  0  0
   -5.4631   26.6811  -30.8084 H   0  0  0  0  0  0  0  0  0  0  0  0
   -7.3434   24.9218  -30.1592 H   0  0  0  0  0  0  0  0  0  0  0  0
   -6.7749   25.0591  -31.8657 H   0  0  0  0  0  0  0  0  0  0  0  0
   -3.2888   18.5344  -33.8339 H   0  0  0  0  0  0  0  0  0  0  0  0
    0.4239   20.1376  -35.1939 H   0  0  0  0  0  0  0  0  0  0  0  0
   -0.0193   22.2496  -33.9216 H   0  0  0  0  0  0  0  0  0  0  0  0
  1  2  2  0
  2  3  1  0
  3  4  1  0
  4  5  2  0
  5  6  1  0
  6  7  2  0
  7  8  1  0
  8  9  2  0
  9 10  1  0
 10 11  1  0
 11 12  1  0
 12 13  1  0
 13 14  1  0
 14 15  1  0
  2 16  1  0
 16 17  2  0
 17 18  1  0
 18 19  2  0
 19 20  1  0
 20 21  2  0
  9  4  1  0
 15 10  1  0
 21 16  1  0
  3 22  1  0
  5 23  1  0
  6 24  1  0
  7 25  1  0
  8 26  1  0
 11 27  1  0
 11 28  1  0
 12 29  1  0
 12 30  1  0
 14 31  1  0
 14 32  1  0
 15 33  1  0
 15 34  1  0
 17 35  1  0
 19 36  1  0
 20 37  1  0
M  END
>  <UniqueID>  (16) 
16

>  <SMILES>  (16) 
O=C(Nc1ccccc1N1CCOCC1)c1cnccn1

>  <Energy>  (16) 
55.06528374119177

>  <Genealogy>  (16) 
O=C(Nc1ccccc1N1CCOCC1)c1cnccn1 (3D coordinates assigned)
O=C(Nc1ccccc1N1CCOCC1)c1cnccn1 (nonaromatic ring conformer: 55.06528374119177 kcal/mol)

>  <smiles>  (16) 
O=C(Nc1ccccc1N1CCOCC1)c1cnccn1

>  <score_type>  (16) 
oracle

>  <origin>  (16) 
adgpu

>  <m_score__min__energy>  (16) 
-7.7199999999999998

>  <m_primary>  (16) 
energy

$$$$
16:0
     RDKit          3D

 48 50  0  0  0  0  0  0  0  0999 V2000
   -1.7250   20.8640  -34.1210 N   0  0  0  0  0  0  0  0  0  0  0  0
   -0.8650   20.9930  -32.9830 C   0  0  0  0  0  0  0  0  0  0  0  0
    0.3290   21.4830  -33.1290 N   0  0  0  0  0  0  0  0  0  0  0  0
   -1.3120   20.5030  -31.7080 N   0  0  0  0  0  0  0  0  0  0  0  0
   -0.9140   21.0540  -30.4410 C   0  0  0  0  0  0  0  0  0  0  0  0
   -0.1020   20.2970  -29.5840 C   0  0  0  0  0  0  0  0  0  0  0  0
    0.2790   20.8050  -28.3390 C   0  0  0  0  0  0  0  0  0  0  0  0
    1.0750   20.0690  -27.5230 F   0  0  0  0  0  0  0  0  0  0  0  0
   -0.1560   22.0700  -27.9360 C   0  0  0  0  0  0  0  0  0  0  0  0
   -0.9840   22.8290  -28.7740 C   0  0  0  0  0  0  0  0  0  0  0  0
   -1.5120   24.4320  -28.2700 S   0  0  0  0  0  0  0  0  0  0  0  0
   -2.1030   24.3850  -26.8890 O   0  0  0  0  0  0  0  0  0  0  0  0
   -0.3260   25.3510  -28.2630 O   0  0  0  0  0  0  0  0  0  0  0  0
   -2.7040   25.0470  -29.3700 N   0  0  0  0  0  0  0  0  0  0  0  0
   -3.8230   24.3080  -29.8760 C   0  0  0  0  0  0  0  0  0  0  0  0
   -5.0830   24.5300  -29.3060 C   0  0  0  0  0  0  0  0  0  0  0  0
   -6.2040   23.8430  -29.7800 C   0  0  0  0  0  0  0  0  0  0  0  0
   -6.0770   22.9380  -30.8370 C   0  0  0  0  0  0  0  0  0  0  0  0
   -4.8230   22.7000  -31.4120 C   0  0  0  0  0  0  0  0  0  0  0  0
   -4.6660   21.5620  -32.7470 S   0  0  0  0  0  0  0  0  0  0  0  0
   -3.9510   20.3160  -32.3030 O   0  0  0  0  0  0  0  0  0  0  0  0
   -3.8790   22.2140  -33.8490 O   0  0  0  0  0  0  0  0  0  0  0  0
   -6.2340   21.1300  -33.3480 N   0  0  0  0  0  0  0  0  0  0  0  0
   -7.1150   20.1730  -32.7430 C   0  0  0  0  0  0  0  0  0  0  0  0
   -8.2890   20.5580  -32.0700 C   0  0  0  0  0  0  0  0  0  0  0  0
   -9.1200   19.5890  -31.4980 C   0  0  0  0  0  0  0  0  0  0  0  0
   -8.7880   18.2350  -31.5910 C   0  0  0  0  0  0  0  0  0  0  0  0
   -7.6200   17.8470  -32.2530 C   0  0  0  0  0  0  0  0  0  0  0  0
   -6.7880   18.8130  -32.8280 C   0  0  0  0  0  0  0  0  0  0  0  0
   -3.6970   23.3820  -30.9290 C   0  0  0  0  0  0  0  0  0  0  0  0
   -1.3710   22.3150  -30.0180 C   0  0  0  0  0  0  0  0  0  0  0  0
   -2.6740   20.4400  -34.0180 H   0  0  0  0  0  0  0  0  0  0  0  0
   -1.4230   21.1970  -35.0630 H   0  0  0  0  0  0  0  0  0  0  0  0
    1.0020   21.5260  -32.3310 H   0  0  0  0  0  0  0  0  0  0  0  0
    0.6580   21.8210  -34.0610 H   0  0  0  0  0  0  0  0  0  0  0  0
   -1.9870   19.7050  -31.7050 H   0  0  0  0  0  0  0  0  0  0  0  0
    0.2371   19.2974  -29.8936 H   0  0  0  0  0  0  0  0  0  0  0  0
    0.1520   22.4710  -26.9591 H   0  0  0  0  0  0  0  0  0  0  0  0
   -5.1909   25.2491  -28.4806 H   0  0  0  0  0  0  0  0  0  0  0  0
   -7.1883   24.0151  -29.3200 H   0  0  0  0  0  0  0  0  0  0  0  0
   -6.9643   22.4114  -31.2182 H   0  0  0  0  0  0  0  0  0  0  0  0
   -8.5539   21.6229  -31.9935 H   0  0  0  0  0  0  0  0  0  0  0  0
  -10.0375   19.8939  -30.9734 H   0  0  0  0  0  0  0  0  0  0  0  0
   -9.4454   17.4750  -31.1435 H   0  0  0  0  0  0  0  0  0  0  0  0
   -7.3550   16.7816  -32.3218 H   0  0  0  0  0  0  0  0  0  0  0  0
   -5.8709   18.5032  -33.3504 H   0  0  0  0  0  0  0  0  0  0  0  0
   -2.7097   23.1924  -31.3754 H   0  0  0  0  0  0  0  0  0  0  0  0
   -2.0367   22.9014  -30.6684 H   0  0  0  0  0  0  0  0  0  0  0  0
  1  2  1  0
  2  3  2  0
  2  4  1  0
  4  5  1  0
  5  6  2  0
  6  7  1  0
  7  8  1  0
  7  9  2  0
  9 10  1  0
 10 11  1  0
 11 12  2  0
 11 13  2  0
 11 14  1  0
 14 15  1  0
 15 16  2  0
 16 17  1  0
 17 18  2  0
 18 19  1  0
 19 20  1  0
 20 21  2  0
 20 22  2  0
 20 23  1  0
 23 24  1  0
 24 25  2  0
 25 26  1  0
 26 27  2  0
 27 28  1  0
 28 29  2  0
 19 30  2  0
 10 31  2  0
 31  5  1  0
 30 15  1  0
 29 24  1  0
  1 32  1  0
  1 33  1  0
  3 34  1  0
  3 35  1  0
  4 36  1  0
  6 37  1  0
  9 38  1  0
 16 39  1  0
 17 40  1  0
 18 41  1  0
 25 42  1  0
 26 43  1  0
 27 44  1  0
 28 45  1  0
 29 46  1  0
 30 47  1  0
 31 48  1  0
M  CHG  3   3   1  14  -1  23  -1
M  END
>  <UniqueID>  (17) 
17

>  <SMILES>  (17) 
NC(=[NH2+])Nc1cc(F)cc(S(=O)(=O)[N-]c2cccc(S(=O)(=O)[N-]c3ccccc3)c2)c1

>  <Energy>  (17) 
57.88441126800312

>  <Genealogy>  (17) 
NC(=[NH2+])Nc1cc(F)cc(S(=O)(=O)[N-]c2cccc(S(=O)(=O)[N-]c3ccccc3)c2)c1 (protonated)
NC(=[NH2+])Nc1cc(F)cc(S(=O)(=O)[N-]c2cccc(S(=O)(=O)[N-]c3ccccc3)c2)c1 (3D coordinates assigned)
NC(=[NH2+])Nc1cc(F)cc(S(=O)(=O)[N-]c2cccc(S(=O)(=O)[N-]c3ccccc3)c2)c1 (optimized conformer: 57.88441126800312 kcal/mol)

>  <smiles>  (17) 
N=C(N)Nc1cc(F)cc(S(=O)(=O)Nc2cccc(S(=O)(=O)Nc3ccccc3)c2)c1

>  <score_type>  (17) 
oracle

>  <origin>  (17) 
adgpu

>  <m_score__min__energy>  (17) 
-11.16

>  <m_primary>  (17) 
energy

$$$$
17:0
     RDKit          3D

 57 60  0  0  0  0  0  0  0  0999 V2000
    2.0030   25.6350  -25.9510 C   0  0  0  0  0  0  0  0  0  0  0  0
    0.6590   25.3220  -26.5310 C   0  0  0  0  0  0  0  0  0  0  0  0
    0.4930   24.9510  -27.8280 N   0  0  0  0  0  0  0  0  0  0  0  0
   -0.8380   24.7720  -27.9230 C   0  0  0  0  0  0  0  0  0  0  0  0
   -1.5600   24.3740  -29.0450 C   0  0  0  0  0  0  0  0  0  0  0  0
   -2.9630   24.2190  -28.9140 C   0  0  0  0  0  0  0  0  0  0  0  0
   -3.7840   23.8540  -30.0360 N   0  0  0  0  0  0  0  0  0  0  0  0
   -4.5940   24.7800  -30.7850 C   0  0  0  0  0  0  0  0  0  0  0  0
   -4.6350   25.9970  -30.4700 O   0  0  0  0  0  0  0  0  0  0  0  0
   -5.3720   24.3310  -31.9020 N   0  0  0  0  0  0  0  0  0  0  0  0
   -6.1410   23.1210  -31.9380 C   0  0  0  0  0  0  0  0  0  0  0  0
   -7.5330   23.2080  -31.9170 C   0  0  0  0  0  0  0  0  0  0  0  0
   -8.3110   22.0540  -31.9300 C   0  0  0  0  0  0  0  0  0  0  0  0
   -7.7120   20.7900  -31.9850 C   0  0  0  0  0  0  0  0  0  0  0  0
   -8.7870   19.3980  -31.9280 Cl  0  0  0  0  0  0  0  0  0  0  0  0
   -6.3020   20.6820  -32.0640 C   0  0  0  0  0  0  0  0  0  0  0  0
   -5.4590   19.1150  -32.1390 S   0  0  0  0  0  0  0  0  0  0  0  0
   -5.7800   18.3330  -30.8950 O   0  0  0  0  0  0  0  0  0  0  0  0
   -3.9670   19.2810  -32.2050 O   0  0  0  0  0  0  0  0  0  0  0  0
   -6.0280   18.1990  -33.5760 C   0  0  0  0  0  0  0  0  0  0  0  0
   -6.8170   16.9490  -33.1320 C   0  0  0  0  0  0  0  0  0  0  0  0
   -6.8190   15.8790  -34.2340 C   0  0  0  0  0  0  0  0  0  0  0  0
   -5.4500   15.4220  -34.5930 N   0  0  0  0  0  0  0  0  0  0  0  0
   -5.1370   14.1290  -33.9670 C   0  0  0  0  0  0  0  0  0  0  0  0
   -4.3790   16.4060  -34.3020 C   0  0  0  0  0  0  0  0  0  0  0  0
   -4.8590   17.8440  -34.5250 C   0  0  0  0  0  0  0  0  0  0  0  0
   -5.5240   21.8600  -32.0460 C   0  0  0  0  0  0  0  0  0  0  0  0
   -4.1370   21.7790  -32.1530 O   0  0  0  0  0  0  0  0  0  0  0  0
   -3.5840   24.4950  -27.6690 C   0  0  0  0  0  0  0  0  0  0  0  0
   -2.8220   24.8970  -26.5560 C   0  0  0  0  0  0  0  0  0  0  0  0
   -1.4440   25.0310  -26.7290 C   0  0  0  0  0  0  0  0  0  0  0  0
   -0.5090   25.4030  -25.8380 N   0  0  0  0  0  0  0  0  0  0  0  0
   -0.7020   25.7240  -24.4260 C   0  0  0  0  0  0  0  0  0  0  0  0
    1.9408   25.6205  -24.8529 H   0  0  0  0  0  0  0  0  0  0  0  0
    2.7316   24.8825  -26.2870 H   0  0  0  0  0  0  0  0  0  0  0  0
    2.3242   26.6320  -26.2870 H   0  0  0  0  0  0  0  0  0  0  0  0
   -1.0566   24.1854  -30.0047 H   0  0  0  0  0  0  0  0  0  0  0  0
   -3.7220   22.8650  -30.3670 H   0  0  0  0  0  0  0  0  0  0  0  0
   -8.0188   24.1946  -31.8900 H   0  0  0  0  0  0  0  0  0  0  0  0
   -9.4074   22.1360  -31.8967 H   0  0  0  0  0  0  0  0  0  0  0  0
   -6.7097   18.8422  -34.1519 H   0  0  0  0  0  0  0  0  0  0  0  0
   -6.3511   16.5323  -32.2269 H   0  0  0  0  0  0  0  0  0  0  0  0
   -7.8568   17.2448  -32.9290 H   0  0  0  0  0  0  0  0  0  0  0  0
   -7.3982   15.0126  -33.8821 H   0  0  0  0  0  0  0  0  0  0  0  0
   -7.2654   16.3289  -35.1330 H   0  0  0  0  0  0  0  0  0  0  0  0
   -5.1628   14.2357  -32.8725 H   0  0  0  0  0  0  0  0  0  0  0  0
   -5.8799   13.3806  -34.2801 H   0  0  0  0  0  0  0  0  0  0  0  0
   -4.1341   13.8033  -34.2801 H   0  0  0  0  0  0  0  0  0  0  0  0
   -4.0653   16.2928  -33.2538 H   0  0  0  0  0  0  0  0  0  0  0  0
   -3.5394   16.2134  -34.9861 H   0  0  0  0  0  0  0  0  0  0  0  0
   -4.0231   18.5341  -34.3378 H   0  0  0  0  0  0  0  0  0  0  0  0
   -5.2135   17.9352  -35.5623 H   0  0  0  0  0  0  0  0  0  0  0  0
   -4.6750   24.3936  -27.5721 H   0  0  0  0  0  0  0  0  0  0  0  0
   -3.2961   25.0984  -25.5841 H   0  0  0  0  0  0  0  0  0  0  0  0
   -0.2339   24.9455  -23.8057 H   0  0  0  0  0  0  0  0  0  0  0  0
   -0.2390   26.6969  -24.2045 H   0  0  0  0  0  0  0  0  0  0  0  0
   -1.7784   25.7713  -24.2045 H   0  0  0  0  0  0  0  0  0  0  0  0
  1  2  1  0
  2  3  2  0
  3  4  1  0
  4  5  2  0
  5  6  1  0
  6  7  1  0
  7  8  1  0
  8  9  2  0
  8 10  1  0
 10 11  1  0
 11 12  2  0
 12 13  1  0
 13 14  2  0
 14 15  1  0
 14 16  1  0
 16 17  1  0
 17 18  2  0
 17 19  2  0
 17 20  1  0
 20 21  1  0
 21 22  1  0
 22 23  1  0
 23 24  1  0
 23 25  1  0
 25 26  1  0
 16 27  2  0
 27 28  1  0
  6 29  2  0
 29 30  1  0
 30 31  2  0
 31 32  1  0
 32 33  1  0
 32  2  1  0
 31  4  1  0
 27 11  1  0
 26 20  1  0
  1 34  1  0
  1 35  1  0
  1 36  1  0
  5 37  1  0
  7 38  1  0
 12 39  1  0
 13 40  1  0
 20 41  1  0
 21 42  1  0
 21 43  1  0
 22 44  1  0
 22 45  1  0
 24 46  1  0
 24 47  1  0
 24 48  1  0
 25 49  1  0
 25 50  1  0
 26 51  1  0
 26 52  1  0
 29 53  1  0
 30 54  1  0
 33 55  1  0
 33 56  1  0
 33 57  1  0
M  CHG  2  10  -1  28  -1
M  END
>  <UniqueID>  (18) 
18

>  <SMILES>  (18) 
Cc1nc2cc(NC(=O)[N-]c3ccc(Cl)c(S(=O)(=O)C4CCN(C)CC4)c3[O-])ccc2n1C

>  <Energy>  (18) 
113.70618261960308

>  <Genealogy>  (18) 
Cc1nc2cc(NC(=O)[N-]c3ccc(Cl)c(S(=O)(=O)C4CCN(C)CC4)c3[O-])ccc2n1C (protonated)
Cc1nc2cc(NC(=O)[N-]c3ccc(Cl)c(S(=O)(=O)C4CCN(C)CC4)c3[O-])ccc2n1C (3D coordinates assigned)
Cc1nc2cc(NC(=O)[N-]c3ccc(Cl)c(S(=O)(=O)C4CCN(C)CC4)c3[O-])ccc2n1C (nonaromatic ring conformer: 113.70618261960308 kcal/mol)

>  <smiles>  (18) 
Cc1nc2cc(NC(=O)Nc3ccc(Cl)c(S(=O)(=O)C4CCN(C)CC4)c3O)ccc2n1C

>  <score_type>  (18) 
oracle

>  <origin>  (18) 
adgpu

>  <m_score__min__energy>  (18) 
-11.890000000000001

>  <m_primary>  (18) 
energy

$$$$
18:0
     RDKit          3D

 37 39  0  0  0  0  0  0  0  0999 V2000
   -6.5020   25.9770  -29.0980 N   0  0  0  0  0  0  0  0  0  0  0  0
   -5.3310   24.9120  -29.7920 S   0  0  0  0  0  0  0  0  0  0  0  0
   -4.4440   24.3660  -28.7080 O   0  0  0  0  0  0  0  0  0  0  0  0
   -4.4810   25.6710  -30.7710 O   0  0  0  0  0  0  0  0  0  0  0  0
   -6.1500   23.5880  -30.6150 C   0  0  0  0  0  0  0  0  0  0  0  0
   -6.8030   22.5930  -29.8750 C   0  0  0  0  0  0  0  0  0  0  0  0
   -7.4680   21.5520  -30.5290 C   0  0  0  0  0  0  0  0  0  0  0  0
   -7.4900   21.4950  -31.9310 C   0  0  0  0  0  0  0  0  0  0  0  0
   -8.2280   20.3880  -32.6290 C   0  0  0  0  0  0  0  0  0  0  0  0
   -8.0310   18.8140  -31.7210 S   0  0  0  0  0  0  0  0  0  0  0  0
   -6.9660   18.0520  -32.9510 C   0  0  0  0  0  0  0  0  0  0  0  0
   -7.2880   16.9110  -33.5940 N   0  0  0  0  0  0  0  0  0  0  0  0
   -6.2550   16.5880  -34.3580 N   0  0  0  0  0  0  0  0  0  0  0  0
   -5.3200   17.5310  -34.1510 C   0  0  0  0  0  0  0  0  0  0  0  0
   -4.1960   17.5300  -34.7210 O   0  0  0  0  0  0  0  0  0  0  0  0
   -5.7240   18.4720  -33.2760 N   0  0  0  0  0  0  0  0  0  0  0  0
   -4.9580   19.5600  -32.7270 C   0  0  0  0  0  0  0  0  0  0  0  0
   -4.8000   19.6800  -31.3350 C   0  0  0  0  0  0  0  0  0  0  0  0
   -4.0560   20.7340  -30.7960 C   0  0  0  0  0  0  0  0  0  0  0  0
   -3.4610   21.6750  -31.6410 C   0  0  0  0  0  0  0  0  0  0  0  0
   -3.6070   21.5600  -33.0260 C   0  0  0  0  0  0  0  0  0  0  0  0
   -4.3500   20.5080  -33.5680 C   0  0  0  0  0  0  0  0  0  0  0  0
   -6.8440   22.4990  -32.6700 C   0  0  0  0  0  0  0  0  0  0  0  0
   -6.1790   23.5400  -32.0150 C   0  0  0  0  0  0  0  0  0  0  0  0
   -5.9920   26.8420  -28.8070 H   0  0  0  0  0  0  0  0  0  0  0  0
   -6.8470   25.5230  -28.2230 H   0  0  0  0  0  0  0  0  0  0  0  0
   -6.7922   22.6314  -28.7757 H   0  0  0  0  0  0  0  0  0  0  0  0
   -7.9767   20.7734  -29.9417 H   0  0  0  0  0  0  0  0  0  0  0  0
   -9.2966   20.6433  -32.6829 H   0  0  0  0  0  0  0  0  0  0  0  0
   -7.8147   20.2684  -33.6414 H   0  0  0  0  0  0  0  0  0  0  0  0
   -5.2644   18.9404  -30.6662 H   0  0  0  0  0  0  0  0  0  0  0  0
   -3.9388   20.8227  -29.7059 H   0  0  0  0  0  0  0  0  0  0  0  0
   -2.8782   22.5055  -31.2161 H   0  0  0  0  0  0  0  0  0  0  0  0
   -3.1361   22.2991  -33.6909 H   0  0  0  0  0  0  0  0  0  0  0  0
   -4.4597   20.4213  -34.6591 H   0  0  0  0  0  0  0  0  0  0  0  0
   -6.8612   22.4664  -33.7694 H   0  0  0  0  0  0  0  0  0  0  0  0
   -5.6769   24.3240  -32.6008 H   0  0  0  0  0  0  0  0  0  0  0  0
  1  2  1  0
  2  3  2  0
  2  4  2  0
  2  5  1  0
  5  6  2  0
  6  7  1  0
  7  8  2  0
  8  9  1  0
  9 10  1  0
 10 11  1  0
 11 12  2  0
 12 13  1  0
 13 14  1  0
 14 15  2  0
 14 16  1  0
 16 17  1  0
 17 18  2  0
 18 19  1  0
 19 20  2  0
 20 21  1  0
 21 22  2  0
  8 23  1  0
 23 24  2  0
 24  5  1  0
 16 11  1  0
 22 17  1  0
  1 25  1  0
  1 26  1  0
  6 27  1  0
  7 28  1  0
  9 29  1  0
  9 30  1  0
 18 31  1  0
 19 32  1  0
 20 33  1  0
 21 34  1  0
 22 35  1  0
 23 36  1  0
 24 37  1  0
M  CHG  1  13  -1
M  END
>  <UniqueID>  (19) 
19

>  <SMILES>  (19) 
NS(=O)(=O)c1ccc(CSc2n[n-]c(=O)n2-c2ccccc2)cc1

>  <Energy>  (19) 
76.43012134185967

>  <Genealogy>  (19) 
NS(=O)(=O)c1ccc(CSc2n[n-]c(=O)n2-c2ccccc2)cc1 (protonated)
NS(=O)(=O)c1ccc(CSc2n[n-]c(=O)n2-c2ccccc2)cc1 (3D coordinates assigned)
NS(=O)(=O)c1ccc(CSc2n[n-]c(=O)n2-c2ccccc2)cc1 (optimized conformer: 76.43012134185967 kcal/mol)

>  <smiles>  (19) 
NS(=O)(=O)c1ccc(CSc2n[nH]c(=O)n2-c2ccccc2)cc1

>  <score_type>  (19) 
oracle

>  <origin>  (19) 
adgpu

>  <m_score__min__energy>  (19) 
-9.3499999999999996

>  <m_primary>  (19) 
energy

$$$$
19:0
     RDKit          3D

 51 54  0  0  0  0  0  0  0  0999 V2000
   -5.5040   21.4850  -32.6970 C   0  0  0  0  0  0  0  0  0  0  0  0
   -6.2410   20.1810  -32.5480 C   0  0  0  0  0  0  0  0  0  0  0  0
   -7.3870   20.1300  -31.7350 C   0  0  0  0  0  0  0  0  0  0  0  0
   -8.1020   18.9390  -31.5910 C   0  0  0  0  0  0  0  0  0  0  0  0
   -7.6790   17.7870  -32.2500 C   0  0  0  0  0  0  0  0  0  0  0  0
   -6.5380   17.8180  -33.0540 C   0  0  0  0  0  0  0  0  0  0  0  0
   -5.8060   19.0110  -33.2170 C   0  0  0  0  0  0  0  0  0  0  0  0
   -4.6300   19.0330  -34.0470 N   0  0  0  0  0  0  0  0  0  0  0  0
   -3.1030   18.3960  -33.5240 S   0  0  0  0  0  0  0  0  0  0  0  0
   -2.2930   18.0030  -34.7280 O   0  0  0  0  0  0  0  0  0  0  0  0
   -3.3350   17.1810  -32.6700 O   0  0  0  0  0  0  0  0  0  0  0  0
   -2.2550   19.6060  -32.5650 C   0  0  0  0  0  0  0  0  0  0  0  0
   -1.3750   19.1960  -31.5550 C   0  0  0  0  0  0  0  0  0  0  0  0
   -0.7230   20.1440  -30.7620 C   0  0  0  0  0  0  0  0  0  0  0  0
   -0.9340   21.5140  -30.9790 C   0  0  0  0  0  0  0  0  0  0  0  0
   -0.2700   22.5340  -30.0950 C   0  0  0  0  0  0  0  0  0  0  0  0
   -1.1030   22.7750  -28.8320 C   0  0  0  0  0  0  0  0  0  0  0  0
   -2.5690   22.8980  -29.1780 C   0  0  0  0  0  0  0  0  0  0  0  0
   -3.1190   24.1430  -29.5330 C   0  0  0  0  0  0  0  0  0  0  0  0
   -2.3090   25.2740  -29.5940 O   0  0  0  0  0  0  0  0  0  0  0  0
   -4.4890   24.2360  -29.8210 C   0  0  0  0  0  0  0  0  0  0  0  0
   -5.0920   25.4510  -30.1930 C   0  0  0  0  0  0  0  0  0  0  0  0
   -6.4610   25.4960  -30.4710 C   0  0  0  0  0  0  0  0  0  0  0  0
   -7.2370   24.3370  -30.3800 C   0  0  0  0  0  0  0  0  0  0  0  0
   -6.6460   23.1250  -30.0090 C   0  0  0  0  0  0  0  0  0  0  0  0
   -5.2770   23.0680  -29.7290 C   0  0  0  0  0  0  0  0  0  0  0  0
   -4.7250   21.9140  -29.3730 O   0  0  0  0  0  0  0  0  0  0  0  0
   -3.4320   21.7860  -29.0940 C   0  0  0  0  0  0  0  0  0  0  0  0
   -2.9890   20.6580  -28.7510 O   0  0  0  0  0  0  0  0  0  0  0  0
   -1.8220   21.9220  -31.9890 C   0  0  0  0  0  0  0  0  0  0  0  0
   -2.4740   20.9720  -32.7800 C   0  0  0  0  0  0  0  0  0  0  0  0
   -5.2740   21.8920  -31.7013 H   0  0  0  0  0  0  0  0  0  0  0  0
   -4.5678   21.3160  -33.2493 H   0  0  0  0  0  0  0  0  0  0  0  0
   -6.1316   22.1999  -33.2493 H   0  0  0  0  0  0  0  0  0  0  0  0
   -7.7231   21.0353  -31.2082 H   0  0  0  0  0  0  0  0  0  0  0  0
   -9.0001   18.9106  -30.9565 H   0  0  0  0  0  0  0  0  0  0  0  0
   -8.2452   16.8507  -32.1367 H   0  0  0  0  0  0  0  0  0  0  0  0
   -6.2071   16.9020  -33.5653 H   0  0  0  0  0  0  0  0  0  0  0  0
   -4.7000   19.3220  -35.0470 H   0  0  0  0  0  0  0  0  0  0  0  0
   -1.1966   18.1239  -31.3856 H   0  0  0  0  0  0  0  0  0  0  0  0
   -0.0413   19.8147  -29.9640 H   0  0  0  0  0  0  0  0  0  0  0  0
    0.7267   22.1688  -29.8067 H   0  0  0  0  0  0  0  0  0  0  0  0
   -0.1823   23.4805  -30.6486 H   0  0  0  0  0  0  0  0  0  0  0  0
   -0.9642   21.9307  -28.1407 H   0  0  0  0  0  0  0  0  0  0  0  0
   -0.7699   23.7113  -28.3604 H   0  0  0  0  0  0  0  0  0  0  0  0
   -4.4859   26.3661  -30.2652 H   0  0  0  0  0  0  0  0  0  0  0  0
   -6.9297   26.4475  -30.7626 H   0  0  0  0  0  0  0  0  0  0  0  0
   -8.3139   24.3782  -30.6005 H   0  0  0  0  0  0  0  0  0  0  0  0
   -7.2592   22.2146  -29.9373 H   0  0  0  0  0  0  0  0  0  0  0  0
   -2.0046   22.9935  -32.1577 H   0  0  0  0  0  0  0  0  0  0  0  0
   -3.1615   21.2986  -33.5741 H   0  0  0  0  0  0  0  0  0  0  0  0
  1  2  1  0
  2  3  2  0
  3  4  1  0
  4  5  2  0
  5  6  1  0
  6  7  2  0
  7  8  1  0
  8  9  1  0
  9 10  2  0
  9 11  2  0
  9 12  1  0
 12 13  2  0
 13 14  1  0
 14 15  2  0
 15 16  1  0
 16 17  1  0
 17 18  1  0
 18 19  2  0
 19 20  1  0
 19 21  1  0
 21 22  2  0
 22 23  1  0
 23 24  2  0
 24 25  1  0
 25 26  2  0
 26 27  1  0
 27 28  1  0
 28 29  2  0
 15 30  1  0
 30 31  2  0
  7  2  1  0
 31 12  1  0
 28 18  1  0
 26 21  1  0
  1 32  1  0
  1 33  1  0
  1 34  1  0
  3 35  1  0
  4 36  1  0
  5 37  1  0
  6 38  1  0
  8 39  1  0
 13 40  1  0
 14 41  1  0
 16 42  1  0
 16 43  1  0
 17 44  1  0
 17 45  1  0
 22 46  1  0
 23 47  1  0
 24 48  1  0
 25 49  1  0
 30 50  1  0
 31 51  1  0
M  CHG  1  20  -1
M  END
>  <UniqueID>  (20) 
20

>  <SMILES>  (20) 
Cc1ccccc1NS(=O)(=O)c1ccc(CCc2c([O-])c3ccccc3oc2=O)cc1

>  <Energy>  (20) 
62.291166172267594

>  <Genealogy>  (20) 
Cc1ccccc1NS(=O)(=O)c1ccc(CCc2c([O-])c3ccccc3oc2=O)cc1 (protonated)
Cc1ccccc1NS(=O)(=O)c1ccc(CCc2c([O-])c3ccccc3oc2=O)cc1 (3D coordinates assigned)
Cc1ccccc1NS(=O)(=O)c1ccc(CCc2c([O-])c3ccccc3oc2=O)cc1 (optimized conformer: 62.291166172267594 kcal/mol)

>  <smiles>  (20) 
Cc1ccccc1NS(=O)(=O)c1ccc(CCc2c(O)c3ccccc3oc2=O)cc1

>  <score_type>  (20) 
oracle

>  <origin>  (20) 
adgpu

>  <m_score__min__energy>  (20) 
-12.85

>  <m_primary>  (20) 
energy

$$$$
20:0
     RDKit          3D

 48 51  0  0  0  0  0  0  0  0999 V2000
   -1.9190   21.6910  -32.3600 O   0  0  0  0  0  0  0  0  0  0  0  0
   -2.0160   20.5920  -31.7490 C   0  0  0  0  0  0  0  0  0  0  0  0
   -1.6430   20.5170  -30.3620 N   0  0  0  0  0  0  0  0  0  0  0  0
   -1.0980   21.6650  -29.6410 C   0  0  0  0  0  0  0  0  0  0  0  0
   -2.2050   22.6090  -29.2610 C   0  0  0  0  0  0  0  0  0  0  0  0
   -2.9830   22.3570  -28.1180 C   0  0  0  0  0  0  0  0  0  0  0  0
   -4.0360   23.2120  -27.7820 C   0  0  0  0  0  0  0  0  0  0  0  0
   -4.3270   24.3180  -28.5850 C   0  0  0  0  0  0  0  0  0  0  0  0
   -3.5650   24.5700  -29.7310 C   0  0  0  0  0  0  0  0  0  0  0  0
   -3.8590   25.6650  -30.5340 O   0  0  0  0  0  0  0  0  0  0  0  0
   -2.5070   23.7180  -30.0700 C   0  0  0  0  0  0  0  0  0  0  0  0
   -2.5290   19.4040  -32.4760 C   0  0  0  0  0  0  0  0  0  0  0  0
   -1.7040   18.2760  -32.6440 C   0  0  0  0  0  0  0  0  0  0  0  0
   -2.1750   17.1450  -33.3140 C   0  0  0  0  0  0  0  0  0  0  0  0
   -3.4750   17.1210  -33.8210 C   0  0  0  0  0  0  0  0  0  0  0  0
   -4.3130   18.2300  -33.6600 C   0  0  0  0  0  0  0  0  0  0  0  0
   -5.9600   18.1660  -34.2780 S   0  0  0  0  0  0  0  0  0  0  0  0
   -6.0870   18.9520  -35.5520 O   0  0  0  0  0  0  0  0  0  0  0  0
   -6.3230   16.7350  -34.5600 O   0  0  0  0  0  0  0  0  0  0  0  0
   -7.0400   18.8190  -33.0910 N   0  0  0  0  0  0  0  0  0  0  0  0
   -8.0090   18.0330  -32.3340 C   0  0  0  0  0  0  0  0  0  0  0  0
   -8.6410   19.0120  -31.3130 C   0  0  0  0  0  0  0  0  0  0  0  0
   -7.9140   20.2890  -31.5630 C   0  0  0  0  0  0  0  0  0  0  0  0
   -8.0620   21.5100  -30.9010 C   0  0  0  0  0  0  0  0  0  0  0  0
   -7.2620   22.5910  -31.3050 C   0  0  0  0  0  0  0  0  0  0  0  0
   -6.3330   22.4350  -32.3530 C   0  0  0  0  0  0  0  0  0  0  0  0
   -6.2030   21.1970  -33.0020 C   0  0  0  0  0  0  0  0  0  0  0  0
   -7.0140   20.1390  -32.5810 C   0  0  0  0  0  0  0  0  0  0  0  0
   -3.8420   19.3650  -32.9830 C   0  0  0  0  0  0  0  0  0  0  0  0
   -1.8690   19.6640  -29.8030 H   0  0  0  0  0  0  0  0  0  0  0  0
   -0.5897   21.3150  -28.7305 H   0  0  0  0  0  0  0  0  0  0  0  0
   -0.3826   22.1914  -30.2900 H   0  0  0  0  0  0  0  0  0  0  0  0
   -2.7624   21.4841  -27.4860 H   0  0  0  0  0  0  0  0  0  0  0  0
   -4.6376   23.0138  -26.8827 H   0  0  0  0  0  0  0  0  0  0  0  0
   -5.1550   24.9904  -28.3161 H   0  0  0  0  0  0  0  0  0  0  0  0
   -1.9102   23.9172  -30.9723 H   0  0  0  0  0  0  0  0  0  0  0  0
   -0.6793   18.2855  -32.2440 H   0  0  0  0  0  0  0  0  0  0  0  0
   -1.5198   16.2708  -33.4425 H   0  0  0  0  0  0  0  0  0  0  0  0
   -3.8418   16.2281  -34.3485 H   0  0  0  0  0  0  0  0  0  0  0  0
   -8.7811   17.6277  -33.0046 H   0  0  0  0  0  0  0  0  0  0  0  0
   -7.5332   17.1770  -31.8331 H   0  0  0  0  0  0  0  0  0  0  0  0
   -9.7191   19.1304  -31.4966 H   0  0  0  0  0  0  0  0  0  0  0  0
   -8.5527   18.6641  -30.2732 H   0  0  0  0  0  0  0  0  0  0  0  0
   -8.7882   21.6221  -30.0824 H   0  0  0  0  0  0  0  0  0  0  0  0
   -7.3609   23.5638  -30.8012 H   0  0  0  0  0  0  0  0  0  0  0  0
   -5.7081   23.2854  -32.6633 H   0  0  0  0  0  0  0  0  0  0  0  0
   -5.4812   21.0628  -33.8211 H   0  0  0  0  0  0  0  0  0  0  0  0
   -4.5046   20.2324  -32.8470 H   0  0  0  0  0  0  0  0  0  0  0  0
  1  2  2  0
  2  3  1  0
  3  4  1  0
  4  5  1  0
  5  6  2  0
  6  7  1  0
  7  8  2  0
  8  9  1  0
  9 10  1  0
  9 11  2  0
  2 12  1  0
 12 13  2  0
 13 14  1  0
 14 15  2  0
 15 16  1  0
 16 17  1  0
 17 18  2  0
 17 19  2  0
 17 20  1  0
 20 21  1  0
 21 22  1  0
 22 23  1  0
 23 24  2  0
 24 25  1  0
 25 26  2  0
 26 27  1  0
 27 28  2  0
 16 29  2  0
 11  5  1  0
 29 12  1  0
 28 20  1  0
 28 23  1  0
  3 30  1  0
  4 31  1  0
  4 32  1  0
  6 33  1  0
  7 34  1  0
  8 35  1  0
 11 36  1  0
 13 37  1  0
 14 38  1  0
 15 39  1  0
 21 40  1  0
 21 41  1  0
 22 42  1  0
 22 43  1  0
 24 44  1  0
 25 45  1  0
 26 46  1  0
 27 47  1  0
 29 48  1  0
M  CHG  1  10  -1
M  END
>  <UniqueID>  (21) 
21

>  <SMILES>  (21) 
O=C(NCc1cccc([O-])c1)c1cccc(S(=O)(=O)N2CCc3ccccc32)c1

>  <Energy>  (21) 
67.66631255122648

>  <Genealogy>  (21) 
O=C(NCc1cccc([O-])c1)c1cccc(S(=O)(=O)N2CCc3ccccc32)c1 (protonated)
O=C(NCc1cccc([O-])c1)c1cccc(S(=O)(=O)N2CCc3ccccc32)c1 (3D coordinates assigned)
O=C(NCc1cccc([O-])c1)c1cccc(S(=O)(=O)N2CCc3ccccc32)c1 (nonaromatic ring conformer: 67.66631255122648 kcal/mol)

>  <smiles>  (21) 
O=C(NCc1cccc(O)c1)c1cccc(S(=O)(=O)N2CCc3ccccc32)c1

>  <score_type>  (21) 
oracle

>  <origin>  (21) 
adgpu

>  <m_score__min__energy>  (21) 
-12.550000000000001

>  <m_primary>  (21) 
energy

$$$$
21:0
     RDKit          3D

 40 42  0  0  0  0  0  0  0  0999 V2000
   -3.7660   19.8230  -34.1670 O   0  0  0  0  0  0  0  0  0  0  0  0
   -3.7040   20.1470  -32.9520 C   0  0  0  0  0  0  0  0  0  0  0  0
   -4.9000   20.2280  -32.1640 N   0  0  0  0  0  0  0  0  0  0  0  0
   -5.6990   21.4000  -31.9500 C   0  0  0  0  0  0  0  0  0  0  0  0
   -7.0600   21.3560  -32.2770 C   0  0  0  0  0  0  0  0  0  0  0  0
   -7.8770   22.4680  -32.0600 C   0  0  0  0  0  0  0  0  0  0  0  0
   -7.3430   23.6290  -31.4960 C   0  0  0  0  0  0  0  0  0  0  0  0
   -5.9900   23.6800  -31.1370 C   0  0  0  0  0  0  0  0  0  0  0  0
   -5.3450   25.1390  -30.3930 S   0  0  0  0  0  0  0  0  0  0  0  0
   -5.7320   26.3450  -31.2030 O   0  0  0  0  0  0  0  0  0  0  0  0
   -5.9060   25.2660  -29.0040 O   0  0  0  0  0  0  0  0  0  0  0  0
   -3.6170   25.0160  -30.3280 N   0  0  0  0  0  0  0  0  0  0  0  0
   -2.8760   24.3140  -29.3190 C   0  0  0  0  0  0  0  0  0  0  0  0
   -3.3100   23.0800  -28.8000 C   0  0  0  0  0  0  0  0  0  0  0  0
   -2.5640   22.4310  -27.8110 C   0  0  0  0  0  0  0  0  0  0  0  0
   -1.3830   23.0030  -27.3350 C   0  0  0  0  0  0  0  0  0  0  0  0
   -0.9410   24.2230  -27.8500 C   0  0  0  0  0  0  0  0  0  0  0  0
   -1.6840   24.8780  -28.8370 C   0  0  0  0  0  0  0  0  0  0  0  0
   -1.2350   26.0940  -29.3380 O   0  0  0  0  0  0  0  0  0  0  0  0
   -5.1710   22.5610  -31.3560 C   0  0  0  0  0  0  0  0  0  0  0  0
   -2.3980   20.4550  -32.3270 C   0  0  0  0  0  0  0  0  0  0  0  0
   -2.2990   20.4210  -30.9240 C   0  0  0  0  0  0  0  0  0  0  0  0
   -1.1150   20.7910  -30.2830 C   0  0  0  0  0  0  0  0  0  0  0  0
   -0.0130   21.1990  -31.0310 C   0  0  0  0  0  0  0  0  0  0  0  0
   -0.0850   21.2160  -32.4260 C   0  0  0  0  0  0  0  0  0  0  0  0
   -1.2560   20.8260  -33.0840 C   0  0  0  0  0  0  0  0  0  0  0  0
   -1.2360   20.7920  -34.4810 O   0  0  0  0  0  0  0  0  0  0  0  0
   -7.4887   20.4392  -32.7078 H   0  0  0  0  0  0  0  0  0  0  0  0
   -8.9418   22.4294  -32.3335 H   0  0  0  0  0  0  0  0  0  0  0  0
   -7.9869   24.5059  -31.3333 H   0  0  0  0  0  0  0  0  0  0  0  0
   -4.2390   22.6245  -29.1734 H   0  0  0  0  0  0  0  0  0  0  0  0
   -2.9087   21.4676  -27.4073 H   0  0  0  0  0  0  0  0  0  0  0  0
   -0.8005   22.4924  -26.5540 H   0  0  0  0  0  0  0  0  0  0  0  0
   -0.0068   24.6697  -27.4788 H   0  0  0  0  0  0  0  0  0  0  0  0
   -4.1115   22.5921  -31.0618 H   0  0  0  0  0  0  0  0  0  0  0  0
   -3.1640   20.0994  -30.3254 H   0  0  0  0  0  0  0  0  0  0  0  0
   -1.0523   20.7602  -29.1852 H   0  0  0  0  0  0  0  0  0  0  0  0
    0.9130   21.5075  -30.5237 H   0  0  0  0  0  0  0  0  0  0  0  0
    0.7876   21.5392  -33.0126 H   0  0  0  0  0  0  0  0  0  0  0  0
   -2.0690   20.8550  -35.0510 H   0  0  0  0  0  0  0  0  0  0  0  0
  1  2  2  0
  2  3  1  0
  3  4  1  0
  4  5  2  0
  5  6  1  0
  6  7  2  0
  7  8  1  0
  8  9  1  0
  9 10  2  0
  9 11  2  0
  9 12  1  0
 12 13  1  0
 13 14  2  0
 14 15  1  0
 15 16  2  0
 16 17  1  0
 17 18  2  0
 18 19  1  0
  8 20  2  0
  2 21  1  0
 21 22  2  0
 22 23  1  0
 23 24  2  0
 24 25  1  0
 25 26  2  0
 26 27  1  0
 20  4  1  0
 26 21  1  0
 18 13  1  0
  5 28  1  0
  6 29  1  0
  7 30  1  0
 14 31  1  0
 15 32  1  0
 16 33  1  0
 17 34  1  0
 20 35  1  0
 22 36  1  0
 23 37  1  0
 24 38  1  0
 25 39  1  0
 27 40  1  0
M  CHG  3   3  -1  12  -1  19  -1
M  END
>  <UniqueID>  (22) 
22

>  <SMILES>  (22) 
O=C([N-]c1cccc(S(=O)(=O)[N-]c2ccccc2[O-])c1)c1ccccc1O

>  <Energy>  (22) 
56.74297196203979

>  <Genealogy>  (22) 
O=C([N-]c1cccc(S(=O)(=O)[N-]c2ccccc2[O-])c1)c1ccccc1O (protonated)
O=C([N-]c1cccc(S(=O)(=O)[N-]c2ccccc2[O-])c1)c1ccccc1O (3D coordinates assigned)
O=C([N-]c1cccc(S(=O)(=O)[N-]c2ccccc2[O-])c1)c1ccccc1O (optimized conformer: 56.74297196203979 kcal/mol)

>  <smiles>  (22) 
O=C(Nc1cccc(S(=O)(=O)Nc2ccccc2O)c1)c1ccccc1O

>  <score_type>  (22) 
oracle

>  <origin>  (22) 
adgpu

>  <m_score__min__energy>  (22) 
-13.52

>  <m_primary>  (22) 
energy

$$$$
22:0
     RDKit          3D

 53 56  0  0  0  0  0  0  0  0999 V2000
   -4.8070   24.5630  -28.3660 N   0  0  0  0  0  0  0  0  0  0  0  0
   -5.1640   24.9500  -30.0140 S   0  0  0  0  0  0  0  0  0  0  0  0
   -3.8950   24.8980  -30.8190 O   0  0  0  0  0  0  0  0  0  0  0  0
   -5.7300   26.3410  -30.0960 O   0  0  0  0  0  0  0  0  0  0  0  0
   -6.3370   23.8010  -30.6510 C   0  0  0  0  0  0  0  0  0  0  0  0
   -6.5070   23.6810  -32.0360 C   0  0  0  0  0  0  0  0  0  0  0  0
   -7.4390   22.7790  -32.5570 C   0  0  0  0  0  0  0  0  0  0  0  0
   -8.2150   21.9870  -31.6950 C   0  0  0  0  0  0  0  0  0  0  0  0
   -9.1890   20.9960  -32.2610 C   0  0  0  0  0  0  0  0  0  0  0  0
   -8.4580   19.9200  -32.9130 N   0  0  0  0  0  0  0  0  0  0  0  0
   -7.4620   19.1420  -32.2440 C   0  0  0  0  0  0  0  0  0  0  0  0
   -7.7900   18.0850  -31.6410 O   0  0  0  0  0  0  0  0  0  0  0  0
   -6.0570   19.5870  -32.2670 C   0  0  0  0  0  0  0  0  0  0  0  0
   -5.4140   20.2920  -31.2650 C   0  0  0  0  0  0  0  0  0  0  0  0
   -4.1310   20.4960  -31.6120 N   0  0  0  0  0  0  0  0  0  0  0  0
   -3.9360   19.9600  -32.8080 N   0  0  0  0  0  0  0  0  0  0  0  0
   -2.6540   19.9780  -33.4580 C   0  0  0  0  0  0  0  0  0  0  0  0
   -2.1000   18.7810  -33.9370 C   0  0  0  0  0  0  0  0  0  0  0  0
   -0.8420   18.7800  -34.5470 C   0  0  0  0  0  0  0  0  0  0  0  0
   -0.1210   19.9700  -34.6690 C   0  0  0  0  0  0  0  0  0  0  0  0
   -0.6550   21.1630  -34.1750 C   0  0  0  0  0  0  0  0  0  0  0  0
   -1.9130   21.1680  -33.5640 C   0  0  0  0  0  0  0  0  0  0  0  0
   -5.0870   19.3890  -33.2430 C   0  0  0  0  0  0  0  0  0  0  0  0
   -5.2570   18.6170  -34.5300 C   0  0  0  0  0  0  0  0  0  0  0  0
   -5.3890   17.1250  -34.3110 C   0  0  0  0  0  0  0  0  0  0  0  0
   -4.2920   16.3340  -33.9150 C   0  0  0  0  0  0  0  0  0  0  0  0
   -4.4540   14.9640  -33.6910 C   0  0  0  0  0  0  0  0  0  0  0  0
   -5.7090   14.3720  -33.8440 C   0  0  0  0  0  0  0  0  0  0  0  0
   -6.8070   15.1500  -34.2140 C   0  0  0  0  0  0  0  0  0  0  0  0
   -6.6510   16.5210  -34.4400 C   0  0  0  0  0  0  0  0  0  0  0  0
   -8.0330   22.0980  -30.3080 C   0  0  0  0  0  0  0  0  0  0  0  0
   -7.1050   23.0050  -29.7880 C   0  0  0  0  0  0  0  0  0  0  0  0
   -5.6780   24.1630  -27.9520 H   0  0  0  0  0  0  0  0  0  0  0  0
   -4.6230   25.4650  -27.8720 H   0  0  0  0  0  0  0  0  0  0  0  0
   -5.9041   24.2996  -32.7171 H   0  0  0  0  0  0  0  0  0  0  0  0
   -7.5651   22.6891  -33.6460 H   0  0  0  0  0  0  0  0  0  0  0  0
   -9.8052   20.5821  -31.4493 H   0  0  0  0  0  0  0  0  0  0  0  0
   -9.8388   21.4963  -32.9941 H   0  0  0  0  0  0  0  0  0  0  0  0
   -5.8804   20.6330  -30.3290 H   0  0  0  0  0  0  0  0  0  0  0  0
   -2.6582   17.8390  -33.8320 H   0  0  0  0  0  0  0  0  0  0  0  0
   -0.4192   17.8402  -34.9316 H   0  0  0  0  0  0  0  0  0  0  0  0
    0.8665   19.9680  -35.1536 H   0  0  0  0  0  0  0  0  0  0  0  0
   -0.0852   22.0994  -34.2668 H   0  0  0  0  0  0  0  0  0  0  0  0
   -2.3243   22.1068  -33.1648 H   0  0  0  0  0  0  0  0  0  0  0  0
   -6.1630   18.9783  -35.0385 H   0  0  0  0  0  0  0  0  0  0  0  0
   -4.3533   18.7824  -35.1350 H   0  0  0  0  0  0  0  0  0  0  0  0
   -3.3032   16.7972  -33.7815 H   0  0  0  0  0  0  0  0  0  0  0  0
   -3.5906   14.3508  -33.3935 H   0  0  0  0  0  0  0  0  0  0  0  0
   -5.8325   13.2924  -33.6729 H   0  0  0  0  0  0  0  0  0  0  0  0
   -7.7968   14.6838  -34.3280 H   0  0  0  0  0  0  0  0  0  0  0  0
   -7.5223   17.1309  -34.7207 H   0  0  0  0  0  0  0  0  0  0  0  0
   -8.6236   21.4681  -29.6265 H   0  0  0  0  0  0  0  0  0  0  0  0
   -6.9766   23.0948  -28.6992 H   0  0  0  0  0  0  0  0  0  0  0  0
  1  2  1  0
  2  3  2  0
  2  4  2  0
  2  5  1  0
  5  6  2  0
  6  7  1  0
  7  8  2  0
  8  9  1  0
  9 10  1  0
 10 11  1  0
 11 12  2  0
 11 13  1  0
 13 14  1  0
 14 15  2  0
 15 16  1  0
 16 17  1  0
 17 18  2  0
 18 19  1  0
 19 20  2  0
 20 21  1  0
 21 22  2  0
 16 23  1  0
 23 24  1  0
 24 25  1  0
 25 26  2  0
 26 27  1  0
 27 28  2  0
 28 29  1  0
 29 30  2  0
  8 31  1  0
 31 32  2  0
 32  5  1  0
 23 13  2  0
 30 25  1  0
 22 17  1  0
  1 33  1  0
  1 34  1  0
  6 35  1  0
  7 36  1  0
  9 37  1  0
  9 38  1  0
 14 39  1  0
 18 40  1  0
 19 41  1  0
 20 42  1  0
 21 43  1  0
 22 44  1  0
 24 45  1  0
 24 46  1  0
 26 47  1  0
 27 48  1  0
 28 49  1  0
 29 50  1  0
 30 51  1  0
 31 52  1  0
 32 53  1  0
M  CHG  1  10  -1
M  END
>  <UniqueID>  (23) 
23

>  <SMILES>  (23) 
NS(=O)(=O)c1ccc(C[N-]C(=O)c2cnn(-c3ccccc3)c2Cc2ccccc2)cc1

>  <Energy>  (23) 
90.04589234906456

>  <Genealogy>  (23) 
NS(=O)(=O)c1ccc(C[N-]C(=O)c2cnn(-c3ccccc3)c2Cc2ccccc2)cc1 (protonated)
NS(=O)(=O)c1ccc(C[N-]C(=O)c2cnn(-c3ccccc3)c2Cc2ccccc2)cc1 (3D coordinates assigned)
NS(=O)(=O)c1ccc(C[N-]C(=O)c2cnn(-c3ccccc3)c2Cc2ccccc2)cc1 (optimized conformer: 90.04589234906456 kcal/mol)

>  <smiles>  (23) 
NS(=O)(=O)c1ccc(CNC(=O)c2cnn(-c3ccccc3)c2Cc2ccccc2)cc1

>  <score_type>  (23) 
oracle

>  <origin>  (23) 
adgpu

>  <m_score__min__energy>  (23) 
-12.300000000000001

>  <m_primary>  (23) 
energy

$$$$
23:0
     RDKit          3D

 54 57  0  0  0  0  0  0  0  0999 V2000
    0.3280   23.8870  -28.6760 O   0  0  0  0  0  0  0  0  0  0  0  0
   -0.5220   23.0450  -29.0680 C   0  0  0  0  0  0  0  0  0  0  0  0
   -0.0920   21.9860  -29.9340 N   0  0  0  0  0  0  0  0  0  0  0  0
    0.1430   20.6170  -29.5630 C   0  0  0  0  0  0  0  0  0  0  0  0
    0.2460   20.2450  -28.2100 C   0  0  0  0  0  0  0  0  0  0  0  0
    0.4320   18.9070  -27.8570 C   0  0  0  0  0  0  0  0  0  0  0  0
    0.5260   17.9290  -28.8450 C   0  0  0  0  0  0  0  0  0  0  0  0
    0.4560   18.2870  -30.1920 C   0  0  0  0  0  0  0  0  0  0  0  0
    0.2910   19.6310  -30.5670 C   0  0  0  0  0  0  0  0  0  0  0  0
    0.2460   19.9730  -32.0090 C   0  0  0  0  0  0  0  0  0  0  0  0
    1.3100   20.3130  -32.5910 O   0  0  0  0  0  0  0  0  0  0  0  0
   -0.9630   19.9020  -32.7760 N   0  0  0  0  0  0  0  0  0  0  0  0
   -2.1910   20.5910  -32.4940 C   0  0  0  0  0  0  0  0  0  0  0  0
   -2.8420   21.3690  -33.4670 C   0  0  0  0  0  0  0  0  0  0  0  0
   -4.0320   22.0330  -33.1560 C   0  0  0  0  0  0  0  0  0  0  0  0
   -4.5980   21.9100  -31.8780 C   0  0  0  0  0  0  0  0  0  0  0  0
   -6.1100   22.7360  -31.4910 S   0  0  0  0  0  0  0  0  0  0  0  0
   -5.9920   24.1860  -31.8720 O   0  0  0  0  0  0  0  0  0  0  0  0
   -6.3480   22.6630  -30.0090 O   0  0  0  0  0  0  0  0  0  0  0  0
   -7.4690   22.0270  -32.3340 N   0  0  0  0  0  0  0  0  0  0  0  0
   -8.6600   22.0040  -31.4640 C   0  0  0  0  0  0  0  0  0  0  0  0
   -9.6750   20.9630  -31.9640 C   0  0  0  0  0  0  0  0  0  0  0  0
   -9.1740   19.6320  -31.9900 O   0  0  0  0  0  0  0  0  0  0  0  0
   -7.7580   19.5530  -32.0750 C   0  0  0  0  0  0  0  0  0  0  0  0
   -7.1320   20.6980  -32.8930 C   0  0  0  0  0  0  0  0  0  0  0  0
   -3.9560   21.1200  -30.9150 C   0  0  0  0  0  0  0  0  0  0  0  0
   -2.7660   20.4570  -31.2260 C   0  0  0  0  0  0  0  0  0  0  0  0
   -1.9360   23.1960  -28.6530 C   0  0  0  0  0  0  0  0  0  0  0  0
   -2.6050   22.1030  -28.0740 C   0  0  0  0  0  0  0  0  0  0  0  0
   -3.9440   22.2160  -27.6860 C   0  0  0  0  0  0  0  0  0  0  0  0
   -4.6240   23.4210  -27.8630 C   0  0  0  0  0  0  0  0  0  0  0  0
   -3.9650   24.5210  -28.4180 C   0  0  0  0  0  0  0  0  0  0  0  0
   -2.6240   24.4200  -28.8030 C   0  0  0  0  0  0  0  0  0  0  0  0
   -1.9810   25.5440  -29.3100 O   0  0  0  0  0  0  0  0  0  0  0  0
    0.1796   21.0131  -27.4254 H   0  0  0  0  0  0  0  0  0  0  0  0
    0.5045   18.6243  -26.7964 H   0  0  0  0  0  0  0  0  0  0  0  0
    0.6555   16.8737  -28.5630 H   0  0  0  0  0  0  0  0  0  0  0  0
    0.5307   17.5101  -30.9671 H   0  0  0  0  0  0  0  0  0  0  0  0
   -2.4136   21.4556  -34.4764 H   0  0  0  0  0  0  0  0  0  0  0  0
   -4.5270   22.6548  -33.9165 H   0  0  0  0  0  0  0  0  0  0  0  0
   -8.3541   21.7474  -30.4390 H   0  0  0  0  0  0  0  0  0  0  0  0
   -9.1322   22.9973  -31.4827 H   0  0  0  0  0  0  0  0  0  0  0  0
  -10.5524   20.9894  -31.3011 H   0  0  0  0  0  0  0  0  0  0  0  0
   -9.9201   21.2309  -33.0023 H   0  0  0  0  0  0  0  0  0  0  0  0
   -7.3447   19.5853  -31.0561 H   0  0  0  0  0  0  0  0  0  0  0  0
   -7.5146   18.6127  -32.5914 H   0  0  0  0  0  0  0  0  0  0  0  0
   -6.0385   20.5789  -32.8916 H   0  0  0  0  0  0  0  0  0  0  0  0
   -7.5363   20.6464  -33.9147 H   0  0  0  0  0  0  0  0  0  0  0  0
   -4.3909   21.0213  -29.9095 H   0  0  0  0  0  0  0  0  0  0  0  0
   -2.2782   19.8256  -30.4687 H   0  0  0  0  0  0  0  0  0  0  0  0
   -2.0716   21.1526  -27.9252 H   0  0  0  0  0  0  0  0  0  0  0  0
   -4.4615   21.3535  -27.2407 H   0  0  0  0  0  0  0  0  0  0  0  0
   -5.6796   23.5053  -27.5655 H   0  0  0  0  0  0  0  0  0  0  0  0
   -4.5032   25.4708  -28.5528 H   0  0  0  0  0  0  0  0  0  0  0  0
  1  2  2  0
  2  3  1  0
  3  4  1  0
  4  5  2  0
  5  6  1  0
  6  7  2  0
  7  8  1  0
  8  9  2  0
  9 10  1  0
 10 11  2  0
 10 12  1  0
 12 13  1  0
 13 14  2  0
 14 15  1  0
 15 16  2  0
 16 17  1  0
 17 18  2  0
 17 19  2  0
 17 20  1  0
 20 21  1  0
 21 22  1  0
 22 23  1  0
 23 24  1  0
 24 25  1  0
 16 26  1  0
 26 27  2  0
  2 28  1  0
 28 29  2  0
 29 30  1  0
 30 31  2  0
 31 32  1  0
 32 33  2  0
 33 34  1  0
  9  4  1  0
 27 13  1  0
 33 28  1  0
 25 20  1  0
  5 35  1  0
  6 36  1  0
  7 37  1  0
  8 38  1  0
 14 39  1  0
 15 40  1  0
 21 41  1  0
 21 42  1  0
 22 43  1  0
 22 44  1  0
 24 45  1  0
 24 46  1  0
 25 47  1  0
 25 48  1  0
 26 49  1  0
 27 50  1  0
 29 51  1  0
 30 52  1  0
 31 53  1  0
 32 54  1  0
M  CHG  3   3  -1  12  -1  34  -1
M  END
>  <UniqueID>  (24) 
24

>  <SMILES>  (24) 
O=C([N-]c1ccccc1C(=O)[N-]c1ccc(S(=O)(=O)N2CCOCC2)cc1)c1ccccc1[O-]

>  <Energy>  (24) 
86.18413155398466

>  <Genealogy>  (24) 
O=C([N-]c1ccccc1C(=O)[N-]c1ccc(S(=O)(=O)N2CCOCC2)cc1)c1ccccc1[O-] (protonated)
O=C([N-]c1ccccc1C(=O)[N-]c1ccc(S(=O)(=O)N2CCOCC2)cc1)c1ccccc1[O-] (3D coordinates assigned)
O=C([N-]c1ccccc1C(=O)[N-]c1ccc(S(=O)(=O)N2CCOCC2)cc1)c1ccccc1[O-] (nonaromatic ring conformer: 86.18413155398466 kcal/mol)

>  <smiles>  (24) 
O=C(Nc1ccccc1C(=O)Nc1ccc(S(=O)(=O)N2CCOCC2)cc1)c1ccccc1O

>  <score_type>  (24) 
oracle

>  <origin>  (24) 
adgpu

>  <m_score__min__energy>  (24) 
-13.449999999999999

>  <m_primary>  (24) 
energy

$$$$
24:0
     RDKit          3D

 44 46  0  0  0  0  0  0  0  0999 V2000
   -6.9910   19.2550  -35.1160 H   0  0  0  0  0  0  0  0  0  0  0  0
   -6.1150   18.7780  -35.2910 O   0  0  0  0  0  0  0  0  0  0  0  0
   -5.7410   17.6470  -34.5650 C   0  0  0  0  0  0  0  0  0  0  0  0
   -6.5480   16.5010  -34.5860 C   0  0  0  0  0  0  0  0  0  0  0  0
   -7.4762   16.4963  -35.1762 H   0  0  0  0  0  0  0  0  0  0  0  0
   -6.1800   15.3660  -33.8620 C   0  0  0  0  0  0  0  0  0  0  0  0
   -6.8100   14.4650  -33.8979 H   0  0  0  0  0  0  0  0  0  0  0  0
   -5.0100   15.3700  -33.0890 C   0  0  0  0  0  0  0  0  0  0  0  0
   -4.6020   14.1430  -32.3290 C   0  0  0  0  0  0  0  0  0  0  0  0
   -4.6681   14.3417  -31.2491 H   0  0  0  0  0  0  0  0  0  0  0  0
   -5.2716   13.3103  -32.5902 H   0  0  0  0  0  0  0  0  0  0  0  0
   -3.5671   13.8771  -32.5902 H   0  0  0  0  0  0  0  0  0  0  0  0
   -4.1940   16.5110  -33.0780 C   0  0  0  0  0  0  0  0  0  0  0  0
   -3.2703   16.5146  -32.4806 H   0  0  0  0  0  0  0  0  0  0  0  0
   -4.5460   17.6510  -33.8240 C   0  0  0  0  0  0  0  0  0  0  0  0
   -3.7320   18.8360  -33.7870 N   0  0  0  0  0  0  0  0  0  0  0  0
   -2.8330   18.8310  -34.3200 H   0  0  0  0  0  0  0  0  0  0  0  0
   -4.0800   20.0350  -33.0720 C   0  0  0  0  0  0  0  0  0  0  0  0
   -5.4130   20.2490  -32.6910 C   0  0  0  0  0  0  0  0  0  0  0  0
   -6.1755   19.4906  -32.9220 H   0  0  0  0  0  0  0  0  0  0  0  0
   -5.7790   21.4190  -32.0200 C   0  0  0  0  0  0  0  0  0  0  0  0
   -6.8235   21.5691  -31.7095 H   0  0  0  0  0  0  0  0  0  0  0  0
   -4.8210   22.4000  -31.7420 C   0  0  0  0  0  0  0  0  0  0  0  0
   -5.2900   23.8770  -30.9080 S   0  0  0  0  0  0  0  0  0  0  0  0
   -6.1020   24.7030  -31.8660 O   0  0  0  0  0  0  0  0  0  0  0  0
   -6.1370   23.5880  -29.7010 O   0  0  0  0  0  0  0  0  0  0  0  0
   -3.9000   24.8040  -30.4350 N   0  0  0  0  0  0  0  0  0  0  0  0
   -2.9650   24.5340  -29.5680 C   0  0  0  0  0  0  0  0  0  0  0  0
   -1.9850   25.3750  -29.3400 O   0  0  0  0  0  0  0  0  0  0  0  0
   -1.1530   24.9110  -28.4560 N   0  0  0  0  0  0  0  0  0  0  0  0
   -1.6090   23.7010  -28.0820 C   0  0  0  0  0  0  0  0  0  0  0  0
   -0.9090   22.8310  -27.0890 C   0  0  0  0  0  0  0  0  0  0  0  0
   -1.1693   23.1545  -26.0704 H   0  0  0  0  0  0  0  0  0  0  0  0
   -1.2210   21.7860  -27.2328 H   0  0  0  0  0  0  0  0  0  0  0  0
    0.1785   22.9121  -27.2328 H   0  0  0  0  0  0  0  0  0  0  0  0
   -2.7860   23.4090  -28.7570 C   0  0  0  0  0  0  0  0  0  0  0  0
   -3.5420   22.1170  -28.6640 C   0  0  0  0  0  0  0  0  0  0  0  0
   -3.6943   21.8566  -27.6062 H   0  0  0  0  0  0  0  0  0  0  0  0
   -4.5183   22.2270  -29.1588 H   0  0  0  0  0  0  0  0  0  0  0  0
   -2.9679   21.3198  -29.1588 H   0  0  0  0  0  0  0  0  0  0  0  0
   -3.4900   22.1990  -32.1290 C   0  0  0  0  0  0  0  0  0  0  0  0
   -2.7319   22.9639  -31.9050 H   0  0  0  0  0  0  0  0  0  0  0  0
   -3.1230   21.0290  -32.7990 C   0  0  0  0  0  0  0  0  0  0  0  0
   -2.0793   20.8844  -33.1149 H   0  0  0  0  0  0  0  0  0  0  0  0
  1  2  1  0
  2  3  1  0
  3  4  2  0
  4  5  1  0
  4  6  1  0
  6  7  1  0
  6  8  2  0
  8  9  1  0
  9 10  1  0
  9 11  1  0
  9 12  1  0
  8 13  1  0
 13 14  1  0
 13 15  2  0
 15 16  1  0
 16 17  1  0
 16 18  1  0
 18 19  2  0
 19 20  1  0
 19 21  1  0
 21 22  1  0
 21 23  2  0
 23 24  1  0
 24 25  2  0
 24 26  2  0
 24 27  1  0
 27 28  2  0
 28 29  1  0
 29 30  1  0
 30 31  1  0
 31 32  1  0
 32 33  1  0
 32 34  1  0
 32 35  1  0
 31 36  2  0
 36 37  1  0
 37 38  1  0
 37 39  1  0
 37 40  1  0
 23 41  1  0
 41 42  1  0
 41 43  2  0
 43 44  1  0
 15  3  1  0
 43 18  1  0
 36 28  1  0
M  CHG  1  30  -1
M  END
>  <UniqueID>  (25) 
25

>  <SMILES>  (25) 
Cc1ccc(O)c(Nc2ccc(S(=O)(=O)/N=c3/o[n-]c(C)c3C)cc2)c1

>  <Energy>  (25) 
90.08368496603897

>  <Genealogy>  (25) 
Cc1ccc(O)c(Nc2ccc(S(=O)(=O)N=c3o[n-]c(C)c3C)cc2)c1 (protonated)
Cc1ccc(O)c(Nc2ccc(S(=O)(=O)/N=c3/o[n-]c(C)c3C)cc2)c1 (cis-trans isomerization)
Cc1ccc(O)c(Nc2ccc(S(=O)(=O)/N=c3/o[n-]c(C)c3C)cc2)c1 (3D coordinates assigned)
Cc1ccc(O)c(Nc2ccc(S(=O)(=O)/N=c3/o[n-]c(C)c3C)cc2)c1 (optimized conformer: 90.08368496603897 kcal/mol)

>  <smiles>  (25) 
Cc1ccc(O)c(Nc2ccc(S(=O)(=O)N=c3o[nH]c(C)c3C)cc2)c1

>  <score_type>  (25) 
oracle

>  <origin>  (25) 
adgpu

>  <m_score__min__energy>  (25) 
-10.92

>  <m_primary>  (25) 
energy

$$$$
25:0
     RDKit          3D

 54 57  0  0  0  0  0  0  0  0999 V2000
   -1.5490   25.9520  -27.9700 C   0  0  0  0  0  0  0  0  0  0  0  0
   -1.9440   24.5500  -28.3290 C   0  0  0  0  0  0  0  0  0  0  0  0
   -2.7920   24.1520  -29.3580 C   0  0  0  0  0  0  0  0  0  0  0  0
   -3.4530   24.9510  -30.3490 N   0  0  0  0  0  0  0  0  0  0  0  0
   -4.8700   25.0240  -30.5540 C   0  0  0  0  0  0  0  0  0  0  0  0
   -5.4370   26.1430  -30.4590 O   0  0  0  0  0  0  0  0  0  0  0  0
   -5.6820   23.8190  -30.8380 C   0  0  0  0  0  0  0  0  0  0  0  0
   -6.5480   23.3070  -29.8570 C   0  0  0  0  0  0  0  0  0  0  0  0
   -7.3680   22.2100  -30.1410 C   0  0  0  0  0  0  0  0  0  0  0  0
   -7.3180   21.6000  -31.3990 C   0  0  0  0  0  0  0  0  0  0  0  0
   -8.4210   20.2820  -31.7840 S   0  0  0  0  0  0  0  0  0  0  0  0
   -9.1160   19.8200  -30.5330 O   0  0  0  0  0  0  0  0  0  0  0  0
   -9.4560   20.7710  -32.7580 O   0  0  0  0  0  0  0  0  0  0  0  0
   -7.5130   18.9750  -32.5030 N   0  0  0  0  0  0  0  0  0  0  0  0
   -6.8410   19.4080  -33.7270 C   0  0  0  0  0  0  0  0  0  0  0  0
   -5.6270   18.5080  -33.8920 C   0  0  0  0  0  0  0  0  0  0  0  0
   -5.3550   17.9420  -32.5070 C   0  0  0  0  0  0  0  0  0  0  0  0
   -6.4470   18.5140  -31.6140 C   0  0  0  0  0  0  0  0  0  0  0  0
   -6.4330   22.0860  -32.3700 C   0  0  0  0  0  0  0  0  0  0  0  0
   -5.6130   23.1820  -32.0890 C   0  0  0  0  0  0  0  0  0  0  0  0
   -2.9080   22.7900  -29.2180 C   0  0  0  0  0  0  0  0  0  0  0  0
   -3.6180   22.0350  -29.9340 O   0  0  0  0  0  0  0  0  0  0  0  0
   -2.1460   22.3750  -28.1860 N   0  0  0  0  0  0  0  0  0  0  0  0
   -2.0170   21.0180  -27.7280 C   0  0  0  0  0  0  0  0  0  0  0  0
   -0.8070   20.3250  -27.9050 C   0  0  0  0  0  0  0  0  0  0  0  0
   -0.6840   19.0020  -27.4690 C   0  0  0  0  0  0  0  0  0  0  0  0
   -1.7660   18.3620  -26.8580 C   0  0  0  0  0  0  0  0  0  0  0  0
   -2.9750   19.0420  -26.6880 C   0  0  0  0  0  0  0  0  0  0  0  0
   -3.1030   20.3640  -27.1240 C   0  0  0  0  0  0  0  0  0  0  0  0
   -1.5450   23.4400  -27.6570 N   0  0  0  0  0  0  0  0  0  0  0  0
   -0.6090   23.4110  -26.5290 C   0  0  0  0  0  0  0  0  0  0  0  0
   -1.5198   26.0558  -26.8753 H   0  0  0  0  0  0  0  0  0  0  0  0
   -0.5543   26.1706  -28.3857 H   0  0  0  0  0  0  0  0  0  0  0  0
   -2.2833   26.6577  -28.3857 H   0  0  0  0  0  0  0  0  0  0  0  0
   -6.5812   23.7714  -28.8604 H   0  0  0  0  0  0  0  0  0  0  0  0
   -8.0547   21.8255  -29.3724 H   0  0  0  0  0  0  0  0  0  0  0  0
   -7.5149   19.2996  -34.5896 H   0  0  0  0  0  0  0  0  0  0  0  0
   -6.5474   20.4664  -33.6675 H   0  0  0  0  0  0  0  0  0  0  0  0
   -5.8423   17.6975  -34.6039 H   0  0  0  0  0  0  0  0  0  0  0  0
   -4.7601   19.0576  -34.2876 H   0  0  0  0  0  0  0  0  0  0  0  0
   -5.4075   16.8434  -32.5233 H   0  0  0  0  0  0  0  0  0  0  0  0
   -4.3506   18.2088  -32.1464 H   0  0  0  0  0  0  0  0  0  0  0  0
   -6.8282   17.7370  -30.9350 H   0  0  0  0  0  0  0  0  0  0  0  0
   -6.0626   19.3375  -30.9942 H   0  0  0  0  0  0  0  0  0  0  0  0
   -6.3834   21.6032  -33.3571 H   0  0  0  0  0  0  0  0  0  0  0  0
   -4.9095   23.5483  -32.8512 H   0  0  0  0  0  0  0  0  0  0  0  0
    0.0457   20.8248  -28.3879 H   0  0  0  0  0  0  0  0  0  0  0  0
    0.2656   18.4642  -27.6071 H   0  0  0  0  0  0  0  0  0  0  0  0
   -1.6659   17.3230  -26.5109 H   0  0  0  0  0  0  0  0  0  0  0  0
   -3.8271   18.5363  -26.2104 H   0  0  0  0  0  0  0  0  0  0  0  0
   -4.0580   20.8940  -26.9935 H   0  0  0  0  0  0  0  0  0  0  0  0
   -1.1725   23.4285  -25.5844 H   0  0  0  0  0  0  0  0  0  0  0  0
   -0.0039   22.4937  -26.5781 H   0  0  0  0  0  0  0  0  0  0  0  0
    0.0517   24.2891  -26.5781 H   0  0  0  0  0  0  0  0  0  0  0  0
  1  2  1  0
  2  3  2  0
  3  4  1  0
  4  5  1  0
  5  6  2  0
  5  7  1  0
  7  8  2  0
  8  9  1  0
  9 10  2  0
 10 11  1  0
 11 12  2  0
 11 13  2  0
 11 14  1  0
 14 15  1  0
 15 16  1  0
 16 17  1  0
 17 18  1  0
 10 19  1  0
 19 20  2  0
  3 21  1  0
 21 22  2  0
 21 23  1  0
 23 24  1  0
 24 25  2  0
 25 26  1  0
 26 27  2  0
 27 28  1  0
 28 29  2  0
 23 30  1  0
 30 31  1  0
 30  2  1  0
 20  7  1  0
 29 24  1  0
 18 14  1  0
  1 32  1  0
  1 33  1  0
  1 34  1  0
  8 35  1  0
  9 36  1  0
 15 37  1  0
 15 38  1  0
 16 39  1  0
 16 40  1  0
 17 41  1  0
 17 42  1  0
 18 43  1  0
 18 44  1  0
 19 45  1  0
 20 46  1  0
 25 47  1  0
 26 48  1  0
 27 49  1  0
 28 50  1  0
 29 51  1  0
 31 52  1  0
 31 53  1  0
 31 54  1  0
M  CHG  1   4  -1
M  END
>  <UniqueID>  (26) 
26

>  <SMILES>  (26) 
Cc1c([N-]C(=O)c2ccc(S(=O)(=O)N3CCCC3)cc2)c(=O)n(-c2ccccc2)n1C

>  <Energy>  (26) 
104.7950247473523

>  <Genealogy>  (26) 
Cc1c([N-]C(=O)c2ccc(S(=O)(=O)N3CCCC3)cc2)c(=O)n(-c2ccccc2)n1C (protonated)
Cc1c([N-]C(=O)c2ccc(S(=O)(=O)N3CCCC3)cc2)c(=O)n(-c2ccccc2)n1C (3D coordinates assigned)
Cc1c([N-]C(=O)c2ccc(S(=O)(=O)N3CCCC3)cc2)c(=O)n(-c2ccccc2)n1C (nonaromatic ring conformer: 104.7950247473523 kcal/mol)

>  <smiles>  (26) 
Cc1c(NC(=O)c2ccc(S(=O)(=O)N3CCCC3)cc2)c(=O)n(-c2ccccc2)n1C

>  <score_type>  (26) 
oracle

>  <origin>  (26) 
adgpu

>  <m_score__min__energy>  (26) 
-12.33

>  <m_primary>  (26) 
energy

$$$$
26:0
     RDKit          3D

 50 53  0  0  0  0  0  0  0  0999 V2000
   -0.5170   25.6960  -28.4490 O   0  0  0  0  0  0  0  0  0  0  0  0
   -0.7510   24.4610  -28.3690 C   0  0  0  0  0  0  0  0  0  0  0  0
    0.0730   23.6580  -27.5140 N   0  0  0  0  0  0  0  0  0  0  0  0
   -0.3960   22.6570  -26.5550 C   0  0  0  0  0  0  0  0  0  0  0  0
   -0.0820   23.0650  -25.1100 C   0  0  0  0  0  0  0  0  0  0  0  0
   -0.1740   24.5570  -24.9200 C   0  0  0  0  0  0  0  0  0  0  0  0
   -1.3870   25.2260  -25.1500 C   0  0  0  0  0  0  0  0  0  0  0  0
   -1.4670   26.6140  -25.0020 C   0  0  0  0  0  0  0  0  0  0  0  0
   -0.3360   27.3480  -24.6280 C   0  0  0  0  0  0  0  0  0  0  0  0
   -0.4300   28.7300  -24.4850 O   0  0  0  0  0  0  0  0  0  0  0  0
    0.8790   26.6860  -24.4040 C   0  0  0  0  0  0  0  0  0  0  0  0
    0.9610   25.2980  -24.5510 C   0  0  0  0  0  0  0  0  0  0  0  0
   -1.8440   23.8880  -29.1780 C   0  0  0  0  0  0  0  0  0  0  0  0
   -1.6550   22.6780  -29.8570 C   0  0  0  0  0  0  0  0  0  0  0  0
   -2.6870   22.1380  -30.6250 C   0  0  0  0  0  0  0  0  0  0  0  0
   -3.9100   22.8230  -30.7270 C   0  0  0  0  0  0  0  0  0  0  0  0
   -5.0030   22.2990  -31.5150 N   0  0  0  0  0  0  0  0  0  0  0  0
   -4.7310   21.4600  -32.6870 C   0  0  0  0  0  0  0  0  0  0  0  0
   -5.5750   20.1940  -32.6150 C   0  0  0  0  0  0  0  0  0  0  0  0
   -7.0280   20.5330  -32.4140 C   0  0  0  0  0  0  0  0  0  0  0  0
   -8.0130   19.6240  -32.8310 C   0  0  0  0  0  0  0  0  0  0  0  0
   -9.3650   19.9010  -32.6180 C   0  0  0  0  0  0  0  0  0  0  0  0
   -9.7440   21.0810  -31.9750 C   0  0  0  0  0  0  0  0  0  0  0  0
   -8.7720   21.9860  -31.5390 C   0  0  0  0  0  0  0  0  0  0  0  0
   -7.4090   21.7190  -31.7450 C   0  0  0  0  0  0  0  0  0  0  0  0
   -6.3890   22.7220  -31.2570 C   0  0  0  0  0  0  0  0  0  0  0  0
   -4.0580   24.0100  -30.0740 N   0  0  0  0  0  0  0  0  0  0  0  0
   -3.0680   24.5530  -29.3180 C   0  0  0  0  0  0  0  0  0  0  0  0
   -1.4844   22.5411  -26.6642 H   0  0  0  0  0  0  0  0  0  0  0  0
    0.1241   21.7108  -26.7649 H   0  0  0  0  0  0  0  0  0  0  0  0
   -0.8008   22.5749  -24.4369 H   0  0  0  0  0  0  0  0  0  0  0  0
    0.9477   22.7529  -24.8815 H   0  0  0  0  0  0  0  0  0  0  0  0
   -2.2788   24.6552  -25.4481 H   0  0  0  0  0  0  0  0  0  0  0  0
   -2.4218   27.1304  -25.1801 H   0  0  0  0  0  0  0  0  0  0  0  0
   -0.1310   29.1950  -23.6350 H   0  0  0  0  0  0  0  0  0  0  0  0
    1.7706   27.2601  -24.1117 H   0  0  0  0  0  0  0  0  0  0  0  0
    1.9180   24.7842  -24.3770 H   0  0  0  0  0  0  0  0  0  0  0  0
   -0.6914   22.1524  -29.7847 H   0  0  0  0  0  0  0  0  0  0  0  0
   -2.5442   21.1809  -31.1481 H   0  0  0  0  0  0  0  0  0  0  0  0
   -4.9826   22.0163  -33.6020 H   0  0  0  0  0  0  0  0  0  0  0  0
   -3.6652   21.1885  -32.7029 H   0  0  0  0  0  0  0  0  0  0  0  0
   -5.4621   19.6311  -33.5533 H   0  0  0  0  0  0  0  0  0  0  0  0
   -5.2322   19.5888  -31.7628 H   0  0  0  0  0  0  0  0  0  0  0  0
   -7.7182   18.6882  -33.3284 H   0  0  0  0  0  0  0  0  0  0  0  0
  -10.1320   19.1891  -32.9570 H   0  0  0  0  0  0  0  0  0  0  0  0
  -10.8097   21.2989  -31.8112 H   0  0  0  0  0  0  0  0  0  0  0  0
   -9.0768   22.9131  -31.0314 H   0  0  0  0  0  0  0  0  0  0  0  0
   -6.5651   23.6795  -31.7690 H   0  0  0  0  0  0  0  0  0  0  0  0
   -6.5097   22.8130  -30.1674 H   0  0  0  0  0  0  0  0  0  0  0  0
   -3.2288   25.5178  -28.8146 H   0  0  0  0  0  0  0  0  0  0  0  0
  1  2  2  0
  2  3  1  0
  3  4  1  0
  4  5  1  0
  5  6  1  0
  6  7  2  0
  7  8  1  0
  8  9  2  0
  9 10  1  0
  9 11  1  0
 11 12  2  0
  2 13  1  0
 13 14  2  0
 14 15  1  0
 15 16  2  0
 16 17  1  0
 17 18  1  0
 18 19  1  0
 19 20  1  0
 20 21  2  0
 21 22  1  0
 22 23  2  0
 23 24  1  0
 24 25  2  0
 25 26  1  0
 16 27  1  0
 27 28  2  0
 12  6  1  0
 28 13  1  0
 26 17  1  0
 25 20  1  0
  4 29  1  0
  4 30  1  0
  5 31  1  0
  5 32  1  0
  7 33  1  0
  8 34  1  0
 10 35  1  0
 11 36  1  0
 12 37  1  0
 14 38  1  0
 15 39  1  0
 18 40  1  0
 18 41  1  0
 19 42  1  0
 19 43  1  0
 21 44  1  0
 22 45  1  0
 23 46  1  0
 24 47  1  0
 26 48  1  0
 26 49  1  0
 28 50  1  0
M  CHG  1   3  -1
M  END
>  <UniqueID>  (27) 
27

>  <SMILES>  (27) 
O=C([N-]CCc1ccc(O)cc1)c1ccc(N2CCc3ccccc3C2)nc1

>  <Energy>  (27) 
59.87159120395943

>  <Genealogy>  (27) 
O=C([N-]CCc1ccc(O)cc1)c1ccc(N2CCc3ccccc3C2)nc1 (protonated)
O=C([N-]CCc1ccc(O)cc1)c1ccc(N2CCc3ccccc3C2)nc1 (3D coordinates assigned)
O=C([N-]CCc1ccc(O)cc1)c1ccc(N2CCc3ccccc3C2)nc1 (nonaromatic ring conformer: 59.87159120395943 kcal/mol)

>  <smiles>  (27) 
O=C(NCCc1ccc(O)cc1)c1ccc(N2CCc3ccccc3C2)nc1

>  <score_type>  (27) 
oracle

>  <origin>  (27) 
adgpu

>  <m_score__min__energy>  (27) 
-10.1

>  <m_primary>  (27) 
energy

$$$$
27:0
     RDKit          3D

 45 47  0  0  0  0  0  0  0  0999 V2000
   -7.2290   13.8120  -34.6830 C   0  0  0  0  0  0  0  0  0  0  0  0
   -6.2740   14.9360  -34.2900 C   0  0  0  0  0  0  0  0  0  0  0  0
   -6.9970   16.0450  -33.6660 N   0  0  0  0  0  0  0  0  0  0  0  0
   -6.4850   17.3860  -33.7130 C   0  0  0  0  0  0  0  0  0  0  0  0
   -5.3870   17.6140  -34.2920 O   0  0  0  0  0  0  0  0  0  0  0  0
   -7.2340   18.5010  -33.0940 C   0  0  0  0  0  0  0  0  0  0  0  0
   -6.8120   19.8320  -33.2510 C   0  0  0  0  0  0  0  0  0  0  0  0
   -7.5540   20.8720  -32.6650 C   0  0  0  0  0  0  0  0  0  0  0  0
   -7.1730   22.2170  -32.7900 O   0  0  0  0  0  0  0  0  0  0  0  0
   -6.2340   22.8700  -31.9780 C   0  0  0  0  0  0  0  0  0  0  0  0
   -4.9590   22.3290  -31.7380 C   0  0  0  0  0  0  0  0  0  0  0  0
   -4.0520   23.0010  -30.9150 C   0  0  0  0  0  0  0  0  0  0  0  0
   -4.4090   24.2220  -30.3170 C   0  0  0  0  0  0  0  0  0  0  0  0
   -3.5070   24.9300  -29.4550 N   0  0  0  0  0  0  0  0  0  0  0  0
   -3.0530   24.4950  -28.1650 C   0  0  0  0  0  0  0  0  0  0  0  0
   -3.4140   23.3620  -27.7510 O   0  0  0  0  0  0  0  0  0  0  0  0
   -2.1260   25.3110  -27.3430 C   0  0  0  0  0  0  0  0  0  0  0  0
   -2.1110   25.1650  -25.9440 C   0  0  0  0  0  0  0  0  0  0  0  0
   -1.2370   25.9220  -25.1610 C   0  0  0  0  0  0  0  0  0  0  0  0
   -0.3780   26.8430  -25.7620 C   0  0  0  0  0  0  0  0  0  0  0  0
   -0.3900   27.0080  -27.1490 C   0  0  0  0  0  0  0  0  0  0  0  0
   -1.2590   26.2500  -27.9420 C   0  0  0  0  0  0  0  0  0  0  0  0
   -1.2380   26.4230  -29.3220 O   0  0  0  0  0  0  0  0  0  0  0  0
   -5.6570   24.7860  -30.6040 C   0  0  0  0  0  0  0  0  0  0  0  0
   -6.5640   24.1130  -31.4280 C   0  0  0  0  0  0  0  0  0  0  0  0
   -8.6790   20.5600  -31.8990 C   0  0  0  0  0  0  0  0  0  0  0  0
   -9.0670   19.2270  -31.7580 C   0  0  0  0  0  0  0  0  0  0  0  0
   -8.3480   18.2400  -32.3540 N   0  0  0  0  0  0  0  0  0  0  0  0
   -7.6313   13.3385  -33.7753 H   0  0  0  0  0  0  0  0  0  0  0  0
   -8.0564   14.2253  -35.2785 H   0  0  0  0  0  0  0  0  0  0  0  0
   -6.6875   13.0622  -35.2785 H   0  0  0  0  0  0  0  0  0  0  0  0
   -5.5318   14.5450  -33.5785 H   0  0  0  0  0  0  0  0  0  0  0  0
   -5.7783   15.3082  -35.1987 H   0  0  0  0  0  0  0  0  0  0  0  0
   -7.9070   15.8610  -33.1850 H   0  0  0  0  0  0  0  0  0  0  0  0
   -5.9048   20.0591  -33.8301 H   0  0  0  0  0  0  0  0  0  0  0  0
   -4.6742   21.3723  -32.2002 H   0  0  0  0  0  0  0  0  0  0  0  0
   -3.0549   22.5731  -30.7343 H   0  0  0  0  0  0  0  0  0  0  0  0
   -2.7933   24.4487  -25.4629 H   0  0  0  0  0  0  0  0  0  0  0  0
   -1.2256   25.7921  -24.0688 H   0  0  0  0  0  0  0  0  0  0  0  0
    0.3088   27.4393  -25.1433 H   0  0  0  0  0  0  0  0  0  0  0  0
    0.2863   27.7366  -27.6198 H   0  0  0  0  0  0  0  0  0  0  0  0
   -5.9259   25.7643  -30.1790 H   0  0  0  0  0  0  0  0  0  0  0  0
   -7.5435   24.5639  -31.6452 H   0  0  0  0  0  0  0  0  0  0  0  0
   -9.2553   21.3593  -31.4102 H   0  0  0  0  0  0  0  0  0  0  0  0
   -9.9571   18.9746  -31.1629 H   0  0  0  0  0  0  0  0  0  0  0  0
  1  2  1  0
  2  3  1  0
  3  4  1  0
  4  5  2  0
  4  6  1  0
  6  7  2  0
  7  8  1  0
  8  9  1  0
  9 10  1  0
 10 11  2  0
 11 12  1  0
 12 13  2  0
 13 14  1  0
 14 15  1  0
 15 16  2  0
 15 17  1  0
 17 18  2  0
 18 19  1  0
 19 20  2  0
 20 21  1  0
 21 22  2  0
 22 23  1  0
 13 24  1  0
 24 25  2  0
  8 26  2  0
 26 27  1  0
 27 28  2  0
 28  6  1  0
 25 10  1  0
 22 17  1  0
  1 29  1  0
  1 30  1  0
  1 31  1  0
  2 32  1  0
  2 33  1  0
  3 34  1  0
  7 35  1  0
 11 36  1  0
 12 37  1  0
 18 38  1  0
 19 39  1  0
 20 40  1  0
 21 41  1  0
 24 42  1  0
 25 43  1  0
 26 44  1  0
 27 45  1  0
M  CHG  2  14  -1  23  -1
M  END
>  <UniqueID>  (28) 
28

>  <SMILES>  (28) 
CCNC(=O)c1cc(Oc2ccc([N-]C(=O)c3ccccc3[O-])cc2)ccn1

>  <Energy>  (28) 
57.7159600123249

>  <Genealogy>  (28) 
CCNC(=O)c1cc(Oc2ccc([N-]C(=O)c3ccccc3[O-])cc2)ccn1 (protonated)
CCNC(=O)c1cc(Oc2ccc([N-]C(=O)c3ccccc3[O-])cc2)ccn1 (3D coordinates assigned)
CCNC(=O)c1cc(Oc2ccc([N-]C(=O)c3ccccc3[O-])cc2)ccn1 (optimized conformer: 57.7159600123249 kcal/mol)

>  <smiles>  (28) 
CCNC(=O)c1cc(Oc2ccc(NC(=O)c3ccccc3O)cc2)ccn1

>  <score_type>  (28) 
oracle

>  <origin>  (28) 
adgpu

>  <m_score__min__energy>  (28) 
-12.66

>  <m_primary>  (28) 
energy

$$$$
28:0
     RDKit          3D

 47 49  0  0  0  0  0  0  0  0999 V2000
   -2.0730   20.9330  -29.4830 C   0  0  0  0  0  0  0  0  0  0  0  0
   -1.8260   21.9780  -30.5280 C   0  0  0  0  0  0  0  0  0  0  0  0
   -0.8760   21.8170  -31.3380 O   0  0  0  0  0  0  0  0  0  0  0  0
   -2.6080   23.1770  -30.6070 N   0  0  0  0  0  0  0  0  0  0  0  0
   -4.0330   23.2650  -30.7510 C   0  0  0  0  0  0  0  0  0  0  0  0
   -4.8150   22.1270  -31.0190 C   0  0  0  0  0  0  0  0  0  0  0  0
   -6.2060   22.2400  -31.1940 C   0  0  0  0  0  0  0  0  0  0  0  0
   -7.0260   21.0830  -31.4320 N   0  0  0  0  0  0  0  0  0  0  0  0
   -6.6080   19.9330  -32.1860 C   0  0  0  0  0  0  0  0  0  0  0  0
   -6.2610   18.7290  -31.5490 C   0  0  0  0  0  0  0  0  0  0  0  0
   -5.8390   17.6280  -32.2990 C   0  0  0  0  0  0  0  0  0  0  0  0
   -5.7330   17.7210  -33.6950 C   0  0  0  0  0  0  0  0  0  0  0  0
   -5.3160   16.5250  -34.5060 C   0  0  0  0  0  0  0  0  0  0  0  0
   -3.9900   16.7980  -35.2240 C   0  0  0  0  0  0  0  0  0  0  0  0
   -3.0010   17.4340  -34.2840 C   0  0  0  0  0  0  0  0  0  0  0  0
   -2.9110   18.8320  -34.1910 C   0  0  0  0  0  0  0  0  0  0  0  0
   -2.0160   19.4230  -33.2940 C   0  0  0  0  0  0  0  0  0  0  0  0
   -1.2090   18.6220  -32.4740 C   0  0  0  0  0  0  0  0  0  0  0  0
   -0.3140   19.1990  -31.5770 O   0  0  0  0  0  0  0  0  0  0  0  0
   -1.3060   17.2280  -32.5550 C   0  0  0  0  0  0  0  0  0  0  0  0
   -2.2010   16.6360  -33.4500 C   0  0  0  0  0  0  0  0  0  0  0  0
   -6.0690   18.9260  -34.3310 C   0  0  0  0  0  0  0  0  0  0  0  0
   -6.4910   20.0270  -33.5800 C   0  0  0  0  0  0  0  0  0  0  0  0
   -6.8100   23.5000  -31.0790 C   0  0  0  0  0  0  0  0  0  0  0  0
   -6.0350   24.6370  -30.8440 C   0  0  0  0  0  0  0  0  0  0  0  0
   -4.6490   24.5230  -30.6910 C   0  0  0  0  0  0  0  0  0  0  0  0
   -3.8880   25.6650  -30.4680 O   0  0  0  0  0  0  0  0  0  0  0  0
   -1.9671   21.3812  -28.4840 H   0  0  0  0  0  0  0  0  0  0  0  0
   -3.0907   20.5319  -29.5989 H   0  0  0  0  0  0  0  0  0  0  0  0
   -1.3426   20.1187  -29.5989 H   0  0  0  0  0  0  0  0  0  0  0  0
   -4.3346   21.1402  -31.0924 H   0  0  0  0  0  0  0  0  0  0  0  0
   -7.9880   21.0730  -31.0210 H   0  0  0  0  0  0  0  0  0  0  0  0
   -6.3220   18.6530  -30.4533 H   0  0  0  0  0  0  0  0  0  0  0  0
   -5.5888   16.6841  -31.7926 H   0  0  0  0  0  0  0  0  0  0  0  0
   -5.1943   15.6595  -33.8381 H   0  0  0  0  0  0  0  0  0  0  0  0
   -6.0914   16.3180  -35.2583 H   0  0  0  0  0  0  0  0  0  0  0  0
   -3.5773   15.8482  -35.5949 H   0  0  0  0  0  0  0  0  0  0  0  0
   -4.1752   17.4851  -36.0628 H   0  0  0  0  0  0  0  0  0  0  0  0
   -3.5474   19.4652  -34.8267 H   0  0  0  0  0  0  0  0  0  0  0  0
   -1.9449   20.5189  -33.2316 H   0  0  0  0  0  0  0  0  0  0  0  0
   -0.2910   20.2000  -31.4210 H   0  0  0  0  0  0  0  0  0  0  0  0
   -0.6755   16.5964  -31.9119 H   0  0  0  0  0  0  0  0  0  0  0  0
   -2.2793   15.5400  -33.5016 H   0  0  0  0  0  0  0  0  0  0  0  0
   -6.0000   19.0046  -35.4260 H   0  0  0  0  0  0  0  0  0  0  0  0
   -6.7328   20.9733  -34.0861 H   0  0  0  0  0  0  0  0  0  0  0  0
   -7.9019   23.5932  -31.1746 H   0  0  0  0  0  0  0  0  0  0  0  0
   -6.5150   25.6246  -30.7790 H   0  0  0  0  0  0  0  0  0  0  0  0
  1  2  1  0
  2  3  2  0
  2  4  1  0
  4  5  1  0
  5  6  2  0
  6  7  1  0
  7  8  1  0
  8  9  1  0
  9 10  2  0
 10 11  1  0
 11 12  2  0
 12 13  1  0
 13 14  1  0
 14 15  1  0
 15 16  2  0
 16 17  1  0
 17 18  2  0
 18 19  1  0
 18 20  1  0
 20 21  2  0
 12 22  1  0
 22 23  2  0
  7 24  2  0
 24 25  1  0
 25 26  2  0
 26 27  1  0
 26  5  1  0
 23  9  1  0
 21 15  1  0
  1 28  1  0
  1 29  1  0
  1 30  1  0
  6 31  1  0
  8 32  1  0
 10 33  1  0
 11 34  1  0
 13 35  1  0
 13 36  1  0
 14 37  1  0
 14 38  1  0
 16 39  1  0
 17 40  1  0
 19 41  1  0
 20 42  1  0
 21 43  1  0
 22 44  1  0
 23 45  1  0
 24 46  1  0
 25 47  1  0
M  CHG  2   4  -1  27  -1
M  END
>  <UniqueID>  (29) 
29

>  <SMILES>  (29) 
CC(=O)[N-]c1cc(Nc2ccc(CCc3ccc(O)cc3)cc2)ccc1[O-]

>  <Energy>  (29) 
54.38743825679308

>  <Genealogy>  (29) 
CC(=O)[N-]c1cc(Nc2ccc(CCc3ccc(O)cc3)cc2)ccc1[O-] (protonated)
CC(=O)[N-]c1cc(Nc2ccc(CCc3ccc(O)cc3)cc2)ccc1[O-] (3D coordinates assigned)
CC(=O)[N-]c1cc(Nc2ccc(CCc3ccc(O)cc3)cc2)ccc1[O-] (optimized conformer: 54.38743825679308 kcal/mol)

>  <smiles>  (29) 
CC(=O)Nc1cc(Nc2ccc(CCc3ccc(O)cc3)cc2)ccc1O

>  <score_type>  (29) 
oracle

>  <origin>  (29) 
adgpu

>  <m_score__min__energy>  (29) 
-12.31

>  <m_primary>  (29) 
energy

$$$$
29:0
     RDKit          3D

 60 64  0  0  0  0  0  0  0  0999 V2000
   -3.0740   24.9380  -27.2200 O   0  0  0  0  0  0  0  0  0  0  0  0
   -2.3880   24.5150  -28.1870 C   0  0  0  0  0  0  0  0  0  0  0  0
   -2.7450   24.9130  -29.5180 N   0  0  0  0  0  0  0  0  0  0  0  0
   -3.9650   24.5530  -30.1780 C   0  0  0  0  0  0  0  0  0  0  0  0
   -5.0930   25.3920  -30.1390 C   0  0  0  0  0  0  0  0  0  0  0  0
   -6.2710   25.0180  -30.7910 C   0  0  0  0  0  0  0  0  0  0  0  0
   -6.3340   23.8040  -31.4790 C   0  0  0  0  0  0  0  0  0  0  0  0
   -5.2140   22.9580  -31.5220 C   0  0  0  0  0  0  0  0  0  0  0  0
   -5.3210   21.3790  -32.3010 S   0  0  0  0  0  0  0  0  0  0  0  0
   -4.8190   20.3220  -31.3550 O   0  0  0  0  0  0  0  0  0  0  0  0
   -4.4430   21.3670  -33.5220 O   0  0  0  0  0  0  0  0  0  0  0  0
   -6.9710   21.0060  -32.7530 N   0  0  0  0  0  0  0  0  0  0  0  0
   -7.0570   19.7140  -33.4850 C   0  0  0  0  0  0  0  0  0  0  0  0
   -7.5760   18.5630  -32.6080 C   0  0  0  0  0  0  0  0  0  0  0  0
   -8.9700   18.8840  -32.0400 C   0  0  0  0  0  0  0  0  0  0  0  0
   -9.1910   20.3910  -31.8160 C   0  0  0  0  0  0  0  0  0  0  0  0
   -7.8590   21.1100  -31.5750 C   0  0  0  0  0  0  0  0  0  0  0  0
   -4.0230   23.3530  -30.8950 C   0  0  0  0  0  0  0  0  0  0  0  0
   -1.2100   23.6600  -27.9300 C   0  0  0  0  0  0  0  0  0  0  0  0
   -0.1600   24.1180  -27.1180 C   0  0  0  0  0  0  0  0  0  0  0  0
    0.9580   23.3120  -26.8920 C   0  0  0  0  0  0  0  0  0  0  0  0
    1.0410   22.0460  -27.4760 C   0  0  0  0  0  0  0  0  0  0  0  0
    0.0010   21.5790  -28.2910 C   0  0  0  0  0  0  0  0  0  0  0  0
    0.1370   20.0390  -29.1330 S   0  0  0  0  0  0  0  0  0  0  0  0
   -0.5370   18.9710  -28.3170 O   0  0  0  0  0  0  0  0  0  0  0  0
    1.5760   19.6630  -29.3360 O   0  0  0  0  0  0  0  0  0  0  0  0
   -0.6490   20.1890  -30.6960 C   0  0  0  0  0  0  0  0  0  0  0  0
   -1.9980   20.4310  -30.9290 C   0  0  0  0  0  0  0  0  0  0  0  0
   -2.2230   20.5600  -32.2570 N   0  0  0  0  0  0  0  0  0  0  0  0
   -1.0260   20.4070  -32.8580 C   0  0  0  0  0  0  0  0  0  0  0  0
   -0.7440   20.4790  -34.2250 C   0  0  0  0  0  0  0  0  0  0  0  0
    0.5930   20.3040  -34.6370 C   0  0  0  0  0  0  0  0  0  0  0  0
    1.6090   20.0680  -33.6850 C   0  0  0  0  0  0  0  0  0  0  0  0
    1.2960   20.0050  -32.3130 C   0  0  0  0  0  0  0  0  0  0  0  0
   -0.0390   20.1780  -31.9350 C   0  0  0  0  0  0  0  0  0  0  0  0
   -1.1280   22.3810  -28.5030 C   0  0  0  0  0  0  0  0  0  0  0  0
   -5.0478   26.3460  -29.5933 H   0  0  0  0  0  0  0  0  0  0  0  0
   -7.1491   25.6799  -30.7624 H   0  0  0  0  0  0  0  0  0  0  0  0
   -7.2635   23.5099  -31.9885 H   0  0  0  0  0  0  0  0  0  0  0  0
   -7.7386   19.8393  -34.3392 H   0  0  0  0  0  0  0  0  0  0  0  0
   -6.0395   19.4495  -33.8086 H   0  0  0  0  0  0  0  0  0  0  0  0
   -7.6376   17.6481  -33.2156 H   0  0  0  0  0  0  0  0  0  0  0  0
   -6.8802   18.4230  -31.7676 H   0  0  0  0  0  0  0  0  0  0  0  0
   -9.7299   18.5186  -32.7464 H   0  0  0  0  0  0  0  0  0  0  0  0
   -9.0506   18.3886  -31.0612 H   0  0  0  0  0  0  0  0  0  0  0  0
   -9.6758   20.8199  -32.7054 H   0  0  0  0  0  0  0  0  0  0  0  0
   -9.8276   20.5245  -30.9289 H   0  0  0  0  0  0  0  0  0  0  0  0
   -8.0574   22.1721  -31.3686 H   0  0  0  0  0  0  0  0  0  0  0  0
   -7.3576   20.6341  -30.7194 H   0  0  0  0  0  0  0  0  0  0  0  0
   -3.1294   22.7156  -30.9675 H   0  0  0  0  0  0  0  0  0  0  0  0
   -0.2182   25.1155  -26.6581 H   0  0  0  0  0  0  0  0  0  0  0  0
    1.7756   23.6754  -26.2521 H   0  0  0  0  0  0  0  0  0  0  0  0
    1.9237   21.4148  -27.2960 H   0  0  0  0  0  0  0  0  0  0  0  0
   -2.7693   20.5065  -30.1483 H   0  0  0  0  0  0  0  0  0  0  0  0
   -3.1390   20.7570  -32.7180 H   0  0  0  0  0  0  0  0  0  0  0  0
   -1.5421   20.6668  -34.9583 H   0  0  0  0  0  0  0  0  0  0  0  0
    0.8462   20.3516  -35.7064 H   0  0  0  0  0  0  0  0  0  0  0  0
    2.6492   19.9328  -34.0162 H   0  0  0  0  0  0  0  0  0  0  0  0
    2.0786   19.8250  -31.5613 H   0  0  0  0  0  0  0  0  0  0  0  0
   -1.9559   22.0060  -29.1227 H   0  0  0  0  0  0  0  0  0  0  0  0
  1  2  2  0
  2  3  1  0
  3  4  1  0
  4  5  2  0
  5  6  1  0
  6  7  2  0
  7  8  1  0
  8  9  1  0
  9 10  2  0
  9 11  2  0
  9 12  1  0
 12 13  1  0
 13 14  1  0
 14 15  1  0
 15 16  1  0
 16 17  1  0
  8 18  2  0
  2 19  1  0
 19 20  2  0
 20 21  1  0
 21 22  2  0
 22 23  1  0
 23 24  1  0
 24 25  2  0
 24 26  2  0
 24 27  1  0
 27 28  2  0
 28 29  1  0
 29 30  1  0
 30 31  2  0
 31 32  1  0
 32 33  2  0
 33 34  1  0
 34 35  2  0
 23 36  2  0
 18  4  1  0
 36 19  1  0
 17 12  1  0
 35 27  1  0
 35 30  1  0
  5 37  1  0
  6 38  1  0
  7 39  1  0
 13 40  1  0
 13 41  1  0
 14 42  1  0
 14 43  1  0
 15 44  1  0
 15 45  1  0
 16 46  1  0
 16 47  1  0
 17 48  1  0
 17 49  1  0
 18 50  1  0
 20 51  1  0
 21 52  1  0
 22 53  1  0
 28 54  1  0
 29 55  1  0
 31 56  1  0
 32 57  1  0
 33 58  1  0
 34 59  1  0
 36 60  1  0
M  CHG  1   3  -1
M  END
>  <UniqueID>  (30) 
30

>  <SMILES>  (30) 
O=C([N-]c1cccc(S(=O)(=O)N2CCCCC2)c1)c1cccc(S(=O)(=O)c2c[nH]c3ccccc23)c1

>  <Energy>  (30) 
109.49918348066025

>  <Genealogy>  (30) 
O=C([N-]c1cccc(S(=O)(=O)N2CCCCC2)c1)c1cccc(S(=O)(=O)c2c[nH]c3ccccc23)c1 (protonated)
O=C([N-]c1cccc(S(=O)(=O)N2CCCCC2)c1)c1cccc(S(=O)(=O)c2c[nH]c3ccccc23)c1 (3D coordinates assigned)
O=C([N-]c1cccc(S(=O)(=O)N2CCCCC2)c1)c1cccc(S(=O)(=O)c2c[nH]c3ccccc23)c1 (nonaromatic ring conformer: 109.49918348066025 kcal/mol)

>  <smiles>  (30) 
O=C(Nc1cccc(S(=O)(=O)N2CCCCC2)c1)c1cccc(S(=O)(=O)c2c[nH]c3ccccc23)c1

>  <score_type>  (30) 
oracle

>  <origin>  (30) 
adgpu

>  <m_score__min__energy>  (30) 
-13.050000000000001

>  <m_primary>  (30) 
energy

$$$$
30:0
     RDKit          3D

 58 61  0  0  0  0  0  0  0  0999 V2000
   -9.2280   22.0090  -31.9410 C   0  0  0  0  0  0  0  0  0  0  0  0
   -7.8890   22.4050  -31.3940 C   0  0  0  0  0  0  0  0  0  0  0  0
   -7.6750   22.4540  -30.0080 C   0  0  0  0  0  0  0  0  0  0  0  0
   -6.4150   22.7850  -29.4990 C   0  0  0  0  0  0  0  0  0  0  0  0
   -5.3460   23.0630  -30.3690 C   0  0  0  0  0  0  0  0  0  0  0  0
   -4.0420   23.3850  -29.8500 N   0  0  0  0  0  0  0  0  0  0  0  0
   -3.2390   22.5570  -29.1500 C   0  0  0  0  0  0  0  0  0  0  0  0
   -2.0790   23.2230  -28.7870 C   0  0  0  0  0  0  0  0  0  0  0  0
   -0.9280   22.6790  -27.9790 C   0  0  2  0  0  0  0  0  0  0  0  0
    0.3040   23.1810  -28.4290 O   0  0  0  0  0  0  0  0  0  0  0  0
   -0.9120   21.2140  -28.0330 N   0  0  0  0  0  0  0  0  0  0  0  0
   -0.6650   20.4200  -29.2140 C   0  0  0  0  0  0  0  0  0  0  0  0
    0.3730   19.4760  -29.1970 C   0  0  0  0  0  0  0  0  0  0  0  0
    0.6380   18.6890  -30.3210 C   0  0  0  0  0  0  0  0  0  0  0  0
   -0.1370   18.8300  -31.4740 C   0  0  0  0  0  0  0  0  0  0  0  0
   -1.1820   19.7580  -31.5070 C   0  0  0  0  0  0  0  0  0  0  0  0
   -2.1640   19.9400  -32.9620 S   0  0  0  0  0  0  0  0  0  0  0  0
   -1.2940   19.7720  -34.1790 O   0  0  0  0  0  0  0  0  0  0  0  0
   -2.7480   21.3250  -32.9830 O   0  0  0  0  0  0  0  0  0  0  0  0
   -3.4510   18.7570  -32.9740 N   0  0  0  0  0  0  0  0  0  0  0  0
   -3.6040   18.1930  -34.3380 C   0  0  0  0  0  0  0  0  0  0  0  0
   -4.9830   17.5540  -34.5380 C   0  0  0  0  0  0  0  0  0  0  0  0
   -6.1010   18.6020  -34.3920 C   0  0  0  0  0  0  0  0  0  0  0  0
   -5.6960   19.7810  -33.4890 C   0  0  0  0  0  0  0  0  0  0  0  0
   -4.7030   19.3330  -32.4070 C   0  0  0  0  0  0  0  0  0  0  0  0
   -1.4360   20.5590  -30.3860 C   0  0  0  0  0  0  0  0  0  0  0  0
   -2.1650   24.5020  -29.3090 C   0  0  0  0  0  0  0  0  0  0  0  0
   -3.3830   24.5600  -29.9500 C   0  0  0  0  0  0  0  0  0  0  0  0
   -3.8580   25.6700  -30.6370 O   0  0  0  0  0  0  0  0  0  0  0  0
   -5.5580   22.9860  -31.7560 C   0  0  0  0  0  0  0  0  0  0  0  0
   -6.8180   22.6570  -32.2640 C   0  0  0  0  0  0  0  0  0  0  0  0
   -9.9181   21.8049  -31.1091 H   0  0  0  0  0  0  0  0  0  0  0  0
   -9.6287   22.8271  -32.5576 H   0  0  0  0  0  0  0  0  0  0  0  0
   -9.1193   21.1045  -32.5576 H   0  0  0  0  0  0  0  0  0  0  0  0
   -8.5024   22.2310  -29.3183 H   0  0  0  0  0  0  0  0  0  0  0  0
   -6.2594   22.8281  -28.4109 H   0  0  0  0  0  0  0  0  0  0  0  0
   -3.4703   21.5101  -28.9042 H   0  0  0  0  0  0  0  0  0  0  0  0
   -1.0734   23.0063  -26.9389 H   0  0  0  0  0  0  0  0  0  0  0  0
    0.5450   23.9340  -27.8300 H   0  0  0  0  0  0  0  0  0  0  0  0
   -1.1060   20.7110  -27.1360 H   0  0  0  0  0  0  0  0  0  0  0  0
    0.9839   19.3543  -28.2904 H   0  0  0  0  0  0  0  0  0  0  0  0
    1.4587   17.9570  -30.2974 H   0  0  0  0  0  0  0  0  0  0  0  0
    0.0751   18.2100  -32.3575 H   0  0  0  0  0  0  0  0  0  0  0  0
   -3.1420   17.9820  -32.3400 H   0  0  0  0  0  0  0  0  0  0  0  0
   -3.4756   19.0006  -35.0738 H   0  0  0  0  0  0  0  0  0  0  0  0
   -2.8420   17.4112  -34.4724 H   0  0  0  0  0  0  0  0  0  0  0  0
   -5.0327   17.1123  -35.5442 H   0  0  0  0  0  0  0  0  0  0  0  0
   -5.1256   16.7790  -33.7705 H   0  0  0  0  0  0  0  0  0  0  0  0
   -6.3499   18.9923  -35.3898 H   0  0  0  0  0  0  0  0  0  0  0  0
   -6.9629   18.1051  -33.9229 H   0  0  0  0  0  0  0  0  0  0  0  0
   -5.2269   20.5615  -34.1061 H   0  0  0  0  0  0  0  0  0  0  0  0
   -6.5991   20.1691  -32.9952 H   0  0  0  0  0  0  0  0  0  0  0  0
   -4.4404   20.2041  -31.7888 H   0  0  0  0  0  0  0  0  0  0  0  0
   -5.1916   18.5447  -31.8155 H   0  0  0  0  0  0  0  0  0  0  0  0
   -2.2449   21.3036  -30.4207 H   0  0  0  0  0  0  0  0  0  0  0  0
   -1.4170   25.3045  -29.2288 H   0  0  0  0  0  0  0  0  0  0  0  0
   -4.7261   23.1862  -32.4472 H   0  0  0  0  0  0  0  0  0  0  0  0
   -6.9704   22.5954  -33.3516 H   0  0  0  0  0  0  0  0  0  0  0  0
  1  2  1  0
  2  3  2  0
  3  4  1  0
  4  5  2  0
  5  6  1  0
  6  7  1  0
  7  8  2  0
  8  9  1  0
  9 10  1  0
  9 11  1  0
 11 12  1  0
 12 13  2  0
 13 14  1  0
 14 15  2  0
 15 16  1  0
 16 17  1  0
 17 18  2  0
 17 19  2  0
 17 20  1  0
 20 21  1  0
 21 22  1  0
 22 23  1  0
 23 24  1  0
 24 25  1  0
 16 26  2  0
  8 27  1  0
 27 28  2  0
 28 29  1  0
  5 30  1  0
 30 31  2  0
 31  2  1  0
 28  6  1  0
 26 12  1  0
 25 20  1  0
  1 32  1  0
  1 33  1  0
  1 34  1  0
  3 35  1  0
  4 36  1  0
  7 37  1  0
  9 38  1  1
 10 39  1  0
 11 40  1  0
 13 41  1  0
 14 42  1  0
 15 43  1  0
 20 44  1  0
 21 45  1  0
 21 46  1  0
 22 47  1  0
 22 48  1  0
 23 49  1  0
 23 50  1  0
 24 51  1  0
 24 52  1  0
 25 53  1  0
 25 54  1  0
 26 55  1  0
 27 56  1  0
 30 57  1  0
 31 58  1  0
M  CHG  2  20   1  29  -1
M  END
>  <UniqueID>  (31) 
31

>  <SMILES>  (31) 
Cc1ccc(-n2cc([C@H](O)Nc3cccc(S(=O)(=O)[NH+]4CCCCC4)c3)cc2[O-])cc1

>  <Energy>  (31) 
96.15896350350263

>  <Genealogy>  (31) 
Cc1ccc(-n2cc(C(O)Nc3cccc(S(=O)(=O)[NH+]4CCCCC4)c3)cc2[O-])cc1 (protonated)
Cc1ccc(-n2cc([C@H](O)Nc3cccc(S(=O)(=O)[NH+]4CCCCC4)c3)cc2[O-])cc1 (chirality)
Cc1ccc(-n2cc([C@H](O)Nc3cccc(S(=O)(=O)[NH+]4CCCCC4)c3)cc2[O-])cc1 (3D coordinates assigned)
Cc1ccc(-n2cc([C@H](O)Nc3cccc(S(=O)(=O)[NH+]4CCCCC4)c3)cc2[O-])cc1 (nonaromatic ring conformer: 96.15896350350263 kcal/mol)

>  <smiles>  (31) 
Cc1ccc(-n2cc(C(O)Nc3cccc(S(=O)(=O)N4CCCCC4)c3)cc2O)cc1

>  <score_type>  (31) 
oracle

>  <origin>  (31) 
adgpu

>  <m_score__min__energy>  (31) 
-11.98

>  <m_primary>  (31) 
energy

$$$$
31:0
     RDKit          3D

 42 44  0  0  1  0  0  0  0  0999 V2000
   -0.2050   22.2790  -34.9760 O   0  0  0  0  0  0  0  0  0  0  0  0
   -0.0970   20.8910  -35.1250 C   0  0  0  0  0  0  0  0  0  0  0  0
   -0.8720   20.2110  -34.0130 C   0  0  0  0  0  0  0  0  0  0  0  0
   -2.1190   20.8670  -33.7150 N   0  0  0  0  0  0  0  0  0  0  0  0
   -3.2490   20.2730  -33.5470 C   0  0  0  0  0  0  0  0  0  0  0  0
   -4.3340   20.9890  -33.2760 N   0  0  0  0  0  0  0  0  0  0  0  0
   -5.4960   20.3340  -33.1070 C   0  0  0  0  0  0  0  0  0  0  0  0
   -6.5840   20.9500  -32.8440 N   0  0  0  0  0  0  0  0  0  0  0  0
   -6.6960   22.3650  -32.7010 C   0  0  0  0  0  0  0  0  0  0  0  0
   -5.9090   22.8820  -31.5390 C   0  0  0  0  0  0  0  0  0  0  0  0
   -5.5620   22.0900  -30.4650 C   0  0  0  0  0  0  0  0  0  0  0  0
   -4.8300   22.5770  -29.3830 C   0  0  0  0  0  0  0  0  0  0  0  0
   -4.4240   23.8940  -29.3620 C   0  0  0  0  0  0  0  0  0  0  0  0
   -3.6930   24.4490  -28.3210 O   0  0  0  0  0  0  0  0  0  0  0  0
   -4.7570   24.7080  -30.4240 C   0  0  0  0  0  0  0  0  0  0  0  0
   -4.3910   26.0480  -30.4880 O   0  0  0  0  0  0  0  0  0  0  0  0
   -5.4790   24.2070  -31.4780 C   0  0  0  0  0  0  0  0  0  0  0  0
   -5.5640   18.9520  -33.2120 C   0  0  0  0  0  0  0  0  0  0  0  0
   -6.7410   18.2780  -33.0420 C   0  0  0  0  0  0  0  0  0  0  0  0
   -6.8020   16.9000  -33.1470 C   0  0  0  0  0  0  0  0  0  0  0  0
   -5.6530   16.1880  -33.4310 C   0  0  0  0  0  0  0  0  0  0  0  0
   -4.4520   16.8560  -33.6060 C   0  0  0  0  0  0  0  0  0  0  0  0
   -4.4180   18.2300  -33.4960 C   0  0  0  0  0  0  0  0  0  0  0  0
   -3.2800   18.9320  -33.6550 N   0  0  0  0  0  0  0  0  0  0  0  0
   -1.1290   22.5250  -34.7420 H   0  0  0  0  0  0  0  0  0  0  0  0
   -0.5112   20.5917  -36.0991 H   0  0  0  0  0  0  0  0  0  0  0  0
    0.9610   20.5940  -35.0748 H   0  0  0  0  0  0  0  0  0  0  0  0
   -1.0843   19.1751  -34.3161 H   0  0  0  0  0  0  0  0  0  0  0  0
   -0.2520   20.2538  -33.1054 H   0  0  0  0  0  0  0  0  0  0  0  0
   -4.3520   22.0150  -33.1850 H   0  0  0  0  0  0  0  0  0  0  0  0
   -6.3263   22.8438  -33.6197 H   0  0  0  0  0  0  0  0  0  0  0  0
   -7.7551   22.6025  -32.5225 H   0  0  0  0  0  0  0  0  0  0  0  0
   -5.8742   21.0352  -30.4618 H   0  0  0  0  0  0  0  0  0  0  0  0
   -4.5764   21.9100  -28.5459 H   0  0  0  0  0  0  0  0  0  0  0  0
   -3.8810   25.3770  -27.9410 H   0  0  0  0  0  0  0  0  0  0  0  0
   -3.8530   26.4790  -29.7290 H   0  0  0  0  0  0  0  0  0  0  0  0
   -5.7295   24.8801  -32.3112 H   0  0  0  0  0  0  0  0  0  0  0  0
   -7.6579   18.8426  -32.8172 H   0  0  0  0  0  0  0  0  0  0  0  0
   -7.7583   16.3752  -33.0054 H   0  0  0  0  0  0  0  0  0  0  0  0
   -5.6915   15.0921  -33.5181 H   0  0  0  0  0  0  0  0  0  0  0  0
   -3.5330   16.2948  -33.8309 H   0  0  0  0  0  0  0  0  0  0  0  0
   -2.4170   18.3870  -33.8690 H   0  0  0  0  0  0  0  0  0  0  0  0
  1  2  1  0
  2  3  1  0
  3  4  1  0
  4  5  2  0
  5  6  1  0
  6  7  1  0
  7  8  2  0
  8  9  1  0
  9 10  1  0
 10 11  2  0
 11 12  1  0
 12 13  2  0
 13 14  1  0
 13 15  1  0
 15 16  1  0
 15 17  2  0
  7 18  1  0
 18 19  2  0
 19 20  1  0
 20 21  2  0
 21 22  1  0
 22 23  2  0
 23 24  1  0
 24  5  1  0
 17 10  1  0
 23 18  1  0
  1 25  1  0
  2 26  1  0
  2 27  1  0
  3 28  1  0
  3 29  1  0
  6 30  1  0
  9 31  1  0
  9 32  1  0
 11 33  1  0
 12 34  1  0
 14 35  1  0
 16 36  1  0
 17 37  1  0
 19 38  1  0
 20 39  1  0
 21 40  1  0
 22 41  1  0
 24 42  1  0
M  END
>  <smiles>  (32) 
OCCN=c1[nH]c(=NCc2ccc(O)c(O)c2)c2ccccc2[nH]1

>  <score_type>  (32) 
oracle

>  <origin>  (32) 
adgpu

>  <m_score__min__energy>  (32) 
-8.4700000000000006

>  <m_primary>  (32) 
energy

$$$$
32:0
     RDKit          3D

 61 64  0  0  0  0  0  0  0  0999 V2000
   -1.2320   26.5360  -25.0960 C   0  0  0  0  0  0  0  0  0  0  0  0
   -1.5940   25.8060  -26.3550 C   0  0  0  0  0  0  0  0  0  0  0  0
   -0.8890   26.0500  -27.5410 C   0  0  0  0  0  0  0  0  0  0  0  0
   -1.2560   25.4060  -28.7240 C   0  0  0  0  0  0  0  0  0  0  0  0
   -2.3460   24.5250  -28.7430 C   0  0  0  0  0  0  0  0  0  0  0  0
   -2.7240   23.8820  -30.0130 C   0  0  0  0  0  0  0  0  0  0  0  0
   -3.5230   24.4890  -30.7770 O   0  0  0  0  0  0  0  0  0  0  0  0
   -2.1850   22.5980  -30.4040 N   0  0  0  0  0  0  0  0  0  0  0  0
   -0.7700   22.2590  -30.1800 C   0  0  0  0  0  0  0  0  0  0  0  0
   -0.6450   21.0920  -29.2370 C   0  0  0  0  0  0  0  0  0  0  0  0
    0.1630   19.9890  -29.5660 C   0  0  0  0  0  0  0  0  0  0  0  0
    0.2370   18.8890  -28.7070 C   0  0  0  0  0  0  0  0  0  0  0  0
   -0.4750   18.8890  -27.5040 C   0  0  0  0  0  0  0  0  0  0  0  0
   -1.2630   19.9900  -27.1580 C   0  0  0  0  0  0  0  0  0  0  0  0
   -1.3480   21.0900  -28.0190 C   0  0  0  0  0  0  0  0  0  0  0  0
   -3.0150   21.6850  -31.1480 C   0  0  0  0  0  0  0  0  0  0  0  0
   -4.0500   20.9830  -30.5110 C   0  0  0  0  0  0  0  0  0  0  0  0
   -4.8310   20.0720  -31.2290 C   0  0  0  0  0  0  0  0  0  0  0  0
   -4.5830   19.8490  -32.5910 C   0  0  0  0  0  0  0  0  0  0  0  0
   -5.5450   18.6760  -33.4930 S   0  0  0  0  0  0  0  0  0  0  0  0
   -5.0860   17.2890  -33.1400 O   0  0  0  0  0  0  0  0  0  0  0  0
   -5.3250   18.8790  -34.9660 O   0  0  0  0  0  0  0  0  0  0  0  0
   -7.2480   18.8250  -33.1360 N   0  0  0  0  0  0  0  0  0  0  0  0
   -7.6260   20.2420  -32.9920 C   0  0  0  0  0  0  0  0  0  0  0  0
   -9.0430   20.3740  -32.3980 C   0  0  0  0  0  0  0  0  0  0  0  0
   -9.7380   19.1450  -32.4700 O   0  0  0  0  0  0  0  0  0  0  0  0
   -9.1040   18.1810  -31.6470 C   0  0  0  0  0  0  0  0  0  0  0  0
   -7.5870   18.0820  -31.9150 C   0  0  0  0  0  0  0  0  0  0  0  0
   -3.5580   20.5580  -33.2310 C   0  0  0  0  0  0  0  0  0  0  0  0
   -2.7780   21.4690  -32.5140 C   0  0  0  0  0  0  0  0  0  0  0  0
   -3.0590   24.2650  -27.5510 C   0  0  0  0  0  0  0  0  0  0  0  0
   -4.2400   23.3290  -27.5410 C   0  0  0  0  0  0  0  0  0  0  0  0
   -2.6850   24.9250  -26.3680 C   0  0  0  0  0  0  0  0  0  0  0  0
   -1.5303   25.9345  -24.2247 H   0  0  0  0  0  0  0  0  0  0  0  0
   -0.1454   26.7055  -25.0699 H   0  0  0  0  0  0  0  0  0  0  0  0
   -1.7547   27.5035  -25.0699 H   0  0  0  0  0  0  0  0  0  0  0  0
   -0.0424   26.7523  -27.5400 H   0  0  0  0  0  0  0  0  0  0  0  0
   -0.6864   25.5911  -29.6467 H   0  0  0  0  0  0  0  0  0  0  0  0
   -0.3048   21.9974  -31.1418 H   0  0  0  0  0  0  0  0  0  0  0  0
   -0.2642   23.1287  -29.7353 H   0  0  0  0  0  0  0  0  0  0  0  0
    0.7390   19.9920  -30.5031 H   0  0  0  0  0  0  0  0  0  0  0  0
    0.8567   18.0216  -28.9781 H   0  0  0  0  0  0  0  0  0  0  0  0
   -0.4150   18.0221  -26.8295 H   0  0  0  0  0  0  0  0  0  0  0  0
   -1.8171   19.9920  -26.2078 H   0  0  0  0  0  0  0  0  0  0  0  0
   -1.9669   21.9562  -27.7421 H   0  0  0  0  0  0  0  0  0  0  0  0
   -4.2478   21.1502  -29.4419 H   0  0  0  0  0  0  0  0  0  0  0  0
   -5.6428   19.5284  -30.7236 H   0  0  0  0  0  0  0  0  0  0  0  0
   -6.9076   20.7407  -32.3248 H   0  0  0  0  0  0  0  0  0  0  0  0
   -7.6157   20.7121  -33.9864 H   0  0  0  0  0  0  0  0  0  0  0  0
   -8.9645   20.6819  -31.3449 H   0  0  0  0  0  0  0  0  0  0  0  0
   -9.5982   21.1256  -32.9784 H   0  0  0  0  0  0  0  0  0  0  0  0
   -9.2589   18.4592  -30.5941 H   0  0  0  0  0  0  0  0  0  0  0  0
   -9.5488   17.2013  -31.8757 H   0  0  0  0  0  0  0  0  0  0  0  0
   -7.0371   18.5088  -31.0633 H   0  0  0  0  0  0  0  0  0  0  0  0
   -7.3091   17.0255  -32.0437 H   0  0  0  0  0  0  0  0  0  0  0  0
   -3.3665   20.3968  -34.3022 H   0  0  0  0  0  0  0  0  0  0  0  0
   -1.9736   22.0200  -33.0233 H   0  0  0  0  0  0  0  0  0  0  0  0
   -4.5220   23.1055  -26.5015 H   0  0  0  0  0  0  0  0  0  0  0  0
   -5.0879   23.8030  -28.0571 H   0  0  0  0  0  0  0  0  0  0  0  0
   -3.9722   22.3952  -28.0571 H   0  0  0  0  0  0  0  0  0  0  0  0
   -3.2537   24.7488  -25.4430 H   0  0  0  0  0  0  0  0  0  0  0  0
  1  2  1  0
  2  3  2  0
  3  4  1  0
  4  5  2  0
  5  6  1  0
  6  7  2  0
  6  8  1  0
  8  9  1  0
  9 10  1  0
 10 11  2  0
 11 12  1  0
 12 13  2  0
 13 14  1  0
 14 15  2  0
  8 16  1  0
 16 17  2  0
 17 18  1  0
 18 19  2  0
 19 20  1  0
 20 21  2  0
 20 22  2  0
 20 23  1  0
 23 24  1  0
 24 25  1  0
 25 26  1  0
 26 27  1  0
 27 28  1  0
 19 29  1  0
 29 30  2  0
  5 31  1  0
 31 32  1  0
 31 33  2  0
 33  2  1  0
 15 10  1  0
 30 16  1  0
 28 23  1  0
  1 34  1  0
  1 35  1  0
  1 36  1  0
  3 37  1  0
  4 38  1  0
  9 39  1  0
  9 40  1  0
 11 41  1  0
 12 42  1  0
 13 43  1  0
 14 44  1  0
 15 45  1  0
 17 46  1  0
 18 47  1  0
 24 48  1  0
 24 49  1  0
 25 50  1  0
 25 51  1  0
 27 52  1  0
 27 53  1  0
 28 54  1  0
 28 55  1  0
 29 56  1  0
 30 57  1  0
 32 58  1  0
 32 59  1  0
 32 60  1  0
 33 61  1  0
M  END
>  <UniqueID>  (33) 
32

>  <SMILES>  (33) 
Cc1ccc(C(=O)N(Cc2ccccc2)c2ccc(S(=O)(=O)N3CCOCC3)cc2)c(C)c1

>  <Energy>  (33) 
79.5900792203771

>  <Genealogy>  (33) 
Cc1ccc(C(=O)N(Cc2ccccc2)c2ccc(S(=O)(=O)N3CCOCC3)cc2)c(C)c1 (3D coordinates assigned)
Cc1ccc(C(=O)N(Cc2ccccc2)c2ccc(S(=O)(=O)N3CCOCC3)cc2)c(C)c1 (nonaromatic ring conformer: 79.5900792203771 kcal/mol)

>  <smiles>  (33) 
Cc1ccc(C(=O)N(Cc2ccccc2)c2ccc(S(=O)(=O)N3CCOCC3)cc2)c(C)c1

>  <score_type>  (33) 
oracle

>  <origin>  (33) 
adgpu

>  <m_score__min__energy>  (33) 
-9.9700000000000006

>  <m_primary>  (33) 
energy

$$$$
33:0
     RDKit          3D

 46 48  0  0  0  0  0  0  0  0999 V2000
    0.4330   21.2440  -31.9790 N   0  0  0  0  0  0  0  0  0  0  0  0
   -0.2350   20.2930  -30.7000 S   0  0  0  0  0  0  0  0  0  0  0  0
    0.8600   19.8910  -29.7520 O   0  0  0  0  0  0  0  0  0  0  0  0
   -0.8630   19.0490  -31.2660 O   0  0  0  0  0  0  0  0  0  0  0  0
   -1.4540   21.2340  -29.8470 C   0  0  0  0  0  0  0  0  0  0  0  0
   -1.8160   20.9060  -28.5350 C   0  0  0  0  0  0  0  0  0  0  0  0
   -2.7740   21.6650  -27.8600 C   0  0  0  0  0  0  0  0  0  0  0  0
   -3.3720   22.7610  -28.4890 C   0  0  0  0  0  0  0  0  0  0  0  0
   -3.0080   23.1080  -29.8030 C   0  0  0  0  0  0  0  0  0  0  0  0
   -3.5770   24.2370  -30.4800 N   0  0  0  0  0  0  0  0  0  0  0  0
   -5.2320   24.7410  -30.3630 S   0  0  0  0  0  0  0  0  0  0  0  0
   -5.5830   24.9350  -28.9150 O   0  0  0  0  0  0  0  0  0  0  0  0
   -5.4000   26.0460  -31.0910 O   0  0  0  0  0  0  0  0  0  0  0  0
   -6.2950   23.5140  -31.0460 C   0  0  0  0  0  0  0  0  0  0  0  0
   -7.6600   23.7800  -31.2180 C   0  0  0  0  0  0  0  0  0  0  0  0
   -8.4990   22.8090  -31.7720 C   0  0  0  0  0  0  0  0  0  0  0  0
   -7.9810   21.5690  -32.1560 C   0  0  0  0  0  0  0  0  0  0  0  0
   -6.6160   21.2960  -31.9890 C   0  0  0  0  0  0  0  0  0  0  0  0
   -5.9510   19.7370  -32.4570 S   0  0  0  0  0  0  0  0  0  0  0  0
   -5.9720   18.7890  -31.2890 O   0  0  0  0  0  0  0  0  0  0  0  0
   -6.7860   19.1420  -33.5570 O   0  0  0  0  0  0  0  0  0  0  0  0
   -4.2970   19.9640  -33.0090 C   0  0  0  0  0  0  0  0  0  0  0  0
   -3.5280   18.8630  -33.4030 C   0  0  0  0  0  0  0  0  0  0  0  0
   -2.2200   19.0450  -33.8630 C   0  0  0  0  0  0  0  0  0  0  0  0
   -1.6650   20.3350  -33.9410 C   0  0  0  0  0  0  0  0  0  0  0  0
   -0.3180   20.5290  -34.4140 N   0  0  0  0  0  0  0  0  0  0  0  0
    0.3960   19.5520  -34.7190 O   0  0  0  0  0  0  0  0  0  0  0  0
    0.2040   21.7960  -34.5380 O   0  0  0  0  0  0  0  0  0  0  0  0
   -2.4460   21.4370  -33.5510 C   0  0  0  0  0  0  0  0  0  0  0  0
   -3.7540   21.2520  -33.0910 C   0  0  0  0  0  0  0  0  0  0  0  0
   -5.7790   22.2660  -31.4210 C   0  0  0  0  0  0  0  0  0  0  0  0
   -2.0500   22.3370  -30.4750 C   0  0  0  0  0  0  0  0  0  0  0  0
    0.7290   20.5810  -32.7300 H   0  0  0  0  0  0  0  0  0  0  0  0
   -0.3460   21.8170  -32.3730 H   0  0  0  0  0  0  0  0  0  0  0  0
   -1.3442   20.0476  -28.0344 H   0  0  0  0  0  0  0  0  0  0  0  0
   -3.0588   21.4000  -26.8311 H   0  0  0  0  0  0  0  0  0  0  0  0
   -4.1293   23.3538  -27.9550 H   0  0  0  0  0  0  0  0  0  0  0  0
   -8.0719   24.7544  -30.9166 H   0  0  0  0  0  0  0  0  0  0  0  0
   -9.5699   23.0214  -31.9061 H   0  0  0  0  0  0  0  0  0  0  0  0
   -8.6449   20.8066  -32.5896 H   0  0  0  0  0  0  0  0  0  0  0  0
   -3.9542   17.8503  -33.3506 H   0  0  0  0  0  0  0  0  0  0  0  0
   -1.6212   18.1734  -34.1659 H   0  0  0  0  0  0  0  0  0  0  0  0
   -2.0255   22.4519  -33.6080 H   0  0  0  0  0  0  0  0  0  0  0  0
   -4.3581   22.1215  -32.7926 H   0  0  0  0  0  0  0  0  0  0  0  0
   -4.7119   22.0468  -31.2688 H   0  0  0  0  0  0  0  0  0  0  0  0
   -1.7631   22.5993  -31.5040 H   0  0  0  0  0  0  0  0  0  0  0  0
  1  2  1  0
  2  3  2  0
  2  4  2  0
  2  5  1  0
  5  6  2  0
  6  7  1  0
  7  8  2  0
  8  9  1  0
  9 10  1  0
 10 11  1  0
 11 12  2  0
 11 13  2  0
 11 14  1  0
 14 15  2  0
 15 16  1  0
 16 17  2  0
 17 18  1  0
 18 19  1  0
 19 20  2  0
 19 21  2  0
 19 22  1  0
 22 23  2  0
 23 24  1  0
 24 25  2  0
 25 26  1  0
 26 27  2  0
 26 28  1  0
 25 29  1  0
 29 30  2  0
 18 31  2  0
  9 32  2  0
 32  5  1  0
 31 14  1  0
 30 22  1  0
  1 33  1  0
  1 34  1  0
  6 35  1  0
  7 36  1  0
  8 37  1  0
 15 38  1  0
 16 39  1  0
 17 40  1  0
 23 41  1  0
 24 42  1  0
 29 43  1  0
 30 44  1  0
 31 45  1  0
 32 46  1  0
M  CHG  3  10  -1  26   1  28  -1
M  END
>  <UniqueID>  (34) 
33

>  <SMILES>  (34) 
NS(=O)(=O)c1cccc([N-]S(=O)(=O)c2cccc(S(=O)(=O)c3ccc([N+](=O)[O-])cc3)c2)c1

>  <Energy>  (34) 
52.90450022787368

>  <Genealogy>  (34) 
NS(=O)(=O)c1cccc([N-]S(=O)(=O)c2cccc(S(=O)(=O)c3ccc([N+](=O)[O-])cc3)c2)c1 (protonated)
NS(=O)(=O)c1cccc([N-]S(=O)(=O)c2cccc(S(=O)(=O)c3ccc([N+](=O)[O-])cc3)c2)c1 (3D coordinates assigned)
NS(=O)(=O)c1cccc([N-]S(=O)(=O)c2cccc(S(=O)(=O)c3ccc([N+](=O)[O-])cc3)c2)c1 (optimized conformer: 52.90450022787368 kcal/mol)

>  <smiles>  (34) 
NS(=O)(=O)c1cccc(NS(=O)(=O)c2cccc(S(=O)(=O)c3ccc([N+](=O)[O-])cc3)c2)c1

>  <score_type>  (34) 
oracle

>  <origin>  (34) 
adgpu

>  <m_score__min__energy>  (34) 
-11.24

>  <m_primary>  (34) 
energy

$$$$
34:0
     RDKit          3D

 35 37  0  0  0  0  0  0  0  0999 V2000
   -3.9130   25.2930  -30.8450 O   0  0  0  0  0  0  0  0  0  0  0  0
   -3.3980   24.7010  -29.8590 C   0  0  0  0  0  0  0  0  0  0  0  0
   -3.9220   23.3660  -29.4410 C   0  0  0  0  0  0  0  0  0  0  0  0
   -5.7400   23.2940  -29.6150 S   0  0  0  0  0  0  0  0  0  0  0  0
   -5.7270   22.1840  -31.0380 C   0  0  0  0  0  0  0  0  0  0  0  0
   -4.5120   21.9780  -31.7010 C   0  0  0  0  0  0  0  0  0  0  0  0
   -4.4510   21.1010  -32.7870 C   0  0  0  0  0  0  0  0  0  0  0  0
   -3.3550   20.8980  -33.3720 O   0  0  0  0  0  0  0  0  0  0  0  0
   -5.5720   20.4630  -33.2090 N   0  0  0  0  0  0  0  0  0  0  0  0
   -6.7750   20.6500  -32.6070 C   0  0  0  0  0  0  0  0  0  0  0  0
   -7.9030   19.9720  -33.0850 C   0  0  0  0  0  0  0  0  0  0  0  0
   -9.1440   20.1570  -32.4730 C   0  0  0  0  0  0  0  0  0  0  0  0
   -9.2660   21.0210  -31.3810 C   0  0  0  0  0  0  0  0  0  0  0  0
   -8.1480   21.7040  -30.8930 C   0  0  0  0  0  0  0  0  0  0  0  0
   -6.8880   21.5260  -31.4980 C   0  0  0  0  0  0  0  0  0  0  0  0
   -2.3180   25.2940  -29.1250 N   0  0  0  0  0  0  0  0  0  0  0  0
   -1.7490   24.8150  -27.8990 C   0  0  0  0  0  0  0  0  0  0  0  0
   -1.9320   25.4870  -26.6750 C   0  0  0  0  0  0  0  0  0  0  0  0
   -1.3220   25.0080  -25.5120 C   0  0  0  0  0  0  0  0  0  0  0  0
   -0.5150   23.8640  -25.5580 C   0  0  0  0  0  0  0  0  0  0  0  0
    0.0960   23.3780  -24.4050 O   0  0  0  0  0  0  0  0  0  0  0  0
   -0.3160   23.2050  -26.7750 C   0  0  0  0  0  0  0  0  0  0  0  0
   -0.9240   23.6830  -27.9400 C   0  0  0  0  0  0  0  0  0  0  0  0
   -3.4688   22.5876  -30.0725 H   0  0  0  0  0  0  0  0  0  0  0  0
   -3.6638   23.2027  -28.3843 H   0  0  0  0  0  0  0  0  0  0  0  0
   -3.6063   22.5057  -31.3677 H   0  0  0  0  0  0  0  0  0  0  0  0
   -7.8111   19.2920  -33.9447 H   0  0  0  0  0  0  0  0  0  0  0  0
  -10.0276   19.6218  -32.8509 H   0  0  0  0  0  0  0  0  0  0  0  0
  -10.2464   21.1642  -30.9033 H   0  0  0  0  0  0  0  0  0  0  0  0
   -8.2524   22.3827  -30.0337 H   0  0  0  0  0  0  0  0  0  0  0  0
   -2.5568   26.3914  -26.6340 H   0  0  0  0  0  0  0  0  0  0  0  0
   -1.4763   25.5315  -24.5570 H   0  0  0  0  0  0  0  0  0  0  0  0
    0.2390   23.9670  -23.5920 H   0  0  0  0  0  0  0  0  0  0  0  0
    0.3202   22.3086  -26.8161 H   0  0  0  0  0  0  0  0  0  0  0  0
   -0.7534   23.1664  -28.8960 H   0  0  0  0  0  0  0  0  0  0  0  0
  1  2  2  0
  2  3  1  0
  3  4  1  0
  4  5  1  0
  5  6  2  0
  6  7  1  0
  7  8  2  0
  7  9  1  0
  9 10  1  0
 10 11  2  0
 11 12  1  0
 12 13  2  0
 13 14  1  0
 14 15  2  0
  2 16  1  0
 16 17  1  0
 17 18  2  0
 18 19  1  0
 19 20  2  0
 20 21  1  0
 20 22  1  0
 22 23  2  0
 15  5  1  0
 23 17  1  0
 15 10  1  0
  3 24  1  0
  3 25  1  0
  6 26  1  0
 11 27  1  0
 12 28  1  0
 13 29  1  0
 14 30  1  0
 18 31  1  0
 19 32  1  0
 21 33  1  0
 22 34  1  0
 23 35  1  0
M  CHG  2   9  -1  16  -1
M  END
>  <UniqueID>  (35) 
34

>  <SMILES>  (35) 
O=C(CSc1cc(=O)[n-]c2ccccc12)[N-]c1ccc(O)cc1

>  <Energy>  (35) 
39.044410438728704

>  <Genealogy>  (35) 
O=C(CSc1cc(=O)[n-]c2ccccc12)[N-]c1ccc(O)cc1 (protonated)
O=C(CSc1cc(=O)[n-]c2ccccc12)[N-]c1ccc(O)cc1 (3D coordinates assigned)
O=C(CSc1cc(=O)[n-]c2ccccc12)[N-]c1ccc(O)cc1 (optimized conformer: 39.044410438728704 kcal/mol)

>  <smiles>  (35) 
O=C(CSc1cc(=O)[nH]c2ccccc12)Nc1ccc(O)cc1

>  <score_type>  (35) 
oracle

>  <origin>  (35) 
adgpu

>  <m_score__min__energy>  (35) 
-10.199999999999999

>  <m_primary>  (35) 
energy

$$$$
35:0
     RDKit          3D

 33 34  0  0  0  0  0  0  0  0999 V2000
   -7.5116   18.9814  -33.6177 H   0  0  0  0  0  0  0  0  0  0  0  0
   -6.4150   18.9940  -33.7030 C   0  0  0  0  0  0  0  0  0  0  0  0
   -5.7480   17.9130  -34.4470 C   0  0  0  0  0  0  0  0  0  0  0  0
   -6.2940   16.7860  -34.5910 O   0  0  0  0  0  0  0  0  0  0  0  0
   -4.4950   18.1390  -35.0020 O   0  0  0  0  0  0  0  0  0  0  0  0
   -5.7330   19.9930  -33.1260 C   0  0  0  0  0  0  0  0  0  0  0  0
   -4.6365   19.9896  -33.2140 H   0  0  0  0  0  0  0  0  0  0  0  0
   -6.3700   21.1040  -32.3750 C   0  0  0  0  0  0  0  0  0  0  0  0
   -7.7670   21.1070  -32.2340 C   0  0  0  0  0  0  0  0  0  0  0  0
   -8.3600   20.2890  -32.6691 H   0  0  0  0  0  0  0  0  0  0  0  0
   -8.4110   22.1380  -31.5470 C   0  0  0  0  0  0  0  0  0  0  0  0
   -9.5051   22.1229  -31.4342 H   0  0  0  0  0  0  0  0  0  0  0  0
   -7.6690   23.1880  -31.0030 C   0  0  0  0  0  0  0  0  0  0  0  0
   -8.1789   23.9955  -30.4571 H   0  0  0  0  0  0  0  0  0  0  0  0
   -6.2770   23.2150  -31.1510 C   0  0  0  0  0  0  0  0  0  0  0  0
   -5.3400   24.5560  -30.4990 S   0  0  0  0  0  0  0  0  0  0  0  0
   -5.6800   24.7180  -29.0440 O   0  0  0  0  0  0  0  0  0  0  0  0
   -5.6640   25.8330  -31.2240 O   0  0  0  0  0  0  0  0  0  0  0  0
   -3.6420   24.2300  -30.6560 N   0  0  0  0  0  0  0  0  0  0  0  0
   -3.1740   24.5970  -31.5150 H   0  0  0  0  0  0  0  0  0  0  0  0
   -2.8480   23.6120  -29.6260 C   0  0  0  0  0  0  0  0  0  0  0  0
   -3.0610   22.2740  -29.2390 C   0  0  0  0  0  0  0  0  0  0  0  0
   -3.8436   21.6801  -29.7338 H   0  0  0  0  0  0  0  0  0  0  0  0
   -2.2840   21.6960  -28.2300 C   0  0  0  0  0  0  0  0  0  0  0  0
   -2.4610   20.6523  -27.9309 H   0  0  0  0  0  0  0  0  0  0  0  0
   -1.2850   22.4400  -27.6020 C   0  0  0  0  0  0  0  0  0  0  0  0
   -0.6772   21.9834  -26.8069 H   0  0  0  0  0  0  0  0  0  0  0  0
   -1.0560   23.7640  -27.9820 C   0  0  0  0  0  0  0  0  0  0  0  0
   -0.2648   24.3472  -27.4882 H   0  0  0  0  0  0  0  0  0  0  0  0
   -1.8300   24.3510  -28.9890 C   0  0  0  0  0  0  0  0  0  0  0  0
   -1.5870   25.6730  -29.3450 O   0  0  0  0  0  0  0  0  0  0  0  0
   -5.6290   22.1740  -31.8320 C   0  0  0  0  0  0  0  0  0  0  0  0
   -4.5348   22.1923  -31.9434 H   0  0  0  0  0  0  0  0  0  0  0  0
  1  2  1  0
  2  3  1  0
  3  4  2  0
  3  5  1  0
  2  6  2  0
  6  7  1  0
  6  8  1  0
  8  9  2  0
  9 10  1  0
  9 11  1  0
 11 12  1  0
 11 13  2  0
 13 14  1  0
 13 15  1  0
 15 16  1  0
 16 17  2  0
 16 18  2  0
 16 19  1  0
 19 20  1  0
 19 21  1  0
 21 22  2  0
 22 23  1  0
 22 24  1  0
 24 25  1  0
 24 26  2  0
 26 27  1  0
 26 28  1  0
 28 29  1  0
 28 30  2  0
 30 31  1  0
 15 32  2  0
 32 33  1  0
 32  8  1  0
 30 21  1  0
M  CHG  2   5  -1  31  -1
M  END
>  <UniqueID>  (36) 
35

>  <SMILES>  (36) 
O=C([O-])/C=C/c1cccc(S(=O)(=O)Nc2ccccc2[O-])c1

>  <Energy>  (36) 
38.20563035378391

>  <Genealogy>  (36) 
O=C([O-])C=Cc1cccc(S(=O)(=O)Nc2ccccc2[O-])c1 (protonated)
O=C([O-])/C=C/c1cccc(S(=O)(=O)Nc2ccccc2[O-])c1 (cis-trans isomerization)
O=C([O-])/C=C/c1cccc(S(=O)(=O)Nc2ccccc2[O-])c1 (3D coordinates assigned)
O=C([O-])/C=C/c1cccc(S(=O)(=O)Nc2ccccc2[O-])c1 (optimized conformer: 38.20563035378391 kcal/mol)

>  <smiles>  (36) 
O=C(O)C=Cc1cccc(S(=O)(=O)Nc2ccccc2O)c1

>  <score_type>  (36) 
oracle

>  <origin>  (36) 
adgpu

>  <m_score__min__energy>  (36) 
-11.630000000000001

>  <m_primary>  (36) 
energy

$$$$
36:0
     RDKit          3D

 44 47  0  0  0  0  0  0  0  0999 V2000
   -0.8630   26.8100  -23.3440 C   0  0  0  0  0  0  0  0  0  0  0  0
    0.3710   26.2330  -24.0330 C   0  0  0  0  0  0  0  0  0  0  0  0
    0.6480   26.8930  -25.3910 C   0  0  0  0  0  0  0  0  0  0  0  0
    0.2110   26.0330  -26.5100 N   0  0  0  0  0  0  0  0  0  0  0  0
    1.1480   25.3020  -27.2260 C   0  0  0  0  0  0  0  0  0  0  0  0
    2.3700   25.3510  -26.9210 O   0  0  0  0  0  0  0  0  0  0  0  0
    0.7640   24.5120  -28.2750 N   0  0  0  0  0  0  0  0  0  0  0  0
   -0.5460   24.4610  -28.6010 C   0  0  0  0  0  0  0  0  0  0  0  0
   -1.0960   23.7470  -29.5950 N   0  0  0  0  0  0  0  0  0  0  0  0
   -2.4200   24.0550  -29.4810 C   0  0  0  0  0  0  0  0  0  0  0  0
   -3.4530   23.4900  -30.3900 C   0  0  0  0  0  0  0  0  0  0  0  0
   -4.7240   24.0810  -30.5170 C   0  0  0  0  0  0  0  0  0  0  0  0
   -5.6790   23.5330  -31.3780 C   0  0  0  0  0  0  0  0  0  0  0  0
   -5.3830   22.3970  -32.1370 C   0  0  0  0  0  0  0  0  0  0  0  0
   -6.3740   21.8720  -32.9780 O   0  0  0  0  0  0  0  0  0  0  0  0
   -7.2660   20.8420  -32.6420 C   0  0  0  0  0  0  0  0  0  0  0  0
   -8.6000   21.1030  -32.2740 C   0  0  0  0  0  0  0  0  0  0  0  0
   -9.4530   20.0490  -31.9290 C   0  0  0  0  0  0  0  0  0  0  0  0
   -8.9800   18.7340  -31.9360 C   0  0  0  0  0  0  0  0  0  0  0  0
   -9.8080   17.7130  -31.5990 F   0  0  0  0  0  0  0  0  0  0  0  0
   -7.6510   18.4710  -32.2800 C   0  0  0  0  0  0  0  0  0  0  0  0
   -6.7960   19.5220  -32.6260 C   0  0  0  0  0  0  0  0  0  0  0  0
   -4.1250   21.7880  -31.9990 C   0  0  0  0  0  0  0  0  0  0  0  0
   -3.1680   22.3340  -31.1390 C   0  0  0  0  0  0  0  0  0  0  0  0
   -2.6830   24.9230  -28.4650 N   0  0  0  0  0  0  0  0  0  0  0  0
   -1.4790   25.1590  -27.9300 C   0  0  0  0  0  0  0  0  0  0  0  0
   -1.1220   25.9680  -26.8620 C   0  0  0  0  0  0  0  0  0  0  0  0
   -2.0030   26.6220  -26.2400 O   0  0  0  0  0  0  0  0  0  0  0  0
   -0.7354   26.7503  -22.2531 H   0  0  0  0  0  0  0  0  0  0  0  0
   -0.9910   27.8613  -23.6412 H   0  0  0  0  0  0  0  0  0  0  0  0
   -1.7518   26.2341  -23.6412 H   0  0  0  0  0  0  0  0  0  0  0  0
    1.2436   26.3872  -23.3812 H   0  0  0  0  0  0  0  0  0  0  0  0
    0.1846   25.1639  -24.2126 H   0  0  0  0  0  0  0  0  0  0  0  0
    0.1053   27.8485  -25.4414 H   0  0  0  0  0  0  0  0  0  0  0  0
    1.7324   27.0534  -25.4820 H   0  0  0  0  0  0  0  0  0  0  0  0
   -4.9677   24.9814  -29.9340 H   0  0  0  0  0  0  0  0  0  0  0  0
   -6.6719   23.9996  -31.4590 H   0  0  0  0  0  0  0  0  0  0  0  0
   -8.9723   22.1380  -32.2577 H   0  0  0  0  0  0  0  0  0  0  0  0
  -10.4973   20.2557  -31.6519 H   0  0  0  0  0  0  0  0  0  0  0  0
   -7.2774   17.4364  -32.2785 H   0  0  0  0  0  0  0  0  0  0  0  0
   -5.7484   19.3113  -32.8871 H   0  0  0  0  0  0  0  0  0  0  0  0
   -3.8919   20.8773  -32.5702 H   0  0  0  0  0  0  0  0  0  0  0  0
   -2.1821   21.8549  -31.0470 H   0  0  0  0  0  0  0  0  0  0  0  0
   -3.5950   25.3250  -28.1550 H   0  0  0  0  0  0  0  0  0  0  0  0
  1  2  1  0
  2  3  1  0
  3  4  1  0
  4  5  1  0
  5  6  2  0
  5  7  1  0
  7  8  1  0
  8  9  1  0
  9 10  2  0
 10 11  1  0
 11 12  2  0
 12 13  1  0
 13 14  2  0
 14 15  1  0
 15 16  1  0
 16 17  2  0
 17 18  1  0
 18 19  2  0
 19 20  1  0
 19 21  1  0
 21 22  2  0
 14 23  1  0
 23 24  2  0
 10 25  1  0
 25 26  1  0
 26 27  1  0
 27 28  2  0
 27  4  1  0
 26  8  2  0
 24 11  1  0
 22 16  1  0
  1 29  1  0
  1 30  1  0
  1 31  1  0
  2 32  1  0
  2 33  1  0
  3 34  1  0
  3 35  1  0
 12 36  1  0
 13 37  1  0
 17 38  1  0
 18 39  1  0
 21 40  1  0
 22 41  1  0
 23 42  1  0
 24 43  1  0
 25 44  1  0
M  CHG  1   7  -1
M  END
>  <UniqueID>  (37) 
36

>  <SMILES>  (37) 
CCCn1c(=O)[n-]c2nc(-c3ccc(Oc4ccc(F)cc4)cc3)[nH]c2c1=O

>  <Energy>  (37) 
95.35651886675268

>  <Genealogy>  (37) 
CCCn1c(=O)[n-]c2nc(-c3ccc(Oc4ccc(F)cc4)cc3)[nH]c2c1=O (protonated)
CCCn1c(=O)[n-]c2nc(-c3ccc(Oc4ccc(F)cc4)cc3)[nH]c2c1=O (3D coordinates assigned)
CCCn1c(=O)[n-]c2nc(-c3ccc(Oc4ccc(F)cc4)cc3)[nH]c2c1=O (optimized conformer: 95.35651886675268 kcal/mol)

>  <smiles>  (37) 
CCCn1c(=O)[nH]c2nc(-c3ccc(Oc4ccc(F)cc4)cc3)[nH]c2c1=O

>  <score_type>  (37) 
oracle

>  <origin>  (37) 
adgpu

>  <m_score__min__energy>  (37) 
-8.9000000000000004

>  <m_primary>  (37) 
energy

$$$$
37:0
     RDKit          3D

 40 42  0  0  0  0  0  0  0  0999 V2000
   -6.1080   17.5900  -34.3630 C   0  0  0  0  0  0  0  0  0  0  0  0
   -6.4440   18.5540  -33.2710 C   0  0  0  0  0  0  0  0  0  0  0  0
   -6.3610   18.1790  -32.0700 O   0  0  0  0  0  0  0  0  0  0  0  0
   -6.9450   19.8590  -33.5990 N   0  0  0  0  0  0  0  0  0  0  0  0
   -7.1240   20.9170  -32.6420 C   0  0  0  0  0  0  0  0  0  0  0  0
   -8.4190   21.2500  -32.2220 C   0  0  0  0  0  0  0  0  0  0  0  0
   -8.6220   22.2860  -31.3090 C   0  0  0  0  0  0  0  0  0  0  0  0
   -7.5350   23.0120  -30.8160 C   0  0  0  0  0  0  0  0  0  0  0  0
   -6.2280   22.7120  -31.2430 C   0  0  0  0  0  0  0  0  0  0  0  0
   -5.0740   23.4880  -30.7370 C   0  0  0  0  0  0  0  0  0  0  0  0
   -4.8210   24.6290  -31.2170 O   0  0  0  0  0  0  0  0  0  0  0  0
   -4.2330   22.9270  -29.7650 O   0  0  0  0  0  0  0  0  0  0  0  0
   -3.4910   23.6470  -28.8170 C   0  0  0  0  0  0  0  0  0  0  0  0
   -4.0790   24.2040  -27.6680 C   0  0  0  0  0  0  0  0  0  0  0  0
   -3.3010   24.9050  -26.7420 C   0  0  0  0  0  0  0  0  0  0  0  0
   -1.9140   25.0520  -26.9430 C   0  0  0  0  0  0  0  0  0  0  0  0
   -1.0800   25.7510  -26.0420 C   0  0  0  0  0  0  0  0  0  0  0  0
   -1.6190   26.4000  -24.7930 C   0  0  0  0  0  0  0  0  0  0  0  0
    0.2900   25.8360  -26.3230 C   0  0  0  0  0  0  0  0  0  0  0  0
    0.7940   25.2350  -27.4780 C   0  0  0  0  0  0  0  0  0  0  0  0
    2.0230   25.3060  -27.7390 O   0  0  0  0  0  0  0  0  0  0  0  0
   -0.0170   24.5850  -28.3060 O   0  0  0  0  0  0  0  0  0  0  0  0
   -1.3230   24.4730  -28.0910 C   0  0  0  0  0  0  0  0  0  0  0  0
   -2.1120   23.7720  -29.0100 C   0  0  0  0  0  0  0  0  0  0  0  0
   -6.0330   21.6660  -32.1630 C   0  0  0  0  0  0  0  0  0  0  0  0
   -5.7762   16.6382  -33.9226 H   0  0  0  0  0  0  0  0  0  0  0  0
   -6.9984   17.4156  -34.9850 H   0  0  0  0  0  0  0  0  0  0  0  0
   -5.3022   18.0068  -34.9850 H   0  0  0  0  0  0  0  0  0  0  0  0
   -7.2780   20.0180  -34.5770 H   0  0  0  0  0  0  0  0  0  0  0  0
   -9.2813   20.6911  -32.6146 H   0  0  0  0  0  0  0  0  0  0  0  0
   -9.6414   22.5317  -30.9765 H   0  0  0  0  0  0  0  0  0  0  0  0
   -7.7015   23.8220  -30.0906 H   0  0  0  0  0  0  0  0  0  0  0  0
   -5.1592   24.0874  -27.4963 H   0  0  0  0  0  0  0  0  0  0  0  0
   -3.7742   25.3443  -25.8514 H   0  0  0  0  0  0  0  0  0  0  0  0
   -1.2010   25.8967  -23.9087 H   0  0  0  0  0  0  0  0  0  0  0  0
   -1.3337   27.4623  -24.7794 H   0  0  0  0  0  0  0  0  0  0  0  0
   -2.7156   26.3146  -24.7794 H   0  0  0  0  0  0  0  0  0  0  0  0
    0.9636   26.3724  -25.6385 H   0  0  0  0  0  0  0  0  0  0  0  0
   -1.6423   23.3146  -29.8933 H   0  0  0  0  0  0  0  0  0  0  0  0
   -5.0167   21.4308  -32.5119 H   0  0  0  0  0  0  0  0  0  0  0  0
  1  2  1  0
  2  3  2  0
  2  4  1  0
  4  5  1  0
  5  6  2  0
  6  7  1  0
  7  8  2  0
  8  9  1  0
  9 10  1  0
 10 11  2  0
 10 12  1  0
 12 13  1  0
 13 14  2  0
 14 15  1  0
 15 16  2  0
 16 17  1  0
 17 18  1  0
 17 19  2  0
 19 20  1  0
 20 21  2  0
 20 22  1  0
 22 23  1  0
 23 24  2  0
  9 25  2  0
 25  5  1  0
 24 13  1  0
 23 16  1  0
  1 26  1  0
  1 27  1  0
  1 28  1  0
  4 29  1  0
  6 30  1  0
  7 31  1  0
  8 32  1  0
 14 33  1  0
 15 34  1  0
 18 35  1  0
 18 36  1  0
 18 37  1  0
 19 38  1  0
 24 39  1  0
 25 40  1  0
M  END
>  <UniqueID>  (38) 
37

>  <SMILES>  (38) 
CC(=O)Nc1cccc(C(=O)Oc2ccc3c(C)cc(=O)oc3c2)c1

>  <Energy>  (38) 
54.506860614704465

>  <Genealogy>  (38) 
CC(=O)Nc1cccc(C(=O)Oc2ccc3c(C)cc(=O)oc3c2)c1 (3D coordinates assigned)
CC(=O)Nc1cccc(C(=O)Oc2ccc3c(C)cc(=O)oc3c2)c1 (optimized conformer: 54.506860614704465 kcal/mol)

>  <smiles>  (38) 
CC(=O)Nc1cccc(C(=O)Oc2ccc3c(C)cc(=O)oc3c2)c1

>  <score_type>  (38) 
oracle

>  <origin>  (38) 
adgpu

>  <m_score__min__energy>  (38) 
-9.1600000000000001

>  <m_primary>  (38) 
energy

$$$$
38:0
     RDKit          3D

 50 52  0  0  0  0  0  0  0  0999 V2000
    0.1090   20.4790  -29.4150 C   0  0  0  0  0  0  0  0  0  0  0  0
   -0.6090   20.8770  -30.6790 C   0  0  0  0  0  0  0  0  0  0  0  0
    0.1060   20.8570  -31.8900 C   0  0  0  0  0  0  0  0  0  0  0  0
   -0.5200   21.1780  -33.0990 C   0  0  0  0  0  0  0  0  0  0  0  0
    0.3940   21.1560  -34.6040 S   0  0  0  0  0  0  0  0  0  0  0  0
    1.9220   20.2810  -34.3530 C   0  0  0  0  0  0  0  0  0  0  0  0
   -0.4050   20.4730  -35.6780 O   0  0  0  0  0  0  0  0  0  0  0  0
    0.6880   22.5630  -35.0430 O   0  0  0  0  0  0  0  0  0  0  0  0
   -1.8680   21.5420  -33.1030 C   0  0  0  0  0  0  0  0  0  0  0  0
   -2.5890   21.5810  -31.9100 C   0  0  0  0  0  0  0  0  0  0  0  0
   -1.9770   21.2650  -30.6830 C   0  0  0  0  0  0  0  0  0  0  0  0
   -2.7900   21.3510  -29.4430 C   0  0  0  0  0  0  0  0  0  0  0  0
   -2.9010   20.3530  -28.6820 O   0  0  0  0  0  0  0  0  0  0  0  0
   -3.3840   22.6030  -29.0700 N   0  0  0  0  0  0  0  0  0  0  0  0
   -4.4470   23.2800  -29.7570 C   0  0  0  0  0  0  0  0  0  0  0  0
   -5.6260   22.6130  -30.1360 C   0  0  0  0  0  0  0  0  0  0  0  0
   -6.6370   23.2950  -30.8250 C   0  0  0  0  0  0  0  0  0  0  0  0
   -8.0960   22.4330  -31.3110 S   0  0  0  0  0  0  0  0  0  0  0  0
   -9.0270   23.3660  -32.0350 O   0  0  0  0  0  0  0  0  0  0  0  0
   -8.7880   21.9270  -30.0760 O   0  0  0  0  0  0  0  0  0  0  0  0
   -7.6670   21.0900  -32.3390 N   0  0  0  0  0  0  0  0  0  0  0  0
   -7.9500   19.8230  -31.6470 C   0  0  0  0  0  0  0  0  0  0  0  0
   -7.4830   18.6470  -32.5130 C   0  0  0  0  0  0  0  0  0  0  0  0
   -6.0990   18.7480  -32.7920 O   0  0  0  0  0  0  0  0  0  0  0  0
   -5.8420   19.9400  -33.5100 C   0  0  0  0  0  0  0  0  0  0  0  0
   -6.2390   21.1680  -32.6840 C   0  0  0  0  0  0  0  0  0  0  0  0
   -6.4620   24.6440  -31.1590 C   0  0  0  0  0  0  0  0  0  0  0  0
   -5.2830   25.3050  -30.8060 C   0  0  0  0  0  0  0  0  0  0  0  0
   -4.2770   24.6270  -30.1130 C   0  0  0  0  0  0  0  0  0  0  0  0
   -3.1060   25.2970  -29.7740 O   0  0  0  0  0  0  0  0  0  0  0  0
   -0.4770   20.8038  -28.5426 H   0  0  0  0  0  0  0  0  0  0  0  0
    0.2286   19.3858  -29.3899 H   0  0  0  0  0  0  0  0  0  0  0  0
    1.0995   20.9569  -29.3899 H   0  0  0  0  0  0  0  0  0  0  0  0
    1.1719   20.5853  -31.8863 H   0  0  0  0  0  0  0  0  0  0  0  0
    2.1100   20.1733  -33.2745 H   0  0  0  0  0  0  0  0  0  0  0  0
    1.8542   19.2848  -34.8146 H   0  0  0  0  0  0  0  0  0  0  0  0
    2.7468   20.8436  -34.8146 H   0  0  0  0  0  0  0  0  0  0  0  0
   -2.3632   21.7990  -34.0510 H   0  0  0  0  0  0  0  0  0  0  0  0
   -3.6521   21.8630  -31.9284 H   0  0  0  0  0  0  0  0  0  0  0  0
   -5.7549   21.5487  -29.8897 H   0  0  0  0  0  0  0  0  0  0  0  0
   -7.4160   19.8041  -30.6855 H   0  0  0  0  0  0  0  0  0  0  0  0
   -9.0323   19.7381  -31.4695 H   0  0  0  0  0  0  0  0  0  0  0  0
   -7.6753   17.7057  -31.9773 H   0  0  0  0  0  0  0  0  0  0  0  0
   -8.0370   18.6664  -33.4631 H   0  0  0  0  0  0  0  0  0  0  0  0
   -4.7689   19.9951  -33.7455 H   0  0  0  0  0  0  0  0  0  0  0  0
   -6.4366   19.9298  -34.4354 H   0  0  0  0  0  0  0  0  0  0  0  0
   -5.6406   21.1977  -31.7615 H   0  0  0  0  0  0  0  0  0  0  0  0
   -6.0545   22.0791  -33.2721 H   0  0  0  0  0  0  0  0  0  0  0  0
   -7.2536   25.1834  -31.6997 H   0  0  0  0  0  0  0  0  0  0  0  0
   -5.1462   26.3629  -31.0746 H   0  0  0  0  0  0  0  0  0  0  0  0
  1  2  1  0
  2  3  2  0
  3  4  1  0
  4  5  1  0
  5  6  1  0
  5  7  2  0
  5  8  2  0
  4  9  2  0
  9 10  1  0
 10 11  2  0
 11 12  1  0
 12 13  2  0
 12 14  1  0
 14 15  1  0
 15 16  2  0
 16 17  1  0
 17 18  1  0
 18 19  2  0
 18 20  2  0
 18 21  1  0
 21 22  1  0
 22 23  1  0
 23 24  1  0
 24 25  1  0
 25 26  1  0
 17 27  2  0
 27 28  1  0
 28 29  2  0
 29 30  1  0
 11  2  1  0
 29 15  1  0
 26 21  1  0
  1 31  1  0
  1 32  1  0
  1 33  1  0
  3 34  1  0
  6 35  1  0
  6 36  1  0
  6 37  1  0
  9 38  1  0
 10 39  1  0
 16 40  1  0
 22 41  1  0
 22 42  1  0
 23 43  1  0
 23 44  1  0
 25 45  1  0
 25 46  1  0
 26 47  1  0
 26 48  1  0
 27 49  1  0
 28 50  1  0
M  CHG  2  14  -1  30  -1
M  END
>  <UniqueID>  (39) 
38

>  <SMILES>  (39) 
Cc1cc(S(C)(=O)=O)ccc1C(=O)[N-]c1cc(S(=O)(=O)N2CCOCC2)ccc1[O-]

>  <Energy>  (39) 
56.67601931697446

>  <Genealogy>  (39) 
Cc1cc(S(C)(=O)=O)ccc1C(=O)[N-]c1cc(S(=O)(=O)N2CCOCC2)ccc1[O-] (protonated)
Cc1cc(S(C)(=O)=O)ccc1C(=O)[N-]c1cc(S(=O)(=O)N2CCOCC2)ccc1[O-] (3D coordinates assigned)
Cc1cc(S(C)(=O)=O)ccc1C(=O)[N-]c1cc(S(=O)(=O)N2CCOCC2)ccc1[O-] (nonaromatic ring conformer: 56.67601931697446 kcal/mol)

>  <smiles>  (39) 
Cc1cc(S(C)(=O)=O)ccc1C(=O)Nc1cc(S(=O)(=O)N2CCOCC2)ccc1O

>  <score_type>  (39) 
oracle

>  <origin>  (39) 
adgpu

>  <m_score__min__energy>  (39) 
-14.01

>  <m_primary>  (39) 
energy

$$$$
39:0
     RDKit          3D

 40 43  0  0  0  0  0  0  0  0999 V2000
   -8.1590   18.9020  -32.0850 C   0  0  0  0  0  0  0  0  0  0  0  0
   -8.0010   20.3870  -31.9480 C   0  0  0  0  0  0  0  0  0  0  0  0
   -9.1100   21.2320  -32.1000 C   0  0  0  0  0  0  0  0  0  0  0  0
   -8.9700   22.6130  -31.9350 C   0  0  0  0  0  0  0  0  0  0  0  0
   -7.7250   23.1580  -31.6070 C   0  0  0  0  0  0  0  0  0  0  0  0
   -6.6120   22.3220  -31.4420 C   0  0  0  0  0  0  0  0  0  0  0  0
   -5.0410   23.0000  -31.0300 S   0  0  0  0  0  0  0  0  0  0  0  0
   -5.0190   24.4790  -31.3000 O   0  0  0  0  0  0  0  0  0  0  0  0
   -4.7780   22.7780  -29.5670 O   0  0  0  0  0  0  0  0  0  0  0  0
   -3.7720   22.2300  -31.9780 C   0  0  0  0  0  0  0  0  0  0  0  0
   -3.8670   21.9110  -33.3170 C   0  0  0  0  0  0  0  0  0  0  0  0
   -2.7760   21.2260  -33.7020 N   0  0  0  0  0  0  0  0  0  0  0  0
   -1.9820   21.0930  -32.6230 C   0  0  0  0  0  0  0  0  0  0  0  0
   -2.5630   21.7130  -31.5300 C   0  0  0  0  0  0  0  0  0  0  0  0
   -1.9940   21.7570  -30.1680 C   0  0  0  0  0  0  0  0  0  0  0  0
   -0.9370   22.6490  -29.8490 C   0  0  0  0  0  0  0  0  0  0  0  0
   -0.4050   22.6820  -28.5900 N   0  0  0  0  0  0  0  0  0  0  0  0
   -0.8970   21.8440  -27.6460 C   0  0  0  0  0  0  0  0  0  0  0  0
   -0.4810   21.7570  -26.3710 N   0  0  0  0  0  0  0  0  0  0  0  0
   -1.2410   20.7880  -25.8060 C   0  0  0  0  0  0  0  0  0  0  0  0
   -2.1340   20.2710  -26.7400 C   0  0  0  0  0  0  0  0  0  0  0  0
   -3.1020   19.2300  -26.5180 C   0  0  0  0  0  0  0  0  0  0  0  0
   -3.8790   18.3930  -26.3410 N   0  0  0  0  0  0  0  0  0  0  0  0
   -1.9000   20.9570  -27.9100 C   0  0  0  0  0  0  0  0  0  0  0  0
   -2.4760   20.8790  -29.1750 C   0  0  0  0  0  0  0  0  0  0  0  0
   -6.7570   20.9360  -31.6020 C   0  0  0  0  0  0  0  0  0  0  0  0
   -8.2077   18.4447  -31.0857 H   0  0  0  0  0  0  0  0  0  0  0  0
   -9.0857   18.6810  -32.6349 H   0  0  0  0  0  0  0  0  0  0  0  0
   -7.2995   18.4910  -32.6349 H   0  0  0  0  0  0  0  0  0  0  0  0
  -10.0932   20.8066  -32.3499 H   0  0  0  0  0  0  0  0  0  0  0  0
   -9.8411   23.2723  -32.0635 H   0  0  0  0  0  0  0  0  0  0  0  0
   -7.6186   24.2452  -31.4781 H   0  0  0  0  0  0  0  0  0  0  0  0
   -4.7097   22.1774  -33.9719 H   0  0  0  0  0  0  0  0  0  0  0  0
   -2.5850   20.8530  -34.6580 H   0  0  0  0  0  0  0  0  0  0  0  0
   -1.0148   20.5692  -32.6115 H   0  0  0  0  0  0  0  0  0  0  0  0
   -0.5411   23.3218  -30.6240 H   0  0  0  0  0  0  0  0  0  0  0  0
    0.2710   22.3140  -25.9110 H   0  0  0  0  0  0  0  0  0  0  0  0
   -1.1634   20.4575  -24.7597 H   0  0  0  0  0  0  0  0  0  0  0  0
   -3.2783   20.1585  -29.3923 H   0  0  0  0  0  0  0  0  0  0  0  0
   -5.8899   20.2753  -31.4553 H   0  0  0  0  0  0  0  0  0  0  0  0
  1  2  1  0
  2  3  2  0
  3  4  1  0
  4  5  2  0
  5  6  1  0
  6  7  1  0
  7  8  2  0
  7  9  2  0
  7 10  1  0
 10 11  2  0
 11 12  1  0
 12 13  1  0
 13 14  2  0
 14 15  1  0
 15 16  2  0
 16 17  1  0
 17 18  2  0
 18 19  1  0
 19 20  1  0
 20 21  2  0
 21 22  1  0
 22 23  3  0
 21 24  1  0
 24 25  2  0
  6 26  2  0
 26  2  1  0
 14 10  1  0
 25 15  1  0
 24 18  1  0
  1 27  1  0
  1 28  1  0
  1 29  1  0
  3 30  1  0
  4 31  1  0
  5 32  1  0
 11 33  1  0
 12 34  1  0
 13 35  1  0
 16 36  1  0
 19 37  1  0
 20 38  1  0
 25 39  1  0
 26 40  1  0
M  END
>  <UniqueID>  (40) 
39

>  <SMILES>  (40) 
Cc1cccc(S(=O)(=O)c2c[nH]cc2-c2cnc3[nH]cc(C#N)c3c2)c1

>  <Energy>  (40) 
110.48528115034009

>  <Genealogy>  (40) 
Cc1cccc(S(=O)(=O)c2c[nH]cc2-c2cnc3[nH]cc(C#N)c3c2)c1 (3D coordinates assigned)
Cc1cccc(S(=O)(=O)c2c[nH]cc2-c2cnc3[nH]cc(C#N)c3c2)c1 (optimized conformer: 110.48528115034009 kcal/mol)

>  <smiles>  (40) 
Cc1cccc(S(=O)(=O)c2c[nH]cc2-c2cnc3[nH]cc(C#N)c3c2)c1

>  <score_type>  (40) 
oracle

>  <origin>  (40) 
adgpu

>  <m_score__min__energy>  (40) 
-9.2300000000000004

>  <m_primary>  (40) 
energy

$$$$
40:0
     RDKit          3D

 52 55  0  0  0  0  0  0  0  0999 V2000
   -6.8220   16.4890  -33.6290 C   0  0  0  0  0  0  0  0  0  0  0  0
   -6.8890   17.9050  -33.1370 C   0  0  0  0  0  0  0  0  0  0  0  0
   -8.0140   18.3630  -32.4480 C   0  0  0  0  0  0  0  0  0  0  0  0
   -8.0840   19.6880  -32.0160 C   0  0  0  0  0  0  0  0  0  0  0  0
   -7.0380   20.5920  -32.2770 C   0  0  0  0  0  0  0  0  0  0  0  0
   -7.2120   22.2580  -31.6610 S   0  0  0  0  0  0  0  0  0  0  0  0
   -8.1850   22.2330  -30.5140 O   0  0  0  0  0  0  0  0  0  0  0  0
   -7.8130   23.1400  -32.7210 O   0  0  0  0  0  0  0  0  0  0  0  0
   -5.7040   22.9330  -31.0650 N   0  0  2  0  0  0  0  0  0  0  0  0
   -4.9810   21.9630  -30.2030 C   0  0  0  0  0  0  0  0  0  0  0  0
   -3.9430   22.6260  -29.2710 C   0  0  0  0  0  0  0  0  0  0  0  0
   -3.4390   23.9530  -29.8540 C   0  0  2  0  0  0  0  0  0  0  0  0
   -2.3780   24.5530  -28.9750 C   0  0  0  0  0  0  0  0  0  0  0  0
   -2.5790   24.9470  -27.7010 N   0  0  0  0  0  0  0  0  0  0  0  0
   -1.3540   25.4090  -27.3680 C   0  0  0  0  0  0  0  0  0  0  0  0
   -1.0240   25.9810  -26.0460 C   0  0  0  0  0  0  0  0  0  0  0  0
   -0.9270   27.3750  -25.8750 C   0  0  0  0  0  0  0  0  0  0  0  0
   -0.6290   27.9150  -24.6200 C   0  0  0  0  0  0  0  0  0  0  0  0
   -0.4230   27.0710  -23.5250 C   0  0  0  0  0  0  0  0  0  0  0  0
   -0.5130   25.6850  -23.6840 C   0  0  0  0  0  0  0  0  0  0  0  0
   -0.8110   25.1410  -24.9370 C   0  0  0  0  0  0  0  0  0  0  0  0
   -0.4700   25.2970  -28.3810 N   0  0  0  0  0  0  0  0  0  0  0  0
   -1.1420   24.7640  -29.3550 O   0  0  0  0  0  0  0  0  0  0  0  0
   -4.6080   24.9390  -30.0670 C   0  0  0  0  0  0  0  0  0  0  0  0
   -5.9360   24.2220  -30.3860 C   0  0  0  0  0  0  0  0  0  0  0  0
   -5.8990   20.1360  -32.9940 C   0  0  0  0  0  0  0  0  0  0  0  0
   -4.7050   21.0120  -33.2680 C   0  0  0  0  0  0  0  0  0  0  0  0
   -5.8420   18.7930  -33.4140 C   0  0  0  0  0  0  0  0  0  0  0  0
   -6.7896   15.8033  -32.7695 H   0  0  0  0  0  0  0  0  0  0  0  0
   -7.7108   16.2704  -34.2391 H   0  0  0  0  0  0  0  0  0  0  0  0
   -5.9165   16.3553  -34.2391 H   0  0  0  0  0  0  0  0  0  0  0  0
   -8.8488   17.6761  -32.2449 H   0  0  0  0  0  0  0  0  0  0  0  0
   -8.9707   20.0310  -31.4628 H   0  0  0  0  0  0  0  0  0  0  0  0
   -5.1120   23.1170  -31.9100 H   0  0  0  0  0  0  0  0  0  0  0  0
   -5.7175   21.4314  -29.5825 H   0  0  0  0  0  0  0  0  0  0  0  0
   -4.4311   21.2827  -30.8699 H   0  0  0  0  0  0  0  0  0  0  0  0
   -4.4098   22.8181  -28.2936 H   0  0  0  0  0  0  0  0  0  0  0  0
   -3.0857   21.9449  -29.1651 H   0  0  0  0  0  0  0  0  0  0  0  0
   -2.9882   23.7474  -30.8361 H   0  0  0  0  0  0  0  0  0  0  0  0
   -1.0866   28.0435  -26.7338 H   0  0  0  0  0  0  0  0  0  0  0  0
   -0.5566   29.0054  -24.4943 H   0  0  0  0  0  0  0  0  0  0  0  0
   -0.1901   27.4974  -22.5381 H   0  0  0  0  0  0  0  0  0  0  0  0
   -0.3491   25.0215  -22.8221 H   0  0  0  0  0  0  0  0  0  0  0  0
   -0.8794   24.0497  -25.0568 H   0  0  0  0  0  0  0  0  0  0  0  0
   -4.7394   25.5333  -29.1507 H   0  0  0  0  0  0  0  0  0  0  0  0
   -4.3561   25.5742  -30.9290 H   0  0  0  0  0  0  0  0  0  0  0  0
   -6.4781   24.0388  -29.4466 H   0  0  0  0  0  0  0  0  0  0  0  0
   -6.5234   24.8654  -31.0575 H   0  0  0  0  0  0  0  0  0  0  0  0
   -4.2622   21.3369  -32.3149 H   0  0  0  0  0  0  0  0  0  0  0  0
   -3.9591   20.4453  -33.8446 H   0  0  0  0  0  0  0  0  0  0  0  0
   -5.0217   21.8936  -33.8446 H   0  0  0  0  0  0  0  0  0  0  0  0
   -4.9615   18.4359  -33.9682 H   0  0  0  0  0  0  0  0  0  0  0  0
  1  2  1  0
  2  3  2  0
  3  4  1  0
  4  5  2  0
  5  6  1  0
  6  7  2  0
  6  8  2  0
  6  9  1  0
  9 10  1  0
 10 11  1  0
 11 12  1  0
 12 13  1  0
 13 14  2  0
 14 15  1  0
 15 16  1  0
 16 17  2  0
 17 18  1  0
 18 19  2  0
 19 20  1  0
 20 21  2  0
 15 22  2  0
 22 23  1  0
 12 24  1  0
 24 25  1  0
  5 26  1  0
 26 27  1  0
 26 28  2  0
 28  2  1  0
 25  9  1  0
 23 13  1  0
 21 16  1  0
  1 29  1  0
  1 30  1  0
  1 31  1  0
  3 32  1  0
  4 33  1  0
  9 34  1  6
 10 35  1  0
 10 36  1  0
 11 37  1  0
 11 38  1  0
 12 39  1  6
 17 40  1  0
 18 41  1  0
 19 42  1  0
 20 43  1  0
 21 44  1  0
 24 45  1  0
 24 46  1  0
 25 47  1  0
 25 48  1  0
 27 49  1  0
 27 50  1  0
 27 51  1  0
 28 52  1  0
M  CHG  1   9   1
M  END
>  <UniqueID>  (41) 
40

>  <SMILES>  (41) 
Cc1ccc(S(=O)(=O)[NH+]2CCC(c3nc(-c4ccccc4)no3)CC2)c(C)c1

>  <Energy>  (41) 
96.81279441635537

>  <Genealogy>  (41) 
Cc1ccc(S(=O)(=O)[NH+]2CCC(c3nc(-c4ccccc4)no3)CC2)c(C)c1 (protonated)
Cc1ccc(S(=O)(=O)[NH+]2CCC(c3nc(-c4ccccc4)no3)CC2)c(C)c1 (3D coordinates assigned)
Cc1ccc(S(=O)(=O)[NH+]2CCC(c3nc(-c4ccccc4)no3)CC2)c(C)c1 (nonaromatic ring conformer: 96.81279441635537 kcal/mol)

>  <smiles>  (41) 
Cc1ccc(S(=O)(=O)N2CCC(c3nc(-c4ccccc4)no3)CC2)c(C)c1

>  <score_type>  (41) 
oracle

>  <origin>  (41) 
adgpu

>  <m_score__min__energy>  (41) 
-10.25

>  <m_primary>  (41) 
energy

$$$$
41:0
     RDKit          3D

 32 34  0  0  0  0  0  0  0  0999 V2000
   -0.1820   25.7420  -27.8450 C   0  0  0  0  0  0  0  0  0  0  0  0
   -1.5920   25.2450  -27.8470 C   0  0  0  0  0  0  0  0  0  0  0  0
   -2.2690   24.9570  -28.9790 N   0  0  0  0  0  0  0  0  0  0  0  0
   -3.4780   24.5480  -28.5410 C   0  0  0  0  0  0  0  0  0  0  0  0
   -4.5690   24.1150  -29.4260 C   0  0  0  0  0  0  0  0  0  0  0  0
   -5.4950   24.9500  -30.0390 C   0  0  0  0  0  0  0  0  0  0  0  0
   -6.4280   24.2620  -30.8210 C   0  0  0  0  0  0  0  0  0  0  0  0
   -6.2310   22.8820  -30.8410 C   0  0  0  0  0  0  0  0  0  0  0  0
   -7.1040   21.8970  -31.5200 C   0  0  0  0  0  0  0  0  0  0  0  0
   -8.4830   21.9090  -31.2440 C   0  0  0  0  0  0  0  0  0  0  0  0
   -9.3380   20.9840  -31.8470 C   0  0  0  0  0  0  0  0  0  0  0  0
   -8.8290   20.0380  -32.7370 C   0  0  0  0  0  0  0  0  0  0  0  0
   -7.4650   20.0210  -33.0340 C   0  0  0  0  0  0  0  0  0  0  0  0
   -6.5970   20.9450  -32.4360 C   0  0  0  0  0  0  0  0  0  0  0  0
   -4.9070   20.9160  -32.9310 Cl  0  0  0  0  0  0  0  0  0  0  0  0
   -4.9120   22.5250  -29.8540 S   0  0  0  0  0  0  0  0  0  0  0  0
   -3.5190   24.5920  -27.1610 C   0  0  0  0  0  0  0  0  0  0  0  0
   -2.3290   25.0450  -26.7340 N   0  0  0  0  0  0  0  0  0  0  0  0
   -1.9080   25.2020  -25.3450 C   0  0  0  0  0  0  0  0  0  0  0  0
    0.1625   25.8634  -26.8074 H   0  0  0  0  0  0  0  0  0  0  0  0
    0.4630   25.0171  -28.3631 H   0  0  0  0  0  0  0  0  0  0  0  0
   -0.1341   26.7112  -28.3631 H   0  0  0  0  0  0  0  0  0  0  0  0
   -5.4942   26.0436  -29.9209 H   0  0  0  0  0  0  0  0  0  0  0  0
   -7.2404   24.7622  -31.3685 H   0  0  0  0  0  0  0  0  0  0  0  0
   -8.8922   22.6544  -30.5462 H   0  0  0  0  0  0  0  0  0  0  0  0
  -10.4142   21.0014  -31.6199 H   0  0  0  0  0  0  0  0  0  0  0  0
   -9.5027   19.3051  -33.2050 H   0  0  0  0  0  0  0  0  0  0  0  0
   -7.0690   19.2778  -33.7417 H   0  0  0  0  0  0  0  0  0  0  0  0
   -4.3716   24.3076  -26.5268 H   0  0  0  0  0  0  0  0  0  0  0  0
   -2.7268   24.8966  -24.6769 H   0  0  0  0  0  0  0  0  0  0  0  0
   -1.0262   24.5723  -25.1557 H   0  0  0  0  0  0  0  0  0  0  0  0
   -1.6538   26.2554  -25.1557 H   0  0  0  0  0  0  0  0  0  0  0  0
  1  2  1  0
  2  3  2  0
  3  4  1  0
  4  5  1  0
  5  6  2  0
  6  7  1  0
  7  8  2  0
  8  9  1  0
  9 10  2  0
 10 11  1  0
 11 12  2  0
 12 13  1  0
 13 14  2  0
 14 15  1  0
  8 16  1  0
  4 17  2  0
 17 18  1  0
 18 19  1  0
 18  2  1  0
 16  5  1  0
 14  9  1  0
  1 20  1  0
  1 21  1  0
  1 22  1  0
  6 23  1  0
  7 24  1  0
 10 25  1  0
 11 26  1  0
 12 27  1  0
 13 28  1  0
 17 29  1  0
 19 30  1  0
 19 31  1  0
 19 32  1  0
M  END
>  <UniqueID>  (42) 
41

>  <SMILES>  (42) 
Cc1nc(-c2ccc(-c3ccccc3Cl)s2)cn1C

>  <Energy>  (42) 
93.72190363396548

>  <Genealogy>  (42) 
Cc1nc(-c2ccc(-c3ccccc3Cl)s2)cn1C (3D coordinates assigned)
Cc1nc(-c2ccc(-c3ccccc3Cl)s2)cn1C (optimized conformer: 93.72190363396548 kcal/mol)

>  <smiles>  (42) 
Cc1nc(-c2ccc(-c3ccccc3Cl)s2)cn1C

>  <score_type>  (42) 
oracle

>  <origin>  (42) 
adgpu

>  <m_score__min__energy>  (42) 
-7.5199999999999996

>  <m_primary>  (42) 
energy

$$$$
42:0
     RDKit          3D

 46 48  0  0  0  0  0  0  0  0999 V2000
   -7.2490   24.5640  -30.1810 C   0  0  0  0  0  0  0  0  0  0  0  0
   -6.7220   23.4040  -30.9830 C   0  0  0  0  0  0  0  0  0  0  0  0
   -7.6360   22.6140  -31.7010 C   0  0  0  0  0  0  0  0  0  0  0  0
   -7.2030   21.5080  -32.4320 C   0  0  0  0  0  0  0  0  0  0  0  0
   -5.8490   21.1620  -32.4450 C   0  0  0  0  0  0  0  0  0  0  0  0
   -5.2830   19.7810  -33.3830 S   0  0  0  0  0  0  0  0  0  0  0  0
   -3.8580   20.0040  -33.8090 O   0  0  0  0  0  0  0  0  0  0  0  0
   -6.1350   19.6690  -34.6170 O   0  0  0  0  0  0  0  0  0  0  0  0
   -5.4320   18.3190  -32.4300 N   0  0  0  0  0  0  0  0  0  0  0  0
   -5.2350   17.0970  -33.2330 C   0  0  0  0  0  0  0  0  0  0  0  0
   -6.5120   16.6780  -33.9780 C   0  0  0  0  0  0  0  0  0  0  0  0
   -7.5960   16.5430  -33.0830 O   0  0  0  0  0  0  0  0  0  0  0  0
   -7.8760   17.7940  -32.4910 C   0  0  0  0  0  0  0  0  0  0  0  0
   -6.6840   18.2820  -31.6530 C   0  0  0  0  0  0  0  0  0  0  0  0
   -4.9300   21.9320  -31.7270 C   0  0  0  0  0  0  0  0  0  0  0  0
   -5.3480   23.0490  -30.9840 C   0  0  0  0  0  0  0  0  0  0  0  0
   -4.1330   23.9820  -30.0930 S   0  0  0  0  0  0  0  0  0  0  0  0
   -4.6670   24.2970  -28.7240 O   0  0  0  0  0  0  0  0  0  0  0  0
   -3.8460   25.2740  -30.8050 O   0  0  0  0  0  0  0  0  0  0  0  0
   -2.6570   23.0730  -29.9770 N   0  0  0  0  0  0  0  0  0  0  0  0
   -1.6940   23.2290  -28.9270 C   0  0  0  0  0  0  0  0  0  0  0  0
   -1.2330   22.0780  -28.2740 C   0  0  0  0  0  0  0  0  0  0  0  0
   -0.3560   22.1770  -27.1920 C   0  0  0  0  0  0  0  0  0  0  0  0
    0.0820   23.4290  -26.7620 C   0  0  0  0  0  0  0  0  0  0  0  0
   -0.3300   24.5820  -27.4340 C   0  0  0  0  0  0  0  0  0  0  0  0
   -1.1880   24.4920  -28.5370 C   0  0  0  0  0  0  0  0  0  0  0  0
   -1.4750   25.6600  -29.2430 O   0  0  0  0  0  0  0  0  0  0  0  0
   -7.1488   24.3435  -29.1080 H   0  0  0  0  0  0  0  0  0  0  0  0
   -6.6739   25.4695  -30.4245 H   0  0  0  0  0  0  0  0  0  0  0  0
   -8.3093   24.7265  -30.4245 H   0  0  0  0  0  0  0  0  0  0  0  0
   -8.7055   22.8710  -31.6863 H   0  0  0  0  0  0  0  0  0  0  0  0
   -7.9286   20.9068  -32.9995 H   0  0  0  0  0  0  0  0  0  0  0  0
   -4.4398   17.2822  -33.9701 H   0  0  0  0  0  0  0  0  0  0  0  0
   -4.9631   16.2823  -32.5457 H   0  0  0  0  0  0  0  0  0  0  0  0
   -6.7582   17.4430  -34.7291 H   0  0  0  0  0  0  0  0  0  0  0  0
   -6.3335   15.7069  -34.4630 H   0  0  0  0  0  0  0  0  0  0  0  0
   -8.0847   18.5286  -33.2827 H   0  0  0  0  0  0  0  0  0  0  0  0
   -8.7486   17.6833  -31.8305 H   0  0  0  0  0  0  0  0  0  0  0  0
   -6.9018   19.2953  -31.2846 H   0  0  0  0  0  0  0  0  0  0  0  0
   -6.5441   17.5742  -30.8227 H   0  0  0  0  0  0  0  0  0  0  0  0
   -3.8643   21.6598  -31.7437 H   0  0  0  0  0  0  0  0  0  0  0  0
   -1.5652   21.0871  -28.6171 H   0  0  0  0  0  0  0  0  0  0  0  0
   -0.0107   21.2674  -26.6789 H   0  0  0  0  0  0  0  0  0  0  0  0
    0.7522   23.5086  -25.8933 H   0  0  0  0  0  0  0  0  0  0  0  0
    0.0219   25.5674  -27.0945 H   0  0  0  0  0  0  0  0  0  0  0  0
   -2.0810   25.6740  -30.0500 H   0  0  0  0  0  0  0  0  0  0  0  0
  1  2  1  0
  2  3  2  0
  3  4  1  0
  4  5  2  0
  5  6  1  0
  6  7  2  0
  6  8  2  0
  6  9  1  0
  9 10  1  0
 10 11  1  0
 11 12  1  0
 12 13  1  0
 13 14  1  0
  5 15  1  0
 15 16  2  0
 16 17  1  0
 17 18  2  0
 17 19  2  0
 17 20  1  0
 20 21  1  0
 21 22  2  0
 22 23  1  0
 23 24  2  0
 24 25  1  0
 25 26  2  0
 26 27  1  0
 16  2  1  0
 26 21  1  0
 14  9  1  0
  1 28  1  0
  1 29  1  0
  1 30  1  0
  3 31  1  0
  4 32  1  0
 10 33  1  0
 10 34  1  0
 11 35  1  0
 11 36  1  0
 13 37  1  0
 13 38  1  0
 14 39  1  0
 14 40  1  0
 15 41  1  0
 22 42  1  0
 23 43  1  0
 24 44  1  0
 25 45  1  0
 27 46  1  0
M  CHG  1  20  -1
M  END
>  <UniqueID>  (43) 
42

>  <SMILES>  (43) 
Cc1ccc(S(=O)(=O)N2CCOCC2)cc1S(=O)(=O)[N-]c1ccccc1O

>  <Energy>  (43) 
63.5795326687762

>  <Genealogy>  (43) 
Cc1ccc(S(=O)(=O)N2CCOCC2)cc1S(=O)(=O)[N-]c1ccccc1O (protonated)
Cc1ccc(S(=O)(=O)N2CCOCC2)cc1S(=O)(=O)[N-]c1ccccc1O (3D coordinates assigned)
Cc1ccc(S(=O)(=O)N2CCOCC2)cc1S(=O)(=O)[N-]c1ccccc1O (nonaromatic ring conformer: 63.5795326687762 kcal/mol)

>  <smiles>  (43) 
Cc1ccc(S(=O)(=O)N2CCOCC2)cc1S(=O)(=O)Nc1ccccc1O

>  <score_type>  (43) 
oracle

>  <origin>  (43) 
adgpu

>  <m_score__min__energy>  (43) 
-11.050000000000001

>  <m_primary>  (43) 
energy

$$$$
43:0
     RDKit          3D

 56 59  0  0  0  0  0  0  0  0999 V2000
   -4.0040   25.2180  -30.4630 O   0  0  0  0  0  0  0  0  0  0  0  0
   -3.6670   24.0020  -30.4560 C   0  0  0  0  0  0  0  0  0  0  0  0
   -2.7020   23.5160  -29.4420 C   0  0  0  0  0  0  0  0  0  0  0  0
   -2.7870   22.1890  -28.9840 C   0  0  0  0  0  0  0  0  0  0  0  0
   -1.8990   21.7090  -28.0130 C   0  0  0  0  0  0  0  0  0  0  0  0
   -2.0280   20.0440  -27.4390 S   0  0  0  0  0  0  0  0  0  0  0  0
   -1.6520   19.9920  -25.9840 O   0  0  0  0  0  0  0  0  0  0  0  0
   -3.4530   19.5840  -27.5690 O   0  0  0  0  0  0  0  0  0  0  0  0
   -0.9930   18.9680  -28.3510 N   0  0  0  0  0  0  0  0  0  0  0  0
   -0.1080   19.7170  -29.2770 C   0  0  0  0  0  0  0  0  0  0  0  0
    1.3360   19.8300  -28.7650 C   0  0  0  0  0  0  0  0  0  0  0  0
    1.9550   18.4400  -28.5360 C   0  0  0  0  0  0  0  0  0  0  0  0
    0.9120   17.3830  -28.1310 C   0  0  0  0  0  0  0  0  0  0  0  0
   -0.2920   18.0340  -27.4430 C   0  0  0  0  0  0  0  0  0  0  0  0
   -0.9170   22.5620  -27.4930 C   0  0  0  0  0  0  0  0  0  0  0  0
   -0.8310   23.8850  -27.9330 C   0  0  0  0  0  0  0  0  0  0  0  0
   -1.7170   24.3660  -28.9010 C   0  0  0  0  0  0  0  0  0  0  0  0
   -1.6000   25.6840  -29.3290 O   0  0  0  0  0  0  0  0  0  0  0  0
   -4.2490   23.1020  -31.4120 N   0  0  0  0  0  0  0  0  0  0  0  0
   -5.6680   23.2390  -31.7670 C   0  0  0  0  0  0  0  0  0  0  0  0
   -6.3010   21.8540  -31.9650 C   0  0  0  0  0  0  0  0  0  0  0  0
   -5.4060   20.9460  -32.7010 N   0  0  0  0  0  0  0  0  0  0  0  0
   -5.7040   19.5380  -32.7450 C   0  0  0  0  0  0  0  0  0  0  0  0
   -5.5580   18.8180  -33.9440 C   0  0  0  0  0  0  0  0  0  0  0  0
   -5.8630   17.4530  -33.9900 C   0  0  0  0  0  0  0  0  0  0  0  0
   -6.3220   16.7990  -32.8440 C   0  0  0  0  0  0  0  0  0  0  0  0
   -6.4800   17.5080  -31.6500 C   0  0  0  0  0  0  0  0  0  0  0  0
   -6.1750   18.8710  -31.5990 C   0  0  0  0  0  0  0  0  0  0  0  0
   -4.1590   21.4690  -33.2760 C   0  0  0  0  0  0  0  0  0  0  0  0
   -3.3740   22.2100  -32.1920 C   0  0  0  0  0  0  0  0  0  0  0  0
   -3.5593   21.5208  -29.3928 H   0  0  0  0  0  0  0  0  0  0  0  0
   -0.0966   19.1989  -30.2473 H   0  0  0  0  0  0  0  0  0  0  0  0
   -0.5084   20.7380  -29.3622 H   0  0  0  0  0  0  0  0  0  0  0  0
    1.9387   20.3733  -29.5077 H   0  0  0  0  0  0  0  0  0  0  0  0
    1.3246   20.3688  -27.8060 H   0  0  0  0  0  0  0  0  0  0  0  0
    2.4424   18.1144  -29.4668 H   0  0  0  0  0  0  0  0  0  0  0  0
    2.6746   18.5297  -27.7089 H   0  0  0  0  0  0  0  0  0  0  0  0
    0.5684   16.8533  -29.0318 H   0  0  0  0  0  0  0  0  0  0  0  0
    1.3807   16.6809  -27.4258 H   0  0  0  0  0  0  0  0  0  0  0  0
   -0.9931   17.2469  -27.1284 H   0  0  0  0  0  0  0  0  0  0  0  0
    0.0716   18.6030  -26.5746 H   0  0  0  0  0  0  0  0  0  0  0  0
   -0.2115   22.1889  -26.7360 H   0  0  0  0  0  0  0  0  0  0  0  0
   -0.0620   24.5516  -27.5155 H   0  0  0  0  0  0  0  0  0  0  0  0
   -6.1953   23.7674  -30.9591 H   0  0  0  0  0  0  0  0  0  0  0  0
   -5.7502   23.8086  -32.7044 H   0  0  0  0  0  0  0  0  0  0  0  0
   -6.5192   21.4176  -30.9791 H   0  0  0  0  0  0  0  0  0  0  0  0
   -7.2219   21.9790  -32.5535 H   0  0  0  0  0  0  0  0  0  0  0  0
   -5.2023   19.3302  -34.8502 H   0  0  0  0  0  0  0  0  0  0  0  0
   -5.7412   16.8943  -34.9297 H   0  0  0  0  0  0  0  0  0  0  0  0
   -6.5592   15.7255  -32.8814 H   0  0  0  0  0  0  0  0  0  0  0  0
   -6.8449   16.9927  -30.7493 H   0  0  0  0  0  0  0  0  0  0  0  0
   -6.3039   19.4254  -30.6577 H   0  0  0  0  0  0  0  0  0  0  0  0
   -3.5545   20.6352  -33.6623 H   0  0  0  0  0  0  0  0  0  0  0  0
   -4.3942   22.1606  -34.0984 H   0  0  0  0  0  0  0  0  0  0  0  0
   -2.9171   21.4739  -31.5142 H   0  0  0  0  0  0  0  0  0  0  0  0
   -2.6013   22.8220  -32.6803 H   0  0  0  0  0  0  0  0  0  0  0  0
  1  2  2  0
  2  3  1  0
  3  4  2  0
  4  5  1  0
  5  6  1  0
  6  7  2  0
  6  8  2  0
  6  9  1  0
  9 10  1  0
 10 11  1  0
 11 12  1  0
 12 13  1  0
 13 14  1  0
  5 15  2  0
 15 16  1  0
 16 17  2  0
 17 18  1  0
  2 19  1  0
 19 20  1  0
 20 21  1  0
 21 22  1  0
 22 23  1  0
 23 24  2  0
 24 25  1  0
 25 26  2  0
 26 27  1  0
 27 28  2  0
 22 29  1  0
 29 30  1  0
 17  3  1  0
 30 19  1  0
 14  9  1  0
 28 23  1  0
  4 31  1  0
 10 32  1  0
 10 33  1  0
 11 34  1  0
 11 35  1  0
 12 36  1  0
 12 37  1  0
 13 38  1  0
 13 39  1  0
 14 40  1  0
 14 41  1  0
 15 42  1  0
 16 43  1  0
 20 44  1  0
 20 45  1  0
 21 46  1  0
 21 47  1  0
 24 48  1  0
 25 49  1  0
 26 50  1  0
 27 51  1  0
 28 52  1  0
 29 53  1  0
 29 54  1  0
 30 55  1  0
 30 56  1  0
M  CHG  1  18  -1
M  END
>  <UniqueID>  (44) 
43

>  <SMILES>  (44) 
O=C(c1cc(S(=O)(=O)N2CCCCC2)ccc1[O-])N1CCN(c2ccccc2)CC1

>  <Energy>  (44) 
72.48188663184693

>  <Genealogy>  (44) 
O=C(c1cc(S(=O)(=O)N2CCCCC2)ccc1[O-])N1CCN(c2ccccc2)CC1 (protonated)
O=C(c1cc(S(=O)(=O)N2CCCCC2)ccc1[O-])N1CCN(c2ccccc2)CC1 (3D coordinates assigned)
O=C(c1cc(S(=O)(=O)N2CCCCC2)ccc1[O-])N1CCN(c2ccccc2)CC1 (nonaromatic ring conformer: 72.48188663184693 kcal/mol)

>  <smiles>  (44) 
O=C(c1cc(S(=O)(=O)N2CCCCC2)ccc1O)N1CCN(c2ccccc2)CC1

>  <score_type>  (44) 
oracle

>  <origin>  (44) 
adgpu

>  <m_score__min__energy>  (44) 
-13.25

>  <m_primary>  (44) 
energy

$$$$
44:0
     RDKit          3D

 57 59  0  0  0  0  0  0  0  0999 V2000
   -0.5010   22.2430  -26.1450 C   0  0  0  0  0  0  0  0  0  0  0  0
   -1.2490   22.9020  -27.2750 C   0  0  0  0  0  0  0  0  0  0  0  0
   -2.2930   22.1910  -27.8840 C   0  0  0  0  0  0  0  0  0  0  0  0
   -3.0240   22.7480  -28.9320 C   0  0  0  0  0  0  0  0  0  0  0  0
   -2.7350   24.0420  -29.3850 C   0  0  0  0  0  0  0  0  0  0  0  0
   -3.4600   24.6550  -30.4650 N   0  0  0  0  0  0  0  0  0  0  0  0
   -4.8280   24.4460  -30.8410 C   0  0  0  0  0  0  0  0  0  0  0  0
   -5.4990   25.3640  -31.3780 O   0  0  0  0  0  0  0  0  0  0  0  0
   -5.4560   23.1830  -30.6040 N   0  0  0  0  0  0  0  0  0  0  0  0
   -6.6580   22.7190  -31.2360 C   0  0  0  0  0  0  0  0  0  0  0  0
   -7.7730   23.5600  -31.3780 C   0  0  0  0  0  0  0  0  0  0  0  0
   -8.9680   23.0580  -31.8950 C   0  0  0  0  0  0  0  0  0  0  0  0
   -9.0460   21.7120  -32.2510 C   0  0  0  0  0  0  0  0  0  0  0  0
   -7.9650   20.9030  -32.0970 N   0  0  0  0  0  0  0  0  0  0  0  0
   -6.7790   21.3640  -31.6130 C   0  0  0  0  0  0  0  0  0  0  0  0
   -5.7160   20.4600  -31.4800 O   0  0  0  0  0  0  0  0  0  0  0  0
   -5.4020   19.4350  -32.3830 C   0  0  0  0  0  0  0  0  0  0  0  0
   -6.3100   18.3750  -32.5720 C   0  0  0  0  0  0  0  0  0  0  0  0
   -6.0310   17.3520  -33.4710 C   0  0  0  0  0  0  0  0  0  0  0  0
   -4.8340   17.3560  -34.1760 C   0  0  0  0  0  0  0  0  0  0  0  0
   -3.9080   18.3810  -33.9870 C   0  0  0  0  0  0  0  0  0  0  0  0
   -4.1610   19.4490  -33.0850 C   0  0  0  0  0  0  0  0  0  0  0  0
   -3.1420   20.6030  -32.8950 C   0  0  0  0  0  0  0  0  0  0  0  0
   -3.8180   21.9630  -33.1790 C   0  0  0  0  0  0  0  0  0  0  0  0
   -1.9360   20.4070  -33.8420 C   0  0  0  0  0  0  0  0  0  0  0  0
   -2.5750   20.6800  -31.4540 C   0  0  0  0  0  0  0  0  0  0  0  0
   -1.6770   24.7530  -28.8040 C   0  0  0  0  0  0  0  0  0  0  0  0
   -1.3580   26.0070  -29.3160 O   0  0  0  0  0  0  0  0  0  0  0  0
   -0.9460   24.2130  -27.7230 C   0  0  0  0  0  0  0  0  0  0  0  0
    0.3620   25.1750  -26.9930 S   0  0  0  0  0  0  0  0  0  0  0  0
   -0.1600   26.8710  -26.8450 C   0  0  0  0  0  0  0  0  0  0  0  0
    1.6100   25.1050  -27.8260 O   0  0  0  0  0  0  0  0  0  0  0  0
    0.6940   24.6490  -25.6260 O   0  0  0  0  0  0  0  0  0  0  0  0
   -0.9025   22.5968  -25.1839 H   0  0  0  0  0  0  0  0  0  0  0  0
   -0.6209   21.1517  -26.2131 H   0  0  0  0  0  0  0  0  0  0  0  0
    0.5665   22.4995  -26.2131 H   0  0  0  0  0  0  0  0  0  0  0  0
   -2.5386   21.1791  -27.5296 H   0  0  0  0  0  0  0  0  0  0  0  0
   -3.8310   22.1694  -29.4053 H   0  0  0  0  0  0  0  0  0  0  0  0
   -7.7046   24.6170  -31.0811 H   0  0  0  0  0  0  0  0  0  0  0  0
   -9.8395   23.7173  -32.0204 H   0  0  0  0  0  0  0  0  0  0  0  0
   -9.9837   21.3046  -32.6570 H   0  0  0  0  0  0  0  0  0  0  0  0
   -7.2505   18.3564  -32.0018 H   0  0  0  0  0  0  0  0  0  0  0  0
   -6.7573   16.5402  -33.6240 H   0  0  0  0  0  0  0  0  0  0  0  0
   -4.6155   16.5459  -34.8874 H   0  0  0  0  0  0  0  0  0  0  0  0
   -2.9619   18.3624  -34.5479 H   0  0  0  0  0  0  0  0  0  0  0  0
   -4.0633   22.4564  -32.2270 H   0  0  0  0  0  0  0  0  0  0  0  0
   -3.1317   22.6002  -33.7561 H   0  0  0  0  0  0  0  0  0  0  0  0
   -4.7403   21.8006  -33.7561 H   0  0  0  0  0  0  0  0  0  0  0  0
   -1.0228   20.2586  -33.2469 H   0  0  0  0  0  0  0  0  0  0  0  0
   -2.1076   19.5250  -34.4765 H   0  0  0  0  0  0  0  0  0  0  0  0
   -1.8194   21.2980  -34.4765 H   0  0  0  0  0  0  0  0  0  0  0  0
   -3.3960   20.5685  -30.7305 H   0  0  0  0  0  0  0  0  0  0  0  0
   -1.8425   19.8731  -31.3046 H   0  0  0  0  0  0  0  0  0  0  0  0
   -2.0842   21.6530  -31.3046 H   0  0  0  0  0  0  0  0  0  0  0  0
   -0.2421   27.1378  -25.7810 H   0  0  0  0  0  0  0  0  0  0  0  0
    0.5782   27.5256  -27.3313 H   0  0  0  0  0  0  0  0  0  0  0  0
   -1.1386   26.9972  -27.3313 H   0  0  0  0  0  0  0  0  0  0  0  0
  1  2  1  0
  2  3  2  0
  3  4  1  0
  4  5  2  0
  5  6  1  0
  6  7  1  0
  7  8  2  0
  7  9  1  0
  9 10  1  0
 10 11  2  0
 11 12  1  0
 12 13  2  0
 13 14  1  0
 14 15  2  0
 15 16  1  0
 16 17  1  0
 17 18  2  0
 18 19  1  0
 19 20  2  0
 20 21  1  0
 21 22  2  0
 22 23  1  0
 23 24  1  0
 23 25  1  0
 23 26  1  0
  5 27  1  0
 27 28  1  0
 27 29  2  0
 29 30  1  0
 30 31  1  0
 30 32  2  0
 30 33  2  0
 29  2  1  0
 15 10  1  0
 22 17  1  0
  1 34  1  0
  1 35  1  0
  1 36  1  0
  3 37  1  0
  4 38  1  0
 11 39  1  0
 12 40  1  0
 13 41  1  0
 18 42  1  0
 19 43  1  0
 20 44  1  0
 21 45  1  0
 24 46  1  0
 24 47  1  0
 24 48  1  0
 25 49  1  0
 25 50  1  0
 25 51  1  0
 26 52  1  0
 26 53  1  0
 26 54  1  0
 31 55  1  0
 31 56  1  0
 31 57  1  0
M  CHG  3   6  -1   9  -1  28  -1
M  END
>  <UniqueID>  (45) 
44

>  <SMILES>  (45) 
Cc1ccc([N-]C(=O)[N-]c2cccnc2Oc2ccccc2C(C)(C)C)c([O-])c1S(C)(=O)=O

>  <Energy>  (45) 
79.5707272652228

>  <Genealogy>  (45) 
Cc1ccc([N-]C(=O)[N-]c2cccnc2Oc2ccccc2C(C)(C)C)c([O-])c1S(C)(=O)=O (protonated)
Cc1ccc([N-]C(=O)[N-]c2cccnc2Oc2ccccc2C(C)(C)C)c([O-])c1S(C)(=O)=O (3D coordinates assigned)
Cc1ccc([N-]C(=O)[N-]c2cccnc2Oc2ccccc2C(C)(C)C)c([O-])c1S(C)(=O)=O (optimized conformer: 79.5707272652228 kcal/mol)

>  <smiles>  (45) 
Cc1ccc(NC(=O)Nc2cccnc2Oc2ccccc2C(C)(C)C)c(O)c1S(C)(=O)=O

>  <score_type>  (45) 
oracle

>  <origin>  (45) 
adgpu

>  <m_score__min__energy>  (45) 
-16.100000000000001

>  <m_primary>  (45) 
energy

$$$$
45:0
     RDKit          3D

 53 56  0  0  0  0  0  0  0  0999 V2000
    0.4420   26.4250  -23.1010 N   0  0  0  0  0  0  0  0  0  0  0  0
   -0.4980   26.4770  -24.1800 C   0  0  0  0  0  0  0  0  0  0  0  0
   -1.6120   27.1280  -24.0270 N   0  0  0  0  0  0  0  0  0  0  0  0
   -0.1880   25.7950  -25.4620 C   0  0  0  0  0  0  0  0  0  0  0  0
    1.1430   25.6010  -25.8700 C   0  0  0  0  0  0  0  0  0  0  0  0
    1.4250   24.9520  -27.0750 C   0  0  0  0  0  0  0  0  0  0  0  0
    0.3860   24.4940  -27.8850 C   0  0  0  0  0  0  0  0  0  0  0  0
   -0.9520   24.6940  -27.5020 C   0  0  0  0  0  0  0  0  0  0  0  0
   -2.0260   24.2290  -28.2750 O   0  0  0  0  0  0  0  0  0  0  0  0
   -2.1030   22.9640  -28.8720 C   0  0  0  0  0  0  0  0  0  0  0  0
   -1.2610   21.9670  -28.4800 N   0  0  0  0  0  0  0  0  0  0  0  0
   -1.2710   20.7250  -29.0350 C   0  0  0  0  0  0  0  0  0  0  0  0
   -0.3470   19.7220  -28.5540 N   0  0  0  0  0  0  0  0  0  0  0  0
    1.0720   19.8160  -28.9290 C   0  0  0  0  0  0  0  0  0  0  0  0
    1.7280   18.4340  -28.8930 C   0  0  0  0  0  0  0  0  0  0  0  0
    1.4840   17.7980  -27.6550 O   0  0  0  0  0  0  0  0  0  0  0  0
    0.1030   17.5180  -27.5370 C   0  0  0  0  0  0  0  0  0  0  0  0
   -0.7160   18.8090  -27.4610 C   0  0  0  0  0  0  0  0  0  0  0  0
   -2.1950   20.4500  -30.0580 C   0  0  0  0  0  0  0  0  0  0  0  0
   -3.0600   21.4540  -30.4950 C   0  0  0  0  0  0  0  0  0  0  0  0
   -3.0160   22.7310  -29.9150 C   0  0  0  0  0  0  0  0  0  0  0  0
   -3.9550   23.7890  -30.3600 C   0  0  0  0  0  0  0  0  0  0  0  0
   -3.5430   24.9790  -30.4310 O   0  0  0  0  0  0  0  0  0  0  0  0
   -5.3650   23.4930  -30.7150 C   0  0  0  0  0  0  0  0  0  0  0  0
   -5.7940   23.6030  -32.0500 C   0  0  0  0  0  0  0  0  0  0  0  0
   -7.1180   23.3140  -32.3950 C   0  0  0  0  0  0  0  0  0  0  0  0
   -8.0240   22.9010  -31.4160 C   0  0  0  0  0  0  0  0  0  0  0  0
   -7.6070   22.7730  -30.0890 C   0  0  0  0  0  0  0  0  0  0  0  0
   -6.2840   23.0650  -29.7380 C   0  0  0  0  0  0  0  0  0  0  0  0
   -1.2280   25.3320  -26.2870 C   0  0  0  0  0  0  0  0  0  0  0  0
    1.3070   25.8450  -23.1660 H   0  0  0  0  0  0  0  0  0  0  0  0
    0.2610   26.9400  -22.2100 H   0  0  0  0  0  0  0  0  0  0  0  0
   -1.8310   27.6070  -23.1250 H   0  0  0  0  0  0  0  0  0  0  0  0
   -2.3050   27.2220  -24.8030 H   0  0  0  0  0  0  0  0  0  0  0  0
    1.9672   25.9620  -25.2373 H   0  0  0  0  0  0  0  0  0  0  0  0
    2.4695   24.8019  -27.3856 H   0  0  0  0  0  0  0  0  0  0  0  0
    0.6143   23.9743  -28.8272 H   0  0  0  0  0  0  0  0  0  0  0  0
    1.1513   20.2281  -29.9458 H   0  0  0  0  0  0  0  0  0  0  0  0
    1.5867   20.4731  -28.2126 H   0  0  0  0  0  0  0  0  0  0  0  0
    1.3143   17.8166  -29.7040 H   0  0  0  0  0  0  0  0  0  0  0  0
    2.8139   18.5542  -29.0211 H   0  0  0  0  0  0  0  0  0  0  0  0
   -0.2220   16.9373  -28.4128 H   0  0  0  0  0  0  0  0  0  0  0  0
   -0.0599   16.9457  -26.6118 H   0  0  0  0  0  0  0  0  0  0  0  0
   -1.7854   18.5638  -27.5404 H   0  0  0  0  0  0  0  0  0  0  0  0
   -0.5091   19.3039  -26.5007 H   0  0  0  0  0  0  0  0  0  0  0  0
   -2.2360   19.4487  -30.5116 H   0  0  0  0  0  0  0  0  0  0  0  0
   -3.7806   21.2432  -31.2989 H   0  0  0  0  0  0  0  0  0  0  0  0
   -5.0832   23.9185  -32.8280 H   0  0  0  0  0  0  0  0  0  0  0  0
   -7.4466   23.4123  -33.4402 H   0  0  0  0  0  0  0  0  0  0  0  0
   -9.0655   22.6766  -31.6896 H   0  0  0  0  0  0  0  0  0  0  0  0
   -8.3194   22.4423  -29.3189 H   0  0  0  0  0  0  0  0  0  0  0  0
   -5.9601   22.9594  -28.6921 H   0  0  0  0  0  0  0  0  0  0  0  0
   -2.2729   25.4730  -25.9734 H   0  0  0  0  0  0  0  0  0  0  0  0
  1  2  1  0
  2  3  2  0
  2  4  1  0
  4  5  2  0
  5  6  1  0
  6  7  2  0
  7  8  1  0
  8  9  1  0
  9 10  1  0
 10 11  2  0
 11 12  1  0
 12 13  1  0
 13 14  1  0
 14 15  1  0
 15 16  1  0
 16 17  1  0
 17 18  1  0
 12 19  2  0
 19 20  1  0
 20 21  2  0
 21 22  1  0
 22 23  2  0
 22 24  1  0
 24 25  2  0
 25 26  1  0
 26 27  2  0
 27 28  1  0
 28 29  2  0
  8 30  2  0
 30  4  1  0
 21 10  1  0
 29 24  1  0
 18 13  1  0
  1 31  1  0
  1 32  1  0
  3 33  1  0
  3 34  1  0
  5 35  1  0
  6 36  1  0
  7 37  1  0
 14 38  1  0
 14 39  1  0
 15 40  1  0
 15 41  1  0
 17 42  1  0
 17 43  1  0
 18 44  1  0
 18 45  1  0
 19 46  1  0
 20 47  1  0
 25 48  1  0
 26 49  1  0
 27 50  1  0
 28 51  1  0
 29 52  1  0
 30 53  1  0
M  CHG  1   3   1
M  END
>  <UniqueID>  (46) 
45

>  <SMILES>  (46) 
NC(=[NH2+])c1cccc(Oc2nc(N3CCOCC3)ccc2C(=O)c2ccccc2)c1

>  <Energy>  (46) 
74.40268918386981

>  <Genealogy>  (46) 
NC(=[NH2+])c1cccc(Oc2nc(N3CCOCC3)ccc2C(=O)c2ccccc2)c1 (protonated)
NC(=[NH2+])c1cccc(Oc2nc(N3CCOCC3)ccc2C(=O)c2ccccc2)c1 (3D coordinates assigned)
NC(=[NH2+])c1cccc(Oc2nc(N3CCOCC3)ccc2C(=O)c2ccccc2)c1 (nonaromatic ring conformer: 74.40268918386981 kcal/mol)

>  <smiles>  (46) 
N=C(N)c1cccc(Oc2nc(N3CCOCC3)ccc2C(=O)c2ccccc2)c1

>  <score_type>  (46) 
oracle

>  <origin>  (46) 
adgpu

>  <m_score__min__energy>  (46) 
-9.3800000000000008

>  <m_primary>  (46) 
energy

$$$$
46:0
     RDKit          3D

 40 42  0  0  0  0  0  0  0  0999 V2000
   -4.5670   15.8960  -34.5450 C   0  0  0  0  0  0  0  0  0  0  0  0
   -5.4710   16.9780  -34.0310 C   0  0  0  0  0  0  0  0  0  0  0  0
   -5.3510   18.2890  -34.5170 C   0  0  0  0  0  0  0  0  0  0  0  0
   -6.1680   19.3040  -34.0140 C   0  0  0  0  0  0  0  0  0  0  0  0
   -7.1110   19.0260  -33.0090 C   0  0  0  0  0  0  0  0  0  0  0  0
   -7.9520   20.0750  -32.4900 N   0  0  0  0  0  0  0  0  0  0  0  0
   -9.4080   19.9560  -32.6050 C   0  0  0  0  0  0  0  0  0  0  0  0
   -7.3720   21.2960  -31.9830 C   0  0  0  0  0  0  0  0  0  0  0  0
   -8.1420   22.4050  -31.8150 N   0  0  0  0  0  0  0  0  0  0  0  0
   -7.6130   23.5670  -31.3540 C   0  0  0  0  0  0  0  0  0  0  0  0
   -6.2560   23.6410  -31.0410 C   0  0  0  0  0  0  0  0  0  0  0  0
   -5.5090   25.3110  -30.4730 Br  0  0  0  0  0  0  0  0  0  0  0  0
   -5.4720   22.4910  -31.2100 C   0  0  0  0  0  0  0  0  0  0  0  0
   -4.0740   22.4940  -30.9090 N   0  0  0  0  0  0  0  0  0  0  0  0
   -3.5660   22.9680  -29.7880 N   0  0  0  0  0  0  0  0  0  0  0  0
   -2.2290   22.8440  -29.9200 C   0  0  0  0  0  0  0  0  0  0  0  0
   -1.2610   23.2020  -28.8440 C   0  0  0  0  0  0  0  0  0  0  0  0
   -1.8650   22.2980  -31.1010 N   0  0  0  0  0  0  0  0  0  0  0  0
   -3.0550   22.1120  -31.7050 C   0  0  0  0  0  0  0  0  0  0  0  0
   -3.1990   21.5380  -33.0790 C   0  0  0  0  0  0  0  0  0  0  0  0
   -6.0450   21.3550  -31.6880 N   0  0  0  0  0  0  0  0  0  0  0  0
   -7.2110   17.7190  -32.5080 C   0  0  0  0  0  0  0  0  0  0  0  0
   -6.3930   16.7040  -33.0110 C   0  0  0  0  0  0  0  0  0  0  0  0
   -4.1184   15.3591  -33.6962 H   0  0  0  0  0  0  0  0  0  0  0  0
   -5.1492   15.1921  -35.1578 H   0  0  0  0  0  0  0  0  0  0  0  0
   -3.7708   16.3438  -35.1578 H   0  0  0  0  0  0  0  0  0  0  0  0
   -4.6104   18.5182  -35.2974 H   0  0  0  0  0  0  0  0  0  0  0  0
   -6.0731   20.3272  -34.4066 H   0  0  0  0  0  0  0  0  0  0  0  0
   -9.8534   19.9196  -31.5999 H   0  0  0  0  0  0  0  0  0  0  0  0
   -9.8049   20.8247  -33.1507 H   0  0  0  0  0  0  0  0  0  0  0  0
   -9.6586   19.0344  -33.1507 H   0  0  0  0  0  0  0  0  0  0  0  0
   -8.2552   24.4510  -31.2272 H   0  0  0  0  0  0  0  0  0  0  0  0
   -1.7249   23.0304  -27.8615 H   0  0  0  0  0  0  0  0  0  0  0  0
   -0.3604   22.5775  -28.9383 H   0  0  0  0  0  0  0  0  0  0  0  0
   -0.9835   24.2622  -28.9383 H   0  0  0  0  0  0  0  0  0  0  0  0
   -3.4661   20.4734  -33.0055 H   0  0  0  0  0  0  0  0  0  0  0  0
   -3.9896   22.0778  -33.6209 H   0  0  0  0  0  0  0  0  0  0  0  0
   -2.2473   21.6407  -33.6209 H   0  0  0  0  0  0  0  0  0  0  0  0
   -7.9380   17.4921  -31.7143 H   0  0  0  0  0  0  0  0  0  0  0  0
   -6.4728   15.6849  -32.6047 H   0  0  0  0  0  0  0  0  0  0  0  0
  1  2  1  0
  2  3  2  0
  3  4  1  0
  4  5  2  0
  5  6  1  0
  6  7  1  0
  6  8  1  0
  8  9  2  0
  9 10  1  0
 10 11  2  0
 11 12  1  0
 11 13  1  0
 13 14  1  0
 14 15  1  0
 15 16  2  0
 16 17  1  0
 16 18  1  0
 18 19  2  0
 19 20  1  0
 13 21  2  0
  5 22  1  0
 22 23  2  0
 23  2  1  0
 21  8  1  0
 19 14  1  0
  1 24  1  0
  1 25  1  0
  1 26  1  0
  3 27  1  0
  4 28  1  0
  7 29  1  0
  7 30  1  0
  7 31  1  0
 10 32  1  0
 17 33  1  0
 17 34  1  0
 17 35  1  0
 20 36  1  0
 20 37  1  0
 20 38  1  0
 22 39  1  0
 23 40  1  0
M  END
>  <UniqueID>  (47) 
46

>  <SMILES>  (47) 
Cc1ccc(N(C)c2ncc(Br)c(-n3nc(C)nc3C)n2)cc1

>  <Energy>  (47) 
85.06366322320854

>  <Genealogy>  (47) 
Cc1ccc(N(C)c2ncc(Br)c(-n3nc(C)nc3C)n2)cc1 (3D coordinates assigned)
Cc1ccc(N(C)c2ncc(Br)c(-n3nc(C)nc3C)n2)cc1 (optimized conformer: 85.06366322320854 kcal/mol)

>  <smiles>  (47) 
Cc1ccc(N(C)c2ncc(Br)c(-n3nc(C)nc3C)n2)cc1

>  <score_type>  (47) 
oracle

>  <origin>  (47) 
adgpu

>  <m_score__min__energy>  (47) 
-8.0600000000000005

>  <m_primary>  (47) 
energy

$$$$
47:0
     RDKit          3D

 59 62  0  0  0  0  0  0  0  0999 V2000
    1.1280   23.5610  -26.2450 C   0  0  0  0  0  0  0  0  0  0  0  0
    0.1980   23.2060  -27.3770 C   0  0  0  0  0  0  0  0  0  0  0  0
    0.1750   21.8730  -27.8180 C   0  0  0  0  0  0  0  0  0  0  0  0
   -0.6720   21.4780  -28.8480 C   0  0  0  0  0  0  0  0  0  0  0  0
   -1.5340   22.3950  -29.4500 C   0  0  0  0  0  0  0  0  0  0  0  0
   -2.3870   21.9510  -30.5170 N   0  0  0  0  0  0  0  0  0  0  0  0
   -1.9100   21.6440  -31.8330 C   0  0  0  0  0  0  0  0  0  0  0  0
   -0.7260   21.9270  -32.1620 O   0  0  0  0  0  0  0  0  0  0  0  0
   -2.8180   21.0920  -32.7930 N   0  0  0  0  0  0  0  0  0  0  0  0
   -4.2120   20.8220  -32.5870 C   0  0  0  0  0  0  0  0  0  0  0  0
   -4.7240   19.5120  -32.5770 C   0  0  0  0  0  0  0  0  0  0  0  0
   -6.0840   19.2900  -32.3410 C   0  0  0  0  0  0  0  0  0  0  0  0
   -6.9400   20.3680  -32.1030 C   0  0  0  0  0  0  0  0  0  0  0  0
   -6.4390   21.6740  -32.0930 C   0  0  0  0  0  0  0  0  0  0  0  0
   -7.5230   23.0210  -31.7550 S   0  0  0  0  0  0  0  0  0  0  0  0
   -7.3140   24.1090  -32.7730 O   0  0  0  0  0  0  0  0  0  0  0  0
   -8.9410   22.5300  -31.8650 O   0  0  0  0  0  0  0  0  0  0  0  0
   -7.2130   23.6170  -30.1380 N   0  0  0  0  0  0  0  0  0  0  0  0
   -6.1520   22.8420  -29.4580 C   0  0  0  0  0  0  0  0  0  0  0  0
   -4.7810   23.5420  -29.5020 C   0  0  0  0  0  0  0  0  0  0  0  0
   -4.6470   24.2800  -30.6950 O   0  0  0  0  0  0  0  0  0  0  0  0
   -5.5270   25.3910  -30.6860 C   0  0  0  0  0  0  0  0  0  0  0  0
   -6.9360   25.0640  -30.1350 C   0  0  0  0  0  0  0  0  0  0  0  0
   -5.0730   21.8950  -32.3230 C   0  0  0  0  0  0  0  0  0  0  0  0
   -1.5110   23.7410  -29.0400 C   0  0  0  0  0  0  0  0  0  0  0  0
   -2.3130   24.6650  -29.7020 O   0  0  0  0  0  0  0  0  0  0  0  0
   -0.6660   24.1590  -27.9860 C   0  0  0  0  0  0  0  0  0  0  0  0
   -0.6930   25.8710  -27.4760 S   0  0  0  0  0  0  0  0  0  0  0  0
   -1.2800   26.7280  -28.5610 O   0  0  0  0  0  0  0  0  0  0  0  0
    0.7180   26.3460  -27.2590 O   0  0  0  0  0  0  0  0  0  0  0  0
   -1.6310   26.1500  -25.9620 C   0  0  0  0  0  0  0  0  0  0  0  0
   -1.2120   25.2920  -24.7700 C   0  0  0  0  0  0  0  0  0  0  0  0
   -0.7870   26.5450  -24.0180 C   0  0  0  0  0  0  0  0  0  0  0  0
   -1.2100   27.4050  -25.2000 C   0  0  0  0  0  0  0  0  0  0  0  0
    0.6266   23.3696  -25.2848 H   0  0  0  0  0  0  0  0  0  0  0  0
    2.0383   22.9471  -26.3121 H   0  0  0  0  0  0  0  0  0  0  0  0
    1.3977   24.6253  -26.3121 H   0  0  0  0  0  0  0  0  0  0  0  0
    0.8350   21.1322  -27.3430 H   0  0  0  0  0  0  0  0  0  0  0  0
   -0.6622   20.4329  -29.1911 H   0  0  0  0  0  0  0  0  0  0  0  0
   -3.4220   21.9810  -30.3690 H   0  0  0  0  0  0  0  0  0  0  0  0
   -4.0522   18.6594  -32.7554 H   0  0  0  0  0  0  0  0  0  0  0  0
   -6.4809   18.2641  -32.3427 H   0  0  0  0  0  0  0  0  0  0  0  0
   -8.0104   20.1895  -31.9231 H   0  0  0  0  0  0  0  0  0  0  0  0
   -6.4402   22.6993  -28.4061 H   0  0  0  0  0  0  0  0  0  0  0  0
   -6.0515   21.8828  -29.9870 H   0  0  0  0  0  0  0  0  0  0  0  0
   -4.6933   24.2227  -28.6424 H   0  0  0  0  0  0  0  0  0  0  0  0
   -3.9886   22.7801  -29.4615 H   0  0  0  0  0  0  0  0  0  0  0  0
   -5.0839   26.1799  -30.0605 H   0  0  0  0  0  0  0  0  0  0  0  0
   -5.6561   25.7074  -31.7316 H   0  0  0  0  0  0  0  0  0  0  0  0
   -7.0077   25.4362  -29.1024 H   0  0  0  0  0  0  0  0  0  0  0  0
   -7.6752   25.5506  -30.7883 H   0  0  0  0  0  0  0  0  0  0  0  0
   -4.6744   22.9199  -32.2958 H   0  0  0  0  0  0  0  0  0  0  0  0
   -2.6444   26.0505  -26.3782 H   0  0  0  0  0  0  0  0  0  0  0  0
   -2.0407   24.7441  -24.2977 H   0  0  0  0  0  0  0  0  0  0  0  0
   -0.5080   24.4576  -24.9046 H   0  0  0  0  0  0  0  0  0  0  0  0
   -1.3615   26.7326  -23.0989 H   0  0  0  0  0  0  0  0  0  0  0  0
    0.2303   26.6276  -23.6078 H   0  0  0  0  0  0  0  0  0  0  0  0
   -2.0375   28.0954  -24.9797 H   0  0  0  0  0  0  0  0  0  0  0  0
   -0.5045   28.1191  -25.6498 H   0  0  0  0  0  0  0  0  0  0  0  0
  1  2  1  0
  2  3  2  0
  3  4  1  0
  4  5  2  0
  5  6  1  0
  6  7  1  0
  7  8  2  0
  7  9  1  0
  9 10  1  0
 10 11  2  0
 11 12  1  0
 12 13  2  0
 13 14  1  0
 14 15  1  0
 15 16  2  0
 15 17  2  0
 15 18  1  0
 18 19  1  0
 19 20  1  0
 20 21  1  0
 21 22  1  0
 22 23  1  0
 14 24  2  0
  5 25  1  0
 25 26  1  0
 25 27  2  0
 27 28  1  0
 28 29  2  0
 28 30  2  0
 28 31  1  0
 31 32  1  0
 32 33  1  0
 33 34  1  0
 27  2  1  0
 34 31  1  0
 24 10  1  0
 23 18  1  0
  1 35  1  0
  1 36  1  0
  1 37  1  0
  3 38  1  0
  4 39  1  0
  6 40  1  0
 11 41  1  0
 12 42  1  0
 13 43  1  0
 19 44  1  0
 19 45  1  0
 20 46  1  0
 20 47  1  0
 22 48  1  0
 22 49  1  0
 23 50  1  0
 23 51  1  0
 24 52  1  0
 31 53  1  0
 32 54  1  0
 32 55  1  0
 33 56  1  0
 33 57  1  0
 34 58  1  0
 34 59  1  0
M  CHG  2   9  -1  26  -1
M  END
>  <UniqueID>  (48) 
47

>  <SMILES>  (48) 
Cc1ccc(NC(=O)[N-]c2cccc(S(=O)(=O)N3CCOCC3)c2)c([O-])c1S(=O)(=O)C1CCC1

>  <Energy>  (48) 
142.58562294881543

>  <Genealogy>  (48) 
Cc1ccc(NC(=O)[N-]c2cccc(S(=O)(=O)N3CCOCC3)c2)c([O-])c1S(=O)(=O)C1CCC1 (protonated)
Cc1ccc(NC(=O)[N-]c2cccc(S(=O)(=O)N3CCOCC3)c2)c([O-])c1S(=O)(=O)C1CCC1 (3D coordinates assigned)
Cc1ccc(NC(=O)[N-]c2cccc(S(=O)(=O)N3CCOCC3)c2)c([O-])c1S(=O)(=O)C1CCC1 (nonaromatic ring conformer: 142.58562294881543 kcal/mol)

>  <smiles>  (48) 
Cc1ccc(NC(=O)Nc2cccc(S(=O)(=O)N3CCOCC3)c2)c(O)c1S(=O)(=O)C1CCC1

>  <score_type>  (48) 
oracle

>  <origin>  (48) 
adgpu

>  <m_score__min__energy>  (48) 
-15.06

>  <m_primary>  (48) 
energy

$$$$
48:0
     RDKit          3D

 45 47  0  0  0  0  0  0  0  0999 V2000
   -1.4290   22.0240  -26.3320 C   0  0  0  0  0  0  0  0  0  0  0  0
   -1.9900   22.9320  -27.3940 C   0  0  0  0  0  0  0  0  0  0  0  0
   -3.2740   22.6550  -27.8900 C   0  0  0  0  0  0  0  0  0  0  0  0
   -3.8450   23.4520  -28.8790 C   0  0  0  0  0  0  0  0  0  0  0  0
   -3.1470   24.5390  -29.4020 C   0  0  0  0  0  0  0  0  0  0  0  0
   -3.7530   25.2950  -30.4620 N   0  0  0  0  0  0  0  0  0  0  0  0
   -5.1200   25.2070  -30.8870 C   0  0  0  0  0  0  0  0  0  0  0  0
   -5.9850   25.9110  -30.3060 O   0  0  0  0  0  0  0  0  0  0  0  0
   -5.5310   24.3500  -31.9630 N   0  0  0  0  0  0  0  0  0  0  0  0
   -6.4100   23.2230  -31.8500 C   0  0  0  0  0  0  0  0  0  0  0  0
   -7.7720   23.4440  -31.6110 C   0  0  0  0  0  0  0  0  0  0  0  0
   -8.6580   22.3640  -31.5290 C   0  0  0  0  0  0  0  0  0  0  0  0
   -8.1820   21.0570  -31.6660 C   0  0  0  0  0  0  0  0  0  0  0  0
   -9.0630   19.9850  -31.5900 O   0  0  0  0  0  0  0  0  0  0  0  0
   -6.8190   20.8280  -31.8750 C   0  0  0  0  0  0  0  0  0  0  0  0
   -5.9320   21.9060  -31.9570 C   0  0  0  0  0  0  0  0  0  0  0  0
   -1.8810   24.8670  -28.8800 C   0  0  0  0  0  0  0  0  0  0  0  0
   -1.2390   26.0230  -29.3130 O   0  0  0  0  0  0  0  0  0  0  0  0
   -1.2710   24.0470  -27.9090 C   0  0  0  0  0  0  0  0  0  0  0  0
    0.3690   24.4880  -27.3700 S   0  0  0  0  0  0  0  0  0  0  0  0
    1.2540   24.5300  -28.5860 O   0  0  0  0  0  0  0  0  0  0  0  0
    0.9500   23.4770  -26.4230 O   0  0  0  0  0  0  0  0  0  0  0  0
    0.3200   26.0750  -26.6320 N   0  0  0  0  0  0  0  0  0  0  0  0
   -1.0450   26.6320  -26.5740 C   0  0  0  0  0  0  0  0  0  0  0  0
   -1.8340   26.1170  -25.3600 C   0  0  0  0  0  0  0  0  0  0  0  0
   -1.1240   26.3480  -24.1610 O   0  0  0  0  0  0  0  0  0  0  0  0
    0.0850   25.6180  -24.1850 C   0  0  0  0  0  0  0  0  0  0  0  0
    0.9950   26.1100  -25.3200 C   0  0  0  0  0  0  0  0  0  0  0  0
   -1.6769   22.4252  -25.3382 H   0  0  0  0  0  0  0  0  0  0  0  0
   -1.8642   21.0197  -26.4410 H   0  0  0  0  0  0  0  0  0  0  0  0
   -0.3361   21.9638  -26.4410 H   0  0  0  0  0  0  0  0  0  0  0  0
   -3.8362   21.7973  -27.4922 H   0  0  0  0  0  0  0  0  0  0  0  0
   -4.8546   23.2218  -29.2502 H   0  0  0  0  0  0  0  0  0  0  0  0
   -8.1469   24.4707  -31.4872 H   0  0  0  0  0  0  0  0  0  0  0  0
   -9.7295   22.5437  -31.3567 H   0  0  0  0  0  0  0  0  0  0  0  0
   -6.4438   19.7988  -31.9751 H   0  0  0  0  0  0  0  0  0  0  0  0
   -4.8576   21.7225  -32.1056 H   0  0  0  0  0  0  0  0  0  0  0  0
   -0.9774   27.7282  -26.5128 H   0  0  0  0  0  0  0  0  0  0  0  0
   -1.5777   26.3124  -27.4818 H   0  0  0  0  0  0  0  0  0  0  0  0
   -2.8012   26.6387  -25.3117 H   0  0  0  0  0  0  0  0  0  0  0  0
   -1.9863   25.0336  -25.4744 H   0  0  0  0  0  0  0  0  0  0  0  0
    0.6042   25.7480  -23.2240 H   0  0  0  0  0  0  0  0  0  0  0  0
   -0.1469   24.5560  -24.3534 H   0  0  0  0  0  0  0  0  0  0  0  0
    1.2997   27.1451  -25.1061 H   0  0  0  0  0  0  0  0  0  0  0  0
    1.8647   25.4384  -25.3702 H   0  0  0  0  0  0  0  0  0  0  0  0
  1  2  1  0
  2  3  2  0
  3  4  1  0
  4  5  2  0
  5  6  1  0
  6  7  1  0
  7  8  2  0
  7  9  1  0
  9 10  1  0
 10 11  2  0
 11 12  1  0
 12 13  2  0
 13 14  1  0
 13 15  1  0
 15 16  2  0
  5 17  1  0
 17 18  1  0
 17 19  2  0
 19 20  1  0
 20 21  2  0
 20 22  2  0
 20 23  1  0
 23 24  1  0
 24 25  1  0
 25 26  1  0
 26 27  1  0
 27 28  1  0
 19  2  1  0
 28 23  1  0
 16 10  1  0
  1 29  1  0
  1 30  1  0
  1 31  1  0
  3 32  1  0
  4 33  1  0
 11 34  1  0
 12 35  1  0
 15 36  1  0
 16 37  1  0
 24 38  1  0
 24 39  1  0
 25 40  1  0
 25 41  1  0
 27 42  1  0
 27 43  1  0
 28 44  1  0
 28 45  1  0
M  CHG  4   6  -1   9  -1  14  -1  18  -1
M  END
>  <UniqueID>  (49) 
48

>  <SMILES>  (49) 
Cc1ccc([N-]C(=O)[N-]c2ccc([O-])cc2)c([O-])c1S(=O)(=O)N1CCOCC1

>  <Energy>  (49) 
63.180397344217255

>  <Genealogy>  (49) 
Cc1ccc([N-]C(=O)[N-]c2ccc([O-])cc2)c([O-])c1S(=O)(=O)N1CCOCC1 (protonated)
Cc1ccc([N-]C(=O)[N-]c2ccc([O-])cc2)c([O-])c1S(=O)(=O)N1CCOCC1 (3D coordinates assigned)
Cc1ccc([N-]C(=O)[N-]c2ccc([O-])cc2)c([O-])c1S(=O)(=O)N1CCOCC1 (nonaromatic ring conformer: 63.180397344217255 kcal/mol)

>  <smiles>  (49) 
Cc1ccc(NC(=O)Nc2ccc(O)cc2)c(O)c1S(=O)(=O)N1CCOCC1

>  <score_type>  (49) 
oracle

>  <origin>  (49) 
adgpu

>  <m_score__min__energy>  (49) 
-14

>  <m_primary>  (49) 
energy

$$$$
49:0
     RDKit          3D

 59 62  0  0  0  0  0  0  0  0999 V2000
   -3.8640   25.6130  -30.8370 O   0  0  0  0  0  0  0  0  0  0  0  0
   -4.5820   24.6150  -30.5630 C   0  0  0  0  0  0  0  0  0  0  0  0
   -5.9330   24.5760  -31.0320 N   0  0  0  0  0  0  0  0  0  0  0  0
   -6.5750   23.3760  -31.4780 C   0  0  0  0  0  0  0  0  0  0  0  0
   -7.9610   23.2460  -31.3370 C   0  0  0  0  0  0  0  0  0  0  0  0
   -8.5970   22.0570  -31.7070 C   0  0  0  0  0  0  0  0  0  0  0  0
   -7.8470   20.9770  -32.1840 C   0  0  0  0  0  0  0  0  0  0  0  0
   -6.4550   21.0860  -32.2980 C   0  0  0  0  0  0  0  0  0  0  0  0
   -5.4840   19.7000  -32.7950 S   0  0  0  0  0  0  0  0  0  0  0  0
   -5.9240   18.4990  -32.0030 O   0  0  0  0  0  0  0  0  0  0  0  0
   -5.7160   19.4150  -34.2550 O   0  0  0  0  0  0  0  0  0  0  0  0
   -3.7910   20.0110  -32.5070 N   0  0  0  0  0  0  0  0  0  0  0  0
   -3.3320   21.1410  -33.3530 C   0  0  0  0  0  0  0  0  0  0  0  0
   -1.8020   21.1590  -33.5660 C   0  0  0  0  0  0  0  0  0  0  0  0
   -1.0720   20.4260  -32.4390 C   0  0  0  0  0  0  0  0  0  0  0  0
   -1.5340   18.9630  -32.3480 C   0  0  0  0  0  0  0  0  0  0  0  0
   -3.0110   18.7830  -32.7550 C   0  0  0  0  0  0  0  0  0  0  0  0
   -5.8240   22.2930  -31.9690 C   0  0  0  0  0  0  0  0  0  0  0  0
   -4.0130   23.4800  -29.8060 C   0  0  0  0  0  0  0  0  0  0  0  0
   -4.4760   23.1780  -28.5150 C   0  0  0  0  0  0  0  0  0  0  0  0
   -3.8820   22.1500  -27.7750 C   0  0  0  0  0  0  0  0  0  0  0  0
   -2.8000   21.4290  -28.3040 C   0  0  0  0  0  0  0  0  0  0  0  0
   -1.9800   20.2060  -27.3220 S   0  0  0  0  0  0  0  0  0  0  0  0
   -1.2460   20.9000  -26.2080 O   0  0  0  0  0  0  0  0  0  0  0  0
   -3.0100   19.3030  -26.7020 O   0  0  0  0  0  0  0  0  0  0  0  0
   -0.8600   19.2180  -28.2330 N   0  0  0  0  0  0  0  0  0  0  0  0
   -0.3980   18.0610  -27.4620 C   0  0  0  0  0  0  0  0  0  0  0  0
    1.0010   17.7540  -27.9470 C   0  0  0  0  0  0  0  0  0  0  0  0
    1.5550   19.1050  -28.3350 C   0  0  0  0  0  0  0  0  0  0  0  0
    0.3340   19.9550  -28.6710 C   0  0  0  0  0  0  0  0  0  0  0  0
   -2.3440   21.7240  -29.5970 C   0  0  0  0  0  0  0  0  0  0  0  0
   -2.9580   22.7290  -30.3490 C   0  0  0  0  0  0  0  0  0  0  0  0
   -8.5520   24.0816  -30.9339 H   0  0  0  0  0  0  0  0  0  0  0  0
   -9.6904   21.9707  -31.6227 H   0  0  0  0  0  0  0  0  0  0  0  0
   -8.3504   20.0416  -32.4697 H   0  0  0  0  0  0  0  0  0  0  0  0
   -3.6970   20.2750  -31.4980 H   0  0  0  0  0  0  0  0  0  0  0  0
   -3.8209   21.0635  -34.3353 H   0  0  0  0  0  0  0  0  0  0  0  0
   -3.6004   22.0709  -32.8303 H   0  0  0  0  0  0  0  0  0  0  0  0
   -1.5681   20.6682  -34.5223 H   0  0  0  0  0  0  0  0  0  0  0  0
   -1.4660   22.2064  -33.5719 H   0  0  0  0  0  0  0  0  0  0  0  0
    0.0101   20.4506  -32.6349 H   0  0  0  0  0  0  0  0  0  0  0  0
   -1.3012   20.9272  -31.4870 H   0  0  0  0  0  0  0  0  0  0  0  0
   -0.9074   18.3531  -33.0154 H   0  0  0  0  0  0  0  0  0  0  0  0
   -1.4356   18.6463  -31.2992 H   0  0  0  0  0  0  0  0  0  0  0  0
   -3.0598   18.5382  -33.8263 H   0  0  0  0  0  0  0  0  0  0  0  0
   -3.4407   17.9715  -32.1493 H   0  0  0  0  0  0  0  0  0  0  0  0
   -4.7360   22.3940  -32.0954 H   0  0  0  0  0  0  0  0  0  0  0  0
   -5.3093   23.7522  -28.0838 H   0  0  0  0  0  0  0  0  0  0  0  0
   -4.2649   21.9054  -26.7732 H   0  0  0  0  0  0  0  0  0  0  0  0
   -0.3842   18.3005  -26.3885 H   0  0  0  0  0  0  0  0  0  0  0  0
   -1.0658   17.1979  -27.6004 H   0  0  0  0  0  0  0  0  0  0  0  0
    1.6023   17.2998  -27.1457 H   0  0  0  0  0  0  0  0  0  0  0  0
    1.0135   17.0351  -28.7795 H   0  0  0  0  0  0  0  0  0  0  0  0
    2.1148   19.5475  -27.4978 H   0  0  0  0  0  0  0  0  0  0  0  0
    2.2538   19.0356  -29.1816 H   0  0  0  0  0  0  0  0  0  0  0  0
    0.3928   20.9191  -28.1447 H   0  0  0  0  0  0  0  0  0  0  0  0
    0.2888   20.1526  -29.7522 H   0  0  0  0  0  0  0  0  0  0  0  0
   -1.4991   21.1616  -30.0211 H   0  0  0  0  0  0  0  0  0  0  0  0
   -2.6126   22.9332  -31.3732 H   0  0  0  0  0  0  0  0  0  0  0  0
  1  2  2  0
  2  3  1  0
  3  4  1  0
  4  5  2  0
  5  6  1  0
  6  7  2  0
  7  8  1  0
  8  9  1  0
  9 10  2  0
  9 11  2  0
  9 12  1  0
 12 13  1  0
 13 14  1  0
 14 15  1  0
 15 16  1  0
 16 17  1  0
  8 18  2  0
  2 19  1  0
 19 20  2  0
 20 21  1  0
 21 22  2  0
 22 23  1  0
 23 24  2  0
 23 25  2  0
 23 26  1  0
 26 27  1  0
 27 28  1  0
 28 29  1  0
 29 30  1  0
 22 31  1  0
 31 32  2  0
 18  4  1  0
 32 19  1  0
 17 12  1  0
 30 26  1  0
  5 33  1  0
  6 34  1  0
  7 35  1  0
 12 36  1  0
 13 37  1  0
 13 38  1  0
 14 39  1  0
 14 40  1  0
 15 41  1  0
 15 42  1  0
 16 43  1  0
 16 44  1  0
 17 45  1  0
 17 46  1  0
 18 47  1  0
 20 48  1  0
 21 49  1  0
 27 50  1  0
 27 51  1  0
 28 52  1  0
 28 53  1  0
 29 54  1  0
 29 55  1  0
 30 56  1  0
 30 57  1  0
 31 58  1  0
 32 59  1  0
M  CHG  2   3  -1  12   1
M  END
>  <UniqueID>  (50) 
49

>  <SMILES>  (50) 
O=C([N-]c1cccc(S(=O)(=O)[NH+]2CCCCC2)c1)c1ccc(S(=O)(=O)N2CCCC2)cc1

>  <Energy>  (50) 
72.33983253800126

>  <Genealogy>  (50) 
O=C([N-]c1cccc(S(=O)(=O)[NH+]2CCCCC2)c1)c1ccc(S(=O)(=O)N2CCCC2)cc1 (protonated)
O=C([N-]c1cccc(S(=O)(=O)[NH+]2CCCCC2)c1)c1ccc(S(=O)(=O)N2CCCC2)cc1 (3D coordinates assigned)
O=C([N-]c1cccc(S(=O)(=O)[NH+]2CCCCC2)c1)c1ccc(S(=O)(=O)N2CCCC2)cc1 (nonaromatic ring conformer: 72.33983253800126 kcal/mol)

>  <smiles>  (50) 
O=C(Nc1cccc(S(=O)(=O)N2CCCCC2)c1)c1ccc(S(=O)(=O)N2CCCC2)cc1

>  <score_type>  (50) 
oracle

>  <origin>  (50) 
adgpu

>  <m_score__min__energy>  (50) 
-13.09

>  <m_primary>  (50) 
energy

$$$$
