0:0
     RDKit          3D

 30 31  0  0  0  0  0  0  0  0999 V2000
   -2.7360   20.2410  -27.4510 C   0  0  0  0  0  0  0  0  0  0  0  0
   -2.1270   21.5180  -27.9520 C   0  0  0  0  0  0  0  0  0  0  0  0
   -0.7390   21.6220  -28.1170 C   0  0  0  0  0  0  0  0  0  0  0  0
   -0.1750   22.8060  -28.5970 C   0  0  0  0  0  0  0  0  0  0  0  0
   -0.9940   23.8840  -28.9390 C   0  0  0  0  0  0  0  0  0  0  0  0
   -2.3850   23.7820  -28.8240 C   0  0  0  0  0  0  0  0  0  0  0  0
   -3.1890   24.9190  -29.1770 N   0  0  0  0  0  0  0  0  0  0  0  0
   -4.3490   24.9150  -30.0190 C   0  0  0  0  0  0  0  0  0  0  0  0
   -4.2720   25.2970  -31.2180 O   0  0  0  0  0  0  0  0  0  0  0  0
   -5.6100   24.5180  -29.4680 N   0  0  0  0  0  0  0  0  0  0  0  0
   -6.8460   24.5280  -30.2460 C   0  0  0  0  0  0  0  0  0  0  0  0
   -7.0050   23.2360  -30.9840 C   0  0  0  0  0  0  0  0  0  0  0  0
   -6.0800   22.6890  -31.8670 C   0  0  0  0  0  0  0  0  0  0  0  0
   -6.4790   21.4520  -32.3860 C   0  0  0  0  0  0  0  0  0  0  0  0
   -7.7120   21.0330  -31.9040 C   0  0  0  0  0  0  0  0  0  0  0  0
   -8.5190   19.5380  -32.3280 Cl  0  0  0  0  0  0  0  0  0  0  0  0
   -8.3110   22.1850  -30.8370 S   0  0  0  0  0  0  0  0  0  0  0  0
   -2.9500   22.5980  -28.3140 C   0  0  0  0  0  0  0  0  0  0  0  0
   -2.7358   20.2415  -26.3510 H   0  0  0  0  0  0  0  0  0  0  0  0
   -3.7700   20.1594  -27.8174 H   0  0  0  0  0  0  0  0  0  0  0  0
   -2.1486   19.3862  -27.8174 H   0  0  0  0  0  0  0  0  0  0  0  0
   -0.0918   20.7682  -27.8676 H   0  0  0  0  0  0  0  0  0  0  0  0
    0.9164   22.8895  -28.7059 H   0  0  0  0  0  0  0  0  0  0  0  0
   -0.5429   24.8196  -29.3012 H   0  0  0  0  0  0  0  0  0  0  0  0
   -5.6450   24.1940  -28.4760 H   0  0  0  0  0  0  0  0  0  0  0  0
   -7.7008   24.6661  -29.5676 H   0  0  0  0  0  0  0  0  0  0  0  0
   -6.8049   25.3527  -30.9727 H   0  0  0  0  0  0  0  0  0  0  0  0
   -5.1311   23.1789  -32.1307 H   0  0  0  0  0  0  0  0  0  0  0  0
   -5.8781   20.8717  -33.1017 H   0  0  0  0  0  0  0  0  0  0  0  0
   -4.0409   22.5177  -28.1982 H   0  0  0  0  0  0  0  0  0  0  0  0
  1  2  1  0
  2  3  2  0
  3  4  1  0
  4  5  2  0
  5  6  1  0
  6  7  1  0
  7  8  1  0
  8  9  2  0
  8 10  1  0
 10 11  1  0
 11 12  1  0
 12 13  2  0
 13 14  1  0
 14 15  2  0
 15 16  1  0
 15 17  1  0
  6 18  2  0
 18  2  1  0
 17 12  1  0
  1 19  1  0
  1 20  1  0
  1 21  1  0
  3 22  1  0
  4 23  1  0
  5 24  1  0
 10 25  1  0
 11 26  1  0
 11 27  1  0
 13 28  1  0
 14 29  1  0
 18 30  1  0
M  CHG  1   7  -1
M  END
>  <UniqueID>  (1) 
1

>  <SMILES>  (1) 
Cc1cccc([N-]C(=O)NCc2ccc(Cl)s2)c1

>  <Energy>  (1) 
55.69375868757042

>  <Genealogy>  (1) 
Cc1cccc([N-]C(=O)NCc2ccc(Cl)s2)c1 (protonated)
Cc1cccc([N-]C(=O)NCc2ccc(Cl)s2)c1 (3D coordinates assigned)
Cc1cccc([N-]C(=O)NCc2ccc(Cl)s2)c1 (optimized conformer: 55.69375868757042 kcal/mol)

>  <smiles>  (1) 
Cc1cccc(NC(=O)NCc2ccc(Cl)s2)c1

>  <score_type>  (1) 
oracle

>  <origin>  (1) 
adgpu

>  <m_score__min__energy>  (1) 
-8.5999999999999996

>  <m_primary>  (1) 
energy

$$$$
1:0
     RDKit          3D

 36 38  0  0  0  0  0  0  0  0999 V2000
   -5.4260   24.8710  -31.5100 O   0  0  0  0  0  0  0  0  0  0  0  0
   -5.7290   24.2980  -30.1550 S   0  0  0  0  0  0  0  0  0  0  0  0
   -6.4100   25.3460  -29.3200 O   0  0  0  0  0  0  0  0  0  0  0  0
   -6.7830   22.9320  -30.3380 N   0  0  0  0  0  0  0  0  0  0  0  0
   -6.5640   21.9120  -31.3290 C   0  0  0  0  0  0  0  0  0  0  0  0
   -5.2590   21.5290  -31.6820 C   0  0  0  0  0  0  0  0  0  0  0  0
   -5.0270   20.5110  -32.6140 C   0  0  0  0  0  0  0  0  0  0  0  0
   -6.1260   19.8790  -33.2390 C   0  0  0  0  0  0  0  0  0  0  0  0
   -7.4240   20.2890  -32.9180 C   0  0  0  0  0  0  0  0  0  0  0  0
   -7.6510   21.2880  -31.9680 C   0  0  0  0  0  0  0  0  0  0  0  0
   -9.4690   21.7310  -31.5450 Br  0  0  0  0  0  0  0  0  0  0  0  0
   -5.9840   18.8980  -34.2260 O   0  0  0  0  0  0  0  0  0  0  0  0
   -5.1120   17.7780  -34.1320 C   0  0  0  0  0  0  0  0  0  0  0  0
   -3.6540   18.1930  -34.2770 C   0  0  0  0  0  0  0  0  0  0  0  0
   -3.1610   18.9040  -33.0250 C   0  0  0  0  0  0  0  0  0  0  0  0
   -3.6950   20.2180  -32.9270 O   0  0  0  0  0  0  0  0  0  0  0  0
   -4.2480   23.8020  -29.3400 C   0  0  0  0  0  0  0  0  0  0  0  0
   -3.1490   23.3330  -30.0730 C   0  0  0  0  0  0  0  0  0  0  0  0
   -1.9940   22.9060  -29.4110 C   0  0  0  0  0  0  0  0  0  0  0  0
   -1.9310   22.9460  -28.0140 C   0  0  0  0  0  0  0  0  0  0  0  0
   -0.4840   22.4030  -27.1840 Cl  0  0  0  0  0  0  0  0  0  0  0  0
   -3.0240   23.4180  -27.2790 C   0  0  0  0  0  0  0  0  0  0  0  0
   -4.1790   23.8460  -27.9400 C   0  0  0  0  0  0  0  0  0  0  0  0
   -7.5220   22.8070  -29.6130 H   0  0  0  0  0  0  0  0  0  0  0  0
   -4.4028   22.0393  -31.2167 H   0  0  0  0  0  0  0  0  0  0  0  0
   -8.2804   19.8171  -33.4218 H   0  0  0  0  0  0  0  0  0  0  0  0
   -5.2513   17.2976  -33.1523 H   0  0  0  0  0  0  0  0  0  0  0  0
   -5.3556   17.0812  -34.9476 H   0  0  0  0  0  0  0  0  0  0  0  0
   -3.0401   17.2961  -34.4464 H   0  0  0  0  0  0  0  0  0  0  0  0
   -3.5700   18.8846  -35.1282 H   0  0  0  0  0  0  0  0  0  0  0  0
   -3.4692   18.3262  -32.1412 H   0  0  0  0  0  0  0  0  0  0  0  0
   -2.0651   18.9803  -33.0807 H   0  0  0  0  0  0  0  0  0  0  0  0
   -3.1955   23.3009  -31.1715 H   0  0  0  0  0  0  0  0  0  0  0  0
   -1.1337   22.5381  -29.9893 H   0  0  0  0  0  0  0  0  0  0  0  0
   -2.9744   23.4523  -26.1807 H   0  0  0  0  0  0  0  0  0  0  0  0
   -5.0364   24.2185  -27.3602 H   0  0  0  0  0  0  0  0  0  0  0  0
  1  2  2  0
  2  3  2  0
  2  4  1  0
  4  5  1  0
  5  6  2  0
  6  7  1  0
  7  8  2  0
  8  9  1  0
  9 10  2  0
 10 11  1  0
  8 12  1  0
 12 13  1  0
 13 14  1  0
 14 15  1  0
 15 16  1  0
  2 17  1  0
 17 18  2  0
 18 19  1  0
 19 20  2  0
 20 21  1  0
 20 22  1  0
 22 23  2  0
 10  5  1  0
 23 17  1  0
 16  7  1  0
  4 24  1  0
  6 25  1  0
  9 26  1  0
 13 27  1  0
 13 28  1  0
 14 29  1  0
 14 30  1  0
 15 31  1  0
 15 32  1  0
 18 33  1  0
 19 34  1  0
 22 35  1  0
 23 36  1  0
M  END
>  <UniqueID>  (2) 
2

>  <SMILES>  (2) 
O=S(=O)(Nc1cc2c(cc1Br)OCCCO2)c1ccc(Cl)cc1

>  <Energy>  (2) 
49.502702466640926

>  <Genealogy>  (2) 
O=S(=O)(Nc1cc2c(cc1Br)OCCCO2)c1ccc(Cl)cc1 (3D coordinates assigned)
O=S(=O)(Nc1cc2c(cc1Br)OCCCO2)c1ccc(Cl)cc1 (nonaromatic ring conformer: 49.502702466640926 kcal/mol)

>  <smiles>  (2) 
O=S(=O)(Nc1cc2c(cc1Br)OCCCO2)c1ccc(Cl)cc1

>  <score_type>  (2) 
oracle

>  <origin>  (2) 
adgpu

>  <m_score__min__energy>  (2) 
-6.5599999999999996

>  <m_primary>  (2) 
energy

$$$$
2:0
     RDKit          3D

 51 54  0  0  0  0  0  0  0  0999 V2000
   -6.1430   13.5590  -34.9090 O   0  0  0  0  0  0  0  0  0  0  0  0
   -5.9600   14.8400  -34.4020 C   0  0  0  0  0  0  0  0  0  0  0  0
   -4.6750   15.2980  -34.1090 C   0  0  0  0  0  0  0  0  0  0  0  0
   -4.4870   16.5880  -33.5990 C   0  0  0  0  0  0  0  0  0  0  0  0
   -5.5890   17.4370  -33.3770 C   0  0  0  0  0  0  0  0  0  0  0  0
   -5.4040   18.8080  -32.8340 C   0  0  0  0  0  0  0  0  0  0  0  0
   -6.3170   19.8610  -32.8830 C   0  0  0  0  0  0  0  0  0  0  0  0
   -5.8590   21.0390  -32.2780 C   0  0  0  0  0  0  0  0  0  0  0  0
   -4.5740   20.9350  -31.7420 C   0  0  0  0  0  0  0  0  0  0  0  0
   -3.8120   21.9980  -31.0370 C   0  0  0  0  0  0  0  0  0  0  0  0
   -2.6870   21.6860  -30.2510 C   0  0  0  0  0  0  0  0  0  0  0  0
   -1.9760   22.6930  -29.5920 C   0  0  0  0  0  0  0  0  0  0  0  0
   -2.3770   24.0370  -29.7030 C   0  0  0  0  0  0  0  0  0  0  0  0
   -1.6910   25.0790  -29.0620 O   0  0  0  0  0  0  0  0  0  0  0  0
   -1.0010   24.9550  -27.8220 C   0  0  0  0  0  0  0  0  0  0  0  0
    0.2260   24.0380  -27.9680 C   0  0  0  0  0  0  0  0  0  0  0  0
    0.1010   22.7300  -27.2880 N   0  0  0  0  0  0  0  0  0  0  0  0
   -1.2070   22.5090  -26.6380 C   0  0  0  0  0  0  0  0  0  0  0  0
   -1.1980   21.1810  -25.8770 C   0  0  0  0  0  0  0  0  0  0  0  0
   -0.8850   19.9860  -26.8020 C   0  0  0  0  0  0  0  0  0  0  0  0
   -0.3480   20.4100  -28.1790 C   0  0  0  0  0  0  0  0  0  0  0  0
    0.6420   21.5780  -28.0570 C   0  0  0  0  0  0  0  0  0  0  0  0
   -3.4990   24.3510  -30.4780 C   0  0  0  0  0  0  0  0  0  0  0  0
   -3.9130   25.6730  -30.5970 O   0  0  0  0  0  0  0  0  0  0  0  0
   -4.2100   23.3440  -31.1380 C   0  0  0  0  0  0  0  0  0  0  0  0
   -4.0320   19.3660  -32.0280 S   0  0  0  0  0  0  0  0  0  0  0  0
   -6.8800   16.9590  -33.6730 C   0  0  0  0  0  0  0  0  0  0  0  0
   -7.0620   15.6700  -34.1840 C   0  0  0  0  0  0  0  0  0  0  0  0
   -3.8074   14.6436  -34.2792 H   0  0  0  0  0  0  0  0  0  0  0  0
   -3.4709   16.9415  -33.3698 H   0  0  0  0  0  0  0  0  0  0  0  0
   -7.3073   19.7746  -33.3541 H   0  0  0  0  0  0  0  0  0  0  0  0
   -6.4570   21.9610  -32.2298 H   0  0  0  0  0  0  0  0  0  0  0  0
   -2.3639   20.6390  -30.1543 H   0  0  0  0  0  0  0  0  0  0  0  0
   -1.0977   22.4331  -28.9829 H   0  0  0  0  0  0  0  0  0  0  0  0
   -0.6697   25.9509  -27.4927 H   0  0  0  0  0  0  0  0  0  0  0  0
   -1.6842   24.5140  -27.0812 H   0  0  0  0  0  0  0  0  0  0  0  0
    0.3908   23.8533  -29.0398 H   0  0  0  0  0  0  0  0  0  0  0  0
    1.0655   24.5610  -27.4866 H   0  0  0  0  0  0  0  0  0  0  0  0
   -1.4070   23.3304  -25.9342 H   0  0  0  0  0  0  0  0  0  0  0  0
   -1.9914   22.4773  -27.4086 H   0  0  0  0  0  0  0  0  0  0  0  0
   -0.4330   21.2291  -25.0880 H   0  0  0  0  0  0  0  0  0  0  0  0
   -2.2004   21.0271  -25.4509 H   0  0  0  0  0  0  0  0  0  0  0  0
   -0.1303   19.3531  -26.3122 H   0  0  0  0  0  0  0  0  0  0  0  0
   -1.8292   19.4476  -26.9711 H   0  0  0  0  0  0  0  0  0  0  0  0
    0.1635   19.5539  -28.6432 H   0  0  0  0  0  0  0  0  0  0  0  0
   -1.1971   20.7379  -28.7966 H   0  0  0  0  0  0  0  0  0  0  0  0
    1.5489   21.2155  -27.5510 H   0  0  0  0  0  0  0  0  0  0  0  0
    0.8507   21.9358  -29.0760 H   0  0  0  0  0  0  0  0  0  0  0  0
   -5.0903   23.6069  -31.7429 H   0  0  0  0  0  0  0  0  0  0  0  0
   -7.7533   17.6053  -33.5007 H   0  0  0  0  0  0  0  0  0  0  0  0
   -8.0752   15.3090  -34.4147 H   0  0  0  0  0  0  0  0  0  0  0  0
  1  2  1  0
  2  3  2  0
  3  4  1  0
  4  5  2  0
  5  6  1  0
  6  7  2  0
  7  8  1  0
  8  9  2  0
  9 10  1  0
 10 11  2  0
 11 12  1  0
 12 13  2  0
 13 14  1  0
 14 15  1  0
 15 16  1  0
 16 17  1  0
 17 18  1  0
 18 19  1  0
 19 20  1  0
 20 21  1  0
 21 22  1  0
 13 23  1  0
 23 24  1  0
 23 25  2  0
  9 26  1  0
  5 27  1  0
 27 28  2  0
 28  2  1  0
 26  6  1  0
 25 10  1  0
 22 17  1  0
  3 29  1  0
  4 30  1  0
  7 31  1  0
  8 32  1  0
 11 33  1  0
 12 34  1  0
 15 35  1  0
 15 36  1  0
 16 37  1  0
 16 38  1  0
 18 39  1  0
 18 40  1  0
 19 41  1  0
 19 42  1  0
 20 43  1  0
 20 44  1  0
 21 45  1  0
 21 46  1  0
 22 47  1  0
 22 48  1  0
 25 49  1  0
 27 50  1  0
 28 51  1  0
M  CHG  2   1  -1  24  -1
M  END
>  <UniqueID>  (3) 
3

>  <SMILES>  (3) 
[O-]c1ccc(-c2ccc(-c3ccc(OCCN4CCCCC4)c([O-])c3)s2)cc1

>  <Energy>  (3) 
93.61321238902765

>  <Genealogy>  (3) 
[O-]c1ccc(-c2ccc(-c3ccc(OCCN4CCCCC4)c([O-])c3)s2)cc1 (protonated)
[O-]c1ccc(-c2ccc(-c3ccc(OCCN4CCCCC4)c([O-])c3)s2)cc1 (3D coordinates assigned)
[O-]c1ccc(-c2ccc(-c3ccc(OCCN4CCCCC4)c([O-])c3)s2)cc1 (nonaromatic ring conformer: 93.61321238902765 kcal/mol)

>  <smiles>  (3) 
Oc1ccc(-c2ccc(-c3ccc(OCCN4CCCCC4)c(O)c3)s2)cc1

>  <score_type>  (3) 
oracle

>  <origin>  (3) 
adgpu

>  <m_score__min__energy>  (3) 
-12.01

>  <m_primary>  (3) 
energy

$$$$
3:0
     RDKit          3D

 66 70  0  0  0  0  0  0  0  0999 V2000
   -5.8390   25.9850  -30.6400 O   0  0  0  0  0  0  0  0  0  0  0  0
   -4.9930   25.0670  -30.7940 C   0  0  0  0  0  0  0  0  0  0  0  0
   -3.6310   25.2970  -30.4020 N   0  0  0  0  0  0  0  0  0  0  0  0
   -2.9760   24.5550  -29.3640 C   0  0  0  0  0  0  0  0  0  0  0  0
   -1.6680   24.8810  -28.9640 C   0  0  0  0  0  0  0  0  0  0  0  0
   -0.9600   24.0280  -28.1170 C   0  0  0  0  0  0  0  0  0  0  0  0
   -1.5550   22.8510  -27.6500 C   0  0  0  0  0  0  0  0  0  0  0  0
   -0.5630   21.6710  -26.8020 S   0  0  0  0  0  0  0  0  0  0  0  0
   -1.2850   21.1340  -25.5970 O   0  0  0  0  0  0  0  0  0  0  0  0
    0.7080   22.3370  -26.3530 O   0  0  0  0  0  0  0  0  0  0  0  0
   -0.2130   20.3470  -27.9130 C   0  0  0  0  0  0  0  0  0  0  0  0
    0.0260   20.6190  -29.2690 C   0  0  0  0  0  0  0  0  0  0  0  0
    0.3150   19.5770  -30.1550 C   0  0  0  0  0  0  0  0  0  0  0  0
    0.3600   18.2580  -29.6950 C   0  0  0  0  0  0  0  0  0  0  0  0
    0.6810   16.9500  -30.8180 Cl  0  0  0  0  0  0  0  0  0  0  0  0
    0.1280   17.9820  -28.3430 C   0  0  0  0  0  0  0  0  0  0  0  0
   -0.1530   19.0230  -27.4510 C   0  0  0  0  0  0  0  0  0  0  0  0
   -2.8910   22.5690  -27.9760 C   0  0  0  0  0  0  0  0  0  0  0  0
   -3.6020   23.4280  -28.8200 C   0  0  0  0  0  0  0  0  0  0  0  0
   -5.4160   23.7670  -31.3610 C   0  0  0  0  0  0  0  0  0  0  0  0
   -4.4780   22.9220  -31.9690 C   0  0  0  0  0  0  0  0  0  0  0  0
   -4.8430   21.6290  -32.3590 C   0  0  0  0  0  0  0  0  0  0  0  0
   -6.1570   21.1660  -32.1610 C   0  0  0  0  0  0  0  0  0  0  0  0
   -6.5260   19.7700  -32.5010 C   0  0  0  0  0  0  0  0  0  0  0  0
   -7.6720   19.1750  -31.9450 C   0  0  0  0  0  0  0  0  0  0  0  0
   -8.0140   17.8610  -32.2710 C   0  0  0  0  0  0  0  0  0  0  0  0
   -7.2150   17.1230  -33.1460 C   0  0  0  0  0  0  0  0  0  0  0  0
   -6.0550   17.6890  -33.6940 C   0  0  0  0  0  0  0  0  0  0  0  0
   -5.1920   16.8960  -34.6570 C   0  0  0  0  0  0  0  0  0  0  0  0
   -3.7360   17.1720  -34.5530 N   0  0  0  0  0  0  0  0  0  0  0  0
   -2.9250   16.2460  -35.3740 C   0  0  0  0  0  0  0  0  0  0  0  0
   -1.4110   16.5160  -35.2170 C   0  0  0  0  0  0  0  0  0  0  0  0
   -1.1610   17.7240  -34.4200 N   0  0  0  0  0  0  0  0  0  0  0  0
   -1.7590   17.5970  -33.0830 C   0  0  0  0  0  0  0  0  0  0  0  0
   -3.2500   17.1920  -33.1550 C   0  0  0  0  0  0  0  0  0  0  0  0
   -5.7220   19.0170  -33.3750 C   0  0  0  0  0  0  0  0  0  0  0  0
   -7.1090   22.0390  -31.6090 C   0  0  0  0  0  0  0  0  0  0  0  0
   -6.7420   23.3280  -31.2150 C   0  0  0  0  0  0  0  0  0  0  0  0
   -1.2016   25.8114  -29.3200 H   0  0  0  0  0  0  0  0  0  0  0  0
    0.0673   24.2811  -27.8160 H   0  0  0  0  0  0  0  0  0  0  0  0
   -0.0142   21.6553  -29.6357 H   0  0  0  0  0  0  0  0  0  0  0  0
    0.5073   19.7955  -31.2158 H   0  0  0  0  0  0  0  0  0  0  0  0
    0.1666   16.9442  -27.9804 H   0  0  0  0  0  0  0  0  0  0  0  0
   -0.3269   18.8035  -26.3872 H   0  0  0  0  0  0  0  0  0  0  0  0
   -3.3789   21.6718  -27.5673 H   0  0  0  0  0  0  0  0  0  0  0  0
   -4.6554   23.2173  -29.0567 H   0  0  0  0  0  0  0  0  0  0  0  0
   -3.4509   23.2766  -32.1403 H   0  0  0  0  0  0  0  0  0  0  0  0
   -4.0965   20.9686  -32.8244 H   0  0  0  0  0  0  0  0  0  0  0  0
   -8.3028   19.7478  -31.2493 H   0  0  0  0  0  0  0  0  0  0  0  0
   -8.9163   17.4058  -31.8367 H   0  0  0  0  0  0  0  0  0  0  0  0
   -7.4968   16.0922  -33.4069 H   0  0  0  0  0  0  0  0  0  0  0  0
   -5.3533   15.8257  -34.4608 H   0  0  0  0  0  0  0  0  0  0  0  0
   -5.4954   17.1992  -35.6699 H   0  0  0  0  0  0  0  0  0  0  0  0
   -3.6070   18.1370  -34.9450 H   0  0  0  0  0  0  0  0  0  0  0  0
   -3.1370   15.2132  -35.0603 H   0  0  0  0  0  0  0  0  0  0  0  0
   -3.1925   16.4012  -36.4296 H   0  0  0  0  0  0  0  0  0  0  0  0
   -0.9440   15.6546  -34.7171 H   0  0  0  0  0  0  0  0  0  0  0  0
   -0.9811   16.6672  -36.2182 H   0  0  0  0  0  0  0  0  0  0  0  0
   -0.1260   17.8280  -34.3050 H   0  0  0  0  0  0  0  0  0  0  0  0
   -1.2088   16.8297  -32.5186 H   0  0  0  0  0  0  0  0  0  0  0  0
   -1.6950   18.5763  -32.5862 H   0  0  0  0  0  0  0  0  0  0  0  0
   -3.3701   16.1889  -32.7197 H   0  0  0  0  0  0  0  0  0  0  0  0
   -3.8381   17.9332  -32.5940 H   0  0  0  0  0  0  0  0  0  0  0  0
   -4.8221   19.4723  -33.8142 H   0  0  0  0  0  0  0  0  0  0  0  0
   -8.1500   21.7055  -31.4862 H   0  0  0  0  0  0  0  0  0  0  0  0
   -7.4970   24.0040  -30.7873 H   0  0  0  0  0  0  0  0  0  0  0  0
  1  2  2  0
  2  3  1  0
  3  4  1  0
  4  5  2  0
  5  6  1  0
  6  7  2  0
  7  8  1  0
  8  9  2  0
  8 10  2  0
  8 11  1  0
 11 12  2  0
 12 13  1  0
 13 14  2  0
 14 15  1  0
 14 16  1  0
 16 17  2  0
  7 18  1  0
 18 19  2  0
  2 20  1  0
 20 21  2  0
 21 22  1  0
 22 23  2  0
 23 24  1  0
 24 25  2  0
 25 26  1  0
 26 27  2  0
 27 28  1  0
 28 29  1  0
 29 30  1  0
 30 31  1  0
 31 32  1  0
 32 33  1  0
 33 34  1  0
 34 35  1  0
 28 36  2  0
 23 37  1  0
 37 38  2  0
 19  4  1  0
 38 20  1  0
 17 11  1  0
 36 24  1  0
 35 30  1  0
  5 39  1  0
  6 40  1  0
 12 41  1  0
 13 42  1  0
 16 43  1  0
 17 44  1  0
 18 45  1  0
 19 46  1  0
 21 47  1  0
 22 48  1  0
 25 49  1  0
 26 50  1  0
 27 51  1  0
 29 52  1  0
 29 53  1  0
 30 54  1  0
 31 55  1  0
 31 56  1  0
 32 57  1  0
 32 58  1  0
 33 59  1  0
 34 60  1  0
 34 61  1  0
 35 62  1  0
 35 63  1  0
 36 64  1  0
 37 65  1  0
 38 66  1  0
M  CHG  2   3  -1  30   1
M  END
>  <UniqueID>  (4) 
4

>  <SMILES>  (4) 
O=C([N-]c1ccc(S(=O)(=O)c2ccc(Cl)cc2)cc1)c1ccc(-c2cccc(C[NH+]3CCNCC3)c2)cc1

>  <Energy>  (4) 
91.4107934789213

>  <Genealogy>  (4) 
O=C([N-]c1ccc(S(=O)(=O)c2ccc(Cl)cc2)cc1)c1ccc(-c2cccc(C[NH+]3CCNCC3)c2)cc1 (protonated)
O=C([N-]c1ccc(S(=O)(=O)c2ccc(Cl)cc2)cc1)c1ccc(-c2cccc(C[NH+]3CCNCC3)c2)cc1 (3D coordinates assigned)
O=C([N-]c1ccc(S(=O)(=O)c2ccc(Cl)cc2)cc1)c1ccc(-c2cccc(C[NH+]3CCNCC3)c2)cc1 (nonaromatic ring conformer: 91.4107934789213 kcal/mol)

>  <smiles>  (4) 
O=C(Nc1ccc(S(=O)(=O)c2ccc(Cl)cc2)cc1)c1ccc(-c2cccc(CN3CCNCC3)c2)cc1

>  <score_type>  (4) 
oracle

>  <origin>  (4) 
adgpu

>  <m_score__min__energy>  (4) 
-12.4

>  <m_primary>  (4) 
energy

$$$$
4:0
     RDKit          3D

 28 29  0  0  0  0  0  0  0  0999 V2000
   -5.3070   24.9260  -28.6960 N   0  0  0  0  0  0  0  0  0  0  0  0
   -4.9710   24.1400  -29.8430 C   0  0  0  0  0  0  0  0  0  0  0  0
   -3.6360   23.8170  -30.1070 C   0  0  0  0  0  0  0  0  0  0  0  0
   -3.3080   23.0430  -31.2220 C   0  0  0  0  0  0  0  0  0  0  0  0
   -4.3080   22.5860  -32.0920 C   0  0  0  0  0  0  0  0  0  0  0  0
   -3.9350   21.8220  -33.2470 N   0  0  0  0  0  0  0  0  0  0  0  0
   -5.6580   22.9130  -31.8360 C   0  0  0  0  0  0  0  0  0  0  0  0
   -6.7080   22.4080  -32.6780 N   0  0  0  0  0  0  0  0  0  0  0  0
   -7.2830   21.0950  -32.5440 C   0  0  0  0  0  0  0  0  0  0  0  0
   -6.5780   19.9800  -33.0220 C   0  0  0  0  0  0  0  0  0  0  0  0
   -7.1260   18.6980  -32.9210 C   0  0  0  0  0  0  0  0  0  0  0  0
   -8.3890   18.5190  -32.3500 C   0  0  0  0  0  0  0  0  0  0  0  0
   -9.1080   19.6250  -31.8860 C   0  0  0  0  0  0  0  0  0  0  0  0
   -8.5630   20.9080  -31.9860 C   0  0  0  0  0  0  0  0  0  0  0  0
   -5.9770   23.6830  -30.7030 C   0  0  0  0  0  0  0  0  0  0  0  0
   -6.2510   24.8510  -28.2550 H   0  0  0  0  0  0  0  0  0  0  0  0
   -4.6140   25.5860  -28.2770 H   0  0  0  0  0  0  0  0  0  0  0  0
   -2.8421   24.1737  -29.4343 H   0  0  0  0  0  0  0  0  0  0  0  0
   -2.2560   22.7896  -31.4195 H   0  0  0  0  0  0  0  0  0  0  0  0
   -4.2460   22.0840  -34.2070 H   0  0  0  0  0  0  0  0  0  0  0  0
   -3.2940   21.0020  -33.1550 H   0  0  0  0  0  0  0  0  0  0  0  0
   -7.0320   23.0100  -33.4680 H   0  0  0  0  0  0  0  0  0  0  0  0
   -5.5869   20.1157  -33.4795 H   0  0  0  0  0  0  0  0  0  0  0  0
   -6.5625   17.8290  -33.2914 H   0  0  0  0  0  0  0  0  0  0  0  0
   -8.8170   17.5092  -32.2657 H   0  0  0  0  0  0  0  0  0  0  0  0
  -10.1044   19.4849  -31.4415 H   0  0  0  0  0  0  0  0  0  0  0  0
   -9.1361   21.7758  -31.6274 H   0  0  0  0  0  0  0  0  0  0  0  0
   -7.0279   23.9288  -30.4903 H   0  0  0  0  0  0  0  0  0  0  0  0
  1  2  1  0
  2  3  2  0
  3  4  1  0
  4  5  2  0
  5  6  1  0
  5  7  1  0
  7  8  1  0
  8  9  1  0
  9 10  2  0
 10 11  1  0
 11 12  2  0
 12 13  1  0
 13 14  2  0
  7 15  2  0
 15  2  1  0
 14  9  1  0
  1 16  1  0
  1 17  1  0
  3 18  1  0
  4 19  1  0
  6 20  1  0
  6 21  1  0
  8 22  1  0
 10 23  1  0
 11 24  1  0
 12 25  1  0
 13 26  1  0
 14 27  1  0
 15 28  1  0
M  END
>  <UniqueID>  (5) 
5

>  <SMILES>  (5) 
Nc1ccc(N)c(Nc2ccccc2)c1

>  <Energy>  (5) 
33.68007511555248

>  <Genealogy>  (5) 
Nc1ccc(N)c(Nc2ccccc2)c1 (3D coordinates assigned)
Nc1ccc(N)c(Nc2ccccc2)c1 (optimized conformer: 33.68007511555248 kcal/mol)

>  <smiles>  (5) 
Nc1ccc(N)c(Nc2ccccc2)c1

>  <score_type>  (5) 
oracle

>  <origin>  (5) 
adgpu

>  <m_score__min__energy>  (5) 
-6.5199999999999996

>  <m_primary>  (5) 
energy

$$$$
5:0
     RDKit          3D

 32 33  0  0  0  0  0  0  0  0999 V2000
   -1.1460   22.7040  -29.3860 C   0  0  0  0  0  0  0  0  0  0  0  0
   -2.4130   22.9060  -30.1640 C   0  0  0  0  0  0  0  0  0  0  0  0
   -2.6680   22.1410  -31.3070 C   0  0  0  0  0  0  0  0  0  0  0  0
   -3.8640   22.3000  -32.0090 C   0  0  0  0  0  0  0  0  0  0  0  0
   -4.8320   23.2240  -31.5780 C   0  0  0  0  0  0  0  0  0  0  0  0
   -6.0720   23.3490  -32.2940 N   0  0  0  0  0  0  0  0  0  0  0  0
   -7.5730   22.7540  -31.6590 S   0  0  0  0  0  0  0  0  0  0  0  0
   -8.7140   23.4560  -32.3380 O   0  0  0  0  0  0  0  0  0  0  0  0
   -7.6300   23.0350  -30.1840 O   0  0  0  0  0  0  0  0  0  0  0  0
   -7.7060   21.0270  -31.9740 C   0  0  0  0  0  0  0  0  0  0  0  0
   -8.7390   20.2920  -31.3780 C   0  0  0  0  0  0  0  0  0  0  0  0
   -8.8710   18.9250  -31.6380 C   0  0  0  0  0  0  0  0  0  0  0  0
   -7.9720   18.2860  -32.4960 C   0  0  0  0  0  0  0  0  0  0  0  0
   -6.9380   19.0140  -33.0950 C   0  0  0  0  0  0  0  0  0  0  0  0
   -5.8120   18.2120  -34.1730 Cl  0  0  0  0  0  0  0  0  0  0  0  0
   -6.8040   20.3830  -32.8340 C   0  0  0  0  0  0  0  0  0  0  0  0
   -4.5810   23.9940  -30.4190 C   0  0  0  0  0  0  0  0  0  0  0  0
   -5.5110   24.9870  -29.9640 N   0  0  0  0  0  0  0  0  0  0  0  0
   -3.3790   23.8170  -29.7150 C   0  0  0  0  0  0  0  0  0  0  0  0
   -1.3674   22.7393  -28.3091 H   0  0  0  0  0  0  0  0  0  0  0  0
   -0.7123   21.7254  -29.6393 H   0  0  0  0  0  0  0  0  0  0  0  0
   -0.4295   23.4992  -29.6393 H   0  0  0  0  0  0  0  0  0  0  0  0
   -1.9224   21.4106  -31.6543 H   0  0  0  0  0  0  0  0  0  0  0  0
   -4.0511   21.6959  -32.9090 H   0  0  0  0  0  0  0  0  0  0  0  0
   -6.0830   23.7520  -33.2560 H   0  0  0  0  0  0  0  0  0  0  0  0
   -9.4488   20.7925  -30.7030 H   0  0  0  0  0  0  0  0  0  0  0  0
   -9.6831   18.3518  -31.1669 H   0  0  0  0  0  0  0  0  0  0  0  0
   -8.0772   17.2103  -32.7006 H   0  0  0  0  0  0  0  0  0  0  0  0
   -5.9901   20.9545  -33.3041 H   0  0  0  0  0  0  0  0  0  0  0  0
   -6.5270   24.9040  -30.1900 H   0  0  0  0  0  0  0  0  0  0  0  0
   -5.2250   25.7660  -29.3310 H   0  0  0  0  0  0  0  0  0  0  0  0
   -3.1934   24.3999  -28.8008 H   0  0  0  0  0  0  0  0  0  0  0  0
  1  2  1  0
  2  3  2  0
  3  4  1  0
  4  5  2  0
  5  6  1  0
  6  7  1  0
  7  8  2  0
  7  9  2  0
  7 10  1  0
 10 11  2  0
 11 12  1  0
 12 13  2  0
 13 14  1  0
 14 15  1  0
 14 16  2  0
  5 17  1  0
 17 18  1  0
 17 19  2  0
 19  2  1  0
 16 10  1  0
  1 20  1  0
  1 21  1  0
  1 22  1  0
  3 23  1  0
  4 24  1  0
  6 25  1  0
 11 26  1  0
 12 27  1  0
 13 28  1  0
 16 29  1  0
 18 30  1  0
 18 31  1  0
 19 32  1  0
M  END
>  <UniqueID>  (6) 
6

>  <SMILES>  (6) 
Cc1ccc(NS(=O)(=O)c2cccc(Cl)c2)c(N)c1

>  <Energy>  (6) 
36.103632178587944

>  <Genealogy>  (6) 
Cc1ccc(NS(=O)(=O)c2cccc(Cl)c2)c(N)c1 (3D coordinates assigned)
Cc1ccc(NS(=O)(=O)c2cccc(Cl)c2)c(N)c1 (optimized conformer: 36.103632178587944 kcal/mol)

>  <smiles>  (6) 
Cc1ccc(NS(=O)(=O)c2cccc(Cl)c2)c(N)c1

>  <score_type>  (6) 
oracle

>  <origin>  (6) 
adgpu

>  <m_score__min__energy>  (6) 
-8.8599999999999994

>  <m_primary>  (6) 
energy

$$$$
6:0
     RDKit          3D

 63 67  0  0  0  0  0  0  0  0999 V2000
  -10.1440   17.4990  -30.6340 H   0  0  0  0  0  0  0  0  0  0  0  0
   -9.8600   17.6210  -31.6020 O   0  0  0  0  0  0  0  0  0  0  0  0
   -8.7560   18.3960  -31.9510 C   0  0  0  0  0  0  0  0  0  0  0  0
   -8.9070   19.5430  -32.7440 C   0  0  0  0  0  0  0  0  0  0  0  0
   -9.9061   19.8394  -33.0961 H   0  0  0  0  0  0  0  0  0  0  0  0
   -7.7890   20.3110  -33.0880 C   0  0  0  0  0  0  0  0  0  0  0  0
   -7.9125   21.2085  -33.7119 H   0  0  0  0  0  0  0  0  0  0  0  0
   -6.5080   19.9410  -32.6400 C   0  0  0  0  0  0  0  0  0  0  0  0
   -5.3080   20.7900  -32.9760 C   0  0  0  0  0  0  0  0  0  0  0  0
   -5.0579   20.6569  -34.0389 H   0  0  0  0  0  0  0  0  0  0  0  0
   -4.4648   20.4764  -32.3430 H   0  0  0  0  0  0  0  0  0  0  0  0
   -5.5870   22.2070  -32.7210 N   0  0  0  0  0  0  0  0  0  0  0  0
   -6.3560   22.6670  -33.2610 H   0  0  0  0  0  0  0  0  0  0  0  0
   -4.8610   23.0140  -31.7680 C   0  0  0  0  0  0  0  0  0  0  0  0
   -5.3150   24.2830  -31.3770 C   0  0  0  0  0  0  0  0  0  0  0  0
   -6.2483   24.6853  -31.7980 H   0  0  0  0  0  0  0  0  0  0  0  0
   -4.5870   25.0350  -30.4570 C   0  0  0  0  0  0  0  0  0  0  0  0
   -4.9677   26.0139  -30.1303 H   0  0  0  0  0  0  0  0  0  0  0  0
   -3.3760   24.5560  -29.9450 C   0  0  0  0  0  0  0  0  0  0  0  0
   -2.7300   25.2910  -29.0040 N   0  0  0  0  0  0  0  0  0  0  0  0
   -1.5730   24.8750  -28.4360 C   0  0  0  0  0  0  0  0  0  0  0  0
   -1.1024   25.4805  -27.6473 H   0  0  0  0  0  0  0  0  0  0  0  0
   -0.9750   23.6840  -28.8450 C   0  0  0  0  0  0  0  0  0  0  0  0
    0.2810   23.3000  -28.2370 C   0  0  0  0  0  0  0  0  0  0  0  0
    1.2880   22.9870  -27.7530 N   0  0  0  0  0  0  0  0  0  0  0  0
   -1.5670   22.9040  -29.8700 C   0  0  0  0  0  0  0  0  0  0  0  0
   -0.8680   21.8840  -30.3050 N   0  0  0  0  0  0  0  0  0  0  0  0
   -1.0360   20.9940  -31.4160 C   0  0  0  0  0  0  0  0  0  0  0  0
   -1.3780   19.6470  -31.2170 C   0  0  0  0  0  0  0  0  0  0  0  0
   -1.4118   19.2348  -30.1977 H   0  0  0  0  0  0  0  0  0  0  0  0
   -1.6760   18.8270  -32.3110 C   0  0  0  0  0  0  0  0  0  0  0  0
   -1.9092   17.7644  -32.1481 H   0  0  0  0  0  0  0  0  0  0  0  0
   -1.6800   19.3470  -33.6120 C   0  0  0  0  0  0  0  0  0  0  0  0
   -2.0330   18.4880  -34.6690 O   0  0  0  0  0  0  0  0  0  0  0  0
   -2.3260   17.0940  -34.5520 C   0  0  0  0  0  0  0  0  0  0  0  0
   -1.8022   16.6852  -33.6754 H   0  0  0  0  0  0  0  0  0  0  0  0
   -1.9905   16.5794  -35.4645 H   0  0  0  0  0  0  0  0  0  0  0  0
   -3.8140   16.8840  -34.3870 C   0  0  0  0  0  0  0  0  0  0  0  0
   -4.6870   17.7670  -35.0440 C   0  0  0  0  0  0  0  0  0  0  0  0
   -4.2773   18.6018  -35.6317 H   0  0  0  0  0  0  0  0  0  0  0  0
   -6.0680   17.5950  -34.9580 C   0  0  0  0  0  0  0  0  0  0  0  0
   -6.7414   18.2925  -35.4776 H   0  0  0  0  0  0  0  0  0  0  0  0
   -6.5970   16.5410  -34.2150 C   0  0  0  0  0  0  0  0  0  0  0  0
   -7.6870   16.4099  -34.1459 H   0  0  0  0  0  0  0  0  0  0  0  0
   -5.7440   15.6510  -33.5580 C   0  0  0  0  0  0  0  0  0  0  0  0
   -6.1678   14.8226  -32.9714 H   0  0  0  0  0  0  0  0  0  0  0  0
   -4.3430   15.8050  -33.6400 C   0  0  0  0  0  0  0  0  0  0  0  0
   -3.4690   14.9100  -33.0010 O   0  0  0  0  0  0  0  0  0  0  0  0
   -3.8830   13.8600  -32.1290 C   0  0  0  0  0  0  0  0  0  0  0  0
   -3.7569   14.1799  -31.0841 H   0  0  0  0  0  0  0  0  0  0  0  0
   -4.9413   13.6246  -32.3152 H   0  0  0  0  0  0  0  0  0  0  0  0
   -3.2702   12.9657  -32.3152 H   0  0  0  0  0  0  0  0  0  0  0  0
   -1.3260   20.6970  -33.8080 C   0  0  0  0  0  0  0  0  0  0  0  0
   -1.2838   21.1089  -34.8271 H   0  0  0  0  0  0  0  0  0  0  0  0
   -1.0280   21.5160  -32.7140 C   0  0  0  0  0  0  0  0  0  0  0  0
   -0.7859   22.5769  -32.8751 H   0  0  0  0  0  0  0  0  0  0  0  0
   -2.8470   23.3090  -30.3770 C   0  0  0  0  0  0  0  0  0  0  0  0
   -3.6570   22.5210  -31.2310 C   0  0  0  0  0  0  0  0  0  0  0  0
   -3.3372   21.4986  -31.4807 H   0  0  0  0  0  0  0  0  0  0  0  0
   -6.3670   18.7950  -31.8360 C   0  0  0  0  0  0  0  0  0  0  0  0
   -5.3716   18.5011  -31.4716 H   0  0  0  0  0  0  0  0  0  0  0  0
   -7.4860   18.0280  -31.4980 C   0  0  0  0  0  0  0  0  0  0  0  0
   -7.3664   17.1309  -30.8728 H   0  0  0  0  0  0  0  0  0  0  0  0
  1  2  1  0
  2  3  1  0
  3  4  2  0
  4  5  1  0
  4  6  1  0
  6  7  1  0
  6  8  2  0
  8  9  1  0
  9 10  1  0
  9 11  1  0
  9 12  1  0
 12 13  1  0
 12 14  1  0
 14 15  2  0
 15 16  1  0
 15 17  1  0
 17 18  1  0
 17 19  2  0
 19 20  1  0
 20 21  1  0
 21 22  1  0
 21 23  2  0
 23 24  1  0
 24 25  3  0
 23 26  1  0
 26 27  2  0
 27 28  1  0
 28 29  2  0
 29 30  1  0
 29 31  1  0
 31 32  1  0
 31 33  2  0
 33 34  1  0
 34 35  1  0
 35 36  1  0
 35 37  1  0
 35 38  1  0
 38 39  2  0
 39 40  1  0
 39 41  1  0
 41 42  1  0
 41 43  2  0
 43 44  1  0
 43 45  1  0
 45 46  1  0
 45 47  2  0
 47 48  1  0
 48 49  1  0
 49 50  1  0
 49 51  1  0
 49 52  1  0
 33 53  1  0
 53 54  1  0
 53 55  2  0
 55 56  1  0
 26 57  1  0
 57 58  2  0
 58 59  1  0
  8 60  1  0
 60 61  1  0
 60 62  2  0
 62 63  1  0
 62  3  1  0
 58 14  1  0
 57 19  1  0
 55 28  1  0
 47 38  1  0
M  CHG  1  20  -1
M  END
>  <UniqueID>  (7) 
7

>  <SMILES>  (7) 
COc1ccccc1COc1ccc(/N=c2/c(C#N)c[n-]c3ccc(NCc4ccc(O)cc4)cc23)cc1

>  <Energy>  (7) 
95.92600211954348

>  <Genealogy>  (7) 
COc1ccccc1COc1ccc(N=c2c(C#N)c[n-]c3ccc(NCc4ccc(O)cc4)cc23)cc1 (protonated)
COc1ccccc1COc1ccc(/N=c2/c(C#N)c[n-]c3ccc(NCc4ccc(O)cc4)cc23)cc1 (cis-trans isomerization)
COc1ccccc1COc1ccc(/N=c2/c(C#N)c[n-]c3ccc(NCc4ccc(O)cc4)cc23)cc1 (3D coordinates assigned)
COc1ccccc1COc1ccc(/N=c2/c(C#N)c[n-]c3ccc(NCc4ccc(O)cc4)cc23)cc1 (optimized conformer: 95.92600211954348 kcal/mol)

>  <smiles>  (7) 
COc1ccccc1COc1ccc(N=c2c(C#N)c[nH]c3ccc(NCc4ccc(O)cc4)cc23)cc1

>  <score_type>  (7) 
oracle

>  <origin>  (7) 
adgpu

>  <m_score__min__energy>  (7) 
-10.84

>  <m_primary>  (7) 
energy

$$$$
7:0
     RDKit          3D

 40 41  0  0  0  0  0  0  0  0999 V2000
   -0.0010   26.9010  -22.9560 N   0  0  0  0  0  0  0  0  0  0  0  0
   -0.5470   26.2060  -24.0810 C   0  0  0  0  0  0  0  0  0  0  0  0
   -0.1600   24.9900  -24.3310 N   0  0  0  0  0  0  0  0  0  0  0  0
   -1.5380   26.8670  -24.8920 N   0  0  0  0  0  0  0  0  0  0  0  0
   -1.9920   26.4240  -26.2120 C   0  0  0  0  0  0  0  0  0  0  0  0
   -0.9010   26.6170  -27.2660 C   0  0  0  0  0  0  0  0  0  0  0  0
   -1.3480   26.1170  -28.5630 N   0  0  0  0  0  0  0  0  0  0  0  0
   -1.3030   24.3810  -28.5750 S   0  0  0  0  0  0  0  0  0  0  0  0
   -1.2210   23.8810  -27.1600 O   0  0  0  0  0  0  0  0  0  0  0  0
   -0.0850   23.9100  -29.3180 O   0  0  0  0  0  0  0  0  0  0  0  0
   -2.7610   23.7380  -29.3280 C   0  0  0  0  0  0  0  0  0  0  0  0
   -4.0270   24.1360  -28.8820 C   0  0  0  0  0  0  0  0  0  0  0  0
   -5.1790   23.6060  -29.4700 C   0  0  0  0  0  0  0  0  0  0  0  0
   -5.0820   22.6660  -30.5120 C   0  0  0  0  0  0  0  0  0  0  0  0
   -6.3050   22.1010  -31.1380 C   0  0  0  0  0  0  0  0  0  0  0  0
   -7.5460   22.7520  -30.9990 C   0  0  0  0  0  0  0  0  0  0  0  0
   -8.6960   22.2190  -31.5880 C   0  0  0  0  0  0  0  0  0  0  0  0
   -8.6220   21.0330  -32.3210 C   0  0  0  0  0  0  0  0  0  0  0  0
   -7.3970   20.3770  -32.4670 C   0  0  0  0  0  0  0  0  0  0  0  0
   -6.2440   20.9060  -31.8790 C   0  0  0  0  0  0  0  0  0  0  0  0
   -3.8050   22.2670  -30.9500 C   0  0  0  0  0  0  0  0  0  0  0  0
   -2.6550   22.7990  -30.3590 C   0  0  0  0  0  0  0  0  0  0  0  0
   -0.3040   27.8750  -22.7390 H   0  0  0  0  0  0  0  0  0  0  0  0
    0.7100   26.4490  -22.3380 H   0  0  0  0  0  0  0  0  0  0  0  0
   -0.5450   24.4270  -25.1190 H   0  0  0  0  0  0  0  0  0  0  0  0
    0.5560   24.5280  -23.7270 H   0  0  0  0  0  0  0  0  0  0  0  0
   -1.9410   27.7610  -24.5290 H   0  0  0  0  0  0  0  0  0  0  0  0
   -2.2569   25.3576  -26.1610 H   0  0  0  0  0  0  0  0  0  0  0  0
   -2.8653   27.0274  -26.5004 H   0  0  0  0  0  0  0  0  0  0  0  0
   -0.6667   27.6883  -27.3523 H   0  0  0  0  0  0  0  0  0  0  0  0
   -0.0061   26.0564  -26.9581 H   0  0  0  0  0  0  0  0  0  0  0  0
   -4.1154   24.8683  -28.0660 H   0  0  0  0  0  0  0  0  0  0  0  0
   -6.1696   23.9266  -29.1150 H   0  0  0  0  0  0  0  0  0  0  0  0
   -7.6107   23.6867  -30.4227 H   0  0  0  0  0  0  0  0  0  0  0  0
   -9.6609   22.7347  -31.4739 H   0  0  0  0  0  0  0  0  0  0  0  0
   -9.5282   20.6150  -32.7836 H   0  0  0  0  0  0  0  0  0  0  0  0
   -7.3396   19.4431  -33.0453 H   0  0  0  0  0  0  0  0  0  0  0  0
   -5.2826   20.3846  -31.9964 H   0  0  0  0  0  0  0  0  0  0  0  0
   -3.7113   21.5317  -31.7627 H   0  0  0  0  0  0  0  0  0  0  0  0
   -1.6621   22.4775  -30.7066 H   0  0  0  0  0  0  0  0  0  0  0  0
  1  2  1  0
  2  3  2  0
  2  4  1  0
  4  5  1  0
  5  6  1  0
  6  7  1  0
  7  8  1  0
  8  9  2  0
  8 10  2  0
  8 11  1  0
 11 12  2  0
 12 13  1  0
 13 14  2  0
 14 15  1  0
 15 16  2  0
 16 17  1  0
 17 18  2  0
 18 19  1  0
 19 20  2  0
 14 21  1  0
 21 22  2  0
 22 11  1  0
 20 15  1  0
  1 23  1  0
  1 24  1  0
  3 25  1  0
  3 26  1  0
  4 27  1  0
  5 28  1  0
  5 29  1  0
  6 30  1  0
  6 31  1  0
 12 32  1  0
 13 33  1  0
 16 34  1  0
 17 35  1  0
 18 36  1  0
 19 37  1  0
 20 38  1  0
 21 39  1  0
 22 40  1  0
M  CHG  2   3   1   7  -1
M  END
>  <UniqueID>  (8) 
8

>  <SMILES>  (8) 
NC(=[NH2+])NCC[N-]S(=O)(=O)c1ccc(-c2ccccc2)cc1

>  <Energy>  (8) 
39.83820847134685

>  <Genealogy>  (8) 
NC(=[NH2+])NCC[N-]S(=O)(=O)c1ccc(-c2ccccc2)cc1 (protonated)
NC(=[NH2+])NCC[N-]S(=O)(=O)c1ccc(-c2ccccc2)cc1 (3D coordinates assigned)
NC(=[NH2+])NCC[N-]S(=O)(=O)c1ccc(-c2ccccc2)cc1 (optimized conformer: 39.83820847134685 kcal/mol)

>  <smiles>  (8) 
N=C(N)NCCNS(=O)(=O)c1ccc(-c2ccccc2)cc1

>  <score_type>  (8) 
oracle

>  <origin>  (8) 
adgpu

>  <m_score__min__energy>  (8) 
-9.8399999999999999

>  <m_primary>  (8) 
energy

$$$$
8:0
     RDKit          3D

 41 43  0  0  0  0  0  0  0  0999 V2000
   -4.3070   20.6750  -33.0930 C   0  0  0  0  0  0  0  0  0  0  0  0
   -5.7070   20.8920  -33.2250 O   0  0  0  0  0  0  0  0  0  0  0  0
   -6.6960   19.9960  -32.7890 C   0  0  0  0  0  0  0  0  0  0  0  0
   -6.5440   18.6010  -32.9280 C   0  0  0  0  0  0  0  0  0  0  0  0
   -7.5500   17.7340  -32.4970 C   0  0  0  0  0  0  0  0  0  0  0  0
   -8.7180   18.2410  -31.9310 C   0  0  0  0  0  0  0  0  0  0  0  0
   -8.8800   19.6190  -31.7810 C   0  0  0  0  0  0  0  0  0  0  0  0
   -7.8710   20.5070  -32.1940 C   0  0  0  0  0  0  0  0  0  0  0  0
   -8.0560   21.9950  -31.9800 C   0  0  0  0  0  0  0  0  0  0  0  0
   -6.9430   22.8020  -32.5180 N   0  0  0  0  0  0  0  0  0  0  0  0
   -6.8440   24.1510  -31.9250 C   0  0  0  0  0  0  0  0  0  0  0  0
   -5.5470   24.3490  -31.1900 C   0  0  0  0  0  0  0  0  0  0  0  0
   -4.9840   25.5540  -30.8390 C   0  0  0  0  0  0  0  0  0  0  0  0
   -3.8300   25.2950  -30.2770 O   0  0  0  0  0  0  0  0  0  0  0  0
   -3.6740   23.9890  -30.2730 C   0  0  0  0  0  0  0  0  0  0  0  0
   -2.4750   23.2850  -29.7520 C   0  0  0  0  0  0  0  0  0  0  0  0
   -1.7890   22.3960  -30.6030 C   0  0  0  0  0  0  0  0  0  0  0  0
   -0.6450   21.7260  -30.1650 C   0  0  0  0  0  0  0  0  0  0  0  0
   -0.1680   21.9290  -28.8710 C   0  0  0  0  0  0  0  0  0  0  0  0
   -0.8340   22.8040  -28.0120 C   0  0  0  0  0  0  0  0  0  0  0  0
   -1.9820   23.4850  -28.4380 C   0  0  0  0  0  0  0  0  0  0  0  0
   -2.7540   24.5600  -27.2760 Cl  0  0  0  0  0  0  0  0  0  0  0  0
   -4.7270   23.3480  -30.8270 N   0  0  0  0  0  0  0  0  0  0  0  0
   -4.0413   20.6338  -32.0264 H   0  0  0  0  0  0  0  0  0  0  0  0
   -4.0363   19.7242  -33.5753 H   0  0  0  0  0  0  0  0  0  0  0  0
   -3.7611   21.4993  -33.5753 H   0  0  0  0  0  0  0  0  0  0  0  0
   -5.6272   18.1933  -33.3788 H   0  0  0  0  0  0  0  0  0  0  0  0
   -7.4201   16.6470  -32.6046 H   0  0  0  0  0  0  0  0  0  0  0  0
   -9.5125   17.5549  -31.6023 H   0  0  0  0  0  0  0  0  0  0  0  0
   -9.8051   20.0139  -31.3358 H   0  0  0  0  0  0  0  0  0  0  0  0
   -8.9864   22.3068  -32.4772 H   0  0  0  0  0  0  0  0  0  0  0  0
   -8.0903   22.1676  -30.8942 H   0  0  0  0  0  0  0  0  0  0  0  0
   -7.1190   22.9220  -33.5430 H   0  0  0  0  0  0  0  0  0  0  0  0
   -6.0370   22.2880  -32.4310 H   0  0  0  0  0  0  0  0  0  0  0  0
   -6.9144   24.8985  -32.7289 H   0  0  0  0  0  0  0  0  0  0  0  0
   -7.6653   24.2658  -31.2023 H   0  0  0  0  0  0  0  0  0  0  0  0
   -5.4219   26.5501  -31.0004 H   0  0  0  0  0  0  0  0  0  0  0  0
   -2.1593   22.2277  -31.6251 H   0  0  0  0  0  0  0  0  0  0  0  0
   -0.1192   21.0368  -30.8422 H   0  0  0  0  0  0  0  0  0  0  0  0
    0.7329   21.3997  -28.5273 H   0  0  0  0  0  0  0  0  0  0  0  0
   -0.4544   22.9605  -26.9915 H   0  0  0  0  0  0  0  0  0  0  0  0
  1  2  1  0
  2  3  1  0
  3  4  2  0
  4  5  1  0
  5  6  2  0
  6  7  1  0
  7  8  2  0
  8  9  1  0
  9 10  1  0
 10 11  1  0
 11 12  1  0
 12 13  2  0
 13 14  1  0
 14 15  1  0
 15 16  1  0
 16 17  2  0
 17 18  1  0
 18 19  2  0
 19 20  1  0
 20 21  2  0
 21 22  1  0
 15 23  2  0
  8  3  1  0
 23 12  1  0
 21 16  1  0
  1 24  1  0
  1 25  1  0
  1 26  1  0
  4 27  1  0
  5 28  1  0
  6 29  1  0
  7 30  1  0
  9 31  1  0
  9 32  1  0
 10 33  1  0
 10 34  1  0
 11 35  1  0
 11 36  1  0
 13 37  1  0
 17 38  1  0
 18 39  1  0
 19 40  1  0
 20 41  1  0
M  CHG  1  10   1
M  END
>  <UniqueID>  (9) 
9

>  <SMILES>  (9) 
COc1ccccc1C[NH2+]Cc1coc(-c2ccccc2Cl)n1

>  <Energy>  (9) 
72.96381974817214

>  <Genealogy>  (9) 
COc1ccccc1C[NH2+]Cc1coc(-c2ccccc2Cl)n1 (protonated)
COc1ccccc1C[NH2+]Cc1coc(-c2ccccc2Cl)n1 (3D coordinates assigned)
COc1ccccc1C[NH2+]Cc1coc(-c2ccccc2Cl)n1 (optimized conformer: 72.96381974817214 kcal/mol)

>  <smiles>  (9) 
COc1ccccc1CNCc1coc(-c2ccccc2Cl)n1

>  <score_type>  (9) 
oracle

>  <origin>  (9) 
adgpu

>  <m_score__min__energy>  (9) 
-7.4400000000000004

>  <m_primary>  (9) 
energy

$$$$
9:0
     RDKit          3D

 47 50  0  0  0  0  0  0  0  0999 V2000
   -6.7280   23.6340  -32.8920 N   0  0  0  0  0  0  0  0  0  0  0  0
   -7.8510   22.8340  -31.8480 S   0  0  0  0  0  0  0  0  0  0  0  0
   -9.2390   23.3510  -32.1060 O   0  0  0  0  0  0  0  0  0  0  0  0
   -7.4900   23.1280  -30.4190 O   0  0  0  0  0  0  0  0  0  0  0  0
   -7.8000   21.0890  -32.1390 C   0  0  0  0  0  0  0  0  0  0  0  0
   -8.8970   20.2960  -31.7620 C   0  0  0  0  0  0  0  0  0  0  0  0
   -8.8790   18.9150  -31.9790 C   0  0  0  0  0  0  0  0  0  0  0  0
   -7.7710   18.3150  -32.5790 C   0  0  0  0  0  0  0  0  0  0  0  0
   -6.6710   19.0900  -32.9540 C   0  0  0  0  0  0  0  0  0  0  0  0
   -6.6690   20.4830  -32.7330 C   0  0  0  0  0  0  0  0  0  0  0  0
   -5.5400   21.2970  -33.0920 N   0  0  0  0  0  0  0  0  0  0  0  0
   -3.8930   20.9920  -32.6400 S   0  0  0  0  0  0  0  0  0  0  0  0
   -3.0030   21.1960  -33.8340 O   0  0  0  0  0  0  0  0  0  0  0  0
   -3.7650   19.5680  -32.1780 O   0  0  0  0  0  0  0  0  0  0  0  0
   -3.4400   22.0620  -31.3170 C   0  0  0  0  0  0  0  0  0  0  0  0
   -2.2000   21.8920  -30.6880 C   0  0  0  0  0  0  0  0  0  0  0  0
   -1.8300   22.7160  -29.6220 C   0  0  0  0  0  0  0  0  0  0  0  0
   -2.7000   23.7230  -29.1640 C   0  0  0  0  0  0  0  0  0  0  0  0
   -2.3170   24.5900  -28.0190 C   0  0  0  0  0  0  0  0  0  0  0  0
   -3.0980   24.6100  -26.8490 C   0  0  0  0  0  0  0  0  0  0  0  0
   -2.7470   25.4270  -25.7720 C   0  0  0  0  0  0  0  0  0  0  0  0
   -1.6100   26.2450  -25.8450 C   0  0  0  0  0  0  0  0  0  0  0  0
   -1.2520   27.0740  -24.7700 C   0  0  0  0  0  0  0  0  0  0  0  0
   -0.1190   27.8900  -24.8560 C   0  0  0  0  0  0  0  0  0  0  0  0
    0.6660   27.8810  -26.0110 C   0  0  0  0  0  0  0  0  0  0  0  0
    0.3220   27.0580  -27.0890 C   0  0  0  0  0  0  0  0  0  0  0  0
   -0.8160   26.2360  -27.0150 C   0  0  0  0  0  0  0  0  0  0  0  0
   -1.1720   25.4080  -28.0910 C   0  0  0  0  0  0  0  0  0  0  0  0
   -3.9440   23.8890  -29.8060 C   0  0  0  0  0  0  0  0  0  0  0  0
   -4.3090   23.0670  -30.8750 C   0  0  0  0  0  0  0  0  0  0  0  0
   -7.2140   23.7990  -33.8030 H   0  0  0  0  0  0  0  0  0  0  0  0
   -5.9520   22.9600  -33.0790 H   0  0  0  0  0  0  0  0  0  0  0  0
   -9.7750   20.7645  -31.2934 H   0  0  0  0  0  0  0  0  0  0  0  0
   -9.7396   18.3003  -31.6763 H   0  0  0  0  0  0  0  0  0  0  0  0
   -7.7639   17.2295  -32.7570 H   0  0  0  0  0  0  0  0  0  0  0  0
   -5.8002   18.6105  -33.4250 H   0  0  0  0  0  0  0  0  0  0  0  0
   -1.5138   21.1055  -31.0352 H   0  0  0  0  0  0  0  0  0  0  0  0
   -0.8523   22.5767  -29.1375 H   0  0  0  0  0  0  0  0  0  0  0  0
   -3.9942   23.9757  -26.7818 H   0  0  0  0  0  0  0  0  0  0  0  0
   -3.3652   25.4289  -24.8622 H   0  0  0  0  0  0  0  0  0  0  0  0
   -1.8648   27.0819  -23.8565 H   0  0  0  0  0  0  0  0  0  0  0  0
    0.1542   28.5403  -24.0119 H   0  0  0  0  0  0  0  0  0  0  0  0
    1.5572   28.5227  -26.0734 H   0  0  0  0  0  0  0  0  0  0  0  0
    0.9435   27.0542  -27.9966 H   0  0  0  0  0  0  0  0  0  0  0  0
   -0.5512   25.3976  -28.9991 H   0  0  0  0  0  0  0  0  0  0  0  0
   -4.6341   24.6735  -29.4619 H   0  0  0  0  0  0  0  0  0  0  0  0
   -5.2808   23.2095  -31.3703 H   0  0  0  0  0  0  0  0  0  0  0  0
  1  2  1  0
  2  3  2  0
  2  4  2  0
  2  5  1  0
  5  6  2  0
  6  7  1  0
  7  8  2  0
  8  9  1  0
  9 10  2  0
 10 11  1  0
 11 12  1  0
 12 13  2  0
 12 14  2  0
 12 15  1  0
 15 16  2  0
 16 17  1  0
 17 18  2  0
 18 19  1  0
 19 20  2  0
 20 21  1  0
 21 22  2  0
 22 23  1  0
 23 24  2  0
 24 25  1  0
 25 26  2  0
 26 27  1  0
 27 28  2  0
 18 29  1  0
 29 30  2  0
 10  5  1  0
 30 15  1  0
 28 19  1  0
 27 22  1  0
  1 31  1  0
  1 32  1  0
  6 33  1  0
  7 34  1  0
  8 35  1  0
  9 36  1  0
 16 37  1  0
 17 38  1  0
 20 39  1  0
 21 40  1  0
 23 41  1  0
 24 42  1  0
 25 43  1  0
 26 44  1  0
 28 45  1  0
 29 46  1  0
 30 47  1  0
M  CHG  1  11  -1
M  END
>  <UniqueID>  (10) 
10

>  <SMILES>  (10) 
NS(=O)(=O)c1ccccc1[N-]S(=O)(=O)c1ccc(-c2ccc3ccccc3c2)cc1

>  <Energy>  (10) 
62.79500962913357

>  <Genealogy>  (10) 
NS(=O)(=O)c1ccccc1[N-]S(=O)(=O)c1ccc(-c2ccc3ccccc3c2)cc1 (protonated)
NS(=O)(=O)c1ccccc1[N-]S(=O)(=O)c1ccc(-c2ccc3ccccc3c2)cc1 (3D coordinates assigned)
NS(=O)(=O)c1ccccc1[N-]S(=O)(=O)c1ccc(-c2ccc3ccccc3c2)cc1 (optimized conformer: 62.79500962913357 kcal/mol)

>  <smiles>  (10) 
NS(=O)(=O)c1ccccc1NS(=O)(=O)c1ccc(-c2ccc3ccccc3c2)cc1

>  <score_type>  (10) 
oracle

>  <origin>  (10) 
adgpu

>  <m_score__min__energy>  (10) 
-10.82

>  <m_primary>  (10) 
energy

$$$$
10:0
     RDKit          3D

 44 46  0  0  0  0  0  0  0  0999 V2000
   -7.8180   23.6700  -31.8990 O   0  0  0  0  0  0  0  0  0  0  0  0
   -7.2820   22.8000  -31.1590 C   0  0  0  0  0  0  0  0  0  0  0  0
   -8.0950   21.7740  -30.5710 N   0  0  0  0  0  0  0  0  0  0  0  0
   -9.4770   21.5580  -31.0020 C   0  0  0  0  0  0  0  0  0  0  0  0
   -9.5400   20.8160  -32.3430 C   0  0  0  0  0  0  0  0  0  0  0  0
   -8.3820   19.8610  -32.5010 C   0  0  0  0  0  0  0  0  0  0  0  0
   -7.3230   20.1610  -33.3730 C   0  0  0  0  0  0  0  0  0  0  0  0
   -6.2680   19.2570  -33.5390 C   0  0  0  0  0  0  0  0  0  0  0  0
   -6.2640   18.0480  -32.8370 C   0  0  0  0  0  0  0  0  0  0  0  0
   -4.9420   16.9150  -33.0480 Cl  0  0  0  0  0  0  0  0  0  0  0  0
   -7.3170   17.7410  -31.9680 C   0  0  0  0  0  0  0  0  0  0  0  0
   -8.3730   18.6430  -31.8020 C   0  0  0  0  0  0  0  0  0  0  0  0
   -5.8230   22.8610  -30.9010 C   0  0  0  0  0  0  0  0  0  0  0  0
   -4.9460   21.9130  -31.4610 C   0  0  0  0  0  0  0  0  0  0  0  0
   -3.5730   21.9860  -31.2140 C   0  0  0  0  0  0  0  0  0  0  0  0
   -3.0480   23.0130  -30.4150 C   0  0  0  0  0  0  0  0  0  0  0  0
   -1.5730   23.0710  -30.1180 C   0  0  0  0  0  0  0  0  0  0  0  0
   -1.3490   23.5210  -28.7340 N   0  0  0  0  0  0  0  0  0  0  0  0
   -1.2570   22.5900  -27.7370 C   0  0  0  0  0  0  0  0  0  0  0  0
   -1.0160   22.9820  -26.4220 C   0  0  0  0  0  0  0  0  0  0  0  0
   -0.9280   22.0570  -25.4340 F   0  0  0  0  0  0  0  0  0  0  0  0
   -0.8640   24.3390  -26.1480 C   0  0  0  0  0  0  0  0  0  0  0  0
   -0.6460   24.7310  -24.9720 O   0  0  0  0  0  0  0  0  0  0  0  0
   -0.9500   25.2420  -27.1570 N   0  0  0  0  0  0  0  0  0  0  0  0
   -1.1860   24.8510  -28.4370 C   0  0  0  0  0  0  0  0  0  0  0  0
   -1.2530   25.7270  -29.3410 O   0  0  0  0  0  0  0  0  0  0  0  0
   -3.9180   23.9610  -29.8580 C   0  0  0  0  0  0  0  0  0  0  0  0
   -5.2920   23.8910  -30.1050 C   0  0  0  0  0  0  0  0  0  0  0  0
   -7.7030   21.1990  -29.7910 H   0  0  0  0  0  0  0  0  0  0  0  0
  -10.0000   20.9623  -30.2393 H   0  0  0  0  0  0  0  0  0  0  0  0
   -9.9556   22.5402  -31.1291 H   0  0  0  0  0  0  0  0  0  0  0  0
  -10.4809   20.2485  -32.3938 H   0  0  0  0  0  0  0  0  0  0  0  0
   -9.4873   21.5595  -33.1519 H   0  0  0  0  0  0  0  0  0  0  0  0
   -7.3228   21.1108  -33.9280 H   0  0  0  0  0  0  0  0  0  0  0  0
   -5.4407   19.4979  -34.2227 H   0  0  0  0  0  0  0  0  0  0  0  0
   -7.3142   16.7900  -31.4153 H   0  0  0  0  0  0  0  0  0  0  0  0
   -9.2007   18.3971  -31.1205 H   0  0  0  0  0  0  0  0  0  0  0  0
   -5.3445   21.1092  -32.0975 H   0  0  0  0  0  0  0  0  0  0  0  0
   -2.8989   21.2333  -31.6488 H   0  0  0  0  0  0  0  0  0  0  0  0
   -1.1365   22.0699  -30.2495 H   0  0  0  0  0  0  0  0  0  0  0  0
   -1.0962   23.7829  -30.8079 H   0  0  0  0  0  0  0  0  0  0  0  0
   -1.3742   21.5225  -27.9751 H   0  0  0  0  0  0  0  0  0  0  0  0
   -3.5169   24.7646  -29.2229 H   0  0  0  0  0  0  0  0  0  0  0  0
   -5.9632   24.6479  -29.6731 H   0  0  0  0  0  0  0  0  0  0  0  0
  1  2  2  0
  2  3  1  0
  3  4  1  0
  4  5  1  0
  5  6  1  0
  6  7  2  0
  7  8  1  0
  8  9  2  0
  9 10  1  0
  9 11  1  0
 11 12  2  0
  2 13  1  0
 13 14  2  0
 14 15  1  0
 15 16  2  0
 16 17  1  0
 17 18  1  0
 18 19  1  0
 19 20  2  0
 20 21  1  0
 20 22  1  0
 22 23  2  0
 22 24  1  0
 24 25  1  0
 25 26  2  0
 16 27  1  0
 27 28  2  0
 12  6  1  0
 28 13  1  0
 25 18  1  0
  3 29  1  0
  4 30  1  0
  4 31  1  0
  5 32  1  0
  5 33  1  0
  7 34  1  0
  8 35  1  0
 11 36  1  0
 12 37  1  0
 14 38  1  0
 15 39  1  0
 17 40  1  0
 17 41  1  0
 19 42  1  0
 27 43  1  0
 28 44  1  0
M  CHG  1  24  -1
M  END
>  <UniqueID>  (11) 
11

>  <SMILES>  (11) 
O=C(NCCc1ccc(Cl)cc1)c1ccc(Cn2cc(F)c(=O)[n-]c2=O)cc1

>  <Energy>  (11) 
46.36725319959372

>  <Genealogy>  (11) 
O=C(NCCc1ccc(Cl)cc1)c1ccc(Cn2cc(F)c(=O)[n-]c2=O)cc1 (protonated)
O=C(NCCc1ccc(Cl)cc1)c1ccc(Cn2cc(F)c(=O)[n-]c2=O)cc1 (3D coordinates assigned)
O=C(NCCc1ccc(Cl)cc1)c1ccc(Cn2cc(F)c(=O)[n-]c2=O)cc1 (optimized conformer: 46.36725319959372 kcal/mol)

>  <smiles>  (11) 
O=C(NCCc1ccc(Cl)cc1)c1ccc(Cn2cc(F)c(=O)[nH]c2=O)cc1

>  <score_type>  (11) 
oracle

>  <origin>  (11) 
adgpu

>  <m_score__min__energy>  (11) 
-9.6500000000000004

>  <m_primary>  (11) 
energy

$$$$
11:0
     RDKit          3D

 59 62  0  0  0  0  0  0  0  0999 V2000
   -3.0660   22.5310  -28.3920 O   0  0  0  0  0  0  0  0  0  0  0  0
   -3.3920   23.7500  -28.3880 C   0  0  0  0  0  0  0  0  0  0  0  0
   -4.5250   24.1930  -29.1600 N   0  0  0  0  0  0  0  0  0  0  0  0
   -5.4020   23.3060  -29.8750 C   0  0  0  0  0  0  0  0  0  0  0  0
   -6.7980   23.4690  -29.8400 C   0  0  0  0  0  0  0  0  0  0  0  0
   -7.6270   22.6110  -30.5700 C   0  0  0  0  0  0  0  0  0  0  0  0
   -7.0740   21.5880  -31.3490 C   0  0  0  0  0  0  0  0  0  0  0  0
   -8.1330   20.5340  -32.2820 S   0  0  0  0  0  0  0  0  0  0  0  0
   -8.5530   19.3420  -31.4680 O   0  0  0  0  0  0  0  0  0  0  0  0
   -9.3610   21.3040  -32.6770 O   0  0  0  0  0  0  0  0  0  0  0  0
   -7.3110   19.9950  -33.7120 N   0  0  0  0  0  0  0  0  0  0  0  0
   -6.5140   18.9720  -33.7430 C   0  0  0  0  0  0  0  0  0  0  0  0
   -6.2700   18.2380  -32.6210 N   0  0  0  0  0  0  0  0  0  0  0  0
   -5.4320   17.1710  -32.6500 C   0  0  0  0  0  0  0  0  0  0  0  0
   -4.8070   16.8110  -33.8430 C   0  0  0  0  0  0  0  0  0  0  0  0
   -5.0660   17.5690  -34.9840 C   0  0  0  0  0  0  0  0  0  0  0  0
   -5.9110   18.6320  -34.9130 N   0  0  0  0  0  0  0  0  0  0  0  0
   -5.6820   21.4400  -31.4080 C   0  0  0  0  0  0  0  0  0  0  0  0
   -4.8520   22.2980  -30.6820 C   0  0  0  0  0  0  0  0  0  0  0  0
   -2.5880   24.7040  -27.5860 C   0  0  0  0  0  0  0  0  0  0  0  0
   -1.4000   25.2670  -28.0880 C   0  0  0  0  0  0  0  0  0  0  0  0
   -0.6540   26.1570  -27.3100 C   0  0  0  0  0  0  0  0  0  0  0  0
   -1.0760   26.4920  -26.0160 C   0  0  0  0  0  0  0  0  0  0  0  0
   -0.1130   27.5880  -25.0240 S   0  0  0  0  0  0  0  0  0  0  0  0
   -0.8530   27.8750  -23.7470 O   0  0  0  0  0  0  0  0  0  0  0  0
    0.0670   28.8880  -25.7570 O   0  0  0  0  0  0  0  0  0  0  0  0
    1.4560   26.9080  -24.6570 N   0  0  0  0  0  0  0  0  0  0  0  0
    2.2380   27.8450  -23.8250 C   0  0  0  0  0  0  0  0  0  0  0  0
    3.7580   27.6340  -23.9380 C   0  0  0  0  0  0  0  0  0  0  0  0
    4.1530   26.1710  -23.6930 C   0  0  0  0  0  0  0  0  0  0  0  0
    3.7870   25.2400  -24.8520 C   0  0  0  0  0  0  0  0  0  0  0  0
    2.4300   24.5440  -24.6730 C   0  0  0  0  0  0  0  0  0  0  0  0
    1.3410   25.5130  -24.1650 C   0  0  0  0  0  0  0  0  0  0  0  0
   -2.2510   25.9270  -25.5080 C   0  0  0  0  0  0  0  0  0  0  0  0
   -2.9980   25.0370  -26.2830 C   0  0  0  0  0  0  0  0  0  0  0  0
   -4.7070   25.2160  -29.2590 H   0  0  0  0  0  0  0  0  0  0  0  0
   -7.2402   24.2749  -29.2358 H   0  0  0  0  0  0  0  0  0  0  0  0
   -8.7186   22.7408  -30.5317 H   0  0  0  0  0  0  0  0  0  0  0  0
   -5.2462   16.5912  -31.7338 H   0  0  0  0  0  0  0  0  0  0  0  0
   -4.1252   15.9487  -33.8831 H   0  0  0  0  0  0  0  0  0  0  0  0
   -4.5879   17.3078  -35.9396 H   0  0  0  0  0  0  0  0  0  0  0  0
   -5.2411   20.6456  -32.0280 H   0  0  0  0  0  0  0  0  0  0  0  0
   -3.7598   22.1827  -30.7433 H   0  0  0  0  0  0  0  0  0  0  0  0
   -1.0561   25.0049  -29.0995 H   0  0  0  0  0  0  0  0  0  0  0  0
    0.2691   26.5968  -27.7154 H   0  0  0  0  0  0  0  0  0  0  0  0
    2.0034   28.8722  -24.1410 H   0  0  0  0  0  0  0  0  0  0  0  0
    1.9599   27.6609  -22.7768 H   0  0  0  0  0  0  0  0  0  0  0  0
    4.0834   27.9259  -24.9474 H   0  0  0  0  0  0  0  0  0  0  0  0
    4.2458   28.2519  -23.1697 H   0  0  0  0  0  0  0  0  0  0  0  0
    5.2412   26.1248  -23.5389 H   0  0  0  0  0  0  0  0  0  0  0  0
    3.5931   25.8269  -22.8109 H   0  0  0  0  0  0  0  0  0  0  0  0
    3.7549   25.8328  -25.7781 H   0  0  0  0  0  0  0  0  0  0  0  0
    4.5530   24.4514  -24.8881 H   0  0  0  0  0  0  0  0  0  0  0  0
    2.1129   24.1311  -25.6420 H   0  0  0  0  0  0  0  0  0  0  0  0
    2.5537   23.7505  -23.9213 H   0  0  0  0  0  0  0  0  0  0  0  0
    0.3628   25.1207  -24.4802 H   0  0  0  0  0  0  0  0  0  0  0  0
    1.4635   25.5638  -23.0730 H   0  0  0  0  0  0  0  0  0  0  0  0
   -2.5881   26.1851  -24.4932 H   0  0  0  0  0  0  0  0  0  0  0  0
   -3.9156   24.5925  -25.8701 H   0  0  0  0  0  0  0  0  0  0  0  0
  1  2  2  0
  2  3  1  0
  3  4  1  0
  4  5  2  0
  5  6  1  0
  6  7  2  0
  7  8  1  0
  8  9  2  0
  8 10  2  0
  8 11  1  0
 11 12  2  3
 12 13  1  0
 13 14  2  0
 14 15  1  0
 15 16  2  0
 16 17  1  0
  7 18  1  0
 18 19  2  0
  2 20  1  0
 20 21  2  0
 21 22  1  0
 22 23  2  0
 23 24  1  0
 24 25  2  0
 24 26  2  0
 24 27  1  0
 27 28  1  0
 28 29  1  0
 29 30  1  0
 30 31  1  0
 31 32  1  0
 32 33  1  0
 23 34  1  0
 34 35  2  0
 19  4  1  0
 35 20  1  0
 17 12  1  0
 33 27  1  0
  3 36  1  0
  5 37  1  0
  6 38  1  0
 14 39  1  0
 15 40  1  0
 16 41  1  0
 18 42  1  0
 19 43  1  0
 21 44  1  0
 22 45  1  0
 28 46  1  0
 28 47  1  0
 29 48  1  0
 29 49  1  0
 30 50  1  0
 30 51  1  0
 31 52  1  0
 31 53  1  0
 32 54  1  0
 32 55  1  0
 33 56  1  0
 33 57  1  0
 34 58  1  0
 35 59  1  0
M  CHG  1  17  -1
M  END
>  <UniqueID>  (12) 
12

>  <SMILES>  (12) 
O=C(Nc1ccc(S(=O)(=O)N=c2nccc[n-]2)cc1)c1ccc(S(=O)(=O)N2CCCCCC2)cc1

>  <Energy>  (12) 
77.94017422626273

>  <Genealogy>  (12) 
O=C(Nc1ccc(S(=O)(=O)N=c2nccc[n-]2)cc1)c1ccc(S(=O)(=O)N2CCCCCC2)cc1 (protonated)
O=C(Nc1ccc(S(=O)(=O)N=c2nccc[n-]2)cc1)c1ccc(S(=O)(=O)N2CCCCCC2)cc1 (3D coordinates assigned)
O=C(Nc1ccc(S(=O)(=O)N=c2nccc[n-]2)cc1)c1ccc(S(=O)(=O)N2CCCCCC2)cc1 (nonaromatic ring conformer: 77.94017422626273 kcal/mol)

>  <smiles>  (12) 
O=C(Nc1ccc(S(=O)(=O)N=c2nccc[nH]2)cc1)c1ccc(S(=O)(=O)N2CCCCCC2)cc1

>  <score_type>  (12) 
oracle

>  <origin>  (12) 
adgpu

>  <m_score__min__energy>  (12) 
-7.3700000000000001

>  <m_primary>  (12) 
energy

$$$$
12:0
     RDKit          3D

 52 55  0  0  0  0  0  0  0  0999 V2000
   -4.3757   20.0448  -34.3407 H   0  0  0  0  0  0  0  0  0  0  0  0
   -4.8200   20.5440  -33.4670 C   0  0  0  0  0  0  0  0  0  0  0  0
   -4.2300   21.6680  -33.0330 C   0  0  0  0  0  0  0  0  0  0  0  0
   -3.2740   21.9524  -33.4970 H   0  0  0  0  0  0  0  0  0  0  0  0
   -4.7690   22.5550  -31.9760 C   0  0  0  0  0  0  0  0  0  0  0  0
   -5.9460   23.2890  -32.2040 C   0  0  0  0  0  0  0  0  0  0  0  0
   -6.4996   23.1554  -33.1451 H   0  0  0  0  0  0  0  0  0  0  0  0
   -6.4040   24.1620  -31.2700 N   0  0  0  0  0  0  0  0  0  0  0  0
   -5.7470   24.3660  -30.1010 C   0  0  0  0  0  0  0  0  0  0  0  0
   -6.1478   25.0759  -29.3624 H   0  0  0  0  0  0  0  0  0  0  0  0
   -4.5640   23.6770  -29.8340 C   0  0  0  0  0  0  0  0  0  0  0  0
   -4.0270   23.8498  -28.8897 H   0  0  0  0  0  0  0  0  0  0  0  0
   -4.0600   22.7630  -30.7720 C   0  0  0  0  0  0  0  0  0  0  0  0
   -2.8620   22.0210  -30.4670 N   0  0  0  0  0  0  0  0  0  0  0  0
   -1.5460   22.6580  -30.5590 C   0  0  0  0  0  0  0  0  0  0  0  0
   -0.9112   22.0782  -31.2453 H   0  0  0  0  0  0  0  0  0  0  0  0
   -1.6749   23.6841  -30.9339 H   0  0  0  0  0  0  0  0  0  0  0  0
   -0.8710   22.7170  -29.1720 C   0  0  0  0  0  0  0  0  0  0  0  0
    0.2163   22.6294  -29.3137 H   0  0  0  0  0  0  0  0  0  0  0  0
   -1.1664   23.6742  -28.7177 H   0  0  0  0  0  0  0  0  0  0  0  0
   -1.3080   21.6440  -28.2320 N   0  0  0  0  0  0  0  0  0  0  0  0
   -0.4670   21.3780  -27.6660 H   0  0  0  0  0  0  0  0  0  0  0  0
   -2.3310   22.1500  -27.2780 C   0  0  0  0  0  0  0  0  0  0  0  0
   -3.2846   22.2676  -27.8135 H   0  0  0  0  0  0  0  0  0  0  0  0
   -2.4131   21.4201  -26.4592 H   0  0  0  0  0  0  0  0  0  0  0  0
   -1.9500   23.4810  -26.6690 C   0  0  0  0  0  0  0  0  0  0  0  0
   -2.7240   24.6260  -26.9150 C   0  0  0  0  0  0  0  0  0  0  0  0
   -3.6226   24.5555  -27.5455 H   0  0  0  0  0  0  0  0  0  0  0  0
   -2.3660   25.8220  -26.3760 N   0  0  0  0  0  0  0  0  0  0  0  0
   -1.2650   25.9520  -25.5910 C   0  0  0  0  0  0  0  0  0  0  0  0
   -0.8540   27.5190  -24.9250 Cl  0  0  0  0  0  0  0  0  0  0  0  0
   -0.4660   24.8390  -25.3150 C   0  0  0  0  0  0  0  0  0  0  0  0
    0.4256   24.9380  -24.6784 H   0  0  0  0  0  0  0  0  0  0  0  0
   -0.8130   23.6000  -25.8570 C   0  0  0  0  0  0  0  0  0  0  0  0
   -0.1934   22.7157  -25.6467 H   0  0  0  0  0  0  0  0  0  0  0  0
   -1.7410   20.4200  -28.9530 C   0  0  0  0  0  0  0  0  0  0  0  0
   -0.9046   20.0556  -29.5676 H   0  0  0  0  0  0  0  0  0  0  0  0
   -2.0400   19.6727  -28.2033 H   0  0  0  0  0  0  0  0  0  0  0  0
   -2.9500   20.6850  -29.8670 C   0  0  0  0  0  0  0  0  0  0  0  0
   -2.9705   19.9303  -30.6670 H   0  0  0  0  0  0  0  0  0  0  0  0
   -3.8687   20.6270  -29.2648 H   0  0  0  0  0  0  0  0  0  0  0  0
   -6.0210   19.9210  -32.8650 C   0  0  0  0  0  0  0  0  0  0  0  0
   -7.2780   20.5050  -33.0890 C   0  0  0  0  0  0  0  0  0  0  0  0
   -7.3548   21.4252  -33.6867 H   0  0  0  0  0  0  0  0  0  0  0  0
   -8.4320   19.9240  -32.5570 C   0  0  0  0  0  0  0  0  0  0  0  0
   -9.4112   20.3964  -32.7241 H   0  0  0  0  0  0  0  0  0  0  0  0
   -8.3450   18.7440  -31.8130 C   0  0  0  0  0  0  0  0  0  0  0  0
   -9.4660   18.1810  -31.3000 F   0  0  0  0  0  0  0  0  0  0  0  0
   -7.1020   18.1400  -31.6080 C   0  0  0  0  0  0  0  0  0  0  0  0
   -7.0335   17.2080  -31.0278 H   0  0  0  0  0  0  0  0  0  0  0  0
   -5.9450   18.7180  -32.1390 C   0  0  0  0  0  0  0  0  0  0  0  0
   -4.9707   18.2300  -31.9885 H   0  0  0  0  0  0  0  0  0  0  0  0
  1  2  1  0
  2  3  2  0
  3  4  1  0
  3  5  1  0
  5  6  2  0
  6  7  1  0
  6  8  1  0
  8  9  2  0
  9 10  1  0
  9 11  1  0
 11 12  1  0
 11 13  2  0
 13 14  1  0
 14 15  1  0
 15 16  1  0
 15 17  1  0
 15 18  1  0
 18 19  1  0
 18 20  1  0
 18 21  1  0
 21 22  1  0
 21 23  1  0
 23 24  1  0
 23 25  1  0
 23 26  1  0
 26 27  2  0
 27 28  1  0
 27 29  1  0
 29 30  2  0
 30 31  1  0
 30 32  1  0
 32 33  1  0
 32 34  2  0
 34 35  1  0
 21 36  1  0
 36 37  1  0
 36 38  1  0
 36 39  1  0
 39 40  1  0
 39 41  1  0
  2 42  1  0
 42 43  2  0
 43 44  1  0
 43 45  1  0
 45 46  1  0
 45 47  2  0
 47 48  1  0
 47 49  1  0
 49 50  1  0
 49 51  2  0
 51 52  1  0
 13  5  1  0
 39 14  1  0
 51 42  1  0
 34 26  1  0
M  CHG  1  21   1
M  END
>  <UniqueID>  (13) 
13

>  <SMILES>  (13) 
Fc1ccc(/C=C\c2cnccc2N2CC[NH+](Cc3ccc(Cl)nc3)CC2)cc1

>  <Energy>  (13) 
80.63333784724654

>  <Genealogy>  (13) 
Fc1ccc(C=Cc2cnccc2N2CC[NH+](Cc3ccc(Cl)nc3)CC2)cc1 (protonated)
Fc1ccc(/C=C\c2cnccc2N2CC[NH+](Cc3ccc(Cl)nc3)CC2)cc1 (cis-trans isomerization)
Fc1ccc(/C=C\c2cnccc2N2CC[NH+](Cc3ccc(Cl)nc3)CC2)cc1 (3D coordinates assigned)
Fc1ccc(/C=C\c2cnccc2N2CC[NH+](Cc3ccc(Cl)nc3)CC2)cc1 (nonaromatic ring conformer: 80.63333784724654 kcal/mol)

>  <smiles>  (13) 
Fc1ccc(C=Cc2cnccc2N2CCN(Cc3ccc(Cl)nc3)CC2)cc1

>  <score_type>  (13) 
oracle

>  <origin>  (13) 
adgpu

>  <m_score__min__energy>  (13) 
-8.1899999999999995

>  <m_primary>  (13) 
energy

$$$$
13:0
     RDKit          3D

 41 43  0  0  0  0  0  0  0  0999 V2000
   -3.8730   24.5570  -27.0240 C   0  0  0  0  0  0  0  0  0  0  0  0
   -2.8120   24.6350  -27.9720 O   0  0  0  0  0  0  0  0  0  0  0  0
   -2.5950   23.7030  -28.9990 C   0  0  0  0  0  0  0  0  0  0  0  0
   -1.8470   22.5270  -28.7960 C   0  0  0  0  0  0  0  0  0  0  0  0
   -1.6550   21.6230  -29.8410 C   0  0  0  0  0  0  0  0  0  0  0  0
   -2.2050   21.8760  -31.1010 C   0  0  0  0  0  0  0  0  0  0  0  0
   -1.9850   20.7030  -32.3970 S   0  0  0  0  0  0  0  0  0  0  0  0
   -0.6470   20.8770  -33.0600 O   0  0  0  0  0  0  0  0  0  0  0  0
   -2.0630   19.3200  -31.8140 O   0  0  0  0  0  0  0  0  0  0  0  0
   -3.2370   20.8970  -33.5820 N   0  0  0  0  0  0  0  0  0  0  0  0
   -4.6230   20.5980  -33.3330 C   0  0  0  0  0  0  0  0  0  0  0  0
   -5.1300   19.3460  -33.7140 C   0  0  0  0  0  0  0  0  0  0  0  0
   -6.4650   19.0130  -33.4740 C   0  0  0  0  0  0  0  0  0  0  0  0
   -7.3200   19.9310  -32.8490 C   0  0  0  0  0  0  0  0  0  0  0  0
   -8.6610   19.6060  -32.5960 C   0  0  0  0  0  0  0  0  0  0  0  0
   -9.5030   20.5310  -31.9740 C   0  0  0  0  0  0  0  0  0  0  0  0
   -9.0150   21.7860  -31.6010 C   0  0  0  0  0  0  0  0  0  0  0  0
   -7.6810   22.1240  -31.8480 C   0  0  0  0  0  0  0  0  0  0  0  0
   -6.8240   21.2020  -32.4710 C   0  0  0  0  0  0  0  0  0  0  0  0
   -5.4830   21.5290  -32.7210 C   0  0  0  0  0  0  0  0  0  0  0  0
   -2.9460   23.0450  -31.3130 C   0  0  0  0  0  0  0  0  0  0  0  0
   -3.1470   23.9620  -30.2640 C   0  0  0  0  0  0  0  0  0  0  0  0
   -3.8920   25.1410  -30.4360 O   0  0  0  0  0  0  0  0  0  0  0  0
   -5.3130   25.2130  -30.3720 C   0  0  0  0  0  0  0  0  0  0  0  0
   -3.4579   24.5875  -26.0058 H   0  0  0  0  0  0  0  0  0  0  0  0
   -4.5559   25.4074  -27.1672 H   0  0  0  0  0  0  0  0  0  0  0  0
   -4.4242   23.6159  -27.1672 H   0  0  0  0  0  0  0  0  0  0  0  0
   -1.4115   22.3201  -27.8073 H   0  0  0  0  0  0  0  0  0  0  0  0
   -1.0686   20.7076  -29.6729 H   0  0  0  0  0  0  0  0  0  0  0  0
   -2.9370   21.1340  -34.5540 H   0  0  0  0  0  0  0  0  0  0  0  0
   -4.4684   18.6187  -34.2073 H   0  0  0  0  0  0  0  0  0  0  0  0
   -6.8467   18.0267  -33.7766 H   0  0  0  0  0  0  0  0  0  0  0  0
   -9.0507   18.6197  -32.8883 H   0  0  0  0  0  0  0  0  0  0  0  0
  -10.5535   20.2705  -31.7773 H   0  0  0  0  0  0  0  0  0  0  0  0
   -9.6825   22.5104  -31.1114 H   0  0  0  0  0  0  0  0  0  0  0  0
   -7.3020   23.1139  -31.5539 H   0  0  0  0  0  0  0  0  0  0  0  0
   -5.1007   22.5205  -32.4366 H   0  0  0  0  0  0  0  0  0  0  0  0
   -3.3739   23.2482  -32.3058 H   0  0  0  0  0  0  0  0  0  0  0  0
   -5.6323   25.2292  -29.3195 H   0  0  0  0  0  0  0  0  0  0  0  0
   -5.6567   26.1297  -30.8735 H   0  0  0  0  0  0  0  0  0  0  0  0
   -5.7475   24.3357  -30.8735 H   0  0  0  0  0  0  0  0  0  0  0  0
  1  2  1  0
  2  3  1  0
  3  4  2  0
  4  5  1  0
  5  6  2  0
  6  7  1  0
  7  8  2  0
  7  9  2  0
  7 10  1  0
 10 11  1  0
 11 12  2  0
 12 13  1  0
 13 14  2  0
 14 15  1  0
 15 16  2  0
 16 17  1  0
 17 18  2  0
 18 19  1  0
 19 20  2  0
  6 21  1  0
 21 22  2  0
 22 23  1  0
 23 24  1  0
 22  3  1  0
 20 11  1  0
 19 14  1  0
  1 25  1  0
  1 26  1  0
  1 27  1  0
  4 28  1  0
  5 29  1  0
 10 30  1  0
 12 31  1  0
 13 32  1  0
 15 33  1  0
 16 34  1  0
 17 35  1  0
 18 36  1  0
 20 37  1  0
 21 38  1  0
 24 39  1  0
 24 40  1  0
 24 41  1  0
M  END
>  <UniqueID>  (14) 
14

>  <SMILES>  (14) 
COc1ccc(S(=O)(=O)Nc2ccc3ccccc3c2)cc1OC

>  <Energy>  (14) 
47.63600447983138

>  <Genealogy>  (14) 
COc1ccc(S(=O)(=O)Nc2ccc3ccccc3c2)cc1OC (3D coordinates assigned)
COc1ccc(S(=O)(=O)Nc2ccc3ccccc3c2)cc1OC (optimized conformer: 47.63600447983138 kcal/mol)

>  <smiles>  (14) 
COc1ccc(S(=O)(=O)Nc2ccc3ccccc3c2)cc1OC

>  <score_type>  (14) 
oracle

>  <origin>  (14) 
adgpu

>  <m_score__min__energy>  (14) 
-8.7699999999999996

>  <m_primary>  (14) 
energy

$$$$
14:0
     RDKit          3D

 44 46  0  0  0  0  0  0  0  0999 V2000
    1.4150   27.2580  -23.9670 C   0  0  0  0  0  0  0  0  0  0  0  0
    0.5770   26.0730  -23.7000 N   0  0  0  0  0  0  0  0  0  0  0  0
    0.7560   25.0160  -24.7160 C   0  0  0  0  0  0  0  0  0  0  0  0
    0.1210   25.3740  -26.0700 C   0  0  0  0  0  0  0  0  0  0  0  0
   -1.2710   25.8490  -25.9470 N   0  0  0  0  0  0  0  0  0  0  0  0
   -2.3340   24.8540  -26.2060 C   0  0  0  0  0  0  0  0  0  0  0  0
   -2.2610   24.2270  -27.5770 C   0  0  0  0  0  0  0  0  0  0  0  0
   -1.2540   23.2970  -27.8800 C   0  0  0  0  0  0  0  0  0  0  0  0
   -1.1860   22.7210  -29.1520 C   0  0  0  0  0  0  0  0  0  0  0  0
   -2.1320   23.0540  -30.1230 C   0  0  0  0  0  0  0  0  0  0  0  0
   -3.1670   23.9470  -29.8270 C   0  0  0  0  0  0  0  0  0  0  0  0
   -4.0910   24.2630  -30.8330 O   0  0  0  0  0  0  0  0  0  0  0  0
   -5.3620   23.6880  -30.9800 C   0  0  0  0  0  0  0  0  0  0  0  0
   -5.8640   23.4830  -32.2710 C   0  0  0  0  0  0  0  0  0  0  0  0
   -7.1220   22.9020  -32.4580 C   0  0  0  0  0  0  0  0  0  0  0  0
   -7.8830   22.5080  -31.3520 C   0  0  0  0  0  0  0  0  0  0  0  0
   -9.4610   21.7780  -31.5880 Cl  0  0  0  0  0  0  0  0  0  0  0  0
   -7.3810   22.6900  -30.0600 C   0  0  0  0  0  0  0  0  0  0  0  0
   -6.1230   23.2710  -29.8710 C   0  0  0  0  0  0  0  0  0  0  0  0
   -3.2230   24.5380  -28.5520 C   0  0  0  0  0  0  0  0  0  0  0  0
   -1.5230   26.8140  -24.8600 C   0  0  0  0  0  0  0  0  0  0  0  0
   -0.8480   26.4140  -23.5360 C   0  0  0  0  0  0  0  0  0  0  0  0
    1.7316   27.7056  -23.0134 H   0  0  0  0  0  0  0  0  0  0  0  0
    2.3024   26.9573  -24.5433 H   0  0  0  0  0  0  0  0  0  0  0  0
    0.8357   27.9944  -24.5433 H   0  0  0  0  0  0  0  0  0  0  0  0
    0.9040   25.6770  -22.7860 H   0  0  0  0  0  0  0  0  0  0  0  0
    1.8333   24.8521  -24.8659 H   0  0  0  0  0  0  0  0  0  0  0  0
    0.2523   24.1117  -24.3439 H   0  0  0  0  0  0  0  0  0  0  0  0
    0.7215   26.1667  -26.5401 H   0  0  0  0  0  0  0  0  0  0  0  0
    0.1031   24.4572  -26.6775 H   0  0  0  0  0  0  0  0  0  0  0  0
   -2.2516   24.0550  -25.4545 H   0  0  0  0  0  0  0  0  0  0  0  0
   -3.2937   25.3885  -26.1490 H   0  0  0  0  0  0  0  0  0  0  0  0
   -0.5153   23.0203  -27.1133 H   0  0  0  0  0  0  0  0  0  0  0  0
   -0.3857   22.0042  -29.3881 H   0  0  0  0  0  0  0  0  0  0  0  0
   -2.0630   22.6112  -31.1276 H   0  0  0  0  0  0  0  0  0  0  0  0
   -5.2647   23.7810  -33.1439 H   0  0  0  0  0  0  0  0  0  0  0  0
   -7.5136   22.7546  -33.4753 H   0  0  0  0  0  0  0  0  0  0  0  0
   -7.9767   22.3756  -29.1903 H   0  0  0  0  0  0  0  0  0  0  0  0
   -5.7269   23.4026  -28.8533 H   0  0  0  0  0  0  0  0  0  0  0  0
   -4.0275   25.2502  -28.3163 H   0  0  0  0  0  0  0  0  0  0  0  0
   -1.1378   27.7974  -25.1673 H   0  0  0  0  0  0  0  0  0  0  0  0
   -2.6085   26.8366  -24.6836 H   0  0  0  0  0  0  0  0  0  0  0  0
   -0.9290   27.2555  -22.8322 H   0  0  0  0  0  0  0  0  0  0  0  0
   -1.3617   25.5165  -23.1609 H   0  0  0  0  0  0  0  0  0  0  0  0
  1  2  1  0
  2  3  1  0
  3  4  1  0
  4  5  1  0
  5  6  1  0
  6  7  1  0
  7  8  2  0
  8  9  1  0
  9 10  2  0
 10 11  1  0
 11 12  1  0
 12 13  1  0
 13 14  2  0
 14 15  1  0
 15 16  2  0
 16 17  1  0
 16 18  1  0
 18 19  2  0
 11 20  2  0
  5 21  1  0
 21 22  1  0
 22  2  1  0
 20  7  1  0
 19 13  1  0
  1 23  1  0
  1 24  1  0
  1 25  1  0
  2 26  1  0
  3 27  1  0
  3 28  1  0
  4 29  1  0
  4 30  1  0
  6 31  1  0
  6 32  1  0
  8 33  1  0
  9 34  1  0
 10 35  1  0
 14 36  1  0
 15 37  1  0
 18 38  1  0
 19 39  1  0
 20 40  1  0
 21 41  1  0
 21 42  1  0
 22 43  1  0
 22 44  1  0
M  CHG  1   2   1
M  END
>  <UniqueID>  (15) 
15

>  <SMILES>  (15) 
C[NH+]1CCN(Cc2cccc(Oc3ccc(Cl)cc3)c2)CC1

>  <Energy>  (15) 
62.520171642862536

>  <Genealogy>  (15) 
C[NH+]1CCN(Cc2cccc(Oc3ccc(Cl)cc3)c2)CC1 (protonated)
C[NH+]1CCN(Cc2cccc(Oc3ccc(Cl)cc3)c2)CC1 (3D coordinates assigned)
C[NH+]1CCN(Cc2cccc(Oc3ccc(Cl)cc3)c2)CC1 (nonaromatic ring conformer: 62.520171642862536 kcal/mol)

>  <smiles>  (15) 
CN1CCN(Cc2cccc(Oc3ccc(Cl)cc3)c2)CC1

>  <score_type>  (15) 
oracle

>  <origin>  (15) 
adgpu

>  <m_score__min__energy>  (15) 
-8.6600000000000001

>  <m_primary>  (15) 
energy

$$$$
15:0
     RDKit          3D

 28 30  0  0  0  0  0  0  0  0999 V2000
   -8.5030   18.3030  -31.5860 N   0  0  0  0  0  0  0  0  0  0  0  0
   -7.4420   18.1670  -32.5400 C   0  0  0  0  0  0  0  0  0  0  0  0
   -7.2320   16.9190  -33.1490 C   0  0  0  0  0  0  0  0  0  0  0  0
   -6.2680   16.7710  -34.1480 C   0  0  0  0  0  0  0  0  0  0  0  0
   -5.5050   17.8670  -34.5520 C   0  0  0  0  0  0  0  0  0  0  0  0
   -5.6940   19.1110  -33.9460 C   0  0  0  0  0  0  0  0  0  0  0  0
   -6.6440   19.2720  -32.9250 C   0  0  0  0  0  0  0  0  0  0  0  0
   -6.7620   20.5510  -32.2830 N   0  0  0  0  0  0  0  0  0  0  0  0
   -5.7580   21.4130  -32.0290 C   0  0  0  0  0  0  0  0  0  0  0  0
   -6.3050   22.5570  -31.4880 C   0  0  0  0  0  0  0  0  0  0  0  0
   -5.5920   23.7710  -31.0600 C   0  0  0  0  0  0  0  0  0  0  0  0
   -6.1480   25.0060  -30.7970 C   0  0  0  0  0  0  0  0  0  0  0  0
   -5.0930   25.8180  -30.4360 C   0  0  0  0  0  0  0  0  0  0  0  0
   -3.9710   25.1340  -30.4750 O   0  0  0  0  0  0  0  0  0  0  0  0
   -4.2340   23.9020  -30.8460 C   0  0  0  0  0  0  0  0  0  0  0  0
   -7.6690   22.3280  -31.4550 C   0  0  0  0  0  0  0  0  0  0  0  0
   -7.9220   21.1030  -31.9560 N   0  0  0  0  0  0  0  0  0  0  0  0
   -8.7190   19.2340  -31.1650 H   0  0  0  0  0  0  0  0  0  0  0  0
   -9.0090   17.4750  -31.2040 H   0  0  0  0  0  0  0  0  0  0  0  0
   -7.8317   16.0514  -32.8365 H   0  0  0  0  0  0  0  0  0  0  0  0
   -6.1098   15.7888  -34.6173 H   0  0  0  0  0  0  0  0  0  0  0  0
   -4.7545   17.7513  -35.3479 H   0  0  0  0  0  0  0  0  0  0  0  0
   -5.0929   19.9727  -34.2717 H   0  0  0  0  0  0  0  0  0  0  0  0
   -4.6894   21.2351  -32.2198 H   0  0  0  0  0  0  0  0  0  0  0  0
   -7.2101   25.2847  -30.8617 H   0  0  0  0  0  0  0  0  0  0  0  0
   -5.1778   26.8787  -30.1573 H   0  0  0  0  0  0  0  0  0  0  0  0
   -3.4900   23.1009  -30.9672 H   0  0  0  0  0  0  0  0  0  0  0  0
   -8.4256   23.0329  -31.0799 H   0  0  0  0  0  0  0  0  0  0  0  0
  1  2  1  0
  2  3  2  0
  3  4  1  0
  4  5  2  0
  5  6  1  0
  6  7  2  0
  7  8  1  0
  8  9  1  0
  9 10  2  0
 10 11  1  0
 11 12  1  0
 12 13  2  0
 13 14  1  0
 14 15  1  0
 10 16  1  0
 16 17  2  0
  7  2  1  0
 17  8  1  0
 15 11  2  0
  1 18  1  0
  1 19  1  0
  3 20  1  0
  4 21  1  0
  5 22  1  0
  6 23  1  0
  9 24  1  0
 12 25  1  0
 13 26  1  0
 15 27  1  0
 16 28  1  0
M  END
>  <UniqueID>  (16) 
16

>  <SMILES>  (16) 
Nc1ccccc1-n1cc(-c2ccoc2)cn1

>  <Energy>  (16) 
92.65583824981167

>  <Genealogy>  (16) 
Nc1ccccc1-n1cc(-c2ccoc2)cn1 (3D coordinates assigned)
Nc1ccccc1-n1cc(-c2ccoc2)cn1 (optimized conformer: 92.65583824981167 kcal/mol)

>  <smiles>  (16) 
Nc1ccccc1-n1cc(-c2ccoc2)cn1

>  <score_type>  (16) 
oracle

>  <origin>  (16) 
adgpu

>  <m_score__min__energy>  (16) 
-6.8200000000000003

>  <m_primary>  (16) 
energy

$$$$
16:0
     RDKit          3D

 37 39  0  0  0  0  0  0  0  0999 V2000
   -5.4040   26.4340  -30.4710 O   0  0  0  0  0  0  0  0  0  0  0  0
   -4.8960   25.2970  -30.6560 C   0  0  0  0  0  0  0  0  0  0  0  0
   -3.4850   25.1360  -30.4570 N   0  0  0  0  0  0  0  0  0  0  0  0
   -2.8510   24.1030  -29.6890 C   0  0  0  0  0  0  0  0  0  0  0  0
   -2.9000   24.1620  -28.2920 C   0  0  0  0  0  0  0  0  0  0  0  0
   -2.3050   23.1570  -27.5280 C   0  0  0  0  0  0  0  0  0  0  0  0
   -1.6750   22.0900  -28.1720 C   0  0  0  0  0  0  0  0  0  0  0  0
   -1.6560   22.0310  -29.5310 N   0  0  0  0  0  0  0  0  0  0  0  0
   -2.2260   23.0000  -30.2960 C   0  0  0  0  0  0  0  0  0  0  0  0
   -5.7560   24.1830  -31.1220 C   0  0  0  0  0  0  0  0  0  0  0  0
   -7.1110   24.1210  -30.7580 C   0  0  0  0  0  0  0  0  0  0  0  0
   -7.9090   23.0570  -31.1840 C   0  0  0  0  0  0  0  0  0  0  0  0
   -7.3650   22.0440  -31.9750 C   0  0  0  0  0  0  0  0  0  0  0  0
   -6.0170   22.0890  -32.3580 C   0  0  0  0  0  0  0  0  0  0  0  0
   -5.4720   21.0230  -33.1540 N   0  0  0  0  0  0  0  0  0  0  0  0
   -4.4710   20.1060  -32.6820 C   0  0  0  0  0  0  0  0  0  0  0  0
   -3.7330   20.4340  -31.7120 O   0  0  0  0  0  0  0  0  0  0  0  0
   -4.2600   18.8000  -33.3500 C   0  0  0  0  0  0  0  0  0  0  0  0
   -3.0060   18.4700  -33.8930 C   0  0  0  0  0  0  0  0  0  0  0  0
   -2.8130   17.2690  -34.5010 N   0  0  0  0  0  0  0  0  0  0  0  0
   -3.8070   16.3500  -34.6020 C   0  0  0  0  0  0  0  0  0  0  0  0
   -5.0680   16.6240  -34.0700 C   0  0  0  0  0  0  0  0  0  0  0  0
   -6.4690   15.3320  -34.1940 Br  0  0  0  0  0  0  0  0  0  0  0  0
   -5.2930   17.8520  -33.4410 C   0  0  0  0  0  0  0  0  0  0  0  0
   -5.2110   23.1520  -31.9080 C   0  0  0  0  0  0  0  0  0  0  0  0
   -3.4082   25.0016  -27.7952 H   0  0  0  0  0  0  0  0  0  0  0  0
   -2.3320   23.2049  -26.4294 H   0  0  0  0  0  0  0  0  0  0  0  0
   -1.1941   21.2971  -27.5804 H   0  0  0  0  0  0  0  0  0  0  0  0
   -2.1979   22.9205  -31.3928 H   0  0  0  0  0  0  0  0  0  0  0  0
   -7.5463   24.9152  -30.1337 H   0  0  0  0  0  0  0  0  0  0  0  0
   -8.9697   23.0172  -30.8952 H   0  0  0  0  0  0  0  0  0  0  0  0
   -7.9978   21.2050  -32.3000 H   0  0  0  0  0  0  0  0  0  0  0  0
   -5.7330   20.9870  -34.1650 H   0  0  0  0  0  0  0  0  0  0  0  0
   -2.1754   19.1880  -33.8256 H   0  0  0  0  0  0  0  0  0  0  0  0
   -3.6186   15.3891  -35.1032 H   0  0  0  0  0  0  0  0  0  0  0  0
   -6.2823   18.0769  -33.0158 H   0  0  0  0  0  0  0  0  0  0  0  0
   -4.1439   23.1764  -32.1740 H   0  0  0  0  0  0  0  0  0  0  0  0
  1  2  2  0
  2  3  1  0
  3  4  1  0
  4  5  2  0
  5  6  1  0
  6  7  2  0
  7  8  1  0
  8  9  2  0
  2 10  1  0
 10 11  2  0
 11 12  1  0
 12 13  2  0
 13 14  1  0
 14 15  1  0
 15 16  1  0
 16 17  2  0
 16 18  1  0
 18 19  2  0
 19 20  1  0
 20 21  2  0
 21 22  1  0
 22 23  1  0
 22 24  2  0
 14 25  2  0
  9  4  1  0
 25 10  1  0
 24 18  1  0
  5 26  1  0
  6 27  1  0
  7 28  1  0
  9 29  1  0
 11 30  1  0
 12 31  1  0
 13 32  1  0
 15 33  1  0
 19 34  1  0
 21 35  1  0
 24 36  1  0
 25 37  1  0
M  CHG  1   3  -1
M  END
>  <UniqueID>  (17) 
17

>  <SMILES>  (17) 
O=C([N-]c1cccnc1)c1cccc(NC(=O)c2cncc(Br)c2)c1

>  <Energy>  (17) 
54.020959259227816

>  <Genealogy>  (17) 
O=C([N-]c1cccnc1)c1cccc(NC(=O)c2cncc(Br)c2)c1 (protonated)
O=C([N-]c1cccnc1)c1cccc(NC(=O)c2cncc(Br)c2)c1 (3D coordinates assigned)
O=C([N-]c1cccnc1)c1cccc(NC(=O)c2cncc(Br)c2)c1 (optimized conformer: 54.020959259227816 kcal/mol)

>  <smiles>  (17) 
O=C(Nc1cccc(C(=O)Nc2cccnc2)c1)c1cncc(Br)c1

>  <score_type>  (17) 
oracle

>  <origin>  (17) 
adgpu

>  <m_score__min__energy>  (17) 
-9.75

>  <m_primary>  (17) 
energy

$$$$
17:0
     RDKit          3D

 33 35  0  0  0  0  0  0  0  0999 V2000
    3.2010   24.2490  -25.4840 O   0  0  0  0  0  0  0  0  0  0  0  0
    1.9920   24.1210  -26.1560 C   0  0  0  0  0  0  0  0  0  0  0  0
    0.8100   23.9120  -25.4390 C   0  0  0  0  0  0  0  0  0  0  0  0
   -0.4060   23.7830  -26.1150 C   0  0  0  0  0  0  0  0  0  0  0  0
   -0.4510   23.8620  -27.5180 C   0  0  0  0  0  0  0  0  0  0  0  0
   -1.7410   23.7250  -28.2360 C   0  0  0  0  0  0  0  0  0  0  0  0
   -2.5230   22.5650  -28.0810 C   0  0  0  0  0  0  0  0  0  0  0  0
   -2.0900   21.5200  -27.2700 O   0  0  0  0  0  0  0  0  0  0  0  0
   -3.7390   22.4400  -28.7580 C   0  0  0  0  0  0  0  0  0  0  0  0
   -4.1940   23.4590  -29.6090 C   0  0  0  0  0  0  0  0  0  0  0  0
   -5.4810   23.2930  -30.3290 C   0  0  0  0  0  0  0  0  0  0  0  0
   -6.5910   22.7320  -29.6740 C   0  0  0  0  0  0  0  0  0  0  0  0
   -7.8020   22.5650  -30.3540 C   0  0  0  0  0  0  0  0  0  0  0  0
   -7.9170   22.9500  -31.6930 C   0  0  0  0  0  0  0  0  0  0  0  0
   -9.1300   22.7790  -32.3560 O   0  0  0  0  0  0  0  0  0  0  0  0
   -6.8130   23.5040  -32.3530 C   0  0  0  0  0  0  0  0  0  0  0  0
   -5.6010   23.6720  -31.6780 C   0  0  0  0  0  0  0  0  0  0  0  0
   -3.4180   24.6250  -29.7580 C   0  0  0  0  0  0  0  0  0  0  0  0
   -3.8630   25.6710  -30.5610 O   0  0  0  0  0  0  0  0  0  0  0  0
   -2.2010   24.7550  -29.0790 C   0  0  0  0  0  0  0  0  0  0  0  0
   -1.4600   25.9260  -29.2290 O   0  0  0  0  0  0  0  0  0  0  0  0
    0.7410   24.0710  -28.2310 C   0  0  0  0  0  0  0  0  0  0  0  0
    1.9570   24.1990  -27.5520 C   0  0  0  0  0  0  0  0  0  0  0  0
    0.8374   23.8490  -24.3411 H   0  0  0  0  0  0  0  0  0  0  0  0
   -1.3332   23.6187  -25.5464 H   0  0  0  0  0  0  0  0  0  0  0  0
   -4.3463   21.5329  -28.6224 H   0  0  0  0  0  0  0  0  0  0  0  0
   -6.5070   22.4228  -28.6217 H   0  0  0  0  0  0  0  0  0  0  0  0
   -8.6672   22.1290  -29.8331 H   0  0  0  0  0  0  0  0  0  0  0  0
   -9.7670   23.5520  -32.5020 H   0  0  0  0  0  0  0  0  0  0  0  0
   -6.9002   23.8080  -33.4066 H   0  0  0  0  0  0  0  0  0  0  0  0
   -4.7365   24.1028  -32.2044 H   0  0  0  0  0  0  0  0  0  0  0  0
    0.7180   24.1343  -29.3289 H   0  0  0  0  0  0  0  0  0  0  0  0
    2.8870   24.3612  -28.1166 H   0  0  0  0  0  0  0  0  0  0  0  0
  1  2  1  0
  2  3  2  0
  3  4  1  0
  4  5  2  0
  5  6  1  0
  6  7  2  0
  7  8  1  0
  7  9  1  0
  9 10  2  0
 10 11  1  0
 11 12  2  0
 12 13  1  0
 13 14  2  0
 14 15  1  0
 14 16  1  0
 16 17  2  0
 10 18  1  0
 18 19  1  0
 18 20  2  0
 20 21  1  0
  5 22  1  0
 22 23  2  0
 23  2  1  0
 20  6  1  0
 17 11  1  0
  3 24  1  0
  4 25  1  0
  9 26  1  0
 12 27  1  0
 13 28  1  0
 15 29  1  0
 16 30  1  0
 17 31  1  0
 22 32  1  0
 23 33  1  0
M  CHG  4   1  -1   8  -1  19  -1  21  -1
M  END
>  <UniqueID>  (18) 
18

>  <SMILES>  (18) 
[O-]c1ccc(-c2c([O-])cc(-c3ccc(O)cc3)c([O-])c2[O-])cc1

>  <Energy>  (18) 
50.77990053334356

>  <Genealogy>  (18) 
[O-]c1ccc(-c2c([O-])cc(-c3ccc(O)cc3)c([O-])c2[O-])cc1 (protonated)
[O-]c1ccc(-c2c([O-])cc(-c3ccc(O)cc3)c([O-])c2[O-])cc1 (3D coordinates assigned)
[O-]c1ccc(-c2c([O-])cc(-c3ccc(O)cc3)c([O-])c2[O-])cc1 (optimized conformer: 50.77990053334356 kcal/mol)

>  <smiles>  (18) 
Oc1ccc(-c2cc(O)c(-c3ccc(O)cc3)c(O)c2O)cc1

>  <score_type>  (18) 
oracle

>  <origin>  (18) 
adgpu

>  <m_score__min__energy>  (18) 
-12.92

>  <m_primary>  (18) 
energy

$$$$
18:0
     RDKit          3D

 23 24  0  0  0  0  0  0  0  0999 V2000
   -2.2620   19.6270  -33.4990 C   0  0  0  0  0  0  0  0  0  0  0  0
   -3.0670   20.6710  -32.7820 C   0  0  0  0  0  0  0  0  0  0  0  0
   -2.5260   21.3450  -31.6770 C   0  0  0  0  0  0  0  0  0  0  0  0
   -3.2620   22.3440  -31.0320 C   0  0  0  0  0  0  0  0  0  0  0  0
   -4.5440   22.6870  -31.4870 C   0  0  0  0  0  0  0  0  0  0  0  0
   -5.2940   23.7220  -30.8260 N   0  0  0  0  0  0  0  0  0  0  0  0
   -4.8160   24.8900  -30.3510 C   0  0  0  0  0  0  0  0  0  0  0  0
   -3.4910   25.3000  -30.4470 O   0  0  0  0  0  0  0  0  0  0  0  0
   -5.8370   25.6110  -29.7750 C   0  0  0  0  0  0  0  0  0  0  0  0
   -6.9680   24.8890  -29.8860 N   0  0  0  0  0  0  0  0  0  0  0  0
   -6.6150   23.7550  -30.5260 C   0  0  0  0  0  0  0  0  0  0  0  0
   -7.6660   22.5240  -30.7930 S   0  0  0  0  0  0  0  0  0  0  0  0
   -5.0730   22.0290  -32.6090 C   0  0  0  0  0  0  0  0  0  0  0  0
   -4.3370   21.0310  -33.2550 C   0  0  0  0  0  0  0  0  0  0  0  0
   -1.7627   18.9795  -32.7631 H   0  0  0  0  0  0  0  0  0  0  0  0
   -2.9279   19.0197  -34.1297 H   0  0  0  0  0  0  0  0  0  0  0  0
   -1.5053   20.1165  -34.1297 H   0  0  0  0  0  0  0  0  0  0  0  0
   -1.5193   21.0868  -31.3166 H   0  0  0  0  0  0  0  0  0  0  0  0
   -2.8332   22.8640  -30.1627 H   0  0  0  0  0  0  0  0  0  0  0  0
   -5.7452   26.6021  -29.3067 H   0  0  0  0  0  0  0  0  0  0  0  0
   -7.9140   25.1510  -29.5310 H   0  0  0  0  0  0  0  0  0  0  0  0
   -6.0718   22.3001  -32.9817 H   0  0  0  0  0  0  0  0  0  0  0  0
   -4.7560   20.5262  -34.1379 H   0  0  0  0  0  0  0  0  0  0  0  0
  1  2  1  0
  2  3  2  0
  3  4  1  0
  4  5  2  0
  5  6  1  0
  6  7  1  0
  7  8  1  0
  7  9  2  0
  9 10  1  0
 10 11  1  0
 11 12  2  0
  5 13  1  0
 13 14  2  0
 14  2  1  0
 11  6  1  0
  1 15  1  0
  1 16  1  0
  1 17  1  0
  3 18  1  0
  4 19  1  0
  9 20  1  0
 10 21  1  0
 13 22  1  0
 14 23  1  0
M  CHG  1   8  -1
M  END
>  <UniqueID>  (19) 
19

>  <SMILES>  (19) 
Cc1ccc(-n2c([O-])c[nH]c2=S)cc1

>  <Energy>  (19) 
61.94791420598003

>  <Genealogy>  (19) 
Cc1ccc(-n2c([O-])c[nH]c2=S)cc1 (protonated)
Cc1ccc(-n2c([O-])c[nH]c2=S)cc1 (3D coordinates assigned)
Cc1ccc(-n2c([O-])c[nH]c2=S)cc1 (optimized conformer: 61.94791420598003 kcal/mol)

>  <smiles>  (19) 
Cc1ccc(-n2c(O)c[nH]c2=S)cc1

>  <score_type>  (19) 
oracle

>  <origin>  (19) 
adgpu

>  <m_score__min__energy>  (19) 
-8.6899999999999995

>  <m_primary>  (19) 
energy

$$$$
19:0
     RDKit          3D

 50 54  0  0  0  0  0  0  0  0999 V2000
   -6.4320   17.5350  -34.0910 C   0  0  0  0  0  0  0  0  0  0  0  0
   -6.2820   18.8350  -33.3470 C   0  0  0  0  0  0  0  0  0  0  0  0
   -5.1010   19.5790  -33.4920 C   0  0  0  0  0  0  0  0  0  0  0  0
   -4.9390   20.7920  -32.8240 C   0  0  0  0  0  0  0  0  0  0  0  0
   -5.9530   21.2920  -31.9930 C   0  0  0  0  0  0  0  0  0  0  0  0
   -5.7790   22.5860  -31.2850 C   0  0  0  0  0  0  0  0  0  0  0  0
   -6.6770   23.6460  -31.5050 C   0  0  0  0  0  0  0  0  0  0  0  0
   -6.5060   24.8650  -30.8440 C   0  0  0  0  0  0  0  0  0  0  0  0
   -5.4410   25.0420  -29.9600 C   0  0  0  0  0  0  0  0  0  0  0  0
   -4.5340   23.9990  -29.7250 C   0  0  0  0  0  0  0  0  0  0  0  0
   -3.4310   24.1880  -28.8200 N   0  0  0  0  0  0  0  0  0  0  0  0
   -3.6780   24.2360  -27.3690 C   0  0  0  0  0  0  0  0  0  0  0  0
   -2.7470   25.2540  -26.6950 C   0  0  0  0  0  0  0  0  0  0  0  0
   -1.3870   25.1100  -27.2090 N   0  0  0  0  0  0  0  0  0  0  0  0
   -1.0590   24.5500  -28.3840 C   0  0  0  0  0  0  0  0  0  0  0  0
    0.2700   24.5510  -28.5840 N   0  0  0  0  0  0  0  0  0  0  0  0
    0.8130   25.1430  -27.5290 N   0  0  0  0  0  0  0  0  0  0  0  0
   -0.1960   25.4940  -26.7020 C   0  0  0  0  0  0  0  0  0  0  0  0
    0.0310   26.1930  -25.4230 C   0  0  0  0  0  0  0  0  0  0  0  0
   -0.5730   25.9370  -24.1950 C   0  0  0  0  0  0  0  0  0  0  0  0
   -0.1730   26.8230  -23.1850 C   0  0  0  0  0  0  0  0  0  0  0  0
    0.7320   27.7850  -23.6110 C   0  0  0  0  0  0  0  0  0  0  0  0
    1.0300   27.5360  -25.2450 S   0  0  0  0  0  0  0  0  0  0  0  0
   -2.0650   23.9480  -29.3130 C   0  0  0  0  0  0  0  0  0  0  0  0
   -4.7100   22.7720  -30.3880 C   0  0  0  0  0  0  0  0  0  0  0  0
   -7.1390   20.5530  -31.8470 C   0  0  0  0  0  0  0  0  0  0  0  0
   -7.3170   19.3310  -32.5190 C   0  0  0  0  0  0  0  0  0  0  0  0
   -8.6060   18.5710  -32.3400 C   0  0  0  0  0  0  0  0  0  0  0  0
   -6.5273   16.7092  -33.3707 H   0  0  0  0  0  0  0  0  0  0  0  0
   -7.3314   17.5759  -34.7230 H   0  0  0  0  0  0  0  0  0  0  0  0
   -5.5469   17.3700  -34.7230 H   0  0  0  0  0  0  0  0  0  0  0  0
   -4.2954   19.2015  -34.1389 H   0  0  0  0  0  0  0  0  0  0  0  0
   -4.0070   21.3627  -32.9497 H   0  0  0  0  0  0  0  0  0  0  0  0
   -7.5184   23.5145  -32.2012 H   0  0  0  0  0  0  0  0  0  0  0  0
   -7.2136   25.6883  -31.0212 H   0  0  0  0  0  0  0  0  0  0  0  0
   -5.3123   26.0052  -29.4446 H   0  0  0  0  0  0  0  0  0  0  0  0
   -4.7232   24.5282  -27.1898 H   0  0  0  0  0  0  0  0  0  0  0  0
   -3.4824   23.2408  -26.9432 H   0  0  0  0  0  0  0  0  0  0  0  0
   -3.1088   26.2716  -26.9040 H   0  0  0  0  0  0  0  0  0  0  0  0
   -2.7421   25.0732  -25.6100 H   0  0  0  0  0  0  0  0  0  0  0  0
   -1.2925   25.1208  -24.0334 H   0  0  0  0  0  0  0  0  0  0  0  0
   -0.5422   26.7614  -22.1507 H   0  0  0  0  0  0  0  0  0  0  0  0
    1.1770   28.5738  -22.9867 H   0  0  0  0  0  0  0  0  0  0  0  0
   -1.9548   24.4016  -30.3090 H   0  0  0  0  0  0  0  0  0  0  0  0
   -1.8927   22.8630  -29.3690 H   0  0  0  0  0  0  0  0  0  0  0  0
   -4.0047   21.9482  -30.2039 H   0  0  0  0  0  0  0  0  0  0  0  0
   -7.9399   20.9361  -31.1975 H   0  0  0  0  0  0  0  0  0  0  0  0
   -8.8135   18.4487  -31.2667 H   0  0  0  0  0  0  0  0  0  0  0  0
   -9.4288   19.1285  -32.8113 H   0  0  0  0  0  0  0  0  0  0  0  0
   -8.5165   17.5811  -32.8113 H   0  0  0  0  0  0  0  0  0  0  0  0
  1  2  1  0
  2  3  2  0
  3  4  1  0
  4  5  2  0
  5  6  1  0
  6  7  2  0
  7  8  1  0
  8  9  2  0
  9 10  1  0
 10 11  1  0
 11 12  1  0
 12 13  1  0
 13 14  1  0
 14 15  1  0
 15 16  2  0
 16 17  1  0
 17 18  2  0
 18 19  1  0
 19 20  2  0
 20 21  1  0
 21 22  2  0
 22 23  1  0
 15 24  1  0
 10 25  2  0
  5 26  1  0
 26 27  2  0
 27 28  1  0
 27  2  1  0
 25  6  1  0
 24 11  1  0
 18 14  1  0
 23 19  1  0
  1 29  1  0
  1 30  1  0
  1 31  1  0
  3 32  1  0
  4 33  1  0
  7 34  1  0
  8 35  1  0
  9 36  1  0
 12 37  1  0
 12 38  1  0
 13 39  1  0
 13 40  1  0
 20 41  1  0
 21 42  1  0
 22 43  1  0
 24 44  1  0
 24 45  1  0
 25 46  1  0
 26 47  1  0
 28 48  1  0
 28 49  1  0
 28 50  1  0
M  END
>  <UniqueID>  (20) 
20

>  <SMILES>  (20) 
Cc1ccc(-c2cccc(N3CCn4c(nnc4-c4cccs4)C3)c2)cc1C

>  <Energy>  (20) 
129.8876542380107

>  <Genealogy>  (20) 
Cc1ccc(-c2cccc(N3CCn4c(nnc4-c4cccs4)C3)c2)cc1C (3D coordinates assigned)
Cc1ccc(-c2cccc(N3CCn4c(nnc4-c4cccs4)C3)c2)cc1C (nonaromatic ring conformer: 129.8876542380107 kcal/mol)

>  <smiles>  (20) 
Cc1ccc(-c2cccc(N3CCn4c(nnc4-c4cccs4)C3)c2)cc1C

>  <score_type>  (20) 
oracle

>  <origin>  (20) 
adgpu

>  <m_score__min__energy>  (20) 
-10.529999999999999

>  <m_primary>  (20) 
energy

$$$$
20:0
     RDKit          3D

 48 51  0  0  0  0  0  0  0  0999 V2000
   -8.7930   20.8460  -31.7980 C   0  0  0  0  0  0  0  0  0  0  0  0
   -8.6910   22.2010  -31.3710 O   0  0  0  0  0  0  0  0  0  0  0  0
   -7.4790   22.8860  -31.1940 C   0  0  0  0  0  0  0  0  0  0  0  0
   -7.1960   23.4220  -29.9340 C   0  0  0  0  0  0  0  0  0  0  0  0
   -6.0120   24.1320  -29.7150 C   0  0  0  0  0  0  0  0  0  0  0  0
   -5.0910   24.3130  -30.7520 C   0  0  0  0  0  0  0  0  0  0  0  0
   -3.8900   25.0510  -30.4840 N   0  0  0  0  0  0  0  0  0  0  0  0
   -2.6590   24.5710  -29.3640 S   0  0  0  0  0  0  0  0  0  0  0  0
   -1.5930   25.6260  -29.3300 O   0  0  0  0  0  0  0  0  0  0  0  0
   -3.2610   24.4350  -27.9980 O   0  0  0  0  0  0  0  0  0  0  0  0
   -1.9830   23.0180  -29.8500 C   0  0  0  0  0  0  0  0  0  0  0  0
   -0.7650   22.5740  -29.3200 C   0  0  0  0  0  0  0  0  0  0  0  0
   -0.2270   21.3470  -29.7230 C   0  0  0  0  0  0  0  0  0  0  0  0
   -0.9050   20.5620  -30.6610 C   0  0  0  0  0  0  0  0  0  0  0  0
   -2.1260   20.9990  -31.1950 C   0  0  0  0  0  0  0  0  0  0  0  0
   -2.8240   20.1990  -32.1700 N   0  0  0  0  0  0  0  0  0  0  0  0
   -2.2130   19.8390  -33.3470 C   0  0  0  0  0  0  0  0  0  0  0  0
   -0.8110   20.2700  -33.6770 C   0  0  0  0  0  0  0  0  0  0  0  0
   -2.8810   19.0780  -34.2540 N   0  0  0  0  0  0  0  0  0  0  0  0
   -4.1470   18.6500  -34.0290 C   0  0  0  0  0  0  0  0  0  0  0  0
   -4.8030   17.8650  -34.9850 C   0  0  0  0  0  0  0  0  0  0  0  0
   -6.1120   17.4290  -34.7550 C   0  0  0  0  0  0  0  0  0  0  0  0
   -6.7670   17.7710  -33.5690 C   0  0  0  0  0  0  0  0  0  0  0  0
   -6.1160   18.5490  -32.6060 C   0  0  0  0  0  0  0  0  0  0  0  0
   -4.7990   18.9940  -32.8300 C   0  0  0  0  0  0  0  0  0  0  0  0
   -4.1030   19.7810  -31.8990 C   0  0  0  0  0  0  0  0  0  0  0  0
   -4.6600   20.1060  -30.8110 O   0  0  0  0  0  0  0  0  0  0  0  0
   -2.6620   22.2250  -30.7840 C   0  0  0  0  0  0  0  0  0  0  0  0
   -5.3650   23.7620  -32.0170 C   0  0  0  0  0  0  0  0  0  0  0  0
   -6.5480   23.0530  -32.2360 C   0  0  0  0  0  0  0  0  0  0  0  0
   -8.8426   20.1872  -30.9185 H   0  0  0  0  0  0  0  0  0  0  0  0
   -9.7032   20.7196  -32.4026 H   0  0  0  0  0  0  0  0  0  0  0  0
   -7.9120   20.5848  -32.4026 H   0  0  0  0  0  0  0  0  0  0  0  0
   -7.9104   23.2839  -29.1090 H   0  0  0  0  0  0  0  0  0  0  0  0
   -5.8030   24.5515  -28.7198 H   0  0  0  0  0  0  0  0  0  0  0  0
   -0.2295   23.1921  -28.5843 H   0  0  0  0  0  0  0  0  0  0  0  0
    0.7284   21.0001  -29.3024 H   0  0  0  0  0  0  0  0  0  0  0  0
   -0.4795   19.5993  -30.9808 H   0  0  0  0  0  0  0  0  0  0  0  0
   -0.2515   20.4420  -32.7457 H   0  0  0  0  0  0  0  0  0  0  0  0
   -0.3139   19.4832  -34.2634 H   0  0  0  0  0  0  0  0  0  0  0  0
   -0.8418   21.2002  -34.2634 H   0  0  0  0  0  0  0  0  0  0  0  0
   -4.2885   17.5909  -35.9178 H   0  0  0  0  0  0  0  0  0  0  0  0
   -6.6268   16.8157  -35.5092 H   0  0  0  0  0  0  0  0  0  0  0  0
   -7.7970   17.4276  -33.3923 H   0  0  0  0  0  0  0  0  0  0  0  0
   -6.6337   18.8136  -31.6722 H   0  0  0  0  0  0  0  0  0  0  0  0
   -3.6222   22.5678  -31.1969 H   0  0  0  0  0  0  0  0  0  0  0  0
   -4.6439   23.8902  -32.8377 H   0  0  0  0  0  0  0  0  0  0  0  0
   -6.7531   22.6231  -33.2275 H   0  0  0  0  0  0  0  0  0  0  0  0
  1  2  1  0
  2  3  1  0
  3  4  2  0
  4  5  1  0
  5  6  2  0
  6  7  1  0
  7  8  1  0
  8  9  2  0
  8 10  2  0
  8 11  1  0
 11 12  2  0
 12 13  1  0
 13 14  2  0
 14 15  1  0
 15 16  1  0
 16 17  1  0
 17 18  1  0
 17 19  2  0
 19 20  1  0
 20 21  2  0
 21 22  1  0
 22 23  2  0
 23 24  1  0
 24 25  2  0
 25 26  1  0
 26 27  2  0
 15 28  2  0
  6 29  1  0
 29 30  2  0
 30  3  1  0
 28 11  1  0
 26 16  1  0
 25 20  1  0
  1 31  1  0
  1 32  1  0
  1 33  1  0
  4 34  1  0
  5 35  1  0
 12 36  1  0
 13 37  1  0
 14 38  1  0
 18 39  1  0
 18 40  1  0
 18 41  1  0
 21 42  1  0
 22 43  1  0
 23 44  1  0
 24 45  1  0
 28 46  1  0
 29 47  1  0
 30 48  1  0
M  CHG  1   7  -1
M  END
>  <UniqueID>  (21) 
21

>  <SMILES>  (21) 
COc1ccc([N-]S(=O)(=O)c2cccc(-n3c(C)nc4ccccc4c3=O)c2)cc1

>  <Energy>  (21) 
67.99706439446578

>  <Genealogy>  (21) 
COc1ccc([N-]S(=O)(=O)c2cccc(-n3c(C)nc4ccccc4c3=O)c2)cc1 (protonated)
COc1ccc([N-]S(=O)(=O)c2cccc(-n3c(C)nc4ccccc4c3=O)c2)cc1 (3D coordinates assigned)
COc1ccc([N-]S(=O)(=O)c2cccc(-n3c(C)nc4ccccc4c3=O)c2)cc1 (optimized conformer: 67.99706439446578 kcal/mol)

>  <smiles>  (21) 
COc1ccc(NS(=O)(=O)c2cccc(-n3c(C)nc4ccccc4c3=O)c2)cc1

>  <score_type>  (21) 
oracle

>  <origin>  (21) 
adgpu

>  <m_score__min__energy>  (21) 
-10.699999999999999

>  <m_primary>  (21) 
energy

$$$$
21:0
     RDKit          3D

 45 47  0  0  0  0  0  0  0  0999 V2000
    1.7640   20.5140  -34.1240 C   0  0  0  0  0  0  0  0  0  0  0  0
    1.5180   19.4350  -33.2280 O   0  0  0  0  0  0  0  0  0  0  0  0
    0.8090   19.5490  -32.0210 C   0  0  0  0  0  0  0  0  0  0  0  0
    1.3760   19.1860  -30.7850 C   0  0  0  0  0  0  0  0  0  0  0  0
    0.6370   19.3010  -29.6070 C   0  0  0  0  0  0  0  0  0  0  0  0
   -0.6730   19.7940  -29.6390 C   0  0  0  0  0  0  0  0  0  0  0  0
   -1.4720   19.8670  -28.3980 C   0  0  0  0  0  0  0  0  0  0  0  0
   -2.3050   20.8910  -27.9640 C   0  0  0  0  0  0  0  0  0  0  0  0
   -2.6880   22.1330  -28.6740 C   0  0  0  0  0  0  0  0  0  0  0  0
   -1.9830   23.3310  -28.4720 C   0  0  0  0  0  0  0  0  0  0  0  0
   -2.3810   24.5150  -29.1160 C   0  0  0  0  0  0  0  0  0  0  0  0
   -1.7270   25.7390  -28.8990 O   0  0  0  0  0  0  0  0  0  0  0  0
   -0.9950   26.0630  -27.7210 C   0  0  0  0  0  0  0  0  0  0  0  0
   -3.4660   24.4830  -30.0010 C   0  0  0  0  0  0  0  0  0  0  0  0
   -3.8600   25.6500  -30.6480 O   0  0  0  0  0  0  0  0  0  0  0  0
   -4.1580   23.2890  -30.2440 C   0  0  0  0  0  0  0  0  0  0  0  0
   -5.2320   23.3120  -31.1480 O   0  0  0  0  0  0  0  0  0  0  0  0
   -5.3390   22.4730  -32.2930 C   0  0  0  0  0  0  0  0  0  0  0  0
   -3.7610   22.1150  -29.5780 C   0  0  0  0  0  0  0  0  0  0  0  0
   -2.7430   20.5700  -26.7270 N   0  0  0  0  0  0  0  0  0  0  0  0
   -2.2040   19.4190  -26.4410 O   0  0  0  0  0  0  0  0  0  0  0  0
   -1.4530   18.9670  -27.3980 N   0  0  0  0  0  0  0  0  0  0  0  0
   -0.6900   17.8220  -27.3050 O   0  0  0  0  0  0  0  0  0  0  0  0
   -1.2370   20.1710  -30.8670 C   0  0  0  0  0  0  0  0  0  0  0  0
   -0.5050   20.0390  -32.0630 C   0  0  0  0  0  0  0  0  0  0  0  0
   -1.0530   20.3760  -33.3110 O   0  0  0  0  0  0  0  0  0  0  0  0
   -2.2240   21.1650  -33.4900 C   0  0  0  0  0  0  0  0  0  0  0  0
    1.9724   21.4281  -33.5487 H   0  0  0  0  0  0  0  0  0  0  0  0
    2.6305   20.2741  -34.7577 H   0  0  0  0  0  0  0  0  0  0  0  0
    0.8791   20.6734  -34.7577 H   0  0  0  0  0  0  0  0  0  0  0  0
    2.4087   18.8091  -30.7474 H   0  0  0  0  0  0  0  0  0  0  0  0
    1.0860   19.0027  -28.6481 H   0  0  0  0  0  0  0  0  0  0  0  0
   -1.1102   23.3425  -27.8027 H   0  0  0  0  0  0  0  0  0  0  0  0
   -1.5909   25.7992  -26.8348 H   0  0  0  0  0  0  0  0  0  0  0  0
   -0.0508   25.4987  -27.7092 H   0  0  0  0  0  0  0  0  0  0  0  0
   -0.7779   27.1413  -27.7092 H   0  0  0  0  0  0  0  0  0  0  0  0
   -5.4721   21.4294  -31.9717 H   0  0  0  0  0  0  0  0  0  0  0  0
   -6.2047   22.7843  -32.8960 H   0  0  0  0  0  0  0  0  0  0  0  0
   -4.4229   22.5570  -32.8960 H   0  0  0  0  0  0  0  0  0  0  0  0
   -4.2972   21.1735  -29.7679 H   0  0  0  0  0  0  0  0  0  0  0  0
   -0.7500   17.2100  -26.5020 H   0  0  0  0  0  0  0  0  0  0  0  0
   -2.2603   20.5734  -30.8960 H   0  0  0  0  0  0  0  0  0  0  0  0
   -2.6338   21.4411  -32.5073 H   0  0  0  0  0  0  0  0  0  0  0  0
   -1.9697   22.0767  -34.0505 H   0  0  0  0  0  0  0  0  0  0  0  0
   -2.9735   20.5870  -34.0505 H   0  0  0  0  0  0  0  0  0  0  0  0
  1  2  1  0
  2  3  1  0
  3  4  2  0
  4  5  1  0
  5  6  2  0
  6  7  1  0
  7  8  1  0
  8  9  1  0
  9 10  2  0
 10 11  1  0
 11 12  1  0
 12 13  1  0
 11 14  2  0
 14 15  1  0
 14 16  1  0
 16 17  1  0
 17 18  1  0
 16 19  2  0
  8 20  2  0
 20 21  1  0
 21 22  1  0
 22 23  1  0
  6 24  1  0
 24 25  2  0
 25 26  1  0
 26 27  1  0
 25  3  1  0
 22  7  2  0
 19  9  1  0
  1 28  1  0
  1 29  1  0
  1 30  1  0
  4 31  1  0
  5 32  1  0
 10 33  1  0
 13 34  1  0
 13 35  1  0
 13 36  1  0
 18 37  1  0
 18 38  1  0
 18 39  1  0
 19 40  1  0
 23 41  1  0
 24 42  1  0
 27 43  1  0
 27 44  1  0
 27 45  1  0
M  CHG  2  15  -1  22   1
M  END
>  <UniqueID>  (22) 
22

>  <SMILES>  (22) 
COc1ccc(-c2c(-c3cc(OC)c([O-])c(OC)c3)no[n+]2O)cc1OC

>  <Energy>  (22) 
89.46100917711635

>  <Genealogy>  (22) 
COc1ccc(-c2c(-c3cc(OC)c([O-])c(OC)c3)no[n+]2O)cc1OC (protonated)
COc1ccc(-c2c(-c3cc(OC)c([O-])c(OC)c3)no[n+]2O)cc1OC (3D coordinates assigned)
COc1ccc(-c2c(-c3cc(OC)c([O-])c(OC)c3)no[n+]2O)cc1OC (optimized conformer: 89.46100917711635 kcal/mol)

>  <smiles>  (22) 
COc1ccc(-c2c(-c3cc(OC)c(O)c(OC)c3)no[n+]2[O-])cc1OC

>  <score_type>  (22) 
oracle

>  <origin>  (22) 
adgpu

>  <m_score__min__energy>  (22) 
-9.6899999999999995

>  <m_primary>  (22) 
energy

$$$$
22:0
     RDKit          3D

 44 45  0  0  0  0  0  0  0  0999 V2000
   -9.0200   18.5450  -31.6080 C   0  0  0  0  0  0  0  0  0  0  0  0
   -8.5580   19.3230  -32.7080 O   0  0  0  0  0  0  0  0  0  0  0  0
   -7.2420   19.7890  -32.8540 C   0  0  0  0  0  0  0  0  0  0  0  0
   -6.2420   19.0200  -33.4780 C   0  0  0  0  0  0  0  0  0  0  0  0
   -4.9430   19.5160  -33.6020 C   0  0  0  0  0  0  0  0  0  0  0  0
   -4.6210   20.7880  -33.1100 C   0  0  0  0  0  0  0  0  0  0  0  0
   -3.2110   21.3110  -33.2110 C   0  0  0  0  0  0  0  0  0  0  0  0
   -2.3300   20.8320  -32.0430 C   0  0  0  0  0  0  0  0  0  0  0  0
   -2.0820   21.9040  -31.0330 N   0  0  2  0  0  0  0  0  0  0  0  0
   -0.7940   21.6830  -30.3480 C   0  0  0  0  0  0  0  0  0  0  0  0
   -3.1670   21.9710  -30.0250 C   0  0  0  0  0  0  0  0  0  0  0  0
   -3.8930   23.2870  -30.0820 C   0  0  0  0  0  0  0  0  0  0  0  0
   -5.0760   23.5910  -29.4440 C   0  0  0  0  0  0  0  0  0  0  0  0
   -5.3300   24.8880  -29.8320 C   0  0  0  0  0  0  0  0  0  0  0  0
   -6.5410   25.6850  -29.4780 C   0  0  0  0  0  0  0  0  0  0  0  0
   -4.3650   25.3170  -30.6670 N   0  0  0  0  0  0  0  0  0  0  0  0
   -3.4820   24.3410  -30.8160 N   0  0  0  0  0  0  0  0  0  0  0  0
   -5.6140   21.5580  -32.4880 C   0  0  0  0  0  0  0  0  0  0  0  0
   -6.9280   21.0630  -32.3560 C   0  0  0  0  0  0  0  0  0  0  0  0
   -7.9440   21.8070  -31.7360 O   0  0  0  0  0  0  0  0  0  0  0  0
   -7.9850   23.2290  -31.6790 C   0  0  0  0  0  0  0  0  0  0  0  0
   -8.7300   19.0334  -30.6660 H   0  0  0  0  0  0  0  0  0  0  0  0
  -10.1157   18.4590  -31.6542 H   0  0  0  0  0  0  0  0  0  0  0  0
   -8.5712   17.5418  -31.6542 H   0  0  0  0  0  0  0  0  0  0  0  0
   -6.4856   18.0217  -33.8705 H   0  0  0  0  0  0  0  0  0  0  0  0
   -4.1682   18.9052  -34.0884 H   0  0  0  0  0  0  0  0  0  0  0  0
   -2.7694   20.9600  -34.1554 H   0  0  0  0  0  0  0  0  0  0  0  0
   -3.2540   22.4095  -33.1742 H   0  0  0  0  0  0  0  0  0  0  0  0
   -2.8320   19.9889  -31.5458 H   0  0  0  0  0  0  0  0  0  0  0  0
   -1.3562   20.5357  -32.4601 H   0  0  0  0  0  0  0  0  0  0  0  0
   -2.0210   22.8420  -31.4980 H   0  0  0  0  0  0  0  0  0  0  0  0
   -0.9485   21.7095  -29.2592 H   0  0  0  0  0  0  0  0  0  0  0  0
   -0.3885   20.7022  -30.6370 H   0  0  0  0  0  0  0  0  0  0  0  0
   -0.0848   22.4726  -30.6370 H   0  0  0  0  0  0  0  0  0  0  0  0
   -3.8837   21.1590  -30.2170 H   0  0  0  0  0  0  0  0  0  0  0  0
   -2.7168   21.8686  -29.0266 H   0  0  0  0  0  0  0  0  0  0  0  0
   -5.6757   22.9495  -28.7815 H   0  0  0  0  0  0  0  0  0  0  0  0
   -6.6330   25.7456  -28.3835 H   0  0  0  0  0  0  0  0  0  0  0  0
   -6.4475   26.6987  -29.8948 H   0  0  0  0  0  0  0  0  0  0  0  0
   -7.4351   25.1982  -29.8948 H   0  0  0  0  0  0  0  0  0  0  0  0
   -5.3660   22.5568  -32.0996 H   0  0  0  0  0  0  0  0  0  0  0  0
   -7.9944   23.5537  -30.6281 H   0  0  0  0  0  0  0  0  0  0  0  0
   -7.0984   23.6419  -32.1825 H   0  0  0  0  0  0  0  0  0  0  0  0
   -8.8939   23.5901  -32.1825 H   0  0  0  0  0  0  0  0  0  0  0  0
  1  2  1  0
  2  3  1  0
  3  4  2  0
  4  5  1  0
  5  6  2  0
  6  7  1  0
  7  8  1  0
  8  9  1  0
  9 10  1  0
  9 11  1  0
 11 12  1  0
 12 13  2  0
 13 14  1  0
 14 15  1  0
 14 16  2  0
 16 17  1  0
  6 18  1  0
 18 19  2  0
 19 20  1  0
 20 21  1  0
 19  3  1  0
 17 12  1  0
  1 22  1  0
  1 23  1  0
  1 24  1  0
  4 25  1  0
  5 26  1  0
  7 27  1  0
  7 28  1  0
  8 29  1  0
  8 30  1  0
  9 31  1  6
 10 32  1  0
 10 33  1  0
 10 34  1  0
 11 35  1  0
 11 36  1  0
 13 37  1  0
 15 38  1  0
 15 39  1  0
 15 40  1  0
 18 41  1  0
 21 42  1  0
 21 43  1  0
 21 44  1  0
M  CHG  2   9   1  17  -1
M  END
>  <UniqueID>  (23) 
23

>  <SMILES>  (23) 
COc1ccc(CC[N@H+](C)Cc2cc(C)n[n-]2)cc1OC

>  <Energy>  (23) 
71.49036450848999

>  <Genealogy>  (23) 
COc1ccc(CC[NH+](C)Cc2cc(C)n[n-]2)cc1OC (protonated)
COc1ccc(CC[N@H+](C)Cc2cc(C)n[n-]2)cc1OC (chirality)
COc1ccc(CC[N@H+](C)Cc2cc(C)n[n-]2)cc1OC (3D coordinates assigned)
COc1ccc(CC[N@H+](C)Cc2cc(C)n[n-]2)cc1OC (optimized conformer: 71.49036450848999 kcal/mol)

>  <smiles>  (23) 
COc1ccc(CCN(C)Cc2cc(C)n[nH]2)cc1OC

>  <score_type>  (23) 
oracle

>  <origin>  (23) 
adgpu

>  <m_score__min__energy>  (23) 
-8.5

>  <m_primary>  (23) 
energy

$$$$
23:0
     RDKit          3D

 57 63  0  0  0  0  0  0  0  0999 V2000
   -9.4950   20.4380  -31.9180 C   0  0  0  0  0  0  0  0  0  0  0  0
   -9.0370   19.1670  -32.2840 C   0  0  0  0  0  0  0  0  0  0  0  0
   -7.7330   19.0650  -32.7560 C   0  0  0  0  0  0  0  0  0  0  0  0
   -6.9360   17.6950  -33.3080 S   0  0  0  0  0  0  0  0  0  0  0  0
   -5.5060   18.5110  -33.6970 C   0  0  0  0  0  0  0  0  0  0  0  0
   -4.3090   17.8830  -34.2680 C   0  0  0  0  0  0  0  0  0  0  0  0
   -3.0630   18.3690  -34.1380 N   0  0  0  0  0  0  0  0  0  0  0  0
   -2.3000   17.5100  -34.7940 N   0  0  0  0  0  0  0  0  0  0  0  0
   -3.0490   16.5440  -35.3040 N   0  0  0  0  0  0  0  0  0  0  0  0
   -4.3170   16.7490  -34.9920 N   0  0  0  0  0  0  0  0  0  0  0  0
   -5.6440   19.8660  -33.3990 C   0  0  0  0  0  0  0  0  0  0  0  0
   -6.9010   20.1680  -32.8560 C   0  0  0  0  0  0  0  0  0  0  0  0
   -7.3820   21.4260  -32.4520 C   0  0  0  0  0  0  0  0  0  0  0  0
   -6.5930   22.5830  -32.5110 O   0  0  0  0  0  0  0  0  0  0  0  0
   -5.7620   23.0340  -31.4750 C   0  0  0  0  0  0  0  0  0  0  0  0
   -4.7640   22.2200  -30.9110 C   0  0  0  0  0  0  0  0  0  0  0  0
   -3.9540   22.7080  -29.8830 C   0  0  0  0  0  0  0  0  0  0  0  0
   -4.1300   24.0150  -29.3930 C   0  0  0  0  0  0  0  0  0  0  0  0
   -3.2670   24.5360  -28.3040 C   0  0  0  0  0  0  0  0  0  0  0  0
   -1.9210   24.8580  -28.5520 C   0  0  0  0  0  0  0  0  0  0  0  0
   -1.1080   25.3490  -27.5270 C   0  0  0  0  0  0  0  0  0  0  0  0
   -1.6230   25.5310  -26.2330 C   0  0  0  0  0  0  0  0  0  0  0  0
   -0.7550   26.0540  -25.1550 C   0  0  0  0  0  0  0  0  0  0  0  0
    0.5940   25.9910  -25.1580 N   0  0  0  0  0  0  0  0  0  0  0  0
    1.1440   26.5600  -24.0380 C   0  0  0  0  0  0  0  0  0  0  0  0
    2.6350   26.5380  -23.7950 C   0  0  2  0  0  0  0  0  0  0  0  0
    3.1760   25.1330  -23.5780 C   0  0  0  0  0  0  0  0  0  0  0  0
    4.4200   25.3390  -22.7360 C   0  0  0  0  0  0  0  0  0  0  0  0
    4.3040   26.7540  -22.1700 C   0  0  0  0  0  0  0  0  0  0  0  0
    3.0180   27.3060  -22.6070 N   0  0  0  0  0  0  0  0  0  0  0  0
    0.2820   27.0560  -23.1060 N   0  0  0  0  0  0  0  0  0  0  0  0
   -1.2290   26.7960  -23.7440 S   0  0  0  0  0  0  0  0  0  0  0  0
   -2.9680   25.2110  -25.9840 C   0  0  0  0  0  0  0  0  0  0  0  0
   -3.7800   24.7170  -27.0080 C   0  0  0  0  0  0  0  0  0  0  0  0
   -5.1410   24.8180  -29.9510 C   0  0  0  0  0  0  0  0  0  0  0  0
   -5.9510   24.3270  -30.9790 C   0  0  0  0  0  0  0  0  0  0  0  0
   -8.6700   21.5230  -32.0120 N   0  0  0  0  0  0  0  0  0  0  0  0
  -10.5249   20.5640  -31.5527 H   0  0  0  0  0  0  0  0  0  0  0  0
   -9.6846   18.2817  -32.2013 H   0  0  0  0  0  0  0  0  0  0  0  0
   -4.8557   20.6138  -33.5705 H   0  0  0  0  0  0  0  0  0  0  0  0
   -4.6204   21.1941  -31.2810 H   0  0  0  0  0  0  0  0  0  0  0  0
   -3.1719   22.0650  -29.4529 H   0  0  0  0  0  0  0  0  0  0  0  0
   -1.5046   24.7223  -29.5610 H   0  0  0  0  0  0  0  0  0  0  0  0
   -0.0563   25.5949  -27.7352 H   0  0  0  0  0  0  0  0  0  0  0  0
    3.0608   26.9813  -24.7072 H   0  0  0  0  0  0  0  0  0  0  0  0
    2.4425   24.5107  -23.0444 H   0  0  0  0  0  0  0  0  0  0  0  0
    3.3888   24.6129  -24.5236 H   0  0  0  0  0  0  0  0  0  0  0  0
    4.4583   24.6014  -21.9208 H   0  0  0  0  0  0  0  0  0  0  0  0
    5.3380   25.2118  -23.3285 H   0  0  0  0  0  0  0  0  0  0  0  0
    4.3438   26.7222  -21.0712 H   0  0  0  0  0  0  0  0  0  0  0  0
    5.1337   27.3810  -22.5285 H   0  0  0  0  0  0  0  0  0  0  0  0
    2.3170   27.1770  -21.8390 H   0  0  0  0  0  0  0  0  0  0  0  0
    3.1120   28.3230  -22.8370 H   0  0  0  0  0  0  0  0  0  0  0  0
   -3.3848   25.3504  -24.9756 H   0  0  0  0  0  0  0  0  0  0  0  0
   -4.8305   24.4674  -26.7980 H   0  0  0  0  0  0  0  0  0  0  0  0
   -5.2955   25.8403  -29.5755 H   0  0  0  0  0  0  0  0  0  0  0  0
   -6.7432   24.9630  -31.4008 H   0  0  0  0  0  0  0  0  0  0  0  0
  1  2  2  0
  2  3  1  0
  3  4  1  0
  4  5  1  0
  5  6  1  0
  6  7  1  0
  7  8  2  0
  8  9  1  0
  9 10  1  0
  5 11  2  0
 11 12  1  0
 12 13  1  0
 13 14  1  0
 14 15  1  0
 15 16  2  0
 16 17  1  0
 17 18  2  0
 18 19  1  0
 19 20  2  0
 20 21  1  0
 21 22  2  0
 22 23  1  0
 23 24  2  0
 24 25  1  0
 25 26  1  0
 26 27  1  0
 27 28  1  0
 28 29  1  0
 29 30  1  0
 25 31  2  0
 31 32  1  0
 22 33  1  0
 33 34  2  0
 18 35  1  0
 35 36  2  0
 13 37  2  0
 37  1  1  0
 12  3  2  0
 36 15  1  0
 10  6  2  0
 34 19  1  0
 32 23  1  0
 30 26  1  0
  1 38  1  0
  2 39  1  0
 11 40  1  0
 16 41  1  0
 17 42  1  0
 20 43  1  0
 21 44  1  0
 26 45  1  6
 27 46  1  0
 27 47  1  0
 28 48  1  0
 28 49  1  0
 29 50  1  0
 29 51  1  0
 30 52  1  0
 30 53  1  0
 33 54  1  0
 34 55  1  0
 35 56  1  0
 36 57  1  0
M  CHG  2   9  -1  30   1
M  END
>  <UniqueID>  (24) 
24

>  <SMILES>  (24) 
c1cc2sc(-c3nn[n-]n3)cc2c(Oc2ccc(-c3ccc(-c4nc([C@@H]5CCC[NH2+]5)ns4)cc3)cc2)n1

>  <Energy>  (24) 
188.43857604408075

>  <Genealogy>  (24) 
c1cc2sc(-c3nn[n-]n3)cc2c(Oc2ccc(-c3ccc(-c4nc(C5CCC[NH2+]5)ns4)cc3)cc2)n1 (protonated)
c1cc2sc(-c3nn[n-]n3)cc2c(Oc2ccc(-c3ccc(-c4nc([C@@H]5CCC[NH2+]5)ns4)cc3)cc2)n1 (chirality)
c1cc2sc(-c3nn[n-]n3)cc2c(Oc2ccc(-c3ccc(-c4nc([C@@H]5CCC[NH2+]5)ns4)cc3)cc2)n1 (3D coordinates assigned)
c1cc2sc(-c3nn[n-]n3)cc2c(Oc2ccc(-c3ccc(-c4nc([C@@H]5CCC[NH2+]5)ns4)cc3)cc2)n1 (nonaromatic ring conformer: 188.43857604408075 kcal/mol)

>  <smiles>  (24) 
c1cc2sc(-c3nn[nH]n3)cc2c(Oc2ccc(-c3ccc(-c4nc(C5CCCN5)ns4)cc3)cc2)n1

>  <score_type>  (24) 
oracle

>  <origin>  (24) 
adgpu

>  <m_score__min__energy>  (24) 
-11.66

>  <m_primary>  (24) 
energy

$$$$
24:0
     RDKit          3D

 41 43  0  0  0  0  0  0  0  0999 V2000
   -0.1410   23.1610  -24.7400 C   0  0  0  0  0  0  0  0  0  0  0  0
   -0.4650   22.2180  -25.7570 O   0  0  0  0  0  0  0  0  0  0  0  0
   -1.1210   22.5380  -26.9550 C   0  0  0  0  0  0  0  0  0  0  0  0
   -1.8310   21.5860  -27.7010 C   0  0  0  0  0  0  0  0  0  0  0  0
   -2.4580   21.9530  -28.8910 C   0  0  0  0  0  0  0  0  0  0  0  0
   -2.3740   23.2720  -29.3750 C   0  0  0  0  0  0  0  0  0  0  0  0
   -3.0030   23.6240  -30.6170 N   0  0  0  0  0  0  0  0  0  0  0  0
   -4.1960   24.4030  -30.7800 C   0  0  0  0  0  0  0  0  0  0  0  0
   -4.0970   25.6560  -30.8440 O   0  0  0  0  0  0  0  0  0  0  0  0
   -5.5310   23.7820  -30.8940 C   0  0  0  0  0  0  0  0  0  0  0  0
   -6.7110   24.2190  -30.2850 C   0  0  0  0  0  0  0  0  0  0  0  0
   -6.8620   25.4360  -29.4320 C   0  0  0  0  0  0  0  0  0  0  0  0
   -7.7040   23.3920  -30.5550 O   0  0  0  0  0  0  0  0  0  0  0  0
   -7.2200   22.4410  -31.3130 C   0  0  0  0  0  0  0  0  0  0  0  0
   -7.9100   21.3950  -31.8200 N   0  0  0  0  0  0  0  0  0  0  0  0
   -7.2520   20.4990  -32.6130 C   0  0  0  0  0  0  0  0  0  0  0  0
   -5.9140   20.6610  -32.9040 N   0  0  0  0  0  0  0  0  0  0  0  0
   -5.2450   19.7020  -33.7900 C   0  0  0  0  0  0  0  0  0  0  0  0
   -5.2220   21.7400  -32.4060 C   0  0  0  0  0  0  0  0  0  0  0  0
   -4.0190   21.9400  -32.7230 O   0  0  0  0  0  0  0  0  0  0  0  0
   -5.8940   22.6250  -31.5640 C   0  0  0  0  0  0  0  0  0  0  0  0
   -1.6900   24.2470  -28.6030 C   0  0  0  0  0  0  0  0  0  0  0  0
   -1.5770   25.6070  -28.9520 O   0  0  0  0  0  0  0  0  0  0  0  0
   -0.8950   26.6200  -28.2200 C   0  0  0  0  0  0  0  0  0  0  0  0
   -1.0640   23.8570  -27.4110 C   0  0  0  0  0  0  0  0  0  0  0  0
   -0.2982   22.7034  -23.7521 H   0  0  0  0  0  0  0  0  0  0  0  0
    0.9121   23.4621  -24.8412 H   0  0  0  0  0  0  0  0  0  0  0  0
   -0.7867   24.0458  -24.8412 H   0  0  0  0  0  0  0  0  0  0  0  0
   -1.8934   20.5467  -27.3462 H   0  0  0  0  0  0  0  0  0  0  0  0
   -3.0259   21.2016  -29.4592 H   0  0  0  0  0  0  0  0  0  0  0  0
   -6.8261   25.1470  -28.3712 H   0  0  0  0  0  0  0  0  0  0  0  0
   -6.0442   26.1392  -29.6483 H   0  0  0  0  0  0  0  0  0  0  0  0
   -7.8268   25.9180  -29.6483 H   0  0  0  0  0  0  0  0  0  0  0  0
   -7.7965   19.6366  -33.0251 H   0  0  0  0  0  0  0  0  0  0  0  0
   -4.7194   18.9486  -33.1848 H   0  0  0  0  0  0  0  0  0  0  0  0
   -5.9936   19.2053  -34.4247 H   0  0  0  0  0  0  0  0  0  0  0  0
   -4.5204   20.2330  -34.4247 H   0  0  0  0  0  0  0  0  0  0  0  0
   -1.0171   26.4386  -27.1420 H   0  0  0  0  0  0  0  0  0  0  0  0
    0.1746   26.6004  -28.4762 H   0  0  0  0  0  0  0  0  0  0  0  0
   -1.3155   27.6036  -28.4762 H   0  0  0  0  0  0  0  0  0  0  0  0
   -0.5156   24.6065  -26.8215 H   0  0  0  0  0  0  0  0  0  0  0  0
  1  2  1  0
  2  3  1  0
  3  4  2  0
  4  5  1  0
  5  6  2  0
  6  7  1  0
  7  8  1  0
  8  9  2  0
  8 10  1  0
 10 11  2  0
 11 12  1  0
 11 13  1  0
 13 14  1  0
 14 15  1  0
 15 16  2  0
 16 17  1  0
 17 18  1  0
 17 19  1  0
 19 20  2  0
 19 21  1  0
  6 22  1  0
 22 23  1  0
 23 24  1  0
 22 25  2  0
 25  3  1  0
 21 10  1  0
 21 14  2  0
  1 26  1  0
  1 27  1  0
  1 28  1  0
  4 29  1  0
  5 30  1  0
 12 31  1  0
 12 32  1  0
 12 33  1  0
 16 34  1  0
 18 35  1  0
 18 36  1  0
 18 37  1  0
 24 38  1  0
 24 39  1  0
 24 40  1  0
 25 41  1  0
M  CHG  1   7  -1
M  END
>  <UniqueID>  (25) 
25

>  <SMILES>  (25) 
COc1ccc([N-]C(=O)c2c(C)oc3ncn(C)c(=O)c23)c(OC)c1

>  <Energy>  (25) 
90.2341148190048

>  <Genealogy>  (25) 
COc1ccc([N-]C(=O)c2c(C)oc3ncn(C)c(=O)c23)c(OC)c1 (protonated)
COc1ccc([N-]C(=O)c2c(C)oc3ncn(C)c(=O)c23)c(OC)c1 (3D coordinates assigned)
COc1ccc([N-]C(=O)c2c(C)oc3ncn(C)c(=O)c23)c(OC)c1 (optimized conformer: 90.2341148190048 kcal/mol)

>  <smiles>  (25) 
COc1ccc(NC(=O)c2c(C)oc3ncn(C)c(=O)c23)c(OC)c1

>  <score_type>  (25) 
oracle

>  <origin>  (25) 
adgpu

>  <m_score__min__energy>  (25) 
-8.5800000000000001

>  <m_primary>  (25) 
energy

$$$$
25:0
     RDKit          3D

 28 29  0  0  0  0  0  0  0  0999 V2000
   -8.7020   20.6720  -31.2050 C   0  0  0  0  0  0  0  0  0  0  0  0
   -9.0830   21.8020  -32.1550 C   0  0  0  0  0  0  0  0  0  0  0  0
   -8.7220   23.0690  -31.6050 O   0  0  0  0  0  0  0  0  0  0  0  0
   -7.4120   23.4990  -31.3350 C   0  0  0  0  0  0  0  0  0  0  0  0
   -6.2770   22.9140  -31.9300 C   0  0  0  0  0  0  0  0  0  0  0  0
   -4.9980   23.3870  -31.6250 C   0  0  0  0  0  0  0  0  0  0  0  0
   -4.8280   24.4590  -30.7410 C   0  0  0  0  0  0  0  0  0  0  0  0
   -3.4940   24.8980  -30.4410 N   0  0  0  0  0  0  0  0  0  0  0  0
   -2.4880   24.1600  -29.7360 C   0  0  0  0  0  0  0  0  0  0  0  0
   -2.4890   22.8990  -29.7470 O   0  0  0  0  0  0  0  0  0  0  0  0
   -1.4780   24.8740  -28.9470 C   0  0  0  0  0  0  0  0  0  0  0  0
   -0.3050   24.3480  -28.4580 C   0  0  0  0  0  0  0  0  0  0  0  0
    0.3540   25.3080  -27.7860 N   0  0  0  0  0  0  0  0  0  0  0  0
   -0.4440   26.3910  -27.8890 C   0  0  0  0  0  0  0  0  0  0  0  0
   -1.5740   26.1680  -28.5930 N   0  0  0  0  0  0  0  0  0  0  0  0
   -5.9580   25.0320  -30.1330 C   0  0  0  0  0  0  0  0  0  0  0  0
   -7.2380   24.5580  -30.4370 C   0  0  0  0  0  0  0  0  0  0  0  0
   -8.8168   21.0126  -30.1654 H   0  0  0  0  0  0  0  0  0  0  0  0
   -9.3582   19.8071  -31.3821 H   0  0  0  0  0  0  0  0  0  0  0  0
   -7.6561   20.3810  -31.3821 H   0  0  0  0  0  0  0  0  0  0  0  0
   -8.5586   21.6613  -33.1117 H   0  0  0  0  0  0  0  0  0  0  0  0
  -10.1720   21.7815  -32.3091 H   0  0  0  0  0  0  0  0  0  0  0  0
   -6.3981   22.0809  -32.6380 H   0  0  0  0  0  0  0  0  0  0  0  0
   -4.1175   22.9131  -32.0833 H   0  0  0  0  0  0  0  0  0  0  0  0
    0.0378   23.3117  -28.5944 H   0  0  0  0  0  0  0  0  0  0  0  0
   -0.1969   27.3648  -27.4411 H   0  0  0  0  0  0  0  0  0  0  0  0
   -5.8352   25.8565  -29.4153 H   0  0  0  0  0  0  0  0  0  0  0  0
   -8.1168   25.0222  -29.9656 H   0  0  0  0  0  0  0  0  0  0  0  0
  1  2  1  0
  2  3  1  0
  3  4  1  0
  4  5  2  0
  5  6  1  0
  6  7  2  0
  7  8  1  0
  8  9  1  0
  9 10  2  0
  9 11  1  0
 11 12  2  0
 12 13  1  0
 13 14  1  0
 14 15  2  0
  7 16  1  0
 16 17  2  0
 17  4  1  0
 15 11  1  0
  1 18  1  0
  1 19  1  0
  1 20  1  0
  2 21  1  0
  2 22  1  0
  5 23  1  0
  6 24  1  0
 12 25  1  0
 14 26  1  0
 16 27  1  0
 17 28  1  0
M  CHG  2   8  -1  13  -1
M  END
>  <UniqueID>  (26) 
26

>  <SMILES>  (26) 
CCOc1ccc([N-]C(=O)c2c[n-]cn2)cc1

>  <Energy>  (26) 
56.23987996840453

>  <Genealogy>  (26) 
CCOc1ccc([N-]C(=O)c2c[n-]cn2)cc1 (protonated)
CCOc1ccc([N-]C(=O)c2c[n-]cn2)cc1 (3D coordinates assigned)
CCOc1ccc([N-]C(=O)c2c[n-]cn2)cc1 (optimized conformer: 56.23987996840453 kcal/mol)

>  <smiles>  (26) 
CCOc1ccc(NC(=O)c2c[nH]cn2)cc1

>  <score_type>  (26) 
oracle

>  <origin>  (26) 
adgpu

>  <m_score__min__energy>  (26) 
-8.3499999999999996

>  <m_primary>  (26) 
energy

$$$$
26:0
     RDKit          3D

 47 48  0  0  0  0  0  0  0  0999 V2000
   -2.3390   16.6680  -35.0700 C   0  0  0  0  0  0  0  0  0  0  0  0
   -3.0720   16.8220  -33.8580 O   0  0  0  0  0  0  0  0  0  0  0  0
   -4.2470   17.5790  -33.7330 C   0  0  0  0  0  0  0  0  0  0  0  0
   -5.5110   16.9790  -33.5790 C   0  0  0  0  0  0  0  0  0  0  0  0
   -6.6500   17.7660  -33.4070 C   0  0  0  0  0  0  0  0  0  0  0  0
   -6.5480   19.1640  -33.3810 C   0  0  0  0  0  0  0  0  0  0  0  0
   -7.7690   20.0040  -33.1100 C   0  0  0  0  0  0  0  0  0  0  0  0
   -7.9970   20.1600  -31.6580 N   0  0  0  0  0  0  0  0  0  0  0  0
   -9.0740   19.2600  -31.2260 C   0  0  0  0  0  0  0  0  0  0  0  0
   -8.4390   21.8100  -31.2590 S   0  0  0  0  0  0  0  0  0  0  0  0
   -9.3390   22.3720  -32.3250 O   0  0  0  0  0  0  0  0  0  0  0  0
   -9.1700   21.8450  -29.9450 O   0  0  0  0  0  0  0  0  0  0  0  0
   -6.9910   22.8000  -31.0980 C   0  0  0  0  0  0  0  0  0  0  0  0
   -5.7430   22.3220  -31.5200 C   0  0  0  0  0  0  0  0  0  0  0  0
   -4.5870   23.0730  -31.2880 C   0  0  0  0  0  0  0  0  0  0  0  0
   -4.6700   24.3260  -30.6500 C   0  0  0  0  0  0  0  0  0  0  0  0
   -3.5050   25.0940  -30.3120 N   0  0  0  0  0  0  0  0  0  0  0  0
   -2.6300   24.8900  -29.1970 C   0  0  0  0  0  0  0  0  0  0  0  0
   -2.8800   23.7450  -28.2730 C   0  0  0  0  0  0  0  0  0  0  0  0
   -1.6600   25.6640  -28.9820 O   0  0  0  0  0  0  0  0  0  0  0  0
   -5.9230   24.8060  -30.2500 C   0  0  0  0  0  0  0  0  0  0  0  0
   -7.0780   24.0520  -30.4800 C   0  0  0  0  0  0  0  0  0  0  0  0
   -5.2970   19.7660  -33.5810 C   0  0  0  0  0  0  0  0  0  0  0  0
   -4.1410   18.9780  -33.7460 C   0  0  0  0  0  0  0  0  0  0  0  0
   -2.8670   19.5470  -33.8970 O   0  0  0  0  0  0  0  0  0  0  0  0
   -2.4960   20.8370  -33.4210 C   0  0  0  0  0  0  0  0  0  0  0  0
   -1.2870   16.4470  -34.8367 H   0  0  0  0  0  0  0  0  0  0  0  0
   -2.7667   15.8401  -35.6545 H   0  0  0  0  0  0  0  0  0  0  0  0
   -2.3974   17.5980  -35.6545 H   0  0  0  0  0  0  0  0  0  0  0  0
   -5.6012   15.8828  -33.5944 H   0  0  0  0  0  0  0  0  0  0  0  0
   -7.6335   17.2870  -33.2912 H   0  0  0  0  0  0  0  0  0  0  0  0
   -7.6284   20.9977  -33.5602 H   0  0  0  0  0  0  0  0  0  0  0  0
   -8.6433   19.5006  -33.5485 H   0  0  0  0  0  0  0  0  0  0  0  0
   -9.1088   19.2309  -30.1269 H   0  0  0  0  0  0  0  0  0  0  0  0
  -10.0359   19.6267  -31.6137 H   0  0  0  0  0  0  0  0  0  0  0  0
   -8.8840   18.2483  -31.6137 H   0  0  0  0  0  0  0  0  0  0  0  0
   -5.6729   21.3528  -32.0354 H   0  0  0  0  0  0  0  0  0  0  0  0
   -3.6083   22.6837  -31.6051 H   0  0  0  0  0  0  0  0  0  0  0  0
   -2.8045   24.0910  -27.2316 H   0  0  0  0  0  0  0  0  0  0  0  0
   -3.8874   23.3416  -28.4532 H   0  0  0  0  0  0  0  0  0  0  0  0
   -2.1324   22.9584  -28.4532 H   0  0  0  0  0  0  0  0  0  0  0  0
   -5.9994   25.7834  -29.7512 H   0  0  0  0  0  0  0  0  0  0  0  0
   -8.0588   24.4449  -30.1738 H   0  0  0  0  0  0  0  0  0  0  0  0
   -5.2179   20.8628  -33.6093 H   0  0  0  0  0  0  0  0  0  0  0  0
   -2.4963   20.8360  -32.3210 H   0  0  0  0  0  0  0  0  0  0  0  0
   -1.4894   21.0874  -33.7872 H   0  0  0  0  0  0  0  0  0  0  0  0
   -3.2157   21.5839  -33.7872 H   0  0  0  0  0  0  0  0  0  0  0  0
  1  2  1  0
  2  3  1  0
  3  4  2  0
  4  5  1  0
  5  6  2  0
  6  7  1  0
  7  8  1  0
  8  9  1  0
  8 10  1  0
 10 11  2  0
 10 12  2  0
 10 13  1  0
 13 14  2  0
 14 15  1  0
 15 16  2  0
 16 17  1  0
 17 18  1  0
 18 19  1  0
 18 20  2  0
 16 21  1  0
 21 22  2  0
  6 23  1  0
 23 24  2  0
 24 25  1  0
 25 26  1  0
 24  3  1  0
 22 13  1  0
  1 27  1  0
  1 28  1  0
  1 29  1  0
  4 30  1  0
  5 31  1  0
  7 32  1  0
  7 33  1  0
  9 34  1  0
  9 35  1  0
  9 36  1  0
 14 37  1  0
 15 38  1  0
 19 39  1  0
 19 40  1  0
 19 41  1  0
 21 42  1  0
 22 43  1  0
 23 44  1  0
 26 45  1  0
 26 46  1  0
 26 47  1  0
M  CHG  1  17  -1
M  END
>  <UniqueID>  (27) 
27

>  <SMILES>  (27) 
COc1ccc(CN(C)S(=O)(=O)c2ccc([N-]C(C)=O)cc2)cc1OC

>  <Energy>  (27) 
41.19109358670246

>  <Genealogy>  (27) 
COc1ccc(CN(C)S(=O)(=O)c2ccc([N-]C(C)=O)cc2)cc1OC (protonated)
COc1ccc(CN(C)S(=O)(=O)c2ccc([N-]C(C)=O)cc2)cc1OC (3D coordinates assigned)
COc1ccc(CN(C)S(=O)(=O)c2ccc([N-]C(C)=O)cc2)cc1OC (optimized conformer: 41.19109358670246 kcal/mol)

>  <smiles>  (27) 
COc1ccc(CN(C)S(=O)(=O)c2ccc(NC(C)=O)cc2)cc1OC

>  <score_type>  (27) 
oracle

>  <origin>  (27) 
adgpu

>  <m_score__min__energy>  (27) 
-10.32

>  <m_primary>  (27) 
energy

$$$$
27:0
     RDKit          3D

 46 48  0  0  0  0  0  0  0  0999 V2000
   -8.2800   18.2990  -31.5850 C   0  0  0  0  0  0  0  0  0  0  0  0
   -8.3250   19.6100  -32.2430 N   0  0  0  0  0  0  0  0  0  0  0  0
   -9.5940   20.3340  -32.3470 C   0  0  0  0  0  0  0  0  0  0  0  0
   -7.1160   20.2380  -32.7160 C   0  0  0  0  0  0  0  0  0  0  0  0
   -7.0520   21.4950  -32.7860 O   0  0  0  0  0  0  0  0  0  0  0  0
   -5.9520   19.4410  -33.1620 C   0  0  0  0  0  0  0  0  0  0  0  0
   -6.1200   18.5140  -34.2050 C   0  0  0  0  0  0  0  0  0  0  0  0
   -5.0280   17.8060  -34.7110 C   0  0  0  0  0  0  0  0  0  0  0  0
   -3.7510   18.0310  -34.1990 C   0  0  0  0  0  0  0  0  0  0  0  0
   -3.5630   18.9620  -33.1760 C   0  0  0  0  0  0  0  0  0  0  0  0
   -4.6540   19.6650  -32.6410 C   0  0  0  0  0  0  0  0  0  0  0  0
   -4.4100   20.5940  -31.5750 N   0  0  0  0  0  0  0  0  0  0  0  0
   -3.7660   21.8540  -31.8200 C   0  0  0  0  0  0  0  0  0  0  0  0
   -2.8360   21.9350  -32.6670 O   0  0  0  0  0  0  0  0  0  0  0  0
   -4.2650   23.0850  -31.1650 C   0  0  0  0  0  0  0  0  0  0  0  0
   -5.5780   23.4820  -31.4710 C   0  0  0  0  0  0  0  0  0  0  0  0
   -6.0250   24.7630  -31.1560 C   0  0  0  0  0  0  0  0  0  0  0  0
   -5.1490   25.6570  -30.5520 C   0  0  0  0  0  0  0  0  0  0  0  0
   -3.8960   25.2580  -30.2160 N   0  0  0  0  0  0  0  0  0  0  0  0
   -3.4320   24.0010  -30.4530 C   0  0  0  0  0  0  0  0  0  0  0  0
   -2.2530   23.7050  -29.9770 N   0  0  0  0  0  0  0  0  0  0  0  0
   -1.6440   22.4200  -29.7920 C   0  0  0  0  0  0  0  0  0  0  0  0
   -0.6960   21.9350  -30.7100 C   0  0  0  0  0  0  0  0  0  0  0  0
   -0.2090   20.6290  -30.5940 C   0  0  0  0  0  0  0  0  0  0  0  0
   -0.6740   19.7980  -29.5720 C   0  0  0  0  0  0  0  0  0  0  0  0
   -1.6320   20.2690  -28.6690 C   0  0  0  0  0  0  0  0  0  0  0  0
   -2.1270   21.5710  -28.7880 C   0  0  0  0  0  0  0  0  0  0  0  0
   -8.2847   18.4362  -30.4936 H   0  0  0  0  0  0  0  0  0  0  0  0
   -9.1584   17.7083  -31.8841 H   0  0  0  0  0  0  0  0  0  0  0  0
   -7.3632   17.7699  -31.8841 H   0  0  0  0  0  0  0  0  0  0  0  0
   -9.9756   20.5517  -31.3386 H   0  0  0  0  0  0  0  0  0  0  0  0
   -9.4346   21.2771  -32.8903 H   0  0  0  0  0  0  0  0  0  0  0  0
  -10.3248   19.7169  -32.8903 H   0  0  0  0  0  0  0  0  0  0  0  0
   -7.1217   18.3446  -34.6269 H   0  0  0  0  0  0  0  0  0  0  0  0
   -5.1756   17.0697  -35.5148 H   0  0  0  0  0  0  0  0  0  0  0  0
   -2.8914   17.4748  -34.6012 H   0  0  0  0  0  0  0  0  0  0  0  0
   -2.5512   19.1464  -32.7857 H   0  0  0  0  0  0  0  0  0  0  0  0
   -5.0340   20.5300  -30.7390 H   0  0  0  0  0  0  0  0  0  0  0  0
   -6.2598   22.7737  -31.9644 H   0  0  0  0  0  0  0  0  0  0  0  0
   -7.0587   25.0634  -31.3825 H   0  0  0  0  0  0  0  0  0  0  0  0
   -5.4713   26.6884  -30.3462 H   0  0  0  0  0  0  0  0  0  0  0  0
   -0.3363   22.5844  -31.5217 H   0  0  0  0  0  0  0  0  0  0  0  0
    0.5404   20.2562  -31.3077 H   0  0  0  0  0  0  0  0  0  0  0  0
   -0.2864   18.7729  -29.4776 H   0  0  0  0  0  0  0  0  0  0  0  0
   -1.9967   19.6142  -27.8639 H   0  0  0  0  0  0  0  0  0  0  0  0
   -2.8984   21.9300  -28.0908 H   0  0  0  0  0  0  0  0  0  0  0  0
  1  2  1  0
  2  3  1  0
  2  4  1  0
  4  5  2  0
  4  6  1  0
  6  7  2  0
  7  8  1  0
  8  9  2  0
  9 10  1  0
 10 11  2  0
 11 12  1  0
 12 13  1  0
 13 14  2  0
 13 15  1  0
 15 16  2  0
 16 17  1  0
 17 18  2  0
 18 19  1  0
 19 20  1  0
 20 21  2  3
 21 22  1  0
 22 23  2  0
 23 24  1  0
 24 25  2  0
 25 26  1  0
 26 27  2  0
 11  6  1  0
 20 15  1  0
 27 22  1  0
  1 28  1  0
  1 29  1  0
  1 30  1  0
  3 31  1  0
  3 32  1  0
  3 33  1  0
  7 34  1  0
  8 35  1  0
  9 36  1  0
 10 37  1  0
 12 38  1  0
 16 39  1  0
 17 40  1  0
 18 41  1  0
 23 42  1  0
 24 43  1  0
 25 44  1  0
 26 45  1  0
 27 46  1  0
M  CHG  1  19  -1
M  END
>  <UniqueID>  (28) 
28

>  <SMILES>  (28) 
CN(C)C(=O)c1ccccc1NC(=O)c1ccc[n-]c1=Nc1ccccc1

>  <Energy>  (28) 
79.28618997877878

>  <Genealogy>  (28) 
CN(C)C(=O)c1ccccc1NC(=O)c1ccc[n-]c1=Nc1ccccc1 (protonated)
CN(C)C(=O)c1ccccc1NC(=O)c1ccc[n-]c1=Nc1ccccc1 (3D coordinates assigned)
CN(C)C(=O)c1ccccc1NC(=O)c1ccc[n-]c1=Nc1ccccc1 (optimized conformer: 79.28618997877878 kcal/mol)

>  <smiles>  (28) 
CN(C)C(=O)c1ccccc1NC(=O)c1ccc[nH]c1=Nc1ccccc1

>  <score_type>  (28) 
oracle

>  <origin>  (28) 
adgpu

>  <m_score__min__energy>  (28) 
-9.8399999999999999

>  <m_primary>  (28) 
energy

$$$$
28:0
     RDKit          3D

 57 60  0  0  0  0  0  0  0  0999 V2000
    0.7690   26.8990  -24.5490 C   0  0  0  0  0  0  0  0  0  0  0  0
    2.0690   26.3150  -24.0690 C   0  0  0  0  0  0  0  0  0  0  0  0
    2.9250   27.1000  -23.2780 C   0  0  0  0  0  0  0  0  0  0  0  0
    4.1320   26.5770  -22.8060 C   0  0  0  0  0  0  0  0  0  0  0  0
    4.4920   25.2630  -23.1120 C   0  0  0  0  0  0  0  0  0  0  0  0
    3.6420   24.4650  -23.8800 C   0  0  0  0  0  0  0  0  0  0  0  0
    2.4250   24.9780  -24.3540 C   0  0  0  0  0  0  0  0  0  0  0  0
    1.5680   24.1300  -25.1290 N   0  0  0  0  0  0  0  0  0  0  0  0
    1.7150   24.1040  -26.5900 C   0  0  0  0  0  0  0  0  0  0  0  0
    0.6500   23.2170  -27.2410 C   0  0  0  0  0  0  0  0  0  0  0  0
   -0.6640   23.4950  -26.6470 N   0  0  0  0  0  0  0  0  0  0  0  0
   -1.8380   23.4900  -27.4710 C   0  0  0  0  0  0  0  0  0  0  0  0
   -2.6500   22.3990  -27.4680 N   0  0  0  0  0  0  0  0  0  0  0  0
   -3.7750   22.3320  -28.2270 C   0  0  0  0  0  0  0  0  0  0  0  0
   -4.1470   23.4110  -29.0450 C   0  0  0  0  0  0  0  0  0  0  0  0
   -5.3720   23.3280  -29.8760 C   0  0  0  0  0  0  0  0  0  0  0  0
   -6.4100   22.7980  -29.3930 O   0  0  0  0  0  0  0  0  0  0  0  0
   -5.4030   23.8550  -31.2140 N   0  0  0  0  0  0  0  0  0  0  0  0
   -6.5760   23.7290  -32.0750 C   0  0  0  0  0  0  0  0  0  0  0  0
   -7.0290   22.2950  -32.1230 C   0  0  0  0  0  0  0  0  0  0  0  0
   -6.1680   21.2890  -32.5910 C   0  0  0  0  0  0  0  0  0  0  0  0
   -6.5850   19.9550  -32.6090 C   0  0  0  0  0  0  0  0  0  0  0  0
   -7.8680   19.6020  -32.1550 C   0  0  0  0  0  0  0  0  0  0  0  0
   -8.2950   18.2270  -32.1770 N   0  0  0  0  0  0  0  0  0  0  0  0
   -7.5880   17.3480  -32.7130 O   0  0  0  0  0  0  0  0  0  0  0  0
   -9.4900   17.8570  -31.6030 O   0  0  0  0  0  0  0  0  0  0  0  0
   -8.7240   20.6130  -31.6800 C   0  0  0  0  0  0  0  0  0  0  0  0
   -8.3060   21.9460  -31.6610 C   0  0  0  0  0  0  0  0  0  0  0  0
   -3.3210   24.5470  -29.0600 C   0  0  0  0  0  0  0  0  0  0  0  0
   -2.1690   24.5970  -28.2700 C   0  0  0  0  0  0  0  0  0  0  0  0
   -1.2000   26.0650  -28.2610 Cl  0  0  0  0  0  0  0  0  0  0  0  0
   -0.8230   23.5670  -25.1880 C   0  0  0  0  0  0  0  0  0  0  0  0
    0.5110   23.3610  -24.4640 C   0  0  0  0  0  0  0  0  0  0  0  0
    0.1501   27.1770  -23.6832 H   0  0  0  0  0  0  0  0  0  0  0  0
    0.9710   27.7928  -25.1575 H   0  0  0  0  0  0  0  0  0  0  0  0
    0.2350   26.1543  -25.1575 H   0  0  0  0  0  0  0  0  0  0  0  0
    2.6430   28.1336  -23.0285 H   0  0  0  0  0  0  0  0  0  0  0  0
    4.7990   27.2010  -22.1929 H   0  0  0  0  0  0  0  0  0  0  0  0
    5.4467   24.8560  -22.7474 H   0  0  0  0  0  0  0  0  0  0  0  0
    3.9277   23.4290  -24.1147 H   0  0  0  0  0  0  0  0  0  0  0  0
    1.6145   25.1282  -26.9785 H   0  0  0  0  0  0  0  0  0  0  0  0
    2.7055   23.6913  -26.8318 H   0  0  0  0  0  0  0  0  0  0  0  0
    0.6133   23.4241  -28.3207 H   0  0  0  0  0  0  0  0  0  0  0  0
    0.9069   22.1606  -27.0732 H   0  0  0  0  0  0  0  0  0  0  0  0
   -4.3986   21.4263  -28.2005 H   0  0  0  0  0  0  0  0  0  0  0  0
   -4.6160   24.4490  -31.5580 H   0  0  0  0  0  0  0  0  0  0  0  0
   -7.3887   24.3544  -31.6769 H   0  0  0  0  0  0  0  0  0  0  0  0
   -6.3144   24.0587  -33.0913 H   0  0  0  0  0  0  0  0  0  0  0  0
   -5.1604   21.5522  -32.9452 H   0  0  0  0  0  0  0  0  0  0  0  0
   -5.9041   19.1753  -32.9812 H   0  0  0  0  0  0  0  0  0  0  0  0
   -9.7303   20.3516  -31.3208 H   0  0  0  0  0  0  0  0  0  0  0  0
   -8.9824   22.7260  -31.2815 H   0  0  0  0  0  0  0  0  0  0  0  0
   -3.5827   25.4038  -29.6983 H   0  0  0  0  0  0  0  0  0  0  0  0
   -1.2249   24.5556  -24.9212 H   0  0  0  0  0  0  0  0  0  0  0  0
   -1.5101   22.7663  -24.8771 H   0  0  0  0  0  0  0  0  0  0  0  0
    0.4155   23.6993  -23.4217 H   0  0  0  0  0  0  0  0  0  0  0  0
    0.7729   22.2929  -24.4877 H   0  0  0  0  0  0  0  0  0  0  0  0
  1  2  1  0
  2  3  2  0
  3  4  1  0
  4  5  2  0
  5  6  1  0
  6  7  2  0
  7  8  1  0
  8  9  1  0
  9 10  1  0
 10 11  1  0
 11 12  1  0
 12 13  2  0
 13 14  1  0
 14 15  2  0
 15 16  1  0
 16 17  2  0
 16 18  1  0
 18 19  1  0
 19 20  1  0
 20 21  2  0
 21 22  1  0
 22 23  2  0
 23 24  1  0
 24 25  2  0
 24 26  1  0
 23 27  1  0
 27 28  2  0
 15 29  1  0
 29 30  2  0
 30 31  1  0
 11 32  1  0
 32 33  1  0
  7  2  1  0
 33  8  1  0
 30 12  1  0
 28 20  1  0
  1 34  1  0
  1 35  1  0
  1 36  1  0
  3 37  1  0
  4 38  1  0
  5 39  1  0
  6 40  1  0
  9 41  1  0
  9 42  1  0
 10 43  1  0
 10 44  1  0
 14 45  1  0
 18 46  1  0
 19 47  1  0
 19 48  1  0
 21 49  1  0
 22 50  1  0
 27 51  1  0
 28 52  1  0
 29 53  1  0
 32 54  1  0
 32 55  1  0
 33 56  1  0
 33 57  1  0
M  CHG  2  24   1  26  -1
M  END
>  <UniqueID>  (29) 
29

>  <SMILES>  (29) 
Cc1ccccc1N1CCN(c2ncc(C(=O)NCc3ccc([N+](=O)[O-])cc3)cc2Cl)CC1

>  <Energy>  (29) 
73.29290284811692

>  <Genealogy>  (29) 
Cc1ccccc1N1CCN(c2ncc(C(=O)NCc3ccc([N+](=O)[O-])cc3)cc2Cl)CC1 (3D coordinates assigned)
Cc1ccccc1N1CCN(c2ncc(C(=O)NCc3ccc([N+](=O)[O-])cc3)cc2Cl)CC1 (nonaromatic ring conformer: 73.29290284811692 kcal/mol)

>  <smiles>  (29) 
Cc1ccccc1N1CCN(c2ncc(C(=O)NCc3ccc([N+](=O)[O-])cc3)cc2Cl)CC1

>  <score_type>  (29) 
oracle

>  <origin>  (29) 
adgpu

>  <m_score__min__energy>  (29) 
-8.8100000000000005

>  <m_primary>  (29) 
energy

$$$$
29:0
     RDKit          3D

 30 32  0  0  0  0  0  0  0  0999 V2000
   -3.9270   25.7090  -30.8020 O   0  0  0  0  0  0  0  0  0  0  0  0
   -3.5120   24.5360  -30.1820 C   0  0  0  0  0  0  0  0  0  0  0  0
   -4.2680   23.3690  -30.3250 C   0  0  0  0  0  0  0  0  0  0  0  0
   -3.8570   22.1860  -29.7020 C   0  0  0  0  0  0  0  0  0  0  0  0
   -2.6900   22.1640  -28.9190 C   0  0  0  0  0  0  0  0  0  0  0  0
   -2.2410   20.9150  -28.2650 C   0  0  0  0  0  0  0  0  0  0  0  0
   -2.7190   20.4210  -27.0640 C   0  0  0  0  0  0  0  0  0  0  0  0
   -2.0460   19.3430  -26.7310 O   0  0  0  0  0  0  0  0  0  0  0  0
   -1.1450   19.0960  -27.6530 C   0  0  0  0  0  0  0  0  0  0  0  0
   -1.2220   20.0510  -28.6500 C   0  0  0  0  0  0  0  0  0  0  0  0
   -0.4270   20.0560  -29.8980 C   0  0  0  0  0  0  0  0  0  0  0  0
   -0.9150   20.6820  -31.0580 C   0  0  0  0  0  0  0  0  0  0  0  0
   -0.1620   20.6740  -32.2350 C   0  0  0  0  0  0  0  0  0  0  0  0
    1.0820   20.0310  -32.2710 C   0  0  0  0  0  0  0  0  0  0  0  0
    1.8380   20.0210  -33.4420 O   0  0  0  0  0  0  0  0  0  0  0  0
    1.5670   19.3920  -31.1240 C   0  0  0  0  0  0  0  0  0  0  0  0
    2.7980   18.7480  -31.1520 O   0  0  0  0  0  0  0  0  0  0  0  0
    0.8130   19.3990  -29.9450 C   0  0  0  0  0  0  0  0  0  0  0  0
   -1.9270   23.3380  -28.7940 C   0  0  0  0  0  0  0  0  0  0  0  0
   -2.3390   24.5200  -29.4180 C   0  0  0  0  0  0  0  0  0  0  0  0
   -1.5810   25.6770  -29.2760 O   0  0  0  0  0  0  0  0  0  0  0  0
   -5.1876   23.3810  -30.9284 H   0  0  0  0  0  0  0  0  0  0  0  0
   -4.4503   21.2680  -29.8255 H   0  0  0  0  0  0  0  0  0  0  0  0
   -3.5377   20.8635  -26.4775 H   0  0  0  0  0  0  0  0  0  0  0  0
   -0.4354   18.2557  -27.6352 H   0  0  0  0  0  0  0  0  0  0  0  0
   -1.8951   21.1810  -31.0391 H   0  0  0  0  0  0  0  0  0  0  0  0
   -0.5472   21.1741  -33.1359 H   0  0  0  0  0  0  0  0  0  0  0  0
    2.7350   19.5520  -33.4900 H   0  0  0  0  0  0  0  0  0  0  0  0
    1.1942   18.8865  -29.0494 H   0  0  0  0  0  0  0  0  0  0  0  0
   -1.0001   23.3270  -28.2017 H   0  0  0  0  0  0  0  0  0  0  0  0
  1  2  1  0
  2  3  2  0
  3  4  1  0
  4  5  2  0
  5  6  1  0
  6  7  2  0
  7  8  1  0
  8  9  1  0
  9 10  2  0
 10 11  1  0
 11 12  2  0
 12 13  1  0
 13 14  2  0
 14 15  1  0
 14 16  1  0
 16 17  1  0
 16 18  2  0
  5 19  1  0
 19 20  2  0
 20 21  1  0
 20  2  1  0
 10  6  1  0
 18 11  1  0
  3 22  1  0
  4 23  1  0
  7 24  1  0
  9 25  1  0
 12 26  1  0
 13 27  1  0
 15 28  1  0
 18 29  1  0
 19 30  1  0
M  CHG  3   1  -1  17  -1  21  -1
M  END
>  <UniqueID>  (30) 
30

>  <SMILES>  (30) 
[O-]c1ccc(-c2cocc2-c2ccc(O)c([O-])c2)cc1[O-]

>  <Energy>  (30) 
68.05232584591262

>  <Genealogy>  (30) 
[O-]c1ccc(-c2cocc2-c2ccc(O)c([O-])c2)cc1[O-] (protonated)
[O-]c1ccc(-c2cocc2-c2ccc(O)c([O-])c2)cc1[O-] (3D coordinates assigned)
[O-]c1ccc(-c2cocc2-c2ccc(O)c([O-])c2)cc1[O-] (optimized conformer: 68.05232584591262 kcal/mol)

>  <smiles>  (30) 
Oc1ccc(-c2cocc2-c2ccc(O)c(O)c2)cc1O

>  <score_type>  (30) 
oracle

>  <origin>  (30) 
adgpu

>  <m_score__min__energy>  (30) 
-11.65

>  <m_primary>  (30) 
energy

$$$$
30:0
     RDKit          3D

 83 87  0  0  0  0  0  0  0  0999 V2000
   -3.4320   18.6590  -25.4140 C   0  0  0  0  0  0  0  0  0  0  0  0
   -2.3200   19.1150  -26.3090 C   0  0  0  0  0  0  0  0  0  0  0  0
   -2.0730   20.4840  -26.4920 C   0  0  0  0  0  0  0  0  0  0  0  0
   -1.0680   20.9080  -27.3640 C   0  0  0  0  0  0  0  0  0  0  0  0
   -0.3140   19.9710  -28.0880 C   0  0  0  0  0  0  0  0  0  0  0  0
    0.7390   20.4290  -29.0660 C   0  0  0  0  0  0  0  0  0  0  0  0
    0.2620   20.2830  -30.4650 N   0  0  0  0  0  0  0  0  0  0  0  0
   -0.8020   21.0360  -30.9310 C   0  0  0  0  0  0  0  0  0  0  0  0
   -1.3970   22.1580  -30.0980 C   0  0  0  0  0  0  0  0  0  0  0  0
   -1.3560   20.7550  -32.2060 C   0  0  0  0  0  0  0  0  0  0  0  0
   -2.6100   21.3750  -32.6910 C   0  0  0  0  0  0  0  0  0  0  0  0
   -2.6460   21.8910  -33.8420 O   0  0  0  0  0  0  0  0  0  0  0  0
   -3.7940   21.3370  -31.8830 N   0  0  0  0  0  0  0  0  0  0  0  0
   -5.0280   22.0110  -32.2860 C   0  0  0  0  0  0  0  0  0  0  0  0
   -5.3730   23.1040  -31.3020 C   0  0  0  0  0  0  0  0  0  0  0  0
   -4.3890   23.5250  -30.3910 C   0  0  0  0  0  0  0  0  0  0  0  0
   -4.6450   24.5680  -29.5000 C   0  0  0  0  0  0  0  0  0  0  0  0
   -5.8820   25.2080  -29.5100 C   0  0  0  0  0  0  0  0  0  0  0  0
   -6.8690   24.8130  -30.4150 C   0  0  0  0  0  0  0  0  0  0  0  0
   -6.6230   23.7750  -31.3300 C   0  0  0  0  0  0  0  0  0  0  0  0
   -7.7190   23.3690  -32.2820 C   0  0  0  0  0  0  0  0  0  0  0  0
   -0.7270   19.8230  -33.0310 C   0  0  0  0  0  0  0  0  0  0  0  0
    0.3920   19.1220  -32.5880 C   0  0  0  0  0  0  0  0  0  0  0  0
    1.0370   18.1050  -33.5090 C   0  0  0  0  0  0  0  0  0  0  0  0
    0.1820   16.8350  -33.6610 C   0  0  0  0  0  0  0  0  0  0  0  0
   -0.9900   17.0110  -34.5960 C   0  0  0  0  0  0  0  0  0  0  0  0
   -1.0400   18.0270  -35.3410 O   0  0  0  0  0  0  0  0  0  0  0  0
   -2.0930   16.0820  -34.5860 N   0  0  0  0  0  0  0  0  0  0  0  0
   -2.5960   15.5130  -33.3430 C   0  0  0  0  0  0  0  0  0  0  0  0
   -3.7090   16.4050  -32.7890 C   0  0  0  0  0  0  0  0  0  0  0  0
   -4.5700   17.0420  -33.8190 N   0  0  0  0  0  0  0  0  0  0  0  0
   -5.6980   17.8640  -33.3720 C   0  0  0  0  0  0  0  0  0  0  0  0
   -6.5740   17.4220  -32.3480 C   0  0  0  0  0  0  0  0  0  0  0  0
   -7.6380   18.2150  -31.9150 C   0  0  0  0  0  0  0  0  0  0  0  0
   -7.8620   19.4690  -32.4840 C   0  0  0  0  0  0  0  0  0  0  0  0
   -9.1950   20.4630  -31.9280 Cl  0  0  0  0  0  0  0  0  0  0  0  0
   -7.0160   19.9280  -33.4920 C   0  0  0  0  0  0  0  0  0  0  0  0
   -5.9480   19.1400  -33.9330 C   0  0  0  0  0  0  0  0  0  0  0  0
   -4.2470   17.0100  -35.2700 C   0  0  0  0  0  0  0  0  0  0  0  0
   -3.0800   16.0940  -35.6550 C   0  0  0  0  0  0  0  0  0  0  0  0
    0.8630   19.3480  -31.2820 C   0  0  0  0  0  0  0  0  0  0  0  0
    1.8520   18.6800  -30.8690 O   0  0  0  0  0  0  0  0  0  0  0  0
   -0.5590   18.6000  -27.9000 C   0  0  0  0  0  0  0  0  0  0  0  0
   -1.5600   18.1750  -27.0230 C   0  0  0  0  0  0  0  0  0  0  0  0
   -3.1310   18.7824  -24.3632 H   0  0  0  0  0  0  0  0  0  0  0  0
   -4.3314   19.2609  -25.6109 H   0  0  0  0  0  0  0  0  0  0  0  0
   -3.6499   17.5989  -25.6109 H   0  0  0  0  0  0  0  0  0  0  0  0
   -2.6736   21.2265  -25.9462 H   0  0  0  0  0  0  0  0  0  0  0  0
   -0.8660   21.9826  -27.4843 H   0  0  0  0  0  0  0  0  0  0  0  0
    0.9734   21.4864  -28.8739 H   0  0  0  0  0  0  0  0  0  0  0  0
    1.6362   19.8065  -28.9337 H   0  0  0  0  0  0  0  0  0  0  0  0
   -1.2742   21.9264  -29.0297 H   0  0  0  0  0  0  0  0  0  0  0  0
   -0.8804   23.1009  -30.3305 H   0  0  0  0  0  0  0  0  0  0  0  0
   -2.4674   22.2593  -30.3305 H   0  0  0  0  0  0  0  0  0  0  0  0
   -3.7780   20.7770  -31.0010 H   0  0  0  0  0  0  0  0  0  0  0  0
   -4.8915   22.4515  -33.2847 H   0  0  0  0  0  0  0  0  0  0  0  0
   -5.8467   21.2766  -32.3071 H   0  0  0  0  0  0  0  0  0  0  0  0
   -3.4079   23.0277  -30.3803 H   0  0  0  0  0  0  0  0  0  0  0  0
   -3.8684   24.8853  -28.7885 H   0  0  0  0  0  0  0  0  0  0  0  0
   -6.0818   26.0267  -28.8031 H   0  0  0  0  0  0  0  0  0  0  0  0
   -7.8463   25.3179  -30.4119 H   0  0  0  0  0  0  0  0  0  0  0  0
   -8.5998   23.0427  -31.7095 H   0  0  0  0  0  0  0  0  0  0  0  0
   -7.9905   24.2262  -32.9156 H   0  0  0  0  0  0  0  0  0  0  0  0
   -7.3665   22.5418  -32.9156 H   0  0  0  0  0  0  0  0  0  0  0  0
   -1.1188   19.6396  -34.0424 H   0  0  0  0  0  0  0  0  0  0  0  0
    1.1733   18.5612  -34.5006 H   0  0  0  0  0  0  0  0  0  0  0  0
    2.0010   17.8125  -33.0673 H   0  0  0  0  0  0  0  0  0  0  0  0
    0.8210   16.0288  -34.0504 H   0  0  0  0  0  0  0  0  0  0  0  0
   -0.2271   16.5975  -32.6679 H   0  0  0  0  0  0  0  0  0  0  0  0
   -2.9944   14.5059  -33.5353 H   0  0  0  0  0  0  0  0  0  0  0  0
   -1.7777   15.4492  -32.6107 H   0  0  0  0  0  0  0  0  0  0  0  0
   -4.3499   15.7892  -32.1409 H   0  0  0  0  0  0  0  0  0  0  0  0
   -3.2094   17.2257  -32.2534 H   0  0  0  0  0  0  0  0  0  0  0  0
   -6.4121   16.4366  -31.8867 H   0  0  0  0  0  0  0  0  0  0  0  0
   -8.3042   17.8488  -31.1200 H   0  0  0  0  0  0  0  0  0  0  0  0
   -7.1893   20.9160  -33.9434 H   0  0  0  0  0  0  0  0  0  0  0  0
   -5.2905   19.5181  -34.7297 H   0  0  0  0  0  0  0  0  0  0  0  0
   -5.1417   16.6682  -35.8110 H   0  0  0  0  0  0  0  0  0  0  0  0
   -3.9372   18.0309  -35.5380 H   0  0  0  0  0  0  0  0  0  0  0  0
   -3.4550   15.0728  -35.8180 H   0  0  0  0  0  0  0  0  0  0  0  0
   -2.6128   16.4675  -36.5782 H   0  0  0  0  0  0  0  0  0  0  0  0
    0.0408   17.8573  -28.4465 H   0  0  0  0  0  0  0  0  0  0  0  0
   -1.7534   17.1001  -26.8915 H   0  0  0  0  0  0  0  0  0  0  0  0
  1  2  1  0
  2  3  2  0
  3  4  1  0
  4  5  2  0
  5  6  1  0
  6  7  1  0
  7  8  1  0
  8  9  1  0
  8 10  2  0
 10 11  1  0
 11 12  2  0
 11 13  1  0
 13 14  1  0
 14 15  1  0
 15 16  2  0
 16 17  1  0
 17 18  2  0
 18 19  1  0
 19 20  2  0
 20 21  1  0
 10 22  1  0
 22 23  2  0
 23 24  1  0
 24 25  1  0
 25 26  1  0
 26 27  2  0
 26 28  1  0
 28 29  1  0
 29 30  1  0
 30 31  1  0
 31 32  1  0
 32 33  2  0
 33 34  1  0
 34 35  2  0
 35 36  1  0
 35 37  1  0
 37 38  2  0
 31 39  1  0
 39 40  1  0
 23 41  1  0
 41 42  2  0
  5 43  1  0
 43 44  2  0
 44  2  1  0
 41  7  1  0
 20 15  1  0
 40 28  1  0
 38 32  1  0
  1 45  1  0
  1 46  1  0
  1 47  1  0
  3 48  1  0
  4 49  1  0
  6 50  1  0
  6 51  1  0
  9 52  1  0
  9 53  1  0
  9 54  1  0
 13 55  1  0
 14 56  1  0
 14 57  1  0
 16 58  1  0
 17 59  1  0
 18 60  1  0
 19 61  1  0
 21 62  1  0
 21 63  1  0
 21 64  1  0
 22 65  1  0
 24 66  1  0
 24 67  1  0
 25 68  1  0
 25 69  1  0
 29 70  1  0
 29 71  1  0
 30 72  1  0
 30 73  1  0
 33 74  1  0
 34 75  1  0
 37 76  1  0
 38 77  1  0
 39 78  1  0
 39 79  1  0
 40 80  1  0
 40 81  1  0
 43 82  1  0
 44 83  1  0
M  END
>  <UniqueID>  (31) 
31

>  <SMILES>  (31) 
Cc1ccc(Cn2c(C)c(C(=O)NCc3ccccc3C)cc(CCC(=O)N3CCN(c4ccc(Cl)cc4)CC3)c2=O)cc1

>  <Energy>  (31) 
107.24779826606142

>  <Genealogy>  (31) 
Cc1ccc(Cn2c(C)c(C(=O)NCc3ccccc3C)cc(CCC(=O)N3CCN(c4ccc(Cl)cc4)CC3)c2=O)cc1 (3D coordinates assigned)
Cc1ccc(Cn2c(C)c(C(=O)NCc3ccccc3C)cc(CCC(=O)N3CCN(c4ccc(Cl)cc4)CC3)c2=O)cc1 (nonaromatic ring conformer: 107.24779826606142 kcal/mol)

>  <smiles>  (31) 
Cc1ccc(Cn2c(C)c(C(=O)NCc3ccccc3C)cc(CCC(=O)N3CCN(c4ccc(Cl)cc4)CC3)c2=O)cc1

>  <score_type>  (31) 
oracle

>  <origin>  (31) 
adgpu

>  <m_score__min__energy>  (31) 
-11.25

>  <m_primary>  (31) 
energy

$$$$
31:0
     RDKit          3D

 39 41  0  0  0  0  0  0  0  0999 V2000
   -3.8230   25.2780  -30.5220 N   0  0  0  0  0  0  0  0  0  0  0  0
   -4.9790   24.5030  -30.8320 C   0  0  0  0  0  0  0  0  0  0  0  0
   -6.1200   24.9590  -30.5470 O   0  0  0  0  0  0  0  0  0  0  0  0
   -4.8450   23.1790  -31.4830 C   0  0  0  0  0  0  0  0  0  0  0  0
   -3.5950   22.5370  -31.5450 C   0  0  0  0  0  0  0  0  0  0  0  0
   -3.4660   21.2880  -32.1570 C   0  0  0  0  0  0  0  0  0  0  0  0
   -4.5830   20.6500  -32.7230 C   0  0  0  0  0  0  0  0  0  0  0  0
   -4.4470   19.3220  -33.3750 C   0  0  0  0  0  0  0  0  0  0  0  0
   -3.2340   18.6150  -33.3120 C   0  0  0  0  0  0  0  0  0  0  0  0
   -3.1070   17.3650  -33.9250 C   0  0  0  0  0  0  0  0  0  0  0  0
   -4.1950   16.7930  -34.6040 C   0  0  0  0  0  0  0  0  0  0  0  0
   -4.0810   15.5190  -35.2650 N   0  0  0  0  0  0  0  0  0  0  0  0
   -2.9860   15.1560  -36.1200 C   0  0  0  0  0  0  0  0  0  0  0  0
   -1.8920   15.7780  -36.0380 O   0  0  0  0  0  0  0  0  0  0  0  0
   -3.1110   14.0170  -37.0610 C   0  0  0  0  0  0  0  0  0  0  0  0
   -3.8550   12.8740  -36.7040 C   0  0  0  0  0  0  0  0  0  0  0  0
   -4.4910   12.8020  -35.5070 F   0  0  0  0  0  0  0  0  0  0  0  0
   -3.9710   11.8000  -37.5930 C   0  0  0  0  0  0  0  0  0  0  0  0
   -3.3460   11.8500  -38.8400 C   0  0  0  0  0  0  0  0  0  0  0  0
   -2.5970   12.9710  -39.2010 C   0  0  0  0  0  0  0  0  0  0  0  0
   -2.4750   14.0510  -38.3210 C   0  0  0  0  0  0  0  0  0  0  0  0
   -1.7020   15.1040  -38.6860 F   0  0  0  0  0  0  0  0  0  0  0  0
   -5.3980   17.5080  -34.6890 C   0  0  0  0  0  0  0  0  0  0  0  0
   -5.5280   18.7560  -34.0740 C   0  0  0  0  0  0  0  0  0  0  0  0
   -5.8330   21.2920  -32.6620 C   0  0  0  0  0  0  0  0  0  0  0  0
   -5.9620   22.5410  -32.0480 C   0  0  0  0  0  0  0  0  0  0  0  0
   -3.8670   26.0520  -29.8220 H   0  0  0  0  0  0  0  0  0  0  0  0
   -2.7106   23.0231  -31.1074 H   0  0  0  0  0  0  0  0  0  0  0  0
   -2.4813   20.7994  -32.1963 H   0  0  0  0  0  0  0  0  0  0  0  0
   -2.3772   19.0489  -32.7758 H   0  0  0  0  0  0  0  0  0  0  0  0
   -2.1492   16.8264  -33.8752 H   0  0  0  0  0  0  0  0  0  0  0  0
   -4.7800   14.7790  -35.0250 H   0  0  0  0  0  0  0  0  0  0  0  0
   -4.5566   10.9134  -37.3083 H   0  0  0  0  0  0  0  0  0  0  0  0
   -3.4438   11.0058  -39.5384 H   0  0  0  0  0  0  0  0  0  0  0  0
   -2.1005   13.0051  -40.1820 H   0  0  0  0  0  0  0  0  0  0  0  0
   -6.2469   17.0829  -35.2446 H   0  0  0  0  0  0  0  0  0  0  0  0
   -6.4824   19.2993  -34.1371 H   0  0  0  0  0  0  0  0  0  0  0  0
   -6.7170   20.8068  -33.1015 H   0  0  0  0  0  0  0  0  0  0  0  0
   -6.9470   23.0289  -32.0068 H   0  0  0  0  0  0  0  0  0  0  0  0
  1  2  1  0
  2  3  2  0
  2  4  1  0
  4  5  2  0
  5  6  1  0
  6  7  2  0
  7  8  1  0
  8  9  2  0
  9 10  1  0
 10 11  2  0
 11 12  1  0
 12 13  1  0
 13 14  2  0
 13 15  1  0
 15 16  2  0
 16 17  1  0
 16 18  1  0
 18 19  2  0
 19 20  1  0
 20 21  2  0
 21 22  1  0
 11 23  1  0
 23 24  2  0
  7 25  1  0
 25 26  2  0
 26  4  1  0
 24  8  1  0
 21 15  1  0
  1 27  1  0
  5 28  1  0
  6 29  1  0
  9 30  1  0
 10 31  1  0
 12 32  1  0
 18 33  1  0
 19 34  1  0
 20 35  1  0
 23 36  1  0
 24 37  1  0
 25 38  1  0
 26 39  1  0
M  CHG  1   1  -1
M  END
>  <UniqueID>  (32) 
32

>  <SMILES>  (32) 
[NH-]C(=O)c1ccc(-c2ccc(NC(=O)c3c(F)cccc3F)cc2)cc1

>  <Energy>  (32) 
55.43546227643429

>  <Genealogy>  (32) 
[NH-]C(=O)c1ccc(-c2ccc(NC(=O)c3c(F)cccc3F)cc2)cc1 (protonated)
[NH-]C(=O)c1ccc(-c2ccc(NC(=O)c3c(F)cccc3F)cc2)cc1 (3D coordinates assigned)
[NH-]C(=O)c1ccc(-c2ccc(NC(=O)c3c(F)cccc3F)cc2)cc1 (optimized conformer: 55.43546227643429 kcal/mol)

>  <smiles>  (32) 
NC(=O)c1ccc(-c2ccc(NC(=O)c3c(F)cccc3F)cc2)cc1

>  <score_type>  (32) 
oracle

>  <origin>  (32) 
adgpu

>  <m_score__min__energy>  (32) 
-8.7400000000000002

>  <m_primary>  (32) 
energy

$$$$
32:0
     RDKit          3D

 46 48  0  0  0  0  0  0  0  0999 V2000
   -3.5350   16.6690  -33.0900 C   0  0  0  0  0  0  0  0  0  0  0  0
   -4.7590   17.5350  -33.0800 C   0  0  0  0  0  0  0  0  0  0  0  0
   -4.9240   18.5400  -34.0450 C   0  0  0  0  0  0  0  0  0  0  0  0
   -6.0820   19.3230  -34.0590 C   0  0  0  0  0  0  0  0  0  0  0  0
   -7.1040   19.1020  -33.1170 C   0  0  0  0  0  0  0  0  0  0  0  0
   -8.3120   19.8840  -33.1050 N   0  0  0  0  0  0  0  0  0  0  0  0
   -8.9060   20.7320  -31.7120 S   0  0  0  0  0  0  0  0  0  0  0  0
  -10.2890   21.2460  -31.9970 O   0  0  0  0  0  0  0  0  0  0  0  0
   -8.9670   19.7840  -30.5490 O   0  0  0  0  0  0  0  0  0  0  0  0
   -7.8590   22.1010  -31.3500 C   0  0  0  0  0  0  0  0  0  0  0  0
   -7.4970   22.3700  -30.0250 C   0  0  0  0  0  0  0  0  0  0  0  0
   -6.6610   23.4510  -29.7310 C   0  0  0  0  0  0  0  0  0  0  0  0
   -6.1650   24.2620  -30.7620 C   0  0  0  0  0  0  0  0  0  0  0  0
   -5.2420   25.3650  -30.4480 C   0  0  0  0  0  0  0  0  0  0  0  0
   -5.7150   26.4810  -30.1060 O   0  0  0  0  0  0  0  0  0  0  0  0
   -3.8170   25.1930  -30.4700 N   0  0  0  0  0  0  0  0  0  0  0  0
   -3.0650   24.2200  -29.6800 C   0  0  0  0  0  0  0  0  0  0  0  0
   -2.9110   22.9210  -30.4290 C   0  0  0  0  0  0  0  0  0  0  0  0
   -2.0480   21.9240  -29.9440 C   0  0  0  0  0  0  0  0  0  0  0  0
   -1.9320   20.7050  -30.6160 C   0  0  0  0  0  0  0  0  0  0  0  0
   -2.6710   20.4730  -31.7790 C   0  0  0  0  0  0  0  0  0  0  0  0
   -3.5230   21.4630  -32.2760 C   0  0  0  0  0  0  0  0  0  0  0  0
   -3.6390   22.6860  -31.6080 C   0  0  0  0  0  0  0  0  0  0  0  0
   -6.5440   24.0030  -32.0880 C   0  0  0  0  0  0  0  0  0  0  0  0
   -7.3840   22.9230  -32.3810 C   0  0  0  0  0  0  0  0  0  0  0  0
   -6.9390   18.0860  -32.1620 C   0  0  0  0  0  0  0  0  0  0  0  0
   -5.7800   17.3040  -32.1480 C   0  0  0  0  0  0  0  0  0  0  0  0
   -3.2300   16.4532  -32.0554 H   0  0  0  0  0  0  0  0  0  0  0  0
   -3.7572   15.7260  -33.6110 H   0  0  0  0  0  0  0  0  0  0  0  0
   -2.7198   17.1924  -33.6110 H   0  0  0  0  0  0  0  0  0  0  0  0
   -4.1378   18.7128  -34.7947 H   0  0  0  0  0  0  0  0  0  0  0  0
   -6.1952   20.1173  -34.8115 H   0  0  0  0  0  0  0  0  0  0  0  0
   -8.8410   20.0130  -33.9980 H   0  0  0  0  0  0  0  0  0  0  0  0
   -7.8713   21.7292  -29.2131 H   0  0  0  0  0  0  0  0  0  0  0  0
   -6.3911   23.6664  -28.6866 H   0  0  0  0  0  0  0  0  0  0  0  0
   -2.0678   24.6289  -29.4597 H   0  0  0  0  0  0  0  0  0  0  0  0
   -3.6153   24.0245  -28.7478 H   0  0  0  0  0  0  0  0  0  0  0  0
   -1.4612   22.1042  -29.0312 H   0  0  0  0  0  0  0  0  0  0  0  0
   -1.2579   19.9265  -30.2291 H   0  0  0  0  0  0  0  0  0  0  0  0
   -2.5821   19.5103  -32.3038 H   0  0  0  0  0  0  0  0  0  0  0  0
   -4.1025   21.2801  -33.1929 H   0  0  0  0  0  0  0  0  0  0  0  0
   -4.3027   23.4673  -32.0069 H   0  0  0  0  0  0  0  0  0  0  0  0
   -6.1798   24.6506  -32.8992 H   0  0  0  0  0  0  0  0  0  0  0  0
   -7.6722   22.7187  -33.4227 H   0  0  0  0  0  0  0  0  0  0  0  0
   -7.7286   17.9036  -31.4182 H   0  0  0  0  0  0  0  0  0  0  0  0
   -5.6689   16.5035  -31.4018 H   0  0  0  0  0  0  0  0  0  0  0  0
  1  2  1  0
  2  3  2  0
  3  4  1  0
  4  5  2  0
  5  6  1  0
  6  7  1  0
  7  8  2  0
  7  9  2  0
  7 10  1  0
 10 11  2  0
 11 12  1  0
 12 13  2  0
 13 14  1  0
 14 15  2  0
 14 16  1  0
 16 17  1  0
 17 18  1  0
 18 19  2  0
 19 20  1  0
 20 21  2  0
 21 22  1  0
 22 23  2  0
 13 24  1  0
 24 25  2  0
  5 26  1  0
 26 27  2  0
 27  2  1  0
 25 10  1  0
 23 18  1  0
  1 28  1  0
  1 29  1  0
  1 30  1  0
  3 31  1  0
  4 32  1  0
  6 33  1  0
 11 34  1  0
 12 35  1  0
 17 36  1  0
 17 37  1  0
 19 38  1  0
 20 39  1  0
 21 40  1  0
 22 41  1  0
 23 42  1  0
 24 43  1  0
 25 44  1  0
 26 45  1  0
 27 46  1  0
M  CHG  1  16  -1
M  END
>  <UniqueID>  (33) 
33

>  <SMILES>  (33) 
Cc1ccc(NS(=O)(=O)c2ccc(C(=O)[N-]Cc3ccccc3)cc2)cc1

>  <Energy>  (33) 
52.14739291503456

>  <Genealogy>  (33) 
Cc1ccc(NS(=O)(=O)c2ccc(C(=O)[N-]Cc3ccccc3)cc2)cc1 (protonated)
Cc1ccc(NS(=O)(=O)c2ccc(C(=O)[N-]Cc3ccccc3)cc2)cc1 (3D coordinates assigned)
Cc1ccc(NS(=O)(=O)c2ccc(C(=O)[N-]Cc3ccccc3)cc2)cc1 (optimized conformer: 52.14739291503456 kcal/mol)

>  <smiles>  (33) 
Cc1ccc(NS(=O)(=O)c2ccc(C(=O)NCc3ccccc3)cc2)cc1

>  <score_type>  (33) 
oracle

>  <origin>  (33) 
adgpu

>  <m_score__min__energy>  (33) 
-12.16

>  <m_primary>  (33) 
energy

$$$$
33:0
     RDKit          3D

 45 47  0  0  0  0  0  0  0  0999 V2000
   -5.5300   15.2710  -33.7550 C   0  0  0  0  0  0  0  0  0  0  0  0
   -6.0260   16.4210  -34.4310 O   0  0  0  0  0  0  0  0  0  0  0  0
   -6.5070   17.5720  -33.7880 C   0  0  0  0  0  0  0  0  0  0  0  0
   -6.1520   18.8710  -34.2010 C   0  0  0  0  0  0  0  0  0  0  0  0
   -6.6550   19.9870  -33.5260 C   0  0  0  0  0  0  0  0  0  0  0  0
   -7.5100   19.8230  -32.4210 C   0  0  0  0  0  0  0  0  0  0  0  0
   -8.0470   20.9130  -31.7200 O   0  0  0  0  0  0  0  0  0  0  0  0
   -7.4360   22.1650  -31.5880 C   0  0  0  0  0  0  0  0  0  0  0  0
   -7.1210   22.9760  -32.6250 N   0  0  0  0  0  0  0  0  0  0  0  0
   -6.5040   24.1110  -32.2060 C   0  0  0  0  0  0  0  0  0  0  0  0
   -6.3330   24.2040  -30.8280 C   0  0  0  0  0  0  0  0  0  0  0  0
   -5.6180   25.3000  -30.1070 C   0  0  0  0  0  0  0  0  0  0  0  0
   -4.2330   25.3800  -30.5880 N   0  0  0  0  0  0  0  0  0  0  0  0
   -3.5300   24.0930  -30.4800 C   0  0  0  0  0  0  0  0  0  0  0  0
   -2.6260   24.0170  -29.2390 C   0  0  0  0  0  0  0  0  0  0  0  0
   -2.0090   25.2810  -28.9900 O   0  0  0  0  0  0  0  0  0  0  0  0
   -1.6490   25.7780  -27.7260 C   0  0  0  0  0  0  0  0  0  0  0  0
   -0.6340   26.7420  -27.6610 C   0  0  0  0  0  0  0  0  0  0  0  0
   -0.2360   27.2730  -26.4300 C   0  0  0  0  0  0  0  0  0  0  0  0
   -0.8530   26.8460  -25.2520 C   0  0  0  0  0  0  0  0  0  0  0  0
   -1.8690   25.8890  -25.3030 C   0  0  0  0  0  0  0  0  0  0  0  0
   -2.2700   25.3550  -26.5320 C   0  0  0  0  0  0  0  0  0  0  0  0
   -6.9450   22.8080  -30.1150 S   0  0  0  0  0  0  0  0  0  0  0  0
   -7.8760   18.5320  -32.0270 C   0  0  0  0  0  0  0  0  0  0  0  0
   -7.3730   17.4150  -32.7000 C   0  0  0  0  0  0  0  0  0  0  0  0
   -5.5973   15.4270  -32.6682 H   0  0  0  0  0  0  0  0  0  0  0  0
   -6.1294   14.3929  -34.0372 H   0  0  0  0  0  0  0  0  0  0  0  0
   -4.4800   15.1043  -34.0372 H   0  0  0  0  0  0  0  0  0  0  0  0
   -5.4763   19.0078  -35.0581 H   0  0  0  0  0  0  0  0  0  0  0  0
   -6.3809   20.9984  -33.8605 H   0  0  0  0  0  0  0  0  0  0  0  0
   -6.1663   24.8944  -32.9005 H   0  0  0  0  0  0  0  0  0  0  0  0
   -6.1275   26.2564  -30.2957 H   0  0  0  0  0  0  0  0  0  0  0  0
   -5.6196   25.0906  -29.0271 H   0  0  0  0  0  0  0  0  0  0  0  0
   -4.2350   25.6920  -31.5880 H   0  0  0  0  0  0  0  0  0  0  0  0
   -4.2766   23.2872  -30.4222 H   0  0  0  0  0  0  0  0  0  0  0  0
   -2.8883   23.9877  -31.3672 H   0  0  0  0  0  0  0  0  0  0  0  0
   -3.2324   23.7323  -28.3665 H   0  0  0  0  0  0  0  0  0  0  0  0
   -1.8409   23.2673  -29.4168 H   0  0  0  0  0  0  0  0  0  0  0  0
   -0.1463   27.0838  -28.5858 H   0  0  0  0  0  0  0  0  0  0  0  0
    0.5635   28.0274  -26.3895 H   0  0  0  0  0  0  0  0  0  0  0  0
   -0.5387   27.2634  -24.2840 H   0  0  0  0  0  0  0  0  0  0  0  0
   -2.3549   25.5545  -24.3746 H   0  0  0  0  0  0  0  0  0  0  0  0
   -3.0720   24.6030  -26.5676 H   0  0  0  0  0  0  0  0  0  0  0  0
   -8.5652   18.3946  -31.1808 H   0  0  0  0  0  0  0  0  0  0  0  0
   -7.6600   16.4050  -32.3720 H   0  0  0  0  0  0  0  0  0  0  0  0
  1  2  1  0
  2  3  1  0
  3  4  2  0
  4  5  1  0
  5  6  2  0
  6  7  1  0
  7  8  1  0
  8  9  2  0
  9 10  1  0
 10 11  2  0
 11 12  1  0
 12 13  1  0
 13 14  1  0
 14 15  1  0
 15 16  1  0
 16 17  1  0
 17 18  2  0
 18 19  1  0
 19 20  2  0
 20 21  1  0
 21 22  2  0
 11 23  1  0
  6 24  1  0
 24 25  2  0
 25  3  1  0
 23  8  1  0
 22 17  1  0
  1 26  1  0
  1 27  1  0
  1 28  1  0
  4 29  1  0
  5 30  1  0
 10 31  1  0
 12 32  1  0
 12 33  1  0
 13 34  1  0
 14 35  1  0
 14 36  1  0
 15 37  1  0
 15 38  1  0
 18 39  1  0
 19 40  1  0
 20 41  1  0
 21 42  1  0
 22 43  1  0
 24 44  1  0
 25 45  1  0
M  END
>  <UniqueID>  (34) 
34

>  <SMILES>  (34) 
COc1ccc(Oc2ncc(CNCCOc3ccccc3)s2)cc1

>  <Energy>  (34) 
79.28470265339746

>  <Genealogy>  (34) 
COc1ccc(Oc2ncc(CNCCOc3ccccc3)s2)cc1 (3D coordinates assigned)
COc1ccc(Oc2ncc(CNCCOc3ccccc3)s2)cc1 (optimized conformer: 79.28470265339746 kcal/mol)

>  <smiles>  (34) 
COc1ccc(Oc2ncc(CNCCOc3ccccc3)s2)cc1

>  <score_type>  (34) 
oracle

>  <origin>  (34) 
adgpu

>  <m_score__min__energy>  (34) 
-9.1099999999999994

>  <m_primary>  (34) 
energy

$$$$
34:0
     RDKit          3D

 52 55  0  0  0  0  0  0  0  0999 V2000
   -3.5220   26.0350  -31.2400 H   0  0  0  0  0  0  0  0  0  0  0  0
   -3.8440   25.3060  -30.5650 N   0  0  0  0  0  0  0  0  0  0  0  0
   -5.2190   24.9390  -30.4860 C   0  0  0  0  0  0  0  0  0  0  0  0
   -6.0150   25.6430  -29.8100 O   0  0  0  0  0  0  0  0  0  0  0  0
   -5.7070   23.7450  -31.1920 C   0  0  0  0  0  0  0  0  0  0  0  0
   -4.9420   22.6800  -31.6290 C   0  0  0  0  0  0  0  0  0  0  0  0
   -3.8547   22.5556  -31.5180 H   0  0  0  0  0  0  0  0  0  0  0  0
   -5.8270   21.7990  -32.2370 C   0  0  0  0  0  0  0  0  0  0  0  0
   -5.4920   20.5020  -32.8680 C   0  0  0  0  0  0  0  0  0  0  0  0
   -6.4960   19.6180  -33.1280 N   0  0  0  0  0  0  0  0  0  0  0  0
   -6.2650   18.4120  -33.7120 C   0  0  0  0  0  0  0  0  0  0  0  0
   -7.1031   17.7271  -33.9080 H   0  0  0  0  0  0  0  0  0  0  0  0
   -4.9660   18.0420  -34.0630 C   0  0  0  0  0  0  0  0  0  0  0  0
   -4.7765   17.0714  -34.5447 H   0  0  0  0  0  0  0  0  0  0  0  0
   -3.9040   18.9190  -33.7960 C   0  0  0  0  0  0  0  0  0  0  0  0
   -2.5810   18.6090  -34.1440 O   0  0  0  0  0  0  0  0  0  0  0  0
   -1.5280   18.4070  -33.2370 C   0  0  0  0  0  0  0  0  0  0  0  0
   -1.2680   17.1440  -32.6790 C   0  0  0  0  0  0  0  0  0  0  0  0
   -1.8880   16.2822  -32.9669 H   0  0  0  0  0  0  0  0  0  0  0  0
   -0.2290   16.9740  -31.7620 C   0  0  0  0  0  0  0  0  0  0  0  0
   -0.0224   15.9757  -31.3487 H   0  0  0  0  0  0  0  0  0  0  0  0
    0.5560   18.0730  -31.3630 C   0  0  0  0  0  0  0  0  0  0  0  0
    1.6280   17.9400  -30.4080 N   0  0  0  0  0  0  0  0  0  0  0  0
    2.5290   18.4320  -30.6070 H   0  0  0  0  0  0  0  0  0  0  0  0
    1.5250   17.2440  -29.1220 C   0  0  0  0  0  0  0  0  0  0  0  0
    0.5952   16.6564  -29.1054 H   0  0  0  0  0  0  0  0  0  0  0  0
    2.4004   16.5875  -29.0099 H   0  0  0  0  0  0  0  0  0  0  0  0
    1.5100   18.2350  -27.9570 C   0  0  0  0  0  0  0  0  0  0  0  0
    1.2719   17.6980  -27.0270 H   0  0  0  0  0  0  0  0  0  0  0  0
    2.5001   18.7075  -27.8768 H   0  0  0  0  0  0  0  0  0  0  0  0
    0.5070   19.2710  -28.1850 N   0  0  0  0  0  0  0  0  0  0  0  0
   -0.6940   19.3050  -27.6790 C   0  0  0  0  0  0  0  0  0  0  0  0
   -1.5240   20.3870  -27.9980 C   0  0  0  0  0  0  0  0  0  0  0  0
   -1.1621   21.1837  -28.6645 H   0  0  0  0  0  0  0  0  0  0  0  0
   -2.8120   20.4490  -27.4660 C   0  0  0  0  0  0  0  0  0  0  0  0
   -3.4704   21.2953  -27.7117 H   0  0  0  0  0  0  0  0  0  0  0  0
   -3.2620   19.4350  -26.6220 C   0  0  0  0  0  0  0  0  0  0  0  0
   -4.2756   19.4754  -26.1966 H   0  0  0  0  0  0  0  0  0  0  0  0
   -2.4140   18.3680  -26.3220 C   0  0  0  0  0  0  0  0  0  0  0  0
   -2.7612   17.5628  -25.6578 H   0  0  0  0  0  0  0  0  0  0  0  0
   -1.1580   18.3190  -26.8480 N   0  0  0  0  0  0  0  0  0  0  0  0
   -0.5640   17.4990  -26.5930 H   0  0  0  0  0  0  0  0  0  0  0  0
    0.2930   19.3330  -31.9210 C   0  0  0  0  0  0  0  0  0  0  0  0
    0.9111   20.1960  -31.6326 H   0  0  0  0  0  0  0  0  0  0  0  0
   -0.7480   19.5030  -32.8410 C   0  0  0  0  0  0  0  0  0  0  0  0
   -1.0590   21.1020  -33.5010 Cl  0  0  0  0  0  0  0  0  0  0  0  0
   -4.1720   20.1600  -33.2110 C   0  0  0  0  0  0  0  0  0  0  0  0
   -3.3519   20.8676  -33.0194 H   0  0  0  0  0  0  0  0  0  0  0  0
   -7.0810   22.2930  -32.1780 N   0  0  0  0  0  0  0  0  0  0  0  0
   -7.9490   21.8490  -32.5530 H   0  0  0  0  0  0  0  0  0  0  0  0
   -7.0160   23.4770  -31.5430 C   0  0  0  0  0  0  0  0  0  0  0  0
   -7.8746   24.1323  -31.3348 H   0  0  0  0  0  0  0  0  0  0  0  0
  1  2  1  0
  2  3  1  0
  3  4  2  0
  3  5  1  0
  5  6  1  0
  6  7  1  0
  6  8  2  0
  8  9  1  0
  9 10  2  0
 10 11  1  0
 11 12  1  0
 11 13  2  0
 13 14  1  0
 13 15  1  0
 15 16  1  0
 16 17  1  0
 17 18  2  0
 18 19  1  0
 18 20  1  0
 20 21  1  0
 20 22  2  0
 22 23  1  0
 23 24  1  0
 23 25  1  0
 25 26  1  0
 25 27  1  0
 25 28  1  0
 28 29  1  0
 28 30  1  0
 28 31  1  0
 31 32  2  0
 32 33  1  0
 33 34  1  0
 33 35  2  0
 35 36  1  0
 35 37  1  0
 37 38  1  0
 37 39  2  0
 39 40  1  0
 39 41  1  0
 41 42  1  0
 22 43  1  0
 43 44  1  0
 43 45  2  0
 45 46  1  0
 15 47  2  0
 47 48  1  0
  8 49  1  0
 49 50  1  0
 49 51  1  0
 51 52  1  0
 51  5  2  0
 47  9  1  0
 45 17  1  0
 41 32  1  0
M  CHG  1   2  -1
M  END
>  <UniqueID>  (35) 
35

>  <SMILES>  (35) 
[NH-]C(=O)c1c[nH]c(-c2cc(Oc3ccc(NCC/N=c4/cccc[nH]4)cc3Cl)ccn2)c1

>  <Energy>  (35) 
87.95067247389059

>  <Genealogy>  (35) 
[NH-]C(=O)c1c[nH]c(-c2cc(Oc3ccc(NCCN=c4cccc[nH]4)cc3Cl)ccn2)c1 (protonated)
[NH-]C(=O)c1c[nH]c(-c2cc(Oc3ccc(NCC/N=c4/cccc[nH]4)cc3Cl)ccn2)c1 (cis-trans isomerization)
[NH-]C(=O)c1c[nH]c(-c2cc(Oc3ccc(NCC/N=c4/cccc[nH]4)cc3Cl)ccn2)c1 (3D coordinates assigned)
[NH-]C(=O)c1c[nH]c(-c2cc(Oc3ccc(NCC/N=c4/cccc[nH]4)cc3Cl)ccn2)c1 (optimized conformer: 87.95067247389059 kcal/mol)

>  <smiles>  (35) 
NC(=O)c1c[nH]c(-c2cc(Oc3ccc(NCCN=c4cccc[nH]4)cc3Cl)ccn2)c1

>  <score_type>  (35) 
oracle

>  <origin>  (35) 
adgpu

>  <m_score__min__energy>  (35) 
-11

>  <m_primary>  (35) 
energy

$$$$
35:0
     RDKit          3D

 47 50  0  0  0  0  0  0  0  0999 V2000
   -1.1240   21.1870  -27.0080 C   0  0  0  0  0  0  0  0  0  0  0  0
   -1.7790   22.2270  -27.8680 C   0  0  0  0  0  0  0  0  0  0  0  0
   -1.0800   22.8000  -28.9410 C   0  0  0  0  0  0  0  0  0  0  0  0
   -1.6770   23.7960  -29.7190 C   0  0  0  0  0  0  0  0  0  0  0  0
   -2.9660   24.2530  -29.4180 C   0  0  0  0  0  0  0  0  0  0  0  0
   -3.5550   25.2640  -30.2480 N   0  0  0  0  0  0  0  0  0  0  0  0
   -4.9120   25.2890  -30.7110 C   0  0  0  0  0  0  0  0  0  0  0  0
   -5.4260   26.3980  -31.0100 O   0  0  0  0  0  0  0  0  0  0  0  0
   -5.7400   24.0660  -30.7460 C   0  0  0  0  0  0  0  0  0  0  0  0
   -7.0390   23.7720  -29.7190 S   0  0  0  0  0  0  0  0  0  0  0  0
   -7.5160   22.3180  -30.4060 C   0  0  0  0  0  0  0  0  0  0  0  0
   -6.6640   22.0320  -31.4710 C   0  0  0  0  0  0  0  0  0  0  0  0
   -6.7730   20.7840  -32.2550 C   0  0  0  0  0  0  0  0  0  0  0  0
   -7.9540   20.2650  -32.6540 N   0  0  0  0  0  0  0  0  0  0  0  0
   -7.6650   19.2020  -33.3870 N   0  0  0  0  0  0  0  0  0  0  0  0
   -6.3280   19.0830  -33.4390 C   0  0  0  0  0  0  0  0  0  0  0  0
   -5.5580   17.8320  -34.1660 S   0  0  0  0  0  0  0  0  0  0  0  0
   -5.7280   20.0690  -32.7390 N   0  0  0  0  0  0  0  0  0  0  0  0
   -4.3240   20.2420  -32.4710 C   0  0  0  0  0  0  0  0  0  0  0  0
   -3.8630   20.3580  -31.1520 C   0  0  0  0  0  0  0  0  0  0  0  0
   -2.4980   20.5090  -30.8930 C   0  0  0  0  0  0  0  0  0  0  0  0
   -1.5770   20.5580  -31.9510 C   0  0  0  0  0  0  0  0  0  0  0  0
   -0.1080   20.6790  -31.6710 C   0  0  0  0  0  0  0  0  0  0  0  0
   -2.0370   20.4250  -33.2700 C   0  0  0  0  0  0  0  0  0  0  0  0
   -3.4020   20.2740  -33.5290 C   0  0  0  0  0  0  0  0  0  0  0  0
   -5.6660   23.0130  -31.6650 C   0  0  0  0  0  0  0  0  0  0  0  0
   -4.6790   22.9390  -32.7000 N   0  0  0  0  0  0  0  0  0  0  0  0
   -3.6700   23.6730  -28.3480 C   0  0  0  0  0  0  0  0  0  0  0  0
   -3.0740   22.6770  -27.5700 C   0  0  0  0  0  0  0  0  0  0  0  0
   -1.2808   21.4359  -25.9481 H   0  0  0  0  0  0  0  0  0  0  0  0
   -1.5654   20.2026  -27.2227 H   0  0  0  0  0  0  0  0  0  0  0  0
   -0.0455   21.1599  -27.2227 H   0  0  0  0  0  0  0  0  0  0  0  0
   -0.0581   22.4641  -29.1709 H   0  0  0  0  0  0  0  0  0  0  0  0
   -1.1310   24.2234  -30.5729 H   0  0  0  0  0  0  0  0  0  0  0  0
   -8.3591   21.6953  -30.0722 H   0  0  0  0  0  0  0  0  0  0  0  0
   -8.3730   18.5700  -33.8240 H   0  0  0  0  0  0  0  0  0  0  0  0
   -4.5789   20.3300  -30.3173 H   0  0  0  0  0  0  0  0  0  0  0  0
   -2.1436   20.5899  -29.8548 H   0  0  0  0  0  0  0  0  0  0  0  0
    0.0581   20.6927  -30.5837 H   0  0  0  0  0  0  0  0  0  0  0  0
    0.4212   19.8214  -32.1120 H   0  0  0  0  0  0  0  0  0  0  0  0
    0.2737   21.6116  -32.1120 H   0  0  0  0  0  0  0  0  0  0  0  0
   -1.3199   20.4397  -34.1040 H   0  0  0  0  0  0  0  0  0  0  0  0
   -3.7554   20.1798  -34.5664 H   0  0  0  0  0  0  0  0  0  0  0  0
   -3.6710   22.7880  -32.4780 H   0  0  0  0  0  0  0  0  0  0  0  0
   -4.9400   23.0320  -33.7050 H   0  0  0  0  0  0  0  0  0  0  0  0
   -4.6942   24.0047  -28.1224 H   0  0  0  0  0  0  0  0  0  0  0  0
   -3.6224   22.2440  -26.7204 H   0  0  0  0  0  0  0  0  0  0  0  0
  1  2  1  0
  2  3  2  0
  3  4  1  0
  4  5  2  0
  5  6  1  0
  6  7  1  0
  7  8  2  0
  7  9  1  0
  9 10  1  0
 10 11  1  0
 11 12  2  0
 12 13  1  0
 13 14  2  0
 14 15  1  0
 15 16  1  0
 16 17  2  0
 16 18  1  0
 18 19  1  0
 19 20  2  0
 20 21  1  0
 21 22  2  0
 22 23  1  0
 22 24  1  0
 24 25  2  0
 12 26  1  0
 26 27  1  0
  5 28  1  0
 28 29  2  0
 29  2  1  0
 26  9  2  0
 18 13  1  0
 25 19  1  0
  1 30  1  0
  1 31  1  0
  1 32  1  0
  3 33  1  0
  4 34  1  0
 11 35  1  0
 15 36  1  0
 20 37  1  0
 21 38  1  0
 23 39  1  0
 23 40  1  0
 23 41  1  0
 24 42  1  0
 25 43  1  0
 27 44  1  0
 27 45  1  0
 28 46  1  0
 29 47  1  0
M  CHG  1   6  -1
M  END
>  <UniqueID>  (36) 
36

>  <SMILES>  (36) 
Cc1ccc([N-]C(=O)c2scc(-c3n[nH]c(=S)n3-c3ccc(C)cc3)c2N)cc1

>  <Energy>  (36) 
128.89697019590872

>  <Genealogy>  (36) 
Cc1ccc([N-]C(=O)c2scc(-c3n[nH]c(=S)n3-c3ccc(C)cc3)c2N)cc1 (protonated)
Cc1ccc([N-]C(=O)c2scc(-c3n[nH]c(=S)n3-c3ccc(C)cc3)c2N)cc1 (3D coordinates assigned)
Cc1ccc([N-]C(=O)c2scc(-c3n[nH]c(=S)n3-c3ccc(C)cc3)c2N)cc1 (optimized conformer: 128.89697019590872 kcal/mol)

>  <smiles>  (36) 
Cc1ccc(NC(=O)c2scc(-c3n[nH]c(=S)n3-c3ccc(C)cc3)c2N)cc1

>  <score_type>  (36) 
oracle

>  <origin>  (36) 
adgpu

>  <m_score__min__energy>  (36) 
-10.949999999999999

>  <m_primary>  (36) 
energy

$$$$
36:0
     RDKit          3D

 36 36  0  0  0  0  0  0  0  0999 V2000
   -3.4620   22.0260  -28.7620 C   0  0  0  0  0  0  0  0  0  0  0  0
   -4.1580   23.1050  -27.9250 C   0  0  0  0  0  0  0  0  0  0  0  0
   -3.4350   24.3990  -27.9670 N   0  0  0  0  0  0  0  0  0  0  0  0
   -2.4150   24.4930  -26.8930 C   0  0  0  0  0  0  0  0  0  0  0  0
   -2.6660   25.6690  -25.9440 C   0  0  0  0  0  0  0  0  0  0  0  0
   -2.7910   24.5610  -29.2510 C   0  0  0  0  0  0  0  0  0  0  0  0
   -1.5410   24.4160  -29.3500 O   0  0  0  0  0  0  0  0  0  0  0  0
   -3.5630   24.9090  -30.4060 N   0  0  0  0  0  0  0  0  0  0  0  0
   -5.2890   25.0300  -30.3650 S   0  0  0  0  0  0  0  0  0  0  0  0
   -5.7300   25.2530  -28.9450 O   0  0  0  0  0  0  0  0  0  0  0  0
   -5.7250   26.1970  -31.2040 O   0  0  0  0  0  0  0  0  0  0  0  0
   -5.9960   23.5550  -31.0130 C   0  0  0  0  0  0  0  0  0  0  0  0
   -7.2760   23.1440  -30.6150 C   0  0  0  0  0  0  0  0  0  0  0  0
   -7.8270   21.9670  -31.1290 C   0  0  0  0  0  0  0  0  0  0  0  0
   -7.1000   21.1830  -32.0380 C   0  0  0  0  0  0  0  0  0  0  0  0
   -7.7080   19.9390  -32.6140 C   0  0  0  0  0  0  0  0  0  0  0  0
   -5.8280   21.6090  -32.4520 C   0  0  0  0  0  0  0  0  0  0  0  0
   -5.2790   22.7870  -31.9390 C   0  0  0  0  0  0  0  0  0  0  0  0
   -2.9885   21.2920  -28.0934 H   0  0  0  0  0  0  0  0  0  0  0  0
   -4.2037   21.5190  -29.3966 H   0  0  0  0  0  0  0  0  0  0  0  0
   -2.6942   22.4927  -29.3966 H   0  0  0  0  0  0  0  0  0  0  0  0
   -5.1755   23.2548  -28.3153 H   0  0  0  0  0  0  0  0  0  0  0  0
   -4.1768   22.7622  -26.8799 H   0  0  0  0  0  0  0  0  0  0  0  0
   -4.1250   25.1790  -27.8410 H   0  0  0  0  0  0  0  0  0  0  0  0
   -2.4302   23.5603  -26.3100 H   0  0  0  0  0  0  0  0  0  0  0  0
   -1.4389   24.6550  -27.3736 H   0  0  0  0  0  0  0  0  0  0  0  0
   -2.5920   25.3222  -24.9027 H   0  0  0  0  0  0  0  0  0  0  0  0
   -1.9148   26.4521  -26.1239 H   0  0  0  0  0  0  0  0  0  0  0  0
   -3.6715   26.0772  -26.1239 H   0  0  0  0  0  0  0  0  0  0  0  0
   -7.8479   23.7494  -29.8964 H   0  0  0  0  0  0  0  0  0  0  0  0
   -8.8351   21.6537  -30.8197 H   0  0  0  0  0  0  0  0  0  0  0  0
   -8.0316   19.2770  -31.7973 H   0  0  0  0  0  0  0  0  0  0  0  0
   -8.5761   20.2082  -33.2336 H   0  0  0  0  0  0  0  0  0  0  0  0
   -6.9623   19.4194  -33.2336 H   0  0  0  0  0  0  0  0  0  0  0  0
   -5.2615   21.0133  -33.1829 H   0  0  0  0  0  0  0  0  0  0  0  0
   -4.2797   23.1125  -32.2637 H   0  0  0  0  0  0  0  0  0  0  0  0
  1  2  1  0
  2  3  1  0
  3  4  1  0
  4  5  1  0
  3  6  1  0
  6  7  2  0
  6  8  1  0
  8  9  1  0
  9 10  2  0
  9 11  2  0
  9 12  1  0
 12 13  2  0
 13 14  1  0
 14 15  2  0
 15 16  1  0
 15 17  1  0
 17 18  2  0
 18 12  1  0
  1 19  1  0
  1 20  1  0
  1 21  1  0
  2 22  1  0
  2 23  1  0
  3 24  1  0
  4 25  1  0
  4 26  1  0
  5 27  1  0
  5 28  1  0
  5 29  1  0
 13 30  1  0
 14 31  1  0
 16 32  1  0
 16 33  1  0
 16 34  1  0
 17 35  1  0
 18 36  1  0
M  CHG  2   3   1   8  -1
M  END
>  <UniqueID>  (37) 
37

>  <SMILES>  (37) 
CC[NH+](CC)C(=O)[N-]S(=O)(=O)c1ccc(C)cc1

>  <Energy>  (37) 
33.488893855404356

>  <Genealogy>  (37) 
CC[NH+](CC)C(=O)[N-]S(=O)(=O)c1ccc(C)cc1 (protonated)
CC[NH+](CC)C(=O)[N-]S(=O)(=O)c1ccc(C)cc1 (3D coordinates assigned)
CC[NH+](CC)C(=O)[N-]S(=O)(=O)c1ccc(C)cc1 (optimized conformer: 33.488893855404356 kcal/mol)

>  <smiles>  (37) 
CCN(CC)C(=O)NS(=O)(=O)c1ccc(C)cc1

>  <score_type>  (37) 
oracle

>  <origin>  (37) 
adgpu

>  <m_score__min__energy>  (37) 
-7.21

>  <m_primary>  (37) 
energy

$$$$
37:0
     RDKit          3D

 47 50  0  0  0  0  0  0  0  0999 V2000
   -0.1150   20.1760  -27.5390 C   0  0  0  0  0  0  0  0  0  0  0  0
   -0.8030   21.4260  -28.0030 C   0  0  0  0  0  0  0  0  0  0  0  0
   -2.2030   21.5180  -27.9650 C   0  0  0  0  0  0  0  0  0  0  0  0
   -2.8450   22.6690  -28.4320 C   0  0  0  0  0  0  0  0  0  0  0  0
   -2.1010   23.7420  -28.9360 C   0  0  0  0  0  0  0  0  0  0  0  0
   -2.7930   24.8980  -29.4280 N   0  0  0  0  0  0  0  0  0  0  0  0
   -4.1130   24.9330  -29.9880 C   0  0  0  0  0  0  0  0  0  0  0  0
   -4.2460   25.1930  -31.2130 O   0  0  0  0  0  0  0  0  0  0  0  0
   -5.3320   24.5820  -29.1860 C   0  0  0  0  0  0  0  0  0  0  0  0
   -6.8360   25.0470  -30.1050 S   0  0  0  0  0  0  0  0  0  0  0  0
   -7.0090   23.4330  -30.8600 C   0  0  0  0  0  0  0  0  0  0  0  0
   -8.2510   22.8570  -30.9440 N   0  0  0  0  0  0  0  0  0  0  0  0
   -8.4240   21.6160  -31.4830 C   0  0  0  0  0  0  0  0  0  0  0  0
   -9.5690   21.0940  -31.5320 O   0  0  0  0  0  0  0  0  0  0  0  0
   -7.3010   20.9560  -31.9640 C   0  0  0  0  0  0  0  0  0  0  0  0
   -7.0650   19.7040  -32.4990 C   0  0  0  0  0  0  0  0  0  0  0  0
   -8.0690   18.6250  -32.7380 C   0  0  0  0  0  0  0  0  0  0  0  0
   -5.7340   19.5720  -32.7240 N   0  0  0  0  0  0  0  0  0  0  0  0
   -5.1360   20.7050  -32.3640 N   0  0  0  0  0  0  0  0  0  0  0  0
   -3.7220   20.9240  -32.4750 C   0  0  0  0  0  0  0  0  0  0  0  0
   -3.0100   21.5650  -31.4460 C   0  0  0  0  0  0  0  0  0  0  0  0
   -1.6370   21.7940  -31.5770 C   0  0  0  0  0  0  0  0  0  0  0  0
   -0.9680   21.3990  -32.7390 C   0  0  0  0  0  0  0  0  0  0  0  0
   -1.6740   20.7810  -33.7740 C   0  0  0  0  0  0  0  0  0  0  0  0
   -3.0470   20.5510  -33.6480 C   0  0  0  0  0  0  0  0  0  0  0  0
   -6.0800   21.5480  -31.8940 C   0  0  0  0  0  0  0  0  0  0  0  0
   -5.9050   22.7710  -31.3270 N   0  0  0  0  0  0  0  0  0  0  0  0
   -0.7030   23.6290  -29.0210 C   0  0  0  0  0  0  0  0  0  0  0  0
   -0.0590   22.4790  -28.5540 C   0  0  0  0  0  0  0  0  0  0  0  0
   -0.1015   20.1515  -26.4394 H   0  0  0  0  0  0  0  0  0  0  0  0
   -0.6564   19.2970  -27.9187 H   0  0  0  0  0  0  0  0  0  0  0  0
    0.9173   20.1631  -27.9187 H   0  0  0  0  0  0  0  0  0  0  0  0
   -2.7969   20.6822  -27.5667 H   0  0  0  0  0  0  0  0  0  0  0  0
   -3.9428   22.7316  -28.4031 H   0  0  0  0  0  0  0  0  0  0  0  0
   -5.3425   23.4990  -28.9938 H   0  0  0  0  0  0  0  0  0  0  0  0
   -5.3073   25.1293  -28.2321 H   0  0  0  0  0  0  0  0  0  0  0  0
   -8.4286   18.2385  -31.7730 H   0  0  0  0  0  0  0  0  0  0  0  0
   -8.9165   19.0326  -33.3086 H   0  0  0  0  0  0  0  0  0  0  0  0
   -7.6015   17.8090  -33.3086 H   0  0  0  0  0  0  0  0  0  0  0  0
   -3.5350   21.8875  -30.5347 H   0  0  0  0  0  0  0  0  0  0  0  0
   -1.0823   22.2858  -30.7643 H   0  0  0  0  0  0  0  0  0  0  0  0
    0.1133   21.5746  -32.8384 H   0  0  0  0  0  0  0  0  0  0  0  0
   -1.1482   20.4746  -34.6903 H   0  0  0  0  0  0  0  0  0  0  0  0
   -3.6007   20.0759  -34.4712 H   0  0  0  0  0  0  0  0  0  0  0  0
   -4.9560   23.1920  -31.2190 H   0  0  0  0  0  0  0  0  0  0  0  0
   -0.1127   24.4486  -29.4567 H   0  0  0  0  0  0  0  0  0  0  0  0
    1.0362   22.4001  -28.6192 H   0  0  0  0  0  0  0  0  0  0  0  0
  1  2  1  0
  2  3  2  0
  3  4  1  0
  4  5  2  0
  5  6  1  0
  6  7  1  0
  7  8  2  0
  7  9  1  0
  9 10  1  0
 10 11  1  0
 11 12  2  0
 12 13  1  0
 13 14  2  0
 13 15  1  0
 15 16  1  0
 16 17  1  0
 16 18  2  0
 18 19  1  0
 19 20  1  0
 20 21  2  0
 21 22  1  0
 22 23  2  0
 23 24  1  0
 24 25  2  0
 19 26  1  0
 26 27  1  0
  5 28  1  0
 28 29  2  0
 29  2  1  0
 27 11  1  0
 26 15  2  0
 25 20  1  0
  1 30  1  0
  1 31  1  0
  1 32  1  0
  3 33  1  0
  4 34  1  0
  9 35  1  0
  9 36  1  0
 17 37  1  0
 17 38  1  0
 17 39  1  0
 21 40  1  0
 22 41  1  0
 23 42  1  0
 24 43  1  0
 25 44  1  0
 27 45  1  0
 28 46  1  0
 29 47  1  0
M  CHG  1   6  -1
M  END
>  <UniqueID>  (38) 
38

>  <SMILES>  (38) 
Cc1ccc([N-]C(=O)CSc2nc(=O)c3c(C)nn(-c4ccccc4)c3[nH]2)cc1

>  <Energy>  (38) 
96.67554240355975

>  <Genealogy>  (38) 
Cc1ccc([N-]C(=O)CSc2nc(=O)c3c(C)nn(-c4ccccc4)c3[nH]2)cc1 (protonated)
Cc1ccc([N-]C(=O)CSc2nc(=O)c3c(C)nn(-c4ccccc4)c3[nH]2)cc1 (3D coordinates assigned)
Cc1ccc([N-]C(=O)CSc2nc(=O)c3c(C)nn(-c4ccccc4)c3[nH]2)cc1 (optimized conformer: 96.67554240355975 kcal/mol)

>  <smiles>  (38) 
Cc1ccc(NC(=O)CSc2nc(=O)c3c(C)nn(-c4ccccc4)c3[nH]2)cc1

>  <score_type>  (38) 
oracle

>  <origin>  (38) 
adgpu

>  <m_score__min__energy>  (38) 
-11.84

>  <m_primary>  (38) 
energy

$$$$
38:0
     RDKit          3D

 52 55  0  0  0  0  0  0  0  0999 V2000
   -4.2500   15.7610  -34.3690 C   0  0  0  0  0  0  0  0  0  0  0  0
   -5.6350   15.8920  -34.0700 O   0  0  0  0  0  0  0  0  0  0  0  0
   -6.2070   17.0970  -33.6520 C   0  0  0  0  0  0  0  0  0  0  0  0
   -5.7620   18.2990  -34.2080 C   0  0  0  0  0  0  0  0  0  0  0  0
   -6.3320   19.5030  -33.7910 C   0  0  0  0  0  0  0  0  0  0  0  0
   -7.3360   19.5020  -32.8120 C   0  0  0  0  0  0  0  0  0  0  0  0
   -7.9690   20.7880  -32.3520 C   0  0  0  0  0  0  0  0  0  0  0  0
   -7.0910   21.8930  -32.5680 O   0  0  0  0  0  0  0  0  0  0  0  0
   -6.3050   22.5070  -31.5800 C   0  0  0  0  0  0  0  0  0  0  0  0
   -5.1780   21.8290  -31.1150 C   0  0  0  0  0  0  0  0  0  0  0  0
   -4.3670   22.4120  -30.1400 C   0  0  0  0  0  0  0  0  0  0  0  0
   -4.6630   23.6460  -29.6300 N   0  0  0  0  0  0  0  0  0  0  0  0
   -3.7880   24.2150  -28.6330 C   0  0  0  0  0  0  0  0  0  0  0  0
   -4.2210   24.3780  -27.3100 C   0  0  0  0  0  0  0  0  0  0  0  0
   -3.3700   24.9400  -26.3590 C   0  0  0  0  0  0  0  0  0  0  0  0
   -2.0750   25.3350  -26.7340 C   0  0  0  0  0  0  0  0  0  0  0  0
   -1.1750   25.9370  -25.7840 N   0  0  0  0  0  0  0  0  0  0  0  0
   -0.5710   27.2380  -26.0990 C   0  0  0  0  0  0  0  0  0  0  0  0
    0.1990   27.7880  -24.8950 C   0  0  0  0  0  0  0  0  0  0  0  0
   -0.5640   27.5240  -23.6730 N   0  0  0  0  0  0  0  0  0  0  0  0
   -0.6320   26.0830  -23.3650 C   0  0  0  0  0  0  0  0  0  0  0  0
   -0.6760   25.1870  -24.6220 C   0  0  0  0  0  0  0  0  0  0  0  0
   -1.6850   25.1870  -28.0310 N   0  0  0  0  0  0  0  0  0  0  0  0
   -2.4970   24.6440  -28.9740 C   0  0  0  0  0  0  0  0  0  0  0  0
   -5.7750   24.3240  -30.0630 C   0  0  0  0  0  0  0  0  0  0  0  0
   -6.0730   25.4490  -29.5750 O   0  0  0  0  0  0  0  0  0  0  0  0
   -6.6070   23.7680  -31.0410 C   0  0  0  0  0  0  0  0  0  0  0  0
   -7.7620   18.2730  -32.2860 C   0  0  0  0  0  0  0  0  0  0  0  0
   -7.1930   17.1140  -32.7100 N   0  0  0  0  0  0  0  0  0  0  0  0
   -3.6762   15.7067  -33.4321 H   0  0  0  0  0  0  0  0  0  0  0  0
   -4.0862   14.8433  -34.9530 H   0  0  0  0  0  0  0  0  0  0  0  0
   -3.9170   16.6317  -34.9530 H   0  0  0  0  0  0  0  0  0  0  0  0
   -4.9679   18.2966  -34.9692 H   0  0  0  0  0  0  0  0  0  0  0  0
   -5.9935   20.4529  -34.2305 H   0  0  0  0  0  0  0  0  0  0  0  0
   -8.9001   20.9525  -32.9141 H   0  0  0  0  0  0  0  0  0  0  0  0
   -8.1793   20.7111  -31.2750 H   0  0  0  0  0  0  0  0  0  0  0  0
   -4.9287   20.8357  -31.5164 H   0  0  0  0  0  0  0  0  0  0  0  0
   -3.4794   21.8727  -29.7776 H   0  0  0  0  0  0  0  0  0  0  0  0
   -5.2343   24.0619  -27.0213 H   0  0  0  0  0  0  0  0  0  0  0  0
   -3.7106   25.0732  -25.3216 H   0  0  0  0  0  0  0  0  0  0  0  0
    0.1214   27.1183  -26.9454 H   0  0  0  0  0  0  0  0  0  0  0  0
   -1.3733   27.9452  -26.3564 H   0  0  0  0  0  0  0  0  0  0  0  0
    1.1802   27.2951  -24.8296 H   0  0  0  0  0  0  0  0  0  0  0  0
    0.3436   28.8720  -25.0131 H   0  0  0  0  0  0  0  0  0  0  0  0
   -0.0860   28.0070  -22.8770 H   0  0  0  0  0  0  0  0  0  0  0  0
    0.2549   25.8108  -22.7740 H   0  0  0  0  0  0  0  0  0  0  0  0
   -1.5684   25.9134  -22.8132 H   0  0  0  0  0  0  0  0  0  0  0  0
    0.3382   24.8204  -24.8386 H   0  0  0  0  0  0  0  0  0  0  0  0
   -1.3563   24.3444  -24.4292 H   0  0  0  0  0  0  0  0  0  0  0  0
   -2.1409   24.5401  -30.0096 H   0  0  0  0  0  0  0  0  0  0  0  0
   -7.4952   24.3172  -31.3867 H   0  0  0  0  0  0  0  0  0  0  0  0
   -8.5589   18.2475  -31.5282 H   0  0  0  0  0  0  0  0  0  0  0  0
  1  2  1  0
  2  3  1  0
  3  4  2  0
  4  5  1  0
  5  6  2  0
  6  7  1  0
  7  8  1  0
  8  9  1  0
  9 10  1  0
 10 11  2  0
 11 12  1  0
 12 13  1  0
 13 14  2  0
 14 15  1  0
 15 16  2  0
 16 17  1  0
 17 18  1  0
 18 19  1  0
 19 20  1  0
 20 21  1  0
 21 22  1  0
 16 23  1  0
 23 24  2  0
 12 25  1  0
 25 26  2  0
 25 27  1  0
  6 28  1  0
 28 29  2  0
 29  3  1  0
 27  9  2  0
 24 13  1  0
 22 17  1  0
  1 30  1  0
  1 31  1  0
  1 32  1  0
  4 33  1  0
  5 34  1  0
  7 35  1  0
  7 36  1  0
 10 37  1  0
 11 38  1  0
 14 39  1  0
 15 40  1  0
 18 41  1  0
 18 42  1  0
 19 43  1  0
 19 44  1  0
 20 45  1  0
 21 46  1  0
 21 47  1  0
 22 48  1  0
 22 49  1  0
 24 50  1  0
 27 51  1  0
 28 52  1  0
M  END
>  <UniqueID>  (39) 
39

>  <SMILES>  (39) 
COc1ccc(COc2ccn(-c3ccc(N4CCNCC4)nc3)c(=O)c2)cn1

>  <Energy>  (39) 
70.13077792728943

>  <Genealogy>  (39) 
COc1ccc(COc2ccn(-c3ccc(N4CCNCC4)nc3)c(=O)c2)cn1 (3D coordinates assigned)
COc1ccc(COc2ccn(-c3ccc(N4CCNCC4)nc3)c(=O)c2)cn1 (nonaromatic ring conformer: 70.13077792728943 kcal/mol)

>  <smiles>  (39) 
COc1ccc(COc2ccn(-c3ccc(N4CCNCC4)nc3)c(=O)c2)cn1

>  <score_type>  (39) 
oracle

>  <origin>  (39) 
adgpu

>  <m_score__min__energy>  (39) 
-8.6600000000000001

>  <m_primary>  (39) 
energy

$$$$
39:0
     RDKit          3D

 45 47  0  0  0  0  0  0  0  0999 V2000
   -2.4360   19.4820  -26.6530 C   0  0  0  0  0  0  0  0  0  0  0  0
   -3.0300   19.9130  -27.8730 O   0  0  0  0  0  0  0  0  0  0  0  0
   -2.3190   20.4740  -28.9440 C   0  0  0  0  0  0  0  0  0  0  0  0
   -0.9300   20.6940  -28.8940 C   0  0  0  0  0  0  0  0  0  0  0  0
   -0.2610   21.2220  -30.0010 C   0  0  0  0  0  0  0  0  0  0  0  0
   -0.9660   21.5270  -31.1680 C   0  0  0  0  0  0  0  0  0  0  0  0
   -2.3520   21.3160  -31.2310 C   0  0  0  0  0  0  0  0  0  0  0  0
   -3.1000   21.6380  -32.4630 C   0  0  0  0  0  0  0  0  0  0  0  0
   -2.8620   20.9950  -33.5190 O   0  0  0  0  0  0  0  0  0  0  0  0
   -4.1110   22.6530  -32.4820 N   0  0  0  0  0  0  0  0  0  0  0  0
   -5.3150   22.6210  -31.6990 C   0  0  0  0  0  0  0  0  0  0  0  0
   -6.1620   21.5140  -31.8330 C   0  0  0  0  0  0  0  0  0  0  0  0
   -7.3340   21.4220  -31.0820 C   0  0  0  0  0  0  0  0  0  0  0  0
   -7.6840   22.4480  -30.2050 C   0  0  0  0  0  0  0  0  0  0  0  0
   -6.8690   23.5750  -30.0840 C   0  0  0  0  0  0  0  0  0  0  0  0
   -5.6750   23.6790  -30.8220 C   0  0  0  0  0  0  0  0  0  0  0  0
   -4.8870   24.9340  -30.7450 C   0  0  0  0  0  0  0  0  0  0  0  0
   -5.4820   26.0360  -30.8770 O   0  0  0  0  0  0  0  0  0  0  0  0
   -3.4880   24.9560  -30.4220 N   0  0  0  0  0  0  0  0  0  0  0  0
   -2.8240   24.4990  -29.2320 C   0  0  0  0  0  0  0  0  0  0  0  0
   -1.4490   24.7260  -29.1090 C   0  0  0  0  0  0  0  0  0  0  0  0
   -0.7440   24.2470  -28.0010 C   0  0  0  0  0  0  0  0  0  0  0  0
   -1.4110   23.5340  -26.9950 C   0  0  0  0  0  0  0  0  0  0  0  0
   -0.6480   22.9700  -25.8320 C   0  0  0  0  0  0  0  0  0  0  0  0
   -2.7840   23.2830  -27.1250 C   0  0  0  0  0  0  0  0  0  0  0  0
   -3.4860   23.7630  -28.2340 C   0  0  0  0  0  0  0  0  0  0  0  0
   -3.0240   20.8090  -30.1080 C   0  0  0  0  0  0  0  0  0  0  0  0
   -3.0023   19.8929  -25.8042 H   0  0  0  0  0  0  0  0  0  0  0  0
   -2.4508   18.3831  -26.6061 H   0  0  0  0  0  0  0  0  0  0  0  0
   -1.3959   19.8370  -26.6061 H   0  0  0  0  0  0  0  0  0  0  0  0
   -0.3690   20.4494  -27.9800 H   0  0  0  0  0  0  0  0  0  0  0  0
    0.8238   21.3981  -29.9537 H   0  0  0  0  0  0  0  0  0  0  0  0
   -0.4331   21.9338  -32.0401 H   0  0  0  0  0  0  0  0  0  0  0  0
   -5.9009   20.7098  -32.5367 H   0  0  0  0  0  0  0  0  0  0  0  0
   -7.9827   20.5392  -31.1818 H   0  0  0  0  0  0  0  0  0  0  0  0
   -8.6041   22.3692  -29.6073 H   0  0  0  0  0  0  0  0  0  0  0  0
   -7.1628   24.3894  -29.4055 H   0  0  0  0  0  0  0  0  0  0  0  0
   -0.9174   25.2869  -29.8918 H   0  0  0  0  0  0  0  0  0  0  0  0
    0.3375   24.4301  -27.9182 H   0  0  0  0  0  0  0  0  0  0  0  0
   -1.1078   23.3099  -24.8923 H   0  0  0  0  0  0  0  0  0  0  0  0
   -0.6724   21.8711  -25.8757 H   0  0  0  0  0  0  0  0  0  0  0  0
    0.3954   23.3156  -25.8757 H   0  0  0  0  0  0  0  0  0  0  0  0
   -3.3110   22.7059  -26.3509 H   0  0  0  0  0  0  0  0  0  0  0  0
   -4.5638   23.5635  -28.3265 H   0  0  0  0  0  0  0  0  0  0  0  0
   -4.1151   20.6732  -30.1418 H   0  0  0  0  0  0  0  0  0  0  0  0
  1  2  1  0
  2  3  1  0
  3  4  2  0
  4  5  1  0
  5  6  2  0
  6  7  1  0
  7  8  1  0
  8  9  2  0
  8 10  1  0
 10 11  1  0
 11 12  2  0
 12 13  1  0
 13 14  2  0
 14 15  1  0
 15 16  2  0
 16 17  1  0
 17 18  2  0
 17 19  1  0
 19 20  1  0
 20 21  2  0
 21 22  1  0
 22 23  2  0
 23 24  1  0
 23 25  1  0
 25 26  2  0
  7 27  2  0
 27  3  1  0
 16 11  1  0
 26 20  1  0
  1 28  1  0
  1 29  1  0
  1 30  1  0
  4 31  1  0
  5 32  1  0
  6 33  1  0
 12 34  1  0
 13 35  1  0
 14 36  1  0
 15 37  1  0
 21 38  1  0
 22 39  1  0
 24 40  1  0
 24 41  1  0
 24 42  1  0
 25 43  1  0
 26 44  1  0
 27 45  1  0
M  CHG  2  10  -1  19  -1
M  END
>  <UniqueID>  (40) 
40

>  <SMILES>  (40) 
COc1cccc(C(=O)[N-]c2ccccc2C(=O)[N-]c2ccc(C)cc2)c1

>  <Energy>  (40) 
61.12745621772596

>  <Genealogy>  (40) 
COc1cccc(C(=O)[N-]c2ccccc2C(=O)[N-]c2ccc(C)cc2)c1 (protonated)
COc1cccc(C(=O)[N-]c2ccccc2C(=O)[N-]c2ccc(C)cc2)c1 (3D coordinates assigned)
COc1cccc(C(=O)[N-]c2ccccc2C(=O)[N-]c2ccc(C)cc2)c1 (optimized conformer: 61.12745621772596 kcal/mol)

>  <smiles>  (40) 
COc1cccc(C(=O)Nc2ccccc2C(=O)Nc2ccc(C)cc2)c1

>  <score_type>  (40) 
oracle

>  <origin>  (40) 
adgpu

>  <m_score__min__energy>  (40) 
-10.779999999999999

>  <m_primary>  (40) 
energy

$$$$
40:0
     RDKit          3D

 37 39  0  0  0  0  0  0  0  0999 V2000
   -9.0740   17.9830  -31.4970 O   0  0  0  0  0  0  0  0  0  0  0  0
   -8.1520   18.7040  -31.9650 C   0  0  0  0  0  0  0  0  0  0  0  0
   -7.0310   18.0900  -32.6100 N   0  0  0  0  0  0  0  0  0  0  0  0
   -6.4690   18.5820  -33.8600 C   0  0  0  0  0  0  0  0  0  0  0  0
   -5.0900   19.1160  -33.6100 C   0  0  0  0  0  0  0  0  0  0  0  0
   -4.8730   20.4930  -33.4630 C   0  0  0  0  0  0  0  0  0  0  0  0
   -3.5800   20.9800  -33.2670 C   0  0  0  0  0  0  0  0  0  0  0  0
   -2.5110   20.0830  -33.2320 C   0  0  0  0  0  0  0  0  0  0  0  0
   -2.7320   18.7510  -33.3920 N   0  0  0  0  0  0  0  0  0  0  0  0
   -3.9840   18.2530  -33.5840 C   0  0  0  0  0  0  0  0  0  0  0  0
   -8.2280   20.1800  -31.8480 C   0  0  0  0  0  0  0  0  0  0  0  0
   -9.4230   20.8580  -32.1430 C   0  0  0  0  0  0  0  0  0  0  0  0
   -9.4940   22.2480  -32.0290 C   0  0  0  0  0  0  0  0  0  0  0  0
   -8.3770   22.9790  -31.6210 C   0  0  0  0  0  0  0  0  0  0  0  0
   -7.1700   22.3240  -31.3220 C   0  0  0  0  0  0  0  0  0  0  0  0
   -5.9800   23.1020  -30.8890 C   0  0  0  0  0  0  0  0  0  0  0  0
   -4.8050   22.4410  -30.4820 C   0  0  0  0  0  0  0  0  0  0  0  0
   -3.6860   23.1740  -30.0740 C   0  0  0  0  0  0  0  0  0  0  0  0
   -3.7270   24.5710  -30.0670 C   0  0  0  0  0  0  0  0  0  0  0  0
   -2.6140   25.2970  -29.6610 O   0  0  0  0  0  0  0  0  0  0  0  0
   -4.8880   25.2360  -30.4670 C   0  0  0  0  0  0  0  0  0  0  0  0
   -6.0090   24.5080  -30.8770 C   0  0  0  0  0  0  0  0  0  0  0  0
   -7.1050   20.9230  -31.4380 C   0  0  0  0  0  0  0  0  0  0  0  0
   -6.4175   17.7592  -34.5882 H   0  0  0  0  0  0  0  0  0  0  0  0
   -7.1070   19.3843  -34.2591 H   0  0  0  0  0  0  0  0  0  0  0  0
   -5.7228   21.1904  -33.5022 H   0  0  0  0  0  0  0  0  0  0  0  0
   -3.4051   22.0587  -33.1415 H   0  0  0  0  0  0  0  0  0  0  0  0
   -1.4877   20.4546  -33.0746 H   0  0  0  0  0  0  0  0  0  0  0  0
   -4.1292   17.1710  -33.7192 H   0  0  0  0  0  0  0  0  0  0  0  0
  -10.3081   20.2902  -32.4658 H   0  0  0  0  0  0  0  0  0  0  0  0
  -10.4343   22.7692  -32.2617 H   0  0  0  0  0  0  0  0  0  0  0  0
   -8.4418   24.0736  -31.5330 H   0  0  0  0  0  0  0  0  0  0  0  0
   -4.7671   21.3417  -30.4850 H   0  0  0  0  0  0  0  0  0  0  0  0
   -2.7719   22.6500  -29.7580 H   0  0  0  0  0  0  0  0  0  0  0  0
   -4.9206   26.3355  -30.4595 H   0  0  0  0  0  0  0  0  0  0  0  0
   -6.9196   25.0384  -31.1923 H   0  0  0  0  0  0  0  0  0  0  0  0
   -6.1646   20.4019  -31.2053 H   0  0  0  0  0  0  0  0  0  0  0  0
  1  2  2  0
  2  3  1  0
  3  4  1  0
  4  5  1  0
  5  6  2  0
  6  7  1  0
  7  8  2  0
  8  9  1  0
  9 10  2  0
  2 11  1  0
 11 12  2  0
 12 13  1  0
 13 14  2  0
 14 15  1  0
 15 16  1  0
 16 17  2  0
 17 18  1  0
 18 19  2  0
 19 20  1  0
 19 21  1  0
 21 22  2  0
 15 23  2  0
 10  5  1  0
 23 11  1  0
 22 16  1  0
  4 24  1  0
  4 25  1  0
  6 26  1  0
  7 27  1  0
  8 28  1  0
 10 29  1  0
 12 30  1  0
 13 31  1  0
 14 32  1  0
 17 33  1  0
 18 34  1  0
 21 35  1  0
 22 36  1  0
 23 37  1  0
M  CHG  2   3  -1  20  -1
M  END
>  <UniqueID>  (41) 
41

>  <SMILES>  (41) 
O=C([N-]Cc1cccnc1)c1cccc(-c2ccc([O-])cc2)c1

>  <Energy>  (41) 
44.171209439774344

>  <Genealogy>  (41) 
O=C([N-]Cc1cccnc1)c1cccc(-c2ccc([O-])cc2)c1 (protonated)
O=C([N-]Cc1cccnc1)c1cccc(-c2ccc([O-])cc2)c1 (3D coordinates assigned)
O=C([N-]Cc1cccnc1)c1cccc(-c2ccc([O-])cc2)c1 (optimized conformer: 44.171209439774344 kcal/mol)

>  <smiles>  (41) 
O=C(NCc1cccnc1)c1cccc(-c2ccc(O)cc2)c1

>  <score_type>  (41) 
oracle

>  <origin>  (41) 
adgpu

>  <m_score__min__energy>  (41) 
-11.550000000000001

>  <m_primary>  (41) 
energy

$$$$
41:0
     RDKit          3D

 32 33  0  0  0  0  0  0  0  0999 V2000
   -9.0820   19.3600  -32.3340 C   0  0  0  0  0  0  0  0  0  0  0  0
   -9.1890   20.8570  -32.0580 C   0  0  0  0  0  0  0  0  0  0  0  0
   -7.8230   21.4830  -31.9580 C   0  0  0  0  0  0  0  0  0  0  0  0
   -6.6940   20.8140  -32.4620 C   0  0  0  0  0  0  0  0  0  0  0  0
   -5.4230   21.3810  -32.3370 C   0  0  0  0  0  0  0  0  0  0  0  0
   -5.2610   22.6220  -31.6960 C   0  0  0  0  0  0  0  0  0  0  0  0
   -3.9650   23.2140  -31.5380 N   0  0  0  0  0  0  0  0  0  0  0  0
   -3.5930   24.0830  -30.4590 C   0  0  0  0  0  0  0  0  0  0  0  0
   -3.8120   25.3190  -30.5750 O   0  0  0  0  0  0  0  0  0  0  0  0
   -2.8340   23.5760  -29.2850 C   0  0  0  0  0  0  0  0  0  0  0  0
   -3.0680   22.2580  -28.8520 C   0  0  0  0  0  0  0  0  0  0  0  0
   -2.3370   21.7130  -27.7940 C   0  0  0  0  0  0  0  0  0  0  0  0
   -2.6410   20.0660  -27.2740 Cl  0  0  0  0  0  0  0  0  0  0  0  0
   -1.3530   22.4720  -27.1630 C   0  0  0  0  0  0  0  0  0  0  0  0
   -1.1040   23.7840  -27.5760 C   0  0  0  0  0  0  0  0  0  0  0  0
    0.1340   24.7190  -26.7490 Cl  0  0  0  0  0  0  0  0  0  0  0  0
   -1.8470   24.3510  -28.6250 C   0  0  0  0  0  0  0  0  0  0  0  0
   -1.5990   25.6850  -28.9640 O   0  0  0  0  0  0  0  0  0  0  0  0
   -6.3810   23.2700  -31.1620 C   0  0  0  0  0  0  0  0  0  0  0  0
   -7.6550   22.7120  -31.3010 C   0  0  0  0  0  0  0  0  0  0  0  0
   -9.0429   18.8132  -31.3803 H   0  0  0  0  0  0  0  0  0  0  0  0
   -9.9588   19.0298  -32.9103 H   0  0  0  0  0  0  0  0  0  0  0  0
   -8.1671   19.1579  -32.9103 H   0  0  0  0  0  0  0  0  0  0  0  0
   -9.7456   21.3356  -32.8773 H   0  0  0  0  0  0  0  0  0  0  0  0
   -9.7133   21.0019  -31.1019 H   0  0  0  0  0  0  0  0  0  0  0  0
   -6.8117   19.8390  -32.9574 H   0  0  0  0  0  0  0  0  0  0  0  0
   -4.5459   20.8546  -32.7415 H   0  0  0  0  0  0  0  0  0  0  0  0
   -3.8357   21.6496  -29.3526 H   0  0  0  0  0  0  0  0  0  0  0  0
   -0.7705   22.0372  -26.3374 H   0  0  0  0  0  0  0  0  0  0  0  0
   -1.6300   26.0310  -29.9140 H   0  0  0  0  0  0  0  0  0  0  0  0
   -6.2577   24.2246  -30.6295 H   0  0  0  0  0  0  0  0  0  0  0  0
   -8.5305   23.2387  -30.8934 H   0  0  0  0  0  0  0  0  0  0  0  0
  1  2  1  0
  2  3  1  0
  3  4  2  0
  4  5  1  0
  5  6  2  0
  6  7  1  0
  7  8  1  0
  8  9  2  0
  8 10  1  0
 10 11  2  0
 11 12  1  0
 12 13  1  0
 12 14  2  0
 14 15  1  0
 15 16  1  0
 15 17  2  0
 17 18  1  0
  6 19  1  0
 19 20  2  0
 20  3  1  0
 17 10  1  0
  1 21  1  0
  1 22  1  0
  1 23  1  0
  2 24  1  0
  2 25  1  0
  4 26  1  0
  5 27  1  0
 11 28  1  0
 14 29  1  0
 18 30  1  0
 19 31  1  0
 20 32  1  0
M  CHG  1   7  -1
M  END
>  <UniqueID>  (42) 
42

>  <SMILES>  (42) 
CCc1ccc([N-]C(=O)c2cc(Cl)cc(Cl)c2O)cc1

>  <Energy>  (42) 
39.34220352868875

>  <Genealogy>  (42) 
CCc1ccc([N-]C(=O)c2cc(Cl)cc(Cl)c2O)cc1 (protonated)
CCc1ccc([N-]C(=O)c2cc(Cl)cc(Cl)c2O)cc1 (3D coordinates assigned)
CCc1ccc([N-]C(=O)c2cc(Cl)cc(Cl)c2O)cc1 (optimized conformer: 39.34220352868875 kcal/mol)

>  <smiles>  (42) 
CCc1ccc(NC(=O)c2cc(Cl)cc(Cl)c2O)cc1

>  <score_type>  (42) 
oracle

>  <origin>  (42) 
adgpu

>  <m_score__min__energy>  (42) 
-9.9600000000000009

>  <m_primary>  (42) 
energy

$$$$
42:0
     RDKit          3D

 47 49  0  0  0  0  0  0  0  0999 V2000
   -1.5380   25.8210  -28.9600 N   0  0  0  0  0  0  0  0  0  0  0  0
   -2.6990   24.5410  -29.0650 S   0  0  0  0  0  0  0  0  0  0  0  0
   -3.7780   24.7590  -28.0450 O   0  0  0  0  0  0  0  0  0  0  0  0
   -3.3140   24.5760  -30.4390 O   0  0  0  0  0  0  0  0  0  0  0  0
   -1.9250   22.9710  -28.7850 C   0  0  0  0  0  0  0  0  0  0  0  0
   -0.9960   22.8580  -27.7350 C   0  0  0  0  0  0  0  0  0  0  0  0
   -0.4160   21.6260  -27.4280 C   0  0  0  0  0  0  0  0  0  0  0  0
   -0.7550   20.4900  -28.1640 C   0  0  0  0  0  0  0  0  0  0  0  0
   -1.6630   20.5850  -29.2220 C   0  0  0  0  0  0  0  0  0  0  0  0
   -2.2500   21.8210  -29.5500 C   0  0  0  0  0  0  0  0  0  0  0  0
   -3.2050   21.8680  -30.6780 C   0  0  0  0  0  0  0  0  0  0  0  0
   -2.7560   21.8060  -32.0040 C   0  0  0  0  0  0  0  0  0  0  0  0
   -3.6420   21.8860  -33.0300 N   0  0  0  0  0  0  0  0  0  0  0  0
   -4.9800   22.0130  -32.8170 C   0  0  0  0  0  0  0  0  0  0  0  0
   -5.4870   22.0420  -31.5100 C   0  0  0  0  0  0  0  0  0  0  0  0
   -6.8590   22.1460  -31.2460 O   0  0  0  0  0  0  0  0  0  0  0  0
   -7.8380   22.2710  -32.2740 C   0  0  0  0  0  0  0  0  0  0  0  0
   -9.1020   21.4590  -31.9170 C   0  0  2  0  0  0  0  0  0  0  0  0
   -9.1780   21.2210  -30.4740 N   0  0  0  0  0  0  0  0  0  0  0  0
   -9.1870   20.1100  -32.6580 C   0  0  0  0  0  0  0  0  0  0  0  0
   -7.8990   19.3290  -32.5950 C   0  0  0  0  0  0  0  0  0  0  0  0
   -6.9020   19.5210  -33.5670 C   0  0  0  0  0  0  0  0  0  0  0  0
   -5.7190   18.7760  -33.5200 C   0  0  0  0  0  0  0  0  0  0  0  0
   -5.5310   17.8230  -32.5160 C   0  0  0  0  0  0  0  0  0  0  0  0
   -6.5210   17.6200  -31.5510 C   0  0  0  0  0  0  0  0  0  0  0  0
   -7.7000   18.3720  -31.5870 C   0  0  0  0  0  0  0  0  0  0  0  0
   -4.5870   21.9560  -30.4390 C   0  0  0  0  0  0  0  0  0  0  0  0
   -1.2410   26.0470  -29.9340 H   0  0  0  0  0  0  0  0  0  0  0  0
   -0.7239   23.7490  -27.1502 H   0  0  0  0  0  0  0  0  0  0  0  0
    0.3094   21.5505  -26.6046 H   0  0  0  0  0  0  0  0  0  0  0  0
   -0.3067   19.5179  -27.9109 H   0  0  0  0  0  0  0  0  0  0  0  0
   -1.9207   19.6870  -29.8026 H   0  0  0  0  0  0  0  0  0  0  0  0
   -1.6823   21.6922  -32.2145 H   0  0  0  0  0  0  0  0  0  0  0  0
   -5.6661   22.0932  -33.6730 H   0  0  0  0  0  0  0  0  0  0  0  0
   -8.1089   23.3309  -32.3892 H   0  0  0  0  0  0  0  0  0  0  0  0
   -7.4190   21.8829  -33.2141 H   0  0  0  0  0  0  0  0  0  0  0  0
   -9.9545   22.0722  -32.2446 H   0  0  0  0  0  0  0  0  0  0  0  0
   -8.2430   20.9150  -30.1170 H   0  0  0  0  0  0  0  0  0  0  0  0
   -9.4050   22.1260  -29.9980 H   0  0  0  0  0  0  0  0  0  0  0  0
   -9.9864   19.5077  -32.2017 H   0  0  0  0  0  0  0  0  0  0  0  0
   -9.3935   20.3251  -33.7168 H   0  0  0  0  0  0  0  0  0  0  0  0
   -7.0526   20.2600  -34.3678 H   0  0  0  0  0  0  0  0  0  0  0  0
   -4.9358   18.9408  -34.2746 H   0  0  0  0  0  0  0  0  0  0  0  0
   -4.6035   17.2324  -32.4851 H   0  0  0  0  0  0  0  0  0  0  0  0
   -6.3731   16.8679  -30.7620 H   0  0  0  0  0  0  0  0  0  0  0  0
   -8.4746   18.2129  -30.8223 H   0  0  0  0  0  0  0  0  0  0  0  0
   -4.9645   21.9574  -29.4058 H   0  0  0  0  0  0  0  0  0  0  0  0
  1  2  1  0
  2  3  2  0
  2  4  2  0
  2  5  1  0
  5  6  2  0
  6  7  1  0
  7  8  2  0
  8  9  1  0
  9 10  2  0
 10 11  1  0
 11 12  2  0
 12 13  1  0
 13 14  2  0
 14 15  1  0
 15 16  1  0
 16 17  1  0
 17 18  1  0
 18 19  1  0
 18 20  1  0
 20 21  1  0
 21 22  2  0
 22 23  1  0
 23 24  2  0
 24 25  1  0
 25 26  2  0
 15 27  2  0
 10  5  1  0
 27 11  1  0
 26 21  1  0
  1 28  1  0
  6 29  1  0
  7 30  1  0
  8 31  1  0
  9 32  1  0
 12 33  1  0
 14 34  1  0
 17 35  1  0
 17 36  1  0
 18 37  1  6
 19 38  1  0
 19 39  1  0
 20 40  1  0
 20 41  1  0
 22 42  1  0
 23 43  1  0
 24 44  1  0
 25 45  1  0
 26 46  1  0
 27 47  1  0
M  CHG  1   1  -1
M  END
>  <UniqueID>  (43) 
43

>  <SMILES>  (43) 
[NH-]S(=O)(=O)c1ccccc1-c1cncc(OC[C@H](N)Cc2ccccc2)c1

>  <Energy>  (43) 
57.99312403671848

>  <Genealogy>  (43) 
[NH-]S(=O)(=O)c1ccccc1-c1cncc(OCC(N)Cc2ccccc2)c1 (protonated)
[NH-]S(=O)(=O)c1ccccc1-c1cncc(OC[C@H](N)Cc2ccccc2)c1 (chirality)
[NH-]S(=O)(=O)c1ccccc1-c1cncc(OC[C@H](N)Cc2ccccc2)c1 (3D coordinates assigned)
[NH-]S(=O)(=O)c1ccccc1-c1cncc(OC[C@H](N)Cc2ccccc2)c1 (optimized conformer: 57.99312403671848 kcal/mol)

>  <smiles>  (43) 
NC(COc1cncc(-c2ccccc2S(N)(=O)=O)c1)Cc1ccccc1

>  <score_type>  (43) 
oracle

>  <origin>  (43) 
adgpu

>  <m_score__min__energy>  (43) 
-11.640000000000001

>  <m_primary>  (43) 
energy

$$$$
43:0
     RDKit          3D

 38 41  0  0  1  0  0  0  0  0999 V2000
   -9.4800   21.8030  -31.9260 C   0  0  0  0  0  0  0  0  0  0  0  0
   -8.6910   20.5510  -32.0800 C   0  0  0  0  0  0  0  0  0  0  0  0
   -9.1080   19.3760  -31.4920 C   0  0  0  0  0  0  0  0  0  0  0  0
   -8.4100   18.1880  -31.6060 C   0  0  0  0  0  0  0  0  0  0  0  0
   -7.2370   18.1510  -32.3370 C   0  0  0  0  0  0  0  0  0  0  0  0
   -6.8030   19.3340  -32.9370 C   0  0  0  0  0  0  0  0  0  0  0  0
   -5.6150   19.2420  -33.6620 O   0  0  0  0  0  0  0  0  0  0  0  0
   -4.5130   20.0560  -33.3690 C   0  0  0  0  0  0  0  0  0  0  0  0
   -4.4340   21.3570  -32.8990 C   0  0  0  0  0  0  0  0  0  0  0  0
   -5.4140   22.3460  -32.5390 N   0  0  0  0  0  0  0  0  0  0  0  0
   -5.1400   23.2290  -31.6350 C   0  0  0  0  0  0  0  0  0  0  0  0
   -6.0330   24.2070  -31.2400 C   0  0  0  0  0  0  0  0  0  0  0  0
   -5.6060   25.0840  -30.2650 C   0  0  0  0  0  0  0  0  0  0  0  0
   -4.3660   24.9940  -29.7140 N   0  0  0  0  0  0  0  0  0  0  0  0
   -3.5190   24.0310  -30.1190 C   0  0  0  0  0  0  0  0  0  0  0  0
   -2.1960   23.8980  -29.5640 N   0  0  0  0  0  0  0  0  0  0  0  0
   -1.4160   22.8170  -29.5050 C   0  0  0  0  0  0  0  0  0  0  0  0
   -0.2520   23.2590  -28.8690 C   0  0  0  0  0  0  0  0  0  0  0  0
   -0.3840   24.5600  -28.5810 N   0  0  0  0  0  0  0  0  0  0  0  0
   -1.5750   24.9240  -29.0150 N   0  0  0  0  0  0  0  0  0  0  0  0
   -3.9210   23.1670  -31.0710 N   0  0  0  0  0  0  0  0  0  0  0  0
   -3.0540   21.2670  -32.9330 C   0  0  0  0  0  0  0  0  0  0  0  0
   -2.1040   22.0350  -32.6570 O   0  0  0  0  0  0  0  0  0  0  0  0
   -3.1380   19.9730  -33.4010 C   0  0  0  0  0  0  0  0  0  0  0  0
   -2.3100   19.0600  -33.7330 O   0  0  0  0  0  0  0  0  0  0  0  0
   -7.5050   20.5160  -32.8190 C   0  0  0  0  0  0  0  0  0  0  0  0
   -9.6172   22.0207  -30.8565 H   0  0  0  0  0  0  0  0  0  0  0  0
   -8.9432   22.6358  -32.4038 H   0  0  0  0  0  0  0  0  0  0  0  0
  -10.4629   21.6781  -32.4038 H   0  0  0  0  0  0  0  0  0  0  0  0
  -10.0385   19.3839  -30.9054 H   0  0  0  0  0  0  0  0  0  0  0  0
   -8.7860   17.2769  -31.1176 H   0  0  0  0  0  0  0  0  0  0  0  0
   -6.6637   17.2182  -32.4424 H   0  0  0  0  0  0  0  0  0  0  0  0
   -7.0372   24.2824  -31.6825 H   0  0  0  0  0  0  0  0  0  0  0  0
   -6.2869   25.8777  -29.9238 H   0  0  0  0  0  0  0  0  0  0  0  0
   -4.0720   25.6720  -28.9780 H   0  0  0  0  0  0  0  0  0  0  0  0
   -1.6388   21.8050  -29.8740 H   0  0  0  0  0  0  0  0  0  0  0  0
    0.6282   22.6394  -28.6423 H   0  0  0  0  0  0  0  0  0  0  0  0
   -7.1320   21.4292  -33.3057 H   0  0  0  0  0  0  0  0  0  0  0  0
  1  2  1  0
  2  3  2  0
  3  4  1  0
  4  5  2  0
  5  6  1  0
  6  7  1  0
  7  8  1  0
  8  9  2  0
  9 10  1  0
 10 11  2  0
 11 12  1  0
 12 13  2  0
 13 14  1  0
 14 15  1  0
 15 16  1  0
 16 17  1  0
 17 18  2  0
 18 19  1  0
 19 20  2  0
 15 21  2  0
  9 22  1  0
 22 23  2  0
 22 24  1  0
 24 25  2  0
  6 26  2  0
 26  2  1  0
 24  8  1  0
 21 11  1  0
 20 16  1  0
  1 27  1  0
  1 28  1  0
  1 29  1  0
  3 30  1  0
  4 31  1  0
  5 32  1  0
 12 33  1  0
 13 34  1  0
 14 35  1  0
 17 36  1  0
 18 37  1  0
 26 38  1  0
M  END
>  <smiles>  (44) 
Cc1cccc(Oc2c(N=c3cc[nH]c(-n4ccnn4)n3)c(=O)c2=O)c1

>  <score_type>  (44) 
oracle

>  <origin>  (44) 
adgpu

>  <m_score__min__energy>  (44) 
-9.4700000000000006

>  <m_primary>  (44) 
energy

$$$$
44:0
     RDKit          3D

 59 62  0  0  0  0  0  0  0  0999 V2000
    0.2890   22.1510  -27.8440 C   0  0  0  0  0  0  0  0  0  0  0  0
   -0.4510   20.8840  -27.5070 C   0  0  0  0  0  0  0  0  0  0  0  0
   -1.5640   20.9480  -26.6500 C   0  0  0  0  0  0  0  0  0  0  0  0
   -2.2740   19.7920  -26.3210 C   0  0  0  0  0  0  0  0  0  0  0  0
   -1.8840   18.5590  -26.8410 C   0  0  0  0  0  0  0  0  0  0  0  0
   -0.7880   18.4770  -27.7010 C   0  0  0  0  0  0  0  0  0  0  0  0
   -0.0700   19.6330  -28.0590 C   0  0  0  0  0  0  0  0  0  0  0  0
    1.1200   19.4960  -28.9720 C   0  0  0  0  0  0  0  0  0  0  0  0
    0.7580   19.9470  -30.3110 N   0  0  0  0  0  0  0  0  0  0  0  0
   -0.3930   19.5020  -31.0390 C   0  0  0  0  0  0  0  0  0  0  0  0
   -0.4510   18.3000  -31.4080 O   0  0  0  0  0  0  0  0  0  0  0  0
   -1.5250   20.4000  -31.3410 C   0  0  0  0  0  0  0  0  0  0  0  0
   -2.2610   20.2510  -32.5230 C   0  0  0  0  0  0  0  0  0  0  0  0
   -3.3250   21.1100  -32.8040 C   0  0  0  0  0  0  0  0  0  0  0  0
   -3.6900   22.1200  -31.8930 C   0  0  0  0  0  0  0  0  0  0  0  0
   -4.7100   23.0450  -32.1780 O   0  0  0  0  0  0  0  0  0  0  0  0
   -6.0150   23.0470  -31.5990 C   0  0  0  0  0  0  0  0  0  0  0  0
   -6.7880   21.8430  -32.0390 C   0  0  0  0  0  0  0  0  0  0  0  0
   -8.0200   21.4560  -31.5510 C   0  0  0  0  0  0  0  0  0  0  0  0
   -8.3370   20.2980  -32.2310 C   0  0  0  0  0  0  0  0  0  0  0  0
   -7.2840   20.0560  -33.0890 C   0  0  0  0  0  0  0  0  0  0  0  0
   -6.3760   20.9960  -32.9520 O   0  0  0  0  0  0  0  0  0  0  0  0
   -2.9890   22.2280  -30.6730 C   0  0  0  0  0  0  0  0  0  0  0  0
   -3.3140   23.2300  -29.7020 N   0  0  0  0  0  0  0  0  0  0  0  0
   -3.1180   24.6400  -29.8650 C   0  0  0  0  0  0  0  0  0  0  0  0
   -3.9720   25.3340  -30.4790 O   0  0  0  0  0  0  0  0  0  0  0  0
   -1.9490   25.2810  -29.3450 N   0  0  0  0  0  0  0  0  0  0  0  0
   -1.6040   25.4140  -27.9580 C   0  0  0  0  0  0  0  0  0  0  0  0
   -1.9340   24.4260  -27.0140 C   0  0  0  0  0  0  0  0  0  0  0  0
   -1.5870   24.5960  -25.6720 C   0  0  0  0  0  0  0  0  0  0  0  0
   -0.9320   25.7570  -25.2550 C   0  0  0  0  0  0  0  0  0  0  0  0
   -0.6450   26.7790  -26.1770 C   0  0  0  0  0  0  0  0  0  0  0  0
    0.0920   28.0190  -25.7360 C   0  0  0  0  0  0  0  0  0  0  0  0
    1.4490   27.8940  -25.9760 F   0  0  0  0  0  0  0  0  0  0  0  0
   -0.0890   28.2370  -24.3810 F   0  0  0  0  0  0  0  0  0  0  0  0
   -0.3910   29.1090  -26.4350 F   0  0  0  0  0  0  0  0  0  0  0  0
   -0.9740   26.5900  -27.5310 C   0  0  0  0  0  0  0  0  0  0  0  0
   -1.9010   21.3830  -30.4180 C   0  0  0  0  0  0  0  0  0  0  0  0
    0.5863   22.6600  -26.9153 H   0  0  0  0  0  0  0  0  0  0  0  0
    1.1862   21.9064  -28.4315 H   0  0  0  0  0  0  0  0  0  0  0  0
   -0.3649   22.8123  -28.4315 H   0  0  0  0  0  0  0  0  0  0  0  0
   -1.8779   21.9173  -26.2353 H   0  0  0  0  0  0  0  0  0  0  0  0
   -3.1433   19.8543  -25.6498 H   0  0  0  0  0  0  0  0  0  0  0  0
   -2.4410   17.6491  -26.5731 H   0  0  0  0  0  0  0  0  0  0  0  0
   -0.4826   17.4996  -28.1027 H   0  0  0  0  0  0  0  0  0  0  0  0
    1.9486   20.1101  -28.5895 H   0  0  0  0  0  0  0  0  0  0  0  0
    1.4333   18.4423  -29.0115 H   0  0  0  0  0  0  0  0  0  0  0  0
   -1.9995   19.4531  -33.2336 H   0  0  0  0  0  0  0  0  0  0  0  0
   -3.8831   20.9970  -33.7451 H   0  0  0  0  0  0  0  0  0  0  0  0
   -5.9242   23.0377  -30.5028 H   0  0  0  0  0  0  0  0  0  0  0  0
   -6.5481   23.9509  -31.9288 H   0  0  0  0  0  0  0  0  0  0  0  0
   -8.6217   21.9635  -30.7826 H   0  0  0  0  0  0  0  0  0  0  0  0
   -9.2462   19.6902  -32.1128 H   0  0  0  0  0  0  0  0  0  0  0  0
   -7.2150   19.2051  -33.7827 H   0  0  0  0  0  0  0  0  0  0  0  0
   -2.4663   23.5177  -27.3328 H   0  0  0  0  0  0  0  0  0  0  0  0
   -1.8307   23.8119  -24.9400 H   0  0  0  0  0  0  0  0  0  0  0  0
   -0.6395   25.8723  -24.2009 H   0  0  0  0  0  0  0  0  0  0  0  0
   -0.7338   27.3748  -28.2634 H   0  0  0  0  0  0  0  0  0  0  0  0
   -1.3353   21.4933  -29.4811 H   0  0  0  0  0  0  0  0  0  0  0  0
  1  2  1  0
  2  3  2  0
  3  4  1  0
  4  5  2  0
  5  6  1  0
  6  7  2  0
  7  8  1  0
  8  9  1  0
  9 10  1  0
 10 11  2  0
 10 12  1  0
 12 13  2  0
 13 14  1  0
 14 15  2  0
 15 16  1  0
 16 17  1  0
 17 18  1  0
 18 19  2  0
 19 20  1  0
 20 21  2  0
 21 22  1  0
 15 23  1  0
 23 24  1  0
 24 25  1  0
 25 26  2  0
 25 27  1  0
 27 28  1  0
 28 29  2  0
 29 30  1  0
 30 31  2  0
 31 32  1  0
 32 33  1  0
 33 34  1  0
 33 35  1  0
 33 36  1  0
 32 37  2  0
 23 38  2  0
  7  2  1  0
 38 12  1  0
 22 18  1  0
 37 28  1  0
  1 39  1  0
  1 40  1  0
  1 41  1  0
  3 42  1  0
  4 43  1  0
  5 44  1  0
  6 45  1  0
  8 46  1  0
  8 47  1  0
 13 48  1  0
 14 49  1  0
 17 50  1  0
 17 51  1  0
 19 52  1  0
 20 53  1  0
 21 54  1  0
 29 55  1  0
 30 56  1  0
 31 57  1  0
 37 58  1  0
 38 59  1  0
M  CHG  3   9  -1  24  -1  27  -1
M  END
>  <UniqueID>  (45) 
44

>  <SMILES>  (45) 
Cc1ccccc1C[N-]C(=O)c1ccc(OCc2ccco2)c([N-]C(=O)[N-]c2cccc(C(F)(F)F)c2)c1

>  <Energy>  (45) 
101.62132676545185

>  <Genealogy>  (45) 
Cc1ccccc1C[N-]C(=O)c1ccc(OCc2ccco2)c([N-]C(=O)[N-]c2cccc(C(F)(F)F)c2)c1 (protonated)
Cc1ccccc1C[N-]C(=O)c1ccc(OCc2ccco2)c([N-]C(=O)[N-]c2cccc(C(F)(F)F)c2)c1 (3D coordinates assigned)
Cc1ccccc1C[N-]C(=O)c1ccc(OCc2ccco2)c([N-]C(=O)[N-]c2cccc(C(F)(F)F)c2)c1 (optimized conformer: 101.62132676545185 kcal/mol)

>  <smiles>  (45) 
Cc1ccccc1CNC(=O)c1ccc(OCc2ccco2)c(NC(=O)Nc2cccc(C(F)(F)F)c2)c1

>  <score_type>  (45) 
oracle

>  <origin>  (45) 
adgpu

>  <m_score__min__energy>  (45) 
-11.66

>  <m_primary>  (45) 
energy

$$$$
45:0
     RDKit          3D

 43 45  0  0  0  0  0  0  0  0999 V2000
   -4.2000   23.9740  -27.4990 C   0  0  0  0  0  0  0  0  0  0  0  0
   -4.1100   24.5220  -28.9290 C   0  0  1  0  0  0  0  0  0  0  0  0
   -2.7820   24.1100  -29.6100 C   0  0  0  0  0  0  0  0  0  0  0  0
   -2.9230   22.7900  -30.3760 C   0  0  0  0  0  0  0  0  0  0  0  0
   -4.0580   22.8500  -31.4210 C   0  0  0  0  0  0  0  0  0  0  0  0
   -4.9790   23.9820  -31.1820 N   0  0  0  0  0  0  0  0  0  0  0  0
   -6.1450   23.9890  -32.0950 C   0  0  0  0  0  0  0  0  0  0  0  0
   -7.0100   22.7500  -31.9980 C   0  0  0  0  0  0  0  0  0  0  0  0
   -8.2530   22.7990  -31.3450 C   0  0  0  0  0  0  0  0  0  0  0  0
   -9.0440   21.6530  -31.2510 C   0  0  0  0  0  0  0  0  0  0  0  0
   -8.6110   20.4500  -31.8140 C   0  0  0  0  0  0  0  0  0  0  0  0
   -7.3780   20.3810  -32.4840 C   0  0  0  0  0  0  0  0  0  0  0  0
   -6.9170   19.1040  -33.0860 C   0  0  0  0  0  0  0  0  0  0  0  0
   -6.0800   19.1060  -34.2180 C   0  0  0  0  0  0  0  0  0  0  0  0
   -5.6470   17.9020  -34.7830 C   0  0  0  0  0  0  0  0  0  0  0  0
   -6.0430   16.6850  -34.2230 C   0  0  0  0  0  0  0  0  0  0  0  0
   -6.8710   16.6690  -33.1000 C   0  0  0  0  0  0  0  0  0  0  0  0
   -7.3080   17.8710  -32.5330 C   0  0  0  0  0  0  0  0  0  0  0  0
   -6.5860   21.5410  -32.5760 C   0  0  0  0  0  0  0  0  0  0  0  0
   -5.3440   24.0910  -29.7580 C   0  0  0  0  0  0  0  0  0  0  0  0
   -4.0648   24.7970  -26.7818 H   0  0  0  0  0  0  0  0  0  0  0  0
   -5.1861   23.5116  -27.3449 H   0  0  0  0  0  0  0  0  0  0  0  0
   -3.4136   23.2205  -27.3449 H   0  0  0  0  0  0  0  0  0  0  0  0
   -4.1122   25.6207  -28.8763 H   0  0  0  0  0  0  0  0  0  0  0  0
   -2.4823   24.9003  -30.3140 H   0  0  0  0  0  0  0  0  0  0  0  0
   -2.0231   23.9718  -28.8258 H   0  0  0  0  0  0  0  0  0  0  0  0
   -1.9755   22.5751  -30.8918 H   0  0  0  0  0  0  0  0  0  0  0  0
   -3.1678   21.9995  -29.6514 H   0  0  0  0  0  0  0  0  0  0  0  0
   -3.6132   22.9604  -32.4210 H   0  0  0  0  0  0  0  0  0  0  0  0
   -4.6393   21.9195  -31.3415 H   0  0  0  0  0  0  0  0  0  0  0  0
   -6.7665   24.8645  -31.8557 H   0  0  0  0  0  0  0  0  0  0  0  0
   -5.7468   24.0199  -33.1199 H   0  0  0  0  0  0  0  0  0  0  0  0
   -8.6042   23.7445  -30.9060 H   0  0  0  0  0  0  0  0  0  0  0  0
  -10.0125   21.6972  -30.7314 H   0  0  0  0  0  0  0  0  0  0  0  0
   -9.2395   19.5509  -31.7322 H   0  0  0  0  0  0  0  0  0  0  0  0
   -5.7641   20.0618  -34.6615 H   0  0  0  0  0  0  0  0  0  0  0  0
   -4.9945   17.9134  -35.6685 H   0  0  0  0  0  0  0  0  0  0  0  0
   -5.7018   15.7385  -34.6677 H   0  0  0  0  0  0  0  0  0  0  0  0
   -7.1807   15.7097  -32.6598 H   0  0  0  0  0  0  0  0  0  0  0  0
   -7.9619   17.8518  -31.6486 H   0  0  0  0  0  0  0  0  0  0  0  0
   -5.6234   21.5008  -33.1068 H   0  0  0  0  0  0  0  0  0  0  0  0
   -6.1410   24.8403  -29.6421 H   0  0  0  0  0  0  0  0  0  0  0  0
   -5.6977   23.1132  -29.3991 H   0  0  0  0  0  0  0  0  0  0  0  0
  1  2  1  0
  2  3  1  0
  3  4  1  0
  4  5  1  0
  5  6  1  0
  6  7  1  0
  7  8  1  0
  8  9  2  0
  9 10  1  0
 10 11  2  0
 11 12  1  0
 12 13  1  0
 13 14  2  0
 14 15  1  0
 15 16  2  0
 16 17  1  0
 17 18  2  0
 12 19  2  0
  6 20  1  0
 20  2  1  0
 19  8  1  0
 18 13  1  0
  1 21  1  0
  1 22  1  0
  1 23  1  0
  2 24  1  1
  3 25  1  0
  3 26  1  0
  4 27  1  0
  4 28  1  0
  5 29  1  0
  5 30  1  0
  7 31  1  0
  7 32  1  0
  9 33  1  0
 10 34  1  0
 11 35  1  0
 14 36  1  0
 15 37  1  0
 16 38  1  0
 17 39  1  0
 18 40  1  0
 19 41  1  0
 20 42  1  0
 20 43  1  0
M  END
>  <UniqueID>  (46) 
45

>  <SMILES>  (46) 
C[C@H]1CCCN(Cc2cccc(-c3ccccc3)c2)C1

>  <Energy>  (46) 
55.39959423911625

>  <Genealogy>  (46) 
C[C@H]1CCCN(Cc2cccc(-c3ccccc3)c2)C1 (chirality)
C[C@H]1CCCN(Cc2cccc(-c3ccccc3)c2)C1 (3D coordinates assigned)
C[C@H]1CCCN(Cc2cccc(-c3ccccc3)c2)C1 (nonaromatic ring conformer: 55.39959423911625 kcal/mol)

>  <smiles>  (46) 
CC1CCCN(Cc2cccc(-c3ccccc3)c2)C1

>  <score_type>  (46) 
oracle

>  <origin>  (46) 
adgpu

>  <m_score__min__energy>  (46) 
-8.9299999999999997

>  <m_primary>  (46) 
energy

$$$$
46:0
     RDKit          3D

 42 43  0  0  0  0  0  0  0  0999 V2000
   -1.6650   18.2280  -33.8610 C   0  0  0  0  0  0  0  0  0  0  0  0
   -2.8680   18.3100  -34.6180 O   0  0  0  0  0  0  0  0  0  0  0  0
   -4.1460   18.4880  -34.0640 C   0  0  0  0  0  0  0  0  0  0  0  0
   -5.1400   17.4940  -34.1480 C   0  0  0  0  0  0  0  0  0  0  0  0
   -6.3960   17.7030  -33.5780 C   0  0  0  0  0  0  0  0  0  0  0  0
   -6.6820   18.9020  -32.9120 C   0  0  0  0  0  0  0  0  0  0  0  0
   -8.0200   19.0900  -32.2440 C   0  0  0  0  0  0  0  0  0  0  0  0
   -8.8370   20.0640  -32.9880 N   0  0  0  0  0  0  0  0  0  0  0  0
   -9.4010   21.1120  -32.1190 C   0  0  0  0  0  0  0  0  0  0  0  0
   -8.3250   22.0220  -31.5860 C   0  0  0  0  0  0  0  0  0  0  0  0
   -7.6520   22.9020  -32.4490 C   0  0  0  0  0  0  0  0  0  0  0  0
   -6.7040   23.7970  -31.9460 C   0  0  0  0  0  0  0  0  0  0  0  0
   -6.4010   23.8080  -30.5780 C   0  0  0  0  0  0  0  0  0  0  0  0
   -5.2350   24.9660  -29.9500 S   0  0  0  0  0  0  0  0  0  0  0  0
   -3.7510   24.8200  -30.8220 N   0  0  0  0  0  0  0  0  0  0  0  0
   -4.9920   24.6930  -28.4920 O   0  0  0  0  0  0  0  0  0  0  0  0
   -5.7610   26.3650  -30.0990 O   0  0  0  0  0  0  0  0  0  0  0  0
   -7.0520   22.9140  -29.7180 C   0  0  0  0  0  0  0  0  0  0  0  0
   -8.0060   22.0230  -30.2180 C   0  0  0  0  0  0  0  0  0  0  0  0
   -5.7010   19.9030  -32.8440 C   0  0  0  0  0  0  0  0  0  0  0  0
   -4.4260   19.6950  -33.4070 C   0  0  0  0  0  0  0  0  0  0  0  0
   -3.4110   20.6610  -33.3300 O   0  0  0  0  0  0  0  0  0  0  0  0
   -3.5380   21.9130  -32.6650 C   0  0  0  0  0  0  0  0  0  0  0  0
   -1.9053   18.2444  -32.7877 H   0  0  0  0  0  0  0  0  0  0  0  0
   -1.1412   17.2921  -34.1052 H   0  0  0  0  0  0  0  0  0  0  0  0
   -1.0190   19.0842  -34.1052 H   0  0  0  0  0  0  0  0  0  0  0  0
   -4.9249   16.5477  -34.6659 H   0  0  0  0  0  0  0  0  0  0  0  0
   -7.1666   16.9216  -33.6519 H   0  0  0  0  0  0  0  0  0  0  0  0
   -8.5472   18.1251  -32.2121 H   0  0  0  0  0  0  0  0  0  0  0  0
   -7.8578   19.4681  -31.2238 H   0  0  0  0  0  0  0  0  0  0  0  0
   -8.2090   20.5420  -33.6750 H   0  0  0  0  0  0  0  0  0  0  0  0
  -10.1200   21.7093  -32.6990 H   0  0  0  0  0  0  0  0  0  0  0  0
   -9.8964   20.6250  -31.2661 H   0  0  0  0  0  0  0  0  0  0  0  0
   -7.8722   22.8867  -33.5266 H   0  0  0  0  0  0  0  0  0  0  0  0
   -6.1940   24.4951  -32.6261 H   0  0  0  0  0  0  0  0  0  0  0  0
   -3.5260   25.7680  -31.1990 H   0  0  0  0  0  0  0  0  0  0  0  0
   -6.8114   22.9132  -28.6446 H   0  0  0  0  0  0  0  0  0  0  0  0
   -8.5088   21.3200  -29.5376 H   0  0  0  0  0  0  0  0  0  0  0  0
   -5.9290   20.8576  -32.3473 H   0  0  0  0  0  0  0  0  0  0  0  0
   -3.5218   21.7535  -31.5768 H   0  0  0  0  0  0  0  0  0  0  0  0
   -2.7016   22.5672  -32.9522 H   0  0  0  0  0  0  0  0  0  0  0  0
   -4.4887   22.3859  -32.9522 H   0  0  0  0  0  0  0  0  0  0  0  0
  1  2  1  0
  2  3  1  0
  3  4  2  0
  4  5  1  0
  5  6  2  0
  6  7  1  0
  7  8  1  0
  8  9  1  0
  9 10  1  0
 10 11  2  0
 11 12  1  0
 12 13  2  0
 13 14  1  0
 14 15  1  0
 14 16  2  0
 14 17  2  0
 13 18  1  0
 18 19  2  0
  6 20  1  0
 20 21  2  0
 21 22  1  0
 22 23  1  0
 21  3  1  0
 19 10  1  0
  1 24  1  0
  1 25  1  0
  1 26  1  0
  4 27  1  0
  5 28  1  0
  7 29  1  0
  7 30  1  0
  8 31  1  0
  9 32  1  0
  9 33  1  0
 11 34  1  0
 12 35  1  0
 15 36  1  0
 18 37  1  0
 19 38  1  0
 20 39  1  0
 23 40  1  0
 23 41  1  0
 23 42  1  0
M  CHG  1  15  -1
M  END
>  <UniqueID>  (47) 
46

>  <SMILES>  (47) 
COc1ccc(CNCc2ccc(S([NH-])(=O)=O)cc2)cc1OC

>  <Energy>  (47) 
35.1174237205418

>  <Genealogy>  (47) 
COc1ccc(CNCc2ccc(S([NH-])(=O)=O)cc2)cc1OC (protonated)
COc1ccc(CNCc2ccc(S([NH-])(=O)=O)cc2)cc1OC (3D coordinates assigned)
COc1ccc(CNCc2ccc(S([NH-])(=O)=O)cc2)cc1OC (optimized conformer: 35.1174237205418 kcal/mol)

>  <smiles>  (47) 
COc1ccc(CNCc2ccc(S(N)(=O)=O)cc2)cc1OC

>  <score_type>  (47) 
oracle

>  <origin>  (47) 
adgpu

>  <m_score__min__energy>  (47) 
-9.9700000000000006

>  <m_primary>  (47) 
energy

$$$$
47:0
     RDKit          3D

 68 72  0  0  0  0  0  0  0  0999 V2000
    0.6530   24.1230  -36.2580 H   0  0  0  0  0  0  0  0  0  0  0  0
    1.3260   23.3500  -36.4580 N   0  0  0  0  0  0  0  0  0  0  0  0
    1.3520   22.2690  -35.7430 C   0  0  0  0  0  0  0  0  0  0  0  0
    0.4770   22.1390  -34.7080 N   0  0  0  0  0  0  0  0  0  0  0  0
    0.4320   21.0320  -33.9170 C   0  0  0  0  0  0  0  0  0  0  0  0
   -0.5150   20.9760  -32.8360 N   0  0  0  0  0  0  0  0  0  0  0  0
   -0.0760   20.5930  -31.4890 C   0  0  0  0  0  0  0  0  0  0  0  0
   -0.5082   19.6153  -31.2294 H   0  0  0  0  0  0  0  0  0  0  0  0
    1.0222   20.5325  -31.4711 H   0  0  0  0  0  0  0  0  0  0  0  0
   -0.5380   21.6380  -30.4700 C   0  0  0  0  0  0  0  0  0  0  0  0
   -0.3243   21.2731  -29.4545 H   0  0  0  0  0  0  0  0  0  0  0  0
    0.0008   22.5790  -30.6549 H   0  0  0  0  0  0  0  0  0  0  0  0
   -2.0520   21.8930  -30.6100 C   0  0  0  0  0  0  0  0  0  0  0  0
   -2.5443   20.9325  -30.3977 H   0  0  0  0  0  0  0  0  0  0  0  0
   -2.5820   22.8640  -29.5770 C   0  0  0  0  0  0  0  0  0  0  0  0
   -1.7260   23.6020  -28.8370 N   0  0  0  0  0  0  0  0  0  0  0  0
   -2.5080   24.4010  -28.0880 C   0  0  0  0  0  0  0  0  0  0  0  0
   -1.9810   25.4130  -27.1380 C   0  0  0  0  0  0  0  0  0  0  0  0
   -2.4680   25.4520  -25.8200 C   0  0  0  0  0  0  0  0  0  0  0  0
   -3.2343   24.7308  -25.4996 H   0  0  0  0  0  0  0  0  0  0  0  0
   -1.9860   26.4000  -24.9140 C   0  0  0  0  0  0  0  0  0  0  0  0
   -2.3766   26.4225  -23.8859 H   0  0  0  0  0  0  0  0  0  0  0  0
   -1.0110   27.3190  -25.3070 C   0  0  0  0  0  0  0  0  0  0  0  0
   -0.5660   28.2400  -24.4140 F   0  0  0  0  0  0  0  0  0  0  0  0
   -0.5050   27.2910  -26.6160 C   0  0  0  0  0  0  0  0  0  0  0  0
    0.5230   28.2980  -27.0460 C   0  0  0  0  0  0  0  0  0  0  0  0
    0.9861   28.7516  -26.1573 H   0  0  0  0  0  0  0  0  0  0  0  0
    1.2964   27.7984  -27.6478 H   0  0  0  0  0  0  0  0  0  0  0  0
    0.0394   29.0816  -27.6478 H   0  0  0  0  0  0  0  0  0  0  0  0
   -1.0000   26.3460  -27.5290 C   0  0  0  0  0  0  0  0  0  0  0  0
   -0.6179   26.3339  -28.5604 H   0  0  0  0  0  0  0  0  0  0  0  0
   -3.8300   24.1470  -28.3870 C   0  0  0  0  0  0  0  0  0  0  0  0
   -4.6964   24.6645  -27.9494 H   0  0  0  0  0  0  0  0  0  0  0  0
   -3.8860   23.1600  -29.3040 N   0  0  0  0  0  0  0  0  0  0  0  0
   -5.1270   22.7010  -29.9520 C   0  0  0  0  0  0  0  0  0  0  0  0
   -5.0520   21.6194  -30.1375 H   0  0  0  0  0  0  0  0  0  0  0  0
   -5.9671   22.9314  -29.2803 H   0  0  0  0  0  0  0  0  0  0  0  0
   -5.3770   23.4210  -31.2940 C   0  0  0  0  0  0  0  0  0  0  0  0
   -5.8690   24.3841  -31.0930 H   0  0  0  0  0  0  0  0  0  0  0  0
   -4.4041   23.5636  -31.7870 H   0  0  0  0  0  0  0  0  0  0  0  0
   -6.2370   22.6260  -32.2050 N   0  0  0  0  0  0  0  0  0  0  0  0
   -6.3080   23.1000  -33.1380 H   0  0  0  0  0  0  0  0  0  0  0  0
   -5.7020   21.2750  -32.4240 C   0  0  0  0  0  0  0  0  0  0  0  0
   -4.9787   21.2850  -33.2527 H   0  0  0  0  0  0  0  0  0  0  0  0
   -5.1823   20.9086  -31.5264 H   0  0  0  0  0  0  0  0  0  0  0  0
   -6.8840   20.3780  -32.7720 C   0  0  0  0  0  0  0  0  0  0  0  0
   -6.9137   20.1837  -33.8543 H   0  0  0  0  0  0  0  0  0  0  0  0
   -6.8154   19.4002  -32.2728 H   0  0  0  0  0  0  0  0  0  0  0  0
   -8.1210   21.1490  -32.3360 C   0  0  0  0  0  0  0  0  0  0  0  0
   -8.7441   21.4028  -33.2062 H   0  0  0  0  0  0  0  0  0  0  0  0
   -8.7531   20.5611  -31.6543 H   0  0  0  0  0  0  0  0  0  0  0  0
   -7.5910   22.4100  -31.6740 C   0  0  0  0  0  0  0  0  0  0  0  0
   -8.2358   23.2669  -31.9188 H   0  0  0  0  0  0  0  0  0  0  0  0
   -7.5758   22.3068  -30.5790 H   0  0  0  0  0  0  0  0  0  0  0  0
   -2.4540   22.2730  -32.0460 C   0  0  0  0  0  0  0  0  0  0  0  0
   -3.5507   22.3290  -32.1096 H   0  0  0  0  0  0  0  0  0  0  0  0
   -2.0035   23.2464  -32.2900 H   0  0  0  0  0  0  0  0  0  0  0  0
   -1.9460   21.2340  -33.0520 C   0  0  0  0  0  0  0  0  0  0  0  0
   -2.5078   20.2973  -32.9220 H   0  0  0  0  0  0  0  0  0  0  0  0
   -2.0913   21.6204  -34.0716 H   0  0  0  0  0  0  0  0  0  0  0  0
    1.3300   19.9830  -34.1580 C   0  0  0  0  0  0  0  0  0  0  0  0
    1.3680   18.8920  -33.3500 F   0  0  0  0  0  0  0  0  0  0  0  0
    2.2370   20.0830  -35.2130 C   0  0  0  0  0  0  0  0  0  0  0  0
    2.9349   19.2560  -35.4105 H   0  0  0  0  0  0  0  0  0  0  0  0
    2.2690   21.2280  -36.0260 C   0  0  0  0  0  0  0  0  0  0  0  0
    3.2270   21.3100  -37.1040 N   0  0  0  0  0  0  0  0  0  0  0  0
    3.3020   20.4190  -37.9750 O   0  0  0  0  0  0  0  0  0  0  0  0
    4.0400   22.4150  -37.2270 O   0  0  0  0  0  0  0  0  0  0  0  0
  1  2  1  0
  2  3  2  0
  3  4  1  0
  4  5  1  0
  5  6  1  0
  6  7  1  0
  7  8  1  0
  7  9  1  0
  7 10  1  0
 10 11  1  0
 10 12  1  0
 10 13  1  0
 13 14  1  0
 13 15  1  0
 15 16  2  0
 16 17  1  0
 17 18  1  0
 18 19  2  0
 19 20  1  0
 19 21  1  0
 21 22  1  0
 21 23  2  0
 23 24  1  0
 23 25  1  0
 25 26  1  0
 26 27  1  0
 26 28  1  0
 26 29  1  0
 25 30  2  0
 30 31  1  0
 17 32  2  0
 32 33  1  0
 32 34  1  0
 34 35  1  0
 35 36  1  0
 35 37  1  0
 35 38  1  0
 38 39  1  0
 38 40  1  0
 38 41  1  0
 41 42  1  0
 41 43  1  0
 43 44  1  0
 43 45  1  0
 43 46  1  0
 46 47  1  0
 46 48  1  0
 46 49  1  0
 49 50  1  0
 49 51  1  0
 49 52  1  0
 52 53  1  0
 52 54  1  0
 13 55  1  0
 55 56  1  0
 55 57  1  0
 55 58  1  0
 58 59  1  0
 58 60  1  0
  5 61  2  0
 61 62  1  0
 61 63  1  0
 63 64  1  0
 63 65  2  0
 65 66  1  0
 66 67  2  0
 66 68  1  0
 65  3  1  0
 58  6  1  0
 34 15  1  0
 52 41  1  0
 30 18  1  0
M  CHG  4   4  -1  41   1  66   1  68  -1
M  END
>  <UniqueID>  (48) 
47

>  <SMILES>  (48) 
[H]/N=c1\[n-]c(N2CCC(c3nc(-c4ccc(F)c(C)c4)cn3CC[NH+]3CCCC3)CC2)c(F)cc1[N+](=O)[O-]

>  <Energy>  (48) 
113.14710537079871

>  <Genealogy>  (48) 
Cc1cc(-c2cn(CC[NH+]3CCCC3)c(C3CCN(c4[n-]c(=N)c([N+](=O)[O-])cc4F)CC3)n2)ccc1F (protonated)
[H]/N=c1\[n-]c(N2CCC(c3nc(-c4ccc(F)c(C)c4)cn3CC[NH+]3CCCC3)CC2)c(F)cc1[N+](=O)[O-] (cis-trans isomerization)
[H]/N=c1\[n-]c(N2CCC(c3nc(-c4ccc(F)c(C)c4)cn3CC[NH+]3CCCC3)CC2)c(F)cc1[N+](=O)[O-] (3D coordinates assigned)
[H]/N=c1\[n-]c(N2CCC(c3nc(-c4ccc(F)c(C)c4)cn3CC[NH+]3CCCC3)CC2)c(F)cc1[N+](=O)[O-] (nonaromatic ring conformer: 113.14710537079871 kcal/mol)

>  <smiles>  (48) 
Cc1cc(-c2cn(CCN3CCCC3)c(C3CCN(c4[nH]c(=N)c([N+](=O)[O-])cc4F)CC3)n2)ccc1F

>  <score_type>  (48) 
oracle

>  <origin>  (48) 
adgpu

>  <m_score__min__energy>  (48) 
-9.4499999999999993

>  <m_primary>  (48) 
energy

$$$$
48:0
     RDKit          3D

 46 47  0  0  0  0  0  0  0  0999 V2000
   -4.4930   14.4210  -32.2730 C   0  0  0  0  0  0  0  0  0  0  0  0
   -5.3720   15.1130  -33.1550 O   0  0  0  0  0  0  0  0  0  0  0  0
   -5.4740   16.5080  -33.2630 C   0  0  0  0  0  0  0  0  0  0  0  0
   -6.6880   17.1670  -32.9860 C   0  0  0  0  0  0  0  0  0  0  0  0
   -6.8070   18.5600  -33.1200 C   0  0  0  0  0  0  0  0  0  0  0  0
   -8.0490   19.2530  -32.8700 N   0  0  0  0  0  0  0  0  0  0  0  0
   -8.4210   19.8820  -31.6010 C   0  0  0  0  0  0  0  0  0  0  0  0
   -9.0310   21.2340  -31.8290 C   0  0  0  0  0  0  0  0  0  0  0  0
   -9.9510   21.3590  -32.6810 O   0  0  0  0  0  0  0  0  0  0  0  0
   -8.4940   22.3830  -31.1620 N   0  0  0  0  0  0  0  0  0  0  0  0
   -7.1250   22.6180  -30.8030 C   0  0  0  0  0  0  0  0  0  0  0  0
   -6.0540   22.0820  -31.5410 C   0  0  0  0  0  0  0  0  0  0  0  0
   -4.7350   22.3540  -31.1640 C   0  0  0  0  0  0  0  0  0  0  0  0
   -4.4710   23.1710  -30.0570 C   0  0  0  0  0  0  0  0  0  0  0  0
   -2.8060   23.5200  -29.6010 S   0  0  0  0  0  0  0  0  0  0  0  0
   -2.6200   25.2200  -29.3530 N   0  0  0  0  0  0  0  0  0  0  0  0
   -2.4570   22.7930  -28.3320 O   0  0  0  0  0  0  0  0  0  0  0  0
   -1.8780   23.0630  -30.6900 O   0  0  0  0  0  0  0  0  0  0  0  0
   -5.5370   23.7320  -29.3420 C   0  0  0  0  0  0  0  0  0  0  0  0
   -6.8560   23.4590  -29.7170 C   0  0  0  0  0  0  0  0  0  0  0  0
   -5.6870   19.2990  -33.5170 C   0  0  0  0  0  0  0  0  0  0  0  0
   -4.4600   18.6670  -33.7830 C   0  0  0  0  0  0  0  0  0  0  0  0
   -3.3230   19.3910  -34.1760 O   0  0  0  0  0  0  0  0  0  0  0  0
   -2.7640   20.4790  -33.4470 C   0  0  0  0  0  0  0  0  0  0  0  0
   -4.3470   17.2720  -33.6600 C   0  0  0  0  0  0  0  0  0  0  0  0
   -3.0870   16.7140  -33.9500 O   0  0  0  0  0  0  0  0  0  0  0  0
   -2.5990   16.3400  -35.2340 C   0  0  0  0  0  0  0  0  0  0  0  0
   -4.7713   14.6401  -31.2316 H   0  0  0  0  0  0  0  0  0  0  0  0
   -4.5701   13.3386  -32.4532 H   0  0  0  0  0  0  0  0  0  0  0  0
   -3.4589   14.7500  -32.4532 H   0  0  0  0  0  0  0  0  0  0  0  0
   -7.5587   16.5797  -32.6588 H   0  0  0  0  0  0  0  0  0  0  0  0
   -8.7450   19.3180  -33.6480 H   0  0  0  0  0  0  0  0  0  0  0  0
   -9.1495   19.2416  -31.0821 H   0  0  0  0  0  0  0  0  0  0  0  0
   -7.5134   20.0054  -30.9919 H   0  0  0  0  0  0  0  0  0  0  0  0
   -6.2545   21.4474  -32.4168 H   0  0  0  0  0  0  0  0  0  0  0  0
   -3.9014   21.9247  -31.7391 H   0  0  0  0  0  0  0  0  0  0  0  0
   -3.5090   25.6710  -29.6630 H   0  0  0  0  0  0  0  0  0  0  0  0
   -5.3358   24.3891  -28.4831 H   0  0  0  0  0  0  0  0  0  0  0  0
   -7.6879   23.9082  -29.1547 H   0  0  0  0  0  0  0  0  0  0  0  0
   -5.7680   20.3909  -33.6225 H   0  0  0  0  0  0  0  0  0  0  0  0
   -2.8627   20.2869  -32.3684 H   0  0  0  0  0  0  0  0  0  0  0  0
   -1.6999   20.5848  -33.7047 H   0  0  0  0  0  0  0  0  0  0  0  0
   -3.2976   21.4057  -33.7047 H   0  0  0  0  0  0  0  0  0  0  0  0
   -1.7309   15.6747  -35.1168 H   0  0  0  0  0  0  0  0  0  0  0  0
   -3.3909   15.8153  -35.7887 H   0  0  0  0  0  0  0  0  0  0  0  0
   -2.2982   17.2410  -35.7887 H   0  0  0  0  0  0  0  0  0  0  0  0
  1  2  1  0
  2  3  1  0
  3  4  2  0
  4  5  1  0
  5  6  1  0
  6  7  1  0
  7  8  1  0
  8  9  2  0
  8 10  1  0
 10 11  1  0
 11 12  2  0
 12 13  1  0
 13 14  2  0
 14 15  1  0
 15 16  1  0
 15 17  2  0
 15 18  2  0
 14 19  1  0
 19 20  2  0
  5 21  2  0
 21 22  1  0
 22 23  1  0
 23 24  1  0
 22 25  2  0
 25 26  1  0
 26 27  1  0
 25  3  1  0
 20 11  1  0
  1 28  1  0
  1 29  1  0
  1 30  1  0
  4 31  1  0
  6 32  1  0
  7 33  1  0
  7 34  1  0
 12 35  1  0
 13 36  1  0
 16 37  1  0
 19 38  1  0
 20 39  1  0
 21 40  1  0
 24 41  1  0
 24 42  1  0
 24 43  1  0
 27 44  1  0
 27 45  1  0
 27 46  1  0
M  CHG  2  10  -1  16  -1
M  END
>  <UniqueID>  (49) 
48

>  <SMILES>  (49) 
COc1cc(NCC(=O)[N-]c2ccc(S([NH-])(=O)=O)cc2)cc(OC)c1OC

>  <Energy>  (49) 
49.71628615853074

>  <Genealogy>  (49) 
COc1cc(NCC(=O)[N-]c2ccc(S([NH-])(=O)=O)cc2)cc(OC)c1OC (protonated)
COc1cc(NCC(=O)[N-]c2ccc(S([NH-])(=O)=O)cc2)cc(OC)c1OC (3D coordinates assigned)
COc1cc(NCC(=O)[N-]c2ccc(S([NH-])(=O)=O)cc2)cc(OC)c1OC (optimized conformer: 49.71628615853074 kcal/mol)

>  <smiles>  (49) 
COc1cc(NCC(=O)Nc2ccc(S(N)(=O)=O)cc2)cc(OC)c1OC

>  <score_type>  (49) 
oracle

>  <origin>  (49) 
adgpu

>  <m_score__min__energy>  (49) 
-9.3499999999999996

>  <m_primary>  (49) 
energy

$$$$
