0:0
     RDKit          3D

 43 45  0  0  0  0  0  0  0  0999 V2000
   -4.7360   18.1400  -33.3340 C   0  0  0  0  0  0  0  0  0  0  0  0
   -5.9090   18.9600  -33.7780 C   0  0  0  0  0  0  0  0  0  0  0  0
   -6.1230   19.1040  -35.0120 O   0  0  0  0  0  0  0  0  0  0  0  0
   -6.7530   19.6320  -32.8250 N   0  0  0  0  0  0  0  0  0  0  0  0
   -8.1540   19.1850  -32.7550 C   0  0  0  0  0  0  0  0  0  0  0  0
   -8.9140   19.8350  -31.5940 C   0  0  0  0  0  0  0  0  0  0  0  0
   -8.7280   21.3510  -31.6200 C   0  0  0  0  0  0  0  0  0  0  0  0
   -7.2660   21.6910  -31.5460 C   0  0  0  0  0  0  0  0  0  0  0  0
   -6.8520   22.8700  -30.9060 C   0  0  0  0  0  0  0  0  0  0  0  0
   -5.4900   23.1800  -30.8080 C   0  0  0  0  0  0  0  0  0  0  0  0
   -4.9630   24.6350  -29.9650 S   0  0  0  0  0  0  0  0  0  0  0  0
   -6.1370   25.5350  -29.6980 O   0  0  0  0  0  0  0  0  0  0  0  0
   -3.9830   25.3750  -30.8310 O   0  0  0  0  0  0  0  0  0  0  0  0
   -4.1930   24.2120  -28.4660 N   0  0  0  0  0  0  0  0  0  0  0  0
   -2.7580   24.0420  -28.6750 C   0  0  0  0  0  0  0  0  0  0  0  0
   -2.0120   24.8440  -27.6460 C   0  0  0  0  0  0  0  0  0  0  0  0
   -2.0030   24.4260  -26.3040 C   0  0  0  0  0  0  0  0  0  0  0  0
   -1.2860   25.1470  -25.3440 C   0  0  0  0  0  0  0  0  0  0  0  0
   -0.5650   26.2830  -25.7160 C   0  0  0  0  0  0  0  0  0  0  0  0
   -0.5530   26.6980  -27.0500 C   0  0  0  0  0  0  0  0  0  0  0  0
   -1.2670   25.9810  -28.0170 C   0  0  0  0  0  0  0  0  0  0  0  0
   -1.2280   26.4020  -29.3420 O   0  0  0  0  0  0  0  0  0  0  0  0
   -4.5420   22.3010  -31.3390 C   0  0  0  0  0  0  0  0  0  0  0  0
   -4.9470   21.1360  -31.9950 C   0  0  0  0  0  0  0  0  0  0  0  0
   -6.3150   20.8350  -32.1410 C   0  0  0  0  0  0  0  0  0  0  0  0
   -4.7008   18.1154  -32.2348 H   0  0  0  0  0  0  0  0  0  0  0  0
   -4.8376   17.1152  -33.7206 H   0  0  0  0  0  0  0  0  0  0  0  0
   -3.8085   18.5874  -33.7206 H   0  0  0  0  0  0  0  0  0  0  0  0
   -8.6566   19.4471  -33.6977 H   0  0  0  0  0  0  0  0  0  0  0  0
   -8.1526   18.0975  -32.5896 H   0  0  0  0  0  0  0  0  0  0  0  0
   -9.9847   19.5993  -31.6842 H   0  0  0  0  0  0  0  0  0  0  0  0
   -8.5200   19.4428  -30.6448 H   0  0  0  0  0  0  0  0  0  0  0  0
   -9.1488   21.7536  -32.5532 H   0  0  0  0  0  0  0  0  0  0  0  0
   -9.2456   21.7931  -30.7559 H   0  0  0  0  0  0  0  0  0  0  0  0
   -7.6011   23.5534  -30.4796 H   0  0  0  0  0  0  0  0  0  0  0  0
   -2.4947   22.9787  -28.5749 H   0  0  0  0  0  0  0  0  0  0  0  0
   -2.4869   24.3893  -29.6829 H   0  0  0  0  0  0  0  0  0  0  0  0
   -2.5630   23.5269  -26.0073 H   0  0  0  0  0  0  0  0  0  0  0  0
   -1.2901   24.8185  -24.2942 H   0  0  0  0  0  0  0  0  0  0  0  0
   -0.0060   26.8518  -24.9584 H   0  0  0  0  0  0  0  0  0  0  0  0
    0.0194   27.5911  -27.3412 H   0  0  0  0  0  0  0  0  0  0  0  0
   -3.4702   22.5279  -31.2398 H   0  0  0  0  0  0  0  0  0  0  0  0
   -4.1909   20.4479  -32.4010 H   0  0  0  0  0  0  0  0  0  0  0  0
  1  2  1  0
  2  3  2  0
  2  4  1  0
  4  5  1  0
  5  6  1  0
  6  7  1  0
  7  8  1  0
  8  9  2  0
  9 10  1  0
 10 11  1  0
 11 12  2  0
 11 13  2  0
 11 14  1  0
 14 15  1  0
 15 16  1  0
 16 17  2  0
 17 18  1  0
 18 19  2  0
 19 20  1  0
 20 21  2  0
 21 22  1  0
 10 23  2  0
 23 24  1  0
 24 25  2  0
 25  4  1  0
 25  8  1  0
 21 16  1  0
  1 26  1  0
  1 27  1  0
  1 28  1  0
  5 29  1  0
  5 30  1  0
  6 31  1  0
  6 32  1  0
  7 33  1  0
  7 34  1  0
  9 35  1  0
 15 36  1  0
 15 37  1  0
 17 38  1  0
 18 39  1  0
 19 40  1  0
 20 41  1  0
 23 42  1  0
 24 43  1  0
M  CHG  2  14  -1  22  -1
M  END
>  <UniqueID>  (1) 
1

>  <SMILES>  (1) 
CC(=O)N1CCCc2cc(S(=O)(=O)[N-]Cc3ccccc3[O-])ccc21

>  <Energy>  (1) 
48.412973059107934

>  <Genealogy>  (1) 
CC(=O)N1CCCc2cc(S(=O)(=O)[N-]Cc3ccccc3[O-])ccc21 (protonated)
CC(=O)N1CCCc2cc(S(=O)(=O)[N-]Cc3ccccc3[O-])ccc21 (3D coordinates assigned)
CC(=O)N1CCCc2cc(S(=O)(=O)[N-]Cc3ccccc3[O-])ccc21 (nonaromatic ring conformer: 48.412973059107934 kcal/mol)

>  <smiles>  (1) 
CC(=O)N1CCCc2cc(S(=O)(=O)NCc3ccccc3O)ccc21

>  <score_type>  (1) 
oracle

>  <origin>  (1) 
adgpu

>  <m_score__min__energy>  (1) 
-14.06

>  <m_primary>  (1) 
energy

$$$$
1:0
     RDKit          3D

 46 49  0  0  0  0  0  0  0  0999 V2000
   -0.5400   25.1340  -28.6410 O   0  0  0  0  0  0  0  0  0  0  0  0
   -1.4790   24.5620  -29.2520 C   0  0  0  0  0  0  0  0  0  0  0  0
   -2.7470   25.2260  -29.3460 N   0  0  0  0  0  0  0  0  0  0  0  0
   -3.9830   24.5910  -29.6970 C   0  0  0  0  0  0  0  0  0  0  0  0
   -4.6960   25.0700  -30.8020 C   0  0  0  0  0  0  0  0  0  0  0  0
   -5.8460   24.4100  -31.2440 C   0  0  0  0  0  0  0  0  0  0  0  0
   -6.3100   23.2760  -30.5640 C   0  0  0  0  0  0  0  0  0  0  0  0
   -7.7010   22.3740  -31.1620 S   0  0  0  0  0  0  0  0  0  0  0  0
   -8.7330   22.2850  -30.0730 O   0  0  0  0  0  0  0  0  0  0  0  0
   -8.3000   23.0820  -32.3460 O   0  0  0  0  0  0  0  0  0  0  0  0
   -7.1890   20.7690  -31.6200 N   0  0  0  0  0  0  0  0  0  0  0  0
   -6.5560   20.7560  -32.9420 C   0  0  0  0  0  0  0  0  0  0  0  0
   -6.8020   19.3760  -33.5380 C   0  0  0  0  0  0  0  0  0  0  0  0
   -7.8960   18.7490  -32.6850 C   0  0  0  0  0  0  0  0  0  0  0  0
   -8.3150   19.8370  -31.7080 C   0  0  0  0  0  0  0  0  0  0  0  0
   -5.6380   22.8320  -29.4200 C   0  0  0  0  0  0  0  0  0  0  0  0
   -4.4820   23.4840  -28.9790 C   0  0  0  0  0  0  0  0  0  0  0  0
   -3.7110   22.9120  -27.5030 Cl  0  0  0  0  0  0  0  0  0  0  0  0
   -1.2340   23.2410  -29.8650 C   0  0  0  0  0  0  0  0  0  0  0  0
   -1.9760   22.6360  -30.8620 C   0  0  0  0  0  0  0  0  0  0  0  0
   -1.3410   21.4260  -31.0660 C   0  0  0  0  0  0  0  0  0  0  0  0
   -1.7330   20.3630  -32.0120 C   0  0  0  0  0  0  0  0  0  0  0  0
   -0.7780   19.6170  -32.7260 C   0  0  0  0  0  0  0  0  0  0  0  0
   -1.2050   18.6290  -33.6170 C   0  0  0  0  0  0  0  0  0  0  0  0
   -2.5680   18.3910  -33.7910 C   0  0  0  0  0  0  0  0  0  0  0  0
   -3.4900   19.1470  -33.0650 C   0  0  0  0  0  0  0  0  0  0  0  0
   -3.0580   20.1040  -32.2030 N   0  0  0  0  0  0  0  0  0  0  0  0
   -0.2760   21.3350  -30.2460 N   0  0  0  0  0  0  0  0  0  0  0  0
   -0.2070   22.4400  -29.5180 N   0  0  0  0  0  0  0  0  0  0  0  0
   -4.3488   25.9725  -31.3264 H   0  0  0  0  0  0  0  0  0  0  0  0
   -6.3875   24.7812  -32.1266 H   0  0  0  0  0  0  0  0  0  0  0  0
   -6.5070   20.4170  -30.9070 H   0  0  0  0  0  0  0  0  0  0  0  0
   -7.0034   21.5299  -33.5830 H   0  0  0  0  0  0  0  0  0  0  0  0
   -5.4787   20.9645  -32.8643 H   0  0  0  0  0  0  0  0  0  0  0  0
   -7.1330   19.4630  -34.5834 H   0  0  0  0  0  0  0  0  0  0  0  0
   -5.8873   18.7650  -33.5393 H   0  0  0  0  0  0  0  0  0  0  0  0
   -8.7472   18.4453  -33.3120 H   0  0  0  0  0  0  0  0  0  0  0  0
   -7.5446   17.8448  -32.1664 H   0  0  0  0  0  0  0  0  0  0  0  0
   -9.2110   20.3566  -32.0785 H   0  0  0  0  0  0  0  0  0  0  0  0
   -8.5615   19.4149  -30.7226 H   0  0  0  0  0  0  0  0  0  0  0  0
   -6.0215   21.9641  -28.8636 H   0  0  0  0  0  0  0  0  0  0  0  0
   -2.8668   23.0277  -31.3749 H   0  0  0  0  0  0  0  0  0  0  0  0
    0.2957   19.8097  -32.5842 H   0  0  0  0  0  0  0  0  0  0  0  0
   -0.4668   18.0396  -34.1806 H   0  0  0  0  0  0  0  0  0  0  0  0
   -2.9126   17.6166  -34.4921 H   0  0  0  0  0  0  0  0  0  0  0  0
   -4.5679   18.9676  -33.1911 H   0  0  0  0  0  0  0  0  0  0  0  0
  1  2  2  0
  2  3  1  0
  3  4  1  0
  4  5  2  0
  5  6  1  0
  6  7  2  0
  7  8  1  0
  8  9  2  0
  8 10  2  0
  8 11  1  0
 11 12  1  0
 12 13  1  0
 13 14  1  0
 14 15  1  0
  7 16  1  0
 16 17  2  0
 17 18  1  0
  2 19  1  0
 19 20  1  0
 20 21  2  0
 21 22  1  0
 22 23  2  0
 23 24  1  0
 24 25  2  0
 25 26  1  0
 26 27  2  0
 21 28  1  0
 28 29  1  0
 17  4  1  0
 29 19  2  0
 15 11  1  0
 27 22  1  0
  5 30  1  0
  6 31  1  0
 11 32  1  0
 12 33  1  0
 12 34  1  0
 13 35  1  0
 13 36  1  0
 14 37  1  0
 14 38  1  0
 15 39  1  0
 15 40  1  0
 16 41  1  0
 20 42  1  0
 23 43  1  0
 24 44  1  0
 25 45  1  0
 26 46  1  0
M  CHG  3   3  -1  11   1  28  -1
M  END
>  <UniqueID>  (2) 
2

>  <SMILES>  (2) 
O=C([N-]c1ccc(S(=O)(=O)[NH+]2CCCC2)cc1Cl)c1cc(-c2ccccn2)[n-]n1

>  <Energy>  (2) 
85.92348783820842

>  <Genealogy>  (2) 
O=C([N-]c1ccc(S(=O)(=O)[NH+]2CCCC2)cc1Cl)c1cc(-c2ccccn2)[n-]n1 (protonated)
O=C([N-]c1ccc(S(=O)(=O)[NH+]2CCCC2)cc1Cl)c1cc(-c2ccccn2)[n-]n1 (3D coordinates assigned)
O=C([N-]c1ccc(S(=O)(=O)[NH+]2CCCC2)cc1Cl)c1cc(-c2ccccn2)[n-]n1 (nonaromatic ring conformer: 85.92348783820842 kcal/mol)

>  <smiles>  (2) 
O=C(Nc1ccc(S(=O)(=O)N2CCCC2)cc1Cl)c1cc(-c2ccccn2)[nH]n1

>  <score_type>  (2) 
oracle

>  <origin>  (2) 
adgpu

>  <m_score__min__energy>  (2) 
-12.41

>  <m_primary>  (2) 
energy

$$$$
2:0
     RDKit          3D

 57 61  0  0  0  0  0  0  0  0999 V2000
   -9.0430   19.5950  -32.6200 C   0  0  0  0  0  0  0  0  0  0  0  0
   -7.5480   19.4770  -32.6710 C   0  0  0  0  0  0  0  0  0  0  0  0
   -6.8390   19.8270  -33.8310 C   0  0  0  0  0  0  0  0  0  0  0  0
   -5.4480   19.7000  -33.8730 C   0  0  0  0  0  0  0  0  0  0  0  0
   -4.7490   19.2050  -32.7590 C   0  0  0  0  0  0  0  0  0  0  0  0
   -3.2520   19.1030  -32.7900 C   0  0  0  0  0  0  0  0  0  0  0  0
   -2.5580   20.5910  -33.5820 S   0  0  0  0  0  0  0  0  0  0  0  0
   -3.2420   21.7000  -32.3590 C   0  0  0  0  0  0  0  0  0  0  0  0
   -2.5100   22.0320  -31.2640 N   0  0  0  0  0  0  0  0  0  0  0  0
   -2.9980   22.8730  -30.3140 C   0  0  0  0  0  0  0  0  0  0  0  0
   -2.1860   23.1860  -29.1760 N   0  0  0  0  0  0  0  0  0  0  0  0
   -2.3530   22.4180  -27.9380 C   0  0  0  0  0  0  0  0  0  0  0  0
   -2.1840   23.3320  -26.7170 C   0  0  0  0  0  0  0  0  0  0  0  0
   -1.0790   24.2870  -26.8980 N   0  0  0  0  0  0  0  0  0  0  0  0
   -0.9000   25.3530  -25.9460 C   0  0  0  0  0  0  0  0  0  0  0  0
   -0.8850   26.6930  -26.3710 C   0  0  0  0  0  0  0  0  0  0  0  0
   -0.7040   27.7260  -25.4450 C   0  0  0  0  0  0  0  0  0  0  0  0
   -0.5310   27.4300  -24.0910 C   0  0  0  0  0  0  0  0  0  0  0  0
   -0.5320   26.1010  -23.6600 C   0  0  0  0  0  0  0  0  0  0  0  0
   -0.7170   25.0650  -24.5820 C   0  0  0  0  0  0  0  0  0  0  0  0
   -0.2090   24.1840  -28.0770 C   0  0  0  0  0  0  0  0  0  0  0  0
   -1.0630   24.1160  -29.3440 C   0  0  0  0  0  0  0  0  0  0  0  0
   -4.2870   23.4150  -30.4620 C   0  0  0  0  0  0  0  0  0  0  0  0
   -4.8480   24.3000  -29.5250 C   0  0  0  0  0  0  0  0  0  0  0  0
   -6.1350   24.8090  -29.7270 C   0  0  0  0  0  0  0  0  0  0  0  0
   -6.8680   24.4410  -30.8590 C   0  0  0  0  0  0  0  0  0  0  0  0
   -6.3180   23.5650  -31.7980 C   0  0  0  0  0  0  0  0  0  0  0  0
   -5.0290   23.0510  -31.6070 C   0  0  0  0  0  0  0  0  0  0  0  0
   -4.4920   22.2050  -32.5220 N   0  0  0  0  0  0  0  0  0  0  0  0
   -5.4570   18.8630  -31.5970 C   0  0  0  0  0  0  0  0  0  0  0  0
   -6.8490   18.9910  -31.5560 C   0  0  0  0  0  0  0  0  0  0  0  0
   -9.3732   19.6211  -31.5710 H   0  0  0  0  0  0  0  0  0  0  0  0
   -9.3552   20.5206  -33.1258 H   0  0  0  0  0  0  0  0  0  0  0  0
   -9.4966   18.7299  -33.1258 H   0  0  0  0  0  0  0  0  0  0  0  0
   -7.3811   20.2031  -34.7112 H   0  0  0  0  0  0  0  0  0  0  0  0
   -4.8984   19.9885  -34.7811 H   0  0  0  0  0  0  0  0  0  0  0  0
   -2.8686   19.0220  -31.7622 H   0  0  0  0  0  0  0  0  0  0  0  0
   -2.9570   18.2113  -33.3626 H   0  0  0  0  0  0  0  0  0  0  0  0
   -3.3582   21.9717  -27.9207 H   0  0  0  0  0  0  0  0  0  0  0  0
   -1.5889   21.6276  -27.9016 H   0  0  0  0  0  0  0  0  0  0  0  0
   -3.1172   23.8928  -26.5601 H   0  0  0  0  0  0  0  0  0  0  0  0
   -1.9512   22.7006  -25.8469 H   0  0  0  0  0  0  0  0  0  0  0  0
   -1.0162   26.9305  -27.4370 H   0  0  0  0  0  0  0  0  0  0  0  0
   -0.6979   28.7725  -25.7837 H   0  0  0  0  0  0  0  0  0  0  0  0
   -0.3939   28.2437  -23.3636 H   0  0  0  0  0  0  0  0  0  0  0  0
   -0.3872   25.8689  -22.5946 H   0  0  0  0  0  0  0  0  0  0  0  0
   -0.7193   24.0201  -24.2381 H   0  0  0  0  0  0  0  0  0  0  0  0
    0.4471   25.0656  -28.1253 H   0  0  0  0  0  0  0  0  0  0  0  0
    0.4018   23.2724  -28.0003 H   0  0  0  0  0  0  0  0  0  0  0  0
   -1.4572   25.1187  -29.5656 H   0  0  0  0  0  0  0  0  0  0  0  0
   -0.4328   23.7565  -30.1708 H   0  0  0  0  0  0  0  0  0  0  0  0
   -4.2748   24.5923  -28.6328 H   0  0  0  0  0  0  0  0  0  0  0  0
   -6.5720   25.5014  -28.9924 H   0  0  0  0  0  0  0  0  0  0  0  0
   -7.8808   24.8424  -31.0108 H   0  0  0  0  0  0  0  0  0  0  0  0
   -6.8976   23.2787  -32.6880 H   0  0  0  0  0  0  0  0  0  0  0  0
   -4.9149   18.4926  -30.7144 H   0  0  0  0  0  0  0  0  0  0  0  0
   -7.3982   18.7094  -30.6455 H   0  0  0  0  0  0  0  0  0  0  0  0
  1  2  1  0
  2  3  2  0
  3  4  1  0
  4  5  2  0
  5  6  1  0
  6  7  1  0
  7  8  1  0
  8  9  2  0
  9 10  1  0
 10 11  1  0
 11 12  1  0
 12 13  1  0
 13 14  1  0
 14 15  1  0
 15 16  2  0
 16 17  1  0
 17 18  2  0
 18 19  1  0
 19 20  2  0
 14 21  1  0
 21 22  1  0
 10 23  2  0
 23 24  1  0
 24 25  2  0
 25 26  1  0
 26 27  2  0
 27 28  1  0
 28 29  2  0
  5 30  1  0
 30 31  2  0
 31  2  1  0
 29  8  1  0
 22 11  1  0
 28 23  1  0
 20 15  1  0
  1 32  1  0
  1 33  1  0
  1 34  1  0
  3 35  1  0
  4 36  1  0
  6 37  1  0
  6 38  1  0
 12 39  1  0
 12 40  1  0
 13 41  1  0
 13 42  1  0
 16 43  1  0
 17 44  1  0
 18 45  1  0
 19 46  1  0
 20 47  1  0
 21 48  1  0
 21 49  1  0
 22 50  1  0
 22 51  1  0
 24 52  1  0
 25 53  1  0
 26 54  1  0
 27 55  1  0
 30 56  1  0
 31 57  1  0
M  END
>  <UniqueID>  (3) 
3

>  <SMILES>  (3) 
Cc1ccc(CSc2nc(N3CCN(c4ccccc4)CC3)c3ccccc3n2)cc1

>  <Energy>  (3) 
70.9066255392181

>  <Genealogy>  (3) 
Cc1ccc(CSc2nc(N3CCN(c4ccccc4)CC3)c3ccccc3n2)cc1 (3D coordinates assigned)
Cc1ccc(CSc2nc(N3CCN(c4ccccc4)CC3)c3ccccc3n2)cc1 (nonaromatic ring conformer: 70.9066255392181 kcal/mol)

>  <smiles>  (3) 
Cc1ccc(CSc2nc(N3CCN(c4ccccc4)CC3)c3ccccc3n2)cc1

>  <score_type>  (3) 
oracle

>  <origin>  (3) 
adgpu

>  <m_score__min__energy>  (3) 
-9.6300000000000008

>  <m_primary>  (3) 
energy

$$$$
3:0
     RDKit          3D

 56 59  0  0  0  0  0  0  0  0999 V2000
    1.0170   16.3270  -27.4780 C   0  0  0  0  0  0  0  0  0  0  0  0
    1.0560   17.7450  -27.3770 O   0  0  0  0  0  0  0  0  0  0  0  0
    0.2080   18.6150  -28.0770 C   0  0  0  0  0  0  0  0  0  0  0  0
    0.4970   18.8910  -29.4180 C   0  0  0  0  0  0  0  0  0  0  0  0
   -0.3120   19.7600  -30.1560 C   0  0  0  0  0  0  0  0  0  0  0  0
   -1.4290   20.3700  -29.5610 C   0  0  0  0  0  0  0  0  0  0  0  0
   -2.2530   21.2750  -30.3210 N   0  0  0  0  0  0  0  0  0  0  0  0
   -2.9800   22.2980  -29.8260 C   0  0  0  0  0  0  0  0  0  0  0  0
   -3.6670   22.9290  -30.8520 C   0  0  0  0  0  0  0  0  0  0  0  0
   -4.6840   24.0330  -30.7110 C   0  0  1  0  0  0  0  0  0  0  0  0
   -4.0600   25.2920  -30.6870 O   0  0  0  0  0  0  0  0  0  0  0  0
   -5.6790   23.9840  -31.7920 N   0  0  0  0  0  0  0  0  0  0  0  0
   -6.7540   23.0270  -31.8440 C   0  0  0  0  0  0  0  0  0  0  0  0
   -8.1050   23.4260  -31.8660 C   0  0  0  0  0  0  0  0  0  0  0  0
   -9.1220   22.4690  -31.9190 C   0  0  0  0  0  0  0  0  0  0  0  0
   -8.8090   21.1090  -31.9410 C   0  0  0  0  0  0  0  0  0  0  0  0
   -7.4710   20.6970  -31.9150 C   0  0  0  0  0  0  0  0  0  0  0  0
   -7.0560   18.9840  -31.9210 S   0  0  0  0  0  0  0  0  0  0  0  0
   -5.7960   18.8000  -31.1220 O   0  0  0  0  0  0  0  0  0  0  0  0
   -8.1580   18.1820  -31.2830 O   0  0  0  0  0  0  0  0  0  0  0  0
   -6.7990   18.4450  -33.5670 N   0  0  0  0  0  0  0  0  0  0  0  0
   -6.3190   17.0590  -33.5870 C   0  0  0  0  0  0  0  0  0  0  0  0
   -4.7970   17.0850  -33.6180 C   0  0  0  0  0  0  0  0  0  0  0  0
   -4.4220   18.4980  -34.0180 C   0  0  0  0  0  0  0  0  0  0  0  0
   -5.7400   19.2350  -34.2060 C   0  0  0  0  0  0  0  0  0  0  0  0
   -6.4510   21.6550  -31.8710 C   0  0  0  0  0  0  0  0  0  0  0  0
   -3.3730   22.2420  -32.0160 C   0  0  0  0  0  0  0  0  0  0  0  0
   -2.5000   21.2390  -31.6480 C   0  0  0  0  0  0  0  0  0  0  0  0
   -1.9770   20.2820  -32.5160 O   0  0  0  0  0  0  0  0  0  0  0  0
   -1.7260   20.0820  -28.2190 C   0  0  0  0  0  0  0  0  0  0  0  0
   -0.9150   19.2150  -27.4810 C   0  0  0  0  0  0  0  0  0  0  0  0
    1.0049   15.8878  -26.4696 H   0  0  0  0  0  0  0  0  0  0  0  0
    0.1102   16.0229  -28.0213 H   0  0  0  0  0  0  0  0  0  0  0  0
    1.9058   15.9735  -28.0213 H   0  0  0  0  0  0  0  0  0  0  0  0
    1.3687   18.4199  -29.8958 H   0  0  0  0  0  0  0  0  0  0  0  0
   -0.0725   19.9675  -31.2094 H   0  0  0  0  0  0  0  0  0  0  0  0
   -3.0216   22.5884  -28.7659 H   0  0  0  0  0  0  0  0  0  0  0  0
   -5.2046   23.8795  -29.7542 H   0  0  0  0  0  0  0  0  0  0  0  0
   -4.1380   25.6750  -31.5990 H   0  0  0  0  0  0  0  0  0  0  0  0
   -5.6080   24.6820  -32.5680 H   0  0  0  0  0  0  0  0  0  0  0  0
   -8.3605   24.4956  -31.8413 H   0  0  0  0  0  0  0  0  0  0  0  0
  -10.1741   22.7891  -31.9435 H   0  0  0  0  0  0  0  0  0  0  0  0
   -9.6140   20.3603  -31.9788 H   0  0  0  0  0  0  0  0  0  0  0  0
   -6.6645   16.5319  -32.6854 H   0  0  0  0  0  0  0  0  0  0  0  0
   -6.7089   16.5338  -34.4714 H   0  0  0  0  0  0  0  0  0  0  0  0
   -4.3885   16.8457  -32.6251 H   0  0  0  0  0  0  0  0  0  0  0  0
   -4.3913   16.3418  -34.3201 H   0  0  0  0  0  0  0  0  0  0  0  0
   -3.8250   18.9751  -33.2268 H   0  0  0  0  0  0  0  0  0  0  0  0
   -3.8136   18.5131  -34.9343 H   0  0  0  0  0  0  0  0  0  0  0  0
   -5.6818   20.2286  -33.7376 H   0  0  0  0  0  0  0  0  0  0  0  0
   -5.9548   19.3648  -35.2770 H   0  0  0  0  0  0  0  0  0  0  0  0
   -5.4002   21.3300  -31.8574 H   0  0  0  0  0  0  0  0  0  0  0  0
   -3.7558   22.4518  -33.0257 H   0  0  0  0  0  0  0  0  0  0  0  0
   -2.0980   20.3680  -33.5190 H   0  0  0  0  0  0  0  0  0  0  0  0
   -2.6048   20.5428  -27.7443 H   0  0  0  0  0  0  0  0  0  0  0  0
   -1.1566   19.0013  -26.4293 H   0  0  0  0  0  0  0  0  0  0  0  0
  1  2  1  0
  2  3  1  0
  3  4  2  0
  4  5  1  0
  5  6  2  0
  6  7  1  0
  7  8  1  0
  8  9  2  0
  9 10  1  0
 10 11  1  0
 10 12  1  0
 12 13  1  0
 13 14  2  0
 14 15  1  0
 15 16  2  0
 16 17  1  0
 17 18  1  0
 18 19  2  0
 18 20  2  0
 18 21  1  0
 21 22  1  0
 22 23  1  0
 23 24  1  0
 24 25  1  0
 17 26  2  0
  9 27  1  0
 27 28  2  0
 28 29  1  0
  6 30  1  0
 30 31  2  0
 31  3  1  0
 28  7  1  0
 26 13  1  0
 25 21  1  0
  1 32  1  0
  1 33  1  0
  1 34  1  0
  4 35  1  0
  5 36  1  0
  8 37  1  0
 10 38  1  1
 11 39  1  0
 12 40  1  0
 14 41  1  0
 15 42  1  0
 16 43  1  0
 22 44  1  0
 22 45  1  0
 23 46  1  0
 23 47  1  0
 24 48  1  0
 24 49  1  0
 25 50  1  0
 25 51  1  0
 26 52  1  0
 27 53  1  0
 29 54  1  0
 30 55  1  0
 31 56  1  0
M  END
>  <UniqueID>  (4) 
4

>  <SMILES>  (4) 
COc1ccc(-n2cc([C@@H](O)Nc3cccc(S(=O)(=O)N4CCCC4)c3)cc2O)cc1

>  <Energy>  (4) 
91.64696465723952

>  <Genealogy>  (4) 
COc1ccc(-n2cc([C@@H](O)Nc3cccc(S(=O)(=O)N4CCCC4)c3)cc2O)cc1 (chirality)
COc1ccc(-n2cc([C@@H](O)Nc3cccc(S(=O)(=O)N4CCCC4)c3)cc2O)cc1 (3D coordinates assigned)
COc1ccc(-n2cc([C@@H](O)Nc3cccc(S(=O)(=O)N4CCCC4)c3)cc2O)cc1 (nonaromatic ring conformer: 91.64696465723952 kcal/mol)

>  <smiles>  (4) 
COc1ccc(-n2cc(C(O)Nc3cccc(S(=O)(=O)N4CCCC4)c3)cc2O)cc1

>  <score_type>  (4) 
oracle

>  <origin>  (4) 
adgpu

>  <m_score__min__energy>  (4) 
-9.9100000000000001

>  <m_primary>  (4) 
energy

$$$$
4:0
     RDKit          3D

 43 45  0  0  0  0  0  0  0  0999 V2000
    0.2890   25.0330  -27.8810 O   0  0  0  0  0  0  0  0  0  0  0  0
   -0.6210   25.8890  -28.0510 C   0  0  0  0  0  0  0  0  0  0  0  0
   -0.5490   27.1940  -27.3260 C   0  0  0  0  0  0  0  0  0  0  0  0
   -0.5950   26.9630  -25.8500 C   0  0  0  0  0  0  0  0  0  0  0  0
    0.0000   27.7610  -24.8820 C   0  0  0  0  0  0  0  0  0  0  0  0
   -0.1540   27.2590  -23.5840 C   0  0  0  0  0  0  0  0  0  0  0  0
   -0.8570   26.0610  -23.5300 C   0  0  0  0  0  0  0  0  0  0  0  0
   -1.2840   25.6270  -25.0980 S   0  0  0  0  0  0  0  0  0  0  0  0
   -1.6710   25.6680  -29.0020 N   0  0  0  0  0  0  0  0  0  0  0  0
   -2.6840   24.6530  -28.9380 C   0  0  0  0  0  0  0  0  0  0  0  0
   -2.9580   23.9440  -27.7540 C   0  0  0  0  0  0  0  0  0  0  0  0
   -3.9740   22.9840  -27.7290 C   0  0  0  0  0  0  0  0  0  0  0  0
   -4.7330   22.7350  -28.8730 C   0  0  0  0  0  0  0  0  0  0  0  0
   -4.4850   23.4530  -30.0500 C   0  0  0  0  0  0  0  0  0  0  0  0
   -5.4730   23.1940  -31.4840 S   0  0  0  0  0  0  0  0  0  0  0  0
   -4.6270   22.6450  -32.6000 O   0  0  0  0  0  0  0  0  0  0  0  0
   -6.0440   24.5150  -31.9200 O   0  0  0  0  0  0  0  0  0  0  0  0
   -6.7650   22.0790  -31.1130 N   0  0  0  0  0  0  0  0  0  0  0  0
   -6.4430   20.7080  -31.5890 C   0  0  0  0  0  0  0  0  0  0  0  0
   -7.1700   20.3370  -32.8890 C   0  0  0  0  0  0  0  0  0  0  0  0
   -8.6960   20.4240  -32.7140 C   0  0  0  0  0  0  0  0  0  0  0  0
   -9.1170   21.5200  -31.7160 C   0  0  0  0  0  0  0  0  0  0  0  0
   -8.0510   22.6160  -31.6140 C   0  0  0  0  0  0  0  0  0  0  0  0
   -3.4680   24.4160  -30.0730 C   0  0  0  0  0  0  0  0  0  0  0  0
    0.3907   27.7034  -27.5857 H   0  0  0  0  0  0  0  0  0  0  0  0
   -1.4058   27.8179  -27.6203 H   0  0  0  0  0  0  0  0  0  0  0  0
    0.5377   28.6928  -25.1115 H   0  0  0  0  0  0  0  0  0  0  0  0
    0.2436   27.7646  -22.6917 H   0  0  0  0  0  0  0  0  0  0  0  0
   -1.0936   25.4937  -22.6177 H   0  0  0  0  0  0  0  0  0  0  0  0
   -2.3713   24.1456  -26.8456 H   0  0  0  0  0  0  0  0  0  0  0  0
   -4.1757   22.4231  -26.8045 H   0  0  0  0  0  0  0  0  0  0  0  0
   -5.5270   21.9740  -28.8506 H   0  0  0  0  0  0  0  0  0  0  0  0
   -5.3588   20.6433  -31.7632 H   0  0  0  0  0  0  0  0  0  0  0  0
   -6.7776   20.0038  -30.8130 H   0  0  0  0  0  0  0  0  0  0  0  0
   -6.8595   21.0301  -33.6847 H   0  0  0  0  0  0  0  0  0  0  0  0
   -6.9069   19.3022  -33.1535 H   0  0  0  0  0  0  0  0  0  0  0  0
   -9.1506   20.6440  -33.6912 H   0  0  0  0  0  0  0  0  0  0  0  0
   -9.0408   19.4591  -32.3139 H   0  0  0  0  0  0  0  0  0  0  0  0
  -10.0623   21.9693  -32.0543 H   0  0  0  0  0  0  0  0  0  0  0  0
   -9.2392   21.0597  -30.7244 H   0  0  0  0  0  0  0  0  0  0  0  0
   -7.8915   23.0531  -32.6108 H   0  0  0  0  0  0  0  0  0  0  0  0
   -8.4064   23.3774  -30.9042 H   0  0  0  0  0  0  0  0  0  0  0  0
   -3.2837   24.9916  -30.9921 H   0  0  0  0  0  0  0  0  0  0  0  0
  1  2  2  0
  2  3  1  0
  3  4  1  0
  4  5  2  0
  5  6  1  0
  6  7  2  0
  7  8  1  0
  2  9  1  0
  9 10  1  0
 10 11  2  0
 11 12  1  0
 12 13  2  0
 13 14  1  0
 14 15  1  0
 15 16  2  0
 15 17  2  0
 15 18  1  0
 18 19  1  0
 19 20  1  0
 20 21  1  0
 21 22  1  0
 22 23  1  0
 14 24  2  0
  8  4  1  0
 24 10  1  0
 23 18  1  0
  3 25  1  0
  3 26  1  0
  5 27  1  0
  6 28  1  0
  7 29  1  0
 11 30  1  0
 12 31  1  0
 13 32  1  0
 19 33  1  0
 19 34  1  0
 20 35  1  0
 20 36  1  0
 21 37  1  0
 21 38  1  0
 22 39  1  0
 22 40  1  0
 23 41  1  0
 23 42  1  0
 24 43  1  0
M  CHG  1   9  -1
M  END
>  <UniqueID>  (5) 
5

>  <SMILES>  (5) 
O=C(Cc1cccs1)[N-]c1cccc(S(=O)(=O)N2CCCCC2)c1

>  <Energy>  (5) 
75.84859699359262

>  <Genealogy>  (5) 
O=C(Cc1cccs1)[N-]c1cccc(S(=O)(=O)N2CCCCC2)c1 (protonated)
O=C(Cc1cccs1)[N-]c1cccc(S(=O)(=O)N2CCCCC2)c1 (3D coordinates assigned)
O=C(Cc1cccs1)[N-]c1cccc(S(=O)(=O)N2CCCCC2)c1 (nonaromatic ring conformer: 75.84859699359262 kcal/mol)

>  <smiles>  (5) 
O=C(Cc1cccs1)Nc1cccc(S(=O)(=O)N2CCCCC2)c1

>  <score_type>  (5) 
oracle

>  <origin>  (5) 
adgpu

>  <m_score__min__energy>  (5) 
-10.380000000000001

>  <m_primary>  (5) 
energy

$$$$
5:0
     RDKit          3D

 58 61  0  0  0  0  0  0  0  0999 V2000
   -2.8660   22.0370  -32.3760 O   0  0  0  0  0  0  0  0  0  0  0  0
   -3.2000   22.4910  -31.2470 C   0  0  0  0  0  0  0  0  0  0  0  0
   -2.3300   22.3050  -30.1220 N   0  0  0  0  0  0  0  0  0  0  0  0
   -2.0820   23.2440  -29.0650 C   0  0  0  0  0  0  0  0  0  0  0  0
   -0.9800   24.1170  -29.0830 C   0  0  0  0  0  0  0  0  0  0  0  0
   -0.7840   25.0260  -28.0390 C   0  0  0  0  0  0  0  0  0  0  0  0
   -1.6900   25.0810  -26.9710 C   0  0  0  0  0  0  0  0  0  0  0  0
   -1.4250   26.2070  -25.6370 S   0  0  0  0  0  0  0  0  0  0  0  0
   -2.7210   26.4210  -24.9070 O   0  0  0  0  0  0  0  0  0  0  0  0
   -0.9810   27.5330  -26.1910 O   0  0  0  0  0  0  0  0  0  0  0  0
   -0.2170   25.6190  -24.5130 N   0  0  0  0  0  0  0  0  0  0  0  0
    1.1140   25.6010  -25.1270 C   0  0  0  0  0  0  0  0  0  0  0  0
    1.4000   24.1870  -25.6090 C   0  0  0  0  0  0  0  0  0  0  0  0
    0.3650   23.3050  -24.9410 C   0  0  0  0  0  0  0  0  0  0  0  0
   -0.4990   24.2390  -24.1060 C   0  0  0  0  0  0  0  0  0  0  0  0
   -2.8070   24.2370  -26.9700 C   0  0  0  0  0  0  0  0  0  0  0  0
   -3.0030   23.3280  -28.0140 C   0  0  0  0  0  0  0  0  0  0  0  0
   -4.5150   23.1700  -31.0880 C   0  0  0  0  0  0  0  0  0  0  0  0
   -5.7000   22.4470  -31.3310 C   0  0  0  0  0  0  0  0  0  0  0  0
   -6.9540   23.0590  -31.2190 C   0  0  0  0  0  0  0  0  0  0  0  0
   -8.4270   22.1360  -31.5250 S   0  0  0  0  0  0  0  0  0  0  0  0
   -9.4860   23.0810  -32.0200 O   0  0  0  0  0  0  0  0  0  0  0  0
   -8.9140   21.5510  -30.2280 O   0  0  0  0  0  0  0  0  0  0  0  0
   -8.2250   20.8580  -32.7070 N   0  0  0  0  0  0  0  0  0  0  0  0
   -6.8480   20.3290  -32.7960 C   0  0  0  0  0  0  0  0  0  0  0  0
   -6.5730   19.1710  -31.8230 C   0  0  0  0  0  0  0  0  0  0  0  0
   -7.6420   18.0900  -31.9370 C   0  0  0  0  0  0  0  0  0  0  0  0
   -9.0210   18.6950  -31.7030 C   0  0  0  0  0  0  0  0  0  0  0  0
   -9.2880   19.8340  -32.6940 C   0  0  0  0  0  0  0  0  0  0  0  0
   -7.0370   24.3960  -30.8200 C   0  0  0  0  0  0  0  0  0  0  0  0
   -5.8760   25.1260  -30.5690 C   0  0  0  0  0  0  0  0  0  0  0  0
   -4.6190   24.5280  -30.7030 C   0  0  0  0  0  0  0  0  0  0  0  0
   -3.4900   25.2980  -30.4450 O   0  0  0  0  0  0  0  0  0  0  0  0
   -0.2692   24.0847  -29.9219 H   0  0  0  0  0  0  0  0  0  0  0  0
    0.0846   25.7007  -28.0558 H   0  0  0  0  0  0  0  0  0  0  0  0
    1.1398   26.2964  -25.9789 H   0  0  0  0  0  0  0  0  0  0  0  0
    1.8731   25.9118  -24.3941 H   0  0  0  0  0  0  0  0  0  0  0  0
    1.3039   24.1287  -26.7032 H   0  0  0  0  0  0  0  0  0  0  0  0
    2.4233   23.8726  -25.3560 H   0  0  0  0  0  0  0  0  0  0  0  0
   -0.2465   22.7916  -25.6976 H   0  0  0  0  0  0  0  0  0  0  0  0
    0.8352   22.5268  -24.3219 H   0  0  0  0  0  0  0  0  0  0  0  0
   -1.5619   24.0118  -24.2749 H   0  0  0  0  0  0  0  0  0  0  0  0
   -0.2741   24.1070  -23.0374 H   0  0  0  0  0  0  0  0  0  0  0  0
   -3.5328   24.2892  -26.1451 H   0  0  0  0  0  0  0  0  0  0  0  0
   -3.8874   22.6740  -28.0096 H   0  0  0  0  0  0  0  0  0  0  0  0
   -5.6386   21.3855  -31.6130 H   0  0  0  0  0  0  0  0  0  0  0  0
   -6.6784   19.9698  -33.8218 H   0  0  0  0  0  0  0  0  0  0  0  0
   -6.1675   21.1493  -32.5239 H   0  0  0  0  0  0  0  0  0  0  0  0
   -5.5919   18.7316  -32.0562 H   0  0  0  0  0  0  0  0  0  0  0  0
   -6.5862   19.5673  -30.7970 H   0  0  0  0  0  0  0  0  0  0  0  0
   -7.6049   17.6454  -32.9425 H   0  0  0  0  0  0  0  0  0  0  0  0
   -7.4542   17.3147  -31.1796 H   0  0  0  0  0  0  0  0  0  0  0  0
   -9.7849   17.9147  -31.8353 H   0  0  0  0  0  0  0  0  0  0  0  0
   -9.0613   19.0989  -30.6806 H   0  0  0  0  0  0  0  0  0  0  0  0
   -9.3725   19.4057  -33.7036 H   0  0  0  0  0  0  0  0  0  0  0  0
  -10.2159   20.3318  -32.3758 H   0  0  0  0  0  0  0  0  0  0  0  0
   -8.0211   24.8736  -30.7037 H   0  0  0  0  0  0  0  0  0  0  0  0
   -5.9493   26.1801  -30.2633 H   0  0  0  0  0  0  0  0  0  0  0  0
  1  2  2  0
  2  3  1  0
  3  4  1  0
  4  5  2  0
  5  6  1  0
  6  7  2  0
  7  8  1  0
  8  9  2  0
  8 10  2  0
  8 11  1  0
 11 12  1  0
 12 13  1  0
 13 14  1  0
 14 15  1  0
  7 16  1  0
 16 17  2  0
  2 18  1  0
 18 19  2  0
 19 20  1  0
 20 21  1  0
 21 22  2  0
 21 23  2  0
 21 24  1  0
 24 25  1  0
 25 26  1  0
 26 27  1  0
 27 28  1  0
 28 29  1  0
 20 30  2  0
 30 31  1  0
 31 32  2  0
 32 33  1  0
 17  4  1  0
 32 18  1  0
 15 11  1  0
 29 24  1  0
  5 34  1  0
  6 35  1  0
 12 36  1  0
 12 37  1  0
 13 38  1  0
 13 39  1  0
 14 40  1  0
 14 41  1  0
 15 42  1  0
 15 43  1  0
 16 44  1  0
 17 45  1  0
 19 46  1  0
 25 47  1  0
 25 48  1  0
 26 49  1  0
 26 50  1  0
 27 51  1  0
 27 52  1  0
 28 53  1  0
 28 54  1  0
 29 55  1  0
 29 56  1  0
 30 57  1  0
 31 58  1  0
M  CHG  2   3  -1  33  -1
M  END
>  <UniqueID>  (6) 
6

>  <SMILES>  (6) 
O=C([N-]c1ccc(S(=O)(=O)N2CCCC2)cc1)c1cc(S(=O)(=O)N2CCCCC2)ccc1[O-]

>  <Energy>  (6) 
67.46046021392642

>  <Genealogy>  (6) 
O=C([N-]c1ccc(S(=O)(=O)N2CCCC2)cc1)c1cc(S(=O)(=O)N2CCCCC2)ccc1[O-] (protonated)
O=C([N-]c1ccc(S(=O)(=O)N2CCCC2)cc1)c1cc(S(=O)(=O)N2CCCCC2)ccc1[O-] (3D coordinates assigned)
O=C([N-]c1ccc(S(=O)(=O)N2CCCC2)cc1)c1cc(S(=O)(=O)N2CCCCC2)ccc1[O-] (nonaromatic ring conformer: 67.46046021392642 kcal/mol)

>  <smiles>  (6) 
O=C(Nc1ccc(S(=O)(=O)N2CCCC2)cc1)c1cc(S(=O)(=O)N2CCCCC2)ccc1O

>  <score_type>  (6) 
oracle

>  <origin>  (6) 
adgpu

>  <m_score__min__energy>  (6) 
-14.43

>  <m_primary>  (6) 
energy

$$$$
6:0
     RDKit          3D

 51 54  0  0  0  0  0  0  0  0999 V2000
   -0.5550   26.7530  -23.7060 O   0  0  0  0  0  0  0  0  0  0  0  0
   -0.7730   26.2390  -24.8360 C   0  0  0  0  0  0  0  0  0  0  0  0
   -0.9620   27.1180  -25.8960 C   0  0  0  0  0  0  0  0  0  0  0  0
   -1.2070   26.8400  -27.2340 C   0  0  0  0  0  0  0  0  0  0  0  0
   -1.3550   25.6190  -27.8870 C   0  0  0  0  0  0  0  0  0  0  0  0
   -1.5890   25.7130  -29.2570 O   0  0  0  0  0  0  0  0  0  0  0  0
   -1.2960   24.3320  -27.3230 C   0  0  0  0  0  0  0  0  0  0  0  0
   -1.5430   22.9550  -28.4210 S   0  0  0  0  0  0  0  0  0  0  0  0
   -0.4400   22.8550  -29.4390 O   0  0  0  0  0  0  0  0  0  0  0  0
   -1.5510   21.6800  -27.6250 O   0  0  0  0  0  0  0  0  0  0  0  0
   -3.0720   23.1670  -29.2680 C   0  0  0  0  0  0  0  0  0  0  0  0
   -4.0600   23.9800  -28.7110 C   0  0  0  0  0  0  0  0  0  0  0  0
   -5.2830   24.1450  -29.3600 C   0  0  0  0  0  0  0  0  0  0  0  0
   -5.5390   23.4940  -30.5790 C   0  0  0  0  0  0  0  0  0  0  0  0
   -4.5340   22.6880  -31.1660 C   0  0  0  0  0  0  0  0  0  0  0  0
   -3.3140   22.5190  -30.4850 C   0  0  0  0  0  0  0  0  0  0  0  0
   -4.7180   21.9520  -32.4830 C   0  0  0  0  0  0  0  0  0  0  0  0
   -6.1170   21.3570  -32.7950 C   0  0  0  0  0  0  0  0  0  0  0  0
   -7.0230   21.1980  -31.6340 N   0  0  0  0  0  0  0  0  0  0  0  0
   -7.8680   19.9830  -31.6140 C   0  0  0  0  0  0  0  0  0  0  0  0
   -7.1130   18.7680  -32.0890 C   0  0  0  0  0  0  0  0  0  0  0  0
   -7.1460   18.4020  -33.4420 C   0  0  0  0  0  0  0  0  0  0  0  0
   -6.4540   17.2640  -33.8640 C   0  0  0  0  0  0  0  0  0  0  0  0
   -5.7570   16.5180  -32.9670 N   0  0  0  0  0  0  0  0  0  0  0  0
   -5.7080   16.8500  -31.6490 C   0  0  0  0  0  0  0  0  0  0  0  0
   -6.3840   17.9800  -31.1860 C   0  0  0  0  0  0  0  0  0  0  0  0
   -7.7260   22.4360  -31.2170 C   0  0  0  0  0  0  0  0  0  0  0  0
   -6.8620   23.7080  -31.2580 C   0  0  0  0  0  0  0  0  0  0  0  0
   -1.0250   24.0170  -25.9860 C   0  0  0  0  0  0  0  0  0  0  0  0
   -0.7950   24.8510  -24.8980 C   0  0  0  0  0  0  0  0  0  0  0  0
   -0.9101   28.1861  -25.6380 H   0  0  0  0  0  0  0  0  0  0  0  0
   -1.2988   27.7248  -27.8811 H   0  0  0  0  0  0  0  0  0  0  0  0
   -3.8732   24.4928  -27.7560 H   0  0  0  0  0  0  0  0  0  0  0  0
   -6.0542   24.7903  -28.9141 H   0  0  0  0  0  0  0  0  0  0  0  0
   -2.5389   21.8679  -30.9155 H   0  0  0  0  0  0  0  0  0  0  0  0
   -4.4759   22.6594  -33.2898 H   0  0  0  0  0  0  0  0  0  0  0  0
   -4.0580   21.0757  -32.4029 H   0  0  0  0  0  0  0  0  0  0  0  0
   -6.6114   22.0195  -33.5207 H   0  0  0  0  0  0  0  0  0  0  0  0
   -5.9322   20.3401  -33.1714 H   0  0  0  0  0  0  0  0  0  0  0  0
   -8.2143   19.8071  -30.5849 H   0  0  0  0  0  0  0  0  0  0  0  0
   -8.7168   20.1457  -32.2945 H   0  0  0  0  0  0  0  0  0  0  0  0
   -7.7125   19.0063  -34.1659 H   0  0  0  0  0  0  0  0  0  0  0  0
   -6.4734   16.9713  -34.9242 H   0  0  0  0  0  0  0  0  0  0  0  0
   -5.1347   16.2270  -30.9468 H   0  0  0  0  0  0  0  0  0  0  0  0
   -6.3454   18.2507  -30.1205 H   0  0  0  0  0  0  0  0  0  0  0  0
   -8.5864   22.5840  -31.8862 H   0  0  0  0  0  0  0  0  0  0  0  0
   -8.0167   22.2904  -30.1661 H   0  0  0  0  0  0  0  0  0  0  0  0
   -6.6849   23.9867  -32.3073 H   0  0  0  0  0  0  0  0  0  0  0  0
   -7.3984   24.5081  -30.7269 H   0  0  0  0  0  0  0  0  0  0  0  0
   -0.9883   22.9408  -25.7613 H   0  0  0  0  0  0  0  0  0  0  0  0
   -0.6019   24.3361  -23.9453 H   0  0  0  0  0  0  0  0  0  0  0  0
  1  2  2  0
  2  3  1  0
  3  4  2  0
  4  5  1  0
  5  6  1  0
  5  7  2  0
  7  8  1  0
  8  9  2  0
  8 10  2  0
  8 11  1  0
 11 12  2  0
 12 13  1  0
 13 14  2  0
 14 15  1  0
 15 16  2  0
 15 17  1  0
 17 18  1  0
 18 19  1  0
 19 20  1  0
 20 21  1  0
 21 22  2  0
 22 23  1  0
 23 24  2  0
 24 25  1  0
 25 26  2  0
 19 27  1  0
 27 28  1  0
  7 29  1  0
 29 30  2  0
 30  2  1  0
 16 11  1  0
 26 21  1  0
 28 14  1  0
  3 31  1  0
  4 32  1  0
 12 33  1  0
 13 34  1  0
 16 35  1  0
 17 36  1  0
 17 37  1  0
 18 38  1  0
 18 39  1  0
 20 40  1  0
 20 41  1  0
 22 42  1  0
 23 43  1  0
 25 44  1  0
 26 45  1  0
 27 46  1  0
 27 47  1  0
 28 48  1  0
 28 49  1  0
 29 50  1  0
 30 51  1  0
M  CHG  1   6  -1
M  END
>  <UniqueID>  (7) 
7

>  <SMILES>  (7) 
O=c1ccc([O-])c(S(=O)(=O)c2ccc3c(c2)CCN(Cc2ccncc2)CC3)cc1

>  <Energy>  (7) 
96.17567595740677

>  <Genealogy>  (7) 
O=c1ccc([O-])c(S(=O)(=O)c2ccc3c(c2)CCN(Cc2ccncc2)CC3)cc1 (protonated)
O=c1ccc([O-])c(S(=O)(=O)c2ccc3c(c2)CCN(Cc2ccncc2)CC3)cc1 (3D coordinates assigned)
O=c1ccc([O-])c(S(=O)(=O)c2ccc3c(c2)CCN(Cc2ccncc2)CC3)cc1 (nonaromatic ring conformer: 96.17567595740677 kcal/mol)

>  <smiles>  (7) 
O=c1ccc(O)c(S(=O)(=O)c2ccc3c(c2)CCN(Cc2ccncc2)CC3)cc1

>  <score_type>  (7) 
oracle

>  <origin>  (7) 
adgpu

>  <m_score__min__energy>  (7) 
-12.42

>  <m_primary>  (7) 
energy

$$$$
7:0
     RDKit          3D

 67 70  0  0  0  0  0  0  0  0999 V2000
   -8.6910   20.0330  -32.7240 C   0  0  0  0  0  0  0  0  0  0  0  0
   -7.7890   21.0290  -32.0440 C   0  0  0  0  0  0  0  0  0  0  0  0
   -8.3680   21.9380  -31.1440 C   0  0  0  0  0  0  0  0  0  0  0  0
   -7.5850   22.8630  -30.4610 C   0  0  0  0  0  0  0  0  0  0  0  0
   -6.2070   22.9100  -30.6640 C   0  0  0  0  0  0  0  0  0  0  0  0
   -5.4360   23.8330  -29.8800 N   0  0  0  0  0  0  0  0  0  0  0  0
   -4.3680   24.6270  -30.4060 C   0  0  0  0  0  0  0  0  0  0  0  0
   -4.6170   25.7820  -30.8410 O   0  0  0  0  0  0  0  0  0  0  0  0
   -3.0430   24.0820  -30.4820 N   0  0  0  0  0  0  0  0  0  0  0  0
   -2.1700   23.7910  -29.3820 C   0  0  0  0  0  0  0  0  0  0  0  0
   -2.2520   22.5210  -28.7990 C   0  0  0  0  0  0  0  0  0  0  0  0
   -1.4040   22.1640  -27.7420 C   0  0  0  0  0  0  0  0  0  0  0  0
   -1.4900   20.5420  -27.0490 S   0  0  0  0  0  0  0  0  0  0  0  0
   -2.7510   19.8710  -27.5230 O   0  0  0  0  0  0  0  0  0  0  0  0
   -1.5560   20.6480  -25.5500 O   0  0  0  0  0  0  0  0  0  0  0  0
   -0.1060   19.5720  -27.4960 N   0  0  0  0  0  0  0  0  0  0  0  0
    0.4670   20.0010  -28.7900 C   0  0  0  0  0  0  0  0  0  0  0  0
    0.1590   19.0010  -29.9190 C   0  0  0  0  0  0  0  0  0  0  0  0
    0.6450   17.6940  -29.6530 O   0  0  0  0  0  0  0  0  0  0  0  0
    0.5630   17.3200  -28.2800 C   0  0  0  0  0  0  0  0  0  0  0  0
   -0.4470   18.1370  -27.4600 C   0  0  0  0  0  0  0  0  0  0  0  0
   -0.4910   23.1030  -27.2440 C   0  0  0  0  0  0  0  0  0  0  0  0
   -0.4360   24.3880  -27.7900 C   0  0  0  0  0  0  0  0  0  0  0  0
   -1.2830   24.7440  -28.8460 C   0  0  0  0  0  0  0  0  0  0  0  0
   -1.2560   26.0500  -29.3220 O   0  0  0  0  0  0  0  0  0  0  0  0
   -5.6110   22.0530  -31.6160 C   0  0  0  0  0  0  0  0  0  0  0  0
   -4.2650   22.2010  -31.9680 O   0  0  0  0  0  0  0  0  0  0  0  0
   -6.3850   21.0590  -32.2590 C   0  0  0  0  0  0  0  0  0  0  0  0
   -5.5760   19.8920  -33.3400 S   0  0  0  0  0  0  0  0  0  0  0  0
   -6.4300   19.6570  -34.5550 O   0  0  0  0  0  0  0  0  0  0  0  0
   -4.2730   20.4660  -33.8200 O   0  0  0  0  0  0  0  0  0  0  0  0
   -5.2550   18.3410  -32.4740 C   0  0  0  0  0  0  0  0  0  0  0  0
   -4.0770   17.5660  -33.0880 C   0  0  0  0  0  0  0  0  0  0  0  0
   -4.4680   16.8050  -34.3680 C   0  0  0  0  0  0  0  0  0  0  0  0
   -5.6620   15.9530  -34.1930 N   0  0  0  0  0  0  0  0  0  0  0  0
   -5.3790   14.7320  -33.4180 C   0  0  0  0  0  0  0  0  0  0  0  0
   -6.8190   16.7030  -33.6680 C   0  0  0  0  0  0  0  0  0  0  0  0
   -6.5030   17.4500  -32.3600 C   0  0  0  0  0  0  0  0  0  0  0  0
   -9.2249   19.4434  -31.9642 H   0  0  0  0  0  0  0  0  0  0  0  0
   -9.4192   20.5669  -33.3522 H   0  0  0  0  0  0  0  0  0  0  0  0
   -8.0877   19.3612  -33.3522 H   0  0  0  0  0  0  0  0  0  0  0  0
   -9.4550   21.9184  -30.9768 H   0  0  0  0  0  0  0  0  0  0  0  0
   -8.0570   23.5626  -29.7554 H   0  0  0  0  0  0  0  0  0  0  0  0
   -2.9894   21.7961  -29.1743 H   0  0  0  0  0  0  0  0  0  0  0  0
    0.0438   20.9803  -29.0582 H   0  0  0  0  0  0  0  0  0  0  0  0
    1.5596   20.0566  -28.6751 H   0  0  0  0  0  0  0  0  0  0  0  0
   -0.9316   18.9486  -30.0524 H   0  0  0  0  0  0  0  0  0  0  0  0
    0.6678   19.3621  -30.8249 H   0  0  0  0  0  0  0  0  0  0  0  0
    0.2713   16.2606  -28.2286 H   0  0  0  0  0  0  0  0  0  0  0  0
    1.5533   17.5133  -27.8418 H   0  0  0  0  0  0  0  0  0  0  0  0
   -1.4535   17.9940  -27.8802 H   0  0  0  0  0  0  0  0  0  0  0  0
   -0.4177   17.7918  -26.4160 H   0  0  0  0  0  0  0  0  0  0  0  0
    0.1845   22.8277  -26.4207 H   0  0  0  0  0  0  0  0  0  0  0  0
    0.2764   25.1234  -27.3880 H   0  0  0  0  0  0  0  0  0  0  0  0
   -3.6380   22.8440  -31.5040 H   0  0  0  0  0  0  0  0  0  0  0  0
   -4.9707   18.6261  -31.4503 H   0  0  0  0  0  0  0  0  0  0  0  0
   -3.2765   18.2793  -33.3335 H   0  0  0  0  0  0  0  0  0  0  0  0
   -3.7469   16.8225  -32.3476 H   0  0  0  0  0  0  0  0  0  0  0  0
   -4.6741   17.5379  -35.1620 H   0  0  0  0  0  0  0  0  0  0  0  0
   -3.6278   16.1437  -34.6263 H   0  0  0  0  0  0  0  0  0  0  0  0
   -5.4317   14.9595  -32.3431 H   0  0  0  0  0  0  0  0  0  0  0  0
   -6.1220   13.9597  -33.6662 H   0  0  0  0  0  0  0  0  0  0  0  0
   -4.3721   14.3653  -33.6662 H   0  0  0  0  0  0  0  0  0  0  0  0
   -7.1344   17.4369  -34.4243 H   0  0  0  0  0  0  0  0  0  0  0  0
   -7.6137   15.9746  -33.4492 H   0  0  0  0  0  0  0  0  0  0  0  0
   -7.3644   18.0822  -32.0985 H   0  0  0  0  0  0  0  0  0  0  0  0
   -6.3034   16.6950  -31.5853 H   0  0  0  0  0  0  0  0  0  0  0  0
  1  2  1  0
  2  3  2  0
  3  4  1  0
  4  5  2  0
  5  6  1  0
  6  7  1  0
  7  8  2  0
  7  9  1  0
  9 10  1  0
 10 11  2  0
 11 12  1  0
 12 13  1  0
 13 14  2  0
 13 15  2  0
 13 16  1  0
 16 17  1  0
 17 18  1  0
 18 19  1  0
 19 20  1  0
 20 21  1  0
 12 22  2  0
 22 23  1  0
 23 24  2  0
 24 25  1  0
  5 26  1  0
 26 27  1  0
 26 28  2  0
 28 29  1  0
 29 30  2  0
 29 31  2  0
 29 32  1  0
 32 33  1  0
 33 34  1  0
 34 35  1  0
 35 36  1  0
 35 37  1  0
 37 38  1  0
 28  2  1  0
 38 32  1  0
 24 10  1  0
 21 16  1  0
  1 39  1  0
  1 40  1  0
  1 41  1  0
  3 42  1  0
  4 43  1  0
 11 44  1  0
 17 45  1  0
 17 46  1  0
 18 47  1  0
 18 48  1  0
 20 49  1  0
 20 50  1  0
 21 51  1  0
 21 52  1  0
 22 53  1  0
 23 54  1  0
 27 55  1  0
 32 56  1  0
 33 57  1  0
 33 58  1  0
 34 59  1  0
 34 60  1  0
 36 61  1  0
 36 62  1  0
 36 63  1  0
 37 64  1  0
 37 65  1  0
 38 66  1  0
 38 67  1  0
M  CHG  3   6  -1   9  -1  25  -1
M  END
>  <UniqueID>  (8) 
8

>  <SMILES>  (8) 
Cc1ccc([N-]C(=O)[N-]c2cc(S(=O)(=O)N3CCOCC3)ccc2[O-])c(O)c1S(=O)(=O)C1CCN(C)CC1

>  <Energy>  (8) 
95.36388766852127

>  <Genealogy>  (8) 
Cc1ccc([N-]C(=O)[N-]c2cc(S(=O)(=O)N3CCOCC3)ccc2[O-])c(O)c1S(=O)(=O)C1CCN(C)CC1 (protonated)
Cc1ccc([N-]C(=O)[N-]c2cc(S(=O)(=O)N3CCOCC3)ccc2[O-])c(O)c1S(=O)(=O)C1CCN(C)CC1 (3D coordinates assigned)
Cc1ccc([N-]C(=O)[N-]c2cc(S(=O)(=O)N3CCOCC3)ccc2[O-])c(O)c1S(=O)(=O)C1CCN(C)CC1 (nonaromatic ring conformer: 95.36388766852127 kcal/mol)

>  <smiles>  (8) 
Cc1ccc(NC(=O)Nc2cc(S(=O)(=O)N3CCOCC3)ccc2O)c(O)c1S(=O)(=O)C1CCN(C)CC1

>  <score_type>  (8) 
oracle

>  <origin>  (8) 
adgpu

>  <m_score__min__energy>  (8) 
-16.010000000000002

>  <m_primary>  (8) 
energy

$$$$
8:0
     RDKit          3D

 45 48  0  0  0  0  0  0  0  0999 V2000
   -2.3470   25.2550  -28.9830 O   0  0  0  0  0  0  0  0  0  0  0  0
   -3.3740   24.7890  -29.5490 C   0  0  0  0  0  0  0  0  0  0  0  0
   -4.1040   23.7770  -29.0070 N   0  0  0  0  0  0  0  0  0  0  0  0
   -5.0760   23.6210  -29.9200 C   0  0  0  0  0  0  0  0  0  0  0  0
   -6.1510   22.7390  -29.8950 C   0  0  0  0  0  0  0  0  0  0  0  0
   -7.0710   22.8110  -30.9660 C   0  0  0  0  0  0  0  0  0  0  0  0
   -8.5070   21.7940  -30.9990 S   0  0  0  0  0  0  0  0  0  0  0  0
   -9.2200   21.9220  -29.6840 O   0  0  0  0  0  0  0  0  0  0  0  0
   -9.4460   22.2170  -32.0930 O   0  0  0  0  0  0  0  0  0  0  0  0
   -8.0490   20.1400  -31.2400 N   0  0  0  0  0  0  0  0  0  0  0  0
   -6.9920   19.6900  -32.1000 C   0  0  0  0  0  0  0  0  0  0  0  0
   -7.2420   18.6230  -32.9720 C   0  0  0  0  0  0  0  0  0  0  0  0
   -6.2410   18.1630  -33.8330 C   0  0  0  0  0  0  0  0  0  0  0  0
   -4.9840   18.7710  -33.8370 C   0  0  0  0  0  0  0  0  0  0  0  0
   -4.7200   19.8410  -32.9700 C   0  0  0  0  0  0  0  0  0  0  0  0
   -3.1600   20.6660  -32.9970 S   0  0  0  0  0  0  0  0  0  0  0  0
   -2.3420   20.1130  -34.1300 O   0  0  0  0  0  0  0  0  0  0  0  0
   -3.3560   22.1410  -33.2160 O   0  0  0  0  0  0  0  0  0  0  0  0
   -2.3250   20.3900  -31.4860 N   0  0  0  0  0  0  0  0  0  0  0  0
   -3.1910   20.7900  -30.3530 C   0  0  0  0  0  0  0  0  0  0  0  0
   -2.3840   20.8890  -29.0560 C   0  0  0  0  0  0  0  0  0  0  0  0
   -1.2990   21.9770  -29.1600 C   0  0  0  0  0  0  0  0  0  0  0  0
   -0.8930   22.2800  -30.6140 C   0  0  0  0  0  0  0  0  0  0  0  0
   -0.9800   21.0220  -31.4920 C   0  0  0  0  0  0  0  0  0  0  0  0
   -5.7260   20.2980  -32.1080 C   0  0  0  0  0  0  0  0  0  0  0  0
   -6.8530   23.7450  -32.0100 C   0  0  0  0  0  0  0  0  0  0  0  0
   -5.7720   24.5830  -31.9820 N   0  0  0  0  0  0  0  0  0  0  0  0
   -4.9110   24.5020  -30.9390 C   0  0  0  0  0  0  0  0  0  0  0  0
   -3.8320   25.2690  -30.7380 N   0  0  0  0  0  0  0  0  0  0  0  0
   -6.2800   22.0158  -29.0763 H   0  0  0  0  0  0  0  0  0  0  0  0
   -8.2321   18.1438  -32.9796 H   0  0  0  0  0  0  0  0  0  0  0  0
   -6.4443   17.3196  -34.5093 H   0  0  0  0  0  0  0  0  0  0  0  0
   -4.2009   18.4106  -34.5203 H   0  0  0  0  0  0  0  0  0  0  0  0
   -3.6414   21.7693  -30.5724 H   0  0  0  0  0  0  0  0  0  0  0  0
   -3.9731   20.0275  -30.2226 H   0  0  0  0  0  0  0  0  0  0  0  0
   -3.0640   21.1377  -28.2279 H   0  0  0  0  0  0  0  0  0  0  0  0
   -1.8926   19.9216  -28.8755 H   0  0  0  0  0  0  0  0  0  0  0  0
   -1.6832   22.9008  -28.7029 H   0  0  0  0  0  0  0  0  0  0  0  0
   -0.4055   21.6036  -28.6383 H   0  0  0  0  0  0  0  0  0  0  0  0
   -1.5665   23.0484  -31.0213 H   0  0  0  0  0  0  0  0  0  0  0  0
    0.1485   22.6339  -30.6169 H   0  0  0  0  0  0  0  0  0  0  0  0
   -0.7303   21.3008  -32.5264 H   0  0  0  0  0  0  0  0  0  0  0  0
   -0.2741   20.2872  -31.0775 H   0  0  0  0  0  0  0  0  0  0  0  0
   -5.5221   21.1409  -31.4313 H   0  0  0  0  0  0  0  0  0  0  0  0
   -7.5601   23.7964  -32.8510 H   0  0  0  0  0  0  0  0  0  0  0  0
  1  2  2  0
  2  3  1  0
  3  4  1  0
  4  5  2  0
  5  6  1  0
  6  7  1  0
  7  8  2  0
  7  9  2  0
  7 10  1  0
 10 11  1  0
 11 12  2  0
 12 13  1  0
 13 14  2  0
 14 15  1  0
 15 16  1  0
 16 17  2  0
 16 18  2  0
 16 19  1  0
 19 20  1  0
 20 21  1  0
 21 22  1  0
 22 23  1  0
 23 24  1  0
 15 25  2  0
  6 26  2  0
 26 27  1  0
 27 28  2  0
 28 29  1  0
 29  2  1  0
 28  4  1  0
 25 11  1  0
 24 19  1  0
  5 30  1  0
 12 31  1  0
 13 32  1  0
 14 33  1  0
 20 34  1  0
 20 35  1  0
 21 36  1  0
 21 37  1  0
 22 38  1  0
 22 39  1  0
 23 40  1  0
 23 41  1  0
 24 42  1  0
 24 43  1  0
 25 44  1  0
 26 45  1  0
M  CHG  3   3  -1  10  -1  29  -1
M  END
>  <UniqueID>  (9) 
9

>  <SMILES>  (9) 
O=c1[n-]c2cc(S(=O)(=O)[N-]c3cccc(S(=O)(=O)N4CCCCC4)c3)cnc2[n-]1

>  <Energy>  (9) 
93.80162777666953

>  <Genealogy>  (9) 
O=c1[n-]c2cc(S(=O)(=O)[N-]c3cccc(S(=O)(=O)N4CCCCC4)c3)cnc2[n-]1 (protonated)
O=c1[n-]c2cc(S(=O)(=O)[N-]c3cccc(S(=O)(=O)N4CCCCC4)c3)cnc2[n-]1 (3D coordinates assigned)
O=c1[n-]c2cc(S(=O)(=O)[N-]c3cccc(S(=O)(=O)N4CCCCC4)c3)cnc2[n-]1 (nonaromatic ring conformer: 93.80162777666953 kcal/mol)

>  <smiles>  (9) 
O=c1[nH]c2cc(S(=O)(=O)Nc3cccc(S(=O)(=O)N4CCCCC4)c3)cnc2[nH]1

>  <score_type>  (9) 
oracle

>  <origin>  (9) 
adgpu

>  <m_score__min__energy>  (9) 
-12.17

>  <m_primary>  (9) 
energy

$$$$
9:0
     RDKit          3D

 35 37  0  0  0  0  0  0  0  0999 V2000
   -3.7454   24.1227  -27.6684 H   0  0  0  0  0  0  0  0  0  0  0  0
   -3.9600   24.1750  -28.7460 C   0  0  0  0  0  0  0  0  0  0  0  0
   -4.9040   23.4350  -29.3600 N   0  0  0  0  0  0  0  0  0  0  0  0
   -4.7860   23.8480  -30.6360 C   0  0  0  0  0  0  0  0  0  0  0  0
   -5.7960   23.2220  -31.9740 S   0  0  0  0  0  0  0  0  0  0  0  0
   -4.4280   22.2740  -32.7170 C   0  0  0  0  0  0  0  0  0  0  0  0
   -3.5646   22.2816  -32.0354 H   0  0  0  0  0  0  0  0  0  0  0  0
   -4.1439   22.7325  -33.6757 H   0  0  0  0  0  0  0  0  0  0  0  0
   -4.8690   20.8510  -32.9530 C   0  0  0  0  0  0  0  0  0  0  0  0
   -6.2490   20.5810  -32.9560 C   0  0  0  0  0  0  0  0  0  0  0  0
   -6.9620   21.3937  -32.7532 H   0  0  0  0  0  0  0  0  0  0  0  0
   -6.7250   19.2950  -33.2130 C   0  0  0  0  0  0  0  0  0  0  0  0
   -7.8068   19.0963  -33.1986 H   0  0  0  0  0  0  0  0  0  0  0  0
   -5.8310   18.2620  -33.4880 C   0  0  0  0  0  0  0  0  0  0  0  0
   -6.4850   16.5040  -33.8480 Br  0  0  0  0  0  0  0  0  0  0  0  0
   -4.4570   18.5120  -33.5040 C   0  0  0  0  0  0  0  0  0  0  0  0
   -3.7578   17.6924  -33.7264 H   0  0  0  0  0  0  0  0  0  0  0  0
   -3.9570   19.8000  -33.2390 C   0  0  0  0  0  0  0  0  0  0  0  0
   -2.2000   20.0570  -33.2690 S   0  0  0  0  0  0  0  0  0  0  0  0
   -1.8860   21.3980  -33.8710 O   0  0  0  0  0  0  0  0  0  0  0  0
   -1.5510   18.9840  -34.0950 O   0  0  0  0  0  0  0  0  0  0  0  0
   -1.5260   19.9860  -31.6720 N   0  0  0  0  0  0  0  0  0  0  0  0
   -1.4300   21.0260  -30.9030 C   0  0  0  0  0  0  0  0  0  0  0  0
   -1.8290   22.2360  -31.2230 O   0  0  0  0  0  0  0  0  0  0  0  0
   -1.6000   23.0510  -30.2350 N   0  0  0  0  0  0  0  0  0  0  0  0
   -1.8150   24.0730  -30.2420 H   0  0  0  0  0  0  0  0  0  0  0  0
   -1.0410   22.3480  -29.2290 C   0  0  0  0  0  0  0  0  0  0  0  0
   -0.5730   22.9390  -27.9390 C   0  0  0  0  0  0  0  0  0  0  0  0
   -1.0140   22.3821  -27.0992 H   0  0  0  0  0  0  0  0  0  0  0  0
    0.5239   22.8774  -27.8841 H   0  0  0  0  0  0  0  0  0  0  0  0
   -0.8843   23.9926  -27.8841 H   0  0  0  0  0  0  0  0  0  0  0  0
   -0.9070   21.0320  -29.6300 C   0  0  0  0  0  0  0  0  0  0  0  0
   -0.2170   19.6880  -28.7350 Cl  0  0  0  0  0  0  0  0  0  0  0  0
   -3.8320   24.7790  -30.7970 N   0  0  0  0  0  0  0  0  0  0  0  0
   -3.3100   24.9850  -29.6010 N   0  0  0  0  0  0  0  0  0  0  0  0
  1  2  1  0
  2  3  2  0
  3  4  1  0
  4  5  1  0
  5  6  1  0
  6  7  1  0
  6  8  1  0
  6  9  1  0
  9 10  2  0
 10 11  1  0
 10 12  1  0
 12 13  1  0
 12 14  2  0
 14 15  1  0
 14 16  1  0
 16 17  1  0
 16 18  2  0
 18 19  1  0
 19 20  2  0
 19 21  2  0
 19 22  1  0
 22 23  2  0
 23 24  1  0
 24 25  1  0
 25 26  1  0
 25 27  1  0
 27 28  1  0
 28 29  1  0
 28 30  1  0
 28 31  1  0
 27 32  2  0
 32 33  1  0
  4 34  2  0
 34 35  1  0
 35  2  1  0
 18  9  1  0
 32 23  1  0
M  CHG  1  35  -1
M  END
>  <UniqueID>  (10) 
10

>  <SMILES>  (10) 
Cc1[nH]o/c(=N\S(=O)(=O)c2cc(Br)ccc2CSc2nc[n-]n2)c1Cl

>  <Energy>  (10) 
101.58484620032334

>  <Genealogy>  (10) 
Cc1[nH]oc(=NS(=O)(=O)c2cc(Br)ccc2CSc2nc[n-]n2)c1Cl (protonated)
Cc1[nH]o/c(=N\S(=O)(=O)c2cc(Br)ccc2CSc2nc[n-]n2)c1Cl (cis-trans isomerization)
Cc1[nH]o/c(=N\S(=O)(=O)c2cc(Br)ccc2CSc2nc[n-]n2)c1Cl (3D coordinates assigned)
Cc1[nH]o/c(=N\S(=O)(=O)c2cc(Br)ccc2CSc2nc[n-]n2)c1Cl (optimized conformer: 101.58484620032334 kcal/mol)

>  <smiles>  (10) 
Cc1[nH]oc(=NS(=O)(=O)c2cc(Br)ccc2CSc2nc[nH]n2)c1Cl

>  <score_type>  (10) 
oracle

>  <origin>  (10) 
adgpu

>  <m_score__min__energy>  (10) 
-9.3000000000000007

>  <m_primary>  (10) 
energy

$$$$
10:0
     RDKit          3D

 46 49  0  0  0  0  0  0  0  0999 V2000
  -10.1000   18.9360  -33.1180 O   0  0  0  0  0  0  0  0  0  0  0  0
   -9.2900   19.7860  -32.6560 C   0  0  0  0  0  0  0  0  0  0  0  0
   -9.7290   21.0300  -32.3790 N   0  0  0  0  0  0  0  0  0  0  0  0
   -8.9030   21.9990  -31.9170 C   0  0  0  0  0  0  0  0  0  0  0  0
   -9.4080   23.1150  -31.6310 O   0  0  0  0  0  0  0  0  0  0  0  0
   -7.5510   21.7630  -31.7630 N   0  0  0  0  0  0  0  0  0  0  0  0
   -6.6120   22.8890  -31.4550 C   0  0  1  0  0  0  0  0  0  0  0  0
   -6.0010   22.8430  -30.0260 C   0  0  0  0  0  0  0  0  0  0  0  0
   -4.5190   23.2330  -30.0360 C   0  0  0  0  0  0  0  0  0  0  0  0
   -3.7460   22.3340  -30.9210 N   0  0  2  0  0  0  0  0  0  0  0  0
   -2.3040   22.6710  -30.8360 C   0  0  0  0  0  0  0  0  0  0  0  0
   -1.8610   22.9200  -29.4070 C   0  0  0  0  0  0  0  0  0  0  0  0
   -1.3890   21.8430  -28.6360 C   0  0  0  0  0  0  0  0  0  0  0  0
   -0.9600   22.0470  -27.3230 C   0  0  0  0  0  0  0  0  0  0  0  0
   -0.9980   23.3240  -26.7630 C   0  0  0  0  0  0  0  0  0  0  0  0
   -1.4710   24.4050  -27.5130 C   0  0  0  0  0  0  0  0  0  0  0  0
   -1.5150   26.0040  -26.7870 Cl  0  0  0  0  0  0  0  0  0  0  0  0
   -1.9050   24.2080  -28.8330 C   0  0  0  0  0  0  0  0  0  0  0  0
   -2.3810   25.2930  -29.5650 O   0  0  0  0  0  0  0  0  0  0  0  0
   -4.2320   22.3340  -32.3360 C   0  0  0  0  0  0  0  0  0  0  0  0
   -5.5640   23.0750  -32.5740 C   0  0  0  0  0  0  0  0  0  0  0  0
   -7.0960   20.4560  -31.8800 C   0  0  0  0  0  0  0  0  0  0  0  0
   -5.7990   20.0530  -31.4640 C   0  0  0  0  0  0  0  0  0  0  0  0
   -5.3550   18.7430  -31.6560 C   0  0  0  0  0  0  0  0  0  0  0  0
   -6.1900   17.7940  -32.2350 C   0  0  0  0  0  0  0  0  0  0  0  0
   -7.4910   18.1370  -32.5910 C   0  0  0  0  0  0  0  0  0  0  0  0
   -7.9610   19.4490  -32.3930 C   0  0  0  0  0  0  0  0  0  0  0  0
   -7.2262   23.8014  -31.4397 H   0  0  0  0  0  0  0  0  0  0  0  0
   -6.0993   21.8223  -29.6279 H   0  0  0  0  0  0  0  0  0  0  0  0
   -6.5431   23.5631  -29.3955 H   0  0  0  0  0  0  0  0  0  0  0  0
   -4.1205   23.1625  -29.0132 H   0  0  0  0  0  0  0  0  0  0  0  0
   -4.4275   24.2627  -30.4120 H   0  0  0  0  0  0  0  0  0  0  0  0
   -3.8600   21.3660  -30.5340 H   0  0  0  0  0  0  0  0  0  0  0  0
   -1.7193   21.8355  -31.2484 H   0  0  0  0  0  0  0  0  0  0  0  0
   -2.1371   23.5951  -31.4089 H   0  0  0  0  0  0  0  0  0  0  0  0
   -1.3575   20.8328  -29.0702 H   0  0  0  0  0  0  0  0  0  0  0  0
   -0.5910   21.1982  -26.7285 H   0  0  0  0  0  0  0  0  0  0  0  0
   -0.6553   23.4808  -25.7296 H   0  0  0  0  0  0  0  0  0  0  0  0
   -4.3637   21.2881  -32.6504 H   0  0  0  0  0  0  0  0  0  0  0  0
   -3.4731   22.8764  -32.9190 H   0  0  0  0  0  0  0  0  0  0  0  0
   -5.9981   22.7067  -33.5153 H   0  0  0  0  0  0  0  0  0  0  0  0
   -5.3234   24.1480  -32.6006 H   0  0  0  0  0  0  0  0  0  0  0  0
   -5.1335   20.7848  -30.9828 H   0  0  0  0  0  0  0  0  0  0  0  0
   -4.3379   18.4600  -31.3471 H   0  0  0  0  0  0  0  0  0  0  0  0
   -5.8225   16.7724  -32.4117 H   0  0  0  0  0  0  0  0  0  0  0  0
   -8.1559   17.3784  -33.0297 H   0  0  0  0  0  0  0  0  0  0  0  0
  1  2  2  0
  2  3  1  0
  3  4  1  0
  4  5  2  0
  4  6  1  0
  6  7  1  0
  7  8  1  0
  8  9  1  0
  9 10  1  0
 10 11  1  0
 11 12  1  0
 12 13  2  0
 13 14  1  0
 14 15  2  0
 15 16  1  0
 16 17  1  0
 16 18  2  0
 18 19  1  0
 10 20  1  0
 20 21  1  0
  6 22  1  0
 22 23  2  0
 23 24  1  0
 24 25  2  0
 25 26  1  0
 26 27  2  0
 27  2  1  0
 21  7  1  0
 27 22  1  0
 18 12  1  0
  7 28  1  1
  8 29  1  0
  8 30  1  0
  9 31  1  0
  9 32  1  0
 10 33  1  1
 11 34  1  0
 11 35  1  0
 13 36  1  0
 14 37  1  0
 15 38  1  0
 20 39  1  0
 20 40  1  0
 21 41  1  0
 21 42  1  0
 23 43  1  0
 24 44  1  0
 25 45  1  0
 26 46  1  0
M  CHG  3   3  -1  10   1  19  -1
M  END
>  <UniqueID>  (11) 
11

>  <SMILES>  (11) 
O=c1[n-]c(=O)n(C2CC[NH+](Cc3cccc(Cl)c3[O-])CC2)c2ccccc12

>  <Energy>  (11) 
83.60989351083848

>  <Genealogy>  (11) 
O=c1[n-]c(=O)n(C2CC[NH+](Cc3cccc(Cl)c3[O-])CC2)c2ccccc12 (protonated)
O=c1[n-]c(=O)n(C2CC[NH+](Cc3cccc(Cl)c3[O-])CC2)c2ccccc12 (3D coordinates assigned)
O=c1[n-]c(=O)n(C2CC[NH+](Cc3cccc(Cl)c3[O-])CC2)c2ccccc12 (nonaromatic ring conformer: 83.60989351083848 kcal/mol)

>  <smiles>  (11) 
O=c1[nH]c(=O)n(C2CCN(Cc3cccc(Cl)c3O)CC2)c2ccccc12

>  <score_type>  (11) 
oracle

>  <origin>  (11) 
adgpu

>  <m_score__min__energy>  (11) 
-10.66

>  <m_primary>  (11) 
energy

$$$$
11:0
     RDKit          3D

 54 57  0  0  0  0  0  0  0  0999 V2000
   -5.4230   16.7730  -33.6180 C   0  0  0  0  0  0  0  0  0  0  0  0
   -4.8440   18.1440  -33.4660 C   0  0  0  0  0  0  0  0  0  0  0  0
   -5.5690   19.1540  -32.8320 C   0  0  0  0  0  0  0  0  0  0  0  0
   -5.0150   20.4350  -32.7090 C   0  0  0  0  0  0  0  0  0  0  0  0
   -5.8320   21.5070  -32.0920 C   0  0  0  0  0  0  0  0  0  0  0  0
   -7.2230   21.5370  -32.2830 C   0  0  0  0  0  0  0  0  0  0  0  0
   -7.9840   22.5860  -31.7600 C   0  0  0  0  0  0  0  0  0  0  0  0
   -7.3630   23.6220  -31.0580 C   0  0  0  0  0  0  0  0  0  0  0  0
   -5.9750   23.6080  -30.8660 C   0  0  0  0  0  0  0  0  0  0  0  0
   -5.1640   24.9390  -30.0410 S   0  0  0  0  0  0  0  0  0  0  0  0
   -5.3260   24.7940  -28.5550 O   0  0  0  0  0  0  0  0  0  0  0  0
   -5.7660   26.2480  -30.4680 O   0  0  0  0  0  0  0  0  0  0  0  0
   -3.4830   24.9330  -30.4540 N   0  0  0  0  0  0  0  0  0  0  0  0
   -2.5360   24.2920  -29.6020 C   0  0  0  0  0  0  0  0  0  0  0  0
   -2.5590   22.8970  -29.4710 C   0  0  0  0  0  0  0  0  0  0  0  0
   -1.7040   22.2600  -28.5620 C   0  0  0  0  0  0  0  0  0  0  0  0
   -1.7590   20.5100  -28.3800 S   0  0  0  0  0  0  0  0  0  0  0  0
   -1.3930   20.1370  -26.9700 O   0  0  0  0  0  0  0  0  0  0  0  0
   -3.1590   20.0360  -28.6520 O   0  0  0  0  0  0  0  0  0  0  0  0
   -0.6580   19.7610  -29.5090 N   0  0  0  0  0  0  0  0  0  0  0  0
   -0.3090   18.4040  -29.0510 C   0  0  0  0  0  0  0  0  0  0  0  0
    0.4000   17.6110  -30.1660 C   0  0  0  0  0  0  0  0  0  0  0  0
    0.8220   18.4690  -31.2080 O   0  0  0  0  0  0  0  0  0  0  0  0
   -0.3070   19.0400  -31.8450 C   0  0  0  0  0  0  0  0  0  0  0  0
   -1.2740   19.7060  -30.8430 C   0  0  0  0  0  0  0  0  0  0  0  0
   -0.8010   23.0230  -27.8080 C   0  0  0  0  0  0  0  0  0  0  0  0
   -0.7650   24.4140  -27.9510 C   0  0  0  0  0  0  0  0  0  0  0  0
   -1.6350   25.0500  -28.8430 C   0  0  0  0  0  0  0  0  0  0  0  0
   -1.6030   26.4340  -28.9660 O   0  0  0  0  0  0  0  0  0  0  0  0
   -5.2150   22.5480  -31.3800 C   0  0  0  0  0  0  0  0  0  0  0  0
   -3.7130   20.6530  -33.2170 C   0  0  0  0  0  0  0  0  0  0  0  0
   -3.0950   21.7870  -33.0850 N   0  0  0  0  0  0  0  0  0  0  0  0
   -3.0640   19.6290  -33.8330 N   0  0  0  0  0  0  0  0  0  0  0  0
   -3.6100   18.4200  -33.9580 N   0  0  0  0  0  0  0  0  0  0  0  0
   -5.6059   16.3399  -32.6235 H   0  0  0  0  0  0  0  0  0  0  0  0
   -6.3718   16.8349  -34.1711 H   0  0  0  0  0  0  0  0  0  0  0  0
   -4.7170   16.1361  -34.1711 H   0  0  0  0  0  0  0  0  0  0  0  0
   -6.5715   18.9451  -32.4304 H   0  0  0  0  0  0  0  0  0  0  0  0
   -7.7158   20.7312  -32.8468 H   0  0  0  0  0  0  0  0  0  0  0  0
   -9.0748   22.5960  -31.9015 H   0  0  0  0  0  0  0  0  0  0  0  0
   -7.9647   24.4501  -30.6553 H   0  0  0  0  0  0  0  0  0  0  0  0
   -3.2505   22.3001  -30.0838 H   0  0  0  0  0  0  0  0  0  0  0  0
    0.3603   18.4788  -28.1812 H   0  0  0  0  0  0  0  0  0  0  0  0
   -1.2352   17.8762  -28.7798 H   0  0  0  0  0  0  0  0  0  0  0  0
    1.2777   17.1009  -29.7423 H   0  0  0  0  0  0  0  0  0  0  0  0
   -0.3086   16.8786  -30.5802 H   0  0  0  0  0  0  0  0  0  0  0  0
    0.0384   19.8002  -32.5611 H   0  0  0  0  0  0  0  0  0  0  0  0
   -0.8530   18.2293  -32.3496 H   0  0  0  0  0  0  0  0  0  0  0  0
   -1.5020   20.7276  -31.1812 H   0  0  0  0  0  0  0  0  0  0  0  0
   -2.2002   19.1151  -30.7885 H   0  0  0  0  0  0  0  0  0  0  0  0
   -0.1191   22.5263  -27.1021 H   0  0  0  0  0  0  0  0  0  0  0  0
   -0.0517   25.0085  -27.3613 H   0  0  0  0  0  0  0  0  0  0  0  0
   -4.1262   22.5317  -31.2242 H   0  0  0  0  0  0  0  0  0  0  0  0
   -3.4910   22.6200  -32.5970 H   0  0  0  0  0  0  0  0  0  0  0  0
  1  2  1  0
  2  3  1  0
  3  4  2  0
  4  5  1  0
  5  6  2  0
  6  7  1  0
  7  8  2  0
  8  9  1  0
  9 10  1  0
 10 11  2  0
 10 12  2  0
 10 13  1  0
 13 14  1  0
 14 15  2  0
 15 16  1  0
 16 17  1  0
 17 18  2  0
 17 19  2  0
 17 20  1  0
 20 21  1  0
 21 22  1  0
 22 23  1  0
 23 24  1  0
 24 25  1  0
 16 26  2  0
 26 27  1  0
 27 28  2  0
 28 29  1  0
  9 30  2  0
  4 31  1  0
 31 32  2  3
 31 33  1  0
 33 34  1  0
 34  2  2  0
 30  5  1  0
 28 14  1  0
 25 20  1  0
  1 35  1  0
  1 36  1  0
  1 37  1  0
  3 38  1  0
  6 39  1  0
  7 40  1  0
  8 41  1  0
 15 42  1  0
 21 43  1  0
 21 44  1  0
 22 45  1  0
 22 46  1  0
 24 47  1  0
 24 48  1  0
 25 49  1  0
 25 50  1  0
 26 51  1  0
 27 52  1  0
 30 53  1  0
 32 54  1  0
M  CHG  3  13  -1  29  -1  33  -1
M  END
>  <UniqueID>  (12) 
12

>  <SMILES>  (12) 
Cc1cc(-c2cccc(S(=O)(=O)[N-]c3cc(S(=O)(=O)N4CCOCC4)ccc3[O-])c2)c(=N)[n-]n1

>  <Energy>  (12) 
80.04972387625551

>  <Genealogy>  (12) 
Cc1cc(-c2cccc(S(=O)(=O)[N-]c3cc(S(=O)(=O)N4CCOCC4)ccc3[O-])c2)c(=N)[n-]n1 (protonated)
Cc1cc(-c2cccc(S(=O)(=O)[N-]c3cc(S(=O)(=O)N4CCOCC4)ccc3[O-])c2)c(=N)[n-]n1 (3D coordinates assigned)
Cc1cc(-c2cccc(S(=O)(=O)[N-]c3cc(S(=O)(=O)N4CCOCC4)ccc3[O-])c2)c(=N)[n-]n1 (nonaromatic ring conformer: 80.04972387625551 kcal/mol)

>  <smiles>  (12) 
Cc1cc(-c2cccc(S(=O)(=O)Nc3cc(S(=O)(=O)N4CCOCC4)ccc3O)c2)c(=N)[nH]n1

>  <score_type>  (12) 
oracle

>  <origin>  (12) 
adgpu

>  <m_score__min__energy>  (12) 
-15.369999999999999

>  <m_primary>  (12) 
energy

$$$$
12:0
     RDKit          3D

 74 78  0  0  0  0  0  0  0  0999 V2000
   -2.6700   15.7510  -35.5930 O   0  0  0  0  0  0  0  0  0  0  0  0
   -2.6090   16.6930  -34.7560 C   0  0  0  0  0  0  0  0  0  0  0  0
   -1.3830   16.9410  -34.0590 N   0  0  0  0  0  0  0  0  0  0  0  0
   -0.8740   18.2470  -33.7660 C   0  0  0  0  0  0  0  0  0  0  0  0
   -0.1020   18.9140  -34.7240 C   0  0  0  0  0  0  0  0  0  0  0  0
    0.4500   20.1660  -34.4360 C   0  0  0  0  0  0  0  0  0  0  0  0
    0.2580   20.7440  -33.1780 C   0  0  0  0  0  0  0  0  0  0  0  0
   -0.4820   20.0680  -32.2000 C   0  0  0  0  0  0  0  0  0  0  0  0
   -0.6240   20.7050  -30.5650 S   0  0  0  0  0  0  0  0  0  0  0  0
   -2.0030   20.4070  -30.0460 O   0  0  0  0  0  0  0  0  0  0  0  0
   -0.4140   22.1970  -30.5640 O   0  0  0  0  0  0  0  0  0  0  0  0
    0.5750   19.9360  -29.5550 N   0  0  0  0  0  0  0  0  0  0  0  0
   -0.0960   19.0810  -28.5500 C   0  0  0  0  0  0  0  0  0  0  0  0
    0.8840   18.1250  -27.8340 C   0  0  0  0  0  0  0  0  0  0  0  0
    2.3370   18.5660  -28.0280 C   0  0  0  0  0  0  0  0  0  0  0  0
    2.6880   18.6520  -29.5230 C   0  0  0  0  0  0  0  0  0  0  0  0
    1.5060   19.1500  -30.3780 C   0  0  0  0  0  0  0  0  0  0  0  0
   -1.0570   18.8260  -32.5000 C   0  0  0  0  0  0  0  0  0  0  0  0
   -3.7970   17.5330  -34.4930 C   0  0  0  0  0  0  0  0  0  0  0  0
   -4.9960   17.3150  -35.1880 C   0  0  0  0  0  0  0  0  0  0  0  0
   -6.0990   18.1450  -34.9740 C   0  0  0  0  0  0  0  0  0  0  0  0
   -6.0160   19.2190  -34.0770 C   0  0  0  0  0  0  0  0  0  0  0  0
   -7.1250   20.0360  -33.8670 O   0  0  0  0  0  0  0  0  0  0  0  0
   -4.8120   19.4600  -33.3850 C   0  0  0  0  0  0  0  0  0  0  0  0
   -4.6610   20.6270  -32.4840 C   0  0  0  0  0  0  0  0  0  0  0  0
   -5.7130   21.0140  -31.6380 C   0  0  0  0  0  0  0  0  0  0  0  0
   -5.6090   22.1710  -30.8630 C   0  0  0  0  0  0  0  0  0  0  0  0
   -4.4530   22.9590  -30.9270 C   0  0  0  0  0  0  0  0  0  0  0  0
   -4.3520   24.4840  -30.0540 S   0  0  0  0  0  0  0  0  0  0  0  0
   -5.1470   24.3360  -28.7870 O   0  0  0  0  0  0  0  0  0  0  0  0
   -4.9760   25.5900  -30.8580 O   0  0  0  0  0  0  0  0  0  0  0  0
   -2.7140   24.9170  -29.6230 N   0  0  0  0  0  0  0  0  0  0  0  0
   -2.0780   24.1790  -28.5150 C   0  0  0  0  0  0  0  0  0  0  0  0
   -0.5370   24.3240  -28.4220 C   0  0  0  0  0  0  0  0  0  0  0  0
    0.1040   23.2590  -27.5020 C   0  0  0  0  0  0  0  0  0  0  0  0
   -0.8720   22.7270  -26.4440 C   0  0  0  0  0  0  0  0  0  0  0  0
   -2.1240   22.0810  -27.0840 C   0  0  0  0  0  0  0  0  0  0  0  0
   -2.5110   22.7040  -28.4410 C   0  0  0  0  0  0  0  0  0  0  0  0
   -3.3860   22.5590  -31.7420 C   0  0  0  0  0  0  0  0  0  0  0  0
   -3.4920   21.4050  -32.5230 C   0  0  0  0  0  0  0  0  0  0  0  0
   -3.7180   18.6000  -33.5840 C   0  0  0  0  0  0  0  0  0  0  0  0
    0.0711   18.4517  -35.7070 H   0  0  0  0  0  0  0  0  0  0  0  0
    1.0362   20.6968  -35.2006 H   0  0  0  0  0  0  0  0  0  0  0  0
    0.6888   21.7314  -32.9558 H   0  0  0  0  0  0  0  0  0  0  0  0
   -0.5702   19.7279  -27.7973 H   0  0  0  0  0  0  0  0  0  0  0  0
   -0.8369   18.4637  -29.0791 H   0  0  0  0  0  0  0  0  0  0  0  0
    0.6534   18.1158  -26.7585 H   0  0  0  0  0  0  0  0  0  0  0  0
    0.7664   17.1207  -28.2672 H   0  0  0  0  0  0  0  0  0  0  0  0
    2.4781   19.5548  -27.5672 H   0  0  0  0  0  0  0  0  0  0  0  0
    2.9964   17.8242  -27.5537 H   0  0  0  0  0  0  0  0  0  0  0  0
    3.5316   19.3468  -29.6481 H   0  0  0  0  0  0  0  0  0  0  0  0
    2.9452   17.6387  -29.8653 H   0  0  0  0  0  0  0  0  0  0  0  0
    1.8890   19.7800  -31.1944 H   0  0  0  0  0  0  0  0  0  0  0  0
    0.9722   18.2811  -30.7904 H   0  0  0  0  0  0  0  0  0  0  0  0
   -1.6548   18.3019  -31.7398 H   0  0  0  0  0  0  0  0  0  0  0  0
   -5.0680   16.4850  -35.9062 H   0  0  0  0  0  0  0  0  0  0  0  0
   -7.0389   17.9546  -35.5129 H   0  0  0  0  0  0  0  0  0  0  0  0
   -8.0710   19.6770  -33.9490 H   0  0  0  0  0  0  0  0  0  0  0  0
   -6.6252   20.4015  -31.5855 H   0  0  0  0  0  0  0  0  0  0  0  0
   -6.4369   22.4641  -30.2007 H   0  0  0  0  0  0  0  0  0  0  0  0
   -2.4694   24.6862  -27.6208 H   0  0  0  0  0  0  0  0  0  0  0  0
   -0.1115   24.2205  -29.4311 H   0  0  0  0  0  0  0  0  0  0  0  0
   -0.3199   25.3123  -27.9907 H   0  0  0  0  0  0  0  0  0  0  0  0
    0.4443   22.4167  -28.1223 H   0  0  0  0  0  0  0  0  0  0  0  0
    0.9408   23.7374  -26.9720 H   0  0  0  0  0  0  0  0  0  0  0  0
   -0.3561   21.9722  -25.8324 H   0  0  0  0  0  0  0  0  0  0  0  0
   -1.2042   23.5770  -25.8298 H   0  0  0  0  0  0  0  0  0  0  0  0
   -1.9240   21.0102  -27.2367 H   0  0  0  0  0  0  0  0  0  0  0  0
   -2.9651   22.2539  -26.3965 H   0  0  0  0  0  0  0  0  0  0  0  0
   -2.0169   22.1433  -29.2481 H   0  0  0  0  0  0  0  0  0  0  0  0
   -3.6044   22.6541  -28.5501 H   0  0  0  0  0  0  0  0  0  0  0  0
   -2.4619   23.1552  -31.7672 H   0  0  0  0  0  0  0  0  0  0  0  0
   -2.6559   21.1044  -33.1715 H   0  0  0  0  0  0  0  0  0  0  0  0
   -2.7880   18.7652  -33.0202 H   0  0  0  0  0  0  0  0  0  0  0  0
  1  2  2  0
  2  3  1  0
  3  4  1  0
  4  5  2  0
  5  6  1  0
  6  7  2  0
  7  8  1  0
  8  9  1  0
  9 10  2  0
  9 11  2  0
  9 12  1  0
 12 13  1  0
 13 14  1  0
 14 15  1  0
 15 16  1  0
 16 17  1  0
  8 18  2  0
  2 19  1  0
 19 20  2  0
 20 21  1  0
 21 22  2  0
 22 23  1  0
 22 24  1  0
 24 25  1  0
 25 26  2  0
 26 27  1  0
 27 28  2  0
 28 29  1  0
 29 30  2  0
 29 31  2  0
 29 32  1  0
 32 33  1  0
 33 34  1  0
 34 35  1  0
 35 36  1  0
 36 37  1  0
 37 38  1  0
 28 39  1  0
 39 40  2  0
 24 41  2  0
 18  4  1  0
 41 19  1  0
 17 12  1  0
 40 25  1  0
 38 33  1  0
  5 42  1  0
  6 43  1  0
  7 44  1  0
 13 45  1  0
 13 46  1  0
 14 47  1  0
 14 48  1  0
 15 49  1  0
 15 50  1  0
 16 51  1  0
 16 52  1  0
 17 53  1  0
 17 54  1  0
 18 55  1  0
 20 56  1  0
 21 57  1  0
 23 58  1  0
 26 59  1  0
 27 60  1  0
 33 61  1  0
 34 62  1  0
 34 63  1  0
 35 64  1  0
 35 65  1  0
 36 66  1  0
 36 67  1  0
 37 68  1  0
 37 69  1  0
 38 70  1  0
 38 71  1  0
 39 72  1  0
 40 73  1  0
 41 74  1  0
M  CHG  2   3  -1  32  -1
M  END
>  <UniqueID>  (13) 
13

>  <SMILES>  (13) 
O=C([N-]c1cccc(S(=O)(=O)N2CCCCC2)c1)c1ccc(O)c(-c2ccc(S(=O)(=O)[N-]C3CCCCC3)cc2)c1

>  <Energy>  (13) 
99.63771647031126

>  <Genealogy>  (13) 
O=C([N-]c1cccc(S(=O)(=O)N2CCCCC2)c1)c1ccc(O)c(-c2ccc(S(=O)(=O)[N-]C3CCCCC3)cc2)c1 (protonated)
O=C([N-]c1cccc(S(=O)(=O)N2CCCCC2)c1)c1ccc(O)c(-c2ccc(S(=O)(=O)[N-]C3CCCCC3)cc2)c1 (3D coordinates assigned)
O=C([N-]c1cccc(S(=O)(=O)N2CCCCC2)c1)c1ccc(O)c(-c2ccc(S(=O)(=O)[N-]C3CCCCC3)cc2)c1 (nonaromatic ring conformer: 99.63771647031126 kcal/mol)

>  <smiles>  (13) 
O=C(Nc1cccc(S(=O)(=O)N2CCCCC2)c1)c1ccc(O)c(-c2ccc(S(=O)(=O)NC3CCCCC3)cc2)c1

>  <score_type>  (13) 
oracle

>  <origin>  (13) 
adgpu

>  <m_score__min__energy>  (13) 
-13.09

>  <m_primary>  (13) 
energy

$$$$
13:0
     RDKit          3D

 40 42  0  0  0  0  0  0  0  0999 V2000
   -6.3100   25.6010  -30.3490 H   0  0  0  0  0  0  0  0  0  0  0  0
   -6.6490   24.6590  -30.6420 N   0  0  0  0  0  0  0  0  0  0  0  0
   -5.8870   23.6280  -30.8540 C   0  0  0  0  0  0  0  0  0  0  0  0
   -6.4890   22.4460  -31.2890 C   0  0  0  0  0  0  0  0  0  0  0  0
   -7.5831   22.3960  -31.3907 H   0  0  0  0  0  0  0  0  0  0  0  0
   -5.7100   21.3230  -31.5970 C   0  0  0  0  0  0  0  0  0  0  0  0
   -6.3330   20.1010  -32.0640 N   0  0  0  0  0  0  0  0  0  0  0  0
   -7.7140   19.7320  -31.7820 C   0  0  0  0  0  0  0  0  0  0  0  0
   -7.9040   19.7630  -30.6990 H   0  0  0  0  0  0  0  0  0  0  0  0
   -8.4211   20.4272  -32.2582 H   0  0  0  0  0  0  0  0  0  0  0  0
   -7.8880   18.3130  -32.3090 C   0  0  0  0  0  0  0  0  0  0  0  0
   -7.8346   17.5865  -31.4848 H   0  0  0  0  0  0  0  0  0  0  0  0
   -8.8652   18.1723  -32.7940 H   0  0  0  0  0  0  0  0  0  0  0  0
   -6.7290   18.1010  -33.2870 C   0  0  2  0  0  0  0  0  0  0  0  0
   -7.0504   18.2808  -34.3235 H   0  0  0  0  0  0  0  0  0  0  0  0
   -6.2360   16.6650  -33.3290 C   0  0  0  0  0  0  0  0  0  0  0  0
   -6.8660   15.7320  -34.1720 C   0  0  0  0  0  0  0  0  0  0  0  0
   -7.7133   16.0471  -34.7987 H   0  0  0  0  0  0  0  0  0  0  0  0
   -6.4230   14.4070  -34.2190 C   0  0  0  0  0  0  0  0  0  0  0  0
   -6.9227   13.6846  -34.8811 H   0  0  0  0  0  0  0  0  0  0  0  0
   -5.3470   13.9980  -33.4270 C   0  0  0  0  0  0  0  0  0  0  0  0
   -5.0000   12.9549  -33.4662 H   0  0  0  0  0  0  0  0  0  0  0  0
   -4.7120   14.9150  -32.5850 C   0  0  0  0  0  0  0  0  0  0  0  0
   -3.8649   14.5930  -31.9616 H   0  0  0  0  0  0  0  0  0  0  0  0
   -5.1520   16.2410  -32.5340 C   0  0  0  0  0  0  0  0  0  0  0  0
   -4.6488   16.9583  -31.8689 H   0  0  0  0  0  0  0  0  0  0  0  0
   -5.6490   19.1010  -32.8710 C   0  0  0  0  0  0  0  0  0  0  0  0
   -4.8680   18.5995  -32.2806 H   0  0  0  0  0  0  0  0  0  0  0  0
   -5.1527   19.5512  -33.7434 H   0  0  0  0  0  0  0  0  0  0  0  0
   -4.3540   21.3990  -31.4570 N   0  0  0  0  0  0  0  0  0  0  0  0
   -3.7680   20.5640  -31.6840 H   0  0  0  0  0  0  0  0  0  0  0  0
   -3.7240   22.5250  -31.0080 C   0  0  0  0  0  0  0  0  0  0  0  0
   -2.2230   22.5070  -30.8550 C   0  0  0  0  0  0  0  0  0  0  0  0
   -1.9634   22.5039  -29.7861 H   0  0  0  0  0  0  0  0  0  0  0  0
   -1.8164   21.6039  -31.3337 H   0  0  0  0  0  0  0  0  0  0  0  0
   -1.7949   23.4001  -31.3337 H   0  0  0  0  0  0  0  0  0  0  0  0
   -4.4820   23.6810  -30.6980 C   0  0  0  0  0  0  0  0  0  0  0  0
   -3.8130   24.9050  -30.1980 C   0  0  0  0  0  0  0  0  0  0  0  0
   -4.2750   26.0430  -30.4750 O   0  0  0  0  0  0  0  0  0  0  0  0
   -2.6540   24.8080  -29.4350 O   0  0  0  0  0  0  0  0  0  0  0  0
  1  2  1  0
  2  3  2  0
  3  4  1  0
  4  5  1  0
  4  6  2  0
  6  7  1  0
  7  8  1  0
  8  9  1  0
  8 10  1  0
  8 11  1  0
 11 12  1  0
 11 13  1  0
 11 14  1  0
 14 15  1  6
 14 16  1  0
 16 17  2  0
 17 18  1  0
 17 19  1  0
 19 20  1  0
 19 21  2  0
 21 22  1  0
 21 23  1  0
 23 24  1  0
 23 25  2  0
 25 26  1  0
 14 27  1  0
 27 28  1  0
 27 29  1  0
  6 30  1  0
 30 31  1  0
 30 32  1  0
 32 33  1  0
 33 34  1  0
 33 35  1  0
 33 36  1  0
 32 37  2  0
 37 38  1  0
 38 39  2  0
 38 40  1  0
 37  3  1  0
 27  7  1  0
 25 16  1  0
M  CHG  1  40  -1
M  END
>  <UniqueID>  (14) 
14

>  <SMILES>  (14) 
[H]/N=c1/cc(N2CC[C@H](c3ccccc3)C2)[nH]c(C)c1C(=O)[O-]

>  <Energy>  (14) 
55.12444827775024

>  <Genealogy>  (14) 
Cc1[nH]c(N2CCC(c3ccccc3)C2)cc(=N)c1C(=O)[O-] (protonated)
Cc1[nH]c(N2CC[C@H](c3ccccc3)C2)cc(=N)c1C(=O)[O-] (chirality)
[H]/N=c1/cc(N2CC[C@H](c3ccccc3)C2)[nH]c(C)c1C(=O)[O-] (cis-trans isomerization)
[H]/N=c1/cc(N2CC[C@H](c3ccccc3)C2)[nH]c(C)c1C(=O)[O-] (3D coordinates assigned)
[H]/N=c1/cc(N2CC[C@H](c3ccccc3)C2)[nH]c(C)c1C(=O)[O-] (nonaromatic ring conformer: 55.12444827775024 kcal/mol)

>  <smiles>  (14) 
Cc1[nH]c(N2CCC(c3ccccc3)C2)cc(=N)c1C(=O)O

>  <score_type>  (14) 
oracle

>  <origin>  (14) 
adgpu

>  <m_score__min__energy>  (14) 
-9.75

>  <m_primary>  (14) 
energy

$$$$
14:0
     RDKit          3D

 50 53  0  0  0  0  0  0  0  0999 V2000
   -0.3130   21.9670  -30.0670 O   0  0  0  0  0  0  0  0  0  0  0  0
   -1.2590   22.7540  -29.7930 C   0  0  0  0  0  0  0  0  0  0  0  0
   -2.4920   22.6960  -30.5330 N   0  0  0  0  0  0  0  0  0  0  0  0
   -2.7350   21.7870  -31.6210 C   0  0  0  0  0  0  0  0  0  0  0  0
   -1.7710   21.5630  -32.6190 C   0  0  0  0  0  0  0  0  0  0  0  0
   -2.0470   20.6990  -33.6830 C   0  0  0  0  0  0  0  0  0  0  0  0
   -3.2860   20.0620  -33.7670 C   0  0  0  0  0  0  0  0  0  0  0  0
   -4.2610   20.2910  -32.7880 C   0  0  0  0  0  0  0  0  0  0  0  0
   -5.8460   19.5270  -32.9030 S   0  0  0  0  0  0  0  0  0  0  0  0
   -5.6990   18.0650  -32.5830 O   0  0  0  0  0  0  0  0  0  0  0  0
   -6.3790   19.6610  -34.3020 O   0  0  0  0  0  0  0  0  0  0  0  0
   -6.9500   20.2690  -31.7700 N   0  0  0  0  0  0  0  0  0  0  0  0
   -7.2030   21.6740  -32.1620 C   0  0  0  0  0  0  0  0  0  0  0  0
   -8.4750   22.2190  -31.5050 C   0  0  0  0  0  0  0  0  0  0  0  0
   -9.7140   21.4260  -31.9560 C   0  0  0  0  0  0  0  0  0  0  0  0
   -9.3760   19.9880  -32.3850 C   0  0  0  0  0  0  0  0  0  0  0  0
   -8.1740   19.4440  -31.6020 C   0  0  0  0  0  0  0  0  0  0  0  0
   -3.9870   21.1630  -31.7260 C   0  0  0  0  0  0  0  0  0  0  0  0
   -1.0780   23.7390  -28.7040 C   0  0  0  0  0  0  0  0  0  0  0  0
   -0.2280   23.4220  -27.6300 C   0  0  0  0  0  0  0  0  0  0  0  0
   -0.0270   24.3360  -26.5860 C   0  0  0  0  0  0  0  0  0  0  0  0
    0.8330   24.0260  -25.5200 C   0  0  0  0  0  0  0  0  0  0  0  0
    1.0290   24.9470  -24.4860 C   0  0  0  0  0  0  0  0  0  0  0  0
    0.3700   26.1780  -24.5080 C   0  0  0  0  0  0  0  0  0  0  0  0
   -0.4880   26.5000  -25.5640 C   0  0  0  0  0  0  0  0  0  0  0  0
   -0.6920   25.5840  -26.6080 C   0  0  0  0  0  0  0  0  0  0  0  0
   -1.5550   25.8910  -27.6690 C   0  0  0  0  0  0  0  0  0  0  0  0
   -1.7580   24.9740  -28.7060 C   0  0  0  0  0  0  0  0  0  0  0  0
   -2.6620   25.2910  -29.7140 O   0  0  0  0  0  0  0  0  0  0  0  0
   -3.2830   23.3110  -30.2380 H   0  0  0  0  0  0  0  0  0  0  0  0
   -0.7960   22.0692  -32.5628 H   0  0  0  0  0  0  0  0  0  0  0  0
   -1.2853   20.5207  -34.4563 H   0  0  0  0  0  0  0  0  0  0  0  0
   -3.4970   19.3792  -34.6032 H   0  0  0  0  0  0  0  0  0  0  0  0
   -6.3473   22.2915  -31.8514 H   0  0  0  0  0  0  0  0  0  0  0  0
   -7.3354   21.7097  -33.2534 H   0  0  0  0  0  0  0  0  0  0  0  0
   -8.3767   22.1412  -30.4122 H   0  0  0  0  0  0  0  0  0  0  0  0
   -8.6026   23.2688  -31.8076 H   0  0  0  0  0  0  0  0  0  0  0  0
  -10.4286   21.3851  -31.1207 H   0  0  0  0  0  0  0  0  0  0  0  0
  -10.1381   21.9420  -32.8300 H   0  0  0  0  0  0  0  0  0  0  0  0
  -10.2476   19.3435  -32.1981 H   0  0  0  0  0  0  0  0  0  0  0  0
   -9.1210   19.9943  -33.4550 H   0  0  0  0  0  0  0  0  0  0  0  0
   -8.4347   19.4172  -30.5337 H   0  0  0  0  0  0  0  0  0  0  0  0
   -7.9514   18.4413  -31.9958 H   0  0  0  0  0  0  0  0  0  0  0  0
   -4.7599   21.3599  -30.9685 H   0  0  0  0  0  0  0  0  0  0  0  0
    0.2838   22.4485  -27.6086 H   0  0  0  0  0  0  0  0  0  0  0  0
    1.3534   23.0571  -25.4983 H   0  0  0  0  0  0  0  0  0  0  0  0
    1.7041   24.7011  -23.6531 H   0  0  0  0  0  0  0  0  0  0  0  0
    0.5266   26.8976  -23.6909 H   0  0  0  0  0  0  0  0  0  0  0  0
   -1.0035   27.4717  -25.5767 H   0  0  0  0  0  0  0  0  0  0  0  0
   -2.0762   26.8595  -27.6864 H   0  0  0  0  0  0  0  0  0  0  0  0
  1  2  2  0
  2  3  1  0
  3  4  1  0
  4  5  2  0
  5  6  1  0
  6  7  2  0
  7  8  1  0
  8  9  1  0
  9 10  2  0
  9 11  2  0
  9 12  1  0
 12 13  1  0
 13 14  1  0
 14 15  1  0
 15 16  1  0
 16 17  1  0
  8 18  2  0
  2 19  1  0
 19 20  2  0
 20 21  1  0
 21 22  2  0
 22 23  1  0
 23 24  2  0
 24 25  1  0
 25 26  2  0
 26 27  1  0
 27 28  2  0
 28 29  1  0
 18  4  1  0
 28 19  1  0
 17 12  1  0
 26 21  1  0
  3 30  1  0
  5 31  1  0
  6 32  1  0
  7 33  1  0
 13 34  1  0
 13 35  1  0
 14 36  1  0
 14 37  1  0
 15 38  1  0
 15 39  1  0
 16 40  1  0
 16 41  1  0
 17 42  1  0
 17 43  1  0
 18 44  1  0
 20 45  1  0
 22 46  1  0
 23 47  1  0
 24 48  1  0
 25 49  1  0
 27 50  1  0
M  CHG  1  29  -1
M  END
>  <UniqueID>  (15) 
15

>  <SMILES>  (15) 
O=C(Nc1cccc(S(=O)(=O)N2CCCCC2)c1)c1cc2ccccc2cc1[O-]

>  <Energy>  (15) 
70.57458932297052

>  <Genealogy>  (15) 
O=C(Nc1cccc(S(=O)(=O)N2CCCCC2)c1)c1cc2ccccc2cc1[O-] (protonated)
O=C(Nc1cccc(S(=O)(=O)N2CCCCC2)c1)c1cc2ccccc2cc1[O-] (3D coordinates assigned)
O=C(Nc1cccc(S(=O)(=O)N2CCCCC2)c1)c1cc2ccccc2cc1[O-] (nonaromatic ring conformer: 70.57458932297052 kcal/mol)

>  <smiles>  (15) 
O=C(Nc1cccc(S(=O)(=O)N2CCCCC2)c1)c1cc2ccccc2cc1O

>  <score_type>  (15) 
oracle

>  <origin>  (15) 
adgpu

>  <m_score__min__energy>  (15) 
-13.210000000000001

>  <m_primary>  (15) 
energy

$$$$
15:0
     RDKit          3D

 62 66  0  0  0  0  0  0  0  0999 V2000
    0.4990   20.2690  -28.6970 O   0  0  0  0  0  0  0  0  0  0  0  0
   -0.3720   20.4670  -29.5880 C   0  0  0  0  0  0  0  0  0  0  0  0
   -1.4020   21.5090  -29.3820 C   0  0  0  0  0  0  0  0  0  0  0  0
   -1.1030   22.8620  -29.6100 C   0  0  0  0  0  0  0  0  0  0  0  0
   -2.0790   23.8440  -29.4220 C   0  0  0  0  0  0  0  0  0  0  0  0
   -3.3700   23.4960  -29.0000 C   0  0  0  0  0  0  0  0  0  0  0  0
   -4.3620   24.5280  -28.8430 N   0  0  0  0  0  0  0  0  0  0  0  0
   -5.5680   24.8930  -30.0370 S   0  0  0  0  0  0  0  0  0  0  0  0
   -4.9190   25.6040  -31.1910 O   0  0  0  0  0  0  0  0  0  0  0  0
   -6.5970   25.7970  -29.4190 O   0  0  0  0  0  0  0  0  0  0  0  0
   -6.3020   23.3960  -30.6300 C   0  0  0  0  0  0  0  0  0  0  0  0
   -7.6000   23.0650  -30.2130 C   0  0  0  0  0  0  0  0  0  0  0  0
   -8.2220   21.9020  -30.6740 C   0  0  0  0  0  0  0  0  0  0  0  0
   -7.5520   21.0470  -31.5510 C   0  0  0  0  0  0  0  0  0  0  0  0
   -6.2490   21.3490  -31.9670 C   0  0  0  0  0  0  0  0  0  0  0  0
   -5.5550   20.5010  -32.8380 C   0  0  0  0  0  0  0  0  0  0  0  0
   -4.2550   20.8200  -33.2300 C   0  0  0  0  0  0  0  0  0  0  0  0
   -3.6580   21.9860  -32.7470 C   0  0  0  0  0  0  0  0  0  0  0  0
   -4.3430   22.8040  -31.9040 N   0  0  0  0  0  0  0  0  0  0  0  0
   -5.6140   22.5270  -31.5020 C   0  0  0  0  0  0  0  0  0  0  0  0
   -3.6610   22.1450  -28.7430 C   0  0  0  0  0  0  0  0  0  0  0  0
   -2.6850   21.1630  -28.9300 C   0  0  0  0  0  0  0  0  0  0  0  0
   -0.3630   19.6540  -30.7740 N   0  0  0  0  0  0  0  0  0  0  0  0
   -0.4250   20.2780  -32.1040 C   0  0  0  0  0  0  0  0  0  0  0  0
   -1.4000   19.5290  -33.0350 C   0  0  0  0  0  0  0  0  0  0  0  0
   -1.6150   18.0490  -32.6280 C   0  0  0  0  0  0  0  0  0  0  0  0
   -2.1410   17.1760  -33.7930 C   0  0  0  0  0  0  0  0  0  0  0  0
   -3.6480   17.1050  -33.8900 C   0  0  0  0  0  0  0  0  0  0  0  0
   -4.3810   16.2860  -33.0150 C   0  0  0  0  0  0  0  0  0  0  0  0
   -5.7740   16.2170  -33.1120 C   0  0  0  0  0  0  0  0  0  0  0  0
   -6.4460   16.9570  -34.0880 C   0  0  0  0  0  0  0  0  0  0  0  0
   -5.7250   17.7650  -34.9710 C   0  0  0  0  0  0  0  0  0  0  0  0
   -4.3320   17.8370  -34.8770 C   0  0  0  0  0  0  0  0  0  0  0  0
   -0.3530   17.4690  -31.9620 C   0  0  0  0  0  0  0  0  0  0  0  0
   -0.0580   18.2210  -30.6550 C   0  0  0  0  0  0  0  0  0  0  0  0
   -0.0937   23.1506  -29.9388 H   0  0  0  0  0  0  0  0  0  0  0  0
   -1.8322   24.8999  -29.6068 H   0  0  0  0  0  0  0  0  0  0  0  0
   -4.3090   25.1610  -28.0140 H   0  0  0  0  0  0  0  0  0  0  0  0
   -8.1335   23.7279  -29.5159 H   0  0  0  0  0  0  0  0  0  0  0  0
   -9.2431   21.6592  -30.3448 H   0  0  0  0  0  0  0  0  0  0  0  0
   -8.0478   20.1353  -31.9157 H   0  0  0  0  0  0  0  0  0  0  0  0
   -6.0341   19.5845  -33.2127 H   0  0  0  0  0  0  0  0  0  0  0  0
   -3.7043   20.1580  -33.9145 H   0  0  0  0  0  0  0  0  0  0  0  0
   -2.6320   22.2433  -33.0489 H   0  0  0  0  0  0  0  0  0  0  0  0
   -4.6637   21.8591  -28.3924 H   0  0  0  0  0  0  0  0  0  0  0  0
   -2.9240   20.1098  -28.7212 H   0  0  0  0  0  0  0  0  0  0  0  0
   -0.7634   21.3189  -31.9950 H   0  0  0  0  0  0  0  0  0  0  0  0
    0.5791   20.2374  -32.5513 H   0  0  0  0  0  0  0  0  0  0  0  0
   -2.3720   20.0434  -33.0105 H   0  0  0  0  0  0  0  0  0  0  0  0
   -0.9578   19.5308  -34.0422 H   0  0  0  0  0  0  0  0  0  0  0  0
   -2.4153   18.0304  -31.8735 H   0  0  0  0  0  0  0  0  0  0  0  0
   -1.7549   17.5914  -34.7355 H   0  0  0  0  0  0  0  0  0  0  0  0
   -1.7905   16.1513  -33.6001 H   0  0  0  0  0  0  0  0  0  0  0  0
   -3.8561   15.6958  -32.2494 H   0  0  0  0  0  0  0  0  0  0  0  0
   -6.3418   15.5790  -32.4187 H   0  0  0  0  0  0  0  0  0  0  0  0
   -7.5423   16.9036  -34.1613 H   0  0  0  0  0  0  0  0  0  0  0  0
   -6.2542   18.3453  -35.7412 H   0  0  0  0  0  0  0  0  0  0  0  0
   -3.7681   18.4694  -35.5785 H   0  0  0  0  0  0  0  0  0  0  0  0
   -0.5142   16.4035  -31.7412 H   0  0  0  0  0  0  0  0  0  0  0  0
    0.5014   17.5823  -32.6455 H   0  0  0  0  0  0  0  0  0  0  0  0
   -0.6717   17.7912  -29.8496 H   0  0  0  0  0  0  0  0  0  0  0  0
    1.0139   18.1150  -30.4317 H   0  0  0  0  0  0  0  0  0  0  0  0
  1  2  2  0
  2  3  1  0
  3  4  2  0
  4  5  1  0
  5  6  2  0
  6  7  1  0
  7  8  1  0
  8  9  2  0
  8 10  2  0
  8 11  1  0
 11 12  2  0
 12 13  1  0
 13 14  2  0
 14 15  1  0
 15 16  2  0
 16 17  1  0
 17 18  2  0
 18 19  1  0
 19 20  2  0
  6 21  1  0
 21 22  2  0
  2 23  1  0
 23 24  1  0
 24 25  1  0
 25 26  1  0
 26 27  1  0
 27 28  1  0
 28 29  2  0
 29 30  1  0
 30 31  2  0
 31 32  1  0
 32 33  2  0
 26 34  1  0
 34 35  1  0
 22  3  1  0
 35 23  1  0
 20 11  1  0
 33 28  1  0
 20 15  1  0
  4 36  1  0
  5 37  1  0
  7 38  1  0
 12 39  1  0
 13 40  1  0
 14 41  1  0
 16 42  1  0
 17 43  1  0
 18 44  1  0
 21 45  1  0
 22 46  1  0
 24 47  1  0
 24 48  1  0
 25 49  1  0
 25 50  1  0
 26 51  1  0
 27 52  1  0
 27 53  1  0
 29 54  1  0
 30 55  1  0
 31 56  1  0
 32 57  1  0
 33 58  1  0
 34 59  1  0
 34 60  1  0
 35 61  1  0
 35 62  1  0
M  END
>  <UniqueID>  (16) 
16

>  <SMILES>  (16) 
O=C(c1ccc(NS(=O)(=O)c2cccc3cccnc23)cc1)N1CCC(Cc2ccccc2)CC1

>  <Energy>  (16) 
80.6677309497871

>  <Genealogy>  (16) 
O=C(c1ccc(NS(=O)(=O)c2cccc3cccnc23)cc1)N1CCC(Cc2ccccc2)CC1 (3D coordinates assigned)
O=C(c1ccc(NS(=O)(=O)c2cccc3cccnc23)cc1)N1CCC(Cc2ccccc2)CC1 (nonaromatic ring conformer: 80.6677309497871 kcal/mol)

>  <smiles>  (16) 
O=C(c1ccc(NS(=O)(=O)c2cccc3cccnc23)cc1)N1CCC(Cc2ccccc2)CC1

>  <score_type>  (16) 
oracle

>  <origin>  (16) 
adgpu

>  <m_score__min__energy>  (16) 
-10.800000000000001

>  <m_primary>  (16) 
energy

$$$$
16:0
     RDKit          3D

 59 62  0  0  0  0  0  0  0  0999 V2000
    3.5580   24.2100  -37.6460 N   0  0  0  0  0  0  0  0  0  0  0  0
    2.1360   24.4360  -36.6890 S   0  0  0  0  0  0  0  0  0  0  0  0
    1.0040   24.8440  -37.5920 O   0  0  0  0  0  0  0  0  0  0  0  0
    2.3760   25.5190  -35.6740 O   0  0  0  0  0  0  0  0  0  0  0  0
    1.7410   22.9330  -35.8620 C   0  0  0  0  0  0  0  0  0  0  0  0
    0.4550   22.3840  -35.9520 C   0  0  0  0  0  0  0  0  0  0  0  0
    0.1520   21.1900  -35.2900 C   0  0  0  0  0  0  0  0  0  0  0  0
    1.1230   20.5450  -34.5100 C   0  0  0  0  0  0  0  0  0  0  0  0
    0.7780   19.2720  -33.8370 C   0  0  0  0  0  0  0  0  0  0  0  0
   -0.2570   19.1100  -33.0620 N   0  0  0  0  0  0  0  0  0  0  0  0
   -1.3160   20.0530  -32.8330 C   0  0  0  0  0  0  0  0  0  0  0  0
   -1.1740   20.9960  -31.8090 C   0  0  0  0  0  0  0  0  0  0  0  0
   -2.1910   21.9190  -31.5450 C   0  0  0  0  0  0  0  0  0  0  0  0
   -1.9920   22.8880  -30.5680 O   0  0  0  0  0  0  0  0  0  0  0  0
   -3.3910   21.8730  -32.2800 C   0  0  0  0  0  0  0  0  0  0  0  0
   -4.4590   22.8010  -32.0300 N   0  0  0  0  0  0  0  0  0  0  0  0
   -5.8450   22.4230  -31.9240 C   0  0  0  0  0  0  0  0  0  0  0  0
   -6.8090   23.4050  -31.6490 C   0  0  0  0  0  0  0  0  0  0  0  0
   -8.1600   23.0600  -31.5520 C   0  0  0  0  0  0  0  0  0  0  0  0
   -8.5620   21.7350  -31.7350 C   0  0  0  0  0  0  0  0  0  0  0  0
   -7.6120   20.7470  -32.0280 C   0  0  0  0  0  0  0  0  0  0  0  0
   -8.0910   19.0680  -32.2510 S   0  0  0  0  0  0  0  0  0  0  0  0
   -9.3420   19.0360  -33.0840 O   0  0  0  0  0  0  0  0  0  0  0  0
   -8.3710   18.4260  -30.9190 O   0  0  0  0  0  0  0  0  0  0  0  0
   -6.8120   18.2030  -33.0660 N   0  0  0  0  0  0  0  0  0  0  0  0
   -5.5820   18.2350  -32.2460 C   0  0  0  0  0  0  0  0  0  0  0  0
   -4.4930   17.2770  -32.7780 C   0  0  0  0  0  0  0  0  0  0  0  0
   -4.8170   16.7730  -34.1860 C   0  0  0  0  0  0  0  0  0  0  0  0
   -6.2010   16.1030  -34.2270 C   0  0  0  0  0  0  0  0  0  0  0  0
   -7.2280   16.8160  -33.3260 C   0  0  0  0  0  0  0  0  0  0  0  0
   -6.2590   21.0960  -32.1380 C   0  0  0  0  0  0  0  0  0  0  0  0
   -3.5350   20.9260  -33.3030 C   0  0  0  0  0  0  0  0  0  0  0  0
   -2.5180   20.0040  -33.5660 C   0  0  0  0  0  0  0  0  0  0  0  0
   -2.7180   19.0300  -34.5370 O   0  0  0  0  0  0  0  0  0  0  0  0
    2.4160   21.0900  -34.4350 C   0  0  0  0  0  0  0  0  0  0  0  0
    2.7190   22.2810  -35.1020 C   0  0  0  0  0  0  0  0  0  0  0  0
    3.2820   24.3510  -38.6420 H   0  0  0  0  0  0  0  0  0  0  0  0
   -0.3186   22.8937  -36.5451 H   0  0  0  0  0  0  0  0  0  0  0  0
   -0.8538   20.7541  -35.3816 H   0  0  0  0  0  0  0  0  0  0  0  0
    1.4378   18.4074  -34.0018 H   0  0  0  0  0  0  0  0  0  0  0  0
   -0.2540   21.0115  -31.2061 H   0  0  0  0  0  0  0  0  0  0  0  0
   -4.2250   23.8190  -32.0080 H   0  0  0  0  0  0  0  0  0  0  0  0
   -6.4999   24.4514  -31.5091 H   0  0  0  0  0  0  0  0  0  0  0  0
   -8.9091   23.8346  -31.3308 H   0  0  0  0  0  0  0  0  0  0  0  0
   -9.6253   21.4666  -31.6491 H   0  0  0  0  0  0  0  0  0  0  0  0
   -5.1825   19.2599  -32.2486 H   0  0  0  0  0  0  0  0  0  0  0  0
   -5.8483   17.9081  -31.2300 H   0  0  0  0  0  0  0  0  0  0  0  0
   -3.5313   17.8104  -32.8034 H   0  0  0  0  0  0  0  0  0  0  0  0
   -4.4455   16.4072  -32.1063 H   0  0  0  0  0  0  0  0  0  0  0  0
   -4.8084   17.6237  -34.8834 H   0  0  0  0  0  0  0  0  0  0  0  0
   -4.0593   16.0298  -34.4751 H   0  0  0  0  0  0  0  0  0  0  0  0
   -6.5699   16.1183  -35.2632 H   0  0  0  0  0  0  0  0  0  0  0  0
   -6.0860   15.0745  -33.8542 H   0  0  0  0  0  0  0  0  0  0  0  0
   -8.2074   16.8199  -33.8267 H   0  0  0  0  0  0  0  0  0  0  0  0
   -7.2933   16.2792  -32.3681 H   0  0  0  0  0  0  0  0  0  0  0  0
   -5.5156   20.3265  -32.3935 H   0  0  0  0  0  0  0  0  0  0  0  0
   -4.4561   20.9082  -33.9040 H   0  0  0  0  0  0  0  0  0  0  0  0
    3.1932   20.5775  -33.8491 H   0  0  0  0  0  0  0  0  0  0  0  0
    3.7304   22.7074  -35.0291 H   0  0  0  0  0  0  0  0  0  0  0  0
  1  2  1  0
  2  3  2  0
  2  4  2  0
  2  5  1  0
  5  6  2  0
  6  7  1  0
  7  8  2  0
  8  9  1  0
  9 10  2  3
 10 11  1  0
 11 12  2  0
 12 13  1  0
 13 14  1  0
 13 15  2  0
 15 16  1  0
 16 17  1  0
 17 18  2  0
 18 19  1  0
 19 20  2  0
 20 21  1  0
 21 22  1  0
 22 23  2  0
 22 24  2  0
 22 25  1  0
 25 26  1  0
 26 27  1  0
 27 28  1  0
 28 29  1  0
 29 30  1  0
 21 31  2  0
 15 32  1  0
 32 33  2  0
 33 34  1  0
  8 35  1  0
 35 36  2  0
 36  5  1  0
 33 11  1  0
 31 17  1  0
 30 25  1  0
  1 37  1  0
  6 38  1  0
  7 39  1  0
  9 40  1  0
 12 41  1  0
 16 42  1  0
 18 43  1  0
 19 44  1  0
 20 45  1  0
 26 46  1  0
 26 47  1  0
 27 48  1  0
 27 49  1  0
 28 50  1  0
 28 51  1  0
 29 52  1  0
 29 53  1  0
 30 54  1  0
 30 55  1  0
 31 56  1  0
 32 57  1  0
 35 58  1  0
 36 59  1  0
M  CHG  3   1  -1  14  -1  34  -1
M  END
>  <UniqueID>  (17) 
17

>  <SMILES>  (17) 
[NH-]S(=O)(=O)c1ccc(C=Nc2cc([O-])c(Nc3cccc(S(=O)(=O)N4CCCCC4)c3)cc2[O-])cc1

>  <Energy>  (17) 
82.80814395739615

>  <Genealogy>  (17) 
[NH-]S(=O)(=O)c1ccc(C=Nc2cc([O-])c(Nc3cccc(S(=O)(=O)N4CCCCC4)c3)cc2[O-])cc1 (protonated)
[NH-]S(=O)(=O)c1ccc(C=Nc2cc([O-])c(Nc3cccc(S(=O)(=O)N4CCCCC4)c3)cc2[O-])cc1 (3D coordinates assigned)
[NH-]S(=O)(=O)c1ccc(C=Nc2cc([O-])c(Nc3cccc(S(=O)(=O)N4CCCCC4)c3)cc2[O-])cc1 (nonaromatic ring conformer: 82.80814395739615 kcal/mol)

>  <smiles>  (17) 
NS(=O)(=O)c1ccc(C=Nc2cc(O)c(Nc3cccc(S(=O)(=O)N4CCCCC4)c3)cc2O)cc1

>  <score_type>  (17) 
oracle

>  <origin>  (17) 
adgpu

>  <m_score__min__energy>  (17) 
-13.039999999999999

>  <m_primary>  (17) 
energy

$$$$
17:0
     RDKit          3D

 54 57  0  0  0  0  0  0  0  0999 V2000
    0.0130   20.3840  -30.3850 C   0  0  0  0  0  0  0  0  0  0  0  0
   -1.1970   20.6710  -29.4880 C   0  0  1  0  0  0  0  0  0  0  0  0
   -0.9070   20.2760  -28.0300 C   0  0  0  0  0  0  0  0  0  0  0  0
   -2.1400   20.5160  -27.1240 C   0  0  2  0  0  0  0  0  0  0  0  0
   -2.9950   19.2490  -26.9900 C   0  0  0  0  0  0  0  0  0  0  0  0
   -3.0000   21.7010  -27.6240 C   0  0  0  0  0  0  0  0  0  0  0  0
   -2.1450   22.6870  -28.3030 N   0  0  0  0  0  0  0  0  0  0  0  0
   -3.0230   24.1740  -28.5670 S   0  0  0  0  0  0  0  0  0  0  0  0
   -2.0620   25.2590  -28.9680 O   0  0  0  0  0  0  0  0  0  0  0  0
   -3.6880   24.5910  -27.2850 O   0  0  0  0  0  0  0  0  0  0  0  0
   -4.2500   23.9860  -29.8210 C   0  0  0  0  0  0  0  0  0  0  0  0
   -5.1030   25.0520  -30.1370 C   0  0  0  0  0  0  0  0  0  0  0  0
   -6.0940   24.8960  -31.1090 C   0  0  0  0  0  0  0  0  0  0  0  0
   -6.2350   23.6770  -31.7760 C   0  0  0  0  0  0  0  0  0  0  0  0
   -5.3710   22.6080  -31.4880 C   0  0  0  0  0  0  0  0  0  0  0  0
   -5.5420   21.2980  -32.1490 C   0  0  0  0  0  0  0  0  0  0  0  0
   -4.4740   20.7770  -32.8060 N   0  0  0  0  0  0  0  0  0  0  0  0
   -4.5030   19.5870  -33.4090 N   0  0  0  0  0  0  0  0  0  0  0  0
   -3.2920   19.1180  -34.0840 C   0  0  0  0  0  0  0  0  0  0  0  0
   -5.6340   18.8190  -33.3880 C   0  0  0  0  0  0  0  0  0  0  0  0
   -5.6410   17.6880  -33.9500 O   0  0  0  0  0  0  0  0  0  0  0  0
   -6.7880   19.2980  -32.7440 C   0  0  0  0  0  0  0  0  0  0  0  0
   -7.9780   18.5450  -32.7200 C   0  0  0  0  0  0  0  0  0  0  0  0
   -9.1240   19.0540  -32.1060 C   0  0  0  0  0  0  0  0  0  0  0  0
   -9.1000   20.3180  -31.5180 C   0  0  0  0  0  0  0  0  0  0  0  0
   -7.9270   21.0770  -31.5290 C   0  0  0  0  0  0  0  0  0  0  0  0
   -6.7520   20.5700  -32.1220 C   0  0  0  0  0  0  0  0  0  0  0  0
   -4.3890   22.7650  -30.4970 C   0  0  0  0  0  0  0  0  0  0  0  0
   -1.6310   22.1590  -29.5870 C   0  0  0  0  0  0  0  0  0  0  0  0
    0.8927   20.1754  -29.7584 H   0  0  0  0  0  0  0  0  0  0  0  0
   -0.2001   19.5115  -31.0201 H   0  0  0  0  0  0  0  0  0  0  0  0
    0.2145   21.2593  -31.0201 H   0  0  0  0  0  0  0  0  0  0  0  0
   -2.0344   20.0545  -29.8468 H   0  0  0  0  0  0  0  0  0  0  0  0
   -0.6389   19.2098  -27.9946 H   0  0  0  0  0  0  0  0  0  0  0  0
   -0.0791   20.8990  -27.6605 H   0  0  0  0  0  0  0  0  0  0  0  0
   -1.7550   20.7769  -26.1271 H   0  0  0  0  0  0  0  0  0  0  0  0
   -3.1487   19.0213  -25.9248 H   0  0  0  0  0  0  0  0  0  0  0  0
   -3.9691   19.4111  -27.4745 H   0  0  0  0  0  0  0  0  0  0  0  0
   -2.4802   18.4063  -27.4745 H   0  0  0  0  0  0  0  0  0  0  0  0
   -3.7590   21.3296  -28.3283 H   0  0  0  0  0  0  0  0  0  0  0  0
   -3.4933   22.1791  -26.7649 H   0  0  0  0  0  0  0  0  0  0  0  0
   -4.9917   26.0153  -29.6176 H   0  0  0  0  0  0  0  0  0  0  0  0
   -6.7643   25.7344  -31.3495 H   0  0  0  0  0  0  0  0  0  0  0  0
   -7.0262   23.5537  -32.5302 H   0  0  0  0  0  0  0  0  0  0  0  0
   -2.5426   18.8278  -33.3329 H   0  0  0  0  0  0  0  0  0  0  0  0
   -3.5360   18.2493  -34.7132 H   0  0  0  0  0  0  0  0  0  0  0  0
   -2.8873   19.9244  -34.7132 H   0  0  0  0  0  0  0  0  0  0  0  0
   -8.0047   17.5498  -33.1879 H   0  0  0  0  0  0  0  0  0  0  0  0
  -10.0475   18.4567  -32.0861 H   0  0  0  0  0  0  0  0  0  0  0  0
  -10.0078   20.7191  -31.0437 H   0  0  0  0  0  0  0  0  0  0  0  0
   -7.9198   22.0774  -31.0718 H   0  0  0  0  0  0  0  0  0  0  0  0
   -3.7240   21.9246  -30.2490 H   0  0  0  0  0  0  0  0  0  0  0  0
   -2.4224   22.2457  -30.3460 H   0  0  0  0  0  0  0  0  0  0  0  0
   -0.7430   22.7485  -29.8589 H   0  0  0  0  0  0  0  0  0  0  0  0
  1  2  1  0
  2  3  1  0
  3  4  1  0
  4  5  1  0
  4  6  1  0
  6  7  1  0
  7  8  1  0
  8  9  2  0
  8 10  2  0
  8 11  1  0
 11 12  2  0
 12 13  1  0
 13 14  2  0
 14 15  1  0
 15 16  1  0
 16 17  2  0
 17 18  1  0
 18 19  1  0
 18 20  1  0
 20 21  2  0
 20 22  1  0
 22 23  2  0
 23 24  1  0
 24 25  2  0
 25 26  1  0
 26 27  2  0
 15 28  2  0
  7 29  1  0
 29  2  1  0
 28 11  1  0
 27 16  1  0
 27 22  1  0
  1 30  1  0
  1 31  1  0
  1 32  1  0
  2 33  1  6
  3 34  1  0
  3 35  1  0
  4 36  1  1
  5 37  1  0
  5 38  1  0
  5 39  1  0
  6 40  1  0
  6 41  1  0
 12 42  1  0
 13 43  1  0
 14 44  1  0
 19 45  1  0
 19 46  1  0
 19 47  1  0
 23 48  1  0
 24 49  1  0
 25 50  1  0
 26 51  1  0
 28 52  1  0
 29 53  1  0
 29 54  1  0
M  END
>  <UniqueID>  (18) 
18

>  <SMILES>  (18) 
C[C@H]1C[C@H](C)CN(S(=O)(=O)c2cccc(-c3nn(C)c(=O)c4ccccc34)c2)C1

>  <Energy>  (18) 
70.4112437557384

>  <Genealogy>  (18) 
C[C@H]1C[C@H](C)CN(S(=O)(=O)c2cccc(-c3nn(C)c(=O)c4ccccc34)c2)C1 (chirality)
C[C@H]1C[C@H](C)CN(S(=O)(=O)c2cccc(-c3nn(C)c(=O)c4ccccc34)c2)C1 (3D coordinates assigned)
C[C@H]1C[C@H](C)CN(S(=O)(=O)c2cccc(-c3nn(C)c(=O)c4ccccc34)c2)C1 (nonaromatic ring conformer: 70.4112437557384 kcal/mol)

>  <smiles>  (18) 
CC1CC(C)CN(S(=O)(=O)c2cccc(-c3nn(C)c(=O)c4ccccc34)c2)C1

>  <score_type>  (18) 
oracle

>  <origin>  (18) 
adgpu

>  <m_score__min__energy>  (18) 
-10.84

>  <m_primary>  (18) 
energy

$$$$
18:0
     RDKit          3D

 51 54  0  0  0  0  0  0  0  0999 V2000
   -6.4580   25.8670  -29.8660 O   0  0  0  0  0  0  0  0  0  0  0  0
   -5.3150   24.9180  -30.0880 S   0  0  0  0  0  0  0  0  0  0  0  0
   -4.2620   25.6130  -30.9070 O   0  0  0  0  0  0  0  0  0  0  0  0
   -4.6650   24.4390  -28.5550 N   0  0  0  0  0  0  0  0  0  0  0  0
   -3.4920   23.6270  -28.4200 C   0  0  0  0  0  0  0  0  0  0  0  0
   -3.6240   22.3490  -27.8630 C   0  0  0  0  0  0  0  0  0  0  0  0
   -2.5050   21.5150  -27.7130 C   0  0  0  0  0  0  0  0  0  0  0  0
   -1.2420   21.9570  -28.1530 C   0  0  0  0  0  0  0  0  0  0  0  0
   -1.1050   23.2510  -28.6810 C   0  0  0  0  0  0  0  0  0  0  0  0
   -2.2200   24.0910  -28.8070 C   0  0  0  0  0  0  0  0  0  0  0  0
   -2.0590   25.3880  -29.2870 O   0  0  0  0  0  0  0  0  0  0  0  0
   -0.0100   21.1050  -27.9520 C   0  0  0  0  0  0  0  0  0  0  0  0
   -0.3330   19.6830  -27.7660 N   0  0  0  0  0  0  0  0  0  0  0  0
   -1.3530   19.5110  -26.7270 C   0  0  0  0  0  0  0  0  0  0  0  0
   -2.6900   20.1240  -27.1650 C   0  0  0  0  0  0  0  0  0  0  0  0
   -5.9180   23.4870  -30.9170 C   0  0  0  0  0  0  0  0  0  0  0  0
   -5.1460   22.3210  -30.9900 C   0  0  0  0  0  0  0  0  0  0  0  0
   -5.6900   21.1540  -31.5320 C   0  0  0  0  0  0  0  0  0  0  0  0
   -7.0090   21.1420  -32.0050 C   0  0  0  0  0  0  0  0  0  0  0  0
   -7.7400   19.6400  -32.5670 S   0  0  0  0  0  0  0  0  0  0  0  0
   -7.8730   18.6940  -31.4070 O   0  0  0  0  0  0  0  0  0  0  0  0
   -9.1220   19.9270  -33.0920 O   0  0  0  0  0  0  0  0  0  0  0  0
   -6.7810   18.8870  -33.8260 N   0  0  0  0  0  0  0  0  0  0  0  0
   -5.4120   19.4130  -33.8360 C   0  0  0  0  0  0  0  0  0  0  0  0
   -4.5200   18.4390  -33.0790 C   0  0  0  0  0  0  0  0  0  0  0  0
   -5.3160   17.1560  -32.9570 C   0  0  0  0  0  0  0  0  0  0  0  0
   -6.6620   17.4380  -33.6130 C   0  0  0  0  0  0  0  0  0  0  0  0
   -7.7640   22.3210  -31.9720 C   0  0  0  0  0  0  0  0  0  0  0  0
   -7.2240   23.4840  -31.4210 C   0  0  0  0  0  0  0  0  0  0  0  0
   -4.6142   21.9953  -27.5399 H   0  0  0  0  0  0  0  0  0  0  0  0
   -0.1143   23.6084  -28.9984 H   0  0  0  0  0  0  0  0  0  0  0  0
   -2.8380   26.0360  -29.3460 H   0  0  0  0  0  0  0  0  0  0  0  0
    0.6374   21.2070  -28.8354 H   0  0  0  0  0  0  0  0  0  0  0  0
    0.4934   21.4555  -27.0389 H   0  0  0  0  0  0  0  0  0  0  0  0
   -0.6990   19.2950  -28.6690 H   0  0  0  0  0  0  0  0  0  0  0  0
   -1.4947   18.4371  -26.5358 H   0  0  0  0  0  0  0  0  0  0  0  0
   -1.0143   20.0225  -25.8140 H   0  0  0  0  0  0  0  0  0  0  0  0
   -3.1364   19.4890  -27.9444 H   0  0  0  0  0  0  0  0  0  0  0  0
   -3.3476   20.1837  -26.2852 H   0  0  0  0  0  0  0  0  0  0  0  0
   -4.1100   22.3240  -30.6202 H   0  0  0  0  0  0  0  0  0  0  0  0
   -5.0801   20.2403  -31.5877 H   0  0  0  0  0  0  0  0  0  0  0  0
   -5.0590   19.5115  -34.8731 H   0  0  0  0  0  0  0  0  0  0  0  0
   -5.3831   20.4033  -33.3580 H   0  0  0  0  0  0  0  0  0  0  0  0
   -3.5890   18.2601  -33.6368 H   0  0  0  0  0  0  0  0  0  0  0  0
   -4.2369   18.8340  -32.0922 H   0  0  0  0  0  0  0  0  0  0  0  0
   -4.8010   16.3349  -33.4772 H   0  0  0  0  0  0  0  0  0  0  0  0
   -5.4337   16.8511  -31.9067 H   0  0  0  0  0  0  0  0  0  0  0  0
   -6.7213   16.9147  -34.5787 H   0  0  0  0  0  0  0  0  0  0  0  0
   -7.4785   17.0832  -32.9669 H   0  0  0  0  0  0  0  0  0  0  0  0
   -8.7850   22.3305  -32.3813 H   0  0  0  0  0  0  0  0  0  0  0  0
   -7.8276   24.4028  -31.3826 H   0  0  0  0  0  0  0  0  0  0  0  0
  1  2  2  0
  2  3  2  0
  2  4  1  0
  4  5  1  0
  5  6  2  0
  6  7  1  0
  7  8  2  0
  8  9  1  0
  9 10  2  0
 10 11  1  0
  8 12  1  0
 12 13  1  0
 13 14  1  0
 14 15  1  0
  2 16  1  0
 16 17  2  0
 17 18  1  0
 18 19  2  0
 19 20  1  0
 20 21  2  0
 20 22  2  0
 20 23  1  0
 23 24  1  0
 24 25  1  0
 25 26  1  0
 26 27  1  0
 19 28  1  0
 28 29  2  0
 10  5  1  0
 29 16  1  0
 15  7  1  0
 27 23  1  0
  6 30  1  0
  9 31  1  0
 11 32  1  0
 12 33  1  0
 12 34  1  0
 13 35  1  0
 14 36  1  0
 14 37  1  0
 15 38  1  0
 15 39  1  0
 17 40  1  0
 18 41  1  0
 24 42  1  0
 24 43  1  0
 25 44  1  0
 25 45  1  0
 26 46  1  0
 26 47  1  0
 27 48  1  0
 27 49  1  0
 28 50  1  0
 29 51  1  0
M  CHG  1   4  -1
M  END
>  <UniqueID>  (19) 
19

>  <SMILES>  (19) 
O=S(=O)([N-]c1cc2c(cc1O)CNCC2)c1ccc(S(=O)(=O)N2CCCC2)cc1

>  <Energy>  (19) 
58.088683003476774

>  <Genealogy>  (19) 
O=S(=O)([N-]c1cc2c(cc1O)CNCC2)c1ccc(S(=O)(=O)N2CCCC2)cc1 (protonated)
O=S(=O)([N-]c1cc2c(cc1O)CNCC2)c1ccc(S(=O)(=O)N2CCCC2)cc1 (3D coordinates assigned)
O=S(=O)([N-]c1cc2c(cc1O)CNCC2)c1ccc(S(=O)(=O)N2CCCC2)cc1 (nonaromatic ring conformer: 58.088683003476774 kcal/mol)

>  <smiles>  (19) 
O=S(=O)(Nc1cc2c(cc1O)CNCC2)c1ccc(S(=O)(=O)N2CCCC2)cc1

>  <score_type>  (19) 
oracle

>  <origin>  (19) 
adgpu

>  <m_score__min__energy>  (19) 
-13.02

>  <m_primary>  (19) 
energy

$$$$
19:0
     RDKit          3D

 50 53  0  0  0  0  0  0  0  0999 V2000
   -6.3560   19.9430  -33.8030 C   0  0  0  0  0  0  0  0  0  0  0  0
   -6.0110   21.1260  -32.9400 C   0  0  0  0  0  0  0  0  0  0  0  0
   -7.0370   21.8080  -32.2640 C   0  0  0  0  0  0  0  0  0  0  0  0
   -6.7440   22.9020  -31.4490 C   0  0  0  0  0  0  0  0  0  0  0  0
   -5.4210   23.3230  -31.2820 C   0  0  0  0  0  0  0  0  0  0  0  0
   -5.0500   24.6930  -30.2300 S   0  0  0  0  0  0  0  0  0  0  0  0
   -6.2420   25.6070  -30.1830 O   0  0  0  0  0  0  0  0  0  0  0  0
   -3.8980   25.4580  -30.8170 O   0  0  0  0  0  0  0  0  0  0  0  0
   -4.6250   24.2280  -28.5500 C   0  0  0  0  0  0  0  0  0  0  0  0
   -3.1650   23.8810  -28.3150 C   0  0  0  0  0  0  0  0  0  0  0  0
   -4.2120   22.7780  -28.3560 C   0  0  0  0  0  0  0  0  0  0  0  0
   -4.3920   22.6490  -31.9500 C   0  0  0  0  0  0  0  0  0  0  0  0
   -4.6730   21.5580  -32.7930 C   0  0  0  0  0  0  0  0  0  0  0  0
   -3.6010   20.8470  -33.4400 N   0  0  0  0  0  0  0  0  0  0  0  0
   -3.2150   19.5030  -33.1060 C   0  0  0  0  0  0  0  0  0  0  0  0
   -3.7570   18.9020  -32.1400 O   0  0  0  0  0  0  0  0  0  0  0  0
   -2.2010   18.7960  -33.9060 C   0  0  0  0  0  0  0  0  0  0  0  0
   -2.3690   17.5260  -34.4240 C   0  0  0  0  0  0  0  0  0  0  0  0
   -1.2050   17.2230  -35.1040 C   0  0  0  0  0  0  0  0  0  0  0  0
   -0.3680   18.3110  -34.9610 C   0  0  0  0  0  0  0  0  0  0  0  0
   -0.9740   19.2650  -34.2300 N   0  0  0  0  0  0  0  0  0  0  0  0
   -0.2030   20.7160  -33.6650 S   0  0  0  0  0  0  0  0  0  0  0  0
    1.2340   20.7310  -34.1050 O   0  0  0  0  0  0  0  0  0  0  0  0
   -0.9030   21.9220  -34.2260 O   0  0  0  0  0  0  0  0  0  0  0  0
   -0.2950   20.7910  -31.9090 C   0  0  0  0  0  0  0  0  0  0  0  0
   -1.0530   21.7980  -31.2930 C   0  0  0  0  0  0  0  0  0  0  0  0
   -1.1470   21.8530  -29.8990 C   0  0  0  0  0  0  0  0  0  0  0  0
   -0.4900   20.9020  -29.1140 C   0  0  0  0  0  0  0  0  0  0  0  0
    0.2610   19.8920  -29.7230 C   0  0  0  0  0  0  0  0  0  0  0  0
    0.3570   19.8340  -31.1170 C   0  0  0  0  0  0  0  0  0  0  0  0
   -6.6066   19.0835  -33.1638 H   0  0  0  0  0  0  0  0  0  0  0  0
   -7.2190   20.1917  -34.4381 H   0  0  0  0  0  0  0  0  0  0  0  0
   -5.4946   19.6888  -34.4381 H   0  0  0  0  0  0  0  0  0  0  0  0
   -8.0797   21.4767  -32.3783 H   0  0  0  0  0  0  0  0  0  0  0  0
   -7.5574   23.4357  -30.9356 H   0  0  0  0  0  0  0  0  0  0  0  0
   -5.3519   24.9017  -28.0727 H   0  0  0  0  0  0  0  0  0  0  0  0
   -2.4375   23.9795  -29.1342 H   0  0  0  0  0  0  0  0  0  0  0  0
   -2.3965   24.1976  -27.5945 H   0  0  0  0  0  0  0  0  0  0  0  0
   -4.2419   22.0791  -29.2049 H   0  0  0  0  0  0  0  0  0  0  0  0
   -4.5147   21.9666  -27.6777 H   0  0  0  0  0  0  0  0  0  0  0  0
   -3.3506   22.9763  -31.8142 H   0  0  0  0  0  0  0  0  0  0  0  0
   -3.0890   21.3290  -34.2100 H   0  0  0  0  0  0  0  0  0  0  0  0
   -3.2549   16.8829  -34.3162 H   0  0  0  0  0  0  0  0  0  0  0  0
   -0.9876   16.2948  -35.6528 H   0  0  0  0  0  0  0  0  0  0  0  0
    0.6452   18.3873  -35.3824 H   0  0  0  0  0  0  0  0  0  0  0  0
   -1.5746   22.5461  -31.9081 H   0  0  0  0  0  0  0  0  0  0  0  0
   -1.7392   22.6463  -29.4195 H   0  0  0  0  0  0  0  0  0  0  0  0
   -0.5636   20.9479  -28.0174 H   0  0  0  0  0  0  0  0  0  0  0  0
    0.7768   19.1423  -29.1050 H   0  0  0  0  0  0  0  0  0  0  0  0
    0.9452   19.0360  -31.5937 H   0  0  0  0  0  0  0  0  0  0  0  0
  1  2  1  0
  2  3  2  0
  3  4  1  0
  4  5  2  0
  5  6  1  0
  6  7  2  0
  6  8  2  0
  6  9  1  0
  9 10  1  0
 10 11  1  0
  5 12  1  0
 12 13  2  0
 13 14  1  0
 14 15  1  0
 15 16  2  0
 15 17  1  0
 17 18  2  0
 18 19  1  0
 19 20  2  0
 20 21  1  0
 21 22  1  0
 22 23  2  0
 22 24  2  0
 22 25  1  0
 25 26  2  0
 26 27  1  0
 27 28  2  0
 28 29  1  0
 29 30  2  0
 13  2  1  0
 21 17  1  0
 30 25  1  0
 11  9  1  0
  1 31  1  0
  1 32  1  0
  1 33  1  0
  3 34  1  0
  4 35  1  0
  9 36  1  0
 10 37  1  0
 10 38  1  0
 11 39  1  0
 11 40  1  0
 12 41  1  0
 14 42  1  0
 18 43  1  0
 19 44  1  0
 20 45  1  0
 26 46  1  0
 27 47  1  0
 28 48  1  0
 29 49  1  0
 30 50  1  0
M  END
>  <UniqueID>  (20) 
20

>  <SMILES>  (20) 
Cc1ccc(S(=O)(=O)C2CC2)cc1NC(=O)c1cccn1S(=O)(=O)c1ccccc1

>  <Energy>  (20) 
352.3484059730663

>  <Genealogy>  (20) 
Cc1ccc(S(=O)(=O)C2CC2)cc1NC(=O)c1cccn1S(=O)(=O)c1ccccc1 (3D coordinates assigned)
Cc1ccc(S(=O)(=O)C2CC2)cc1NC(=O)c1cccn1S(=O)(=O)c1ccccc1 (nonaromatic ring conformer: 352.3484059730663 kcal/mol)

>  <smiles>  (20) 
Cc1ccc(S(=O)(=O)C2CC2)cc1NC(=O)c1cccn1S(=O)(=O)c1ccccc1

>  <score_type>  (20) 
oracle

>  <origin>  (20) 
adgpu

>  <m_score__min__energy>  (20) 
-10.279999999999999

>  <m_primary>  (20) 
energy

$$$$
20:0
     RDKit          3D

 54 57  0  0  0  0  0  0  0  0999 V2000
   -5.9150   26.0120  -31.2470 O   0  0  0  0  0  0  0  0  0  0  0  0
   -5.5640   24.7650  -30.4830 S   0  0  0  0  0  0  0  0  0  0  0  0
   -5.9760   24.9290  -29.0460 O   0  0  0  0  0  0  0  0  0  0  0  0
   -3.8560   24.4730  -30.5760 N   0  0  0  0  0  0  0  0  0  0  0  0
   -3.1000   23.7670  -29.5720 C   0  0  0  0  0  0  0  0  0  0  0  0
   -3.4430   22.4590  -29.1770 C   0  0  0  0  0  0  0  0  0  0  0  0
   -2.6930   21.7820  -28.2050 C   0  0  0  0  0  0  0  0  0  0  0  0
   -1.6030   22.4270  -27.5880 C   0  0  0  0  0  0  0  0  0  0  0  0
   -1.2470   23.7200  -27.9940 C   0  0  0  0  0  0  0  0  0  0  0  0
   -1.9890   24.3870  -28.9730 C   0  0  0  0  0  0  0  0  0  0  0  0
   -1.6110   25.6730  -29.3430 O   0  0  0  0  0  0  0  0  0  0  0  0
   -0.7510   21.7000  -26.5760 C   0  0  0  0  0  0  0  0  0  0  0  0
   -1.4820   20.5880  -25.9530 N   0  0  0  0  0  0  0  0  0  0  0  0
   -2.0160   19.6910  -26.9830 C   0  0  0  0  0  0  0  0  0  0  0  0
   -3.1190   20.4020  -27.7690 C   0  0  0  0  0  0  0  0  0  0  0  0
   -6.4170   23.3980  -31.1900 C   0  0  0  0  0  0  0  0  0  0  0  0
   -7.8180   23.3940  -31.2380 C   0  0  0  0  0  0  0  0  0  0  0  0
   -8.4990   22.3150  -31.8050 C   0  0  0  0  0  0  0  0  0  0  0  0
   -7.7850   21.2350  -32.3320 C   0  0  0  0  0  0  0  0  0  0  0  0
   -6.3840   21.2310  -32.2960 C   0  0  0  0  0  0  0  0  0  0  0  0
   -5.4790   19.8640  -32.9510 S   0  0  0  0  0  0  0  0  0  0  0  0
   -6.0920   19.4500  -34.2590 O   0  0  0  0  0  0  0  0  0  0  0  0
   -5.5780   18.7010  -32.0030 O   0  0  0  0  0  0  0  0  0  0  0  0
   -3.7990   20.2690  -33.2030 N   0  0  0  0  0  0  0  0  0  0  0  0
   -3.1110   19.1700  -33.9140 C   0  0  0  0  0  0  0  0  0  0  0  0
   -1.5730   19.3330  -33.9040 C   0  0  0  0  0  0  0  0  0  0  0  0
   -1.1570   20.7560  -33.5190 C   0  0  0  0  0  0  0  0  0  0  0  0
   -1.7430   21.1550  -32.1540 C   0  0  0  0  0  0  0  0  0  0  0  0
   -3.1420   20.5570  -31.9170 C   0  0  0  0  0  0  0  0  0  0  0  0
   -5.7040   22.3180  -31.7300 C   0  0  0  0  0  0  0  0  0  0  0  0
   -3.3610   24.8780  -31.4020 H   0  0  0  0  0  0  0  0  0  0  0  0
   -4.3102   21.9626  -29.6370 H   0  0  0  0  0  0  0  0  0  0  0  0
   -0.3763   24.2143  -27.5385 H   0  0  0  0  0  0  0  0  0  0  0  0
    0.1417   21.3021  -27.0808 H   0  0  0  0  0  0  0  0  0  0  0  0
   -0.4707   22.4128  -25.7865 H   0  0  0  0  0  0  0  0  0  0  0  0
   -0.8000   20.0420  -25.3760 H   0  0  0  0  0  0  0  0  0  0  0  0
   -1.2071   19.4012  -27.6698 H   0  0  0  0  0  0  0  0  0  0  0  0
   -2.4335   18.7941  -26.5022 H   0  0  0  0  0  0  0  0  0  0  0  0
   -3.3622   19.8057  -28.6608 H   0  0  0  0  0  0  0  0  0  0  0  0
   -3.9956   20.5053  -27.1125 H   0  0  0  0  0  0  0  0  0  0  0  0
   -8.3829   24.2440  -30.8275 H   0  0  0  0  0  0  0  0  0  0  0  0
   -9.5985   22.3148  -31.8370 H   0  0  0  0  0  0  0  0  0  0  0  0
   -8.3245   20.3856  -32.7764 H   0  0  0  0  0  0  0  0  0  0  0  0
   -3.3685   18.2181  -33.4266 H   0  0  0  0  0  0  0  0  0  0  0  0
   -3.4434   19.1889  -34.9624 H   0  0  0  0  0  0  0  0  0  0  0  0
   -1.1444   18.6273  -33.1772 H   0  0  0  0  0  0  0  0  0  0  0  0
   -1.1998   19.1291  -34.9185 H   0  0  0  0  0  0  0  0  0  0  0  0
   -0.0594   20.8078  -33.4676 H   0  0  0  0  0  0  0  0  0  0  0  0
   -1.5420   21.4502  -34.2805 H   0  0  0  0  0  0  0  0  0  0  0  0
   -1.0679   20.7984  -31.3621 H   0  0  0  0  0  0  0  0  0  0  0  0
   -1.8401   22.2506  -32.1386 H   0  0  0  0  0  0  0  0  0  0  0  0
   -3.0453   19.6243  -31.3419 H   0  0  0  0  0  0  0  0  0  0  0  0
   -3.7514   21.2826  -31.3583 H   0  0  0  0  0  0  0  0  0  0  0  0
   -4.6042   22.3240  -31.7092 H   0  0  0  0  0  0  0  0  0  0  0  0
  1  2  2  0
  2  3  2  0
  2  4  1  0
  4  5  1  0
  5  6  2  0
  6  7  1  0
  7  8  2  0
  8  9  1  0
  9 10  2  0
 10 11  1  0
  8 12  1  0
 12 13  1  0
 13 14  1  0
 14 15  1  0
  2 16  1  0
 16 17  2  0
 17 18  1  0
 18 19  2  0
 19 20  1  0
 20 21  1  0
 21 22  2  0
 21 23  2  0
 21 24  1  0
 24 25  1  0
 25 26  1  0
 26 27  1  0
 27 28  1  0
 28 29  1  0
 20 30  2  0
 10  5  1  0
 30 16  1  0
 15  7  1  0
 29 24  1  0
  4 31  1  0
  6 32  1  0
  9 33  1  0
 12 34  1  0
 12 35  1  0
 13 36  1  0
 14 37  1  0
 14 38  1  0
 15 39  1  0
 15 40  1  0
 17 41  1  0
 18 42  1  0
 19 43  1  0
 25 44  1  0
 25 45  1  0
 26 46  1  0
 26 47  1  0
 27 48  1  0
 27 49  1  0
 28 50  1  0
 28 51  1  0
 29 52  1  0
 29 53  1  0
 30 54  1  0
M  CHG  1  11  -1
M  END
>  <UniqueID>  (21) 
21

>  <SMILES>  (21) 
O=S(=O)(Nc1cc2c(cc1[O-])CNCC2)c1cccc(S(=O)(=O)N2CCCCC2)c1

>  <Energy>  (21) 
64.13924854878792

>  <Genealogy>  (21) 
O=S(=O)(Nc1cc2c(cc1[O-])CNCC2)c1cccc(S(=O)(=O)N2CCCCC2)c1 (protonated)
O=S(=O)(Nc1cc2c(cc1[O-])CNCC2)c1cccc(S(=O)(=O)N2CCCCC2)c1 (3D coordinates assigned)
O=S(=O)(Nc1cc2c(cc1[O-])CNCC2)c1cccc(S(=O)(=O)N2CCCCC2)c1 (nonaromatic ring conformer: 64.13924854878792 kcal/mol)

>  <smiles>  (21) 
O=S(=O)(Nc1cc2c(cc1O)CNCC2)c1cccc(S(=O)(=O)N2CCCCC2)c1

>  <score_type>  (21) 
oracle

>  <origin>  (21) 
adgpu

>  <m_score__min__energy>  (21) 
-14.07

>  <m_primary>  (21) 
energy

$$$$
21:0
     RDKit          3D

 42 45  0  0  0  0  0  0  0  0999 V2000
   -6.8190   16.2930  -33.8400 C   0  0  0  0  0  0  0  0  0  0  0  0
   -6.5020   17.6990  -33.6450 N   0  0  0  0  0  0  0  0  0  0  0  0
   -7.1770   18.5560  -32.8570 C   0  0  0  0  0  0  0  0  0  0  0  0
   -6.5430   19.7880  -32.9170 C   0  0  0  0  0  0  0  0  0  0  0  0
   -6.8830   21.0160  -32.1580 C   0  0  0  0  0  0  0  0  0  0  0  0
   -8.2220   21.4010  -31.9790 C   0  0  0  0  0  0  0  0  0  0  0  0
   -8.5360   22.6020  -31.3380 C   0  0  0  0  0  0  0  0  0  0  0  0
   -7.5190   23.4460  -30.8890 C   0  0  0  0  0  0  0  0  0  0  0  0
   -6.1810   23.0790  -31.0600 C   0  0  0  0  0  0  0  0  0  0  0  0
   -4.8890   24.1980  -30.6210 S   0  0  0  0  0  0  0  0  0  0  0  0
   -5.1520   25.5520  -31.2100 O   0  0  0  0  0  0  0  0  0  0  0  0
   -4.8400   24.3090  -29.1250 O   0  0  0  0  0  0  0  0  0  0  0  0
   -3.3610   23.6190  -31.2020 N   0  0  0  0  0  0  0  0  0  0  0  0
   -2.2850   23.1790  -30.3640 C   0  0  0  0  0  0  0  0  0  0  0  0
   -1.7500   21.8860  -30.4900 C   0  0  0  0  0  0  0  0  0  0  0  0
   -0.8160   21.4080  -29.5550 C   0  0  0  0  0  0  0  0  0  0  0  0
   -0.3050   20.0990  -29.6190 C   0  0  0  0  0  0  0  0  0  0  0  0
   -0.6540   19.3100  -30.5360 O   0  0  0  0  0  0  0  0  0  0  0  0
    0.5710   19.6660  -28.6740 N   0  0  0  0  0  0  0  0  0  0  0  0
    0.9800   20.4570  -27.6490 C   0  0  0  0  0  0  0  0  0  0  0  0
    0.5100   21.7650  -27.5450 C   0  0  0  0  0  0  0  0  0  0  0  0
   -0.3880   22.2520  -28.5040 C   0  0  0  0  0  0  0  0  0  0  0  0
   -0.8690   23.5640  -28.4250 C   0  0  0  0  0  0  0  0  0  0  0  0
   -1.8090   24.0300  -29.3480 C   0  0  0  0  0  0  0  0  0  0  0  0
   -2.2760   25.3340  -29.2220 O   0  0  0  0  0  0  0  0  0  0  0  0
   -5.8690   21.8490  -31.6550 C   0  0  0  0  0  0  0  0  0  0  0  0
   -5.4710   19.5920  -33.7810 C   0  0  0  0  0  0  0  0  0  0  0  0
   -5.4680   18.3140  -34.2050 N   0  0  0  0  0  0  0  0  0  0  0  0
   -6.9295   15.8029  -32.8614 H   0  0  0  0  0  0  0  0  0  0  0  0
   -7.7598   16.2039  -34.4030 H   0  0  0  0  0  0  0  0  0  0  0  0
   -6.0075   15.8088  -34.4030 H   0  0  0  0  0  0  0  0  0  0  0  0
   -8.0754   18.3203  -32.2677 H   0  0  0  0  0  0  0  0  0  0  0  0
   -9.0301   20.7515  -32.3466 H   0  0  0  0  0  0  0  0  0  0  0  0
   -9.5885   22.8835  -31.1866 H   0  0  0  0  0  0  0  0  0  0  0  0
   -7.7702   24.3993  -30.4009 H   0  0  0  0  0  0  0  0  0  0  0  0
   -2.0642   21.2437  -31.3259 H   0  0  0  0  0  0  0  0  0  0  0  0
    1.6833   20.0649  -26.8996 H   0  0  0  0  0  0  0  0  0  0  0  0
    0.8412   22.4094  -26.7173 H   0  0  0  0  0  0  0  0  0  0  0  0
   -0.5047   24.2327  -27.6312 H   0  0  0  0  0  0  0  0  0  0  0  0
   -3.0720   25.6710  -29.7420 H   0  0  0  0  0  0  0  0  0  0  0  0
   -4.8183   21.5319  -31.7292 H   0  0  0  0  0  0  0  0  0  0  0  0
   -4.7400   20.3606  -34.0724 H   0  0  0  0  0  0  0  0  0  0  0  0
  1  2  1  0
  2  3  1  0
  3  4  2  0
  4  5  1  0
  5  6  2  0
  6  7  1  0
  7  8  2  0
  8  9  1  0
  9 10  1  0
 10 11  2  0
 10 12  2  0
 10 13  1  0
 13 14  1  0
 14 15  2  0
 15 16  1  0
 16 17  1  0
 17 18  2  0
 17 19  1  0
 19 20  1  0
 20 21  2  0
 21 22  1  0
 22 23  1  0
 23 24  2  0
 24 25  1  0
  9 26  2  0
  4 27  1  0
 27 28  2  0
 28  2  1  0
 26  5  1  0
 24 14  1  0
 22 16  2  0
  1 29  1  0
  1 30  1  0
  1 31  1  0
  3 32  1  0
  6 33  1  0
  7 34  1  0
  8 35  1  0
 15 36  1  0
 20 37  1  0
 21 38  1  0
 23 39  1  0
 25 40  1  0
 26 41  1  0
 27 42  1  0
M  CHG  2  13  -1  19  -1
M  END
>  <UniqueID>  (22) 
22

>  <SMILES>  (22) 
Cn1cc(-c2cccc(S(=O)(=O)[N-]c3cc4c(=O)[n-]ccc4cc3O)c2)cn1

>  <Energy>  (22) 
86.58469250441526

>  <Genealogy>  (22) 
Cn1cc(-c2cccc(S(=O)(=O)[N-]c3cc4c(=O)[n-]ccc4cc3O)c2)cn1 (protonated)
Cn1cc(-c2cccc(S(=O)(=O)[N-]c3cc4c(=O)[n-]ccc4cc3O)c2)cn1 (3D coordinates assigned)
Cn1cc(-c2cccc(S(=O)(=O)[N-]c3cc4c(=O)[n-]ccc4cc3O)c2)cn1 (optimized conformer: 86.58469250441526 kcal/mol)

>  <smiles>  (22) 
Cn1cc(-c2cccc(S(=O)(=O)Nc3cc4c(=O)[nH]ccc4cc3O)c2)cn1

>  <score_type>  (22) 
oracle

>  <origin>  (22) 
adgpu

>  <m_score__min__energy>  (22) 
-11.01

>  <m_primary>  (22) 
energy

$$$$
22:0
     RDKit          3D

 56 60  0  0  0  0  0  0  0  0999 V2000
   -5.3540   26.4330  -30.5940 O   0  0  0  0  0  0  0  0  0  0  0  0
   -4.8380   25.2900  -30.4630 C   0  0  0  0  0  0  0  0  0  0  0  0
   -3.5630   25.1940  -30.0180 N   0  0  0  0  0  0  0  0  0  0  0  0
   -2.9350   24.0050  -29.8500 C   0  0  0  0  0  0  0  0  0  0  0  0
   -1.6180   23.9960  -29.3820 C   0  0  0  0  0  0  0  0  0  0  0  0
   -0.9450   22.7910  -29.1950 C   0  0  0  0  0  0  0  0  0  0  0  0
   -1.5790   21.5800  -29.4820 C   0  0  0  0  0  0  0  0  0  0  0  0
   -0.7220   20.0610  -29.2190 S   0  0  0  0  0  0  0  0  0  0  0  0
    0.6270   20.3280  -28.6100 O   0  0  0  0  0  0  0  0  0  0  0  0
   -1.5110   19.2080  -28.2670 O   0  0  0  0  0  0  0  0  0  0  0  0
   -0.5300   19.2080  -30.7200 N   0  0  0  0  0  0  0  0  0  0  0  0
    0.5090   19.8460  -31.5260 C   0  0  0  0  0  0  0  0  0  0  0  0
   -0.0230   21.1410  -32.1430 C   0  0  0  0  0  0  0  0  0  0  0  0
   -0.8440   20.8650  -33.4250 C   0  0  0  0  0  0  0  0  0  0  0  0
   -2.0350   19.9980  -33.2310 N   0  0  1  0  0  0  0  0  0  0  0  0
   -3.3070   20.7110  -33.4680 C   0  0  0  0  0  0  0  0  0  0  0  0
   -4.4900   19.8880  -32.9380 C   0  0  0  0  0  0  0  0  0  0  0  0
   -4.3960   18.4380  -33.3420 C   0  0  0  0  0  0  0  0  0  0  0  0
   -5.5160   17.6080  -33.1780 C   0  0  0  0  0  0  0  0  0  0  0  0
   -5.4400   16.2490  -33.4950 C   0  0  0  0  0  0  0  0  0  0  0  0
   -4.2450   15.7060  -33.9700 C   0  0  0  0  0  0  0  0  0  0  0  0
   -3.1200   16.5190  -34.1260 C   0  0  0  0  0  0  0  0  0  0  0  0
   -3.1790   17.8820  -33.7960 C   0  0  0  0  0  0  0  0  0  0  0  0
   -1.9720   18.7600  -34.0380 C   0  0  0  0  0  0  0  0  0  0  0  0
   -2.9020   21.5760  -29.9480 C   0  0  0  0  0  0  0  0  0  0  0  0
   -3.6070   22.7890  -30.1430 C   0  0  0  0  0  0  0  0  0  0  0  0
   -4.9520   22.8530  -30.6130 C   0  0  0  0  0  0  0  0  0  0  0  0
   -5.7110   21.7010  -30.9340 C   0  0  0  0  0  0  0  0  0  0  0  0
   -7.0260   21.8120  -31.3910 C   0  0  0  0  0  0  0  0  0  0  0  0
   -7.6150   23.0640  -31.5400 C   0  0  0  0  0  0  0  0  0  0  0  0
   -6.8940   24.2160  -31.2350 C   0  0  0  0  0  0  0  0  0  0  0  0
   -5.5670   24.1280  -30.7720 C   0  0  0  0  0  0  0  0  0  0  0  0
   -1.1101   24.9461  -29.1601 H   0  0  0  0  0  0  0  0  0  0  0  0
    0.0891   22.7931  -28.8201 H   0  0  0  0  0  0  0  0  0  0  0  0
    1.3744   20.0764  -30.8873 H   0  0  0  0  0  0  0  0  0  0  0  0
    0.8097   19.1608  -32.3323 H   0  0  0  0  0  0  0  0  0  0  0  0
   -0.6666   21.6482  -31.4091 H   0  0  0  0  0  0  0  0  0  0  0  0
    0.8365   21.7719  -32.4137 H   0  0  0  0  0  0  0  0  0  0  0  0
   -1.1859   21.8305  -33.8262 H   0  0  0  0  0  0  0  0  0  0  0  0
   -0.1751   20.3216  -34.1085 H   0  0  0  0  0  0  0  0  0  0  0  0
   -2.0110   19.7110  -32.2220 H   0  0  0  0  0  0  0  0  0  0  0  0
   -3.2802   21.6814  -32.9507 H   0  0  0  0  0  0  0  0  0  0  0  0
   -3.4345   20.8623  -34.5501 H   0  0  0  0  0  0  0  0  0  0  0  0
   -4.5024   19.9505  -31.8398 H   0  0  0  0  0  0  0  0  0  0  0  0
   -5.4127   20.3020  -33.3707 H   0  0  0  0  0  0  0  0  0  0  0  0
   -6.4584   18.0294  -32.7980 H   0  0  0  0  0  0  0  0  0  0  0  0
   -6.3237   15.6059  -33.3699 H   0  0  0  0  0  0  0  0  0  0  0  0
   -4.1892   14.6366  -34.2217 H   0  0  0  0  0  0  0  0  0  0  0  0
   -2.1830   16.0889  -34.5094 H   0  0  0  0  0  0  0  0  0  0  0  0
   -1.0635   18.2021  -33.7673 H   0  0  0  0  0  0  0  0  0  0  0  0
   -1.9553   19.0404  -35.1015 H   0  0  0  0  0  0  0  0  0  0  0  0
   -3.3984   20.6186  -30.1648 H   0  0  0  0  0  0  0  0  0  0  0  0
   -5.2583   20.7048  -30.8217 H   0  0  0  0  0  0  0  0  0  0  0  0
   -7.5991   20.9052  -31.6344 H   0  0  0  0  0  0  0  0  0  0  0  0
   -8.6516   23.1440  -31.8992 H   0  0  0  0  0  0  0  0  0  0  0  0
   -7.3650   25.2026  -31.3568 H   0  0  0  0  0  0  0  0  0  0  0  0
  1  2  2  0
  2  3  1  0
  3  4  1  0
  4  5  2  0
  5  6  1  0
  6  7  2  0
  7  8  1  0
  8  9  2  0
  8 10  2  0
  8 11  1  0
 11 12  1  0
 12 13  1  0
 13 14  1  0
 14 15  1  0
 15 16  1  0
 16 17  1  0
 17 18  1  0
 18 19  2  0
 19 20  1  0
 20 21  2  0
 21 22  1  0
 22 23  2  0
 23 24  1  0
  7 25  1  0
 25 26  2  0
 26 27  1  0
 27 28  2  0
 28 29  1  0
 29 30  2  0
 30 31  1  0
 31 32  2  0
 32  2  1  0
 26  4  1  0
 32 27  1  0
 24 15  1  0
 23 18  1  0
  5 33  1  0
  6 34  1  0
 12 35  1  0
 12 36  1  0
 13 37  1  0
 13 38  1  0
 14 39  1  0
 14 40  1  0
 15 41  1  1
 16 42  1  0
 16 43  1  0
 17 44  1  0
 17 45  1  0
 19 46  1  0
 20 47  1  0
 21 48  1  0
 22 49  1  0
 24 50  1  0
 24 51  1  0
 25 52  1  0
 28 53  1  0
 29 54  1  0
 30 55  1  0
 31 56  1  0
M  CHG  3   3  -1  11  -1  15   1
M  END
>  <UniqueID>  (23) 
23

>  <SMILES>  (23) 
O=c1[n-]c2ccc(S(=O)(=O)[N-]CCC[N@H+]3CCc4ccccc4C3)cc2c2ccccc12

>  <Energy>  (23) 
76.15348890531016

>  <Genealogy>  (23) 
O=c1[n-]c2ccc(S(=O)(=O)[N-]CCC[NH+]3CCc4ccccc4C3)cc2c2ccccc12 (protonated)
O=c1[n-]c2ccc(S(=O)(=O)[N-]CCC[N@H+]3CCc4ccccc4C3)cc2c2ccccc12 (chirality)
O=c1[n-]c2ccc(S(=O)(=O)[N-]CCC[N@H+]3CCc4ccccc4C3)cc2c2ccccc12 (3D coordinates assigned)
O=c1[n-]c2ccc(S(=O)(=O)[N-]CCC[N@H+]3CCc4ccccc4C3)cc2c2ccccc12 (nonaromatic ring conformer: 76.15348890531016 kcal/mol)

>  <smiles>  (23) 
O=c1[nH]c2ccc(S(=O)(=O)NCCCN3CCc4ccccc4C3)cc2c2ccccc12

>  <score_type>  (23) 
oracle

>  <origin>  (23) 
adgpu

>  <m_score__min__energy>  (23) 
-11.289999999999999

>  <m_primary>  (23) 
energy

$$$$
23:0
     RDKit          3D

 48 51  0  0  0  0  0  0  0  0999 V2000
   -7.7790   24.5510  -30.7900 O   0  0  0  0  0  0  0  0  0  0  0  0
   -6.7630   23.9230  -31.1930 C   0  0  0  0  0  0  0  0  0  0  0  0
   -6.8820   22.9030  -32.1920 N   0  0  0  0  0  0  0  0  0  0  0  0
   -6.0970   21.7040  -32.2840 C   0  0  0  0  0  0  0  0  0  0  0  0
   -6.6680   20.4360  -32.0670 C   0  0  0  0  0  0  0  0  0  0  0  0
   -5.8860   19.2770  -32.1530 C   0  0  0  0  0  0  0  0  0  0  0  0
   -6.6180   17.6900  -31.9050 S   0  0  0  0  0  0  0  0  0  0  0  0
   -6.4160   17.2710  -30.4750 O   0  0  0  0  0  0  0  0  0  0  0  0
   -8.0980   17.7820  -32.1560 O   0  0  0  0  0  0  0  0  0  0  0  0
   -5.9240   16.4830  -32.9610 N   0  0  0  0  0  0  0  0  0  0  0  0
   -4.9240   15.6830  -32.2400 C   0  0  0  0  0  0  0  0  0  0  0  0
   -4.3230   14.6190  -33.1830 C   0  0  0  0  0  0  0  0  0  0  0  0
   -4.7780   14.7670  -34.5170 O   0  0  0  0  0  0  0  0  0  0  0  0
   -4.5230   16.0840  -34.9660 C   0  0  0  0  0  0  0  0  0  0  0  0
   -5.3120   17.1190  -34.1390 C   0  0  0  0  0  0  0  0  0  0  0  0
   -4.5190   19.3850  -32.4350 C   0  0  0  0  0  0  0  0  0  0  0  0
   -3.9370   20.6410  -32.6200 C   0  0  0  0  0  0  0  0  0  0  0  0
   -4.7160   21.8010  -32.5410 C   0  0  0  0  0  0  0  0  0  0  0  0
   -4.0970   23.0370  -32.7300 O   0  0  0  0  0  0  0  0  0  0  0  0
   -5.4350   24.2750  -30.6780 C   0  0  0  0  0  0  0  0  0  0  0  0
   -4.8110   23.7130  -29.5850 C   0  0  0  0  0  0  0  0  0  0  0  0
   -3.5950   24.3740  -29.5120 C   0  0  0  0  0  0  0  0  0  0  0  0
   -2.5170   24.1570  -28.5060 C   0  0  0  0  0  0  0  0  0  0  0  0
   -2.4660   22.9590  -27.7640 C   0  0  0  0  0  0  0  0  0  0  0  0
   -1.4600   22.7460  -26.8190 C   0  0  0  0  0  0  0  0  0  0  0  0
   -0.4880   23.7220  -26.5980 C   0  0  0  0  0  0  0  0  0  0  0  0
   -0.5210   24.9140  -27.3210 C   0  0  0  0  0  0  0  0  0  0  0  0
   -1.5250   25.1390  -28.2710 C   0  0  0  0  0  0  0  0  0  0  0  0
   -1.5180   26.3410  -28.9690 O   0  0  0  0  0  0  0  0  0  0  0  0
   -3.5240   25.2730  -30.5160 N   0  0  0  0  0  0  0  0  0  0  0  0
   -4.6410   25.2140  -31.2240 N   0  0  0  0  0  0  0  0  0  0  0  0
   -7.7385   20.3544  -31.8276 H   0  0  0  0  0  0  0  0  0  0  0  0
   -4.1224   16.3427  -31.8765 H   0  0  0  0  0  0  0  0  0  0  0  0
   -5.4072   15.1810  -31.3888 H   0  0  0  0  0  0  0  0  0  0  0  0
   -3.2271   14.7129  -33.1701 H   0  0  0  0  0  0  0  0  0  0  0  0
   -4.6446   13.6300  -32.8245 H   0  0  0  0  0  0  0  0  0  0  0  0
   -3.4474   16.2934  -34.8705 H   0  0  0  0  0  0  0  0  0  0  0  0
   -4.8421   16.1614  -36.0158 H   0  0  0  0  0  0  0  0  0  0  0  0
   -4.6277   17.9134  -33.8063 H   0  0  0  0  0  0  0  0  0  0  0  0
   -6.1092   17.5421  -34.7679 H   0  0  0  0  0  0  0  0  0  0  0  0
   -3.9015   18.4779  -32.5111 H   0  0  0  0  0  0  0  0  0  0  0  0
   -2.8599   20.7190  -32.8291 H   0  0  0  0  0  0  0  0  0  0  0  0
   -3.9850   23.7080  -31.9790 H   0  0  0  0  0  0  0  0  0  0  0  0
   -5.1910   22.9213  -28.9225 H   0  0  0  0  0  0  0  0  0  0  0  0
   -3.2275   22.1831  -27.9315 H   0  0  0  0  0  0  0  0  0  0  0  0
   -1.4340   21.8064  -26.2476 H   0  0  0  0  0  0  0  0  0  0  0  0
    0.3040   23.5514  -25.8539 H   0  0  0  0  0  0  0  0  0  0  0  0
    0.2462   25.6821  -27.1440 H   0  0  0  0  0  0  0  0  0  0  0  0
  1  2  2  0
  2  3  1  0
  3  4  1  0
  4  5  2  0
  5  6  1  0
  6  7  1  0
  7  8  2  0
  7  9  2  0
  7 10  1  0
 10 11  1  0
 11 12  1  0
 12 13  1  0
 13 14  1  0
 14 15  1  0
  6 16  2  0
 16 17  1  0
 17 18  2  0
 18 19  1  0
  2 20  1  0
 20 21  1  0
 21 22  2  0
 22 23  1  0
 23 24  2  0
 24 25  1  0
 25 26  2  0
 26 27  1  0
 27 28  2  0
 28 29  1  0
 22 30  1  0
 30 31  1  0
 18  4  1  0
 31 20  2  0
 15 10  1  0
 28 23  1  0
  5 32  1  0
 11 33  1  0
 11 34  1  0
 12 35  1  0
 12 36  1  0
 14 37  1  0
 14 38  1  0
 15 39  1  0
 15 40  1  0
 16 41  1  0
 17 42  1  0
 19 43  1  0
 21 44  1  0
 24 45  1  0
 25 46  1  0
 26 47  1  0
 27 48  1  0
M  CHG  3   3  -1  29  -1  30  -1
M  END
>  <UniqueID>  (24) 
24

>  <SMILES>  (24) 
O=C([N-]c1cc(S(=O)(=O)N2CCOCC2)ccc1O)c1cc(-c2ccccc2[O-])[n-]n1

>  <Energy>  (24) 
94.08908872294171

>  <Genealogy>  (24) 
O=C([N-]c1cc(S(=O)(=O)N2CCOCC2)ccc1O)c1cc(-c2ccccc2[O-])[n-]n1 (protonated)
O=C([N-]c1cc(S(=O)(=O)N2CCOCC2)ccc1O)c1cc(-c2ccccc2[O-])[n-]n1 (3D coordinates assigned)
O=C([N-]c1cc(S(=O)(=O)N2CCOCC2)ccc1O)c1cc(-c2ccccc2[O-])[n-]n1 (nonaromatic ring conformer: 94.08908872294171 kcal/mol)

>  <smiles>  (24) 
O=C(Nc1cc(S(=O)(=O)N2CCOCC2)ccc1O)c1cc(-c2ccccc2O)[nH]n1

>  <score_type>  (24) 
oracle

>  <origin>  (24) 
adgpu

>  <m_score__min__energy>  (24) 
-14.65

>  <m_primary>  (24) 
energy

$$$$
24:0
     RDKit          3D

 43 45  0  0  0  0  0  0  0  0999 V2000
   -9.1320   18.2110  -31.5430 C   0  0  0  0  0  0  0  0  0  0  0  0
   -7.9360   19.0590  -31.4470 N   0  0  0  0  0  0  0  0  0  0  0  0
   -6.7260   18.2870  -31.7640 C   0  0  0  0  0  0  0  0  0  0  0  0
   -8.0770   20.4290  -32.5210 S   0  0  0  0  0  0  0  0  0  0  0  0
   -9.5220   20.8260  -32.6420 O   0  0  0  0  0  0  0  0  0  0  0  0
   -7.5830   20.0490  -33.8890 O   0  0  0  0  0  0  0  0  0  0  0  0
   -7.1440   21.8060  -31.9310 C   0  0  0  0  0  0  0  0  0  0  0  0
   -5.7680   21.8850  -32.1810 C   0  0  0  0  0  0  0  0  0  0  0  0
   -5.0290   22.9740  -31.7120 C   0  0  0  0  0  0  0  0  0  0  0  0
   -5.6590   24.0070  -30.9970 C   0  0  0  0  0  0  0  0  0  0  0  0
   -4.8940   25.1810  -30.5180 C   0  0  0  0  0  0  0  0  0  0  0  0
   -5.4950   26.2730  -30.3320 O   0  0  0  0  0  0  0  0  0  0  0  0
   -3.4840   25.1210  -30.2600 N   0  0  0  0  0  0  0  0  0  0  0  0
   -2.8490   24.3260  -29.2470 C   0  0  0  0  0  0  0  0  0  0  0  0
   -2.8570   24.8110  -27.9340 C   0  0  0  0  0  0  0  0  0  0  0  0
   -2.3380   24.0460  -26.8880 C   0  0  0  0  0  0  0  0  0  0  0  0
   -1.7920   22.7890  -27.1410 C   0  0  0  0  0  0  0  0  0  0  0  0
   -1.7300   22.2960  -28.4520 C   0  0  0  0  0  0  0  0  0  0  0  0
   -1.1520   21.0420  -28.7050 C   0  0  0  0  0  0  0  0  0  0  0  0
   -1.0500   20.5660  -30.0120 C   0  0  0  0  0  0  0  0  0  0  0  0
   -1.5080   21.3420  -31.0780 C   0  0  0  0  0  0  0  0  0  0  0  0
   -2.0870   22.5910  -30.8430 C   0  0  0  0  0  0  0  0  0  0  0  0
   -2.2370   23.0740  -29.5260 C   0  0  0  0  0  0  0  0  0  0  0  0
   -7.0350   23.9130  -30.7300 C   0  0  0  0  0  0  0  0  0  0  0  0
   -7.7720   22.8230  -31.2000 C   0  0  0  0  0  0  0  0  0  0  0  0
   -9.4857   17.9602  -30.5321 H   0  0  0  0  0  0  0  0  0  0  0  0
   -9.9223   18.7516  -32.0844 H   0  0  0  0  0  0  0  0  0  0  0  0
   -8.8834   17.2863  -32.0844 H   0  0  0  0  0  0  0  0  0  0  0  0
   -7.8570   19.4200  -30.4680 H   0  0  0  0  0  0  0  0  0  0  0  0
   -6.2356   17.9741  -30.8304 H   0  0  0  0  0  0  0  0  0  0  0  0
   -7.0015   17.3974  -32.3494 H   0  0  0  0  0  0  0  0  0  0  0  0
   -6.0354   18.9117  -32.3494 H   0  0  0  0  0  0  0  0  0  0  0  0
   -5.2674   21.0867  -32.7486 H   0  0  0  0  0  0  0  0  0  0  0  0
   -3.9469   23.0232  -31.9036 H   0  0  0  0  0  0  0  0  0  0  0  0
   -3.2768   25.8058  -27.7241 H   0  0  0  0  0  0  0  0  0  0  0  0
   -2.3601   24.4369  -25.8600 H   0  0  0  0  0  0  0  0  0  0  0  0
   -1.4080   22.1810  -26.3086 H   0  0  0  0  0  0  0  0  0  0  0  0
   -0.7781   20.4324  -27.8692 H   0  0  0  0  0  0  0  0  0  0  0  0
   -0.6078   19.5771  -30.2031 H   0  0  0  0  0  0  0  0  0  0  0  0
   -1.4124   20.9680  -32.1081 H   0  0  0  0  0  0  0  0  0  0  0  0
   -2.4286   23.2027  -31.6910 H   0  0  0  0  0  0  0  0  0  0  0  0
   -7.5347   24.7014  -30.1480 H   0  0  0  0  0  0  0  0  0  0  0  0
   -8.8511   22.7630  -30.9950 H   0  0  0  0  0  0  0  0  0  0  0  0
  1  2  1  0
  2  3  1  0
  2  4  1  0
  4  5  2  0
  4  6  2  0
  4  7  1  0
  7  8  2  0
  8  9  1  0
  9 10  2  0
 10 11  1  0
 11 12  2  0
 11 13  1  0
 13 14  1  0
 14 15  2  0
 15 16  1  0
 16 17  2  0
 17 18  1  0
 18 19  2  0
 19 20  1  0
 20 21  2  0
 21 22  1  0
 22 23  2  0
 10 24  1  0
 24 25  2  0
 25  7  1  0
 23 14  1  0
 23 18  1  0
  1 26  1  0
  1 27  1  0
  1 28  1  0
  2 29  1  0
  3 30  1  0
  3 31  1  0
  3 32  1  0
  8 33  1  0
  9 34  1  0
 15 35  1  0
 16 36  1  0
 17 37  1  0
 19 38  1  0
 20 39  1  0
 21 40  1  0
 22 41  1  0
 24 42  1  0
 25 43  1  0
M  CHG  2   2   1  13  -1
M  END
>  <UniqueID>  (25) 
25

>  <SMILES>  (25) 
C[NH+](C)S(=O)(=O)c1ccc(C(=O)[N-]c2cccc3ccccc23)cc1

>  <Energy>  (25) 
56.052981965305285

>  <Genealogy>  (25) 
C[NH+](C)S(=O)(=O)c1ccc(C(=O)[N-]c2cccc3ccccc23)cc1 (protonated)
C[NH+](C)S(=O)(=O)c1ccc(C(=O)[N-]c2cccc3ccccc23)cc1 (3D coordinates assigned)
C[NH+](C)S(=O)(=O)c1ccc(C(=O)[N-]c2cccc3ccccc23)cc1 (optimized conformer: 56.052981965305285 kcal/mol)

>  <smiles>  (25) 
CN(C)S(=O)(=O)c1ccc(C(=O)Nc2cccc3ccccc23)cc1

>  <score_type>  (25) 
oracle

>  <origin>  (25) 
adgpu

>  <m_score__min__energy>  (25) 
-10.699999999999999

>  <m_primary>  (25) 
energy

$$$$
25:0
     RDKit          3D

 44 46  0  0  0  0  0  0  0  0999 V2000
   -0.1710   24.5640  -27.1510 C   0  0  0  0  0  0  0  0  0  0  0  0
   -1.3820   23.8820  -27.7230 C   0  0  0  0  0  0  0  0  0  0  0  0
   -1.8470   22.6850  -27.1580 C   0  0  0  0  0  0  0  0  0  0  0  0
   -2.9800   22.0550  -27.6770 C   0  0  0  0  0  0  0  0  0  0  0  0
   -3.6630   22.6190  -28.7550 C   0  0  0  0  0  0  0  0  0  0  0  0
   -3.2290   23.8290  -29.3200 C   0  0  0  0  0  0  0  0  0  0  0  0
   -3.9700   24.4210  -30.4600 C   0  0  0  0  0  0  0  0  0  0  0  0
   -4.1530   25.6650  -30.5020 O   0  0  0  0  0  0  0  0  0  0  0  0
   -4.4670   23.6130  -31.5360 N   0  0  0  0  0  0  0  0  0  0  0  0
   -5.7070   22.8940  -31.5090 C   0  0  0  0  0  0  0  0  0  0  0  0
   -5.7270   21.5790  -31.9910 C   0  0  0  0  0  0  0  0  0  0  0  0
   -6.8890   20.8050  -31.8960 C   0  0  0  0  0  0  0  0  0  0  0  0
   -6.8510   19.1230  -32.4130 S   0  0  0  0  0  0  0  0  0  0  0  0
   -6.3250   18.2530  -31.3020 O   0  0  0  0  0  0  0  0  0  0  0  0
   -8.2450   18.6840  -32.7580 O   0  0  0  0  0  0  0  0  0  0  0  0
   -5.8270   18.9880  -33.8200 N   0  0  0  0  0  0  0  0  0  0  0  0
   -4.4130   18.9460  -33.4460 C   0  0  0  0  0  0  0  0  0  0  0  0
   -3.6970   18.1760  -34.5440 C   0  0  0  0  0  0  0  0  0  0  0  0
   -4.7850   17.4000  -35.2710 C   0  0  0  0  0  0  0  0  0  0  0  0
   -6.0780   17.7450  -34.5470 C   0  0  0  0  0  0  0  0  0  0  0  0
   -8.0490   21.3610  -31.3420 C   0  0  0  0  0  0  0  0  0  0  0  0
   -8.0490   22.6840  -30.8960 C   0  0  0  0  0  0  0  0  0  0  0  0
   -6.8900   23.4630  -30.9870 C   0  0  0  0  0  0  0  0  0  0  0  0
   -6.9520   24.7950  -30.5740 O   0  0  0  0  0  0  0  0  0  0  0  0
   -2.0790   24.4590  -28.8020 C   0  0  0  0  0  0  0  0  0  0  0  0
   -1.6380   25.6640  -29.3430 O   0  0  0  0  0  0  0  0  0  0  0  0
   -0.2195   24.5367  -26.0524 H   0  0  0  0  0  0  0  0  0  0  0  0
    0.7371   24.0446  -27.4910 H   0  0  0  0  0  0  0  0  0  0  0  0
   -0.1443   25.6098  -27.4910 H   0  0  0  0  0  0  0  0  0  0  0  0
   -1.3169   22.2409  -26.3026 H   0  0  0  0  0  0  0  0  0  0  0  0
   -3.3347   21.1122  -27.2351 H   0  0  0  0  0  0  0  0  0  0  0  0
   -4.5485   22.1117  -29.1655 H   0  0  0  0  0  0  0  0  0  0  0  0
   -4.8223   21.1514  -32.4478 H   0  0  0  0  0  0  0  0  0  0  0  0
   -4.0092   19.9666  -33.3726 H   0  0  0  0  0  0  0  0  0  0  0  0
   -4.2753   18.4627  -32.4675 H   0  0  0  0  0  0  0  0  0  0  0  0
   -3.1927   18.8690  -35.2336 H   0  0  0  0  0  0  0  0  0  0  0  0
   -2.9225   17.5094  -34.1369 H   0  0  0  0  0  0  0  0  0  0  0  0
   -4.8396   17.7093  -36.3252 H   0  0  0  0  0  0  0  0  0  0  0  0
   -4.5890   16.3176  -35.2660 H   0  0  0  0  0  0  0  0  0  0  0  0
   -6.8933   17.8865  -35.2717 H   0  0  0  0  0  0  0  0  0  0  0  0
   -6.3788   16.9377  -33.8631 H   0  0  0  0  0  0  0  0  0  0  0  0
   -8.9624   20.7538  -31.2581 H   0  0  0  0  0  0  0  0  0  0  0  0
   -8.9662   23.1170  -30.4702 H   0  0  0  0  0  0  0  0  0  0  0  0
   -6.1340   25.3860  -30.5100 H   0  0  0  0  0  0  0  0  0  0  0  0
  1  2  1  0
  2  3  2  0
  3  4  1  0
  4  5  2  0
  5  6  1  0
  6  7  1  0
  7  8  2  0
  7  9  1  0
  9 10  1  0
 10 11  2  0
 11 12  1  0
 12 13  1  0
 13 14  2  0
 13 15  2  0
 13 16  1  0
 16 17  1  0
 17 18  1  0
 18 19  1  0
 19 20  1  0
 12 21  2  0
 21 22  1  0
 22 23  2  0
 23 24  1  0
  6 25  2  0
 25 26  1  0
 25  2  1  0
 23 10  1  0
 20 16  1  0
  1 27  1  0
  1 28  1  0
  1 29  1  0
  3 30  1  0
  4 31  1  0
  5 32  1  0
 11 33  1  0
 17 34  1  0
 17 35  1  0
 18 36  1  0
 18 37  1  0
 19 38  1  0
 19 39  1  0
 20 40  1  0
 20 41  1  0
 21 42  1  0
 22 43  1  0
 24 44  1  0
M  CHG  2   9  -1  26  -1
M  END
>  <UniqueID>  (26) 
26

>  <SMILES>  (26) 
Cc1cccc(C(=O)[N-]c2cc(S(=O)(=O)N3CCCC3)ccc2O)c1[O-]

>  <Energy>  (26) 
56.14529695590274

>  <Genealogy>  (26) 
Cc1cccc(C(=O)[N-]c2cc(S(=O)(=O)N3CCCC3)ccc2O)c1[O-] (protonated)
Cc1cccc(C(=O)[N-]c2cc(S(=O)(=O)N3CCCC3)ccc2O)c1[O-] (3D coordinates assigned)
Cc1cccc(C(=O)[N-]c2cc(S(=O)(=O)N3CCCC3)ccc2O)c1[O-] (nonaromatic ring conformer: 56.14529695590274 kcal/mol)

>  <smiles>  (26) 
Cc1cccc(C(=O)Nc2cc(S(=O)(=O)N3CCCC3)ccc2O)c1O

>  <score_type>  (26) 
oracle

>  <origin>  (26) 
adgpu

>  <m_score__min__energy>  (26) 
-13.27

>  <m_primary>  (26) 
energy

$$$$
26:0
     RDKit          3D

 46 48  0  0  0  0  0  0  0  0999 V2000
   -2.7340   20.2050  -27.5830 C   0  0  0  0  0  0  0  0  0  0  0  0
   -2.8360   21.3750  -28.4670 N   0  0  0  0  0  0  0  0  0  0  0  0
   -2.7580   22.6360  -27.7160 C   0  0  0  0  0  0  0  0  0  0  0  0
   -1.9390   21.3180  -29.6440 C   0  0  0  0  0  0  0  0  0  0  0  0
   -1.8790   22.5990  -30.5120 C   0  0  0  0  0  0  0  0  0  0  0  0
   -3.2030   23.1640  -30.8080 N   0  0  0  0  0  0  0  0  0  0  0  0
   -3.6380   24.3830  -30.4240 C   0  0  0  0  0  0  0  0  0  0  0  0
   -2.8790   25.2960  -29.6990 O   0  0  0  0  0  0  0  0  0  0  0  0
   -4.9290   24.5940  -30.8420 C   0  0  0  0  0  0  0  0  0  0  0  0
   -5.6740   25.7470  -30.6120 O   0  0  0  0  0  0  0  0  0  0  0  0
   -5.3190   23.4650  -31.5400 C   0  0  0  0  0  0  0  0  0  0  0  0
   -6.6410   23.2300  -32.1600 C   0  0  0  0  0  0  0  0  0  0  0  0
   -7.1960   24.1700  -32.7890 O   0  0  0  0  0  0  0  0  0  0  0  0
   -7.3190   21.9200  -32.0590 C   0  0  0  0  0  0  0  0  0  0  0  0
   -8.1260   21.6110  -30.9530 C   0  0  0  0  0  0  0  0  0  0  0  0
   -8.7410   20.3590  -30.8810 C   0  0  0  0  0  0  0  0  0  0  0  0
   -8.5560   19.4320  -31.9090 C   0  0  0  0  0  0  0  0  0  0  0  0
   -7.7580   19.7770  -33.0010 C   0  0  0  0  0  0  0  0  0  0  0  0
   -7.1670   20.9990  -33.0520 N   0  0  0  0  0  0  0  0  0  0  0  0
   -4.2210   22.6000  -31.5120 C   0  0  0  0  0  0  0  0  0  0  0  0
   -4.1900   21.2440  -32.0980 C   0  0  0  0  0  0  0  0  0  0  0  0
   -4.8170   20.1720  -31.4440 C   0  0  0  0  0  0  0  0  0  0  0  0
   -4.7560   18.8840  -31.9860 C   0  0  0  0  0  0  0  0  0  0  0  0
   -4.0670   18.6590  -33.1820 C   0  0  0  0  0  0  0  0  0  0  0  0
   -4.0050   17.3790  -33.7180 O   0  0  0  0  0  0  0  0  0  0  0  0
   -3.4360   19.7220  -33.8350 C   0  0  0  0  0  0  0  0  0  0  0  0
   -3.4960   21.0100  -33.2960 C   0  0  0  0  0  0  0  0  0  0  0  0
   -2.7627   20.5345  -26.5339 H   0  0  0  0  0  0  0  0  0  0  0  0
   -3.5762   19.5245  -27.7768 H   0  0  0  0  0  0  0  0  0  0  0  0
   -1.7867   19.6805  -27.7768 H   0  0  0  0  0  0  0  0  0  0  0  0
   -2.7713   22.4217  -26.6372 H   0  0  0  0  0  0  0  0  0  0  0  0
   -1.8258   23.1596  -27.9744 H   0  0  0  0  0  0  0  0  0  0  0  0
   -3.6186   23.2705  -27.9744 H   0  0  0  0  0  0  0  0  0  0  0  0
   -0.9216   21.1081  -29.2824 H   0  0  0  0  0  0  0  0  0  0  0  0
   -2.3539   20.5357  -30.2966 H   0  0  0  0  0  0  0  0  0  0  0  0
   -1.2882   23.3564  -29.9760 H   0  0  0  0  0  0  0  0  0  0  0  0
   -1.4220   22.3200  -31.4729 H   0  0  0  0  0  0  0  0  0  0  0  0
   -5.4450   26.3870  -29.8620 H   0  0  0  0  0  0  0  0  0  0  0  0
   -8.2728   22.3483  -30.1500 H   0  0  0  0  0  0  0  0  0  0  0  0
   -9.3702   20.1035  -30.0157 H   0  0  0  0  0  0  0  0  0  0  0  0
   -9.0333   18.4422  -31.8588 H   0  0  0  0  0  0  0  0  0  0  0  0
   -7.6076   19.0590  -33.8207 H   0  0  0  0  0  0  0  0  0  0  0  0
   -5.3581   20.3454  -30.5021 H   0  0  0  0  0  0  0  0  0  0  0  0
   -5.2505   18.0472  -31.4710 H   0  0  0  0  0  0  0  0  0  0  0  0
   -2.8916   19.5444  -34.7742 H   0  0  0  0  0  0  0  0  0  0  0  0
   -2.9976   21.8437  -33.8123 H   0  0  0  0  0  0  0  0  0  0  0  0
  1  2  1  0
  2  3  1  0
  2  4  1  0
  4  5  1  0
  5  6  1  0
  6  7  1  0
  7  8  1  0
  7  9  2  0
  9 10  1  0
  9 11  1  0
 11 12  1  0
 12 13  2  0
 12 14  1  0
 14 15  2  0
 15 16  1  0
 16 17  2  0
 17 18  1  0
 18 19  2  0
 11 20  2  0
 20 21  1  0
 21 22  2  0
 22 23  1  0
 23 24  2  0
 24 25  1  0
 24 26  1  0
 26 27  2  0
 20  6  1  0
 27 21  1  0
 19 14  1  0
  1 28  1  0
  1 29  1  0
  1 30  1  0
  3 31  1  0
  3 32  1  0
  3 33  1  0
  4 34  1  0
  4 35  1  0
  5 36  1  0
  5 37  1  0
 10 38  1  0
 15 39  1  0
 16 40  1  0
 17 41  1  0
 18 42  1  0
 22 43  1  0
 23 44  1  0
 26 45  1  0
 27 46  1  0
M  CHG  2   8  -1  25  -1
M  END
>  <UniqueID>  (27) 
27

>  <SMILES>  (27) 
CN(C)CCn1c([O-])c(O)c(C(=O)c2ccccn2)c1-c1ccc([O-])cc1

>  <Energy>  (27) 
89.32430772776708

>  <Genealogy>  (27) 
CN(C)CCn1c([O-])c(O)c(C(=O)c2ccccn2)c1-c1ccc([O-])cc1 (protonated)
CN(C)CCn1c([O-])c(O)c(C(=O)c2ccccn2)c1-c1ccc([O-])cc1 (3D coordinates assigned)
CN(C)CCn1c([O-])c(O)c(C(=O)c2ccccn2)c1-c1ccc([O-])cc1 (optimized conformer: 89.32430772776708 kcal/mol)

>  <smiles>  (27) 
CN(C)CCn1c(O)c(O)c(C(=O)c2ccccn2)c1-c1ccc(O)cc1

>  <score_type>  (27) 
oracle

>  <origin>  (27) 
adgpu

>  <m_score__min__energy>  (27) 
-10.800000000000001

>  <m_primary>  (27) 
energy

$$$$
27:0
     RDKit          3D

 39 42  0  0  0  0  0  0  0  0999 V2000
   -0.6893   23.7770  -30.2904 H   0  0  0  0  0  0  0  0  0  0  0  0
   -0.4900   24.0970  -29.2570 C   0  0  0  0  0  0  0  0  0  0  0  0
    0.6570   23.8890  -28.5800 N   0  0  0  0  0  0  0  0  0  0  0  0
    0.5030   24.3950  -27.3660 N   0  0  0  0  0  0  0  0  0  0  0  0
    1.5340   24.3740  -26.3390 C   0  0  0  0  0  0  0  0  0  0  0  0
    1.0621   24.3836  -25.3454 H   0  0  0  0  0  0  0  0  0  0  0  0
    2.1413   23.4633  -26.4477 H   0  0  0  0  0  0  0  0  0  0  0  0
    2.1779   25.2592  -26.4477 H   0  0  0  0  0  0  0  0  0  0  0  0
   -0.7210   24.9400  -27.2370 C   0  0  0  0  0  0  0  0  0  0  0  0
   -1.1269   25.4258  -26.3374 H   0  0  0  0  0  0  0  0  0  0  0  0
   -1.3730   24.7760  -28.4440 C   0  0  0  0  0  0  0  0  0  0  0  0
   -2.7340   25.0830  -28.7790 N   0  0  0  0  0  0  0  0  0  0  0  0
   -3.5190   24.4200  -29.5790 C   0  0  0  0  0  0  0  0  0  0  0  0
   -3.1780   22.9540  -30.3360 S   0  0  0  0  0  0  0  0  0  0  0  0
   -4.6930   22.8470  -31.0680 C   0  0  0  0  0  0  0  0  0  0  0  0
   -5.1020   21.7210  -31.9310 C   0  0  0  0  0  0  0  0  0  0  0  0
   -6.4140   21.3590  -31.9570 N   0  0  0  0  0  0  0  0  0  0  0  0
   -6.8660   20.3100  -32.7000 C   0  0  0  0  0  0  0  0  0  0  0  0
   -8.3310   19.9890  -32.7230 C   0  0  0  0  0  0  0  0  0  0  0  0
   -8.4325   19.9908  -33.8183 H   0  0  0  0  0  0  0  0  0  0  0  0
   -9.1330   20.5650  -31.5640 C   0  0  0  0  0  0  0  0  0  0  0  0
   -8.6441   21.2232  -30.8307 H   0  0  0  0  0  0  0  0  0  0  0  0
  -10.0584   21.1531  -31.4756 H   0  0  0  0  0  0  0  0  0  0  0  0
   -8.8020   19.0830  -31.5930 C   0  0  0  0  0  0  0  0  0  0  0  0
   -8.0734   18.6683  -30.8808 H   0  0  0  0  0  0  0  0  0  0  0  0
   -9.3884   18.1542  -31.5343 H   0  0  0  0  0  0  0  0  0  0  0  0
   -5.9660   19.5810  -33.4850 C   0  0  0  0  0  0  0  0  0  0  0  0
   -6.3227   18.7527  -34.1148 H   0  0  0  0  0  0  0  0  0  0  0  0
   -4.6120   19.9150  -33.4610 C   0  0  0  0  0  0  0  0  0  0  0  0
   -3.8922   19.3384  -34.0606 H   0  0  0  0  0  0  0  0  0  0  0  0
   -4.1710   20.9810  -32.6760 C   0  0  0  0  0  0  0  0  0  0  0  0
   -3.1023   21.2392  -32.6414 H   0  0  0  0  0  0  0  0  0  0  0  0
   -5.4510   23.9580  -30.6590 C   0  0  0  0  0  0  0  0  0  0  0  0
   -6.8840   24.1980  -31.0260 C   0  0  0  0  0  0  0  0  0  0  0  0
   -7.4851   24.2987  -30.1103 H   0  0  0  0  0  0  0  0  0  0  0  0
   -6.9610   25.1216  -31.6186 H   0  0  0  0  0  0  0  0  0  0  0  0
   -7.2577   23.3499  -31.6186 H   0  0  0  0  0  0  0  0  0  0  0  0
   -4.7800   24.8230  -29.8460 N   0  0  0  0  0  0  0  0  0  0  0  0
   -5.2010   25.6930  -29.4520 H   0  0  0  0  0  0  0  0  0  0  0  0
  1  2  1  0
  2  3  2  0
  3  4  1  0
  4  5  1  0
  5  6  1  0
  5  7  1  0
  5  8  1  0
  4  9  1  0
  9 10  1  0
  9 11  2  0
 11 12  1  0
 12 13  2  0
 13 14  1  0
 14 15  1  0
 15 16  1  0
 16 17  2  0
 17 18  1  0
 18 19  1  0
 19 20  1  0
 19 21  1  0
 21 22  1  0
 21 23  1  0
 21 24  1  0
 24 25  1  0
 24 26  1  0
 18 27  2  0
 27 28  1  0
 27 29  1  0
 29 30  1  0
 29 31  2  0
 31 32  1  0
 15 33  2  0
 33 34  1  0
 34 35  1  0
 34 36  1  0
 34 37  1  0
 33 38  1  0
 38 39  1  0
 11  2  1  0
 38 13  1  0
 31 16  1  0
 24 19  1  0
M  END
>  <UniqueID>  (28) 
28

>  <SMILES>  (28) 
Cc1[nH]/c(=N/c2cnn(C)c2)sc1-c1cccc(C2CC2)n1

>  <Energy>  (28) 
374.28977087904894

>  <Genealogy>  (28) 
Cc1[nH]/c(=N/c2cnn(C)c2)sc1-c1cccc(C2CC2)n1 (cis-trans isomerization)
Cc1[nH]/c(=N/c2cnn(C)c2)sc1-c1cccc(C2CC2)n1 (3D coordinates assigned)
Cc1[nH]/c(=N/c2cnn(C)c2)sc1-c1cccc(C2CC2)n1 (nonaromatic ring conformer: 374.28977087904894 kcal/mol)

>  <smiles>  (28) 
Cc1[nH]c(=Nc2cnn(C)c2)sc1-c1cccc(C2CC2)n1

>  <score_type>  (28) 
oracle

>  <origin>  (28) 
adgpu

>  <m_score__min__energy>  (28) 
-8.1400000000000006

>  <m_primary>  (28) 
energy

$$$$
28:0
     RDKit          3D

 40 42  0  0  0  0  0  0  0  0999 V2000
   -0.9880   22.7420  -30.4610 O   0  0  0  0  0  0  0  0  0  0  0  0
   -2.1610   23.1340  -30.2140 C   0  0  0  0  0  0  0  0  0  0  0  0
   -3.1980   22.9040  -31.1760 N   0  0  0  0  0  0  0  0  0  0  0  0
   -4.5540   23.3560  -31.0650 C   0  0  0  0  0  0  0  0  0  0  0  0
   -5.5850   22.4140  -31.1750 C   0  0  0  0  0  0  0  0  0  0  0  0
   -6.9250   22.8060  -31.0670 C   0  0  0  0  0  0  0  0  0  0  0  0
   -8.2070   21.6070  -31.2060 S   0  0  0  0  0  0  0  0  0  0  0  0
   -9.0840   21.9560  -32.3770 O   0  0  0  0  0  0  0  0  0  0  0  0
   -9.0480   21.6150  -29.9590 O   0  0  0  0  0  0  0  0  0  0  0  0
   -7.4990   20.0320  -31.4600 N   0  0  0  0  0  0  0  0  0  0  0  0
   -8.5250   18.9900  -31.5010 C   0  0  0  0  0  0  0  0  0  0  0  0
   -7.9640   17.8650  -32.3570 C   0  0  0  0  0  0  0  0  0  0  0  0
   -6.8500   18.4980  -33.1760 C   0  0  0  0  0  0  0  0  0  0  0  0
   -6.8160   19.9590  -32.7510 C   0  0  0  0  0  0  0  0  0  0  0  0
   -7.2350   24.1480  -30.8140 C   0  0  0  0  0  0  0  0  0  0  0  0
   -6.2130   25.0890  -30.6680 C   0  0  0  0  0  0  0  0  0  0  0  0
   -4.8740   24.6990  -30.7770 C   0  0  0  0  0  0  0  0  0  0  0  0
   -3.8760   25.6420  -30.5620 O   0  0  0  0  0  0  0  0  0  0  0  0
   -2.4650   23.7770  -28.9060 C   0  0  0  0  0  0  0  0  0  0  0  0
   -3.3610   23.1460  -28.0170 C   0  0  0  0  0  0  0  0  0  0  0  0
   -3.6680   23.7240  -26.7840 C   0  0  0  0  0  0  0  0  0  0  0  0
   -3.0870   24.9360  -26.4140 C   0  0  0  0  0  0  0  0  0  0  0  0
   -2.1960   25.5740  -27.2760 C   0  0  0  0  0  0  0  0  0  0  0  0
   -1.8790   25.0050  -28.5160 C   0  0  0  0  0  0  0  0  0  0  0  0
   -0.9780   25.6720  -29.3400 O   0  0  0  0  0  0  0  0  0  0  0  0
   -5.3395   21.3558  -31.3479 H   0  0  0  0  0  0  0  0  0  0  0  0
   -8.7369   18.6251  -30.4851 H   0  0  0  0  0  0  0  0  0  0  0  0
   -9.4670   19.3755  -31.9182 H   0  0  0  0  0  0  0  0  0  0  0  0
   -7.5652   17.0603  -31.7219 H   0  0  0  0  0  0  0  0  0  0  0  0
   -8.7365   17.4136  -32.9969 H   0  0  0  0  0  0  0  0  0  0  0  0
   -5.8879   18.0113  -32.9581 H   0  0  0  0  0  0  0  0  0  0  0  0
   -7.0249   18.3903  -34.2567 H   0  0  0  0  0  0  0  0  0  0  0  0
   -5.7755   20.3013  -32.6503 H   0  0  0  0  0  0  0  0  0  0  0  0
   -7.3060   20.6018  -33.4971 H   0  0  0  0  0  0  0  0  0  0  0  0
   -8.2859   24.4619  -30.7300 H   0  0  0  0  0  0  0  0  0  0  0  0
   -6.4622   26.1413  -30.4664 H   0  0  0  0  0  0  0  0  0  0  0  0
   -3.8226   22.1881  -28.2987 H   0  0  0  0  0  0  0  0  0  0  0  0
   -4.3703   23.2217  -26.1025 H   0  0  0  0  0  0  0  0  0  0  0  0
   -3.3315   25.3890  -25.4419 H   0  0  0  0  0  0  0  0  0  0  0  0
   -1.7392   26.5300  -26.9804 H   0  0  0  0  0  0  0  0  0  0  0  0
  1  2  2  0
  2  3  1  0
  3  4  1  0
  4  5  2  0
  5  6  1  0
  6  7  1  0
  7  8  2  0
  7  9  2  0
  7 10  1  0
 10 11  1  0
 11 12  1  0
 12 13  1  0
 13 14  1  0
  6 15  2  0
 15 16  1  0
 16 17  2  0
 17 18  1  0
  2 19  1  0
 19 20  2  0
 20 21  1  0
 21 22  2  0
 22 23  1  0
 23 24  2  0
 24 25  1  0
 17  4  1  0
 24 19  1  0
 14 10  1  0
  5 26  1  0
 11 27  1  0
 11 28  1  0
 12 29  1  0
 12 30  1  0
 13 31  1  0
 13 32  1  0
 14 33  1  0
 14 34  1  0
 15 35  1  0
 16 36  1  0
 20 37  1  0
 21 38  1  0
 22 39  1  0
 23 40  1  0
M  CHG  3   3  -1  18  -1  25  -1
M  END
>  <UniqueID>  (29) 
29

>  <SMILES>  (29) 
O=C([N-]c1cc(S(=O)(=O)N2CCCC2)ccc1[O-])c1ccccc1[O-]

>  <Energy>  (29) 
50.62228206347902

>  <Genealogy>  (29) 
O=C([N-]c1cc(S(=O)(=O)N2CCCC2)ccc1[O-])c1ccccc1[O-] (protonated)
O=C([N-]c1cc(S(=O)(=O)N2CCCC2)ccc1[O-])c1ccccc1[O-] (3D coordinates assigned)
O=C([N-]c1cc(S(=O)(=O)N2CCCC2)ccc1[O-])c1ccccc1[O-] (nonaromatic ring conformer: 50.62228206347902 kcal/mol)

>  <smiles>  (29) 
O=C(Nc1cc(S(=O)(=O)N2CCCC2)ccc1O)c1ccccc1O

>  <score_type>  (29) 
oracle

>  <origin>  (29) 
adgpu

>  <m_score__min__energy>  (29) 
-14.99

>  <m_primary>  (29) 
energy

$$$$
29:0
     RDKit          3D

 40 42  0  0  0  0  0  0  0  0999 V2000
   -5.1510   25.3680  -30.7300 C   0  0  0  0  0  0  0  0  0  0  0  0
   -3.8360   24.8800  -30.4950 O   0  0  0  0  0  0  0  0  0  0  0  0
   -3.5260   23.7720  -29.6900 C   0  0  0  0  0  0  0  0  0  0  0  0
   -3.5290   23.8580  -28.2830 C   0  0  0  0  0  0  0  0  0  0  0  0
   -3.2340   22.7380  -27.5050 C   0  0  0  0  0  0  0  0  0  0  0  0
   -2.9400   21.5170  -28.1150 C   0  0  0  0  0  0  0  0  0  0  0  0
   -2.5910   20.1080  -27.1310 Cl  0  0  0  0  0  0  0  0  0  0  0  0
   -2.9260   21.4180  -29.5080 C   0  0  0  0  0  0  0  0  0  0  0  0
   -3.2090   22.5400  -30.3040 C   0  0  0  0  0  0  0  0  0  0  0  0
   -3.2130   22.3910  -31.8070 C   0  0  0  0  0  0  0  0  0  0  0  0
   -1.7000   21.5520  -32.3970 S   0  0  0  0  0  0  0  0  0  0  0  0
   -2.5380   20.0550  -32.9110 C   0  0  0  0  0  0  0  0  0  0  0  0
   -3.8760   19.9620  -33.2570 C   0  0  0  0  0  0  0  0  0  0  0  0
   -4.2470   18.6670  -33.6410 C   0  0  0  0  0  0  0  0  0  0  0  0
   -5.8830   18.2520  -34.1230 S   0  0  0  0  0  0  0  0  0  0  0  0
   -6.1100   18.6570  -35.5530 O   0  0  0  0  0  0  0  0  0  0  0  0
   -6.0750   16.7660  -34.0120 O   0  0  0  0  0  0  0  0  0  0  0  0
   -7.0420   19.0840  -33.0890 C   0  0  0  0  0  0  0  0  0  0  0  0
   -7.9840   18.3470  -32.3570 C   0  0  0  0  0  0  0  0  0  0  0  0
   -8.9090   19.0050  -31.5410 C   0  0  0  0  0  0  0  0  0  0  0  0
   -8.8930   20.4000  -31.4480 C   0  0  0  0  0  0  0  0  0  0  0  0
   -7.9520   21.1380  -32.1710 C   0  0  0  0  0  0  0  0  0  0  0  0
   -7.0270   20.4830  -32.9890 C   0  0  0  0  0  0  0  0  0  0  0  0
   -3.2070   17.7440  -33.5870 C   0  0  0  0  0  0  0  0  0  0  0  0
   -1.8220   18.5430  -33.0630 S   0  0  0  0  0  0  0  0  0  0  0  0
   -5.6507   25.5534  -29.7678 H   0  0  0  0  0  0  0  0  0  0  0  0
   -5.0972   26.3060  -31.3020 H   0  0  0  0  0  0  0  0  0  0  0  0
   -5.7222   24.6220  -31.3020 H   0  0  0  0  0  0  0  0  0  0  0  0
   -3.7656   24.8150  -27.7949 H   0  0  0  0  0  0  0  0  0  0  0  0
   -3.2330   22.8172  -26.4079 H   0  0  0  0  0  0  0  0  0  0  0  0
   -2.6918   20.4548  -29.9849 H   0  0  0  0  0  0  0  0  0  0  0  0
   -4.0905   21.7988  -32.1058 H   0  0  0  0  0  0  0  0  0  0  0  0
   -3.2495   23.3951  -32.2547 H   0  0  0  0  0  0  0  0  0  0  0  0
   -4.5722   20.8133  -33.2328 H   0  0  0  0  0  0  0  0  0  0  0  0
   -7.9951   17.2492  -32.4250 H   0  0  0  0  0  0  0  0  0  0  0  0
   -9.6500   18.4248  -30.9716 H   0  0  0  0  0  0  0  0  0  0  0  0
   -9.6213   20.9167  -30.8056 H   0  0  0  0  0  0  0  0  0  0  0  0
   -7.9392   22.2354  -32.0963 H   0  0  0  0  0  0  0  0  0  0  0  0
   -6.2858   21.0659  -33.5555 H   0  0  0  0  0  0  0  0  0  0  0  0
   -3.2781   16.6765  -33.8427 H   0  0  0  0  0  0  0  0  0  0  0  0
  1  2  1  0
  2  3  1  0
  3  4  2  0
  4  5  1  0
  5  6  2  0
  6  7  1  0
  6  8  1  0
  8  9  2  0
  9 10  1  0
 10 11  1  0
 11 12  1  0
 12 13  2  0
 13 14  1  0
 14 15  1  0
 15 16  2  0
 15 17  2  0
 15 18  1  0
 18 19  2  0
 19 20  1  0
 20 21  2  0
 21 22  1  0
 22 23  2  0
 14 24  2  0
 24 25  1  0
  9  3  1  0
 25 12  1  0
 23 18  1  0
  1 26  1  0
  1 27  1  0
  1 28  1  0
  4 29  1  0
  5 30  1  0
  8 31  1  0
 10 32  1  0
 10 33  1  0
 13 34  1  0
 19 35  1  0
 20 36  1  0
 21 37  1  0
 22 38  1  0
 23 39  1  0
 24 40  1  0
M  END
>  <UniqueID>  (30) 
30

>  <SMILES>  (30) 
COc1ccc(Cl)cc1CSc1cc(S(=O)(=O)c2ccccc2)cs1

>  <Energy>  (30) 
59.369080362609814

>  <Genealogy>  (30) 
COc1ccc(Cl)cc1CSc1cc(S(=O)(=O)c2ccccc2)cs1 (3D coordinates assigned)
COc1ccc(Cl)cc1CSc1cc(S(=O)(=O)c2ccccc2)cs1 (optimized conformer: 59.369080362609814 kcal/mol)

>  <smiles>  (30) 
COc1ccc(Cl)cc1CSc1cc(S(=O)(=O)c2ccccc2)cs1

>  <score_type>  (30) 
oracle

>  <origin>  (30) 
adgpu

>  <m_score__min__energy>  (30) 
-9.3699999999999992

>  <m_primary>  (30) 
energy

$$$$
30:0
     RDKit          3D

 41 43  0  0  0  0  0  0  0  0999 V2000
   -3.9250   23.6260  -27.3590 O   0  0  0  0  0  0  0  0  0  0  0  0
   -3.0330   24.2440  -28.0010 C   0  0  0  0  0  0  0  0  0  0  0  0
   -2.8710   24.0260  -29.4150 N   0  0  0  0  0  0  0  0  0  0  0  0
   -3.6640   23.1050  -30.1830 C   0  0  0  0  0  0  0  0  0  0  0  0
   -3.4090   21.7310  -30.0800 C   0  0  0  0  0  0  0  0  0  0  0  0
   -4.1780   20.8120  -30.7990 C   0  0  0  0  0  0  0  0  0  0  0  0
   -5.2280   21.2510  -31.6160 C   0  0  0  0  0  0  0  0  0  0  0  0
   -6.1680   20.0590  -32.5190 S   0  0  0  0  0  0  0  0  0  0  0  0
   -6.7010   20.7200  -33.7600 O   0  0  0  0  0  0  0  0  0  0  0  0
   -5.2980   18.9040  -32.9330 O   0  0  0  0  0  0  0  0  0  0  0  0
   -7.5050   19.4950  -31.5380 N   0  0  0  0  0  0  0  0  0  0  0  0
   -8.4060   18.6490  -32.3270 C   0  0  0  0  0  0  0  0  0  0  0  0
   -9.5050   19.5320  -32.8990 C   0  0  0  0  0  0  0  0  0  0  0  0
   -9.4590   20.8130  -32.0890 C   0  0  0  0  0  0  0  0  0  0  0  0
   -8.3250   20.6260  -31.0920 C   0  0  0  0  0  0  0  0  0  0  0  0
   -5.5020   22.6270  -31.7070 C   0  0  0  0  0  0  0  0  0  0  0  0
   -6.5100   23.0890  -32.4890 F   0  0  0  0  0  0  0  0  0  0  0  0
   -4.7290   23.5460  -30.9880 C   0  0  0  0  0  0  0  0  0  0  0  0
   -2.1560   25.1870  -27.2760 C   0  0  0  0  0  0  0  0  0  0  0  0
   -2.2200   25.2450  -25.8730 C   0  0  0  0  0  0  0  0  0  0  0  0
   -1.3980   26.1210  -25.1600 C   0  0  0  0  0  0  0  0  0  0  0  0
   -0.5100   26.9570  -25.8410 C   0  0  0  0  0  0  0  0  0  0  0  0
   -0.4510   26.9260  -27.2350 C   0  0  0  0  0  0  0  0  0  0  0  0
   -1.2750   26.0550  -27.9570 C   0  0  0  0  0  0  0  0  0  0  0  0
   -1.2320   26.0850  -29.3480 O   0  0  0  0  0  0  0  0  0  0  0  0
   -2.1730   24.6030  -29.9350 H   0  0  0  0  0  0  0  0  0  0  0  0
   -2.5979   21.3733  -29.4287 H   0  0  0  0  0  0  0  0  0  0  0  0
   -3.9575   19.7370  -30.7230 H   0  0  0  0  0  0  0  0  0  0  0  0
   -7.8474   18.1717  -33.1457 H   0  0  0  0  0  0  0  0  0  0  0  0
   -8.8411   17.8619  -31.6936 H   0  0  0  0  0  0  0  0  0  0  0  0
   -9.3149   19.7423  -33.9618 H   0  0  0  0  0  0  0  0  0  0  0  0
  -10.4904   19.0469  -32.8393 H   0  0  0  0  0  0  0  0  0  0  0  0
   -9.2571   21.6739  -32.7432 H   0  0  0  0  0  0  0  0  0  0  0  0
  -10.4163   21.0101  -31.5844 H   0  0  0  0  0  0  0  0  0  0  0  0
   -7.7111   21.5378  -31.0509 H   0  0  0  0  0  0  0  0  0  0  0  0
   -8.7299   20.4294  -30.0883 H   0  0  0  0  0  0  0  0  0  0  0  0
   -4.9562   24.6203  -31.0532 H   0  0  0  0  0  0  0  0  0  0  0  0
   -2.9234   24.5950  -25.3319 H   0  0  0  0  0  0  0  0  0  0  0  0
   -1.4500   26.1525  -24.0617 H   0  0  0  0  0  0  0  0  0  0  0  0
    0.1431   27.6401  -25.2782 H   0  0  0  0  0  0  0  0  0  0  0  0
    0.2461   27.5889  -27.7685 H   0  0  0  0  0  0  0  0  0  0  0  0
  1  2  2  0
  2  3  1  0
  3  4  1  0
  4  5  2  0
  5  6  1  0
  6  7  2  0
  7  8  1  0
  8  9  2  0
  8 10  2  0
  8 11  1  0
 11 12  1  0
 12 13  1  0
 13 14  1  0
 14 15  1  0
  7 16  1  0
 16 17  1  0
 16 18  2  0
  2 19  1  0
 19 20  2  0
 20 21  1  0
 21 22  2  0
 22 23  1  0
 23 24  2  0
 24 25  1  0
 18  4  1  0
 24 19  1  0
 15 11  1  0
  3 26  1  0
  5 27  1  0
  6 28  1  0
 12 29  1  0
 12 30  1  0
 13 31  1  0
 13 32  1  0
 14 33  1  0
 14 34  1  0
 15 35  1  0
 15 36  1  0
 18 37  1  0
 20 38  1  0
 21 39  1  0
 22 40  1  0
 23 41  1  0
M  CHG  1  25  -1
M  END
>  <UniqueID>  (31) 
31

>  <SMILES>  (31) 
O=C(Nc1ccc(S(=O)(=O)N2CCCC2)c(F)c1)c1ccccc1[O-]

>  <Energy>  (31) 
53.490910634190435

>  <Genealogy>  (31) 
O=C(Nc1ccc(S(=O)(=O)N2CCCC2)c(F)c1)c1ccccc1[O-] (protonated)
O=C(Nc1ccc(S(=O)(=O)N2CCCC2)c(F)c1)c1ccccc1[O-] (3D coordinates assigned)
O=C(Nc1ccc(S(=O)(=O)N2CCCC2)c(F)c1)c1ccccc1[O-] (nonaromatic ring conformer: 53.490910634190435 kcal/mol)

>  <smiles>  (31) 
O=C(Nc1ccc(S(=O)(=O)N2CCCC2)c(F)c1)c1ccccc1O

>  <score_type>  (31) 
oracle

>  <origin>  (31) 
adgpu

>  <m_score__min__energy>  (31) 
-11.380000000000001

>  <m_primary>  (31) 
energy

$$$$
31:0
     RDKit          3D

 42 44  0  0  0  0  0  0  0  0999 V2000
   -4.9020   25.8670  -29.6550 H   0  0  0  0  0  0  0  0  0  0  0  0
   -4.2050   25.5020  -30.2930 O   0  0  0  0  0  0  0  0  0  0  0  0
   -3.1330   24.7540  -29.8170 C   0  0  0  0  0  0  0  0  0  0  0  0
   -1.9990   25.2930  -29.3380 N   0  0  0  0  0  0  0  0  0  0  0  0
   -1.2440   24.2070  -29.0690 C   0  0  0  0  0  0  0  0  0  0  0  0
   -0.0790   24.2900  -28.6000 O   0  0  0  0  0  0  0  0  0  0  0  0
   -1.8320   23.0240  -29.3540 N   0  0  0  0  0  0  0  0  0  0  0  0
   -3.0480   23.3780  -29.8060 C   0  0  0  0  0  0  0  0  0  0  0  0
   -4.0320   22.4120  -30.3260 C   0  0  0  0  0  0  0  0  0  0  0  0
   -4.9326   22.2183  -29.7249 H   0  0  0  0  0  0  0  0  0  0  0  0
   -3.8960   21.7500  -31.4950 C   0  0  0  0  0  0  0  0  0  0  0  0
   -2.8760   21.9270  -32.4080 C   0  0  0  0  0  0  0  0  0  0  0  0
   -2.0590   22.6577  -32.3159 H   0  0  0  0  0  0  0  0  0  0  0  0
   -3.0380   21.0670  -33.4260 N   0  0  0  0  0  0  0  0  0  0  0  0
   -4.1610   20.3740  -33.1370 C   0  0  0  0  0  0  0  0  0  0  0  0
   -4.5560   19.3800  -33.9610 C   0  0  0  0  0  0  0  0  0  0  0  0
   -3.9422   19.2223  -34.8601 H   0  0  0  0  0  0  0  0  0  0  0  0
   -5.7390   18.4610  -33.7940 C   0  0  0  0  0  0  0  0  0  0  0  0
   -6.2547   18.3678  -34.7611 H   0  0  0  0  0  0  0  0  0  0  0  0
   -6.3993   18.8954  -33.0290 H   0  0  0  0  0  0  0  0  0  0  0  0
   -5.3220   17.0600  -33.3180 C   0  0  0  0  0  0  0  0  0  0  0  0
   -4.2256   16.9838  -33.3636 H   0  0  0  0  0  0  0  0  0  0  0  0
   -5.8062   16.3249  -33.9777 H   0  0  0  0  0  0  0  0  0  0  0  0
   -5.7750   16.7690  -31.8860 C   0  0  0  0  0  0  0  0  0  0  0  0
   -5.0668   17.2239  -31.1778 H   0  0  0  0  0  0  0  0  0  0  0  0
   -6.7774   17.1926  -31.7253 H   0  0  0  0  0  0  0  0  0  0  0  0
   -5.8065   15.6813  -31.7253 H   0  0  0  0  0  0  0  0  0  0  0  0
   -4.7380   20.7900  -31.9650 N   0  0  0  0  0  0  0  0  0  0  0  0
   -5.9650   20.3140  -31.2960 C   0  0  0  0  0  0  0  0  0  0  0  0
   -6.1910   19.3009  -31.6602 H   0  0  0  0  0  0  0  0  0  0  0  0
   -5.7739   20.3312  -30.2129 H   0  0  0  0  0  0  0  0  0  0  0  0
   -7.1710   21.2000  -31.5550 C   0  0  0  0  0  0  0  0  0  0  0  0
   -7.0520   22.6020  -31.6620 C   0  0  0  0  0  0  0  0  0  0  0  0
   -6.0660   23.0758  -31.5469 H   0  0  0  0  0  0  0  0  0  0  0  0
   -8.1760   23.3940  -31.9130 C   0  0  0  0  0  0  0  0  0  0  0  0
   -8.0709   24.4864  -31.9886 H   0  0  0  0  0  0  0  0  0  0  0  0
   -9.4310   22.8040  -32.0680 C   0  0  0  0  0  0  0  0  0  0  0  0
  -10.3133   23.4309  -32.2642 H   0  0  0  0  0  0  0  0  0  0  0  0
   -9.5660   21.4190  -31.9740 C   0  0  0  0  0  0  0  0  0  0  0  0
  -10.5567   20.9568  -32.0962 H   0  0  0  0  0  0  0  0  0  0  0  0
   -8.4480   20.6130  -31.7250 C   0  0  0  0  0  0  0  0  0  0  0  0
   -8.6830   18.8690  -31.6490 Cl  0  0  0  0  0  0  0  0  0  0  0  0
  1  2  1  0
  2  3  1  0
  3  4  1  0
  4  5  1  0
  5  6  2  0
  5  7  1  0
  7  8  1  0
  8  9  1  0
  9 10  1  0
  9 11  2  3
 11 12  1  0
 12 13  1  0
 12 14  2  0
 14 15  1  0
 15 16  2  0
 16 17  1  0
 16 18  1  0
 18 19  1  0
 18 20  1  0
 18 21  1  0
 21 22  1  0
 21 23  1  0
 21 24  1  0
 24 25  1  0
 24 26  1  0
 24 27  1  0
 15 28  1  0
 28 29  1  0
 29 30  1  0
 29 31  1  0
 29 32  1  0
 32 33  2  0
 33 34  1  0
 33 35  1  0
 35 36  1  0
 35 37  2  0
 37 38  1  0
 37 39  1  0
 39 40  1  0
 39 41  2  0
 41 42  1  0
  8  3  2  0
 28 11  1  0
 41 32  1  0
M  CHG  2   4  -1   7  -1
M  END
>  <UniqueID>  (32) 
32

>  <SMILES>  (32) 
CCC/C=c1/ncc(=Cc2[n-]c(=O)[n-]c2O)n1Cc1ccccc1Cl

>  <Energy>  (32) 
115.05881232044834

>  <Genealogy>  (32) 
CCCC=c1ncc(=Cc2[n-]c(=O)[n-]c2O)n1Cc1ccccc1Cl (protonated)
CCC/C=c1/ncc(=Cc2[n-]c(=O)[n-]c2O)n1Cc1ccccc1Cl (cis-trans isomerization)
CCC/C=c1/ncc(=Cc2[n-]c(=O)[n-]c2O)n1Cc1ccccc1Cl (3D coordinates assigned)
CCC/C=c1/ncc(=Cc2[n-]c(=O)[n-]c2O)n1Cc1ccccc1Cl (optimized conformer: 115.05881232044834 kcal/mol)

>  <smiles>  (32) 
CCCC=c1ncc(=Cc2[nH]c(=O)[nH]c2O)n1Cc1ccccc1Cl

>  <score_type>  (32) 
oracle

>  <origin>  (32) 
adgpu

>  <m_score__min__energy>  (32) 
-12.050000000000001

>  <m_primary>  (32) 
energy

$$$$
32:0
     RDKit          3D

 62 65  0  0  0  0  0  0  0  0999 V2000
   -3.8610   25.2980  -30.4880 N   0  0  0  0  0  0  0  0  0  0  0  0
   -4.9170   24.3490  -30.6410 C   0  0  0  0  0  0  0  0  0  0  0  0
   -6.0850   24.6700  -30.2910 O   0  0  0  0  0  0  0  0  0  0  0  0
   -4.6460   23.0040  -31.1980 C   0  0  0  0  0  0  0  0  0  0  0  0
   -4.7070   22.7820  -32.5860 C   0  0  0  0  0  0  0  0  0  0  0  0
   -4.4600   21.5120  -33.1140 C   0  0  0  0  0  0  0  0  0  0  0  0
   -4.1520   20.4390  -32.2650 C   0  0  0  0  0  0  0  0  0  0  0  0
   -3.9000   19.1290  -32.8040 N   0  0  0  0  0  0  0  0  0  0  0  0
   -2.5300   18.7890  -33.0910 C   0  0  0  0  0  0  0  0  0  0  0  0
   -2.1560   17.5940  -32.9500 O   0  0  0  0  0  0  0  0  0  0  0  0
   -1.5930   19.7620  -33.6830 C   0  0  0  0  0  0  0  0  0  0  0  0
   -1.3180   21.3280  -33.1920 S   0  0  0  0  0  0  0  0  0  0  0  0
   -0.0710   21.7570  -34.1960 N   0  0  0  0  0  0  0  0  0  0  0  0
    0.1810   20.6570  -34.9550 C   0  0  0  0  0  0  0  0  0  0  0  0
    1.2120   20.7130  -36.0140 C   0  0  0  0  0  0  0  0  0  0  0  0
    2.0780   21.8450  -36.1150 N   0  0  0  0  0  0  0  0  0  0  0  0
    1.3110   19.7900  -36.8630 O   0  0  0  0  0  0  0  0  0  0  0  0
   -0.6390   19.5230  -34.6730 C   0  0  0  0  0  0  0  0  0  0  0  0
   -0.5010   18.2500  -35.3160 N   0  0  0  0  0  0  0  0  0  0  0  0
   -5.0400   18.2240  -33.0630 C   0  0  2  0  0  0  0  0  0  0  0  0
   -4.9950   17.6900  -34.4740 C   0  0  0  0  0  0  0  0  0  0  0  0
   -5.6320   18.2660  -35.3960 O   0  0  0  0  0  0  0  0  0  0  0  0
   -4.2200   16.5160  -34.7480 N   0  0  0  0  0  0  0  0  0  0  0  0
   -4.4360   15.1820  -34.1830 C   0  0  0  0  0  0  0  0  0  0  0  0
   -3.8560   15.0770  -32.7520 C   0  0  0  0  0  0  0  0  0  0  0  0
   -4.5190   13.9650  -31.9130 C   0  0  0  0  0  0  0  0  0  0  0  0
   -5.0430   12.8220  -32.7900 C   0  0  0  0  0  0  0  0  0  0  0  0
   -6.1160   13.3120  -33.7850 C   0  0  0  0  0  0  0  0  0  0  0  0
   -5.9180   14.7760  -34.2320 C   0  0  0  0  0  0  0  0  0  0  0  0
   -6.3730   18.8380  -32.6540 C   0  0  0  0  0  0  0  0  0  0  0  0
   -6.9630   19.9220  -33.3350 C   0  0  0  0  0  0  0  0  0  0  0  0
   -8.2070   20.4050  -32.9250 C   0  0  0  0  0  0  0  0  0  0  0  0
   -8.8540   19.8260  -31.8800 N   0  0  0  0  0  0  0  0  0  0  0  0
   -8.3180   18.7730  -31.2090 C   0  0  0  0  0  0  0  0  0  0  0  0
   -7.0760   18.2600  -31.5840 C   0  0  0  0  0  0  0  0  0  0  0  0
   -4.0750   20.6580  -30.8830 C   0  0  0  0  0  0  0  0  0  0  0  0
   -4.3250   21.9270  -30.3520 C   0  0  0  0  0  0  0  0  0  0  0  0
   -3.6900   26.0320  -31.2100 H   0  0  0  0  0  0  0  0  0  0  0  0
   -4.9512   23.6153  -33.2613 H   0  0  0  0  0  0  0  0  0  0  0  0
   -4.5074   21.3530  -34.2014 H   0  0  0  0  0  0  0  0  0  0  0  0
    2.7980   21.8910  -36.8710 H   0  0  0  0  0  0  0  0  0  0  0  0
    2.0300   22.6270  -35.4240 H   0  0  0  0  0  0  0  0  0  0  0  0
    0.1390   18.1110  -36.1270 H   0  0  0  0  0  0  0  0  0  0  0  0
   -0.9660   17.4020  -34.9240 H   0  0  0  0  0  0  0  0  0  0  0  0
   -4.9416   17.3445  -32.4097 H   0  0  0  0  0  0  0  0  0  0  0  0
   -3.8883   14.4644  -34.8116 H   0  0  0  0  0  0  0  0  0  0  0  0
   -2.7789   14.8661  -32.8249 H   0  0  0  0  0  0  0  0  0  0  0  0
   -4.0538   16.0334  -32.2458 H   0  0  0  0  0  0  0  0  0  0  0  0
   -3.7772   13.5611  -31.2083 H   0  0  0  0  0  0  0  0  0  0  0  0
   -5.3745   14.4049  -31.3796 H   0  0  0  0  0  0  0  0  0  0  0  0
   -4.2027   12.3921  -33.3549 H   0  0  0  0  0  0  0  0  0  0  0  0
   -5.5027   12.0688  -32.1332 H   0  0  0  0  0  0  0  0  0  0  0  0
   -6.0841   12.6684  -34.6765 H   0  0  0  0  0  0  0  0  0  0  0  0
   -7.0852   13.2599  -33.2675 H   0  0  0  0  0  0  0  0  0  0  0  0
   -6.2860   14.8884  -35.2625 H   0  0  0  0  0  0  0  0  0  0  0  0
   -6.4781   15.4267  -33.5443 H   0  0  0  0  0  0  0  0  0  0  0  0
   -6.4447   20.3860  -34.1871 H   0  0  0  0  0  0  0  0  0  0  0  0
   -8.6646   21.2567  -33.4495 H   0  0  0  0  0  0  0  0  0  0  0  0
   -8.8652   18.3235  -30.3673 H   0  0  0  0  0  0  0  0  0  0  0  0
   -6.6477   17.4038  -31.0423 H   0  0  0  0  0  0  0  0  0  0  0  0
   -3.8162   19.8260  -30.2115 H   0  0  0  0  0  0  0  0  0  0  0  0
   -4.2703   22.0843  -29.2647 H   0  0  0  0  0  0  0  0  0  0  0  0
  1  2  1  0
  2  3  2  0
  2  4  1  0
  4  5  2  0
  5  6  1  0
  6  7  2  0
  7  8  1  0
  8  9  1  0
  9 10  2  0
  9 11  1  0
 11 12  1  0
 12 13  1  0
 13 14  2  0
 14 15  1  0
 15 16  1  0
 15 17  2  0
 14 18  1  0
 18 19  1  0
  8 20  1  0
 20 21  1  0
 21 22  2  0
 21 23  1  0
 23 24  1  0
 24 25  1  0
 25 26  1  0
 26 27  1  0
 27 28  1  0
 28 29  1  0
 20 30  1  0
 30 31  2  0
 31 32  1  0
 32 33  2  0
 33 34  1  0
 34 35  2  0
  7 36  1  0
 36 37  2  0
 37  4  1  0
 18 11  2  0
 29 24  1  0
 35 30  1  0
  1 38  1  0
  5 39  1  0
  6 40  1  0
 16 41  1  0
 16 42  1  0
 19 43  1  0
 19 44  1  0
 20 45  1  1
 24 46  1  0
 25 47  1  0
 25 48  1  0
 26 49  1  0
 26 50  1  0
 27 51  1  0
 27 52  1  0
 28 53  1  0
 28 54  1  0
 29 55  1  0
 29 56  1  0
 31 57  1  0
 32 58  1  0
 34 59  1  0
 35 60  1  0
 36 61  1  0
 37 62  1  0
M  CHG  2   1  -1  23  -1
M  END
>  <UniqueID>  (33) 
33

>  <SMILES>  (33) 
[NH-]C(=O)c1ccc(N(C(=O)c2snc(C(N)=O)c2N)[C@H](C(=O)[N-]C2CCCCC2)c2ccncc2)cc1

>  <Energy>  (33) 
121.0356368140701

>  <Genealogy>  (33) 
[NH-]C(=O)c1ccc(N(C(=O)c2snc(C(N)=O)c2N)C(C(=O)[N-]C2CCCCC2)c2ccncc2)cc1 (protonated)
[NH-]C(=O)c1ccc(N(C(=O)c2snc(C(N)=O)c2N)[C@H](C(=O)[N-]C2CCCCC2)c2ccncc2)cc1 (chirality)
[NH-]C(=O)c1ccc(N(C(=O)c2snc(C(N)=O)c2N)[C@H](C(=O)[N-]C2CCCCC2)c2ccncc2)cc1 (3D coordinates assigned)
[NH-]C(=O)c1ccc(N(C(=O)c2snc(C(N)=O)c2N)[C@H](C(=O)[N-]C2CCCCC2)c2ccncc2)cc1 (nonaromatic ring conformer: 121.0356368140701 kcal/mol)

>  <smiles>  (33) 
NC(=O)c1ccc(N(C(=O)c2snc(C(N)=O)c2N)C(C(=O)NC2CCCCC2)c2ccncc2)cc1

>  <score_type>  (33) 
oracle

>  <origin>  (33) 
adgpu

>  <m_score__min__energy>  (33) 
-11.529999999999999

>  <m_primary>  (33) 
energy

$$$$
33:0
     RDKit          3D

 42 45  0  0  0  0  0  0  0  0999 V2000
   -5.7850   25.1900  -29.0250 O   0  0  0  0  0  0  0  0  0  0  0  0
   -5.2530   25.0070  -30.4190 S   0  0  0  0  0  0  0  0  0  0  0  0
   -5.7180   26.1520  -31.2730 O   0  0  0  0  0  0  0  0  0  0  0  0
   -3.5180   24.9980  -30.3720 N   0  0  0  0  0  0  0  0  0  0  0  0
   -2.7150   24.2170  -29.4750 C   0  0  0  0  0  0  0  0  0  0  0  0
   -3.0700   22.9020  -29.1250 C   0  0  0  0  0  0  0  0  0  0  0  0
   -2.2660   22.1480  -28.2590 C   0  0  0  0  0  0  0  0  0  0  0  0
   -1.0740   22.7040  -27.7550 C   0  0  0  0  0  0  0  0  0  0  0  0
   -0.7350   24.0240  -28.0800 C   0  0  0  0  0  0  0  0  0  0  0  0
   -1.5420   24.7780  -28.9370 C   0  0  0  0  0  0  0  0  0  0  0  0
   -1.1550   26.0840  -29.2440 O   0  0  0  0  0  0  0  0  0  0  0  0
   -0.2130   21.9310  -26.7820 C   0  0  0  0  0  0  0  0  0  0  0  0
   -0.4300   20.4810  -26.8770 N   0  0  0  0  0  0  0  0  0  0  0  0
   -1.8590   20.1600  -26.7680 C   0  0  0  0  0  0  0  0  0  0  0  0
   -2.6390   20.7190  -27.9640 C   0  0  0  0  0  0  0  0  0  0  0  0
   -5.8330   23.5000  -31.1260 C   0  0  0  0  0  0  0  0  0  0  0  0
   -4.9670   22.6710  -31.8520 C   0  0  0  0  0  0  0  0  0  0  0  0
   -5.4430   21.4960  -32.4400 C   0  0  0  0  0  0  0  0  0  0  0  0
   -6.7910   21.1340  -32.3050 C   0  0  0  0  0  0  0  0  0  0  0  0
   -7.2800   19.9580  -32.8940 C   0  0  0  0  0  0  0  0  0  0  0  0
   -8.6260   19.6110  -32.7520 C   0  0  0  0  0  0  0  0  0  0  0  0
   -9.4910   20.4300  -32.0220 C   0  0  0  0  0  0  0  0  0  0  0  0
   -9.0160   21.6050  -31.4310 C   0  0  0  0  0  0  0  0  0  0  0  0
   -7.6670   21.9670  -31.5660 C   0  0  0  0  0  0  0  0  0  0  0  0
   -7.1790   23.1450  -30.9830 C   0  0  0  0  0  0  0  0  0  0  0  0
   -3.9896   22.4598  -29.5358 H   0  0  0  0  0  0  0  0  0  0  0  0
    0.1760   24.4719  -27.6563 H   0  0  0  0  0  0  0  0  0  0  0  0
   -1.2350   26.4680  -30.1770 H   0  0  0  0  0  0  0  0  0  0  0  0
    0.8442   22.1455  -26.9972 H   0  0  0  0  0  0  0  0  0  0  0  0
   -0.4875   22.2468  -25.7647 H   0  0  0  0  0  0  0  0  0  0  0  0
   -0.0720   20.1420  -27.8010 H   0  0  0  0  0  0  0  0  0  0  0  0
   -1.9812   19.0672  -26.7375 H   0  0  0  0  0  0  0  0  0  0  0  0
   -2.2523   20.6168  -25.8479 H   0  0  0  0  0  0  0  0  0  0  0  0
   -2.4207   20.1043  -28.8497 H   0  0  0  0  0  0  0  0  0  0  0  0
   -3.7103   20.6904  -27.7159 H   0  0  0  0  0  0  0  0  0  0  0  0
   -3.9075   22.9466  -31.9595 H   0  0  0  0  0  0  0  0  0  0  0  0
   -4.7575   20.8525  -33.0110 H   0  0  0  0  0  0  0  0  0  0  0  0
   -6.6029   19.3085  -33.4682 H   0  0  0  0  0  0  0  0  0  0  0  0
   -9.0061   18.6893  -33.2168 H   0  0  0  0  0  0  0  0  0  0  0  0
  -10.5490   20.1497  -31.9118 H   0  0  0  0  0  0  0  0  0  0  0  0
   -9.7017   22.2472  -30.8588 H   0  0  0  0  0  0  0  0  0  0  0  0
   -7.8579   23.7937  -30.4101 H   0  0  0  0  0  0  0  0  0  0  0  0
  1  2  2  0
  2  3  2  0
  2  4  1  0
  4  5  1  0
  5  6  2  0
  6  7  1  0
  7  8  2  0
  8  9  1  0
  9 10  2  0
 10 11  1  0
  8 12  1  0
 12 13  1  0
 13 14  1  0
 14 15  1  0
  2 16  1  0
 16 17  2  0
 17 18  1  0
 18 19  2  0
 19 20  1  0
 20 21  2  0
 21 22  1  0
 22 23  2  0
 23 24  1  0
 24 25  2  0
 10  5  1  0
 25 16  1  0
 15  7  1  0
 24 19  1  0
  6 26  1  0
  9 27  1  0
 11 28  1  0
 12 29  1  0
 12 30  1  0
 13 31  1  0
 14 32  1  0
 14 33  1  0
 15 34  1  0
 15 35  1  0
 17 36  1  0
 18 37  1  0
 20 38  1  0
 21 39  1  0
 22 40  1  0
 23 41  1  0
 25 42  1  0
M  CHG  1   4  -1
M  END
>  <UniqueID>  (34) 
34

>  <SMILES>  (34) 
O=S(=O)([N-]c1cc2c(cc1O)CNCC2)c1ccc2ccccc2c1

>  <Energy>  (34) 
53.77893763506487

>  <Genealogy>  (34) 
O=S(=O)([N-]c1cc2c(cc1O)CNCC2)c1ccc2ccccc2c1 (protonated)
O=S(=O)([N-]c1cc2c(cc1O)CNCC2)c1ccc2ccccc2c1 (3D coordinates assigned)
O=S(=O)([N-]c1cc2c(cc1O)CNCC2)c1ccc2ccccc2c1 (nonaromatic ring conformer: 53.77893763506487 kcal/mol)

>  <smiles>  (34) 
O=S(=O)(Nc1cc2c(cc1O)CNCC2)c1ccc2ccccc2c1

>  <score_type>  (34) 
oracle

>  <origin>  (34) 
adgpu

>  <m_score__min__energy>  (34) 
-12.609999999999999

>  <m_primary>  (34) 
energy

$$$$
34:0
     RDKit          3D

 43 45  0  0  0  0  0  0  0  0999 V2000
   -1.7770   20.2200  -34.1730 C   0  0  0  0  0  0  0  0  0  0  0  0
   -2.6520   19.3550  -33.3670 N   0  0  0  0  0  0  0  0  0  0  0  0
   -3.1140   18.1950  -34.1660 C   0  0  0  0  0  0  0  0  0  0  0  0
   -4.4140   17.6160  -33.6000 C   0  0  0  0  0  0  0  0  0  0  0  0
   -5.5190   18.6000  -33.6880 N   0  0  0  0  0  0  0  0  0  0  0  0
   -6.7590   18.2060  -32.5200 S   0  0  0  0  0  0  0  0  0  0  0  0
   -6.1230   17.7170  -31.2480 O   0  0  0  0  0  0  0  0  0  0  0  0
   -7.6480   17.1180  -33.0590 O   0  0  0  0  0  0  0  0  0  0  0  0
   -7.7180   19.6390  -32.1580 C   0  0  0  0  0  0  0  0  0  0  0  0
   -9.0820   19.6820  -32.4750 C   0  0  0  0  0  0  0  0  0  0  0  0
   -9.8230   20.8360  -32.2180 C   0  0  0  0  0  0  0  0  0  0  0  0
   -9.2110   21.9520  -31.6420 C   0  0  0  0  0  0  0  0  0  0  0  0
   -7.8460   21.9250  -31.3100 C   0  0  0  0  0  0  0  0  0  0  0  0
   -7.2390   23.1390  -30.7120 C   0  0  0  0  0  0  0  0  0  0  0  0
   -6.2960   23.8740  -31.3070 C   0  0  0  0  0  0  0  0  0  0  0  0
   -5.6120   25.3070  -30.4800 S   0  0  0  0  0  0  0  0  0  0  0  0
   -4.0500   24.4910  -30.1790 C   0  0  0  0  0  0  0  0  0  0  0  0
   -3.0990   24.9830  -29.3640 N   0  0  0  0  0  0  0  0  0  0  0  0
   -2.1420   24.0390  -29.4590 C   0  0  0  0  0  0  0  0  0  0  0  0
   -2.4940   23.0350  -30.2840 N   0  0  0  0  0  0  0  0  0  0  0  0
   -3.7010   23.3210  -30.7400 N   0  0  0  0  0  0  0  0  0  0  0  0
   -7.1010   20.7610  -31.5860 C   0  0  0  0  0  0  0  0  0  0  0  0
   -5.0720   20.0100  -33.5340 C   0  0  0  0  0  0  0  0  0  0  0  0
   -3.7560   20.1280  -32.7450 C   0  0  0  0  0  0  0  0  0  0  0  0
   -1.1547   20.8352  -33.5064 H   0  0  0  0  0  0  0  0  0  0  0  0
   -1.1295   19.5971  -34.8077 H   0  0  0  0  0  0  0  0  0  0  0  0
   -2.3924   20.8746  -34.8077 H   0  0  0  0  0  0  0  0  0  0  0  0
   -3.2870   18.5193  -35.2028 H   0  0  0  0  0  0  0  0  0  0  0  0
   -2.3394   17.4149  -34.1281 H   0  0  0  0  0  0  0  0  0  0  0  0
   -4.6866   16.7175  -34.1730 H   0  0  0  0  0  0  0  0  0  0  0  0
   -4.2530   17.3651  -32.5412 H   0  0  0  0  0  0  0  0  0  0  0  0
   -5.9610   18.5060  -34.6320 H   0  0  0  0  0  0  0  0  0  0  0  0
   -9.5691   18.8053  -32.9268 H   0  0  0  0  0  0  0  0  0  0  0  0
  -10.8933   20.8672  -32.4699 H   0  0  0  0  0  0  0  0  0  0  0  0
   -9.8023   22.8588  -31.4469 H   0  0  0  0  0  0  0  0  0  0  0  0
   -7.5870   23.4534  -29.7170 H   0  0  0  0  0  0  0  0  0  0  0  0
   -5.9379   23.5977  -32.3097 H   0  0  0  0  0  0  0  0  0  0  0  0
   -1.1823   24.0837  -28.9233 H   0  0  0  0  0  0  0  0  0  0  0  0
   -6.0268   20.7323  -31.3509 H   0  0  0  0  0  0  0  0  0  0  0  0
   -4.9241   20.4444  -34.5337 H   0  0  0  0  0  0  0  0  0  0  0  0
   -5.8490   20.5474  -32.9705 H   0  0  0  0  0  0  0  0  0  0  0  0
   -3.4642   21.1877  -32.7011 H   0  0  0  0  0  0  0  0  0  0  0  0
   -3.9294   19.7157  -31.7400 H   0  0  0  0  0  0  0  0  0  0  0  0
  1  2  1  0
  2  3  1  0
  3  4  1  0
  4  5  1  0
  5  6  1  0
  6  7  2  0
  6  8  2  0
  6  9  1  0
  9 10  2  0
 10 11  1  0
 11 12  2  0
 12 13  1  0
 13 14  1  0
 14 15  2  3
 15 16  1  0
 16 17  1  0
 17 18  1  0
 18 19  2  0
 19 20  1  0
 20 21  1  0
 13 22  2  0
  5 23  1  0
 23 24  1  0
 24  2  1  0
 22  9  1  0
 21 17  2  0
  1 25  1  0
  1 26  1  0
  1 27  1  0
  3 28  1  0
  3 29  1  0
  4 30  1  0
  4 31  1  0
  5 32  1  0
 10 33  1  0
 11 34  1  0
 12 35  1  0
 14 36  1  0
 15 37  1  0
 19 38  1  0
 22 39  1  0
 23 40  1  0
 23 41  1  0
 24 42  1  0
 24 43  1  0
M  CHG  2   5   1  20  -1
M  END
>  <UniqueID>  (35) 
35

>  <SMILES>  (35) 
CN1CC[NH+](S(=O)(=O)c2cccc(C=CSc3nc[n-]n3)c2)CC1

>  <Energy>  (35) 
83.25062526764602

>  <Genealogy>  (35) 
CN1CC[NH+](S(=O)(=O)c2cccc(C=CSc3nc[n-]n3)c2)CC1 (protonated)
CN1CC[NH+](S(=O)(=O)c2cccc(C=CSc3nc[n-]n3)c2)CC1 (3D coordinates assigned)
CN1CC[NH+](S(=O)(=O)c2cccc(C=CSc3nc[n-]n3)c2)CC1 (nonaromatic ring conformer: 83.25062526764602 kcal/mol)

>  <smiles>  (35) 
CN1CCN(S(=O)(=O)c2cccc(C=CSc3nc[nH]n3)c2)CC1

>  <score_type>  (35) 
oracle

>  <origin>  (35) 
adgpu

>  <m_score__min__energy>  (35) 
-9.8399999999999999

>  <m_primary>  (35) 
energy

$$$$
35:0
     RDKit          3D

 44 46  0  0  0  0  0  0  0  0999 V2000
   -1.8480   18.8600  -26.7920 C   0  0  0  0  0  0  0  0  0  0  0  0
   -2.0810   20.0130  -27.7250 C   0  0  0  0  0  0  0  0  0  0  0  0
   -3.1330   20.9110  -27.4890 C   0  0  0  0  0  0  0  0  0  0  0  0
   -3.3290   22.0060  -28.3360 C   0  0  0  0  0  0  0  0  0  0  0  0
   -2.4690   22.2220  -29.4260 C   0  0  0  0  0  0  0  0  0  0  0  0
   -2.6860   23.3900  -30.3510 C   0  0  0  0  0  0  0  0  0  0  0  0
   -3.3010   24.5190  -29.6490 N   0  0  0  0  0  0  0  0  0  0  0  0
   -4.9540   24.7600  -30.1450 S   0  0  0  0  0  0  0  0  0  0  0  0
   -5.7440   25.2750  -28.9750 O   0  0  0  0  0  0  0  0  0  0  0  0
   -5.0020   25.7900  -31.2400 O   0  0  0  0  0  0  0  0  0  0  0  0
   -5.6790   23.2500  -30.6930 C   0  0  0  0  0  0  0  0  0  0  0  0
   -6.9150   22.8310  -30.1990 C   0  0  0  0  0  0  0  0  0  0  0  0
   -7.4950   21.6480  -30.6590 C   0  0  0  0  0  0  0  0  0  0  0  0
   -6.8460   20.8470  -31.6310 C   0  0  0  0  0  0  0  0  0  0  0  0
   -5.5910   21.2750  -32.1190 C   0  0  0  0  0  0  0  0  0  0  0  0
   -5.0190   22.4750  -31.6490 C   0  0  0  0  0  0  0  0  0  0  0  0
   -4.9370   20.4890  -33.0760 C   0  0  0  0  0  0  0  0  0  0  0  0
   -3.8240   20.8660  -33.5430 O   0  0  0  0  0  0  0  0  0  0  0  0
   -5.4980   19.3190  -33.5080 N   0  0  0  0  0  0  0  0  0  0  0  0
   -4.8080   18.5090  -34.5290 C   0  0  0  0  0  0  0  0  0  0  0  0
   -6.7340   18.9350  -33.0510 C   0  0  0  0  0  0  0  0  0  0  0  0
   -7.2600   17.8790  -33.5080 O   0  0  0  0  0  0  0  0  0  0  0  0
   -7.4050   19.6820  -32.1110 N   0  0  0  0  0  0  0  0  0  0  0  0
   -8.7270   19.2340  -31.6230 C   0  0  0  0  0  0  0  0  0  0  0  0
   -1.4030   21.3360  -29.6470 C   0  0  0  0  0  0  0  0  0  0  0  0
   -1.2060   20.2430  -28.7990 C   0  0  0  0  0  0  0  0  0  0  0  0
   -1.9188   19.2101  -25.7516 H   0  0  0  0  0  0  0  0  0  0  0  0
   -2.6076   18.0847  -26.9704 H   0  0  0  0  0  0  0  0  0  0  0  0
   -0.8469   18.4405  -26.9704 H   0  0  0  0  0  0  0  0  0  0  0  0
   -3.8065   20.7528  -26.6338 H   0  0  0  0  0  0  0  0  0  0  0  0
   -4.1602   22.7016  -28.1482 H   0  0  0  0  0  0  0  0  0  0  0  0
   -1.7156   23.7082  -30.7599 H   0  0  0  0  0  0  0  0  0  0  0  0
   -3.3634   23.0725  -31.1574 H   0  0  0  0  0  0  0  0  0  0  0  0
   -7.4352   23.4368  -29.4425 H   0  0  0  0  0  0  0  0  0  0  0  0
   -8.4708   21.3326  -30.2610 H   0  0  0  0  0  0  0  0  0  0  0  0
   -4.0443   22.8036  -32.0388 H   0  0  0  0  0  0  0  0  0  0  0  0
   -4.1708   17.7610  -34.0345 H   0  0  0  0  0  0  0  0  0  0  0  0
   -5.5530   17.9985  -35.1570 H   0  0  0  0  0  0  0  0  0  0  0  0
   -4.1855   19.1633  -35.1570 H   0  0  0  0  0  0  0  0  0  0  0  0
   -8.7307   19.2328  -30.5230 H   0  0  0  0  0  0  0  0  0  0  0  0
   -9.5052   19.9186  -31.9915 H   0  0  0  0  0  0  0  0  0  0  0  0
   -8.9286   18.2174  -31.9915 H   0  0  0  0  0  0  0  0  0  0  0  0
   -0.7191   21.5030  -30.4922 H   0  0  0  0  0  0  0  0  0  0  0  0
   -0.3618   19.5597  -28.9735 H   0  0  0  0  0  0  0  0  0  0  0  0
  1  2  1  0
  2  3  2  0
  3  4  1  0
  4  5  2  0
  5  6  1  0
  6  7  1  0
  7  8  1  0
  8  9  2  0
  8 10  2  0
  8 11  1  0
 11 12  2  0
 12 13  1  0
 13 14  2  0
 14 15  1  0
 15 16  2  0
 15 17  1  0
 17 18  2  0
 17 19  1  0
 19 20  1  0
 19 21  1  0
 21 22  2  0
 21 23  1  0
 23 24  1  0
  5 25  1  0
 25 26  2  0
 26  2  1  0
 16 11  1  0
 23 14  1  0
  1 27  1  0
  1 28  1  0
  1 29  1  0
  3 30  1  0
  4 31  1  0
  6 32  1  0
  6 33  1  0
 12 34  1  0
 13 35  1  0
 16 36  1  0
 20 37  1  0
 20 38  1  0
 20 39  1  0
 24 40  1  0
 24 41  1  0
 24 42  1  0
 25 43  1  0
 26 44  1  0
M  CHG  1   7  -1
M  END
>  <UniqueID>  (36) 
36

>  <SMILES>  (36) 
Cc1ccc(C[N-]S(=O)(=O)c2ccc3c(c2)c(=O)n(C)c(=O)n3C)cc1

>  <Energy>  (36) 
58.60265768731378

>  <Genealogy>  (36) 
Cc1ccc(C[N-]S(=O)(=O)c2ccc3c(c2)c(=O)n(C)c(=O)n3C)cc1 (protonated)
Cc1ccc(C[N-]S(=O)(=O)c2ccc3c(c2)c(=O)n(C)c(=O)n3C)cc1 (3D coordinates assigned)
Cc1ccc(C[N-]S(=O)(=O)c2ccc3c(c2)c(=O)n(C)c(=O)n3C)cc1 (optimized conformer: 58.60265768731378 kcal/mol)

>  <smiles>  (36) 
Cc1ccc(CNS(=O)(=O)c2ccc3c(c2)c(=O)n(C)c(=O)n3C)cc1

>  <score_type>  (36) 
oracle

>  <origin>  (36) 
adgpu

>  <m_score__min__energy>  (36) 
-10.960000000000001

>  <m_primary>  (36) 
energy

$$$$
36:0
     RDKit          3D

 48 51  0  0  0  0  0  0  0  0999 V2000
   -4.7380   18.4040  -34.2460 C   0  0  0  0  0  0  0  0  0  0  0  0
   -5.5300   19.2690  -33.3510 N   0  0  0  0  0  0  0  0  0  0  0  0
   -5.0000   20.4460  -32.8990 C   0  0  0  0  0  0  0  0  0  0  0  0
   -3.8300   20.7850  -33.2360 O   0  0  0  0  0  0  0  0  0  0  0  0
   -5.7520   21.2840  -32.0660 C   0  0  0  0  0  0  0  0  0  0  0  0
   -5.2180   22.4930  -31.5770 C   0  0  0  0  0  0  0  0  0  0  0  0
   -5.9830   23.3280  -30.7570 C   0  0  0  0  0  0  0  0  0  0  0  0
   -5.3500   24.8760  -30.2020 S   0  0  0  0  0  0  0  0  0  0  0  0
   -6.4520   25.8900  -30.0610 O   0  0  0  0  0  0  0  0  0  0  0  0
   -4.3530   25.3780  -31.2070 O   0  0  0  0  0  0  0  0  0  0  0  0
   -4.5680   24.6650  -28.6670 N   0  0  0  0  0  0  0  0  0  0  0  0
   -3.4120   23.8270  -28.4850 C   0  0  0  0  0  0  0  0  0  0  0  0
   -3.5340   22.5270  -27.9640 C   0  0  0  0  0  0  0  0  0  0  0  0
   -2.4090   21.7020  -27.8180 C   0  0  0  0  0  0  0  0  0  0  0  0
   -1.1420   22.1760  -28.2100 C   0  0  0  0  0  0  0  0  0  0  0  0
   -1.0130   23.4870  -28.6890 C   0  0  0  0  0  0  0  0  0  0  0  0
   -2.1360   24.3050  -28.8320 C   0  0  0  0  0  0  0  0  0  0  0  0
   -1.9780   25.5940  -29.3330 O   0  0  0  0  0  0  0  0  0  0  0  0
    0.0930   21.3270  -28.0190 C   0  0  0  0  0  0  0  0  0  0  0  0
   -0.2230   19.8950  -27.9340 N   0  0  0  0  0  0  0  0  0  0  0  0
   -1.2580   19.6500  -26.9220 C   0  0  0  0  0  0  0  0  0  0  0  0
   -2.5900   20.2860  -27.3370 C   0  0  0  0  0  0  0  0  0  0  0  0
   -7.2830   22.9550  -30.4150 C   0  0  0  0  0  0  0  0  0  0  0  0
   -7.8230   21.7590  -30.8880 C   0  0  0  0  0  0  0  0  0  0  0  0
   -7.0690   20.9010  -31.7260 C   0  0  0  0  0  0  0  0  0  0  0  0
   -7.5880   19.7230  -32.2210 N   0  0  0  0  0  0  0  0  0  0  0  0
   -8.9680   19.3150  -31.8840 C   0  0  0  0  0  0  0  0  0  0  0  0
   -6.8200   18.9250  -33.0390 C   0  0  0  0  0  0  0  0  0  0  0  0
   -7.3080   17.8610  -33.5160 O   0  0  0  0  0  0  0  0  0  0  0  0
   -4.1163   17.7250  -33.6440 H   0  0  0  0  0  0  0  0  0  0  0  0
   -5.4160   17.8145  -34.8807 H   0  0  0  0  0  0  0  0  0  0  0  0
   -4.0912   19.0275  -34.8807 H   0  0  0  0  0  0  0  0  0  0  0  0
   -4.1905   22.7822  -31.8427 H   0  0  0  0  0  0  0  0  0  0  0  0
   -4.8730   25.2960  -27.8930 H   0  0  0  0  0  0  0  0  0  0  0  0
   -4.5245   22.1519  -27.6670 H   0  0  0  0  0  0  0  0  0  0  0  0
   -0.0186   23.8750  -28.9546 H   0  0  0  0  0  0  0  0  0  0  0  0
    0.7696   21.4900  -28.8708 H   0  0  0  0  0  0  0  0  0  0  0  0
    0.5629   21.6250  -27.0701 H   0  0  0  0  0  0  0  0  0  0  0  0
   -0.5700   19.5660  -28.8660 H   0  0  0  0  0  0  0  0  0  0  0  0
   -1.3978   18.5652  -26.8050 H   0  0  0  0  0  0  0  0  0  0  0  0
   -0.9343   20.1002  -25.9720 H   0  0  0  0  0  0  0  0  0  0  0  0
   -3.0323   19.6885  -28.1478 H   0  0  0  0  0  0  0  0  0  0  0  0
   -3.2481   20.3061  -26.4558 H   0  0  0  0  0  0  0  0  0  0  0  0
   -7.8864   23.6085  -29.7679 H   0  0  0  0  0  0  0  0  0  0  0  0
   -8.8486   21.4782  -30.6064 H   0  0  0  0  0  0  0  0  0  0  0  0
   -9.0836   19.2808  -30.7906 H   0  0  0  0  0  0  0  0  0  0  0  0
   -9.6784   20.0416  -32.3053 H   0  0  0  0  0  0  0  0  0  0  0  0
   -9.1691   18.3190  -32.3053 H   0  0  0  0  0  0  0  0  0  0  0  0
  1  2  1  0
  2  3  1  0
  3  4  2  0
  3  5  1  0
  5  6  2  0
  6  7  1  0
  7  8  1  0
  8  9  2  0
  8 10  2  0
  8 11  1  0
 11 12  1  0
 12 13  2  0
 13 14  1  0
 14 15  2  0
 15 16  1  0
 16 17  2  0
 17 18  1  0
 15 19  1  0
 19 20  1  0
 20 21  1  0
 21 22  1  0
  7 23  2  0
 23 24  1  0
 24 25  2  0
 25 26  1  0
 26 27  1  0
 26 28  1  0
 28 29  2  0
 28  2  1  0
 25  5  1  0
 17 12  1  0
 22 14  1  0
  1 30  1  0
  1 31  1  0
  1 32  1  0
  6 33  1  0
 11 34  1  0
 13 35  1  0
 16 36  1  0
 19 37  1  0
 19 38  1  0
 20 39  1  0
 21 40  1  0
 21 41  1  0
 22 42  1  0
 22 43  1  0
 23 44  1  0
 24 45  1  0
 27 46  1  0
 27 47  1  0
 27 48  1  0
M  CHG  1  18  -1
M  END
>  <UniqueID>  (37) 
37

>  <SMILES>  (37) 
Cn1c(=O)c2cc(S(=O)(=O)Nc3cc4c(cc3[O-])CNCC4)ccc2n(C)c1=O

>  <Energy>  (37) 
71.23798582300354

>  <Genealogy>  (37) 
Cn1c(=O)c2cc(S(=O)(=O)Nc3cc4c(cc3[O-])CNCC4)ccc2n(C)c1=O (protonated)
Cn1c(=O)c2cc(S(=O)(=O)Nc3cc4c(cc3[O-])CNCC4)ccc2n(C)c1=O (3D coordinates assigned)
Cn1c(=O)c2cc(S(=O)(=O)Nc3cc4c(cc3[O-])CNCC4)ccc2n(C)c1=O (nonaromatic ring conformer: 71.23798582300354 kcal/mol)

>  <smiles>  (37) 
Cn1c(=O)c2cc(S(=O)(=O)Nc3cc4c(cc3O)CNCC4)ccc2n(C)c1=O

>  <score_type>  (37) 
oracle

>  <origin>  (37) 
adgpu

>  <m_score__min__energy>  (37) 
-14.18

>  <m_primary>  (37) 
energy

$$$$
37:0
     RDKit          3D

 58 61  0  0  0  0  0  0  0  0999 V2000
    1.1370   19.9350  -30.3990 O   0  0  0  0  0  0  0  0  0  0  0  0
   -0.1170   19.9270  -30.2640 C   0  0  0  0  0  0  0  0  0  0  0  0
   -0.9500   19.6400  -31.3980 N   0  0  0  0  0  0  0  0  0  0  0  0
   -0.3950   19.5200  -32.7520 C   0  0  0  0  0  0  0  0  0  0  0  0
    0.1220   20.8660  -33.2540 C   0  0  0  0  0  0  0  0  0  0  0  0
   -1.0490   21.5320  -33.9690 C   0  0  0  0  0  0  0  0  0  0  0  0
   -2.0920   20.4450  -34.2180 C   0  0  0  0  0  0  0  0  0  0  0  0
   -1.4860   19.1340  -33.7420 C   0  0  0  0  0  0  0  0  0  0  0  0
   -0.7160   20.2530  -28.9470 C   0  0  0  0  0  0  0  0  0  0  0  0
   -0.9270   19.2180  -28.0170 C   0  0  0  0  0  0  0  0  0  0  0  0
   -1.5570   19.4750  -26.7980 C   0  0  0  0  0  0  0  0  0  0  0  0
   -1.9950   20.7630  -26.4930 C   0  0  0  0  0  0  0  0  0  0  0  0
   -1.7910   21.8030  -27.4000 C   0  0  0  0  0  0  0  0  0  0  0  0
   -1.1390   21.5650  -28.6190 C   0  0  0  0  0  0  0  0  0  0  0  0
   -0.8190   22.9680  -29.7030 S   0  0  0  0  0  0  0  0  0  0  0  0
   -2.4850   22.9680  -30.3750 C   0  0  0  0  0  0  0  0  0  0  0  0
   -3.0060   21.8060  -30.9610 C   0  0  0  0  0  0  0  0  0  0  0  0
   -4.3080   21.8010  -31.4830 C   0  0  0  0  0  0  0  0  0  0  0  0
   -4.9630   20.3450  -32.2330 S   0  0  0  0  0  0  0  0  0  0  0  0
   -3.9500   19.2380  -32.1470 O   0  0  0  0  0  0  0  0  0  0  0  0
   -5.2320   20.6290  -33.6850 O   0  0  0  0  0  0  0  0  0  0  0  0
   -6.4490   19.8750  -31.4420 N   0  0  0  0  0  0  0  0  0  0  0  0
   -6.8520   18.5210  -31.8820 C   0  0  0  0  0  0  0  0  0  0  0  0
   -8.3350   18.2540  -31.6050 C   0  0  0  0  0  0  0  0  0  0  0  0
   -9.2250   19.2300  -32.3940 C   0  0  0  0  0  0  0  0  0  0  0  0
   -8.5260   20.5690  -32.6890 C   0  0  0  0  0  0  0  0  0  0  0  0
   -7.4970   20.9150  -31.6040 C   0  0  0  0  0  0  0  0  0  0  0  0
   -5.0920   22.9590  -31.3990 C   0  0  0  0  0  0  0  0  0  0  0  0
   -4.5740   24.1180  -30.8150 C   0  0  0  0  0  0  0  0  0  0  0  0
   -3.2740   24.1270  -30.3040 C   0  0  0  0  0  0  0  0  0  0  0  0
   -2.7750   25.2860  -29.7210 O   0  0  0  0  0  0  0  0  0  0  0  0
   -1.9760   19.5030  -31.2470 H   0  0  0  0  0  0  0  0  0  0  0  0
    0.4056   18.7680  -32.6920 H   0  0  0  0  0  0  0  0  0  0  0  0
    0.4549   21.4859  -32.4085 H   0  0  0  0  0  0  0  0  0  0  0  0
    0.9827   20.7389  -33.9271 H   0  0  0  0  0  0  0  0  0  0  0  0
   -1.4742   22.3272  -33.3390 H   0  0  0  0  0  0  0  0  0  0  0  0
   -0.7241   21.9903  -34.9147 H   0  0  0  0  0  0  0  0  0  0  0  0
   -3.0097   20.6648  -33.6528 H   0  0  0  0  0  0  0  0  0  0  0  0
   -2.3583   20.3916  -35.2839 H   0  0  0  0  0  0  0  0  0  0  0  0
   -2.2500   18.5150  -33.2488 H   0  0  0  0  0  0  0  0  0  0  0  0
   -1.0844   18.5445  -34.5794 H   0  0  0  0  0  0  0  0  0  0  0  0
   -0.5924   18.1970  -28.2528 H   0  0  0  0  0  0  0  0  0  0  0  0
   -1.7083   18.6590  -26.0761 H   0  0  0  0  0  0  0  0  0  0  0  0
   -2.5017   20.9592  -25.5366 H   0  0  0  0  0  0  0  0  0  0  0  0
   -2.1437   22.8164  -27.1577 H   0  0  0  0  0  0  0  0  0  0  0  0
   -2.3917   20.8949  -31.0117 H   0  0  0  0  0  0  0  0  0  0  0  0
   -6.6686   18.4279  -32.9626 H   0  0  0  0  0  0  0  0  0  0  0  0
   -6.2596   17.7861  -31.3173 H   0  0  0  0  0  0  0  0  0  0  0  0
   -8.5774   17.2235  -31.9039 H   0  0  0  0  0  0  0  0  0  0  0  0
   -8.5232   18.3967  -30.5307 H   0  0  0  0  0  0  0  0  0  0  0  0
   -9.5013   18.7598  -33.3493 H   0  0  0  0  0  0  0  0  0  0  0  0
  -10.1083   19.4467  -31.7753 H   0  0  0  0  0  0  0  0  0  0  0  0
   -8.0128   20.4986  -33.6594 H   0  0  0  0  0  0  0  0  0  0  0  0
   -9.2891   21.3610  -32.7073 H   0  0  0  0  0  0  0  0  0  0  0  0
   -7.0099   21.8638  -31.8733 H   0  0  0  0  0  0  0  0  0  0  0  0
   -8.0385   20.9864  -30.6492 H   0  0  0  0  0  0  0  0  0  0  0  0
   -6.1186   22.9559  -31.7940 H   0  0  0  0  0  0  0  0  0  0  0  0
   -5.1920   25.0262  -30.7575 H   0  0  0  0  0  0  0  0  0  0  0  0
  1  2  2  0
  2  3  1  0
  3  4  1  0
  4  5  1  0
  5  6  1  0
  6  7  1  0
  7  8  1  0
  2  9  1  0
  9 10  2  0
 10 11  1  0
 11 12  2  0
 12 13  1  0
 13 14  2  0
 14 15  1  0
 15 16  1  0
 16 17  2  0
 17 18  1  0
 18 19  1  0
 19 20  2  0
 19 21  2  0
 19 22  1  0
 22 23  1  0
 23 24  1  0
 24 25  1  0
 25 26  1  0
 26 27  1  0
 18 28  2  0
 28 29  1  0
 29 30  2  0
 30 31  1  0
  8  4  1  0
 14  9  1  0
 30 16  1  0
 27 22  1  0
  3 32  1  0
  4 33  1  0
  5 34  1  0
  5 35  1  0
  6 36  1  0
  6 37  1  0
  7 38  1  0
  7 39  1  0
  8 40  1  0
  8 41  1  0
 10 42  1  0
 11 43  1  0
 12 44  1  0
 13 45  1  0
 17 46  1  0
 23 47  1  0
 23 48  1  0
 24 49  1  0
 24 50  1  0
 25 51  1  0
 25 52  1  0
 26 53  1  0
 26 54  1  0
 27 55  1  0
 27 56  1  0
 28 57  1  0
 29 58  1  0
M  CHG  1  31  -1
M  END
>  <UniqueID>  (38) 
38

>  <SMILES>  (38) 
O=C(NC1CCCC1)c1ccccc1Sc1cc(S(=O)(=O)N2CCCCC2)ccc1[O-]

>  <Energy>  (38) 
61.5290088654915

>  <Genealogy>  (38) 
O=C(NC1CCCC1)c1ccccc1Sc1cc(S(=O)(=O)N2CCCCC2)ccc1[O-] (protonated)
O=C(NC1CCCC1)c1ccccc1Sc1cc(S(=O)(=O)N2CCCCC2)ccc1[O-] (3D coordinates assigned)
O=C(NC1CCCC1)c1ccccc1Sc1cc(S(=O)(=O)N2CCCCC2)ccc1[O-] (nonaromatic ring conformer: 61.5290088654915 kcal/mol)

>  <smiles>  (38) 
O=C(NC1CCCC1)c1ccccc1Sc1cc(S(=O)(=O)N2CCCCC2)ccc1O

>  <score_type>  (38) 
oracle

>  <origin>  (38) 
adgpu

>  <m_score__min__energy>  (38) 
-13.199999999999999

>  <m_primary>  (38) 
energy

$$$$
38:0
     RDKit          3D

 49 52  0  0  0  0  0  0  0  0999 V2000
   -3.7280   17.4710  -33.5290 C   0  0  0  0  0  0  0  0  0  0  0  0
   -4.5460   18.4780  -34.3330 C   0  0  0  0  0  0  0  0  0  0  0  0
   -5.3550   19.3270  -33.4320 N   0  0  0  0  0  0  0  0  0  0  0  0
   -6.6220   18.9470  -33.0350 C   0  0  0  0  0  0  0  0  0  0  0  0
   -7.2330   17.6340  -33.4360 C   0  0  0  0  0  0  0  0  0  0  0  0
   -7.3540   19.7560  -32.2250 N   0  0  0  0  0  0  0  0  0  0  0  0
   -6.8860   20.9510  -31.7960 C   0  0  0  0  0  0  0  0  0  0  0  0
   -7.6780   21.7560  -30.9710 C   0  0  0  0  0  0  0  0  0  0  0  0
   -7.1990   22.9920  -30.5310 C   0  0  0  0  0  0  0  0  0  0  0  0
   -5.9240   23.4300  -30.9070 C   0  0  0  0  0  0  0  0  0  0  0  0
   -5.3500   25.0010  -30.3520 S   0  0  0  0  0  0  0  0  0  0  0  0
   -5.8770   25.3170  -28.9790 O   0  0  0  0  0  0  0  0  0  0  0  0
   -5.8340   26.0560  -31.3050 O   0  0  0  0  0  0  0  0  0  0  0  0
   -3.6150   25.0120  -30.3220 N   0  0  0  0  0  0  0  0  0  0  0  0
   -2.7960   24.2500  -29.4240 C   0  0  0  0  0  0  0  0  0  0  0  0
   -3.1580   22.9580  -29.0030 C   0  0  0  0  0  0  0  0  0  0  0  0
   -2.3280   22.2270  -28.1410 C   0  0  0  0  0  0  0  0  0  0  0  0
   -1.1420   22.8110  -27.6540 C   0  0  0  0  0  0  0  0  0  0  0  0
   -0.7820   24.1000  -28.0750 C   0  0  0  0  0  0  0  0  0  0  0  0
   -1.6050   24.8160  -28.9480 C   0  0  0  0  0  0  0  0  0  0  0  0
   -1.2340   26.0970  -29.3430 O   0  0  0  0  0  0  0  0  0  0  0  0
   -0.2080   22.0280  -26.7610 C   0  0  0  0  0  0  0  0  0  0  0  0
   -0.8930   20.9360  -26.0590 N   0  0  0  0  0  0  0  0  0  0  0  0
   -1.6300   20.0880  -27.0050 C   0  0  0  0  0  0  0  0  0  0  0  0
   -2.7730   20.8670  -27.6680 C   0  0  0  0  0  0  0  0  0  0  0  0
   -5.1280   22.6250  -31.7350 C   0  0  0  0  0  0  0  0  0  0  0  0
   -5.6080   21.3810  -32.1870 C   0  0  0  0  0  0  0  0  0  0  0  0
   -4.8520   20.5410  -33.0260 C   0  0  0  0  0  0  0  0  0  0  0  0
   -3.7070   20.9160  -33.4060 O   0  0  0  0  0  0  0  0  0  0  0  0
   -3.8759   17.6531  -32.4543 H   0  0  0  0  0  0  0  0  0  0  0  0
   -4.0564   16.4508  -33.7766 H   0  0  0  0  0  0  0  0  0  0  0  0
   -2.6621   17.5834  -33.7766 H   0  0  0  0  0  0  0  0  0  0  0  0
   -3.8642   19.1153  -34.9152 H   0  0  0  0  0  0  0  0  0  0  0  0
   -5.2215   17.9301  -35.0064 H   0  0  0  0  0  0  0  0  0  0  0  0
   -7.4988   17.0627  -32.5344 H   0  0  0  0  0  0  0  0  0  0  0  0
   -8.1380   17.8180  -34.0336 H   0  0  0  0  0  0  0  0  0  0  0  0
   -6.5094   17.0601  -34.0336 H   0  0  0  0  0  0  0  0  0  0  0  0
   -8.6792   21.4154  -30.6683 H   0  0  0  0  0  0  0  0  0  0  0  0
   -7.8268   23.6242  -29.8859 H   0  0  0  0  0  0  0  0  0  0  0  0
   -4.1023   22.5161  -29.3536 H   0  0  0  0  0  0  0  0  0  0  0  0
    0.1550   24.5502  -27.7152 H   0  0  0  0  0  0  0  0  0  0  0  0
    0.5968   21.6019  -27.3780 H   0  0  0  0  0  0  0  0  0  0  0  0
    0.1897   22.7183  -26.0025 H   0  0  0  0  0  0  0  0  0  0  0  0
   -1.5660   21.3460  -25.3680 H   0  0  0  0  0  0  0  0  0  0  0  0
   -0.9385   19.7324  -27.7831 H   0  0  0  0  0  0  0  0  0  0  0  0
   -2.0593   19.2390  -26.4529 H   0  0  0  0  0  0  0  0  0  0  0  0
   -3.1401   20.2930  -28.5316 H   0  0  0  0  0  0  0  0  0  0  0  0
   -3.5663   21.0099  -26.9195 H   0  0  0  0  0  0  0  0  0  0  0  0
   -4.1255   22.9667  -32.0322 H   0  0  0  0  0  0  0  0  0  0  0  0
  1  2  1  0
  2  3  1  0
  3  4  1  0
  4  5  1  0
  4  6  2  0
  6  7  1  0
  7  8  2  0
  8  9  1  0
  9 10  2  0
 10 11  1  0
 11 12  2  0
 11 13  2  0
 11 14  1  0
 14 15  1  0
 15 16  2  0
 16 17  1  0
 17 18  2  0
 18 19  1  0
 19 20  2  0
 20 21  1  0
 18 22  1  0
 22 23  1  0
 23 24  1  0
 24 25  1  0
 10 26  1  0
 26 27  2  0
 27 28  1  0
 28 29  2  0
 28  3  1  0
 27  7  1  0
 20 15  1  0
 25 17  1  0
  1 30  1  0
  1 31  1  0
  1 32  1  0
  2 33  1  0
  2 34  1  0
  5 35  1  0
  5 36  1  0
  5 37  1  0
  8 38  1  0
  9 39  1  0
 16 40  1  0
 19 41  1  0
 22 42  1  0
 22 43  1  0
 23 44  1  0
 24 45  1  0
 24 46  1  0
 25 47  1  0
 25 48  1  0
 26 49  1  0
M  CHG  2  14  -1  21  -1
M  END
>  <UniqueID>  (39) 
39

>  <SMILES>  (39) 
CCn1c(C)nc2ccc(S(=O)(=O)[N-]c3cc4c(cc3[O-])CNCC4)cc2c1=O

>  <Energy>  (39) 
62.75266569362499

>  <Genealogy>  (39) 
CCn1c(C)nc2ccc(S(=O)(=O)[N-]c3cc4c(cc3[O-])CNCC4)cc2c1=O (protonated)
CCn1c(C)nc2ccc(S(=O)(=O)[N-]c3cc4c(cc3[O-])CNCC4)cc2c1=O (3D coordinates assigned)
CCn1c(C)nc2ccc(S(=O)(=O)[N-]c3cc4c(cc3[O-])CNCC4)cc2c1=O (nonaromatic ring conformer: 62.75266569362499 kcal/mol)

>  <smiles>  (39) 
CCn1c(C)nc2ccc(S(=O)(=O)Nc3cc4c(cc3O)CNCC4)cc2c1=O

>  <score_type>  (39) 
oracle

>  <origin>  (39) 
adgpu

>  <m_score__min__energy>  (39) 
-14.42

>  <m_primary>  (39) 
energy

$$$$
39:0
     RDKit          3D

 53 55  0  0  0  0  0  0  0  0999 V2000
   -6.1910   17.4940  -33.8230 C   0  0  0  0  0  0  0  0  0  0  0  0
   -6.4630   18.9930  -33.7870 C   0  0  0  0  0  0  0  0  0  0  0  0
   -7.6160   19.4060  -32.4870 S   0  0  0  0  0  0  0  0  0  0  0  0
   -8.9710   19.6640  -33.0860 O   0  0  0  0  0  0  0  0  0  0  0  0
   -7.7290   18.2540  -31.5290 O   0  0  0  0  0  0  0  0  0  0  0  0
   -7.0730   20.8500  -31.6330 C   0  0  0  0  0  0  0  0  0  0  0  0
   -7.9780   21.5790  -30.8490 C   0  0  0  0  0  0  0  0  0  0  0  0
   -7.5570   22.7290  -30.1740 C   0  0  0  0  0  0  0  0  0  0  0  0
   -6.2280   23.1690  -30.2860 C   0  0  0  0  0  0  0  0  0  0  0  0
   -5.7640   24.3840  -29.5310 C   0  0  0  0  0  0  0  0  0  0  0  0
   -4.9140   25.2400  -30.4130 C   0  0  0  0  0  0  0  0  0  0  0  0
   -5.4610   26.0530  -31.2060 O   0  0  0  0  0  0  0  0  0  0  0  0
   -3.4890   25.1310  -30.3430 N   0  0  0  0  0  0  0  0  0  0  0  0
   -2.7350   24.5260  -29.2820 C   0  0  0  0  0  0  0  0  0  0  0  0
   -3.0110   23.2240  -28.8220 C   0  0  0  0  0  0  0  0  0  0  0  0
   -2.2690   22.6790  -27.7720 C   0  0  0  0  0  0  0  0  0  0  0  0
   -1.2580   23.4280  -27.1610 C   0  0  0  0  0  0  0  0  0  0  0  0
   -0.9940   24.7360  -27.5930 C   0  0  0  0  0  0  0  0  0  0  0  0
    0.2760   25.6950  -26.8350 S   0  0  0  0  0  0  0  0  0  0  0  0
   -0.0280   27.1600  -26.9820 O   0  0  0  0  0  0  0  0  0  0  0  0
    1.5760   25.4010  -27.5330 O   0  0  0  0  0  0  0  0  0  0  0  0
    0.4030   25.2760  -25.1390 N   0  0  0  0  0  0  0  0  0  0  0  0
   -0.8790   25.4740  -24.4480 C   0  0  0  0  0  0  0  0  0  0  0  0
   -0.8590   26.8630  -23.8220 C   0  0  0  0  0  0  0  0  0  0  0  0
    0.5920   27.3150  -23.8650 C   0  0  0  0  0  0  0  0  0  0  0  0
    1.3660   26.1440  -24.4510 C   0  0  0  0  0  0  0  0  0  0  0  0
   -1.7390   25.2810  -28.6480 C   0  0  0  0  0  0  0  0  0  0  0  0
   -5.3210   22.4280  -31.0630 C   0  0  0  0  0  0  0  0  0  0  0  0
   -5.7440   21.2800  -31.7380 C   0  0  0  0  0  0  0  0  0  0  0  0
   -6.1212   17.1092  -32.7949 H   0  0  0  0  0  0  0  0  0  0  0  0
   -7.0115   16.9850  -34.3501 H   0  0  0  0  0  0  0  0  0  0  0  0
   -5.2440   17.3057  -34.3501 H   0  0  0  0  0  0  0  0  0  0  0  0
   -5.5169   19.5257  -33.6107 H   0  0  0  0  0  0  0  0  0  0  0  0
   -6.9011   19.2919  -34.7507 H   0  0  0  0  0  0  0  0  0  0  0  0
   -9.0228   21.2453  -30.7645 H   0  0  0  0  0  0  0  0  0  0  0  0
   -8.2697   23.2913  -29.5528 H   0  0  0  0  0  0  0  0  0  0  0  0
   -6.6387   24.9611  -29.1966 H   0  0  0  0  0  0  0  0  0  0  0  0
   -5.1730   24.0641  -28.6601 H   0  0  0  0  0  0  0  0  0  0  0  0
   -3.8129   22.6349  -29.2909 H   0  0  0  0  0  0  0  0  0  0  0  0
   -2.4803   21.6571  -27.4242 H   0  0  0  0  0  0  0  0  0  0  0  0
   -0.6694   22.9908  -26.3410 H   0  0  0  0  0  0  0  0  0  0  0  0
    0.7020   24.2740  -25.0660 H   0  0  0  0  0  0  0  0  0  0  0  0
   -1.7077   25.3994  -25.1675 H   0  0  0  0  0  0  0  0  0  0  0  0
   -1.0221   24.7052  -23.6744 H   0  0  0  0  0  0  0  0  0  0  0  0
   -1.4924   27.5526  -24.3992 H   0  0  0  0  0  0  0  0  0  0  0  0
   -1.2489   26.8496  -22.7935 H   0  0  0  0  0  0  0  0  0  0  0  0
    0.6987   28.2043  -24.5036 H   0  0  0  0  0  0  0  0  0  0  0  0
    0.9631   27.5904  -22.8668 H   0  0  0  0  0  0  0  0  0  0  0  0
    2.1175   26.5110  -25.1655 H   0  0  0  0  0  0  0  0  0  0  0  0
    1.8877   25.5895  -23.6571 H   0  0  0  0  0  0  0  0  0  0  0  0
   -1.5401   26.3103  -28.9811 H   0  0  0  0  0  0  0  0  0  0  0  0
   -4.2731   22.7534  -31.1401 H   0  0  0  0  0  0  0  0  0  0  0  0
   -5.0311   20.7121  -32.3538 H   0  0  0  0  0  0  0  0  0  0  0  0
  1  2  1  0
  2  3  1  0
  3  4  2  0
  3  5  2  0
  3  6  1  0
  6  7  2  0
  7  8  1  0
  8  9  2  0
  9 10  1  0
 10 11  1  0
 11 12  2  0
 11 13  1  0
 13 14  1  0
 14 15  2  0
 15 16  1  0
 16 17  2  0
 17 18  1  0
 18 19  1  0
 19 20  2  0
 19 21  2  0
 19 22  1  0
 22 23  1  0
 23 24  1  0
 24 25  1  0
 25 26  1  0
 18 27  2  0
  9 28  1  0
 28 29  2  0
 29  6  1  0
 27 14  1  0
 26 22  1  0
  1 30  1  0
  1 31  1  0
  1 32  1  0
  2 33  1  0
  2 34  1  0
  7 35  1  0
  8 36  1  0
 10 37  1  0
 10 38  1  0
 15 39  1  0
 16 40  1  0
 17 41  1  0
 22 42  1  0
 23 43  1  0
 23 44  1  0
 24 45  1  0
 24 46  1  0
 25 47  1  0
 25 48  1  0
 26 49  1  0
 26 50  1  0
 27 51  1  0
 28 52  1  0
 29 53  1  0
M  CHG  2  13  -1  22   1
M  END
>  <UniqueID>  (40) 
40

>  <SMILES>  (40) 
CCS(=O)(=O)c1ccc(CC(=O)[N-]c2cccc(S(=O)(=O)[NH+]3CCCC3)c2)cc1

>  <Energy>  (40) 
50.75102763702085

>  <Genealogy>  (40) 
CCS(=O)(=O)c1ccc(CC(=O)[N-]c2cccc(S(=O)(=O)[NH+]3CCCC3)c2)cc1 (protonated)
CCS(=O)(=O)c1ccc(CC(=O)[N-]c2cccc(S(=O)(=O)[NH+]3CCCC3)c2)cc1 (3D coordinates assigned)
CCS(=O)(=O)c1ccc(CC(=O)[N-]c2cccc(S(=O)(=O)[NH+]3CCCC3)c2)cc1 (nonaromatic ring conformer: 50.75102763702085 kcal/mol)

>  <smiles>  (40) 
CCS(=O)(=O)c1ccc(CC(=O)Nc2cccc(S(=O)(=O)N3CCCC3)c2)cc1

>  <score_type>  (40) 
oracle

>  <origin>  (40) 
adgpu

>  <m_score__min__energy>  (40) 
-12.01

>  <m_primary>  (40) 
energy

$$$$
40:0
     RDKit          3D

 58 62  0  0  0  0  0  0  0  0999 V2000
   -4.6550   13.6950  -31.1830 C   0  0  0  0  0  0  0  0  0  0  0  0
   -4.3350   13.9400  -32.6360 C   0  0  0  0  0  0  0  0  0  0  0  0
   -3.7120   12.9230  -33.3800 C   0  0  0  0  0  0  0  0  0  0  0  0
   -3.3880   13.1190  -34.7250 C   0  0  0  0  0  0  0  0  0  0  0  0
   -3.6820   14.3290  -35.3450 C   0  0  0  0  0  0  0  0  0  0  0  0
   -4.2970   15.3540  -34.6220 C   0  0  0  0  0  0  0  0  0  0  0  0
   -4.6100   15.1840  -33.2600 C   0  0  0  0  0  0  0  0  0  0  0  0
   -5.2760   16.3190  -32.5230 C   0  0  0  0  0  0  0  0  0  0  0  0
   -6.5270   17.0970  -33.6010 S   0  0  0  0  0  0  0  0  0  0  0  0
   -5.9350   18.7590  -33.2660 C   0  0  0  0  0  0  0  0  0  0  0  0
   -6.6680   19.6590  -32.5610 N   0  0  0  0  0  0  0  0  0  0  0  0
   -5.8410   20.7160  -32.4720 C   0  0  0  0  0  0  0  0  0  0  0  0
   -6.0610   21.9040  -31.7830 C   0  0  0  0  0  0  0  0  0  0  0  0
   -5.0060   22.8390  -31.7230 C   0  0  0  0  0  0  0  0  0  0  0  0
   -5.1730   24.2970  -30.7450 S   0  0  0  0  0  0  0  0  0  0  0  0
   -5.9230   25.3290  -31.5500 O   0  0  0  0  0  0  0  0  0  0  0  0
   -5.9660   23.9810  -29.5010 O   0  0  0  0  0  0  0  0  0  0  0  0
   -3.6240   24.9510  -30.2890 N   0  0  0  0  0  0  0  0  0  0  0  0
   -2.6250   24.2390  -29.5450 C   0  0  0  0  0  0  0  0  0  0  0  0
   -2.6470   22.8390  -29.4440 C   0  0  0  0  0  0  0  0  0  0  0  0
   -1.6250   22.1620  -28.7640 C   0  0  0  0  0  0  0  0  0  0  0  0
   -0.5940   22.8950  -28.1300 C   0  0  0  0  0  0  0  0  0  0  0  0
   -0.6130   24.3000  -28.1760 C   0  0  0  0  0  0  0  0  0  0  0  0
   -1.6160   24.9690  -28.8870 C   0  0  0  0  0  0  0  0  0  0  0  0
   -1.6040   26.3600  -28.9500 O   0  0  0  0  0  0  0  0  0  0  0  0
    0.4420   22.1820  -27.2890 C   0  0  0  0  0  0  0  0  0  0  0  0
    0.6110   20.7730  -27.6810 N   0  0  0  0  0  0  0  0  0  0  0  0
   -0.6800   20.0760  -27.7370 C   0  0  0  0  0  0  0  0  0  0  0  0
   -1.5720   20.6610  -28.8350 C   0  0  0  0  0  0  0  0  0  0  0  0
   -3.7780   22.5650  -32.3760 C   0  0  0  0  0  0  0  0  0  0  0  0
   -3.5930   21.3580  -33.0750 C   0  0  0  0  0  0  0  0  0  0  0  0
   -4.6570   20.4520  -33.0970 C   0  0  0  0  0  0  0  0  0  0  0  0
   -4.7090   19.2170  -33.6260 N   0  0  0  0  0  0  0  0  0  0  0  0
   -3.6190   18.4720  -34.2560 C   0  0  0  0  0  0  0  0  0  0  0  0
   -3.9393   14.2429  -30.5525 H   0  0  0  0  0  0  0  0  0  0  0  0
   -5.6756   14.0448  -30.9683 H   0  0  0  0  0  0  0  0  0  0  0  0
   -4.5836   12.6185  -30.9683 H   0  0  0  0  0  0  0  0  0  0  0  0
   -3.4770   11.9625  -32.8982 H   0  0  0  0  0  0  0  0  0  0  0  0
   -2.8994   12.3148  -35.2947 H   0  0  0  0  0  0  0  0  0  0  0  0
   -3.4301   14.4788  -36.4052 H   0  0  0  0  0  0  0  0  0  0  0  0
   -4.5391   16.3034  -35.1219 H   0  0  0  0  0  0  0  0  0  0  0  0
   -5.7638   15.9310  -31.6167 H   0  0  0  0  0  0  0  0  0  0  0  0
   -4.5195   17.0665  -32.2421 H   0  0  0  0  0  0  0  0  0  0  0  0
   -7.0278   22.1084  -31.2997 H   0  0  0  0  0  0  0  0  0  0  0  0
   -3.4704   22.2703  -29.9008 H   0  0  0  0  0  0  0  0  0  0  0  0
    0.1635   24.8758  -27.6511 H   0  0  0  0  0  0  0  0  0  0  0  0
    1.4064   22.6986  -27.4037 H   0  0  0  0  0  0  0  0  0  0  0  0
    0.0963   22.2002  -26.2449 H   0  0  0  0  0  0  0  0  0  0  0  0
    1.0640   20.7310  -28.6260 H   0  0  0  0  0  0  0  0  0  0  0  0
   -0.5047   19.0103  -27.9457 H   0  0  0  0  0  0  0  0  0  0  0  0
   -1.1879   20.2007  -26.7693 H   0  0  0  0  0  0  0  0  0  0  0  0
   -1.1722   20.3639  -29.8158 H   0  0  0  0  0  0  0  0  0  0  0  0
   -2.5917   20.2736  -28.6927 H   0  0  0  0  0  0  0  0  0  0  0  0
   -2.9627   23.3024  -32.3359 H   0  0  0  0  0  0  0  0  0  0  0  0
   -2.6447   21.1353  -33.5860 H   0  0  0  0  0  0  0  0  0  0  0  0
   -2.9771   18.0332  -33.4779 H   0  0  0  0  0  0  0  0  0  0  0  0
   -4.0370   17.6698  -34.8819 H   0  0  0  0  0  0  0  0  0  0  0  0
   -3.0234   19.1528  -34.8819 H   0  0  0  0  0  0  0  0  0  0  0  0
  1  2  1  0
  2  3  2  0
  3  4  1  0
  4  5  2  0
  5  6  1  0
  6  7  2  0
  7  8  1  0
  8  9  1  0
  9 10  1  0
 10 11  2  0
 11 12  1  0
 12 13  2  0
 13 14  1  0
 14 15  1  0
 15 16  2  0
 15 17  2  0
 15 18  1  0
 18 19  1  0
 19 20  2  0
 20 21  1  0
 21 22  2  0
 22 23  1  0
 23 24  2  0
 24 25  1  0
 22 26  1  0
 26 27  1  0
 27 28  1  0
 28 29  1  0
 14 30  2  0
 30 31  1  0
 31 32  2  0
 32 33  1  0
 33 34  1  0
  7  2  1  0
 33 10  1  0
 32 12  1  0
 24 19  1  0
 29 21  1  0
  1 35  1  0
  1 36  1  0
  1 37  1  0
  3 38  1  0
  4 39  1  0
  5 40  1  0
  6 41  1  0
  8 42  1  0
  8 43  1  0
 13 44  1  0
 20 45  1  0
 23 46  1  0
 26 47  1  0
 26 48  1  0
 27 49  1  0
 28 50  1  0
 28 51  1  0
 29 52  1  0
 29 53  1  0
 30 54  1  0
 31 55  1  0
 34 56  1  0
 34 57  1  0
 34 58  1  0
M  CHG  2  18  -1  25  -1
M  END
>  <UniqueID>  (41) 
41

>  <SMILES>  (41) 
Cc1ccccc1CSc1nc2cc(S(=O)(=O)[N-]c3cc4c(cc3[O-])CNCC4)ccc2n1C

>  <Energy>  (41) 
105.5617923391204

>  <Genealogy>  (41) 
Cc1ccccc1CSc1nc2cc(S(=O)(=O)[N-]c3cc4c(cc3[O-])CNCC4)ccc2n1C (protonated)
Cc1ccccc1CSc1nc2cc(S(=O)(=O)[N-]c3cc4c(cc3[O-])CNCC4)ccc2n1C (3D coordinates assigned)
Cc1ccccc1CSc1nc2cc(S(=O)(=O)[N-]c3cc4c(cc3[O-])CNCC4)ccc2n1C (nonaromatic ring conformer: 105.5617923391204 kcal/mol)

>  <smiles>  (41) 
Cc1ccccc1CSc1nc2cc(S(=O)(=O)Nc3cc4c(cc3O)CNCC4)ccc2n1C

>  <score_type>  (41) 
oracle

>  <origin>  (41) 
adgpu

>  <m_score__min__energy>  (41) 
-15.56

>  <m_primary>  (41) 
energy

$$$$
41:0
     RDKit          3D

 62 65  0  0  0  0  0  0  0  0999 V2000
   -4.1930   24.0170  -28.5560 C   0  0  0  0  0  0  0  0  0  0  0  0
   -3.3600   24.5770  -29.6560 C   0  0  0  0  0  0  0  0  0  0  0  0
   -3.7750   24.5160  -30.8460 O   0  0  0  0  0  0  0  0  0  0  0  0
   -2.1480   25.2670  -29.3410 N   0  0  0  0  0  0  0  0  0  0  0  0
   -0.8840   24.5900  -29.0760 C   0  0  0  0  0  0  0  0  0  0  0  0
   -0.7320   24.3120  -27.6000 C   0  0  0  0  0  0  0  0  0  0  0  0
   -1.3810   25.1580  -26.6850 C   0  0  0  0  0  0  0  0  0  0  0  0
   -1.2760   24.9270  -25.3090 C   0  0  0  0  0  0  0  0  0  0  0  0
   -0.5200   23.8560  -24.8350 C   0  0  0  0  0  0  0  0  0  0  0  0
    0.1380   23.0140  -25.7310 C   0  0  0  0  0  0  0  0  0  0  0  0
    0.0560   23.2410  -27.1190 C   0  0  0  0  0  0  0  0  0  0  0  0
    0.7600   22.3970  -28.0410 N   0  0  0  0  0  0  0  0  0  0  0  0
    0.3330   20.7520  -28.3850 S   0  0  0  0  0  0  0  0  0  0  0  0
    1.4870   20.0550  -29.0500 O   0  0  0  0  0  0  0  0  0  0  0  0
    0.0130   20.0430  -27.1010 O   0  0  0  0  0  0  0  0  0  0  0  0
   -1.0960   20.7380  -29.4160 C   0  0  0  0  0  0  0  0  0  0  0  0
   -2.3460   21.1160  -28.9120 C   0  0  0  0  0  0  0  0  0  0  0  0
   -3.4900   20.9860  -29.7030 C   0  0  0  0  0  0  0  0  0  0  0  0
   -3.3950   20.4980  -31.0180 C   0  0  0  0  0  0  0  0  0  0  0  0
   -4.6150   20.3070  -31.8370 C   0  0  0  0  0  0  0  0  0  0  0  0
   -4.5200   19.7530  -33.1260 C   0  0  0  0  0  0  0  0  0  0  0  0
   -5.6610   19.6050  -33.9160 C   0  0  0  0  0  0  0  0  0  0  0  0
   -6.9090   20.0060  -33.4330 C   0  0  0  0  0  0  0  0  0  0  0  0
   -7.0240   20.5630  -32.1490 C   0  0  0  0  0  0  0  0  0  0  0  0
   -8.3810   20.9530  -31.6120 C   0  0  0  0  0  0  0  0  0  0  0  0
   -8.4270   22.3770  -31.2120 N   0  0  0  0  0  0  0  0  0  0  0  0
   -8.0780   23.2660  -32.3500 C   0  0  0  0  0  0  0  0  0  0  0  0
   -6.6430   23.8120  -32.2510 C   0  0  0  0  0  0  0  0  0  0  0  0
   -6.4310   24.5840  -31.0150 N   0  0  0  0  0  0  0  0  0  0  0  0
   -7.2380   24.1140  -29.8750 C   0  0  0  0  0  0  0  0  0  0  0  0
   -7.6030   22.6290  -30.0010 C   0  0  0  0  0  0  0  0  0  0  0  0
   -5.8740   20.7010  -31.3510 C   0  0  0  0  0  0  0  0  0  0  0  0
   -2.1340   20.1510  -31.5280 C   0  0  0  0  0  0  0  0  0  0  0  0
   -0.9940   20.2590  -30.7270 C   0  0  0  0  0  0  0  0  0  0  0  0
   -3.7623   24.3065  -27.5861 H   0  0  0  0  0  0  0  0  0  0  0  0
   -5.2171   24.4108  -28.6347 H   0  0  0  0  0  0  0  0  0  0  0  0
   -4.2149   22.9200  -28.6347 H   0  0  0  0  0  0  0  0  0  0  0  0
   -0.8603   23.6387  -29.6278 H   0  0  0  0  0  0  0  0  0  0  0  0
   -0.0579   25.2387  -29.4026 H   0  0  0  0  0  0  0  0  0  0  0  0
   -1.9754   26.0074  -27.0528 H   0  0  0  0  0  0  0  0  0  0  0  0
   -1.7910   25.5918  -24.5999 H   0  0  0  0  0  0  0  0  0  0  0  0
   -0.4424   23.6748  -23.7528 H   0  0  0  0  0  0  0  0  0  0  0  0
    0.7259   22.1656  -25.3509 H   0  0  0  0  0  0  0  0  0  0  0  0
   -2.4276   21.5163  -27.8907 H   0  0  0  0  0  0  0  0  0  0  0  0
   -4.4717   21.2673  -29.2942 H   0  0  0  0  0  0  0  0  0  0  0  0
   -3.5411   19.4346  -33.5138 H   0  0  0  0  0  0  0  0  0  0  0  0
   -5.5773   19.1708  -34.9232 H   0  0  0  0  0  0  0  0  0  0  0  0
   -7.8044   19.8851  -34.0604 H   0  0  0  0  0  0  0  0  0  0  0  0
   -9.1361   20.7782  -32.3925 H   0  0  0  0  0  0  0  0  0  0  0  0
   -8.5838   20.3414  -30.7204 H   0  0  0  0  0  0  0  0  0  0  0  0
   -8.1750   22.6961  -33.2858 H   0  0  0  0  0  0  0  0  0  0  0  0
   -8.7652   24.1246  -32.3270 H   0  0  0  0  0  0  0  0  0  0  0  0
   -5.9394   22.9666  -32.2669 H   0  0  0  0  0  0  0  0  0  0  0  0
   -6.4756   24.4848  -33.1050 H   0  0  0  0  0  0  0  0  0  0  0  0
   -5.4210   24.5160  -30.7550 H   0  0  0  0  0  0  0  0  0  0  0  0
   -6.6631   24.2608  -28.9487 H   0  0  0  0  0  0  0  0  0  0  0  0
   -8.1731   24.6931  -29.8597 H   0  0  0  0  0  0  0  0  0  0  0  0
   -6.6783   22.0369  -30.0671 H   0  0  0  0  0  0  0  0  0  0  0  0
   -8.1882   22.3387  -29.1160 H   0  0  0  0  0  0  0  0  0  0  0  0
   -5.9604   21.1208  -30.3379 H   0  0  0  0  0  0  0  0  0  0  0  0
   -2.0427   19.7921  -32.5638 H   0  0  0  0  0  0  0  0  0  0  0  0
   -0.0126   19.9664  -31.1285 H   0  0  0  0  0  0  0  0  0  0  0  0
  1  2  1  0
  2  3  2  0
  2  4  1  0
  4  5  1  0
  5  6  1  0
  6  7  2  0
  7  8  1  0
  8  9  2  0
  9 10  1  0
 10 11  2  0
 11 12  1  0
 12 13  1  0
 13 14  2  0
 13 15  2  0
 13 16  1  0
 16 17  2  0
 17 18  1  0
 18 19  2  0
 19 20  1  0
 20 21  2  0
 21 22  1  0
 22 23  2  0
 23 24  1  0
 24 25  1  0
 25 26  1  0
 26 27  1  0
 27 28  1  0
 28 29  1  0
 29 30  1  0
 30 31  1  0
 24 32  2  0
 19 33  1  0
 33 34  2  0
 11  6  1  0
 34 16  1  0
 32 20  1  0
 31 26  1  0
  1 35  1  0
  1 36  1  0
  1 37  1  0
  5 38  1  0
  5 39  1  0
  7 40  1  0
  8 41  1  0
  9 42  1  0
 10 43  1  0
 17 44  1  0
 18 45  1  0
 21 46  1  0
 22 47  1  0
 23 48  1  0
 25 49  1  0
 25 50  1  0
 27 51  1  0
 27 52  1  0
 28 53  1  0
 28 54  1  0
 29 55  1  0
 30 56  1  0
 30 57  1  0
 31 58  1  0
 31 59  1  0
 32 60  1  0
 33 61  1  0
 34 62  1  0
M  CHG  2   4  -1  12  -1
M  END
>  <UniqueID>  (42) 
42

>  <SMILES>  (42) 
CC(=O)[N-]Cc1ccccc1[N-]S(=O)(=O)c1ccc(-c2cccc(CN3CCNCC3)c2)cc1

>  <Energy>  (42) 
82.49074305568669

>  <Genealogy>  (42) 
CC(=O)[N-]Cc1ccccc1[N-]S(=O)(=O)c1ccc(-c2cccc(CN3CCNCC3)c2)cc1 (protonated)
CC(=O)[N-]Cc1ccccc1[N-]S(=O)(=O)c1ccc(-c2cccc(CN3CCNCC3)c2)cc1 (3D coordinates assigned)
CC(=O)[N-]Cc1ccccc1[N-]S(=O)(=O)c1ccc(-c2cccc(CN3CCNCC3)c2)cc1 (nonaromatic ring conformer: 82.49074305568669 kcal/mol)

>  <smiles>  (42) 
CC(=O)NCc1ccccc1NS(=O)(=O)c1ccc(-c2cccc(CN3CCNCC3)c2)cc1

>  <score_type>  (42) 
oracle

>  <origin>  (42) 
adgpu

>  <m_score__min__energy>  (42) 
-12.15

>  <m_primary>  (42) 
energy

$$$$
42:0
     RDKit          3D

 62 65  0  0  0  0  0  0  0  0999 V2000
   -5.7000   17.2050  -33.9970 C   0  0  0  0  0  0  0  0  0  0  0  0
   -6.4810   18.3430  -33.4130 C   0  0  0  0  0  0  0  0  0  0  0  0
   -6.1050   19.6720  -33.6700 C   0  0  0  0  0  0  0  0  0  0  0  0
   -6.8470   20.7290  -33.1360 C   0  0  0  0  0  0  0  0  0  0  0  0
   -7.9830   20.4710  -32.3570 C   0  0  0  0  0  0  0  0  0  0  0  0
   -8.8900   21.8010  -31.6380 S   0  0  0  0  0  0  0  0  0  0  0  0
   -8.9330   22.9610  -32.5920 O   0  0  0  0  0  0  0  0  0  0  0  0
  -10.3010   21.3700  -31.3440 O   0  0  0  0  0  0  0  0  0  0  0  0
   -8.1110   22.2940  -30.1760 N   0  0  0  0  0  0  0  0  0  0  0  0
   -6.8980   23.0400  -30.2300 C   0  0  0  0  0  0  0  0  0  0  0  0
   -6.8980   24.3980  -29.8930 C   0  0  0  0  0  0  0  0  0  0  0  0
   -5.7190   25.1400  -29.9850 C   0  0  0  0  0  0  0  0  0  0  0  0
   -4.5330   24.5320  -30.4110 C   0  0  0  0  0  0  0  0  0  0  0  0
   -3.3680   25.2890  -30.4670 O   0  0  0  0  0  0  0  0  0  0  0  0
   -4.5250   23.1650  -30.7580 C   0  0  0  0  0  0  0  0  0  0  0  0
   -3.2860   22.4980  -31.2250 C   0  0  0  0  0  0  0  0  0  0  0  0
   -2.1570   22.4290  -30.3980 C   0  0  0  0  0  0  0  0  0  0  0  0
   -0.9860   21.8190  -30.8510 C   0  0  0  0  0  0  0  0  0  0  0  0
   -0.9160   21.2610  -32.1400 C   0  0  0  0  0  0  0  0  0  0  0  0
    0.3760   20.7010  -32.5980 C   0  0  0  0  0  0  0  0  0  0  0  0
    1.0060   21.2480  -33.5440 O   0  0  0  0  0  0  0  0  0  0  0  0
    0.9380   19.5680  -31.9250 N   0  0  0  0  0  0  0  0  0  0  0  0
    1.0470   19.4660  -30.4710 C   0  0  2  0  0  0  0  0  0  0  0  0
    2.4270   18.8970  -30.0740 C   0  0  0  0  0  0  0  0  0  0  0  0
    2.3920   18.1280  -28.7410 C   0  0  0  0  0  0  0  0  0  0  0  0
    1.2690   18.6460  -27.8380 C   0  0  0  0  0  0  0  0  0  0  0  0
   -0.0650   18.4490  -28.4530 N   0  0  0  0  0  0  0  0  0  0  0  0
   -1.0510   19.3470  -27.8310 C   0  0  0  0  0  0  0  0  0  0  0  0
   -0.0810   18.5700  -29.9350 C   0  0  0  0  0  0  0  0  0  0  0  0
   -2.0660   21.2970  -32.9670 C   0  0  0  0  0  0  0  0  0  0  0  0
   -2.1020   20.6400  -34.2420 N   0  0  0  0  0  0  0  0  0  0  0  0
   -3.2280   21.9360  -32.5080 C   0  0  0  0  0  0  0  0  0  0  0  0
   -5.7160   22.4250  -30.6560 C   0  0  0  0  0  0  0  0  0  0  0  0
   -8.3650   19.1450  -32.1070 C   0  0  0  0  0  0  0  0  0  0  0  0
   -7.6230   18.0860  -32.6390 C   0  0  0  0  0  0  0  0  0  0  0  0
   -5.2802   16.5934  -33.1848 H   0  0  0  0  0  0  0  0  0  0  0  0
   -6.3638   16.5850  -34.6174 H   0  0  0  0  0  0  0  0  0  0  0  0
   -4.8827   17.6014  -34.6174 H   0  0  0  0  0  0  0  0  0  0  0  0
   -5.2235   19.8813  -34.2937 H   0  0  0  0  0  0  0  0  0  0  0  0
   -6.5383   21.7672  -33.3278 H   0  0  0  0  0  0  0  0  0  0  0  0
   -7.8269   24.8810  -29.5556 H   0  0  0  0  0  0  0  0  0  0  0  0
   -5.7225   26.2079  -29.7213 H   0  0  0  0  0  0  0  0  0  0  0  0
   -2.1937   22.8581  -29.3858 H   0  0  0  0  0  0  0  0  0  0  0  0
   -0.1068   21.7742  -30.1914 H   0  0  0  0  0  0  0  0  0  0  0  0
    0.9504   20.4685  -30.0286 H   0  0  0  0  0  0  0  0  0  0  0  0
    2.7666   18.2131  -30.8658 H   0  0  0  0  0  0  0  0  0  0  0  0
    3.1132   19.7475  -29.9487 H   0  0  0  0  0  0  0  0  0  0  0  0
    2.2252   17.0602  -28.9460 H   0  0  0  0  0  0  0  0  0  0  0  0
    3.3525   18.2760  -28.2257 H   0  0  0  0  0  0  0  0  0  0  0  0
    1.3034   18.1052  -26.8807 H   0  0  0  0  0  0  0  0  0  0  0  0
    1.4208   19.7250  -27.6874 H   0  0  0  0  0  0  0  0  0  0  0  0
   -0.9726   19.2756  -26.7361 H   0  0  0  0  0  0  0  0  0  0  0  0
   -0.8540   20.3824  -28.1460 H   0  0  0  0  0  0  0  0  0  0  0  0
   -2.0635   19.0543  -28.1460 H   0  0  0  0  0  0  0  0  0  0  0  0
    0.0301   17.5662  -30.3709 H   0  0  0  0  0  0  0  0  0  0  0  0
   -1.0367   19.0345  -30.2194 H   0  0  0  0  0  0  0  0  0  0  0  0
   -2.8280   20.8960  -34.9500 H   0  0  0  0  0  0  0  0  0  0  0  0
   -1.5100   19.8080  -34.4530 H   0  0  0  0  0  0  0  0  0  0  0  0
   -4.1077   21.9969  -33.1656 H   0  0  0  0  0  0  0  0  0  0  0  0
   -5.7184   21.3554  -30.9129 H   0  0  0  0  0  0  0  0  0  0  0  0
   -9.2517   18.9373  -31.4901 H   0  0  0  0  0  0  0  0  0  0  0  0
   -7.9354   17.0483  -32.4503 H   0  0  0  0  0  0  0  0  0  0  0  0
  1  2  1  0
  2  3  2  0
  3  4  1  0
  4  5  2  0
  5  6  1  0
  6  7  2  0
  6  8  2  0
  6  9  1  0
  9 10  1  0
 10 11  2  0
 11 12  1  0
 12 13  2  0
 13 14  1  0
 13 15  1  0
 15 16  1  0
 16 17  2  0
 17 18  1  0
 18 19  2  0
 19 20  1  0
 20 21  2  0
 20 22  1  0
 22 23  1  0
 23 24  1  0
 24 25  1  0
 25 26  1  0
 26 27  1  0
 27 28  1  0
 27 29  1  0
 19 30  1  0
 30 31  1  0
 30 32  2  0
 15 33  2  0
  5 34  1  0
 34 35  2  0
 35  2  1  0
 33 10  1  0
 32 16  1  0
 29 23  1  0
  1 36  1  0
  1 37  1  0
  1 38  1  0
  3 39  1  0
  4 40  1  0
 11 41  1  0
 12 42  1  0
 17 43  1  0
 18 44  1  0
 23 45  1  1
 24 46  1  0
 24 47  1  0
 25 48  1  0
 25 49  1  0
 26 50  1  0
 26 51  1  0
 28 52  1  0
 28 53  1  0
 28 54  1  0
 29 55  1  0
 29 56  1  0
 31 57  1  0
 31 58  1  0
 32 59  1  0
 33 60  1  0
 34 61  1  0
 35 62  1  0
M  CHG  3   9  -1  14  -1  22  -1
M  END
>  <UniqueID>  (43) 
43

>  <SMILES>  (43) 
Cc1ccc(S(=O)(=O)[N-]c2ccc([O-])c(-c3ccc(C(=O)[N-][C@@H]4CCCN(C)C4)c(N)c3)c2)cc1

>  <Energy>  (43) 
90.41004665209583

>  <Genealogy>  (43) 
Cc1ccc(S(=O)(=O)[N-]c2ccc([O-])c(-c3ccc(C(=O)[N-]C4CCCN(C)C4)c(N)c3)c2)cc1 (protonated)
Cc1ccc(S(=O)(=O)[N-]c2ccc([O-])c(-c3ccc(C(=O)[N-][C@@H]4CCCN(C)C4)c(N)c3)c2)cc1 (chirality)
Cc1ccc(S(=O)(=O)[N-]c2ccc([O-])c(-c3ccc(C(=O)[N-][C@@H]4CCCN(C)C4)c(N)c3)c2)cc1 (3D coordinates assigned)
Cc1ccc(S(=O)(=O)[N-]c2ccc([O-])c(-c3ccc(C(=O)[N-][C@@H]4CCCN(C)C4)c(N)c3)c2)cc1 (nonaromatic ring conformer: 90.41004665209583 kcal/mol)

>  <smiles>  (43) 
Cc1ccc(S(=O)(=O)Nc2ccc(O)c(-c3ccc(C(=O)NC4CCCN(C)C4)c(N)c3)c2)cc1

>  <score_type>  (43) 
oracle

>  <origin>  (43) 
adgpu

>  <m_score__min__energy>  (43) 
-13.56

>  <m_primary>  (43) 
energy

$$$$
43:0
     RDKit          3D

 47 50  0  0  0  0  0  0  0  0999 V2000
   -6.1020   18.8380  -34.5740 O   0  0  0  0  0  0  0  0  0  0  0  0
   -6.2220   19.7290  -33.6980 C   0  0  0  0  0  0  0  0  0  0  0  0
   -5.2550   20.7560  -33.4630 N   0  0  0  0  0  0  0  0  0  0  0  0
   -5.7990   21.5220  -32.3880 C   0  0  0  0  0  0  0  0  0  0  0  0
   -5.2360   22.6560  -31.8140 C   0  0  0  0  0  0  0  0  0  0  0  0
   -5.9270   23.2920  -30.7610 C   0  0  0  0  0  0  0  0  0  0  0  0
   -5.2950   24.7900  -30.0770 S   0  0  0  0  0  0  0  0  0  0  0  0
   -5.3570   24.7060  -28.5780 O   0  0  0  0  0  0  0  0  0  0  0  0
   -6.1170   25.9680  -30.5130 O   0  0  0  0  0  0  0  0  0  0  0  0
   -3.6380   24.9950  -30.5430 N   0  0  0  0  0  0  0  0  0  0  0  0
   -2.5540   24.1740  -30.0880 C   0  0  0  0  0  0  0  0  0  0  0  0
   -2.4680   22.8130  -30.4290 C   0  0  0  0  0  0  0  0  0  0  0  0
   -1.4580   22.0020  -29.8880 C   0  0  0  0  0  0  0  0  0  0  0  0
   -1.3970   20.5640  -30.2260 C   0  0  0  0  0  0  0  0  0  0  0  0
   -1.4370   19.7090  -29.2960 O   0  0  0  0  0  0  0  0  0  0  0  0
   -1.2850   20.1220  -31.5910 N   0  0  0  0  0  0  0  0  0  0  0  0
   -1.9840   18.8970  -32.0040 C   0  0  0  0  0  0  0  0  0  0  0  0
   -1.5730   18.4550  -33.4140 C   0  0  0  0  0  0  0  0  0  0  0  0
   -1.6230   19.6370  -34.3850 C   0  0  0  0  0  0  0  0  0  0  0  0
   -0.7950   20.8510  -33.9060 C   0  0  0  0  0  0  0  0  0  0  0  0
   -0.2670   20.7160  -32.4680 C   0  0  0  0  0  0  0  0  0  0  0  0
   -0.4960   22.5760  -29.0420 C   0  0  0  0  0  0  0  0  0  0  0  0
   -0.5430   23.9420  -28.7460 C   0  0  0  0  0  0  0  0  0  0  0  0
   -1.5700   24.7410  -29.2630 C   0  0  0  0  0  0  0  0  0  0  0  0
   -1.6170   26.0950  -28.9390 O   0  0  0  0  0  0  0  0  0  0  0  0
   -7.1540   22.7570  -30.3010 C   0  0  0  0  0  0  0  0  0  0  0  0
   -7.7160   21.6180  -30.9110 C   0  0  0  0  0  0  0  0  0  0  0  0
   -7.0170   21.0230  -31.9570 C   0  0  0  0  0  0  0  0  0  0  0  0
   -7.3390   19.8720  -32.7760 C   0  0  0  0  0  0  0  0  0  0  0  0
   -8.3730   19.1570  -32.7170 O   0  0  0  0  0  0  0  0  0  0  0  0
   -4.3540   20.9060  -33.9640 H   0  0  0  0  0  0  0  0  0  0  0  0
   -4.2732   23.0488  -32.1728 H   0  0  0  0  0  0  0  0  0  0  0  0
   -3.1994   22.3792  -31.1267 H   0  0  0  0  0  0  0  0  0  0  0  0
   -1.7422   18.0924  -31.2939 H   0  0  0  0  0  0  0  0  0  0  0  0
   -3.0640   19.1056  -32.0121 H   0  0  0  0  0  0  0  0  0  0  0  0
   -0.5486   18.0554  -33.3834 H   0  0  0  0  0  0  0  0  0  0  0  0
   -2.2732   17.6809  -33.7612 H   0  0  0  0  0  0  0  0  0  0  0  0
   -1.2301   19.3074  -35.3582 H   0  0  0  0  0  0  0  0  0  0  0  0
   -2.6718   19.9616  -34.4526 H   0  0  0  0  0  0  0  0  0  0  0  0
    0.0651   20.9718  -34.5810 H   0  0  0  0  0  0  0  0  0  0  0  0
   -1.4673   21.7216  -33.9192 H   0  0  0  0  0  0  0  0  0  0  0  0
    0.6258   20.0734  -32.4707 H   0  0  0  0  0  0  0  0  0  0  0  0
   -0.0171   21.7180  -32.0891 H   0  0  0  0  0  0  0  0  0  0  0  0
    0.2979   21.9489  -28.6102 H   0  0  0  0  0  0  0  0  0  0  0  0
    0.2299   24.3905  -28.1045 H   0  0  0  0  0  0  0  0  0  0  0  0
   -7.6744   23.2355  -29.4583 H   0  0  0  0  0  0  0  0  0  0  0  0
   -8.6794   21.2109  -30.5703 H   0  0  0  0  0  0  0  0  0  0  0  0
  1  2  2  0
  2  3  1  0
  3  4  1  0
  4  5  2  0
  5  6  1  0
  6  7  1  0
  7  8  2  0
  7  9  2  0
  7 10  1  0
 10 11  1  0
 11 12  2  0
 12 13  1  0
 13 14  1  0
 14 15  2  0
 14 16  1  0
 16 17  1  0
 17 18  1  0
 18 19  1  0
 19 20  1  0
 20 21  1  0
 13 22  2  0
 22 23  1  0
 23 24  2  0
 24 25  1  0
  6 26  2  0
 26 27  1  0
 27 28  2  0
 28 29  1  0
 29 30  2  0
 29  2  1  0
 28  4  1  0
 24 11  1  0
 21 16  1  0
  3 31  1  0
  5 32  1  0
 12 33  1  0
 17 34  1  0
 17 35  1  0
 18 36  1  0
 18 37  1  0
 19 38  1  0
 19 39  1  0
 20 40  1  0
 20 41  1  0
 21 42  1  0
 21 43  1  0
 22 44  1  0
 23 45  1  0
 26 46  1  0
 27 47  1  0
M  CHG  2  10  -1  25  -1
M  END
>  <UniqueID>  (44) 
44

>  <SMILES>  (44) 
O=C1Nc2cc(S(=O)(=O)[N-]c3cc(C(=O)N4CCCCC4)ccc3[O-])ccc2C1=O

>  <Energy>  (44) 
93.51104289770478

>  <Genealogy>  (44) 
O=C1Nc2cc(S(=O)(=O)[N-]c3cc(C(=O)N4CCCCC4)ccc3[O-])ccc2C1=O (protonated)
O=C1Nc2cc(S(=O)(=O)[N-]c3cc(C(=O)N4CCCCC4)ccc3[O-])ccc2C1=O (3D coordinates assigned)
O=C1Nc2cc(S(=O)(=O)[N-]c3cc(C(=O)N4CCCCC4)ccc3[O-])ccc2C1=O (nonaromatic ring conformer: 93.51104289770478 kcal/mol)

>  <smiles>  (44) 
O=C1Nc2cc(S(=O)(=O)Nc3cc(C(=O)N4CCCCC4)ccc3O)ccc2C1=O

>  <score_type>  (44) 
oracle

>  <origin>  (44) 
adgpu

>  <m_score__min__energy>  (44) 
-14.15

>  <m_primary>  (44) 
energy

$$$$
44:0
     RDKit          3D

 61 64  0  0  0  0  0  0  0  0999 V2000
   -3.8340   24.4810  -30.8400 O   0  0  0  0  0  0  0  0  0  0  0  0
   -4.2430   24.2190  -29.6750 C   0  0  0  0  0  0  0  0  0  0  0  0
   -5.6450   24.3170  -29.3730 N   0  0  0  0  0  0  0  0  0  0  0  0
   -6.6530   24.4980  -30.4150 C   0  0  0  0  0  0  0  0  0  0  0  0
   -7.1690   23.1570  -30.8630 C   0  0  0  0  0  0  0  0  0  0  0  0
   -6.3550   22.0190  -30.7600 C   0  0  0  0  0  0  0  0  0  0  0  0
   -6.8140   20.7790  -31.2120 C   0  0  0  0  0  0  0  0  0  0  0  0
   -8.0840   20.6650  -31.7960 C   0  0  0  0  0  0  0  0  0  0  0  0
   -8.6650   19.0990  -32.3770 S   0  0  0  0  0  0  0  0  0  0  0  0
   -9.1000   18.2640  -31.2030 O   0  0  0  0  0  0  0  0  0  0  0  0
   -9.8610   19.3150  -33.2630 O   0  0  0  0  0  0  0  0  0  0  0  0
   -7.4290   18.2420  -33.2730 N   0  0  0  0  0  0  0  0  0  0  0  0
   -6.4790   19.1990  -33.8620 C   0  0  0  0  0  0  0  0  0  0  0  0
   -5.3360   18.4400  -34.5630 C   0  0  0  0  0  0  0  0  0  0  0  0
   -4.7690   17.3590  -33.8230 O   0  0  0  0  0  0  0  0  0  0  0  0
   -5.2350   17.2960  -32.4890 C   0  0  0  0  0  0  0  0  0  0  0  0
   -6.7710   17.2090  -32.4400 C   0  0  0  0  0  0  0  0  0  0  0  0
   -8.8960   21.8030  -31.9100 C   0  0  0  0  0  0  0  0  0  0  0  0
   -8.4400   23.0420  -31.4500 C   0  0  0  0  0  0  0  0  0  0  0  0
   -3.2690   23.7710  -28.6520 C   0  0  0  0  0  0  0  0  0  0  0  0
   -2.5170   24.6970  -27.9050 C   0  0  0  0  0  0  0  0  0  0  0  0
   -1.6360   24.2540  -26.9150 C   0  0  0  0  0  0  0  0  0  0  0  0
   -1.5030   22.8890  -26.6530 C   0  0  0  0  0  0  0  0  0  0  0  0
   -2.2380   21.9540  -27.3930 C   0  0  0  0  0  0  0  0  0  0  0  0
   -2.1060   20.2310  -27.0300 S   0  0  0  0  0  0  0  0  0  0  0  0
   -3.4830   19.6500  -26.8630 O   0  0  0  0  0  0  0  0  0  0  0  0
   -1.3680   20.0570  -25.7310 O   0  0  0  0  0  0  0  0  0  0  0  0
   -1.2690   19.3660  -28.3010 N   0  0  0  0  0  0  0  0  0  0  0  0
   -0.3330   18.3570  -27.7550 C   0  0  0  0  0  0  0  0  0  0  0  0
    1.1330   18.8130  -27.8670 C   0  0  0  0  0  0  0  0  0  0  0  0
    1.5330   19.0540  -29.2070 O   0  0  0  0  0  0  0  0  0  0  0  0
    0.5070   19.6220  -30.0170 C   0  0  0  0  0  0  0  0  0  0  0  0
   -0.6200   20.3150  -29.2280 C   0  0  0  0  0  0  0  0  0  0  0  0
   -3.0990   22.3980  -28.4050 C   0  0  0  0  0  0  0  0  0  0  0  0
   -5.9910   24.0640  -28.4210 H   0  0  0  0  0  0  0  0  0  0  0  0
   -7.4864   25.0957  -30.0172 H   0  0  0  0  0  0  0  0  0  0  0  0
   -6.2003   25.0180  -31.2721 H   0  0  0  0  0  0  0  0  0  0  0  0
   -5.3499   22.1033  -30.3210 H   0  0  0  0  0  0  0  0  0  0  0  0
   -6.1765   19.8885  -31.1093 H   0  0  0  0  0  0  0  0  0  0  0  0
   -7.0033   19.8281  -34.5965 H   0  0  0  0  0  0  0  0  0  0  0  0
   -6.0591   19.8295  -33.0644 H   0  0  0  0  0  0  0  0  0  0  0  0
   -5.7281   18.0348  -35.5075 H   0  0  0  0  0  0  0  0  0  0  0  0
   -4.5256   19.1718  -34.6956 H   0  0  0  0  0  0  0  0  0  0  0  0
   -4.8094   16.4063  -32.0018 H   0  0  0  0  0  0  0  0  0  0  0  0
   -4.9209   18.2116  -31.9665 H   0  0  0  0  0  0  0  0  0  0  0  0
   -7.0790   16.2168  -32.8015 H   0  0  0  0  0  0  0  0  0  0  0  0
   -7.0801   17.3763  -31.3977 H   0  0  0  0  0  0  0  0  0  0  0  0
   -9.8950   21.7203  -32.3629 H   0  0  0  0  0  0  0  0  0  0  0  0
   -9.0798   23.9314  -31.5483 H   0  0  0  0  0  0  0  0  0  0  0  0
   -2.6233   25.7741  -28.1014 H   0  0  0  0  0  0  0  0  0  0  0  0
   -1.0455   24.9828  -26.3404 H   0  0  0  0  0  0  0  0  0  0  0  0
   -0.8187   22.5467  -25.8627 H   0  0  0  0  0  0  0  0  0  0  0  0
   -0.5724   18.1869  -26.6949 H   0  0  0  0  0  0  0  0  0  0  0  0
   -0.4481   17.4333  -28.3411 H   0  0  0  0  0  0  0  0  0  0  0  0
    1.2572   19.7417  -27.2907 H   0  0  0  0  0  0  0  0  0  0  0  0
    1.7632   18.0016  -27.4741 H   0  0  0  0  0  0  0  0  0  0  0  0
    0.9678   20.3662  -30.6832 H   0  0  0  0  0  0  0  0  0  0  0  0
    0.0404   18.7877  -30.5613 H   0  0  0  0  0  0  0  0  0  0  0  0
   -0.1960   21.1502  -28.6512 H   0  0  0  0  0  0  0  0  0  0  0  0
   -1.3731   20.6853  -29.9391 H   0  0  0  0  0  0  0  0  0  0  0  0
   -3.6480   21.6639  -29.0130 H   0  0  0  0  0  0  0  0  0  0  0  0
  1  2  2  0
  2  3  1  0
  3  4  1  0
  4  5  1  0
  5  6  2  0
  6  7  1  0
  7  8  2  0
  8  9  1  0
  9 10  2  0
  9 11  2  0
  9 12  1  0
 12 13  1  0
 13 14  1  0
 14 15  1  0
 15 16  1  0
 16 17  1  0
  8 18  1  0
 18 19  2  0
  2 20  1  0
 20 21  2  0
 21 22  1  0
 22 23  2  0
 23 24  1  0
 24 25  1  0
 25 26  2  0
 25 27  2  0
 25 28  1  0
 28 29  1  0
 29 30  1  0
 30 31  1  0
 31 32  1  0
 32 33  1  0
 24 34  2  0
 19  5  1  0
 34 20  1  0
 17 12  1  0
 33 28  1  0
  3 35  1  0
  4 36  1  0
  4 37  1  0
  6 38  1  0
  7 39  1  0
 13 40  1  0
 13 41  1  0
 14 42  1  0
 14 43  1  0
 16 44  1  0
 16 45  1  0
 17 46  1  0
 17 47  1  0
 18 48  1  0
 19 49  1  0
 21 50  1  0
 22 51  1  0
 23 52  1  0
 29 53  1  0
 29 54  1  0
 30 55  1  0
 30 56  1  0
 32 57  1  0
 32 58  1  0
 33 59  1  0
 33 60  1  0
 34 61  1  0
M  END
>  <UniqueID>  (45) 
45

>  <SMILES>  (45) 
O=C(NCc1ccc(S(=O)(=O)N2CCOCC2)cc1)c1cccc(S(=O)(=O)N2CCOCC2)c1

>  <Energy>  (45) 
83.9342626883141

>  <Genealogy>  (45) 
O=C(NCc1ccc(S(=O)(=O)N2CCOCC2)cc1)c1cccc(S(=O)(=O)N2CCOCC2)c1 (3D coordinates assigned)
O=C(NCc1ccc(S(=O)(=O)N2CCOCC2)cc1)c1cccc(S(=O)(=O)N2CCOCC2)c1 (nonaromatic ring conformer: 83.9342626883141 kcal/mol)

>  <smiles>  (45) 
O=C(NCc1ccc(S(=O)(=O)N2CCOCC2)cc1)c1cccc(S(=O)(=O)N2CCOCC2)c1

>  <score_type>  (45) 
oracle

>  <origin>  (45) 
adgpu

>  <m_score__min__energy>  (45) 
-10.960000000000001

>  <m_primary>  (45) 
energy

$$$$
45:0
     RDKit          3D

 59 63  0  0  0  0  0  0  0  0999 V2000
   -0.1330   11.5480  -30.0660 C   0  0  0  0  0  0  0  0  0  0  0  0
    0.1460   12.1480  -31.3290 O   0  0  0  0  0  0  0  0  0  0  0  0
   -0.5220   13.2740  -31.8340 C   0  0  0  0  0  0  0  0  0  0  0  0
    0.2420   14.3510  -32.2870 C   0  0  0  0  0  0  0  0  0  0  0  0
   -0.3750   15.4920  -32.8010 C   0  0  0  0  0  0  0  0  0  0  0  0
   -1.7800   15.5740  -32.8810 C   0  0  0  0  0  0  0  0  0  0  0  0
   -2.4200   16.7180  -33.3820 O   0  0  0  0  0  0  0  0  0  0  0  0
   -2.0500   17.3970  -34.5780 C   0  0  0  0  0  0  0  0  0  0  0  0
   -2.5570   14.4820  -32.4400 C   0  0  0  0  0  0  0  0  0  0  0  0
   -4.3290   14.5040  -32.5190 S   0  0  0  0  0  0  0  0  0  0  0  0
   -4.7630   13.6030  -33.6410 O   0  0  0  0  0  0  0  0  0  0  0  0
   -4.9310   14.0060  -31.2340 O   0  0  0  0  0  0  0  0  0  0  0  0
   -4.8970   16.1300  -32.8180 N   0  0  0  0  0  0  0  0  0  0  0  0
   -5.7370   16.5950  -31.6880 C   0  0  0  0  0  0  0  0  0  0  0  0
   -6.6300   17.7960  -32.0630 C   0  0  0  0  0  0  0  0  0  0  0  0
   -6.1060   18.4580  -33.2560 N   0  0  0  0  0  0  0  0  0  0  0  0
   -5.3520   19.6650  -33.0990 C   0  0  0  0  0  0  0  0  0  0  0  0
   -4.0100   19.6670  -33.3460 N   0  0  0  0  0  0  0  0  0  0  0  0
   -3.2530   20.7960  -33.1910 C   0  0  0  0  0  0  0  0  0  0  0  0
   -1.7810   20.7430  -33.4340 C   0  0  0  0  0  0  0  0  0  0  0  0
   -3.8280   21.9580  -32.7610 N   0  0  0  0  0  0  0  0  0  0  0  0
   -5.1590   21.9750  -32.5100 C   0  0  0  0  0  0  0  0  0  0  0  0
   -6.0750   23.3000  -31.9770 S   0  0  0  0  0  0  0  0  0  0  0  0
   -7.4960   22.3840  -31.9590 C   0  0  0  0  0  0  0  0  0  0  0  0
   -7.2780   21.1090  -32.3450 C   0  0  0  0  0  0  0  0  0  0  0  0
   -5.9490   20.8460  -32.6660 C   0  0  0  0  0  0  0  0  0  0  0  0
   -8.5120   20.2960  -32.3340 C   0  0  0  0  0  0  0  0  0  0  0  0
   -9.5920   21.3110  -31.8740 C   0  0  0  0  0  0  0  0  0  0  0  0
   -8.8980   22.6740  -31.6220 C   0  0  0  0  0  0  0  0  0  0  0  0
   -5.9320   17.6520  -34.4690 C   0  0  0  0  0  0  0  0  0  0  0  0
   -5.6260   16.1880  -34.1010 C   0  0  0  0  0  0  0  0  0  0  0  0
   -1.9230   13.3520  -31.9010 C   0  0  0  0  0  0  0  0  0  0  0  0
    0.1826   12.2267  -29.2599 H   0  0  0  0  0  0  0  0  0  0  0  0
   -1.2128   11.3559  -29.9819 H   0  0  0  0  0  0  0  0  0  0  0  0
    0.4160   10.5985  -29.9819 H   0  0  0  0  0  0  0  0  0  0  0  0
    1.3397   14.2997  -32.2383 H   0  0  0  0  0  0  0  0  0  0  0  0
    0.2406   16.3354  -33.1470 H   0  0  0  0  0  0  0  0  0  0  0  0
   -1.5380   18.3366  -34.3228 H   0  0  0  0  0  0  0  0  0  0  0  0
   -1.3744   16.7597  -35.1675 H   0  0  0  0  0  0  0  0  0  0  0  0
   -2.9518   17.6192  -35.1675 H   0  0  0  0  0  0  0  0  0  0  0  0
   -4.0530   16.7440  -32.8940 H   0  0  0  0  0  0  0  0  0  0  0  0
   -6.3819   15.7648  -31.3643 H   0  0  0  0  0  0  0  0  0  0  0  0
   -5.0606   16.9226  -30.8848 H   0  0  0  0  0  0  0  0  0  0  0  0
   -7.6519   17.4412  -32.2629 H   0  0  0  0  0  0  0  0  0  0  0  0
   -6.6392   18.5124  -31.2283 H   0  0  0  0  0  0  0  0  0  0  0  0
   -1.2508   20.7239  -32.4704 H   0  0  0  0  0  0  0  0  0  0  0  0
   -1.5361   19.8355  -34.0053 H   0  0  0  0  0  0  0  0  0  0  0  0
   -1.4715   21.6306  -34.0053 H   0  0  0  0  0  0  0  0  0  0  0  0
   -8.7376   19.9056  -33.3373 H   0  0  0  0  0  0  0  0  0  0  0  0
   -8.4432   19.4109  -31.6846 H   0  0  0  0  0  0  0  0  0  0  0  0
  -10.3569   21.4215  -32.6568 H   0  0  0  0  0  0  0  0  0  0  0  0
  -10.0798   20.9566  -30.9540 H   0  0  0  0  0  0  0  0  0  0  0  0
   -9.3102   23.4569  -32.2755 H   0  0  0  0  0  0  0  0  0  0  0  0
   -9.0338   23.0528  -30.5982 H   0  0  0  0  0  0  0  0  0  0  0  0
   -6.8555   17.6905  -35.0654 H   0  0  0  0  0  0  0  0  0  0  0  0
   -5.0903   18.0576  -35.0495 H   0  0  0  0  0  0  0  0  0  0  0  0
   -6.5700   15.6309  -34.0088 H   0  0  0  0  0  0  0  0  0  0  0  0
   -5.0035   15.7406  -34.8899 H   0  0  0  0  0  0  0  0  0  0  0  0
   -2.5314   12.5159  -31.5258 H   0  0  0  0  0  0  0  0  0  0  0  0
  1  2  1  0
  2  3  1  0
  3  4  2  0
  4  5  1  0
  5  6  2  0
  6  7  1  0
  7  8  1  0
  6  9  1  0
  9 10  1  0
 10 11  2  0
 10 12  2  0
 10 13  1  0
 13 14  1  0
 14 15  1  0
 15 16  1  0
 16 17  1  0
 17 18  2  0
 18 19  1  0
 19 20  1  0
 19 21  2  0
 21 22  1  0
 22 23  1  0
 23 24  1  0
 24 25  2  0
 25 26  1  0
 25 27  1  0
 27 28  1  0
 28 29  1  0
 16 30  1  0
 30 31  1  0
  9 32  2  0
 32  3  1  0
 31 13  1  0
 26 17  1  0
 26 22  2  0
 29 24  1  0
  1 33  1  0
  1 34  1  0
  1 35  1  0
  4 36  1  0
  5 37  1  0
  8 38  1  0
  8 39  1  0
  8 40  1  0
 13 41  1  0
 14 42  1  0
 14 43  1  0
 15 44  1  0
 15 45  1  0
 20 46  1  0
 20 47  1  0
 20 48  1  0
 27 49  1  0
 27 50  1  0
 28 51  1  0
 28 52  1  0
 29 53  1  0
 29 54  1  0
 30 55  1  0
 30 56  1  0
 31 57  1  0
 31 58  1  0
 32 59  1  0
M  CHG  1  13   1
M  END
>  <UniqueID>  (46) 
46

>  <SMILES>  (46) 
COc1ccc(OC)c(S(=O)(=O)[NH+]2CCN(c3nc(C)nc4sc5c(c34)CCC5)CC2)c1

>  <Energy>  (46) 
121.11700115517777

>  <Genealogy>  (46) 
COc1ccc(OC)c(S(=O)(=O)[NH+]2CCN(c3nc(C)nc4sc5c(c34)CCC5)CC2)c1 (protonated)
COc1ccc(OC)c(S(=O)(=O)[NH+]2CCN(c3nc(C)nc4sc5c(c34)CCC5)CC2)c1 (3D coordinates assigned)
COc1ccc(OC)c(S(=O)(=O)[NH+]2CCN(c3nc(C)nc4sc5c(c34)CCC5)CC2)c1 (nonaromatic ring conformer: 121.11700115517777 kcal/mol)

>  <smiles>  (46) 
COc1ccc(OC)c(S(=O)(=O)N2CCN(c3nc(C)nc4sc5c(c34)CCC5)CC2)c1

>  <score_type>  (46) 
oracle

>  <origin>  (46) 
adgpu

>  <m_score__min__energy>  (46) 
-8.9000000000000004

>  <m_primary>  (46) 
energy

$$$$
46:0
     RDKit          3D

 57 60  0  0  0  0  0  0  0  0999 V2000
   -4.1480   25.4410  -30.6750 O   0  0  0  0  0  0  0  0  0  0  0  0
   -4.2420   24.1930  -30.8350 C   0  0  0  0  0  0  0  0  0  0  0  0
   -5.1000   23.6820  -31.8590 N   0  0  0  0  0  0  0  0  0  0  0  0
   -6.1770   22.7690  -31.6160 C   0  0  0  0  0  0  0  0  0  0  0  0
   -7.4210   23.2780  -31.2270 C   0  0  0  0  0  0  0  0  0  0  0  0
   -8.5200   22.4250  -31.0910 C   0  0  0  0  0  0  0  0  0  0  0  0
   -8.3880   21.0620  -31.3640 C   0  0  0  0  0  0  0  0  0  0  0  0
   -7.1480   20.5380  -31.7560 C   0  0  0  0  0  0  0  0  0  0  0  0
   -6.9930   18.8350  -32.1950 S   0  0  0  0  0  0  0  0  0  0  0  0
   -6.0580   18.1610  -31.2300 O   0  0  0  0  0  0  0  0  0  0  0  0
   -8.3370   18.1710  -32.0800 O   0  0  0  0  0  0  0  0  0  0  0  0
   -6.4060   18.6360  -33.8370 N   0  0  0  0  0  0  0  0  0  0  0  0
   -6.2920   17.2180  -34.2180 C   0  0  0  0  0  0  0  0  0  0  0  0
   -4.8110   16.8490  -34.2680 C   0  0  0  0  0  0  0  0  0  0  0  0
   -4.0550   18.1060  -33.8950 C   0  0  0  0  0  0  0  0  0  0  0  0
   -5.0720   19.2280  -34.0030 C   0  0  0  0  0  0  0  0  0  0  0  0
   -6.0410   21.3910  -31.8620 C   0  0  0  0  0  0  0  0  0  0  0  0
   -3.5100   23.2650  -29.9450 C   0  0  0  0  0  0  0  0  0  0  0  0
   -2.1770   22.9140  -30.2230 C   0  0  0  0  0  0  0  0  0  0  0  0
   -1.5100   21.9770  -29.4300 C   0  0  0  0  0  0  0  0  0  0  0  0
   -2.1700   21.3610  -28.3590 C   0  0  0  0  0  0  0  0  0  0  0  0
   -1.3440   20.1420  -27.3910 S   0  0  0  0  0  0  0  0  0  0  0  0
   -0.1270   20.7640  -26.7610 O   0  0  0  0  0  0  0  0  0  0  0  0
   -2.2570   19.7030  -26.2810 O   0  0  0  0  0  0  0  0  0  0  0  0
   -0.8610   18.7410  -28.3230 N   0  0  0  0  0  0  0  0  0  0  0  0
    0.0170   17.8120  -27.5830 C   0  0  0  0  0  0  0  0  0  0  0  0
    1.5080   18.1080  -27.7940 C   0  0  0  0  0  0  0  0  0  0  0  0
    1.8150   18.1780  -29.1680 O   0  0  0  0  0  0  0  0  0  0  0  0
    1.1410   19.2800  -29.7340 C   0  0  0  0  0  0  0  0  0  0  0  0
   -0.3790   19.0740  -29.6770 C   0  0  0  0  0  0  0  0  0  0  0  0
   -3.4870   21.7300  -28.0570 C   0  0  0  0  0  0  0  0  0  0  0  0
   -4.1550   22.6710  -28.8450 C   0  0  0  0  0  0  0  0  0  0  0  0
   -7.5346   24.3538  -31.0274 H   0  0  0  0  0  0  0  0  0  0  0  0
   -9.4911   22.8284  -30.7682 H   0  0  0  0  0  0  0  0  0  0  0  0
   -9.2595   20.3973  -31.2712 H   0  0  0  0  0  0  0  0  0  0  0  0
   -7.0840   19.1180  -34.4720 H   0  0  0  0  0  0  0  0  0  0  0  0
   -6.8060   16.5912  -33.4744 H   0  0  0  0  0  0  0  0  0  0  0  0
   -6.7557   17.0529  -35.2017 H   0  0  0  0  0  0  0  0  0  0  0  0
   -4.5931   16.0447  -33.5500 H   0  0  0  0  0  0  0  0  0  0  0  0
   -4.5200   16.4845  -35.2642 H   0  0  0  0  0  0  0  0  0  0  0  0
   -3.6683   18.0332  -32.8678 H   0  0  0  0  0  0  0  0  0  0  0  0
   -3.1867   18.2733  -34.5493 H   0  0  0  0  0  0  0  0  0  0  0  0
   -4.8922   19.9743  -33.2152 H   0  0  0  0  0  0  0  0  0  0  0  0
   -4.9909   19.7302  -34.9783 H   0  0  0  0  0  0  0  0  0  0  0  0
   -5.0592   20.9799  -32.1395 H   0  0  0  0  0  0  0  0  0  0  0  0
   -1.6554   23.3809  -31.0715 H   0  0  0  0  0  0  0  0  0  0  0  0
   -0.4623   21.7219  -29.6475 H   0  0  0  0  0  0  0  0  0  0  0  0
   -0.2092   17.8943  -26.5097 H   0  0  0  0  0  0  0  0  0  0  0  0
   -0.1768   16.7985  -27.9642 H   0  0  0  0  0  0  0  0  0  0  0  0
    1.7555   19.0692  -27.3198 H   0  0  0  0  0  0  0  0  0  0  0  0
    2.0961   17.2955  -27.3423 H   0  0  0  0  0  0  0  0  0  0  0  0
    1.4033   20.1900  -29.1744 H   0  0  0  0  0  0  0  0  0  0  0  0
    1.4454   19.3782  -30.7865 H   0  0  0  0  0  0  0  0  0  0  0  0
   -0.8717   20.0003  -30.0074 H   0  0  0  0  0  0  0  0  0  0  0  0
   -0.6228   18.2254  -30.3331 H   0  0  0  0  0  0  0  0  0  0  0  0
   -3.9982   21.2766  -27.1949 H   0  0  0  0  0  0  0  0  0  0  0  0
   -5.1916   22.9490  -28.6037 H   0  0  0  0  0  0  0  0  0  0  0  0
  1  2  2  0
  2  3  1  0
  3  4  1  0
  4  5  2  0
  5  6  1  0
  6  7  2  0
  7  8  1  0
  8  9  1  0
  9 10  2  0
  9 11  2  0
  9 12  1  0
 12 13  1  0
 13 14  1  0
 14 15  1  0
 15 16  1  0
  8 17  2  0
  2 18  1  0
 18 19  2  0
 19 20  1  0
 20 21  2  0
 21 22  1  0
 22 23  2  0
 22 24  2  0
 22 25  1  0
 25 26  1  0
 26 27  1  0
 27 28  1  0
 28 29  1  0
 29 30  1  0
 21 31  1  0
 31 32  2  0
 17  4  1  0
 32 18  1  0
 16 12  1  0
 30 25  1  0
  5 33  1  0
  6 34  1  0
  7 35  1  0
 12 36  1  0
 13 37  1  0
 13 38  1  0
 14 39  1  0
 14 40  1  0
 15 41  1  0
 15 42  1  0
 16 43  1  0
 16 44  1  0
 17 45  1  0
 19 46  1  0
 20 47  1  0
 26 48  1  0
 26 49  1  0
 27 50  1  0
 27 51  1  0
 29 52  1  0
 29 53  1  0
 30 54  1  0
 30 55  1  0
 31 56  1  0
 32 57  1  0
M  CHG  2   3  -1  12   1
M  END
>  <UniqueID>  (47) 
47

>  <SMILES>  (47) 
O=C([N-]c1cccc(S(=O)(=O)[NH+]2CCCC2)c1)c1ccc(S(=O)(=O)N2CCOCC2)cc1

>  <Energy>  (47) 
70.97283214939915

>  <Genealogy>  (47) 
O=C([N-]c1cccc(S(=O)(=O)[NH+]2CCCC2)c1)c1ccc(S(=O)(=O)N2CCOCC2)cc1 (protonated)
O=C([N-]c1cccc(S(=O)(=O)[NH+]2CCCC2)c1)c1ccc(S(=O)(=O)N2CCOCC2)cc1 (3D coordinates assigned)
O=C([N-]c1cccc(S(=O)(=O)[NH+]2CCCC2)c1)c1ccc(S(=O)(=O)N2CCOCC2)cc1 (nonaromatic ring conformer: 70.97283214939915 kcal/mol)

>  <smiles>  (47) 
O=C(Nc1cccc(S(=O)(=O)N2CCCC2)c1)c1ccc(S(=O)(=O)N2CCOCC2)cc1

>  <score_type>  (47) 
oracle

>  <origin>  (47) 
adgpu

>  <m_score__min__energy>  (47) 
-12.210000000000001

>  <m_primary>  (47) 
energy

$$$$
47:0
     RDKit          3D

 47 50  0  0  0  0  0  0  0  0999 V2000
   -5.7710   25.2880  -28.7380 O   0  0  0  0  0  0  0  0  0  0  0  0
   -5.1460   25.1540  -30.0990 S   0  0  0  0  0  0  0  0  0  0  0  0
   -5.4130   26.4300  -30.8480 O   0  0  0  0  0  0  0  0  0  0  0  0
   -3.4250   24.9510  -29.9780 N   0  0  0  0  0  0  0  0  0  0  0  0
   -2.7070   23.9110  -29.2970 C   0  0  0  0  0  0  0  0  0  0  0  0
   -1.9990   22.9120  -29.9920 C   0  0  0  0  0  0  0  0  0  0  0  0
   -1.2880   21.9210  -29.2990 C   0  0  0  0  0  0  0  0  0  0  0  0
   -1.3220   21.8940  -27.8890 C   0  0  0  0  0  0  0  0  0  0  0  0
   -2.0240   22.8890  -27.1950 C   0  0  0  0  0  0  0  0  0  0  0  0
   -2.7160   23.8890  -27.8860 C   0  0  0  0  0  0  0  0  0  0  0  0
   -3.4040   24.8540  -27.1500 O   0  0  0  0  0  0  0  0  0  0  0  0
   -0.5150   20.8740  -27.1180 C   0  0  0  0  0  0  0  0  0  0  0  0
   -0.1900   19.7010  -27.9430 N   0  0  0  0  0  0  0  0  0  0  0  0
    0.4510   20.1170  -29.1940 C   0  0  0  0  0  0  0  0  0  0  0  0
   -0.5630   20.8510  -30.0740 C   0  0  0  0  0  0  0  0  0  0  0  0
   -5.8650   23.8030  -30.9800 C   0  0  0  0  0  0  0  0  0  0  0  0
   -7.2580   23.6530  -31.0280 C   0  0  0  0  0  0  0  0  0  0  0  0
   -7.8280   22.5770  -31.7160 C   0  0  0  0  0  0  0  0  0  0  0  0
   -7.0100   21.6460  -32.3830 C   0  0  0  0  0  0  0  0  0  0  0  0
   -7.5350   20.5370  -33.0620 O   0  0  0  0  0  0  0  0  0  0  0  0
   -6.9070   19.2880  -33.2030 C   0  0  0  0  0  0  0  0  0  0  0  0
   -6.1160   19.0590  -34.3380 C   0  0  0  0  0  0  0  0  0  0  0  0
   -5.4900   17.8240  -34.5240 C   0  0  0  0  0  0  0  0  0  0  0  0
   -5.6590   16.8040  -33.5810 C   0  0  0  0  0  0  0  0  0  0  0  0
   -6.4590   17.0180  -32.4530 C   0  0  0  0  0  0  0  0  0  0  0  0
   -7.0900   18.2520  -32.2660 C   0  0  0  0  0  0  0  0  0  0  0  0
   -5.6190   21.7930  -32.3220 C   0  0  0  0  0  0  0  0  0  0  0  0
   -5.0480   22.8640  -31.6290 C   0  0  0  0  0  0  0  0  0  0  0  0
   -2.0034   22.9085  -31.0920 H   0  0  0  0  0  0  0  0  0  0  0  0
   -2.0308   22.8834  -26.0950 H   0  0  0  0  0  0  0  0  0  0  0  0
   -4.0200   25.5320  -27.5820 H   0  0  0  0  0  0  0  0  0  0  0  0
    0.4211   21.3421  -26.7795 H   0  0  0  0  0  0  0  0  0  0  0  0
   -1.1181   20.5351  -26.2628 H   0  0  0  0  0  0  0  0  0  0  0  0
    0.4980   19.1180  -27.4090 H   0  0  0  0  0  0  0  0  0  0  0  0
    1.2925   20.7884  -28.9680 H   0  0  0  0  0  0  0  0  0  0  0  0
    0.8201   19.2284  -29.7271 H   0  0  0  0  0  0  0  0  0  0  0  0
   -0.0337   21.3167  -30.9184 H   0  0  0  0  0  0  0  0  0  0  0  0
   -1.3032   20.1210  -30.4333 H   0  0  0  0  0  0  0  0  0  0  0  0
   -7.9054   24.3846  -30.5224 H   0  0  0  0  0  0  0  0  0  0  0  0
   -8.9213   22.4577  -31.7359 H   0  0  0  0  0  0  0  0  0  0  0  0
   -5.9878   19.8557  -35.0856 H   0  0  0  0  0  0  0  0  0  0  0  0
   -4.8639   17.6533  -35.4122 H   0  0  0  0  0  0  0  0  0  0  0  0
   -5.1626   15.8332  -33.7265 H   0  0  0  0  0  0  0  0  0  0  0  0
   -6.5916   16.2151  -31.7129 H   0  0  0  0  0  0  0  0  0  0  0  0
   -7.7300   18.4139  -31.3861 H   0  0  0  0  0  0  0  0  0  0  0  0
   -4.9704   21.0597  -32.8235 H   0  0  0  0  0  0  0  0  0  0  0  0
   -3.9539   22.9715  -31.5920 H   0  0  0  0  0  0  0  0  0  0  0  0
  1  2  2  0
  2  3  2  0
  2  4  1  0
  4  5  1  0
  5  6  2  0
  6  7  1  0
  7  8  2  0
  8  9  1  0
  9 10  2  0
 10 11  1  0
  8 12  1  0
 12 13  1  0
 13 14  1  0
 14 15  1  0
  2 16  1  0
 16 17  2  0
 17 18  1  0
 18 19  2  0
 19 20  1  0
 20 21  1  0
 21 22  2  0
 22 23  1  0
 23 24  2  0
 24 25  1  0
 25 26  2  0
 19 27  1  0
 27 28  2  0
 10  5  1  0
 28 16  1  0
 15  7  1  0
 26 21  1  0
  6 29  1  0
  9 30  1  0
 11 31  1  0
 12 32  1  0
 12 33  1  0
 13 34  1  0
 14 35  1  0
 14 36  1  0
 15 37  1  0
 15 38  1  0
 17 39  1  0
 18 40  1  0
 22 41  1  0
 23 42  1  0
 24 43  1  0
 25 44  1  0
 26 45  1  0
 27 46  1  0
 28 47  1  0
M  CHG  1   4  -1
M  END
>  <UniqueID>  (48) 
48

>  <SMILES>  (48) 
O=S(=O)([N-]c1cc2c(cc1O)CNCC2)c1ccc(Oc2ccccc2)cc1

>  <Energy>  (48) 
64.46102553658172

>  <Genealogy>  (48) 
O=S(=O)([N-]c1cc2c(cc1O)CNCC2)c1ccc(Oc2ccccc2)cc1 (protonated)
O=S(=O)([N-]c1cc2c(cc1O)CNCC2)c1ccc(Oc2ccccc2)cc1 (3D coordinates assigned)
O=S(=O)([N-]c1cc2c(cc1O)CNCC2)c1ccc(Oc2ccccc2)cc1 (nonaromatic ring conformer: 64.46102553658172 kcal/mol)

>  <smiles>  (48) 
O=S(=O)(Nc1cc2c(cc1O)CNCC2)c1ccc(Oc2ccccc2)cc1

>  <score_type>  (48) 
oracle

>  <origin>  (48) 
adgpu

>  <m_score__min__energy>  (48) 
-12.09

>  <m_primary>  (48) 
energy

$$$$
