0:0
     RDKit          3D

 60 63  0  0  0  0  0  0  0  0999 V2000
   -0.4620   19.1700  -29.4100 C   0  0  0  0  0  0  0  0  0  0  0  0
   -0.6900   20.1920  -28.3350 C   0  0  0  0  0  0  0  0  0  0  0  0
   -1.3950   19.8480  -27.1720 C   0  0  0  0  0  0  0  0  0  0  0  0
   -1.5790   20.7920  -26.1580 C   0  0  0  0  0  0  0  0  0  0  0  0
   -1.0510   22.0780  -26.2910 C   0  0  0  0  0  0  0  0  0  0  0  0
   -0.3240   22.4260  -27.4390 C   0  0  0  0  0  0  0  0  0  0  0  0
    0.3370   24.0500  -27.6270 S   0  0  0  0  0  0  0  0  0  0  0  0
    1.8390   23.9890  -27.6110 O   0  0  0  0  0  0  0  0  0  0  0  0
   -0.1180   24.5760  -28.9590 O   0  0  0  0  0  0  0  0  0  0  0  0
   -0.2200   25.1180  -26.3240 C   0  0  0  0  0  0  0  0  0  0  0  0
    0.7370   25.6920  -25.4680 C   0  0  0  0  0  0  0  0  0  0  0  0
    0.3440   26.4800  -24.3860 C   0  0  0  0  0  0  0  0  0  0  0  0
   -1.0070   26.7080  -24.1410 C   0  0  0  0  0  0  0  0  0  0  0  0
   -1.9720   26.1620  -24.9880 C   0  0  0  0  0  0  0  0  0  0  0  0
   -1.5980   25.3770  -26.0930 C   0  0  0  0  0  0  0  0  0  0  0  0
   -2.6680   24.8780  -26.9870 C   0  0  0  0  0  0  0  0  0  0  0  0
   -3.7490   24.4550  -26.4960 O   0  0  0  0  0  0  0  0  0  0  0  0
   -2.4700   24.8770  -28.4110 N   0  0  0  0  0  0  0  0  0  0  0  0
   -3.3160   24.1760  -29.3390 C   0  0  0  0  0  0  0  0  0  0  0  0
   -4.6280   24.6040  -29.6030 C   0  0  0  0  0  0  0  0  0  0  0  0
   -5.4400   23.8900  -30.4900 C   0  0  0  0  0  0  0  0  0  0  0  0
   -4.9590   22.7290  -31.1090 C   0  0  0  0  0  0  0  0  0  0  0  0
   -5.9910   21.8140  -32.2100 S   0  0  0  0  0  0  0  0  0  0  0  0
   -6.9790   22.7480  -32.8540 O   0  0  0  0  0  0  0  0  0  0  0  0
   -5.1460   21.2110  -33.2970 O   0  0  0  0  0  0  0  0  0  0  0  0
   -6.8530   20.5410  -31.3750 N   0  0  0  0  0  0  0  0  0  0  0  0
   -6.5770   19.2320  -32.0090 C   0  0  0  0  0  0  0  0  0  0  0  0
   -7.6090   18.1800  -31.5890 C   0  0  0  0  0  0  0  0  0  0  0  0
   -9.0240   18.5810  -32.0420 C   0  0  0  0  0  0  0  0  0  0  0  0
   -9.1900   20.1010  -32.2060 C   0  0  0  0  0  0  0  0  0  0  0  0
   -8.2930   20.8660  -31.2200 C   0  0  0  0  0  0  0  0  0  0  0  0
   -3.6550   22.2920  -30.8360 C   0  0  0  0  0  0  0  0  0  0  0  0
   -2.8440   23.0050  -29.9500 C   0  0  0  0  0  0  0  0  0  0  0  0
   -0.1440   21.4790  -28.4580 C   0  0  0  0  0  0  0  0  0  0  0  0
   -0.2445   18.1952  -28.9490 H   0  0  0  0  0  0  0  0  0  0  0  0
   -1.3638   19.0873  -30.0345 H   0  0  0  0  0  0  0  0  0  0  0  0
    0.3894   19.4784  -30.0345 H   0  0  0  0  0  0  0  0  0  0  0  0
   -1.8038   18.8332  -27.0579 H   0  0  0  0  0  0  0  0  0  0  0  0
   -2.1415   20.5212  -25.2523 H   0  0  0  0  0  0  0  0  0  0  0  0
   -1.2056   22.8198  -25.4936 H   0  0  0  0  0  0  0  0  0  0  0  0
    1.8071   25.5177  -25.6537 H   0  0  0  0  0  0  0  0  0  0  0  0
    1.1037   26.9223  -23.7248 H   0  0  0  0  0  0  0  0  0  0  0  0
   -1.3141   27.3189  -23.2793 H   0  0  0  0  0  0  0  0  0  0  0  0
   -3.0378   26.3478  -24.7890 H   0  0  0  0  0  0  0  0  0  0  0  0
   -1.7290   25.5040  -28.7990 H   0  0  0  0  0  0  0  0  0  0  0  0
   -5.0187   25.5059  -29.1092 H   0  0  0  0  0  0  0  0  0  0  0  0
   -6.4605   24.2415  -30.7025 H   0  0  0  0  0  0  0  0  0  0  0  0
   -6.6100   19.3495  -33.1022 H   0  0  0  0  0  0  0  0  0  0  0  0
   -5.5829   18.8918  -31.6834 H   0  0  0  0  0  0  0  0  0  0  0  0
   -7.3452   17.2151  -32.0465 H   0  0  0  0  0  0  0  0  0  0  0  0
   -7.6021   18.1021  -30.4918 H   0  0  0  0  0  0  0  0  0  0  0  0
   -9.2335   18.0985  -33.0081 H   0  0  0  0  0  0  0  0  0  0  0  0
   -9.7264   18.2539  -31.2611 H   0  0  0  0  0  0  0  0  0  0  0  0
   -8.9167   20.3833  -33.2334 H   0  0  0  0  0  0  0  0  0  0  0  0
  -10.2383   20.3620  -31.9988 H   0  0  0  0  0  0  0  0  0  0  0  0
   -8.4289   21.9448  -31.3867 H   0  0  0  0  0  0  0  0  0  0  0  0
   -8.5906   20.5672  -30.2041 H   0  0  0  0  0  0  0  0  0  0  0  0
   -3.2689   21.3837  -31.3217 H   0  0  0  0  0  0  0  0  0  0  0  0
   -1.8279   22.6456  -29.7299 H   0  0  0  0  0  0  0  0  0  0  0  0
    0.4283   21.7466  -29.3585 H   0  0  0  0  0  0  0  0  0  0  0  0
  1  2  1  0
  2  3  2  0
  3  4  1  0
  4  5  2  0
  5  6  1  0
  6  7  1  0
  7  8  2  0
  7  9  2  0
  7 10  1  0
 10 11  2  0
 11 12  1  0
 12 13  2  0
 13 14  1  0
 14 15  2  0
 15 16  1  0
 16 17  2  0
 16 18  1  0
 18 19  1  0
 19 20  2  0
 20 21  1  0
 21 22  2  0
 22 23  1  0
 23 24  2  0
 23 25  2  0
 23 26  1  0
 26 27  1  0
 27 28  1  0
 28 29  1  0
 29 30  1  0
 30 31  1  0
 22 32  1  0
 32 33  2  0
  6 34  2  0
 34  2  1  0
 15 10  1  0
 33 19  1  0
 31 26  1  0
  1 35  1  0
  1 36  1  0
  1 37  1  0
  3 38  1  0
  4 39  1  0
  5 40  1  0
 11 41  1  0
 12 42  1  0
 13 43  1  0
 14 44  1  0
 18 45  1  0
 20 46  1  0
 21 47  1  0
 27 48  1  0
 27 49  1  0
 28 50  1  0
 28 51  1  0
 29 52  1  0
 29 53  1  0
 30 54  1  0
 30 55  1  0
 31 56  1  0
 31 57  1  0
 32 58  1  0
 33 59  1  0
 34 60  1  0
M  END
>  <UniqueID>  (1) 
1

>  <SMILES>  (1) 
Cc1cccc(S(=O)(=O)c2ccccc2C(=O)Nc2ccc(S(=O)(=O)N3CCCCC3)cc2)c1

>  <Energy>  (1) 
79.28303593860728

>  <Genealogy>  (1) 
Cc1cccc(S(=O)(=O)c2ccccc2C(=O)Nc2ccc(S(=O)(=O)N3CCCCC3)cc2)c1 (3D coordinates assigned)
Cc1cccc(S(=O)(=O)c2ccccc2C(=O)Nc2ccc(S(=O)(=O)N3CCCCC3)cc2)c1 (nonaromatic ring conformer: 79.28303593860728 kcal/mol)

>  <smiles>  (1) 
Cc1cccc(S(=O)(=O)c2ccccc2C(=O)Nc2ccc(S(=O)(=O)N3CCCCC3)cc2)c1

>  <score_type>  (1) 
oracle

>  <origin>  (1) 
adgpu

>  <m_score__min__energy>  (1) 
-10.880000000000001

>  <m_primary>  (1) 
energy

$$$$
1:0
     RDKit          3D

 64 68  0  0  0  0  0  0  0  0999 V2000
   -8.7840   23.4200  -31.7800 O   0  0  0  0  0  0  0  0  0  0  0  0
   -7.7070   22.7690  -31.7010 C   0  0  0  0  0  0  0  0  0  0  0  0
   -6.5010   23.4280  -31.1540 C   0  0  0  0  0  0  0  0  0  0  0  0
   -6.5160   24.7960  -30.8460 C   0  0  0  0  0  0  0  0  0  0  0  0
   -5.3750   25.4150  -30.3310 C   0  0  0  0  0  0  0  0  0  0  0  0
   -4.2030   24.6780  -30.1250 C   0  0  0  0  0  0  0  0  0  0  0  0
   -3.0670   25.2970  -29.6040 O   0  0  0  0  0  0  0  0  0  0  0  0
   -4.1670   23.3110  -30.4410 C   0  0  0  0  0  0  0  0  0  0  0  0
   -2.9540   22.5820  -30.2130 N   0  0  0  0  0  0  0  0  0  0  0  0
   -1.9360   22.7360  -28.8180 S   0  0  0  0  0  0  0  0  0  0  0  0
   -0.7680   23.6290  -29.1290 O   0  0  0  0  0  0  0  0  0  0  0  0
   -2.7350   23.3150  -27.6830 O   0  0  0  0  0  0  0  0  0  0  0  0
   -1.3280   21.1460  -28.3750 C   0  0  0  0  0  0  0  0  0  0  0  0
   -2.0660   20.3390  -27.4850 C   0  0  0  0  0  0  0  0  0  0  0  0
   -1.6060   19.0580  -27.1440 C   0  0  0  0  0  0  0  0  0  0  0  0
   -0.4130   18.6000  -27.7050 C   0  0  0  0  0  0  0  0  0  0  0  0
    0.3070   19.3800  -28.5730 C   0  0  0  0  0  0  0  0  0  0  0  0
   -0.1280   20.6600  -28.9280 C   0  0  0  0  0  0  0  0  0  0  0  0
    1.5310   18.6990  -29.0510 C   0  0  0  0  0  0  0  0  0  0  0  0
    1.4680   17.3090  -28.3890 C   0  0  0  0  0  0  0  0  0  0  0  0
    0.2230   17.2820  -27.4810 C   0  0  0  0  0  0  0  0  0  0  0  0
   -5.3180   22.6940  -30.9670 C   0  0  0  0  0  0  0  0  0  0  0  0
   -7.6690   21.4030  -32.1520 N   0  0  0  0  0  0  0  0  0  0  0  0
   -6.6020   20.9920  -33.0800 C   0  0  0  0  0  0  0  0  0  0  0  0
   -6.7910   19.5490  -33.5610 C   0  0  0  0  0  0  0  0  0  0  0  0
   -7.1550   18.6480  -32.3680 C   0  0  0  0  0  0  0  0  0  0  0  0
   -7.1340   17.1400  -32.7230 C   0  0  0  0  0  0  0  0  0  0  0  0
   -5.7980   16.6330  -33.2170 C   0  0  0  0  0  0  0  0  0  0  0  0
   -5.0090   15.8000  -32.4020 C   0  0  0  0  0  0  0  0  0  0  0  0
   -3.7700   15.3360  -32.8560 C   0  0  0  0  0  0  0  0  0  0  0  0
   -3.3150   15.6870  -34.1290 C   0  0  0  0  0  0  0  0  0  0  0  0
   -4.0990   16.4990  -34.9530 C   0  0  0  0  0  0  0  0  0  0  0  0
   -5.3380   16.9660  -34.5040 C   0  0  0  0  0  0  0  0  0  0  0  0
   -8.4820   19.0930  -31.6970 C   0  0  0  0  0  0  0  0  0  0  0  0
   -8.8600   20.5600  -31.9820 C   0  0  0  0  0  0  0  0  0  0  0  0
   -7.4308   25.3842  -31.0108 H   0  0  0  0  0  0  0  0  0  0  0  0
   -5.3974   26.4871  -30.0860 H   0  0  0  0  0  0  0  0  0  0  0  0
   -2.2880   24.7600  -29.2410 H   0  0  0  0  0  0  0  0  0  0  0  0
   -3.0065   20.7153  -27.0561 H   0  0  0  0  0  0  0  0  0  0  0  0
   -2.1756   18.4259  -26.4468 H   0  0  0  0  0  0  0  0  0  0  0  0
    0.4566   21.2764  -29.6268 H   0  0  0  0  0  0  0  0  0  0  0  0
    1.5261   18.6103  -30.1474 H   0  0  0  0  0  0  0  0  0  0  0  0
    2.4486   19.2486  -28.7942 H   0  0  0  0  0  0  0  0  0  0  0  0
    1.3866   16.5293  -29.1606 H   0  0  0  0  0  0  0  0  0  0  0  0
    2.3787   17.1187  -27.8021 H   0  0  0  0  0  0  0  0  0  0  0  0
   -0.4552   16.4662  -27.7717 H   0  0  0  0  0  0  0  0  0  0  0  0
    0.4737   17.1072  -26.4243 H   0  0  0  0  0  0  0  0  0  0  0  0
   -5.2906   21.6272  -31.2340 H   0  0  0  0  0  0  0  0  0  0  0  0
   -6.6110   21.6622  -33.9522 H   0  0  0  0  0  0  0  0  0  0  0  0
   -5.6423   21.0515  -32.5457 H   0  0  0  0  0  0  0  0  0  0  0  0
   -7.6002   19.5147  -34.3053 H   0  0  0  0  0  0  0  0  0  0  0  0
   -5.8554   19.1911  -34.0156 H   0  0  0  0  0  0  0  0  0  0  0  0
   -6.3617   18.7805  -31.6176 H   0  0  0  0  0  0  0  0  0  0  0  0
   -7.4062   16.5707  -31.8220 H   0  0  0  0  0  0  0  0  0  0  0  0
   -7.8470   17.0021  -33.5492 H   0  0  0  0  0  0  0  0  0  0  0  0
   -5.3685   15.5124  -31.4030 H   0  0  0  0  0  0  0  0  0  0  0  0
   -3.1534   14.6940  -32.2098 H   0  0  0  0  0  0  0  0  0  0  0  0
   -2.3389   15.3240  -34.4832 H   0  0  0  0  0  0  0  0  0  0  0  0
   -3.7406   16.7712  -35.9567 H   0  0  0  0  0  0  0  0  0  0  0  0
   -5.9559   17.5967  -35.1601 H   0  0  0  0  0  0  0  0  0  0  0  0
   -9.2919   18.4476  -32.0677 H   0  0  0  0  0  0  0  0  0  0  0  0
   -8.3378   19.0039  -30.6101 H   0  0  0  0  0  0  0  0  0  0  0  0
   -9.4607   20.6013  -32.9026 H   0  0  0  0  0  0  0  0  0  0  0  0
   -9.4309   20.9410  -31.1224 H   0  0  0  0  0  0  0  0  0  0  0  0
  1  2  2  0
  2  3  1  0
  3  4  2  0
  4  5  1  0
  5  6  2  0
  6  7  1  0
  6  8  1  0
  8  9  1  0
  9 10  1  0
 10 11  2  0
 10 12  2  0
 10 13  1  0
 13 14  2  0
 14 15  1  0
 15 16  2  0
 16 17  1  0
 17 18  2  0
 17 19  1  0
 19 20  1  0
 20 21  1  0
  8 22  2  0
  2 23  1  0
 23 24  1  0
 24 25  1  0
 25 26  1  0
 26 27  1  0
 27 28  1  0
 28 29  2  0
 29 30  1  0
 30 31  2  0
 31 32  1  0
 32 33  2  0
 26 34  1  0
 34 35  1  0
 22  3  1  0
 35 23  1  0
 18 13  1  0
 33 28  1  0
 21 16  1  0
  4 36  1  0
  5 37  1  0
  7 38  1  0
 14 39  1  0
 15 40  1  0
 18 41  1  0
 19 42  1  0
 19 43  1  0
 20 44  1  0
 20 45  1  0
 21 46  1  0
 21 47  1  0
 22 48  1  0
 24 49  1  0
 24 50  1  0
 25 51  1  0
 25 52  1  0
 26 53  1  0
 27 54  1  0
 27 55  1  0
 29 56  1  0
 30 57  1  0
 31 58  1  0
 32 59  1  0
 33 60  1  0
 34 61  1  0
 34 62  1  0
 35 63  1  0
 35 64  1  0
M  CHG  1   9  -1
M  END
>  <UniqueID>  (2) 
2

>  <SMILES>  (2) 
O=C(c1ccc(O)c([N-]S(=O)(=O)c2ccc3c(c2)CCC3)c1)N1CCC(Cc2ccccc2)CC1

>  <Energy>  (2) 
86.64400562125955

>  <Genealogy>  (2) 
O=C(c1ccc(O)c([N-]S(=O)(=O)c2ccc3c(c2)CCC3)c1)N1CCC(Cc2ccccc2)CC1 (protonated)
O=C(c1ccc(O)c([N-]S(=O)(=O)c2ccc3c(c2)CCC3)c1)N1CCC(Cc2ccccc2)CC1 (3D coordinates assigned)
O=C(c1ccc(O)c([N-]S(=O)(=O)c2ccc3c(c2)CCC3)c1)N1CCC(Cc2ccccc2)CC1 (nonaromatic ring conformer: 86.64400562125955 kcal/mol)

>  <smiles>  (2) 
O=C(c1ccc(O)c(NS(=O)(=O)c2ccc3c(c2)CCC3)c1)N1CCC(Cc2ccccc2)CC1

>  <score_type>  (2) 
oracle

>  <origin>  (2) 
adgpu

>  <m_score__min__energy>  (2) 
-11.98

>  <m_primary>  (2) 
energy

$$$$
2:0
     RDKit          3D

 57 60  0  0  0  0  0  0  0  0999 V2000
   -5.0600   13.6970  -33.3870 C   0  0  0  0  0  0  0  0  0  0  0  0
   -5.0820   15.1570  -33.7110 C   0  0  0  0  0  0  0  0  0  0  0  0
   -4.1570   15.6990  -34.6090 C   0  0  0  0  0  0  0  0  0  0  0  0
   -4.2220   17.0610  -34.8900 C   0  0  0  0  0  0  0  0  0  0  0  0
   -5.1730   17.8310  -34.2990 N   0  0  0  0  0  0  0  0  0  0  0  0
   -6.0720   17.2910  -33.4300 C   0  0  0  0  0  0  0  0  0  0  0  0
   -6.9800   18.0280  -32.8670 N   0  0  0  0  0  0  0  0  0  0  0  0
   -7.1490   19.7320  -33.1440 S   0  0  0  0  0  0  0  0  0  0  0  0
   -6.8610   20.0500  -34.5850 O   0  0  0  0  0  0  0  0  0  0  0  0
   -8.5520   20.1610  -32.8130 O   0  0  0  0  0  0  0  0  0  0  0  0
   -6.0010   20.5910  -32.1240 C   0  0  0  0  0  0  0  0  0  0  0  0
   -4.6980   20.0980  -31.9780 C   0  0  0  0  0  0  0  0  0  0  0  0
   -3.7790   20.7660  -31.1640 C   0  0  0  0  0  0  0  0  0  0  0  0
   -4.1570   21.9310  -30.4720 C   0  0  0  0  0  0  0  0  0  0  0  0
   -3.2230   22.6500  -29.6480 N   0  0  0  0  0  0  0  0  0  0  0  0
   -3.1890   24.0840  -29.5470 C   0  0  0  0  0  0  0  0  0  0  0  0
   -3.6830   24.7870  -30.4710 O   0  0  0  0  0  0  0  0  0  0  0  0
   -2.5340   24.7500  -28.3950 C   0  0  0  0  0  0  0  0  0  0  0  0
   -1.3610   25.5020  -28.5840 C   0  0  0  0  0  0  0  0  0  0  0  0
   -0.7430   26.1400  -27.5040 C   0  0  0  0  0  0  0  0  0  0  0  0
   -1.2900   26.0380  -26.2180 C   0  0  0  0  0  0  0  0  0  0  0  0
   -0.5350   26.8620  -24.8550 S   0  0  0  0  0  0  0  0  0  0  0  0
   -1.5710   27.1630  -23.8070 O   0  0  0  0  0  0  0  0  0  0  0  0
    0.0310   28.1650  -25.3460 O   0  0  0  0  0  0  0  0  0  0  0  0
    0.7580   25.8880  -24.1850 N   0  0  0  0  0  0  0  0  0  0  0  0
    2.0820   26.4910  -24.4180 C   0  0  0  0  0  0  0  0  0  0  0  0
    2.5380   26.3540  -25.8900 C   0  0  0  0  0  0  0  0  0  0  0  0
    1.8330   25.3570  -26.6120 O   0  0  0  0  0  0  0  0  0  0  0  0
    1.6670   24.2040  -25.8170 C   0  0  0  0  0  0  0  0  0  0  0  0
    0.6910   24.4880  -24.6600 C   0  0  0  0  0  0  0  0  0  0  0  0
   -2.4660   25.3050  -26.0240 C   0  0  0  0  0  0  0  0  0  0  0  0
   -3.0850   24.6650  -27.1020 C   0  0  0  0  0  0  0  0  0  0  0  0
   -5.4580   22.4290  -30.6350 C   0  0  0  0  0  0  0  0  0  0  0  0
   -6.3780   21.7600  -31.4480 C   0  0  0  0  0  0  0  0  0  0  0  0
   -6.0200   15.9640  -33.1460 N   0  0  0  0  0  0  0  0  0  0  0  0
   -5.0580   13.5637  -32.2951 H   0  0  0  0  0  0  0  0  0  0  0  0
   -5.9510   13.2132  -33.8138 H   0  0  0  0  0  0  0  0  0  0  0  0
   -4.1549   13.2403  -33.8138 H   0  0  0  0  0  0  0  0  0  0  0  0
   -3.3948   15.0631  -35.0829 H   0  0  0  0  0  0  0  0  0  0  0  0
   -3.5041   17.5135  -35.5899 H   0  0  0  0  0  0  0  0  0  0  0  0
   -4.3968   19.1813  -32.5062 H   0  0  0  0  0  0  0  0  0  0  0  0
   -2.7544   20.3786  -31.0639 H   0  0  0  0  0  0  0  0  0  0  0  0
   -2.4580   22.1080  -29.1870 H   0  0  0  0  0  0  0  0  0  0  0  0
   -0.9256   25.5892  -29.5904 H   0  0  0  0  0  0  0  0  0  0  0  0
    0.1754   26.7238  -27.6645 H   0  0  0  0  0  0  0  0  0  0  0  0
    2.0346   27.5593  -24.1602 H   0  0  0  0  0  0  0  0  0  0  0  0
    2.8102   25.9582  -23.7888 H   0  0  0  0  0  0  0  0  0  0  0  0
    2.3859   27.3205  -26.3927 H   0  0  0  0  0  0  0  0  0  0  0  0
    3.5960   26.0532  -25.8735 H   0  0  0  0  0  0  0  0  0  0  0  0
    1.2660   23.3896  -26.4383 H   0  0  0  0  0  0  0  0  0  0  0  0
    2.6424   23.9142  -25.3991 H   0  0  0  0  0  0  0  0  0  0  0  0
   -0.3330   24.2825  -25.0053 H   0  0  0  0  0  0  0  0  0  0  0  0
    0.9756   23.8385  -23.8191 H   0  0  0  0  0  0  0  0  0  0  0  0
   -2.9057   25.2319  -25.0184 H   0  0  0  0  0  0  0  0  0  0  0  0
   -4.0091   24.0910  -26.9388 H   0  0  0  0  0  0  0  0  0  0  0  0
   -5.7570   23.3534  -30.1191 H   0  0  0  0  0  0  0  0  0  0  0  0
   -7.4000   22.1518  -31.5575 H   0  0  0  0  0  0  0  0  0  0  0  0
  1  2  1  0
  2  3  1  0
  3  4  2  0
  4  5  1  0
  5  6  1  0
  6  7  2  3
  7  8  1  0
  8  9  2  0
  8 10  2  0
  8 11  1  0
 11 12  2  0
 12 13  1  0
 13 14  2  0
 14 15  1  0
 15 16  1  0
 16 17  2  0
 16 18  1  0
 18 19  2  0
 19 20  1  0
 20 21  2  0
 21 22  1  0
 22 23  2  0
 22 24  2  0
 22 25  1  0
 25 26  1  0
 26 27  1  0
 27 28  1  0
 28 29  1  0
 29 30  1  0
 21 31  1  0
 31 32  2  0
 14 33  1  0
 33 34  2  0
  6 35  1  0
 35  2  2  0
 34 11  1  0
 32 18  1  0
 30 25  1  0
  1 36  1  0
  1 37  1  0
  1 38  1  0
  3 39  1  0
  4 40  1  0
 12 41  1  0
 13 42  1  0
 15 43  1  0
 19 44  1  0
 20 45  1  0
 26 46  1  0
 26 47  1  0
 27 48  1  0
 27 49  1  0
 29 50  1  0
 29 51  1  0
 30 52  1  0
 30 53  1  0
 31 54  1  0
 32 55  1  0
 33 56  1  0
 34 57  1  0
M  CHG  1   5  -1
M  END
>  <UniqueID>  (3) 
3

>  <SMILES>  (3) 
Cc1cc[n-]c(=NS(=O)(=O)c2ccc(NC(=O)c3ccc(S(=O)(=O)N4CCOCC4)cc3)cc2)n1

>  <Energy>  (3) 
80.40403064536412

>  <Genealogy>  (3) 
Cc1cc[n-]c(=NS(=O)(=O)c2ccc(NC(=O)c3ccc(S(=O)(=O)N4CCOCC4)cc3)cc2)n1 (protonated)
Cc1cc[n-]c(=NS(=O)(=O)c2ccc(NC(=O)c3ccc(S(=O)(=O)N4CCOCC4)cc3)cc2)n1 (3D coordinates assigned)
Cc1cc[n-]c(=NS(=O)(=O)c2ccc(NC(=O)c3ccc(S(=O)(=O)N4CCOCC4)cc3)cc2)n1 (nonaromatic ring conformer: 80.40403064536412 kcal/mol)

>  <smiles>  (3) 
Cc1cc[nH]c(=NS(=O)(=O)c2ccc(NC(=O)c3ccc(S(=O)(=O)N4CCOCC4)cc3)cc2)n1

>  <score_type>  (3) 
oracle

>  <origin>  (3) 
adgpu

>  <m_score__min__energy>  (3) 
-9.9199999999999999

>  <m_primary>  (3) 
energy

$$$$
3:0
     RDKit          3D

 32 34  0  0  0  0  0  0  0  0999 V2000
   -1.0250   25.9830  -28.9190 O   0  0  0  0  0  0  0  0  0  0  0  0
   -0.5510   24.9460  -28.3870 C   0  0  0  0  0  0  0  0  0  0  0  0
    0.7530   24.8450  -27.9640 O   0  0  0  0  0  0  0  0  0  0  0  0
    0.9780   23.5540  -27.4120 C   0  0  0  0  0  0  0  0  0  0  0  0
   -0.3740   22.8080  -27.5300 C   0  0  0  0  0  0  0  0  0  0  0  0
   -1.2850   23.7590  -28.1560 N   0  0  0  0  0  0  0  0  0  0  0  0
   -2.6650   23.4990  -28.4630 C   0  0  0  0  0  0  0  0  0  0  0  0
   -3.4860   22.5450  -27.8790 C   0  0  0  0  0  0  0  0  0  0  0  0
   -4.7110   22.6640  -28.5080 C   0  0  0  0  0  0  0  0  0  0  0  0
   -4.6540   23.6430  -29.4310 N   0  0  0  0  0  0  0  0  0  0  0  0
   -5.9430   24.1220  -30.4850 S   0  0  0  0  0  0  0  0  0  0  0  0
   -6.9400   24.9260  -29.6990 O   0  0  0  0  0  0  0  0  0  0  0  0
   -5.3770   24.9790  -31.5830 O   0  0  0  0  0  0  0  0  0  0  0  0
   -6.7410   22.7080  -31.1850 C   0  0  0  0  0  0  0  0  0  0  0  0
   -8.1130   22.5050  -30.9620 C   0  0  0  0  0  0  0  0  0  0  0  0
   -8.7620   21.3940  -31.5040 C   0  0  0  0  0  0  0  0  0  0  0  0
   -8.0500   20.4750  -32.2750 C   0  0  0  0  0  0  0  0  0  0  0  0
   -6.6860   20.6650  -32.5050 C   0  0  0  0  0  0  0  0  0  0  0  0
   -6.0240   21.7750  -31.9660 C   0  0  0  0  0  0  0  0  0  0  0  0
   -4.1490   21.9620  -32.3300 Br  0  0  0  0  0  0  0  0  0  0  0  0
   -3.4140   24.1590  -29.4160 C   0  0  0  0  0  0  0  0  0  0  0  0
    1.7588   23.0252  -27.9783 H   0  0  0  0  0  0  0  0  0  0  0  0
    1.3206   23.6121  -26.3683 H   0  0  0  0  0  0  0  0  0  0  0  0
   -0.2651   21.9098  -28.1556 H   0  0  0  0  0  0  0  0  0  0  0  0
   -0.7431   22.4707  -26.5502 H   0  0  0  0  0  0  0  0  0  0  0  0
   -3.2171   21.8389  -27.0795 H   0  0  0  0  0  0  0  0  0  0  0  0
   -5.5980   22.0518  -28.2880 H   0  0  0  0  0  0  0  0  0  0  0  0
   -8.6802   23.2267  -30.3559 H   0  0  0  0  0  0  0  0  0  0  0  0
   -9.8364   21.2431  -31.3228 H   0  0  0  0  0  0  0  0  0  0  0  0
   -8.5632   19.6006  -32.7018 H   0  0  0  0  0  0  0  0  0  0  0  0
   -6.1279   19.9381  -33.1135 H   0  0  0  0  0  0  0  0  0  0  0  0
   -3.0538   24.9754  -30.0592 H   0  0  0  0  0  0  0  0  0  0  0  0
  1  2  2  0
  2  3  1  0
  3  4  1  0
  4  5  1  0
  5  6  1  0
  6  7  1  0
  7  8  1  0
  8  9  2  0
  9 10  1  0
 10 11  1  0
 11 12  2  0
 11 13  2  0
 11 14  1  0
 14 15  2  0
 15 16  1  0
 16 17  2  0
 17 18  1  0
 18 19  2  0
 19 20  1  0
 10 21  1  0
  6  2  1  0
 21  7  2  0
 19 14  1  0
  4 22  1  0
  4 23  1  0
  5 24  1  0
  5 25  1  0
  8 26  1  0
  9 27  1  0
 15 28  1  0
 16 29  1  0
 17 30  1  0
 18 31  1  0
 21 32  1  0
M  END
>  <UniqueID>  (4) 
4

>  <SMILES>  (4) 
O=C1OCCN1c1ccn(S(=O)(=O)c2ccccc2Br)c1

>  <Energy>  (4) 
79.46122315298344

>  <Genealogy>  (4) 
O=C1OCCN1c1ccn(S(=O)(=O)c2ccccc2Br)c1 (3D coordinates assigned)
O=C1OCCN1c1ccn(S(=O)(=O)c2ccccc2Br)c1 (nonaromatic ring conformer: 79.46122315298344 kcal/mol)

>  <smiles>  (4) 
O=C1OCCN1c1ccn(S(=O)(=O)c2ccccc2Br)c1

>  <score_type>  (4) 
oracle

>  <origin>  (4) 
adgpu

>  <m_score__min__energy>  (4) 
-8.1999999999999993

>  <m_primary>  (4) 
energy

$$$$
4:0
     RDKit          3D

 50 52  0  0  0  0  0  0  0  0999 V2000
   -2.7050   19.7370  -27.1070 C   0  0  0  0  0  0  0  0  0  0  0  0
   -2.8120   20.6120  -28.3570 C   0  0  0  0  0  0  0  0  0  0  0  0
   -2.7180   22.0510  -28.0240 N   0  0  0  0  0  0  0  0  0  0  0  0
   -2.0500   22.8130  -29.1120 C   0  0  0  0  0  0  0  0  0  0  0  0
   -3.0560   23.5510  -30.0030 C   0  0  0  0  0  0  0  0  0  0  0  0
   -3.8250   24.5470  -29.2280 N   0  0  0  0  0  0  0  0  0  0  0  0
   -5.3090   24.9360  -30.0610 S   0  0  0  0  0  0  0  0  0  0  0  0
   -5.0170   25.8600  -31.2110 O   0  0  0  0  0  0  0  0  0  0  0  0
   -6.2620   25.6250  -29.1230 O   0  0  0  0  0  0  0  0  0  0  0  0
   -6.0470   23.4650  -30.6900 C   0  0  0  0  0  0  0  0  0  0  0  0
   -5.4920   22.8320  -31.8090 C   0  0  0  0  0  0  0  0  0  0  0  0
   -6.0480   21.6450  -32.2950 C   0  0  0  0  0  0  0  0  0  0  0  0
   -7.1580   21.0720  -31.6570 C   0  0  0  0  0  0  0  0  0  0  0  0
   -7.8560   19.5670  -32.2650 S   0  0  0  0  0  0  0  0  0  0  0  0
   -8.6230   18.9010  -31.1570 O   0  0  0  0  0  0  0  0  0  0  0  0
   -8.8240   19.8890  -33.3700 O   0  0  0  0  0  0  0  0  0  0  0  0
   -6.6510   18.4550  -32.8700 N   0  0  0  0  0  0  0  0  0  0  0  0
   -7.1970   17.1170  -33.0880 C   0  0  0  0  0  0  0  0  0  0  0  0
   -6.3210   16.4640  -34.1460 C   0  0  0  0  0  0  0  0  0  0  0  0
   -5.6140   17.6130  -34.8490 C   0  0  0  0  0  0  0  0  0  0  0  0
   -6.1160   18.8750  -34.1630 C   0  0  0  0  0  0  0  0  0  0  0  0
   -7.7170   21.7110  -30.5400 C   0  0  0  0  0  0  0  0  0  0  0  0
   -7.1610   22.8970  -30.0550 C   0  0  0  0  0  0  0  0  0  0  0  0
   -4.0900   24.1360  -27.8290 C   0  0  0  0  0  0  0  0  0  0  0  0
   -4.0410   22.6110  -27.6460 C   0  0  0  0  0  0  0  0  0  0  0  0
   -2.7822   20.3685  -26.2097 H   0  0  0  0  0  0  0  0  0  0  0  0
   -3.5194   18.9976  -27.1062 H   0  0  0  0  0  0  0  0  0  0  0  0
   -1.7364   19.2156  -27.1062 H   0  0  0  0  0  0  0  0  0  0  0  0
   -1.9956   20.3510  -29.0465 H   0  0  0  0  0  0  0  0  0  0  0  0
   -3.7921   20.4296  -28.8220 H   0  0  0  0  0  0  0  0  0  0  0  0
   -1.3682   23.5496  -28.6619 H   0  0  0  0  0  0  0  0  0  0  0  0
   -1.5039   22.0950  -29.7415 H   0  0  0  0  0  0  0  0  0  0  0  0
   -2.5119   24.0655  -30.8088 H   0  0  0  0  0  0  0  0  0  0  0  0
   -3.7592   22.8145  -30.4191 H   0  0  0  0  0  0  0  0  0  0  0  0
   -4.6150   23.2705  -32.3076 H   0  0  0  0  0  0  0  0  0  0  0  0
   -5.6135   21.1587  -33.1808 H   0  0  0  0  0  0  0  0  0  0  0  0
   -7.1639   16.5357  -32.1547 H   0  0  0  0  0  0  0  0  0  0  0  0
   -8.2473   17.1623  -33.4118 H   0  0  0  0  0  0  0  0  0  0  0  0
   -5.5886   15.7903  -33.6773 H   0  0  0  0  0  0  0  0  0  0  0  0
   -6.9107   15.8556  -34.8474 H   0  0  0  0  0  0  0  0  0  0  0  0
   -4.5237   17.5210  -34.7360 H   0  0  0  0  0  0  0  0  0  0  0  0
   -5.8230   17.6231  -35.9289 H   0  0  0  0  0  0  0  0  0  0  0  0
   -5.2885   19.5854  -34.0200 H   0  0  0  0  0  0  0  0  0  0  0  0
   -6.8836   19.3799  -34.7678 H   0  0  0  0  0  0  0  0  0  0  0  0
   -8.5972   21.2760  -30.0439 H   0  0  0  0  0  0  0  0  0  0  0  0
   -7.5981   23.3869  -29.1725 H   0  0  0  0  0  0  0  0  0  0  0  0
   -3.3321   24.5944  -27.1768 H   0  0  0  0  0  0  0  0  0  0  0  0
   -5.1042   24.4723  -27.5675 H   0  0  0  0  0  0  0  0  0  0  0  0
   -4.2399   22.3727  -26.5907 H   0  0  0  0  0  0  0  0  0  0  0  0
   -4.8014   22.1637  -28.3031 H   0  0  0  0  0  0  0  0  0  0  0  0
  1  2  1  0
  2  3  1  0
  3  4  1  0
  4  5  1  0
  5  6  1  0
  6  7  1  0
  7  8  2  0
  7  9  2  0
  7 10  1  0
 10 11  2  0
 11 12  1  0
 12 13  2  0
 13 14  1  0
 14 15  2  0
 14 16  2  0
 14 17  1  0
 17 18  1  0
 18 19  1  0
 19 20  1  0
 20 21  1  0
 13 22  1  0
 22 23  2  0
  6 24  1  0
 24 25  1  0
 25  3  1  0
 23 10  1  0
 21 17  1  0
  1 26  1  0
  1 27  1  0
  1 28  1  0
  2 29  1  0
  2 30  1  0
  4 31  1  0
  4 32  1  0
  5 33  1  0
  5 34  1  0
 11 35  1  0
 12 36  1  0
 18 37  1  0
 18 38  1  0
 19 39  1  0
 19 40  1  0
 20 41  1  0
 20 42  1  0
 21 43  1  0
 21 44  1  0
 22 45  1  0
 23 46  1  0
 24 47  1  0
 24 48  1  0
 25 49  1  0
 25 50  1  0
M  END
>  <UniqueID>  (5) 
5

>  <SMILES>  (5) 
CCN1CCN(S(=O)(=O)c2ccc(S(=O)(=O)N3CCCC3)cc2)CC1

>  <Energy>  (5) 
59.95494639066384

>  <Genealogy>  (5) 
CCN1CCN(S(=O)(=O)c2ccc(S(=O)(=O)N3CCCC3)cc2)CC1 (3D coordinates assigned)
CCN1CCN(S(=O)(=O)c2ccc(S(=O)(=O)N3CCCC3)cc2)CC1 (nonaromatic ring conformer: 59.95494639066384 kcal/mol)

>  <smiles>  (5) 
CCN1CCN(S(=O)(=O)c2ccc(S(=O)(=O)N3CCCC3)cc2)CC1

>  <score_type>  (5) 
oracle

>  <origin>  (5) 
adgpu

>  <m_score__min__energy>  (5) 
-9.7200000000000006

>  <m_primary>  (5) 
energy

$$$$
5:0
     RDKit          3D

 72 76  0  0  0  0  0  0  0  0999 V2000
   -1.4900   23.8170  -27.9870 C   0  0  0  0  0  0  0  0  0  0  0  0
   -1.4760   22.3210  -28.1140 C   0  0  0  0  0  0  0  0  0  0  0  0
   -2.0100   21.5210  -27.0930 C   0  0  0  0  0  0  0  0  0  0  0  0
   -1.9710   20.1230  -27.1910 C   0  0  0  0  0  0  0  0  0  0  0  0
   -2.5620   19.2850  -26.0960 C   0  0  0  0  0  0  0  0  0  0  0  0
   -1.3770   19.5240  -28.3130 C   0  0  0  0  0  0  0  0  0  0  0  0
   -0.8360   20.3170  -29.3350 C   0  0  0  0  0  0  0  0  0  0  0  0
   -0.0840   19.5560  -30.7310 S   0  0  0  0  0  0  0  0  0  0  0  0
   -0.5150   18.1200  -30.8330 O   0  0  0  0  0  0  0  0  0  0  0  0
    1.4080   19.5770  -30.5730 O   0  0  0  0  0  0  0  0  0  0  0  0
   -0.5670   20.4270  -32.1860 C   0  0  0  0  0  0  0  0  0  0  0  0
   -1.8520   20.8400  -32.5440 C   0  0  0  0  0  0  0  0  0  0  0  0
   -3.0680   20.6790  -31.7320 C   0  0  0  0  0  0  0  0  0  0  0  0
   -3.8090   19.6810  -31.9270 O   0  0  0  0  0  0  0  0  0  0  0  0
   -3.4530   21.6480  -30.7490 N   0  0  0  0  0  0  0  0  0  0  0  0
   -4.2390   22.8540  -31.0080 C   0  0  2  0  0  0  0  0  0  0  0  0
   -5.2020   23.1230  -29.8280 C   0  0  0  0  0  0  0  0  0  0  0  0
   -6.6000   22.5550  -30.1070 C   0  0  0  0  0  0  0  0  0  0  0  0
   -7.2200   23.1920  -31.2990 N   0  0  2  0  0  0  0  0  0  0  0  0
   -8.4240   22.4620  -31.7800 C   0  0  0  0  0  0  0  0  0  0  0  0
   -8.6120   21.0170  -31.2460 C   0  0  0  0  0  0  0  0  0  0  0  0
   -8.2980   19.9910  -32.2580 N   0  0  0  0  0  0  0  0  0  0  0  0
   -8.2090   18.6520  -31.6660 C   0  0  0  0  0  0  0  0  0  0  0  0
   -7.2690   17.8370  -32.5420 C   0  0  0  0  0  0  0  0  0  0  0  0
   -6.5460   18.8500  -33.4160 C   0  0  0  0  0  0  0  0  0  0  0  0
   -7.0040   20.2070  -32.9140 C   0  0  0  0  0  0  0  0  0  0  0  0
   -6.2580   23.5460  -32.3820 C   0  0  0  0  0  0  0  0  0  0  0  0
   -4.9870   22.6860  -32.3460 C   0  0  0  0  0  0  0  0  0  0  0  0
   -1.8570   21.3520  -33.7970 N   0  0  0  0  0  0  0  0  0  0  0  0
   -0.5920   21.2530  -34.2390 C   0  0  0  0  0  0  0  0  0  0  0  0
   -0.1120   21.6120  -35.4970 C   0  0  0  0  0  0  0  0  0  0  0  0
    1.2450   21.3720  -35.7770 C   0  0  0  0  0  0  0  0  0  0  0  0
    2.0820   20.7770  -34.8060 C   0  0  0  0  0  0  0  0  0  0  0  0
    3.7680   20.4710  -35.1780 Cl  0  0  0  0  0  0  0  0  0  0  0  0
    1.5690   20.4230  -33.5450 C   0  0  0  0  0  0  0  0  0  0  0  0
    0.2210   20.6860  -33.2900 C   0  0  0  0  0  0  0  0  0  0  0  0
   -0.8750   21.7130  -29.2250 C   0  0  0  0  0  0  0  0  0  0  0  0
   -1.4926   24.0946  -26.9226 H   0  0  0  0  0  0  0  0  0  0  0  0
   -0.5957   24.2346  -28.4727 H   0  0  0  0  0  0  0  0  0  0  0  0
   -2.3919   24.2178  -28.4727 H   0  0  0  0  0  0  0  0  0  0  0  0
   -2.4626   21.9940  -26.2090 H   0  0  0  0  0  0  0  0  0  0  0  0
   -2.2702   19.6988  -25.1195 H   0  0  0  0  0  0  0  0  0  0  0  0
   -3.6586   19.2885  -26.1828 H   0  0  0  0  0  0  0  0  0  0  0  0
   -2.1906   18.2532  -26.1828 H   0  0  0  0  0  0  0  0  0  0  0  0
   -1.3358   18.4275  -28.3908 H   0  0  0  0  0  0  0  0  0  0  0  0
   -3.5804   23.7311  -31.0915 H   0  0  0  0  0  0  0  0  0  0  0  0
   -4.7978   22.6500  -28.9209 H   0  0  0  0  0  0  0  0  0  0  0  0
   -5.2904   24.2112  -29.6938 H   0  0  0  0  0  0  0  0  0  0  0  0
   -6.5172   21.4723  -30.2830 H   0  0  0  0  0  0  0  0  0  0  0  0
   -7.2370   22.7628  -29.2346 H   0  0  0  0  0  0  0  0  0  0  0  0
   -7.5930   24.1090  -30.9510 H   0  0  0  0  0  0  0  0  0  0  0  0
   -9.3091   23.0455  -31.4863 H   0  0  0  0  0  0  0  0  0  0  0  0
   -8.2885   22.3574  -32.8666 H   0  0  0  0  0  0  0  0  0  0  0  0
   -7.9485   20.8725  -30.3807 H   0  0  0  0  0  0  0  0  0  0  0  0
   -9.6705   20.8995  -30.9709 H   0  0  0  0  0  0  0  0  0  0  0  0
   -7.8097   18.7175  -30.6431 H   0  0  0  0  0  0  0  0  0  0  0  0
   -9.2015   18.1808  -31.6127 H   0  0  0  0  0  0  0  0  0  0  0  0
   -6.5498   17.2821  -31.9216 H   0  0  0  0  0  0  0  0  0  0  0  0
   -7.8136   17.0944  -33.1437 H   0  0  0  0  0  0  0  0  0  0  0  0
   -5.4564   18.7458  -33.3066 H   0  0  0  0  0  0  0  0  0  0  0  0
   -6.7725   18.7084  -34.4831 H   0  0  0  0  0  0  0  0  0  0  0  0
   -6.2763   20.6123  -32.1956 H   0  0  0  0  0  0  0  0  0  0  0  0
   -7.0911   20.9288  -33.7394 H   0  0  0  0  0  0  0  0  0  0  0  0
   -6.7530   23.4027  -33.3538 H   0  0  0  0  0  0  0  0  0  0  0  0
   -5.9565   24.5931  -32.2311 H   0  0  0  0  0  0  0  0  0  0  0  0
   -5.2650   21.6291  -32.4717 H   0  0  0  0  0  0  0  0  0  0  0  0
   -4.3227   23.0112  -33.1602 H   0  0  0  0  0  0  0  0  0  0  0  0
   -2.6730   21.7340  -34.3210 H   0  0  0  0  0  0  0  0  0  0  0  0
   -0.7739   22.0688  -36.2475 H   0  0  0  0  0  0  0  0  0  0  0  0
    1.6578   21.6492  -36.7582 H   0  0  0  0  0  0  0  0  0  0  0  0
    2.2093   19.9538  -32.7835 H   0  0  0  0  0  0  0  0  0  0  0  0
   -0.4312   22.3361  -30.0155 H   0  0  0  0  0  0  0  0  0  0  0  0
  1  2  1  0
  2  3  2  0
  3  4  1  0
  4  5  1  0
  4  6  2  0
  6  7  1  0
  7  8  1  0
  8  9  2  0
  8 10  2  0
  8 11  1  0
 11 12  2  0
 12 13  1  0
 13 14  2  0
 13 15  1  0
 15 16  1  0
 16 17  1  0
 17 18  1  0
 18 19  1  0
 19 20  1  0
 20 21  1  0
 21 22  1  0
 22 23  1  0
 23 24  1  0
 24 25  1  0
 25 26  1  0
 19 27  1  0
 27 28  1  0
 12 29  1  0
 29 30  1  0
 30 31  2  0
 31 32  1  0
 32 33  2  0
 33 34  1  0
 33 35  1  0
 35 36  2  0
  7 37  2  0
 37  2  1  0
 36 11  1  0
 28 16  1  0
 36 30  1  0
 26 22  1  0
  1 38  1  0
  1 39  1  0
  1 40  1  0
  3 41  1  0
  5 42  1  0
  5 43  1  0
  5 44  1  0
  6 45  1  0
 16 46  1  6
 17 47  1  0
 17 48  1  0
 18 49  1  0
 18 50  1  0
 19 51  1  1
 20 52  1  0
 20 53  1  0
 21 54  1  0
 21 55  1  0
 23 56  1  0
 23 57  1  0
 24 58  1  0
 24 59  1  0
 25 60  1  0
 25 61  1  0
 26 62  1  0
 26 63  1  0
 27 64  1  0
 27 65  1  0
 28 66  1  0
 28 67  1  0
 29 68  1  0
 31 69  1  0
 32 70  1  0
 35 71  1  0
 37 72  1  0
M  CHG  2  15  -1  19   1
M  END
>  <UniqueID>  (6) 
6

>  <SMILES>  (6) 
Cc1cc(C)cc(S(=O)(=O)c2c(C(=O)[N-]C3CC[NH+](CCN4CCCC4)CC3)[nH]c3ccc(Cl)cc23)c1

>  <Energy>  (6) 
126.22039857826141

>  <Genealogy>  (6) 
Cc1cc(C)cc(S(=O)(=O)c2c(C(=O)[N-]C3CC[NH+](CCN4CCCC4)CC3)[nH]c3ccc(Cl)cc23)c1 (protonated)
Cc1cc(C)cc(S(=O)(=O)c2c(C(=O)[N-]C3CC[NH+](CCN4CCCC4)CC3)[nH]c3ccc(Cl)cc23)c1 (3D coordinates assigned)
Cc1cc(C)cc(S(=O)(=O)c2c(C(=O)[N-]C3CC[NH+](CCN4CCCC4)CC3)[nH]c3ccc(Cl)cc23)c1 (nonaromatic ring conformer: 126.22039857826141 kcal/mol)

>  <smiles>  (6) 
Cc1cc(C)cc(S(=O)(=O)c2c(C(=O)NC3CCN(CCN4CCCC4)CC3)[nH]c3ccc(Cl)cc23)c1

>  <score_type>  (6) 
oracle

>  <origin>  (6) 
adgpu

>  <m_score__min__energy>  (6) 
-12.369999999999999

>  <m_primary>  (6) 
energy

$$$$
6:0
     RDKit          3D

 76 80  0  0  0  0  0  0  0  0999 V2000
    0.3530   20.5010  -28.6080 C   0  0  0  0  0  0  0  0  0  0  0  0
    1.4560   19.1350  -28.8920 S   0  0  0  0  0  0  0  0  0  0  0  0
    1.7580   18.4590  -27.5840 O   0  0  0  0  0  0  0  0  0  0  0  0
    2.7420   19.6400  -29.4850 O   0  0  0  0  0  0  0  0  0  0  0  0
    0.7030   17.9960  -30.0020 C   0  0  0  0  0  0  0  0  0  0  0  0
    0.8880   16.6210  -29.8220 C   0  0  0  0  0  0  0  0  0  0  0  0
    0.3080   15.7080  -30.7080 C   0  0  0  0  0  0  0  0  0  0  0  0
   -0.4590   16.1600  -31.7960 C   0  0  0  0  0  0  0  0  0  0  0  0
   -1.0740   15.2050  -32.7500 C   0  0  0  0  0  0  0  0  0  0  0  0
   -0.8000   15.2950  -33.9780 O   0  0  0  0  0  0  0  0  0  0  0  0
   -1.9600   14.1700  -32.2920 N   0  0  0  0  0  0  0  0  0  0  0  0
   -2.5810   13.2010  -33.1940 C   0  0  0  0  0  0  0  0  0  0  0  0
   -3.7690   13.8360  -33.9260 C   0  0  1  0  0  0  0  0  0  0  0  0
   -4.4580   14.9480  -33.0830 C   0  0  0  0  0  0  0  0  0  0  0  0
   -4.3470   16.1660  -33.8790 N   0  0  0  0  0  0  0  0  0  0  0  0
   -4.8130   17.4730  -33.4800 C   0  0  0  0  0  0  0  0  0  0  0  0
   -3.8950   18.4490  -33.0530 C   0  0  0  0  0  0  0  0  0  0  0  0
   -4.3340   19.7210  -32.6760 C   0  0  0  0  0  0  0  0  0  0  0  0
   -5.6950   20.0410  -32.7300 C   0  0  0  0  0  0  0  0  0  0  0  0
   -6.1350   21.3430  -32.3270 N   0  0  0  0  0  0  0  0  0  0  0  0
   -5.3340   22.5080  -32.7110 C   0  0  0  0  0  0  0  0  0  0  0  0
   -6.1470   23.8070  -32.6030 C   0  0  0  0  0  0  0  0  0  0  0  0
   -6.8440   23.9200  -31.3060 N   0  0  0  0  0  0  0  0  0  0  0  0
   -5.9120   24.0320  -30.1650 C   0  0  0  0  0  0  0  0  0  0  0  0
   -4.9410   25.1590  -30.3860 C   0  0  0  0  0  0  0  0  0  0  0  0
   -5.3790   26.3380  -30.4690 O   0  0  0  0  0  0  0  0  0  0  0  0
   -3.5280   24.9410  -30.4710 N   0  0  0  0  0  0  0  0  0  0  0  0
   -2.6640   24.5240  -29.3660 C   0  0  0  0  0  0  0  0  0  0  0  0
   -3.5020   24.1880  -28.1330 C   0  0  0  0  0  0  0  0  0  0  0  0
   -3.7200   22.6770  -28.1430 C   0  0  0  0  0  0  0  0  0  0  0  0
   -2.9080   22.1170  -29.3060 C   0  0  0  0  0  0  0  0  0  0  0  0
   -1.9610   23.2260  -29.7300 C   0  0  0  0  0  0  0  0  0  0  0  0
   -7.8260   22.8310  -31.1320 C   0  0  0  0  0  0  0  0  0  0  0  0
   -7.2320   21.4780  -31.4060 C   0  0  0  0  0  0  0  0  0  0  0  0
   -7.7400   20.4580  -30.8680 O   0  0  0  0  0  0  0  0  0  0  0  0
   -6.6170   19.0810  -33.1650 C   0  0  0  0  0  0  0  0  0  0  0  0
   -7.9370   19.3860  -33.2390 F   0  0  0  0  0  0  0  0  0  0  0  0
   -6.1780   17.8070  -33.5430 C   0  0  0  0  0  0  0  0  0  0  0  0
   -3.6860   15.8120  -35.0800 C   0  0  0  0  0  0  0  0  0  0  0  0
   -3.4940   16.6000  -36.0430 O   0  0  0  0  0  0  0  0  0  0  0  0
   -3.3340   14.4840  -35.1150 O   0  0  0  0  0  0  0  0  0  0  0  0
   -0.6490   17.5420  -31.9670 C   0  0  0  0  0  0  0  0  0  0  0  0
   -0.0660   18.4540  -31.0810 C   0  0  0  0  0  0  0  0  0  0  0  0
    0.2296   20.6538  -27.5257 H   0  0  0  0  0  0  0  0  0  0  0  0
    0.7724   21.4113  -29.0613 H   0  0  0  0  0  0  0  0  0  0  0  0
   -0.6252   20.2828  -29.0613 H   0  0  0  0  0  0  0  0  0  0  0  0
    1.4930   16.2562  -28.9789 H   0  0  0  0  0  0  0  0  0  0  0  0
    0.4528   14.6287  -30.5527 H   0  0  0  0  0  0  0  0  0  0  0  0
   -2.0750   14.0070  -31.2660 H   0  0  0  0  0  0  0  0  0  0  0  0
   -1.8379   12.8654  -33.9324 H   0  0  0  0  0  0  0  0  0  0  0  0
   -2.9417   12.3453  -32.6043 H   0  0  0  0  0  0  0  0  0  0  0  0
   -4.4666   13.0094  -34.1263 H   0  0  0  0  0  0  0  0  0  0  0  0
   -5.5148   14.6983  -32.9077 H   0  0  0  0  0  0  0  0  0  0  0  0
   -3.9875   15.0618  -32.0952 H   0  0  0  0  0  0  0  0  0  0  0  0
   -2.8221   18.2091  -33.0154 H   0  0  0  0  0  0  0  0  0  0  0  0
   -3.6071   20.4732  -32.3356 H   0  0  0  0  0  0  0  0  0  0  0  0
   -4.4601   22.5763  -32.0464 H   0  0  0  0  0  0  0  0  0  0  0  0
   -5.0194   22.3823  -33.7575 H   0  0  0  0  0  0  0  0  0  0  0  0
   -5.4649   24.6627  -32.7148 H   0  0  0  0  0  0  0  0  0  0  0  0
   -6.9083   23.7971  -33.3969 H   0  0  0  0  0  0  0  0  0  0  0  0
   -6.4859   24.2237  -29.2464 H   0  0  0  0  0  0  0  0  0  0  0  0
   -5.3496   23.0913  -30.0717 H   0  0  0  0  0  0  0  0  0  0  0  0
   -1.9593   25.3457  -29.1704 H   0  0  0  0  0  0  0  0  0  0  0  0
   -2.9673   24.4870  -27.2194 H   0  0  0  0  0  0  0  0  0  0  0  0
   -4.4622   24.7244  -28.1515 H   0  0  0  0  0  0  0  0  0  0  0  0
   -3.3738   22.2391  -27.1951 H   0  0  0  0  0  0  0  0  0  0  0  0
   -4.7870   22.4351  -28.2568 H   0  0  0  0  0  0  0  0  0  0  0  0
   -2.3398   21.2319  -28.9839 H   0  0  0  0  0  0  0  0  0  0  0  0
   -3.5579   21.8038  -30.1363 H   0  0  0  0  0  0  0  0  0  0  0  0
   -1.0057   23.1423  -29.1911 H   0  0  0  0  0  0  0  0  0  0  0  0
   -1.7294   23.1755  -30.8041 H   0  0  0  0  0  0  0  0  0  0  0  0
   -8.1970   22.8513  -30.0966 H   0  0  0  0  0  0  0  0  0  0  0  0
   -8.6400   22.9935  -31.8538 H   0  0  0  0  0  0  0  0  0  0  0  0
   -6.9065   17.0605  -33.8923 H   0  0  0  0  0  0  0  0  0  0  0  0
   -1.2609   17.9093  -32.8041 H   0  0  0  0  0  0  0  0  0  0  0  0
   -0.2114   19.5339  -31.2314 H   0  0  0  0  0  0  0  0  0  0  0  0
  1  2  1  0
  2  3  2  0
  2  4  2  0
  2  5  1  0
  5  6  2  0
  6  7  1  0
  7  8  2  0
  8  9  1  0
  9 10  2  0
  9 11  1  0
 11 12  1  0
 12 13  1  0
 13 14  1  0
 14 15  1  0
 15 16  1  0
 16 17  2  0
 17 18  1  0
 18 19  2  0
 19 20  1  0
 20 21  1  0
 21 22  1  0
 22 23  1  0
 23 24  1  0
 24 25  1  0
 25 26  2  0
 25 27  1  0
 27 28  1  0
 28 29  1  0
 29 30  1  0
 30 31  1  0
 31 32  1  0
 23 33  1  0
 33 34  1  0
 34 35  2  0
 19 36  1  0
 36 37  1  0
 36 38  2  0
 15 39  1  0
 39 40  2  0
 39 41  1  0
  8 42  1  0
 42 43  2  0
 43  5  1  0
 41 13  1  0
 38 16  1  0
 34 20  1  0
 32 28  1  0
  1 44  1  0
  1 45  1  0
  1 46  1  0
  6 47  1  0
  7 48  1  0
 11 49  1  0
 12 50  1  0
 12 51  1  0
 13 52  1  6
 14 53  1  0
 14 54  1  0
 17 55  1  0
 18 56  1  0
 21 57  1  0
 21 58  1  0
 22 59  1  0
 22 60  1  0
 24 61  1  0
 24 62  1  0
 28 63  1  0
 29 64  1  0
 29 65  1  0
 30 66  1  0
 30 67  1  0
 31 68  1  0
 31 69  1  0
 32 70  1  0
 32 71  1  0
 33 72  1  0
 33 73  1  0
 38 74  1  0
 42 75  1  0
 43 76  1  0
M  CHG  1  27  -1
M  END
>  <UniqueID>  (7) 
7

>  <SMILES>  (7) 
CS(=O)(=O)c1ccc(C(=O)NC[C@H]2CN(c3ccc(N4CCN(CC(=O)[N-]C5CCCC5)CC4=O)c(F)c3)C(=O)O2)cc1

>  <Energy>  (7) 
104.17250713845873

>  <Genealogy>  (7) 
CS(=O)(=O)c1ccc(C(=O)NCC2CN(c3ccc(N4CCN(CC(=O)[N-]C5CCCC5)CC4=O)c(F)c3)C(=O)O2)cc1 (protonated)
CS(=O)(=O)c1ccc(C(=O)NC[C@H]2CN(c3ccc(N4CCN(CC(=O)[N-]C5CCCC5)CC4=O)c(F)c3)C(=O)O2)cc1 (chirality)
CS(=O)(=O)c1ccc(C(=O)NC[C@H]2CN(c3ccc(N4CCN(CC(=O)[N-]C5CCCC5)CC4=O)c(F)c3)C(=O)O2)cc1 (3D coordinates assigned)
CS(=O)(=O)c1ccc(C(=O)NC[C@H]2CN(c3ccc(N4CCN(CC(=O)[N-]C5CCCC5)CC4=O)c(F)c3)C(=O)O2)cc1 (nonaromatic ring conformer: 104.17250713845873 kcal/mol)

>  <smiles>  (7) 
CS(=O)(=O)c1ccc(C(=O)NCC2CN(c3ccc(N4CCN(CC(=O)NC5CCCC5)CC4=O)c(F)c3)C(=O)O2)cc1

>  <score_type>  (7) 
oracle

>  <origin>  (7) 
adgpu

>  <m_score__min__energy>  (7) 
-12.56

>  <m_primary>  (7) 
energy

$$$$
7:0
     RDKit          3D

 56 59  0  0  0  0  0  0  0  0999 V2000
   -3.9450   25.4500  -30.7370 O   0  0  0  0  0  0  0  0  0  0  0  0
   -3.7390   24.2130  -30.6150 C   0  0  0  0  0  0  0  0  0  0  0  0
   -4.2790   23.3290  -31.6060 N   0  0  0  0  0  0  0  0  0  0  0  0
   -5.6200   22.8070  -31.6430 C   0  0  0  0  0  0  0  0  0  0  0  0
   -6.6850   23.5590  -31.1120 C   0  0  0  0  0  0  0  0  0  0  0  0
   -7.9820   23.0490  -31.1070 C   0  0  0  0  0  0  0  0  0  0  0  0
   -8.2330   21.7740  -31.6100 C   0  0  0  0  0  0  0  0  0  0  0  0
   -7.1860   21.0040  -32.1180 C   0  0  0  0  0  0  0  0  0  0  0  0
   -5.8680   21.5030  -32.1430 C   0  0  0  0  0  0  0  0  0  0  0  0
   -4.7880   20.6580  -32.7170 C   0  0  0  0  0  0  0  0  0  0  0  0
   -4.9300   20.1190  -33.8470 O   0  0  0  0  0  0  0  0  0  0  0  0
   -3.5620   20.4810  -31.9940 N   0  0  0  0  0  0  0  0  0  0  0  0
   -2.2540   20.3380  -32.5660 C   0  0  0  0  0  0  0  0  0  0  0  0
   -2.1020   19.5500  -33.7130 C   0  0  0  0  0  0  0  0  0  0  0  0
   -0.8470   19.3990  -34.3080 C   0  0  0  0  0  0  0  0  0  0  0  0
    0.2710   20.0500  -33.7690 C   0  0  0  0  0  0  0  0  0  0  0  0
    1.8530   19.8870  -34.5280 S   0  0  0  0  0  0  0  0  0  0  0  0
    1.9890   18.5110  -35.1250 O   0  0  0  0  0  0  0  0  0  0  0  0
    2.9140   20.0580  -33.4740 O   0  0  0  0  0  0  0  0  0  0  0  0
    2.0530   21.1010  -35.7670 N   0  0  0  0  0  0  0  0  0  0  0  0
    2.8880   22.2120  -35.2550 C   0  0  0  0  0  0  0  0  0  0  0  0
    2.7060   23.4850  -36.0890 C   0  0  0  0  0  0  0  0  0  0  0  0
    1.2520   23.9860  -36.0220 C   0  0  0  0  0  0  0  0  0  0  0  0
    0.2460   22.8550  -35.7420 C   0  0  0  0  0  0  0  0  0  0  0  0
    0.7410   21.5200  -36.3190 C   0  0  0  0  0  0  0  0  0  0  0  0
    0.1180   20.8690  -32.6430 C   0  0  0  0  0  0  0  0  0  0  0  0
   -1.1370   21.0150  -32.0440 C   0  0  0  0  0  0  0  0  0  0  0  0
   -3.0120   23.7040  -29.4260 C   0  0  0  0  0  0  0  0  0  0  0  0
   -3.3610   22.4600  -28.8690 C   0  0  0  0  0  0  0  0  0  0  0  0
   -2.6880   21.9710  -27.7460 C   0  0  0  0  0  0  0  0  0  0  0  0
   -1.6660   22.7210  -27.1610 C   0  0  0  0  0  0  0  0  0  0  0  0
   -1.3170   23.9620  -27.6960 C   0  0  0  0  0  0  0  0  0  0  0  0
   -1.9840   24.4590  -28.8230 C   0  0  0  0  0  0  0  0  0  0  0  0
   -1.6070   25.6940  -29.3420 O   0  0  0  0  0  0  0  0  0  0  0  0
   -6.4916   24.5591  -30.6969 H   0  0  0  0  0  0  0  0  0  0  0  0
   -8.8085   23.6537  -30.7055 H   0  0  0  0  0  0  0  0  0  0  0  0
   -9.2577   21.3740  -31.6066 H   0  0  0  0  0  0  0  0  0  0  0  0
   -7.3919   19.9947  -32.5039 H   0  0  0  0  0  0  0  0  0  0  0  0
   -2.9771   19.0460  -34.1490 H   0  0  0  0  0  0  0  0  0  0  0  0
   -0.7361   18.7675  -35.2018 H   0  0  0  0  0  0  0  0  0  0  0  0
    2.6020   22.4232  -34.2141 H   0  0  0  0  0  0  0  0  0  0  0  0
    3.9430   21.9070  -35.3182 H   0  0  0  0  0  0  0  0  0  0  0  0
    3.3743   24.2678  -35.7009 H   0  0  0  0  0  0  0  0  0  0  0  0
    2.9492   23.2549  -37.1368 H   0  0  0  0  0  0  0  0  0  0  0  0
    1.1740   24.7332  -35.2185 H   0  0  0  0  0  0  0  0  0  0  0  0
    1.0034   24.4162  -37.0034 H   0  0  0  0  0  0  0  0  0  0  0  0
    0.1162   22.7505  -34.6547 H   0  0  0  0  0  0  0  0  0  0  0  0
   -0.7100   23.1105  -36.2224 H   0  0  0  0  0  0  0  0  0  0  0  0
   -0.0012   20.7416  -36.0882 H   0  0  0  0  0  0  0  0  0  0  0  0
    0.8686   21.6570  -37.4030 H   0  0  0  0  0  0  0  0  0  0  0  0
    0.9882   21.3991  -32.2285 H   0  0  0  0  0  0  0  0  0  0  0  0
   -1.2512   21.6616  -31.1614 H   0  0  0  0  0  0  0  0  0  0  0  0
   -4.1701   21.8675  -29.3211 H   0  0  0  0  0  0  0  0  0  0  0  0
   -2.9639   20.9940  -27.3225 H   0  0  0  0  0  0  0  0  0  0  0  0
   -1.1358   22.3338  -26.2784 H   0  0  0  0  0  0  0  0  0  0  0  0
   -0.5143   24.5526  -27.2303 H   0  0  0  0  0  0  0  0  0  0  0  0
  1  2  2  0
  2  3  1  0
  3  4  1  0
  4  5  2  0
  5  6  1  0
  6  7  2  0
  7  8  1  0
  8  9  2  0
  9 10  1  0
 10 11  2  0
 10 12  1  0
 12 13  1  0
 13 14  2  0
 14 15  1  0
 15 16  2  0
 16 17  1  0
 17 18  2  0
 17 19  2  0
 17 20  1  0
 20 21  1  0
 21 22  1  0
 22 23  1  0
 23 24  1  0
 24 25  1  0
 16 26  1  0
 26 27  2  0
  2 28  1  0
 28 29  2  0
 29 30  1  0
 30 31  2  0
 31 32  1  0
 32 33  2  0
 33 34  1  0
  9  4  1  0
 27 13  1  0
 33 28  1  0
 25 20  1  0
  5 35  1  0
  6 36  1  0
  7 37  1  0
  8 38  1  0
 14 39  1  0
 15 40  1  0
 21 41  1  0
 21 42  1  0
 22 43  1  0
 22 44  1  0
 23 45  1  0
 23 46  1  0
 24 47  1  0
 24 48  1  0
 25 49  1  0
 25 50  1  0
 26 51  1  0
 27 52  1  0
 29 53  1  0
 30 54  1  0
 31 55  1  0
 32 56  1  0
M  CHG  3   3  -1  12  -1  34  -1
M  END
>  <UniqueID>  (8) 
8

>  <SMILES>  (8) 
O=C([N-]c1ccccc1C(=O)[N-]c1ccc(S(=O)(=O)N2CCCCC2)cc1)c1ccccc1[O-]

>  <Energy>  (8) 
79.6988749436278

>  <Genealogy>  (8) 
O=C([N-]c1ccccc1C(=O)[N-]c1ccc(S(=O)(=O)N2CCCCC2)cc1)c1ccccc1[O-] (protonated)
O=C([N-]c1ccccc1C(=O)[N-]c1ccc(S(=O)(=O)N2CCCCC2)cc1)c1ccccc1[O-] (3D coordinates assigned)
O=C([N-]c1ccccc1C(=O)[N-]c1ccc(S(=O)(=O)N2CCCCC2)cc1)c1ccccc1[O-] (nonaromatic ring conformer: 79.6988749436278 kcal/mol)

>  <smiles>  (8) 
O=C(Nc1ccccc1C(=O)Nc1ccc(S(=O)(=O)N2CCCCC2)cc1)c1ccccc1O

>  <score_type>  (8) 
oracle

>  <origin>  (8) 
adgpu

>  <m_score__min__energy>  (8) 
-14.369999999999999

>  <m_primary>  (8) 
energy

$$$$
8:0
     RDKit          3D

 57 60  0  0  0  0  0  0  0  0999 V2000
   -8.3130   19.4440  -31.6470 C   0  0  0  0  0  0  0  0  0  0  0  0
   -7.1790   18.8310  -32.3600 N   0  0  0  0  0  0  0  0  0  0  0  0
   -7.5220   17.4660  -32.7900 C   0  0  0  0  0  0  0  0  0  0  0  0
   -6.2760   16.7630  -33.3490 C   0  0  0  0  0  0  0  0  0  0  0  0
   -5.4760   17.6200  -34.2530 N   0  0  0  0  0  0  0  0  0  0  0  0
   -3.8190   17.8310  -33.7260 S   0  0  0  0  0  0  0  0  0  0  0  0
   -2.9010   17.6960  -34.9090 O   0  0  0  0  0  0  0  0  0  0  0  0
   -3.4710   16.7420  -32.7490 O   0  0  0  0  0  0  0  0  0  0  0  0
   -3.5470   19.3950  -32.9580 C   0  0  0  0  0  0  0  0  0  0  0  0
   -2.7800   20.3740  -33.6030 C   0  0  0  0  0  0  0  0  0  0  0  0
   -2.5400   21.6030  -32.9820 C   0  0  0  0  0  0  0  0  0  0  0  0
   -3.0760   21.8760  -31.7120 C   0  0  0  0  0  0  0  0  0  0  0  0
   -2.8290   23.1430  -31.0680 N   0  0  0  0  0  0  0  0  0  0  0  0
   -1.5240   23.3830  -30.4290 C   0  0  0  0  0  0  0  0  0  0  0  0
   -1.6800   23.6970  -28.9600 C   0  0  0  0  0  0  0  0  0  0  0  0
   -1.9830   22.6690  -28.0500 C   0  0  0  0  0  0  0  0  0  0  0  0
   -2.1450   22.9520  -26.6910 C   0  0  0  0  0  0  0  0  0  0  0  0
   -2.0050   24.2620  -26.2270 C   0  0  0  0  0  0  0  0  0  0  0  0
   -1.7030   25.2910  -27.1210 C   0  0  0  0  0  0  0  0  0  0  0  0
   -1.5410   25.0170  -28.4830 C   0  0  0  0  0  0  0  0  0  0  0  0
   -1.2450   26.0580  -29.3540 O   0  0  0  0  0  0  0  0  0  0  0  0
   -3.9380   24.0130  -30.7590 C   0  0  0  0  0  0  0  0  0  0  0  0
   -3.7200   25.2160  -30.4490 O   0  0  0  0  0  0  0  0  0  0  0  0
   -5.3280   23.5260  -30.8220 C   0  0  0  0  0  0  0  0  0  0  0  0
   -6.0920   23.1130  -29.7370 C   0  0  0  0  0  0  0  0  0  0  0  0
   -7.3930   22.7300  -30.0870 C   0  0  0  0  0  0  0  0  0  0  0  0
   -7.6630   22.8500  -31.4440 C   0  0  0  0  0  0  0  0  0  0  0  0
   -6.2830   23.4300  -32.2060 S   0  0  0  0  0  0  0  0  0  0  0  0
   -3.8650   20.8970  -31.0800 C   0  0  0  0  0  0  0  0  0  0  0  0
   -4.1030   19.6700  -31.7030 C   0  0  0  0  0  0  0  0  0  0  0  0
   -6.1190   18.8810  -34.6680 C   0  0  0  0  0  0  0  0  0  0  0  0
   -6.7650   19.6750  -33.5070 C   0  0  0  0  0  0  0  0  0  0  0  0
   -8.1537   19.3579  -30.5620 H   0  0  0  0  0  0  0  0  0  0  0  0
   -8.3889   20.5060  -31.9233 H   0  0  0  0  0  0  0  0  0  0  0  0
   -9.2431   18.9258  -31.9233 H   0  0  0  0  0  0  0  0  0  0  0  0
   -6.3880   18.7760  -31.6770 H   0  0  0  0  0  0  0  0  0  0  0  0
   -7.9052   16.8983  -31.9292 H   0  0  0  0  0  0  0  0  0  0  0  0
   -8.2907   17.5171  -33.5751 H   0  0  0  0  0  0  0  0  0  0  0  0
   -5.6402   16.4563  -32.5054 H   0  0  0  0  0  0  0  0  0  0  0  0
   -6.6246   15.9029  -33.9395 H   0  0  0  0  0  0  0  0  0  0  0  0
   -2.3650   20.1747  -34.6020 H   0  0  0  0  0  0  0  0  0  0  0  0
   -1.9273   22.3617  -33.4909 H   0  0  0  0  0  0  0  0  0  0  0  0
   -0.9008   22.4832  -30.5386 H   0  0  0  0  0  0  0  0  0  0  0  0
   -1.0515   24.2467  -30.9197 H   0  0  0  0  0  0  0  0  0  0  0  0
   -2.0933   21.6354  -28.4099 H   0  0  0  0  0  0  0  0  0  0  0  0
   -2.3831   22.1420  -25.9858 H   0  0  0  0  0  0  0  0  0  0  0  0
   -2.1327   24.4830  -25.1570 H   0  0  0  0  0  0  0  0  0  0  0  0
   -1.5920   26.3215  -26.7527 H   0  0  0  0  0  0  0  0  0  0  0  0
   -5.7123   23.0892  -28.7049 H   0  0  0  0  0  0  0  0  0  0  0  0
   -8.1312   22.3683  -29.3561 H   0  0  0  0  0  0  0  0  0  0  0  0
   -8.6167   22.6070  -31.9354 H   0  0  0  0  0  0  0  0  0  0  0  0
   -4.2971   21.0995  -30.0889 H   0  0  0  0  0  0  0  0  0  0  0  0
   -4.7304   18.9160  -31.2052 H   0  0  0  0  0  0  0  0  0  0  0  0
   -5.3565   19.5183  -35.1396 H   0  0  0  0  0  0  0  0  0  0  0  0
   -6.9325   18.6096  -35.3569 H   0  0  0  0  0  0  0  0  0  0  0  0
   -6.0365   20.4162  -33.1466 H   0  0  0  0  0  0  0  0  0  0  0  0
   -7.6778   20.1405  -33.9072 H   0  0  0  0  0  0  0  0  0  0  0  0
  1  2  1  0
  2  3  1  0
  3  4  1  0
  4  5  1  0
  5  6  1  0
  6  7  2  0
  6  8  2  0
  6  9  1  0
  9 10  2  0
 10 11  1  0
 11 12  2  0
 12 13  1  0
 13 14  1  0
 14 15  1  0
 15 16  2  0
 16 17  1  0
 17 18  2  0
 18 19  1  0
 19 20  2  0
 20 21  1  0
 13 22  1  0
 22 23  2  0
 22 24  1  0
 24 25  2  0
 25 26  1  0
 26 27  2  0
 27 28  1  0
 12 29  1  0
 29 30  2  0
  5 31  1  0
 31 32  1  0
 32  2  1  0
 30  9  1  0
 20 15  1  0
 28 24  1  0
  1 33  1  0
  1 34  1  0
  1 35  1  0
  2 36  1  0
  3 37  1  0
  3 38  1  0
  4 39  1  0
  4 40  1  0
 10 41  1  0
 11 42  1  0
 14 43  1  0
 14 44  1  0
 16 45  1  0
 17 46  1  0
 18 47  1  0
 19 48  1  0
 25 49  1  0
 26 50  1  0
 27 51  1  0
 29 52  1  0
 30 53  1  0
 31 54  1  0
 31 55  1  0
 32 56  1  0
 32 57  1  0
M  CHG  2   2   1  21  -1
M  END
>  <UniqueID>  (9) 
9

>  <SMILES>  (9) 
C[NH+]1CCN(S(=O)(=O)c2ccc(N(Cc3ccccc3[O-])C(=O)c3cccs3)cc2)CC1

>  <Energy>  (9) 
104.58610031343098

>  <Genealogy>  (9) 
C[NH+]1CCN(S(=O)(=O)c2ccc(N(Cc3ccccc3[O-])C(=O)c3cccs3)cc2)CC1 (protonated)
C[NH+]1CCN(S(=O)(=O)c2ccc(N(Cc3ccccc3[O-])C(=O)c3cccs3)cc2)CC1 (3D coordinates assigned)
C[NH+]1CCN(S(=O)(=O)c2ccc(N(Cc3ccccc3[O-])C(=O)c3cccs3)cc2)CC1 (nonaromatic ring conformer: 104.58610031343098 kcal/mol)

>  <smiles>  (9) 
CN1CCN(S(=O)(=O)c2ccc(N(Cc3ccccc3O)C(=O)c3cccs3)cc2)CC1

>  <score_type>  (9) 
oracle

>  <origin>  (9) 
adgpu

>  <m_score__min__energy>  (9) 
-11.99

>  <m_primary>  (9) 
energy

$$$$
9:0
     RDKit          3D

 58 61  0  0  0  0  0  0  0  0999 V2000
   -6.8870   18.7220  -33.8400 O   0  0  0  0  0  0  0  0  0  0  0  0
   -5.9990   18.7150  -32.6270 S   0  0  0  0  0  0  0  0  0  0  0  0
   -5.8070   17.2890  -32.1900 O   0  0  0  0  0  0  0  0  0  0  0  0
   -6.7580   19.6330  -31.3640 N   0  0  0  0  0  0  0  0  0  0  0  0
   -6.9410   21.0550  -31.3750 C   0  0  0  0  0  0  0  0  0  0  0  0
   -8.1070   21.5780  -31.9510 C   0  0  0  0  0  0  0  0  0  0  0  0
   -8.3220   22.9600  -31.9790 C   0  0  0  0  0  0  0  0  0  0  0  0
   -7.3880   23.8270  -31.4100 C   0  0  0  0  0  0  0  0  0  0  0  0
   -6.2240   23.3160  -30.8190 C   0  0  0  0  0  0  0  0  0  0  0  0
   -5.0610   24.4010  -30.0490 S   0  0  0  0  0  0  0  0  0  0  0  0
   -5.7830   25.2760  -29.0630 O   0  0  0  0  0  0  0  0  0  0  0  0
   -4.4460   25.2900  -31.0940 O   0  0  0  0  0  0  0  0  0  0  0  0
   -3.7970   23.5110  -29.2290 N   0  0  0  0  0  0  0  0  0  0  0  0
   -2.8170   22.9910  -30.2090 C   0  0  0  0  0  0  0  0  0  0  0  0
   -1.4750   22.6590  -29.5480 C   0  0  0  0  0  0  0  0  0  0  0  0
   -0.8310   23.9220  -28.9450 C   0  0  0  0  0  0  0  0  0  0  0  0
   -1.8730   24.9650  -28.5030 C   0  0  0  0  0  0  0  0  0  0  0  0
   -3.2030   24.2990  -28.1170 C   0  0  0  0  0  0  0  0  0  0  0  0
   -5.9970   21.9330  -30.8130 C   0  0  0  0  0  0  0  0  0  0  0  0
   -4.4600   19.4670  -33.0430 C   0  0  0  0  0  0  0  0  0  0  0  0
   -4.3240   20.8630  -33.0690 C   0  0  0  0  0  0  0  0  0  0  0  0
   -3.1130   21.4430  -33.4600 C   0  0  0  0  0  0  0  0  0  0  0  0
   -2.0160   20.6390  -33.8000 C   0  0  0  0  0  0  0  0  0  0  0  0
   -0.8000   21.2790  -34.2180 N   0  0  0  0  0  0  0  0  0  0  0  0
    0.2630   20.6630  -34.6390 C   0  0  0  0  0  0  0  0  0  0  0  0
    1.4680   21.4210  -35.0260 C   0  0  0  0  0  0  0  0  0  0  0  0
    2.7140   20.7760  -34.9260 C   0  0  0  0  0  0  0  0  0  0  0  0
    3.8920   21.4580  -35.2410 C   0  0  0  0  0  0  0  0  0  0  0  0
    3.8410   22.7850  -35.6670 C   0  0  0  0  0  0  0  0  0  0  0  0
    2.6120   23.4320  -35.7900 C   0  0  0  0  0  0  0  0  0  0  0  0
    1.4190   22.7600  -35.4920 C   0  0  0  0  0  0  0  0  0  0  0  0
    0.2160   23.4360  -35.7040 O   0  0  0  0  0  0  0  0  0  0  0  0
   -2.1570   19.2370  -33.7750 C   0  0  0  0  0  0  0  0  0  0  0  0
   -3.3730   18.6580  -33.4000 C   0  0  0  0  0  0  0  0  0  0  0  0
   -8.8565   20.8985  -32.3830 H   0  0  0  0  0  0  0  0  0  0  0  0
   -9.2297   23.3645  -32.4508 H   0  0  0  0  0  0  0  0  0  0  0  0
   -7.5654   24.9125  -31.4253 H   0  0  0  0  0  0  0  0  0  0  0  0
   -3.2232   22.0781  -30.6690 H   0  0  0  0  0  0  0  0  0  0  0  0
   -2.6427   23.7702  -30.9657 H   0  0  0  0  0  0  0  0  0  0  0  0
   -1.6402   21.9222  -28.7481 H   0  0  0  0  0  0  0  0  0  0  0  0
   -0.7982   22.2508  -30.3131 H   0  0  0  0  0  0  0  0  0  0  0  0
   -0.2330   23.6287  -28.0696 H   0  0  0  0  0  0  0  0  0  0  0  0
   -0.2086   24.3835  -29.7258 H   0  0  0  0  0  0  0  0  0  0  0  0
   -1.4826   25.5151  -27.6341 H   0  0  0  0  0  0  0  0  0  0  0  0
   -2.0589   25.6476  -29.3453 H   0  0  0  0  0  0  0  0  0  0  0  0
   -3.0248   23.6259  -27.2654 H   0  0  0  0  0  0  0  0  0  0  0  0
   -3.9128   25.0999  -27.8627 H   0  0  0  0  0  0  0  0  0  0  0  0
   -5.0753   21.5320  -30.3662 H   0  0  0  0  0  0  0  0  0  0  0  0
   -5.1714   21.5026  -32.7813 H   0  0  0  0  0  0  0  0  0  0  0  0
   -3.0205   22.5383  -33.5011 H   0  0  0  0  0  0  0  0  0  0  0  0
    0.2649   19.5651  -34.7077 H   0  0  0  0  0  0  0  0  0  0  0  0
    2.7613   19.7273  -34.5975 H   0  0  0  0  0  0  0  0  0  0  0  0
    4.8621   20.9470  -35.1528 H   0  0  0  0  0  0  0  0  0  0  0  0
    4.7710   23.3216  -35.9061 H   0  0  0  0  0  0  0  0  0  0  0  0
    2.5786   24.4795  -36.1240 H   0  0  0  0  0  0  0  0  0  0  0  0
   -0.6930   23.0220  -35.5430 H   0  0  0  0  0  0  0  0  0  0  0  0
   -1.3071   18.5958  -34.0516 H   0  0  0  0  0  0  0  0  0  0  0  0
   -3.4769   17.5630  -33.3851 H   0  0  0  0  0  0  0  0  0  0  0  0
  1  2  2  0
  2  3  2  0
  2  4  1  0
  4  5  1  0
  5  6  2  0
  6  7  1  0
  7  8  2  0
  8  9  1  0
  9 10  1  0
 10 11  2  0
 10 12  2  0
 10 13  1  0
 13 14  1  0
 14 15  1  0
 15 16  1  0
 16 17  1  0
 17 18  1  0
  9 19  2  0
  2 20  1  0
 20 21  2  0
 21 22  1  0
 22 23  2  0
 23 24  1  0
 24 25  2  3
 25 26  1  0
 26 27  2  0
 27 28  1  0
 28 29  2  0
 29 30  1  0
 30 31  2  0
 31 32  1  0
 23 33  1  0
 33 34  2  0
 19  5  1  0
 34 20  1  0
 18 13  1  0
 31 26  1  0
  6 35  1  0
  7 36  1  0
  8 37  1  0
 14 38  1  0
 14 39  1  0
 15 40  1  0
 15 41  1  0
 16 42  1  0
 16 43  1  0
 17 44  1  0
 17 45  1  0
 18 46  1  0
 18 47  1  0
 19 48  1  0
 21 49  1  0
 22 50  1  0
 25 51  1  0
 27 52  1  0
 28 53  1  0
 29 54  1  0
 30 55  1  0
 32 56  1  0
 33 57  1  0
 34 58  1  0
M  CHG  1   4  -1
M  END
>  <UniqueID>  (10) 
10

>  <SMILES>  (10) 
O=S(=O)([N-]c1cccc(S(=O)(=O)N2CCCCC2)c1)c1ccc(N=Cc2ccccc2O)cc1

>  <Energy>  (10) 
77.03724245941689

>  <Genealogy>  (10) 
O=S(=O)([N-]c1cccc(S(=O)(=O)N2CCCCC2)c1)c1ccc(N=Cc2ccccc2O)cc1 (protonated)
O=S(=O)([N-]c1cccc(S(=O)(=O)N2CCCCC2)c1)c1ccc(N=Cc2ccccc2O)cc1 (3D coordinates assigned)
O=S(=O)([N-]c1cccc(S(=O)(=O)N2CCCCC2)c1)c1ccc(N=Cc2ccccc2O)cc1 (nonaromatic ring conformer: 77.03724245941689 kcal/mol)

>  <smiles>  (10) 
O=S(=O)(Nc1cccc(S(=O)(=O)N2CCCCC2)c1)c1ccc(N=Cc2ccccc2O)cc1

>  <score_type>  (10) 
oracle

>  <origin>  (10) 
adgpu

>  <m_score__min__energy>  (10) 
-11.029999999999999

>  <m_primary>  (10) 
energy

$$$$
10:0
     RDKit          3D

 49 52  0  0  0  0  0  0  0  0999 V2000
    0.1920   19.4750  -29.2200 C   0  0  0  0  0  0  0  0  0  0  0  0
    0.2310   20.0880  -27.8810 N   0  0  0  0  0  0  0  0  0  0  0  0
   -0.9180   19.7000  -27.0410 C   0  0  0  0  0  0  0  0  0  0  0  0
   -2.2490   20.2170  -27.5970 C   0  0  0  0  0  0  0  0  0  0  0  0
   -2.1600   21.6600  -28.0240 C   0  0  0  0  0  0  0  0  0  0  0  0
   -3.3400   22.3790  -28.2540 C   0  0  0  0  0  0  0  0  0  0  0  0
   -3.2920   23.7200  -28.6710 C   0  0  0  0  0  0  0  0  0  0  0  0
   -4.4820   24.4990  -28.8470 N   0  0  0  0  0  0  0  0  0  0  0  0
   -5.2650   24.7900  -30.3680 S   0  0  0  0  0  0  0  0  0  0  0  0
   -4.3880   25.6700  -31.2130 O   0  0  0  0  0  0  0  0  0  0  0  0
   -6.5770   25.4810  -30.1190 O   0  0  0  0  0  0  0  0  0  0  0  0
   -5.5750   23.2560  -31.1780 C   0  0  0  0  0  0  0  0  0  0  0  0
   -6.8860   22.7710  -31.2720 C   0  0  0  0  0  0  0  0  0  0  0  0
   -7.1350   21.5200  -31.8430 C   0  0  0  0  0  0  0  0  0  0  0  0
   -6.0750   20.7330  -32.3220 C   0  0  0  0  0  0  0  0  0  0  0  0
   -6.3290   19.4280  -32.8740 N   0  0  0  0  0  0  0  0  0  0  0  0
   -5.7300   18.9130  -34.0950 C   0  0  0  0  0  0  0  0  0  0  0  0
   -6.1990   17.4490  -34.2180 C   0  0  0  0  0  0  0  0  0  0  0  0
   -7.2320   17.2040  -33.1060 C   0  0  0  0  0  0  0  0  0  0  0  0
   -7.2200   18.4620  -32.3410 C   0  0  0  0  0  0  0  0  0  0  0  0
   -7.9700   18.6790  -31.3510 O   0  0  0  0  0  0  0  0  0  0  0  0
   -4.7660   21.2400  -32.2550 C   0  0  0  0  0  0  0  0  0  0  0  0
   -4.5180   22.4930  -31.6870 C   0  0  0  0  0  0  0  0  0  0  0  0
   -2.0490   24.3210  -28.9060 C   0  0  0  0  0  0  0  0  0  0  0  0
   -1.9820   25.6420  -29.3370 O   0  0  0  0  0  0  0  0  0  0  0  0
   -0.8690   23.6050  -28.6970 C   0  0  0  0  0  0  0  0  0  0  0  0
   -0.9140   22.2740  -28.2620 C   0  0  0  0  0  0  0  0  0  0  0  0
    0.3810   21.5580  -27.9490 C   0  0  0  0  0  0  0  0  0  0  0  0
    0.1224   18.3817  -29.1209 H   0  0  0  0  0  0  0  0  0  0  0  0
   -0.6841   19.8498  -29.7695 H   0  0  0  0  0  0  0  0  0  0  0  0
    1.1086   19.7358  -29.7695 H   0  0  0  0  0  0  0  0  0  0  0  0
   -0.9607   18.6022  -26.9860 H   0  0  0  0  0  0  0  0  0  0  0  0
   -0.7731   20.1480  -26.0469 H   0  0  0  0  0  0  0  0  0  0  0  0
   -2.5319   19.6060  -28.4669 H   0  0  0  0  0  0  0  0  0  0  0  0
   -3.0020   20.1447  -26.7984 H   0  0  0  0  0  0  0  0  0  0  0  0
   -4.3138   21.8890  -28.1067 H   0  0  0  0  0  0  0  0  0  0  0  0
   -7.7227   23.3773  -30.8948 H   0  0  0  0  0  0  0  0  0  0  0  0
   -8.1680   21.1493  -31.9178 H   0  0  0  0  0  0  0  0  0  0  0  0
   -6.0704   19.4970  -34.9628 H   0  0  0  0  0  0  0  0  0  0  0  0
   -4.6326   18.9818  -34.0639 H   0  0  0  0  0  0  0  0  0  0  0  0
   -6.6599   17.2830  -35.2029 H   0  0  0  0  0  0  0  0  0  0  0  0
   -5.3487   16.7583  -34.1182 H   0  0  0  0  0  0  0  0  0  0  0  0
   -8.2284   17.0117  -33.5306 H   0  0  0  0  0  0  0  0  0  0  0  0
   -6.9955   16.3251  -32.4882 H   0  0  0  0  0  0  0  0  0  0  0  0
   -3.9299   20.6461  -32.6527 H   0  0  0  0  0  0  0  0  0  0  0  0
   -3.4895   22.8802  -31.6400 H   0  0  0  0  0  0  0  0  0  0  0  0
    0.1026   24.0891  -28.8750 H   0  0  0  0  0  0  0  0  0  0  0  0
    1.1127   21.7990  -28.7342 H   0  0  0  0  0  0  0  0  0  0  0  0
    0.7125   21.8995  -26.9573 H   0  0  0  0  0  0  0  0  0  0  0  0
  1  2  1  0
  2  3  1  0
  3  4  1  0
  4  5  1  0
  5  6  2  0
  6  7  1  0
  7  8  1  0
  8  9  1  0
  9 10  2  0
  9 11  2  0
  9 12  1  0
 12 13  2  0
 13 14  1  0
 14 15  2  0
 15 16  1  0
 16 17  1  0
 17 18  1  0
 18 19  1  0
 19 20  1  0
 20 21  2  0
 15 22  1  0
 22 23  2  0
  7 24  2  0
 24 25  1  0
 24 26  1  0
 26 27  2  0
 27 28  1  0
 28  2  1  0
 27  5  1  0
 23 12  1  0
 20 16  1  0
  1 29  1  0
  1 30  1  0
  1 31  1  0
  3 32  1  0
  3 33  1  0
  4 34  1  0
  4 35  1  0
  6 36  1  0
 13 37  1  0
 14 38  1  0
 17 39  1  0
 17 40  1  0
 18 41  1  0
 18 42  1  0
 19 43  1  0
 19 44  1  0
 22 45  1  0
 23 46  1  0
 26 47  1  0
 28 48  1  0
 28 49  1  0
M  CHG  2   8  -1  25  -1
M  END
>  <UniqueID>  (11) 
11

>  <SMILES>  (11) 
CN1CCc2cc([N-]S(=O)(=O)c3ccc(N4CCCC4=O)cc3)c([O-])cc2C1

>  <Energy>  (11) 
70.47397383509528

>  <Genealogy>  (11) 
CN1CCc2cc([N-]S(=O)(=O)c3ccc(N4CCCC4=O)cc3)c([O-])cc2C1 (protonated)
CN1CCc2cc([N-]S(=O)(=O)c3ccc(N4CCCC4=O)cc3)c([O-])cc2C1 (3D coordinates assigned)
CN1CCc2cc([N-]S(=O)(=O)c3ccc(N4CCCC4=O)cc3)c([O-])cc2C1 (nonaromatic ring conformer: 70.47397383509528 kcal/mol)

>  <smiles>  (11) 
CN1CCc2cc(NS(=O)(=O)c3ccc(N4CCCC4=O)cc3)c(O)cc2C1

>  <score_type>  (11) 
oracle

>  <origin>  (11) 
adgpu

>  <m_score__min__energy>  (11) 
-14.58

>  <m_primary>  (11) 
energy

$$$$
11:0
     RDKit          3D

 72 76  0  0  0  0  0  0  0  0999 V2000
   -4.3590   25.1440  -30.8980 O   0  0  0  0  0  0  0  0  0  0  0  0
   -4.3240   23.9520  -30.4900 C   0  0  0  0  0  0  0  0  0  0  0  0
   -5.5120   23.3250  -29.9870 N   0  0  0  0  0  0  0  0  0  0  0  0
   -6.6320   22.8930  -30.7740 C   0  0  0  0  0  0  0  0  0  0  0  0
   -7.6210   23.7950  -31.2060 C   0  0  0  0  0  0  0  0  0  0  0  0
   -8.6930   23.3460  -31.9790 C   0  0  0  0  0  0  0  0  0  0  0  0
   -8.7840   21.9980  -32.3350 C   0  0  0  0  0  0  0  0  0  0  0  0
   -7.7920   21.0950  -31.9310 C   0  0  0  0  0  0  0  0  0  0  0  0
   -7.9200   19.4030  -32.3990 S   0  0  0  0  0  0  0  0  0  0  0  0
   -9.3390   19.1320  -32.8150 O   0  0  0  0  0  0  0  0  0  0  0  0
   -7.5940   18.5290  -31.2190 O   0  0  0  0  0  0  0  0  0  0  0  0
   -6.8160   19.0910  -33.7270 N   0  0  0  0  0  0  0  0  0  0  0  0
   -5.5750   19.8940  -33.6050 C   0  0  0  0  0  0  0  0  0  0  0  0
   -4.4350   19.1200  -32.9110 C   0  0  0  0  0  0  0  0  0  0  0  0
   -4.9540   18.1660  -32.0120 O   0  0  0  0  0  0  0  0  0  0  0  0
   -5.6200   17.1310  -32.7190 C   0  0  0  0  0  0  0  0  0  0  0  0
   -6.5200   17.6520  -33.8660 C   0  0  0  0  0  0  0  0  0  0  0  0
   -6.7080   21.5510  -31.1640 C   0  0  0  0  0  0  0  0  0  0  0  0
   -3.0450   23.2110  -30.4920 C   0  0  0  0  0  0  0  0  0  0  0  0
   -2.7500   22.3670  -31.5770 C   0  0  0  0  0  0  0  0  0  0  0  0
   -1.5050   21.7330  -31.6710 C   0  0  0  0  0  0  0  0  0  0  0  0
   -1.1120   20.7660  -33.0930 S   0  0  0  0  0  0  0  0  0  0  0  0
   -0.8880   19.3450  -32.6570 O   0  0  0  0  0  0  0  0  0  0  0  0
   -2.2670   20.7890  -34.0570 O   0  0  0  0  0  0  0  0  0  0  0  0
    0.3270   21.3810  -33.8720 N   0  0  0  0  0  0  0  0  0  0  0  0
    0.0170   21.9110  -35.2250 C   0  0  0  0  0  0  0  0  0  0  0  0
    0.3790   20.9290  -36.3490 C   0  0  0  0  0  0  0  0  0  0  0  0
    1.8770   20.5870  -36.3220 C   0  0  0  0  0  0  0  0  0  0  0  0
    2.4660   20.6120  -34.9000 C   0  0  0  0  0  0  0  0  0  0  0  0
    1.3830   20.3430  -33.8490 C   0  0  0  0  0  0  0  0  0  0  0  0
   -0.5630   21.9080  -30.6520 C   0  0  0  0  0  0  0  0  0  0  0  0
   -0.8540   22.7160  -29.5540 C   0  0  0  0  0  0  0  0  0  0  0  0
   -2.0850   23.3810  -29.4650 C   0  0  0  0  0  0  0  0  0  0  0  0
   -2.3700   24.1740  -28.3030 N   0  0  0  0  0  0  0  0  0  0  0  0
   -1.4400   25.1420  -27.7520 C   0  0  0  0  0  0  0  0  0  0  0  0
   -1.9640   25.4550  -26.3550 C   0  0  0  0  0  0  0  0  0  0  0  0
   -3.4060   24.9580  -26.3300 C   0  0  0  0  0  0  0  0  0  0  0  0
   -3.4980   23.9100  -27.4280 C   0  0  0  0  0  0  0  0  0  0  0  0
   -7.5494   24.8583  -30.9336 H   0  0  0  0  0  0  0  0  0  0  0  0
   -9.4673   24.0545  -32.3084 H   0  0  0  0  0  0  0  0  0  0  0  0
   -9.6365   21.6449  -32.9338 H   0  0  0  0  0  0  0  0  0  0  0  0
   -7.3120   19.3940  -34.5970 H   0  0  0  0  0  0  0  0  0  0  0  0
   -5.2421   20.1837  -34.6126 H   0  0  0  0  0  0  0  0  0  0  0  0
   -5.8061   20.7737  -32.9863 H   0  0  0  0  0  0  0  0  0  0  0  0
   -3.8312   18.6062  -33.6736 H   0  0  0  0  0  0  0  0  0  0  0  0
   -3.8146   19.8337  -32.3492 H   0  0  0  0  0  0  0  0  0  0  0  0
   -4.8627   16.4582  -33.1478 H   0  0  0  0  0  0  0  0  0  0  0  0
   -6.2744   16.6154  -32.0007 H   0  0  0  0  0  0  0  0  0  0  0  0
   -6.0056   17.4863  -34.8241 H   0  0  0  0  0  0  0  0  0  0  0  0
   -7.4729   17.1039  -33.8256 H   0  0  0  0  0  0  0  0  0  0  0  0
   -5.9140   20.8496  -30.8679 H   0  0  0  0  0  0  0  0  0  0  0  0
   -3.5049   22.2030  -32.3601 H   0  0  0  0  0  0  0  0  0  0  0  0
   -1.0606   22.1252  -35.2796 H   0  0  0  0  0  0  0  0  0  0  0  0
    0.6226   22.8176  -35.3711 H   0  0  0  0  0  0  0  0  0  0  0  0
   -0.2032   20.0046  -36.2201 H   0  0  0  0  0  0  0  0  0  0  0  0
    0.1452   21.4009  -37.3147 H   0  0  0  0  0  0  0  0  0  0  0  0
    2.0159   19.5802  -36.7429 H   0  0  0  0  0  0  0  0  0  0  0  0
    2.4031   21.3509  -36.9133 H   0  0  0  0  0  0  0  0  0  0  0  0
    3.2442   19.8387  -34.8199 H   0  0  0  0  0  0  0  0  0  0  0  0
    2.8915   21.6095  -34.7157 H   0  0  0  0  0  0  0  0  0  0  0  0
    0.9247   19.3638  -34.0520 H   0  0  0  0  0  0  0  0  0  0  0  0
    1.8572   20.3584  -32.8566 H   0  0  0  0  0  0  0  0  0  0  0  0
    0.4131   21.4051  -30.7174 H   0  0  0  0  0  0  0  0  0  0  0  0
   -0.1116   22.8328  -28.7507 H   0  0  0  0  0  0  0  0  0  0  0  0
   -0.4276   24.7153  -27.6969 H   0  0  0  0  0  0  0  0  0  0  0  0
   -1.3716   26.0454  -28.3758 H   0  0  0  0  0  0  0  0  0  0  0  0
   -1.3653   24.9313  -25.5952 H   0  0  0  0  0  0  0  0  0  0  0  0
   -1.9028   26.5303  -26.1316 H   0  0  0  0  0  0  0  0  0  0  0  0
   -3.6410   24.5114  -25.3526 H   0  0  0  0  0  0  0  0  0  0  0  0
   -4.1214   25.7781  -26.4900 H   0  0  0  0  0  0  0  0  0  0  0  0
   -3.4272   22.8982  -27.0022 H   0  0  0  0  0  0  0  0  0  0  0  0
   -4.4561   23.9618  -27.9660 H   0  0  0  0  0  0  0  0  0  0  0  0
  1  2  2  0
  2  3  1  0
  3  4  1  0
  4  5  2  0
  5  6  1  0
  6  7  2  0
  7  8  1  0
  8  9  1  0
  9 10  2  0
  9 11  2  0
  9 12  1  0
 12 13  1  0
 13 14  1  0
 14 15  1  0
 15 16  1  0
 16 17  1  0
  8 18  2  0
  2 19  1  0
 19 20  2  0
 20 21  1  0
 21 22  1  0
 22 23  2  0
 22 24  2  0
 22 25  1  0
 25 26  1  0
 26 27  1  0
 27 28  1  0
 28 29  1  0
 29 30  1  0
 21 31  2  0
 31 32  1  0
 32 33  2  0
 33 34  1  0
 34 35  1  0
 35 36  1  0
 36 37  1  0
 37 38  1  0
 18  4  1  0
 33 19  1  0
 38 34  1  0
 17 12  1  0
 30 25  1  0
  5 39  1  0
  6 40  1  0
  7 41  1  0
 12 42  1  0
 13 43  1  0
 13 44  1  0
 14 45  1  0
 14 46  1  0
 16 47  1  0
 16 48  1  0
 17 49  1  0
 17 50  1  0
 18 51  1  0
 20 52  1  0
 26 53  1  0
 26 54  1  0
 27 55  1  0
 27 56  1  0
 28 57  1  0
 28 58  1  0
 29 59  1  0
 29 60  1  0
 30 61  1  0
 30 62  1  0
 31 63  1  0
 32 64  1  0
 35 65  1  0
 35 66  1  0
 36 67  1  0
 36 68  1  0
 37 69  1  0
 37 70  1  0
 38 71  1  0
 38 72  1  0
M  CHG  2   3  -1  12   1
M  END
>  <UniqueID>  (12) 
12

>  <SMILES>  (12) 
O=C([N-]c1cccc(S(=O)(=O)[NH+]2CCOCC2)c1)c1cc(S(=O)(=O)N2CCCCC2)ccc1N1CCCC1

>  <Energy>  (12) 
103.58033917396949

>  <Genealogy>  (12) 
O=C([N-]c1cccc(S(=O)(=O)[NH+]2CCOCC2)c1)c1cc(S(=O)(=O)N2CCCCC2)ccc1N1CCCC1 (protonated)
O=C([N-]c1cccc(S(=O)(=O)[NH+]2CCOCC2)c1)c1cc(S(=O)(=O)N2CCCCC2)ccc1N1CCCC1 (3D coordinates assigned)
O=C([N-]c1cccc(S(=O)(=O)[NH+]2CCOCC2)c1)c1cc(S(=O)(=O)N2CCCCC2)ccc1N1CCCC1 (nonaromatic ring conformer: 103.58033917396949 kcal/mol)

>  <smiles>  (12) 
O=C(Nc1cccc(S(=O)(=O)N2CCOCC2)c1)c1cc(S(=O)(=O)N2CCCCC2)ccc1N1CCCC1

>  <score_type>  (12) 
oracle

>  <origin>  (12) 
adgpu

>  <m_score__min__energy>  (12) 
-11.42

>  <m_primary>  (12) 
energy

$$$$
12:0
     RDKit          3D

 48 51  0  0  0  0  0  0  0  0999 V2000
   -9.3480   18.2250  -31.7820 C   0  0  0  0  0  0  0  0  0  0  0  0
   -7.9740   18.6000  -32.2500 C   0  0  0  0  0  0  0  0  0  0  0  0
   -6.9480   17.6440  -32.2640 C   0  0  0  0  0  0  0  0  0  0  0  0
   -5.6760   17.9830  -32.7330 C   0  0  0  0  0  0  0  0  0  0  0  0
   -5.4210   19.2790  -33.1960 C   0  0  0  0  0  0  0  0  0  0  0  0
   -3.7830   19.7190  -33.7750 S   0  0  0  0  0  0  0  0  0  0  0  0
   -3.4930   20.7980  -32.3800 C   0  0  0  0  0  0  0  0  0  0  0  0
   -2.7460   20.4460  -31.3130 N   0  0  0  0  0  0  0  0  0  0  0  0
   -2.7070   21.4350  -30.3800 C   0  0  0  0  0  0  0  0  0  0  0  0
   -1.9900   21.2700  -29.1490 N   0  0  0  0  0  0  0  0  0  0  0  0
   -0.5650   20.9390  -29.1910 C   0  0  0  0  0  0  0  0  0  0  0  0
    0.0880   21.3090  -27.8550 C   0  0  0  0  0  0  0  0  0  0  0  0
   -0.6120   20.7220  -26.7760 O   0  0  0  0  0  0  0  0  0  0  0  0
   -1.9210   21.2550  -26.7000 C   0  0  0  0  0  0  0  0  0  0  0  0
   -2.7340   20.8900  -27.9490 C   0  0  0  0  0  0  0  0  0  0  0  0
   -3.4430   22.5740  -30.7050 C   0  0  0  0  0  0  0  0  0  0  0  0
   -3.7200   23.9900  -29.6960 S   0  0  0  0  0  0  0  0  0  0  0  0
   -3.8530   25.1970  -30.5790 O   0  0  0  0  0  0  0  0  0  0  0  0
   -5.0040   23.8000  -28.9400 O   0  0  0  0  0  0  0  0  0  0  0  0
   -2.3980   24.2480  -28.5600 C   0  0  0  0  0  0  0  0  0  0  0  0
   -1.0650   24.2880  -29.0010 C   0  0  0  0  0  0  0  0  0  0  0  0
   -0.0290   24.5080  -28.0870 C   0  0  0  0  0  0  0  0  0  0  0  0
   -0.3160   24.6980  -26.7340 C   0  0  0  0  0  0  0  0  0  0  0  0
   -1.6410   24.6620  -26.2900 C   0  0  0  0  0  0  0  0  0  0  0  0
   -2.6790   24.4380  -27.1990 C   0  0  0  0  0  0  0  0  0  0  0  0
   -4.1520   22.3340  -32.2100 S   0  0  0  0  0  0  0  0  0  0  0  0
   -6.4480   20.2300  -33.2050 C   0  0  0  0  0  0  0  0  0  0  0  0
   -7.7220   19.8910  -32.7400 C   0  0  0  0  0  0  0  0  0  0  0  0
   -9.3717   18.2185  -30.6823 H   0  0  0  0  0  0  0  0  0  0  0  0
  -10.0767   18.9571  -32.1602 H   0  0  0  0  0  0  0  0  0  0  0  0
   -9.6037   17.2242  -32.1602 H   0  0  0  0  0  0  0  0  0  0  0  0
   -7.1453   16.6233  -31.9044 H   0  0  0  0  0  0  0  0  0  0  0  0
   -4.8740   17.2302  -32.7383 H   0  0  0  0  0  0  0  0  0  0  0  0
   -0.4448   19.8605  -29.3710 H   0  0  0  0  0  0  0  0  0  0  0  0
   -0.0825   21.5037  -30.0024 H   0  0  0  0  0  0  0  0  0  0  0  0
    1.1274   20.9490  -27.8494 H   0  0  0  0  0  0  0  0  0  0  0  0
    0.0617   22.4026  -27.7399 H   0  0  0  0  0  0  0  0  0  0  0  0
   -2.4246   20.8479  -25.8108 H   0  0  0  0  0  0  0  0  0  0  0  0
   -1.8511   22.3508  -26.6339 H   0  0  0  0  0  0  0  0  0  0  0  0
   -2.9187   19.8057  -27.9612 H   0  0  0  0  0  0  0  0  0  0  0  0
   -3.6935   21.4276  -27.9294 H   0  0  0  0  0  0  0  0  0  0  0  0
   -0.8352   24.1460  -30.0673 H   0  0  0  0  0  0  0  0  0  0  0  0
    1.0142   24.5313  -28.4352 H   0  0  0  0  0  0  0  0  0  0  0  0
    0.4998   24.8759  -26.0179 H   0  0  0  0  0  0  0  0  0  0  0  0
   -1.8671   24.8102  -25.2237 H   0  0  0  0  0  0  0  0  0  0  0  0
   -3.7203   24.4106  -26.8456 H   0  0  0  0  0  0  0  0  0  0  0  0
   -6.2523   21.2459  -33.5786 H   0  0  0  0  0  0  0  0  0  0  0  0
   -8.5292   20.6380  -32.7581 H   0  0  0  0  0  0  0  0  0  0  0  0
  1  2  1  0
  2  3  2  0
  3  4  1  0
  4  5  2  0
  5  6  1  0
  6  7  1  0
  7  8  2  0
  8  9  1  0
  9 10  1  0
 10 11  1  0
 11 12  1  0
 12 13  1  0
 13 14  1  0
 14 15  1  0
  9 16  2  0
 16 17  1  0
 17 18  2  0
 17 19  2  0
 17 20  1  0
 20 21  2  0
 21 22  1  0
 22 23  2  0
 23 24  1  0
 24 25  2  0
 16 26  1  0
  5 27  1  0
 27 28  2  0
 28  2  1  0
 26  7  1  0
 15 10  1  0
 25 20  1  0
  1 29  1  0
  1 30  1  0
  1 31  1  0
  3 32  1  0
  4 33  1  0
 11 34  1  0
 11 35  1  0
 12 36  1  0
 12 37  1  0
 14 38  1  0
 14 39  1  0
 15 40  1  0
 15 41  1  0
 21 42  1  0
 22 43  1  0
 23 44  1  0
 24 45  1  0
 25 46  1  0
 27 47  1  0
 28 48  1  0
M  END
>  <UniqueID>  (13) 
13

>  <SMILES>  (13) 
Cc1ccc(Sc2nc(N3CCOCC3)c(S(=O)(=O)c3ccccc3)s2)cc1

>  <Energy>  (13) 
82.41977019660699

>  <Genealogy>  (13) 
Cc1ccc(Sc2nc(N3CCOCC3)c(S(=O)(=O)c3ccccc3)s2)cc1 (3D coordinates assigned)
Cc1ccc(Sc2nc(N3CCOCC3)c(S(=O)(=O)c3ccccc3)s2)cc1 (nonaromatic ring conformer: 82.41977019660699 kcal/mol)

>  <smiles>  (13) 
Cc1ccc(Sc2nc(N3CCOCC3)c(S(=O)(=O)c3ccccc3)s2)cc1

>  <score_type>  (13) 
oracle

>  <origin>  (13) 
adgpu

>  <m_score__min__energy>  (13) 
-9.25

>  <m_primary>  (13) 
energy

$$$$
13:0
     RDKit          3D

 48 51  0  0  0  0  0  0  0  0999 V2000
   -8.0300   19.1010  -32.2580 C   0  0  0  0  0  0  0  0  0  0  0  0
   -7.7430   20.3190  -32.9350 O   0  0  0  0  0  0  0  0  0  0  0  0
   -7.1730   21.4550  -32.3350 C   0  0  0  0  0  0  0  0  0  0  0  0
   -7.9750   22.4440  -31.7320 C   0  0  0  0  0  0  0  0  0  0  0  0
   -7.3950   23.5770  -31.1640 C   0  0  0  0  0  0  0  0  0  0  0  0
   -6.0090   23.7520  -31.1960 C   0  0  0  0  0  0  0  0  0  0  0  0
   -5.2970   25.1400  -30.3770 S   0  0  0  0  0  0  0  0  0  0  0  0
   -5.7060   25.1110  -28.9330 O   0  0  0  0  0  0  0  0  0  0  0  0
   -5.7610   26.4300  -30.9920 O   0  0  0  0  0  0  0  0  0  0  0  0
   -3.5670   25.0320  -30.4850 N   0  0  0  0  0  0  0  0  0  0  0  0
   -2.7620   24.2000  -29.6380 C   0  0  0  0  0  0  0  0  0  0  0  0
   -3.1150   22.8680  -29.3690 C   0  0  0  0  0  0  0  0  0  0  0  0
   -2.3530   22.0970  -28.4820 C   0  0  0  0  0  0  0  0  0  0  0  0
   -1.2060   22.6500  -27.8800 C   0  0  0  0  0  0  0  0  0  0  0  0
   -0.8430   23.9720  -28.1670 C   0  0  0  0  0  0  0  0  0  0  0  0
   -1.6110   24.7390  -29.0480 C   0  0  0  0  0  0  0  0  0  0  0  0
   -1.2380   26.0500  -29.3160 O   0  0  0  0  0  0  0  0  0  0  0  0
   -0.4210   21.8570  -26.8660 C   0  0  0  0  0  0  0  0  0  0  0  0
   -0.5870   20.3460  -27.0720 C   0  0  0  0  0  0  0  0  0  0  0  0
   -2.0690   19.9760  -27.1520 C   0  0  0  0  0  0  0  0  0  0  0  0
   -2.7240   20.7380  -28.2060 N   0  0  0  0  0  0  0  0  0  0  0  0
   -5.2010   22.7840  -31.8040 C   0  0  0  0  0  0  0  0  0  0  0  0
   -5.7680   21.6230  -32.3560 C   0  0  0  0  0  0  0  0  0  0  0  0
   -4.8640   20.6060  -32.9380 C   0  0  0  0  0  0  0  0  0  0  0  0
   -3.5260   20.4060  -32.6510 C   0  0  0  0  0  0  0  0  0  0  0  0
   -3.1710   19.3620  -33.4770 C   0  0  0  0  0  0  0  0  0  0  0  0
   -1.8020   18.7870  -33.6240 C   0  0  0  0  0  0  0  0  0  0  0  0
   -4.2270   18.9880  -34.2220 N   0  0  0  0  0  0  0  0  0  0  0  0
   -5.2220   19.7510  -33.8710 O   0  0  0  0  0  0  0  0  0  0  0  0
   -7.9908   19.2674  -31.1714 H   0  0  0  0  0  0  0  0  0  0  0  0
   -9.0348   18.7529  -32.5396 H   0  0  0  0  0  0  0  0  0  0  0  0
   -7.2864   18.3409  -32.5396 H   0  0  0  0  0  0  0  0  0  0  0  0
   -9.0679   22.3210  -31.7093 H   0  0  0  0  0  0  0  0  0  0  0  0
   -8.0316   24.3374  -30.6881 H   0  0  0  0  0  0  0  0  0  0  0  0
   -3.9960   22.4269  -29.8582 H   0  0  0  0  0  0  0  0  0  0  0  0
    0.0505   24.4087  -27.6970 H   0  0  0  0  0  0  0  0  0  0  0  0
    0.6443   22.1143  -26.9602 H   0  0  0  0  0  0  0  0  0  0  0  0
   -0.8018   22.1095  -25.8654 H   0  0  0  0  0  0  0  0  0  0  0  0
   -0.0893   20.0514  -28.0077 H   0  0  0  0  0  0  0  0  0  0  0  0
   -0.1342   19.8188  -26.2194 H   0  0  0  0  0  0  0  0  0  0  0  0
   -2.1636   18.9017  -27.3685 H   0  0  0  0  0  0  0  0  0  0  0  0
   -2.5487   20.2102  -26.1902 H   0  0  0  0  0  0  0  0  0  0  0  0
   -3.5050   20.2940  -28.7400 H   0  0  0  0  0  0  0  0  0  0  0  0
   -4.1122   22.9337  -31.8500 H   0  0  0  0  0  0  0  0  0  0  0  0
   -2.8950   20.9511  -31.9336 H   0  0  0  0  0  0  0  0  0  0  0  0
   -1.3714   18.6061  -32.6281 H   0  0  0  0  0  0  0  0  0  0  0  0
   -1.8605   17.8374  -34.1761 H   0  0  0  0  0  0  0  0  0  0  0  0
   -1.1649   19.4936  -34.1761 H   0  0  0  0  0  0  0  0  0  0  0  0
  1  2  1  0
  2  3  1  0
  3  4  2  0
  4  5  1  0
  5  6  2  0
  6  7  1  0
  7  8  2  0
  7  9  2  0
  7 10  1  0
 10 11  1  0
 11 12  2  0
 12 13  1  0
 13 14  2  0
 14 15  1  0
 15 16  2  0
 16 17  1  0
 14 18  1  0
 18 19  1  0
 19 20  1  0
 20 21  1  0
  6 22  1  0
 22 23  2  0
 23 24  1  0
 24 25  2  0
 25 26  1  0
 26 27  1  0
 26 28  2  0
 28 29  1  0
 23  3  1  0
 29 24  1  0
 16 11  1  0
 21 13  1  0
  1 30  1  0
  1 31  1  0
  1 32  1  0
  4 33  1  0
  5 34  1  0
 12 35  1  0
 15 36  1  0
 18 37  1  0
 18 38  1  0
 19 39  1  0
 19 40  1  0
 20 41  1  0
 20 42  1  0
 21 43  1  0
 22 44  1  0
 25 45  1  0
 27 46  1  0
 27 47  1  0
 27 48  1  0
M  CHG  2  10  -1  17  -1
M  END
>  <UniqueID>  (14) 
14

>  <SMILES>  (14) 
COc1ccc(S(=O)(=O)[N-]c2cc3c(cc2[O-])CCCN3)cc1-c1cc(C)no1

>  <Energy>  (14) 
85.53295143569927

>  <Genealogy>  (14) 
COc1ccc(S(=O)(=O)[N-]c2cc3c(cc2[O-])CCCN3)cc1-c1cc(C)no1 (protonated)
COc1ccc(S(=O)(=O)[N-]c2cc3c(cc2[O-])CCCN3)cc1-c1cc(C)no1 (3D coordinates assigned)
COc1ccc(S(=O)(=O)[N-]c2cc3c(cc2[O-])CCCN3)cc1-c1cc(C)no1 (nonaromatic ring conformer: 85.53295143569927 kcal/mol)

>  <smiles>  (14) 
COc1ccc(S(=O)(=O)Nc2cc3c(cc2O)CCCN3)cc1-c1cc(C)no1

>  <score_type>  (14) 
oracle

>  <origin>  (14) 
adgpu

>  <m_score__min__energy>  (14) 
-14.199999999999999

>  <m_primary>  (14) 
energy

$$$$
14:0
     RDKit          3D

 54 56  0  0  0  0  0  0  0  0999 V2000
   -4.6647   26.3604  -31.5751 H   0  0  0  0  0  0  0  0  0  0  0  0
   -4.8020   25.5510  -30.8430 C   0  0  0  0  0  0  0  0  0  0  0  0
   -3.8470   24.7750  -30.3870 O   0  0  0  0  0  0  0  0  0  0  0  0
   -4.3710   23.9280  -29.5310 C   0  0  0  0  0  0  0  0  0  0  0  0
   -3.5880   22.8840  -28.7970 C   0  0  0  0  0  0  0  0  0  0  0  0
   -4.2008   21.9757  -28.6995 H   0  0  0  0  0  0  0  0  0  0  0  0
   -3.3229   23.2754  -27.8038 H   0  0  0  0  0  0  0  0  0  0  0  0
   -2.3570   22.5570  -29.5160 N   0  0  0  0  0  0  0  0  0  0  0  0
   -2.2450   22.1610  -30.7550 C   0  0  0  0  0  0  0  0  0  0  0  0
   -3.3670   21.9700  -31.5870 C   0  0  0  0  0  0  0  0  0  0  0  0
   -4.3797   22.1427  -31.1937 H   0  0  0  0  0  0  0  0  0  0  0  0
   -3.1920   21.5620  -32.9090 C   0  0  0  0  0  0  0  0  0  0  0  0
   -4.3280   21.3740  -33.7090 O   0  0  0  0  0  0  0  0  0  0  0  0
   -5.4510   20.6430  -33.3020 C   0  0  0  0  0  0  0  0  0  0  0  0
   -5.5190   19.2540  -33.5350 C   0  0  0  0  0  0  0  0  0  0  0  0
   -4.3900   18.5340  -34.2200 C   0  0  0  0  0  0  0  0  0  0  0  0
   -3.7165   18.1045  -33.4637 H   0  0  0  0  0  0  0  0  0  0  0  0
   -4.7968   17.7282  -34.8486 H   0  0  0  0  0  0  0  0  0  0  0  0
   -3.8310   19.2427  -34.8486 H   0  0  0  0  0  0  0  0  0  0  0  0
   -6.6240   18.5270  -33.0670 C   0  0  0  0  0  0  0  0  0  0  0  0
   -6.6697   17.4394  -33.2255 H   0  0  0  0  0  0  0  0  0  0  0  0
   -7.6680   19.1770  -32.4000 C   0  0  0  0  0  0  0  0  0  0  0  0
   -8.7960   18.4230  -31.9200 C   0  0  0  0  0  0  0  0  0  0  0  0
   -9.7030   17.8160  -31.5340 N   0  0  0  0  0  0  0  0  0  0  0  0
   -7.6120   20.5600  -32.1940 C   0  0  0  0  0  0  0  0  0  0  0  0
   -8.4345   21.0687  -31.6699 H   0  0  0  0  0  0  0  0  0  0  0  0
   -6.5130   21.3010  -32.6520 C   0  0  0  0  0  0  0  0  0  0  0  0
   -6.4340   22.7760  -32.3760 C   0  0  0  0  0  0  0  0  0  0  0  0
   -6.4249   22.9457  -31.2892 H   0  0  0  0  0  0  0  0  0  0  0  0
   -5.5128   23.1830  -32.8184 H   0  0  0  0  0  0  0  0  0  0  0  0
   -7.3065   23.2791  -32.8184 H   0  0  0  0  0  0  0  0  0  0  0  0
   -1.8940   21.3380  -33.3920 C   0  0  0  0  0  0  0  0  0  0  0  0
   -1.7400   21.0246  -34.4351 H   0  0  0  0  0  0  0  0  0  0  0  0
   -0.7920   21.5150  -32.5400 C   0  0  0  0  0  0  0  0  0  0  0  0
    0.5290   21.2900  -32.9660 O   0  0  0  0  0  0  0  0  0  0  0  0
    1.0390   20.0560  -33.4730 C   0  0  0  0  0  0  0  0  0  0  0  0
    0.2612   19.2826  -33.3900 H   0  0  0  0  0  0  0  0  0  0  0  0
    1.9245   19.7715  -32.8857 H   0  0  0  0  0  0  0  0  0  0  0  0
    1.4490   20.2020  -34.9440 C   0  0  0  0  0  0  0  0  0  0  0  0
    1.5805   19.2014  -35.3817 H   0  0  0  0  0  0  0  0  0  0  0  0
    2.3899   20.7700  -34.9906 H   0  0  0  0  0  0  0  0  0  0  0  0
    0.3820   20.9600  -35.7390 C   0  0  0  0  0  0  0  0  0  0  0  0
   -0.5976   20.8054  -35.2632 H   0  0  0  0  0  0  0  0  0  0  0  0
    0.3768   20.5761  -36.7698 H   0  0  0  0  0  0  0  0  0  0  0  0
    0.6850   22.4560  -35.7810 C   0  0  0  0  0  0  0  0  0  0  0  0
    0.7634   22.8432  -34.7544 H   0  0  0  0  0  0  0  0  0  0  0  0
    1.6352   22.6230  -36.3094 H   0  0  0  0  0  0  0  0  0  0  0  0
   -0.1253   22.9795  -36.3094 H   0  0  0  0  0  0  0  0  0  0  0  0
   -0.9990   21.9230  -31.2570 N   0  0  0  0  0  0  0  0  0  0  0  0
   -0.1650   22.0590  -30.6390 H   0  0  0  0  0  0  0  0  0  0  0  0
   -5.7290   24.1470  -29.4180 C   0  0  0  0  0  0  0  0  0  0  0  0
   -6.4413   23.5978  -28.7847 H   0  0  0  0  0  0  0  0  0  0  0  0
   -6.0050   25.1980  -30.2650 C   0  0  0  0  0  0  0  0  0  0  0  0
   -6.9860   25.6622  -30.4445 H   0  0  0  0  0  0  0  0  0  0  0  0
  1  2  1  0
  2  3  1  0
  3  4  1  0
  4  5  1  0
  5  6  1  0
  5  7  1  0
  5  8  1  0
  8  9  2  0
  9 10  1  0
 10 11  1  0
 10 12  2  0
 12 13  1  0
 13 14  1  0
 14 15  2  0
 15 16  1  0
 16 17  1  0
 16 18  1  0
 16 19  1  0
 15 20  1  0
 20 21  1  0
 20 22  2  0
 22 23  1  0
 23 24  3  0
 22 25  1  0
 25 26  1  0
 25 27  2  0
 27 28  1  0
 28 29  1  0
 28 30  1  0
 28 31  1  0
 12 32  1  0
 32 33  1  0
 32 34  2  0
 34 35  1  0
 35 36  1  0
 36 37  1  0
 36 38  1  0
 36 39  1  0
 39 40  1  0
 39 41  1  0
 39 42  1  0
 42 43  1  0
 42 44  1  0
 42 45  1  0
 45 46  1  0
 45 47  1  0
 45 48  1  0
 34 49  1  0
 49 50  1  0
  4 51  2  0
 51 52  1  0
 51 53  1  0
 53 54  1  0
 53  2  2  0
 49  9  1  0
 27 14  1  0
M  END
>  <UniqueID>  (15) 
15

>  <SMILES>  (15) 
CCCCOc1cc(Oc2c(C)cc(C#N)cc2C)c/c(=N\Cc2ccco2)[nH]1

>  <Energy>  (15) 
81.92257532323083

>  <Genealogy>  (15) 
CCCCOc1cc(Oc2c(C)cc(C#N)cc2C)c/c(=N\Cc2ccco2)[nH]1 (cis-trans isomerization)
CCCCOc1cc(Oc2c(C)cc(C#N)cc2C)c/c(=N\Cc2ccco2)[nH]1 (3D coordinates assigned)
CCCCOc1cc(Oc2c(C)cc(C#N)cc2C)c/c(=N\Cc2ccco2)[nH]1 (optimized conformer: 81.92257532323083 kcal/mol)

>  <smiles>  (15) 
CCCCOc1cc(Oc2c(C)cc(C#N)cc2C)cc(=NCc2ccco2)[nH]1

>  <score_type>  (15) 
oracle

>  <origin>  (15) 
adgpu

>  <m_score__min__energy>  (15) 
-8.5399999999999991

>  <m_primary>  (15) 
energy

$$$$
15:0
     RDKit          3D

 57 60  0  0  0  0  0  0  0  0999 V2000
   -2.9310   19.3460  -26.6760 C   0  0  0  0  0  0  0  0  0  0  0  0
   -1.6420   20.1170  -26.9420 C   0  0  0  0  0  0  0  0  0  0  0  0
   -1.8180   21.5080  -26.6720 O   0  0  0  0  0  0  0  0  0  0  0  0
   -2.3600   22.4510  -27.5610 C   0  0  0  0  0  0  0  0  0  0  0  0
   -1.5430   22.9330  -28.5890 C   0  0  0  0  0  0  0  0  0  0  0  0
   -2.0260   23.8720  -29.5050 C   0  0  0  0  0  0  0  0  0  0  0  0
   -3.3470   24.3480  -29.4010 C   0  0  0  0  0  0  0  0  0  0  0  0
   -3.8840   25.2960  -30.2880 O   0  0  0  0  0  0  0  0  0  0  0  0
   -5.2000   25.2550  -30.8390 C   0  0  0  0  0  0  0  0  0  0  0  0
   -5.5090   23.8890  -31.3660 C   0  0  0  0  0  0  0  0  0  0  0  0
   -4.6030   23.0340  -31.9750 C   0  0  0  0  0  0  0  0  0  0  0  0
   -5.3580   21.9130  -32.2430 C   0  0  0  0  0  0  0  0  0  0  0  0
   -6.6190   22.1110  -31.8390 N   0  0  0  0  0  0  0  0  0  0  0  0
   -6.7240   23.3060  -31.2790 N   0  0  0  0  0  0  0  0  0  0  0  0
   -7.6470   21.0610  -31.8280 C   0  0  1  0  0  0  0  0  0  0  0  0
   -9.0480   21.6650  -31.9700 C   0  0  0  0  0  0  0  0  0  0  0  0
   -7.3780   20.0370  -32.9620 C   0  0  0  0  0  0  0  0  0  0  0  0
   -5.9590   19.6370  -33.0060 N   0  0  0  0  0  0  0  0  0  0  0  0
   -5.5950   18.2730  -33.2780 C   0  0  0  0  0  0  0  0  0  0  0  0
   -4.8310   17.9890  -34.4200 C   0  0  0  0  0  0  0  0  0  0  0  0
   -4.4420   16.6740  -34.7110 C   0  0  0  0  0  0  0  0  0  0  0  0
   -3.5840   16.3890  -35.9100 C   0  0  0  0  0  0  0  0  0  0  0  0
   -4.7950   15.6410  -33.8340 C   0  0  0  0  0  0  0  0  0  0  0  0
   -5.5640   15.9110  -32.7000 C   0  0  0  0  0  0  0  0  0  0  0  0
   -5.9900   17.2190  -32.4210 C   0  0  0  0  0  0  0  0  0  0  0  0
   -6.8300   17.4750  -31.2000 C   0  0  0  0  0  0  0  0  0  0  0  0
   -4.9410   20.6340  -32.8070 C   0  0  0  0  0  0  0  0  0  0  0  0
   -3.7340   20.4070  -33.0900 O   0  0  0  0  0  0  0  0  0  0  0  0
   -4.1670   23.8590  -28.3790 C   0  0  0  0  0  0  0  0  0  0  0  0
   -3.6840   22.9200  -27.4640 C   0  0  0  0  0  0  0  0  0  0  0  0
   -3.0856   19.2535  -25.5909 H   0  0  0  0  0  0  0  0  0  0  0  0
   -3.7795   19.8850  -27.1227 H   0  0  0  0  0  0  0  0  0  0  0  0
   -2.8574   18.3435  -27.1227 H   0  0  0  0  0  0  0  0  0  0  0  0
   -0.8454   19.7220  -26.2944 H   0  0  0  0  0  0  0  0  0  0  0  0
   -1.3705   19.9951  -28.0010 H   0  0  0  0  0  0  0  0  0  0  0  0
   -0.5088   22.5690  -28.6776 H   0  0  0  0  0  0  0  0  0  0  0  0
   -1.3722   24.2401  -30.3094 H   0  0  0  0  0  0  0  0  0  0  0  0
   -5.9279   25.5133  -30.0558 H   0  0  0  0  0  0  0  0  0  0  0  0
   -5.2598   25.9762  -31.6675 H   0  0  0  0  0  0  0  0  0  0  0  0
   -3.5388   23.2085  -32.1918 H   0  0  0  0  0  0  0  0  0  0  0  0
   -7.5988   20.5389  -30.8610 H   0  0  0  0  0  0  0  0  0  0  0  0
   -9.4715   21.8476  -30.9714 H   0  0  0  0  0  0  0  0  0  0  0  0
   -8.9836   22.6153  -32.5203 H   0  0  0  0  0  0  0  0  0  0  0  0
   -9.6947   20.9658  -32.5203 H   0  0  0  0  0  0  0  0  0  0  0  0
   -7.9958   19.1433  -32.7901 H   0  0  0  0  0  0  0  0  0  0  0  0
   -7.6321   20.5111  -33.9215 H   0  0  0  0  0  0  0  0  0  0  0  0
   -4.5343   18.8063  -35.0937 H   0  0  0  0  0  0  0  0  0  0  0  0
   -2.5887   16.0584  -35.5784 H   0  0  0  0  0  0  0  0  0  0  0  0
   -4.0505   15.5976  -36.5150 H   0  0  0  0  0  0  0  0  0  0  0  0
   -3.4843   17.3023  -36.5150 H   0  0  0  0  0  0  0  0  0  0  0  0
   -4.4650   14.6119  -34.0393 H   0  0  0  0  0  0  0  0  0  0  0  0
   -5.8383   15.0915  -32.0195 H   0  0  0  0  0  0  0  0  0  0  0  0
   -6.2294   17.2920  -30.2968 H   0  0  0  0  0  0  0  0  0  0  0  0
   -7.1757   18.5193  -31.2051 H   0  0  0  0  0  0  0  0  0  0  0  0
   -7.6993   16.8010  -31.2051 H   0  0  0  0  0  0  0  0  0  0  0  0
   -5.2035   24.2176  -28.2946 H   0  0  0  0  0  0  0  0  0  0  0  0
   -4.3407   22.5457  -26.6648 H   0  0  0  0  0  0  0  0  0  0  0  0
  1  2  1  0
  2  3  1  0
  3  4  1  0
  4  5  2  0
  5  6  1  0
  6  7  2  0
  7  8  1  0
  8  9  1  0
  9 10  1  0
 10 11  1  0
 11 12  2  0
 12 13  1  0
 13 14  1  0
 13 15  1  0
 15 16  1  0
 15 17  1  0
 17 18  1  0
 18 19  1  0
 19 20  2  0
 20 21  1  0
 21 22  1  0
 21 23  2  0
 23 24  1  0
 24 25  2  0
 25 26  1  0
 18 27  1  0
 27 28  2  0
  7 29  1  0
 29 30  2  0
 30  4  1  0
 14 10  2  0
 25 19  1  0
 27 12  1  0
  1 31  1  0
  1 32  1  0
  1 33  1  0
  2 34  1  0
  2 35  1  0
  5 36  1  0
  6 37  1  0
  9 38  1  0
  9 39  1  0
 11 40  1  0
 15 41  1  1
 16 42  1  0
 16 43  1  0
 16 44  1  0
 17 45  1  0
 17 46  1  0
 20 47  1  0
 22 48  1  0
 22 49  1  0
 22 50  1  0
 23 51  1  0
 24 52  1  0
 26 53  1  0
 26 54  1  0
 26 55  1  0
 29 56  1  0
 30 57  1  0
M  END
>  <UniqueID>  (16) 
16

>  <SMILES>  (16) 
CCOc1ccc(OCc2cc3n(n2)[C@@H](C)CN(c2cc(C)ccc2C)C3=O)cc1

>  <Energy>  (16) 
93.57794838084114

>  <Genealogy>  (16) 
CCOc1ccc(OCc2cc3n(n2)[C@@H](C)CN(c2cc(C)ccc2C)C3=O)cc1 (chirality)
CCOc1ccc(OCc2cc3n(n2)[C@@H](C)CN(c2cc(C)ccc2C)C3=O)cc1 (3D coordinates assigned)
CCOc1ccc(OCc2cc3n(n2)[C@@H](C)CN(c2cc(C)ccc2C)C3=O)cc1 (nonaromatic ring conformer: 93.57794838084114 kcal/mol)

>  <smiles>  (16) 
CCOc1ccc(OCc2cc3n(n2)C(C)CN(c2cc(C)ccc2C)C3=O)cc1

>  <score_type>  (16) 
oracle

>  <origin>  (16) 
adgpu

>  <m_score__min__energy>  (16) 
-9.9100000000000001

>  <m_primary>  (16) 
energy

$$$$
16:0
     RDKit          3D

 56 59  0  0  0  0  0  0  0  0999 V2000
   -3.9440   21.4420  -33.3460 O   0  0  0  0  0  0  0  0  0  0  0  0
   -2.9860   21.7290  -32.5780 C   0  0  0  0  0  0  0  0  0  0  0  0
   -1.6230   21.1930  -32.8730 C   0  0  0  0  0  0  0  0  0  0  0  0
   -1.2120   19.8990  -31.6610 S   0  0  0  0  0  0  0  0  0  0  0  0
   -1.2890   21.0170  -30.2630 C   0  0  0  0  0  0  0  0  0  0  0  0
   -1.8110   20.5920  -29.0420 C   0  0  0  0  0  0  0  0  0  0  0  0
   -1.8470   21.4830  -27.9710 C   0  0  0  0  0  0  0  0  0  0  0  0
   -1.3610   22.7900  -28.1440 C   0  0  0  0  0  0  0  0  0  0  0  0
   -1.3640   23.7840  -27.0390 C   0  0  0  0  0  0  0  0  0  0  0  0
   -0.4500   23.6960  -25.9680 C   0  0  0  0  0  0  0  0  0  0  0  0
   -0.4770   24.6410  -24.9360 C   0  0  0  0  0  0  0  0  0  0  0  0
   -1.4120   25.6760  -24.9560 C   0  0  0  0  0  0  0  0  0  0  0  0
   -2.3300   25.7680  -26.0050 C   0  0  0  0  0  0  0  0  0  0  0  0
   -2.3110   24.8260  -27.0400 C   0  0  0  0  0  0  0  0  0  0  0  0
   -0.8540   23.1400  -29.3600 N   0  0  0  0  0  0  0  0  0  0  0  0
   -0.8190   22.2840  -30.3840 N   0  0  0  0  0  0  0  0  0  0  0  0
   -3.1760   22.6380  -31.4840 N   0  0  0  0  0  0  0  0  0  0  0  0
   -4.4570   23.1690  -31.1090 C   0  0  0  0  0  0  0  0  0  0  0  0
   -5.6050   22.3910  -31.3230 C   0  0  0  0  0  0  0  0  0  0  0  0
   -6.8720   22.8770  -30.9720 C   0  0  0  0  0  0  0  0  0  0  0  0
   -8.3030   21.8720  -31.2150 S   0  0  0  0  0  0  0  0  0  0  0  0
   -9.1310   21.8730  -29.9580 O   0  0  0  0  0  0  0  0  0  0  0  0
   -9.1360   22.4600  -32.3190 O   0  0  0  0  0  0  0  0  0  0  0  0
   -7.8720   20.2310  -31.6280 N   0  0  0  0  0  0  0  0  0  0  0  0
   -9.0840   19.4140  -31.8110 C   0  0  0  0  0  0  0  0  0  0  0  0
   -8.7120   17.9230  -31.9330 C   0  0  0  0  0  0  0  0  0  0  0  0
   -7.2630   17.7150  -32.4050 C   0  0  0  0  0  0  0  0  0  0  0  0
   -6.8550   18.7900  -33.4170 C   0  0  0  0  0  0  0  0  0  0  0  0
   -7.0350   20.2150  -32.8460 C   0  0  0  0  0  0  0  0  0  0  0  0
   -6.9920   24.1600  -30.4210 C   0  0  0  0  0  0  0  0  0  0  0  0
   -5.8570   24.9530  -30.2340 C   0  0  0  0  0  0  0  0  0  0  0  0
   -4.5930   24.4700  -30.5870 C   0  0  0  0  0  0  0  0  0  0  0  0
   -3.4860   25.2990  -30.4420 O   0  0  0  0  0  0  0  0  0  0  0  0
   -1.6073   20.7658  -33.8865 H   0  0  0  0  0  0  0  0  0  0  0  0
   -0.8849   22.0061  -32.8093 H   0  0  0  0  0  0  0  0  0  0  0  0
   -2.1898   19.5659  -28.9254 H   0  0  0  0  0  0  0  0  0  0  0  0
   -2.2523   21.1659  -26.9988 H   0  0  0  0  0  0  0  0  0  0  0  0
    0.2877   22.8804  -25.9439 H   0  0  0  0  0  0  0  0  0  0  0  0
    0.2415   24.5673  -24.1063 H   0  0  0  0  0  0  0  0  0  0  0  0
   -1.4265   26.4198  -24.1457 H   0  0  0  0  0  0  0  0  0  0  0  0
   -3.0693   26.5824  -26.0176 H   0  0  0  0  0  0  0  0  0  0  0  0
   -3.0408   24.9002  -27.8597 H   0  0  0  0  0  0  0  0  0  0  0  0
   -2.3260   23.0550  -31.0430 H   0  0  0  0  0  0  0  0  0  0  0  0
   -5.5098   21.3906  -31.7703 H   0  0  0  0  0  0  0  0  0  0  0  0
   -9.7487   19.5523  -30.9456 H   0  0  0  0  0  0  0  0  0  0  0  0
   -9.5934   19.7318  -32.7327 H   0  0  0  0  0  0  0  0  0  0  0  0
   -8.8343   17.4471  -30.9489 H   0  0  0  0  0  0  0  0  0  0  0  0
   -9.3767   17.4728  -32.6850 H   0  0  0  0  0  0  0  0  0  0  0  0
   -6.5908   17.7658  -31.5357 H   0  0  0  0  0  0  0  0  0  0  0  0
   -7.1909   16.7309  -32.8912 H   0  0  0  0  0  0  0  0  0  0  0  0
   -5.7979   18.6445  -33.6840 H   0  0  0  0  0  0  0  0  0  0  0  0
   -7.5035   18.6915  -34.3000 H   0  0  0  0  0  0  0  0  0  0  0  0
   -6.0444   20.6248  -32.5996 H   0  0  0  0  0  0  0  0  0  0  0  0
   -7.5426   20.8216  -33.6104 H   0  0  0  0  0  0  0  0  0  0  0  0
   -7.9824   24.5437  -30.1350 H   0  0  0  0  0  0  0  0  0  0  0  0
   -5.9581   25.9618  -29.8072 H   0  0  0  0  0  0  0  0  0  0  0  0
  1  2  2  0
  2  3  1  0
  3  4  1  0
  4  5  1  0
  5  6  2  0
  6  7  1  0
  7  8  2  0
  8  9  1  0
  9 10  2  0
 10 11  1  0
 11 12  2  0
 12 13  1  0
 13 14  2  0
  8 15  1  0
 15 16  2  0
  2 17  1  0
 17 18  1  0
 18 19  2  0
 19 20  1  0
 20 21  1  0
 21 22  2  0
 21 23  2  0
 21 24  1  0
 24 25  1  0
 25 26  1  0
 26 27  1  0
 27 28  1  0
 28 29  1  0
 20 30  2  0
 30 31  1  0
 31 32  2  0
 32 33  1  0
 16  5  1  0
 32 18  1  0
 14  9  1  0
 29 24  1  0
  3 34  1  0
  3 35  1  0
  6 36  1  0
  7 37  1  0
 10 38  1  0
 11 39  1  0
 12 40  1  0
 13 41  1  0
 14 42  1  0
 17 43  1  0
 19 44  1  0
 25 45  1  0
 25 46  1  0
 26 47  1  0
 26 48  1  0
 27 49  1  0
 27 50  1  0
 28 51  1  0
 28 52  1  0
 29 53  1  0
 29 54  1  0
 30 55  1  0
 31 56  1  0
M  CHG  1  33  -1
M  END
>  <UniqueID>  (17) 
17

>  <SMILES>  (17) 
O=C(CSc1ccc(-c2ccccc2)nn1)Nc1cc(S(=O)(=O)N2CCCCC2)ccc1[O-]

>  <Energy>  (17) 
66.4561308710007

>  <Genealogy>  (17) 
O=C(CSc1ccc(-c2ccccc2)nn1)Nc1cc(S(=O)(=O)N2CCCCC2)ccc1[O-] (protonated)
O=C(CSc1ccc(-c2ccccc2)nn1)Nc1cc(S(=O)(=O)N2CCCCC2)ccc1[O-] (3D coordinates assigned)
O=C(CSc1ccc(-c2ccccc2)nn1)Nc1cc(S(=O)(=O)N2CCCCC2)ccc1[O-] (nonaromatic ring conformer: 66.4561308710007 kcal/mol)

>  <smiles>  (17) 
O=C(CSc1ccc(-c2ccccc2)nn1)Nc1cc(S(=O)(=O)N2CCCCC2)ccc1O

>  <score_type>  (17) 
oracle

>  <origin>  (17) 
adgpu

>  <m_score__min__energy>  (17) 
-13.9

>  <m_primary>  (17) 
energy

$$$$
17:0
     RDKit          3D

 28 29  0  0  0  0  0  0  0  0999 V2000
   -6.4091   23.7549  -29.9431 H   0  0  0  0  0  0  0  0  0  0  0  0
   -6.0020   23.1330  -30.7540 C   0  0  0  0  0  0  0  0  0  0  0  0
   -6.8840   22.7780  -31.8860 C   0  0  0  0  0  0  0  0  0  0  0  0
   -7.2480   23.7010  -32.6650 O   0  0  0  0  0  0  0  0  0  0  0  0
   -7.3680   21.3990  -32.1330 C   0  0  0  0  0  0  0  0  0  0  0  0
   -6.5470   20.4760  -32.8040 C   0  0  0  0  0  0  0  0  0  0  0  0
   -5.5403   20.7762  -33.1304 H   0  0  0  0  0  0  0  0  0  0  0  0
   -7.0020   19.1790  -33.0590 C   0  0  0  0  0  0  0  0  0  0  0  0
   -6.3488   18.4604  -33.5756 H   0  0  0  0  0  0  0  0  0  0  0  0
   -8.2830   18.7930  -32.6600 C   0  0  0  0  0  0  0  0  0  0  0  0
   -8.6367   17.7704  -32.8580 H   0  0  0  0  0  0  0  0  0  0  0  0
   -9.1150   19.7070  -32.0090 C   0  0  0  0  0  0  0  0  0  0  0  0
  -10.1263   19.4046  -31.6993 H   0  0  0  0  0  0  0  0  0  0  0  0
   -8.6650   21.0060  -31.7500 C   0  0  0  0  0  0  0  0  0  0  0  0
   -9.3275   21.7241  -31.2446 H   0  0  0  0  0  0  0  0  0  0  0  0
   -4.7260   22.7280  -30.6750 C   0  0  0  0  0  0  0  0  0  0  0  0
   -4.3320   22.0845  -31.4755 H   0  0  0  0  0  0  0  0  0  0  0  0
   -3.8180   23.1040  -29.5620 C   0  0  0  0  0  0  0  0  0  0  0  0
   -3.5060   22.2000  -28.5250 C   0  0  0  0  0  0  0  0  0  0  0  0
   -3.9524   21.1946  -28.5246 H   0  0  0  0  0  0  0  0  0  0  0  0
   -2.6340   22.5720  -27.4980 C   0  0  0  0  0  0  0  0  0  0  0  0
   -2.4034   21.8621  -26.6900 H   0  0  0  0  0  0  0  0  0  0  0  0
   -2.0550   23.8420  -27.4950 C   0  0  0  0  0  0  0  0  0  0  0  0
   -1.3731   24.1340  -26.6828 H   0  0  0  0  0  0  0  0  0  0  0  0
   -2.3420   24.7420  -28.5240 C   0  0  0  0  0  0  0  0  0  0  0  0
   -1.8804   25.7405  -28.5229 H   0  0  0  0  0  0  0  0  0  0  0  0
   -3.2140   24.3790  -29.5560 C   0  0  0  0  0  0  0  0  0  0  0  0
   -3.4830   25.2970  -30.5660 O   0  0  0  0  0  0  0  0  0  0  0  0
  1  2  1  0
  2  3  1  0
  3  4  2  0
  3  5  1  0
  5  6  2  0
  6  7  1  0
  6  8  1  0
  8  9  1  0
  8 10  2  0
 10 11  1  0
 10 12  1  0
 12 13  1  0
 12 14  2  0
 14 15  1  0
  2 16  2  0
 16 17  1  0
 16 18  1  0
 18 19  2  0
 19 20  1  0
 19 21  1  0
 21 22  1  0
 21 23  2  0
 23 24  1  0
 23 25  1  0
 25 26  1  0
 25 27  2  0
 27 28  1  0
 14  5  1  0
 27 18  1  0
M  CHG  1  28  -1
M  END
>  <UniqueID>  (18) 
18

>  <SMILES>  (18) 
O=C(/C=C/c1ccccc1[O-])c1ccccc1

>  <Energy>  (18) 
36.700654715534

>  <Genealogy>  (18) 
O=C(C=Cc1ccccc1[O-])c1ccccc1 (protonated)
O=C(/C=C/c1ccccc1[O-])c1ccccc1 (cis-trans isomerization)
O=C(/C=C/c1ccccc1[O-])c1ccccc1 (3D coordinates assigned)
O=C(/C=C/c1ccccc1[O-])c1ccccc1 (optimized conformer: 36.700654715534 kcal/mol)

>  <smiles>  (18) 
O=C(C=Cc1ccccc1O)c1ccccc1

>  <score_type>  (18) 
oracle

>  <origin>  (18) 
adgpu

>  <m_score__min__energy>  (18) 
-10.33

>  <m_primary>  (18) 
energy

$$$$
18:0
     RDKit          3D

 55 58  0  0  0  0  0  0  0  0999 V2000
    0.3720   17.8080  -34.6040 C   0  0  0  0  0  0  0  0  0  0  0  0
    0.1880   16.3560  -34.7550 N   0  0  0  0  0  0  0  0  0  0  0  0
   -1.1470   16.0640  -35.3230 C   0  0  0  0  0  0  0  0  0  0  0  0
   -1.5410   14.5980  -35.0930 C   0  0  0  0  0  0  0  0  0  0  0  0
   -1.5700   14.2360  -33.6550 N   0  0  0  0  0  0  0  0  0  0  0  0
   -3.2110   14.0930  -33.0750 S   0  0  0  0  0  0  0  0  0  0  0  0
   -3.9260   12.9960  -33.8150 O   0  0  0  0  0  0  0  0  0  0  0  0
   -3.2080   13.7640  -31.6070 O   0  0  0  0  0  0  0  0  0  0  0  0
   -4.0610   15.6090  -33.3610 C   0  0  0  0  0  0  0  0  0  0  0  0
   -5.4030   15.6150  -33.7560 C   0  0  0  0  0  0  0  0  0  0  0  0
   -6.0620   16.8240  -33.9710 C   0  0  0  0  0  0  0  0  0  0  0  0
   -5.3910   18.0450  -33.8090 C   0  0  0  0  0  0  0  0  0  0  0  0
   -6.2860   19.5610  -34.2000 S   0  0  0  0  0  0  0  0  0  0  0  0
   -7.6100   19.2800  -33.0150 C   0  0  0  0  0  0  0  0  0  0  0  0
   -8.3850   18.1810  -33.0200 N   0  0  0  0  0  0  0  0  0  0  0  0
   -9.1070   18.2600  -31.9100 N   0  0  0  0  0  0  0  0  0  0  0  0
   -8.7830   19.3510  -31.2340 N   0  0  0  0  0  0  0  0  0  0  0  0
   -7.8560   20.0060  -31.9090 N   0  0  0  0  0  0  0  0  0  0  0  0
   -7.1940   21.1840  -31.4410 C   0  0  0  0  0  0  0  0  0  0  0  0
   -5.7960   21.2700  -31.4900 C   0  0  0  0  0  0  0  0  0  0  0  0
   -5.1460   22.4160  -31.0260 C   0  0  0  0  0  0  0  0  0  0  0  0
   -5.8900   23.4860  -30.5050 C   0  0  0  0  0  0  0  0  0  0  0  0
   -5.0790   24.9360  -29.9200 S   0  0  0  0  0  0  0  0  0  0  0  0
   -4.6090   24.7160  -28.2710 N   0  0  0  0  0  0  0  0  0  0  0  0
   -3.8600   25.2140  -30.7530 O   0  0  0  0  0  0  0  0  0  0  0  0
   -6.0120   26.1110  -30.0250 O   0  0  0  0  0  0  0  0  0  0  0  0
   -7.2850   23.3850  -30.4260 C   0  0  0  0  0  0  0  0  0  0  0  0
   -7.9320   22.2350  -30.8840 C   0  0  0  0  0  0  0  0  0  0  0  0
   -4.0510   18.0490  -33.3460 C   0  0  0  0  0  0  0  0  0  0  0  0
   -3.3470   19.2680  -33.0390 N   0  0  0  0  0  0  0  0  0  0  0  0
   -3.2600   19.6820  -31.8640 O   0  0  0  0  0  0  0  0  0  0  0  0
   -2.6190   19.9070  -34.0170 O   0  0  0  0  0  0  0  0  0  0  0  0
   -3.3960   16.8200  -33.1500 C   0  0  0  0  0  0  0  0  0  0  0  0
   -0.8120   15.1610  -32.7890 C   0  0  0  0  0  0  0  0  0  0  0  0
    0.4680   15.6390  -33.4860 C   0  0  0  0  0  0  0  0  0  0  0  0
    0.4045   18.0642  -33.5348 H   0  0  0  0  0  0  0  0  0  0  0  0
    1.3156   18.1097  -35.0822 H   0  0  0  0  0  0  0  0  0  0  0  0
   -0.4665   18.3355  -35.0822 H   0  0  0  0  0  0  0  0  0  0  0  0
   -1.8916   16.7152  -34.8419 H   0  0  0  0  0  0  0  0  0  0  0  0
   -1.1119   16.2488  -36.4068 H   0  0  0  0  0  0  0  0  0  0  0  0
   -2.5412   14.4306  -35.5190 H   0  0  0  0  0  0  0  0  0  0  0  0
   -0.7827   13.9679  -35.5808 H   0  0  0  0  0  0  0  0  0  0  0  0
   -5.9386   14.6646  -33.8970 H   0  0  0  0  0  0  0  0  0  0  0  0
   -7.1203   16.8207  -34.2711 H   0  0  0  0  0  0  0  0  0  0  0  0
   -5.2089   20.4326  -31.8950 H   0  0  0  0  0  0  0  0  0  0  0  0
   -4.0487   22.4800  -31.0690 H   0  0  0  0  0  0  0  0  0  0  0  0
   -5.3780   24.1830  -27.8040 H   0  0  0  0  0  0  0  0  0  0  0  0
   -4.5910   25.6630  -27.8300 H   0  0  0  0  0  0  0  0  0  0  0  0
   -7.8721   24.2132  -30.0024 H   0  0  0  0  0  0  0  0  0  0  0  0
   -9.0263   22.1549  -30.8067 H   0  0  0  0  0  0  0  0  0  0  0  0
   -2.3449   16.8117  -32.8259 H   0  0  0  0  0  0  0  0  0  0  0  0
   -1.4413   16.0323  -32.5549 H   0  0  0  0  0  0  0  0  0  0  0  0
   -0.5326   14.6298  -31.8672 H   0  0  0  0  0  0  0  0  0  0  0  0
    1.0067   16.3177  -32.8084 H   0  0  0  0  0  0  0  0  0  0  0  0
    1.0692   14.7504  -33.7288 H   0  0  0  0  0  0  0  0  0  0  0  0
  1  2  1  0
  2  3  1  0
  3  4  1  0
  4  5  1  0
  5  6  1  0
  6  7  2  0
  6  8  2  0
  6  9  1  0
  9 10  2  0
 10 11  1  0
 11 12  2  0
 12 13  1  0
 13 14  1  0
 14 15  2  0
 15 16  1  0
 16 17  2  0
 17 18  1  0
 18 19  1  0
 19 20  2  0
 20 21  1  0
 21 22  2  0
 22 23  1  0
 23 24  1  0
 23 25  2  0
 23 26  2  0
 22 27  1  0
 27 28  2  0
 12 29  1  0
 29 30  1  0
 30 31  2  0
 30 32  1  0
 29 33  2  0
  5 34  1  0
 34 35  1  0
 35  2  1  0
 33  9  1  0
 18 14  1  0
 28 19  1  0
  1 36  1  0
  1 37  1  0
  1 38  1  0
  3 39  1  0
  3 40  1  0
  4 41  1  0
  4 42  1  0
 10 43  1  0
 11 44  1  0
 20 45  1  0
 21 46  1  0
 24 47  1  0
 24 48  1  0
 27 49  1  0
 28 50  1  0
 33 51  1  0
 34 52  1  0
 34 53  1  0
 35 54  1  0
 35 55  1  0
M  CHG  2  30   1  32  -1
M  END
>  <UniqueID>  (19) 
19

>  <SMILES>  (19) 
CN1CCN(S(=O)(=O)c2ccc(Sc3nnnn3-c3ccc(S(N)(=O)=O)cc3)c([N+](=O)[O-])c2)CC1

>  <Energy>  (19) 
115.88765268310914

>  <Genealogy>  (19) 
CN1CCN(S(=O)(=O)c2ccc(Sc3nnnn3-c3ccc(S(N)(=O)=O)cc3)c([N+](=O)[O-])c2)CC1 (3D coordinates assigned)
CN1CCN(S(=O)(=O)c2ccc(Sc3nnnn3-c3ccc(S(N)(=O)=O)cc3)c([N+](=O)[O-])c2)CC1 (nonaromatic ring conformer: 115.88765268310914 kcal/mol)

>  <smiles>  (19) 
CN1CCN(S(=O)(=O)c2ccc(Sc3nnnn3-c3ccc(S(N)(=O)=O)cc3)c([N+](=O)[O-])c2)CC1

>  <score_type>  (19) 
oracle

>  <origin>  (19) 
adgpu

>  <m_score__min__energy>  (19) 
-11.77

>  <m_primary>  (19) 
energy

$$$$
19:0
     RDKit          3D

 48 51  0  0  0  0  0  0  0  0999 V2000
   -1.2500   19.5960  -26.3370 C   0  0  0  0  0  0  0  0  0  0  0  0
   -1.5480   19.3440  -27.7580 N   0  0  0  0  0  0  0  0  0  0  0  0
   -0.4040   19.6480  -28.6410 C   0  0  0  0  0  0  0  0  0  0  0  0
   -0.0440   21.1410  -28.6450 C   0  0  0  0  0  0  0  0  0  0  0  0
   -1.2610   22.0240  -28.7260 C   0  0  0  0  0  0  0  0  0  0  0  0
   -1.0980   23.3890  -28.9980 C   0  0  0  0  0  0  0  0  0  0  0  0
   -2.2030   24.2430  -29.0420 C   0  0  0  0  0  0  0  0  0  0  0  0
   -2.0080   25.5890  -29.3350 O   0  0  0  0  0  0  0  0  0  0  0  0
   -3.4960   23.7440  -28.8080 C   0  0  0  0  0  0  0  0  0  0  0  0
   -4.6320   24.6230  -28.8990 N   0  0  0  0  0  0  0  0  0  0  0  0
   -5.6260   24.7420  -30.3170 S   0  0  0  0  0  0  0  0  0  0  0  0
   -4.9800   25.6720  -31.3030 O   0  0  0  0  0  0  0  0  0  0  0  0
   -6.9700   25.2920  -29.9270 O   0  0  0  0  0  0  0  0  0  0  0  0
   -5.7970   23.1550  -31.0640 C   0  0  0  0  0  0  0  0  0  0  0  0
   -4.6850   22.5030  -31.6100 C   0  0  0  0  0  0  0  0  0  0  0  0
   -4.8360   21.2660  -32.2410 C   0  0  0  0  0  0  0  0  0  0  0  0
   -6.0990   20.6620  -32.3290 C   0  0  0  0  0  0  0  0  0  0  0  0
   -7.2250   21.3260  -31.7960 C   0  0  0  0  0  0  0  0  0  0  0  0
   -7.0610   22.5570  -31.1450 C   0  0  0  0  0  0  0  0  0  0  0  0
   -8.5910   20.6820  -31.8390 C   0  0  0  0  0  0  0  0  0  0  0  0
   -8.6970   19.6650  -32.8940 N   0  0  0  0  0  0  0  0  0  0  0  0
   -7.5990   18.6950  -32.7910 C   0  0  0  0  0  0  0  0  0  0  0  0
   -6.2480   19.3620  -33.0750 C   0  0  0  0  0  0  0  0  0  0  0  0
   -3.6540   22.3810  -28.4970 C   0  0  0  0  0  0  0  0  0  0  0  0
   -2.5470   21.5210  -28.4470 C   0  0  0  0  0  0  0  0  0  0  0  0
   -2.7690   20.0460  -28.2000 C   0  0  0  0  0  0  0  0  0  0  0  0
   -1.9395   19.0130  -25.7088 H   0  0  0  0  0  0  0  0  0  0  0  0
   -0.2141   19.2958  -26.1208 H   0  0  0  0  0  0  0  0  0  0  0  0
   -1.3740   20.6674  -26.1208 H   0  0  0  0  0  0  0  0  0  0  0  0
    0.4696   19.0755  -28.2961 H   0  0  0  0  0  0  0  0  0  0  0  0
   -0.6905   19.3707  -29.6662 H   0  0  0  0  0  0  0  0  0  0  0  0
    0.5017   21.3754  -27.7191 H   0  0  0  0  0  0  0  0  0  0  0  0
    0.5717   21.3355  -29.5356 H   0  0  0  0  0  0  0  0  0  0  0  0
   -0.0905   23.7920  -29.1786 H   0  0  0  0  0  0  0  0  0  0  0  0
   -4.7960   25.3310  -28.1500 H   0  0  0  0  0  0  0  0  0  0  0  0
   -3.6896   22.9661  -31.5419 H   0  0  0  0  0  0  0  0  0  0  0  0
   -3.9584   20.7620  -32.6719 H   0  0  0  0  0  0  0  0  0  0  0  0
   -7.9313   23.0567  -30.6946 H   0  0  0  0  0  0  0  0  0  0  0  0
   -8.7876   20.2051  -30.8674 H   0  0  0  0  0  0  0  0  0  0  0  0
   -9.3269   21.4700  -32.0571 H   0  0  0  0  0  0  0  0  0  0  0  0
   -8.6500   20.1370  -33.8270 H   0  0  0  0  0  0  0  0  0  0  0  0
   -7.5855   18.2735  -31.7751 H   0  0  0  0  0  0  0  0  0  0  0  0
   -7.7614   17.9016  -33.5354 H   0  0  0  0  0  0  0  0  0  0  0  0
   -5.4421   18.6799  -32.7664 H   0  0  0  0  0  0  0  0  0  0  0  0
   -6.1924   19.5773  -34.1523 H   0  0  0  0  0  0  0  0  0  0  0  0
   -4.6590   21.9845  -28.2903 H   0  0  0  0  0  0  0  0  0  0  0  0
   -3.5390   19.9330  -27.4226 H   0  0  0  0  0  0  0  0  0  0  0  0
   -3.0794   19.5961  -29.1546 H   0  0  0  0  0  0  0  0  0  0  0  0
  1  2  1  0
  2  3  1  0
  3  4  1  0
  4  5  1  0
  5  6  2  0
  6  7  1  0
  7  8  1  0
  7  9  2  0
  9 10  1  0
 10 11  1  0
 11 12  2  0
 11 13  2  0
 11 14  1  0
 14 15  2  0
 15 16  1  0
 16 17  2  0
 17 18  1  0
 18 19  2  0
 18 20  1  0
 20 21  1  0
 21 22  1  0
 22 23  1  0
  9 24  1  0
 24 25  2  0
 25 26  1  0
 26  2  1  0
 25  5  1  0
 19 14  1  0
 23 17  1  0
  1 27  1  0
  1 28  1  0
  1 29  1  0
  3 30  1  0
  3 31  1  0
  4 32  1  0
  4 33  1  0
  6 34  1  0
 10 35  1  0
 15 36  1  0
 16 37  1  0
 19 38  1  0
 20 39  1  0
 20 40  1  0
 21 41  1  0
 22 42  1  0
 22 43  1  0
 23 44  1  0
 23 45  1  0
 24 46  1  0
 26 47  1  0
 26 48  1  0
M  CHG  1   8  -1
M  END
>  <UniqueID>  (20) 
20

>  <SMILES>  (20) 
CN1CCc2cc([O-])c(NS(=O)(=O)c3ccc4c(c3)CNCC4)cc2C1

>  <Energy>  (20) 
60.30031555179133

>  <Genealogy>  (20) 
CN1CCc2cc([O-])c(NS(=O)(=O)c3ccc4c(c3)CNCC4)cc2C1 (protonated)
CN1CCc2cc([O-])c(NS(=O)(=O)c3ccc4c(c3)CNCC4)cc2C1 (3D coordinates assigned)
CN1CCc2cc([O-])c(NS(=O)(=O)c3ccc4c(c3)CNCC4)cc2C1 (nonaromatic ring conformer: 60.30031555179133 kcal/mol)

>  <smiles>  (20) 
CN1CCc2cc(O)c(NS(=O)(=O)c3ccc4c(c3)CNCC4)cc2C1

>  <score_type>  (20) 
oracle

>  <origin>  (20) 
adgpu

>  <m_score__min__energy>  (20) 
-13.58

>  <m_primary>  (20) 
energy

$$$$
20:0
     RDKit          3D

 50 52  0  0  0  0  0  0  0  0999 V2000
   -5.4050   25.2700  -31.5630 O   0  0  0  0  0  0  0  0  0  0  0  0
   -4.9360   24.7260  -30.5280 C   0  0  0  0  0  0  0  0  0  0  0  0
   -5.6380   23.5540  -29.9250 C   0  0  0  0  0  0  0  0  0  0  0  0
   -6.7680   22.8440  -31.1090 S   0  0  0  0  0  0  0  0  0  0  0  0
   -7.2720   21.5260  -30.5920 O   0  0  0  0  0  0  0  0  0  0  0  0
   -7.9310   23.7790  -31.2950 O   0  0  0  0  0  0  0  0  0  0  0  0
   -5.9420   22.6020  -32.6740 C   0  0  0  0  0  0  0  0  0  0  0  0
   -4.7120   21.7600  -32.4930 C   0  0  0  0  0  0  0  0  0  0  0  0
   -3.5100   22.3440  -32.0630 C   0  0  0  0  0  0  0  0  0  0  0  0
   -2.3580   21.5650  -31.9210 C   0  0  0  0  0  0  0  0  0  0  0  0
   -2.3920   20.1940  -32.2100 C   0  0  0  0  0  0  0  0  0  0  0  0
   -0.9410   19.2070  -32.0110 S   0  0  0  0  0  0  0  0  0  0  0  0
   -1.3310   17.7560  -31.9690 O   0  0  0  0  0  0  0  0  0  0  0  0
   -0.2850   19.5500  -30.7010 O   0  0  0  0  0  0  0  0  0  0  0  0
    0.1990   19.4670  -33.3110 N   0  0  0  0  0  0  0  0  0  0  0  0
    0.5420   20.8990  -33.4600 C   0  0  0  0  0  0  0  0  0  0  0  0
   -0.1440   21.5320  -34.6840 C   0  0  0  0  0  0  0  0  0  0  0  0
    0.1840   20.8880  -35.9080 O   0  0  0  0  0  0  0  0  0  0  0  0
    0.3950   19.4860  -35.7800 C   0  0  0  0  0  0  0  0  0  0  0  0
   -0.2960   18.8570  -34.5590 C   0  0  0  0  0  0  0  0  0  0  0  0
   -3.5850   19.6140  -32.6600 C   0  0  0  0  0  0  0  0  0  0  0  0
   -4.7390   20.3910  -32.8020 C   0  0  0  0  0  0  0  0  0  0  0  0
   -3.7380   25.2220  -29.9180 N   0  0  0  0  0  0  0  0  0  0  0  0
   -2.7380   24.4290  -29.2600 C   0  0  0  0  0  0  0  0  0  0  0  0
   -2.9620   23.0780  -28.9390 C   0  0  0  0  0  0  0  0  0  0  0  0
   -1.9560   22.3230  -28.3270 C   0  0  0  0  0  0  0  0  0  0  0  0
   -2.2420   20.6380  -27.9310 Cl  0  0  0  0  0  0  0  0  0  0  0  0
   -0.7170   22.9060  -28.0450 C   0  0  0  0  0  0  0  0  0  0  0  0
   -0.4800   24.2400  -28.3830 C   0  0  0  0  0  0  0  0  0  0  0  0
   -1.4830   24.9990  -28.9950 C   0  0  0  0  0  0  0  0  0  0  0  0
   -1.2300   26.3240  -29.3350 O   0  0  0  0  0  0  0  0  0  0  0  0
   -4.8961   22.7972  -29.6303 H   0  0  0  0  0  0  0  0  0  0  0  0
   -6.2027   23.8868  -29.0416 H   0  0  0  0  0  0  0  0  0  0  0  0
   -6.6272   22.0973  -33.3710 H   0  0  0  0  0  0  0  0  0  0  0  0
   -5.6469   23.5822  -33.0766 H   0  0  0  0  0  0  0  0  0  0  0  0
   -3.4745   23.4199  -31.8367 H   0  0  0  0  0  0  0  0  0  0  0  0
   -1.4209   22.0300  -31.5810 H   0  0  0  0  0  0  0  0  0  0  0  0
    0.2215   21.4369  -32.5556 H   0  0  0  0  0  0  0  0  0  0  0  0
    1.6300   20.9746  -33.6034 H   0  0  0  0  0  0  0  0  0  0  0  0
   -1.2333   21.4765  -34.5413 H   0  0  0  0  0  0  0  0  0  0  0  0
    0.2122   22.5702  -34.7564 H   0  0  0  0  0  0  0  0  0  0  0  0
    0.0106   18.9945  -36.6859 H   0  0  0  0  0  0  0  0  0  0  0  0
    1.4765   19.3387  -35.6437 H   0  0  0  0  0  0  0  0  0  0  0  0
   -1.3814   19.0188  -34.6347 H   0  0  0  0  0  0  0  0  0  0  0  0
   -0.0721   17.7802  -34.5405 H   0  0  0  0  0  0  0  0  0  0  0  0
   -3.6143   18.5416  -32.9030 H   0  0  0  0  0  0  0  0  0  0  0  0
   -5.6713   19.9277  -33.1571 H   0  0  0  0  0  0  0  0  0  0  0  0
   -3.9319   22.6134  -29.1701 H   0  0  0  0  0  0  0  0  0  0  0  0
    0.0711   22.3139  -27.5569 H   0  0  0  0  0  0  0  0  0  0  0  0
    0.4979   24.6951  -28.1674 H   0  0  0  0  0  0  0  0  0  0  0  0
  1  2  2  0
  2  3  1  0
  3  4  1  0
  4  5  2  0
  4  6  2  0
  4  7  1  0
  7  8  1  0
  8  9  2  0
  9 10  1  0
 10 11  2  0
 11 12  1  0
 12 13  2  0
 12 14  2  0
 12 15  1  0
 15 16  1  0
 16 17  1  0
 17 18  1  0
 18 19  1  0
 19 20  1  0
 11 21  1  0
 21 22  2  0
  2 23  1  0
 23 24  1  0
 24 25  2  0
 25 26  1  0
 26 27  1  0
 26 28  2  0
 28 29  1  0
 29 30  2  0
 30 31  1  0
 22  8  1  0
 30 24  1  0
 20 15  1  0
  3 32  1  0
  3 33  1  0
  7 34  1  0
  7 35  1  0
  9 36  1  0
 10 37  1  0
 16 38  1  0
 16 39  1  0
 17 40  1  0
 17 41  1  0
 19 42  1  0
 19 43  1  0
 20 44  1  0
 20 45  1  0
 21 46  1  0
 22 47  1  0
 25 48  1  0
 28 49  1  0
 29 50  1  0
M  CHG  2  23  -1  31  -1
M  END
>  <UniqueID>  (21) 
21

>  <SMILES>  (21) 
O=C(CS(=O)(=O)Cc1ccc(S(=O)(=O)N2CCOCC2)cc1)[N-]c1cc(Cl)ccc1[O-]

>  <Energy>  (21) 
56.53646348464386

>  <Genealogy>  (21) 
O=C(CS(=O)(=O)Cc1ccc(S(=O)(=O)N2CCOCC2)cc1)[N-]c1cc(Cl)ccc1[O-] (protonated)
O=C(CS(=O)(=O)Cc1ccc(S(=O)(=O)N2CCOCC2)cc1)[N-]c1cc(Cl)ccc1[O-] (3D coordinates assigned)
O=C(CS(=O)(=O)Cc1ccc(S(=O)(=O)N2CCOCC2)cc1)[N-]c1cc(Cl)ccc1[O-] (nonaromatic ring conformer: 56.53646348464386 kcal/mol)

>  <smiles>  (21) 
O=C(CS(=O)(=O)Cc1ccc(S(=O)(=O)N2CCOCC2)cc1)Nc1cc(Cl)ccc1O

>  <score_type>  (21) 
oracle

>  <origin>  (21) 
adgpu

>  <m_score__min__energy>  (21) 
-14.289999999999999

>  <m_primary>  (21) 
energy

$$$$
21:0
     RDKit          3D

 57 60  0  0  0  0  0  0  0  0999 V2000
   -5.6990   26.3890  -30.3460 O   0  0  0  0  0  0  0  0  0  0  0  0
   -5.0910   25.3040  -30.5500 C   0  0  0  0  0  0  0  0  0  0  0  0
   -3.6580   25.2970  -30.4890 N   0  0  0  0  0  0  0  0  0  0  0  0
   -2.8510   24.4300  -29.6800 C   0  0  0  0  0  0  0  0  0  0  0  0
   -2.4050   24.8150  -28.4040 C   0  0  0  0  0  0  0  0  0  0  0  0
   -1.5980   23.9550  -27.6520 C   0  0  0  0  0  0  0  0  0  0  0  0
   -1.2220   22.7150  -28.1720 C   0  0  0  0  0  0  0  0  0  0  0  0
   -1.6500   22.3260  -29.4480 C   0  0  0  0  0  0  0  0  0  0  0  0
   -1.1430   20.7840  -30.1290 S   0  0  0  0  0  0  0  0  0  0  0  0
   -1.6660   19.6680  -29.2660 O   0  0  0  0  0  0  0  0  0  0  0  0
    0.3600   20.7060  -30.1530 O   0  0  0  0  0  0  0  0  0  0  0  0
   -1.7870   20.6260  -31.7420 N   0  0  0  0  0  0  0  0  0  0  0  0
   -1.0750   21.4780  -32.6970 C   0  0  0  0  0  0  0  0  0  0  0  0
   -1.2290   20.8210  -34.0600 C   0  0  0  0  0  0  0  0  0  0  0  0
   -1.5620   19.3640  -33.7700 C   0  0  0  0  0  0  0  0  0  0  0  0
   -1.6580   19.2600  -32.2530 C   0  0  0  0  0  0  0  0  0  0  0  0
   -2.4520   23.1930  -30.2030 C   0  0  0  0  0  0  0  0  0  0  0  0
   -5.8700   24.0910  -30.8970 C   0  0  0  0  0  0  0  0  0  0  0  0
   -7.2350   23.9950  -30.5750 C   0  0  0  0  0  0  0  0  0  0  0  0
   -7.9580   22.8460  -30.9020 C   0  0  0  0  0  0  0  0  0  0  0  0
   -7.3260   21.7780  -31.5430 C   0  0  0  0  0  0  0  0  0  0  0  0
   -5.9620   21.8510  -31.8530 C   0  0  0  0  0  0  0  0  0  0  0  0
   -5.1550   20.4930  -32.6410 S   0  0  0  0  0  0  0  0  0  0  0  0
   -4.5410   19.6160  -31.5830 O   0  0  0  0  0  0  0  0  0  0  0  0
   -4.0400   21.0150  -33.5040 O   0  0  0  0  0  0  0  0  0  0  0  0
   -6.2450   19.5340  -33.6230 N   0  0  0  0  0  0  0  0  0  0  0  0
   -7.3110   18.8980  -32.8280 C   0  0  0  0  0  0  0  0  0  0  0  0
   -6.8550   17.5890  -32.1400 C   0  0  0  0  0  0  0  0  0  0  0  0
   -5.5910   17.1340  -32.5830 O   0  0  0  0  0  0  0  0  0  0  0  0
   -5.5460   17.1470  -33.9910 C   0  0  0  0  0  0  0  0  0  0  0  0
   -5.5370   18.5930  -34.5160 C   0  0  0  0  0  0  0  0  0  0  0  0
   -5.2390   23.0090  -31.5330 C   0  0  0  0  0  0  0  0  0  0  0  0
   -2.6914   25.7954  -27.9956 H   0  0  0  0  0  0  0  0  0  0  0  0
   -1.2592   24.2560  -26.6497 H   0  0  0  0  0  0  0  0  0  0  0  0
   -0.5875   22.0411  -27.5777 H   0  0  0  0  0  0  0  0  0  0  0  0
   -2.8000   20.8960  -31.7260 H   0  0  0  0  0  0  0  0  0  0  0  0
   -1.5155   22.4859  -32.7090 H   0  0  0  0  0  0  0  0  0  0  0  0
   -0.0147   21.5826  -32.4233 H   0  0  0  0  0  0  0  0  0  0  0  0
   -2.0429   21.2965  -34.6269 H   0  0  0  0  0  0  0  0  0  0  0  0
   -0.3173   20.9196  -34.6675 H   0  0  0  0  0  0  0  0  0  0  0  0
   -2.5202   19.0891  -34.2352 H   0  0  0  0  0  0  0  0  0  0  0  0
   -0.7999   18.6833  -34.1773 H   0  0  0  0  0  0  0  0  0  0  0  0
   -2.5386   18.6650  -31.9693 H   0  0  0  0  0  0  0  0  0  0  0  0
   -0.7694   18.7646  -31.8346 H   0  0  0  0  0  0  0  0  0  0  0  0
   -2.7706   22.8998  -31.2142 H   0  0  0  0  0  0  0  0  0  0  0  0
   -7.7362   24.8295  -30.0627 H   0  0  0  0  0  0  0  0  0  0  0  0
   -9.0278   22.7818  -30.6542 H   0  0  0  0  0  0  0  0  0  0  0  0
   -7.9008   20.8775  -31.8050 H   0  0  0  0  0  0  0  0  0  0  0  0
   -7.6390   19.6056  -32.0522 H   0  0  0  0  0  0  0  0  0  0  0  0
   -8.1262   18.6388  -33.5195 H   0  0  0  0  0  0  0  0  0  0  0  0
   -6.8021   17.7649  -31.0554 H   0  0  0  0  0  0  0  0  0  0  0  0
   -7.5895   16.8123  -32.3991 H   0  0  0  0  0  0  0  0  0  0  0  0
   -4.6338   16.6335  -34.3289 H   0  0  0  0  0  0  0  0  0  0  0  0
   -6.4369   16.6325  -34.3804 H   0  0  0  0  0  0  0  0  0  0  0  0
   -4.4926   18.9233  -34.6167 H   0  0  0  0  0  0  0  0  0  0  0  0
   -6.0626   18.5964  -35.4823 H   0  0  0  0  0  0  0  0  0  0  0  0
   -4.1693   23.0707  -31.7819 H   0  0  0  0  0  0  0  0  0  0  0  0
  1  2  2  0
  2  3  1  0
  3  4  1  0
  4  5  2  0
  5  6  1  0
  6  7  2  0
  7  8  1  0
  8  9  1  0
  9 10  2  0
  9 11  2  0
  9 12  1  0
 12 13  1  0
 13 14  1  0
 14 15  1  0
 15 16  1  0
  8 17  2  0
  2 18  1  0
 18 19  2  0
 19 20  1  0
 20 21  2  0
 21 22  1  0
 22 23  1  0
 23 24  2  0
 23 25  2  0
 23 26  1  0
 26 27  1  0
 27 28  1  0
 28 29  1  0
 29 30  1  0
 30 31  1  0
 22 32  2  0
 17  4  1  0
 32 18  1  0
 16 12  1  0
 31 26  1  0
  5 33  1  0
  6 34  1  0
  7 35  1  0
 12 36  1  0
 13 37  1  0
 13 38  1  0
 14 39  1  0
 14 40  1  0
 15 41  1  0
 15 42  1  0
 16 43  1  0
 16 44  1  0
 17 45  1  0
 19 46  1  0
 20 47  1  0
 21 48  1  0
 27 49  1  0
 27 50  1  0
 28 51  1  0
 28 52  1  0
 30 53  1  0
 30 54  1  0
 31 55  1  0
 31 56  1  0
 32 57  1  0
M  CHG  2   3  -1  12   1
M  END
>  <UniqueID>  (22) 
22

>  <SMILES>  (22) 
O=C([N-]c1cccc(S(=O)(=O)[NH+]2CCCC2)c1)c1cccc(S(=O)(=O)N2CCOCC2)c1

>  <Energy>  (22) 
76.7726735847717

>  <Genealogy>  (22) 
O=C([N-]c1cccc(S(=O)(=O)[NH+]2CCCC2)c1)c1cccc(S(=O)(=O)N2CCOCC2)c1 (protonated)
O=C([N-]c1cccc(S(=O)(=O)[NH+]2CCCC2)c1)c1cccc(S(=O)(=O)N2CCOCC2)c1 (3D coordinates assigned)
O=C([N-]c1cccc(S(=O)(=O)[NH+]2CCCC2)c1)c1cccc(S(=O)(=O)N2CCOCC2)c1 (nonaromatic ring conformer: 76.7726735847717 kcal/mol)

>  <smiles>  (22) 
O=C(Nc1cccc(S(=O)(=O)N2CCCC2)c1)c1cccc(S(=O)(=O)N2CCOCC2)c1

>  <score_type>  (22) 
oracle

>  <origin>  (22) 
adgpu

>  <m_score__min__energy>  (22) 
-12.140000000000001

>  <m_primary>  (22) 
energy

$$$$
22:0
     RDKit          3D

 35 37  0  0  0  0  0  0  0  0999 V2000
   -2.3450   22.6520  -31.2000 O   0  0  0  0  0  0  0  0  0  0  0  0
   -2.9900   23.0570  -30.1940 C   0  0  0  0  0  0  0  0  0  0  0  0
   -4.4380   23.3580  -30.3380 C   0  0  0  0  0  0  0  0  0  0  0  0
   -5.3910   22.3470  -30.1120 C   0  0  0  0  0  0  0  0  0  0  0  0
   -6.7570   22.6200  -30.2260 C   0  0  0  0  0  0  0  0  0  0  0  0
   -7.1880   23.9040  -30.5630 C   0  0  0  0  0  0  0  0  0  0  0  0
   -6.2560   24.9180  -30.7830 C   0  0  0  0  0  0  0  0  0  0  0  0
   -4.8810   24.6560  -30.6740 C   0  0  0  0  0  0  0  0  0  0  0  0
   -3.9610   25.6770  -30.9120 O   0  0  0  0  0  0  0  0  0  0  0  0
   -2.2810   23.2220  -28.9000 C   0  0  0  0  0  0  0  0  0  0  0  0
   -2.0750   22.1080  -28.0690 C   0  0  0  0  0  0  0  0  0  0  0  0
   -1.3880   22.2370  -26.8610 C   0  0  0  0  0  0  0  0  0  0  0  0
   -0.9050   23.4880  -26.4580 C   0  0  0  0  0  0  0  0  0  0  0  0
   -1.0970   24.6120  -27.2770 C   0  0  0  0  0  0  0  0  0  0  0  0
   -1.7760   24.4790  -28.5030 C   0  0  0  0  0  0  0  0  0  0  0  0
   -1.9600   25.5950  -29.3170 O   0  0  0  0  0  0  0  0  0  0  0  0
   -0.5160   25.9260  -26.8180 C   0  0  0  0  0  0  0  0  0  0  0  0
   -0.8050   26.1510  -25.3250 C   0  0  0  0  0  0  0  0  0  0  0  0
   -0.5330   24.9160  -24.4250 C   0  0  0  0  0  0  0  0  0  0  0  0
   -0.1150   23.6440  -25.1860 C   0  0  0  0  0  0  0  0  0  0  0  0
   -5.0579   21.3336  -29.8434 H   0  0  0  0  0  0  0  0  0  0  0  0
   -7.4933   21.8219  -30.0499 H   0  0  0  0  0  0  0  0  0  0  0  0
   -8.2634   24.1163  -30.6551 H   0  0  0  0  0  0  0  0  0  0  0  0
   -6.6005   25.9296  -31.0436 H   0  0  0  0  0  0  0  0  0  0  0  0
   -3.0390   25.6700  -30.4930 H   0  0  0  0  0  0  0  0  0  0  0  0
   -2.4594   21.1234  -28.3738 H   0  0  0  0  0  0  0  0  0  0  0  0
   -1.2257   21.3546  -26.2246 H   0  0  0  0  0  0  0  0  0  0  0  0
    0.5722   25.9163  -26.9785 H   0  0  0  0  0  0  0  0  0  0  0  0
   -0.9776   26.7401  -27.3961 H   0  0  0  0  0  0  0  0  0  0  0  0
   -0.1720   26.9789  -24.9732 H   0  0  0  0  0  0  0  0  0  0  0  0
   -1.8803   26.3679  -25.2430 H   0  0  0  0  0  0  0  0  0  0  0  0
    0.2726   25.1750  -23.7223 H   0  0  0  0  0  0  0  0  0  0  0  0
   -1.4843   24.6804  -23.9254 H   0  0  0  0  0  0  0  0  0  0  0  0
    0.9548   23.7088  -25.4334 H   0  0  0  0  0  0  0  0  0  0  0  0
   -0.3117   22.7727  -24.5440 H   0  0  0  0  0  0  0  0  0  0  0  0
  1  2  2  0
  2  3  1  0
  3  4  2  0
  4  5  1  0
  5  6  2  0
  6  7  1  0
  7  8  2  0
  8  9  1  0
  2 10  1  0
 10 11  2  0
 11 12  1  0
 12 13  2  0
 13 14  1  0
 14 15  2  0
 15 16  1  0
 14 17  1  0
 17 18  1  0
 18 19  1  0
 19 20  1  0
  8  3  1  0
 15 10  1  0
 20 13  1  0
  4 21  1  0
  5 22  1  0
  6 23  1  0
  7 24  1  0
  9 25  1  0
 11 26  1  0
 12 27  1  0
 17 28  1  0
 17 29  1  0
 18 30  1  0
 18 31  1  0
 19 32  1  0
 19 33  1  0
 20 34  1  0
 20 35  1  0
M  CHG  1  16  -1
M  END
>  <UniqueID>  (23) 
23

>  <SMILES>  (23) 
O=C(c1ccccc1O)c1ccc2c(c1[O-])CCCC2

>  <Energy>  (23) 
50.219256482178025

>  <Genealogy>  (23) 
O=C(c1ccccc1O)c1ccc2c(c1[O-])CCCC2 (protonated)
O=C(c1ccccc1O)c1ccc2c(c1[O-])CCCC2 (3D coordinates assigned)
O=C(c1ccccc1O)c1ccc2c(c1[O-])CCCC2 (nonaromatic ring conformer: 50.219256482178025 kcal/mol)

>  <smiles>  (23) 
O=C(c1ccccc1O)c1ccc2c(c1O)CCCC2

>  <score_type>  (23) 
oracle

>  <origin>  (23) 
adgpu

>  <m_score__min__energy>  (23) 
-11.52

>  <m_primary>  (23) 
energy

$$$$
23:0
     RDKit          3D

 66 69  0  0  0  0  0  0  0  0999 V2000
   -1.5000   25.3510  -26.9600 C   0  0  0  0  0  0  0  0  0  0  0  0
   -2.1970   25.0760  -28.2590 C   0  0  0  0  0  0  0  0  0  0  0  0
   -1.5960   25.3140  -29.3400 O   0  0  0  0  0  0  0  0  0  0  0  0
   -3.5230   24.5390  -28.3090 N   0  0  0  0  0  0  0  0  0  0  0  0
   -4.5290   24.5440  -29.7210 S   0  0  0  0  0  0  0  0  0  0  0  0
   -3.8450   25.3250  -30.8090 O   0  0  0  0  0  0  0  0  0  0  0  0
   -5.8290   25.2170  -29.3800 O   0  0  0  0  0  0  0  0  0  0  0  0
   -4.7750   22.8850  -30.2810 C   0  0  0  0  0  0  0  0  0  0  0  0
   -6.0550   22.5100  -30.7130 C   0  0  0  0  0  0  0  0  0  0  0  0
   -6.2810   21.2460  -31.2730 C   0  0  0  0  0  0  0  0  0  0  0  0
   -7.8660   20.8440  -31.9380 S   0  0  0  0  0  0  0  0  0  0  0  0
   -8.4990   22.0870  -32.5010 O   0  0  0  0  0  0  0  0  0  0  0  0
   -8.7510   20.3300  -30.8360 O   0  0  0  0  0  0  0  0  0  0  0  0
   -7.7380   19.6350  -33.1970 N   0  0  0  0  0  0  0  0  0  0  0  0
   -7.9390   18.2690  -32.6660 C   0  0  0  0  0  0  0  0  0  0  0  0
   -6.6090   17.5050  -32.5130 C   0  0  0  0  0  0  0  0  0  0  0  0
   -5.8720   17.3930  -33.7240 O   0  0  0  0  0  0  0  0  0  0  0  0
   -6.0770   18.4730  -34.6250 C   0  0  0  0  0  0  0  0  0  0  0  0
   -6.4700   19.7890  -33.9360 C   0  0  0  0  0  0  0  0  0  0  0  0
   -5.2270   20.3280  -31.3530 C   0  0  0  0  0  0  0  0  0  0  0  0
   -3.9540   20.6810  -30.9040 C   0  0  0  0  0  0  0  0  0  0  0  0
   -3.7150   21.9590  -30.3740 C   0  0  0  0  0  0  0  0  0  0  0  0
   -2.3950   22.3000  -29.9340 N   0  0  0  0  0  0  0  0  0  0  0  0
   -1.2730   21.4100  -30.0730 C   0  0  0  0  0  0  0  0  0  0  0  0
   -0.5200   21.4270  -31.2570 C   0  0  0  0  0  0  0  0  0  0  0  0
    0.5580   20.5520  -31.4220 C   0  0  0  0  0  0  0  0  0  0  0  0
    0.8860   19.6380  -30.4140 C   0  0  0  0  0  0  0  0  0  0  0  0
    2.2570   18.5510  -30.6280 S   0  0  0  0  0  0  0  0  0  0  0  0
    3.5480   19.3140  -30.5050 O   0  0  0  0  0  0  0  0  0  0  0  0
    2.2210   17.5080  -29.5470 O   0  0  0  0  0  0  0  0  0  0  0  0
    2.1800   17.7620  -32.1780 N   0  0  0  0  0  0  0  0  0  0  0  0
    0.9320   17.0130  -32.3340 C   0  0  0  0  0  0  0  0  0  0  0  0
   -0.1390   17.8710  -32.9560 C   0  0  0  0  0  0  0  0  0  0  0  0
   -1.4700   17.7860  -32.5140 C   0  0  0  0  0  0  0  0  0  0  0  0
   -2.4590   18.5820  -33.0990 C   0  0  0  0  0  0  0  0  0  0  0  0
   -2.1280   19.4630  -34.1320 C   0  0  0  0  0  0  0  0  0  0  0  0
   -0.8070   19.5500  -34.5810 C   0  0  0  0  0  0  0  0  0  0  0  0
    0.1860   18.7570  -33.9970 C   0  0  0  0  0  0  0  0  0  0  0  0
    0.1310   19.6090  -29.2350 C   0  0  0  0  0  0  0  0  0  0  0  0
   -0.9410   20.4870  -29.0640 C   0  0  0  0  0  0  0  0  0  0  0  0
   -2.1652   25.0885  -26.1242 H   0  0  0  0  0  0  0  0  0  0  0  0
   -0.5821   24.7476  -26.9015 H   0  0  0  0  0  0  0  0  0  0  0  0
   -1.2414   26.4186  -26.9015 H   0  0  0  0  0  0  0  0  0  0  0  0
   -6.8917   23.2167  -30.6110 H   0  0  0  0  0  0  0  0  0  0  0  0
   -8.4232   18.3391  -31.6808 H   0  0  0  0  0  0  0  0  0  0  0  0
   -8.5667   17.7166  -33.3807 H   0  0  0  0  0  0  0  0  0  0  0  0
   -5.9873   18.0341  -31.7757 H   0  0  0  0  0  0  0  0  0  0  0  0
   -6.8601   16.4828  -32.1936 H   0  0  0  0  0  0  0  0  0  0  0  0
   -5.1448   18.6394  -35.1848 H   0  0  0  0  0  0  0  0  0  0  0  0
   -6.9156   18.1905  -35.2784 H   0  0  0  0  0  0  0  0  0  0  0  0
   -5.6756   20.0791  -33.2327 H   0  0  0  0  0  0  0  0  0  0  0  0
   -6.6020   20.5641  -34.7053 H   0  0  0  0  0  0  0  0  0  0  0  0
   -5.4029   19.3258  -31.7709 H   0  0  0  0  0  0  0  0  0  0  0  0
   -3.1318   19.9529  -30.9657 H   0  0  0  0  0  0  0  0  0  0  0  0
   -2.2460   23.2460  -29.5140 H   0  0  0  0  0  0  0  0  0  0  0  0
   -0.7793   22.1328  -32.0599 H   0  0  0  0  0  0  0  0  0  0  0  0
    1.1509   20.5821  -32.3480 H   0  0  0  0  0  0  0  0  0  0  0  0
    1.1142   16.1410  -32.9793 H   0  0  0  0  0  0  0  0  0  0  0  0
    0.5896   16.6917  -31.3392 H   0  0  0  0  0  0  0  0  0  0  0  0
   -1.7349   17.0902  -31.7043 H   0  0  0  0  0  0  0  0  0  0  0  0
   -3.4986   18.5149  -32.7459 H   0  0  0  0  0  0  0  0  0  0  0  0
   -2.9073   20.0883  -34.5921 H   0  0  0  0  0  0  0  0  0  0  0  0
   -0.5482   20.2432  -35.3949 H   0  0  0  0  0  0  0  0  0  0  0  0
    1.2242   18.8271  -34.3536 H   0  0  0  0  0  0  0  0  0  0  0  0
    0.3835   18.8915  -28.4403 H   0  0  0  0  0  0  0  0  0  0  0  0
   -1.5295   20.4571  -28.1351 H   0  0  0  0  0  0  0  0  0  0  0  0
  1  2  1  0
  2  3  2  0
  2  4  1  0
  4  5  1  0
  5  6  2  0
  5  7  2  0
  5  8  1  0
  8  9  2  0
  9 10  1  0
 10 11  1  0
 11 12  2  0
 11 13  2  0
 11 14  1  0
 14 15  1  0
 15 16  1  0
 16 17  1  0
 17 18  1  0
 18 19  1  0
 10 20  2  0
 20 21  1  0
 21 22  2  0
 22 23  1  0
 23 24  1  0
 24 25  2  0
 25 26  1  0
 26 27  2  0
 27 28  1  0
 28 29  2  0
 28 30  2  0
 28 31  1  0
 31 32  1  0
 32 33  1  0
 33 34  2  0
 34 35  1  0
 35 36  2  0
 36 37  1  0
 37 38  2  0
 27 39  1  0
 39 40  2  0
 22  8  1  0
 40 24  1  0
 19 14  1  0
 38 33  1  0
  1 41  1  0
  1 42  1  0
  1 43  1  0
  9 44  1  0
 15 45  1  0
 15 46  1  0
 16 47  1  0
 16 48  1  0
 18 49  1  0
 18 50  1  0
 19 51  1  0
 19 52  1  0
 20 53  1  0
 21 54  1  0
 23 55  1  0
 25 56  1  0
 26 57  1  0
 32 58  1  0
 32 59  1  0
 34 60  1  0
 35 61  1  0
 36 62  1  0
 37 63  1  0
 38 64  1  0
 39 65  1  0
 40 66  1  0
M  CHG  2   4  -1  31  -1
M  END
>  <UniqueID>  (24) 
24

>  <SMILES>  (24) 
CC(=O)[N-]S(=O)(=O)c1cc(S(=O)(=O)N2CCOCC2)ccc1Nc1ccc(S(=O)(=O)[N-]Cc2ccccc2)cc1

>  <Energy>  (24) 
84.6084234838644

>  <Genealogy>  (24) 
CC(=O)[N-]S(=O)(=O)c1cc(S(=O)(=O)N2CCOCC2)ccc1Nc1ccc(S(=O)(=O)[N-]Cc2ccccc2)cc1 (protonated)
CC(=O)[N-]S(=O)(=O)c1cc(S(=O)(=O)N2CCOCC2)ccc1Nc1ccc(S(=O)(=O)[N-]Cc2ccccc2)cc1 (3D coordinates assigned)
CC(=O)[N-]S(=O)(=O)c1cc(S(=O)(=O)N2CCOCC2)ccc1Nc1ccc(S(=O)(=O)[N-]Cc2ccccc2)cc1 (nonaromatic ring conformer: 84.6084234838644 kcal/mol)

>  <smiles>  (24) 
CC(=O)NS(=O)(=O)c1cc(S(=O)(=O)N2CCOCC2)ccc1Nc1ccc(S(=O)(=O)NCc2ccccc2)cc1

>  <score_type>  (24) 
oracle

>  <origin>  (24) 
adgpu

>  <m_score__min__energy>  (24) 
-12.24

>  <m_primary>  (24) 
energy

$$$$
24:0
     RDKit          3D

 57 61  0  0  0  0  0  0  0  0999 V2000
   -2.7590   19.1480  -25.5480 N   0  0  0  0  0  0  0  0  0  0  0  0
   -2.0460   19.1290  -26.4600 C   0  0  0  0  0  0  0  0  0  0  0  0
   -1.1500   19.0930  -27.5850 C   0  0  0  0  0  0  0  0  0  0  0  0
   -0.1260   18.0790  -27.5510 C   0  0  0  0  0  0  0  0  0  0  0  0
    0.6940   17.2640  -27.5210 N   0  0  0  0  0  0  0  0  0  0  0  0
   -1.2430   19.9560  -28.6190 C   0  0  0  0  0  0  0  0  0  0  0  0
   -0.3720   20.0080  -29.8090 C   0  0  0  0  0  0  0  0  0  0  0  0
    0.5870   19.2270  -30.0490 O   0  0  0  0  0  0  0  0  0  0  0  0
   -0.7540   21.0660  -30.6870 N   0  0  0  0  0  0  0  0  0  0  0  0
   -0.3640   21.1920  -32.0910 C   0  0  0  0  0  0  0  0  0  0  0  0
   -1.0540   20.1430  -32.9220 C   0  0  0  0  0  0  0  0  0  0  0  0
   -2.4500   20.1600  -33.0840 C   0  0  0  0  0  0  0  0  0  0  0  0
   -3.0850   19.1660  -33.8330 C   0  0  0  0  0  0  0  0  0  0  0  0
   -2.3340   18.1450  -34.4230 C   0  0  0  0  0  0  0  0  0  0  0  0
   -2.9640   17.1590  -35.1710 O   0  0  0  0  0  0  0  0  0  0  0  0
   -0.9460   18.1170  -34.2620 C   0  0  0  0  0  0  0  0  0  0  0  0
   -0.3070   19.1110  -33.5140 C   0  0  0  0  0  0  0  0  0  0  0  0
   -1.8890   21.6650  -30.0610 C   0  0  0  0  0  0  0  0  0  0  0  0
   -2.6350   22.7360  -30.5580 C   0  0  0  0  0  0  0  0  0  0  0  0
   -3.7370   23.1920  -29.8170 C   0  0  0  0  0  0  0  0  0  0  0  0
   -4.7290   24.5120  -30.4210 S   0  0  0  0  0  0  0  0  0  0  0  0
   -5.6680   24.9700  -29.3410 O   0  0  0  0  0  0  0  0  0  0  0  0
   -3.8620   25.6740  -30.8200 O   0  0  0  0  0  0  0  0  0  0  0  0
   -5.6460   23.9500  -31.7780 N   0  0  0  0  0  0  0  0  0  0  0  0
   -6.3270   22.6940  -31.7770 C   0  0  0  0  0  0  0  0  0  0  0  0
   -5.9610   21.7210  -32.7140 C   0  0  0  0  0  0  0  0  0  0  0  0
   -6.5640   20.4550  -32.7010 C   0  0  0  0  0  0  0  0  0  0  0  0
   -7.5700   20.1720  -31.7550 C   0  0  0  0  0  0  0  0  0  0  0  0
   -7.9200   21.1430  -30.8060 C   0  0  0  0  0  0  0  0  0  0  0  0
   -7.2960   22.3980  -30.8060 C   0  0  0  0  0  0  0  0  0  0  0  0
   -7.6120   23.3370  -29.8250 O   0  0  0  0  0  0  0  0  0  0  0  0
   -8.1790   18.7920  -31.6620 C   0  0  0  0  0  0  0  0  0  0  0  0
   -8.0160   18.0160  -32.8990 N   0  0  0  0  0  0  0  0  0  0  0  0
   -6.6190   18.0270  -33.3500 C   0  0  0  0  0  0  0  0  0  0  0  0
   -6.1820   19.4430  -33.7470 C   0  0  0  0  0  0  0  0  0  0  0  0
   -4.0710   22.5680  -28.5980 C   0  0  0  0  0  0  0  0  0  0  0  0
   -3.3070   21.4980  -28.1090 C   0  0  0  0  0  0  0  0  0  0  0  0
   -2.2070   21.0560  -28.8560 C   0  0  0  0  0  0  0  0  0  0  0  0
   -0.6471   22.1896  -32.4580 H   0  0  0  0  0  0  0  0  0  0  0  0
    0.7243   21.0546  -32.1734 H   0  0  0  0  0  0  0  0  0  0  0  0
   -3.0454   20.9595  -32.6190 H   0  0  0  0  0  0  0  0  0  0  0  0
   -4.1776   19.1868  -33.9587 H   0  0  0  0  0  0  0  0  0  0  0  0
   -0.3555   17.3122  -34.7242 H   0  0  0  0  0  0  0  0  0  0  0  0
    0.7855   19.0846  -33.3886 H   0  0  0  0  0  0  0  0  0  0  0  0
   -2.3644   23.2131  -31.5115 H   0  0  0  0  0  0  0  0  0  0  0  0
   -5.1934   21.9514  -33.4675 H   0  0  0  0  0  0  0  0  0  0  0  0
   -8.6913   20.9178  -30.0547 H   0  0  0  0  0  0  0  0  0  0  0  0
   -7.0650   24.1810  -29.7020 H   0  0  0  0  0  0  0  0  0  0  0  0
   -7.6934   18.2478  -30.8386 H   0  0  0  0  0  0  0  0  0  0  0  0
   -9.2579   18.9159  -31.4871 H   0  0  0  0  0  0  0  0  0  0  0  0
   -8.6220   18.4330  -33.6440 H   0  0  0  0  0  0  0  0  0  0  0  0
   -5.9746   17.6668  -32.5345 H   0  0  0  0  0  0  0  0  0  0  0  0
   -6.5288   17.3723  -34.2293 H   0  0  0  0  0  0  0  0  0  0  0  0
   -5.0895   19.4567  -33.8746 H   0  0  0  0  0  0  0  0  0  0  0  0
   -6.6908   19.7095  -34.6851 H   0  0  0  0  0  0  0  0  0  0  0  0
   -4.9396   22.9237  -28.0244 H   0  0  0  0  0  0  0  0  0  0  0  0
   -3.5669   21.0144  -27.1558 H   0  0  0  0  0  0  0  0  0  0  0  0
  1  2  3  0
  2  3  1  0
  3  4  1  0
  4  5  3  0
  3  6  2  3
  6  7  1  0
  7  8  2  0
  7  9  1  0
  9 10  1  0
 10 11  1  0
 11 12  2  0
 12 13  1  0
 13 14  2  0
 14 15  1  0
 14 16  1  0
 16 17  2  0
  9 18  1  0
 18 19  2  0
 19 20  1  0
 20 21  1  0
 21 22  2  0
 21 23  2  0
 21 24  1  0
 24 25  1  0
 25 26  2  0
 26 27  1  0
 27 28  2  0
 28 29  1  0
 29 30  2  0
 30 31  1  0
 28 32  1  0
 32 33  1  0
 33 34  1  0
 34 35  1  0
 20 36  2  0
 36 37  1  0
 37 38  2  0
 38  6  1  0
 17 11  1  0
 38 18  1  0
 30 25  1  0
 35 27  1  0
 10 39  1  0
 10 40  1  0
 12 41  1  0
 13 42  1  0
 16 43  1  0
 17 44  1  0
 19 45  1  0
 26 46  1  0
 29 47  1  0
 31 48  1  0
 32 49  1  0
 32 50  1  0
 33 51  1  0
 34 52  1  0
 34 53  1  0
 35 54  1  0
 35 55  1  0
 36 56  1  0
 37 57  1  0
M  CHG  2  15  -1  24  -1
M  END
>  <UniqueID>  (25) 
25

>  <SMILES>  (25) 
N#CC(C#N)=C1C(=O)N(Cc2ccc([O-])cc2)c2cc(S(=O)(=O)[N-]c3cc4c(cc3O)CNCC4)ccc21

>  <Energy>  (25) 
101.2109195176674

>  <Genealogy>  (25) 
N#CC(C#N)=C1C(=O)N(Cc2ccc([O-])cc2)c2cc(S(=O)(=O)[N-]c3cc4c(cc3O)CNCC4)ccc21 (protonated)
N#CC(C#N)=C1C(=O)N(Cc2ccc([O-])cc2)c2cc(S(=O)(=O)[N-]c3cc4c(cc3O)CNCC4)ccc21 (3D coordinates assigned)
N#CC(C#N)=C1C(=O)N(Cc2ccc([O-])cc2)c2cc(S(=O)(=O)[N-]c3cc4c(cc3O)CNCC4)ccc21 (nonaromatic ring conformer: 101.2109195176674 kcal/mol)

>  <smiles>  (25) 
N#CC(C#N)=C1C(=O)N(Cc2ccc(O)cc2)c2cc(S(=O)(=O)Nc3cc4c(cc3O)CNCC4)ccc21

>  <score_type>  (25) 
oracle

>  <origin>  (25) 
adgpu

>  <m_score__min__energy>  (25) 
-14.68

>  <m_primary>  (25) 
energy

$$$$
25:0
     RDKit          3D

 63 66  0  0  0  0  0  0  0  0999 V2000
   -5.0030   25.3830  -31.2110 O   0  0  0  0  0  0  0  0  0  0  0  0
   -5.6220   24.3050  -31.0130 C   0  0  0  0  0  0  0  0  0  0  0  0
   -6.8090   24.0450  -31.7720 N   0  0  0  0  0  0  0  0  0  0  0  0
   -7.4130   22.7590  -31.9660 C   0  0  0  0  0  0  0  0  0  0  0  0
   -8.7580   22.5220  -31.6330 C   0  0  0  0  0  0  0  0  0  0  0  0
   -9.3120   21.2500  -31.8090 C   0  0  0  0  0  0  0  0  0  0  0  0
   -8.5250   20.2050  -32.3020 C   0  0  0  0  0  0  0  0  0  0  0  0
   -7.1750   20.4250  -32.6060 C   0  0  0  0  0  0  0  0  0  0  0  0
   -6.1640   19.1180  -33.2180 S   0  0  0  0  0  0  0  0  0  0  0  0
   -6.1320   19.1490  -34.7220 O   0  0  0  0  0  0  0  0  0  0  0  0
   -6.7520   17.8090  -32.7720 O   0  0  0  0  0  0  0  0  0  0  0  0
   -4.5390   19.2800  -32.5940 N   0  0  0  0  0  0  0  0  0  0  0  0
   -4.5750   19.9170  -31.2570 C   0  0  0  0  0  0  0  0  0  0  0  0
   -3.2130   20.5050  -30.8770 C   0  0  0  0  0  0  0  0  0  0  0  0
   -2.7910   21.6110  -31.8610 C   0  0  0  0  0  0  0  0  0  0  0  0
   -3.4240   21.4400  -33.2520 C   0  0  0  0  0  0  0  0  0  0  0  0
   -3.6580   19.9570  -33.5770 C   0  0  0  0  0  0  0  0  0  0  0  0
   -6.6220   21.7000  -32.4270 C   0  0  0  0  0  0  0  0  0  0  0  0
   -5.1630   23.3670  -30.0240 N   0  0  0  0  0  0  0  0  0  0  0  0
   -3.9120   23.4810  -29.3250 C   0  0  0  0  0  0  0  0  0  0  0  0
   -2.9540   24.4460  -29.6810 C   0  0  0  0  0  0  0  0  0  0  0  0
   -1.7530   24.5430  -28.9720 C   0  0  0  0  0  0  0  0  0  0  0  0
   -1.4980   23.6860  -27.8930 C   0  0  0  0  0  0  0  0  0  0  0  0
    0.0330   23.7880  -27.0180 S   0  0  0  0  0  0  0  0  0  0  0  0
    1.0160   24.5810  -27.8320 O   0  0  0  0  0  0  0  0  0  0  0  0
    0.5910   22.4050  -26.8310 O   0  0  0  0  0  0  0  0  0  0  0  0
   -0.1740   24.5410  -25.4530 N   0  0  0  0  0  0  0  0  0  0  0  0
   -1.5300   25.1250  -25.3020 C   0  0  0  0  0  0  0  0  0  0  0  0
   -1.5470   26.6530  -25.4620 C   0  0  0  0  0  0  0  0  0  0  0  0
   -0.6200   27.3320  -24.4380 C   0  0  0  0  0  0  0  0  0  0  0  0
    0.5860   26.4550  -24.0560 C   0  0  0  0  0  0  0  0  0  0  0  0
    0.9380   25.4800  -25.1840 C   0  0  0  0  0  0  0  0  0  0  0  0
   -2.4660   22.7470  -27.5150 C   0  0  0  0  0  0  0  0  0  0  0  0
   -3.6670   22.6500  -28.2220 C   0  0  0  0  0  0  0  0  0  0  0  0
   -9.3763   23.3391  -31.2330 H   0  0  0  0  0  0  0  0  0  0  0  0
  -10.3683   21.0715  -31.5592 H   0  0  0  0  0  0  0  0  0  0  0  0
   -8.9663   19.2085  -32.4515 H   0  0  0  0  0  0  0  0  0  0  0  0
   -5.3225   20.7239  -31.2658 H   0  0  0  0  0  0  0  0  0  0  0  0
   -4.8370   19.1476  -30.5158 H   0  0  0  0  0  0  0  0  0  0  0  0
   -3.2754   20.9301  -29.8644 H   0  0  0  0  0  0  0  0  0  0  0  0
   -2.4634   19.7008  -30.9140 H   0  0  0  0  0  0  0  0  0  0  0  0
   -3.0999   22.5838  -31.4508 H   0  0  0  0  0  0  0  0  0  0  0  0
   -1.6995   21.5493  -31.9825 H   0  0  0  0  0  0  0  0  0  0  0  0
   -4.3882   21.9689  -33.2750 H   0  0  0  0  0  0  0  0  0  0  0  0
   -2.7354   21.8566  -34.0018 H   0  0  0  0  0  0  0  0  0  0  0  0
   -4.1224   19.8852  -34.5716 H   0  0  0  0  0  0  0  0  0  0  0  0
   -2.6801   19.4545  -33.5431 H   0  0  0  0  0  0  0  0  0  0  0  0
   -5.5584   21.8700  -32.6504 H   0  0  0  0  0  0  0  0  0  0  0  0
   -5.7200   22.4980  -29.8680 H   0  0  0  0  0  0  0  0  0  0  0  0
   -3.1502   25.1281  -30.5214 H   0  0  0  0  0  0  0  0  0  0  0  0
   -1.0049   25.2953  -29.2624 H   0  0  0  0  0  0  0  0  0  0  0  0
   -2.1881   24.6853  -26.0659 H   0  0  0  0  0  0  0  0  0  0  0  0
   -1.8746   24.8971  -24.2825 H   0  0  0  0  0  0  0  0  0  0  0  0
   -1.2101   26.9109  -26.4769 H   0  0  0  0  0  0  0  0  0  0  0  0
   -2.5737   27.0090  -25.2910 H   0  0  0  0  0  0  0  0  0  0  0  0
   -0.2483   28.2731  -24.8695 H   0  0  0  0  0  0  0  0  0  0  0  0
   -1.2063   27.5075  -23.5239 H   0  0  0  0  0  0  0  0  0  0  0  0
    1.4527   27.1027  -23.8574 H   0  0  0  0  0  0  0  0  0  0  0  0
    0.3249   25.8730  -23.1598 H   0  0  0  0  0  0  0  0  0  0  0  0
    1.1518   26.0528  -26.0984 H   0  0  0  0  0  0  0  0  0  0  0  0
    1.8172   24.8958  -24.8747 H   0  0  0  0  0  0  0  0  0  0  0  0
   -2.2798   22.0831  -26.6579 H   0  0  0  0  0  0  0  0  0  0  0  0
   -4.4259   21.9167  -27.9114 H   0  0  0  0  0  0  0  0  0  0  0  0
  1  2  2  0
  2  3  1  0
  3  4  1  0
  4  5  2  0
  5  6  1  0
  6  7  2  0
  7  8  1  0
  8  9  1  0
  9 10  2  0
  9 11  2  0
  9 12  1  0
 12 13  1  0
 13 14  1  0
 14 15  1  0
 15 16  1  0
 16 17  1  0
  8 18  2  0
  2 19  1  0
 19 20  1  0
 20 21  2  0
 21 22  1  0
 22 23  2  0
 23 24  1  0
 24 25  2  0
 24 26  2  0
 24 27  1  0
 27 28  1  0
 28 29  1  0
 29 30  1  0
 30 31  1  0
 31 32  1  0
 23 33  1  0
 33 34  2  0
 18  4  1  0
 34 20  1  0
 17 12  1  0
 32 27  1  0
  5 35  1  0
  6 36  1  0
  7 37  1  0
 13 38  1  0
 13 39  1  0
 14 40  1  0
 14 41  1  0
 15 42  1  0
 15 43  1  0
 16 44  1  0
 16 45  1  0
 17 46  1  0
 17 47  1  0
 18 48  1  0
 19 49  1  0
 21 50  1  0
 22 51  1  0
 28 52  1  0
 28 53  1  0
 29 54  1  0
 29 55  1  0
 30 56  1  0
 30 57  1  0
 31 58  1  0
 31 59  1  0
 32 60  1  0
 32 61  1  0
 33 62  1  0
 34 63  1  0
M  CHG  1   3  -1
M  END
>  <UniqueID>  (26) 
26

>  <SMILES>  (26) 
O=C([N-]c1cccc(S(=O)(=O)N2CCCCC2)c1)Nc1ccc(S(=O)(=O)N2CCCCC2)cc1

>  <Energy>  (26) 
82.65951350605721

>  <Genealogy>  (26) 
O=C([N-]c1cccc(S(=O)(=O)N2CCCCC2)c1)Nc1ccc(S(=O)(=O)N2CCCCC2)cc1 (protonated)
O=C([N-]c1cccc(S(=O)(=O)N2CCCCC2)c1)Nc1ccc(S(=O)(=O)N2CCCCC2)cc1 (3D coordinates assigned)
O=C([N-]c1cccc(S(=O)(=O)N2CCCCC2)c1)Nc1ccc(S(=O)(=O)N2CCCCC2)cc1 (nonaromatic ring conformer: 82.65951350605721 kcal/mol)

>  <smiles>  (26) 
O=C(Nc1ccc(S(=O)(=O)N2CCCCC2)cc1)Nc1cccc(S(=O)(=O)N2CCCCC2)c1

>  <score_type>  (26) 
oracle

>  <origin>  (26) 
adgpu

>  <m_score__min__energy>  (26) 
-11.800000000000001

>  <m_primary>  (26) 
energy

$$$$
26:0
     RDKit          3D

 62 65  0  0  0  0  0  0  0  0999 V2000
   -0.9010   26.1780  -27.9470 C   0  0  0  0  0  0  0  0  0  0  0  0
   -1.7480   25.6730  -28.9740 O   0  0  0  0  0  0  0  0  0  0  0  0
   -2.1790   24.3400  -29.0620 C   0  0  0  0  0  0  0  0  0  0  0  0
   -3.3590   23.9800  -28.4020 C   0  0  0  0  0  0  0  0  0  0  0  0
   -3.8280   22.6650  -28.4540 C   0  0  0  0  0  0  0  0  0  0  0  0
   -3.1170   21.6960  -29.1640 C   0  0  0  0  0  0  0  0  0  0  0  0
   -1.9390   22.0390  -29.8420 C   0  0  0  0  0  0  0  0  0  0  0  0
   -1.1560   20.9800  -30.5710 C   0  0  0  0  0  0  0  0  0  0  0  0
   -2.0470   19.9060  -30.9920 N   0  0  0  0  0  0  0  0  0  0  0  0
   -2.0520   19.3540  -32.3140 C   0  0  0  0  0  0  0  0  0  0  0  0
   -0.9860   19.3310  -32.9880 O   0  0  0  0  0  0  0  0  0  0  0  0
   -3.2970   18.6940  -32.8610 C   0  0  1  0  0  0  0  0  0  0  0  0
   -3.7470   19.3060  -34.1900 C   0  0  0  0  0  0  0  0  0  0  0  0
   -5.0650   18.6860  -34.7020 C   0  0  0  0  0  0  0  0  0  0  0  0
   -5.3530   17.3190  -34.1910 N   0  0  2  0  0  0  0  0  0  0  0  0
   -6.4370   17.2580  -32.8030 S   0  0  0  0  0  0  0  0  0  0  0  0
   -7.5310   16.2690  -33.0990 O   0  0  0  0  0  0  0  0  0  0  0  0
   -5.7250   16.7790  -31.5700 O   0  0  0  0  0  0  0  0  0  0  0  0
   -7.1950   18.8130  -32.4460 C   0  0  0  0  0  0  0  0  0  0  0  0
   -8.5990   18.9170  -32.3710 C   0  0  0  0  0  0  0  0  0  0  0  0
   -9.2060   20.1600  -32.1440 C   0  0  0  0  0  0  0  0  0  0  0  0
   -8.3920   21.2820  -31.9870 C   0  0  0  0  0  0  0  0  0  0  0  0
   -7.0270   21.1910  -32.0390 C   0  0  0  0  0  0  0  0  0  0  0  0
   -6.3990   19.9640  -32.2870 C   0  0  0  0  0  0  0  0  0  0  0  0
   -6.4250   22.4760  -31.9280 N   0  0  0  0  0  0  0  0  0  0  0  0
   -5.0260   22.8160  -31.9190 C   0  0  0  0  0  0  0  0  0  0  0  0
   -4.0050   22.0060  -32.6520 C   0  0  0  0  0  0  0  0  0  0  0  0
   -4.6380   23.8090  -31.2460 O   0  0  0  0  0  0  0  0  0  0  0  0
   -7.4880   23.4800  -31.8500 C   0  0  0  0  0  0  0  0  0  0  0  0
   -8.8220   22.6970  -31.8240 C   0  0  0  0  0  0  0  0  0  0  0  0
   -4.1310   16.5150  -33.9770 C   0  0  0  0  0  0  0  0  0  0  0  0
   -3.1050   17.1720  -33.0230 C   0  0  0  0  0  0  0  0  0  0  0  0
   -1.4680   23.3610  -29.7830 C   0  0  0  0  0  0  0  0  0  0  0  0
   -1.3254   25.9250  -26.9642 H   0  0  0  0  0  0  0  0  0  0  0  0
    0.0983   25.7282  -28.0417 H   0  0  0  0  0  0  0  0  0  0  0  0
   -0.8216   27.2710  -28.0417 H   0  0  0  0  0  0  0  0  0  0  0  0
   -3.9218   24.7382  -27.8378 H   0  0  0  0  0  0  0  0  0  0  0  0
   -4.7588   22.3929  -27.9348 H   0  0  0  0  0  0  0  0  0  0  0  0
   -3.4826   20.6589  -29.1916 H   0  0  0  0  0  0  0  0  0  0  0  0
   -0.6772   21.4247  -31.4559 H   0  0  0  0  0  0  0  0  0  0  0  0
   -0.3876   20.5706  -29.8988 H   0  0  0  0  0  0  0  0  0  0  0  0
   -4.0896   18.8760  -32.1203 H   0  0  0  0  0  0  0  0  0  0  0  0
   -2.9613   19.1379  -34.9413 H   0  0  0  0  0  0  0  0  0  0  0  0
   -3.9209   20.3796  -34.0252 H   0  0  0  0  0  0  0  0  0  0  0  0
   -5.0161   18.6374  -35.7998 H   0  0  0  0  0  0  0  0  0  0  0  0
   -5.8747   19.3315  -34.3309 H   0  0  0  0  0  0  0  0  0  0  0  0
   -5.8850   16.8340  -34.9530 H   0  0  0  0  0  0  0  0  0  0  0  0
   -9.2214   18.0180  -32.4912 H   0  0  0  0  0  0  0  0  0  0  0  0
  -10.3011   20.2488  -32.0908 H   0  0  0  0  0  0  0  0  0  0  0  0
   -5.3030   19.9003  -32.3564 H   0  0  0  0  0  0  0  0  0  0  0  0
   -3.3564   21.4914  -31.9278 H   0  0  0  0  0  0  0  0  0  0  0  0
   -4.5120   21.2617  -33.2837 H   0  0  0  0  0  0  0  0  0  0  0  0
   -3.3956   22.6690  -33.2837 H   0  0  0  0  0  0  0  0  0  0  0  0
   -7.3799   24.0791  -30.9338 H   0  0  0  0  0  0  0  0  0  0  0  0
   -7.4473   24.1732  -32.7031 H   0  0  0  0  0  0  0  0  0  0  0  0
   -9.3454   22.8420  -30.8674 H   0  0  0  0  0  0  0  0  0  0  0  0
   -9.5283   23.0243  -32.6012 H   0  0  0  0  0  0  0  0  0  0  0  0
   -3.6457   16.3571  -34.9514 H   0  0  0  0  0  0  0  0  0  0  0  0
   -4.4479   15.5736  -33.5044 H   0  0  0  0  0  0  0  0  0  0  0  0
   -2.0953   16.9893  -33.4194 H   0  0  0  0  0  0  0  0  0  0  0  0
   -3.2534   16.7213  -32.0306 H   0  0  0  0  0  0  0  0  0  0  0  0
   -0.5379   23.6335  -30.3032 H   0  0  0  0  0  0  0  0  0  0  0  0
  1  2  1  0
  2  3  1  0
  3  4  2  0
  4  5  1  0
  5  6  2  0
  6  7  1  0
  7  8  1  0
  8  9  1  0
  9 10  1  0
 10 11  2  0
 10 12  1  0
 12 13  1  0
 13 14  1  0
 14 15  1  0
 15 16  1  0
 16 17  2  0
 16 18  2  0
 16 19  1  0
 19 20  2  0
 20 21  1  0
 21 22  2  0
 22 23  1  0
 23 24  2  0
 23 25  1  0
 25 26  1  0
 26 27  1  0
 26 28  2  0
 25 29  1  0
 29 30  1  0
 15 31  1  0
 31 32  1  0
  7 33  2  0
 33  3  1  0
 32 12  1  0
 24 19  1  0
 30 22  1  0
  1 34  1  0
  1 35  1  0
  1 36  1  0
  4 37  1  0
  5 38  1  0
  6 39  1  0
  8 40  1  0
  8 41  1  0
 12 42  1  1
 13 43  1  0
 13 44  1  0
 14 45  1  0
 14 46  1  0
 15 47  1  6
 20 48  1  0
 21 49  1  0
 24 50  1  0
 27 51  1  0
 27 52  1  0
 27 53  1  0
 29 54  1  0
 29 55  1  0
 30 56  1  0
 30 57  1  0
 31 58  1  0
 31 59  1  0
 32 60  1  0
 32 61  1  0
 33 62  1  0
M  CHG  2   9  -1  15   1
M  END
>  <UniqueID>  (27) 
27

>  <SMILES>  (27) 
COc1cccc(C[N-]C(=O)C2CC[NH+](S(=O)(=O)c3ccc4c(c3)N(C(C)=O)CC4)CC2)c1

>  <Energy>  (27) 
87.87115527268938

>  <Genealogy>  (27) 
COc1cccc(C[N-]C(=O)C2CC[NH+](S(=O)(=O)c3ccc4c(c3)N(C(C)=O)CC4)CC2)c1 (protonated)
COc1cccc(C[N-]C(=O)C2CC[NH+](S(=O)(=O)c3ccc4c(c3)N(C(C)=O)CC4)CC2)c1 (3D coordinates assigned)
COc1cccc(C[N-]C(=O)C2CC[NH+](S(=O)(=O)c3ccc4c(c3)N(C(C)=O)CC4)CC2)c1 (nonaromatic ring conformer: 87.87115527268938 kcal/mol)

>  <smiles>  (27) 
COc1cccc(CNC(=O)C2CCN(S(=O)(=O)c3ccc4c(c3)N(C(C)=O)CC4)CC2)c1

>  <score_type>  (27) 
oracle

>  <origin>  (27) 
adgpu

>  <m_score__min__energy>  (27) 
-11.07

>  <m_primary>  (27) 
energy

$$$$
27:0
     RDKit          3D

 56 59  0  0  0  0  0  0  0  0999 V2000
   -4.8090   18.6110  -34.2810 C   0  0  0  0  0  0  0  0  0  0  0  0
   -4.7610   19.6750  -33.2250 C   0  0  0  0  0  0  0  0  0  0  0  0
   -3.5280   20.1620  -32.7680 C   0  0  0  0  0  0  0  0  0  0  0  0
   -3.4810   21.1160  -31.7480 C   0  0  0  0  0  0  0  0  0  0  0  0
   -4.6660   21.5730  -31.1470 C   0  0  0  0  0  0  0  0  0  0  0  0
   -4.6240   22.5440  -30.0320 C   0  0  0  0  0  0  0  0  0  0  0  0
   -5.6810   22.7840  -29.3890 O   0  0  0  0  0  0  0  0  0  0  0  0
   -3.3770   23.2450  -29.6490 C   0  0  0  0  0  0  0  0  0  0  0  0
   -3.1020   24.5820  -29.8660 C   0  0  0  0  0  0  0  0  0  0  0  0
   -3.9240   25.5060  -30.5000 O   0  0  0  0  0  0  0  0  0  0  0  0
   -1.8620   24.8350  -29.3340 C   0  0  0  0  0  0  0  0  0  0  0  0
   -1.2310   26.0740  -29.3260 O   0  0  0  0  0  0  0  0  0  0  0  0
   -1.3410   23.7140  -28.7940 N   0  0  0  0  0  0  0  0  0  0  0  0
   -0.0960   23.6320  -28.0280 C   0  0  0  0  0  0  0  0  0  0  0  0
   -0.3920   23.3310  -26.5540 C   0  0  0  0  0  0  0  0  0  0  0  0
    0.0660   24.4660  -25.6340 C   0  0  0  0  0  0  0  0  0  0  0  0
   -1.1170   25.1590  -25.0640 N   0  0  0  0  0  0  0  0  0  0  0  0
   -1.8170   26.0000  -26.0530 C   0  0  0  0  0  0  0  0  0  0  0  0
   -1.0150   27.2850  -26.3750 C   0  0  0  0  0  0  0  0  0  0  0  0
    0.0740   27.4860  -25.4920 O   0  0  0  0  0  0  0  0  0  0  0  0
   -0.3640   27.3730  -24.1550 C   0  0  0  0  0  0  0  0  0  0  0  0
   -0.8080   25.9300  -23.8400 C   0  0  0  0  0  0  0  0  0  0  0  0
   -2.2680   22.7360  -28.9680 C   0  0  0  0  0  0  0  0  0  0  0  0
   -2.1650   21.3830  -28.3820 C   0  0  0  0  0  0  0  0  0  0  0  0
   -3.1490   20.9200  -27.4970 C   0  0  0  0  0  0  0  0  0  0  0  0
   -3.0530   19.6280  -26.9740 C   0  0  0  0  0  0  0  0  0  0  0  0
   -2.0100   18.8280  -27.3220 N   0  0  0  0  0  0  0  0  0  0  0  0
   -1.0420   19.2510  -28.1790 C   0  0  0  0  0  0  0  0  0  0  0  0
   -1.1030   20.5350  -28.7260 C   0  0  0  0  0  0  0  0  0  0  0  0
   -5.9010   21.0920  -31.6140 C   0  0  0  0  0  0  0  0  0  0  0  0
   -5.9460   20.1400  -32.6360 C   0  0  0  0  0  0  0  0  0  0  0  0
   -4.8536   17.6214  -33.8027 H   0  0  0  0  0  0  0  0  0  0  0  0
   -5.7015   18.7561  -34.9074 H   0  0  0  0  0  0  0  0  0  0  0  0
   -3.9070   18.6751  -34.9074 H   0  0  0  0  0  0  0  0  0  0  0  0
   -2.5935   19.7914  -33.2145 H   0  0  0  0  0  0  0  0  0  0  0  0
   -2.5106   21.5115  -31.4136 H   0  0  0  0  0  0  0  0  0  0  0  0
    0.5320   22.8296  -28.4424 H   0  0  0  0  0  0  0  0  0  0  0  0
    0.4281   24.5967  -28.0961 H   0  0  0  0  0  0  0  0  0  0  0  0
   -1.4759   23.1896  -26.4311 H   0  0  0  0  0  0  0  0  0  0  0  0
    0.1618   22.4226  -26.2747 H   0  0  0  0  0  0  0  0  0  0  0  0
    0.6749   24.0511  -24.8173 H   0  0  0  0  0  0  0  0  0  0  0  0
    0.6640   25.1847  -26.2135 H   0  0  0  0  0  0  0  0  0  0  0  0
   -1.9544   25.4230  -26.9794 H   0  0  0  0  0  0  0  0  0  0  0  0
   -2.7875   26.2964  -25.6284 H   0  0  0  0  0  0  0  0  0  0  0  0
   -0.6264   27.2093  -27.4013 H   0  0  0  0  0  0  0  0  0  0  0  0
   -1.6976   28.1399  -26.2602 H   0  0  0  0  0  0  0  0  0  0  0  0
    0.4601   27.6511  -23.4816 H   0  0  0  0  0  0  0  0  0  0  0  0
   -1.2232   28.0442  -24.0093 H   0  0  0  0  0  0  0  0  0  0  0  0
    0.0016   25.4213  -23.2962 H   0  0  0  0  0  0  0  0  0  0  0  0
   -1.7253   25.9841  -23.2352 H   0  0  0  0  0  0  0  0  0  0  0  0
   -3.9911   21.5697  -27.2163 H   0  0  0  0  0  0  0  0  0  0  0  0
   -3.8219   19.2576  -26.2800 H   0  0  0  0  0  0  0  0  0  0  0  0
   -0.2100   18.5811  -28.4417 H   0  0  0  0  0  0  0  0  0  0  0  0
   -0.3232   20.8782  -29.4218 H   0  0  0  0  0  0  0  0  0  0  0  0
   -6.8366   21.4666  -31.1731 H   0  0  0  0  0  0  0  0  0  0  0  0
   -6.9163   19.7531  -32.9805 H   0  0  0  0  0  0  0  0  0  0  0  0
  1  2  1  0
  2  3  2  0
  3  4  1  0
  4  5  2  0
  5  6  1  0
  6  7  2  0
  6  8  1  0
  8  9  1  0
  9 10  1  0
  9 11  2  0
 11 12  1  0
 11 13  1  0
 13 14  1  0
 14 15  1  0
 15 16  1  0
 16 17  1  0
 17 18  1  0
 18 19  1  0
 19 20  1  0
 20 21  1  0
 21 22  1  0
 13 23  1  0
 23 24  1  0
 24 25  2  0
 25 26  1  0
 26 27  2  0
 27 28  1  0
 28 29  2  0
  5 30  1  0
 30 31  2  0
 31  2  1  0
 23  8  2  0
 29 24  1  0
 22 17  1  0
  1 32  1  0
  1 33  1  0
  1 34  1  0
  3 35  1  0
  4 36  1  0
 14 37  1  0
 14 38  1  0
 15 39  1  0
 15 40  1  0
 16 41  1  0
 16 42  1  0
 18 43  1  0
 18 44  1  0
 19 45  1  0
 19 46  1  0
 21 47  1  0
 21 48  1  0
 22 49  1  0
 22 50  1  0
 25 51  1  0
 26 52  1  0
 28 53  1  0
 29 54  1  0
 30 55  1  0
 31 56  1  0
M  CHG  2  10  -1  12  -1
M  END
>  <UniqueID>  (28) 
28

>  <SMILES>  (28) 
Cc1ccc(C(=O)c2c([O-])c([O-])n(CCCN3CCOCC3)c2-c2ccncc2)cc1

>  <Energy>  (28) 
106.30960693154957

>  <Genealogy>  (28) 
Cc1ccc(C(=O)c2c([O-])c([O-])n(CCCN3CCOCC3)c2-c2ccncc2)cc1 (protonated)
Cc1ccc(C(=O)c2c([O-])c([O-])n(CCCN3CCOCC3)c2-c2ccncc2)cc1 (3D coordinates assigned)
Cc1ccc(C(=O)c2c([O-])c([O-])n(CCCN3CCOCC3)c2-c2ccncc2)cc1 (nonaromatic ring conformer: 106.30960693154957 kcal/mol)

>  <smiles>  (28) 
Cc1ccc(C(=O)c2c(O)c(O)n(CCCN3CCOCC3)c2-c2ccncc2)cc1

>  <score_type>  (28) 
oracle

>  <origin>  (28) 
adgpu

>  <m_score__min__energy>  (28) 
-14.44

>  <m_primary>  (28) 
energy

$$$$
28:0
     RDKit          3D

 59 62  0  0  0  0  0  0  0  0999 V2000
    0.8670   19.3330  -28.7870 C   0  0  0  0  0  0  0  0  0  0  0  0
    0.0100   19.8680  -27.7150 N   0  0  0  0  0  0  0  0  0  0  0  0
   -1.3480   19.2740  -27.8010 C   0  0  0  0  0  0  0  0  0  0  0  0
   -2.4080   20.1130  -27.0840 C   0  0  0  0  0  0  0  0  0  0  0  0
   -2.4210   21.4780  -27.6960 C   0  0  0  0  0  0  0  0  0  0  0  0
   -3.6190   22.1690  -27.9210 C   0  0  0  0  0  0  0  0  0  0  0  0
   -3.6060   23.4580  -28.4940 C   0  0  0  0  0  0  0  0  0  0  0  0
   -4.8220   24.2040  -28.7040 N   0  0  0  0  0  0  0  0  0  0  0  0
   -5.4070   24.6880  -30.2650 S   0  0  0  0  0  0  0  0  0  0  0  0
   -4.4850   25.7220  -30.8450 O   0  0  0  0  0  0  0  0  0  0  0  0
   -6.7770   25.2890  -30.1180 O   0  0  0  0  0  0  0  0  0  0  0  0
   -5.4430   23.2920  -31.3350 C   0  0  0  0  0  0  0  0  0  0  0  0
   -6.6510   22.8400  -31.8830 C   0  0  0  0  0  0  0  0  0  0  0  0
   -6.6700   21.7080  -32.7010 C   0  0  0  0  0  0  0  0  0  0  0  0
   -5.4840   21.0220  -32.9770 C   0  0  0  0  0  0  0  0  0  0  0  0
   -4.2700   21.4720  -32.4390 C   0  0  0  0  0  0  0  0  0  0  0  0
   -2.7840   20.5860  -32.7610 S   0  0  0  0  0  0  0  0  0  0  0  0
   -1.7140   20.9990  -31.7870 O   0  0  0  0  0  0  0  0  0  0  0  0
   -2.3090   20.9150  -34.1480 O   0  0  0  0  0  0  0  0  0  0  0  0
   -3.0580   18.8710  -32.6490 N   0  0  0  0  0  0  0  0  0  0  0  0
   -2.7890   18.1930  -33.9220 C   0  0  0  0  0  0  0  0  0  0  0  0
   -4.0830   17.6830  -34.5700 C   0  0  0  0  0  0  0  0  0  0  0  0
   -5.2430   17.7090  -33.6080 C   0  0  0  0  0  0  0  0  0  0  0  0
   -5.1460   17.0680  -32.3620 C   0  0  0  0  0  0  0  0  0  0  0  0
   -6.2170   17.1100  -31.4620 C   0  0  0  0  0  0  0  0  0  0  0  0
   -7.3910   17.7850  -31.8020 C   0  0  0  0  0  0  0  0  0  0  0  0
   -7.4990   18.4180  -33.0440 C   0  0  0  0  0  0  0  0  0  0  0  0
   -6.4310   18.3780  -33.9470 C   0  0  0  0  0  0  0  0  0  0  0  0
   -4.2530   22.6090  -31.6200 C   0  0  0  0  0  0  0  0  0  0  0  0
   -2.3670   24.0300  -28.8420 C   0  0  0  0  0  0  0  0  0  0  0  0
   -2.3120   25.2960  -29.4170 O   0  0  0  0  0  0  0  0  0  0  0  0
   -1.1740   23.3390  -28.6060 C   0  0  0  0  0  0  0  0  0  0  0  0
   -1.1960   22.0600  -28.0360 C   0  0  0  0  0  0  0  0  0  0  0  0
    0.0850   21.3560  -27.6580 C   0  0  0  0  0  0  0  0  0  0  0  0
    1.7205   18.8002  -28.3426 H   0  0  0  0  0  0  0  0  0  0  0  0
    0.2846   18.6378  -29.4095 H   0  0  0  0  0  0  0  0  0  0  0  0
    1.2358   20.1615  -29.4095 H   0  0  0  0  0  0  0  0  0  0  0  0
   -1.6270   19.1866  -28.8614 H   0  0  0  0  0  0  0  0  0  0  0  0
   -1.3122   18.2921  -27.3065 H   0  0  0  0  0  0  0  0  0  0  0  0
   -3.3958   19.6435  -27.2015 H   0  0  0  0  0  0  0  0  0  0  0  0
   -2.1748   20.1813  -26.0112 H   0  0  0  0  0  0  0  0  0  0  0  0
   -4.5773   21.7026  -27.6487 H   0  0  0  0  0  0  0  0  0  0  0  0
   -5.3930   24.5010  -27.8830 H   0  0  0  0  0  0  0  0  0  0  0  0
   -7.5862   23.3779  -31.6685 H   0  0  0  0  0  0  0  0  0  0  0  0
   -7.6202   21.3557  -33.1288 H   0  0  0  0  0  0  0  0  0  0  0  0
   -5.5031   20.1277  -33.6173 H   0  0  0  0  0  0  0  0  0  0  0  0
   -2.3002   18.9006  -34.6079 H   0  0  0  0  0  0  0  0  0  0  0  0
   -2.1381   17.3289  -33.7228 H   0  0  0  0  0  0  0  0  0  0  0  0
   -4.3232   18.3205  -35.4336 H   0  0  0  0  0  0  0  0  0  0  0  0
   -3.9206   16.6399  -34.8792 H   0  0  0  0  0  0  0  0  0  0  0  0
   -4.2247   16.5309  -32.0925 H   0  0  0  0  0  0  0  0  0  0  0  0
   -6.1337   16.6106  -30.4855 H   0  0  0  0  0  0  0  0  0  0  0  0
   -8.2310   17.8188  -31.0926 H   0  0  0  0  0  0  0  0  0  0  0  0
   -8.4249   18.9482  -33.3116 H   0  0  0  0  0  0  0  0  0  0  0  0
   -6.5218   18.8720  -34.9256 H   0  0  0  0  0  0  0  0  0  0  0  0
   -3.3018   22.9668  -31.1992 H   0  0  0  0  0  0  0  0  0  0  0  0
   -0.2123   23.8032  -28.8698 H   0  0  0  0  0  0  0  0  0  0  0  0
    0.8759   21.6873  -28.3471 H   0  0  0  0  0  0  0  0  0  0  0  0
    0.2909   21.6200  -26.6102 H   0  0  0  0  0  0  0  0  0  0  0  0
  1  2  1  0
  2  3  1  0
  3  4  1  0
  4  5  1  0
  5  6  2  0
  6  7  1  0
  7  8  1  0
  8  9  1  0
  9 10  2  0
  9 11  2  0
  9 12  1  0
 12 13  2  0
 13 14  1  0
 14 15  2  0
 15 16  1  0
 16 17  1  0
 17 18  2  0
 17 19  2  0
 17 20  1  0
 20 21  1  0
 21 22  1  0
 22 23  1  0
 23 24  2  0
 24 25  1  0
 25 26  2  0
 26 27  1  0
 27 28  2  0
 16 29  2  0
  7 30  2  0
 30 31  1  0
 30 32  1  0
 32 33  2  0
 33 34  1  0
 34  2  1  0
 33  5  1  0
 29 12  1  0
 28 23  1  0
  1 35  1  0
  1 36  1  0
  1 37  1  0
  3 38  1  0
  3 39  1  0
  4 40  1  0
  4 41  1  0
  6 42  1  0
  8 43  1  0
 13 44  1  0
 14 45  1  0
 15 46  1  0
 21 47  1  0
 21 48  1  0
 22 49  1  0
 22 50  1  0
 24 51  1  0
 25 52  1  0
 26 53  1  0
 27 54  1  0
 28 55  1  0
 29 56  1  0
 32 57  1  0
 34 58  1  0
 34 59  1  0
M  CHG  2  20  -1  31  -1
M  END
>  <UniqueID>  (29) 
29

>  <SMILES>  (29) 
CN1CCc2cc(NS(=O)(=O)c3cccc(S(=O)(=O)[N-]CCc4ccccc4)c3)c([O-])cc2C1

>  <Energy>  (29) 
65.67803489784934

>  <Genealogy>  (29) 
CN1CCc2cc(NS(=O)(=O)c3cccc(S(=O)(=O)[N-]CCc4ccccc4)c3)c([O-])cc2C1 (protonated)
CN1CCc2cc(NS(=O)(=O)c3cccc(S(=O)(=O)[N-]CCc4ccccc4)c3)c([O-])cc2C1 (3D coordinates assigned)
CN1CCc2cc(NS(=O)(=O)c3cccc(S(=O)(=O)[N-]CCc4ccccc4)c3)c([O-])cc2C1 (nonaromatic ring conformer: 65.67803489784934 kcal/mol)

>  <smiles>  (29) 
CN1CCc2cc(NS(=O)(=O)c3cccc(S(=O)(=O)NCCc4ccccc4)c3)c(O)cc2C1

>  <score_type>  (29) 
oracle

>  <origin>  (29) 
adgpu

>  <m_score__min__energy>  (29) 
-14.300000000000001

>  <m_primary>  (29) 
energy

$$$$
29:0
     RDKit          3D

 56 60  0  0  0  0  0  0  0  0999 V2000
   -4.4330   14.7650  -32.8510 C   0  0  0  0  0  0  0  0  0  0  0  0
   -4.4980   16.2630  -32.9310 C   0  0  0  0  0  0  0  0  0  0  0  0
   -3.3350   17.0030  -33.1210 C   0  0  0  0  0  0  0  0  0  0  0  0
   -3.3780   18.3920  -33.1360 C   0  0  0  0  0  0  0  0  0  0  0  0
   -4.5990   19.0960  -32.9790 C   0  0  0  0  0  0  0  0  0  0  0  0
   -5.7910   18.3450  -32.7480 C   0  0  0  0  0  0  0  0  0  0  0  0
   -5.7100   16.9280  -32.7230 C   0  0  0  0  0  0  0  0  0  0  0  0
   -7.0150   19.0380  -32.5270 C   0  0  0  0  0  0  0  0  0  0  0  0
   -8.2560   18.3780  -32.3320 C   0  0  0  0  0  0  0  0  0  0  0  0
   -9.4260   19.0990  -32.0900 C   0  0  0  0  0  0  0  0  0  0  0  0
   -9.3950   20.4860  -32.0380 C   0  0  0  0  0  0  0  0  0  0  0  0
   -8.1960   21.1620  -32.2370 C   0  0  0  0  0  0  0  0  0  0  0  0
   -7.0010   20.4540  -32.4900 C   0  0  0  0  0  0  0  0  0  0  0  0
   -5.8020   21.1490  -32.7170 C   0  0  0  0  0  0  0  0  0  0  0  0
   -5.8030   22.4120  -32.6510 O   0  0  0  0  0  0  0  0  0  0  0  0
   -4.6390   20.4790  -33.0090 N   0  0  0  0  0  0  0  0  0  0  0  0
   -3.4360   21.2870  -33.3360 C   0  0  0  0  0  0  0  0  0  0  0  0
   -2.8060   21.9350  -32.1200 C   0  0  0  0  0  0  0  0  0  0  0  0
   -1.5180   21.5300  -31.7370 C   0  0  0  0  0  0  0  0  0  0  0  0
   -0.9050   22.0770  -30.6070 C   0  0  0  0  0  0  0  0  0  0  0  0
   -1.5780   23.0280  -29.8240 C   0  0  0  0  0  0  0  0  0  0  0  0
   -0.9640   23.5470  -28.5810 C   0  0  0  0  0  0  0  0  0  0  0  0
    0.0860   24.2400  -28.6290 O   0  0  0  0  0  0  0  0  0  0  0  0
   -1.5390   23.2370  -27.3080 N   0  0  0  0  0  0  0  0  0  0  0  0
   -0.8780   22.3420  -26.3640 C   0  0  0  0  0  0  0  0  0  0  0  0
   -0.9090   20.9240  -26.8710 C   0  0  0  0  0  0  0  0  0  0  0  0
   -1.8980   20.0340  -26.4190 C   0  0  0  0  0  0  0  0  0  0  0  0
   -1.8750   18.6950  -26.8180 C   0  0  0  0  0  0  0  0  0  0  0  0
   -0.8630   18.2340  -27.6630 C   0  0  0  0  0  0  0  0  0  0  0  0
    0.1320   19.1100  -28.1090 C   0  0  0  0  0  0  0  0  0  0  0  0
    1.4210   18.5180  -29.1430 Cl  0  0  0  0  0  0  0  0  0  0  0  0
    0.1080   20.4520  -27.7180 C   0  0  0  0  0  0  0  0  0  0  0  0
   -2.8590   23.4490  -30.2130 C   0  0  0  0  0  0  0  0  0  0  0  0
   -3.4700   22.9080  -31.3460 C   0  0  0  0  0  0  0  0  0  0  0  0
   -4.4195   14.4544  -31.7958 H   0  0  0  0  0  0  0  0  0  0  0  0
   -5.3132   14.3327  -33.3493 H   0  0  0  0  0  0  0  0  0  0  0  0
   -3.5186   14.4105  -33.3493 H   0  0  0  0  0  0  0  0  0  0  0  0
   -2.3747   16.4849  -33.2603 H   0  0  0  0  0  0  0  0  0  0  0  0
   -2.4446   18.9577  -33.2726 H   0  0  0  0  0  0  0  0  0  0  0  0
   -6.6208   16.3403  -32.5359 H   0  0  0  0  0  0  0  0  0  0  0  0
   -8.2964   17.2795  -32.3723 H   0  0  0  0  0  0  0  0  0  0  0  0
  -10.3766   18.5663  -31.9398 H   0  0  0  0  0  0  0  0  0  0  0  0
  -10.3183   21.0500  -31.8395 H   0  0  0  0  0  0  0  0  0  0  0  0
   -8.1785   22.2611  -32.1968 H   0  0  0  0  0  0  0  0  0  0  0  0
   -2.6907   20.6299  -33.8080 H   0  0  0  0  0  0  0  0  0  0  0  0
   -3.7574   22.0957  -34.0088 H   0  0  0  0  0  0  0  0  0  0  0  0
   -0.9856   20.7740  -32.3328 H   0  0  0  0  0  0  0  0  0  0  0  0
    0.1112   21.7605  -30.3292 H   0  0  0  0  0  0  0  0  0  0  0  0
    0.1679   22.6582  -26.2371 H   0  0  0  0  0  0  0  0  0  0  0  0
   -1.4074   22.3870  -25.4008 H   0  0  0  0  0  0  0  0  0  0  0  0
   -2.6931   20.3926  -25.7487 H   0  0  0  0  0  0  0  0  0  0  0  0
   -2.6547   18.0034  -26.4662 H   0  0  0  0  0  0  0  0  0  0  0  0
   -0.8485   17.1802  -27.9783 H   0  0  0  0  0  0  0  0  0  0  0  0
    0.8880   21.1408  -28.0746 H   0  0  0  0  0  0  0  0  0  0  0  0
   -3.3860   24.2114  -29.6205 H   0  0  0  0  0  0  0  0  0  0  0  0
   -4.4765   23.2435  -31.6365 H   0  0  0  0  0  0  0  0  0  0  0  0
  1  2  1  0
  2  3  2  0
  3  4  1  0
  4  5  2  0
  5  6  1  0
  6  7  2  0
  6  8  1  0
  8  9  2  0
  9 10  1  0
 10 11  2  0
 11 12  1  0
 12 13  2  0
 13 14  1  0
 14 15  2  0
 14 16  1  0
 16 17  1  0
 17 18  1  0
 18 19  2  0
 19 20  1  0
 20 21  2  0
 21 22  1  0
 22 23  2  0
 22 24  1  0
 24 25  1  0
 25 26  1  0
 26 27  2  0
 27 28  1  0
 28 29  2  0
 29 30  1  0
 30 31  1  0
 30 32  2  0
 21 33  1  0
 33 34  2  0
  7  2  1  0
 13  8  1  0
 34 18  1  0
 16  5  1  0
 32 26  1  0
  1 35  1  0
  1 36  1  0
  1 37  1  0
  3 38  1  0
  4 39  1  0
  7 40  1  0
  9 41  1  0
 10 42  1  0
 11 43  1  0
 12 44  1  0
 17 45  1  0
 17 46  1  0
 19 47  1  0
 20 48  1  0
 25 49  1  0
 25 50  1  0
 27 51  1  0
 28 52  1  0
 29 53  1  0
 32 54  1  0
 33 55  1  0
 34 56  1  0
M  CHG  1  24  -1
M  END
>  <UniqueID>  (30) 
30

>  <SMILES>  (30) 
Cc1ccc2c(c1)c1ccccc1c(=O)n2Cc1ccc(C(=O)[N-]Cc2cccc(Cl)c2)cc1

>  <Energy>  (30) 
87.17758335412988

>  <Genealogy>  (30) 
Cc1ccc2c(c1)c1ccccc1c(=O)n2Cc1ccc(C(=O)[N-]Cc2cccc(Cl)c2)cc1 (protonated)
Cc1ccc2c(c1)c1ccccc1c(=O)n2Cc1ccc(C(=O)[N-]Cc2cccc(Cl)c2)cc1 (3D coordinates assigned)
Cc1ccc2c(c1)c1ccccc1c(=O)n2Cc1ccc(C(=O)[N-]Cc2cccc(Cl)c2)cc1 (optimized conformer: 87.17758335412988 kcal/mol)

>  <smiles>  (30) 
Cc1ccc2c(c1)c1ccccc1c(=O)n2Cc1ccc(C(=O)NCc2cccc(Cl)c2)cc1

>  <score_type>  (30) 
oracle

>  <origin>  (30) 
adgpu

>  <m_score__min__energy>  (30) 
-11.67

>  <m_primary>  (30) 
energy

$$$$
30:0
     RDKit          3D

 39 40  0  0  0  0  0  0  0  0999 V2000
   -1.1530   24.0720  -26.5410 C   0  0  0  0  0  0  0  0  0  0  0  0
   -1.1110   23.2920  -27.7320 O   0  0  0  0  0  0  0  0  0  0  0  0
   -2.1310   23.2570  -28.6950 C   0  0  0  0  0  0  0  0  0  0  0  0
   -2.7800   22.0620  -29.0560 C   0  0  0  0  0  0  0  0  0  0  0  0
   -3.7920   22.0710  -30.0180 C   0  0  0  0  0  0  0  0  0  0  0  0
   -4.1820   23.2720  -30.6340 C   0  0  0  0  0  0  0  0  0  0  0  0
   -5.2810   23.2630  -31.6740 C   0  0  0  0  0  0  0  0  0  0  0  0
   -5.6340   21.8460  -32.1120 C   0  0  0  0  0  0  0  0  0  0  0  0
   -6.8840   21.2440  -31.7890 C   0  0  0  0  0  0  0  0  0  0  0  0
   -7.9830   22.0680  -31.1450 C   0  0  0  0  0  0  0  0  0  0  0  0
   -7.0870   19.8680  -32.0770 C   0  0  0  0  0  0  0  0  0  0  0  0
   -8.3470   19.1540  -31.6370 C   0  0  0  0  0  0  0  0  0  0  0  0
   -6.1170   19.1570  -32.8090 C   0  0  0  0  0  0  0  0  0  0  0  0
   -6.3440   17.8220  -33.1380 O   0  0  0  0  0  0  0  0  0  0  0  0
   -4.9260   19.7790  -33.2210 C   0  0  0  0  0  0  0  0  0  0  0  0
   -3.9030   19.0110  -34.0240 C   0  0  0  0  0  0  0  0  0  0  0  0
   -4.6840   21.1210  -32.8620 C   0  0  0  0  0  0  0  0  0  0  0  0
   -3.5010   21.7640  -33.2460 O   0  0  0  0  0  0  0  0  0  0  0  0
   -3.5250   24.4660  -30.2800 C   0  0  0  0  0  0  0  0  0  0  0  0
   -3.8750   25.6700  -30.8830 O   0  0  0  0  0  0  0  0  0  0  0  0
   -2.5100   24.4540  -29.3140 C   0  0  0  0  0  0  0  0  0  0  0  0
   -1.8730   25.6420  -28.9690 O   0  0  0  0  0  0  0  0  0  0  0  0
   -1.1172   23.4068  -25.6656 H   0  0  0  0  0  0  0  0  0  0  0  0
   -0.2903   24.7541  -26.5188 H   0  0  0  0  0  0  0  0  0  0  0  0
   -2.0840   24.6575  -26.5188 H   0  0  0  0  0  0  0  0  0  0  0  0
   -2.4885   21.1153  -28.5777 H   0  0  0  0  0  0  0  0  0  0  0  0
   -4.2883   21.1295  -30.2960 H   0  0  0  0  0  0  0  0  0  0  0  0
   -6.1774   23.7381  -31.2489 H   0  0  0  0  0  0  0  0  0  0  0  0
   -4.9221   23.8141  -32.5557 H   0  0  0  0  0  0  0  0  0  0  0  0
   -7.8964   22.0031  -30.0503 H   0  0  0  0  0  0  0  0  0  0  0  0
   -7.8860   23.1178  -31.4589 H   0  0  0  0  0  0  0  0  0  0  0  0
   -8.9635   21.6806  -31.4589 H   0  0  0  0  0  0  0  0  0  0  0  0
   -8.3899   19.1297  -30.5381 H   0  0  0  0  0  0  0  0  0  0  0  0
   -9.2262   19.6881  -32.0266 H   0  0  0  0  0  0  0  0  0  0  0  0
   -8.3406   18.1253  -32.0266 H   0  0  0  0  0  0  0  0  0  0  0  0
   -3.2137   18.4935  -33.3406 H   0  0  0  0  0  0  0  0  0  0  0  0
   -4.4143   18.2718  -34.6581 H   0  0  0  0  0  0  0  0  0  0  0  0
   -3.3359   19.7083  -34.6581 H   0  0  0  0  0  0  0  0  0  0  0  0
   -3.2280   21.9130  -34.2080 H   0  0  0  0  0  0  0  0  0  0  0  0
  1  2  1  0
  2  3  1  0
  3  4  2  0
  4  5  1  0
  5  6  2  0
  6  7  1  0
  7  8  1  0
  8  9  2  0
  9 10  1  0
  9 11  1  0
 11 12  1  0
 11 13  2  0
 13 14  1  0
 13 15  1  0
 15 16  1  0
 15 17  2  0
 17 18  1  0
  6 19  1  0
 19 20  1  0
 19 21  2  0
 21 22  1  0
 21  3  1  0
 17  8  1  0
  1 23  1  0
  1 24  1  0
  1 25  1  0
  4 26  1  0
  5 27  1  0
  7 28  1  0
  7 29  1  0
 10 30  1  0
 10 31  1  0
 10 32  1  0
 12 33  1  0
 12 34  1  0
 12 35  1  0
 16 36  1  0
 16 37  1  0
 16 38  1  0
 18 39  1  0
M  CHG  3  14  -1  20  -1  22  -1
M  END
>  <UniqueID>  (31) 
31

>  <SMILES>  (31) 
COc1ccc(Cc2c(C)c(C)c([O-])c(C)c2O)c([O-])c1[O-]

>  <Energy>  (31) 
49.49198982597397

>  <Genealogy>  (31) 
COc1ccc(Cc2c(C)c(C)c([O-])c(C)c2O)c([O-])c1[O-] (protonated)
COc1ccc(Cc2c(C)c(C)c([O-])c(C)c2O)c([O-])c1[O-] (3D coordinates assigned)
COc1ccc(Cc2c(C)c(C)c([O-])c(C)c2O)c([O-])c1[O-] (optimized conformer: 49.49198982597397 kcal/mol)

>  <smiles>  (31) 
COc1ccc(Cc2c(C)c(C)c(O)c(C)c2O)c(O)c1O

>  <score_type>  (31) 
oracle

>  <origin>  (31) 
adgpu

>  <m_score__min__energy>  (31) 
-13.5

>  <m_primary>  (31) 
energy

$$$$
31:0
     RDKit          3D

 70 74  0  0  0  0  0  0  0  0999 V2000
   -0.5260   19.4070  -31.6540 C   0  0  0  0  0  0  0  0  0  0  0  0
   -0.0630   20.1200  -32.8920 C   0  0  0  0  0  0  0  0  0  0  0  0
   -0.7780   21.0580  -33.6300 C   0  0  0  0  0  0  0  0  0  0  0  0
   -2.1180   21.5230  -33.4400 N   0  0  0  0  0  0  0  0  0  0  0  0
   -3.2140   20.7020  -33.0150 C   0  0  0  0  0  0  0  0  0  0  0  0
   -3.2260   19.4790  -33.3140 O   0  0  0  0  0  0  0  0  0  0  0  0
   -4.3530   21.3060  -32.2770 C   0  0  0  0  0  0  0  0  0  0  0  0
   -4.1600   22.5070  -31.5690 C   0  0  0  0  0  0  0  0  0  0  0  0
   -5.2130   23.1070  -30.8710 C   0  0  0  0  0  0  0  0  0  0  0  0
   -4.9150   24.5630  -29.9280 S   0  0  0  0  0  0  0  0  0  0  0  0
   -6.2070   25.0670  -29.3420 O   0  0  0  0  0  0  0  0  0  0  0  0
   -4.3520   25.6230  -30.8370 O   0  0  0  0  0  0  0  0  0  0  0  0
   -3.7780   24.2110  -28.6480 N   0  0  0  0  0  0  0  0  0  0  0  0
   -2.3870   24.5380  -29.0550 C   0  0  0  0  0  0  0  0  0  0  0  0
   -1.5770   23.3020  -29.4710 C   0  0  0  0  0  0  0  0  0  0  0  0
   -1.5120   22.2650  -28.3350 C   0  0  0  0  0  0  0  0  0  0  0  0
   -2.7420   22.3170  -27.4130 C   0  0  0  0  0  0  0  0  0  0  0  0
   -3.9710   22.8250  -28.1730 C   0  0  0  0  0  0  0  0  0  0  0  0
   -6.4800   22.5150  -30.8840 C   0  0  0  0  0  0  0  0  0  0  0  0
   -6.6880   21.3210  -31.5740 C   0  0  0  0  0  0  0  0  0  0  0  0
   -5.6330   20.7010  -32.2580 C   0  0  0  0  0  0  0  0  0  0  0  0
   -5.8520   19.4120  -32.8460 N   0  0  0  0  0  0  0  0  0  0  0  0
   -6.3080   18.3240  -31.9770 C   0  0  0  0  0  0  0  0  0  0  0  0
   -6.1050   16.9610  -32.6580 C   0  0  0  0  0  0  0  0  0  0  0  0
   -6.5760   16.9710  -33.9900 O   0  0  0  0  0  0  0  0  0  0  0  0
   -5.8150   17.8870  -34.7540 C   0  0  0  0  0  0  0  0  0  0  0  0
   -6.0850   19.3180  -34.2880 C   0  0  0  0  0  0  0  0  0  0  0  0
    0.1210   21.5540  -34.5420 C   0  0  0  0  0  0  0  0  0  0  0  0
   -0.1090   22.4620  -35.3850 O   0  0  0  0  0  0  0  0  0  0  0  0
    1.3000   20.9180  -34.4020 N   0  0  0  0  0  0  0  0  0  0  0  0
    2.4910   21.2010  -35.1510 C   0  0  0  0  0  0  0  0  0  0  0  0
    3.2050   20.1540  -35.7520 C   0  0  0  0  0  0  0  0  0  0  0  0
    4.3930   20.4210  -36.4410 C   0  0  0  0  0  0  0  0  0  0  0  0
    4.8790   21.7310  -36.5200 C   0  0  0  0  0  0  0  0  0  0  0  0
    4.1760   22.7780  -35.9130 C   0  0  0  0  0  0  0  0  0  0  0  0
    2.9830   22.5150  -35.2310 C   0  0  0  0  0  0  0  0  0  0  0  0
    1.1920   20.0380  -33.4100 N   0  0  0  0  0  0  0  0  0  0  0  0
    2.3020   19.2650  -32.8490 C   0  0  0  0  0  0  0  0  0  0  0  0
   -0.1734   19.9499  -30.7647 H   0  0  0  0  0  0  0  0  0  0  0  0
   -1.6251   19.3636  -31.6453 H   0  0  0  0  0  0  0  0  0  0  0  0
   -0.1186   18.3853  -31.6453 H   0  0  0  0  0  0  0  0  0  0  0  0
   -3.1671   22.9804  -31.5646 H   0  0  0  0  0  0  0  0  0  0  0  0
   -2.4253   25.2345  -29.9056 H   0  0  0  0  0  0  0  0  0  0  0  0
   -1.8849   24.9819  -28.1828 H   0  0  0  0  0  0  0  0  0  0  0  0
   -2.0526   22.8413  -30.3494 H   0  0  0  0  0  0  0  0  0  0  0  0
   -0.5515   23.6230  -29.7060 H   0  0  0  0  0  0  0  0  0  0  0  0
   -1.4469   21.2606  -28.7787 H   0  0  0  0  0  0  0  0  0  0  0  0
   -0.6279   22.4974  -27.7231 H   0  0  0  0  0  0  0  0  0  0  0  0
   -2.9477   21.3069  -27.0289 H   0  0  0  0  0  0  0  0  0  0  0  0
   -2.5311   23.0070  -26.5827 H   0  0  0  0  0  0  0  0  0  0  0  0
   -4.1509   22.1717  -29.0395 H   0  0  0  0  0  0  0  0  0  0  0  0
   -4.8313   22.8112  -27.4876 H   0  0  0  0  0  0  0  0  0  0  0  0
   -7.3142   22.9921  -30.3489 H   0  0  0  0  0  0  0  0  0  0  0  0
   -7.6877   20.8621  -31.5816 H   0  0  0  0  0  0  0  0  0  0  0  0
   -5.7346   18.3474  -31.0385 H   0  0  0  0  0  0  0  0  0  0  0  0
   -7.3804   18.4606  -31.7736 H   0  0  0  0  0  0  0  0  0  0  0  0
   -5.0319   16.7192  -32.6604 H   0  0  0  0  0  0  0  0  0  0  0  0
   -6.6758   16.2068  -32.0964 H   0  0  0  0  0  0  0  0  0  0  0  0
   -4.7454   17.6611  -34.6318 H   0  0  0  0  0  0  0  0  0  0  0  0
   -6.1006   17.7950  -35.8123 H   0  0  0  0  0  0  0  0  0  0  0  0
   -5.4102   20.0089  -34.8146 H   0  0  0  0  0  0  0  0  0  0  0  0
   -7.1286   19.5858  -34.5097 H   0  0  0  0  0  0  0  0  0  0  0  0
    2.8306   19.1221  -35.6816 H   0  0  0  0  0  0  0  0  0  0  0  0
    4.9458   19.6002  -36.9213 H   0  0  0  0  0  0  0  0  0  0  0  0
    5.8148   21.9381  -37.0599 H   0  0  0  0  0  0  0  0  0  0  0  0
    4.5611   23.8067  -35.9721 H   0  0  0  0  0  0  0  0  0  0  0  0
    2.4290   23.3384  -34.7565 H   0  0  0  0  0  0  0  0  0  0  0  0
    2.2539   19.2985  -31.7506 H   0  0  0  0  0  0  0  0  0  0  0  0
    2.2297   18.2209  -33.1875 H   0  0  0  0  0  0  0  0  0  0  0  0
    3.2562   19.6950  -33.1875 H   0  0  0  0  0  0  0  0  0  0  0  0
  1  2  1  0
  2  3  2  0
  3  4  1  0
  4  5  1  0
  5  6  2  0
  5  7  1  0
  7  8  2  0
  8  9  1  0
  9 10  1  0
 10 11  2  0
 10 12  2  0
 10 13  1  0
 13 14  1  0
 14 15  1  0
 15 16  1  0
 16 17  1  0
 17 18  1  0
  9 19  2  0
 19 20  1  0
 20 21  2  0
 21 22  1  0
 22 23  1  0
 23 24  1  0
 24 25  1  0
 25 26  1  0
 26 27  1  0
  3 28  1  0
 28 29  2  0
 28 30  1  0
 30 31  1  0
 31 32  2  0
 32 33  1  0
 33 34  2  0
 34 35  1  0
 35 36  2  0
 30 37  1  0
 37 38  1  0
 37  2  1  0
 21  7  1  0
 27 22  1  0
 36 31  1  0
 18 13  1  0
  1 39  1  0
  1 40  1  0
  1 41  1  0
  8 42  1  0
 14 43  1  0
 14 44  1  0
 15 45  1  0
 15 46  1  0
 16 47  1  0
 16 48  1  0
 17 49  1  0
 17 50  1  0
 18 51  1  0
 18 52  1  0
 19 53  1  0
 20 54  1  0
 23 55  1  0
 23 56  1  0
 24 57  1  0
 24 58  1  0
 26 59  1  0
 26 60  1  0
 27 61  1  0
 27 62  1  0
 32 63  1  0
 33 64  1  0
 34 65  1  0
 35 66  1  0
 36 67  1  0
 38 68  1  0
 38 69  1  0
 38 70  1  0
M  CHG  1   4  -1
M  END
>  <UniqueID>  (32) 
32

>  <SMILES>  (32) 
Cc1c([N-]C(=O)c2cc(S(=O)(=O)N3CCCCC3)ccc2N2CCOCC2)c(=O)n(-c2ccccc2)n1C

>  <Energy>  (32) 
133.68401724850315

>  <Genealogy>  (32) 
Cc1c([N-]C(=O)c2cc(S(=O)(=O)N3CCCCC3)ccc2N2CCOCC2)c(=O)n(-c2ccccc2)n1C (protonated)
Cc1c([N-]C(=O)c2cc(S(=O)(=O)N3CCCCC3)ccc2N2CCOCC2)c(=O)n(-c2ccccc2)n1C (3D coordinates assigned)
Cc1c([N-]C(=O)c2cc(S(=O)(=O)N3CCCCC3)ccc2N2CCOCC2)c(=O)n(-c2ccccc2)n1C (nonaromatic ring conformer: 133.68401724850315 kcal/mol)

>  <smiles>  (32) 
Cc1c(NC(=O)c2cc(S(=O)(=O)N3CCCCC3)ccc2N2CCOCC2)c(=O)n(-c2ccccc2)n1C

>  <score_type>  (32) 
oracle

>  <origin>  (32) 
adgpu

>  <m_score__min__energy>  (32) 
-11.279999999999999

>  <m_primary>  (32) 
energy

$$$$
32:0
     RDKit          3D

 47 50  0  0  0  0  0  0  0  0999 V2000
   -3.0730   23.0330  -31.6280 O   0  0  0  0  0  0  0  0  0  0  0  0
   -3.9880   23.5920  -30.5750 S   0  0  0  0  0  0  0  0  0  0  0  0
   -3.8620   25.0910  -30.5640 O   0  0  0  0  0  0  0  0  0  0  0  0
   -3.5420   22.9510  -28.9700 C   0  0  0  0  0  0  0  0  0  0  0  0
   -2.8270   24.0000  -28.1670 C   0  0  0  0  0  0  0  0  0  0  0  0
   -1.6140   24.5400  -28.6280 C   0  0  0  0  0  0  0  0  0  0  0  0
   -0.9660   25.5380  -27.8950 C   0  0  0  0  0  0  0  0  0  0  0  0
   -1.5250   26.0100  -26.7040 C   0  0  0  0  0  0  0  0  0  0  0  0
   -2.7370   25.4850  -26.2450 C   0  0  0  0  0  0  0  0  0  0  0  0
   -3.3880   24.4870  -26.9750 C   0  0  0  0  0  0  0  0  0  0  0  0
   -5.6440   23.1230  -30.9430 C   0  0  0  0  0  0  0  0  0  0  0  0
   -6.7200   23.9780  -30.6680 C   0  0  0  0  0  0  0  0  0  0  0  0
   -7.9910   23.5930  -30.9570 N   0  0  0  0  0  0  0  0  0  0  0  0
   -8.2640   22.3830  -31.5120 C   0  0  0  0  0  0  0  0  0  0  0  0
   -9.5500   22.0380  -31.7850 N   0  0  0  0  0  0  0  0  0  0  0  0
   -9.8660   20.8370  -32.3370 C   0  0  0  0  0  0  0  0  0  0  0  0
   -8.8610   19.9150  -32.6400 C   0  0  0  0  0  0  0  0  0  0  0  0
   -7.5250   20.2360  -32.3730 C   0  0  0  0  0  0  0  0  0  0  0  0
   -6.4960   19.2870  -32.6800 N   0  0  0  0  0  0  0  0  0  0  0  0
   -6.1120   18.2800  -31.6870 C   0  0  0  0  0  0  0  0  0  0  0  0
   -5.9940   16.8880  -32.3340 C   0  0  0  0  0  0  0  0  0  0  0  0
   -5.4730   16.9170  -33.7880 C   0  0  0  0  0  0  0  0  0  0  0  0
   -4.7930   18.2420  -34.1470 C   0  0  0  0  0  0  0  0  0  0  0  0
   -5.7710   19.4070  -33.9510 C   0  0  0  0  0  0  0  0  0  0  0  0
   -7.2140   21.4850  -31.8030 C   0  0  0  0  0  0  0  0  0  0  0  0
   -5.8980   21.8710  -31.5120 C   0  0  0  0  0  0  0  0  0  0  0  0
   -4.4536   22.6447  -28.4360 H   0  0  0  0  0  0  0  0  0  0  0  0
   -2.8739   22.0874  -29.1039 H   0  0  0  0  0  0  0  0  0  0  0  0
   -1.1736   24.1762  -29.5681 H   0  0  0  0  0  0  0  0  0  0  0  0
   -0.0136   25.9531  -28.2563 H   0  0  0  0  0  0  0  0  0  0  0  0
   -1.0117   26.7941  -26.1281 H   0  0  0  0  0  0  0  0  0  0  0  0
   -3.1782   25.8578  -25.3088 H   0  0  0  0  0  0  0  0  0  0  0  0
   -4.3445   24.0808  -26.6143 H   0  0  0  0  0  0  0  0  0  0  0  0
   -6.5352   24.9640  -30.2167 H   0  0  0  0  0  0  0  0  0  0  0  0
  -10.9173   20.5898  -32.5461 H   0  0  0  0  0  0  0  0  0  0  0  0
   -9.1181   18.9427  -33.0857 H   0  0  0  0  0  0  0  0  0  0  0  0
   -5.1416   18.5573  -31.2495 H   0  0  0  0  0  0  0  0  0  0  0  0
   -6.8875   18.2410  -30.9078 H   0  0  0  0  0  0  0  0  0  0  0  0
   -5.3022   16.2826  -31.7300 H   0  0  0  0  0  0  0  0  0  0  0  0
   -7.0082   16.4632  -32.3661 H   0  0  0  0  0  0  0  0  0  0  0  0
   -4.7457   16.1020  -33.9173 H   0  0  0  0  0  0  0  0  0  0  0  0
   -6.3405   16.7981  -34.4538 H   0  0  0  0  0  0  0  0  0  0  0  0
   -3.9173   18.3891  -33.4977 H   0  0  0  0  0  0  0  0  0  0  0  0
   -4.4773   18.2106  -35.2002 H   0  0  0  0  0  0  0  0  0  0  0  0
   -5.2079   20.3519  -33.9545 H   0  0  0  0  0  0  0  0  0  0  0  0
   -6.5033   19.3872  -34.7716 H   0  0  0  0  0  0  0  0  0  0  0  0
   -5.0641   21.1881  -31.7315 H   0  0  0  0  0  0  0  0  0  0  0  0
  1  2  2  0
  2  3  2  0
  2  4  1  0
  4  5  1  0
  5  6  2  0
  6  7  1  0
  7  8  2  0
  8  9  1  0
  9 10  2  0
  2 11  1  0
 11 12  2  0
 12 13  1  0
 13 14  2  0
 14 15  1  0
 15 16  2  0
 16 17  1  0
 17 18  2  0
 18 19  1  0
 19 20  1  0
 20 21  1  0
 21 22  1  0
 22 23  1  0
 23 24  1  0
 18 25  1  0
 25 26  2  0
 10  5  1  0
 26 11  1  0
 25 14  1  0
 24 19  1  0
  4 27  1  0
  4 28  1  0
  6 29  1  0
  7 30  1  0
  8 31  1  0
  9 32  1  0
 10 33  1  0
 12 34  1  0
 16 35  1  0
 17 36  1  0
 20 37  1  0
 20 38  1  0
 21 39  1  0
 21 40  1  0
 22 41  1  0
 22 42  1  0
 23 43  1  0
 23 44  1  0
 24 45  1  0
 24 46  1  0
 26 47  1  0
M  END
>  <UniqueID>  (33) 
33

>  <SMILES>  (33) 
O=S(=O)(Cc1ccccc1)c1cnc2nccc(N3CCCCC3)c2c1

>  <Energy>  (33) 
56.82728692415234

>  <Genealogy>  (33) 
O=S(=O)(Cc1ccccc1)c1cnc2nccc(N3CCCCC3)c2c1 (3D coordinates assigned)
O=S(=O)(Cc1ccccc1)c1cnc2nccc(N3CCCCC3)c2c1 (nonaromatic ring conformer: 56.82728692415234 kcal/mol)

>  <smiles>  (33) 
O=S(=O)(Cc1ccccc1)c1cnc2nccc(N3CCCCC3)c2c1

>  <score_type>  (33) 
oracle

>  <origin>  (33) 
adgpu

>  <m_score__min__energy>  (33) 
-10.08

>  <m_primary>  (33) 
energy

$$$$
33:0
     RDKit          3D

 59 62  0  0  0  0  0  0  0  0999 V2000
   -3.9910   20.9040  -32.8120 O   0  0  0  0  0  0  0  0  0  0  0  0
   -3.0070   21.4990  -32.2910 C   0  0  0  0  0  0  0  0  0  0  0  0
   -3.2270   22.6360  -31.4350 N   0  0  0  0  0  0  0  0  0  0  0  0
   -4.5250   23.2070  -31.1960 C   0  0  0  0  0  0  0  0  0  0  0  0
   -5.6970   22.4820  -31.4760 C   0  0  0  0  0  0  0  0  0  0  0  0
   -6.9580   23.0500  -31.2470 C   0  0  0  0  0  0  0  0  0  0  0  0
   -8.4220   22.1170  -31.5650 S   0  0  0  0  0  0  0  0  0  0  0  0
   -9.4790   23.0320  -32.1220 O   0  0  0  0  0  0  0  0  0  0  0  0
   -8.9380   21.5500  -30.2730 O   0  0  0  0  0  0  0  0  0  0  0  0
   -8.1350   20.8100  -32.6950 N   0  0  0  0  0  0  0  0  0  0  0  0
   -9.3090   19.9370  -32.8020 C   0  0  0  0  0  0  0  0  0  0  0  0
   -9.0890   18.7270  -31.9060 C   0  0  0  0  0  0  0  0  0  0  0  0
   -7.6120   18.7260  -31.5680 C   0  0  0  0  0  0  0  0  0  0  0  0
   -7.0280   19.9570  -32.2490 C   0  0  0  0  0  0  0  0  0  0  0  0
   -7.0480   24.3620  -30.7630 C   0  0  0  0  0  0  0  0  0  0  0  0
   -5.8900   25.0980  -30.5090 C   0  0  0  0  0  0  0  0  0  0  0  0
   -4.6310   24.5270  -30.7270 C   0  0  0  0  0  0  0  0  0  0  0  0
   -3.4880   25.2750  -30.4630 O   0  0  0  0  0  0  0  0  0  0  0  0
   -1.6390   21.0010  -32.5730 C   0  0  0  0  0  0  0  0  0  0  0  0
   -1.0580   19.9730  -31.8070 C   0  0  0  0  0  0  0  0  0  0  0  0
    0.2320   19.5200  -32.0910 C   0  0  0  0  0  0  0  0  0  0  0  0
    0.9560   20.0780  -33.1470 C   0  0  0  0  0  0  0  0  0  0  0  0
    0.3860   21.0880  -33.9340 C   0  0  0  0  0  0  0  0  0  0  0  0
    1.2920   21.8130  -35.2590 S   0  0  0  0  0  0  0  0  0  0  0  0
    0.6190   23.0830  -35.7030 O   0  0  0  0  0  0  0  0  0  0  0  0
    2.6660   22.1590  -34.7580 O   0  0  0  0  0  0  0  0  0  0  0  0
    1.4310   20.6940  -36.5980 N   0  0  0  0  0  0  0  0  0  0  0  0
    2.8350   20.3440  -36.8890 C   0  0  0  0  0  0  0  0  0  0  0  0
    3.4430   19.3870  -35.8450 C   0  0  0  0  0  0  0  0  0  0  0  0
    2.4570   18.3050  -35.3710 C   0  0  0  0  0  0  0  0  0  0  0  0
    1.2560   18.1770  -36.3050 C   0  0  0  0  0  0  0  0  0  0  0  0
    0.5260   19.5260  -36.4390 C   0  0  0  0  0  0  0  0  0  0  0  0
   -0.9070   21.5460  -33.6440 C   0  0  0  0  0  0  0  0  0  0  0  0
   -2.4210   23.0550  -30.9230 H   0  0  0  0  0  0  0  0  0  0  0  0
   -5.6237   21.4607  -31.8780 H   0  0  0  0  0  0  0  0  0  0  0  0
  -10.2080   20.4815  -32.4774 H   0  0  0  0  0  0  0  0  0  0  0  0
   -9.4481   19.6157  -33.8448 H   0  0  0  0  0  0  0  0  0  0  0  0
   -9.6915   18.8143  -30.9898 H   0  0  0  0  0  0  0  0  0  0  0  0
   -9.3906   17.7941  -32.4047 H   0  0  0  0  0  0  0  0  0  0  0  0
   -7.4685   18.7867  -30.4791 H   0  0  0  0  0  0  0  0  0  0  0  0
   -7.1198   17.8034  -31.9095 H   0  0  0  0  0  0  0  0  0  0  0  0
   -6.3963   20.5099  -31.5382 H   0  0  0  0  0  0  0  0  0  0  0  0
   -6.4130   19.6559  -33.1099 H   0  0  0  0  0  0  0  0  0  0  0  0
   -8.0349   24.8132  -30.5827 H   0  0  0  0  0  0  0  0  0  0  0  0
   -5.9669   26.1301  -30.1363 H   0  0  0  0  0  0  0  0  0  0  0  0
   -1.6244   19.5230  -30.9783 H   0  0  0  0  0  0  0  0  0  0  0  0
    0.6793   18.7213  -31.4812 H   0  0  0  0  0  0  0  0  0  0  0  0
    1.9752   19.7242  -33.3614 H   0  0  0  0  0  0  0  0  0  0  0  0
    2.8789   19.8605  -37.8760 H   0  0  0  0  0  0  0  0  0  0  0  0
    3.4197   21.2754  -36.8632 H   0  0  0  0  0  0  0  0  0  0  0  0
    4.3178   18.8919  -36.2916 H   0  0  0  0  0  0  0  0  0  0  0  0
    3.7149   19.9903  -34.9663 H   0  0  0  0  0  0  0  0  0  0  0  0
    2.9815   17.3389  -35.3325 H   0  0  0  0  0  0  0  0  0  0  0  0
    2.0853   18.5958  -34.3774 H   0  0  0  0  0  0  0  0  0  0  0  0
    1.6030   17.8538  -37.2975 H   0  0  0  0  0  0  0  0  0  0  0  0
    0.5585   17.4370  -35.8856 H   0  0  0  0  0  0  0  0  0  0  0  0
   -0.1317   19.4766  -37.3193 H   0  0  0  0  0  0  0  0  0  0  0  0
   -0.0285   19.6804  -35.5016 H   0  0  0  0  0  0  0  0  0  0  0  0
   -1.3540   22.3399  -34.2604 H   0  0  0  0  0  0  0  0  0  0  0  0
  1  2  2  0
  2  3  1  0
  3  4  1  0
  4  5  2  0
  5  6  1  0
  6  7  1  0
  7  8  2  0
  7  9  2  0
  7 10  1  0
 10 11  1  0
 11 12  1  0
 12 13  1  0
 13 14  1  0
  6 15  2  0
 15 16  1  0
 16 17  2  0
 17 18  1  0
  2 19  1  0
 19 20  2  0
 20 21  1  0
 21 22  2  0
 22 23  1  0
 23 24  1  0
 24 25  2  0
 24 26  2  0
 24 27  1  0
 27 28  1  0
 28 29  1  0
 29 30  1  0
 30 31  1  0
 31 32  1  0
 23 33  2  0
 17  4  1  0
 33 19  1  0
 14 10  1  0
 32 27  1  0
  3 34  1  0
  5 35  1  0
 11 36  1  0
 11 37  1  0
 12 38  1  0
 12 39  1  0
 13 40  1  0
 13 41  1  0
 14 42  1  0
 14 43  1  0
 15 44  1  0
 16 45  1  0
 20 46  1  0
 21 47  1  0
 22 48  1  0
 28 49  1  0
 28 50  1  0
 29 51  1  0
 29 52  1  0
 30 53  1  0
 30 54  1  0
 31 55  1  0
 31 56  1  0
 32 57  1  0
 32 58  1  0
 33 59  1  0
M  CHG  1  18  -1
M  END
>  <UniqueID>  (34) 
34

>  <SMILES>  (34) 
O=C(Nc1cc(S(=O)(=O)N2CCCC2)ccc1[O-])c1cccc(S(=O)(=O)N2CCCCC2)c1

>  <Energy>  (34) 
74.77776622513827

>  <Genealogy>  (34) 
O=C(Nc1cc(S(=O)(=O)N2CCCC2)ccc1[O-])c1cccc(S(=O)(=O)N2CCCCC2)c1 (protonated)
O=C(Nc1cc(S(=O)(=O)N2CCCC2)ccc1[O-])c1cccc(S(=O)(=O)N2CCCCC2)c1 (3D coordinates assigned)
O=C(Nc1cc(S(=O)(=O)N2CCCC2)ccc1[O-])c1cccc(S(=O)(=O)N2CCCCC2)c1 (nonaromatic ring conformer: 74.77776622513827 kcal/mol)

>  <smiles>  (34) 
O=C(Nc1cc(S(=O)(=O)N2CCCC2)ccc1O)c1cccc(S(=O)(=O)N2CCCCC2)c1

>  <score_type>  (34) 
oracle

>  <origin>  (34) 
adgpu

>  <m_score__min__energy>  (34) 
-14.15

>  <m_primary>  (34) 
energy

$$$$
34:0
     RDKit          3D

 47 49  0  0  0  0  0  0  0  0999 V2000
   -9.4110   21.8420  -31.7790 C   0  0  0  0  0  0  0  0  0  0  0  0
   -8.3140   22.7460  -31.8510 O   0  0  0  0  0  0  0  0  0  0  0  0
   -6.9990   22.4290  -31.4770 C   0  0  0  0  0  0  0  0  0  0  0  0
   -6.4310   23.1140  -30.3970 C   0  0  0  0  0  0  0  0  0  0  0  0
   -5.1240   22.8350  -29.9860 C   0  0  0  0  0  0  0  0  0  0  0  0
   -4.3660   21.8670  -30.6600 C   0  0  0  0  0  0  0  0  0  0  0  0
   -2.7180   21.5200  -30.1460 S   0  0  0  0  0  0  0  0  0  0  0  0
   -1.7910   21.5090  -31.3280 O   0  0  0  0  0  0  0  0  0  0  0  0
   -2.6990   20.1480  -29.5320 O   0  0  0  0  0  0  0  0  0  0  0  0
   -2.1630   22.7210  -28.9590 C   0  0  0  0  0  0  0  0  0  0  0  0
   -2.0770   24.0570  -29.3820 C   0  0  0  0  0  0  0  0  0  0  0  0
   -1.6470   25.0600  -28.5150 C   0  0  0  0  0  0  0  0  0  0  0  0
   -1.5770   26.3740  -28.9670 O   0  0  0  0  0  0  0  0  0  0  0  0
   -1.2900   24.7540  -27.2010 C   0  0  0  0  0  0  0  0  0  0  0  0
   -0.8720   25.7980  -26.3600 O   0  0  0  0  0  0  0  0  0  0  0  0
    0.1970   26.6900  -26.6540 C   0  0  0  0  0  0  0  0  0  0  0  0
   -1.3610   23.4190  -26.7650 C   0  0  0  0  0  0  0  0  0  0  0  0
   -1.7820   22.3930  -27.6290 C   0  0  0  0  0  0  0  0  0  0  0  0
   -1.8410   20.7430  -26.9720 S   0  0  0  0  0  0  0  0  0  0  0  0
   -3.2100   20.1560  -27.1820 O   0  0  0  0  0  0  0  0  0  0  0  0
   -1.5760   20.7740  -25.4940 O   0  0  0  0  0  0  0  0  0  0  0  0
   -0.6720   19.7070  -27.7850 C   0  0  0  0  0  0  0  0  0  0  0  0
    0.2100   20.2490  -28.7320 C   0  0  0  0  0  0  0  0  0  0  0  0
    1.1400   19.4280  -29.3770 C   0  0  0  0  0  0  0  0  0  0  0  0
    1.1930   18.0600  -29.0820 C   0  0  0  0  0  0  0  0  0  0  0  0
    2.1520   17.2160  -29.7450 C   0  0  0  0  0  0  0  0  0  0  0  0
    2.9240   16.5370  -30.2770 N   0  0  0  0  0  0  0  0  0  0  0  0
    0.3070   17.5150  -28.1440 C   0  0  0  0  0  0  0  0  0  0  0  0
   -0.6230   18.3360  -27.5000 C   0  0  0  0  0  0  0  0  0  0  0  0
   -4.9330   21.1710  -31.7350 C   0  0  0  0  0  0  0  0  0  0  0  0
   -6.2390   21.4500  -32.1460 C   0  0  0  0  0  0  0  0  0  0  0  0
   -9.6531   21.6425  -30.7247 H   0  0  0  0  0  0  0  0  0  0  0  0
  -10.2850   22.2856  -32.2783 H   0  0  0  0  0  0  0  0  0  0  0  0
   -9.1427   20.8993  -32.2783 H   0  0  0  0  0  0  0  0  0  0  0  0
   -7.0178   23.8786  -29.8668 H   0  0  0  0  0  0  0  0  0  0  0  0
   -4.6897   23.3759  -29.1323 H   0  0  0  0  0  0  0  0  0  0  0  0
   -2.3535   24.3164  -30.4146 H   0  0  0  0  0  0  0  0  0  0  0  0
    0.6370   27.0571  -25.7150 H   0  0  0  0  0  0  0  0  0  0  0  0
    0.9656   26.1616  -27.2371 H   0  0  0  0  0  0  0  0  0  0  0  0
   -0.1852   27.5408  -27.2371 H   0  0  0  0  0  0  0  0  0  0  0  0
   -1.0822   23.1732  -25.7297 H   0  0  0  0  0  0  0  0  0  0  0  0
    0.1697   21.3227  -28.9677 H   0  0  0  0  0  0  0  0  0  0  0  0
    1.8311   19.8573  -30.1173 H   0  0  0  0  0  0  0  0  0  0  0  0
    0.3431   16.4399  -27.9140 H   0  0  0  0  0  0  0  0  0  0  0  0
   -1.3194   17.9039  -26.7663 H   0  0  0  0  0  0  0  0  0  0  0  0
   -4.3473   20.4009  -32.2583 H   0  0  0  0  0  0  0  0  0  0  0  0
   -6.6751   20.9031  -32.9950 H   0  0  0  0  0  0  0  0  0  0  0  0
  1  2  1  0
  2  3  1  0
  3  4  2  0
  4  5  1  0
  5  6  2  0
  6  7  1  0
  7  8  2  0
  7  9  2  0
  7 10  1  0
 10 11  2  0
 11 12  1  0
 12 13  1  0
 12 14  2  0
 14 15  1  0
 15 16  1  0
 14 17  1  0
 17 18  2  0
 18 19  1  0
 19 20  2  0
 19 21  2  0
 19 22  1  0
 22 23  2  0
 23 24  1  0
 24 25  2  0
 25 26  1  0
 26 27  3  0
 25 28  1  0
 28 29  2  0
  6 30  1  0
 30 31  2  0
 31  3  1  0
 18 10  1  0
 29 22  1  0
  1 32  1  0
  1 33  1  0
  1 34  1  0
  4 35  1  0
  5 36  1  0
 11 37  1  0
 16 38  1  0
 16 39  1  0
 16 40  1  0
 17 41  1  0
 23 42  1  0
 24 43  1  0
 28 44  1  0
 29 45  1  0
 30 46  1  0
 31 47  1  0
M  CHG  1  13  -1
M  END
>  <UniqueID>  (35) 
35

>  <SMILES>  (35) 
COc1ccc(S(=O)(=O)c2cc([O-])c(OC)cc2S(=O)(=O)c2ccc(C#N)cc2)cc1

>  <Energy>  (35) 
55.065786311163436

>  <Genealogy>  (35) 
COc1ccc(S(=O)(=O)c2cc([O-])c(OC)cc2S(=O)(=O)c2ccc(C#N)cc2)cc1 (protonated)
COc1ccc(S(=O)(=O)c2cc([O-])c(OC)cc2S(=O)(=O)c2ccc(C#N)cc2)cc1 (3D coordinates assigned)
COc1ccc(S(=O)(=O)c2cc([O-])c(OC)cc2S(=O)(=O)c2ccc(C#N)cc2)cc1 (optimized conformer: 55.065786311163436 kcal/mol)

>  <smiles>  (35) 
COc1ccc(S(=O)(=O)c2cc(O)c(OC)cc2S(=O)(=O)c2ccc(C#N)cc2)cc1

>  <score_type>  (35) 
oracle

>  <origin>  (35) 
adgpu

>  <m_score__min__energy>  (35) 
-10.31

>  <m_primary>  (35) 
energy

$$$$
35:0
     RDKit          3D

 55 58  0  0  0  0  0  0  0  0999 V2000
   -5.1190   25.4620  -31.2520 O   0  0  0  0  0  0  0  0  0  0  0  0
   -4.4470   24.5760  -30.6630 C   0  0  0  0  0  0  0  0  0  0  0  0
   -3.8560   24.8830  -29.3940 N   0  0  0  0  0  0  0  0  0  0  0  0
   -2.7210   24.2010  -28.8450 C   0  0  0  0  0  0  0  0  0  0  0  0
   -2.8930   22.9190  -28.3090 C   0  0  0  0  0  0  0  0  0  0  0  0
   -1.7920   22.1920  -27.8410 C   0  0  0  0  0  0  0  0  0  0  0  0
   -2.0120   20.5320  -27.2950 S   0  0  0  0  0  0  0  0  0  0  0  0
   -1.3000   20.3220  -25.9860 O   0  0  0  0  0  0  0  0  0  0  0  0
   -3.4820   20.2830  -27.1010 O   0  0  0  0  0  0  0  0  0  0  0  0
   -1.3800   19.4300  -28.5020 N   0  0  0  0  0  0  0  0  0  0  0  0
   -0.5240   20.1430  -29.4590 C   0  0  0  0  0  0  0  0  0  0  0  0
    0.9170   20.0370  -28.9780 C   0  0  0  0  0  0  0  0  0  0  0  0
    0.9200   18.9300  -27.9420 C   0  0  0  0  0  0  0  0  0  0  0  0
   -0.5160   18.4260  -27.8740 C   0  0  0  0  0  0  0  0  0  0  0  0
   -0.5170   22.7720  -27.8660 C   0  0  0  0  0  0  0  0  0  0  0  0
   -0.3440   24.0660  -28.3650 C   0  0  0  0  0  0  0  0  0  0  0  0
   -1.4390   24.7830  -28.8550 C   0  0  0  0  0  0  0  0  0  0  0  0
   -1.2470   26.0740  -29.3350 O   0  0  0  0  0  0  0  0  0  0  0  0
   -4.3090   23.2330  -31.2740 C   0  0  0  0  0  0  0  0  0  0  0  0
   -3.0510   22.6120  -31.3440 C   0  0  0  0  0  0  0  0  0  0  0  0
   -2.9230   21.3340  -31.8980 C   0  0  0  0  0  0  0  0  0  0  0  0
   -4.0490   20.6670  -32.3970 C   0  0  0  0  0  0  0  0  0  0  0  0
   -3.9130   19.0460  -33.0700 S   0  0  0  0  0  0  0  0  0  0  0  0
   -2.6850   18.3650  -32.5290 O   0  0  0  0  0  0  0  0  0  0  0  0
   -3.8000   19.1450  -34.5650 O   0  0  0  0  0  0  0  0  0  0  0  0
   -5.3400   18.1310  -32.6480 N   0  0  0  0  0  0  0  0  0  0  0  0
   -5.8080   18.4650  -31.3060 C   0  0  0  0  0  0  0  0  0  0  0  0
   -7.3020   18.1790  -31.2890 C   0  0  0  0  0  0  0  0  0  0  0  0
   -7.7290   18.1840  -32.7480 C   0  0  0  0  0  0  0  0  0  0  0  0
   -6.4560   18.4440  -33.5390 C   0  0  0  0  0  0  0  0  0  0  0  0
   -5.2990   21.2950  -32.3610 C   0  0  0  0  0  0  0  0  0  0  0  0
   -5.4290   22.5700  -31.8060 C   0  0  0  0  0  0  0  0  0  0  0  0
   -3.9002   22.4800  -28.2553 H   0  0  0  0  0  0  0  0  0  0  0  0
   -0.6187   19.6866  -30.4554 H   0  0  0  0  0  0  0  0  0  0  0  0
   -0.8258   21.1986  -29.5261 H   0  0  0  0  0  0  0  0  0  0  0  0
    1.5835   19.7815  -29.8150 H   0  0  0  0  0  0  0  0  0  0  0  0
    1.2775   20.9880  -28.5589 H   0  0  0  0  0  0  0  0  0  0  0  0
    1.5970   18.1192  -28.2489 H   0  0  0  0  0  0  0  0  0  0  0  0
    1.2709   19.2902  -26.9637 H   0  0  0  0  0  0  0  0  0  0  0  0
   -0.6019   17.4706  -28.4124 H   0  0  0  0  0  0  0  0  0  0  0  0
   -0.8151   18.2660  -26.8276 H   0  0  0  0  0  0  0  0  0  0  0  0
    0.3500   22.2076  -27.4920 H   0  0  0  0  0  0  0  0  0  0  0  0
    0.6572   24.5216  -28.3721 H   0  0  0  0  0  0  0  0  0  0  0  0
   -2.1615   23.1336  -30.9610 H   0  0  0  0  0  0  0  0  0  0  0  0
   -1.9354   20.8515  -31.9419 H   0  0  0  0  0  0  0  0  0  0  0  0
   -5.2932   17.8441  -30.5580 H   0  0  0  0  0  0  0  0  0  0  0  0
   -5.6004   19.5172  -31.0615 H   0  0  0  0  0  0  0  0  0  0  0  0
   -7.5012   17.1981  -30.8328 H   0  0  0  0  0  0  0  0  0  0  0  0
   -7.8550   18.9237  -30.6977 H   0  0  0  0  0  0  0  0  0  0  0  0
   -8.1631   17.2121  -33.0255 H   0  0  0  0  0  0  0  0  0  0  0  0
   -8.4978   18.9451  -32.9473 H   0  0  0  0  0  0  0  0  0  0  0  0
   -6.4237   17.7986  -34.4292 H   0  0  0  0  0  0  0  0  0  0  0  0
   -6.4086   19.4878  -33.8830 H   0  0  0  0  0  0  0  0  0  0  0  0
   -6.1819   20.7829  -32.7711 H   0  0  0  0  0  0  0  0  0  0  0  0
   -6.4142   23.0588  -31.7849 H   0  0  0  0  0  0  0  0  0  0  0  0
  1  2  2  0
  2  3  1  0
  3  4  1  0
  4  5  2  0
  5  6  1  0
  6  7  1  0
  7  8  2  0
  7  9  2  0
  7 10  1  0
 10 11  1  0
 11 12  1  0
 12 13  1  0
 13 14  1  0
  6 15  2  0
 15 16  1  0
 16 17  2  0
 17 18  1  0
  2 19  1  0
 19 20  2  0
 20 21  1  0
 21 22  2  0
 22 23  1  0
 23 24  2  0
 23 25  2  0
 23 26  1  0
 26 27  1  0
 27 28  1  0
 28 29  1  0
 29 30  1  0
 22 31  1  0
 31 32  2  0
 17  4  1  0
 32 19  1  0
 14 10  1  0
 30 26  1  0
  5 33  1  0
 11 34  1  0
 11 35  1  0
 12 36  1  0
 12 37  1  0
 13 38  1  0
 13 39  1  0
 14 40  1  0
 14 41  1  0
 15 42  1  0
 16 43  1  0
 20 44  1  0
 21 45  1  0
 27 46  1  0
 27 47  1  0
 28 48  1  0
 28 49  1  0
 29 50  1  0
 29 51  1  0
 30 52  1  0
 30 53  1  0
 31 54  1  0
 32 55  1  0
M  CHG  2   3  -1  18  -1
M  END
>  <UniqueID>  (36) 
36

>  <SMILES>  (36) 
O=C([N-]c1cc(S(=O)(=O)N2CCCC2)ccc1[O-])c1ccc(S(=O)(=O)N2CCCC2)cc1

>  <Energy>  (36) 
66.71950853108653

>  <Genealogy>  (36) 
O=C([N-]c1cc(S(=O)(=O)N2CCCC2)ccc1[O-])c1ccc(S(=O)(=O)N2CCCC2)cc1 (protonated)
O=C([N-]c1cc(S(=O)(=O)N2CCCC2)ccc1[O-])c1ccc(S(=O)(=O)N2CCCC2)cc1 (3D coordinates assigned)
O=C([N-]c1cc(S(=O)(=O)N2CCCC2)ccc1[O-])c1ccc(S(=O)(=O)N2CCCC2)cc1 (nonaromatic ring conformer: 66.71950853108653 kcal/mol)

>  <smiles>  (36) 
O=C(Nc1cc(S(=O)(=O)N2CCCC2)ccc1O)c1ccc(S(=O)(=O)N2CCCC2)cc1

>  <score_type>  (36) 
oracle

>  <origin>  (36) 
adgpu

>  <m_score__min__energy>  (36) 
-15.16

>  <m_primary>  (36) 
energy

$$$$
36:0
     RDKit          3D

 46 49  0  0  0  0  0  0  0  0999 V2000
   -6.9740   16.6510  -33.1630 C   0  0  0  0  0  0  0  0  0  0  0  0
   -6.4350   17.8890  -33.7310 N   0  0  0  0  0  0  0  0  0  0  0  0
   -5.7510   17.8850  -35.0280 C   0  0  0  0  0  0  0  0  0  0  0  0
   -6.5770   19.1240  -33.0060 C   0  0  0  0  0  0  0  0  0  0  0  0
   -5.6080   20.0800  -32.9900 N   0  0  0  0  0  0  0  0  0  0  0  0
   -6.1470   21.0220  -32.2040 C   0  0  0  0  0  0  0  0  0  0  0  0
   -5.5830   22.2350  -31.8220 C   0  0  0  0  0  0  0  0  0  0  0  0
   -6.3290   23.0650  -30.9610 C   0  0  0  0  0  0  0  0  0  0  0  0
   -5.6300   24.5800  -30.3960 S   0  0  0  0  0  0  0  0  0  0  0  0
   -6.1300   25.6970  -31.2670 O   0  0  0  0  0  0  0  0  0  0  0  0
   -6.0250   24.8540  -28.9710 O   0  0  0  0  0  0  0  0  0  0  0  0
   -3.9000   24.4970  -30.4980 N   0  0  0  0  0  0  0  0  0  0  0  0
   -3.0820   23.7740  -29.5570 C   0  0  0  0  0  0  0  0  0  0  0  0
   -3.4010   22.4590  -29.1710 C   0  0  0  0  0  0  0  0  0  0  0  0
   -2.5890   21.7560  -28.2680 C   0  0  0  0  0  0  0  0  0  0  0  0
   -1.4320   22.3690  -27.7490 C   0  0  0  0  0  0  0  0  0  0  0  0
   -1.1340   23.6930  -28.1010 C   0  0  0  0  0  0  0  0  0  0  0  0
   -1.9460   24.3890  -29.0000 C   0  0  0  0  0  0  0  0  0  0  0  0
   -1.6100   25.6970  -29.3420 O   0  0  0  0  0  0  0  0  0  0  0  0
   -0.5730   21.6560  -26.7290 C   0  0  0  0  0  0  0  0  0  0  0  0
   -0.7340   20.1960  -26.7870 N   0  0  0  0  0  0  0  0  0  0  0  0
   -2.1540   19.8270  -26.7090 C   0  0  0  0  0  0  0  0  0  0  0  0
   -2.9180   20.3220  -27.9430 C   0  0  0  0  0  0  0  0  0  0  0  0
   -7.6200   22.6620  -30.5280 C   0  0  0  0  0  0  0  0  0  0  0  0
   -8.1550   21.4260  -30.9370 C   0  0  0  0  0  0  0  0  0  0  0  0
   -7.3800   20.6320  -31.7770 C   0  0  0  0  0  0  0  0  0  0  0  0
   -7.6820   19.4240  -32.2720 N   0  0  0  0  0  0  0  0  0  0  0  0
   -6.9484   16.7098  -32.0649 H   0  0  0  0  0  0  0  0  0  0  0  0
   -8.0127   16.5153  -33.4988 H   0  0  0  0  0  0  0  0  0  0  0  0
   -6.3657   15.7982  -33.4988 H   0  0  0  0  0  0  0  0  0  0  0  0
   -4.6626   17.8786  -34.8685 H   0  0  0  0  0  0  0  0  0  0  0  0
   -6.0439   16.9886  -35.5942 H   0  0  0  0  0  0  0  0  0  0  0  0
   -6.0334   18.7848  -35.5942 H   0  0  0  0  0  0  0  0  0  0  0  0
   -4.5876   22.5365  -32.1801 H   0  0  0  0  0  0  0  0  0  0  0  0
   -3.4610   24.9070  -31.3510 H   0  0  0  0  0  0  0  0  0  0  0  0
   -4.2992   21.9755  -29.5827 H   0  0  0  0  0  0  0  0  0  0  0  0
   -0.2534   24.1880  -27.6657 H   0  0  0  0  0  0  0  0  0  0  0  0
    0.4817   21.9034  -26.9198 H   0  0  0  0  0  0  0  0  0  0  0  0
   -0.8896   21.9901  -25.7299 H   0  0  0  0  0  0  0  0  0  0  0  0
   -0.3390   19.8460  -27.6910 H   0  0  0  0  0  0  0  0  0  0  0  0
   -2.2385   18.7319  -26.6487 H   0  0  0  0  0  0  0  0  0  0  0  0
   -2.5899   20.2965  -25.8148 H   0  0  0  0  0  0  0  0  0  0  0  0
   -2.6504   19.6916  -28.8038 H   0  0  0  0  0  0  0  0  0  0  0  0
   -3.9946   20.2594  -27.7260 H   0  0  0  0  0  0  0  0  0  0  0  0
   -8.2055   23.3198  -29.8689 H   0  0  0  0  0  0  0  0  0  0  0  0
   -9.1512   21.0990  -30.6042 H   0  0  0  0  0  0  0  0  0  0  0  0
  1  2  1  0
  2  3  1  0
  2  4  1  0
  4  5  2  0
  5  6  1  0
  6  7  2  0
  7  8  1  0
  8  9  1  0
  9 10  2  0
  9 11  2  0
  9 12  1  0
 12 13  1  0
 13 14  2  0
 14 15  1  0
 15 16  2  0
 16 17  1  0
 17 18  2  0
 18 19  1  0
 16 20  1  0
 20 21  1  0
 21 22  1  0
 22 23  1  0
  8 24  2  0
 24 25  1  0
 25 26  2  0
 26 27  1  0
 27  4  1  0
 26  6  1  0
 18 13  1  0
 23 15  1  0
  1 28  1  0
  1 29  1  0
  1 30  1  0
  3 31  1  0
  3 32  1  0
  3 33  1  0
  7 34  1  0
 12 35  1  0
 14 36  1  0
 17 37  1  0
 20 38  1  0
 20 39  1  0
 21 40  1  0
 22 41  1  0
 22 42  1  0
 23 43  1  0
 23 44  1  0
 24 45  1  0
 25 46  1  0
M  CHG  2  19  -1  27  -1
M  END
>  <UniqueID>  (37) 
37

>  <SMILES>  (37) 
CN(C)c1nc2cc(S(=O)(=O)Nc3cc4c(cc3[O-])CNCC4)ccc2[n-]1

>  <Energy>  (37) 
85.51296409347013

>  <Genealogy>  (37) 
CN(C)c1nc2cc(S(=O)(=O)Nc3cc4c(cc3[O-])CNCC4)ccc2[n-]1 (protonated)
CN(C)c1nc2cc(S(=O)(=O)Nc3cc4c(cc3[O-])CNCC4)ccc2[n-]1 (3D coordinates assigned)
CN(C)c1nc2cc(S(=O)(=O)Nc3cc4c(cc3[O-])CNCC4)ccc2[n-]1 (nonaromatic ring conformer: 85.51296409347013 kcal/mol)

>  <smiles>  (37) 
CN(C)c1nc2cc(S(=O)(=O)Nc3cc4c(cc3O)CNCC4)ccc2[nH]1

>  <score_type>  (37) 
oracle

>  <origin>  (37) 
adgpu

>  <m_score__min__energy>  (37) 
-13.449999999999999

>  <m_primary>  (37) 
energy

$$$$
37:0
     RDKit          3D

 56 58  0  0  0  0  0  0  0  0999 V2000
   -6.2190   25.2760  -29.6700 C   0  0  0  0  0  0  0  0  0  0  0  0
   -5.2580   25.5790  -30.8150 C   0  0  0  0  0  0  0  0  0  0  0  0
   -3.8790   25.2910  -30.4230 N   0  0  0  0  0  0  0  0  0  0  0  0
   -3.2420   24.0090  -30.4780 C   0  0  0  0  0  0  0  0  0  0  0  0
   -3.6230   23.1810  -31.3470 O   0  0  0  0  0  0  0  0  0  0  0  0
   -2.1500   23.6340  -29.5600 C   0  0  0  0  0  0  0  0  0  0  0  0
   -1.9500   22.2860  -29.2190 C   0  0  0  0  0  0  0  0  0  0  0  0
   -0.9310   21.9200  -28.3210 C   0  0  0  0  0  0  0  0  0  0  0  0
   -0.6980   20.5810  -27.9740 O   0  0  0  0  0  0  0  0  0  0  0  0
   -0.3930   19.5510  -28.8760 C   0  0  0  0  0  0  0  0  0  0  0  0
   -0.8020   19.6810  -30.2070 C   0  0  0  0  0  0  0  0  0  0  0  0
   -0.4990   18.6800  -31.1480 C   0  0  0  0  0  0  0  0  0  0  0  0
   -0.9050   18.7640  -32.5230 N   0  0  0  0  0  0  0  0  0  0  0  0
   -1.8150   19.7030  -33.1150 C   0  0  0  0  0  0  0  0  0  0  0  0
   -1.3900   20.7660  -33.6360 O   0  0  0  0  0  0  0  0  0  0  0  0
   -3.2480   19.3660  -33.2010 C   0  0  0  0  0  0  0  0  0  0  0  0
   -3.6300   18.0160  -33.1110 C   0  0  0  0  0  0  0  0  0  0  0  0
   -4.9730   17.6390  -33.2490 C   0  0  0  0  0  0  0  0  0  0  0  0
   -5.3590   16.1900  -33.2030 C   0  0  0  0  0  0  0  0  0  0  0  0
   -5.9400   18.6190  -33.5040 C   0  0  0  0  0  0  0  0  0  0  0  0
   -5.5770   19.9660  -33.5690 C   0  0  0  0  0  0  0  0  0  0  0  0
   -4.2440   20.3530  -33.4020 C   0  0  0  0  0  0  0  0  0  0  0  0
   -3.9500   21.7190  -33.4120 O   0  0  0  0  0  0  0  0  0  0  0  0
    0.1750   17.5260  -30.7280 C   0  0  0  0  0  0  0  0  0  0  0  0
    0.5990   17.3850  -29.3940 C   0  0  0  0  0  0  0  0  0  0  0  0
    1.2830   16.2490  -28.9290 O   0  0  0  0  0  0  0  0  0  0  0  0
    2.0080   16.1640  -27.7040 C   0  0  0  0  0  0  0  0  0  0  0  0
    1.3990   15.1100  -26.7870 C   0  0  0  0  0  0  0  0  0  0  0  0
    0.3350   18.4140  -28.4850 C   0  0  0  0  0  0  0  0  0  0  0  0
   -0.1010   22.9090  -27.7850 C   0  0  0  0  0  0  0  0  0  0  0  0
   -0.3060   24.2540  -28.1050 C   0  0  0  0  0  0  0  0  0  0  0  0
   -1.3280   24.6210  -28.9850 C   0  0  0  0  0  0  0  0  0  0  0  0
   -1.5100   25.9640  -29.2960 O   0  0  0  0  0  0  0  0  0  0  0  0
   -5.7075   25.4373  -28.7096 H   0  0  0  0  0  0  0  0  0  0  0  0
   -7.0914   25.9427  -29.7373 H   0  0  0  0  0  0  0  0  0  0  0  0
   -6.5512   24.2295  -29.7373 H   0  0  0  0  0  0  0  0  0  0  0  0
   -5.5237   24.9580  -31.6832 H   0  0  0  0  0  0  0  0  0  0  0  0
   -5.3374   26.6461  -31.0701 H   0  0  0  0  0  0  0  0  0  0  0  0
   -2.5953   21.5106  -29.6576 H   0  0  0  0  0  0  0  0  0  0  0  0
   -1.3648   20.5726  -30.5205 H   0  0  0  0  0  0  0  0  0  0  0  0
   -2.8655   17.2461  -32.9300 H   0  0  0  0  0  0  0  0  0  0  0  0
   -5.4452   15.8666  -32.1552 H   0  0  0  0  0  0  0  0  0  0  0  0
   -6.3253   16.0517  -33.7101 H   0  0  0  0  0  0  0  0  0  0  0  0
   -4.5896   15.5893  -33.7101 H   0  0  0  0  0  0  0  0  0  0  0  0
   -6.9898   18.3268  -33.6537 H   0  0  0  0  0  0  0  0  0  0  0  0
   -6.3471   20.7296  -33.7533 H   0  0  0  0  0  0  0  0  0  0  0  0
   -3.0480   22.0970  -33.1510 H   0  0  0  0  0  0  0  0  0  0  0  0
    0.3751   16.7205  -31.4499 H   0  0  0  0  0  0  0  0  0  0  0  0
    3.0520   15.8937  -27.9208 H   0  0  0  0  0  0  0  0  0  0  0  0
    1.9623   17.1400  -27.1987 H   0  0  0  0  0  0  0  0  0  0  0  0
    1.5647   15.3967  -25.7380 H   0  0  0  0  0  0  0  0  0  0  0  0
    0.3187   15.0356  -26.9806 H   0  0  0  0  0  0  0  0  0  0  0  0
    1.8741   14.1369  -26.9806 H   0  0  0  0  0  0  0  0  0  0  0  0
    0.7016   18.3328  -27.4511 H   0  0  0  0  0  0  0  0  0  0  0  0
    0.7183   22.6270  -27.1074 H   0  0  0  0  0  0  0  0  0  0  0  0
    0.3396   25.0269  -27.6625 H   0  0  0  0  0  0  0  0  0  0  0  0
  1  2  1  0
  2  3  1  0
  3  4  1  0
  4  5  2  0
  4  6  1  0
  6  7  2  0
  7  8  1  0
  8  9  1  0
  9 10  1  0
 10 11  2  0
 11 12  1  0
 12 13  1  0
 13 14  1  0
 14 15  2  0
 14 16  1  0
 16 17  2  0
 17 18  1  0
 18 19  1  0
 18 20  2  0
 20 21  1  0
 21 22  2  0
 22 23  1  0
 12 24  2  0
 24 25  1  0
 25 26  1  0
 26 27  1  0
 27 28  1  0
 25 29  2  0
  8 30  2  0
 30 31  1  0
 31 32  2  0
 32 33  1  0
 32  6  1  0
 29 10  1  0
 22 16  1  0
  1 34  1  0
  1 35  1  0
  1 36  1  0
  2 37  1  0
  2 38  1  0
  7 39  1  0
 11 40  1  0
 17 41  1  0
 19 42  1  0
 19 43  1  0
 19 44  1  0
 20 45  1  0
 21 46  1  0
 23 47  1  0
 24 48  1  0
 27 49  1  0
 27 50  1  0
 28 51  1  0
 28 52  1  0
 28 53  1  0
 29 54  1  0
 30 55  1  0
 31 56  1  0
M  CHG  3   3  -1  13  -1  33  -1
M  END
>  <UniqueID>  (38) 
38

>  <SMILES>  (38) 
CC[N-]C(=O)c1cc(Oc2cc([N-]C(=O)c3cc(C)ccc3O)cc(OCC)c2)ccc1[O-]

>  <Energy>  (38) 
73.00867233048791

>  <Genealogy>  (38) 
CC[N-]C(=O)c1cc(Oc2cc([N-]C(=O)c3cc(C)ccc3O)cc(OCC)c2)ccc1[O-] (protonated)
CC[N-]C(=O)c1cc(Oc2cc([N-]C(=O)c3cc(C)ccc3O)cc(OCC)c2)ccc1[O-] (3D coordinates assigned)
CC[N-]C(=O)c1cc(Oc2cc([N-]C(=O)c3cc(C)ccc3O)cc(OCC)c2)ccc1[O-] (optimized conformer: 73.00867233048791 kcal/mol)

>  <smiles>  (38) 
CCNC(=O)c1cc(Oc2cc(NC(=O)c3cc(C)ccc3O)cc(OCC)c2)ccc1O

>  <score_type>  (38) 
oracle

>  <origin>  (38) 
adgpu

>  <m_score__min__energy>  (38) 
-12.09

>  <m_primary>  (38) 
energy

$$$$
38:0
     RDKit          3D

 52 54  0  0  0  0  0  0  0  0999 V2000
    0.5240   26.4130  -23.7550 C   0  0  0  0  0  0  0  0  0  0  0  0
   -0.5440   26.3840  -24.7580 N   0  0  0  0  0  0  0  0  0  0  0  0
   -1.2300   27.6230  -25.1410 C   0  0  0  0  0  0  0  0  0  0  0  0
   -1.0160   25.1100  -25.2400 C   0  0  0  0  0  0  0  0  0  0  0  0
   -0.8960   24.0860  -24.5110 O   0  0  0  0  0  0  0  0  0  0  0  0
   -1.6500   24.9660  -26.5670 C   0  0  0  0  0  0  0  0  0  0  0  0
   -3.0190   24.6750  -26.6650 C   0  0  0  0  0  0  0  0  0  0  0  0
   -3.6230   24.5200  -27.9160 C   0  0  0  0  0  0  0  0  0  0  0  0
   -2.8570   24.6280  -29.0910 C   0  0  0  0  0  0  0  0  0  0  0  0
   -3.4410   24.5010  -30.3960 N   0  0  0  0  0  0  0  0  0  0  0  0
   -4.6860   25.0610  -30.8330 C   0  0  0  0  0  0  0  0  0  0  0  0
   -5.1640   26.0780  -30.2620 O   0  0  0  0  0  0  0  0  0  0  0  0
   -5.4580   24.4100  -31.8480 N   0  0  0  0  0  0  0  0  0  0  0  0
   -5.8820   23.0400  -31.8360 C   0  0  0  0  0  0  0  0  0  0  0  0
   -4.9620   21.9780  -31.7750 C   0  0  0  0  0  0  0  0  0  0  0  0
   -5.4130   20.6550  -31.7920 C   0  0  0  0  0  0  0  0  0  0  0  0
   -6.7820   20.3760  -31.8840 C   0  0  0  0  0  0  0  0  0  0  0  0
   -7.3350   18.7030  -31.9310 S   0  0  0  0  0  0  0  0  0  0  0  0
   -8.8060   18.6450  -31.6250 O   0  0  0  0  0  0  0  0  0  0  0  0
   -6.6020   17.9330  -30.8690 O   0  0  0  0  0  0  0  0  0  0  0  0
   -7.0020   17.9900  -33.4970 N   0  0  0  0  0  0  0  0  0  0  0  0
   -6.4990   16.6100  -33.3790 C   0  0  0  0  0  0  0  0  0  0  0  0
   -5.0360   16.5590  -32.8770 C   0  0  0  0  0  0  0  0  0  0  0  0
   -4.3430   17.7870  -33.0230 O   0  0  0  0  0  0  0  0  0  0  0  0
   -4.6400   18.3700  -34.2710 C   0  0  0  0  0  0  0  0  0  0  0  0
   -6.1040   18.8430  -34.3080 C   0  0  0  0  0  0  0  0  0  0  0  0
   -7.6980   21.4330  -31.9770 C   0  0  0  0  0  0  0  0  0  0  0  0
   -7.2480   22.7560  -31.9600 C   0  0  0  0  0  0  0  0  0  0  0  0
   -1.4930   24.9220  -28.9920 C   0  0  0  0  0  0  0  0  0  0  0  0
   -0.8880   25.0760  -27.7410 C   0  0  0  0  0  0  0  0  0  0  0  0
    0.0817   26.4010  -22.7479 H   0  0  0  0  0  0  0  0  0  0  0  0
    1.1704   25.5321  -23.8821 H   0  0  0  0  0  0  0  0  0  0  0  0
    1.1216   27.3277  -23.8821 H   0  0  0  0  0  0  0  0  0  0  0  0
   -1.5326   28.1695  -24.2356 H   0  0  0  0  0  0  0  0  0  0  0  0
   -0.5501   28.2493  -25.7373 H   0  0  0  0  0  0  0  0  0  0  0  0
   -2.1216   27.3792  -25.7373 H   0  0  0  0  0  0  0  0  0  0  0  0
   -3.6213   24.5681  -25.7508 H   0  0  0  0  0  0  0  0  0  0  0  0
   -4.7013   24.3128  -27.9820 H   0  0  0  0  0  0  0  0  0  0  0  0
   -3.8842   22.1891  -31.7137 H   0  0  0  0  0  0  0  0  0  0  0  0
   -4.6889   19.8291  -31.7328 H   0  0  0  0  0  0  0  0  0  0  0  0
   -7.1357   16.0609  -32.6697 H   0  0  0  0  0  0  0  0  0  0  0  0
   -6.5274   16.1548  -34.3800 H   0  0  0  0  0  0  0  0  0  0  0  0
   -5.0434   16.2884  -31.8108 H   0  0  0  0  0  0  0  0  0  0  0  0
   -4.5090   15.8158  -33.4935 H   0  0  0  0  0  0  0  0  0  0  0  0
   -3.9765   19.2318  -34.4354 H   0  0  0  0  0  0  0  0  0  0  0  0
   -4.4877   17.6193  -35.0605 H   0  0  0  0  0  0  0  0  0  0  0  0
   -6.1512   19.8714  -33.9205 H   0  0  0  0  0  0  0  0  0  0  0  0
   -6.4450   18.7849  -35.3522 H   0  0  0  0  0  0  0  0  0  0  0  0
   -8.7738   21.2206  -32.0636 H   0  0  0  0  0  0  0  0  0  0  0  0
   -7.9717   23.5801  -32.0446 H   0  0  0  0  0  0  0  0  0  0  0  0
   -0.8913   25.0330  -29.9061 H   0  0  0  0  0  0  0  0  0  0  0  0
    0.1902   25.2843  -27.6763 H   0  0  0  0  0  0  0  0  0  0  0  0
  1  2  1  0
  2  3  1  0
  2  4  1  0
  4  5  2  0
  4  6  1  0
  6  7  2  0
  7  8  1  0
  8  9  2  0
  9 10  1  0
 10 11  1  0
 11 12  2  0
 11 13  1  0
 13 14  1  0
 14 15  2  0
 15 16  1  0
 16 17  2  0
 17 18  1  0
 18 19  2  0
 18 20  2  0
 18 21  1  0
 21 22  1  0
 22 23  1  0
 23 24  1  0
 24 25  1  0
 25 26  1  0
 17 27  1  0
 27 28  2  0
  9 29  1  0
 29 30  2  0
 30  6  1  0
 28 14  1  0
 26 21  1  0
  1 31  1  0
  1 32  1  0
  1 33  1  0
  3 34  1  0
  3 35  1  0
  3 36  1  0
  7 37  1  0
  8 38  1  0
 15 39  1  0
 16 40  1  0
 22 41  1  0
 22 42  1  0
 23 43  1  0
 23 44  1  0
 25 45  1  0
 25 46  1  0
 26 47  1  0
 26 48  1  0
 27 49  1  0
 28 50  1  0
 29 51  1  0
 30 52  1  0
M  CHG  2  10  -1  13  -1
M  END
>  <UniqueID>  (39) 
39

>  <SMILES>  (39) 
CN(C)C(=O)c1ccc([N-]C(=O)[N-]c2ccc(S(=O)(=O)N3CCOCC3)cc2)cc1

>  <Energy>  (39) 
73.68420242264112

>  <Genealogy>  (39) 
CN(C)C(=O)c1ccc([N-]C(=O)[N-]c2ccc(S(=O)(=O)N3CCOCC3)cc2)cc1 (protonated)
CN(C)C(=O)c1ccc([N-]C(=O)[N-]c2ccc(S(=O)(=O)N3CCOCC3)cc2)cc1 (3D coordinates assigned)
CN(C)C(=O)c1ccc([N-]C(=O)[N-]c2ccc(S(=O)(=O)N3CCOCC3)cc2)cc1 (nonaromatic ring conformer: 73.68420242264112 kcal/mol)

>  <smiles>  (39) 
CN(C)C(=O)c1ccc(NC(=O)Nc2ccc(S(=O)(=O)N3CCOCC3)cc2)cc1

>  <score_type>  (39) 
oracle

>  <origin>  (39) 
adgpu

>  <m_score__min__energy>  (39) 
-12.26

>  <m_primary>  (39) 
energy

$$$$
39:0
     RDKit          3D

 59 62  0  0  0  0  0  0  0  0999 V2000
   -0.7160   19.3880  -32.3930 O   0  0  0  0  0  0  0  0  0  0  0  0
   -1.8590   19.6050  -32.8810 C   0  0  0  0  0  0  0  0  0  0  0  0
   -2.3370   18.7780  -33.9550 N   0  0  0  0  0  0  0  0  0  0  0  0
   -1.5940   17.6510  -34.4370 C   0  0  0  0  0  0  0  0  0  0  0  0
   -0.2710   17.8420  -34.8720 C   0  0  0  0  0  0  0  0  0  0  0  0
    0.4720   16.7690  -35.3660 C   0  0  0  0  0  0  0  0  0  0  0  0
   -0.1010   15.4950  -35.4310 C   0  0  0  0  0  0  0  0  0  0  0  0
   -1.4120   15.2920  -34.9950 C   0  0  0  0  0  0  0  0  0  0  0  0
   -2.1760   16.3620  -34.5010 C   0  0  0  0  0  0  0  0  0  0  0  0
   -3.8110   16.0340  -33.8840 S   0  0  0  0  0  0  0  0  0  0  0  0
   -4.6040   15.3510  -34.9680 O   0  0  0  0  0  0  0  0  0  0  0  0
   -3.7360   15.0870  -32.7180 O   0  0  0  0  0  0  0  0  0  0  0  0
   -4.6670   17.4790  -33.3850 N   0  0  0  0  0  0  0  0  0  0  0  0
   -5.6640   17.2040  -32.3500 C   0  0  0  0  0  0  0  0  0  0  0  0
   -6.7190   18.3030  -32.4620 C   0  0  0  0  0  0  0  0  0  0  0  0
   -6.4790   18.9540  -33.8160 C   0  0  0  0  0  0  0  0  0  0  0  0
   -5.4120   18.0970  -34.4780 C   0  0  0  0  0  0  0  0  0  0  0  0
   -2.6880   20.7080  -32.3310 C   0  0  0  0  0  0  0  0  0  0  0  0
   -3.8490   21.1550  -32.9960 C   0  0  0  0  0  0  0  0  0  0  0  0
   -4.6180   22.1900  -32.4580 C   0  0  0  0  0  0  0  0  0  0  0  0
   -4.2520   22.7880  -31.2440 C   0  0  0  0  0  0  0  0  0  0  0  0
   -5.2510   24.0550  -30.5350 S   0  0  0  0  0  0  0  0  0  0  0  0
   -4.9150   24.1770  -29.0750 O   0  0  0  0  0  0  0  0  0  0  0  0
   -4.9530   25.3680  -31.2040 O   0  0  0  0  0  0  0  0  0  0  0  0
   -6.9410   23.6530  -30.7210 N   0  0  0  0  0  0  0  0  0  0  0  0
   -7.1820   22.2880  -30.2040 C   0  0  0  0  0  0  0  0  0  0  0  0
   -8.6700   21.9240  -30.3240 C   0  0  0  0  0  0  0  0  0  0  0  0
   -9.1300   22.0410  -31.7810 C   0  0  0  0  0  0  0  0  0  0  0  0
   -8.7980   23.4290  -32.3380 C   0  0  0  0  0  0  0  0  0  0  0  0
   -7.3060   23.7390  -32.1480 C   0  0  0  0  0  0  0  0  0  0  0  0
   -3.1110   22.3360  -30.5660 C   0  0  0  0  0  0  0  0  0  0  0  0
   -2.3350   21.3060  -31.1050 C   0  0  0  0  0  0  0  0  0  0  0  0
   -3.2310   19.0150  -34.4480 H   0  0  0  0  0  0  0  0  0  0  0  0
    0.1814   18.8434  -34.8227 H   0  0  0  0  0  0  0  0  0  0  0  0
    1.5071   16.9251  -35.7039 H   0  0  0  0  0  0  0  0  0  0  0  0
    0.4825   14.6506  -35.8266 H   0  0  0  0  0  0  0  0  0  0  0  0
   -1.8506   14.2842  -35.0389 H   0  0  0  0  0  0  0  0  0  0  0  0
   -6.1228   16.2182  -32.5165 H   0  0  0  0  0  0  0  0  0  0  0  0
   -5.2064   17.1919  -31.3497 H   0  0  0  0  0  0  0  0  0  0  0  0
   -7.7302   17.8725  -32.4154 H   0  0  0  0  0  0  0  0  0  0  0  0
   -6.6437   19.0289  -31.6390 H   0  0  0  0  0  0  0  0  0  0  0  0
   -7.4019   18.9540  -34.4145 H   0  0  0  0  0  0  0  0  0  0  0  0
   -6.1666   20.0044  -33.7211 H   0  0  0  0  0  0  0  0  0  0  0  0
   -5.8770   17.3256  -35.1095 H   0  0  0  0  0  0  0  0  0  0  0  0
   -4.7569   18.6951  -35.1285 H   0  0  0  0  0  0  0  0  0  0  0  0
   -4.1508   20.6858  -33.9440 H   0  0  0  0  0  0  0  0  0  0  0  0
   -5.5158   22.5377  -32.9901 H   0  0  0  0  0  0  0  0  0  0  0  0
   -6.5853   21.5697  -30.7854 H   0  0  0  0  0  0  0  0  0  0  0  0
   -6.8904   22.2516  -29.1440 H   0  0  0  0  0  0  0  0  0  0  0  0
   -8.8199   20.8907  -29.9780 H   0  0  0  0  0  0  0  0  0  0  0  0
   -9.2591   22.6175  -29.7059 H   0  0  0  0  0  0  0  0  0  0  0  0
   -8.6186   21.2768  -32.3847 H   0  0  0  0  0  0  0  0  0  0  0  0
  -10.2189   21.8914  -31.8237 H   0  0  0  0  0  0  0  0  0  0  0  0
   -9.0402   23.4566  -33.4106 H   0  0  0  0  0  0  0  0  0  0  0  0
   -9.3906   24.1817  -31.7973 H   0  0  0  0  0  0  0  0  0  0  0  0
   -6.7092   23.0127  -32.7193 H   0  0  0  0  0  0  0  0  0  0  0  0
   -7.1047   24.7590  -32.5072 H   0  0  0  0  0  0  0  0  0  0  0  0
   -2.8257   22.7933  -29.6071 H   0  0  0  0  0  0  0  0  0  0  0  0
   -1.4404   20.9590  -30.5671 H   0  0  0  0  0  0  0  0  0  0  0  0
  1  2  2  0
  2  3  1  0
  3  4  1  0
  4  5  2  0
  5  6  1  0
  6  7  2  0
  7  8  1  0
  8  9  2  0
  9 10  1  0
 10 11  2  0
 10 12  2  0
 10 13  1  0
 13 14  1  0
 14 15  1  0
 15 16  1  0
 16 17  1  0
  2 18  1  0
 18 19  2  0
 19 20  1  0
 20 21  2  0
 21 22  1  0
 22 23  2  0
 22 24  2  0
 22 25  1  0
 25 26  1  0
 26 27  1  0
 27 28  1  0
 28 29  1  0
 29 30  1  0
 21 31  1  0
 31 32  2  0
  9  4  1  0
 17 13  1  0
 32 18  1  0
 30 25  1  0
  3 33  1  0
  5 34  1  0
  6 35  1  0
  7 36  1  0
  8 37  1  0
 14 38  1  0
 14 39  1  0
 15 40  1  0
 15 41  1  0
 16 42  1  0
 16 43  1  0
 17 44  1  0
 17 45  1  0
 19 46  1  0
 20 47  1  0
 26 48  1  0
 26 49  1  0
 27 50  1  0
 27 51  1  0
 28 52  1  0
 28 53  1  0
 29 54  1  0
 29 55  1  0
 30 56  1  0
 30 57  1  0
 31 58  1  0
 32 59  1  0
M  END
>  <UniqueID>  (40) 
40

>  <SMILES>  (40) 
O=C(Nc1ccccc1S(=O)(=O)N1CCCC1)c1ccc(S(=O)(=O)N2CCCCC2)cc1

>  <Energy>  (40) 
65.94817868413024

>  <Genealogy>  (40) 
O=C(Nc1ccccc1S(=O)(=O)N1CCCC1)c1ccc(S(=O)(=O)N2CCCCC2)cc1 (3D coordinates assigned)
O=C(Nc1ccccc1S(=O)(=O)N1CCCC1)c1ccc(S(=O)(=O)N2CCCCC2)cc1 (nonaromatic ring conformer: 65.94817868413024 kcal/mol)

>  <smiles>  (40) 
O=C(Nc1ccccc1S(=O)(=O)N1CCCC1)c1ccc(S(=O)(=O)N2CCCCC2)cc1

>  <score_type>  (40) 
oracle

>  <origin>  (40) 
adgpu

>  <m_score__min__energy>  (40) 
-10.300000000000001

>  <m_primary>  (40) 
energy

$$$$
40:0
     RDKit          3D

 52 55  0  0  0  0  0  0  0  0999 V2000
   -4.3340   17.1330  -33.9820 C   0  0  0  0  0  0  0  0  0  0  0  0
   -5.6950   17.0450  -33.3590 C   0  0  0  0  0  0  0  0  0  0  0  0
   -6.1400   15.9060  -33.0510 O   0  0  0  0  0  0  0  0  0  0  0  0
   -6.4980   18.2250  -33.1320 N   0  0  0  0  0  0  0  0  0  0  0  0
   -6.0460   19.5300  -33.6480 C   0  0  0  0  0  0  0  0  0  0  0  0
   -7.0920   20.6270  -33.4320 C   0  0  0  0  0  0  0  0  0  0  0  0
   -7.6350   20.5450  -32.0710 N   0  0  0  0  0  0  0  0  0  0  0  0
   -7.9010   21.7440  -31.3260 C   0  0  0  0  0  0  0  0  0  0  0  0
   -9.0470   21.9250  -30.8320 O   0  0  0  0  0  0  0  0  0  0  0  0
   -6.8490   22.7640  -31.1220 C   0  0  0  0  0  0  0  0  0  0  0  0
   -7.1770   24.0360  -30.6250 C   0  0  0  0  0  0  0  0  0  0  0  0
   -6.1810   24.9960  -30.4310 C   0  0  0  0  0  0  0  0  0  0  0  0
   -4.8470   24.6960  -30.7230 C   0  0  0  0  0  0  0  0  0  0  0  0
   -3.8630   25.6540  -30.5060 O   0  0  0  0  0  0  0  0  0  0  0  0
   -4.5080   23.4260  -31.2150 C   0  0  0  0  0  0  0  0  0  0  0  0
   -3.1500   23.0930  -31.5060 N   0  0  0  0  0  0  0  0  0  0  0  0
   -2.0990   22.4740  -30.2810 S   0  0  0  0  0  0  0  0  0  0  0  0
   -0.7000   22.4130  -30.8270 O   0  0  0  0  0  0  0  0  0  0  0  0
   -2.5170   21.0850  -29.8890 O   0  0  0  0  0  0  0  0  0  0  0  0
   -2.1440   23.5350  -28.8760 C   0  0  0  0  0  0  0  0  0  0  0  0
   -3.1970   23.4270  -27.9560 C   0  0  0  0  0  0  0  0  0  0  0  0
   -3.2450   24.2590  -26.8350 C   0  0  0  0  0  0  0  0  0  0  0  0
   -2.2370   25.2100  -26.6220 C   0  0  0  0  0  0  0  0  0  0  0  0
   -2.2590   26.0520  -25.5010 C   0  0  0  0  0  0  0  0  0  0  0  0
   -1.2690   26.9670  -25.3170 N   0  0  0  0  0  0  0  0  0  0  0  0
   -0.2390   27.0970  -26.1950 C   0  0  0  0  0  0  0  0  0  0  0  0
   -0.1760   26.2850  -27.3310 C   0  0  0  0  0  0  0  0  0  0  0  0
   -1.1780   25.3320  -27.5500 C   0  0  0  0  0  0  0  0  0  0  0  0
   -1.1420   24.4970  -28.6770 C   0  0  0  0  0  0  0  0  0  0  0  0
   -5.5040   22.4630  -31.4010 C   0  0  0  0  0  0  0  0  0  0  0  0
   -8.0740   19.2540  -31.5280 C   0  0  0  0  0  0  0  0  0  0  0  0
   -7.8310   18.1070  -32.5180 C   0  0  0  0  0  0  0  0  0  0  0  0
   -3.5712   17.1823  -33.1910 H   0  0  0  0  0  0  0  0  0  0  0  0
   -4.1582   16.2443  -34.6060 H   0  0  0  0  0  0  0  0  0  0  0  0
   -4.2741   18.0369  -34.6060 H   0  0  0  0  0  0  0  0  0  0  0  0
   -5.1196   19.8156  -33.1282 H   0  0  0  0  0  0  0  0  0  0  0  0
   -5.8802   19.4278  -34.7306 H   0  0  0  0  0  0  0  0  0  0  0  0
   -6.6226   21.6111  -33.5778 H   0  0  0  0  0  0  0  0  0  0  0  0
   -7.9101   20.4918  -34.1548 H   0  0  0  0  0  0  0  0  0  0  0  0
   -8.2235   24.2775  -30.3873 H   0  0  0  0  0  0  0  0  0  0  0  0
   -6.4472   25.9918  -30.0470 H   0  0  0  0  0  0  0  0  0  0  0  0
   -3.9902   22.6823  -28.1182 H   0  0  0  0  0  0  0  0  0  0  0  0
   -4.0746   24.1680  -26.1185 H   0  0  0  0  0  0  0  0  0  0  0  0
   -3.0771   25.9727  -24.7699 H   0  0  0  0  0  0  0  0  0  0  0  0
    0.5474   27.8437  -26.0107 H   0  0  0  0  0  0  0  0  0  0  0  0
    0.6528   26.3937  -28.0460 H   0  0  0  0  0  0  0  0  0  0  0  0
   -0.3254   24.5968  -29.4072 H   0  0  0  0  0  0  0  0  0  0  0  0
   -5.2336   21.4621  -31.7684 H   0  0  0  0  0  0  0  0  0  0  0  0
   -7.5167   19.0492  -30.6020 H   0  0  0  0  0  0  0  0  0  0  0  0
   -9.1550   19.3146  -31.3337 H   0  0  0  0  0  0  0  0  0  0  0  0
   -7.8991   17.1479  -31.9837 H   0  0  0  0  0  0  0  0  0  0  0  0
   -8.5919   18.1562  -33.3109 H   0  0  0  0  0  0  0  0  0  0  0  0
  1  2  1  0
  2  3  2  0
  2  4  1  0
  4  5  1  0
  5  6  1  0
  6  7  1  0
  7  8  1  0
  8  9  2  0
  8 10  1  0
 10 11  2  0
 11 12  1  0
 12 13  2  0
 13 14  1  0
 13 15  1  0
 15 16  1  0
 16 17  1  0
 17 18  2  0
 17 19  2  0
 17 20  1  0
 20 21  2  0
 21 22  1  0
 22 23  2  0
 23 24  1  0
 24 25  2  0
 25 26  1  0
 26 27  2  0
 27 28  1  0
 28 29  2  0
 15 30  2  0
  7 31  1  0
 31 32  1  0
 32  4  1  0
 30 10  1  0
 29 20  1  0
 28 23  1  0
  1 33  1  0
  1 34  1  0
  1 35  1  0
  5 36  1  0
  5 37  1  0
  6 38  1  0
  6 39  1  0
 11 40  1  0
 12 41  1  0
 21 42  1  0
 22 43  1  0
 24 44  1  0
 26 45  1  0
 27 46  1  0
 29 47  1  0
 30 48  1  0
 31 49  1  0
 31 50  1  0
 32 51  1  0
 32 52  1  0
M  CHG  2  14  -1  16  -1
M  END
>  <UniqueID>  (41) 
41

>  <SMILES>  (41) 
CC(=O)N1CCN(C(=O)c2ccc([O-])c([N-]S(=O)(=O)c3ccc4cnccc4c3)c2)CC1

>  <Energy>  (41) 
67.3699716974198

>  <Genealogy>  (41) 
CC(=O)N1CCN(C(=O)c2ccc([O-])c([N-]S(=O)(=O)c3ccc4cnccc4c3)c2)CC1 (protonated)
CC(=O)N1CCN(C(=O)c2ccc([O-])c([N-]S(=O)(=O)c3ccc4cnccc4c3)c2)CC1 (3D coordinates assigned)
CC(=O)N1CCN(C(=O)c2ccc([O-])c([N-]S(=O)(=O)c3ccc4cnccc4c3)c2)CC1 (nonaromatic ring conformer: 67.3699716974198 kcal/mol)

>  <smiles>  (41) 
CC(=O)N1CCN(C(=O)c2ccc(O)c(NS(=O)(=O)c3ccc4cnccc4c3)c2)CC1

>  <score_type>  (41) 
oracle

>  <origin>  (41) 
adgpu

>  <m_score__min__energy>  (41) 
-15.27

>  <m_primary>  (41) 
energy

$$$$
41:0
     RDKit          3D

 47 49  0  0  0  0  0  0  0  0999 V2000
   -7.1460   18.3320  -31.7170 C   0  0  0  0  0  0  0  0  0  0  0  0
   -7.3850   19.7040  -32.8200 S   0  0  0  0  0  0  0  0  0  0  0  0
   -6.7030   19.4230  -34.1310 O   0  0  0  0  0  0  0  0  0  0  0  0
   -8.8540   19.8960  -33.0730 O   0  0  0  0  0  0  0  0  0  0  0  0
   -6.7090   21.1570  -32.0950 C   0  0  0  0  0  0  0  0  0  0  0  0
   -7.4260   21.8570  -31.1160 C   0  0  0  0  0  0  0  0  0  0  0  0
   -6.8690   22.9870  -30.5090 C   0  0  0  0  0  0  0  0  0  0  0  0
   -5.5920   23.4270  -30.8800 C   0  0  0  0  0  0  0  0  0  0  0  0
   -4.8390   24.7830  -30.0530 S   0  0  0  0  0  0  0  0  0  0  0  0
   -5.4650   24.9890  -28.7020 O   0  0  0  0  0  0  0  0  0  0  0  0
   -5.0210   26.0370  -30.8600 O   0  0  0  0  0  0  0  0  0  0  0  0
   -3.1530   24.4410  -29.8890 N   0  0  0  0  0  0  0  0  0  0  0  0
   -2.6650   23.3890  -29.0550 C   0  0  0  0  0  0  0  0  0  0  0  0
   -3.2050   22.1010  -29.1750 C   0  0  0  0  0  0  0  0  0  0  0  0
   -2.7580   21.0700  -28.3460 C   0  0  0  0  0  0  0  0  0  0  0  0
   -1.7700   21.3190  -27.3920 C   0  0  0  0  0  0  0  0  0  0  0  0
   -1.2250   22.6000  -27.2660 C   0  0  0  0  0  0  0  0  0  0  0  0
   -1.6710   23.6470  -28.0880 C   0  0  0  0  0  0  0  0  0  0  0  0
   -0.9020   25.2340  -27.9570 S   0  0  0  0  0  0  0  0  0  0  0  0
   -1.2270   26.0280  -29.1920 O   0  0  0  0  0  0  0  0  0  0  0  0
    0.5920   25.0680  -27.8650 O   0  0  0  0  0  0  0  0  0  0  0  0
   -1.4870   26.0860  -26.5490 N   0  0  0  0  0  0  0  0  0  0  0  0
   -1.1650   25.3690  -25.3150 C   0  0  0  0  0  0  0  0  0  0  0  0
   -1.0840   26.4180  -24.2170 C   0  0  0  0  0  0  0  0  0  0  0  0
   -0.8870   27.7440  -24.9390 C   0  0  0  0  0  0  0  0  0  0  0  0
   -0.8500   27.3950  -26.4170 C   0  0  0  0  0  0  0  0  0  0  0  0
   -4.8720   22.7240  -31.8550 C   0  0  0  0  0  0  0  0  0  0  0  0
   -5.4280   21.5930  -32.4600 C   0  0  0  0  0  0  0  0  0  0  0  0
   -7.2072   18.6832  -30.6764 H   0  0  0  0  0  0  0  0  0  0  0  0
   -7.9262   17.5775  -31.8958 H   0  0  0  0  0  0  0  0  0  0  0  0
   -6.1566   17.8858  -31.8958 H   0  0  0  0  0  0  0  0  0  0  0  0
   -8.4304   21.5167  -30.8238 H   0  0  0  0  0  0  0  0  0  0  0  0
   -7.4348   23.5314  -29.7386 H   0  0  0  0  0  0  0  0  0  0  0  0
   -3.9842   21.9016  -29.9254 H   0  0  0  0  0  0  0  0  0  0  0  0
   -3.1848   20.0610  -28.4449 H   0  0  0  0  0  0  0  0  0  0  0  0
   -1.4199   20.5063  -26.7386 H   0  0  0  0  0  0  0  0  0  0  0  0
   -0.4413   22.7890  -26.5176 H   0  0  0  0  0  0  0  0  0  0  0  0
   -1.9526   24.6367  -25.0840 H   0  0  0  0  0  0  0  0  0  0  0  0
   -0.2180   24.8175  -25.4100 H   0  0  0  0  0  0  0  0  0  0  0  0
   -2.0143   26.4337  -23.6302 H   0  0  0  0  0  0  0  0  0  0  0  0
   -0.2655   26.2103  -23.5121 H   0  0  0  0  0  0  0  0  0  0  0  0
   -1.7226   28.4268  -24.7253 H   0  0  0  0  0  0  0  0  0  0  0  0
    0.0322   28.2542  -24.6153 H   0  0  0  0  0  0  0  0  0  0  0  0
   -1.4024   28.1472  -26.9993 H   0  0  0  0  0  0  0  0  0  0  0  0
    0.1825   27.3757  -26.7960 H   0  0  0  0  0  0  0  0  0  0  0  0
   -3.8666   23.0629  -32.1452 H   0  0  0  0  0  0  0  0  0  0  0  0
   -4.8587   21.0439  -33.2244 H   0  0  0  0  0  0  0  0  0  0  0  0
  1  2  1  0
  2  3  2  0
  2  4  2  0
  2  5  1  0
  5  6  2  0
  6  7  1  0
  7  8  2  0
  8  9  1  0
  9 10  2  0
  9 11  2  0
  9 12  1  0
 12 13  1  0
 13 14  2  0
 14 15  1  0
 15 16  2  0
 16 17  1  0
 17 18  2  0
 18 19  1  0
 19 20  2  0
 19 21  2  0
 19 22  1  0
 22 23  1  0
 23 24  1  0
 24 25  1  0
 25 26  1  0
  8 27  1  0
 27 28  2  0
 28  5  1  0
 18 13  1  0
 26 22  1  0
  1 29  1  0
  1 30  1  0
  1 31  1  0
  6 32  1  0
  7 33  1  0
 14 34  1  0
 15 35  1  0
 16 36  1  0
 17 37  1  0
 23 38  1  0
 23 39  1  0
 24 40  1  0
 24 41  1  0
 25 42  1  0
 25 43  1  0
 26 44  1  0
 26 45  1  0
 27 46  1  0
 28 47  1  0
M  CHG  1  12  -1
M  END
>  <UniqueID>  (42) 
42

>  <SMILES>  (42) 
CS(=O)(=O)c1ccc(S(=O)(=O)[N-]c2ccccc2S(=O)(=O)N2CCCC2)cc1

>  <Energy>  (42) 
52.76988173759794

>  <Genealogy>  (42) 
CS(=O)(=O)c1ccc(S(=O)(=O)[N-]c2ccccc2S(=O)(=O)N2CCCC2)cc1 (protonated)
CS(=O)(=O)c1ccc(S(=O)(=O)[N-]c2ccccc2S(=O)(=O)N2CCCC2)cc1 (3D coordinates assigned)
CS(=O)(=O)c1ccc(S(=O)(=O)[N-]c2ccccc2S(=O)(=O)N2CCCC2)cc1 (nonaromatic ring conformer: 52.76988173759794 kcal/mol)

>  <smiles>  (42) 
CS(=O)(=O)c1ccc(S(=O)(=O)Nc2ccccc2S(=O)(=O)N2CCCC2)cc1

>  <score_type>  (42) 
oracle

>  <origin>  (42) 
adgpu

>  <m_score__min__energy>  (42) 
-11.65

>  <m_primary>  (42) 
energy

$$$$
42:0
     RDKit          3D

 67 71  0  0  0  0  0  0  0  0999 V2000
   -1.9000   21.5570  -33.0040 O   0  0  0  0  0  0  0  0  0  0  0  0
   -1.7540   21.5560  -31.5080 S   0  0  0  0  0  0  0  0  0  0  0  0
   -0.4550   22.2320  -31.1690 O   0  0  0  0  0  0  0  0  0  0  0  0
   -1.7000   19.9200  -30.9340 N   0  0  0  0  0  0  0  0  0  0  0  0
   -0.4770   19.3270  -30.4890 C   0  0  0  0  0  0  0  0  0  0  0  0
   -0.4440   18.5880  -29.2970 C   0  0  0  0  0  0  0  0  0  0  0  0
    0.7670   18.0870  -28.8000 C   0  0  0  0  0  0  0  0  0  0  0  0
    1.9620   18.3350  -29.5060 C   0  0  0  0  0  0  0  0  0  0  0  0
    1.9140   19.0020  -30.7390 C   0  0  0  0  0  0  0  0  0  0  0  0
    0.7040   19.5010  -31.2310 C   0  0  0  0  0  0  0  0  0  0  0  0
    0.7000   20.1780  -32.4510 O   0  0  0  0  0  0  0  0  0  0  0  0
    3.2740   17.7930  -28.9960 C   0  0  0  0  0  0  0  0  0  0  0  0
    3.2310   17.5730  -27.5430 N   0  0  0  0  0  0  0  0  0  0  0  0
    2.1150   16.6870  -27.1970 C   0  0  0  0  0  0  0  0  0  0  0  0
    0.7830   17.3990  -27.4590 C   0  0  0  0  0  0  0  0  0  0  0  0
   -3.1020   22.4270  -30.7660 C   0  0  0  0  0  0  0  0  0  0  0  0
   -4.3610   22.3630  -31.3850 C   0  0  0  0  0  0  0  0  0  0  0  0
   -5.4320   23.1300  -30.9090 C   0  0  0  0  0  0  0  0  0  0  0  0
   -6.9760   23.1070  -31.7530 S   0  0  0  0  0  0  0  0  0  0  0  0
   -6.8380   23.7730  -33.0940 O   0  0  0  0  0  0  0  0  0  0  0  0
   -7.9910   23.8760  -30.9520 O   0  0  0  0  0  0  0  0  0  0  0  0
   -7.5040   21.4440  -31.9770 C   0  0  0  0  0  0  0  0  0  0  0  0
   -8.6950   20.9860  -31.3960 C   0  0  0  0  0  0  0  0  0  0  0  0
   -9.1080   19.6650  -31.5930 C   0  0  0  0  0  0  0  0  0  0  0  0
   -8.3340   18.7950  -32.3660 C   0  0  0  0  0  0  0  0  0  0  0  0
   -7.1380   19.2440  -32.9440 C   0  0  0  0  0  0  0  0  0  0  0  0
   -6.1500   18.1640  -33.9200 S   0  0  0  0  0  0  0  0  0  0  0  0
   -6.7710   16.7950  -33.9610 O   0  0  0  0  0  0  0  0  0  0  0  0
   -6.0760   18.7110  -35.3180 O   0  0  0  0  0  0  0  0  0  0  0  0
   -4.5440   18.0580  -33.2350 N   0  0  0  0  0  0  0  0  0  0  0  0
   -4.0290   16.6660  -33.2960 C   0  0  0  0  0  0  0  0  0  0  0  0
   -3.0740   16.4330  -34.4760 C   0  0  0  0  0  0  0  0  0  0  0  0
   -1.8640   17.3820  -34.4150 C   0  0  0  0  0  0  0  0  0  0  0  0
   -2.1830   18.7080  -33.7020 C   0  0  0  0  0  0  0  0  0  0  0  0
   -3.6630   19.0690  -33.8610 C   0  0  0  0  0  0  0  0  0  0  0  0
   -6.7300   20.5690  -32.7500 C   0  0  0  0  0  0  0  0  0  0  0  0
   -5.2570   23.9340  -29.7780 C   0  0  0  0  0  0  0  0  0  0  0  0
   -4.0110   24.0030  -29.1520 C   0  0  0  0  0  0  0  0  0  0  0  0
   -2.9250   23.2710  -29.6460 C   0  0  0  0  0  0  0  0  0  0  0  0
   -1.2250   23.5240  -28.7950 Br  0  0  0  0  0  0  0  0  0  0  0  0
   -1.3778   18.3999  -28.7469 H   0  0  0  0  0  0  0  0  0  0  0  0
    2.8362   19.1337  -31.3240 H   0  0  0  0  0  0  0  0  0  0  0  0
   -0.0640   20.7810  -32.7320 H   0  0  0  0  0  0  0  0  0  0  0  0
    3.4862   16.8371  -29.4973 H   0  0  0  0  0  0  0  0  0  0  0  0
    4.0622   18.5289  -29.2131 H   0  0  0  0  0  0  0  0  0  0  0  0
    4.1190   17.0910  -27.2660 H   0  0  0  0  0  0  0  0  0  0  0  0
    2.1686   15.7760  -27.8112 H   0  0  0  0  0  0  0  0  0  0  0  0
    2.1803   16.4215  -26.1315 H   0  0  0  0  0  0  0  0  0  0  0  0
   -0.0284   16.6569  -27.4305 H   0  0  0  0  0  0  0  0  0  0  0  0
    0.6476   18.1652  -26.6814 H   0  0  0  0  0  0  0  0  0  0  0  0
   -4.5076   21.7034  -32.2530 H   0  0  0  0  0  0  0  0  0  0  0  0
   -9.3052   21.6669  -30.7844 H   0  0  0  0  0  0  0  0  0  0  0  0
  -10.0445   19.3094  -31.1385 H   0  0  0  0  0  0  0  0  0  0  0  0
   -8.6634   17.7570  -32.5211 H   0  0  0  0  0  0  0  0  0  0  0  0
   -3.4911   16.4495  -32.3612 H   0  0  0  0  0  0  0  0  0  0  0  0
   -4.8935   16.0001  -33.4347 H   0  0  0  0  0  0  0  0  0  0  0  0
   -2.7154   15.3935  -34.4463 H   0  0  0  0  0  0  0  0  0  0  0  0
   -3.6221   16.6304  -35.4091 H   0  0  0  0  0  0  0  0  0  0  0  0
   -1.0493   16.8788  -33.8737 H   0  0  0  0  0  0  0  0  0  0  0  0
   -1.5783   17.6221  -35.4497 H   0  0  0  0  0  0  0  0  0  0  0  0
   -1.9494   18.6073  -32.6318 H   0  0  0  0  0  0  0  0  0  0  0  0
   -1.5751   19.5060  -34.1533 H   0  0  0  0  0  0  0  0  0  0  0  0
   -3.8451   20.0439  -33.3852 H   0  0  0  0  0  0  0  0  0  0  0  0
   -3.8932   19.1055  -34.9360 H   0  0  0  0  0  0  0  0  0  0  0  0
   -5.7954   20.9254  -33.2076 H   0  0  0  0  0  0  0  0  0  0  0  0
   -6.1033   24.5135  -29.3807 H   0  0  0  0  0  0  0  0  0  0  0  0
   -3.8816   24.6379  -28.2631 H   0  0  0  0  0  0  0  0  0  0  0  0
  1  2  2  0
  2  3  2  0
  2  4  1  0
  4  5  1  0
  5  6  2  0
  6  7  1  0
  7  8  2  0
  8  9  1  0
  9 10  2  0
 10 11  1  0
  8 12  1  0
 12 13  1  0
 13 14  1  0
 14 15  1  0
  2 16  1  0
 16 17  2  0
 17 18  1  0
 18 19  1  0
 19 20  2  0
 19 21  2  0
 19 22  1  0
 22 23  2  0
 23 24  1  0
 24 25  2  0
 25 26  1  0
 26 27  1  0
 27 28  2  0
 27 29  2  0
 27 30  1  0
 30 31  1  0
 31 32  1  0
 32 33  1  0
 33 34  1  0
 34 35  1  0
 26 36  2  0
 18 37  2  0
 37 38  1  0
 38 39  2  0
 39 40  1  0
 10  5  1  0
 39 16  1  0
 15  7  1  0
 36 22  1  0
 35 30  1  0
  6 41  1  0
  9 42  1  0
 11 43  1  0
 12 44  1  0
 12 45  1  0
 13 46  1  0
 14 47  1  0
 14 48  1  0
 15 49  1  0
 15 50  1  0
 17 51  1  0
 23 52  1  0
 24 53  1  0
 25 54  1  0
 31 55  1  0
 31 56  1  0
 32 57  1  0
 32 58  1  0
 33 59  1  0
 33 60  1  0
 34 61  1  0
 34 62  1  0
 35 63  1  0
 35 64  1  0
 36 65  1  0
 37 66  1  0
 38 67  1  0
M  CHG  1   4  -1
M  END
>  <UniqueID>  (43) 
43

>  <SMILES>  (43) 
O=S(=O)([N-]c1cc2c(cc1O)CNCC2)c1cc(S(=O)(=O)c2cccc(S(=O)(=O)N3CCCCC3)c2)ccc1Br

>  <Energy>  (43) 
88.29842853734276

>  <Genealogy>  (43) 
O=S(=O)([N-]c1cc2c(cc1O)CNCC2)c1cc(S(=O)(=O)c2cccc(S(=O)(=O)N3CCCCC3)c2)ccc1Br (protonated)
O=S(=O)([N-]c1cc2c(cc1O)CNCC2)c1cc(S(=O)(=O)c2cccc(S(=O)(=O)N3CCCCC3)c2)ccc1Br (3D coordinates assigned)
O=S(=O)([N-]c1cc2c(cc1O)CNCC2)c1cc(S(=O)(=O)c2cccc(S(=O)(=O)N3CCCCC3)c2)ccc1Br (nonaromatic ring conformer: 88.29842853734276 kcal/mol)

>  <smiles>  (43) 
O=S(=O)(Nc1cc2c(cc1O)CNCC2)c1cc(S(=O)(=O)c2cccc(S(=O)(=O)N3CCCCC3)c2)ccc1Br

>  <score_type>  (43) 
oracle

>  <origin>  (43) 
adgpu

>  <m_score__min__energy>  (43) 
-14.06

>  <m_primary>  (43) 
energy

$$$$
43:0
     RDKit          3D

 49 52  0  0  0  0  0  0  0  0999 V2000
   -4.9310   14.8740  -34.0370 C   0  0  0  0  0  0  0  0  0  0  0  0
   -5.7750   16.4420  -33.9730 S   0  0  0  0  0  0  0  0  0  0  0  0
   -7.2420   16.1650  -33.8120 O   0  0  0  0  0  0  0  0  0  0  0  0
   -5.5690   17.1410  -35.2870 O   0  0  0  0  0  0  0  0  0  0  0  0
   -5.2670   17.4800  -32.6520 N   0  0  0  0  0  0  0  0  0  0  0  0
   -4.5500   18.6990  -33.0770 C   0  0  0  0  0  0  0  0  0  0  0  0
   -5.4790   19.8830  -33.3980 C   0  0  0  0  0  0  0  0  0  0  0  0
   -6.5270   20.0170  -32.3850 N   0  0  0  0  0  0  0  0  0  0  0  0
   -7.0930   21.3120  -32.1150 C   0  0  0  0  0  0  0  0  0  0  0  0
   -8.3350   21.4840  -32.2480 O   0  0  0  0  0  0  0  0  0  0  0  0
   -6.2420   22.4380  -31.6630 C   0  0  0  0  0  0  0  0  0  0  0  0
   -6.8110   23.6930  -31.3960 C   0  0  0  0  0  0  0  0  0  0  0  0
   -6.0100   24.7530  -30.9690 C   0  0  0  0  0  0  0  0  0  0  0  0
   -4.6340   24.5780  -30.7900 C   0  0  0  0  0  0  0  0  0  0  0  0
   -3.8730   25.6730  -30.4060 O   0  0  0  0  0  0  0  0  0  0  0  0
   -4.0510   23.3120  -31.0210 C   0  0  0  0  0  0  0  0  0  0  0  0
   -2.6520   23.0390  -30.8460 N   0  0  0  0  0  0  0  0  0  0  0  0
   -1.8640   22.4710  -29.4090 S   0  0  0  0  0  0  0  0  0  0  0  0
   -0.4080   22.2130  -29.6810 O   0  0  0  0  0  0  0  0  0  0  0  0
   -2.5320   21.2080  -28.9380 O   0  0  0  0  0  0  0  0  0  0  0  0
   -1.9920   23.7110  -28.1680 C   0  0  0  0  0  0  0  0  0  0  0  0
   -3.1900   23.9180  -27.4490 C   0  0  0  0  0  0  0  0  0  0  0  0
   -3.2640   24.9200  -26.4510 C   0  0  0  0  0  0  0  0  0  0  0  0
   -2.1440   25.7230  -26.1580 C   0  0  0  0  0  0  0  0  0  0  0  0
   -0.9820   25.4840  -26.8860 C   0  0  0  0  0  0  0  0  0  0  0  0
    0.2070   26.0950  -26.7990 N   0  0  0  0  0  0  0  0  0  0  0  0
    0.9490   25.4900  -27.6940 O   0  0  0  0  0  0  0  0  0  0  0  0
    0.3330   24.5380  -28.3510 N   0  0  0  0  0  0  0  0  0  0  0  0
   -0.9070   24.5260  -27.8410 C   0  0  0  0  0  0  0  0  0  0  0  0
   -4.8620   22.2590  -31.4660 C   0  0  0  0  0  0  0  0  0  0  0  0
   -7.2750   18.8160  -32.0190 C   0  0  0  0  0  0  0  0  0  0  0  0
   -6.2970   17.7120  -31.6250 C   0  0  0  0  0  0  0  0  0  0  0  0
   -4.7397   14.5185  -33.0137 H   0  0  0  0  0  0  0  0  0  0  0  0
   -5.5570   14.1420  -34.5684 H   0  0  0  0  0  0  0  0  0  0  0  0
   -3.9753   14.9934  -34.5684 H   0  0  0  0  0  0  0  0  0  0  0  0
   -3.8691   19.0013  -32.2677 H   0  0  0  0  0  0  0  0  0  0  0  0
   -4.0145   18.4498  -34.0050 H   0  0  0  0  0  0  0  0  0  0  0  0
   -4.8854   20.8087  -33.4261 H   0  0  0  0  0  0  0  0  0  0  0  0
   -5.9550   19.7007  -34.3728 H   0  0  0  0  0  0  0  0  0  0  0  0
   -7.8934   23.8417  -31.5239 H   0  0  0  0  0  0  0  0  0  0  0  0
   -6.4649   25.7349  -30.7715 H   0  0  0  0  0  0  0  0  0  0  0  0
   -4.0715   23.2967  -27.6657 H   0  0  0  0  0  0  0  0  0  0  0  0
   -4.2037   25.0726  -25.9000 H   0  0  0  0  0  0  0  0  0  0  0  0
   -2.1861   26.5059  -25.3864 H   0  0  0  0  0  0  0  0  0  0  0  0
   -4.4107   21.2757  -31.6644 H   0  0  0  0  0  0  0  0  0  0  0  0
   -7.9373   19.0403  -31.1698 H   0  0  0  0  0  0  0  0  0  0  0  0
   -7.8797   18.4836  -32.8756 H   0  0  0  0  0  0  0  0  0  0  0  0
   -5.8010   17.9984  -30.6859 H   0  0  0  0  0  0  0  0  0  0  0  0
   -6.8714   16.7809  -31.5105 H   0  0  0  0  0  0  0  0  0  0  0  0
  1  2  1  0
  2  3  2  0
  2  4  2  0
  2  5  1  0
  5  6  1  0
  6  7  1  0
  7  8  1  0
  8  9  1  0
  9 10  2  0
  9 11  1  0
 11 12  2  0
 12 13  1  0
 13 14  2  0
 14 15  1  0
 14 16  1  0
 16 17  1  0
 17 18  1  0
 18 19  2  0
 18 20  2  0
 18 21  1  0
 21 22  2  0
 22 23  1  0
 23 24  2  0
 24 25  1  0
 25 26  2  0
 26 27  1  0
 27 28  1  0
 28 29  2  0
 16 30  2  0
  8 31  1  0
 31 32  1  0
 32  5  1  0
 30 11  1  0
 29 21  1  0
 29 25  1  0
  1 33  1  0
  1 34  1  0
  1 35  1  0
  6 36  1  0
  6 37  1  0
  7 38  1  0
  7 39  1  0
 12 40  1  0
 13 41  1  0
 22 42  1  0
 23 43  1  0
 24 44  1  0
 30 45  1  0
 31 46  1  0
 31 47  1  0
 32 48  1  0
 32 49  1  0
M  CHG  2  15  -1  17  -1
M  END
>  <UniqueID>  (44) 
44

>  <SMILES>  (44) 
CS(=O)(=O)N1CCN(C(=O)c2ccc([O-])c([N-]S(=O)(=O)c3cccc4nonc34)c2)CC1

>  <Energy>  (44) 
108.86667116280401

>  <Genealogy>  (44) 
CS(=O)(=O)N1CCN(C(=O)c2ccc([O-])c([N-]S(=O)(=O)c3cccc4nonc34)c2)CC1 (protonated)
CS(=O)(=O)N1CCN(C(=O)c2ccc([O-])c([N-]S(=O)(=O)c3cccc4nonc34)c2)CC1 (3D coordinates assigned)
CS(=O)(=O)N1CCN(C(=O)c2ccc([O-])c([N-]S(=O)(=O)c3cccc4nonc34)c2)CC1 (nonaromatic ring conformer: 108.86667116280401 kcal/mol)

>  <smiles>  (44) 
CS(=O)(=O)N1CCN(C(=O)c2ccc(O)c(NS(=O)(=O)c3cccc4nonc34)c2)CC1

>  <score_type>  (44) 
oracle

>  <origin>  (44) 
adgpu

>  <m_score__min__energy>  (44) 
-14.279999999999999

>  <m_primary>  (44) 
energy

$$$$
44:0
     RDKit          3D

 52 55  0  0  0  0  0  0  0  0999 V2000
   -6.4160   25.6040  -29.7750 C   0  0  0  0  0  0  0  0  0  0  0  0
   -6.3800   24.2510  -30.4200 C   0  0  0  0  0  0  0  0  0  0  0  0
   -5.6020   24.0420  -31.5710 C   0  0  0  0  0  0  0  0  0  0  0  0
   -5.5810   22.7890  -32.1900 C   0  0  0  0  0  0  0  0  0  0  0  0
   -6.3420   21.7310  -31.6670 C   0  0  0  0  0  0  0  0  0  0  0  0
   -6.2770   20.1310  -32.3950 S   0  0  0  0  0  0  0  0  0  0  0  0
   -6.5380   19.0930  -31.3390 O   0  0  0  0  0  0  0  0  0  0  0  0
   -7.3230   19.9880  -33.4660 O   0  0  0  0  0  0  0  0  0  0  0  0
   -4.7030   19.8840  -33.0780 N   0  0  0  0  0  0  0  0  0  0  0  0
   -4.4580   19.0300  -34.2390 C   0  0  0  0  0  0  0  0  0  0  0  0
   -2.9350   18.7490  -34.2490 C   0  0  0  0  0  0  0  0  0  0  0  0
   -2.4510   19.4430  -33.0250 C   0  0  0  0  0  0  0  0  0  0  0  0
   -1.1540   19.4860  -32.5150 C   0  0  0  0  0  0  0  0  0  0  0  0
   -0.9150   20.1950  -31.3250 C   0  0  0  0  0  0  0  0  0  0  0  0
    0.3890   20.2730  -30.8540 O   0  0  0  0  0  0  0  0  0  0  0  0
   -1.9910   20.8370  -30.6510 C   0  0  0  0  0  0  0  0  0  0  0  0
   -1.8290   21.5670  -29.4250 N   0  0  0  0  0  0  0  0  0  0  0  0
   -2.7990   22.8910  -28.8670 S   0  0  0  0  0  0  0  0  0  0  0  0
   -4.0290   22.3510  -28.1940 O   0  0  0  0  0  0  0  0  0  0  0  0
   -3.1820   23.7660  -30.0280 O   0  0  0  0  0  0  0  0  0  0  0  0
   -1.8720   23.8560  -27.7160 C   0  0  0  0  0  0  0  0  0  0  0  0
   -1.5620   23.3290  -26.4540 C   0  0  0  0  0  0  0  0  0  0  0  0
   -0.8380   24.0880  -25.5290 C   0  0  0  0  0  0  0  0  0  0  0  0
   -0.5350   23.5700  -24.2720 O   0  0  0  0  0  0  0  0  0  0  0  0
   -0.4160   25.3750  -25.8650 C   0  0  0  0  0  0  0  0  0  0  0  0
   -0.7070   25.9130  -27.1290 C   0  0  0  0  0  0  0  0  0  0  0  0
   -0.2350   27.2930  -27.4890 C   0  0  0  0  0  0  0  0  0  0  0  0
   -1.4300   25.1460  -28.0580 C   0  0  0  0  0  0  0  0  0  0  0  0
   -1.7070   25.6680  -29.3190 O   0  0  0  0  0  0  0  0  0  0  0  0
   -3.2820   20.7860  -31.2060 C   0  0  0  0  0  0  0  0  0  0  0  0
   -3.4820   20.0750  -32.3900 C   0  0  0  0  0  0  0  0  0  0  0  0
   -7.1270   21.9420  -30.5290 C   0  0  0  0  0  0  0  0  0  0  0  0
   -7.1540   23.1960  -29.9130 C   0  0  0  0  0  0  0  0  0  0  0  0
   -6.4129   25.4889  -28.6810 H   0  0  0  0  0  0  0  0  0  0  0  0
   -5.5329   26.1818  -30.0854 H   0  0  0  0  0  0  0  0  0  0  0  0
   -7.3286   26.1340  -30.0854 H   0  0  0  0  0  0  0  0  0  0  0  0
   -5.0067   24.8682  -31.9869 H   0  0  0  0  0  0  0  0  0  0  0  0
   -4.9669   22.6313  -33.0889 H   0  0  0  0  0  0  0  0  0  0  0  0
   -5.0196   18.0887  -34.1463 H   0  0  0  0  0  0  0  0  0  0  0  0
   -4.7843   19.5143  -35.1712 H   0  0  0  0  0  0  0  0  0  0  0  0
   -2.7332   17.6690  -34.1955 H   0  0  0  0  0  0  0  0  0  0  0  0
   -2.4388   19.0981  -35.1665 H   0  0  0  0  0  0  0  0  0  0  0  0
   -0.3314   18.9736  -33.0353 H   0  0  0  0  0  0  0  0  0  0  0  0
   -1.8902   22.3128  -26.1901 H   0  0  0  0  0  0  0  0  0  0  0  0
    0.1360   24.0190  -23.6600 H   0  0  0  0  0  0  0  0  0  0  0  0
    0.1488   25.9725  -25.1343 H   0  0  0  0  0  0  0  0  0  0  0  0
   -0.0394   27.8650  -26.5700 H   0  0  0  0  0  0  0  0  0  0  0  0
    0.6898   27.2216  -28.0803 H   0  0  0  0  0  0  0  0  0  0  0  0
   -1.0098   27.8029  -28.0803 H   0  0  0  0  0  0  0  0  0  0  0  0
   -4.1217   21.2989  -30.7142 H   0  0  0  0  0  0  0  0  0  0  0  0
   -7.7262   21.1167  -30.1168 H   0  0  0  0  0  0  0  0  0  0  0  0
   -7.7850   23.3569  -29.0264 H   0  0  0  0  0  0  0  0  0  0  0  0
  1  2  1  0
  2  3  2  0
  3  4  1  0
  4  5  2  0
  5  6  1  0
  6  7  2  0
  6  8  2  0
  6  9  1  0
  9 10  1  0
 10 11  1  0
 11 12  1  0
 12 13  2  0
 13 14  1  0
 14 15  1  0
 14 16  2  0
 16 17  1  0
 17 18  1  0
 18 19  2  0
 18 20  2  0
 18 21  1  0
 21 22  2  0
 22 23  1  0
 23 24  1  0
 23 25  2  0
 25 26  1  0
 26 27  1  0
 26 28  2  0
 28 29  1  0
 16 30  1  0
 30 31  2  0
  5 32  1  0
 32 33  2  0
 33  2  1  0
 31  9  1  0
 31 12  1  0
 28 21  1  0
  1 34  1  0
  1 35  1  0
  1 36  1  0
  3 37  1  0
  4 38  1  0
 10 39  1  0
 10 40  1  0
 11 41  1  0
 11 42  1  0
 13 43  1  0
 22 44  1  0
 24 45  1  0
 25 46  1  0
 27 47  1  0
 27 48  1  0
 27 49  1  0
 30 50  1  0
 32 51  1  0
 33 52  1  0
M  CHG  3  15  -1  17  -1  29  -1
M  END
>  <UniqueID>  (45) 
45

>  <SMILES>  (45) 
Cc1ccc(S(=O)(=O)N2CCc3cc([O-])c([N-]S(=O)(=O)c4cc(O)cc(C)c4[O-])cc32)cc1

>  <Energy>  (45) 
78.44967170183841

>  <Genealogy>  (45) 
Cc1ccc(S(=O)(=O)N2CCc3cc([O-])c([N-]S(=O)(=O)c4cc(O)cc(C)c4[O-])cc32)cc1 (protonated)
Cc1ccc(S(=O)(=O)N2CCc3cc([O-])c([N-]S(=O)(=O)c4cc(O)cc(C)c4[O-])cc32)cc1 (3D coordinates assigned)
Cc1ccc(S(=O)(=O)N2CCc3cc([O-])c([N-]S(=O)(=O)c4cc(O)cc(C)c4[O-])cc32)cc1 (nonaromatic ring conformer: 78.44967170183841 kcal/mol)

>  <smiles>  (45) 
Cc1ccc(S(=O)(=O)N2CCc3cc(O)c(NS(=O)(=O)c4cc(O)cc(C)c4O)cc32)cc1

>  <score_type>  (45) 
oracle

>  <origin>  (45) 
adgpu

>  <m_score__min__energy>  (45) 
-15.85

>  <m_primary>  (45) 
energy

$$$$
45:0
     RDKit          3D

 63 66  0  0  0  0  0  0  0  0999 V2000
   -7.7740   18.8830  -31.9970 C   0  0  0  0  0  0  0  0  0  0  0  0
   -7.7870   20.3460  -32.3050 C   0  0  0  0  0  0  0  0  0  0  0  0
   -8.8600   20.8740  -32.6980 O   0  0  0  0  0  0  0  0  0  0  0  0
   -6.5760   21.1710  -32.0980 C   0  0  0  0  0  0  0  0  0  0  0  0
   -5.0200   20.6650  -32.4850 S   0  0  0  0  0  0  0  0  0  0  0  0
   -4.2180   22.0290  -31.9160 C   0  0  0  0  0  0  0  0  0  0  0  0
   -2.7940   22.2290  -31.9610 N   0  0  0  0  0  0  0  0  0  0  0  0
   -1.8750   21.2470  -32.4630 C   0  0  0  0  0  0  0  0  0  0  0  0
   -1.6710   20.0300  -31.7900 C   0  0  0  0  0  0  0  0  0  0  0  0
   -0.7810   19.0820  -32.3040 C   0  0  0  0  0  0  0  0  0  0  0  0
   -0.0670   19.3530  -33.4740 C   0  0  0  0  0  0  0  0  0  0  0  0
   -0.2240   20.5820  -34.1310 C   0  0  0  0  0  0  0  0  0  0  0  0
    0.5200   20.8680  -35.4010 C   0  0  0  0  0  0  0  0  0  0  0  0
   -1.1300   21.5260  -33.6200 C   0  0  0  0  0  0  0  0  0  0  0  0
   -5.1640   22.9340  -31.4220 C   0  0  0  0  0  0  0  0  0  0  0  0
   -4.8090   24.2300  -30.8070 C   0  0  0  0  0  0  0  0  0  0  0  0
   -5.7120   25.0590  -30.5180 O   0  0  0  0  0  0  0  0  0  0  0  0
   -3.4420   24.5120  -30.4880 N   0  0  0  0  0  0  0  0  0  0  0  0
   -2.7490   24.0660  -29.3170 C   0  0  0  0  0  0  0  0  0  0  0  0
   -2.2140   24.9740  -28.3880 C   0  0  0  0  0  0  0  0  0  0  0  0
   -1.5330   24.5030  -27.2610 C   0  0  0  0  0  0  0  0  0  0  0  0
   -1.3870   23.1300  -27.0530 C   0  0  0  0  0  0  0  0  0  0  0  0
   -1.9210   22.2160  -27.9740 C   0  0  0  0  0  0  0  0  0  0  0  0
   -1.7640   20.4780  -27.7040 S   0  0  0  0  0  0  0  0  0  0  0  0
   -1.2100   20.2530  -26.3230 O   0  0  0  0  0  0  0  0  0  0  0  0
   -3.1240   19.8410  -27.7640 O   0  0  0  0  0  0  0  0  0  0  0  0
   -0.7130   19.7120  -28.8770 N   0  0  0  0  0  0  0  0  0  0  0  0
   -0.5010   18.2670  -28.6140 C   0  0  0  0  0  0  0  0  0  0  0  0
    0.9770   17.8560  -28.5570 C   0  0  0  0  0  0  0  0  0  0  0  0
    1.7540   18.8280  -27.6760 C   0  0  0  0  0  0  0  0  0  0  0  0
    1.6680   20.2680  -28.2070 C   0  0  0  0  0  0  0  0  0  0  0  0
    0.4960   20.5060  -29.1810 C   0  0  0  0  0  0  0  0  0  0  0  0
   -2.5710   22.6930  -29.1210 C   0  0  0  0  0  0  0  0  0  0  0  0
   -6.4960   22.4590  -31.5430 C   0  0  0  0  0  0  0  0  0  0  0  0
   -7.7060   23.2680  -31.1510 C   0  0  0  0  0  0  0  0  0  0  0  0
   -7.7727   18.7379  -30.9066 H   0  0  0  0  0  0  0  0  0  0  0  0
   -8.6680   18.4094  -32.4289 H   0  0  0  0  0  0  0  0  0  0  0  0
   -6.8718   18.4254  -32.4289 H   0  0  0  0  0  0  0  0  0  0  0  0
   -2.4130   23.1750  -31.7530 H   0  0  0  0  0  0  0  0  0  0  0  0
   -2.2134   19.8227  -30.8557 H   0  0  0  0  0  0  0  0  0  0  0  0
   -0.6427   18.1213  -31.7864 H   0  0  0  0  0  0  0  0  0  0  0  0
    0.6218   18.5985  -33.8819 H   0  0  0  0  0  0  0  0  0  0  0  0
    1.5219   21.2531  -35.1603 H   0  0  0  0  0  0  0  0  0  0  0  0
    0.6142   19.9420  -35.9872 H   0  0  0  0  0  0  0  0  0  0  0  0
   -0.0303   21.6187  -35.9872 H   0  0  0  0  0  0  0  0  0  0  0  0
   -1.2569   22.4920  -34.1306 H   0  0  0  0  0  0  0  0  0  0  0  0
   -2.3308   26.0561  -28.5472 H   0  0  0  0  0  0  0  0  0  0  0  0
   -1.1115   25.2157  -26.5368 H   0  0  0  0  0  0  0  0  0  0  0  0
   -0.8518   22.7638  -26.1645 H   0  0  0  0  0  0  0  0  0  0  0  0
   -0.9672   18.0184  -27.6492 H   0  0  0  0  0  0  0  0  0  0  0  0
   -0.9527   17.7196  -29.4544 H   0  0  0  0  0  0  0  0  0  0  0  0
    1.0573   16.8416  -28.1393 H   0  0  0  0  0  0  0  0  0  0  0  0
    1.3969   17.8748  -29.5735 H   0  0  0  0  0  0  0  0  0  0  0  0
    1.3378   18.7977  -26.6582 H   0  0  0  0  0  0  0  0  0  0  0  0
    2.8111   18.5237  -27.6782 H   0  0  0  0  0  0  0  0  0  0  0  0
    1.5491   20.9468  -27.3496 H   0  0  0  0  0  0  0  0  0  0  0  0
    2.5941   20.4566  -28.7697 H   0  0  0  0  0  0  0  0  0  0  0  0
    0.2273   21.5720  -29.1440 H   0  0  0  0  0  0  0  0  0  0  0  0
    0.8415   20.1888  -30.1760 H   0  0  0  0  0  0  0  0  0  0  0  0
   -2.9439   21.9816  -29.8726 H   0  0  0  0  0  0  0  0  0  0  0  0
   -7.7761   23.3149  -30.0542 H   0  0  0  0  0  0  0  0  0  0  0  0
   -7.6132   24.2864  -31.5564 H   0  0  0  0  0  0  0  0  0  0  0  0
   -8.6116   22.7931  -31.5564 H   0  0  0  0  0  0  0  0  0  0  0  0
  1  2  1  0
  2  3  2  0
  2  4  1  0
  4  5  1  0
  5  6  1  0
  6  7  1  0
  7  8  1  0
  8  9  2  0
  9 10  1  0
 10 11  2  0
 11 12  1  0
 12 13  1  0
 12 14  2  0
  6 15  2  0
 15 16  1  0
 16 17  2  0
 16 18  1  0
 18 19  1  0
 19 20  2  0
 20 21  1  0
 21 22  2  0
 22 23  1  0
 23 24  1  0
 24 25  2  0
 24 26  2  0
 24 27  1  0
 27 28  1  0
 28 29  1  0
 29 30  1  0
 30 31  1  0
 31 32  1  0
 23 33  2  0
 15 34  1  0
 34 35  1  0
 34  4  2  0
 14  8  1  0
 33 19  1  0
 32 27  1  0
  1 36  1  0
  1 37  1  0
  1 38  1  0
  7 39  1  0
  9 40  1  0
 10 41  1  0
 11 42  1  0
 13 43  1  0
 13 44  1  0
 13 45  1  0
 14 46  1  0
 20 47  1  0
 21 48  1  0
 22 49  1  0
 28 50  1  0
 28 51  1  0
 29 52  1  0
 29 53  1  0
 30 54  1  0
 30 55  1  0
 31 56  1  0
 31 57  1  0
 32 58  1  0
 32 59  1  0
 33 60  1  0
 35 61  1  0
 35 62  1  0
 35 63  1  0
M  CHG  1  18  -1
M  END
>  <UniqueID>  (46) 
46

>  <SMILES>  (46) 
CC(=O)c1sc(Nc2cccc(C)c2)c(C(=O)[N-]c2cccc(S(=O)(=O)N3CCCCC3)c2)c1C

>  <Energy>  (46) 
112.16697938984562

>  <Genealogy>  (46) 
CC(=O)c1sc(Nc2cccc(C)c2)c(C(=O)[N-]c2cccc(S(=O)(=O)N3CCCCC3)c2)c1C (protonated)
CC(=O)c1sc(Nc2cccc(C)c2)c(C(=O)[N-]c2cccc(S(=O)(=O)N3CCCCC3)c2)c1C (3D coordinates assigned)
CC(=O)c1sc(Nc2cccc(C)c2)c(C(=O)[N-]c2cccc(S(=O)(=O)N3CCCCC3)c2)c1C (nonaromatic ring conformer: 112.16697938984562 kcal/mol)

>  <smiles>  (46) 
CC(=O)c1sc(Nc2cccc(C)c2)c(C(=O)Nc2cccc(S(=O)(=O)N3CCCCC3)c2)c1C

>  <score_type>  (46) 
oracle

>  <origin>  (46) 
adgpu

>  <m_score__min__energy>  (46) 
-12.210000000000001

>  <m_primary>  (46) 
energy

$$$$
46:0
     RDKit          3D

 41 43  0  0  0  0  0  0  0  0999 V2000
   -0.4300   22.2640  -30.5220 O   0  0  0  0  0  0  0  0  0  0  0  0
   -1.4070   22.2500  -29.7280 C   0  0  0  0  0  0  0  0  0  0  0  0
   -2.3660   23.3140  -29.7870 N   0  0  0  0  0  0  0  0  0  0  0  0
   -3.6090   23.2570  -30.5020 C   0  0  0  0  0  0  0  0  0  0  0  0
   -4.0820   22.0120  -30.9360 C   0  0  0  0  0  0  0  0  0  0  0  0
   -5.3000   21.9120  -31.6240 C   0  0  0  0  0  0  0  0  0  0  0  0
   -5.9330   20.3310  -32.0870 S   0  0  0  0  0  0  0  0  0  0  0  0
   -6.2130   20.3260  -33.5650 O   0  0  0  0  0  0  0  0  0  0  0  0
   -4.8930   19.2810  -31.8110 O   0  0  0  0  0  0  0  0  0  0  0  0
   -7.3930   19.9280  -31.2070 N   0  0  0  0  0  0  0  0  0  0  0  0
   -8.3220   21.0620  -31.1810 C   0  0  0  0  0  0  0  0  0  0  0  0
   -9.3430   20.8600  -32.2870 C   0  0  0  0  0  0  0  0  0  0  0  0
   -9.3170   19.3770  -32.5890 C   0  0  0  0  0  0  0  0  0  0  0  0
   -8.1140   18.8170  -31.8390 C   0  0  0  0  0  0  0  0  0  0  0  0
   -6.0290   23.0730  -31.9110 C   0  0  0  0  0  0  0  0  0  0  0  0
   -5.5500   24.3210  -31.5030 C   0  0  0  0  0  0  0  0  0  0  0  0
   -4.3420   24.4200  -30.8070 C   0  0  0  0  0  0  0  0  0  0  0  0
   -3.8670   25.6770  -30.4520 O   0  0  0  0  0  0  0  0  0  0  0  0
   -1.5560   21.1300  -28.7740 C   0  0  0  0  0  0  0  0  0  0  0  0
   -2.7710   20.9540  -28.0930 C   0  0  0  0  0  0  0  0  0  0  0  0
   -2.9410   19.8800  -27.2140 C   0  0  0  0  0  0  0  0  0  0  0  0
   -1.8930   18.9770  -26.9960 C   0  0  0  0  0  0  0  0  0  0  0  0
   -2.0530   17.8990  -26.1290 O   0  0  0  0  0  0  0  0  0  0  0  0
   -0.6720   19.1600  -27.6510 C   0  0  0  0  0  0  0  0  0  0  0  0
   -0.4930   20.2380  -28.5250 C   0  0  0  0  0  0  0  0  0  0  0  0
    0.7500   20.4310  -29.1160 O   0  0  0  0  0  0  0  0  0  0  0  0
   -3.4930   21.1049  -30.7355 H   0  0  0  0  0  0  0  0  0  0  0  0
   -8.8310   21.1049  -30.2068 H   0  0  0  0  0  0  0  0  0  0  0  0
   -7.7768   22.0052  -31.3329 H   0  0  0  0  0  0  0  0  0  0  0  0
  -10.3436   21.1667  -31.9483 H   0  0  0  0  0  0  0  0  0  0  0  0
   -9.1090   21.4637  -33.1763 H   0  0  0  0  0  0  0  0  0  0  0  0
  -10.2432   18.8990  -32.2373 H   0  0  0  0  0  0  0  0  0  0  0  0
   -9.2423   19.1870  -33.6699 H   0  0  0  0  0  0  0  0  0  0  0  0
   -8.4550   18.1109  -31.0676 H   0  0  0  0  0  0  0  0  0  0  0  0
   -7.4492   18.2894  -32.5388 H   0  0  0  0  0  0  0  0  0  0  0  0
   -6.9804   23.0024  -32.4586 H   0  0  0  0  0  0  0  0  0  0  0  0
   -6.1265   25.2297  -31.7308 H   0  0  0  0  0  0  0  0  0  0  0  0
   -3.5946   21.6656  -28.2520 H   0  0  0  0  0  0  0  0  0  0  0  0
   -3.9000   19.7440  -26.6926 H   0  0  0  0  0  0  0  0  0  0  0  0
   -1.3350   17.1920  -26.0240 H   0  0  0  0  0  0  0  0  0  0  0  0
    0.1527   18.4528  -27.4785 H   0  0  0  0  0  0  0  0  0  0  0  0
  1  2  2  0
  2  3  1  0
  3  4  1  0
  4  5  2  0
  5  6  1  0
  6  7  1  0
  7  8  2  0
  7  9  2  0
  7 10  1  0
 10 11  1  0
 11 12  1  0
 12 13  1  0
 13 14  1  0
  6 15  2  0
 15 16  1  0
 16 17  2  0
 17 18  1  0
  2 19  1  0
 19 20  2  0
 20 21  1  0
 21 22  2  0
 22 23  1  0
 22 24  1  0
 24 25  2  0
 25 26  1  0
 17  4  1  0
 25 19  1  0
 14 10  1  0
  5 27  1  0
 11 28  1  0
 11 29  1  0
 12 30  1  0
 12 31  1  0
 13 32  1  0
 13 33  1  0
 14 34  1  0
 14 35  1  0
 15 36  1  0
 16 37  1  0
 20 38  1  0
 21 39  1  0
 23 40  1  0
 24 41  1  0
M  CHG  3   3  -1  18  -1  26  -1
M  END
>  <UniqueID>  (47) 
47

>  <SMILES>  (47) 
O=C([N-]c1cc(S(=O)(=O)N2CCCC2)ccc1[O-])c1ccc(O)cc1[O-]

>  <Energy>  (47) 
51.977516080515564

>  <Genealogy>  (47) 
O=C([N-]c1cc(S(=O)(=O)N2CCCC2)ccc1[O-])c1ccc(O)cc1[O-] (protonated)
O=C([N-]c1cc(S(=O)(=O)N2CCCC2)ccc1[O-])c1ccc(O)cc1[O-] (3D coordinates assigned)
O=C([N-]c1cc(S(=O)(=O)N2CCCC2)ccc1[O-])c1ccc(O)cc1[O-] (nonaromatic ring conformer: 51.977516080515564 kcal/mol)

>  <smiles>  (47) 
O=C(Nc1cc(S(=O)(=O)N2CCCC2)ccc1O)c1ccc(O)cc1O

>  <score_type>  (47) 
oracle

>  <origin>  (47) 
adgpu

>  <m_score__min__energy>  (47) 
-14.470000000000001

>  <m_primary>  (47) 
energy

$$$$
47:0
     RDKit          3D

 57 60  0  0  0  0  0  0  0  0999 V2000
   -2.1940   19.7210  -26.3180 C   0  0  0  0  0  0  0  0  0  0  0  0
   -1.6360   19.5310  -27.6700 N   0  0  0  0  0  0  0  0  0  0  0  0
   -0.1900   19.8120  -27.7310 C   0  0  0  0  0  0  0  0  0  0  0  0
    0.1360   21.2890  -27.4560 C   0  0  0  0  0  0  0  0  0  0  0  0
   -0.8030   22.2220  -28.1720 C   0  0  0  0  0  0  0  0  0  0  0  0
   -0.4870   23.5890  -28.2430 C   0  0  0  0  0  0  0  0  0  0  0  0
   -1.3430   24.4840  -28.8990 C   0  0  0  0  0  0  0  0  0  0  0  0
   -1.0100   25.8340  -28.9910 O   0  0  0  0  0  0  0  0  0  0  0  0
   -2.5260   24.0160  -29.4920 C   0  0  0  0  0  0  0  0  0  0  0  0
   -3.3290   24.9170  -30.2680 N   0  0  0  0  0  0  0  0  0  0  0  0
   -5.0590   25.0080  -30.1210 S   0  0  0  0  0  0  0  0  0  0  0  0
   -5.5590   26.1360  -30.9740 O   0  0  0  0  0  0  0  0  0  0  0  0
   -5.4500   25.2730  -28.6920 O   0  0  0  0  0  0  0  0  0  0  0  0
   -5.7760   23.5020  -30.7030 C   0  0  0  0  0  0  0  0  0  0  0  0
   -5.1320   22.7230  -31.6780 C   0  0  0  0  0  0  0  0  0  0  0  0
   -5.7430   21.5650  -32.1730 C   0  0  0  0  0  0  0  0  0  0  0  0
   -6.9950   21.1630  -31.6830 C   0  0  0  0  0  0  0  0  0  0  0  0
   -7.7770   19.7110  -32.3180 S   0  0  0  0  0  0  0  0  0  0  0  0
   -8.7630   20.1090  -33.3840 O   0  0  0  0  0  0  0  0  0  0  0  0
   -8.5370   19.0320  -31.2120 O   0  0  0  0  0  0  0  0  0  0  0  0
   -6.6210   18.5850  -32.9840 N   0  0  0  0  0  0  0  0  0  0  0  0
   -7.2160   17.2440  -33.1170 C   0  0  0  0  0  0  0  0  0  0  0  0
   -6.1250   16.2090  -33.4520 C   0  0  0  0  0  0  0  0  0  0  0  0
   -4.8870   16.8500  -34.1050 C   0  0  0  0  0  0  0  0  0  0  0  0
   -5.2880   18.0020  -35.0300 C   0  0  0  0  0  0  0  0  0  0  0  0
   -6.1240   19.0720  -34.2880 C   0  0  0  0  0  0  0  0  0  0  0  0
   -7.6310   21.9350  -30.6980 C   0  0  0  0  0  0  0  0  0  0  0  0
   -7.0280   23.1010  -30.2170 C   0  0  0  0  0  0  0  0  0  0  0  0
   -2.8700   22.6610  -29.3720 C   0  0  0  0  0  0  0  0  0  0  0  0
   -2.0250   21.7650  -28.7030 C   0  0  0  0  0  0  0  0  0  0  0  0
   -2.3780   20.2960  -28.6910 C   0  0  0  0  0  0  0  0  0  0  0  0
   -1.4328   19.4618  -25.5674 H   0  0  0  0  0  0  0  0  0  0  0  0
   -2.4932   20.7717  -26.1891 H   0  0  0  0  0  0  0  0  0  0  0  0
   -3.0722   19.0712  -26.1891 H   0  0  0  0  0  0  0  0  0  0  0  0
    0.3216   19.1923  -26.9798 H   0  0  0  0  0  0  0  0  0  0  0  0
    0.1526   19.5787  -28.7499 H   0  0  0  0  0  0  0  0  0  0  0  0
    0.0610   21.4727  -26.3740 H   0  0  0  0  0  0  0  0  0  0  0  0
    1.1532   21.4846  -27.8261 H   0  0  0  0  0  0  0  0  0  0  0  0
    0.4394   23.9597  -27.7801 H   0  0  0  0  0  0  0  0  0  0  0  0
   -1.6720   26.5240  -29.3410 H   0  0  0  0  0  0  0  0  0  0  0  0
   -4.1432   23.0241  -32.0543 H   0  0  0  0  0  0  0  0  0  0  0  0
   -5.2403   20.9683  -32.9484 H   0  0  0  0  0  0  0  0  0  0  0  0
   -7.7017   16.9664  -32.1699 H   0  0  0  0  0  0  0  0  0  0  0  0
   -7.9579   17.2593  -33.9290 H   0  0  0  0  0  0  0  0  0  0  0  0
   -5.8150   15.7094  -32.5223 H   0  0  0  0  0  0  0  0  0  0  0  0
   -6.5510   15.4944  -34.1716 H   0  0  0  0  0  0  0  0  0  0  0  0
   -4.2240   17.2360  -33.3167 H   0  0  0  0  0  0  0  0  0  0  0  0
   -4.3707   16.0845  -34.7029 H   0  0  0  0  0  0  0  0  0  0  0  0
   -4.3768   18.4740  -35.4261 H   0  0  0  0  0  0  0  0  0  0  0  0
   -5.9050   17.5891  -35.8417 H   0  0  0  0  0  0  0  0  0  0  0  0
   -5.4953   19.9587  -34.1190 H   0  0  0  0  0  0  0  0  0  0  0  0
   -6.9960   19.3136  -34.9135 H   0  0  0  0  0  0  0  0  0  0  0  0
   -8.6084   21.6210  -30.3028 H   0  0  0  0  0  0  0  0  0  0  0  0
   -7.5385   23.7065  -29.4536 H   0  0  0  0  0  0  0  0  0  0  0  0
   -3.8127   22.2982  -29.8075 H   0  0  0  0  0  0  0  0  0  0  0  0
   -3.4548   20.1962  -28.4894 H   0  0  0  0  0  0  0  0  0  0  0  0
   -2.1033   19.8844  -29.6734 H   0  0  0  0  0  0  0  0  0  0  0  0
  1  2  1  0
  2  3  1  0
  3  4  1  0
  4  5  1  0
  5  6  2  0
  6  7  1  0
  7  8  1  0
  7  9  2  0
  9 10  1  0
 10 11  1  0
 11 12  2  0
 11 13  2  0
 11 14  1  0
 14 15  2  0
 15 16  1  0
 16 17  2  0
 17 18  1  0
 18 19  2  0
 18 20  2  0
 18 21  1  0
 21 22  1  0
 22 23  1  0
 23 24  1  0
 24 25  1  0
 25 26  1  0
 17 27  1  0
 27 28  2  0
  9 29  1  0
 29 30  2  0
 30 31  1  0
 31  2  1  0
 30  5  1  0
 28 14  1  0
 26 21  1  0
  1 32  1  0
  1 33  1  0
  1 34  1  0
  3 35  1  0
  3 36  1  0
  4 37  1  0
  4 38  1  0
  6 39  1  0
  8 40  1  0
 15 41  1  0
 16 42  1  0
 22 43  1  0
 22 44  1  0
 23 45  1  0
 23 46  1  0
 24 47  1  0
 24 48  1  0
 25 49  1  0
 25 50  1  0
 26 51  1  0
 26 52  1  0
 27 53  1  0
 28 54  1  0
 29 55  1  0
 31 56  1  0
 31 57  1  0
M  CHG  1  10  -1
M  END
>  <UniqueID>  (48) 
48

>  <SMILES>  (48) 
CN1CCc2cc(O)c([N-]S(=O)(=O)c3ccc(S(=O)(=O)N4CCCCC4)cc3)cc2C1

>  <Energy>  (48) 
71.57090820416383

>  <Genealogy>  (48) 
CN1CCc2cc(O)c([N-]S(=O)(=O)c3ccc(S(=O)(=O)N4CCCCC4)cc3)cc2C1 (protonated)
CN1CCc2cc(O)c([N-]S(=O)(=O)c3ccc(S(=O)(=O)N4CCCCC4)cc3)cc2C1 (3D coordinates assigned)
CN1CCc2cc(O)c([N-]S(=O)(=O)c3ccc(S(=O)(=O)N4CCCCC4)cc3)cc2C1 (nonaromatic ring conformer: 71.57090820416383 kcal/mol)

>  <smiles>  (48) 
CN1CCc2cc(O)c(NS(=O)(=O)c3ccc(S(=O)(=O)N4CCCCC4)cc3)cc2C1

>  <score_type>  (48) 
oracle

>  <origin>  (48) 
adgpu

>  <m_score__min__energy>  (48) 
-14.01

>  <m_primary>  (48) 
energy

$$$$
48:0
     RDKit          3D

 38 40  0  0  0  0  0  0  0  0999 V2000
   -6.7510   16.1510  -33.9980 C   0  0  0  0  0  0  0  0  0  0  0  0
   -6.1550   17.4860  -33.8380 N   0  0  0  0  0  0  0  0  0  0  0  0
   -4.8830   17.3880  -33.1020 C   0  0  0  0  0  0  0  0  0  0  0  0
   -4.1590   18.7360  -33.1440 C   0  0  0  0  0  0  0  0  0  0  0  0
   -5.0780   19.8760  -32.7870 C   0  0  0  0  0  0  0  0  0  0  0  0
   -4.5320   21.1310  -32.4830 C   0  0  0  0  0  0  0  0  0  0  0  0
   -5.3530   22.2300  -32.2010 C   0  0  0  0  0  0  0  0  0  0  0  0
   -4.7070   23.4780  -31.9030 N   0  0  0  0  0  0  0  0  0  0  0  0
   -4.4320   24.1930  -30.3460 S   0  0  0  0  0  0  0  0  0  0  0  0
   -4.1850   25.6670  -30.5020 O   0  0  0  0  0  0  0  0  0  0  0  0
   -5.6300   23.9530  -29.4710 O   0  0  0  0  0  0  0  0  0  0  0  0
   -3.0130   23.4620  -29.5920 C   0  0  0  0  0  0  0  0  0  0  0  0
   -2.9410   22.0710  -29.4190 C   0  0  0  0  0  0  0  0  0  0  0  0
   -1.8150   21.4910  -28.8260 C   0  0  0  0  0  0  0  0  0  0  0  0
   -1.7520   20.1130  -28.6570 O   0  0  0  0  0  0  0  0  0  0  0  0
   -0.7540   22.2960  -28.4050 C   0  0  0  0  0  0  0  0  0  0  0  0
   -0.8150   23.6810  -28.5790 C   0  0  0  0  0  0  0  0  0  0  0  0
   -1.9390   24.2670  -29.1730 C   0  0  0  0  0  0  0  0  0  0  0  0
   -1.9780   25.6470  -29.3410 O   0  0  0  0  0  0  0  0  0  0  0  0
   -6.7570   22.0560  -32.2110 C   0  0  0  0  0  0  0  0  0  0  0  0
   -7.6250   23.0910  -31.8930 O   0  0  0  0  0  0  0  0  0  0  0  0
   -7.3030   20.8090  -32.5300 C   0  0  0  0  0  0  0  0  0  0  0  0
   -6.4760   19.7210  -32.8410 C   0  0  0  0  0  0  0  0  0  0  0  0
   -7.0920   18.3710  -33.1160 C   0  0  0  0  0  0  0  0  0  0  0  0
   -6.9456   15.7152  -33.0070 H   0  0  0  0  0  0  0  0  0  0  0  0
   -7.6967   16.2358  -34.5534 H   0  0  0  0  0  0  0  0  0  0  0  0
   -6.0565   15.5035  -34.5534 H   0  0  0  0  0  0  0  0  0  0  0  0
   -5.0856   17.1139  -32.0561 H   0  0  0  0  0  0  0  0  0  0  0  0
   -4.2498   16.6191  -33.5687 H   0  0  0  0  0  0  0  0  0  0  0  0
   -3.3240   18.7142  -32.4283 H   0  0  0  0  0  0  0  0  0  0  0  0
   -3.7962   18.8975  -34.1698 H   0  0  0  0  0  0  0  0  0  0  0  0
   -3.4391   21.2547  -32.4657 H   0  0  0  0  0  0  0  0  0  0  0  0
   -3.7740   21.4341  -29.7514 H   0  0  0  0  0  0  0  0  0  0  0  0
    0.1301   21.8393  -27.9362 H   0  0  0  0  0  0  0  0  0  0  0  0
    0.0226   24.3127  -28.2483 H   0  0  0  0  0  0  0  0  0  0  0  0
   -8.3954   20.6802  -32.5370 H   0  0  0  0  0  0  0  0  0  0  0  0
   -7.3634   17.9003  -32.1596 H   0  0  0  0  0  0  0  0  0  0  0  0
   -7.9818   18.5191  -33.7455 H   0  0  0  0  0  0  0  0  0  0  0  0
  1  2  1  0
  2  3  1  0
  3  4  1  0
  4  5  1  0
  5  6  2  0
  6  7  1  0
  7  8  1  0
  8  9  1  0
  9 10  2  0
  9 11  2  0
  9 12  1  0
 12 13  2  0
 13 14  1  0
 14 15  1  0
 14 16  2  0
 16 17  1  0
 17 18  2  0
 18 19  1  0
  7 20  2  0
 20 21  1  0
 20 22  1  0
 22 23  2  0
 23 24  1  0
 24  2  1  0
 23  5  1  0
 18 12  1  0
  1 25  1  0
  1 26  1  0
  1 27  1  0
  3 28  1  0
  3 29  1  0
  4 30  1  0
  4 31  1  0
  6 32  1  0
 13 33  1  0
 16 34  1  0
 17 35  1  0
 22 36  1  0
 24 37  1  0
 24 38  1  0
M  CHG  4   8  -1  15  -1  19  -1  21  -1
M  END
>  <UniqueID>  (49) 
49

>  <SMILES>  (49) 
CN1CCc2cc([N-]S(=O)(=O)c3cc([O-])ccc3[O-])c([O-])cc2C1

>  <Energy>  (49) 
50.63976172041705

>  <Genealogy>  (49) 
CN1CCc2cc([N-]S(=O)(=O)c3cc([O-])ccc3[O-])c([O-])cc2C1 (protonated)
CN1CCc2cc([N-]S(=O)(=O)c3cc([O-])ccc3[O-])c([O-])cc2C1 (3D coordinates assigned)
CN1CCc2cc([N-]S(=O)(=O)c3cc([O-])ccc3[O-])c([O-])cc2C1 (nonaromatic ring conformer: 50.63976172041705 kcal/mol)

>  <smiles>  (49) 
CN1CCc2cc(NS(=O)(=O)c3cc(O)ccc3O)c(O)cc2C1

>  <score_type>  (49) 
oracle

>  <origin>  (49) 
adgpu

>  <m_score__min__energy>  (49) 
-13.49

>  <m_primary>  (49) 
energy

$$$$
