0:0
     RDKit          3D

 29 31  0  0  0  0  0  0  0  0999 V2000
   -5.1640   25.8380  -31.2070 H   0  0  0  0  0  0  0  0  0  0  0  0
   -4.2010   25.6740  -30.8410 N   0  0  0  0  0  0  0  0  0  0  0  0
   -3.8730   24.7140  -30.0320 C   0  0  0  0  0  0  0  0  0  0  0  0
   -2.5760   24.6190  -29.6350 N   0  0  0  0  0  0  0  0  0  0  0  0
   -2.1570   23.6400  -28.7920 C   0  0  0  0  0  0  0  0  0  0  0  0
   -0.8160   23.5610  -28.4000 C   0  0  0  0  0  0  0  0  0  0  0  0
   -0.0881   24.2971  -28.7718 H   0  0  0  0  0  0  0  0  0  0  0  0
   -0.4040   22.5420  -27.5330 C   0  0  0  0  0  0  0  0  0  0  0  0
    0.6491   22.4793  -27.2215 H   0  0  0  0  0  0  0  0  0  0  0  0
   -1.3290   21.6020  -27.0610 C   0  0  0  0  0  0  0  0  0  0  0  0
   -0.9999   20.8014  -26.3822 H   0  0  0  0  0  0  0  0  0  0  0  0
   -2.6710   21.6790  -27.4510 C   0  0  0  0  0  0  0  0  0  0  0  0
   -3.3972   20.9417  -27.0780 H   0  0  0  0  0  0  0  0  0  0  0  0
   -3.0860   22.6970  -28.3170 C   0  0  0  0  0  0  0  0  0  0  0  0
   -4.3830   22.7870  -28.7090 N   0  0  0  0  0  0  0  0  0  0  0  0
   -4.8140   23.7670  -29.5500 C   0  0  0  0  0  0  0  0  0  0  0  0
   -6.2670   23.7620  -29.9520 C   0  0  0  0  0  0  0  0  0  0  0  0
   -6.8121   23.0410  -29.3251 H   0  0  0  0  0  0  0  0  0  0  0  0
   -6.6745   24.7744  -29.8139 H   0  0  0  0  0  0  0  0  0  0  0  0
   -6.4200   23.3740  -31.3960 C   0  0  0  0  0  0  0  0  0  0  0  0
   -5.8560   24.0700  -32.2830 O   0  0  0  0  0  0  0  0  0  0  0  0
   -7.1890   22.1860  -31.8070 C   0  0  0  0  0  0  0  0  0  0  0  0
   -6.6850   21.2130  -32.5300 O   0  0  0  0  0  0  0  0  0  0  0  0
   -7.6150   20.3070  -32.7260 C   0  0  0  0  0  0  0  0  0  0  0  0
   -7.4824   19.3766  -33.2977 H   0  0  0  0  0  0  0  0  0  0  0  0
   -8.7840   20.6990  -32.1060 C   0  0  0  0  0  0  0  0  0  0  0  0
   -9.7387   20.1529  -32.0895 H   0  0  0  0  0  0  0  0  0  0  0  0
   -8.5140   21.9120  -31.5120 C   0  0  0  0  0  0  0  0  0  0  0  0
   -9.2066   22.5336  -30.9255 H   0  0  0  0  0  0  0  0  0  0  0  0
  1  2  1  0
  2  3  2  0
  3  4  1  0
  4  5  1  0
  5  6  2  0
  6  7  1  0
  6  8  1  0
  8  9  1  0
  8 10  2  0
 10 11  1  0
 10 12  1  0
 12 13  1  0
 12 14  2  0
 14 15  1  0
 15 16  2  0
 16 17  1  0
 17 18  1  0
 17 19  1  0
 17 20  1  0
 20 21  2  0
 20 22  1  0
 22 23  1  0
 23 24  1  0
 24 25  1  0
 24 26  2  0
 26 27  1  0
 26 28  1  0
 28 29  1  0
 16  3  1  0
 28 22  2  0
 14  5  1  0
M  CHG  1   4  -1
M  END
>  <UniqueID>  (1) 
1

>  <SMILES>  (1) 
[H]/N=c1/[n-]c2ccccc2nc1CC(=O)c1ccco1

>  <Energy>  (1) 
61.29926867655155

>  <Genealogy>  (1) 
N=c1[n-]c2ccccc2nc1CC(=O)c1ccco1 (protonated)
[H]/N=c1/[n-]c2ccccc2nc1CC(=O)c1ccco1 (cis-trans isomerization)
[H]/N=c1/[n-]c2ccccc2nc1CC(=O)c1ccco1 (3D coordinates assigned)
[H]/N=c1/[n-]c2ccccc2nc1CC(=O)c1ccco1 (optimized conformer: 61.29926867655155 kcal/mol)

>  <smiles>  (1) 
N=c1[nH]c2ccccc2nc1CC(=O)c1ccco1

>  <score_type>  (1) 
oracle

>  <origin>  (1) 
adgpu

>  <m_score__min__energy>  (1) 
-8.6899999999999995

>  <m_primary>  (1) 
energy

$$$$
1:0
     RDKit          3D

 55 58  0  0  0  0  0  0  0  0999 V2000
   -5.7390   26.3130  -31.1930 O   0  0  0  0  0  0  0  0  0  0  0  0
   -5.3310   25.1110  -30.3930 S   0  0  0  0  0  0  0  0  0  0  0  0
   -5.7530   25.3070  -28.9610 O   0  0  0  0  0  0  0  0  0  0  0  0
   -3.6000   24.9260  -30.4700 N   0  0  0  0  0  0  0  0  0  0  0  0
   -2.8380   24.1600  -29.5210 C   0  0  0  0  0  0  0  0  0  0  0  0
   -3.2150   22.8520  -29.1490 C   0  0  0  0  0  0  0  0  0  0  0  0
   -2.4130   22.0880  -28.2850 C   0  0  0  0  0  0  0  0  0  0  0  0
   -1.2240   22.6430  -27.7780 C   0  0  0  0  0  0  0  0  0  0  0  0
   -0.8680   23.9610  -28.1150 C   0  0  0  0  0  0  0  0  0  0  0  0
   -1.6730   24.7170  -28.9780 C   0  0  0  0  0  0  0  0  0  0  0  0
   -1.2970   26.0180  -29.3150 O   0  0  0  0  0  0  0  0  0  0  0  0
   -0.3280   21.8060  -26.9130 C   0  0  0  0  0  0  0  0  0  0  0  0
   -1.1800   20.9560  -25.9720 C   0  0  0  0  0  0  0  0  0  0  0  0
   -2.1110   20.0170  -26.7550 C   0  0  0  0  0  0  0  0  0  0  0  0
   -2.7790   20.6370  -28.0100 C   0  0  0  0  0  0  0  0  0  0  0  0
   -6.0820   23.6790  -31.0910 C   0  0  0  0  0  0  0  0  0  0  0  0
   -7.4690   23.6550  -31.2830 C   0  0  0  0  0  0  0  0  0  0  0  0
   -8.0680   22.5730  -31.9290 C   0  0  0  0  0  0  0  0  0  0  0  0
   -7.2860   21.5090  -32.4050 C   0  0  0  0  0  0  0  0  0  0  0  0
   -7.8960   20.4500  -33.0760 O   0  0  0  0  0  0  0  0  0  0  0  0
   -5.8920   21.5200  -32.2020 C   0  0  0  0  0  0  0  0  0  0  0  0
   -4.8620   20.2080  -32.7920 S   0  0  0  0  0  0  0  0  0  0  0  0
   -4.9060   19.0550  -31.8240 O   0  0  0  0  0  0  0  0  0  0  0  0
   -5.3980   19.7220  -34.1090 O   0  0  0  0  0  0  0  0  0  0  0  0
   -3.2140   20.7340  -33.0070 N   0  0  0  0  0  0  0  0  0  0  0  0
   -2.4940   19.8180  -33.9250 C   0  0  0  0  0  0  0  0  0  0  0  0
   -0.9690   20.0720  -33.9330 C   0  0  0  0  0  0  0  0  0  0  0  0
   -0.6140   21.4270  -33.2990 C   0  0  0  0  0  0  0  0  0  0  0  0
   -1.1680   21.5330  -31.8630 C   0  0  0  0  0  0  0  0  0  0  0  0
   -2.5280   20.8220  -31.7040 C   0  0  0  0  0  0  0  0  0  0  0  0
   -5.3030   22.6020  -31.5310 C   0  0  0  0  0  0  0  0  0  0  0  0
   -4.1498   22.4248  -29.5410 H   0  0  0  0  0  0  0  0  0  0  0  0
    0.0494   24.4021  -27.6981 H   0  0  0  0  0  0  0  0  0  0  0  0
    0.2850   21.1488  -27.5473 H   0  0  0  0  0  0  0  0  0  0  0  0
    0.3290   22.4613  -26.3224 H   0  0  0  0  0  0  0  0  0  0  0  0
   -0.5166   20.3529  -25.3347 H   0  0  0  0  0  0  0  0  0  0  0  0
   -1.7999   21.6295  -25.3620 H   0  0  0  0  0  0  0  0  0  0  0  0
   -1.5210   19.1471  -27.0794 H   0  0  0  0  0  0  0  0  0  0  0  0
   -2.9323   19.7631  -26.0687 H   0  0  0  0  0  0  0  0  0  0  0  0
   -2.4826   20.0391  -28.8844 H   0  0  0  0  0  0  0  0  0  0  0  0
   -3.8621   20.6251  -27.8183 H   0  0  0  0  0  0  0  0  0  0  0  0
   -8.0874   24.4908  -30.9238 H   0  0  0  0  0  0  0  0  0  0  0  0
   -9.1593   22.5537  -32.0660 H   0  0  0  0  0  0  0  0  0  0  0  0
   -7.5230   20.0900  -33.9490 H   0  0  0  0  0  0  0  0  0  0  0  0
   -2.6780   18.7814  -33.6061 H   0  0  0  0  0  0  0  0  0  0  0  0
   -2.8699   19.9988  -34.9428 H   0  0  0  0  0  0  0  0  0  0  0  0
   -0.4715   19.2718  -33.3654 H   0  0  0  0  0  0  0  0  0  0  0  0
   -0.6292   20.0838  -34.9791 H   0  0  0  0  0  0  0  0  0  0  0  0
    0.4804   21.5340  -33.2702 H   0  0  0  0  0  0  0  0  0  0  0  0
   -1.0658   22.2250  -33.9065 H   0  0  0  0  0  0  0  0  0  0  0  0
   -0.4464   21.0742  -31.1711 H   0  0  0  0  0  0  0  0  0  0  0  0
   -1.3185   22.5994  -31.6392 H   0  0  0  0  0  0  0  0  0  0  0  0
   -2.3637   19.8078  -31.3110 H   0  0  0  0  0  0  0  0  0  0  0  0
   -3.1545   21.3986  -31.0075 H   0  0  0  0  0  0  0  0  0  0  0  0
   -4.2182   22.6043  -31.3487 H   0  0  0  0  0  0  0  0  0  0  0  0
  1  2  2  0
  2  3  2  0
  2  4  1  0
  4  5  1  0
  5  6  2  0
  6  7  1  0
  7  8  2  0
  8  9  1  0
  9 10  2  0
 10 11  1  0
  8 12  1  0
 12 13  1  0
 13 14  1  0
 14 15  1  0
  2 16  1  0
 16 17  2  0
 17 18  1  0
 18 19  2  0
 19 20  1  0
 19 21  1  0
 21 22  1  0
 22 23  2  0
 22 24  2  0
 22 25  1  0
 25 26  1  0
 26 27  1  0
 27 28  1  0
 28 29  1  0
 29 30  1  0
 21 31  2  0
 10  5  1  0
 31 16  1  0
 15  7  1  0
 30 25  1  0
  6 32  1  0
  9 33  1  0
 12 34  1  0
 12 35  1  0
 13 36  1  0
 13 37  1  0
 14 38  1  0
 14 39  1  0
 15 40  1  0
 15 41  1  0
 17 42  1  0
 18 43  1  0
 20 44  1  0
 26 45  1  0
 26 46  1  0
 27 47  1  0
 27 48  1  0
 28 49  1  0
 28 50  1  0
 29 51  1  0
 29 52  1  0
 30 53  1  0
 30 54  1  0
 31 55  1  0
M  CHG  2   4  -1  11  -1
M  END
>  <UniqueID>  (2) 
2

>  <SMILES>  (2) 
O=S(=O)([N-]c1cc2c(cc1[O-])CCCC2)c1ccc(O)c(S(=O)(=O)N2CCCCC2)c1

>  <Energy>  (2) 
67.96030605072336

>  <Genealogy>  (2) 
O=S(=O)([N-]c1cc2c(cc1[O-])CCCC2)c1ccc(O)c(S(=O)(=O)N2CCCCC2)c1 (protonated)
O=S(=O)([N-]c1cc2c(cc1[O-])CCCC2)c1ccc(O)c(S(=O)(=O)N2CCCCC2)c1 (3D coordinates assigned)
O=S(=O)([N-]c1cc2c(cc1[O-])CCCC2)c1ccc(O)c(S(=O)(=O)N2CCCCC2)c1 (nonaromatic ring conformer: 67.96030605072336 kcal/mol)

>  <smiles>  (2) 
O=S(=O)(Nc1cc2c(cc1O)CCCC2)c1ccc(O)c(S(=O)(=O)N2CCCCC2)c1

>  <score_type>  (2) 
oracle

>  <origin>  (2) 
adgpu

>  <m_score__min__energy>  (2) 
-14.68

>  <m_primary>  (2) 
energy

$$$$
2:0
     RDKit          3D

 49 51  0  0  0  0  0  0  0  0999 V2000
   -0.5000   22.9490  -25.6840 C   0  0  0  0  0  0  0  0  0  0  0  0
   -0.7730   22.4390  -26.9850 O   0  0  0  0  0  0  0  0  0  0  0  0
   -1.8530   22.8460  -27.7840 C   0  0  0  0  0  0  0  0  0  0  0  0
   -3.1180   22.3100  -27.5160 C   0  0  0  0  0  0  0  0  0  0  0  0
   -4.2250   22.6830  -28.2830 C   0  0  0  0  0  0  0  0  0  0  0  0
   -4.0780   23.5990  -29.3340 C   0  0  0  0  0  0  0  0  0  0  0  0
   -5.4690   24.0980  -30.2960 S   0  0  0  0  0  0  0  0  0  0  0  0
   -4.9880   24.7620  -31.5560 O   0  0  0  0  0  0  0  0  0  0  0  0
   -6.2310   25.0970  -29.4750 O   0  0  0  0  0  0  0  0  0  0  0  0
   -6.4790   22.6960  -30.7170 C   0  0  0  0  0  0  0  0  0  0  0  0
   -7.7950   22.6740  -30.2270 C   0  0  0  0  0  0  0  0  0  0  0  0
   -8.6530   21.6140  -30.5140 C   0  0  0  0  0  0  0  0  0  0  0  0
   -8.2190   20.5420  -31.2910 C   0  0  0  0  0  0  0  0  0  0  0  0
   -9.1230   19.5030  -31.5550 O   0  0  0  0  0  0  0  0  0  0  0  0
   -8.7480   18.1910  -31.9600 C   0  0  0  0  0  0  0  0  0  0  0  0
   -6.8990   20.5370  -31.7740 C   0  0  0  0  0  0  0  0  0  0  0  0
   -6.0150   21.5950  -31.4900 C   0  0  0  0  0  0  0  0  0  0  0  0
   -4.3560   21.4660  -32.1140 S   0  0  0  0  0  0  0  0  0  0  0  0
   -3.3900   21.5090  -30.9630 O   0  0  0  0  0  0  0  0  0  0  0  0
   -4.0500   22.6230  -33.0220 O   0  0  0  0  0  0  0  0  0  0  0  0
   -4.1520   19.9950  -33.0610 C   0  0  0  0  0  0  0  0  0  0  0  0
   -5.2050   19.5350  -33.8630 C   0  0  0  0  0  0  0  0  0  0  0  0
   -5.0580   18.3680  -34.6160 C   0  0  0  0  0  0  0  0  0  0  0  0
   -3.8570   17.6420  -34.5690 C   0  0  0  0  0  0  0  0  0  0  0  0
   -3.6870   16.4080  -35.4050 C   0  0  0  0  0  0  0  0  0  0  0  0
   -2.7930   18.1210  -33.7890 C   0  0  0  0  0  0  0  0  0  0  0  0
   -2.9410   19.2900  -33.0370 C   0  0  0  0  0  0  0  0  0  0  0  0
   -2.8150   24.1420  -29.6040 C   0  0  0  0  0  0  0  0  0  0  0  0
   -1.7070   23.7690  -28.8380 C   0  0  0  0  0  0  0  0  0  0  0  0
   -0.8769   22.2449  -24.9276 H   0  0  0  0  0  0  0  0  0  0  0  0
    0.5858   23.0742  -25.5596 H   0  0  0  0  0  0  0  0  0  0  0  0
   -0.9979   23.9219  -25.5596 H   0  0  0  0  0  0  0  0  0  0  0  0
   -3.2418   21.5890  -26.6946 H   0  0  0  0  0  0  0  0  0  0  0  0
   -5.2145   22.2567  -28.0614 H   0  0  0  0  0  0  0  0  0  0  0  0
   -8.1547   23.5077  -29.6061 H   0  0  0  0  0  0  0  0  0  0  0  0
   -9.6814   21.6237  -30.1238 H   0  0  0  0  0  0  0  0  0  0  0  0
   -8.5703   17.5693  -31.0701 H   0  0  0  0  0  0  0  0  0  0  0  0
   -9.5555   17.7481  -32.5614 H   0  0  0  0  0  0  0  0  0  0  0  0
   -7.8284   18.2417  -32.5614 H   0  0  0  0  0  0  0  0  0  0  0  0
   -6.5505   19.6912  -32.3849 H   0  0  0  0  0  0  0  0  0  0  0  0
   -6.1510   20.0952  -33.8996 H   0  0  0  0  0  0  0  0  0  0  0  0
   -5.8864   18.0162  -35.2484 H   0  0  0  0  0  0  0  0  0  0  0  0
   -3.5666   15.5339  -34.7482 H   0  0  0  0  0  0  0  0  0  0  0  0
   -4.5746   16.2701  -36.0399 H   0  0  0  0  0  0  0  0  0  0  0  0
   -2.7951   16.5152  -36.0399 H   0  0  0  0  0  0  0  0  0  0  0  0
   -1.8387   17.5742  -33.7694 H   0  0  0  0  0  0  0  0  0  0  0  0
   -2.1045   19.6577  -32.4246 H   0  0  0  0  0  0  0  0  0  0  0  0
   -2.6947   24.8659  -30.4234 H   0  0  0  0  0  0  0  0  0  0  0  0
   -0.7182   24.1974  -29.0588 H   0  0  0  0  0  0  0  0  0  0  0  0
  1  2  1  0
  2  3  1  0
  3  4  2  0
  4  5  1  0
  5  6  2  0
  6  7  1  0
  7  8  2  0
  7  9  2  0
  7 10  1  0
 10 11  2  0
 11 12  1  0
 12 13  2  0
 13 14  1  0
 14 15  1  0
 13 16  1  0
 16 17  2  0
 17 18  1  0
 18 19  2  0
 18 20  2  0
 18 21  1  0
 21 22  2  0
 22 23  1  0
 23 24  2  0
 24 25  1  0
 24 26  1  0
 26 27  2  0
  6 28  1  0
 28 29  2  0
 29  3  1  0
 17 10  1  0
 27 21  1  0
  1 30  1  0
  1 31  1  0
  1 32  1  0
  4 33  1  0
  5 34  1  0
 11 35  1  0
 12 36  1  0
 15 37  1  0
 15 38  1  0
 15 39  1  0
 16 40  1  0
 22 41  1  0
 23 42  1  0
 25 43  1  0
 25 44  1  0
 25 45  1  0
 26 46  1  0
 27 47  1  0
 28 48  1  0
 29 49  1  0
M  END
>  <UniqueID>  (3) 
3

>  <SMILES>  (3) 
COc1ccc(S(=O)(=O)c2ccc(OC)cc2S(=O)(=O)c2ccc(C)cc2)cc1

>  <Energy>  (3) 
57.32302936184026

>  <Genealogy>  (3) 
COc1ccc(S(=O)(=O)c2ccc(OC)cc2S(=O)(=O)c2ccc(C)cc2)cc1 (3D coordinates assigned)
COc1ccc(S(=O)(=O)c2ccc(OC)cc2S(=O)(=O)c2ccc(C)cc2)cc1 (optimized conformer: 57.32302936184026 kcal/mol)

>  <smiles>  (3) 
COc1ccc(S(=O)(=O)c2ccc(OC)cc2S(=O)(=O)c2ccc(C)cc2)cc1

>  <score_type>  (3) 
oracle

>  <origin>  (3) 
adgpu

>  <m_score__min__energy>  (3) 
-8.9600000000000009

>  <m_primary>  (3) 
energy

$$$$
3:0
     RDKit          3D

 48 50  0  0  0  0  0  0  0  0999 V2000
   -3.0430   18.5080  -24.8270 H   0  0  0  0  0  0  0  0  0  0  0  0
   -2.9100   18.5110  -25.8300 O   0  0  0  0  0  0  0  0  0  0  0  0
   -1.6860   18.1740  -26.3640 N   0  0  0  0  0  0  0  0  0  0  0  0
   -1.0590   18.9300  -27.2150 C   0  0  0  0  0  0  0  0  0  0  0  0
   -1.6290   20.2200  -27.6790 C   0  0  0  0  0  0  0  0  0  0  0  0
   -1.0440   21.4400  -27.2980 C   0  0  0  0  0  0  0  0  0  0  0  0
   -0.1603   21.4419  -26.6429 H   0  0  0  0  0  0  0  0  0  0  0  0
   -1.5790   22.6510  -27.7470 C   0  0  0  0  0  0  0  0  0  0  0  0
   -1.1192   23.6012  -27.4379 H   0  0  0  0  0  0  0  0  0  0  0  0
   -2.6970   22.6590  -28.5880 C   0  0  0  0  0  0  0  0  0  0  0  0
   -3.3890   24.1930  -29.1100 S   0  0  0  0  0  0  0  0  0  0  0  0
   -4.5780   24.5150  -28.2500 O   0  0  0  0  0  0  0  0  0  0  0  0
   -2.3790   25.2950  -28.9540 O   0  0  0  0  0  0  0  0  0  0  0  0
   -3.8980   24.0870  -30.7720 N   0  0  0  0  0  0  0  0  0  0  0  0
   -3.5420   24.9400  -31.2620 H   0  0  0  0  0  0  0  0  0  0  0  0
   -5.3650   23.9520  -30.8910 C   0  0  1  0  0  0  0  0  0  0  0  0
   -5.7124   23.2520  -30.1169 H   0  0  0  0  0  0  0  0  0  0  0  0
   -6.0780   25.3030  -30.6650 C   0  0  0  0  0  0  0  0  0  0  0  0
   -6.6643   25.5553  -31.5609 H   0  0  0  0  0  0  0  0  0  0  0  0
   -6.7366   25.2111  -29.7888 H   0  0  0  0  0  0  0  0  0  0  0  0
   -5.1480   26.3240  -30.4220 O   0  0  0  0  0  0  0  0  0  0  0  0
   -4.4950   25.9630  -29.7680 H   0  0  0  0  0  0  0  0  0  0  0  0
   -5.7100   23.4160  -32.2920 C   0  0  0  0  0  0  0  0  0  0  0  0
   -6.6939   23.8057  -32.5922 H   0  0  0  0  0  0  0  0  0  0  0  0
   -4.9291   23.7479  -32.9921 H   0  0  0  0  0  0  0  0  0  0  0  0
   -5.7530   21.9160  -32.3080 C   0  0  0  0  0  0  0  0  0  0  0  0
   -4.6850   21.0630  -32.5740 C   0  0  0  0  0  0  0  0  0  0  0  0
   -3.6472   21.3888  -32.7375 H   0  0  0  0  0  0  0  0  0  0  0  0
   -5.1040   19.7770  -32.6030 N   0  0  0  0  0  0  0  0  0  0  0  0
   -4.5180   18.9330  -32.7900 H   0  0  0  0  0  0  0  0  0  0  0  0
   -6.4280   19.8110  -32.3700 C   0  0  0  0  0  0  0  0  0  0  0  0
   -7.3080   18.7310  -32.3360 C   0  0  0  0  0  0  0  0  0  0  0  0
   -6.9494   17.7017  -32.4844 H   0  0  0  0  0  0  0  0  0  0  0  0
   -8.6690   18.9990  -32.1060 C   0  0  0  0  0  0  0  0  0  0  0  0
   -9.3900   18.1692  -32.0675 H   0  0  0  0  0  0  0  0  0  0  0  0
   -9.1170   20.3260  -31.9240 C   0  0  0  0  0  0  0  0  0  0  0  0
  -10.1849   20.5224  -31.7481 H   0  0  0  0  0  0  0  0  0  0  0  0
   -8.2080   21.3980  -31.9660 C   0  0  0  0  0  0  0  0  0  0  0  0
   -8.5457   22.4358  -31.8287 H   0  0  0  0  0  0  0  0  0  0  0  0
   -6.8620   21.1000  -32.1880 C   0  0  0  0  0  0  0  0  0  0  0  0
   -3.2770   21.4460  -28.9810 C   0  0  0  0  0  0  0  0  0  0  0  0
   -4.1559   21.4470  -29.6424 H   0  0  0  0  0  0  0  0  0  0  0  0
   -2.7420   20.2350  -28.5350 C   0  0  0  0  0  0  0  0  0  0  0  0
   -3.1960   19.2862  -28.8568 H   0  0  0  0  0  0  0  0  0  0  0  0
    0.2190   18.4240  -27.8110 C   0  0  0  0  0  0  0  0  0  0  0  0
    0.9154   18.1483  -27.0054 H   0  0  0  0  0  0  0  0  0  0  0  0
    0.0093   17.5410  -28.4326 H   0  0  0  0  0  0  0  0  0  0  0  0
    0.6706   19.2112  -28.4326 H   0  0  0  0  0  0  0  0  0  0  0  0
  1  2  1  0
  2  3  1  0
  3  4  2  0
  4  5  1  0
  5  6  2  0
  6  7  1  0
  6  8  1  0
  8  9  1  0
  8 10  2  0
 10 11  1  0
 11 12  2  0
 11 13  2  0
 11 14  1  0
 14 15  1  0
 14 16  1  0
 16 17  1  1
 16 18  1  0
 18 19  1  0
 18 20  1  0
 18 21  1  0
 21 22  1  0
 16 23  1  0
 23 24  1  0
 23 25  1  0
 23 26  1  0
 26 27  2  0
 27 28  1  0
 27 29  1  0
 29 30  1  0
 29 31  1  0
 31 32  2  0
 32 33  1  0
 32 34  1  0
 34 35  1  0
 34 36  2  0
 36 37  1  0
 36 38  1  0
 38 39  1  0
 38 40  2  0
 10 41  1  0
 41 42  1  0
 41 43  2  0
 43 44  1  0
  4 45  1  0
 45 46  1  0
 45 47  1  0
 45 48  1  0
 43  5  1  0
 40 26  1  0
 40 31  1  0
M  END
>  <UniqueID>  (4) 
4

>  <SMILES>  (4) 
C/C(=N/O)c1ccc(S(=O)(=O)N[C@@H](CO)Cc2c[nH]c3ccccc23)cc1

>  <Energy>  (4) 
80.76342649361534

>  <Genealogy>  (4) 
CC(=NO)c1ccc(S(=O)(=O)N[C@@H](CO)Cc2c[nH]c3ccccc23)cc1 (chirality)
C/C(=N/O)c1ccc(S(=O)(=O)N[C@@H](CO)Cc2c[nH]c3ccccc23)cc1 (cis-trans isomerization)
C/C(=N/O)c1ccc(S(=O)(=O)N[C@@H](CO)Cc2c[nH]c3ccccc23)cc1 (3D coordinates assigned)
C/C(=N/O)c1ccc(S(=O)(=O)N[C@@H](CO)Cc2c[nH]c3ccccc23)cc1 (optimized conformer: 80.76342649361534 kcal/mol)

>  <smiles>  (4) 
CC(=NO)c1ccc(S(=O)(=O)NC(CO)Cc2c[nH]c3ccccc23)cc1

>  <score_type>  (4) 
oracle

>  <origin>  (4) 
adgpu

>  <m_score__min__energy>  (4) 
-10.220000000000001

>  <m_primary>  (4) 
energy

$$$$
4:0
     RDKit          3D

 58 61  0  0  0  0  0  0  0  0999 V2000
   -0.4510   23.1060  -28.7300 C   0  0  0  0  0  0  0  0  0  0  0  0
   -0.5910   21.6130  -28.6570 C   0  0  0  0  0  0  0  0  0  0  0  0
   -1.2960   21.0190  -27.5970 C   0  0  0  0  0  0  0  0  0  0  0  0
   -1.4180   19.6310  -27.5140 C   0  0  0  0  0  0  0  0  0  0  0  0
   -2.1990   19.0140  -26.3870 C   0  0  0  0  0  0  0  0  0  0  0  0
   -0.8260   18.8160  -28.4960 C   0  0  0  0  0  0  0  0  0  0  0  0
   -0.1370   19.4050  -29.5720 C   0  0  0  0  0  0  0  0  0  0  0  0
    0.5790   18.3850  -30.8260 S   0  0  0  0  0  0  0  0  0  0  0  0
   -0.1160   17.0480  -30.8710 O   0  0  0  0  0  0  0  0  0  0  0  0
    2.0310   18.1470  -30.4940 O   0  0  0  0  0  0  0  0  0  0  0  0
    0.4490   19.1630  -32.4150 C   0  0  0  0  0  0  0  0  0  0  0  0
    1.0050   20.4480  -32.5630 C   0  0  0  0  0  0  0  0  0  0  0  0
    0.9980   21.0970  -33.7970 C   0  0  0  0  0  0  0  0  0  0  0  0
    0.4480   20.4660  -34.9070 C   0  0  0  0  0  0  0  0  0  0  0  0
   -0.1220   19.1950  -34.7830 C   0  0  0  0  0  0  0  0  0  0  0  0
   -0.1530   18.5330  -33.5410 C   0  0  0  0  0  0  0  0  0  0  0  0
   -0.8720   17.2330  -33.4680 C   0  0  0  0  0  0  0  0  0  0  0  0
   -0.2230   16.1720  -33.2500 O   0  0  0  0  0  0  0  0  0  0  0  0
   -2.2780   17.1560  -33.7370 N   0  0  0  0  0  0  0  0  0  0  0  0
   -3.2480   18.1080  -33.2950 C   0  0  0  0  0  0  0  0  0  0  0  0
   -4.5980   17.7310  -33.2390 C   0  0  0  0  0  0  0  0  0  0  0  0
   -5.5510   18.5780  -32.6630 C   0  0  0  0  0  0  0  0  0  0  0  0
   -7.3850   18.0170  -32.5760 Br  0  0  0  0  0  0  0  0  0  0  0  0
   -5.1540   19.8090  -32.1200 C   0  0  0  0  0  0  0  0  0  0  0  0
   -6.1100   20.6420  -31.5350 O   0  0  0  0  0  0  0  0  0  0  0  0
   -3.7970   20.1910  -32.1620 C   0  0  0  0  0  0  0  0  0  0  0  0
   -3.2280   21.6570  -31.3420 S   0  0  0  0  0  0  0  0  0  0  0  0
   -1.7390   21.8440  -31.5330 O   0  0  0  0  0  0  0  0  0  0  0  0
   -3.5260   21.5310  -29.8640 O   0  0  0  0  0  0  0  0  0  0  0  0
   -4.0530   23.0540  -31.9730 N   0  0  0  0  0  0  0  0  0  0  0  0
   -5.1190   23.7540  -31.3010 C   0  0  0  0  0  0  0  0  0  0  0  0
   -6.4670   23.3330  -31.3750 C   0  0  0  0  0  0  0  0  0  0  0  0
   -7.4520   23.9440  -30.5790 C   0  0  0  0  0  0  0  0  0  0  0  0
   -7.1150   25.0070  -29.7410 C   0  0  0  0  0  0  0  0  0  0  0  0
   -5.7930   25.4700  -29.7110 C   0  0  0  0  0  0  0  0  0  0  0  0
   -4.7940   24.8450  -30.4840 C   0  0  0  0  0  0  0  0  0  0  0  0
   -3.4750   25.3020  -30.4260 O   0  0  0  0  0  0  0  0  0  0  0  0
   -2.8600   19.3560  -32.7890 C   0  0  0  0  0  0  0  0  0  0  0  0
   -0.0390   20.8010  -29.6590 C   0  0  0  0  0  0  0  0  0  0  0  0
   -0.4121   23.5208  -27.7120 H   0  0  0  0  0  0  0  0  0  0  0  0
    0.4751   23.3617  -29.2658 H   0  0  0  0  0  0  0  0  0  0  0  0
   -1.3134   23.5294  -29.2658 H   0  0  0  0  0  0  0  0  0  0  0  0
   -1.7561   21.6536  -26.8253 H   0  0  0  0  0  0  0  0  0  0  0  0
   -1.7795   19.3454  -25.4257 H   0  0  0  0  0  0  0  0  0  0  0  0
   -3.2512   19.3274  -26.4554 H   0  0  0  0  0  0  0  0  0  0  0  0
   -2.1377   17.9178  -26.4554 H   0  0  0  0  0  0  0  0  0  0  0  0
   -0.9016   17.7210  -28.4228 H   0  0  0  0  0  0  0  0  0  0  0  0
    1.4521   20.9479  -31.6911 H   0  0  0  0  0  0  0  0  0  0  0  0
    1.4265   22.1056  -33.8920 H   0  0  0  0  0  0  0  0  0  0  0  0
    0.4612   20.9680  -35.8857 H   0  0  0  0  0  0  0  0  0  0  0  0
   -0.5525   18.7053  -35.6690 H   0  0  0  0  0  0  0  0  0  0  0  0
   -4.9102   16.7604  -33.6518 H   0  0  0  0  0  0  0  0  0  0  0  0
   -6.7474   22.5204  -32.0613 H   0  0  0  0  0  0  0  0  0  0  0  0
   -8.4904   23.5830  -30.6172 H   0  0  0  0  0  0  0  0  0  0  0  0
   -7.8816   25.4783  -29.1084 H   0  0  0  0  0  0  0  0  0  0  0  0
   -5.5320   26.3305  -29.0774 H   0  0  0  0  0  0  0  0  0  0  0  0
   -1.8140   19.6830  -32.8841 H   0  0  0  0  0  0  0  0  0  0  0  0
    0.4730   21.2616  -30.5168 H   0  0  0  0  0  0  0  0  0  0  0  0
  1  2  1  0
  2  3  2  0
  3  4  1  0
  4  5  1  0
  4  6  2  0
  6  7  1  0
  7  8  1  0
  8  9  2  0
  8 10  2  0
  8 11  1  0
 11 12  2  0
 12 13  1  0
 13 14  2  0
 14 15  1  0
 15 16  2  0
 16 17  1  0
 17 18  2  0
 17 19  1  0
 19 20  1  0
 20 21  2  0
 21 22  1  0
 22 23  1  0
 22 24  2  0
 24 25  1  0
 24 26  1  0
 26 27  1  0
 27 28  2  0
 27 29  2  0
 27 30  1  0
 30 31  1  0
 31 32  2  0
 32 33  1  0
 33 34  2  0
 34 35  1  0
 35 36  2  0
 36 37  1  0
 26 38  2  0
  7 39  2  0
 39  2  1  0
 16 11  1  0
 38 20  1  0
 36 31  1  0
  1 40  1  0
  1 41  1  0
  1 42  1  0
  3 43  1  0
  5 44  1  0
  5 45  1  0
  5 46  1  0
  6 47  1  0
 12 48  1  0
 13 49  1  0
 14 50  1  0
 15 51  1  0
 21 52  1  0
 32 53  1  0
 33 54  1  0
 34 55  1  0
 35 56  1  0
 38 57  1  0
 39 58  1  0
M  CHG  4  19  -1  25  -1  30  -1  37  -1
M  END
>  <UniqueID>  (5) 
5

>  <SMILES>  (5) 
Cc1cc(C)cc(S(=O)(=O)c2ccccc2C(=O)[N-]c2cc(Br)c([O-])c(S(=O)(=O)[N-]c3ccccc3[O-])c2)c1

>  <Energy>  (5) 
75.44209308965512

>  <Genealogy>  (5) 
Cc1cc(C)cc(S(=O)(=O)c2ccccc2C(=O)[N-]c2cc(Br)c([O-])c(S(=O)(=O)[N-]c3ccccc3[O-])c2)c1 (protonated)
Cc1cc(C)cc(S(=O)(=O)c2ccccc2C(=O)[N-]c2cc(Br)c([O-])c(S(=O)(=O)[N-]c3ccccc3[O-])c2)c1 (3D coordinates assigned)
Cc1cc(C)cc(S(=O)(=O)c2ccccc2C(=O)[N-]c2cc(Br)c([O-])c(S(=O)(=O)[N-]c3ccccc3[O-])c2)c1 (optimized conformer: 75.44209308965512 kcal/mol)

>  <smiles>  (5) 
Cc1cc(C)cc(S(=O)(=O)c2ccccc2C(=O)Nc2cc(Br)c(O)c(S(=O)(=O)Nc3ccccc3O)c2)c1

>  <score_type>  (5) 
oracle

>  <origin>  (5) 
adgpu

>  <m_score__min__energy>  (5) 
-15.119999999999999

>  <m_primary>  (5) 
energy

$$$$
5:0
     RDKit          3D

 43 45  0  0  0  0  0  0  0  0999 V2000
    4.4190   24.9840  -23.0980 C   0  0  0  0  0  0  0  0  0  0  0  0
    3.5810   24.7260  -24.3460 C   0  0  0  0  0  0  0  0  0  0  0  0
    2.2130   24.3540  -23.9840 N   0  0  0  0  0  0  0  0  0  0  0  0
    1.0660   24.5010  -24.8450 C   0  0  0  0  0  0  0  0  0  0  0  0
    0.7160   25.7370  -25.4230 C   0  0  0  0  0  0  0  0  0  0  0  0
   -0.4060   25.8410  -26.2490 C   0  0  0  0  0  0  0  0  0  0  0  0
   -1.2130   24.7180  -26.5010 C   0  0  0  0  0  0  0  0  0  0  0  0
   -2.3590   24.7940  -27.3660 N   0  0  0  0  0  0  0  0  0  0  0  0
   -2.2750   24.9130  -28.7940 C   0  0  0  0  0  0  0  0  0  0  0  0
   -1.2440   25.4060  -29.3270 O   0  0  0  0  0  0  0  0  0  0  0  0
   -3.4140   24.5430  -29.6550 C   0  0  0  0  0  0  0  0  0  0  0  0
   -3.8950   25.3560  -30.6150 N   0  0  0  0  0  0  0  0  0  0  0  0
   -4.9030   24.7470  -31.2200 N   0  0  0  0  0  0  0  0  0  0  0  0
   -5.0810   23.5360  -30.6550 C   0  0  0  0  0  0  0  0  0  0  0  0
   -6.1270   22.5890  -31.0970 C   0  0  0  0  0  0  0  0  0  0  0  0
   -7.4160   22.6090  -30.5320 C   0  0  0  0  0  0  0  0  0  0  0  0
   -8.3960   21.7170  -30.9770 C   0  0  0  0  0  0  0  0  0  0  0  0
   -8.1050   20.8050  -31.9930 C   0  0  0  0  0  0  0  0  0  0  0  0
   -6.8340   20.7890  -32.5740 C   0  0  0  0  0  0  0  0  0  0  0  0
   -5.8510   21.6810  -32.1340 C   0  0  0  0  0  0  0  0  0  0  0  0
   -4.1290   23.3540  -29.6600 C   0  0  0  0  0  0  0  0  0  0  0  0
   -3.8510   22.1100  -28.8690 C   0  0  0  0  0  0  0  0  0  0  0  0
   -0.8580   23.4840  -25.9370 C   0  0  0  0  0  0  0  0  0  0  0  0
    0.2650   23.3800  -25.1100 C   0  0  0  0  0  0  0  0  0  0  0  0
    3.8094   24.7963  -22.2018 H   0  0  0  0  0  0  0  0  0  0  0  0
    5.2902   24.3125  -23.0961 H   0  0  0  0  0  0  0  0  0  0  0  0
    4.7617   26.0293  -23.0961 H   0  0  0  0  0  0  0  0  0  0  0  0
    3.5565   25.6389  -24.9593 H   0  0  0  0  0  0  0  0  0  0  0  0
    4.0344   23.8981  -24.9108 H   0  0  0  0  0  0  0  0  0  0  0  0
    2.0670   23.9660  -23.0240 H   0  0  0  0  0  0  0  0  0  0  0  0
    1.3307   26.6269  -25.2225 H   0  0  0  0  0  0  0  0  0  0  0  0
   -0.6598   26.8090  -26.7056 H   0  0  0  0  0  0  0  0  0  0  0  0
   -3.3030   24.8730  -26.9260 H   0  0  0  0  0  0  0  0  0  0  0  0
   -7.6534   23.3303  -29.7362 H   0  0  0  0  0  0  0  0  0  0  0  0
   -9.3989   21.7338  -30.5255 H   0  0  0  0  0  0  0  0  0  0  0  0
   -8.8758   20.0992  -32.3362 H   0  0  0  0  0  0  0  0  0  0  0  0
   -6.6066   20.0739  -33.3783 H   0  0  0  0  0  0  0  0  0  0  0  0
   -4.8557   21.6721  -32.6022 H   0  0  0  0  0  0  0  0  0  0  0  0
   -3.9023   22.3396  -27.7945 H   0  0  0  0  0  0  0  0  0  0  0  0
   -4.5999   21.3432  -29.1163 H   0  0  0  0  0  0  0  0  0  0  0  0
   -2.8469   21.7350  -29.1163 H   0  0  0  0  0  0  0  0  0  0  0  0
   -1.4668   22.5921  -26.1465 H   0  0  0  0  0  0  0  0  0  0  0  0
    0.5231   22.4089  -24.6625 H   0  0  0  0  0  0  0  0  0  0  0  0
  1  2  1  0
  2  3  1  0
  3  4  1  0
  4  5  2  0
  5  6  1  0
  6  7  2  0
  7  8  1  0
  8  9  1  0
  9 10  2  0
  9 11  1  0
 11 12  1  0
 12 13  1  0
 13 14  2  0
 14 15  1  0
 15 16  2  0
 16 17  1  0
 17 18  2  0
 18 19  1  0
 19 20  2  0
 14 21  1  0
 21 22  1  0
  7 23  1  0
 23 24  2  0
 24  4  1  0
 21 11  2  0
 20 15  1  0
  1 25  1  0
  1 26  1  0
  1 27  1  0
  2 28  1  0
  2 29  1  0
  3 30  1  0
  5 31  1  0
  6 32  1  0
  8 33  1  0
 16 34  1  0
 17 35  1  0
 18 36  1  0
 19 37  1  0
 20 38  1  0
 22 39  1  0
 22 40  1  0
 22 41  1  0
 23 42  1  0
 24 43  1  0
M  CHG  1  12  -1
M  END
>  <UniqueID>  (6) 
6

>  <SMILES>  (6) 
CCNc1ccc(NC(=O)c2[n-]nc(-c3ccccc3)c2C)cc1

>  <Energy>  (6) 
80.81132526003185

>  <Genealogy>  (6) 
CCNc1ccc(NC(=O)c2[n-]nc(-c3ccccc3)c2C)cc1 (protonated)
CCNc1ccc(NC(=O)c2[n-]nc(-c3ccccc3)c2C)cc1 (3D coordinates assigned)
CCNc1ccc(NC(=O)c2[n-]nc(-c3ccccc3)c2C)cc1 (optimized conformer: 80.81132526003185 kcal/mol)

>  <smiles>  (6) 
CCNc1ccc(NC(=O)c2[nH]nc(-c3ccccc3)c2C)cc1

>  <score_type>  (6) 
oracle

>  <origin>  (6) 
adgpu

>  <m_score__min__energy>  (6) 
-10.08

>  <m_primary>  (6) 
energy

$$$$
6:0
     RDKit          3D

 37 38  0  0  0  0  0  0  0  0999 V2000
   -8.9630   18.5530  -31.2360 C   0  0  0  0  0  0  0  0  0  0  0  0
   -8.6870   19.1060  -32.5680 N   0  0  0  0  0  0  0  0  0  0  0  0
   -9.3580   20.4030  -32.7220 C   0  0  0  0  0  0  0  0  0  0  0  0
   -6.9660   19.3190  -32.7660 S   0  0  0  0  0  0  0  0  0  0  0  0
   -6.5950   19.2240  -34.2220 O   0  0  0  0  0  0  0  0  0  0  0  0
   -6.2300   18.2430  -32.0150 O   0  0  0  0  0  0  0  0  0  0  0  0
   -6.4800   20.8860  -32.1240 C   0  0  0  0  0  0  0  0  0  0  0  0
   -5.3090   21.4960  -32.5910 C   0  0  0  0  0  0  0  0  0  0  0  0
   -4.8980   22.7240  -32.0660 C   0  0  0  0  0  0  0  0  0  0  0  0
   -5.6510   23.3500  -31.0640 C   0  0  0  0  0  0  0  0  0  0  0  0
   -5.1230   24.8800  -30.3740 S   0  0  0  0  0  0  0  0  0  0  0  0
   -5.6790   25.0050  -28.9850 O   0  0  0  0  0  0  0  0  0  0  0  0
   -5.6110   26.0340  -31.2040 O   0  0  0  0  0  0  0  0  0  0  0  0
   -3.3900   24.9300  -30.2990 N   0  0  0  0  0  0  0  0  0  0  0  0
   -2.5930   24.4070  -29.2280 C   0  0  0  0  0  0  0  0  0  0  0  0
   -2.8600   23.1550  -28.6410 C   0  0  0  0  0  0  0  0  0  0  0  0
   -2.0660   22.6840  -27.5910 C   0  0  0  0  0  0  0  0  0  0  0  0
   -0.9990   23.4530  -27.1190 C   0  0  0  0  0  0  0  0  0  0  0  0
   -0.7240   24.6940  -27.6990 C   0  0  0  0  0  0  0  0  0  0  0  0
   -1.5160   25.1700  -28.7490 C   0  0  0  0  0  0  0  0  0  0  0  0
   -1.2310   26.4090  -29.3150 O   0  0  0  0  0  0  0  0  0  0  0  0
   -6.8250   22.7400  -30.5990 C   0  0  0  0  0  0  0  0  0  0  0  0
   -7.2360   21.5120  -31.1240 C   0  0  0  0  0  0  0  0  0  0  0  0
   -8.6118   19.2567  -30.4669 H   0  0  0  0  0  0  0  0  0  0  0  0
  -10.0456   18.3951  -31.1216 H   0  0  0  0  0  0  0  0  0  0  0  0
   -8.4384   17.5930  -31.1216 H   0  0  0  0  0  0  0  0  0  0  0  0
   -9.5755   20.8235  -31.7291 H   0  0  0  0  0  0  0  0  0  0  0  0
   -8.7029   21.0913  -33.2761 H   0  0  0  0  0  0  0  0  0  0  0  0
  -10.2983   20.2659  -33.2761 H   0  0  0  0  0  0  0  0  0  0  0  0
   -4.7108   21.0067  -33.3738 H   0  0  0  0  0  0  0  0  0  0  0  0
   -3.9802   23.2008  -32.4407 H   0  0  0  0  0  0  0  0  0  0  0  0
   -3.6973   22.5447  -29.0104 H   0  0  0  0  0  0  0  0  0  0  0  0
   -2.2817   21.7062  -27.1356 H   0  0  0  0  0  0  0  0  0  0  0  0
   -0.3763   23.0817  -26.2917 H   0  0  0  0  0  0  0  0  0  0  0  0
    0.1174   25.2982  -27.3290 H   0  0  0  0  0  0  0  0  0  0  0  0
   -7.4247   23.2301  -29.8179 H   0  0  0  0  0  0  0  0  0  0  0  0
   -8.1549   21.0357  -30.7515 H   0  0  0  0  0  0  0  0  0  0  0  0
  1  2  1  0
  2  3  1  0
  2  4  1  0
  4  5  2  0
  4  6  2  0
  4  7  1  0
  7  8  2  0
  8  9  1  0
  9 10  2  0
 10 11  1  0
 11 12  2  0
 11 13  2  0
 11 14  1  0
 14 15  1  0
 15 16  2  0
 16 17  1  0
 17 18  2  0
 18 19  1  0
 19 20  2  0
 20 21  1  0
 10 22  1  0
 22 23  2  0
 23  7  1  0
 20 15  1  0
  1 24  1  0
  1 25  1  0
  1 26  1  0
  3 27  1  0
  3 28  1  0
  3 29  1  0
  8 30  1  0
  9 31  1  0
 16 32  1  0
 17 33  1  0
 18 34  1  0
 19 35  1  0
 22 36  1  0
 23 37  1  0
M  CHG  2  14  -1  21  -1
M  END
>  <UniqueID>  (7) 
7

>  <SMILES>  (7) 
CN(C)S(=O)(=O)c1ccc(S(=O)(=O)[N-]c2ccccc2[O-])cc1

>  <Energy>  (7) 
38.26662184880281

>  <Genealogy>  (7) 
CN(C)S(=O)(=O)c1ccc(S(=O)(=O)[N-]c2ccccc2[O-])cc1 (protonated)
CN(C)S(=O)(=O)c1ccc(S(=O)(=O)[N-]c2ccccc2[O-])cc1 (3D coordinates assigned)
CN(C)S(=O)(=O)c1ccc(S(=O)(=O)[N-]c2ccccc2[O-])cc1 (optimized conformer: 38.26662184880281 kcal/mol)

>  <smiles>  (7) 
CN(C)S(=O)(=O)c1ccc(S(=O)(=O)Nc2ccccc2O)cc1

>  <score_type>  (7) 
oracle

>  <origin>  (7) 
adgpu

>  <m_score__min__energy>  (7) 
-13.470000000000001

>  <m_primary>  (7) 
energy

$$$$
7:0
     RDKit          3D

 48 51  0  0  0  0  0  0  0  0999 V2000
   -2.2900   25.6380  -25.5410 C   0  0  0  0  0  0  0  0  0  0  0  0
   -0.8910   25.9540  -25.8280 N   0  0  0  0  0  0  0  0  0  0  0  0
   -0.4580   27.3230  -25.8520 C   0  0  0  0  0  0  0  0  0  0  0  0
   -0.0680   27.9680  -24.6650 C   0  0  0  0  0  0  0  0  0  0  0  0
    0.3140   29.3130  -24.6920 C   0  0  0  0  0  0  0  0  0  0  0  0
    0.3260   30.0150  -25.9020 C   0  0  0  0  0  0  0  0  0  0  0  0
   -0.0610   29.3780  -27.0860 C   0  0  0  0  0  0  0  0  0  0  0  0
   -0.4550   28.0350  -27.0600 C   0  0  0  0  0  0  0  0  0  0  0  0
    0.0420   24.7870  -26.7160 S   0  0  0  0  0  0  0  0  0  0  0  0
    1.1300   25.4710  -27.4940 O   0  0  0  0  0  0  0  0  0  0  0  0
    0.6810   23.8150  -25.7630 O   0  0  0  0  0  0  0  0  0  0  0  0
   -1.0420   23.9540  -27.8200 C   0  0  0  0  0  0  0  0  0  0  0  0
   -1.3030   22.5840  -27.6690 C   0  0  0  0  0  0  0  0  0  0  0  0
   -2.2660   21.9630  -28.4690 C   0  0  0  0  0  0  0  0  0  0  0  0
   -2.9870   22.7100  -29.4060 C   0  0  0  0  0  0  0  0  0  0  0  0
   -2.7330   24.0830  -29.5610 C   0  0  0  0  0  0  0  0  0  0  0  0
   -3.4920   24.8880  -30.4670 N   0  0  0  0  0  0  0  0  0  0  0  0
   -5.2240   24.9390  -30.4640 S   0  0  0  0  0  0  0  0  0  0  0  0
   -5.7020   26.1980  -31.1270 O   0  0  0  0  0  0  0  0  0  0  0  0
   -5.7170   24.9190  -29.0460 O   0  0  0  0  0  0  0  0  0  0  0  0
   -5.8270   23.5080  -31.2930 C   0  0  0  0  0  0  0  0  0  0  0  0
   -4.9620   22.6880  -32.0320 C   0  0  0  0  0  0  0  0  0  0  0  0
   -5.4400   21.5180  -32.6290 C   0  0  0  0  0  0  0  0  0  0  0  0
   -6.7840   21.1580  -32.4870 C   0  0  0  0  0  0  0  0  0  0  0  0
   -7.2580   20.0170  -33.0520 N   0  0  0  0  0  0  0  0  0  0  0  0
   -8.5360   19.6530  -32.9230 N   0  0  0  0  0  0  0  0  0  0  0  0
   -9.4210   20.4070  -32.2210 C   0  0  0  0  0  0  0  0  0  0  0  0
   -8.9960   21.5890  -31.6170 C   0  0  0  0  0  0  0  0  0  0  0  0
   -7.6590   21.9760  -31.7450 C   0  0  0  0  0  0  0  0  0  0  0  0
   -7.1750   23.1470  -31.1460 C   0  0  0  0  0  0  0  0  0  0  0  0
   -1.7430   24.6920  -28.7820 C   0  0  0  0  0  0  0  0  0  0  0  0
   -2.4422   25.6036  -24.4521 H   0  0  0  0  0  0  0  0  0  0  0  0
   -2.9378   26.4124  -25.9775 H   0  0  0  0  0  0  0  0  0  0  0  0
   -2.5421   24.6603  -25.9775 H   0  0  0  0  0  0  0  0  0  0  0  0
   -0.0634   27.4143  -23.7145 H   0  0  0  0  0  0  0  0  0  0  0  0
    0.6055   29.8198  -23.7603 H   0  0  0  0  0  0  0  0  0  0  0  0
    0.6401   31.0690  -25.9225 H   0  0  0  0  0  0  0  0  0  0  0  0
   -0.0557   29.9319  -28.0363 H   0  0  0  0  0  0  0  0  0  0  0  0
   -0.7634   27.5363  -27.9907 H   0  0  0  0  0  0  0  0  0  0  0  0
   -0.7494   21.9982  -26.9205 H   0  0  0  0  0  0  0  0  0  0  0  0
   -2.4572   20.8851  -28.3615 H   0  0  0  0  0  0  0  0  0  0  0  0
   -3.7551   22.2212  -30.0233 H   0  0  0  0  0  0  0  0  0  0  0  0
   -3.9036   22.9666  -32.1422 H   0  0  0  0  0  0  0  0  0  0  0  0
   -4.7586   20.8799  -33.2109 H   0  0  0  0  0  0  0  0  0  0  0  0
  -10.4692   20.0861  -32.1295 H   0  0  0  0  0  0  0  0  0  0  0  0
   -9.7035   22.2092  -31.0470 H   0  0  0  0  0  0  0  0  0  0  0  0
   -7.8531   23.7843  -30.5595 H   0  0  0  0  0  0  0  0  0  0  0  0
   -1.5136   25.7581  -28.9262 H   0  0  0  0  0  0  0  0  0  0  0  0
  1  2  1  0
  2  3  1  0
  3  4  2  0
  4  5  1  0
  5  6  2  0
  6  7  1  0
  7  8  2  0
  2  9  1  0
  9 10  2  0
  9 11  2  0
  9 12  1  0
 12 13  2  0
 13 14  1  0
 14 15  2  0
 15 16  1  0
 16 17  1  0
 17 18  1  0
 18 19  2  0
 18 20  2  0
 18 21  1  0
 21 22  2  0
 22 23  1  0
 23 24  2  0
 24 25  1  0
 25 26  2  0
 26 27  1  0
 27 28  2  0
 28 29  1  0
 29 30  2  0
 16 31  2  0
  8  3  1  0
 31 12  1  0
 30 21  1  0
 29 24  1  0
  1 32  1  0
  1 33  1  0
  1 34  1  0
  4 35  1  0
  5 36  1  0
  6 37  1  0
  7 38  1  0
  8 39  1  0
 13 40  1  0
 14 41  1  0
 15 42  1  0
 22 43  1  0
 23 44  1  0
 27 45  1  0
 28 46  1  0
 30 47  1  0
 31 48  1  0
M  CHG  1  17  -1
M  END
>  <UniqueID>  (8) 
8

>  <SMILES>  (8) 
CN(c1ccccc1)S(=O)(=O)c1cccc([N-]S(=O)(=O)c2ccc3nnccc3c2)c1

>  <Energy>  (8) 
64.72034007720951

>  <Genealogy>  (8) 
CN(c1ccccc1)S(=O)(=O)c1cccc([N-]S(=O)(=O)c2ccc3nnccc3c2)c1 (protonated)
CN(c1ccccc1)S(=O)(=O)c1cccc([N-]S(=O)(=O)c2ccc3nnccc3c2)c1 (3D coordinates assigned)
CN(c1ccccc1)S(=O)(=O)c1cccc([N-]S(=O)(=O)c2ccc3nnccc3c2)c1 (optimized conformer: 64.72034007720951 kcal/mol)

>  <smiles>  (8) 
CN(c1ccccc1)S(=O)(=O)c1cccc(NS(=O)(=O)c2ccc3nnccc3c2)c1

>  <score_type>  (8) 
oracle

>  <origin>  (8) 
adgpu

>  <m_score__min__energy>  (8) 
-11.91

>  <m_primary>  (8) 
energy

$$$$
8:0
     RDKit          3D

 38 40  0  0  0  0  0  0  0  0999 V2000
   -0.6440   24.2100  -28.1940 C   0  0  0  0  0  0  0  0  0  0  0  0
   -2.1110   24.0060  -28.3750 C   0  0  0  0  0  0  0  0  0  0  0  0
   -2.8970   23.1140  -27.6680 C   0  0  0  0  0  0  0  0  0  0  0  0
   -4.1490   23.2400  -28.2310 C   0  0  0  0  0  0  0  0  0  0  0  0
   -4.0770   24.1500  -29.2180 N   0  0  0  0  0  0  0  0  0  0  0  0
   -5.3920   24.6540  -30.2180 S   0  0  0  0  0  0  0  0  0  0  0  0
   -6.4530   25.3000  -29.3690 O   0  0  0  0  0  0  0  0  0  0  0  0
   -4.9050   25.6630  -31.2200 O   0  0  0  0  0  0  0  0  0  0  0  0
   -6.0710   23.2540  -31.0390 C   0  0  0  0  0  0  0  0  0  0  0  0
   -7.3690   22.8200  -30.7390 C   0  0  0  0  0  0  0  0  0  0  0  0
   -7.9150   21.7190  -31.4050 C   0  0  0  0  0  0  0  0  0  0  0  0
   -7.1720   21.0460  -32.3880 C   0  0  0  0  0  0  0  0  0  0  0  0
   -7.7420   19.8380  -33.0840 C   0  0  0  0  0  0  0  0  0  0  0  0
   -6.8660   18.6730  -32.8840 N   0  0  0  0  0  0  0  0  0  0  0  0
   -5.9310   18.3700  -33.8350 C   0  0  0  0  0  0  0  0  0  0  0  0
   -5.0680   17.2920  -33.6620 C   0  0  0  0  0  0  0  0  0  0  0  0
   -5.1710   16.5360  -32.4990 C   0  0  0  0  0  0  0  0  0  0  0  0
   -4.4020   15.5540  -32.3160 O   0  0  0  0  0  0  0  0  0  0  0  0
   -6.1010   16.8590  -31.5620 N   0  0  0  0  0  0  0  0  0  0  0  0
   -6.9410   17.9160  -31.7410 C   0  0  0  0  0  0  0  0  0  0  0  0
   -7.7860   18.1890  -30.8450 O   0  0  0  0  0  0  0  0  0  0  0  0
   -5.8720   21.4840  -32.6880 C   0  0  0  0  0  0  0  0  0  0  0  0
   -5.3280   22.5850  -32.0210 C   0  0  0  0  0  0  0  0  0  0  0  0
   -2.8450   24.6200  -29.3230 N   0  0  0  0  0  0  0  0  0  0  0  0
   -0.4081   24.2428  -27.1201 H   0  0  0  0  0  0  0  0  0  0  0  0
   -0.0975   23.3792  -28.6642 H   0  0  0  0  0  0  0  0  0  0  0  0
   -0.3449   25.1584  -28.6642 H   0  0  0  0  0  0  0  0  0  0  0  0
   -2.5920   22.4534  -26.8430 H   0  0  0  0  0  0  0  0  0  0  0  0
   -5.0516   22.6906  -27.9253 H   0  0  0  0  0  0  0  0  0  0  0  0
   -7.9606   23.3477  -29.9764 H   0  0  0  0  0  0  0  0  0  0  0  0
   -8.9313   21.3783  -31.1579 H   0  0  0  0  0  0  0  0  0  0  0  0
   -8.7380   19.6181  -32.6721 H   0  0  0  0  0  0  0  0  0  0  0  0
   -7.8178   20.0481  -34.1611 H   0  0  0  0  0  0  0  0  0  0  0  0
   -5.8605   18.9840  -34.7450 H   0  0  0  0  0  0  0  0  0  0  0  0
   -4.3199   17.0430  -34.4291 H   0  0  0  0  0  0  0  0  0  0  0  0
   -6.1700   16.2890  -30.6890 H   0  0  0  0  0  0  0  0  0  0  0  0
   -5.2794   20.9583  -33.4512 H   0  0  0  0  0  0  0  0  0  0  0  0
   -4.3124   22.9279  -32.2678 H   0  0  0  0  0  0  0  0  0  0  0  0
  1  2  1  0
  2  3  1  0
  3  4  2  0
  4  5  1  0
  5  6  1  0
  6  7  2  0
  6  8  2  0
  6  9  1  0
  9 10  2  0
 10 11  1  0
 11 12  2  0
 12 13  1  0
 13 14  1  0
 14 15  1  0
 15 16  2  0
 16 17  1  0
 17 18  2  0
 17 19  1  0
 19 20  1  0
 20 21  2  0
 12 22  1  0
 22 23  2  0
  5 24  1  0
 24  2  2  0
 23  9  1  0
 20 14  1  0
  1 25  1  0
  1 26  1  0
  1 27  1  0
  3 28  1  0
  4 29  1  0
 10 30  1  0
 11 31  1  0
 13 32  1  0
 13 33  1  0
 15 34  1  0
 16 35  1  0
 19 36  1  0
 22 37  1  0
 23 38  1  0
M  END
>  <UniqueID>  (9) 
9

>  <SMILES>  (9) 
Cc1ccn(S(=O)(=O)c2ccc(Cn3ccc(=O)[nH]c3=O)cc2)n1

>  <Energy>  (9) 
72.05015138726918

>  <Genealogy>  (9) 
Cc1ccn(S(=O)(=O)c2ccc(Cn3ccc(=O)[nH]c3=O)cc2)n1 (3D coordinates assigned)
Cc1ccn(S(=O)(=O)c2ccc(Cn3ccc(=O)[nH]c3=O)cc2)n1 (optimized conformer: 72.05015138726918 kcal/mol)

>  <smiles>  (9) 
Cc1ccn(S(=O)(=O)c2ccc(Cn3ccc(=O)[nH]c3=O)cc2)n1

>  <score_type>  (9) 
oracle

>  <origin>  (9) 
adgpu

>  <m_score__min__energy>  (9) 
-8.75

>  <m_primary>  (9) 
energy

$$$$
9:0
     RDKit          3D

 58 61  0  0  0  0  0  0  0  0999 V2000
   -8.6960   21.1620  -31.9800 C   0  0  0  0  0  0  0  0  0  0  0  0
   -7.6970   20.1790  -32.3950 N   0  0  0  0  0  0  0  0  0  0  0  0
   -7.8120   18.7600  -32.2230 C   0  0  0  0  0  0  0  0  0  0  0  0
   -8.8990   18.1820  -31.9410 O   0  0  0  0  0  0  0  0  0  0  0  0
   -6.4910   18.0500  -32.3580 C   0  0  0  0  0  0  0  0  0  0  0  0
   -6.4750   17.1380  -33.5870 C   0  0  0  0  0  0  0  0  0  0  0  0
   -6.1430   17.2890  -31.0740 C   0  0  0  0  0  0  0  0  0  0  0  0
   -5.5860   19.2310  -32.5550 C   0  0  0  0  0  0  0  0  0  0  0  0
   -4.1990   19.2330  -32.7220 C   0  0  0  0  0  0  0  0  0  0  0  0
   -3.5410   20.4630  -32.9220 C   0  0  0  0  0  0  0  0  0  0  0  0
   -1.8120   20.4990  -33.2630 S   0  0  0  0  0  0  0  0  0  0  0  0
   -1.5330   19.5590  -34.4050 O   0  0  0  0  0  0  0  0  0  0  0  0
   -1.3790   21.8930  -33.6530 O   0  0  0  0  0  0  0  0  0  0  0  0
   -0.9110   19.9790  -31.8700 N   0  0  0  0  0  0  0  0  0  0  0  0
   -0.8670   20.6930  -30.6290 C   0  0  0  0  0  0  0  0  0  0  0  0
   -0.0020   20.3140  -29.5890 C   0  0  0  0  0  0  0  0  0  0  0  0
    0.0860   21.0910  -28.4330 C   0  0  0  0  0  0  0  0  0  0  0  0
   -0.7060   22.2330  -28.2950 C   0  0  0  0  0  0  0  0  0  0  0  0
   -1.6090   22.5900  -29.3040 C   0  0  0  0  0  0  0  0  0  0  0  0
   -2.5820   24.0470  -29.1200 S   0  0  0  0  0  0  0  0  0  0  0  0
   -3.1460   24.1200  -27.7330 O   0  0  0  0  0  0  0  0  0  0  0  0
   -1.7010   25.2450  -29.3390 O   0  0  0  0  0  0  0  0  0  0  0  0
   -3.8700   24.0230  -30.2970 N   0  0  0  0  0  0  0  0  0  0  0  0
   -4.7140   22.8130  -30.1500 C   0  0  0  0  0  0  0  0  0  0  0  0
   -6.0190   23.0850  -29.3960 C   0  0  0  0  0  0  0  0  0  0  0  0
   -6.8660   24.1490  -30.1100 C   0  0  0  0  0  0  0  0  0  0  0  0
   -6.0080   25.1680  -30.8830 C   0  0  0  0  0  0  0  0  0  0  0  0
   -4.6140   25.2970  -30.2550 C   0  0  0  0  0  0  0  0  0  0  0  0
   -1.6940   21.8120  -30.4670 C   0  0  0  0  0  0  0  0  0  0  0  0
   -4.2820   21.6680  -32.9220 C   0  0  0  0  0  0  0  0  0  0  0  0
   -5.6720   21.6490  -32.7350 C   0  0  0  0  0  0  0  0  0  0  0  0
   -6.3060   20.4130  -32.5610 C   0  0  0  0  0  0  0  0  0  0  0  0
   -8.7367   21.2021  -30.8815 H   0  0  0  0  0  0  0  0  0  0  0  0
   -8.4216   22.1520  -32.3731 H   0  0  0  0  0  0  0  0  0  0  0  0
   -9.6815   20.8717  -32.3731 H   0  0  0  0  0  0  0  0  0  0  0  0
   -6.4566   16.0869  -33.2634 H   0  0  0  0  0  0  0  0  0  0  0  0
   -7.3765   17.3201  -34.1905 H   0  0  0  0  0  0  0  0  0  0  0  0
   -5.5805   17.3516  -34.1905 H   0  0  0  0  0  0  0  0  0  0  0  0
   -6.4211   17.8971  -30.2006 H   0  0  0  0  0  0  0  0  0  0  0  0
   -6.6959   16.3383  -31.0499 H   0  0  0  0  0  0  0  0  0  0  0  0
   -5.0623   17.0854  -31.0499 H   0  0  0  0  0  0  0  0  0  0  0  0
   -3.6308   18.2914  -32.6978 H   0  0  0  0  0  0  0  0  0  0  0  0
    0.6071   19.4032  -29.6860 H   0  0  0  0  0  0  0  0  0  0  0  0
    0.7801   20.8035  -27.6295 H   0  0  0  0  0  0  0  0  0  0  0  0
   -0.6202   22.8539  -27.3910 H   0  0  0  0  0  0  0  0  0  0  0  0
   -4.9604   22.4330  -31.1524 H   0  0  0  0  0  0  0  0  0  0  0  0
   -4.1407   22.0797  -29.5639 H   0  0  0  0  0  0  0  0  0  0  0  0
   -6.5968   22.1512  -29.3317 H   0  0  0  0  0  0  0  0  0  0  0  0
   -5.7681   23.4579  -28.3920 H   0  0  0  0  0  0  0  0  0  0  0  0
   -7.5395   23.6456  -30.8192 H   0  0  0  0  0  0  0  0  0  0  0  0
   -7.4261   24.7006  -29.3405 H   0  0  0  0  0  0  0  0  0  0  0  0
   -5.9038   24.8338  -31.9258 H   0  0  0  0  0  0  0  0  0  0  0  0
   -6.5044   26.1488  -30.8420 H   0  0  0  0  0  0  0  0  0  0  0  0
   -4.0447   26.0594  -30.8070 H   0  0  0  0  0  0  0  0  0  0  0  0
   -4.7410   25.5824  -29.2003 H   0  0  0  0  0  0  0  0  0  0  0  0
   -2.4126   22.0811  -31.2551 H   0  0  0  0  0  0  0  0  0  0  0  0
   -3.7642   22.6272  -33.0698 H   0  0  0  0  0  0  0  0  0  0  0  0
   -6.2509   22.5843  -32.7253 H   0  0  0  0  0  0  0  0  0  0  0  0
  1  2  1  0
  2  3  1  0
  3  4  2  0
  3  5  1  0
  5  6  1  0
  5  7  1  0
  5  8  1  0
  8  9  2  0
  9 10  1  0
 10 11  1  0
 11 12  2  0
 11 13  2  0
 11 14  1  0
 14 15  1  0
 15 16  2  0
 16 17  1  0
 17 18  2  0
 18 19  1  0
 19 20  1  0
 20 21  2  0
 20 22  2  0
 20 23  1  0
 23 24  1  0
 24 25  1  0
 25 26  1  0
 26 27  1  0
 27 28  1  0
 19 29  2  0
 10 30  2  0
 30 31  1  0
 31 32  2  0
 32  2  1  0
 32  8  1  0
 29 15  1  0
 28 23  1  0
  1 33  1  0
  1 34  1  0
  1 35  1  0
  6 36  1  0
  6 37  1  0
  6 38  1  0
  7 39  1  0
  7 40  1  0
  7 41  1  0
  9 42  1  0
 16 43  1  0
 17 44  1  0
 18 45  1  0
 24 46  1  0
 24 47  1  0
 25 48  1  0
 25 49  1  0
 26 50  1  0
 26 51  1  0
 27 52  1  0
 27 53  1  0
 28 54  1  0
 28 55  1  0
 29 56  1  0
 30 57  1  0
 31 58  1  0
M  CHG  1  14  -1
M  END
>  <UniqueID>  (10) 
10

>  <SMILES>  (10) 
CN1C(=O)C(C)(C)c2cc(S(=O)(=O)[N-]c3cccc(S(=O)(=O)N4CCCCC4)c3)ccc21

>  <Energy>  (10) 
86.8803287957606

>  <Genealogy>  (10) 
CN1C(=O)C(C)(C)c2cc(S(=O)(=O)[N-]c3cccc(S(=O)(=O)N4CCCCC4)c3)ccc21 (protonated)
CN1C(=O)C(C)(C)c2cc(S(=O)(=O)[N-]c3cccc(S(=O)(=O)N4CCCCC4)c3)ccc21 (3D coordinates assigned)
CN1C(=O)C(C)(C)c2cc(S(=O)(=O)[N-]c3cccc(S(=O)(=O)N4CCCCC4)c3)ccc21 (nonaromatic ring conformer: 86.8803287957606 kcal/mol)

>  <smiles>  (10) 
CN1C(=O)C(C)(C)c2cc(S(=O)(=O)Nc3cccc(S(=O)(=O)N4CCCCC4)c3)ccc21

>  <score_type>  (10) 
oracle

>  <origin>  (10) 
adgpu

>  <m_score__min__energy>  (10) 
-12.300000000000001

>  <m_primary>  (10) 
energy

$$$$
10:0
     RDKit          3D

 52 53  0  0  0  0  0  0  0  0999 V2000
   -3.9710   24.9340  -26.7070 N   0  0  0  0  0  0  0  0  0  0  0  0
   -2.7210   25.2780  -26.0370 C   0  0  0  0  0  0  0  0  0  0  0  0
   -1.6340   25.6020  -27.0620 C   0  0  0  0  0  0  0  0  0  0  0  0
   -2.1570   25.4050  -28.4260 N   0  0  0  0  0  0  0  0  0  0  0  0
   -1.8150   24.0900  -28.9840 C   0  0  0  0  0  0  0  0  0  0  0  0
   -2.7420   23.7330  -30.1460 C   0  0  0  0  0  0  0  0  0  0  0  0
   -3.5900   24.8740  -30.4590 N   0  0  0  0  0  0  0  0  0  0  0  0
   -4.9690   24.9490  -30.0930 C   0  0  0  0  0  0  0  0  0  0  0  0
   -5.3010   25.0120  -28.8790 O   0  0  0  0  0  0  0  0  0  0  0  0
   -6.0260   24.9770  -31.1560 C   0  0  0  0  0  0  0  0  0  0  0  0
   -6.0570   23.7480  -31.8830 O   0  0  0  0  0  0  0  0  0  0  0  0
   -7.0920   22.7940  -31.8620 C   0  0  0  0  0  0  0  0  0  0  0  0
   -8.4520   23.1590  -31.9480 C   0  0  0  0  0  0  0  0  0  0  0  0
   -9.4490   22.1820  -31.9540 C   0  0  0  0  0  0  0  0  0  0  0  0
   -9.1090   20.8330  -31.8640 C   0  0  0  0  0  0  0  0  0  0  0  0
   -7.7710   20.4560  -31.7570 C   0  0  0  0  0  0  0  0  0  0  0  0
   -6.7550   21.4270  -31.7430 C   0  0  0  0  0  0  0  0  0  0  0  0
   -5.3160   20.9810  -31.6200 C   0  0  0  0  0  0  0  0  0  0  0  0
   -4.7710   20.4290  -32.9440 C   0  0  0  0  0  0  0  0  0  0  0  0
   -5.3160   19.0580  -33.2510 C   0  0  0  0  0  0  0  0  0  0  0  0
   -5.5740   18.1510  -32.2090 C   0  0  0  0  0  0  0  0  0  0  0  0
   -6.0840   16.8810  -32.4910 C   0  0  0  0  0  0  0  0  0  0  0  0
   -6.3420   16.5050  -33.8150 C   0  0  0  0  0  0  0  0  0  0  0  0
   -6.8620   15.2460  -34.1060 O   0  0  0  0  0  0  0  0  0  0  0  0
   -6.0750   17.4000  -34.8570 C   0  0  0  0  0  0  0  0  0  0  0  0
   -5.5540   18.6680  -34.5780 C   0  0  0  0  0  0  0  0  0  0  0  0
   -4.4000   25.8140  -27.0750 H   0  0  0  0  0  0  0  0  0  0  0  0
   -3.7360   24.3480  -27.5400 H   0  0  0  0  0  0  0  0  0  0  0  0
   -2.8848   26.1553  -25.3939 H   0  0  0  0  0  0  0  0  0  0  0  0
   -2.3942   24.4193  -25.4322 H   0  0  0  0  0  0  0  0  0  0  0  0
   -1.3178   26.6485  -26.9401 H   0  0  0  0  0  0  0  0  0  0  0  0
   -0.7750   24.9335  -26.9031 H   0  0  0  0  0  0  0  0  0  0  0  0
   -3.2010   25.4700  -28.3890 H   0  0  0  0  0  0  0  0  0  0  0  0
   -0.7762   24.1111  -29.3453 H   0  0  0  0  0  0  0  0  0  0  0  0
   -1.9320   23.3322  -28.1953 H   0  0  0  0  0  0  0  0  0  0  0  0
   -2.1396   23.4710  -31.0283 H   0  0  0  0  0  0  0  0  0  0  0  0
   -3.3707   22.8758  -29.8632 H   0  0  0  0  0  0  0  0  0  0  0  0
   -7.0061   25.1399  -30.6839 H   0  0  0  0  0  0  0  0  0  0  0  0
   -5.7944   25.7921  -31.8575 H   0  0  0  0  0  0  0  0  0  0  0  0
   -8.7289   24.2217  -32.0108 H   0  0  0  0  0  0  0  0  0  0  0  0
  -10.5059   22.4774  -32.0300 H   0  0  0  0  0  0  0  0  0  0  0  0
   -9.8969   20.0655  -31.8774 H   0  0  0  0  0  0  0  0  0  0  0  0
   -7.5085   19.3903  -31.6830 H   0  0  0  0  0  0  0  0  0  0  0  0
   -4.7023   21.8412  -31.3142 H   0  0  0  0  0  0  0  0  0  0  0  0
   -5.2723   20.1756  -30.8720 H   0  0  0  0  0  0  0  0  0  0  0  0
   -5.0533   21.1137  -33.7573 H   0  0  0  0  0  0  0  0  0  0  0  0
   -3.6777   20.3477  -32.8539 H   0  0  0  0  0  0  0  0  0  0  0  0
   -5.3737   18.4420  -31.1673 H   0  0  0  0  0  0  0  0  0  0  0  0
   -6.2832   16.1751  -31.6712 H   0  0  0  0  0  0  0  0  0  0  0  0
   -6.5220   14.7010  -34.8910 H   0  0  0  0  0  0  0  0  0  0  0  0
   -6.2752   17.1059  -35.8979 H   0  0  0  0  0  0  0  0  0  0  0  0
   -5.3301   19.3618  -35.4017 H   0  0  0  0  0  0  0  0  0  0  0  0
  1  2  1  0
  2  3  1  0
  3  4  1  0
  4  5  1  0
  5  6  1  0
  6  7  1  0
  7  8  1  0
  8  9  2  0
  8 10  1  0
 10 11  1  0
 11 12  1  0
 12 13  2  0
 13 14  1  0
 14 15  2  0
 15 16  1  0
 16 17  2  0
 17 18  1  0
 18 19  1  0
 19 20  1  0
 20 21  2  0
 21 22  1  0
 22 23  2  0
 23 24  1  0
 23 25  1  0
 25 26  2  0
 17 12  1  0
 26 20  1  0
  1 27  1  0
  1 28  1  0
  2 29  1  0
  2 30  1  0
  3 31  1  0
  3 32  1  0
  4 33  1  0
  5 34  1  0
  5 35  1  0
  6 36  1  0
  6 37  1  0
 10 38  1  0
 10 39  1  0
 13 40  1  0
 14 41  1  0
 15 42  1  0
 16 43  1  0
 18 44  1  0
 18 45  1  0
 19 46  1  0
 19 47  1  0
 21 48  1  0
 22 49  1  0
 24 50  1  0
 25 51  1  0
 26 52  1  0
M  CHG  1   7  -1
M  END
>  <UniqueID>  (11) 
11

>  <SMILES>  (11) 
NCCNCC[N-]C(=O)COc1ccccc1CCc1ccc(O)cc1

>  <Energy>  (11) 
37.51048113950874

>  <Genealogy>  (11) 
NCCNCC[N-]C(=O)COc1ccccc1CCc1ccc(O)cc1 (protonated)
NCCNCC[N-]C(=O)COc1ccccc1CCc1ccc(O)cc1 (3D coordinates assigned)
NCCNCC[N-]C(=O)COc1ccccc1CCc1ccc(O)cc1 (optimized conformer: 37.51048113950874 kcal/mol)

>  <smiles>  (11) 
NCCNCCNC(=O)COc1ccccc1CCc1ccc(O)cc1

>  <score_type>  (11) 
oracle

>  <origin>  (11) 
adgpu

>  <m_score__min__energy>  (11) 
-8.6999999999999993

>  <m_primary>  (11) 
energy

$$$$
11:0
     RDKit          3D

 51 53  0  0  0  0  0  0  0  0999 V2000
   -1.6710   15.2020  -36.2780 C   0  0  0  0  0  0  0  0  0  0  0  0
   -2.1240   16.0800  -34.7970 S   0  0  0  0  0  0  0  0  0  0  0  0
   -1.8260   17.5410  -34.9900 O   0  0  0  0  0  0  0  0  0  0  0  0
   -1.3190   15.5650  -33.6370 O   0  0  0  0  0  0  0  0  0  0  0  0
   -3.8380   15.8440  -34.4690 C   0  0  0  0  0  0  0  0  0  0  0  0
   -4.3990   14.5590  -34.4660 C   0  0  0  0  0  0  0  0  0  0  0  0
   -5.7580   14.3880  -34.1880 C   0  0  0  0  0  0  0  0  0  0  0  0
   -6.5650   15.4980  -33.9210 C   0  0  0  0  0  0  0  0  0  0  0  0
   -6.0220   16.7880  -33.9420 C   0  0  0  0  0  0  0  0  0  0  0  0
   -6.8730   17.9010  -33.6330 N   0  0  0  0  0  0  0  0  0  0  0  0
   -6.4520   19.2650  -33.5050 C   0  0  0  0  0  0  0  0  0  0  0  0
   -5.5570   19.7270  -34.2650 O   0  0  0  0  0  0  0  0  0  0  0  0
   -7.1100   20.1170  -32.5600 N   0  0  0  0  0  0  0  0  0  0  0  0
   -6.5650   21.3620  -32.0860 C   0  0  0  0  0  0  0  0  0  0  0  0
   -7.3990   22.4770  -31.9700 C   0  0  0  0  0  0  0  0  0  0  0  0
   -6.9010   23.6860  -31.4840 C   0  0  0  0  0  0  0  0  0  0  0  0
   -5.5580   23.8080  -31.0910 C   0  0  0  0  0  0  0  0  0  0  0  0
   -5.1230   25.0880  -30.4820 C   0  0  0  0  0  0  0  0  0  0  0  0
   -3.8790   25.6740  -30.8610 N   0  0  0  0  0  0  0  0  0  0  0  0
   -5.8650   25.6930  -29.6630 O   0  0  0  0  0  0  0  0  0  0  0  0
   -4.6960   22.6840  -31.2180 C   0  0  0  0  0  0  0  0  0  0  0  0
   -3.2430   22.7450  -30.9360 C   0  0  0  0  0  0  0  0  0  0  0  0
   -2.8220   23.3050  -29.8870 O   0  0  0  0  0  0  0  0  0  0  0  0
   -2.3160   22.1710  -31.8680 N   0  0  0  0  0  0  0  0  0  0  0  0
   -1.5890   20.9430  -31.7090 C   0  0  0  0  0  0  0  0  0  0  0  0
   -0.4840   20.8570  -30.8400 C   0  0  0  0  0  0  0  0  0  0  0  0
    0.2270   19.6610  -30.7160 C   0  0  0  0  0  0  0  0  0  0  0  0
   -0.1440   18.5450  -31.4670 C   0  0  0  0  0  0  0  0  0  0  0  0
   -1.2190   18.6260  -32.3540 C   0  0  0  0  0  0  0  0  0  0  0  0
   -1.9410   19.8210  -32.4890 C   0  0  0  0  0  0  0  0  0  0  0  0
   -3.0370   19.8800  -33.4110 N   0  0  0  0  0  0  0  0  0  0  0  0
   -5.2220   21.4670  -31.6890 C   0  0  0  0  0  0  0  0  0  0  0  0
   -4.6500   16.9540  -34.2010 C   0  0  0  0  0  0  0  0  0  0  0  0
   -1.1821   14.2545  -36.0075 H   0  0  0  0  0  0  0  0  0  0  0  0
   -2.5737   14.9927  -36.8708 H   0  0  0  0  0  0  0  0  0  0  0  0
   -0.9773   15.8163  -36.8708 H   0  0  0  0  0  0  0  0  0  0  0  0
   -3.7685   13.6841  -34.6828 H   0  0  0  0  0  0  0  0  0  0  0  0
   -6.1936   13.3779  -34.1793 H   0  0  0  0  0  0  0  0  0  0  0  0
   -7.6319   15.3569  -33.6933 H   0  0  0  0  0  0  0  0  0  0  0  0
   -8.0540   19.8260  -32.2190 H   0  0  0  0  0  0  0  0  0  0  0  0
   -8.4562   22.4009  -32.2641 H   0  0  0  0  0  0  0  0  0  0  0  0
   -7.5695   24.5562  -31.4074 H   0  0  0  0  0  0  0  0  0  0  0  0
   -2.9760   25.3010  -30.4920 H   0  0  0  0  0  0  0  0  0  0  0  0
   -0.1789   21.7373  -30.2552 H   0  0  0  0  0  0  0  0  0  0  0  0
    1.0808   19.5988  -30.0252 H   0  0  0  0  0  0  0  0  0  0  0  0
    0.4107   17.6012  -31.3601 H   0  0  0  0  0  0  0  0  0  0  0  0
   -1.5018   17.7466  -32.9512 H   0  0  0  0  0  0  0  0  0  0  0  0
   -3.1660   19.1570  -34.1540 H   0  0  0  0  0  0  0  0  0  0  0  0
   -3.7330   20.6560  -33.3620 H   0  0  0  0  0  0  0  0  0  0  0  0
   -4.5703   20.5828  -31.7473 H   0  0  0  0  0  0  0  0  0  0  0  0
   -4.2110   17.9626  -34.1932 H   0  0  0  0  0  0  0  0  0  0  0  0
  1  2  1  0
  2  3  2  0
  2  4  2  0
  2  5  1  0
  5  6  2  0
  6  7  1  0
  7  8  2  0
  8  9  1  0
  9 10  1  0
 10 11  1  0
 11 12  2  0
 11 13  1  0
 13 14  1  0
 14 15  2  0
 15 16  1  0
 16 17  2  0
 17 18  1  0
 18 19  1  0
 18 20  2  0
 17 21  1  0
 21 22  1  0
 22 23  2  0
 22 24  1  0
 24 25  1  0
 25 26  2  0
 26 27  1  0
 27 28  2  0
 28 29  1  0
 29 30  2  0
 30 31  1  0
 21 32  2  0
  9 33  2  0
 33  5  1  0
 32 14  1  0
 30 25  1  0
  1 34  1  0
  1 35  1  0
  1 36  1  0
  6 37  1  0
  7 38  1  0
  8 39  1  0
 13 40  1  0
 15 41  1  0
 16 42  1  0
 19 43  1  0
 26 44  1  0
 27 45  1  0
 28 46  1  0
 29 47  1  0
 31 48  1  0
 31 49  1  0
 32 50  1  0
 33 51  1  0
M  CHG  3  10  -1  19  -1  24  -1
M  END
>  <UniqueID>  (12) 
12

>  <SMILES>  (12) 
CS(=O)(=O)c1cccc([N-]C(=O)Nc2ccc(C([NH-])=O)c(C(=O)[N-]c3ccccc3N)c2)c1

>  <Energy>  (12) 
69.38399062619504

>  <Genealogy>  (12) 
CS(=O)(=O)c1cccc([N-]C(=O)Nc2ccc(C([NH-])=O)c(C(=O)[N-]c3ccccc3N)c2)c1 (protonated)
CS(=O)(=O)c1cccc([N-]C(=O)Nc2ccc(C([NH-])=O)c(C(=O)[N-]c3ccccc3N)c2)c1 (3D coordinates assigned)
CS(=O)(=O)c1cccc([N-]C(=O)Nc2ccc(C([NH-])=O)c(C(=O)[N-]c3ccccc3N)c2)c1 (optimized conformer: 69.38399062619504 kcal/mol)

>  <smiles>  (12) 
CS(=O)(=O)c1cccc(NC(=O)Nc2ccc(C(N)=O)c(C(=O)Nc3ccccc3N)c2)c1

>  <score_type>  (12) 
oracle

>  <origin>  (12) 
adgpu

>  <m_score__min__energy>  (12) 
-11.98

>  <m_primary>  (12) 
energy

$$$$
12:0
     RDKit          3D

 36 38  0  0  0  0  0  0  0  0999 V2000
   -8.7900   18.2800  -31.8720 C   0  0  0  0  0  0  0  0  0  0  0  0
   -7.8060   19.3820  -32.1080 C   0  0  0  0  0  0  0  0  0  0  0  0
   -7.9510   20.5890  -31.4940 N   0  0  0  0  0  0  0  0  0  0  0  0
   -6.9380   21.4320  -31.7810 C   0  0  0  0  0  0  0  0  0  0  0  0
   -6.9540   22.8090  -31.3780 N   0  0  0  0  0  0  0  0  0  0  0  0
   -5.9400   23.5760  -31.0860 C   0  0  0  0  0  0  0  0  0  0  0  0
   -4.6200   23.0950  -30.9740 C   0  0  0  0  0  0  0  0  0  0  0  0
   -3.5890   23.9810  -30.6480 C   0  0  0  0  0  0  0  0  0  0  0  0
   -3.8600   25.2940  -30.4270 N   0  0  0  0  0  0  0  0  0  0  0  0
   -5.1240   25.7820  -30.5090 C   0  0  0  0  0  0  0  0  0  0  0  0
   -6.1840   24.9320  -30.8300 C   0  0  0  0  0  0  0  0  0  0  0  0
   -5.8490   20.7420  -32.8650 S   0  0  0  0  0  0  0  0  0  0  0  0
   -6.6770   19.2790  -32.9300 C   0  0  0  0  0  0  0  0  0  0  0  0
   -6.1390   17.8890  -33.8800 S   0  0  0  0  0  0  0  0  0  0  0  0
   -7.2430   16.8680  -33.8840 O   0  0  0  0  0  0  0  0  0  0  0  0
   -5.8890   18.3030  -35.3020 O   0  0  0  0  0  0  0  0  0  0  0  0
   -4.6850   17.1540  -33.2320 N   0  0  0  0  0  0  0  0  0  0  0  0
   -5.0060   16.0420  -32.3330 C   0  0  0  0  0  0  0  0  0  0  0  0
   -4.9340   14.7590  -33.1380 C   0  0  0  0  0  0  0  0  0  0  0  0
   -4.0020   15.0720  -34.2890 C   0  0  0  0  0  0  0  0  0  0  0  0
   -3.8480   16.5910  -34.3000 C   0  0  0  0  0  0  0  0  0  0  0  0
   -8.9222   18.1320  -30.7901 H   0  0  0  0  0  0  0  0  0  0  0  0
   -9.7556   18.5471  -32.3262 H   0  0  0  0  0  0  0  0  0  0  0  0
   -8.4157   17.3507  -32.3262 H   0  0  0  0  0  0  0  0  0  0  0  0
   -4.4025   22.0299  -31.1419 H   0  0  0  0  0  0  0  0  0  0  0  0
   -2.5549   23.6140  -30.5701 H   0  0  0  0  0  0  0  0  0  0  0  0
   -5.3135   26.8493  -30.3222 H   0  0  0  0  0  0  0  0  0  0  0  0
   -7.2096   25.3263  -30.8819 H   0  0  0  0  0  0  0  0  0  0  0  0
   -4.2800   16.0069  -31.5073 H   0  0  0  0  0  0  0  0  0  0  0  0
   -6.0113   16.1714  -31.9058 H   0  0  0  0  0  0  0  0  0  0  0  0
   -4.5301   13.9398  -32.5250 H   0  0  0  0  0  0  0  0  0  0  0  0
   -5.9253   14.4324  -33.4854 H   0  0  0  0  0  0  0  0  0  0  0  0
   -3.0259   14.5894  -34.1333 H   0  0  0  0  0  0  0  0  0  0  0  0
   -4.3998   14.6990  -35.2443 H   0  0  0  0  0  0  0  0  0  0  0  0
   -2.7953   16.8581  -34.1257 H   0  0  0  0  0  0  0  0  0  0  0  0
   -4.1608   16.9937  -35.2747 H   0  0  0  0  0  0  0  0  0  0  0  0
  1  2  1  0
  2  3  1  0
  3  4  2  0
  4  5  1  0
  5  6  2  3
  6  7  1  0
  7  8  2  0
  8  9  1  0
  9 10  1  0
 10 11  2  0
  4 12  1  0
 12 13  1  0
 13 14  1  0
 14 15  2  0
 14 16  2  0
 14 17  1  0
 17 18  1  0
 18 19  1  0
 19 20  1  0
 20 21  1  0
 13  2  2  0
 21 17  1  0
 11  6  1  0
  1 22  1  0
  1 23  1  0
  1 24  1  0
  7 25  1  0
  8 26  1  0
 10 27  1  0
 11 28  1  0
 18 29  1  0
 18 30  1  0
 19 31  1  0
 19 32  1  0
 20 33  1  0
 20 34  1  0
 21 35  1  0
 21 36  1  0
M  CHG  1   9  -1
M  END
>  <UniqueID>  (13) 
13

>  <SMILES>  (13) 
Cc1nc(N=c2cc[n-]cc2)sc1S(=O)(=O)N1CCCC1

>  <Energy>  (13) 
77.16130585685724

>  <Genealogy>  (13) 
Cc1nc(N=c2cc[n-]cc2)sc1S(=O)(=O)N1CCCC1 (protonated)
Cc1nc(N=c2cc[n-]cc2)sc1S(=O)(=O)N1CCCC1 (3D coordinates assigned)
Cc1nc(N=c2cc[n-]cc2)sc1S(=O)(=O)N1CCCC1 (nonaromatic ring conformer: 77.16130585685724 kcal/mol)

>  <smiles>  (13) 
Cc1nc(N=c2cc[nH]cc2)sc1S(=O)(=O)N1CCCC1

>  <score_type>  (13) 
oracle

>  <origin>  (13) 
adgpu

>  <m_score__min__energy>  (13) 
-9.8000000000000007

>  <m_primary>  (13) 
energy

$$$$
13:0
     RDKit          3D

 66 70  0  0  0  0  0  0  0  0999 V2000
   -4.5430   12.2130  -36.0730 C   0  0  0  0  0  0  0  0  0  0  0  0
   -3.4160   13.2070  -36.0150 C   0  0  0  0  0  0  0  0  0  0  0  0
   -2.7750   13.4960  -37.1780 N   0  0  0  0  0  0  0  0  0  0  0  0
   -1.7530   14.3790  -37.2330 C   0  0  0  0  0  0  0  0  0  0  0  0
   -1.1200   14.6430  -38.4530 C   0  0  0  0  0  0  0  0  0  0  0  0
   -0.0630   15.5560  -38.5100 C   0  0  0  0  0  0  0  0  0  0  0  0
    0.3640   16.2070  -37.3490 C   0  0  0  0  0  0  0  0  0  0  0  0
   -0.2650   15.9470  -36.1260 C   0  0  0  0  0  0  0  0  0  0  0  0
   -1.3310   15.0290  -36.0610 C   0  0  0  0  0  0  0  0  0  0  0  0
   -1.9950   14.7300  -34.8590 C   0  0  0  0  0  0  0  0  0  0  0  0
   -1.6290   15.3010  -33.7920 O   0  0  0  0  0  0  0  0  0  0  0  0
   -3.0340   13.8260  -34.8420 N   0  0  0  0  0  0  0  0  0  0  0  0
   -3.7000   13.4970  -33.5610 C   0  0  0  0  0  0  0  0  0  0  0  0
   -4.6190   14.6070  -33.1420 C   0  0  0  0  0  0  0  0  0  0  0  0
   -4.8390   14.7990  -31.9150 O   0  0  0  0  0  0  0  0  0  0  0  0
   -5.2810   15.4100  -34.1310 N   0  0  0  0  0  0  0  0  0  0  0  0
   -5.8990   16.6750  -33.8490 C   0  0  0  0  0  0  0  0  0  0  0  0
   -5.4370   17.8280  -34.4990 C   0  0  0  0  0  0  0  0  0  0  0  0
   -6.0130   19.0730  -34.2290 C   0  0  0  0  0  0  0  0  0  0  0  0
   -7.0380   19.1900  -33.2840 C   0  0  0  0  0  0  0  0  0  0  0  0
   -7.6030   20.4530  -33.0560 O   0  0  0  0  0  0  0  0  0  0  0  0
   -7.0060   21.4890  -32.3230 C   0  0  0  0  0  0  0  0  0  0  0  0
   -7.7700   22.1630  -31.3640 C   0  0  0  0  0  0  0  0  0  0  0  0
   -7.2130   23.2110  -30.6240 C   0  0  0  0  0  0  0  0  0  0  0  0
   -5.8880   23.6060  -30.8510 C   0  0  0  0  0  0  0  0  0  0  0  0
   -5.1610   24.9100  -29.9120 S   0  0  0  0  0  0  0  0  0  0  0  0
   -4.2040   25.6520  -30.8030 O   0  0  0  0  0  0  0  0  0  0  0  0
   -6.2230   25.8680  -29.4460 O   0  0  0  0  0  0  0  0  0  0  0  0
   -4.2920   24.2580  -28.5380 N   0  0  0  0  0  0  0  0  0  0  0  0
   -2.8470   24.5610  -28.5990 C   0  0  0  0  0  0  0  0  0  0  0  0
   -2.0940   23.7000  -29.6320 C   0  0  0  0  0  0  0  0  0  0  0  0
   -2.5880   22.2440  -29.6820 C   0  0  0  0  0  0  0  0  0  0  0  0
   -3.4110   21.8800  -28.4490 C   0  0  0  0  0  0  0  0  0  0  0  0
   -4.6150   22.8270  -28.3050 C   0  0  0  0  0  0  0  0  0  0  0  0
   -5.1260   22.9470  -31.8230 C   0  0  0  0  0  0  0  0  0  0  0  0
   -5.6800   21.8960  -32.5590 C   0  0  0  0  0  0  0  0  0  0  0  0
   -7.5000   18.0370  -32.6240 C   0  0  0  0  0  0  0  0  0  0  0  0
   -6.9290   16.7920  -32.8970 C   0  0  0  0  0  0  0  0  0  0  0  0
   -4.8478   11.9442  -35.0508 H   0  0  0  0  0  0  0  0  0  0  0  0
   -5.3969   12.6575  -36.6053 H   0  0  0  0  0  0  0  0  0  0  0  0
   -4.2087   11.3103  -36.6053 H   0  0  0  0  0  0  0  0  0  0  0  0
   -1.4545   14.1317  -39.3677 H   0  0  0  0  0  0  0  0  0  0  0  0
    0.4334   15.7624  -39.4697 H   0  0  0  0  0  0  0  0  0  0  0  0
    1.1960   16.9250  -37.3967 H   0  0  0  0  0  0  0  0  0  0  0  0
    0.0738   16.4605  -35.2141 H   0  0  0  0  0  0  0  0  0  0  0  0
   -4.2829   12.5723  -33.6839 H   0  0  0  0  0  0  0  0  0  0  0  0
   -2.9308   13.3624  -32.7862 H   0  0  0  0  0  0  0  0  0  0  0  0
   -5.3810   15.0170  -35.0940 H   0  0  0  0  0  0  0  0  0  0  0  0
   -4.6155   17.7526  -35.2266 H   0  0  0  0  0  0  0  0  0  0  0  0
   -5.6579   19.9666  -34.7632 H   0  0  0  0  0  0  0  0  0  0  0  0
   -8.8152   21.8668  -31.1910 H   0  0  0  0  0  0  0  0  0  0  0  0
   -7.8164   23.7262  -29.8622 H   0  0  0  0  0  0  0  0  0  0  0  0
   -2.7221   25.6203  -28.8679 H   0  0  0  0  0  0  0  0  0  0  0  0
   -2.4216   24.3353  -27.6100 H   0  0  0  0  0  0  0  0  0  0  0  0
   -2.2291   24.1495  -30.6269 H   0  0  0  0  0  0  0  0  0  0  0  0
   -1.0366   23.6765  -29.3296 H   0  0  0  0  0  0  0  0  0  0  0  0
   -3.2118   22.1106  -30.5781 H   0  0  0  0  0  0  0  0  0  0  0  0
   -1.7072   21.5857  -29.7107 H   0  0  0  0  0  0  0  0  0  0  0  0
   -3.7736   20.8462  -28.5482 H   0  0  0  0  0  0  0  0  0  0  0  0
   -2.7752   21.9752  -27.5565 H   0  0  0  0  0  0  0  0  0  0  0  0
   -5.3824   22.5232  -29.0322 H   0  0  0  0  0  0  0  0  0  0  0  0
   -4.9604   22.7451  -27.2638 H   0  0  0  0  0  0  0  0  0  0  0  0
   -4.0871   23.2576  -32.0082 H   0  0  0  0  0  0  0  0  0  0  0  0
   -5.0777   21.3856  -33.3249 H   0  0  0  0  0  0  0  0  0  0  0  0
   -8.3149   18.1163  -31.8894 H   0  0  0  0  0  0  0  0  0  0  0  0
   -7.2863   15.8979  -32.3650 H   0  0  0  0  0  0  0  0  0  0  0  0
  1  2  1  0
  2  3  2  0
  3  4  1  0
  4  5  2  0
  5  6  1  0
  6  7  2  0
  7  8  1  0
  8  9  2  0
  9 10  1  0
 10 11  2  0
 10 12  1  0
 12 13  1  0
 13 14  1  0
 14 15  2  0
 14 16  1  0
 16 17  1  0
 17 18  2  0
 18 19  1  0
 19 20  2  0
 20 21  1  0
 21 22  1  0
 22 23  2  0
 23 24  1  0
 24 25  2  0
 25 26  1  0
 26 27  2  0
 26 28  2  0
 26 29  1  0
 29 30  1  0
 30 31  1  0
 31 32  1  0
 32 33  1  0
 33 34  1  0
 25 35  1  0
 35 36  2  0
 20 37  1  0
 37 38  2  0
 12  2  1  0
 38 17  1  0
  9  4  1  0
 36 22  1  0
 34 29  1  0
  1 39  1  0
  1 40  1  0
  1 41  1  0
  5 42  1  0
  6 43  1  0
  7 44  1  0
  8 45  1  0
 13 46  1  0
 13 47  1  0
 16 48  1  0
 18 49  1  0
 19 50  1  0
 23 51  1  0
 24 52  1  0
 30 53  1  0
 30 54  1  0
 31 55  1  0
 31 56  1  0
 32 57  1  0
 32 58  1  0
 33 59  1  0
 33 60  1  0
 34 61  1  0
 34 62  1  0
 35 63  1  0
 36 64  1  0
 37 65  1  0
 38 66  1  0
M  END
>  <UniqueID>  (14) 
14

>  <SMILES>  (14) 
Cc1nc2ccccc2c(=O)n1CC(=O)Nc1ccc(Oc2ccc(S(=O)(=O)N3CCCCC3)cc2)cc1

>  <Energy>  (14) 
94.93720786960569

>  <Genealogy>  (14) 
Cc1nc2ccccc2c(=O)n1CC(=O)Nc1ccc(Oc2ccc(S(=O)(=O)N3CCCCC3)cc2)cc1 (3D coordinates assigned)
Cc1nc2ccccc2c(=O)n1CC(=O)Nc1ccc(Oc2ccc(S(=O)(=O)N3CCCCC3)cc2)cc1 (nonaromatic ring conformer: 94.93720786960569 kcal/mol)

>  <smiles>  (14) 
Cc1nc2ccccc2c(=O)n1CC(=O)Nc1ccc(Oc2ccc(S(=O)(=O)N3CCCCC3)cc2)cc1

>  <score_type>  (14) 
oracle

>  <origin>  (14) 
adgpu

>  <m_score__min__energy>  (14) 
-10.300000000000001

>  <m_primary>  (14) 
energy

$$$$
14:0
     RDKit          3D

 54 55  0  0  0  0  0  0  0  0999 V2000
   -2.7110   20.0280  -27.4310 C   0  0  0  0  0  0  0  0  0  0  0  0
   -2.0960   21.3770  -27.8020 C   0  0  0  0  0  0  0  0  0  0  0  0
   -1.3540   21.2820  -29.0800 N   0  0  0  0  0  0  0  0  0  0  0  0
   -0.3530   20.1940  -29.0080 C   0  0  0  0  0  0  0  0  0  0  0  0
   -0.0630   19.6250  -30.3660 C   0  0  0  0  0  0  0  0  0  0  0  0
    1.1240   19.6000  -30.7860 O   0  0  0  0  0  0  0  0  0  0  0  0
   -1.1390   19.0720  -31.1360 N   0  0  0  0  0  0  0  0  0  0  0  0
   -2.0840   19.7690  -31.9610 C   0  0  0  0  0  0  0  0  0  0  0  0
   -1.6610   20.9340  -32.6130 C   0  0  0  0  0  0  0  0  0  0  0  0
   -2.5470   21.6620  -33.4100 C   0  0  0  0  0  0  0  0  0  0  0  0
   -3.8620   21.2240  -33.5730 C   0  0  0  0  0  0  0  0  0  0  0  0
   -4.2930   20.0450  -32.9500 C   0  0  0  0  0  0  0  0  0  0  0  0
   -5.9420   19.4690  -33.1870 S   0  0  0  0  0  0  0  0  0  0  0  0
   -5.9550   18.5420  -34.3690 O   0  0  0  0  0  0  0  0  0  0  0  0
   -6.8490   20.6370  -33.4630 O   0  0  0  0  0  0  0  0  0  0  0  0
   -6.4950   18.6220  -31.7640 N   0  0  0  0  0  0  0  0  0  0  0  0
   -7.9540   18.7480  -31.6470 C   0  0  0  0  0  0  0  0  0  0  0  0
   -6.1220   17.2050  -31.8640 C   0  0  0  0  0  0  0  0  0  0  0  0
   -3.3980   19.3070  -32.1620 C   0  0  0  0  0  0  0  0  0  0  0  0
   -0.7390   22.5810  -29.4590 C   0  0  0  0  0  0  0  0  0  0  0  0
   -1.8270   23.5460  -29.8430 C   0  0  0  0  0  0  0  0  0  0  0  0
   -1.9160   24.6390  -29.2250 O   0  0  0  0  0  0  0  0  0  0  0  0
   -2.8210   23.2280  -30.8250 N   0  0  0  0  0  0  0  0  0  0  0  0
   -4.2450   23.3210  -30.6730 C   0  0  0  0  0  0  0  0  0  0  0  0
   -5.0600   22.1750  -30.6800 C   0  0  0  0  0  0  0  0  0  0  0  0
   -6.4470   22.2970  -30.5630 C   0  0  0  0  0  0  0  0  0  0  0  0
   -7.0340   23.5600  -30.4640 C   0  0  0  0  0  0  0  0  0  0  0  0
   -6.2350   24.7050  -30.4950 C   0  0  0  0  0  0  0  0  0  0  0  0
   -4.8420   24.5900  -30.6060 C   0  0  0  0  0  0  0  0  0  0  0  0
   -4.0450   25.7330  -30.6410 O   0  0  0  0  0  0  0  0  0  0  0  0
   -2.7541   19.9334  -26.3359 H   0  0  0  0  0  0  0  0  0  0  0  0
   -3.7280   19.9624  -27.8450 H   0  0  0  0  0  0  0  0  0  0  0  0
   -2.0935   19.2172  -27.8450 H   0  0  0  0  0  0  0  0  0  0  0  0
   -2.8978   22.1230  -27.9049 H   0  0  0  0  0  0  0  0  0  0  0  0
   -1.3953   21.6757  -27.0084 H   0  0  0  0  0  0  0  0  0  0  0  0
    0.5789   20.5929  -28.5808 H   0  0  0  0  0  0  0  0  0  0  0  0
   -0.7600   19.3908  -28.3762 H   0  0  0  0  0  0  0  0  0  0  0  0
   -0.6228   21.2783  -32.4964 H   0  0  0  0  0  0  0  0  0  0  0  0
   -2.2081   22.5815  -33.9097 H   0  0  0  0  0  0  0  0  0  0  0  0
   -4.5615   21.8053  -34.1917 H   0  0  0  0  0  0  0  0  0  0  0  0
   -8.2359   18.7723  -30.5840 H   0  0  0  0  0  0  0  0  0  0  0  0
   -8.2820   19.6778  -32.1347 H   0  0  0  0  0  0  0  0  0  0  0  0
   -8.4366   17.8882  -32.1347 H   0  0  0  0  0  0  0  0  0  0  0  0
   -6.0109   16.7830  -30.8543 H   0  0  0  0  0  0  0  0  0  0  0  0
   -6.9064   16.6567  -32.4063 H   0  0  0  0  0  0  0  0  0  0  0  0
   -5.1693   17.1140  -32.4063 H   0  0  0  0  0  0  0  0  0  0  0  0
   -3.7242   18.3638  -31.6994 H   0  0  0  0  0  0  0  0  0  0  0  0
   -0.1733   22.9838  -28.6059 H   0  0  0  0  0  0  0  0  0  0  0  0
   -0.0562   22.4343  -30.3089 H   0  0  0  0  0  0  0  0  0  0  0  0
   -4.6039   21.1788  -30.7779 H   0  0  0  0  0  0  0  0  0  0  0  0
   -7.0779   21.3960  -30.5489 H   0  0  0  0  0  0  0  0  0  0  0  0
   -8.1253   23.6531  -30.3616 H   0  0  0  0  0  0  0  0  0  0  0  0
   -6.6999   25.7000  -30.4322 H   0  0  0  0  0  0  0  0  0  0  0  0
   -3.0390   25.6750  -30.7490 H   0  0  0  0  0  0  0  0  0  0  0  0
  1  2  1  0
  2  3  1  0
  3  4  1  0
  4  5  1  0
  5  6  2  0
  5  7  1  0
  7  8  1  0
  8  9  2  0
  9 10  1  0
 10 11  2  0
 11 12  1  0
 12 13  1  0
 13 14  2  0
 13 15  2  0
 13 16  1  0
 16 17  1  0
 16 18  1  0
 12 19  2  0
  3 20  1  0
 20 21  1  0
 21 22  2  0
 21 23  1  0
 23 24  1  0
 24 25  2  0
 25 26  1  0
 26 27  2  0
 27 28  1  0
 28 29  2  0
 29 30  1  0
 19  8  1  0
 29 24  1  0
  1 31  1  0
  1 32  1  0
  1 33  1  0
  2 34  1  0
  2 35  1  0
  4 36  1  0
  4 37  1  0
  9 38  1  0
 10 39  1  0
 11 40  1  0
 17 41  1  0
 17 42  1  0
 17 43  1  0
 18 44  1  0
 18 45  1  0
 18 46  1  0
 19 47  1  0
 20 48  1  0
 20 49  1  0
 25 50  1  0
 26 51  1  0
 27 52  1  0
 28 53  1  0
 30 54  1  0
M  CHG  2   7  -1  23  -1
M  END
>  <UniqueID>  (15) 
15

>  <SMILES>  (15) 
CCN(CC(=O)[N-]c1cccc(S(=O)(=O)N(C)C)c1)CC(=O)[N-]c1ccccc1O

>  <Energy>  (15) 
55.53465986515717

>  <Genealogy>  (15) 
CCN(CC(=O)[N-]c1cccc(S(=O)(=O)N(C)C)c1)CC(=O)[N-]c1ccccc1O (protonated)
CCN(CC(=O)[N-]c1cccc(S(=O)(=O)N(C)C)c1)CC(=O)[N-]c1ccccc1O (3D coordinates assigned)
CCN(CC(=O)[N-]c1cccc(S(=O)(=O)N(C)C)c1)CC(=O)[N-]c1ccccc1O (optimized conformer: 55.53465986515717 kcal/mol)

>  <smiles>  (15) 
CCN(CC(=O)Nc1cccc(S(=O)(=O)N(C)C)c1)CC(=O)Nc1ccccc1O

>  <score_type>  (15) 
oracle

>  <origin>  (15) 
adgpu

>  <m_score__min__energy>  (15) 
-10.800000000000001

>  <m_primary>  (15) 
energy

$$$$
15:0
     RDKit          3D

 66 69  0  0  0  0  0  0  0  0999 V2000
   -0.7960   21.0080  -33.7540 C   0  0  0  0  0  0  0  0  0  0  0  0
   -0.9660   20.4370  -32.3840 C   0  0  0  0  0  0  0  0  0  0  0  0
   -1.8770   19.5890  -32.1830 O   0  0  0  0  0  0  0  0  0  0  0  0
   -0.0490   20.7890  -31.3360 N   0  0  0  0  0  0  0  0  0  0  0  0
   -0.2470   20.4660  -29.9490 C   0  0  0  0  0  0  0  0  0  0  0  0
   -0.4240   19.1270  -29.5730 C   0  0  0  0  0  0  0  0  0  0  0  0
   -0.5870   18.7850  -28.2270 C   0  0  0  0  0  0  0  0  0  0  0  0
   -0.5610   19.7740  -27.2430 C   0  0  0  0  0  0  0  0  0  0  0  0
   -0.3570   21.1160  -27.5970 C   0  0  0  0  0  0  0  0  0  0  0  0
   -0.2780   22.1860  -26.5410 C   0  0  0  0  0  0  0  0  0  0  0  0
   -1.5560   22.7930  -26.3480 O   0  0  0  0  0  0  0  0  0  0  0  0
   -2.4650   23.1080  -27.3700 C   0  0  0  0  0  0  0  0  0  0  0  0
   -2.1530   24.1610  -28.2380 C   0  0  0  0  0  0  0  0  0  0  0  0
   -3.0380   24.5320  -29.2540 C   0  0  0  0  0  0  0  0  0  0  0  0
   -4.2500   23.8480  -29.4160 C   0  0  0  0  0  0  0  0  0  0  0  0
   -5.3960   24.3460  -30.6640 S   0  0  0  0  0  0  0  0  0  0  0  0
   -4.9890   25.6890  -31.2070 O   0  0  0  0  0  0  0  0  0  0  0  0
   -6.7630   24.4880  -30.0510 O   0  0  0  0  0  0  0  0  0  0  0  0
   -5.4610   23.1870  -31.9700 N   0  0  0  0  0  0  0  0  0  0  0  0
   -4.1180   22.6230  -32.2260 C   0  0  0  0  0  0  0  0  0  0  0  0
   -4.1980   21.3200  -33.0240 C   0  0  0  0  0  0  0  0  0  0  0  0
   -4.9140   20.2310  -32.1950 C   0  0  0  0  0  0  0  0  0  0  0  0
   -5.3770   19.1200  -33.0670 N   0  0  0  0  0  0  0  0  0  0  0  0
   -6.0790   18.0180  -32.3720 C   0  0  0  0  0  0  0  0  0  0  0  0
   -6.8560   17.1660  -33.3920 C   0  0  0  0  0  0  0  0  0  0  0  0
   -6.1510   17.0940  -34.7600 C   0  0  0  0  0  0  0  0  0  0  0  0
   -4.6360   17.2730  -34.6200 C   0  0  0  0  0  0  0  0  0  0  0  0
   -4.2920   18.6200  -33.9490 C   0  0  0  0  0  0  0  0  0  0  0  0
   -6.0160   20.8220  -31.2690 C   0  0  0  0  0  0  0  0  0  0  0  0
   -6.5360   22.1840  -31.7620 C   0  0  0  0  0  0  0  0  0  0  0  0
   -4.5560   22.7780  -28.5660 C   0  0  0  0  0  0  0  0  0  0  0  0
   -3.6720   22.4070  -27.5520 C   0  0  0  0  0  0  0  0  0  0  0  0
   -0.1980   21.4560  -28.9520 C   0  0  0  0  0  0  0  0  0  0  0  0
   -0.4829   22.0597  -33.6767 H   0  0  0  0  0  0  0  0  0  0  0  0
   -0.0292   20.4361  -34.2970 H   0  0  0  0  0  0  0  0  0  0  0  0
   -1.7508   20.9487  -34.2970 H   0  0  0  0  0  0  0  0  0  0  0  0
    0.8450   21.2580  -31.6070 H   0  0  0  0  0  0  0  0  0  0  0  0
   -0.4347   18.3404  -30.3418 H   0  0  0  0  0  0  0  0  0  0  0  0
   -0.7362   17.7328  -27.9429 H   0  0  0  0  0  0  0  0  0  0  0  0
   -0.7009   19.5006  -26.1867 H   0  0  0  0  0  0  0  0  0  0  0  0
    0.0560   21.7364  -25.5943 H   0  0  0  0  0  0  0  0  0  0  0  0
    0.4362   22.9563  -26.8675 H   0  0  0  0  0  0  0  0  0  0  0  0
   -1.2023   24.7015  -28.1193 H   0  0  0  0  0  0  0  0  0  0  0  0
   -2.7825   25.3629  -29.9280 H   0  0  0  0  0  0  0  0  0  0  0  0
   -3.5260   23.3547  -32.7953 H   0  0  0  0  0  0  0  0  0  0  0  0
   -3.6456   22.4049  -31.2569 H   0  0  0  0  0  0  0  0  0  0  0  0
   -4.7590   21.4969  -33.9535 H   0  0  0  0  0  0  0  0  0  0  0  0
   -3.1788   20.9800  -33.2599 H   0  0  0  0  0  0  0  0  0  0  0  0
   -4.1839   19.7882  -31.5015 H   0  0  0  0  0  0  0  0  0  0  0  0
   -5.3427   17.3857  -31.8542 H   0  0  0  0  0  0  0  0  0  0  0  0
   -6.7843   18.4415  -31.6418 H   0  0  0  0  0  0  0  0  0  0  0  0
   -6.9585   16.1457  -32.9939 H   0  0  0  0  0  0  0  0  0  0  0  0
   -7.8363   17.6407  -33.5460 H   0  0  0  0  0  0  0  0  0  0  0  0
   -6.3546   16.1139  -35.2161 H   0  0  0  0  0  0  0  0  0  0  0  0
   -6.5381   17.9073  -35.3914 H   0  0  0  0  0  0  0  0  0  0  0  0
   -4.2332   16.4535  -34.0067 H   0  0  0  0  0  0  0  0  0  0  0  0
   -4.1897   17.2610  -35.6253 H   0  0  0  0  0  0  0  0  0  0  0  0
   -3.3815   18.4892  -33.3457 H   0  0  0  0  0  0  0  0  0  0  0  0
   -4.1497   19.3608  -34.7496 H   0  0  0  0  0  0  0  0  0  0  0  0
   -6.8589   20.1163  -31.2299 H   0  0  0  0  0  0  0  0  0  0  0  0
   -5.5690   20.9759  -30.2758 H   0  0  0  0  0  0  0  0  0  0  0  0
   -7.0601   22.0319  -32.7171 H   0  0  0  0  0  0  0  0  0  0  0  0
   -7.2012   22.5793  -30.9802 H   0  0  0  0  0  0  0  0  0  0  0  0
   -5.4987   22.2268  -28.6984 H   0  0  0  0  0  0  0  0  0  0  0  0
   -3.9196   21.5627  -26.8918 H   0  0  0  0  0  0  0  0  0  0  0  0
   -0.0337   22.5063  -29.2346 H   0  0  0  0  0  0  0  0  0  0  0  0
  1  2  1  0
  2  3  2  0
  2  4  1  0
  4  5  1  0
  5  6  2  0
  6  7  1  0
  7  8  2  0
  8  9  1  0
  9 10  1  0
 10 11  1  0
 11 12  1  0
 12 13  2  0
 13 14  1  0
 14 15  2  0
 15 16  1  0
 16 17  2  0
 16 18  2  0
 16 19  1  0
 19 20  1  0
 20 21  1  0
 21 22  1  0
 22 23  1  0
 23 24  1  0
 24 25  1  0
 25 26  1  0
 26 27  1  0
 27 28  1  0
 22 29  1  0
 29 30  1  0
 15 31  1  0
 31 32  2  0
  9 33  2  0
 33  5  1  0
 32 12  1  0
 30 19  1  0
 28 23  1  0
  1 34  1  0
  1 35  1  0
  1 36  1  0
  4 37  1  0
  6 38  1  0
  7 39  1  0
  8 40  1  0
 10 41  1  0
 10 42  1  0
 13 43  1  0
 14 44  1  0
 20 45  1  0
 20 46  1  0
 21 47  1  0
 21 48  1  0
 22 49  1  0
 24 50  1  0
 24 51  1  0
 25 52  1  0
 25 53  1  0
 26 54  1  0
 26 55  1  0
 27 56  1  0
 27 57  1  0
 28 58  1  0
 28 59  1  0
 29 60  1  0
 29 61  1  0
 30 62  1  0
 30 63  1  0
 31 64  1  0
 32 65  1  0
 33 66  1  0
M  END
>  <UniqueID>  (16) 
16

>  <SMILES>  (16) 
CC(=O)Nc1cccc(COc2ccc(S(=O)(=O)N3CCC(N4CCCCC4)CC3)cc2)c1

>  <Energy>  (16) 
84.24598697967987

>  <Genealogy>  (16) 
CC(=O)Nc1cccc(COc2ccc(S(=O)(=O)N3CCC(N4CCCCC4)CC3)cc2)c1 (3D coordinates assigned)
CC(=O)Nc1cccc(COc2ccc(S(=O)(=O)N3CCC(N4CCCCC4)CC3)cc2)c1 (nonaromatic ring conformer: 84.24598697967987 kcal/mol)

>  <smiles>  (16) 
CC(=O)Nc1cccc(COc2ccc(S(=O)(=O)N3CCC(N4CCCCC4)CC3)cc2)c1

>  <score_type>  (16) 
oracle

>  <origin>  (16) 
adgpu

>  <m_score__min__energy>  (16) 
-11.1

>  <m_primary>  (16) 
energy

$$$$
16:0
     RDKit          3D

 47 50  0  0  0  0  0  0  0  0999 V2000
   -9.4450   21.3160  -31.9630 C   0  0  0  0  0  0  0  0  0  0  0  0
   -8.3840   20.4600  -31.2800 C   0  0  0  0  0  0  0  0  0  0  0  0
   -7.2460   20.2390  -32.1800 N   0  0  0  0  0  0  0  0  0  0  0  0
   -6.2910   21.1340  -32.5580 C   0  0  0  0  0  0  0  0  0  0  0  0
   -6.1870   22.5330  -32.0840 C   0  0  0  0  0  0  0  0  0  0  0  0
   -6.7610   23.4520  -32.7260 O   0  0  0  0  0  0  0  0  0  0  0  0
   -5.4760   22.8570  -30.8730 N   0  0  0  0  0  0  0  0  0  0  0  0
   -5.9710   23.9000  -29.9690 C   0  0  0  0  0  0  0  0  0  0  0  0
   -4.8670   24.9240  -29.7010 C   0  0  0  0  0  0  0  0  0  0  0  0
   -3.6230   24.2380  -29.3320 N   0  0  0  0  0  0  0  0  0  0  0  0
   -2.7340   24.8440  -28.3750 C   0  0  0  0  0  0  0  0  0  0  0  0
   -2.9650   24.7190  -26.9960 C   0  0  0  0  0  0  0  0  0  0  0  0
   -2.0920   25.3290  -26.0940 C   0  0  0  0  0  0  0  0  0  0  0  0
   -1.0040   26.0650  -26.5680 C   0  0  0  0  0  0  0  0  0  0  0  0
   -0.8100   26.1830  -27.9450 C   0  0  0  0  0  0  0  0  0  0  0  0
   -1.6700   25.5790  -28.8080 N   0  0  0  0  0  0  0  0  0  0  0  0
   -3.1320   23.1830  -30.2320 C   0  0  0  0  0  0  0  0  0  0  0  0
   -4.2380   22.1620  -30.5000 C   0  0  0  0  0  0  0  0  0  0  0  0
   -5.3790   20.5400  -33.4290 C   0  0  0  0  0  0  0  0  0  0  0  0
   -5.8030   19.2390  -33.5680 C   0  0  0  0  0  0  0  0  0  0  0  0
   -5.2590   18.1920  -34.3080 C   0  0  0  0  0  0  0  0  0  0  0  0
   -5.9040   16.9440  -34.2540 C   0  0  0  0  0  0  0  0  0  0  0  0
   -7.0630   16.7740  -33.4660 C   0  0  0  0  0  0  0  0  0  0  0  0
   -7.5870   17.8500  -32.7270 C   0  0  0  0  0  0  0  0  0  0  0  0
   -6.9300   19.0820  -32.8020 C   0  0  0  0  0  0  0  0  0  0  0  0
  -10.0617   21.8135  -31.2000 H   0  0  0  0  0  0  0  0  0  0  0  0
   -8.9554   22.0750  -32.5909 H   0  0  0  0  0  0  0  0  0  0  0  0
  -10.0833   20.6770  -32.5909 H   0  0  0  0  0  0  0  0  0  0  0  0
   -8.0336   20.9733  -30.3724 H   0  0  0  0  0  0  0  0  0  0  0  0
   -8.8254   19.4870  -31.0183 H   0  0  0  0  0  0  0  0  0  0  0  0
   -6.8321   24.4047  -30.4313 H   0  0  0  0  0  0  0  0  0  0  0  0
   -6.2763   23.4396  -29.0178 H   0  0  0  0  0  0  0  0  0  0  0  0
   -4.6974   25.5223  -30.6083 H   0  0  0  0  0  0  0  0  0  0  0  0
   -5.1764   25.5794  -28.8735 H   0  0  0  0  0  0  0  0  0  0  0  0
   -3.8281   24.1443  -26.6289 H   0  0  0  0  0  0  0  0  0  0  0  0
   -2.2607   25.2302  -25.0115 H   0  0  0  0  0  0  0  0  0  0  0  0
   -0.3083   26.5459  -25.8646 H   0  0  0  0  0  0  0  0  0  0  0  0
    0.0392   26.7650  -28.3325 H   0  0  0  0  0  0  0  0  0  0  0  0
   -2.8162   23.6350  -31.1838 H   0  0  0  0  0  0  0  0  0  0  0  0
   -2.2801   22.6738  -29.7577 H   0  0  0  0  0  0  0  0  0  0  0  0
   -3.9306   21.4975  -31.3210 H   0  0  0  0  0  0  0  0  0  0  0  0
   -4.4139   21.5696  -29.5900 H   0  0  0  0  0  0  0  0  0  0  0  0
   -4.5060   21.0114  -33.9040 H   0  0  0  0  0  0  0  0  0  0  0  0
   -4.3534   18.3370  -34.9154 H   0  0  0  0  0  0  0  0  0  0  0  0
   -5.5036   16.0957  -34.8286 H   0  0  0  0  0  0  0  0  0  0  0  0
   -7.5597   15.7932  -33.4297 H   0  0  0  0  0  0  0  0  0  0  0  0
   -8.4877   17.7258  -32.1079 H   0  0  0  0  0  0  0  0  0  0  0  0
  1  2  1  0
  2  3  1  0
  3  4  1  0
  4  5  1  0
  5  6  2  0
  5  7  1  0
  7  8  1  0
  8  9  1  0
  9 10  1  0
 10 11  1  0
 11 12  2  0
 12 13  1  0
 13 14  2  0
 14 15  1  0
 15 16  2  0
 10 17  1  0
 17 18  1  0
  4 19  2  0
 19 20  1  0
 20 21  2  0
 21 22  1  0
 22 23  2  0
 23 24  1  0
 24 25  2  0
 25  3  1  0
 18  7  1  0
 25 20  1  0
 16 11  1  0
  1 26  1  0
  1 27  1  0
  1 28  1  0
  2 29  1  0
  2 30  1  0
  8 31  1  0
  8 32  1  0
  9 33  1  0
  9 34  1  0
 12 35  1  0
 13 36  1  0
 14 37  1  0
 15 38  1  0
 17 39  1  0
 17 40  1  0
 18 41  1  0
 18 42  1  0
 19 43  1  0
 21 44  1  0
 22 45  1  0
 23 46  1  0
 24 47  1  0
M  END
>  <UniqueID>  (17) 
17

>  <SMILES>  (17) 
CCn1c(C(=O)N2CCN(c3ccccn3)CC2)cc2ccccc21

>  <Energy>  (17) 
89.10112943087066

>  <Genealogy>  (17) 
CCn1c(C(=O)N2CCN(c3ccccn3)CC2)cc2ccccc21 (3D coordinates assigned)
CCn1c(C(=O)N2CCN(c3ccccn3)CC2)cc2ccccc21 (nonaromatic ring conformer: 89.10112943087066 kcal/mol)

>  <smiles>  (17) 
CCn1c(C(=O)N2CCN(c3ccccn3)CC2)cc2ccccc21

>  <score_type>  (17) 
oracle

>  <origin>  (17) 
adgpu

>  <m_score__min__energy>  (17) 
-8.8900000000000006

>  <m_primary>  (17) 
energy

$$$$
17:0
     RDKit          3D

 22 22  0  0  0  0  0  0  0  0999 V2000
   -3.6540   18.5480  -25.9580 C   0  0  0  0  0  0  0  0  0  0  0  0
   -2.4090   19.0660  -26.5960 C   0  0  0  0  0  0  0  0  0  0  0  0
   -1.4460   18.2820  -26.8170 O   0  0  0  0  0  0  0  0  0  0  0  0
   -2.3000   20.4580  -26.9080 N   0  0  0  0  0  0  0  0  0  0  0  0
   -3.2570   21.1780  -27.7400 C   0  0  0  0  0  0  0  0  0  0  0  0
   -2.7050   22.5230  -28.1280 C   0  0  0  0  0  0  0  0  0  0  0  0
   -1.5230   22.9940  -27.5370 C   0  0  0  0  0  0  0  0  0  0  0  0
   -0.9950   24.2330  -27.9070 C   0  0  0  0  0  0  0  0  0  0  0  0
   -1.6370   25.0150  -28.8740 C   0  0  0  0  0  0  0  0  0  0  0  0
   -1.0870   26.2470  -29.2260 O   0  0  0  0  0  0  0  0  0  0  0  0
   -2.8170   24.5460  -29.4740 C   0  0  0  0  0  0  0  0  0  0  0  0
   -3.4670   25.3060  -30.4390 O   0  0  0  0  0  0  0  0  0  0  0  0
   -3.3460   23.3050  -29.1030 C   0  0  0  0  0  0  0  0  0  0  0  0
   -3.5505   18.5911  -24.8637 H   0  0  0  0  0  0  0  0  0  0  0  0
   -4.5098   19.1647  -26.2699 H   0  0  0  0  0  0  0  0  0  0  0  0
   -3.8198   17.5063  -26.2699 H   0  0  0  0  0  0  0  0  0  0  0  0
   -3.4593   20.5930  -28.6493 H   0  0  0  0  0  0  0  0  0  0  0  0
   -4.1868   21.3240  -27.1706 H   0  0  0  0  0  0  0  0  0  0  0  0
   -1.0096   22.3846  -26.7786 H   0  0  0  0  0  0  0  0  0  0  0  0
   -0.0697   24.5961  -27.4359 H   0  0  0  0  0  0  0  0  0  0  0  0
   -1.2370   26.6610  -30.1380 H   0  0  0  0  0  0  0  0  0  0  0  0
   -4.2688   22.9398  -29.5774 H   0  0  0  0  0  0  0  0  0  0  0  0
  1  2  1  0
  2  3  2  0
  2  4  1  0
  4  5  1  0
  5  6  1  0
  6  7  2  0
  7  8  1  0
  8  9  2  0
  9 10  1  0
  9 11  1  0
 11 12  1  0
 11 13  2  0
 13  6  1  0
  1 14  1  0
  1 15  1  0
  1 16  1  0
  5 17  1  0
  5 18  1  0
  7 19  1  0
  8 20  1  0
 10 21  1  0
 13 22  1  0
M  CHG  2   4  -1  12  -1
M  END
>  <UniqueID>  (18) 
18

>  <SMILES>  (18) 
CC(=O)[N-]Cc1ccc(O)c([O-])c1

>  <Energy>  (18) 
16.369213182046803

>  <Genealogy>  (18) 
CC(=O)[N-]Cc1ccc(O)c([O-])c1 (protonated)
CC(=O)[N-]Cc1ccc(O)c([O-])c1 (3D coordinates assigned)
CC(=O)[N-]Cc1ccc(O)c([O-])c1 (optimized conformer: 16.369213182046803 kcal/mol)

>  <smiles>  (18) 
CC(=O)NCc1ccc(O)c(O)c1

>  <score_type>  (18) 
oracle

>  <origin>  (18) 
adgpu

>  <m_score__min__energy>  (18) 
-8.8399999999999999

>  <m_primary>  (18) 
energy

$$$$
18:0
     RDKit          3D

 53 56  0  0  0  0  0  0  0  0999 V2000
   -1.2386   23.6177  -30.8814 H   0  0  0  0  0  0  0  0  0  0  0  0
   -1.5210   22.7100  -30.3280 C   0  0  0  0  0  0  0  0  0  0  0  0
   -0.5310   21.8270  -29.8890 C   0  0  0  0  0  0  0  0  0  0  0  0
    0.5253   22.0268  -30.1222 H   0  0  0  0  0  0  0  0  0  0  0  0
   -0.8810   20.6870  -29.1520 C   0  0  0  0  0  0  0  0  0  0  0  0
    0.3530   19.5400  -28.6430 S   0  0  0  0  0  0  0  0  0  0  0  0
   -0.2620   18.5010  -27.7470 O   0  0  0  0  0  0  0  0  0  0  0  0
    1.4390   20.2520  -27.8840 O   0  0  0  0  0  0  0  0  0  0  0  0
    1.0510   18.7590  -30.0800 C   0  0  0  0  0  0  0  0  0  0  0  0
    1.7534   17.9731  -29.7654 H   0  0  0  0  0  0  0  0  0  0  0  0
    0.2460   18.3119  -30.6818 H   0  0  0  0  0  0  0  0  0  0  0  0
    1.5854   19.5089  -30.6818 H   0  0  0  0  0  0  0  0  0  0  0  0
   -2.2270   20.4450  -28.8480 C   0  0  0  0  0  0  0  0  0  0  0  0
   -2.5057   19.5579  -28.2603 H   0  0  0  0  0  0  0  0  0  0  0  0
   -3.2160   21.3270  -29.2890 C   0  0  0  0  0  0  0  0  0  0  0  0
   -4.2688   21.1461  -29.0266 H   0  0  0  0  0  0  0  0  0  0  0  0
   -2.8700   22.4450  -30.0670 C   0  0  0  0  0  0  0  0  0  0  0  0
   -3.8680   23.3630  -30.5390 N   0  0  0  0  0  0  0  0  0  0  0  0
   -4.9330   23.1460  -31.2690 C   0  0  0  0  0  0  0  0  0  0  0  0
   -5.9500   24.1140  -31.2060 C   0  0  0  0  0  0  0  0  0  0  0  0
   -5.6840   25.6720  -30.4290 Cl  0  0  0  0  0  0  0  0  0  0  0  0
   -7.2340   23.8020  -31.6480 C   0  0  0  0  0  0  0  0  0  0  0  0
   -8.0316   24.5571  -31.5877 H   0  0  0  0  0  0  0  0  0  0  0  0
   -7.5060   22.5730  -32.1520 N   0  0  0  0  0  0  0  0  0  0  0  0
   -8.4930   22.3630  -32.4250 H   0  0  0  0  0  0  0  0  0  0  0  0
   -6.5240   21.6520  -32.3650 C   0  0  0  0  0  0  0  0  0  0  0  0
   -6.8440   20.4260  -32.9630 C   0  0  0  0  0  0  0  0  0  0  0  0
   -7.8958   20.1770  -33.1674 H   0  0  0  0  0  0  0  0  0  0  0  0
   -5.8350   19.5140  -33.3030 C   0  0  0  0  0  0  0  0  0  0  0  0
   -6.1150   18.2340  -33.8970 N   0  0  0  0  0  0  0  0  0  0  0  0
   -6.5040   16.9260  -33.1110 S   0  0  0  0  0  0  0  0  0  0  0  0
   -7.7940   17.1090  -32.3610 O   0  0  0  0  0  0  0  0  0  0  0  0
   -6.5940   15.5350  -34.1990 C   0  0  0  0  0  0  0  0  0  0  0  0
   -7.5068   14.9525  -34.0053 H   0  0  0  0  0  0  0  0  0  0  0  0
   -6.6307   15.8412  -35.2549 H   0  0  0  0  0  0  0  0  0  0  0  0
   -5.3530   14.7030  -33.8900 C   0  0  0  0  0  0  0  0  0  0  0  0
   -5.5608   13.6402  -34.0832 H   0  0  0  0  0  0  0  0  0  0  0  0
   -4.5159   15.0219  -34.5284 H   0  0  0  0  0  0  0  0  0  0  0  0
   -4.9930   14.9000  -32.4120 C   0  0  0  0  0  0  0  0  0  0  0  0
   -5.6433   14.2724  -31.7849 H   0  0  0  0  0  0  0  0  0  0  0  0
   -3.9459   14.6117  -32.2374 H   0  0  0  0  0  0  0  0  0  0  0  0
   -5.1970   16.3690  -32.0560 C   0  0  0  0  0  0  0  0  0  0  0  0
   -5.4835   16.4734  -30.9991 H   0  0  0  0  0  0  0  0  0  0  0  0
   -4.2778   16.9569  -32.1954 H   0  0  0  0  0  0  0  0  0  0  0  0
   -4.5010   19.8780  -33.1210 C   0  0  0  0  0  0  0  0  0  0  0  0
   -3.7047   19.1834  -33.4266 H   0  0  0  0  0  0  0  0  0  0  0  0
   -4.1560   21.1190  -32.5530 C   0  0  0  0  0  0  0  0  0  0  0  0
   -2.8270   21.5760  -32.5880 O   0  0  0  0  0  0  0  0  0  0  0  0
   -1.7720   20.9650  -33.3240 C   0  0  0  0  0  0  0  0  0  0  0  0
   -1.0365   20.5391  -32.6257 H   0  0  0  0  0  0  0  0  0  0  0  0
   -2.1824   20.1648  -33.9574 H   0  0  0  0  0  0  0  0  0  0  0  0
   -1.2822   21.7192  -33.9574 H   0  0  0  0  0  0  0  0  0  0  0  0
   -5.1780   21.9510  -32.0210 C   0  0  0  0  0  0  0  0  0  0  0  0
  1  2  1  0
  2  3  2  0
  3  4  1  0
  3  5  1  0
  5  6  1  0
  6  7  2  0
  6  8  2  0
  6  9  1  0
  9 10  1  0
  9 11  1  0
  9 12  1  0
  5 13  2  0
 13 14  1  0
 13 15  1  0
 15 16  1  0
 15 17  2  0
 17 18  1  0
 18 19  2  0
 19 20  1  0
 20 21  1  0
 20 22  2  0
 22 23  1  0
 22 24  1  0
 24 25  1  0
 24 26  1  0
 26 27  2  0
 27 28  1  0
 27 29  1  0
 29 30  1  0
 30 31  2  0
 31 32  2  0
 31 33  1  0
 33 34  1  0
 33 35  1  0
 33 36  1  0
 36 37  1  0
 36 38  1  0
 36 39  1  0
 39 40  1  0
 39 41  1  0
 39 42  1  0
 42 43  1  0
 42 44  1  0
 29 45  2  0
 45 46  1  0
 45 47  1  0
 47 48  1  0
 48 49  1  0
 49 50  1  0
 49 51  1  0
 49 52  1  0
 47 53  2  0
 17  2  1  0
 53 19  1  0
 53 26  1  0
 42 31  1  0
M  END
>  <UniqueID>  (19) 
19

>  <SMILES>  (19) 
COc1cc(N=S2(=O)CCCC2)cc2[nH]cc(Cl)/c(=N/c3ccc(S(C)(=O)=O)cc3)c12

>  <Energy>  (19) 
77.71431481591577

>  <Genealogy>  (19) 
COc1cc(N=S2(=O)CCCC2)cc2[nH]cc(Cl)/c(=N/c3ccc(S(C)(=O)=O)cc3)c12 (cis-trans isomerization)
COc1cc(N=S2(=O)CCCC2)cc2[nH]cc(Cl)/c(=N/c3ccc(S(C)(=O)=O)cc3)c12 (3D coordinates assigned)
COc1cc(N=S2(=O)CCCC2)cc2[nH]cc(Cl)/c(=N/c3ccc(S(C)(=O)=O)cc3)c12 (nonaromatic ring conformer: 77.71431481591577 kcal/mol)

>  <smiles>  (19) 
COc1cc(N=S2(=O)CCCC2)cc2[nH]cc(Cl)c(=Nc3ccc(S(C)(=O)=O)cc3)c12

>  <score_type>  (19) 
oracle

>  <origin>  (19) 
adgpu

>  <m_score__min__energy>  (19) 
-9.3100000000000005

>  <m_primary>  (19) 
energy

$$$$
19:0
     RDKit          3D

 22 23  0  0  0  0  0  0  0  0999 V2000
   -0.0533   25.1677  -28.2541 H   0  0  0  0  0  0  0  0  0  0  0  0
   -1.0750   24.7660  -28.3230 C   0  0  0  0  0  0  0  0  0  0  0  0
   -1.8890   25.1500  -29.3410 N   0  0  0  0  0  0  0  0  0  0  0  0
   -3.1630   24.6920  -29.4740 C   0  0  0  0  0  0  0  0  0  0  0  0
   -3.8630   25.1140  -30.4920 N   0  0  0  0  0  0  0  0  0  0  0  0
   -5.2420   24.8640  -30.8130 C   0  0  0  0  0  0  0  0  0  0  0  0
   -6.1070   25.7760  -30.7270 O   0  0  0  0  0  0  0  0  0  0  0  0
   -5.6340   23.5500  -31.3400 C   0  0  0  0  0  0  0  0  0  0  0  0
   -7.1690   22.8690  -31.2160 S   0  0  0  0  0  0  0  0  0  0  0  0
   -6.7880   21.4430  -32.0200 C   0  0  0  0  0  0  0  0  0  0  0  0
   -8.0050   20.0150  -32.3530 Br  0  0  0  0  0  0  0  0  0  0  0  0
   -5.4530   21.4790  -32.3970 C   0  0  0  0  0  0  0  0  0  0  0  0
   -4.9554   20.6624  -32.9406 H   0  0  0  0  0  0  0  0  0  0  0  0
   -4.8030   22.6590  -32.0160 C   0  0  0  0  0  0  0  0  0  0  0  0
   -3.7431   22.8622  -32.2289 H   0  0  0  0  0  0  0  0  0  0  0  0
   -3.6530   23.7610  -28.5320 C   0  0  0  0  0  0  0  0  0  0  0  0
   -4.6724   23.3592  -28.6287 H   0  0  0  0  0  0  0  0  0  0  0  0
   -2.8330   23.3540  -27.4760 C   0  0  0  0  0  0  0  0  0  0  0  0
   -3.2086   22.6348  -26.7333 H   0  0  0  0  0  0  0  0  0  0  0  0
   -1.5360   23.8610  -27.3640 C   0  0  0  0  0  0  0  0  0  0  0  0
   -0.6820   23.4460  -26.2810 C   0  0  0  0  0  0  0  0  0  0  0  0
    0.0040   23.1130  -25.4120 N   0  0  0  0  0  0  0  0  0  0  0  0
  1  2  1  0
  2  3  1  0
  3  4  1  0
  4  5  2  0
  5  6  1  0
  6  7  2  0
  6  8  1  0
  8  9  1  0
  9 10  1  0
 10 11  1  0
 10 12  2  0
 12 13  1  0
 12 14  1  0
 14 15  1  0
  4 16  1  0
 16 17  1  0
 16 18  2  0
 18 19  1  0
 18 20  1  0
 20 21  1  0
 21 22  3  0
 20  2  2  0
 14  8  2  0
M  CHG  1   3  -1
M  END
>  <UniqueID>  (20) 
20

>  <SMILES>  (20) 
N#Cc1cc/c(=N\C(=O)c2ccc(Br)s2)[n-]c1

>  <Energy>  (20) 
55.6872848373575

>  <Genealogy>  (20) 
N#Cc1ccc(=NC(=O)c2ccc(Br)s2)[n-]c1 (protonated)
N#Cc1cc/c(=N\C(=O)c2ccc(Br)s2)[n-]c1 (cis-trans isomerization)
N#Cc1cc/c(=N\C(=O)c2ccc(Br)s2)[n-]c1 (3D coordinates assigned)
N#Cc1cc/c(=N\C(=O)c2ccc(Br)s2)[n-]c1 (optimized conformer: 55.6872848373575 kcal/mol)

>  <smiles>  (20) 
N#Cc1ccc(=NC(=O)c2ccc(Br)s2)[nH]c1

>  <score_type>  (20) 
oracle

>  <origin>  (20) 
adgpu

>  <m_score__min__energy>  (20) 
-9.0999999999999996

>  <m_primary>  (20) 
energy

$$$$
20:0
     RDKit          3D

 69 72  0  0  0  0  0  0  0  0999 V2000
   -2.2940   18.2830  -26.3880 C   0  0  0  0  0  0  0  0  0  0  0  0
   -1.5990   19.5880  -26.6480 C   0  0  0  0  0  0  0  0  0  0  0  0
   -1.6320   20.6150  -25.6910 C   0  0  0  0  0  0  0  0  0  0  0  0
   -0.9560   21.8160  -25.9240 C   0  0  0  0  0  0  0  0  0  0  0  0
   -0.2280   21.9980  -27.1070 C   0  0  0  0  0  0  0  0  0  0  0  0
    0.6040   23.5220  -27.3870 S   0  0  0  0  0  0  0  0  0  0  0  0
    0.2840   24.4690  -26.2660 O   0  0  0  0  0  0  0  0  0  0  0  0
    2.0920   23.3110  -27.4180 O   0  0  0  0  0  0  0  0  0  0  0  0
    0.0810   24.2240  -28.8870 N   0  0  0  0  0  0  0  0  0  0  0  0
   -1.2810   24.3810  -29.3000 C   0  0  0  0  0  0  0  0  0  0  0  0
   -1.8870   25.4440  -29.0010 O   0  0  0  0  0  0  0  0  0  0  0  0
   -1.9980   23.3350  -30.0600 C   0  0  0  0  0  0  0  0  0  0  0  0
   -1.2740   22.4440  -30.8650 C   0  0  0  0  0  0  0  0  0  0  0  0
   -1.9330   21.4620  -31.6050 C   0  0  0  0  0  0  0  0  0  0  0  0
   -3.3290   21.3350  -31.5350 C   0  0  0  0  0  0  0  0  0  0  0  0
   -4.0140   20.3460  -32.3270 N   0  0  0  0  0  0  0  0  0  0  0  0
   -5.1450   20.7320  -33.1760 C   0  0  0  0  0  0  0  0  0  0  0  0
   -6.2730   19.6860  -33.0950 C   0  0  0  0  0  0  0  0  0  0  0  0
   -5.8020   18.2890  -32.9090 N   0  0  0  0  0  0  0  0  0  0  0  0
   -6.0940   17.7890  -31.5540 C   0  0  0  0  0  0  0  0  0  0  0  0
   -4.3840   18.0910  -33.2760 C   0  0  0  0  0  0  0  0  0  0  0  0
   -3.4560   18.9940  -32.4500 C   0  0  0  0  0  0  0  0  0  0  0  0
   -4.0510   22.1950  -30.6930 C   0  0  0  0  0  0  0  0  0  0  0  0
   -3.3960   23.1880  -29.9520 C   0  0  0  0  0  0  0  0  0  0  0  0
   -4.1650   24.0620  -29.1190 N   0  0  0  0  0  0  0  0  0  0  0  0
   -4.0390   23.9710  -27.6690 C   0  0  0  0  0  0  0  0  0  0  0  0
   -5.4920   24.9450  -29.8040 S   0  0  0  0  0  0  0  0  0  0  0  0
   -6.1470   25.7700  -28.7290 O   0  0  0  0  0  0  0  0  0  0  0  0
   -5.0010   25.8660  -30.8870 O   0  0  0  0  0  0  0  0  0  0  0  0
   -6.6370   23.8120  -30.5100 C   0  0  0  0  0  0  0  0  0  0  0  0
   -7.2970   22.8680  -29.7110 C   0  0  0  0  0  0  0  0  0  0  0  0
   -8.1890   21.9590  -30.2880 C   0  0  0  0  0  0  0  0  0  0  0  0
   -8.4180   21.9740  -31.6730 C   0  0  0  0  0  0  0  0  0  0  0  0
   -9.3920   21.0200  -32.2980 C   0  0  0  0  0  0  0  0  0  0  0  0
   -7.7610   22.9240  -32.4700 C   0  0  0  0  0  0  0  0  0  0  0  0
   -6.8720   23.8350  -31.8910 C   0  0  0  0  0  0  0  0  0  0  0  0
   -0.1720   20.9650  -28.0520 C   0  0  0  0  0  0  0  0  0  0  0  0
   -0.8540   19.7650  -27.8230 C   0  0  0  0  0  0  0  0  0  0  0  0
   -2.3793   18.1228  -25.3031 H   0  0  0  0  0  0  0  0  0  0  0  0
   -3.2987   18.3072  -26.8352 H   0  0  0  0  0  0  0  0  0  0  0  0
   -1.7132   17.4628  -26.8352 H   0  0  0  0  0  0  0  0  0  0  0  0
   -2.1918   20.4739  -24.7547 H   0  0  0  0  0  0  0  0  0  0  0  0
   -0.9958   22.6213  -25.1757 H   0  0  0  0  0  0  0  0  0  0  0  0
   -0.1777   22.5199  -30.9134 H   0  0  0  0  0  0  0  0  0  0  0  0
   -1.3544   20.7824  -32.2479 H   0  0  0  0  0  0  0  0  0  0  0  0
   -5.5316   21.7057  -32.8407 H   0  0  0  0  0  0  0  0  0  0  0  0
   -4.7978   20.7955  -34.2178 H   0  0  0  0  0  0  0  0  0  0  0  0
   -6.9230   19.9459  -32.2465 H   0  0  0  0  0  0  0  0  0  0  0  0
   -6.7978   19.7145  -34.0613 H   0  0  0  0  0  0  0  0  0  0  0  0
   -5.6857   18.4881  -30.8093 H   0  0  0  0  0  0  0  0  0  0  0  0
   -7.1827   17.7058  -31.4206 H   0  0  0  0  0  0  0  0  0  0  0  0
   -5.6316   16.7999  -31.4206 H   0  0  0  0  0  0  0  0  0  0  0  0
   -4.1121   17.0403  -33.0970 H   0  0  0  0  0  0  0  0  0  0  0  0
   -4.2632   18.3520  -34.3377 H   0  0  0  0  0  0  0  0  0  0  0  0
   -3.3337   18.5622  -31.4457 H   0  0  0  0  0  0  0  0  0  0  0  0
   -2.4841   19.0601  -32.9609 H   0  0  0  0  0  0  0  0  0  0  0  0
   -5.1430   22.0885  -30.6138 H   0  0  0  0  0  0  0  0  0  0  0  0
   -4.8433   24.5519  -27.1939 H   0  0  0  0  0  0  0  0  0  0  0  0
   -4.1152   22.9181  -27.3597 H   0  0  0  0  0  0  0  0  0  0  0  0
   -3.0635   24.3744  -27.3597 H   0  0  0  0  0  0  0  0  0  0  0  0
   -7.1126   22.8423  -28.6269 H   0  0  0  0  0  0  0  0  0  0  0  0
   -8.7136   21.2290  -29.6540 H   0  0  0  0  0  0  0  0  0  0  0  0
   -9.9389   20.4844  -31.5080 H   0  0  0  0  0  0  0  0  0  0  0  0
  -10.1042   21.5796  -32.9222 H   0  0  0  0  0  0  0  0  0  0  0  0
   -8.8473   20.2963  -32.9222 H   0  0  0  0  0  0  0  0  0  0  0  0
   -7.9460   22.9521  -33.5540 H   0  0  0  0  0  0  0  0  0  0  0  0
   -6.3551   24.5727  -32.5224 H   0  0  0  0  0  0  0  0  0  0  0  0
    0.4096   21.0978  -28.9762 H   0  0  0  0  0  0  0  0  0  0  0  0
   -0.8057   18.9569  -28.5677 H   0  0  0  0  0  0  0  0  0  0  0  0
  1  2  1  0
  2  3  2  0
  3  4  1  0
  4  5  2  0
  5  6  1  0
  6  7  2  0
  6  8  2  0
  6  9  1  0
  9 10  1  0
 10 11  2  0
 10 12  1  0
 12 13  2  0
 13 14  1  0
 14 15  2  0
 15 16  1  0
 16 17  1  0
 17 18  1  0
 18 19  1  0
 19 20  1  0
 19 21  1  0
 21 22  1  0
 15 23  1  0
 23 24  2  0
 24 25  1  0
 25 26  1  0
 25 27  1  0
 27 28  2  0
 27 29  2  0
 27 30  1  0
 30 31  2  0
 31 32  1  0
 32 33  2  0
 33 34  1  0
 33 35  1  0
 35 36  2  0
  5 37  1  0
 37 38  2  0
 38  2  1  0
 24 12  1  0
 36 30  1  0
 22 16  1  0
  1 39  1  0
  1 40  1  0
  1 41  1  0
  3 42  1  0
  4 43  1  0
 13 44  1  0
 14 45  1  0
 17 46  1  0
 17 47  1  0
 18 48  1  0
 18 49  1  0
 20 50  1  0
 20 51  1  0
 20 52  1  0
 21 53  1  0
 21 54  1  0
 22 55  1  0
 22 56  1  0
 23 57  1  0
 26 58  1  0
 26 59  1  0
 26 60  1  0
 31 61  1  0
 32 62  1  0
 34 63  1  0
 34 64  1  0
 34 65  1  0
 35 66  1  0
 36 67  1  0
 37 68  1  0
 38 69  1  0
M  CHG  1   9  -1
M  END
>  <UniqueID>  (21) 
21

>  <SMILES>  (21) 
Cc1ccc(S(=O)(=O)[N-]C(=O)c2ccc(N3CCN(C)CC3)cc2N(C)S(=O)(=O)c2ccc(C)cc2)cc1

>  <Energy>  (21) 
94.10502015519363

>  <Genealogy>  (21) 
Cc1ccc(S(=O)(=O)[N-]C(=O)c2ccc(N3CCN(C)CC3)cc2N(C)S(=O)(=O)c2ccc(C)cc2)cc1 (protonated)
Cc1ccc(S(=O)(=O)[N-]C(=O)c2ccc(N3CCN(C)CC3)cc2N(C)S(=O)(=O)c2ccc(C)cc2)cc1 (3D coordinates assigned)
Cc1ccc(S(=O)(=O)[N-]C(=O)c2ccc(N3CCN(C)CC3)cc2N(C)S(=O)(=O)c2ccc(C)cc2)cc1 (nonaromatic ring conformer: 94.10502015519363 kcal/mol)

>  <smiles>  (21) 
Cc1ccc(S(=O)(=O)NC(=O)c2ccc(N3CCN(C)CC3)cc2N(C)S(=O)(=O)c2ccc(C)cc2)cc1

>  <score_type>  (21) 
oracle

>  <origin>  (21) 
adgpu

>  <m_score__min__energy>  (21) 
-12.279999999999999

>  <m_primary>  (21) 
energy

$$$$
21:0
     RDKit          3D

 39 40  0  0  0  0  0  0  0  0999 V2000
   -6.2100   25.7160  -29.7590 C   0  0  0  0  0  0  0  0  0  0  0  0
   -5.9360   24.4370  -30.5010 C   0  0  0  0  0  0  0  0  0  0  0  0
   -6.9970   23.5710  -30.8130 C   0  0  0  0  0  0  0  0  0  0  0  0
   -6.7550   22.3600  -31.4670 C   0  0  0  0  0  0  0  0  0  0  0  0
   -5.4520   22.0070  -31.8330 C   0  0  0  0  0  0  0  0  0  0  0  0
   -5.1160   20.4690  -32.6260 S   0  0  0  0  0  0  0  0  0  0  0  0
   -3.9140   20.6020  -33.5200 O   0  0  0  0  0  0  0  0  0  0  0  0
   -4.8240   19.4410  -31.5690 O   0  0  0  0  0  0  0  0  0  0  0  0
   -6.5010   19.9760  -33.5680 N   0  0  0  0  0  0  0  0  0  0  0  0
   -7.5640   19.4900  -32.6780 C   0  0  0  0  0  0  0  0  0  0  0  0
   -6.1120   18.9330  -34.5280 C   0  0  0  0  0  0  0  0  0  0  0  0
   -4.3930   22.8700  -31.5360 C   0  0  0  0  0  0  0  0  0  0  0  0
   -4.6170   24.0650  -30.8320 C   0  0  0  0  0  0  0  0  0  0  0  0
   -3.5230   24.9230  -30.4640 N   0  0  0  0  0  0  0  0  0  0  0  0
   -2.4650   24.6030  -29.5480 C   0  0  0  0  0  0  0  0  0  0  0  0
   -1.5920   25.4760  -29.3030 O   0  0  0  0  0  0  0  0  0  0  0  0
   -2.3750   23.2880  -28.8760 C   0  0  0  0  0  0  0  0  0  0  0  0
   -1.4960   22.3200  -29.3840 C   0  0  0  0  0  0  0  0  0  0  0  0
   -1.4280   21.0550  -28.7980 C   0  0  0  0  0  0  0  0  0  0  0  0
   -2.2280   20.7710  -27.6920 C   0  0  0  0  0  0  0  0  0  0  0  0
   -3.0550   21.7240  -27.1880 N   0  0  0  0  0  0  0  0  0  0  0  0
   -3.1510   22.9630  -27.7420 C   0  0  0  0  0  0  0  0  0  0  0  0
   -4.1980   24.1380  -26.9580 Cl  0  0  0  0  0  0  0  0  0  0  0  0
   -6.1696   25.5275  -28.6760 H   0  0  0  0  0  0  0  0  0  0  0  0
   -5.4522   26.4662  -30.0291 H   0  0  0  0  0  0  0  0  0  0  0  0
   -7.2086   26.0899  -30.0291 H   0  0  0  0  0  0  0  0  0  0  0  0
   -8.0260   23.8481  -30.5405 H   0  0  0  0  0  0  0  0  0  0  0  0
   -7.5913   21.6827  -31.6945 H   0  0  0  0  0  0  0  0  0  0  0  0
   -6.8580   20.8070  -34.0960 H   0  0  0  0  0  0  0  0  0  0  0  0
   -7.2579   19.6299  -31.6308 H   0  0  0  0  0  0  0  0  0  0  0  0
   -8.4885   20.0549  -32.8684 H   0  0  0  0  0  0  0  0  0  0  0  0
   -7.7416   18.4213  -32.8684 H   0  0  0  0  0  0  0  0  0  0  0  0
   -5.7783   18.0382  -33.9821 H   0  0  0  0  0  0  0  0  0  0  0  0
   -6.9748   18.6763  -35.1602 H   0  0  0  0  0  0  0  0  0  0  0  0
   -5.2918   19.3040  -35.1602 H   0  0  0  0  0  0  0  0  0  0  0  0
   -3.3734   22.6106  -31.8570 H   0  0  0  0  0  0  0  0  0  0  0  0
   -0.8578   22.5588  -30.2475 H   0  0  0  0  0  0  0  0  0  0  0  0
   -0.7502   20.2900  -29.2046 H   0  0  0  0  0  0  0  0  0  0  0  0
   -2.1896   19.7748  -27.2271 H   0  0  0  0  0  0  0  0  0  0  0  0
  1  2  1  0
  2  3  2  0
  3  4  1  0
  4  5  2  0
  5  6  1  0
  6  7  2  0
  6  8  2  0
  6  9  1  0
  9 10  1  0
  9 11  1  0
  5 12  1  0
 12 13  2  0
 13 14  1  0
 14 15  1  0
 15 16  2  0
 15 17  1  0
 17 18  2  0
 18 19  1  0
 19 20  2  0
 20 21  1  0
 21 22  2  0
 22 23  1  0
 13  2  1  0
 22 17  1  0
  1 24  1  0
  1 25  1  0
  1 26  1  0
  3 27  1  0
  4 28  1  0
  9 29  1  0
 10 30  1  0
 10 31  1  0
 10 32  1  0
 11 33  1  0
 11 34  1  0
 11 35  1  0
 12 36  1  0
 18 37  1  0
 19 38  1  0
 20 39  1  0
M  CHG  2   9   1  14  -1
M  END
>  <UniqueID>  (22) 
22

>  <SMILES>  (22) 
Cc1ccc(S(=O)(=O)[NH+](C)C)cc1[N-]C(=O)c1cccnc1Cl

>  <Energy>  (22) 
43.90692000712341

>  <Genealogy>  (22) 
Cc1ccc(S(=O)(=O)[NH+](C)C)cc1[N-]C(=O)c1cccnc1Cl (protonated)
Cc1ccc(S(=O)(=O)[NH+](C)C)cc1[N-]C(=O)c1cccnc1Cl (3D coordinates assigned)
Cc1ccc(S(=O)(=O)[NH+](C)C)cc1[N-]C(=O)c1cccnc1Cl (optimized conformer: 43.90692000712341 kcal/mol)

>  <smiles>  (22) 
Cc1ccc(S(=O)(=O)N(C)C)cc1NC(=O)c1cccnc1Cl

>  <score_type>  (22) 
oracle

>  <origin>  (22) 
adgpu

>  <m_score__min__energy>  (22) 
-8.8399999999999999

>  <m_primary>  (22) 
energy

$$$$
22:0
     RDKit          3D

 37 39  0  0  0  0  0  0  0  0999 V2000
   -0.1320   17.9180  -29.5290 N   0  0  0  0  0  0  0  0  0  0  0  0
    0.1980   18.7240  -28.3990 C   0  0  0  0  0  0  0  0  0  0  0  0
    0.6890   18.1700  -27.3780 O   0  0  0  0  0  0  0  0  0  0  0  0
   -0.0170   20.1960  -28.4150 C   0  0  0  0  0  0  0  0  0  0  0  0
    0.8740   21.0300  -27.7190 C   0  0  0  0  0  0  0  0  0  0  0  0
    0.7050   22.3770  -27.7160 N   0  0  0  0  0  0  0  0  0  0  0  0
   -0.3190   22.9760  -28.3740 C   0  0  0  0  0  0  0  0  0  0  0  0
   -0.4500   24.3660  -28.3370 C   0  0  0  0  0  0  0  0  0  0  0  0
   -1.5020   24.9940  -29.0120 C   0  0  0  0  0  0  0  0  0  0  0  0
   -1.6120   26.3790  -28.9690 O   0  0  0  0  0  0  0  0  0  0  0  0
   -2.4370   24.2350  -29.7310 C   0  0  0  0  0  0  0  0  0  0  0  0
   -3.4950   24.9170  -30.4180 N   0  0  0  0  0  0  0  0  0  0  0  0
   -5.1350   24.3610  -30.5350 S   0  0  0  0  0  0  0  0  0  0  0  0
   -5.6460   24.0850  -29.1480 O   0  0  0  0  0  0  0  0  0  0  0  0
   -5.9830   25.4350  -31.1570 O   0  0  0  0  0  0  0  0  0  0  0  0
   -5.2190   22.9020  -31.5350 C   0  0  0  0  0  0  0  0  0  0  0  0
   -4.0500   22.4600  -32.1750 C   0  0  0  0  0  0  0  0  0  0  0  0
   -4.0850   21.3790  -33.0570 C   0  0  0  0  0  0  0  0  0  0  0  0
   -2.9120   20.9660  -33.6840 O   0  0  0  0  0  0  0  0  0  0  0  0
   -5.2950   20.7260  -33.3080 C   0  0  0  0  0  0  0  0  0  0  0  0
   -6.4620   21.1460  -32.6720 C   0  0  0  0  0  0  0  0  0  0  0  0
   -6.4410   22.2230  -31.7710 C   0  0  0  0  0  0  0  0  0  0  0  0
   -7.6580   22.6090  -31.1130 N   0  0  0  0  0  0  0  0  0  0  0  0
   -7.7780   22.4490  -29.8810 O   0  0  0  0  0  0  0  0  0  0  0  0
   -8.6040   23.3510  -31.7820 O   0  0  0  0  0  0  0  0  0  0  0  0
   -2.3110   22.8340  -29.7630 C   0  0  0  0  0  0  0  0  0  0  0  0
   -1.2510   22.1950  -29.0900 C   0  0  0  0  0  0  0  0  0  0  0  0
   -1.0980   20.7940  -29.1060 C   0  0  0  0  0  0  0  0  0  0  0  0
   -1.9320   20.0790  -29.7260 O   0  0  0  0  0  0  0  0  0  0  0  0
   -0.8660   18.2180  -30.2060 H   0  0  0  0  0  0  0  0  0  0  0  0
    1.7180   20.5866  -27.1703 H   0  0  0  0  0  0  0  0  0  0  0  0
    0.2774   24.9697  -27.7745 H   0  0  0  0  0  0  0  0  0  0  0  0
   -3.0960   22.9714  -31.9790 H   0  0  0  0  0  0  0  0  0  0  0  0
   -2.4340   21.5560  -34.3560 H   0  0  0  0  0  0  0  0  0  0  0  0
   -5.3264   19.8788  -34.0089 H   0  0  0  0  0  0  0  0  0  0  0  0
   -7.4102   20.6280  -32.8782 H   0  0  0  0  0  0  0  0  0  0  0  0
   -3.0461   22.2327  -30.3180 H   0  0  0  0  0  0  0  0  0  0  0  0
  1  2  1  0
  2  3  2  0
  2  4  1  0
  4  5  2  0
  5  6  1  0
  6  7  1  0
  7  8  2  0
  8  9  1  0
  9 10  1  0
  9 11  2  0
 11 12  1  0
 12 13  1  0
 13 14  2  0
 13 15  2  0
 13 16  1  0
 16 17  2  0
 17 18  1  0
 18 19  1  0
 18 20  2  0
 20 21  1  0
 21 22  2  0
 22 23  1  0
 23 24  2  0
 23 25  1  0
 11 26  1  0
 26 27  2  0
 27 28  1  0
 28 29  2  0
 28  4  1  0
 27  7  1  0
 22 16  1  0
  1 30  1  0
  5 31  1  0
  8 32  1  0
 17 33  1  0
 19 34  1  0
 20 35  1  0
 21 36  1  0
 26 37  1  0
M  CHG  6   1  -1   6  -1  10  -1  12  -1  23   1  25  -1
M  END
>  <UniqueID>  (23) 
23

>  <SMILES>  (23) 
[NH-]C(=O)c1c[n-]c2cc([O-])c([N-]S(=O)(=O)c3cc(O)ccc3[N+](=O)[O-])cc2c1=O

>  <Energy>  (23) 
56.10090881281293

>  <Genealogy>  (23) 
[NH-]C(=O)c1c[n-]c2cc([O-])c([N-]S(=O)(=O)c3cc(O)ccc3[N+](=O)[O-])cc2c1=O (protonated)
[NH-]C(=O)c1c[n-]c2cc([O-])c([N-]S(=O)(=O)c3cc(O)ccc3[N+](=O)[O-])cc2c1=O (3D coordinates assigned)
[NH-]C(=O)c1c[n-]c2cc([O-])c([N-]S(=O)(=O)c3cc(O)ccc3[N+](=O)[O-])cc2c1=O (optimized conformer: 56.10090881281293 kcal/mol)

>  <smiles>  (23) 
NC(=O)c1c[nH]c2cc(O)c(NS(=O)(=O)c3cc(O)ccc3[N+](=O)[O-])cc2c1=O

>  <score_type>  (23) 
oracle

>  <origin>  (23) 
adgpu

>  <m_score__min__energy>  (23) 
-12.859999999999999

>  <m_primary>  (23) 
energy

$$$$
23:0
     RDKit          3D

 26 27  0  0  0  0  0  0  0  0999 V2000
   -5.0479   19.2688  -33.7662 H   0  0  0  0  0  0  0  0  0  0  0  0
   -5.1280   20.2390  -33.2540 C   0  0  0  0  0  0  0  0  0  0  0  0
   -3.9790   20.9910  -33.0000 C   0  0  0  0  0  0  0  0  0  0  0  0
   -2.9933   20.6079  -33.3026 H   0  0  0  0  0  0  0  0  0  0  0  0
   -4.0810   22.2310  -32.3610 C   0  0  0  0  0  0  0  0  0  0  0  0
   -3.1725   22.8141  -32.1496 H   0  0  0  0  0  0  0  0  0  0  0  0
   -5.3340   22.7340  -31.9890 C   0  0  0  0  0  0  0  0  0  0  0  0
   -5.3990   24.0100  -31.3420 N   0  0  0  0  0  0  0  0  0  0  0  0
   -4.3480   24.5480  -30.5360 C   0  0  0  0  0  0  0  0  0  0  0  0
   -3.8690   25.6730  -30.8330 O   0  0  0  0  0  0  0  0  0  0  0  0
   -3.8120   23.7770  -29.4460 N   0  0  0  0  0  0  0  0  0  0  0  0
   -2.6600   23.8920  -28.8440 C   0  0  0  0  0  0  0  0  0  0  0  0
   -2.3190   22.9440  -27.8710 C   0  0  0  0  0  0  0  0  0  0  0  0
   -3.0149   22.1271  -27.6291 H   0  0  0  0  0  0  0  0  0  0  0  0
   -1.1270   23.0360  -27.2270 N   0  0  0  0  0  0  0  0  0  0  0  0
   -0.2570   24.0400  -27.4990 C   0  0  0  0  0  0  0  0  0  0  0  0
    0.9960   24.1120  -26.7970 C   0  0  0  0  0  0  0  0  0  0  0  0
    2.0050   24.1680  -26.2320 N   0  0  0  0  0  0  0  0  0  0  0  0
   -0.5960   25.0040  -28.4500 C   0  0  0  0  0  0  0  0  0  0  0  0
    0.0976   25.8281  -28.6733 H   0  0  0  0  0  0  0  0  0  0  0  0
   -1.7900   24.9190  -29.1000 N   0  0  0  0  0  0  0  0  0  0  0  0
   -2.0200   25.6880  -29.7620 H   0  0  0  0  0  0  0  0  0  0  0  0
   -6.4920   21.9590  -32.2190 C   0  0  0  0  0  0  0  0  0  0  0  0
   -8.2210   22.5050  -31.5970 Br  0  0  0  0  0  0  0  0  0  0  0  0
   -6.3790   20.7180  -32.8580 C   0  0  0  0  0  0  0  0  0  0  0  0
   -7.2803   20.1171  -33.0491 H   0  0  0  0  0  0  0  0  0  0  0  0
  1  2  1  0
  2  3  2  0
  3  4  1  0
  3  5  1  0
  5  6  1  0
  5  7  2  0
  7  8  1  0
  8  9  1  0
  9 10  2  0
  9 11  1  0
 11 12  2  0
 12 13  1  0
 13 14  1  0
 13 15  2  0
 15 16  1  0
 16 17  1  0
 17 18  3  0
 16 19  2  0
 19 20  1  0
 19 21  1  0
 21 22  1  0
  7 23  1  0
 23 24  1  0
 23 25  2  0
 25 26  1  0
 25  2  1  0
 21 12  1  0
M  CHG  1   8  -1
M  END
>  <UniqueID>  (24) 
24

>  <SMILES>  (24) 
N#Cc1c[nH]/c(=N\C(=O)[N-]c2ccccc2Br)cn1

>  <Energy>  (24) 
41.079103394595414

>  <Genealogy>  (24) 
N#Cc1c[nH]c(=NC(=O)[N-]c2ccccc2Br)cn1 (protonated)
N#Cc1c[nH]/c(=N\C(=O)[N-]c2ccccc2Br)cn1 (cis-trans isomerization)
N#Cc1c[nH]/c(=N\C(=O)[N-]c2ccccc2Br)cn1 (3D coordinates assigned)
N#Cc1c[nH]/c(=N\C(=O)[N-]c2ccccc2Br)cn1 (optimized conformer: 41.079103394595414 kcal/mol)

>  <smiles>  (24) 
N#Cc1c[nH]c(=NC(=O)Nc2ccccc2Br)cn1

>  <score_type>  (24) 
oracle

>  <origin>  (24) 
adgpu

>  <m_score__min__energy>  (24) 
-8.3300000000000001

>  <m_primary>  (24) 
energy

$$$$
24:0
     RDKit          3D

 61 64  0  0  0  0  0  0  0  0999 V2000
   -1.1600   21.8150  -26.3300 C   0  0  0  0  0  0  0  0  0  0  0  0
   -1.7480   22.7580  -27.3450 C   0  0  0  0  0  0  0  0  0  0  0  0
   -2.9880   22.4410  -27.9250 C   0  0  0  0  0  0  0  0  0  0  0  0
   -3.5590   23.2770  -28.8840 C   0  0  0  0  0  0  0  0  0  0  0  0
   -2.9010   24.4370  -29.2950 C   0  0  0  0  0  0  0  0  0  0  0  0
   -3.5240   25.2740  -30.2810 N   0  0  0  0  0  0  0  0  0  0  0  0
   -4.9170   25.3000  -30.6260 C   0  0  0  0  0  0  0  0  0  0  0  0
   -5.5570   26.3720  -30.4700 O   0  0  0  0  0  0  0  0  0  0  0  0
   -5.6090   24.1210  -31.1950 C   0  0  0  0  0  0  0  0  0  0  0  0
   -4.8860   23.1110  -31.8540 C   0  0  0  0  0  0  0  0  0  0  0  0
   -5.5400   21.9720  -32.3300 C   0  0  0  0  0  0  0  0  0  0  0  0
   -6.9240   21.8350  -32.1720 C   0  0  0  0  0  0  0  0  0  0  0  0
   -7.7140   20.3540  -32.7060 S   0  0  0  0  0  0  0  0  0  0  0  0
   -7.2240   20.0240  -34.0890 O   0  0  0  0  0  0  0  0  0  0  0  0
   -9.2050   20.5520  -32.7560 O   0  0  0  0  0  0  0  0  0  0  0  0
   -7.3080   19.0520  -31.6080 N   0  0  0  0  0  0  0  0  0  0  0  0
   -5.8610   18.8080  -31.6140 C   0  0  0  0  0  0  0  0  0  0  0  0
   -5.5700   17.7160  -32.6340 C   0  0  0  0  0  0  0  0  0  0  0  0
   -6.9060   17.0470  -32.9090 C   0  0  0  0  0  0  0  0  0  0  0  0
   -7.9190   17.7930  -32.0500 C   0  0  0  0  0  0  0  0  0  0  0  0
   -7.6550   22.8550  -31.5480 C   0  0  0  0  0  0  0  0  0  0  0  0
   -7.0020   23.9940  -31.0670 C   0  0  0  0  0  0  0  0  0  0  0  0
   -1.6350   24.7340  -28.7630 C   0  0  0  0  0  0  0  0  0  0  0  0
   -1.0580   23.9180  -27.7770 C   0  0  0  0  0  0  0  0  0  0  0  0
    0.5120   24.3790  -27.0950 S   0  0  0  0  0  0  0  0  0  0  0  0
    1.3830   24.8990  -28.2040 O   0  0  0  0  0  0  0  0  0  0  0  0
    1.1860   23.1830  -26.4780 O   0  0  0  0  0  0  0  0  0  0  0  0
    0.2940   25.6130  -25.8790 N   0  0  0  0  0  0  0  0  0  0  0  0
   -0.4790   25.0760  -24.7470 C   0  0  0  0  0  0  0  0  0  0  0  0
   -0.4890   26.0830  -23.5790 C   0  0  0  0  0  0  0  0  0  0  0  0
   -0.2150   27.5230  -24.0410 C   0  0  0  0  0  0  0  0  0  0  0  0
   -0.8630   27.7920  -25.4020 C   0  0  0  0  0  0  0  0  0  0  0  0
   -0.3810   26.7890  -26.4710 C   0  0  0  0  0  0  0  0  0  0  0  0
   -1.3868   22.1787  -25.3170 H   0  0  0  0  0  0  0  0  0  0  0  0
   -1.5938   20.8133  -26.4656 H   0  0  0  0  0  0  0  0  0  0  0  0
   -0.0696   21.7637  -26.4656 H   0  0  0  0  0  0  0  0  0  0  0  0
   -3.5135   21.5242  -27.6195 H   0  0  0  0  0  0  0  0  0  0  0  0
   -4.5357   23.0201  -29.3199 H   0  0  0  0  0  0  0  0  0  0  0  0
   -3.8004   23.2182  -31.9954 H   0  0  0  0  0  0  0  0  0  0  0  0
   -4.9649   21.1795  -32.8311 H   0  0  0  0  0  0  0  0  0  0  0  0
   -5.3286   19.7295  -31.8921 H   0  0  0  0  0  0  0  0  0  0  0  0
   -5.5229   18.4962  -30.6148 H   0  0  0  0  0  0  0  0  0  0  0  0
   -5.1617   18.1522  -33.5576 H   0  0  0  0  0  0  0  0  0  0  0  0
   -4.8248   16.9983  -32.2604 H   0  0  0  0  0  0  0  0  0  0  0  0
   -7.1673   17.1335  -33.9740 H   0  0  0  0  0  0  0  0  0  0  0  0
   -6.8814   15.9733  -32.6713 H   0  0  0  0  0  0  0  0  0  0  0  0
   -8.8229   18.0049  -32.6400 H   0  0  0  0  0  0  0  0  0  0  0  0
   -8.2017   17.1823  -31.1799 H   0  0  0  0  0  0  0  0  0  0  0  0
   -8.7451   22.7593  -31.4364 H   0  0  0  0  0  0  0  0  0  0  0  0
   -7.5824   24.7950  -30.5857 H   0  0  0  0  0  0  0  0  0  0  0  0
   -1.0885   25.6178  -29.1239 H   0  0  0  0  0  0  0  0  0  0  0  0
   -1.5129   24.8863  -25.0712 H   0  0  0  0  0  0  0  0  0  0  0  0
   -0.0123   24.1395  -24.4076 H   0  0  0  0  0  0  0  0  0  0  0  0
   -1.4754   26.0500  -23.0933 H   0  0  0  0  0  0  0  0  0  0  0  0
    0.3139   25.7965  -22.8839 H   0  0  0  0  0  0  0  0  0  0  0  0
   -0.6281   28.2237  -23.3005 H   0  0  0  0  0  0  0  0  0  0  0  0
    0.8722   27.6613  -24.1355 H   0  0  0  0  0  0  0  0  0  0  0  0
   -1.9550   27.7072  -25.3001 H   0  0  0  0  0  0  0  0  0  0  0  0
   -0.5750   28.8032  -25.7254 H   0  0  0  0  0  0  0  0  0  0  0  0
   -1.2511   26.4431  -27.0484 H   0  0  0  0  0  0  0  0  0  0  0  0
    0.3484   27.3067  -27.1113 H   0  0  0  0  0  0  0  0  0  0  0  0
  1  2  1  0
  2  3  2  0
  3  4  1  0
  4  5  2  0
  5  6  1  0
  6  7  1  0
  7  8  2  0
  7  9  1  0
  9 10  2  0
 10 11  1  0
 11 12  2  0
 12 13  1  0
 13 14  2  0
 13 15  2  0
 13 16  1  0
 16 17  1  0
 17 18  1  0
 18 19  1  0
 19 20  1  0
 12 21  1  0
 21 22  2  0
  5 23  1  0
 23 24  2  0
 24 25  1  0
 25 26  2  0
 25 27  2  0
 25 28  1  0
 28 29  1  0
 29 30  1  0
 30 31  1  0
 31 32  1  0
 32 33  1  0
 24  2  1  0
 33 28  1  0
 22  9  1  0
 20 16  1  0
  1 34  1  0
  1 35  1  0
  1 36  1  0
  3 37  1  0
  4 38  1  0
 10 39  1  0
 11 40  1  0
 17 41  1  0
 17 42  1  0
 18 43  1  0
 18 44  1  0
 19 45  1  0
 19 46  1  0
 20 47  1  0
 20 48  1  0
 21 49  1  0
 22 50  1  0
 23 51  1  0
 29 52  1  0
 29 53  1  0
 30 54  1  0
 30 55  1  0
 31 56  1  0
 31 57  1  0
 32 58  1  0
 32 59  1  0
 33 60  1  0
 33 61  1  0
M  CHG  1   6  -1
M  END
>  <UniqueID>  (25) 
25

>  <SMILES>  (25) 
Cc1ccc([N-]C(=O)c2ccc(S(=O)(=O)N3CCCC3)cc2)cc1S(=O)(=O)N1CCCCC1

>  <Energy>  (25) 
72.21763628460654

>  <Genealogy>  (25) 
Cc1ccc([N-]C(=O)c2ccc(S(=O)(=O)N3CCCC3)cc2)cc1S(=O)(=O)N1CCCCC1 (protonated)
Cc1ccc([N-]C(=O)c2ccc(S(=O)(=O)N3CCCC3)cc2)cc1S(=O)(=O)N1CCCCC1 (3D coordinates assigned)
Cc1ccc([N-]C(=O)c2ccc(S(=O)(=O)N3CCCC3)cc2)cc1S(=O)(=O)N1CCCCC1 (nonaromatic ring conformer: 72.21763628460654 kcal/mol)

>  <smiles>  (25) 
Cc1ccc(NC(=O)c2ccc(S(=O)(=O)N3CCCC3)cc2)cc1S(=O)(=O)N1CCCCC1

>  <score_type>  (25) 
oracle

>  <origin>  (25) 
adgpu

>  <m_score__min__energy>  (25) 
-13.67

>  <m_primary>  (25) 
energy

$$$$
25:0
     RDKit          3D

 57 60  0  0  0  0  0  0  0  0999 V2000
   -1.5440   19.1290  -33.4480 O   0  0  0  0  0  0  0  0  0  0  0  0
   -2.4030   19.9960  -33.1370 C   0  0  0  0  0  0  0  0  0  0  0  0
   -3.6780   19.9690  -33.7930 N   0  0  0  0  0  0  0  0  0  0  0  0
   -4.9490   19.8460  -33.1400 C   0  0  0  0  0  0  0  0  0  0  0  0
   -5.5970   18.6060  -33.1460 C   0  0  0  0  0  0  0  0  0  0  0  0
   -6.8520   18.4620  -32.5480 C   0  0  0  0  0  0  0  0  0  0  0  0
   -7.4780   19.5630  -31.9580 C   0  0  0  0  0  0  0  0  0  0  0  0
   -6.8530   20.8180  -31.9700 C   0  0  0  0  0  0  0  0  0  0  0  0
   -7.6520   22.2140  -31.2520 S   0  0  0  0  0  0  0  0  0  0  0  0
   -8.3620   22.9860  -32.3300 O   0  0  0  0  0  0  0  0  0  0  0  0
   -8.6740   21.7490  -30.2500 O   0  0  0  0  0  0  0  0  0  0  0  0
   -6.4730   23.2450  -30.4810 N   0  0  0  0  0  0  0  0  0  0  0  0
   -7.1160   24.3250  -29.7260 C   0  0  0  0  0  0  0  0  0  0  0  0
   -6.1670   25.5050  -29.7670 C   0  0  0  0  0  0  0  0  0  0  0  0
   -5.4320   25.3510  -31.0820 C   0  0  0  0  0  0  0  0  0  0  0  0
   -5.5740   23.8790  -31.4600 C   0  0  0  0  0  0  0  0  0  0  0  0
   -5.5860   20.9550  -32.5560 C   0  0  0  0  0  0  0  0  0  0  0  0
   -2.0960   20.9800  -32.0750 C   0  0  0  0  0  0  0  0  0  0  0  0
   -2.9210   22.1010  -31.8900 C   0  0  0  0  0  0  0  0  0  0  0  0
   -2.6300   23.0340  -30.8910 C   0  0  0  0  0  0  0  0  0  0  0  0
   -1.5030   22.8690  -30.0750 C   0  0  0  0  0  0  0  0  0  0  0  0
   -1.1150   24.0670  -28.8430 S   0  0  0  0  0  0  0  0  0  0  0  0
   -1.5680   25.4260  -29.3030 O   0  0  0  0  0  0  0  0  0  0  0  0
    0.3780   24.0850  -28.6680 O   0  0  0  0  0  0  0  0  0  0  0  0
   -1.8750   23.6660  -27.3150 N   0  0  0  0  0  0  0  0  0  0  0  0
   -2.3910   22.2850  -27.2990 C   0  0  0  0  0  0  0  0  0  0  0  0
   -3.6970   22.1310  -28.1140 C   0  0  0  0  0  0  0  0  0  0  0  0
   -4.3390   23.3630  -28.3930 O   0  0  0  0  0  0  0  0  0  0  0  0
   -4.3360   24.1800  -27.2450 C   0  0  0  0  0  0  0  0  0  0  0  0
   -2.9060   24.6560  -26.9320 C   0  0  0  0  0  0  0  0  0  0  0  0
   -0.6630   21.7650  -30.2740 C   0  0  0  0  0  0  0  0  0  0  0  0
   -0.9620   20.8210  -31.2590 C   0  0  0  0  0  0  0  0  0  0  0  0
   -5.1161   17.7398  -33.6239 H   0  0  0  0  0  0  0  0  0  0  0  0
   -7.3478   17.4801  -32.5418 H   0  0  0  0  0  0  0  0  0  0  0  0
   -8.4632   19.4449  -31.4831 H   0  0  0  0  0  0  0  0  0  0  0  0
   -5.9090   22.6560  -29.8240 H   0  0  0  0  0  0  0  0  0  0  0  0
   -8.0762   24.5936  -30.1906 H   0  0  0  0  0  0  0  0  0  0  0  0
   -7.3223   24.0172  -28.6903 H   0  0  0  0  0  0  0  0  0  0  0  0
   -6.7237   26.4534  -29.7408 H   0  0  0  0  0  0  0  0  0  0  0  0
   -5.4844   25.5245  -28.9047 H   0  0  0  0  0  0  0  0  0  0  0  0
   -5.8856   25.9912  -31.8530 H   0  0  0  0  0  0  0  0  0  0  0  0
   -4.3769   25.6500  -30.9966 H   0  0  0  0  0  0  0  0  0  0  0  0
   -6.0005   23.7920  -32.4702 H   0  0  0  0  0  0  0  0  0  0  0  0
   -4.5911   23.3852  -31.4536 H   0  0  0  0  0  0  0  0  0  0  0  0
   -5.0879   21.9358  -32.5587 H   0  0  0  0  0  0  0  0  0  0  0  0
   -3.8006   22.2456  -32.5345 H   0  0  0  0  0  0  0  0  0  0  0  0
   -3.2891   23.9024  -30.7446 H   0  0  0  0  0  0  0  0  0  0  0  0
   -1.6277   21.6182  -27.7265 H   0  0  0  0  0  0  0  0  0  0  0  0
   -2.6163   22.0245  -26.2543 H   0  0  0  0  0  0  0  0  0  0  0  0
   -3.4557   21.6404  -29.0685 H   0  0  0  0  0  0  0  0  0  0  0  0
   -4.3913   21.5362  -27.5023 H   0  0  0  0  0  0  0  0  0  0  0  0
   -4.9794   25.0548  -27.4204 H   0  0  0  0  0  0  0  0  0  0  0  0
   -4.7147   23.5989  -26.3912 H   0  0  0  0  0  0  0  0  0  0  0  0
   -2.7181   25.5898  -27.4823 H   0  0  0  0  0  0  0  0  0  0  0  0
   -2.8365   24.8023  -25.8440 H   0  0  0  0  0  0  0  0  0  0  0  0
    0.2356   21.6414  -29.6518 H   0  0  0  0  0  0  0  0  0  0  0  0
   -0.3067   19.9483  -31.3972 H   0  0  0  0  0  0  0  0  0  0  0  0
  1  2  2  0
  2  3  1  0
  3  4  1  0
  4  5  2  0
  5  6  1  0
  6  7  2  0
  7  8  1  0
  8  9  1  0
  9 10  2  0
  9 11  2  0
  9 12  1  0
 12 13  1  0
 13 14  1  0
 14 15  1  0
 15 16  1  0
  8 17  2  0
  2 18  1  0
 18 19  2  0
 19 20  1  0
 20 21  2  0
 21 22  1  0
 22 23  2  0
 22 24  2  0
 22 25  1  0
 25 26  1  0
 26 27  1  0
 27 28  1  0
 28 29  1  0
 29 30  1  0
 21 31  1  0
 31 32  2  0
 17  4  1  0
 32 18  1  0
 16 12  1  0
 30 25  1  0
  5 33  1  0
  6 34  1  0
  7 35  1  0
 12 36  1  0
 13 37  1  0
 13 38  1  0
 14 39  1  0
 14 40  1  0
 15 41  1  0
 15 42  1  0
 16 43  1  0
 16 44  1  0
 17 45  1  0
 19 46  1  0
 20 47  1  0
 26 48  1  0
 26 49  1  0
 27 50  1  0
 27 51  1  0
 29 52  1  0
 29 53  1  0
 30 54  1  0
 30 55  1  0
 31 56  1  0
 32 57  1  0
M  CHG  2   3  -1  12   1
M  END
>  <UniqueID>  (26) 
26

>  <SMILES>  (26) 
O=C([N-]c1cccc(S(=O)(=O)[NH+]2CCCC2)c1)c1ccc(S(=O)(=O)N2CCOCC2)cc1

>  <Energy>  (26) 
73.8638030599957

>  <Genealogy>  (26) 
O=C([N-]c1cccc(S(=O)(=O)[NH+]2CCCC2)c1)c1ccc(S(=O)(=O)N2CCOCC2)cc1 (protonated)
O=C([N-]c1cccc(S(=O)(=O)[NH+]2CCCC2)c1)c1ccc(S(=O)(=O)N2CCOCC2)cc1 (3D coordinates assigned)
O=C([N-]c1cccc(S(=O)(=O)[NH+]2CCCC2)c1)c1ccc(S(=O)(=O)N2CCOCC2)cc1 (nonaromatic ring conformer: 73.8638030599957 kcal/mol)

>  <smiles>  (26) 
O=C(Nc1cccc(S(=O)(=O)N2CCCC2)c1)c1ccc(S(=O)(=O)N2CCOCC2)cc1

>  <score_type>  (26) 
oracle

>  <origin>  (26) 
adgpu

>  <m_score__min__energy>  (26) 
-12.41

>  <m_primary>  (26) 
energy

$$$$
26:0
     RDKit          3D

 52 55  0  0  0  0  0  0  0  0999 V2000
   -5.7370   26.3800  -31.1690 O   0  0  0  0  0  0  0  0  0  0  0  0
   -5.3620   25.1380  -30.4080 S   0  0  0  0  0  0  0  0  0  0  0  0
   -5.7650   25.3350  -28.9720 O   0  0  0  0  0  0  0  0  0  0  0  0
   -3.6450   24.9090  -30.5290 N   0  0  0  0  0  0  0  0  0  0  0  0
   -2.8370   24.0770  -29.6830 C   0  0  0  0  0  0  0  0  0  0  0  0
   -3.0350   22.6900  -29.5870 C   0  0  0  0  0  0  0  0  0  0  0  0
   -2.2260   21.9080  -28.7500 C   0  0  0  0  0  0  0  0  0  0  0  0
   -1.2110   22.5160  -27.9930 C   0  0  0  0  0  0  0  0  0  0  0  0
   -1.0050   23.8980  -28.0950 C   0  0  0  0  0  0  0  0  0  0  0  0
   -1.8160   24.6750  -28.9290 C   0  0  0  0  0  0  0  0  0  0  0  0
   -1.5900   26.0450  -29.0210 O   0  0  0  0  0  0  0  0  0  0  0  0
   -0.2940   21.6550  -27.1560 C   0  0  0  0  0  0  0  0  0  0  0  0
   -1.0020   20.4440  -26.5010 C   0  0  0  0  0  0  0  0  0  0  0  0
   -2.3500   20.0390  -27.1420 C   0  0  0  0  0  0  0  0  0  0  0  0
   -2.4340   20.4240  -28.6210 C   0  0  0  0  0  0  0  0  0  0  0  0
   -6.1990   23.7590  -31.1150 C   0  0  0  0  0  0  0  0  0  0  0  0
   -7.5900   23.8020  -31.2970 C   0  0  0  0  0  0  0  0  0  0  0  0
   -8.2590   22.7160  -31.8660 C   0  0  0  0  0  0  0  0  0  0  0  0
   -7.5420   21.5850  -32.2710 C   0  0  0  0  0  0  0  0  0  0  0  0
   -6.1510   21.5380  -32.1090 C   0  0  0  0  0  0  0  0  0  0  0  0
   -5.2470   20.1180  -32.6290 S   0  0  0  0  0  0  0  0  0  0  0  0
   -5.7000   18.9320  -31.8220 O   0  0  0  0  0  0  0  0  0  0  0  0
   -5.5350   19.8430  -34.0810 O   0  0  0  0  0  0  0  0  0  0  0  0
   -3.5360   20.3750  -32.3860 N   0  0  0  0  0  0  0  0  0  0  0  0
   -3.0600   21.4630  -33.2650 C   0  0  0  0  0  0  0  0  0  0  0  0
   -1.5180   21.5400  -33.2570 C   0  0  0  0  0  0  0  0  0  0  0  0
   -0.9690   20.7100  -32.2490 O   0  0  0  0  0  0  0  0  0  0  0  0
   -1.2790   19.3560  -32.5300 C   0  0  0  0  0  0  0  0  0  0  0  0
   -2.8010   19.1270  -32.6690 C   0  0  0  0  0  0  0  0  0  0  0  0
   -5.4840   22.6190  -31.5150 C   0  0  0  0  0  0  0  0  0  0  0  0
   -3.8329   22.2121  -30.1744 H   0  0  0  0  0  0  0  0  0  0  0  0
   -0.2007   24.3750  -27.5158 H   0  0  0  0  0  0  0  0  0  0  0  0
    0.5129   21.2779  -27.8015 H   0  0  0  0  0  0  0  0  0  0  0  0
    0.0826   22.2874  -26.3385 H   0  0  0  0  0  0  0  0  0  0  0  0
   -0.3237   19.5802  -26.5622 H   0  0  0  0  0  0  0  0  0  0  0  0
   -1.2355   20.7497  -25.4704 H   0  0  0  0  0  0  0  0  0  0  0  0
   -2.4694   18.9491  -27.0537 H   0  0  0  0  0  0  0  0  0  0  0  0
   -3.1484   20.5773  -26.6103 H   0  0  0  0  0  0  0  0  0  0  0  0
   -1.6550   19.8913  -29.1862 H   0  0  0  0  0  0  0  0  0  0  0  0
   -3.4206   20.1494  -29.0224 H   0  0  0  0  0  0  0  0  0  0  0  0
   -8.1554   24.6943  -30.9904 H   0  0  0  0  0  0  0  0  0  0  0  0
   -9.3508   22.7500  -31.9958 H   0  0  0  0  0  0  0  0  0  0  0  0
   -8.0715   20.7306  -32.7177 H   0  0  0  0  0  0  0  0  0  0  0  0
   -3.4063   21.2745  -34.2919 H   0  0  0  0  0  0  0  0  0  0  0  0
   -3.4624   22.4172  -32.8941 H   0  0  0  0  0  0  0  0  0  0  0  0
   -1.1374   21.2146  -34.2364 H   0  0  0  0  0  0  0  0  0  0  0  0
   -1.2222   22.5794  -33.0518 H   0  0  0  0  0  0  0  0  0  0  0  0
   -0.7891   19.0676  -33.4717 H   0  0  0  0  0  0  0  0  0  0  0  0
   -0.9188   18.7438  -31.6901 H   0  0  0  0  0  0  0  0  0  0  0  0
   -3.0261   18.7981  -33.6943 H   0  0  0  0  0  0  0  0  0  0  0  0
   -3.1137   18.3570  -31.9483 H   0  0  0  0  0  0  0  0  0  0  0  0
   -4.3957   22.5735  -31.3618 H   0  0  0  0  0  0  0  0  0  0  0  0
  1  2  2  0
  2  3  2  0
  2  4  1  0
  4  5  1  0
  5  6  2  0
  6  7  1  0
  7  8  2  0
  8  9  1  0
  9 10  2  0
 10 11  1  0
  8 12  1  0
 12 13  1  0
 13 14  1  0
 14 15  1  0
  2 16  1  0
 16 17  2  0
 17 18  1  0
 18 19  2  0
 19 20  1  0
 20 21  1  0
 21 22  2  0
 21 23  2  0
 21 24  1  0
 24 25  1  0
 25 26  1  0
 26 27  1  0
 27 28  1  0
 28 29  1  0
 20 30  2  0
 10  5  1  0
 30 16  1  0
 15  7  1  0
 29 24  1  0
  6 31  1  0
  9 32  1  0
 12 33  1  0
 12 34  1  0
 13 35  1  0
 13 36  1  0
 14 37  1  0
 14 38  1  0
 15 39  1  0
 15 40  1  0
 17 41  1  0
 18 42  1  0
 19 43  1  0
 25 44  1  0
 25 45  1  0
 26 46  1  0
 26 47  1  0
 28 48  1  0
 28 49  1  0
 29 50  1  0
 29 51  1  0
 30 52  1  0
M  CHG  2   4  -1  11  -1
M  END
>  <UniqueID>  (27) 
27

>  <SMILES>  (27) 
O=S(=O)([N-]c1cc2c(cc1[O-])CCCC2)c1cccc(S(=O)(=O)N2CCOCC2)c1

>  <Energy>  (27) 
69.88978371034082

>  <Genealogy>  (27) 
O=S(=O)([N-]c1cc2c(cc1[O-])CCCC2)c1cccc(S(=O)(=O)N2CCOCC2)c1 (protonated)
O=S(=O)([N-]c1cc2c(cc1[O-])CCCC2)c1cccc(S(=O)(=O)N2CCOCC2)c1 (3D coordinates assigned)
O=S(=O)([N-]c1cc2c(cc1[O-])CCCC2)c1cccc(S(=O)(=O)N2CCOCC2)c1 (nonaromatic ring conformer: 69.88978371034082 kcal/mol)

>  <smiles>  (27) 
O=S(=O)(Nc1cc2c(cc1O)CCCC2)c1cccc(S(=O)(=O)N2CCOCC2)c1

>  <score_type>  (27) 
oracle

>  <origin>  (27) 
adgpu

>  <m_score__min__energy>  (27) 
-14.66

>  <m_primary>  (27) 
energy

$$$$
27:0
     RDKit          3D

 62 65  0  0  0  0  0  0  0  0999 V2000
   -0.5820   25.2270  -27.8140 C   0  0  0  0  0  0  0  0  0  0  0  0
   -2.0210   25.3600  -27.3180 C   0  0  0  0  0  0  0  0  0  0  0  0
   -2.0370   25.5490  -25.7970 C   0  0  0  0  0  0  0  0  0  0  0  0
   -2.7360   24.1750  -27.6790 O   0  0  0  0  0  0  0  0  0  0  0  0
   -2.5520   23.3450  -28.8050 C   0  0  0  0  0  0  0  0  0  0  0  0
   -1.9280   22.1060  -28.5530 C   0  0  0  0  0  0  0  0  0  0  0  0
   -1.6780   21.2500  -29.6210 C   0  0  0  0  0  0  0  0  0  0  0  0
   -2.0360   21.5710  -30.8990 C   0  0  0  0  0  0  0  0  0  0  0  0
   -2.6720   22.7710  -31.2020 C   0  0  0  0  0  0  0  0  0  0  0  0
   -2.9240   23.6840  -30.1530 C   0  0  0  0  0  0  0  0  0  0  0  0
   -3.6080   24.9010  -30.4510 N   0  0  0  0  0  0  0  0  0  0  0  0
   -5.2980   25.1590  -30.1610 S   0  0  0  0  0  0  0  0  0  0  0  0
   -5.7340   26.4270  -30.8400 O   0  0  0  0  0  0  0  0  0  0  0  0
   -5.5830   25.2830  -28.6890 O   0  0  0  0  0  0  0  0  0  0  0  0
   -6.1720   23.7820  -30.8170 C   0  0  0  0  0  0  0  0  0  0  0  0
   -6.9800   23.0020  -29.9800 C   0  0  0  0  0  0  0  0  0  0  0  0
   -7.5870   21.8430  -30.4700 C   0  0  0  0  0  0  0  0  0  0  0  0
   -7.3830   21.4490  -31.8010 C   0  0  0  0  0  0  0  0  0  0  0  0
   -8.0800   19.9500  -32.4080 S   0  0  0  0  0  0  0  0  0  0  0  0
   -8.3620   19.0140  -31.2640 O   0  0  0  0  0  0  0  0  0  0  0  0
   -9.3780   20.2700  -33.0960 O   0  0  0  0  0  0  0  0  0  0  0  0
   -6.9810   19.1970  -33.5450 N   0  0  0  0  0  0  0  0  0  0  0  0
   -5.5880   19.5590  -33.2630 C   0  0  0  0  0  0  0  0  0  0  0  0
   -5.0100   18.4870  -32.3560 C   0  0  0  0  0  0  0  0  0  0  0  0
   -5.9040   17.2750  -32.5460 C   0  0  0  0  0  0  0  0  0  0  0  0
   -7.0430   17.7330  -33.4460 C   0  0  0  0  0  0  0  0  0  0  0  0
   -6.5740   22.2290  -32.6370 C   0  0  0  0  0  0  0  0  0  0  0  0
   -5.9700   23.3900  -32.1480 C   0  0  0  0  0  0  0  0  0  0  0  0
   -1.7180   20.5520  -31.7240 N   0  0  0  0  0  0  0  0  0  0  0  0
   -1.9930   20.4380  -33.1530 C   0  0  0  0  0  0  0  0  0  0  0  0
   -1.1800   19.6170  -30.9010 C   0  0  0  0  0  0  0  0  0  0  0  0
   -0.7910   18.4840  -31.2950 O   0  0  0  0  0  0  0  0  0  0  0  0
   -1.1230   20.0210  -29.6070 N   0  0  0  0  0  0  0  0  0  0  0  0
   -0.6790   19.2550  -28.4460 C   0  0  0  0  0  0  0  0  0  0  0  0
    0.0986   25.1641  -26.9521 H   0  0  0  0  0  0  0  0  0  0  0  0
   -0.4869   24.3162  -28.4235 H   0  0  0  0  0  0  0  0  0  0  0  0
   -0.3216   26.1049  -28.4235 H   0  0  0  0  0  0  0  0  0  0  0  0
   -2.4989   26.2375  -27.7780 H   0  0  0  0  0  0  0  0  0  0  0  0
   -1.9540   24.5688  -25.3048 H   0  0  0  0  0  0  0  0  0  0  0  0
   -1.1893   26.1827  -25.4973 H   0  0  0  0  0  0  0  0  0  0  0  0
   -2.9792   26.0312  -25.4973 H   0  0  0  0  0  0  0  0  0  0  0  0
   -1.6436   21.8210  -27.5293 H   0  0  0  0  0  0  0  0  0  0  0  0
   -2.9718   23.0037  -32.2345 H   0  0  0  0  0  0  0  0  0  0  0  0
   -7.1371   23.3029  -28.9337 H   0  0  0  0  0  0  0  0  0  0  0  0
   -8.2265   21.2378  -29.8106 H   0  0  0  0  0  0  0  0  0  0  0  0
   -7.2450   19.5060  -34.5100 H   0  0  0  0  0  0  0  0  0  0  0  0
   -5.0153   19.6056  -34.2010 H   0  0  0  0  0  0  0  0  0  0  0  0
   -5.5355   20.5450  -32.7781 H   0  0  0  0  0  0  0  0  0  0  0  0
   -3.9758   18.2522  -32.6479 H   0  0  0  0  0  0  0  0  0  0  0  0
   -4.9788   18.8123  -31.3057 H   0  0  0  0  0  0  0  0  0  0  0  0
   -5.3439   16.4577  -33.0238 H   0  0  0  0  0  0  0  0  0  0  0  0
   -6.2778   16.8944  -31.5840 H   0  0  0  0  0  0  0  0  0  0  0  0
   -6.9325   17.2861  -34.4450 H   0  0  0  0  0  0  0  0  0  0  0  0
   -8.0108   17.4184  -33.0285 H   0  0  0  0  0  0  0  0  0  0  0  0
   -6.4136   21.9264  -33.6823 H   0  0  0  0  0  0  0  0  0  0  0  0
   -5.3345   23.9980  -32.8087 H   0  0  0  0  0  0  0  0  0  0  0  0
   -3.0000   20.0206  -33.3004 H   0  0  0  0  0  0  0  0  0  0  0  0
   -1.9371   21.4334  -33.6177 H   0  0  0  0  0  0  0  0  0  0  0  0
   -1.2492   19.7741  -33.6177 H   0  0  0  0  0  0  0  0  0  0  0  0
   -0.9811   19.7761  -27.5256 H   0  0  0  0  0  0  0  0  0  0  0  0
   -1.1378   18.2555  -28.4689 H   0  0  0  0  0  0  0  0  0  0  0  0
    0.4163   19.1563  -28.4689 H   0  0  0  0  0  0  0  0  0  0  0  0
  1  2  1  0
  2  3  1  0
  2  4  1  0
  4  5  1  0
  5  6  2  0
  6  7  1  0
  7  8  2  0
  8  9  1  0
  9 10  2  0
 10 11  1  0
 11 12  1  0
 12 13  2  0
 12 14  2  0
 12 15  1  0
 15 16  2  0
 16 17  1  0
 17 18  2  0
 18 19  1  0
 19 20  2  0
 19 21  2  0
 19 22  1  0
 22 23  1  0
 23 24  1  0
 24 25  1  0
 25 26  1  0
 18 27  1  0
 27 28  2  0
  8 29  1  0
 29 30  1  0
 29 31  1  0
 31 32  2  0
 31 33  1  0
 33 34  1  0
 10  5  1  0
 28 15  1  0
 33  7  1  0
 26 22  1  0
  1 35  1  0
  1 36  1  0
  1 37  1  0
  2 38  1  0
  3 39  1  0
  3 40  1  0
  3 41  1  0
  6 42  1  0
  9 43  1  0
 16 44  1  0
 17 45  1  0
 22 46  1  0
 23 47  1  0
 23 48  1  0
 24 49  1  0
 24 50  1  0
 25 51  1  0
 25 52  1  0
 26 53  1  0
 26 54  1  0
 27 55  1  0
 28 56  1  0
 30 57  1  0
 30 58  1  0
 30 59  1  0
 34 60  1  0
 34 61  1  0
 34 62  1  0
M  CHG  2  11  -1  22   1
M  END
>  <UniqueID>  (28) 
28

>  <SMILES>  (28) 
CC(C)Oc1cc2c(cc1[N-]S(=O)(=O)c1ccc(S(=O)(=O)[NH+]3CCCC3)cc1)n(C)c(=O)n2C

>  <Energy>  (28) 
112.34522414000786

>  <Genealogy>  (28) 
CC(C)Oc1cc2c(cc1[N-]S(=O)(=O)c1ccc(S(=O)(=O)[NH+]3CCCC3)cc1)n(C)c(=O)n2C (protonated)
CC(C)Oc1cc2c(cc1[N-]S(=O)(=O)c1ccc(S(=O)(=O)[NH+]3CCCC3)cc1)n(C)c(=O)n2C (3D coordinates assigned)
CC(C)Oc1cc2c(cc1[N-]S(=O)(=O)c1ccc(S(=O)(=O)[NH+]3CCCC3)cc1)n(C)c(=O)n2C (nonaromatic ring conformer: 112.34522414000786 kcal/mol)

>  <smiles>  (28) 
CC(C)Oc1cc2c(cc1NS(=O)(=O)c1ccc(S(=O)(=O)N3CCCC3)cc1)n(C)c(=O)n2C

>  <score_type>  (28) 
oracle

>  <origin>  (28) 
adgpu

>  <m_score__min__energy>  (28) 
-11.210000000000001

>  <m_primary>  (28) 
energy

$$$$
28:0
     RDKit          3D

 41 42  0  0  0  0  0  0  0  0999 V2000
   -2.6160   24.5780  -27.8730 C   0  0  0  0  0  0  0  0  0  0  0  0
   -2.1820   24.5460  -29.2280 O   0  0  0  0  0  0  0  0  0  0  0  0
   -2.2080   23.4030  -30.0470 C   0  0  0  0  0  0  0  0  0  0  0  0
   -1.1200   22.5110  -30.1130 C   0  0  0  0  0  0  0  0  0  0  0  0
   -1.1770   21.3850  -30.9380 C   0  0  0  0  0  0  0  0  0  0  0  0
   -2.3170   21.1360  -31.7040 C   0  0  0  0  0  0  0  0  0  0  0  0
   -2.3920   19.5950  -32.8300 Br  0  0  0  0  0  0  0  0  0  0  0  0
   -3.4030   22.0120  -31.6460 C   0  0  0  0  0  0  0  0  0  0  0  0
   -3.3570   23.1460  -30.8210 C   0  0  0  0  0  0  0  0  0  0  0  0
   -4.7360   24.2470  -30.7530 S   0  0  0  0  0  0  0  0  0  0  0  0
   -4.2350   25.6620  -30.8340 O   0  0  0  0  0  0  0  0  0  0  0  0
   -5.4690   24.0310  -29.4590 O   0  0  0  0  0  0  0  0  0  0  0  0
   -5.8130   23.9420  -32.0780 N   0  0  0  0  0  0  0  0  0  0  0  0
   -6.7090   22.8280  -32.1780 C   0  0  0  0  0  0  0  0  0  0  0  0
   -8.0340   22.9960  -31.7620 C   0  0  0  0  0  0  0  0  0  0  0  0
   -8.9390   21.9370  -31.8420 C   0  0  0  0  0  0  0  0  0  0  0  0
   -8.5290   20.6980  -32.3390 C   0  0  0  0  0  0  0  0  0  0  0  0
   -7.2060   20.5090  -32.7670 C   0  0  0  0  0  0  0  0  0  0  0  0
   -6.7830   19.2300  -33.2800 N   0  0  0  0  0  0  0  0  0  0  0  0
   -6.1020   19.1350  -34.5710 C   0  0  0  0  0  0  0  0  0  0  0  0
   -7.2520   17.7630  -32.4690 S   0  0  0  0  0  0  0  0  0  0  0  0
   -6.1600   17.4390  -31.0990 C   0  0  0  0  0  0  0  0  0  0  0  0
   -7.2140   16.6140  -33.4360 O   0  0  0  0  0  0  0  0  0  0  0  0
   -8.6480   17.9070  -31.9280 O   0  0  0  0  0  0  0  0  0  0  0  0
   -6.2970   21.5790  -32.6800 C   0  0  0  0  0  0  0  0  0  0  0  0
   -1.7431   24.5136  -27.2068 H   0  0  0  0  0  0  0  0  0  0  0  0
   -3.1541   25.5183  -27.6825 H   0  0  0  0  0  0  0  0  0  0  0  0
   -3.2862   23.7268  -27.6825 H   0  0  0  0  0  0  0  0  0  0  0  0
   -0.2194   22.7022  -29.5110 H   0  0  0  0  0  0  0  0  0  0  0  0
   -0.3225   20.6938  -30.9840 H   0  0  0  0  0  0  0  0  0  0  0  0
   -4.2998   21.8118  -32.2507 H   0  0  0  0  0  0  0  0  0  0  0  0
   -8.3645   23.9690  -31.3694 H   0  0  0  0  0  0  0  0  0  0  0  0
   -9.9789   22.0785  -31.5125 H   0  0  0  0  0  0  0  0  0  0  0  0
   -9.2466   19.8662  -32.3953 H   0  0  0  0  0  0  0  0  0  0  0  0
   -5.0247   18.9847  -34.4071 H   0  0  0  0  0  0  0  0  0  0  0  0
   -6.5087   18.2849  -35.1384 H   0  0  0  0  0  0  0  0  0  0  0  0
   -6.2605   20.0640  -35.1384 H   0  0  0  0  0  0  0  0  0  0  0  0
   -6.6998   17.5992  -30.1540 H   0  0  0  0  0  0  0  0  0  0  0  0
   -5.8085   16.3979  -31.1486 H   0  0  0  0  0  0  0  0  0  0  0  0
   -5.2975   18.1199  -31.1486 H   0  0  0  0  0  0  0  0  0  0  0  0
   -5.2561   21.4387  -33.0068 H   0  0  0  0  0  0  0  0  0  0  0  0
  1  2  1  0
  2  3  1  0
  3  4  2  0
  4  5  1  0
  5  6  2  0
  6  7  1  0
  6  8  1  0
  8  9  2  0
  9 10  1  0
 10 11  2  0
 10 12  2  0
 10 13  1  0
 13 14  1  0
 14 15  2  0
 15 16  1  0
 16 17  2  0
 17 18  1  0
 18 19  1  0
 19 20  1  0
 19 21  1  0
 21 22  1  0
 21 23  2  0
 21 24  2  0
 18 25  2  0
  9  3  1  0
 25 14  1  0
  1 26  1  0
  1 27  1  0
  1 28  1  0
  4 29  1  0
  5 30  1  0
  8 31  1  0
 15 32  1  0
 16 33  1  0
 17 34  1  0
 20 35  1  0
 20 36  1  0
 20 37  1  0
 22 38  1  0
 22 39  1  0
 22 40  1  0
 25 41  1  0
M  CHG  1  13  -1
M  END
>  <UniqueID>  (29) 
29

>  <SMILES>  (29) 
COc1ccc(Br)cc1S(=O)(=O)[N-]c1cccc(N(C)S(C)(=O)=O)c1

>  <Energy>  (29) 
45.18321863656635

>  <Genealogy>  (29) 
COc1ccc(Br)cc1S(=O)(=O)[N-]c1cccc(N(C)S(C)(=O)=O)c1 (protonated)
COc1ccc(Br)cc1S(=O)(=O)[N-]c1cccc(N(C)S(C)(=O)=O)c1 (3D coordinates assigned)
COc1ccc(Br)cc1S(=O)(=O)[N-]c1cccc(N(C)S(C)(=O)=O)c1 (optimized conformer: 45.18321863656635 kcal/mol)

>  <smiles>  (29) 
COc1ccc(Br)cc1S(=O)(=O)Nc1cccc(N(C)S(C)(=O)=O)c1

>  <score_type>  (29) 
oracle

>  <origin>  (29) 
adgpu

>  <m_score__min__energy>  (29) 
-10.17

>  <m_primary>  (29) 
energy

$$$$
29:0
     RDKit          3D

 73 77  0  0  0  0  0  0  0  0999 V2000
   -1.6240   19.0340  -26.9170 C   0  0  0  0  0  0  0  0  0  0  0  0
   -0.2770   19.2730  -27.5200 C   0  0  0  0  0  0  0  0  0  0  0  0
    0.5760   18.3480  -27.4760 O   0  0  0  0  0  0  0  0  0  0  0  0
    0.0620   20.4990  -28.1840 N   0  0  0  0  0  0  0  0  0  0  0  0
   -0.8410   21.4900  -28.6980 C   0  0  0  0  0  0  0  0  0  0  0  0
   -1.8380   21.0920  -29.5960 C   0  0  0  0  0  0  0  0  0  0  0  0
   -2.6960   22.0350  -30.1710 C   0  0  0  0  0  0  0  0  0  0  0  0
   -2.5540   23.3950  -29.8710 C   0  0  0  0  0  0  0  0  0  0  0  0
   -3.3890   24.3190  -30.5180 O   0  0  0  0  0  0  0  0  0  0  0  0
   -4.7890   24.2610  -30.4650 C   0  0  0  0  0  0  0  0  0  0  0  0
   -5.4940   25.3210  -29.8940 C   0  0  0  0  0  0  0  0  0  0  0  0
   -6.8880   25.2950  -29.8910 C   0  0  0  0  0  0  0  0  0  0  0  0
   -7.5530   24.2390  -30.4270 N   0  0  0  0  0  0  0  0  0  0  0  0
   -6.9070   23.1680  -30.9700 C   0  0  0  0  0  0  0  0  0  0  0  0
   -7.7030   22.0340  -31.5200 C   0  0  0  0  0  0  0  0  0  0  0  0
   -9.1080   22.1040  -31.5280 C   0  0  0  0  0  0  0  0  0  0  0  0
   -9.8700   21.0370  -32.0110 C   0  0  0  0  0  0  0  0  0  0  0  0
   -9.2440   19.8800  -32.4820 C   0  0  0  0  0  0  0  0  0  0  0  0
   -7.8430   19.7850  -32.4960 C   0  0  0  0  0  0  0  0  0  0  0  0
   -7.1750   18.5380  -32.9380 C   0  0  0  0  0  0  0  0  0  0  0  0
   -7.4540   17.4390  -32.3800 O   0  0  0  0  0  0  0  0  0  0  0  0
   -6.2100   18.5750  -33.9990 N   0  0  0  0  0  0  0  0  0  0  0  0
   -4.8720   19.0830  -33.9040 C   0  0  0  0  0  0  0  0  0  0  0  0
   -4.6000   20.3870  -33.4460 C   0  0  0  0  0  0  0  0  0  0  0  0
   -3.2800   20.8220  -33.2980 C   0  0  0  0  0  0  0  0  0  0  0  0
   -2.2140   19.9590  -33.5870 C   0  0  0  0  0  0  0  0  0  0  0  0
   -0.8220   20.3970  -33.3850 C   0  0  0  0  0  0  0  0  0  0  0  0
   -0.3840   21.3420  -34.0930 O   0  0  0  0  0  0  0  0  0  0  0  0
    0.0390   19.7440  -32.4240 N   0  0  0  0  0  0  0  0  0  0  0  0
    1.4740   20.0480  -32.3610 C   0  0  0  0  0  0  0  0  0  0  0  0
    2.2660   18.7340  -32.3110 C   0  0  0  0  0  0  0  0  0  0  0  0
    1.8270   17.8190  -31.2230 N   0  0  0  0  0  0  0  0  0  0  0  0
    1.7620   16.4240  -31.6910 C   0  0  0  0  0  0  0  0  0  0  0  0
    0.5740   18.2160  -30.5370 C   0  0  0  0  0  0  0  0  0  0  0  0
   -0.5000   18.7200  -31.5140 C   0  0  0  0  0  0  0  0  0  0  0  0
   -2.4820   18.6650  -34.0560 C   0  0  0  0  0  0  0  0  0  0  0  0
   -3.8030   18.2280  -34.2000 C   0  0  0  0  0  0  0  0  0  0  0  0
   -7.0810   20.8770  -32.0380 C   0  0  0  0  0  0  0  0  0  0  0  0
   -5.4990   23.1590  -30.9710 C   0  0  0  0  0  0  0  0  0  0  0  0
   -1.5730   23.8060  -28.9370 C   0  0  0  0  0  0  0  0  0  0  0  0
   -1.4210   25.2500  -28.5410 C   0  0  0  0  0  0  0  0  0  0  0  0
   -0.6990   22.8530  -28.3890 C   0  0  0  0  0  0  0  0  0  0  0  0
   -1.5425   19.0485  -25.8201 H   0  0  0  0  0  0  0  0  0  0  0  0
   -2.3172   19.8232  -27.2436 H   0  0  0  0  0  0  0  0  0  0  0  0
   -2.0034   18.0545  -27.2436 H   0  0  0  0  0  0  0  0  0  0  0  0
   -1.9478   20.0278  -29.8519 H   0  0  0  0  0  0  0  0  0  0  0  0
   -3.4861   21.7065  -30.8622 H   0  0  0  0  0  0  0  0  0  0  0  0
   -4.9544   26.1704  -29.4498 H   0  0  0  0  0  0  0  0  0  0  0  0
   -7.4510   26.1324  -29.4531 H   0  0  0  0  0  0  0  0  0  0  0  0
   -9.6111   23.0065  -31.1507 H   0  0  0  0  0  0  0  0  0  0  0  0
  -10.9677   21.1082  -32.0205 H   0  0  0  0  0  0  0  0  0  0  0  0
   -9.8525   19.0382  -32.8441 H   0  0  0  0  0  0  0  0  0  0  0  0
   -5.4305   21.0663  -33.2036 H   0  0  0  0  0  0  0  0  0  0  0  0
   -3.0767   21.8466  -32.9531 H   0  0  0  0  0  0  0  0  0  0  0  0
    1.7682   20.6213  -33.2525 H   0  0  0  0  0  0  0  0  0  0  0  0
    1.6869   20.6426  -31.4604 H   0  0  0  0  0  0  0  0  0  0  0  0
    2.1422   18.2157  -33.2733 H   0  0  0  0  0  0  0  0  0  0  0  0
    3.3155   18.9955  -32.1108 H   0  0  0  0  0  0  0  0  0  0  0  0
    1.7305   15.7475  -30.8242 H   0  0  0  0  0  0  0  0  0  0  0  0
    0.8563   16.2831  -32.2992 H   0  0  0  0  0  0  0  0  0  0  0  0
    2.6507   16.1995  -32.2992 H   0  0  0  0  0  0  0  0  0  0  0  0
    0.1771   17.3444  -29.9960 H   0  0  0  0  0  0  0  0  0  0  0  0
    0.8161   19.0423  -29.8525 H   0  0  0  0  0  0  0  0  0  0  0  0
   -0.8692   17.8715  -32.1087 H   0  0  0  0  0  0  0  0  0  0  0  0
   -1.3152   19.1713  -30.9293 H   0  0  0  0  0  0  0  0  0  0  0  0
   -1.6508   17.9914  -34.3115 H   0  0  0  0  0  0  0  0  0  0  0  0
   -4.0038   17.2042  -34.5487 H   0  0  0  0  0  0  0  0  0  0  0  0
   -5.9831   20.8279  -32.0845 H   0  0  0  0  0  0  0  0  0  0  0  0
   -4.9548   22.2893  -31.3679 H   0  0  0  0  0  0  0  0  0  0  0  0
   -1.4125   25.3304  -27.4440 H   0  0  0  0  0  0  0  0  0  0  0  0
   -0.4765   25.6435  -28.9448 H   0  0  0  0  0  0  0  0  0  0  0  0
   -2.2629   25.8315  -28.9448 H   0  0  0  0  0  0  0  0  0  0  0  0
    0.1045   23.1770  -27.7112 H   0  0  0  0  0  0  0  0  0  0  0  0
  1  2  1  0
  2  3  2  0
  2  4  1  0
  4  5  1  0
  5  6  2  0
  6  7  1  0
  7  8  2  0
  8  9  1  0
  9 10  1  0
 10 11  2  0
 11 12  1  0
 12 13  2  0
 13 14  1  0
 14 15  1  0
 15 16  2  0
 16 17  1  0
 17 18  2  0
 18 19  1  0
 19 20  1  0
 20 21  2  0
 20 22  1  0
 22 23  1  0
 23 24  2  0
 24 25  1  0
 25 26  2  0
 26 27  1  0
 27 28  2  0
 27 29  1  0
 29 30  1  0
 30 31  1  0
 31 32  1  0
 32 33  1  0
 32 34  1  0
 34 35  1  0
 26 36  1  0
 36 37  2  0
 19 38  2  0
 14 39  2  0
  8 40  1  0
 40 41  1  0
 40 42  2  0
 42  5  1  0
 39 10  1  0
 38 15  1  0
 37 23  1  0
 35 29  1  0
  1 43  1  0
  1 44  1  0
  1 45  1  0
  6 46  1  0
  7 47  1  0
 11 48  1  0
 12 49  1  0
 16 50  1  0
 17 51  1  0
 18 52  1  0
 24 53  1  0
 25 54  1  0
 30 55  1  0
 30 56  1  0
 31 57  1  0
 31 58  1  0
 33 59  1  0
 33 60  1  0
 33 61  1  0
 34 62  1  0
 34 63  1  0
 35 64  1  0
 35 65  1  0
 36 66  1  0
 37 67  1  0
 38 68  1  0
 39 69  1  0
 41 70  1  0
 41 71  1  0
 41 72  1  0
 42 73  1  0
M  CHG  2   4  -1  22  -1
M  END
>  <UniqueID>  (30) 
30

>  <SMILES>  (30) 
CC(=O)[N-]c1ccc(Oc2ccnc(-c3cccc(C(=O)[N-]c4ccc(C(=O)N5CCN(C)CC5)cc4)c3)c2)c(C)c1

>  <Energy>  (30) 
114.33497838987596

>  <Genealogy>  (30) 
CC(=O)[N-]c1ccc(Oc2ccnc(-c3cccc(C(=O)[N-]c4ccc(C(=O)N5CCN(C)CC5)cc4)c3)c2)c(C)c1 (protonated)
CC(=O)[N-]c1ccc(Oc2ccnc(-c3cccc(C(=O)[N-]c4ccc(C(=O)N5CCN(C)CC5)cc4)c3)c2)c(C)c1 (3D coordinates assigned)
CC(=O)[N-]c1ccc(Oc2ccnc(-c3cccc(C(=O)[N-]c4ccc(C(=O)N5CCN(C)CC5)cc4)c3)c2)c(C)c1 (nonaromatic ring conformer: 114.33497838987596 kcal/mol)

>  <smiles>  (30) 
CC(=O)Nc1ccc(Oc2ccnc(-c3cccc(C(=O)Nc4ccc(C(=O)N5CCN(C)CC5)cc4)c3)c2)c(C)c1

>  <score_type>  (30) 
oracle

>  <origin>  (30) 
adgpu

>  <m_score__min__energy>  (30) 
-13.48

>  <m_primary>  (30) 
energy

$$$$
30:0
     RDKit          3D

 28 29  0  0  0  0  0  0  0  0999 V2000
   -9.3900   22.9820  -31.9640 N   0  0  0  0  0  0  0  0  0  0  0  0
   -8.4320   22.3330  -31.9910 C   0  0  0  0  0  0  0  0  0  0  0  0
   -7.2350   21.5280  -32.0230 C   0  0  0  0  0  0  0  0  0  0  0  0
   -5.9980   22.1870  -31.9850 C   0  0  0  0  0  0  0  0  0  0  0  0
   -4.8050   21.4610  -32.0600 C   0  0  0  0  0  0  0  0  0  0  0  0
   -3.2270   22.3110  -31.9980 S   0  0  0  0  0  0  0  0  0  0  0  0
   -3.0470   22.0550  -30.2230 C   0  0  0  0  0  0  0  0  0  0  0  0
   -3.0280   20.7320  -29.7600 C   0  0  0  0  0  0  0  0  0  0  0  0
   -2.9610   20.4590  -28.3930 C   0  0  0  0  0  0  0  0  0  0  0  0
   -2.9110   21.5060  -27.4750 C   0  0  0  0  0  0  0  0  0  0  0  0
   -2.9170   22.8300  -27.9200 C   0  0  0  0  0  0  0  0  0  0  0  0
   -2.9700   23.1270  -29.2970 C   0  0  0  0  0  0  0  0  0  0  0  0
   -2.9360   24.5500  -29.7170 C   0  0  0  0  0  0  0  0  0  0  0  0
   -2.0000   25.3000  -29.3330 O   0  0  0  0  0  0  0  0  0  0  0  0
   -3.9010   25.0700  -30.5710 O   0  0  0  0  0  0  0  0  0  0  0  0
   -4.8450   20.0710  -32.1950 C   0  0  0  0  0  0  0  0  0  0  0  0
   -6.0700   19.4050  -32.2370 C   0  0  0  0  0  0  0  0  0  0  0  0
   -7.2820   20.1160  -32.1410 C   0  0  0  0  0  0  0  0  0  0  0  0
   -8.5310   19.3960  -32.1700 N   0  0  0  0  0  0  0  0  0  0  0  0
   -8.8000   18.5690  -31.2740 O   0  0  0  0  0  0  0  0  0  0  0  0
   -9.4970   19.6910  -33.1030 O   0  0  0  0  0  0  0  0  0  0  0  0
   -5.9656   23.2829  -31.8956 H   0  0  0  0  0  0  0  0  0  0  0  0
   -3.0662   19.9017  -30.4805 H   0  0  0  0  0  0  0  0  0  0  0  0
   -2.9477   19.4172  -28.0402 H   0  0  0  0  0  0  0  0  0  0  0  0
   -2.8667   21.2894  -26.3974 H   0  0  0  0  0  0  0  0  0  0  0  0
   -2.8800   23.6500  -27.1878 H   0  0  0  0  0  0  0  0  0  0  0  0
   -3.9077   19.5000  -32.2684 H   0  0  0  0  0  0  0  0  0  0  0  0
   -6.0896   18.3106  -32.3465 H   0  0  0  0  0  0  0  0  0  0  0  0
  1  2  3  0
  2  3  1  0
  3  4  2  0
  4  5  1  0
  5  6  1  0
  6  7  1  0
  7  8  2  0
  8  9  1  0
  9 10  2  0
 10 11  1  0
 11 12  2  0
 12 13  1  0
 13 14  2  0
 13 15  1  0
  5 16  2  0
 16 17  1  0
 17 18  2  0
 18 19  1  0
 19 20  2  0
 19 21  1  0
 18  3  1  0
 12  7  1  0
  4 22  1  0
  8 23  1  0
  9 24  1  0
 10 25  1  0
 11 26  1  0
 16 27  1  0
 17 28  1  0
M  CHG  3  15  -1  19   1  21  -1
M  END
>  <UniqueID>  (31) 
31

>  <SMILES>  (31) 
N#Cc1cc(Sc2ccccc2C(=O)[O-])ccc1[N+](=O)[O-]

>  <Energy>  (31) 
32.94805708343045

>  <Genealogy>  (31) 
N#Cc1cc(Sc2ccccc2C(=O)[O-])ccc1[N+](=O)[O-] (protonated)
N#Cc1cc(Sc2ccccc2C(=O)[O-])ccc1[N+](=O)[O-] (3D coordinates assigned)
N#Cc1cc(Sc2ccccc2C(=O)[O-])ccc1[N+](=O)[O-] (optimized conformer: 32.94805708343045 kcal/mol)

>  <smiles>  (31) 
N#Cc1cc(Sc2ccccc2C(=O)O)ccc1[N+](=O)[O-]

>  <score_type>  (31) 
oracle

>  <origin>  (31) 
adgpu

>  <m_score__min__energy>  (31) 
-10.15

>  <m_primary>  (31) 
energy

$$$$
31:0
     RDKit          3D

 43 45  0  0  0  0  0  0  0  0999 V2000
   -4.9570   25.5150  -28.0870 H   0  0  0  0  0  0  0  0  0  0  0  0
   -4.4070   24.8730  -27.5320 O   0  0  0  0  0  0  0  0  0  0  0  0
   -3.1820   24.3590  -27.9590 C   0  0  0  0  0  0  0  0  0  0  0  0
   -2.3710   23.7110  -27.0190 C   0  0  0  0  0  0  0  0  0  0  0  0
   -2.6773   23.6791  -25.9630 H   0  0  0  0  0  0  0  0  0  0  0  0
   -1.1760   23.1050  -27.4130 C   0  0  0  0  0  0  0  0  0  0  0  0
   -0.5435   22.6007  -26.6676 H   0  0  0  0  0  0  0  0  0  0  0  0
   -0.7840   23.1390  -28.7520 C   0  0  0  0  0  0  0  0  0  0  0  0
    0.1480   22.6451  -29.0641 H   0  0  0  0  0  0  0  0  0  0  0  0
   -1.5730   23.7990  -29.6960 C   0  0  0  0  0  0  0  0  0  0  0  0
   -1.2636   23.8146  -30.7515 H   0  0  0  0  0  0  0  0  0  0  0  0
   -2.7570   24.4420  -29.3080 C   0  0  0  0  0  0  0  0  0  0  0  0
   -3.4950   25.1670  -30.3030 N   0  0  0  0  0  0  0  0  0  0  0  0
   -4.9200   25.1490  -30.4680 C   0  0  0  0  0  0  0  0  0  0  0  0
   -5.5800   26.1600  -30.1060 O   0  0  0  0  0  0  0  0  0  0  0  0
   -5.6350   23.9840  -31.0360 C   0  0  0  0  0  0  0  0  0  0  0  0
   -4.9890   22.7510  -31.2210 C   0  0  0  0  0  0  0  0  0  0  0  0
   -3.9326   22.6374  -30.9362 H   0  0  0  0  0  0  0  0  0  0  0  0
   -5.6650   21.6970  -31.7510 N   0  0  0  0  0  0  0  0  0  0  0  0
   -6.9740   21.7850  -32.1190 C   0  0  0  0  0  0  0  0  0  0  0  0
   -7.6080   20.7610  -32.6120 N   0  0  0  0  0  0  0  0  0  0  0  0
   -7.0510   19.4740  -32.9300 C   0  0  0  0  0  0  0  0  0  0  0  0
   -6.3050   19.2550  -34.1040 C   0  0  0  0  0  0  0  0  0  0  0  0
   -6.1111   20.0893  -34.7942 H   0  0  0  0  0  0  0  0  0  0  0  0
   -5.8100   17.9800  -34.3950 C   0  0  0  0  0  0  0  0  0  0  0  0
   -5.2171   17.8177  -35.3072 H   0  0  0  0  0  0  0  0  0  0  0  0
   -6.0660   16.9090  -33.5300 C   0  0  0  0  0  0  0  0  0  0  0  0
   -5.4310   15.3100  -33.9110 S   0  0  0  0  0  0  0  0  0  0  0  0
   -6.5110   14.5020  -34.5700 O   0  0  0  0  0  0  0  0  0  0  0  0
   -4.9960   14.6080  -32.6550 O   0  0  0  0  0  0  0  0  0  0  0  0
   -4.0770   15.4450  -34.9930 N   0  0  0  0  0  0  0  0  0  0  0  0
   -2.9870   16.1550  -34.3330 C   0  0  0  0  0  0  0  0  0  0  0  0
   -3.1062   16.0774  -33.2422 H   0  0  0  0  0  0  0  0  0  0  0  0
   -2.0262   15.7090  -34.6295 H   0  0  0  0  0  0  0  0  0  0  0  0
   -3.0066   17.2141  -34.6295 H   0  0  0  0  0  0  0  0  0  0  0  0
   -6.8380   17.1180  -32.3800 C   0  0  0  0  0  0  0  0  0  0  0  0
   -7.0538   16.2775  -31.7040 H   0  0  0  0  0  0  0  0  0  0  0  0
   -7.3350   18.3920  -32.0890 C   0  0  0  0  0  0  0  0  0  0  0  0
   -7.9538   18.5450  -31.1925 H   0  0  0  0  0  0  0  0  0  0  0  0
   -7.6620   22.9860  -31.9190 C   0  0  0  0  0  0  0  0  0  0  0  0
   -8.7256   23.0655  -32.1883 H   0  0  0  0  0  0  0  0  0  0  0  0
   -6.9920   24.0830  -31.3760 C   0  0  0  0  0  0  0  0  0  0  0  0
   -7.5300   25.0287  -31.2141 H   0  0  0  0  0  0  0  0  0  0  0  0
  1  2  1  0
  2  3  1  0
  3  4  2  0
  4  5  1  0
  4  6  1  0
  6  7  1  0
  6  8  2  0
  8  9  1  0
  8 10  1  0
 10 11  1  0
 10 12  2  0
 12 13  1  0
 13 14  1  0
 14 15  2  0
 14 16  1  0
 16 17  2  0
 17 18  1  0
 17 19  1  0
 19 20  1  0
 20 21  2  0
 21 22  1  0
 22 23  2  0
 23 24  1  0
 23 25  1  0
 25 26  1  0
 25 27  2  0
 27 28  1  0
 28 29  2  0
 28 30  2  0
 28 31  1  0
 31 32  1  0
 32 33  1  0
 32 34  1  0
 32 35  1  0
 27 36  1  0
 36 37  1  0
 36 38  2  0
 38 39  1  0
 20 40  1  0
 40 41  1  0
 40 42  2  0
 42 43  1  0
 12  3  1  0
 42 16  1  0
 38 22  1  0
M  CHG  3  13  -1  19  -1  31  -1
M  END
>  <UniqueID>  (32) 
32

>  <SMILES>  (32) 
C[N-]S(=O)(=O)c1ccc(/N=c2/ccc(C(=O)[N-]c3ccccc3O)c[n-]2)cc1

>  <Energy>  (32) 
60.91015166192545

>  <Genealogy>  (32) 
C[N-]S(=O)(=O)c1ccc(N=c2ccc(C(=O)[N-]c3ccccc3O)c[n-]2)cc1 (protonated)
C[N-]S(=O)(=O)c1ccc(/N=c2/ccc(C(=O)[N-]c3ccccc3O)c[n-]2)cc1 (cis-trans isomerization)
C[N-]S(=O)(=O)c1ccc(/N=c2/ccc(C(=O)[N-]c3ccccc3O)c[n-]2)cc1 (3D coordinates assigned)
C[N-]S(=O)(=O)c1ccc(/N=c2/ccc(C(=O)[N-]c3ccccc3O)c[n-]2)cc1 (optimized conformer: 60.91015166192545 kcal/mol)

>  <smiles>  (32) 
CNS(=O)(=O)c1ccc(N=c2ccc(C(=O)Nc3ccccc3O)c[nH]2)cc1

>  <score_type>  (32) 
oracle

>  <origin>  (32) 
adgpu

>  <m_score__min__energy>  (32) 
-12.07

>  <m_primary>  (32) 
energy

$$$$
32:0
     RDKit          3D

 76 81  0  0  0  0  0  0  0  0999 V2000
   -0.1300   14.6840  -31.1580 C   0  0  0  0  0  0  0  0  0  0  0  0
   -0.0970   15.7850  -32.1770 C   0  0  0  0  0  0  0  0  0  0  0  0
    0.8260   15.7400  -33.2340 C   0  0  0  0  0  0  0  0  0  0  0  0
    0.8950   16.7880  -34.1570 C   0  0  0  0  0  0  0  0  0  0  0  0
    0.0440   17.8920  -34.0320 C   0  0  0  0  0  0  0  0  0  0  0  0
   -0.8970   17.9350  -32.9890 C   0  0  0  0  0  0  0  0  0  0  0  0
   -0.9560   16.8880  -32.0570 C   0  0  0  0  0  0  0  0  0  0  0  0
   -1.8530   19.0010  -32.9310 N   0  0  0  0  0  0  0  0  0  0  0  0
   -3.0830   18.9530  -33.6830 C   0  0  0  0  0  0  0  0  0  0  0  0
   -3.1070   18.3610  -34.7980 O   0  0  0  0  0  0  0  0  0  0  0  0
   -4.3260   19.5930  -33.1840 C   0  0  0  0  0  0  0  0  0  0  0  0
   -4.3150   20.9440  -32.8150 C   0  0  0  0  0  0  0  0  0  0  0  0
   -5.4830   21.5680  -32.3520 C   0  0  0  0  0  0  0  0  0  0  0  0
   -5.4570   23.0330  -31.9850 C   0  0  0  0  0  0  0  0  0  0  0  0
   -5.5610   23.2050  -30.5190 N   0  0  0  0  0  0  0  0  0  0  0  0
   -4.2530   23.0600  -29.8300 C   0  0  0  0  0  0  0  0  0  0  0  0
   -3.5730   24.4200  -29.5680 C   0  0  0  0  0  0  0  0  0  0  0  0
   -3.9330   25.3520  -30.5630 O   0  0  0  0  0  0  0  0  0  0  0  0
   -5.3010   25.6930  -30.4440 C   0  0  0  0  0  0  0  0  0  0  0  0
   -6.2190   24.4770  -30.1580 C   0  0  0  0  0  0  0  0  0  0  0  0
   -6.6810   20.8300  -32.2640 C   0  0  0  0  0  0  0  0  0  0  0  0
   -7.8420   21.4680  -31.8290 O   0  0  0  0  0  0  0  0  0  0  0  0
   -6.7020   19.4600  -32.6100 C   0  0  0  0  0  0  0  0  0  0  0  0
   -7.9100   18.6730  -32.5190 N   0  0  0  0  0  0  0  0  0  0  0  0
   -7.9250   17.5850  -31.9100 O   0  0  0  0  0  0  0  0  0  0  0  0
   -9.0930   19.1440  -33.0470 O   0  0  0  0  0  0  0  0  0  0  0  0
   -5.5120   18.8540  -33.0470 C   0  0  0  0  0  0  0  0  0  0  0  0
   -1.3950   20.2420  -32.3820 C   0  0  0  0  0  0  0  0  0  0  0  0
   -1.6720   20.5260  -31.1860 O   0  0  0  0  0  0  0  0  0  0  0  0
   -0.5370   21.1720  -33.2020 C   0  0  2  0  0  0  0  0  0  0  0  0
   -1.3110   21.7800  -34.2060 O   0  0  0  0  0  0  0  0  0  0  0  0
    0.7240   20.4950  -33.8130 C   0  0  1  0  0  0  0  0  0  0  0  0
    1.4870   19.7400  -32.7390 C   0  0  0  0  0  0  0  0  0  0  0  0
    2.5460   18.8750  -33.0820 C   0  0  0  0  0  0  0  0  0  0  0  0
    3.1910   18.1270  -32.1020 C   0  0  0  0  0  0  0  0  0  0  0  0
    2.7990   18.2320  -30.7660 C   0  0  0  0  0  0  0  0  0  0  0  0
    1.7750   19.1190  -30.3970 C   0  0  0  0  0  0  0  0  0  0  0  0
    1.3980   19.2650  -29.0570 O   0  0  0  0  0  0  0  0  0  0  0  0
    0.1470   19.7510  -28.6550 C   0  0  0  0  0  0  0  0  0  0  0  0
   -0.7910   18.8630  -28.1130 C   0  0  0  0  0  0  0  0  0  0  0  0
   -2.0420   19.3280  -27.6990 C   0  0  0  0  0  0  0  0  0  0  0  0
   -2.3570   20.6890  -27.7980 C   0  0  0  0  0  0  0  0  0  0  0  0
   -1.4150   21.5860  -28.3160 C   0  0  0  0  0  0  0  0  0  0  0  0
   -0.1730   21.1190  -28.7560 C   0  0  0  0  0  0  0  0  0  0  0  0
    1.1310   19.8760  -31.3820 C   0  0  0  0  0  0  0  0  0  0  0  0
    0.2590   19.3020  -35.1250 S   0  0  0  0  0  0  0  0  0  0  0  0
   -0.1170   15.1189  -30.1477 H   0  0  0  0  0  0  0  0  0  0  0  0
   -1.0464   14.0899  -31.2896 H   0  0  0  0  0  0  0  0  0  0  0  0
    0.7491   14.0361  -31.2896 H   0  0  0  0  0  0  0  0  0  0  0  0
    1.4985   14.8756  -33.3366 H   0  0  0  0  0  0  0  0  0  0  0  0
    1.6198   16.7447  -34.9833 H   0  0  0  0  0  0  0  0  0  0  0  0
   -1.6786   16.9320  -31.2288 H   0  0  0  0  0  0  0  0  0  0  0  0
   -3.3816   21.5213  -32.8889 H   0  0  0  0  0  0  0  0  0  0  0  0
   -4.5132   23.4766  -32.3349 H   0  0  0  0  0  0  0  0  0  0  0  0
   -6.3127   23.5332  -32.4621 H   0  0  0  0  0  0  0  0  0  0  0  0
   -4.4152   22.5546  -28.8665 H   0  0  0  0  0  0  0  0  0  0  0  0
   -3.5914   22.4747  -30.4855 H   0  0  0  0  0  0  0  0  0  0  0  0
   -3.8893   24.7995  -28.5852 H   0  0  0  0  0  0  0  0  0  0  0  0
   -2.4819   24.2819  -29.5880 H   0  0  0  0  0  0  0  0  0  0  0  0
   -5.4099   26.4129  -29.6195 H   0  0  0  0  0  0  0  0  0  0  0  0
   -5.6145   26.1147  -31.4104 H   0  0  0  0  0  0  0  0  0  0  0  0
   -6.4661   24.4600  -29.0862 H   0  0  0  0  0  0  0  0  0  0  0  0
   -7.1285   24.5803  -30.7681 H   0  0  0  0  0  0  0  0  0  0  0  0
   -5.5095   17.7803  -33.2863 H   0  0  0  0  0  0  0  0  0  0  0  0
   -0.1558   21.9356  -32.5081 H   0  0  0  0  0  0  0  0  0  0  0  0
   -1.9460   21.1020  -34.5490 H   0  0  0  0  0  0  0  0  0  0  0  0
    1.3507   21.2908  -34.2419 H   0  0  0  0  0  0  0  0  0  0  0  0
    2.8645   18.7908  -34.1315 H   0  0  0  0  0  0  0  0  0  0  0  0
    4.0125   17.4506  -32.3807 H   0  0  0  0  0  0  0  0  0  0  0  0
    3.2942   17.6175  -29.9997 H   0  0  0  0  0  0  0  0  0  0  0  0
   -0.5420   17.7962  -28.0130 H   0  0  0  0  0  0  0  0  0  0  0  0
   -2.7822   18.6224  -27.2938 H   0  0  0  0  0  0  0  0  0  0  0  0
   -3.3420   21.0523  -27.4696 H   0  0  0  0  0  0  0  0  0  0  0  0
   -1.6522   22.6584  -28.3768 H   0  0  0  0  0  0  0  0  0  0  0  0
    0.5571   21.8225  -29.1827 H   0  0  0  0  0  0  0  0  0  0  0  0
    0.3395   20.5838  -31.0946 H   0  0  0  0  0  0  0  0  0  0  0  0
  1  2  1  0
  2  3  2  0
  3  4  1  0
  4  5  2  0
  5  6  1  0
  6  7  2  0
  6  8  1  0
  8  9  1  0
  9 10  2  0
  9 11  1  0
 11 12  2  0
 12 13  1  0
 13 14  1  0
 14 15  1  0
 15 16  1  0
 16 17  1  0
 17 18  1  0
 18 19  1  0
 19 20  1  0
 13 21  2  0
 21 22  1  0
 21 23  1  0
 23 24  1  0
 24 25  2  0
 24 26  1  0
 23 27  2  0
  8 28  1  0
 28 29  2  0
 28 30  1  0
 30 31  1  0
 30 32  1  0
 32 33  1  0
 33 34  2  0
 34 35  1  0
 35 36  2  0
 36 37  1  0
 37 38  1  0
 38 39  1  0
 39 40  2  0
 40 41  1  0
 41 42  2  0
 42 43  1  0
 43 44  2  0
 37 45  2  0
 32 46  1  0
  7  2  1  0
 27 11  1  0
 45 33  1  0
 46  5  1  0
 20 15  1  0
 44 39  1  0
  1 47  1  0
  1 48  1  0
  1 49  1  0
  3 50  1  0
  4 51  1  0
  7 52  1  0
 12 53  1  0
 14 54  1  0
 14 55  1  0
 16 56  1  0
 16 57  1  0
 17 58  1  0
 17 59  1  0
 19 60  1  0
 19 61  1  0
 20 62  1  0
 20 63  1  0
 27 64  1  0
 30 65  1  1
 31 66  1  0
 32 67  1  6
 34 68  1  0
 35 69  1  0
 36 70  1  0
 40 71  1  0
 41 72  1  0
 42 73  1  0
 43 74  1  0
 44 75  1  0
 45 76  1  0
M  CHG  3  22  -1  24   1  26  -1
M  END
>  <UniqueID>  (33) 
33

>  <SMILES>  (33) 
Cc1ccc2c(c1)N(C(=O)c1cc(CN3CCOCC3)c([O-])c([N+](=O)[O-])c1)C(=O)[C@H](O)[C@@H](c1cccc(Oc3ccccc3)c1)S2

>  <Energy>  (33) 
125.73941954079471

>  <Genealogy>  (33) 
Cc1ccc2c(c1)N(C(=O)c1cc(CN3CCOCC3)c([O-])c([N+](=O)[O-])c1)C(=O)C(O)C(c1cccc(Oc3ccccc3)c1)S2 (protonated)
Cc1ccc2c(c1)N(C(=O)c1cc(CN3CCOCC3)c([O-])c([N+](=O)[O-])c1)C(=O)[C@H](O)[C@@H](c1cccc(Oc3ccccc3)c1)S2 (chirality)
Cc1ccc2c(c1)N(C(=O)c1cc(CN3CCOCC3)c([O-])c([N+](=O)[O-])c1)C(=O)[C@H](O)[C@@H](c1cccc(Oc3ccccc3)c1)S2 (3D coordinates assigned)
Cc1ccc2c(c1)N(C(=O)c1cc(CN3CCOCC3)c([O-])c([N+](=O)[O-])c1)C(=O)[C@H](O)[C@@H](c1cccc(Oc3ccccc3)c1)S2 (nonaromatic ring conformer: 125.73941954079471 kcal/mol)

>  <smiles>  (33) 
Cc1ccc2c(c1)N(C(=O)c1cc(CN3CCOCC3)c(O)c([N+](=O)[O-])c1)C(=O)C(O)C(c1cccc(Oc3ccccc3)c1)S2

>  <score_type>  (33) 
oracle

>  <origin>  (33) 
adgpu

>  <m_score__min__energy>  (33) 
-11.4

>  <m_primary>  (33) 
energy

$$$$
33:0
     RDKit          3D

 45 47  0  0  0  0  0  0  0  0999 V2000
   -5.4431   20.3191  -33.5122 H   0  0  0  0  0  0  0  0  0  0  0  0
   -5.9450   20.8580  -32.6950 C   0  0  0  0  0  0  0  0  0  0  0  0
   -5.2930   21.8570  -32.0430 N   0  0  0  0  0  0  0  0  0  0  0  0
   -5.8750   22.5540  -31.0300 C   0  0  0  0  0  0  0  0  0  0  0  0
   -4.9820   23.8320  -30.2250 S   0  0  0  0  0  0  0  0  0  0  0  0
   -4.7040   24.9570  -31.1820 O   0  0  0  0  0  0  0  0  0  0  0  0
   -5.7980   24.3510  -29.0760 O   0  0  0  0  0  0  0  0  0  0  0  0
   -3.4830   23.2150  -29.6100 N   0  0  0  0  0  0  0  0  0  0  0  0
   -2.4690   23.9550  -29.2700 C   0  0  0  0  0  0  0  0  0  0  0  0
   -1.2780   23.4840  -28.7780 C   0  0  0  0  0  0  0  0  0  0  0  0
   -0.8050   21.7840  -28.4740 S   0  0  0  0  0  0  0  0  0  0  0  0
   -1.2790   21.2660  -30.1220 C   0  0  0  0  0  0  0  0  0  0  0  0
   -0.4750   21.5930  -31.2190 C   0  0  0  0  0  0  0  0  0  0  0  0
    0.4457   22.1761  -31.0695 H   0  0  0  0  0  0  0  0  0  0  0  0
   -0.8380   21.1810  -32.5050 C   0  0  0  0  0  0  0  0  0  0  0  0
   -0.1955   21.4299  -33.3625 H   0  0  0  0  0  0  0  0  0  0  0  0
   -2.0210   20.4500  -32.7050 C   0  0  0  0  0  0  0  0  0  0  0  0
   -2.3920   19.9680  -34.0760 C   0  0  0  0  0  0  0  0  0  0  0  0
   -3.0609   19.0989  -33.9906 H   0  0  0  0  0  0  0  0  0  0  0  0
   -2.9053   20.7736  -34.6215 H   0  0  0  0  0  0  0  0  0  0  0  0
   -1.4819   19.6780  -34.6215 H   0  0  0  0  0  0  0  0  0  0  0  0
   -2.8180   20.1130  -31.5990 C   0  0  0  0  0  0  0  0  0  0  0  0
   -3.7341   19.5216  -31.7439 H   0  0  0  0  0  0  0  0  0  0  0  0
   -2.4520   20.5260  -30.3150 C   0  0  0  0  0  0  0  0  0  0  0  0
   -3.0868   20.2692  -29.4541 H   0  0  0  0  0  0  0  0  0  0  0  0
   -0.5170   24.6160  -28.5610 C   0  0  0  0  0  0  0  0  0  0  0  0
    0.5094   24.6287  -28.1657 H   0  0  0  0  0  0  0  0  0  0  0  0
   -1.2350   25.7050  -28.9120 N   0  0  0  0  0  0  0  0  0  0  0  0
   -2.4210   25.2990  -29.3430 N   0  0  0  0  0  0  0  0  0  0  0  0
   -3.1670   25.9470  -29.6780 H   0  0  0  0  0  0  0  0  0  0  0  0
   -7.1790   22.2450  -30.6330 C   0  0  0  0  0  0  0  0  0  0  0  0
   -7.6564   22.8021  -29.8134 H   0  0  0  0  0  0  0  0  0  0  0  0
   -7.8700   21.2230  -31.2860 C   0  0  0  0  0  0  0  0  0  0  0  0
   -8.8976   20.9751  -30.9819 H   0  0  0  0  0  0  0  0  0  0  0  0
   -7.2580   20.5100  -32.3300 C   0  0  0  0  0  0  0  0  0  0  0  0
   -8.0080   19.4000  -33.0410 C   0  0  0  0  0  0  0  0  0  0  0  0
   -7.9387   19.5874  -34.1227 H   0  0  0  0  0  0  0  0  0  0  0  0
   -7.3700   18.0350  -32.7600 C   0  0  0  0  0  0  0  0  0  0  0  0
   -7.2979   17.8807  -31.6733 H   0  0  0  0  0  0  0  0  0  0  0  0
   -7.9908   17.2420  -33.2025 H   0  0  0  0  0  0  0  0  0  0  0  0
   -6.3635   18.0026  -33.2025 H   0  0  0  0  0  0  0  0  0  0  0  0
   -9.4940   19.4040  -32.6590 C   0  0  0  0  0  0  0  0  0  0  0  0
   -9.5909   19.4043  -31.5633 H   0  0  0  0  0  0  0  0  0  0  0  0
   -9.9758   20.3034  -33.0699 H   0  0  0  0  0  0  0  0  0  0  0  0
   -9.9806   18.5072  -33.0699 H   0  0  0  0  0  0  0  0  0  0  0  0
  1  2  1  0
  2  3  2  0
  3  4  1  0
  4  5  1  0
  5  6  2  0
  5  7  2  0
  5  8  1  0
  8  9  2  0
  9 10  1  0
 10 11  1  0
 11 12  1  0
 12 13  2  0
 13 14  1  0
 13 15  1  0
 15 16  1  0
 15 17  2  0
 17 18  1  0
 18 19  1  0
 18 20  1  0
 18 21  1  0
 17 22  1  0
 22 23  1  0
 22 24  2  0
 24 25  1  0
 10 26  2  0
 26 27  1  0
 26 28  1  0
 28 29  1  0
 29 30  1  0
  4 31  2  0
 31 32  1  0
 31 33  1  0
 33 34  1  0
 33 35  2  0
 35 36  1  0
 36 37  1  0
 36 38  1  0
 38 39  1  0
 38 40  1  0
 38 41  1  0
 36 42  1  0
 42 43  1  0
 42 44  1  0
 42 45  1  0
 35  2  1  0
 29  9  1  0
 24 12  1  0
M  CHG  1  28  -1
M  END
>  <UniqueID>  (34) 
34

>  <SMILES>  (34) 
Cc1ccc(Sc2c[n-][nH]/c2=N\S(=O)(=O)c2ccc(C(C)C)cn2)cc1

>  <Energy>  (34) 
73.60437977414158

>  <Genealogy>  (34) 
Cc1ccc(Sc2c[n-][nH]c2=NS(=O)(=O)c2ccc(C(C)C)cn2)cc1 (protonated)
Cc1ccc(Sc2c[n-][nH]/c2=N\S(=O)(=O)c2ccc(C(C)C)cn2)cc1 (cis-trans isomerization)
Cc1ccc(Sc2c[n-][nH]/c2=N\S(=O)(=O)c2ccc(C(C)C)cn2)cc1 (3D coordinates assigned)
Cc1ccc(Sc2c[n-][nH]/c2=N\S(=O)(=O)c2ccc(C(C)C)cn2)cc1 (optimized conformer: 73.60437977414158 kcal/mol)

>  <smiles>  (34) 
Cc1ccc(Sc2c[nH][nH]c2=NS(=O)(=O)c2ccc(C(C)C)cn2)cc1

>  <score_type>  (34) 
oracle

>  <origin>  (34) 
adgpu

>  <m_score__min__energy>  (34) 
-11.16

>  <m_primary>  (34) 
energy

$$$$
34:0
     RDKit          3D

 38 40  0  0  0  0  0  0  0  0999 V2000
   -4.3850   25.7360  -30.1920 O   0  0  0  0  0  0  0  0  0  0  0  0
   -4.1230   24.5240  -30.4080 C   0  0  0  0  0  0  0  0  0  0  0  0
   -4.6580   23.9180  -31.5930 N   0  0  0  0  0  0  0  0  0  0  0  0
   -5.8060   23.0620  -31.6850 C   0  0  0  0  0  0  0  0  0  0  0  0
   -7.0630   23.6370  -31.4620 C   0  0  0  0  0  0  0  0  0  0  0  0
   -8.2240   22.8750  -31.5830 C   0  0  0  0  0  0  0  0  0  0  0  0
   -8.1450   21.5410  -31.9720 C   0  0  0  0  0  0  0  0  0  0  0  0
   -6.9040   20.9540  -32.2380 C   0  0  0  0  0  0  0  0  0  0  0  0
   -6.8930   19.3180  -32.8840 Cl  0  0  0  0  0  0  0  0  0  0  0  0
   -5.7150   21.7020  -32.0770 C   0  0  0  0  0  0  0  0  0  0  0  0
   -4.4440   21.1100  -32.3970 N   0  0  0  0  0  0  0  0  0  0  0  0
   -3.8650   20.0140  -31.6430 C   0  0  0  0  0  0  0  0  0  0  0  0
   -2.6590   19.5610  -32.4530 C   0  0  0  0  0  0  0  0  0  0  0  0
   -2.3280   20.7140  -33.4010 C   0  0  0  0  0  0  0  0  0  0  0  0
   -3.5770   21.5860  -33.4640 C   0  0  0  0  0  0  0  0  0  0  0  0
   -3.3520   23.7520  -29.4000 C   0  0  0  0  0  0  0  0  0  0  0  0
   -3.6870   22.4130  -29.1230 C   0  0  0  0  0  0  0  0  0  0  0  0
   -2.9720   21.6840  -28.1700 C   0  0  0  0  0  0  0  0  0  0  0  0
   -1.9260   22.2830  -27.4700 C   0  0  0  0  0  0  0  0  0  0  0  0
   -1.5930   23.6150  -27.7160 C   0  0  0  0  0  0  0  0  0  0  0  0
   -2.2990   24.3570  -28.6750 C   0  0  0  0  0  0  0  0  0  0  0  0
   -1.9370   25.6810  -28.9220 O   0  0  0  0  0  0  0  0  0  0  0  0
   -7.1351   24.7001  -31.1887 H   0  0  0  0  0  0  0  0  0  0  0  0
   -9.2035   23.3284  -31.3708 H   0  0  0  0  0  0  0  0  0  0  0  0
   -9.0642   20.9449  -32.0708 H   0  0  0  0  0  0  0  0  0  0  0  0
   -3.5525   20.3557  -30.6452 H   0  0  0  0  0  0  0  0  0  0  0  0
   -4.5854   19.1971  -31.4889 H   0  0  0  0  0  0  0  0  0  0  0  0
   -1.8070   19.3571  -31.7878 H   0  0  0  0  0  0  0  0  0  0  0  0
   -2.8714   18.6342  -33.0061 H   0  0  0  0  0  0  0  0  0  0  0  0
   -1.4774   21.2939  -33.0134 H   0  0  0  0  0  0  0  0  0  0  0  0
   -2.0469   20.3444  -34.3982 H   0  0  0  0  0  0  0  0  0  0  0  0
   -3.3157   22.6424  -33.3033 H   0  0  0  0  0  0  0  0  0  0  0  0
   -4.0685   21.5207  -34.4459 H   0  0  0  0  0  0  0  0  0  0  0  0
   -4.5193   21.9366  -29.6619 H   0  0  0  0  0  0  0  0  0  0  0  0
   -3.2350   20.6345  -27.9714 H   0  0  0  0  0  0  0  0  0  0  0  0
   -1.3626   21.7047  -26.7229 H   0  0  0  0  0  0  0  0  0  0  0  0
   -0.7724   24.0863  -27.1551 H   0  0  0  0  0  0  0  0  0  0  0  0
   -2.6240   26.4240  -28.9580 H   0  0  0  0  0  0  0  0  0  0  0  0
  1  2  2  0
  2  3  1  0
  3  4  1  0
  4  5  2  0
  5  6  1  0
  6  7  2  0
  7  8  1  0
  8  9  1  0
  8 10  2  0
 10 11  1  0
 11 12  1  0
 12 13  1  0
 13 14  1  0
 14 15  1  0
  2 16  1  0
 16 17  2  0
 17 18  1  0
 18 19  2  0
 19 20  1  0
 20 21  2  0
 21 22  1  0
 10  4  1  0
 15 11  1  0
 21 16  1  0
  5 23  1  0
  6 24  1  0
  7 25  1  0
 12 26  1  0
 12 27  1  0
 13 28  1  0
 13 29  1  0
 14 30  1  0
 14 31  1  0
 15 32  1  0
 15 33  1  0
 17 34  1  0
 18 35  1  0
 19 36  1  0
 20 37  1  0
 22 38  1  0
M  CHG  1   3  -1
M  END
>  <UniqueID>  (35) 
35

>  <SMILES>  (35) 
O=C([N-]c1cccc(Cl)c1N1CCCC1)c1ccccc1O

>  <Energy>  (35) 
55.460122487303316

>  <Genealogy>  (35) 
O=C([N-]c1cccc(Cl)c1N1CCCC1)c1ccccc1O (protonated)
O=C([N-]c1cccc(Cl)c1N1CCCC1)c1ccccc1O (3D coordinates assigned)
O=C([N-]c1cccc(Cl)c1N1CCCC1)c1ccccc1O (nonaromatic ring conformer: 55.460122487303316 kcal/mol)

>  <smiles>  (35) 
O=C(Nc1cccc(Cl)c1N1CCCC1)c1ccccc1O

>  <score_type>  (35) 
oracle

>  <origin>  (35) 
adgpu

>  <m_score__min__energy>  (35) 
-10.01

>  <m_primary>  (35) 
energy

$$$$
35:0
     RDKit          3D

 57 60  0  0  0  0  0  0  0  0999 V2000
   -6.1220   17.0390  -31.9920 C   0  0  0  0  0  0  0  0  0  0  0  0
   -6.9050   18.3170  -32.0180 C   0  0  0  0  0  0  0  0  0  0  0  0
   -8.3070   18.2870  -31.9560 C   0  0  0  0  0  0  0  0  0  0  0  0
   -9.0390   19.4740  -32.0270 C   0  0  0  0  0  0  0  0  0  0  0  0
   -8.3810   20.6980  -32.1710 C   0  0  0  0  0  0  0  0  0  0  0  0
   -6.9800   20.7430  -32.2510 C   0  0  0  0  0  0  0  0  0  0  0  0
   -6.2720   22.0510  -32.4690 C   0  0  0  0  0  0  0  0  0  0  0  0
   -7.2400   23.4460  -31.7910 S   0  0  0  0  0  0  0  0  0  0  0  0
   -5.8450   24.2000  -30.9500 C   0  0  0  0  0  0  0  0  0  0  0  0
   -5.3670   25.4200  -31.2600 N   0  0  0  0  0  0  0  0  0  0  0  0
   -4.3290   25.6380  -30.4670 N   0  0  0  0  0  0  0  0  0  0  0  0
   -4.1900   24.5490  -29.6840 C   0  0  0  0  0  0  0  0  0  0  0  0
   -3.1420   24.4290  -28.6140 C   0  0  0  0  0  0  0  0  0  0  0  0
   -1.7450   24.5240  -29.1760 C   0  0  0  0  0  0  0  0  0  0  0  0
   -1.2360   25.6630  -29.3430 O   0  0  0  0  0  0  0  0  0  0  0  0
   -0.9820   23.3690  -29.5630 N   0  0  0  0  0  0  0  0  0  0  0  0
   -1.4430   22.3020  -30.3980 C   0  0  0  0  0  0  0  0  0  0  0  0
   -0.7680   21.0770  -30.3740 C   0  0  0  0  0  0  0  0  0  0  0  0
   -1.1430   20.0500  -31.2420 C   0  0  0  0  0  0  0  0  0  0  0  0
   -2.2110   20.2340  -32.1320 C   0  0  0  0  0  0  0  0  0  0  0  0
   -2.6000   19.0040  -33.3300 S   0  0  0  0  0  0  0  0  0  0  0  0
   -3.7070   19.5060  -34.2150 O   0  0  0  0  0  0  0  0  0  0  0  0
   -3.0590   17.7360  -32.6640 O   0  0  0  0  0  0  0  0  0  0  0  0
   -1.1960   18.6830  -34.2990 N   0  0  0  0  0  0  0  0  0  0  0  0
   -0.4310   19.6100  -34.7960 C   0  0  0  0  0  0  0  0  0  0  0  0
   -0.6880   20.9260  -34.5560 N   0  0  0  0  0  0  0  0  0  0  0  0
    0.0950   21.9020  -35.0830 C   0  0  0  0  0  0  0  0  0  0  0  0
    1.1820   21.5620  -35.8850 C   0  0  0  0  0  0  0  0  0  0  0  0
    1.4390   20.2120  -36.1190 C   0  0  0  0  0  0  0  0  0  0  0  0
    0.6330   19.2610  -35.5720 N   0  0  0  0  0  0  0  0  0  0  0  0
   -2.9250   21.4390  -32.1150 C   0  0  0  0  0  0  0  0  0  0  0  0
   -2.5520   22.4640  -31.2420 C   0  0  0  0  0  0  0  0  0  0  0  0
   -5.1250   23.6210  -29.9680 N   0  0  0  0  0  0  0  0  0  0  0  0
   -5.3270   22.3230  -29.3300 C   0  0  0  0  0  0  0  0  0  0  0  0
   -6.2480   19.5460  -32.1850 C   0  0  0  0  0  0  0  0  0  0  0  0
   -5.9399   16.7417  -30.9487 H   0  0  0  0  0  0  0  0  0  0  0  0
   -6.6916   16.2495  -32.5041 H   0  0  0  0  0  0  0  0  0  0  0  0
   -5.1599   17.1879  -32.5041 H   0  0  0  0  0  0  0  0  0  0  0  0
   -8.8307   17.3254  -31.8511 H   0  0  0  0  0  0  0  0  0  0  0  0
  -10.1371   19.4453  -31.9694 H   0  0  0  0  0  0  0  0  0  0  0  0
   -8.9629   21.6301  -32.2219 H   0  0  0  0  0  0  0  0  0  0  0  0
   -5.2928   22.0169  -31.9690 H   0  0  0  0  0  0  0  0  0  0  0  0
   -6.1491   22.2050  -33.5512 H   0  0  0  0  0  0  0  0  0  0  0  0
   -3.2864   25.2386  -27.8834 H   0  0  0  0  0  0  0  0  0  0  0  0
   -3.2511   23.4416  -28.1416 H   0  0  0  0  0  0  0  0  0  0  0  0
    0.0616   20.9224  -29.6684 H   0  0  0  0  0  0  0  0  0  0  0  0
   -0.5993   19.0939  -31.2278 H   0  0  0  0  0  0  0  0  0  0  0  0
   -0.1286   22.9592  -34.8770 H   0  0  0  0  0  0  0  0  0  0  0  0
    1.8229   22.3410  -36.3236 H   0  0  0  0  0  0  0  0  0  0  0  0
    2.2930   19.9152  -36.7456 H   0  0  0  0  0  0  0  0  0  0  0  0
    0.8380   18.2540  -35.7600 H   0  0  0  0  0  0  0  0  0  0  0  0
   -3.7816   21.5786  -32.7908 H   0  0  0  0  0  0  0  0  0  0  0  0
   -3.1291   23.4001  -31.2163 H   0  0  0  0  0  0  0  0  0  0  0  0
   -5.3080   22.4448  -28.2369 H   0  0  0  0  0  0  0  0  0  0  0  0
   -6.3000   21.9114  -29.6363 H   0  0  0  0  0  0  0  0  0  0  0  0
   -4.5251   21.6351  -29.6363 H   0  0  0  0  0  0  0  0  0  0  0  0
   -5.1512   19.5720  -32.2648 H   0  0  0  0  0  0  0  0  0  0  0  0
  1  2  1  0
  2  3  2  0
  3  4  1  0
  4  5  2  0
  5  6  1  0
  6  7  1  0
  7  8  1  0
  8  9  1  0
  9 10  2  0
 10 11  1  0
 11 12  2  0
 12 13  1  0
 13 14  1  0
 14 15  2  0
 14 16  1  0
 16 17  1  0
 17 18  2  0
 18 19  1  0
 19 20  2  0
 20 21  1  0
 21 22  2  0
 21 23  2  0
 21 24  1  0
 24 25  2  3
 25 26  1  0
 26 27  2  0
 27 28  1  0
 28 29  2  0
 29 30  1  0
 20 31  1  0
 31 32  2  0
 12 33  1  0
 33 34  1  0
  6 35  2  0
 35  2  1  0
 33  9  1  0
 32 17  1  0
 30 25  1  0
  1 36  1  0
  1 37  1  0
  1 38  1  0
  3 39  1  0
  4 40  1  0
  5 41  1  0
  7 42  1  0
  7 43  1  0
 13 44  1  0
 13 45  1  0
 18 46  1  0
 19 47  1  0
 27 48  1  0
 28 49  1  0
 29 50  1  0
 30 51  1  0
 31 52  1  0
 32 53  1  0
 34 54  1  0
 34 55  1  0
 34 56  1  0
 35 57  1  0
M  CHG  1  16  -1
M  END
>  <UniqueID>  (36) 
36

>  <SMILES>  (36) 
Cc1cccc(CSc2nnc(CC(=O)[N-]c3ccc(S(=O)(=O)N=c4nccc[nH]4)cc3)n2C)c1

>  <Energy>  (36) 
92.03205646705788

>  <Genealogy>  (36) 
Cc1cccc(CSc2nnc(CC(=O)[N-]c3ccc(S(=O)(=O)N=c4nccc[nH]4)cc3)n2C)c1 (protonated)
Cc1cccc(CSc2nnc(CC(=O)[N-]c3ccc(S(=O)(=O)N=c4nccc[nH]4)cc3)n2C)c1 (3D coordinates assigned)
Cc1cccc(CSc2nnc(CC(=O)[N-]c3ccc(S(=O)(=O)N=c4nccc[nH]4)cc3)n2C)c1 (optimized conformer: 92.03205646705788 kcal/mol)

>  <smiles>  (36) 
Cc1cccc(CSc2nnc(CC(=O)Nc3ccc(S(=O)(=O)N=c4nccc[nH]4)cc3)n2C)c1

>  <score_type>  (36) 
oracle

>  <origin>  (36) 
adgpu

>  <m_score__min__energy>  (36) 
-12.050000000000001

>  <m_primary>  (36) 
energy

$$$$
36:0
     RDKit          3D

 46 48  0  0  0  0  0  0  0  0999 V2000
   -9.3380   19.4460  -31.9580 C   0  0  0  0  0  0  0  0  0  0  0  0
   -7.9870   19.0900  -32.5050 C   0  0  0  0  0  0  0  0  0  0  0  0
   -7.2970   19.9970  -33.3250 C   0  0  0  0  0  0  0  0  0  0  0  0
   -6.0230   19.6820  -33.8080 C   0  0  0  0  0  0  0  0  0  0  0  0
   -5.4170   18.4650  -33.4620 C   0  0  0  0  0  0  0  0  0  0  0  0
   -3.8300   18.0550  -34.0990 S   0  0  0  0  0  0  0  0  0  0  0  0
   -3.1240   17.1350  -33.1420 O   0  0  0  0  0  0  0  0  0  0  0  0
   -3.9850   17.3670  -35.4270 O   0  0  0  0  0  0  0  0  0  0  0  0
   -2.9230   19.5190  -34.2930 N   0  0  0  0  0  0  0  0  0  0  0  0
   -1.7770   19.9070  -33.5190 C   0  0  0  0  0  0  0  0  0  0  0  0
   -0.5640   19.1980  -33.6070 C   0  0  0  0  0  0  0  0  0  0  0  0
    0.5310   19.5670  -32.8230 C   0  0  0  0  0  0  0  0  0  0  0  0
    0.4300   20.6450  -31.9460 C   0  0  0  0  0  0  0  0  0  0  0  0
   -0.7660   21.3590  -31.8460 C   0  0  0  0  0  0  0  0  0  0  0  0
   -1.8800   20.9990  -32.6250 C   0  0  0  0  0  0  0  0  0  0  0  0
   -3.1370   21.7780  -32.5170 C   0  0  0  0  0  0  0  0  0  0  0  0
   -3.9880   21.7090  -33.4450 O   0  0  0  0  0  0  0  0  0  0  0  0
   -3.3810   22.6250  -31.3790 N   0  0  0  0  0  0  0  0  0  0  0  0
   -4.6410   23.2730  -31.1300 C   0  0  0  0  0  0  0  0  0  0  0  0
   -5.8550   22.5770  -31.2930 C   0  0  0  0  0  0  0  0  0  0  0  0
   -7.0800   23.2100  -31.0340 C   0  0  0  0  0  0  0  0  0  0  0  0
   -8.3680   22.4530  -31.1700 C   0  0  0  0  0  0  0  0  0  0  0  0
   -7.0880   24.5330  -30.5670 C   0  0  0  0  0  0  0  0  0  0  0  0
   -5.8860   25.2190  -30.3790 C   0  0  0  0  0  0  0  0  0  0  0  0
   -4.6670   24.5950  -30.6560 C   0  0  0  0  0  0  0  0  0  0  0  0
   -3.4810   25.2960  -30.4620 O   0  0  0  0  0  0  0  0  0  0  0  0
   -6.1020   17.5640  -32.6350 C   0  0  0  0  0  0  0  0  0  0  0  0
   -7.3760   17.8780  -32.1520 C   0  0  0  0  0  0  0  0  0  0  0  0
   -9.3025   19.4367  -30.8586 H   0  0  0  0  0  0  0  0  0  0  0  0
   -9.6221   20.4497  -32.3072 H   0  0  0  0  0  0  0  0  0  0  0  0
  -10.0798   18.7127  -32.3072 H   0  0  0  0  0  0  0  0  0  0  0  0
   -7.7604   20.9592  -33.5886 H   0  0  0  0  0  0  0  0  0  0  0  0
   -5.4940   20.3912  -34.4617 H   0  0  0  0  0  0  0  0  0  0  0  0
   -0.4781   18.3469  -34.2986 H   0  0  0  0  0  0  0  0  0  0  0  0
    1.4743   19.0061  -32.8978 H   0  0  0  0  0  0  0  0  0  0  0  0
    1.2947   20.9344  -31.3307 H   0  0  0  0  0  0  0  0  0  0  0  0
   -0.8372   22.2098  -31.1524 H   0  0  0  0  0  0  0  0  0  0  0  0
   -2.6020   22.8110  -30.7110 H   0  0  0  0  0  0  0  0  0  0  0  0
   -5.8423   21.5287  -31.6261 H   0  0  0  0  0  0  0  0  0  0  0  0
   -8.7639   22.2203  -30.1704 H   0  0  0  0  0  0  0  0  0  0  0  0
   -9.0974   23.0661  -31.7197 H   0  0  0  0  0  0  0  0  0  0  0  0
   -8.1872   21.5175  -31.7197 H   0  0  0  0  0  0  0  0  0  0  0  0
   -8.0439   25.0315  -30.3483 H   0  0  0  0  0  0  0  0  0  0  0  0
   -5.8991   26.2556  -30.0111 H   0  0  0  0  0  0  0  0  0  0  0  0
   -5.6350   16.6054  -32.3647 H   0  0  0  0  0  0  0  0  0  0  0  0
   -7.9012   17.1715  -31.4924 H   0  0  0  0  0  0  0  0  0  0  0  0
  1  2  1  0
  2  3  2  0
  3  4  1  0
  4  5  2  0
  5  6  1  0
  6  7  2  0
  6  8  2  0
  6  9  1  0
  9 10  1  0
 10 11  2  0
 11 12  1  0
 12 13  2  0
 13 14  1  0
 14 15  2  0
 15 16  1  0
 16 17  2  0
 16 18  1  0
 18 19  1  0
 19 20  2  0
 20 21  1  0
 21 22  1  0
 21 23  2  0
 23 24  1  0
 24 25  2  0
 25 26  1  0
  5 27  1  0
 27 28  2  0
 28  2  1  0
 15 10  1  0
 25 19  1  0
  1 29  1  0
  1 30  1  0
  1 31  1  0
  3 32  1  0
  4 33  1  0
 11 34  1  0
 12 35  1  0
 13 36  1  0
 14 37  1  0
 18 38  1  0
 20 39  1  0
 22 40  1  0
 22 41  1  0
 22 42  1  0
 23 43  1  0
 24 44  1  0
 27 45  1  0
 28 46  1  0
M  CHG  2   9  -1  26  -1
M  END
>  <UniqueID>  (37) 
37

>  <SMILES>  (37) 
Cc1ccc(S(=O)(=O)[N-]c2ccccc2C(=O)Nc2cc(C)ccc2[O-])cc1

>  <Energy>  (37) 
59.95699996266628

>  <Genealogy>  (37) 
Cc1ccc(S(=O)(=O)[N-]c2ccccc2C(=O)Nc2cc(C)ccc2[O-])cc1 (protonated)
Cc1ccc(S(=O)(=O)[N-]c2ccccc2C(=O)Nc2cc(C)ccc2[O-])cc1 (3D coordinates assigned)
Cc1ccc(S(=O)(=O)[N-]c2ccccc2C(=O)Nc2cc(C)ccc2[O-])cc1 (optimized conformer: 59.95699996266628 kcal/mol)

>  <smiles>  (37) 
Cc1ccc(S(=O)(=O)Nc2ccccc2C(=O)Nc2cc(C)ccc2O)cc1

>  <score_type>  (37) 
oracle

>  <origin>  (37) 
adgpu

>  <m_score__min__energy>  (37) 
-12.93

>  <m_primary>  (37) 
energy

$$$$
37:0
     RDKit          3D

 67 70  0  0  0  0  0  0  0  0999 V2000
    2.9610   28.3980  -22.1710 C   0  0  0  0  0  0  0  0  0  0  0  0
    1.7280   28.9550  -22.8710 C   0  0  0  0  0  0  0  0  0  0  0  0
    1.3040   28.0530  -23.9400 N   0  0  0  0  0  0  0  0  0  0  0  0
    0.2430   27.1030  -23.7700 C   0  0  0  0  0  0  0  0  0  0  0  0
   -0.4850   27.1550  -22.7400 O   0  0  0  0  0  0  0  0  0  0  0  0
   -0.0480   26.0830  -24.8050 C   0  0  0  0  0  0  0  0  0  0  0  0
   -0.1410   24.7380  -24.4050 C   0  0  0  0  0  0  0  0  0  0  0  0
   -0.4040   23.7200  -25.3330 C   0  0  0  0  0  0  0  0  0  0  0  0
   -0.4910   22.2920  -24.8720 C   0  0  0  0  0  0  0  0  0  0  0  0
   -0.5640   24.0490  -26.6910 C   0  0  0  0  0  0  0  0  0  0  0  0
   -0.7820   23.0310  -27.6760 N   0  0  0  0  0  0  0  0  0  0  0  0
   -0.1850   21.8170  -27.7410 C   0  0  0  0  0  0  0  0  0  0  0  0
   -0.5450   21.1040  -28.8410 N   0  0  0  0  0  0  0  0  0  0  0  0
   -1.4020   21.9320  -29.4710 C   0  0  0  0  0  0  0  0  0  0  0  0
   -2.0690   21.7090  -30.6680 C   0  0  0  0  0  0  0  0  0  0  0  0
   -2.9190   22.7220  -31.1540 C   0  0  0  0  0  0  0  0  0  0  0  0
   -3.5690   22.5050  -32.3780 O   0  0  0  0  0  0  0  0  0  0  0  0
   -4.4740   21.4630  -32.6390 C   0  0  0  0  0  0  0  0  0  0  0  0
   -3.9860   20.2830  -33.2030 C   0  0  0  0  0  0  0  0  0  0  0  0
   -4.8500   19.2250  -33.4830 C   0  0  0  0  0  0  0  0  0  0  0  0
   -6.2130   19.3340  -33.1980 C   0  0  0  0  0  0  0  0  0  0  0  0
   -6.7350   20.5170  -32.6370 C   0  0  0  0  0  0  0  0  0  0  0  0
   -8.1440   20.6270  -32.3100 N   0  0  0  0  0  0  0  0  0  0  0  0
   -9.0160   19.4480  -32.3660 C   0  0  0  0  0  0  0  0  0  0  0  0
   -8.7060   21.9130  -31.8830 C   0  0  0  0  0  0  0  0  0  0  0  0
   -5.8530   21.5850  -32.3840 C   0  0  0  0  0  0  0  0  0  0  0  0
   -3.1310   23.9080  -30.3890 C   0  0  0  0  0  0  0  0  0  0  0  0
   -4.1150   24.8550  -30.8300 N   0  0  0  0  0  0  0  0  0  0  0  0
   -5.8330   24.6850  -30.6560 S   0  0  0  0  0  0  0  0  0  0  0  0
   -6.2200   23.2190  -29.7240 C   0  0  0  0  0  0  0  0  0  0  0  0
   -6.4030   25.9030  -29.9890 O   0  0  0  0  0  0  0  0  0  0  0  0
   -6.4410   24.5510  -32.0220 O   0  0  0  0  0  0  0  0  0  0  0  0
   -2.3990   24.1100  -29.1950 C   0  0  0  0  0  0  0  0  0  0  0  0
   -1.5460   23.0930  -28.7760 C   0  0  0  0  0  0  0  0  0  0  0  0
   -0.4790   25.3840  -27.0980 C   0  0  0  0  0  0  0  0  0  0  0  0
   -0.1930   26.4050  -26.1790 C   0  0  0  0  0  0  0  0  0  0  0  0
   -0.0350   27.8090  -26.7040 C   0  0  0  0  0  0  0  0  0  0  0  0
    2.8235   28.4601  -21.0814 H   0  0  0  0  0  0  0  0  0  0  0  0
    3.1052   27.3473  -22.4631 H   0  0  0  0  0  0  0  0  0  0  0  0
    3.8447   28.9843  -22.4631 H   0  0  0  0  0  0  0  0  0  0  0  0
    0.9125   29.0615  -22.1405 H   0  0  0  0  0  0  0  0  0  0  0  0
    1.9738   29.9355  -23.3050 H   0  0  0  0  0  0  0  0  0  0  0  0
    1.7040   28.2040  -24.8940 H   0  0  0  0  0  0  0  0  0  0  0  0
   -0.0049   24.4796  -23.3445 H   0  0  0  0  0  0  0  0  0  0  0  0
   -0.4929   22.2611  -23.7724 H   0  0  0  0  0  0  0  0  0  0  0  0
   -1.4184   21.8395  -25.2531 H   0  0  0  0  0  0  0  0  0  0  0  0
    0.3746   21.7303  -25.2531 H   0  0  0  0  0  0  0  0  0  0  0  0
    0.5190   21.4460  -26.9815 H   0  0  0  0  0  0  0  0  0  0  0  0
   -1.9375   20.7676  -31.2216 H   0  0  0  0  0  0  0  0  0  0  0  0
   -2.9135   20.1872  -33.4279 H   0  0  0  0  0  0  0  0  0  0  0  0
   -4.4564   18.3004  -33.9304 H   0  0  0  0  0  0  0  0  0  0  0  0
   -6.8845   18.4897  -33.4131 H   0  0  0  0  0  0  0  0  0  0  0  0
   -9.2574   19.1216  -31.3437 H   0  0  0  0  0  0  0  0  0  0  0  0
   -9.9442   19.7034  -32.8982 H   0  0  0  0  0  0  0  0  0  0  0  0
   -8.5000   18.6353  -32.8982 H   0  0  0  0  0  0  0  0  0  0  0  0
   -8.7256   21.9578  -30.7841 H   0  0  0  0  0  0  0  0  0  0  0  0
   -8.0839   22.7324  -32.2724 H   0  0  0  0  0  0  0  0  0  0  0  0
   -9.7299   22.0131  -32.2724 H   0  0  0  0  0  0  0  0  0  0  0  0
   -6.2477   22.5293  -31.9808 H   0  0  0  0  0  0  0  0  0  0  0  0
   -6.1611   23.4421  -28.6485 H   0  0  0  0  0  0  0  0  0  0  0  0
   -7.2374   22.8837  -29.9738 H   0  0  0  0  0  0  0  0  0  0  0  0
   -5.5006   22.4252  -29.9738 H   0  0  0  0  0  0  0  0  0  0  0  0
   -2.5007   25.0403  -28.6169 H   0  0  0  0  0  0  0  0  0  0  0  0
   -0.6390   25.6380  -28.1562 H   0  0  0  0  0  0  0  0  0  0  0  0
    0.0438   28.5095  -25.8596 H   0  0  0  0  0  0  0  0  0  0  0  0
    0.8757   27.8706  -27.3178 H   0  0  0  0  0  0  0  0  0  0  0  0
   -0.9093   28.0715  -27.3178 H   0  0  0  0  0  0  0  0  0  0  0  0
  1  2  1  0
  2  3  1  0
  3  4  1  0
  4  5  2  0
  4  6  1  0
  6  7  2  0
  7  8  1  0
  8  9  1  0
  8 10  2  0
 10 11  1  0
 11 12  1  0
 12 13  2  0
 13 14  1  0
 14 15  2  0
 15 16  1  0
 16 17  1  0
 17 18  1  0
 18 19  2  0
 19 20  1  0
 20 21  2  0
 21 22  1  0
 22 23  1  0
 23 24  1  0
 23 25  1  0
 22 26  2  0
 16 27  2  0
 27 28  1  0
 28 29  1  0
 29 30  1  0
 29 31  2  0
 29 32  2  0
 27 33  1  0
 33 34  2  0
 10 35  1  0
 35 36  2  0
 36 37  1  0
 36  6  1  0
 34 11  1  0
 34 14  1  0
 26 18  1  0
  1 38  1  0
  1 39  1  0
  1 40  1  0
  2 41  1  0
  2 42  1  0
  3 43  1  0
  7 44  1  0
  9 45  1  0
  9 46  1  0
  9 47  1  0
 12 48  1  0
 15 49  1  0
 19 50  1  0
 20 51  1  0
 21 52  1  0
 24 53  1  0
 24 54  1  0
 24 55  1  0
 25 56  1  0
 25 57  1  0
 25 58  1  0
 26 59  1  0
 30 60  1  0
 30 61  1  0
 30 62  1  0
 33 63  1  0
 35 64  1  0
 37 65  1  0
 37 66  1  0
 37 67  1  0
M  CHG  1  28  -1
M  END
>  <UniqueID>  (38) 
38

>  <SMILES>  (38) 
CCNC(=O)c1cc(C)c(-n2cnc3cc(Oc4cccc(N(C)C)c4)c([N-]S(C)(=O)=O)cc32)cc1C

>  <Energy>  (38) 
123.17175847624601

>  <Genealogy>  (38) 
CCNC(=O)c1cc(C)c(-n2cnc3cc(Oc4cccc(N(C)C)c4)c([N-]S(C)(=O)=O)cc32)cc1C (protonated)
CCNC(=O)c1cc(C)c(-n2cnc3cc(Oc4cccc(N(C)C)c4)c([N-]S(C)(=O)=O)cc32)cc1C (3D coordinates assigned)
CCNC(=O)c1cc(C)c(-n2cnc3cc(Oc4cccc(N(C)C)c4)c([N-]S(C)(=O)=O)cc32)cc1C (optimized conformer: 123.17175847624601 kcal/mol)

>  <smiles>  (38) 
CCNC(=O)c1cc(C)c(-n2cnc3cc(Oc4cccc(N(C)C)c4)c(NS(C)(=O)=O)cc32)cc1C

>  <score_type>  (38) 
oracle

>  <origin>  (38) 
adgpu

>  <m_score__min__energy>  (38) 
-10.640000000000001

>  <m_primary>  (38) 
energy

$$$$
38:0
     RDKit          3D

 76 80  0  0  0  0  0  0  0  0999 V2000
   -6.0390   18.6490  -32.4580 C   0  0  0  0  0  0  0  0  0  0  0  0
   -4.7510   19.3930  -32.6730 C   0  0  0  0  0  0  0  0  0  0  0  0
   -3.8240   18.9360  -33.6210 C   0  0  0  0  0  0  0  0  0  0  0  0
   -2.6240   19.6230  -33.8270 C   0  0  0  0  0  0  0  0  0  0  0  0
   -2.3180   20.7630  -33.0700 C   0  0  0  0  0  0  0  0  0  0  0  0
   -0.9970   21.4900  -33.2600 C   0  0  0  0  0  0  0  0  0  0  0  0
    0.0030   21.2500  -32.1880 N   0  0  0  0  0  0  0  0  0  0  0  0
    0.4220   19.8470  -32.0690 C   0  0  0  0  0  0  0  0  0  0  0  0
   -0.2910   19.2360  -30.8670 C   0  0  0  0  0  0  0  0  0  0  0  0
   -0.9080   20.4040  -30.1160 C   0  0  0  0  0  0  0  0  0  0  0  0
   -0.4460   21.6560  -30.8510 C   0  0  0  0  0  0  0  0  0  0  0  0
   -3.2650   21.2420  -32.1490 C   0  0  0  0  0  0  0  0  0  0  0  0
   -4.4910   20.5790  -31.9640 C   0  0  0  0  0  0  0  0  0  0  0  0
   -5.4480   21.0650  -31.0590 O   0  0  0  0  0  0  0  0  0  0  0  0
   -6.6350   21.7300  -31.4100 C   0  0  0  0  0  0  0  0  0  0  0  0
   -7.8810   21.0740  -31.3930 C   0  0  0  0  0  0  0  0  0  0  0  0
   -9.0540   21.7760  -31.6920 C   0  0  0  0  0  0  0  0  0  0  0  0
   -8.9980   23.1370  -31.9910 C   0  0  0  0  0  0  0  0  0  0  0  0
   -7.7690   23.7990  -32.0070 C   0  0  0  0  0  0  0  0  0  0  0  0
   -6.5780   23.0980  -31.7350 C   0  0  0  0  0  0  0  0  0  0  0  0
   -5.3140   23.7780  -31.7060 N   0  0  0  0  0  0  0  0  0  0  0  0
   -5.0630   25.0120  -31.0270 C   0  0  0  0  0  0  0  0  0  0  0  0
   -6.0110   25.8200  -30.8480 O   0  0  0  0  0  0  0  0  0  0  0  0
   -3.7720   25.2770  -30.4650 N   0  0  0  0  0  0  0  0  0  0  0  0
   -3.0870   24.4610  -29.5070 C   0  0  0  0  0  0  0  0  0  0  0  0
   -3.6230   23.2070  -29.2050 C   0  0  0  0  0  0  0  0  0  0  0  0
   -2.9650   22.3490  -28.3290 C   0  0  0  0  0  0  0  0  0  0  0  0
   -1.7540   22.7250  -27.7400 C   0  0  0  0  0  0  0  0  0  0  0  0
   -0.9770   21.5390  -26.7000 Cl  0  0  0  0  0  0  0  0  0  0  0  0
   -1.1880   23.9910  -28.0320 C   0  0  0  0  0  0  0  0  0  0  0  0
    0.3560   24.5270  -27.3280 S   0  0  0  0  0  0  0  0  0  0  0  0
    0.7590   23.5530  -26.2560 O   0  0  0  0  0  0  0  0  0  0  0  0
    1.4490   24.5420  -28.3580 O   0  0  0  0  0  0  0  0  0  0  0  0
    0.1820   26.1600  -26.5950 C   0  0  0  0  0  0  0  0  0  0  0  0
    1.5330   26.7130  -26.0860 C   0  0  0  0  0  0  0  0  0  0  0  0
    1.7430   26.4090  -24.5970 C   0  0  0  0  0  0  0  0  0  0  0  0
    0.6700   26.9720  -23.7330 N   0  0  0  0  0  0  0  0  0  0  0  0
    1.1120   28.1950  -23.0450 C   0  0  0  0  0  0  0  0  0  0  0  0
   -0.6170   27.2130  -24.4300 C   0  0  0  0  0  0  0  0  0  0  0  0
   -0.8920   26.1350  -25.4830 C   0  0  0  0  0  0  0  0  0  0  0  0
   -1.8500   24.8410  -28.9460 C   0  0  0  0  0  0  0  0  0  0  0  0
   -1.2560   26.0380  -29.3300 O   0  0  0  0  0  0  0  0  0  0  0  0
   -6.2248   18.5417  -31.3791 H   0  0  0  0  0  0  0  0  0  0  0  0
   -6.8667   19.2081  -32.9188 H   0  0  0  0  0  0  0  0  0  0  0  0
   -5.9682   17.6527  -32.9188 H   0  0  0  0  0  0  0  0  0  0  0  0
   -4.0426   18.0308  -34.2065 H   0  0  0  0  0  0  0  0  0  0  0  0
   -1.9147   19.2667  -34.5885 H   0  0  0  0  0  0  0  0  0  0  0  0
   -0.5604   21.1634  -34.2153 H   0  0  0  0  0  0  0  0  0  0  0  0
   -1.2276   22.5653  -33.2349 H   0  0  0  0  0  0  0  0  0  0  0  0
    0.1488   19.2982  -32.9823 H   0  0  0  0  0  0  0  0  0  0  0  0
    1.5121   19.7865  -31.9348 H   0  0  0  0  0  0  0  0  0  0  0  0
   -1.0733   18.5378  -31.1995 H   0  0  0  0  0  0  0  0  0  0  0  0
    0.4022   18.6658  -30.2311 H   0  0  0  0  0  0  0  0  0  0  0  0
   -2.0056   20.3332  -30.1313 H   0  0  0  0  0  0  0  0  0  0  0  0
   -0.6004   20.4160  -29.0600 H   0  0  0  0  0  0  0  0  0  0  0  0
   -1.2793   22.3690  -30.9364 H   0  0  0  0  0  0  0  0  0  0  0  0
    0.3727   22.1443  -30.3021 H   0  0  0  0  0  0  0  0  0  0  0  0
   -3.0442   22.1477  -31.5650 H   0  0  0  0  0  0  0  0  0  0  0  0
   -7.9325   20.0039  -31.1433 H   0  0  0  0  0  0  0  0  0  0  0  0
  -10.0219   21.2534  -31.6912 H   0  0  0  0  0  0  0  0  0  0  0  0
   -9.9228   23.6892  -32.2144 H   0  0  0  0  0  0  0  0  0  0  0  0
   -7.7305   24.8748  -32.2334 H   0  0  0  0  0  0  0  0  0  0  0  0
   -4.5731   22.8951  -29.6634 H   0  0  0  0  0  0  0  0  0  0  0  0
   -3.4015   21.3661  -28.0979 H   0  0  0  0  0  0  0  0  0  0  0  0
   -0.1558   26.8533  -27.3793 H   0  0  0  0  0  0  0  0  0  0  0  0
    2.3478   26.2512  -26.6629 H   0  0  0  0  0  0  0  0  0  0  0  0
    1.5288   27.8052  -26.2168 H   0  0  0  0  0  0  0  0  0  0  0  0
    1.7659   25.3176  -24.4616 H   0  0  0  0  0  0  0  0  0  0  0  0
    2.6903   26.8795  -24.2949 H   0  0  0  0  0  0  0  0  0  0  0  0
    1.0573   28.0437  -21.9568 H   0  0  0  0  0  0  0  0  0  0  0  0
    2.1493   28.4226  -23.3319 H   0  0  0  0  0  0  0  0  0  0  0  0
    0.4599   29.0331  -23.3319 H   0  0  0  0  0  0  0  0  0  0  0  0
   -1.4313   27.2071  -23.6904 H   0  0  0  0  0  0  0  0  0  0  0  0
   -0.5588   28.1869  -24.9382 H   0  0  0  0  0  0  0  0  0  0  0  0
   -0.8845   25.1479  -24.9977 H   0  0  0  0  0  0  0  0  0  0  0  0
   -1.8733   26.3327  -25.9390 H   0  0  0  0  0  0  0  0  0  0  0  0
  1  2  1  0
  2  3  2  0
  3  4  1  0
  4  5  2  0
  5  6  1  0
  6  7  1  0
  7  8  1  0
  8  9  1  0
  9 10  1  0
 10 11  1  0
  5 12  1  0
 12 13  2  0
 13 14  1  0
 14 15  1  0
 15 16  2  0
 16 17  1  0
 17 18  2  0
 18 19  1  0
 19 20  2  0
 20 21  1  0
 21 22  1  0
 22 23  2  0
 22 24  1  0
 24 25  1  0
 25 26  2  0
 26 27  1  0
 27 28  2  0
 28 29  1  0
 28 30  1  0
 30 31  1  0
 31 32  2  0
 31 33  2  0
 31 34  1  0
 34 35  1  0
 35 36  1  0
 36 37  1  0
 37 38  1  0
 37 39  1  0
 39 40  1  0
 30 41  2  0
 41 42  1  0
 13  2  1  0
 20 15  1  0
 41 25  1  0
 11  7  1  0
 40 34  1  0
  1 43  1  0
  1 44  1  0
  1 45  1  0
  3 46  1  0
  4 47  1  0
  6 48  1  0
  6 49  1  0
  8 50  1  0
  8 51  1  0
  9 52  1  0
  9 53  1  0
 10 54  1  0
 10 55  1  0
 11 56  1  0
 11 57  1  0
 12 58  1  0
 16 59  1  0
 17 60  1  0
 18 61  1  0
 19 62  1  0
 26 63  1  0
 27 64  1  0
 34 65  1  0
 35 66  1  0
 35 67  1  0
 36 68  1  0
 36 69  1  0
 38 70  1  0
 38 71  1  0
 38 72  1  0
 39 73  1  0
 39 74  1  0
 40 75  1  0
 40 76  1  0
M  CHG  3  21  -1  24  -1  42  -1
M  END
>  <UniqueID>  (39) 
39

>  <SMILES>  (39) 
Cc1ccc(CN2CCCC2)cc1Oc1ccccc1[N-]C(=O)[N-]c1ccc(Cl)c(S(=O)(=O)C2CCN(C)CC2)c1[O-]

>  <Energy>  (39) 
109.46503948675698

>  <Genealogy>  (39) 
Cc1ccc(CN2CCCC2)cc1Oc1ccccc1[N-]C(=O)[N-]c1ccc(Cl)c(S(=O)(=O)C2CCN(C)CC2)c1[O-] (protonated)
Cc1ccc(CN2CCCC2)cc1Oc1ccccc1[N-]C(=O)[N-]c1ccc(Cl)c(S(=O)(=O)C2CCN(C)CC2)c1[O-] (3D coordinates assigned)
Cc1ccc(CN2CCCC2)cc1Oc1ccccc1[N-]C(=O)[N-]c1ccc(Cl)c(S(=O)(=O)C2CCN(C)CC2)c1[O-] (nonaromatic ring conformer: 109.46503948675698 kcal/mol)

>  <smiles>  (39) 
Cc1ccc(CN2CCCC2)cc1Oc1ccccc1NC(=O)Nc1ccc(Cl)c(S(=O)(=O)C2CCN(C)CC2)c1O

>  <score_type>  (39) 
oracle

>  <origin>  (39) 
adgpu

>  <m_score__min__energy>  (39) 
-18.100000000000001

>  <m_primary>  (39) 
energy

$$$$
39:0
     RDKit          3D

 52 55  0  0  0  0  0  0  0  0999 V2000
   -5.2490   25.6670  -30.3680 C   0  0  0  0  0  0  0  0  0  0  0  0
   -3.8880   25.2620  -30.4690 O   0  0  0  0  0  0  0  0  0  0  0  0
   -3.2540   24.3860  -29.5760 C   0  0  0  0  0  0  0  0  0  0  0  0
   -2.0360   24.7020  -28.9430 C   0  0  0  0  0  0  0  0  0  0  0  0
   -1.4380   23.7880  -28.0700 C   0  0  0  0  0  0  0  0  0  0  0  0
   -2.0490   22.5560  -27.8110 C   0  0  0  0  0  0  0  0  0  0  0  0
   -1.2280   21.3600  -26.8090 S   0  0  0  0  0  0  0  0  0  0  0  0
   -0.7650   22.0080  -25.5350 O   0  0  0  0  0  0  0  0  0  0  0  0
   -2.1560   20.2260  -26.4690 O   0  0  0  0  0  0  0  0  0  0  0  0
    0.1440   20.7680  -27.6850 N   0  0  0  0  0  0  0  0  0  0  0  0
   -0.0210   20.1700  -28.9700 C   0  0  0  0  0  0  0  0  0  0  0  0
    0.2520   18.7930  -29.1620 C   0  0  0  0  0  0  0  0  0  0  0  0
   -0.0520   18.1690  -30.3840 C   0  0  0  0  0  0  0  0  0  0  0  0
   -0.6220   18.9450  -31.3900 C   0  0  0  0  0  0  0  0  0  0  0  0
   -0.8740   20.2870  -31.2120 C   0  0  0  0  0  0  0  0  0  0  0  0
   -0.5760   20.9330  -30.0140 C   0  0  0  0  0  0  0  0  0  0  0  0
   -1.6240   20.7510  -32.3720 C   0  0  0  0  0  0  0  0  0  0  0  0
   -2.0820   21.9140  -32.5260 O   0  0  0  0  0  0  0  0  0  0  0  0
   -1.8410   19.6740  -33.2920 N   0  0  0  0  0  0  0  0  0  0  0  0
   -2.9930   19.5750  -34.1850 C   0  0  0  0  0  0  0  0  0  0  0  0
   -4.2700   19.6490  -33.3890 C   0  0  0  0  0  0  0  0  0  0  0  0
   -5.0030   18.4850  -33.1090 C   0  0  0  0  0  0  0  0  0  0  0  0
   -6.2180   18.5660  -32.4250 C   0  0  0  0  0  0  0  0  0  0  0  0
   -6.7200   19.8080  -32.0280 C   0  0  0  0  0  0  0  0  0  0  0  0
   -6.0090   20.9780  -32.3200 C   0  0  0  0  0  0  0  0  0  0  0  0
   -6.6400   22.5500  -31.8390 S   0  0  0  0  0  0  0  0  0  0  0  0
   -5.6580   23.8010  -32.5180 N   0  0  0  0  0  0  0  0  0  0  0  0
   -6.6350   22.6710  -30.3430 O   0  0  0  0  0  0  0  0  0  0  0  0
   -8.0530   22.6970  -32.3310 O   0  0  0  0  0  0  0  0  0  0  0  0
   -4.7810   20.8950  -32.9900 C   0  0  0  0  0  0  0  0  0  0  0  0
   -1.2020   18.5550  -32.6680 C   0  0  0  0  0  0  0  0  0  0  0  0
   -1.1900   17.3890  -33.1480 O   0  0  0  0  0  0  0  0  0  0  0  0
   -3.2620   22.2410  -28.4380 C   0  0  0  0  0  0  0  0  0  0  0  0
   -3.8600   23.1530  -29.3130 C   0  0  0  0  0  0  0  0  0  0  0  0
   -5.5290   25.7503  -29.3075 H   0  0  0  0  0  0  0  0  0  0  0  0
   -5.3786   26.6426  -30.8592 H   0  0  0  0  0  0  0  0  0  0  0  0
   -5.8910   24.9210  -30.8592 H   0  0  0  0  0  0  0  0  0  0  0  0
   -1.5535   25.6714  -29.1362 H   0  0  0  0  0  0  0  0  0  0  0  0
   -0.4831   24.0385  -27.5847 H   0  0  0  0  0  0  0  0  0  0  0  0
    0.7054   18.2079  -28.3483 H   0  0  0  0  0  0  0  0  0  0  0  0
    0.1541   17.1000  -30.5410 H   0  0  0  0  0  0  0  0  0  0  0  0
   -0.7690   22.0086  -29.8879 H   0  0  0  0  0  0  0  0  0  0  0  0
   -2.9658   20.4037  -34.9079 H   0  0  0  0  0  0  0  0  0  0  0  0
   -2.9550   18.6135  -34.7180 H   0  0  0  0  0  0  0  0  0  0  0  0
   -4.6190   17.5053  -33.4295 H   0  0  0  0  0  0  0  0  0  0  0  0
   -6.7816   17.6490  -32.1981 H   0  0  0  0  0  0  0  0  0  0  0  0
   -7.6750   19.8665  -31.4854 H   0  0  0  0  0  0  0  0  0  0  0  0
   -5.3050   23.4490  -33.4340 H   0  0  0  0  0  0  0  0  0  0  0  0
   -4.8270   23.9050  -31.8940 H   0  0  0  0  0  0  0  0  0  0  0  0
   -4.2132   21.8123  -33.2050 H   0  0  0  0  0  0  0  0  0  0  0  0
   -3.7454   21.2728  -28.2411 H   0  0  0  0  0  0  0  0  0  0  0  0
   -4.8140   22.8990  -29.7981 H   0  0  0  0  0  0  0  0  0  0  0  0
  1  2  1  0
  2  3  1  0
  3  4  2  0
  4  5  1  0
  5  6  2  0
  6  7  1  0
  7  8  2  0
  7  9  2  0
  7 10  1  0
 10 11  1  0
 11 12  2  0
 12 13  1  0
 13 14  2  0
 14 15  1  0
 15 16  2  0
 15 17  1  0
 17 18  2  0
 17 19  1  0
 19 20  1  0
 20 21  1  0
 21 22  2  0
 22 23  1  0
 23 24  2  0
 24 25  1  0
 25 26  1  0
 26 27  1  0
 26 28  2  0
 26 29  2  0
 25 30  2  0
 19 31  1  0
 31 32  2  0
  6 33  1  0
 33 34  2  0
 34  3  1  0
 16 11  1  0
 30 21  1  0
 31 14  1  0
  1 35  1  0
  1 36  1  0
  1 37  1  0
  4 38  1  0
  5 39  1  0
 12 40  1  0
 13 41  1  0
 16 42  1  0
 20 43  1  0
 20 44  1  0
 22 45  1  0
 23 46  1  0
 24 47  1  0
 27 48  1  0
 27 49  1  0
 30 50  1  0
 33 51  1  0
 34 52  1  0
M  CHG  1  10  -1
M  END
>  <UniqueID>  (40) 
40

>  <SMILES>  (40) 
COc1ccc(S(=O)(=O)[N-]c2ccc3c(c2)C(=O)N(Cc2cccc(S(N)(=O)=O)c2)C3=O)cc1

>  <Energy>  (40) 
89.22481490789482

>  <Genealogy>  (40) 
COc1ccc(S(=O)(=O)[N-]c2ccc3c(c2)C(=O)N(Cc2cccc(S(N)(=O)=O)c2)C3=O)cc1 (protonated)
COc1ccc(S(=O)(=O)[N-]c2ccc3c(c2)C(=O)N(Cc2cccc(S(N)(=O)=O)c2)C3=O)cc1 (3D coordinates assigned)
COc1ccc(S(=O)(=O)[N-]c2ccc3c(c2)C(=O)N(Cc2cccc(S(N)(=O)=O)c2)C3=O)cc1 (nonaromatic ring conformer: 89.22481490789482 kcal/mol)

>  <smiles>  (40) 
COc1ccc(S(=O)(=O)Nc2ccc3c(c2)C(=O)N(Cc2cccc(S(N)(=O)=O)c2)C3=O)cc1

>  <score_type>  (40) 
oracle

>  <origin>  (40) 
adgpu

>  <m_score__min__energy>  (40) 
-10.98

>  <m_primary>  (40) 
energy

$$$$
40:0
     RDKit          3D

 50 52  0  0  0  0  0  0  0  0999 V2000
   -4.2540   17.0290  -34.4220 C   0  0  0  0  0  0  0  0  0  0  0  0
   -3.4300   18.0730  -33.9130 O   0  0  0  0  0  0  0  0  0  0  0  0
   -3.9000   19.3390  -33.5290 C   0  0  0  0  0  0  0  0  0  0  0  0
   -5.2840   19.5550  -33.5040 C   0  0  0  0  0  0  0  0  0  0  0  0
   -5.8050   20.7900  -33.1070 C   0  0  0  0  0  0  0  0  0  0  0  0
   -4.9440   21.8280  -32.7150 C   0  0  0  0  0  0  0  0  0  0  0  0
   -5.5160   23.1340  -32.2270 C   0  0  0  0  0  0  0  0  0  0  0  0
   -5.7570   23.0850  -30.7680 N   0  0  0  0  0  0  0  0  0  0  0  0
   -7.1890   23.2820  -30.4650 C   0  0  0  0  0  0  0  0  0  0  0  0
   -8.0040   22.1640  -31.0390 C   0  0  0  0  0  0  0  0  0  0  0  0
   -9.1150   22.3110  -31.8490 C   0  0  0  0  0  0  0  0  0  0  0  0
   -9.5170   21.0300  -32.1580 C   0  0  0  0  0  0  0  0  0  0  0  0
   -8.6300   20.1840  -31.5220 C   0  0  0  0  0  0  0  0  0  0  0  0
   -7.7400   20.8900  -30.8630 O   0  0  0  0  0  0  0  0  0  0  0  0
   -4.7970   24.3060  -29.9470 S   0  0  0  0  0  0  0  0  0  0  0  0
   -5.6430   25.0530  -28.9520 O   0  0  0  0  0  0  0  0  0  0  0  0
   -4.2720   25.2950  -30.9570 O   0  0  0  0  0  0  0  0  0  0  0  0
   -3.4770   23.5310  -29.0550 C   0  0  0  0  0  0  0  0  0  0  0  0
   -3.6830   22.2570  -28.5340 C   0  0  0  0  0  0  0  0  0  0  0  0
   -2.6700   21.5840  -27.9200 N   0  0  0  0  0  0  0  0  0  0  0  0
   -2.9150   20.2360  -27.3900 C   0  0  0  0  0  0  0  0  0  0  0  0
   -1.4400   22.1700  -27.7760 C   0  0  0  0  0  0  0  0  0  0  0  0
   -0.5190   21.5520  -27.1680 O   0  0  0  0  0  0  0  0  0  0  0  0
   -1.2010   23.4230  -28.2860 N   0  0  0  0  0  0  0  0  0  0  0  0
    0.1310   24.0350  -28.1320 C   0  0  0  0  0  0  0  0  0  0  0  0
   -2.2130   24.1210  -28.8950 C   0  0  0  0  0  0  0  0  0  0  0  0
   -2.0100   25.2930  -29.3210 O   0  0  0  0  0  0  0  0  0  0  0  0
   -3.5550   21.6260  -32.7690 C   0  0  0  0  0  0  0  0  0  0  0  0
   -3.0350   20.3890  -33.1670 C   0  0  0  0  0  0  0  0  0  0  0  0
   -4.6958   16.4692  -33.5845 H   0  0  0  0  0  0  0  0  0  0  0  0
   -5.0563   17.4621  -35.0373 H   0  0  0  0  0  0  0  0  0  0  0  0
   -3.6463   16.3492  -35.0373 H   0  0  0  0  0  0  0  0  0  0  0  0
   -5.9672   18.7451  -33.7996 H   0  0  0  0  0  0  0  0  0  0  0  0
   -6.8934   20.9494  -33.1016 H   0  0  0  0  0  0  0  0  0  0  0  0
   -4.8065   23.9447  -32.4490 H   0  0  0  0  0  0  0  0  0  0  0  0
   -6.4730   23.3147  -32.7383 H   0  0  0  0  0  0  0  0  0  0  0  0
   -7.3281   23.3087  -29.3742 H   0  0  0  0  0  0  0  0  0  0  0  0
   -7.5206   24.2307  -30.9122 H   0  0  0  0  0  0  0  0  0  0  0  0
   -9.5798   23.2523  -32.1774 H   0  0  0  0  0  0  0  0  0  0  0  0
  -10.3726   20.7395  -32.7853 H   0  0  0  0  0  0  0  0  0  0  0  0
   -8.6638   19.0852  -31.5614 H   0  0  0  0  0  0  0  0  0  0  0  0
   -4.6745   21.7883  -28.6189 H   0  0  0  0  0  0  0  0  0  0  0  0
   -2.9092   20.2677  -26.2905 H   0  0  0  0  0  0  0  0  0  0  0  0
   -3.8933   19.8761  -27.7413 H   0  0  0  0  0  0  0  0  0  0  0  0
   -2.1259   19.5549  -27.7413 H   0  0  0  0  0  0  0  0  0  0  0  0
    0.3639   24.1420  -27.0623 H   0  0  0  0  0  0  0  0  0  0  0  0
    0.8866   23.3937  -28.6094 H   0  0  0  0  0  0  0  0  0  0  0  0
    0.1366   25.0260  -28.6094 H   0  0  0  0  0  0  0  0  0  0  0  0
   -2.8722   22.4444  -32.4970 H   0  0  0  0  0  0  0  0  0  0  0  0
   -1.9460   20.2367  -33.1971 H   0  0  0  0  0  0  0  0  0  0  0  0
  1  2  1  0
  2  3  1  0
  3  4  2  0
  4  5  1  0
  5  6  2  0
  6  7  1  0
  7  8  1  0
  8  9  1  0
  9 10  1  0
 10 11  2  0
 11 12  1  0
 12 13  2  0
 13 14  1  0
  8 15  1  0
 15 16  2  0
 15 17  2  0
 15 18  1  0
 18 19  2  0
 19 20  1  0
 20 21  1  0
 20 22  1  0
 22 23  2  0
 22 24  1  0
 24 25  1  0
 24 26  1  0
 26 27  2  0
  6 28  1  0
 28 29  2  0
 29  3  1  0
 14 10  1  0
 26 18  1  0
  1 30  1  0
  1 31  1  0
  1 32  1  0
  4 33  1  0
  5 34  1  0
  7 35  1  0
  7 36  1  0
  9 37  1  0
  9 38  1  0
 11 39  1  0
 12 40  1  0
 13 41  1  0
 19 42  1  0
 21 43  1  0
 21 44  1  0
 21 45  1  0
 25 46  1  0
 25 47  1  0
 25 48  1  0
 28 49  1  0
 29 50  1  0
M  END
>  <UniqueID>  (41) 
41

>  <SMILES>  (41) 
COc1ccc(CN(Cc2ccco2)S(=O)(=O)c2cn(C)c(=O)n(C)c2=O)cc1

>  <Energy>  (41) 
78.86065234842071

>  <Genealogy>  (41) 
COc1ccc(CN(Cc2ccco2)S(=O)(=O)c2cn(C)c(=O)n(C)c2=O)cc1 (3D coordinates assigned)
COc1ccc(CN(Cc2ccco2)S(=O)(=O)c2cn(C)c(=O)n(C)c2=O)cc1 (optimized conformer: 78.86065234842071 kcal/mol)

>  <smiles>  (41) 
COc1ccc(CN(Cc2ccco2)S(=O)(=O)c2cn(C)c(=O)n(C)c2=O)cc1

>  <score_type>  (41) 
oracle

>  <origin>  (41) 
adgpu

>  <m_score__min__energy>  (41) 
-8.6899999999999995

>  <m_primary>  (41) 
energy

$$$$
41:0
     RDKit          3D

 45 47  0  0  0  0  0  0  0  0999 V2000
   -3.3660   19.3410  -33.3450 C   0  0  0  0  0  0  0  0  0  0  0  0
   -4.2640   20.1790  -32.5590 N   0  0  0  0  0  0  0  0  0  0  0  0
   -5.6230   20.4080  -32.9560 C   0  0  0  0  0  0  0  0  0  0  0  0
   -6.1120   19.7620  -33.9230 O   0  0  0  0  0  0  0  0  0  0  0  0
   -6.4710   21.3670  -32.2210 C   0  0  0  0  0  0  0  0  0  0  0  0
   -7.8570   21.3130  -32.0530 C   0  0  0  0  0  0  0  0  0  0  0  0
   -8.7750   20.2680  -32.5990 C   0  0  0  0  0  0  0  0  0  0  0  0
   -8.2720   22.3250  -31.3130 O   0  0  0  0  0  0  0  0  0  0  0  0
   -7.2220   23.0430  -30.9980 C   0  0  0  0  0  0  0  0  0  0  0  0
   -7.1960   24.2090  -30.2390 C   0  0  0  0  0  0  0  0  0  0  0  0
   -5.9570   24.8450  -30.0470 C   0  0  0  0  0  0  0  0  0  0  0  0
   -4.7730   24.3120  -30.6270 C   0  0  0  0  0  0  0  0  0  0  0  0
   -3.4970   24.9440  -30.4630 N   0  0  0  0  0  0  0  0  0  0  0  0
   -2.3200   24.5280  -29.2580 S   0  0  0  0  0  0  0  0  0  0  0  0
   -1.2290   25.5600  -29.2800 O   0  0  0  0  0  0  0  0  0  0  0  0
   -2.9880   24.5470  -27.9110 O   0  0  0  0  0  0  0  0  0  0  0  0
   -1.6130   22.9370  -29.5920 C   0  0  0  0  0  0  0  0  0  0  0  0
   -1.8300   22.3540  -30.8510 C   0  0  0  0  0  0  0  0  0  0  0  0
   -1.3090   21.0960  -31.1540 C   0  0  0  0  0  0  0  0  0  0  0  0
   -0.5650   20.3920  -30.2010 C   0  0  0  0  0  0  0  0  0  0  0  0
    0.0190   19.0500  -30.5350 C   0  0  0  0  0  0  0  0  0  0  0  0
   -0.3070   20.9810  -28.9550 C   0  0  0  0  0  0  0  0  0  0  0  0
   -0.8150   22.2550  -28.6410 C   0  0  0  0  0  0  0  0  0  0  0  0
   -0.5230   22.8370  -27.2840 C   0  0  0  0  0  0  0  0  0  0  0  0
   -4.8390   23.1270  -31.3860 C   0  0  0  0  0  0  0  0  0  0  0  0
   -6.0810   22.5040  -31.5350 C   0  0  0  0  0  0  0  0  0  0  0  0
   -2.7315   18.7489  -32.6691 H   0  0  0  0  0  0  0  0  0  0  0  0
   -3.9573   18.6643  -33.9794 H   0  0  0  0  0  0  0  0  0  0  0  0
   -2.7318   19.9776  -33.9794 H   0  0  0  0  0  0  0  0  0  0  0  0
   -3.9150   20.5700  -31.6550 H   0  0  0  0  0  0  0  0  0  0  0  0
   -9.2504   19.7269  -31.7676 H   0  0  0  0  0  0  0  0  0  0  0  0
   -9.5500   20.7467  -33.2157 H   0  0  0  0  0  0  0  0  0  0  0  0
   -8.2005   19.5612  -33.2157 H   0  0  0  0  0  0  0  0  0  0  0  0
   -8.1177   24.6209  -29.8021 H   0  0  0  0  0  0  0  0  0  0  0  0
   -5.9029   25.7627  -29.4430 H   0  0  0  0  0  0  0  0  0  0  0  0
   -2.4176   22.8956  -31.6069 H   0  0  0  0  0  0  0  0  0  0  0  0
   -1.4839   20.6555  -32.1467 H   0  0  0  0  0  0  0  0  0  0  0  0
    0.2537   18.5106  -29.6055 H   0  0  0  0  0  0  0  0  0  0  0  0
   -0.7079   18.4696  -31.1221 H   0  0  0  0  0  0  0  0  0  0  0  0
    0.9392   19.1864  -31.1221 H   0  0  0  0  0  0  0  0  0  0  0  0
    0.3000   20.4404  -28.2139 H   0  0  0  0  0  0  0  0  0  0  0  0
   -0.8712   22.1430  -26.5048 H   0  0  0  0  0  0  0  0  0  0  0  0
    0.5606   22.9939  -27.1777 H   0  0  0  0  0  0  0  0  0  0  0  0
   -1.0450   23.7994  -27.1777 H   0  0  0  0  0  0  0  0  0  0  0  0
   -3.9360   22.7030  -31.8495 H   0  0  0  0  0  0  0  0  0  0  0  0
  1  2  1  0
  2  3  1  0
  3  4  2  0
  3  5  1  0
  5  6  2  0
  6  7  1  0
  6  8  1  0
  8  9  1  0
  9 10  2  0
 10 11  1  0
 11 12  2  0
 12 13  1  0
 13 14  1  0
 14 15  2  0
 14 16  2  0
 14 17  1  0
 17 18  2  0
 18 19  1  0
 19 20  2  0
 20 21  1  0
 20 22  1  0
 22 23  2  0
 23 24  1  0
 12 25  1  0
 25 26  2  0
 26  5  1  0
 26  9  1  0
 23 17  1  0
  1 27  1  0
  1 28  1  0
  1 29  1  0
  2 30  1  0
  7 31  1  0
  7 32  1  0
  7 33  1  0
 10 34  1  0
 11 35  1  0
 18 36  1  0
 19 37  1  0
 21 38  1  0
 21 39  1  0
 21 40  1  0
 22 41  1  0
 24 42  1  0
 24 43  1  0
 24 44  1  0
 25 45  1  0
M  CHG  1  13  -1
M  END
>  <UniqueID>  (42) 
42

>  <SMILES>  (42) 
CNC(=O)c1c(C)oc2ccc([N-]S(=O)(=O)c3ccc(C)cc3C)cc12

>  <Energy>  (42) 
83.97426679123197

>  <Genealogy>  (42) 
CNC(=O)c1c(C)oc2ccc([N-]S(=O)(=O)c3ccc(C)cc3C)cc12 (protonated)
CNC(=O)c1c(C)oc2ccc([N-]S(=O)(=O)c3ccc(C)cc3C)cc12 (3D coordinates assigned)
CNC(=O)c1c(C)oc2ccc([N-]S(=O)(=O)c3ccc(C)cc3C)cc12 (optimized conformer: 83.97426679123197 kcal/mol)

>  <smiles>  (42) 
CNC(=O)c1c(C)oc2ccc(NS(=O)(=O)c3ccc(C)cc3C)cc12

>  <score_type>  (42) 
oracle

>  <origin>  (42) 
adgpu

>  <m_score__min__energy>  (42) 
-10.720000000000001

>  <m_primary>  (42) 
energy

$$$$
42:0
     RDKit          3D

 44 45  0  0  0  0  0  0  0  0999 V2000
   -6.5760   23.0760  -32.3480 C   0  0  0  0  0  0  0  0  0  0  0  0
   -5.7140   24.0940  -31.8900 O   0  0  0  0  0  0  0  0  0  0  0  0
   -6.2350   24.6520  -30.7020 C   0  0  0  0  0  0  0  0  0  0  0  0
   -5.2130   25.6270  -30.1220 C   0  0  0  0  0  0  0  0  0  0  0  0
   -3.8690   25.3110  -30.6140 N   0  0  0  0  0  0  0  0  0  0  0  0
   -3.1100   24.0830  -29.6430 S   0  0  0  0  0  0  0  0  0  0  0  0
   -3.8610   23.9200  -28.3490 O   0  0  0  0  0  0  0  0  0  0  0  0
   -1.7030   24.5060  -29.3240 O   0  0  0  0  0  0  0  0  0  0  0  0
   -3.0640   22.5560  -30.5180 C   0  0  0  0  0  0  0  0  0  0  0  0
   -4.1970   21.7330  -30.5770 C   0  0  0  0  0  0  0  0  0  0  0  0
   -4.1750   20.5610  -31.3390 C   0  0  0  0  0  0  0  0  0  0  0  0
   -3.0200   20.2040  -32.0490 C   0  0  0  0  0  0  0  0  0  0  0  0
   -3.0040   18.7930  -33.1000 S   0  0  0  0  0  0  0  0  0  0  0  0
   -2.9380   19.2450  -34.5320 O   0  0  0  0  0  0  0  0  0  0  0  0
   -1.8070   17.9290  -32.8080 O   0  0  0  0  0  0  0  0  0  0  0  0
   -4.4610   17.8820  -32.8450 N   0  0  0  0  0  0  0  0  0  0  0  0
   -5.4680   18.2650  -33.8380 C   0  0  0  0  0  0  0  0  0  0  0  0
   -6.7140   18.7190  -33.1340 C   0  0  0  0  0  0  0  0  0  0  0  0
   -7.4320   17.8350  -32.3110 C   0  0  0  0  0  0  0  0  0  0  0  0
   -8.6040   18.2610  -31.6760 C   0  0  0  0  0  0  0  0  0  0  0  0
   -9.0690   19.5650  -31.8660 C   0  0  0  0  0  0  0  0  0  0  0  0
   -8.3680   20.4450  -32.6960 C   0  0  0  0  0  0  0  0  0  0  0  0
   -7.1980   20.0230  -33.3340 C   0  0  0  0  0  0  0  0  0  0  0  0
   -1.8860   21.0240  -31.9830 C   0  0  0  0  0  0  0  0  0  0  0  0
   -1.9080   22.1950  -31.2200 C   0  0  0  0  0  0  0  0  0  0  0  0
   -7.0177   22.5543  -31.4862 H   0  0  0  0  0  0  0  0  0  0  0  0
   -7.3767   23.5202  -32.9575 H   0  0  0  0  0  0  0  0  0  0  0  0
   -6.0059   22.3595  -32.9575 H   0  0  0  0  0  0  0  0  0  0  0  0
   -7.1701   25.1868  -30.9247 H   0  0  0  0  0  0  0  0  0  0  0  0
   -6.4411   23.8528  -29.9748 H   0  0  0  0  0  0  0  0  0  0  0  0
   -5.4777   26.6513  -30.4232 H   0  0  0  0  0  0  0  0  0  0  0  0
   -5.2208   25.5416  -29.0253 H   0  0  0  0  0  0  0  0  0  0  0  0
   -5.1057   22.0099  -30.0224 H   0  0  0  0  0  0  0  0  0  0  0  0
   -5.0661   19.9174  -31.3816 H   0  0  0  0  0  0  0  0  0  0  0  0
   -4.8240   18.1330  -31.8960 H   0  0  0  0  0  0  0  0  0  0  0  0
   -5.0779   19.0847  -34.4592 H   0  0  0  0  0  0  0  0  0  0  0  0
   -5.7011   17.4009  -34.4776 H   0  0  0  0  0  0  0  0  0  0  0  0
   -7.0720   16.8058  -32.1655 H   0  0  0  0  0  0  0  0  0  0  0  0
   -9.1598   17.5686  -31.0266 H   0  0  0  0  0  0  0  0  0  0  0  0
   -9.9877   19.8995  -31.3619 H   0  0  0  0  0  0  0  0  0  0  0  0
   -8.7374   21.4701  -32.8471 H   0  0  0  0  0  0  0  0  0  0  0  0
   -6.6543   20.7141  -33.9949 H   0  0  0  0  0  0  0  0  0  0  0  0
   -0.9753   20.7454  -32.5334 H   0  0  0  0  0  0  0  0  0  0  0  0
   -1.0144   22.8346  -31.1711 H   0  0  0  0  0  0  0  0  0  0  0  0
  1  2  1  0
  2  3  1  0
  3  4  1  0
  4  5  1  0
  5  6  1  0
  6  7  2  0
  6  8  2  0
  6  9  1  0
  9 10  2  0
 10 11  1  0
 11 12  2  0
 12 13  1  0
 13 14  2  0
 13 15  2  0
 13 16  1  0
 16 17  1  0
 17 18  1  0
 18 19  2  0
 19 20  1  0
 20 21  2  0
 21 22  1  0
 22 23  2  0
 12 24  1  0
 24 25  2  0
 25  9  1  0
 23 18  1  0
  1 26  1  0
  1 27  1  0
  1 28  1  0
  3 29  1  0
  3 30  1  0
  4 31  1  0
  4 32  1  0
 10 33  1  0
 11 34  1  0
 16 35  1  0
 17 36  1  0
 17 37  1  0
 19 38  1  0
 20 39  1  0
 21 40  1  0
 22 41  1  0
 23 42  1  0
 24 43  1  0
 25 44  1  0
M  CHG  1   5  -1
M  END
>  <UniqueID>  (43) 
43

>  <SMILES>  (43) 
COCC[N-]S(=O)(=O)c1ccc(S(=O)(=O)NCc2ccccc2)cc1

>  <Energy>  (43) 
36.5932670047181

>  <Genealogy>  (43) 
COCC[N-]S(=O)(=O)c1ccc(S(=O)(=O)NCc2ccccc2)cc1 (protonated)
COCC[N-]S(=O)(=O)c1ccc(S(=O)(=O)NCc2ccccc2)cc1 (3D coordinates assigned)
COCC[N-]S(=O)(=O)c1ccc(S(=O)(=O)NCc2ccccc2)cc1 (optimized conformer: 36.5932670047181 kcal/mol)

>  <smiles>  (43) 
COCCNS(=O)(=O)c1ccc(S(=O)(=O)NCc2ccccc2)cc1

>  <score_type>  (43) 
oracle

>  <origin>  (43) 
adgpu

>  <m_score__min__energy>  (43) 
-10.51

>  <m_primary>  (43) 
energy

$$$$
43:0
     RDKit          3D

 54 56  0  0  0  0  0  0  0  0999 V2000
   -1.7770   26.4680  -25.3110 C   0  0  0  0  0  0  0  0  0  0  0  0
   -1.8250   25.5160  -26.4730 C   0  0  0  0  0  0  0  0  0  0  0  0
   -0.7580   25.4550  -27.3790 C   0  0  0  0  0  0  0  0  0  0  0  0
   -0.8020   24.5710  -28.4640 C   0  0  0  0  0  0  0  0  0  0  0  0
   -1.9220   23.7530  -28.6660 C   0  0  0  0  0  0  0  0  0  0  0  0
   -1.9470   22.5800  -29.9800 S   0  0  0  0  0  0  0  0  0  0  0  0
   -0.5660   22.3650  -30.5210 O   0  0  0  0  0  0  0  0  0  0  0  0
   -2.4460   21.2640  -29.4580 O   0  0  0  0  0  0  0  0  0  0  0  0
   -3.0300   23.1150  -31.2250 N   0  0  0  0  0  0  0  0  0  0  0  0
   -4.4290   23.3980  -31.0710 C   0  0  0  0  0  0  0  0  0  0  0  0
   -5.4130   22.4140  -31.2670 C   0  0  0  0  0  0  0  0  0  0  0  0
   -6.7760   22.7190  -31.1150 C   0  0  0  0  0  0  0  0  0  0  0  0
   -7.7970   21.6690  -31.3010 C   0  0  0  0  0  0  0  0  0  0  0  0
   -8.9730   21.8810  -30.8990 O   0  0  0  0  0  0  0  0  0  0  0  0
   -7.4830   20.4210  -31.9480 N   0  0  0  0  0  0  0  0  0  0  0  0
   -6.6770   20.4440  -33.1790 C   0  0  0  0  0  0  0  0  0  0  0  0
   -6.5330   19.0450  -33.7890 C   0  0  0  0  0  0  0  0  0  0  0  0
   -6.2310   18.0230  -32.6770 C   0  0  0  0  0  0  0  0  0  0  0  0
   -5.8050   16.7070  -33.2270 N   0  0  0  0  0  0  0  0  0  0  0  0
   -5.1430   16.8440  -34.5360 C   0  0  0  0  0  0  0  0  0  0  0  0
   -4.9880   15.8820  -32.3150 C   0  0  0  0  0  0  0  0  0  0  0  0
   -7.3970   17.9440  -31.6520 C   0  0  0  0  0  0  0  0  0  0  0  0
   -8.2600   19.2190  -31.6030 C   0  0  0  0  0  0  0  0  0  0  0  0
   -7.1520   24.0310  -30.7980 C   0  0  0  0  0  0  0  0  0  0  0  0
   -6.1800   25.0070  -30.5730 C   0  0  0  0  0  0  0  0  0  0  0  0
   -4.8230   24.6910  -30.6980 C   0  0  0  0  0  0  0  0  0  0  0  0
   -3.8660   25.6720  -30.4600 O   0  0  0  0  0  0  0  0  0  0  0  0
   -3.0070   23.8460  -27.7820 C   0  0  0  0  0  0  0  0  0  0  0  0
   -2.9590   24.7240  -26.6920 C   0  0  0  0  0  0  0  0  0  0  0  0
   -1.8057   25.8994  -24.3698 H   0  0  0  0  0  0  0  0  0  0  0  0
   -0.8481   27.0554  -25.3564 H   0  0  0  0  0  0  0  0  0  0  0  0
   -2.6421   27.1459  -25.3564 H   0  0  0  0  0  0  0  0  0  0  0  0
    0.1183   26.1046  -27.2373 H   0  0  0  0  0  0  0  0  0  0  0  0
    0.0469   24.5183  -29.1615 H   0  0  0  0  0  0  0  0  0  0  0  0
   -5.1124   21.3925  -31.5428 H   0  0  0  0  0  0  0  0  0  0  0  0
   -7.1643   21.1039  -33.9118 H   0  0  0  0  0  0  0  0  0  0  0  0
   -5.6722   20.8118  -32.9240 H   0  0  0  0  0  0  0  0  0  0  0  0
   -7.4696   18.7686  -34.2953 H   0  0  0  0  0  0  0  0  0  0  0  0
   -5.7073   19.0475  -34.5158 H   0  0  0  0  0  0  0  0  0  0  0  0
   -5.3607   18.3808  -32.1072 H   0  0  0  0  0  0  0  0  0  0  0  0
   -4.0759   17.0648  -34.3859 H   0  0  0  0  0  0  0  0  0  0  0  0
   -5.2474   15.9052  -35.0997 H   0  0  0  0  0  0  0  0  0  0  0  0
   -5.6114   17.6642  -35.0997 H   0  0  0  0  0  0  0  0  0  0  0  0
   -5.2359   16.1323  -31.2729 H   0  0  0  0  0  0  0  0  0  0  0  0
   -5.1979   14.8175  -32.4963 H   0  0  0  0  0  0  0  0  0  0  0  0
   -3.9215   16.0815  -32.4963 H   0  0  0  0  0  0  0  0  0  0  0  0
   -8.0432   17.0965  -31.9245 H   0  0  0  0  0  0  0  0  0  0  0  0
   -6.9449   17.8211  -30.6568 H   0  0  0  0  0  0  0  0  0  0  0  0
   -9.0897   19.1146  -32.3176 H   0  0  0  0  0  0  0  0  0  0  0  0
   -8.6344   19.3382  -30.5756 H   0  0  0  0  0  0  0  0  0  0  0  0
   -8.2179   24.2929  -30.7261 H   0  0  0  0  0  0  0  0  0  0  0  0
   -6.4820   26.0280  -30.2965 H   0  0  0  0  0  0  0  0  0  0  0  0
   -3.9006   23.2258  -27.9458 H   0  0  0  0  0  0  0  0  0  0  0  0
   -3.8155   24.7918  -26.0051 H   0  0  0  0  0  0  0  0  0  0  0  0
  1  2  1  0
  2  3  2  0
  3  4  1  0
  4  5  2  0
  5  6  1  0
  6  7  2  0
  6  8  2  0
  6  9  1  0
  9 10  1  0
 10 11  2  0
 11 12  1  0
 12 13  1  0
 13 14  2  0
 13 15  1  0
 15 16  1  0
 16 17  1  0
 17 18  1  0
 18 19  1  0
 19 20  1  0
 19 21  1  0
 18 22  1  0
 22 23  1  0
 12 24  2  0
 24 25  1  0
 25 26  2  0
 26 27  1  0
  5 28  1  0
 28 29  2  0
 29  2  1  0
 26 10  1  0
 23 15  1  0
  1 30  1  0
  1 31  1  0
  1 32  1  0
  3 33  1  0
  4 34  1  0
 11 35  1  0
 16 36  1  0
 16 37  1  0
 17 38  1  0
 17 39  1  0
 18 40  1  0
 20 41  1  0
 20 42  1  0
 20 43  1  0
 21 44  1  0
 21 45  1  0
 21 46  1  0
 22 47  1  0
 22 48  1  0
 23 49  1  0
 23 50  1  0
 24 51  1  0
 25 52  1  0
 28 53  1  0
 29 54  1  0
M  CHG  2   9  -1  27  -1
M  END
>  <UniqueID>  (44) 
44

>  <SMILES>  (44) 
Cc1ccc(S(=O)(=O)[N-]c2cc(C(=O)N3CCC(N(C)C)CC3)ccc2[O-])cc1

>  <Energy>  (44) 
73.99375143908034

>  <Genealogy>  (44) 
Cc1ccc(S(=O)(=O)[N-]c2cc(C(=O)N3CCC(N(C)C)CC3)ccc2[O-])cc1 (protonated)
Cc1ccc(S(=O)(=O)[N-]c2cc(C(=O)N3CCC(N(C)C)CC3)ccc2[O-])cc1 (3D coordinates assigned)
Cc1ccc(S(=O)(=O)[N-]c2cc(C(=O)N3CCC(N(C)C)CC3)ccc2[O-])cc1 (nonaromatic ring conformer: 73.99375143908034 kcal/mol)

>  <smiles>  (44) 
Cc1ccc(S(=O)(=O)Nc2cc(C(=O)N3CCC(N(C)C)CC3)ccc2O)cc1

>  <score_type>  (44) 
oracle

>  <origin>  (44) 
adgpu

>  <m_score__min__energy>  (44) 
-13.73

>  <m_primary>  (44) 
energy

$$$$
44:0
     RDKit          3D

 47 49  0  0  0  0  0  0  0  0999 V2000
   -3.6000   18.5780  -25.9690 C   0  0  0  0  0  0  0  0  0  0  0  0
   -3.0700   19.7240  -26.6230 O   0  0  0  0  0  0  0  0  0  0  0  0
   -1.7940   19.7440  -27.1950 C   0  0  0  0  0  0  0  0  0  0  0  0
   -0.9090   18.9320  -26.7980 O   0  0  0  0  0  0  0  0  0  0  0  0
   -1.4840   20.7110  -28.2730 C   0  0  0  0  0  0  0  0  0  0  0  0
   -0.6480   20.3380  -29.3430 C   0  0  0  0  0  0  0  0  0  0  0  0
   -0.3400   21.2520  -30.3550 C   0  0  0  0  0  0  0  0  0  0  0  0
   -0.8660   22.5460  -30.3140 C   0  0  0  0  0  0  0  0  0  0  0  0
   -1.7040   22.9320  -29.2560 C   0  0  0  0  0  0  0  0  0  0  0  0
   -2.3700   24.5620  -29.1830 S   0  0  0  0  0  0  0  0  0  0  0  0
   -1.2880   25.5930  -29.3320 O   0  0  0  0  0  0  0  0  0  0  0  0
   -3.0340   24.7540  -27.8480 O   0  0  0  0  0  0  0  0  0  0  0  0
   -3.5470   24.7760  -30.4390 N   0  0  0  0  0  0  0  0  0  0  0  0
   -4.7730   24.0420  -30.5750 C   0  0  0  0  0  0  0  0  0  0  0  0
   -4.8950   22.9680  -31.4760 C   0  0  0  0  0  0  0  0  0  0  0  0
   -6.1080   22.2610  -31.6030 C   0  0  0  0  0  0  0  0  0  0  0  0
   -7.2250   22.6820  -30.8480 C   0  0  0  0  0  0  0  0  0  0  0  0
   -7.0930   23.7320  -29.9280 C   0  0  0  0  0  0  0  0  0  0  0  0
   -5.8810   24.4120  -29.7900 C   0  0  0  0  0  0  0  0  0  0  0  0
   -5.8020   25.4570  -28.8680 O   0  0  0  0  0  0  0  0  0  0  0  0
   -8.5450   21.9690  -30.9740 C   0  0  0  0  0  0  0  0  0  0  0  0
   -8.6960   21.3150  -32.3490 C   0  0  0  0  0  0  0  0  0  0  0  0
   -7.5020   20.4110  -32.6500 C   0  0  0  0  0  0  0  0  0  0  0  0
   -6.2340   21.1420  -32.5180 N   0  0  0  0  0  0  0  0  0  0  0  0
   -5.0750   20.5360  -33.1120 C   0  0  0  0  0  0  0  0  0  0  0  0
   -5.0330   19.0580  -33.3440 C   0  0  0  0  0  0  0  0  0  0  0  0
   -4.1250   21.2620  -33.5170 O   0  0  0  0  0  0  0  0  0  0  0  0
   -2.0090   22.0150  -28.2400 C   0  0  0  0  0  0  0  0  0  0  0  0
   -3.5364   18.7154  -24.8795 H   0  0  0  0  0  0  0  0  0  0  0  0
   -4.6520   18.4430  -26.2608 H   0  0  0  0  0  0  0  0  0  0  0  0
   -3.0216   17.6890  -26.2608 H   0  0  0  0  0  0  0  0  0  0  0  0
   -0.2341   19.3196  -29.3829 H   0  0  0  0  0  0  0  0  0  0  0  0
    0.3172   20.9522  -31.1846 H   0  0  0  0  0  0  0  0  0  0  0  0
   -0.6230   23.2631  -31.1119 H   0  0  0  0  0  0  0  0  0  0  0  0
   -4.0308   22.6757  -32.0905 H   0  0  0  0  0  0  0  0  0  0  0  0
   -7.9537   24.0233  -29.3081 H   0  0  0  0  0  0  0  0  0  0  0  0
   -4.9710   25.6420  -28.3190 H   0  0  0  0  0  0  0  0  0  0  0  0
   -8.6073   21.1912  -30.1987 H   0  0  0  0  0  0  0  0  0  0  0  0
   -9.3510   22.7074  -30.8510 H   0  0  0  0  0  0  0  0  0  0  0  0
   -9.6171   20.7138  -32.3639 H   0  0  0  0  0  0  0  0  0  0  0  0
   -8.7437   22.1047  -33.1133 H   0  0  0  0  0  0  0  0  0  0  0  0
   -7.5044   19.5670  -31.9446 H   0  0  0  0  0  0  0  0  0  0  0  0
   -7.5902   20.0517  -33.6859 H   0  0  0  0  0  0  0  0  0  0  0  0
   -5.0181   18.5352  -32.3763 H   0  0  0  0  0  0  0  0  0  0  0  0
   -5.9228   18.7507  -33.9131 H   0  0  0  0  0  0  0  0  0  0  0  0
   -4.1272   18.8018  -33.9131 H   0  0  0  0  0  0  0  0  0  0  0  0
   -2.6644   22.3183  -27.4103 H   0  0  0  0  0  0  0  0  0  0  0  0
  1  2  1  0
  2  3  1  0
  3  4  2  0
  3  5  1  0
  5  6  2  0
  6  7  1  0
  7  8  2  0
  8  9  1  0
  9 10  1  0
 10 11  2  0
 10 12  2  0
 10 13  1  0
 13 14  1  0
 14 15  2  0
 15 16  1  0
 16 17  2  0
 17 18  1  0
 18 19  2  0
 19 20  1  0
 17 21  1  0
 21 22  1  0
 22 23  1  0
 23 24  1  0
 24 25  1  0
 25 26  1  0
 25 27  2  0
  9 28  2  0
 28  5  1  0
 19 14  1  0
 24 16  1  0
  1 29  1  0
  1 30  1  0
  1 31  1  0
  6 32  1  0
  7 33  1  0
  8 34  1  0
 15 35  1  0
 18 36  1  0
 20 37  1  0
 21 38  1  0
 21 39  1  0
 22 40  1  0
 22 41  1  0
 23 42  1  0
 23 43  1  0
 26 44  1  0
 26 45  1  0
 26 46  1  0
 28 47  1  0
M  CHG  1  13  -1
M  END
>  <UniqueID>  (45) 
45

>  <SMILES>  (45) 
COC(=O)c1cccc(S(=O)(=O)[N-]c2cc3c(cc2O)CCCN3C(C)=O)c1

>  <Energy>  (45) 
55.185628513909535

>  <Genealogy>  (45) 
COC(=O)c1cccc(S(=O)(=O)[N-]c2cc3c(cc2O)CCCN3C(C)=O)c1 (protonated)
COC(=O)c1cccc(S(=O)(=O)[N-]c2cc3c(cc2O)CCCN3C(C)=O)c1 (3D coordinates assigned)
COC(=O)c1cccc(S(=O)(=O)[N-]c2cc3c(cc2O)CCCN3C(C)=O)c1 (nonaromatic ring conformer: 55.185628513909535 kcal/mol)

>  <smiles>  (45) 
COC(=O)c1cccc(S(=O)(=O)Nc2cc3c(cc2O)CCCN3C(C)=O)c1

>  <score_type>  (45) 
oracle

>  <origin>  (45) 
adgpu

>  <m_score__min__energy>  (45) 
-10.550000000000001

>  <m_primary>  (45) 
energy

$$$$
45:0
     RDKit          3D

 29 30  0  0  0  0  0  0  0  0999 V2000
   -8.8210   19.2590  -32.1890 C   0  0  0  0  0  0  0  0  0  0  0  0
   -8.0870   20.5640  -32.1300 C   0  0  0  0  0  0  0  0  0  0  0  0
   -8.7480   21.7300  -31.7100 C   0  0  0  0  0  0  0  0  0  0  0  0
   -8.0550   22.9400  -31.6200 C   0  0  0  0  0  0  0  0  0  0  0  0
   -6.6910   23.0020  -31.9540 C   0  0  0  0  0  0  0  0  0  0  0  0
   -5.9420   24.2200  -31.8410 N   0  0  0  0  0  0  0  0  0  0  0  0
   -4.9570   24.5260  -30.8430 C   0  0  0  0  0  0  0  0  0  0  0  0
   -4.4230   25.6660  -30.8500 O   0  0  0  0  0  0  0  0  0  0  0  0
   -4.5750   23.5350  -29.7780 C   0  0  0  0  0  0  0  0  0  0  0  0
   -3.0120   22.6890  -30.2050 S   0  0  0  0  0  0  0  0  0  0  0  0
   -1.9470   23.8750  -29.3750 C   0  0  0  0  0  0  0  0  0  0  0  0
   -2.3500   25.1640  -29.2390 N   0  0  0  0  0  0  0  0  0  0  0  0
   -1.5850   26.0650  -28.6200 N   0  0  0  0  0  0  0  0  0  0  0  0
   -0.3790   25.7140  -28.1040 C   0  0  0  0  0  0  0  0  0  0  0  0
    0.3340   26.5730  -27.5240 O   0  0  0  0  0  0  0  0  0  0  0  0
    0.0530   24.4330  -28.2170 N   0  0  0  0  0  0  0  0  0  0  0  0
   -0.7090   23.5010  -28.8430 C   0  0  0  0  0  0  0  0  0  0  0  0
   -0.2970   22.3150  -28.9380 O   0  0  0  0  0  0  0  0  0  0  0  0
   -6.0230   21.8300  -32.3280 C   0  0  0  0  0  0  0  0  0  0  0  0
   -6.7150   20.6180  -32.4190 C   0  0  0  0  0  0  0  0  0  0  0  0
   -9.0206   18.9041  -31.1671 H   0  0  0  0  0  0  0  0  0  0  0  0
   -9.7734   19.3978  -32.7216 H   0  0  0  0  0  0  0  0  0  0  0  0
   -8.2078   18.5172  -32.7216 H   0  0  0  0  0  0  0  0  0  0  0  0
   -9.8163   21.6904  -31.4507 H   0  0  0  0  0  0  0  0  0  0  0  0
   -8.5790   23.8478  -31.2864 H   0  0  0  0  0  0  0  0  0  0  0  0
   -4.4485   24.0644  -28.8221 H   0  0  0  0  0  0  0  0  0  0  0  0
   -5.3720   22.7812  -29.6971 H   0  0  0  0  0  0  0  0  0  0  0  0
   -4.9465   21.8625  -32.5518 H   0  0  0  0  0  0  0  0  0  0  0  0
   -6.1817   19.7037  -32.7183 H   0  0  0  0  0  0  0  0  0  0  0  0
  1  2  1  0
  2  3  2  0
  3  4  1  0
  4  5  2  0
  5  6  1  0
  6  7  1  0
  7  8  2  0
  7  9  1  0
  9 10  1  0
 10 11  1  0
 11 12  2  0
 12 13  1  0
 13 14  1  0
 14 15  2  0
 14 16  1  0
 16 17  1  0
 17 18  2  0
  5 19  1  0
 19 20  2  0
 20  2  1  0
 17 11  1  0
  1 21  1  0
  1 22  1  0
  1 23  1  0
  3 24  1  0
  4 25  1  0
  9 26  1  0
  9 27  1  0
 19 28  1  0
 20 29  1  0
M  CHG  3   6  -1  13  -1  16  -1
M  END
>  <UniqueID>  (46) 
46

>  <SMILES>  (46) 
Cc1ccc([N-]C(=O)CSc2n[n-]c(=O)[n-]c2=O)cc1

>  <Energy>  (46) 
33.367618694948895

>  <Genealogy>  (46) 
Cc1ccc([N-]C(=O)CSc2n[n-]c(=O)[n-]c2=O)cc1 (protonated)
Cc1ccc([N-]C(=O)CSc2n[n-]c(=O)[n-]c2=O)cc1 (3D coordinates assigned)
Cc1ccc([N-]C(=O)CSc2n[n-]c(=O)[n-]c2=O)cc1 (optimized conformer: 33.367618694948895 kcal/mol)

>  <smiles>  (46) 
Cc1ccc(NC(=O)CSc2n[nH]c(=O)[nH]c2=O)cc1

>  <score_type>  (46) 
oracle

>  <origin>  (46) 
adgpu

>  <m_score__min__energy>  (46) 
-10.609999999999999

>  <m_primary>  (46) 
energy

$$$$
46:0
     RDKit          3D

 49 52  0  0  0  0  0  0  0  0999 V2000
   -2.3450   17.1210  -34.3650 C   0  0  0  0  0  0  0  0  0  0  0  0
   -2.5090   18.5250  -34.1930 O   0  0  0  0  0  0  0  0  0  0  0  0
   -3.6050   19.1220  -33.5530 C   0  0  0  0  0  0  0  0  0  0  0  0
   -4.4690   18.3050  -32.8140 C   0  0  0  0  0  0  0  0  0  0  0  0
   -5.5740   18.8520  -32.1560 C   0  0  0  0  0  0  0  0  0  0  0  0
   -5.8320   20.2290  -32.2280 C   0  0  0  0  0  0  0  0  0  0  0  0
   -6.9560   20.7970  -31.5310 N   0  0  0  0  0  0  0  0  0  0  0  0
   -7.0200   21.9550  -30.8370 C   0  0  0  0  0  0  0  0  0  0  0  0
   -5.8770   22.8380  -30.5260 C   0  0  0  0  0  0  0  0  0  0  0  0
   -4.6250   22.2650  -30.2600 C   0  0  0  0  0  0  0  0  0  0  0  0
   -3.5150   23.0670  -29.9590 C   0  0  0  0  0  0  0  0  0  0  0  0
   -1.9540   22.2950  -29.6470 S   0  0  0  0  0  0  0  0  0  0  0  0
   -1.8330   21.0380  -30.4630 O   0  0  0  0  0  0  0  0  0  0  0  0
   -0.8610   23.2270  -30.0910 O   0  0  0  0  0  0  0  0  0  0  0  0
   -1.7250   21.9090  -27.9530 N   0  0  0  0  0  0  0  0  0  0  0  0
   -0.3350   21.5280  -27.6420 C   0  0  0  0  0  0  0  0  0  0  0  0
   -0.0300   20.0400  -27.9370 C   0  0  0  0  0  0  0  0  0  0  0  0
   -1.1800   19.2920  -28.2780 O   0  0  0  0  0  0  0  0  0  0  0  0
   -2.1910   19.5180  -27.3250 C   0  0  0  0  0  0  0  0  0  0  0  0
   -2.7310   20.9530  -27.4410 C   0  0  0  0  0  0  0  0  0  0  0  0
   -3.6660   24.4650  -29.9230 C   0  0  0  0  0  0  0  0  0  0  0  0
   -2.5890   25.2930  -29.6280 O   0  0  0  0  0  0  0  0  0  0  0  0
   -4.9070   25.0420  -30.2020 C   0  0  0  0  0  0  0  0  0  0  0  0
   -6.0110   24.2400  -30.5180 C   0  0  0  0  0  0  0  0  0  0  0  0
   -7.2300   24.8340  -30.8480 O   0  0  0  0  0  0  0  0  0  0  0  0
   -8.2820   22.2300  -30.4550 N   0  0  0  0  0  0  0  0  0  0  0  0
   -9.0490   21.2440  -30.8970 N   0  0  0  0  0  0  0  0  0  0  0  0
   -8.2410   20.3830  -31.5420 C   0  0  0  0  0  0  0  0  0  0  0  0
   -8.8020   19.0700  -32.3450 S   0  0  0  0  0  0  0  0  0  0  0  0
   -4.9680   21.0510  -32.9700 C   0  0  0  0  0  0  0  0  0  0  0  0
   -3.8630   20.5040  -33.6270 C   0  0  0  0  0  0  0  0  0  0  0  0
   -2.2882   16.6351  -33.3798 H   0  0  0  0  0  0  0  0  0  0  0  0
   -3.2021   16.7175  -34.9240 H   0  0  0  0  0  0  0  0  0  0  0  0
   -1.4180   16.9259  -34.9240 H   0  0  0  0  0  0  0  0  0  0  0  0
   -4.2766   17.2238  -32.7508 H   0  0  0  0  0  0  0  0  0  0  0  0
   -6.2451   18.1992  -31.5785 H   0  0  0  0  0  0  0  0  0  0  0  0
   -4.5122   21.1712  -30.2879 H   0  0  0  0  0  0  0  0  0  0  0  0
    0.3415   22.1500  -28.2465 H   0  0  0  0  0  0  0  0  0  0  0  0
   -0.1869   21.6843  -26.5633 H   0  0  0  0  0  0  0  0  0  0  0  0
    0.6814   19.9885  -28.7744 H   0  0  0  0  0  0  0  0  0  0  0  0
    0.3828   19.6025  -27.0160 H   0  0  0  0  0  0  0  0  0  0  0  0
   -3.0133   18.8072  -27.4944 H   0  0  0  0  0  0  0  0  0  0  0  0
   -1.7688   19.3776  -26.3190 H   0  0  0  0  0  0  0  0  0  0  0  0
   -3.5917   20.9494  -28.1259 H   0  0  0  0  0  0  0  0  0  0  0  0
   -3.0126   21.2815  -26.4297 H   0  0  0  0  0  0  0  0  0  0  0  0
   -5.0183   26.1360  -30.1733 H   0  0  0  0  0  0  0  0  0  0  0  0
   -8.0570   24.2800  -31.0360 H   0  0  0  0  0  0  0  0  0  0  0  0
   -5.1625   22.1318  -33.0342 H   0  0  0  0  0  0  0  0  0  0  0  0
   -3.1915   21.1561  -34.2048 H   0  0  0  0  0  0  0  0  0  0  0  0
  1  2  1  0
  2  3  1  0
  3  4  2  0
  4  5  1  0
  5  6  2  0
  6  7  1  0
  7  8  1  0
  8  9  1  0
  9 10  2  0
 10 11  1  0
 11 12  1  0
 12 13  2  0
 12 14  2  0
 12 15  1  0
 15 16  1  0
 16 17  1  0
 17 18  1  0
 18 19  1  0
 19 20  1  0
 11 21  2  0
 21 22  1  0
 21 23  1  0
 23 24  2  0
 24 25  1  0
  8 26  2  0
 26 27  1  0
 27 28  1  0
 28 29  2  0
  6 30  1  0
 30 31  2  0
 31  3  1  0
 28  7  1  0
 24  9  1  0
 20 15  1  0
  1 32  1  0
  1 33  1  0
  1 34  1  0
  4 35  1  0
  5 36  1  0
 10 37  1  0
 16 38  1  0
 16 39  1  0
 17 40  1  0
 17 41  1  0
 19 42  1  0
 19 43  1  0
 20 44  1  0
 20 45  1  0
 23 46  1  0
 25 47  1  0
 30 48  1  0
 31 49  1  0
M  CHG  2  22  -1  27  -1
M  END
>  <UniqueID>  (47) 
47

>  <SMILES>  (47) 
COc1ccc(-n2c(-c3cc(S(=O)(=O)N4CCOCC4)c([O-])cc3O)n[n-]c2=S)cc1

>  <Energy>  (47) 
109.79370100432537

>  <Genealogy>  (47) 
COc1ccc(-n2c(-c3cc(S(=O)(=O)N4CCOCC4)c([O-])cc3O)n[n-]c2=S)cc1 (protonated)
COc1ccc(-n2c(-c3cc(S(=O)(=O)N4CCOCC4)c([O-])cc3O)n[n-]c2=S)cc1 (3D coordinates assigned)
COc1ccc(-n2c(-c3cc(S(=O)(=O)N4CCOCC4)c([O-])cc3O)n[n-]c2=S)cc1 (nonaromatic ring conformer: 109.79370100432537 kcal/mol)

>  <smiles>  (47) 
COc1ccc(-n2c(-c3cc(S(=O)(=O)N4CCOCC4)c(O)cc3O)n[nH]c2=S)cc1

>  <score_type>  (47) 
oracle

>  <origin>  (47) 
adgpu

>  <m_score__min__energy>  (47) 
-10.960000000000001

>  <m_primary>  (47) 
energy

$$$$
47:0
     RDKit          3D

 52 56  0  0  0  0  0  0  0  0999 V2000
    0.1735   23.4548  -26.3420 H   0  0  0  0  0  0  0  0  0  0  0  0
   -0.2110   22.6190  -26.9450 C   0  0  0  0  0  0  0  0  0  0  0  0
   -0.9590   21.6080  -26.3380 C   0  0  0  0  0  0  0  0  0  0  0  0
   -1.1730   21.6542  -25.2600 H   0  0  0  0  0  0  0  0  0  0  0  0
   -1.4360   20.5370  -27.1000 C   0  0  0  0  0  0  0  0  0  0  0  0
   -2.3570   19.2560  -26.3340 Cl  0  0  0  0  0  0  0  0  0  0  0  0
   -1.1740   20.4860  -28.4740 C   0  0  0  0  0  0  0  0  0  0  0  0
   -1.5359   19.6337  -29.0679 H   0  0  0  0  0  0  0  0  0  0  0  0
   -0.4540   21.5130  -29.0980 C   0  0  0  0  0  0  0  0  0  0  0  0
   -0.1780   21.4050  -30.5060 N   0  0  0  0  0  0  0  0  0  0  0  0
   -1.0330   21.1420  -31.4530 C   0  0  0  0  0  0  0  0  0  0  0  0
   -2.3260   20.8360  -31.1650 N   0  0  0  0  0  0  0  0  0  0  0  0
   -3.2010   20.5310  -32.1530 C   0  0  0  0  0  0  0  0  0  0  0  0
   -4.5190   20.1990  -31.8210 O   0  0  0  0  0  0  0  0  0  0  0  0
   -5.6150   21.0750  -31.8800 C   0  0  0  0  0  0  0  0  0  0  0  0
   -5.4230   22.4660  -31.8290 C   0  0  0  0  0  0  0  0  0  0  0  0
   -4.4035   22.8725  -31.7552 H   0  0  0  0  0  0  0  0  0  0  0  0
   -6.5110   23.3360  -31.8710 C   0  0  0  0  0  0  0  0  0  0  0  0
   -6.3462   24.4231  -31.8377 H   0  0  0  0  0  0  0  0  0  0  0  0
   -7.8060   22.8320  -31.9550 C   0  0  0  0  0  0  0  0  0  0  0  0
   -8.6605   23.5241  -31.9831 H   0  0  0  0  0  0  0  0  0  0  0  0
   -8.0290   21.4490  -32.0040 C   0  0  0  0  0  0  0  0  0  0  0  0
   -6.9320   20.5550  -31.9430 C   0  0  0  0  0  0  0  0  0  0  0  0
   -7.1950   19.0880  -31.9790 C   0  0  0  0  0  0  0  0  0  0  0  0
   -6.2480   18.2560  -31.9420 O   0  0  0  0  0  0  0  0  0  0  0  0
   -8.6040   18.5680  -32.0050 C   0  0  0  0  0  0  0  0  0  0  0  0
   -8.6252   17.6126  -32.5497 H   0  0  0  0  0  0  0  0  0  0  0  0
   -8.9457   18.4276  -30.9689 H   0  0  0  0  0  0  0  0  0  0  0  0
   -9.5390   19.5590  -32.6970 C   0  0  0  0  0  0  0  0  0  0  0  0
   -9.2528   19.6467  -33.7555 H   0  0  0  0  0  0  0  0  0  0  0  0
  -10.5718   19.1906  -32.6101 H   0  0  0  0  0  0  0  0  0  0  0  0
   -9.4510   20.9370  -32.0370 C   0  0  0  0  0  0  0  0  0  0  0  0
  -10.0722   21.6451  -32.6051 H   0  0  0  0  0  0  0  0  0  0  0  0
   -9.8075   20.8452  -31.0004 H   0  0  0  0  0  0  0  0  0  0  0  0
   -2.7730   20.5140  -33.4420 N   0  0  0  0  0  0  0  0  0  0  0  0
   -1.4900   20.8240  -33.7530 C   0  0  0  0  0  0  0  0  0  0  0  0
   -1.1280   20.7900  -35.0030 N   0  0  0  0  0  0  0  0  0  0  0  0
    0.1410   21.1790  -35.5520 C   0  0  0  0  0  0  0  0  0  0  0  0
    0.4280   22.5420  -35.7100 C   0  0  0  0  0  0  0  0  0  0  0  0
   -0.3323   23.2954  -35.4564 H   0  0  0  0  0  0  0  0  0  0  0  0
    1.6780   22.9470  -36.1890 C   0  0  0  0  0  0  0  0  0  0  0  0
    1.8914   24.0169  -36.3300 H   0  0  0  0  0  0  0  0  0  0  0  0
    2.6570   21.9950  -36.4890 C   0  0  0  0  0  0  0  0  0  0  0  0
    3.8980   22.3990  -36.9660 O   0  0  0  0  0  0  0  0  0  0  0  0
    2.3890   20.6350  -36.3010 C   0  0  0  0  0  0  0  0  0  0  0  0
    3.1612   19.8859  -36.5301 H   0  0  0  0  0  0  0  0  0  0  0  0
    1.1400   20.2270  -35.8220 C   0  0  0  0  0  0  0  0  0  0  0  0
    0.9386   19.1584  -35.6560 H   0  0  0  0  0  0  0  0  0  0  0  0
   -0.6110   21.1210  -32.7480 N   0  0  0  0  0  0  0  0  0  0  0  0
    0.3990   21.2980  -32.9430 H   0  0  0  0  0  0  0  0  0  0  0  0
    0.0500   22.5710  -28.3170 C   0  0  0  0  0  0  0  0  0  0  0  0
    0.6512   23.3623  -28.7886 H   0  0  0  0  0  0  0  0  0  0  0  0
  1  2  1  0
  2  3  2  0
  3  4  1  0
  3  5  1  0
  5  6  1  0
  5  7  2  0
  7  8  1  0
  7  9  1  0
  9 10  1  0
 10 11  2  0
 11 12  1  0
 12 13  2  0
 13 14  1  0
 14 15  1  0
 15 16  2  0
 16 17  1  0
 16 18  1  0
 18 19  1  0
 18 20  2  0
 20 21  1  0
 20 22  1  0
 22 23  2  0
 23 24  1  0
 24 25  2  0
 24 26  1  0
 26 27  1  0
 26 28  1  0
 26 29  1  0
 29 30  1  0
 29 31  1  0
 29 32  1  0
 32 33  1  0
 32 34  1  0
 13 35  1  0
 35 36  1  0
 36 37  2  3
 37 38  1  0
 38 39  2  0
 39 40  1  0
 39 41  1  0
 41 42  1  0
 41 43  2  0
 43 44  1  0
 43 45  1  0
 45 46  1  0
 45 47  2  0
 47 48  1  0
 36 49  1  0
 49 50  1  0
  9 51  2  0
 51 52  1  0
 51  2  1  0
 49 11  1  0
 23 15  1  0
 47 38  1  0
 32 22  1  0
M  CHG  2  35  -1  44  -1
M  END
>  <UniqueID>  (48) 
48

>  <SMILES>  (48) 
O=C1CCCc2cccc(Oc3n/c(=N\c4cccc(Cl)c4)[nH]c(=Nc4ccc([O-])cc4)[n-]3)c21

>  <Energy>  (48) 
80.18254388164895

>  <Genealogy>  (48) 
O=C1CCCc2cccc(Oc3nc(=Nc4cccc(Cl)c4)[nH]c(=Nc4ccc([O-])cc4)[n-]3)c21 (protonated)
O=C1CCCc2cccc(Oc3n/c(=N\c4cccc(Cl)c4)[nH]c(=Nc4ccc([O-])cc4)[n-]3)c21 (cis-trans isomerization)
O=C1CCCc2cccc(Oc3n/c(=N\c4cccc(Cl)c4)[nH]c(=Nc4ccc([O-])cc4)[n-]3)c21 (3D coordinates assigned)
O=C1CCCc2cccc(Oc3n/c(=N\c4cccc(Cl)c4)[nH]c(=Nc4ccc([O-])cc4)[n-]3)c21 (nonaromatic ring conformer: 80.18254388164895 kcal/mol)

>  <smiles>  (48) 
O=C1CCCc2cccc(Oc3nc(=Nc4cccc(Cl)c4)[nH]c(=Nc4ccc(O)cc4)[nH]3)c21

>  <score_type>  (48) 
oracle

>  <origin>  (48) 
adgpu

>  <m_score__min__energy>  (48) 
-11.23

>  <m_primary>  (48) 
energy

$$$$
