0:0
     RDKit          3D

 47 50  0  0  0  0  0  0  0  0999 V2000
   -4.5000   24.9200  -27.2790 N   0  0  0  0  0  0  0  0  0  0  0  0
   -3.3060   24.0770  -27.0950 C   0  0  1  0  0  0  0  0  0  0  0  0
   -3.4250   22.8080  -27.9560 C   0  0  0  0  0  0  0  0  0  0  0  0
   -3.2130   23.1500  -29.3620 N   0  0  0  0  0  0  0  0  0  0  0  0
   -4.2980   23.0730  -30.3060 C   0  0  0  0  0  0  0  0  0  0  0  0
   -4.8500   21.8390  -30.6750 C   0  0  0  0  0  0  0  0  0  0  0  0
   -5.8970   21.8140  -31.6110 C   0  0  0  0  0  0  0  0  0  0  0  0
   -6.5260   20.5390  -32.0470 C   0  0  0  0  0  0  0  0  0  0  0  0
   -5.7440   19.5460  -32.6610 C   0  0  0  0  0  0  0  0  0  0  0  0
   -6.3380   18.3520  -33.0760 C   0  0  0  0  0  0  0  0  0  0  0  0
   -7.6700   18.1530  -32.8940 N   0  0  0  0  0  0  0  0  0  0  0  0
   -8.4570   19.0960  -32.3130 C   0  0  0  0  0  0  0  0  0  0  0  0
   -7.9040   20.3040  -31.8820 C   0  0  0  0  0  0  0  0  0  0  0  0
   -6.3280   22.9880  -32.1490 N   0  0  0  0  0  0  0  0  0  0  0  0
   -5.7760   24.1760  -31.7910 C   0  0  0  0  0  0  0  0  0  0  0  0
   -4.7710   24.2110  -30.8800 N   0  0  0  0  0  0  0  0  0  0  0  0
   -1.9040   23.6950  -29.7240 C   0  0  0  0  0  0  0  0  0  0  0  0
   -1.6000   24.9550  -28.9010 C   0  0  0  0  0  0  0  0  0  0  0  0
   -2.0050   24.8920  -27.3980 C   0  0  2  0  0  0  0  0  0  0  0  0
   -0.8540   24.5570  -26.4450 C   0  0  0  0  0  0  0  0  0  0  0  0
   -1.0160   23.4810  -25.5460 C   0  0  0  0  0  0  0  0  0  0  0  0
    0.0060   23.1170  -24.6640 C   0  0  0  0  0  0  0  0  0  0  0  0
   -0.1770   22.0830  -23.8070 F   0  0  0  0  0  0  0  0  0  0  0  0
    1.2130   23.8150  -24.6690 C   0  0  0  0  0  0  0  0  0  0  0  0
    2.2070   23.4630  -23.8160 F   0  0  0  0  0  0  0  0  0  0  0  0
    1.4010   24.8720  -25.5590 C   0  0  0  0  0  0  0  0  0  0  0  0
    0.3830   25.2440  -26.4450 C   0  0  0  0  0  0  0  0  0  0  0  0
    0.6330   26.2650  -27.2900 F   0  0  0  0  0  0  0  0  0  0  0  0
   -5.3600   24.4170  -26.9620 H   0  0  0  0  0  0  0  0  0  0  0  0
   -4.4040   25.8090  -26.7380 H   0  0  0  0  0  0  0  0  0  0  0  0
   -4.6040   25.1740  -28.2880 H   0  0  0  0  0  0  0  0  0  0  0  0
   -3.2385   23.7565  -26.0449 H   0  0  0  0  0  0  0  0  0  0  0  0
   -2.6668   22.0771  -27.6383 H   0  0  0  0  0  0  0  0  0  0  0  0
   -4.4281   22.3740  -27.8319 H   0  0  0  0  0  0  0  0  0  0  0  0
   -4.4691   20.9040  -30.2382 H   0  0  0  0  0  0  0  0  0  0  0  0
   -4.6670   19.7086  -32.8144 H   0  0  0  0  0  0  0  0  0  0  0  0
   -5.7263   17.5710  -33.5512 H   0  0  0  0  0  0  0  0  0  0  0  0
   -9.5327   18.9075  -32.1817 H   0  0  0  0  0  0  0  0  0  0  0  0
   -8.5427   21.0685  -31.4156 H   0  0  0  0  0  0  0  0  0  0  0  0
   -6.1438   25.1105  -32.2398 H   0  0  0  0  0  0  0  0  0  0  0  0
   -1.1299   22.9386  -29.5273 H   0  0  0  0  0  0  0  0  0  0  0  0
   -1.9120   23.9606  -30.7914 H   0  0  0  0  0  0  0  0  0  0  0  0
   -0.5167   25.1392  -28.9520 H   0  0  0  0  0  0  0  0  0  0  0  0
   -2.2092   25.7571  -29.3431 H   0  0  0  0  0  0  0  0  0  0  0  0
   -2.2738   25.9353  -27.1759 H   0  0  0  0  0  0  0  0  0  0  0  0
   -1.9619   22.9195  -25.5392 H   0  0  0  0  0  0  0  0  0  0  0  0
    2.3562   25.4175  -25.5649 H   0  0  0  0  0  0  0  0  0  0  0  0
  1  2  1  0
  2  3  1  0
  3  4  1  0
  4  5  1  0
  5  6  2  0
  6  7  1  0
  7  8  1  0
  8  9  2  0
  9 10  1  0
 10 11  2  0
 11 12  1  0
 12 13  2  0
  7 14  2  0
 14 15  1  0
 15 16  2  0
  4 17  1  0
 17 18  1  0
 18 19  1  0
 19 20  1  0
 20 21  2  0
 21 22  1  0
 22 23  1  0
 22 24  2  0
 24 25  1  0
 24 26  1  0
 26 27  2  0
 27 28  1  0
 19  2  1  0
 27 20  1  0
 16  5  1  0
 13  8  1  0
  1 29  1  0
  1 30  1  0
  1 31  1  0
  2 32  1  1
  3 33  1  0
  3 34  1  0
  6 35  1  0
  9 36  1  0
 10 37  1  0
 12 38  1  0
 13 39  1  0
 15 40  1  0
 17 41  1  0
 17 42  1  0
 18 43  1  0
 18 44  1  0
 19 45  1  1
 21 46  1  0
 26 47  1  0
M  CHG  1   1   1
M  END
>  <UniqueID>  (1) 
1

>  <SMILES>  (1) 
[NH3+][C@H]1CN(c2cc(-c3ccncc3)ncn2)CC[C@@H]1c1cc(F)c(F)cc1F

>  <Energy>  (1) 
69.30508476296697

>  <Genealogy>  (1) 
[NH3+]C1CN(c2cc(-c3ccncc3)ncn2)CCC1c1cc(F)c(F)cc1F (protonated)
[NH3+][C@H]1CN(c2cc(-c3ccncc3)ncn2)CC[C@@H]1c1cc(F)c(F)cc1F (chirality)
[NH3+][C@H]1CN(c2cc(-c3ccncc3)ncn2)CC[C@@H]1c1cc(F)c(F)cc1F (3D coordinates assigned)
[NH3+][C@H]1CN(c2cc(-c3ccncc3)ncn2)CC[C@@H]1c1cc(F)c(F)cc1F (nonaromatic ring conformer: 69.30508476296697 kcal/mol)

>  <smiles>  (1) 
NC1CN(c2cc(-c3ccncc3)ncn2)CCC1c1cc(F)c(F)cc1F

>  <score_type>  (1) 
oracle

>  <origin>  (1) 
adgpu

>  <m_score__min__energy>  (1) 
-7.6600000000000001

>  <m_primary>  (1) 
energy

$$$$
1:0
     RDKit          3D

 61 65  0  0  0  0  0  0  0  0999 V2000
    0.0957   29.7605  -27.7592 H   0  0  0  0  0  0  0  0  0  0  0  0
   -0.2760   28.9030  -27.1790 C   0  0  0  0  0  0  0  0  0  0  0  0
   -0.4930   27.7100  -27.7940 N   0  0  0  0  0  0  0  0  0  0  0  0
   -0.9550   26.6180  -27.1240 C   0  0  0  0  0  0  0  0  0  0  0  0
   -1.1480   25.3560  -27.8780 C   0  0  0  0  0  0  0  0  0  0  0  0
   -2.1510   25.2900  -28.7950 N   0  0  0  0  0  0  0  0  0  0  0  0
   -2.3940   24.1640  -29.5160 C   0  0  0  0  0  0  0  0  0  0  0  0
   -3.3390   24.1740  -30.4070 N   0  0  0  0  0  0  0  0  0  0  0  0
   -3.7650   23.0770  -31.2330 C   0  0  0  0  0  0  0  0  0  0  0  0
   -5.1320   22.8010  -31.3240 C   0  0  0  0  0  0  0  0  0  0  0  0
   -5.8505   23.4382  -30.7876 H   0  0  0  0  0  0  0  0  0  0  0  0
   -5.6020   21.7210  -32.0910 C   0  0  0  0  0  0  0  0  0  0  0  0
   -7.0190   21.4550  -32.1900 N   0  0  0  0  0  0  0  0  0  0  0  0
   -7.9740   22.4620  -31.7070 C   0  0  0  0  0  0  0  0  0  0  0  0
   -7.8350   22.6009  -30.6247 H   0  0  0  0  0  0  0  0  0  0  0  0
   -7.7909   23.4061  -32.2410 H   0  0  0  0  0  0  0  0  0  0  0  0
   -9.4090   22.0200  -31.9740 C   0  0  0  0  0  0  0  0  0  0  0  0
  -10.1019   22.6365  -31.3824 H   0  0  0  0  0  0  0  0  0  0  0  0
   -9.6445   22.1400  -33.0418 H   0  0  0  0  0  0  0  0  0  0  0  0
   -9.5440   20.6670  -31.6030 O   0  0  0  0  0  0  0  0  0  0  0  0
   -8.9240   19.8430  -32.5730 C   0  0  0  0  0  0  0  0  0  0  0  0
   -8.8834   18.8167  -32.1792 H   0  0  0  0  0  0  0  0  0  0  0  0
   -9.5273   19.9233  -33.4893 H   0  0  0  0  0  0  0  0  0  0  0  0
   -7.4840   20.2780  -32.9470 C   0  0  0  0  0  0  0  0  0  0  0  0
   -6.8014   19.4396  -32.7442 H   0  0  0  0  0  0  0  0  0  0  0  0
   -7.4918   20.5554  -34.0114 H   0  0  0  0  0  0  0  0  0  0  0  0
   -4.6720   20.9070  -32.7600 C   0  0  0  0  0  0  0  0  0  0  0  0
   -5.0297   20.0674  -33.3741 H   0  0  0  0  0  0  0  0  0  0  0  0
   -3.2910   21.1500  -32.6560 C   0  0  0  0  0  0  0  0  0  0  0  0
   -2.3410   20.2930  -33.3300 N   0  0  0  0  0  0  0  0  0  0  0  0
   -1.2190   20.8650  -34.0880 C   0  0  0  0  0  0  0  0  0  0  0  0
   -0.9389   21.8345  -33.6502 H   0  0  0  0  0  0  0  0  0  0  0  0
   -1.5226   21.0057  -35.1359 H   0  0  0  0  0  0  0  0  0  0  0  0
   -0.0160   19.9140  -34.0320 C   0  0  0  0  0  0  0  0  0  0  0  0
    0.3355   19.8570  -32.9912 H   0  0  0  0  0  0  0  0  0  0  0  0
    0.7512   20.3199  -34.7078 H   0  0  0  0  0  0  0  0  0  0  0  0
   -0.3310   18.5340  -34.5010 N   0  0  0  0  0  0  0  0  0  0  0  0
    0.1400   17.8640  -33.8480 H   0  0  0  0  0  0  0  0  0  0  0  0
    0.2390   18.2910  -35.8360 C   0  0  0  0  0  0  0  0  0  0  0  0
    1.2463   17.8616  -35.7320 H   0  0  0  0  0  0  0  0  0  0  0  0
   -0.4039   17.5887  -36.3869 H   0  0  0  0  0  0  0  0  0  0  0  0
    0.3006   19.2411  -36.3869 H   0  0  0  0  0  0  0  0  0  0  0  0
   -1.7780   18.2020  -34.5040 C   0  0  0  0  0  0  0  0  0  0  0  0
   -1.8913   17.1092  -34.4496 H   0  0  0  0  0  0  0  0  0  0  0  0
   -2.2157   18.6030  -35.4301 H   0  0  0  0  0  0  0  0  0  0  0  0
   -2.5170   18.8350  -33.3200 C   0  0  0  0  0  0  0  0  0  0  0  0
   -2.1144   18.4273  -32.3810 H   0  0  0  0  0  0  0  0  0  0  0  0
   -3.5892   18.6034  -33.4022 H   0  0  0  0  0  0  0  0  0  0  0  0
   -2.8450   22.2320  -31.8760 C   0  0  0  0  0  0  0  0  0  0  0  0
   -1.7662   22.4183  -31.7684 H   0  0  0  0  0  0  0  0  0  0  0  0
   -1.6130   23.0660  -29.3250 N   0  0  0  0  0  0  0  0  0  0  0  0
   -0.6050   23.0720  -28.4170 C   0  0  0  0  0  0  0  0  0  0  0  0
    0.0110   22.1719  -28.2742 H   0  0  0  0  0  0  0  0  0  0  0  0
   -0.3490   24.2170  -27.6650 C   0  0  0  0  0  0  0  0  0  0  0  0
    0.4606   24.2304  -26.9205 H   0  0  0  0  0  0  0  0  0  0  0  0
   -1.2060   26.7220  -25.7410 C   0  0  0  0  0  0  0  0  0  0  0  0
   -1.5692   25.8506  -25.1765 H   0  0  0  0  0  0  0  0  0  0  0  0
   -0.9900   27.9400  -25.0930 C   0  0  0  0  0  0  0  0  0  0  0  0
   -1.1870   28.0319  -24.0147 H   0  0  0  0  0  0  0  0  0  0  0  0
   -0.5240   29.0410  -25.8140 C   0  0  0  0  0  0  0  0  0  0  0  0
   -0.3547   30.0048  -25.3116 H   0  0  0  0  0  0  0  0  0  0  0  0
  1  2  1  0
  2  3  2  0
  3  4  1  0
  4  5  1  0
  5  6  2  0
  6  7  1  0
  7  8  2  0
  8  9  1  0
  9 10  2  0
 10 11  1  0
 10 12  1  0
 12 13  1  0
 13 14  1  0
 14 15  1  0
 14 16  1  0
 14 17  1  0
 17 18  1  0
 17 19  1  0
 17 20  1  0
 20 21  1  0
 21 22  1  0
 21 23  1  0
 21 24  1  0
 24 25  1  0
 24 26  1  0
 12 27  2  0
 27 28  1  0
 27 29  1  0
 29 30  1  0
 30 31  1  0
 31 32  1  0
 31 33  1  0
 31 34  1  0
 34 35  1  0
 34 36  1  0
 34 37  1  0
 37 38  1  0
 37 39  1  0
 39 40  1  0
 39 41  1  0
 39 42  1  0
 37 43  1  0
 43 44  1  0
 43 45  1  0
 43 46  1  0
 46 47  1  0
 46 48  1  0
 29 49  2  0
 49 50  1  0
  7 51  1  0
 51 52  1  0
 52 53  1  0
 52 54  2  0
 54 55  1  0
  4 56  2  0
 56 57  1  0
 56 58  1  0
 58 59  1  0
 58 60  2  0
 60 61  1  0
 60  2  1  0
 54  5  1  0
 49  9  1  0
 24 13  1  0
 46 30  1  0
M  CHG  2  37   1  51  -1
M  END
>  <UniqueID>  (2) 
2

>  <SMILES>  (2) 
C[NH+]1CCN(c2cc(/N=c3/nc(-c4ccccn4)cc[n-]3)cc(N3CCOCC3)c2)CC1

>  <Energy>  (2) 
95.86421908035338

>  <Genealogy>  (2) 
C[NH+]1CCN(c2cc(N=c3nc(-c4ccccn4)cc[n-]3)cc(N3CCOCC3)c2)CC1 (protonated)
C[NH+]1CCN(c2cc(/N=c3/nc(-c4ccccn4)cc[n-]3)cc(N3CCOCC3)c2)CC1 (cis-trans isomerization)
C[NH+]1CCN(c2cc(/N=c3/nc(-c4ccccn4)cc[n-]3)cc(N3CCOCC3)c2)CC1 (3D coordinates assigned)
C[NH+]1CCN(c2cc(/N=c3/nc(-c4ccccn4)cc[n-]3)cc(N3CCOCC3)c2)CC1 (nonaromatic ring conformer: 95.86421908035338 kcal/mol)

>  <smiles>  (2) 
CN1CCN(c2cc(N=c3nc(-c4ccccn4)cc[nH]3)cc(N3CCOCC3)c2)CC1

>  <score_type>  (2) 
oracle

>  <origin>  (2) 
adgpu

>  <m_score__min__energy>  (2) 
-9.4900000000000002

>  <m_primary>  (2) 
energy

$$$$
2:0
     RDKit          3D

 54 58  0  0  0  0  0  0  0  0999 V2000
    4.2210   19.2110  -36.8570 O   0  0  0  0  0  0  0  0  0  0  0  0
    3.5190   20.1410  -37.3370 C   0  0  0  0  0  0  0  0  0  0  0  0
    3.9340   20.7470  -38.5180 O   0  0  0  0  0  0  0  0  0  0  0  0
    2.2700   20.5840  -36.6650 C   0  0  0  0  0  0  0  0  0  0  0  0
    1.3210   19.6220  -36.2690 C   0  0  0  0  0  0  0  0  0  0  0  0
    0.1290   20.0010  -35.6310 C   0  0  0  0  0  0  0  0  0  0  0  0
   -0.8490   19.0360  -35.2140 N   0  0  0  0  0  0  0  0  0  0  0  0
   -1.9340   19.2210  -33.8720 S   0  0  0  0  0  0  0  0  0  0  0  0
   -2.8400   20.3880  -34.1490 O   0  0  0  0  0  0  0  0  0  0  0  0
   -2.7890   17.9980  -33.6990 O   0  0  0  0  0  0  0  0  0  0  0  0
   -1.0040   19.5410  -32.4100 C   0  0  0  0  0  0  0  0  0  0  0  0
   -0.9840   18.6090  -31.3620 C   0  0  0  0  0  0  0  0  0  0  0  0
   -0.3550   18.9210  -30.1520 C   0  0  0  0  0  0  0  0  0  0  0  0
    0.2240   20.1820  -29.9680 C   0  0  0  0  0  0  0  0  0  0  0  0
    0.7160   20.5600  -28.6760 N   0  0  0  0  0  0  0  0  0  0  0  0
    0.3080   21.5990  -28.0010 C   0  0  0  0  0  0  0  0  0  0  0  0
   -0.8380   22.4410  -28.4180 C   0  0  0  0  0  0  0  0  0  0  0  0
   -0.7070   23.8330  -28.5310 C   0  0  0  0  0  0  0  0  0  0  0  0
   -1.8060   24.6190  -28.8820 C   0  0  0  0  0  0  0  0  0  0  0  0
   -1.6490   25.9970  -28.9470 O   0  0  0  0  0  0  0  0  0  0  0  0
   -3.0480   24.0160  -29.1630 C   0  0  0  0  0  0  0  0  0  0  0  0
   -3.1570   22.6140  -29.1480 C   0  0  0  0  0  0  0  0  0  0  0  0
   -2.0580   21.8390  -28.7570 C   0  0  0  0  0  0  0  0  0  0  0  0
   -4.3430   21.9420  -29.4740 O   0  0  0  0  0  0  0  0  0  0  0  0
   -5.2330   22.2210  -30.5280 C   0  0  0  0  0  0  0  0  0  0  0  0
   -6.0330   21.1550  -30.9660 C   0  0  0  0  0  0  0  0  0  0  0  0
   -6.8840   21.2980  -32.0630 C   0  0  0  0  0  0  0  0  0  0  0  0
   -7.6640   20.2280  -32.4820 O   0  0  0  0  0  0  0  0  0  0  0  0
   -6.9470   22.5150  -32.7410 C   0  0  0  0  0  0  0  0  0  0  0  0
   -6.1770   23.5950  -32.3070 C   0  0  0  0  0  0  0  0  0  0  0  0
   -5.3460   23.4760  -31.1870 C   0  0  0  0  0  0  0  0  0  0  0  0
   -4.6990   24.6360  -30.7560 O   0  0  0  0  0  0  0  0  0  0  0  0
   -4.2620   24.8430  -29.4250 C   0  0  0  0  0  0  0  0  0  0  0  0
    0.2550   21.0920  -31.0340 C   0  0  0  0  0  0  0  0  0  0  0  0
   -0.3460   20.7680  -32.2510 C   0  0  0  0  0  0  0  0  0  0  0  0
   -0.1310   21.3560  -35.4210 C   0  0  0  0  0  0  0  0  0  0  0  0
    0.7950   22.3240  -35.8120 C   0  0  0  0  0  0  0  0  0  0  0  0
    1.9950   21.9480  -36.4230 C   0  0  0  0  0  0  0  0  0  0  0  0
    2.9020   22.9410  -36.7820 O   0  0  0  0  0  0  0  0  0  0  0  0
    1.5165   18.5570  -36.4625 H   0  0  0  0  0  0  0  0  0  0  0  0
   -1.4651   17.6284  -31.4921 H   0  0  0  0  0  0  0  0  0  0  0  0
   -0.3154   18.1749  -29.3447 H   0  0  0  0  0  0  0  0  0  0  0  0
    0.8413   21.8634  -27.0760 H   0  0  0  0  0  0  0  0  0  0  0  0
    0.2671   24.3079  -28.3420 H   0  0  0  0  0  0  0  0  0  0  0  0
   -2.1532   20.7439  -28.7153 H   0  0  0  0  0  0  0  0  0  0  0  0
   -5.9889   20.1917  -30.4367 H   0  0  0  0  0  0  0  0  0  0  0  0
   -7.6031   22.6236  -33.6172 H   0  0  0  0  0  0  0  0  0  0  0  0
   -6.2237   24.5500  -32.8509 H   0  0  0  0  0  0  0  0  0  0  0  0
   -4.0191   25.9061  -29.2805 H   0  0  0  0  0  0  0  0  0  0  0  0
   -5.0612   24.5501  -28.7282 H   0  0  0  0  0  0  0  0  0  0  0  0
    0.7545   22.0642  -30.9107 H   0  0  0  0  0  0  0  0  0  0  0  0
   -0.3031   21.4789  -33.0893 H   0  0  0  0  0  0  0  0  0  0  0  0
   -1.0731   21.6633  -34.9436 H   0  0  0  0  0  0  0  0  0  0  0  0
    0.5796   23.3887  -35.6385 H   0  0  0  0  0  0  0  0  0  0  0  0
  1  2  2  0
  2  3  1  0
  2  4  1  0
  4  5  2  0
  5  6  1  0
  6  7  1  0
  7  8  1  0
  8  9  2  0
  8 10  2  0
  8 11  1  0
 11 12  2  0
 12 13  1  0
 13 14  2  0
 14 15  1  0
 15 16  2  3
 16 17  1  0
 17 18  2  0
 18 19  1  0
 19 20  1  0
 19 21  2  0
 21 22  1  0
 22 23  2  0
 22 24  1  0
 24 25  1  0
 25 26  2  0
 26 27  1  0
 27 28  1  0
 27 29  2  0
 29 30  1  0
 30 31  2  0
 31 32  1  0
 32 33  1  0
 14 34  1  0
 34 35  2  0
  6 36  2  0
 36 37  1  0
 37 38  2  0
 38 39  1  0
 38  4  1  0
 35 11  1  0
 23 17  1  0
 31 25  1  0
 33 21  1  0
  5 40  1  0
 12 41  1  0
 13 42  1  0
 16 43  1  0
 18 44  1  0
 23 45  1  0
 26 46  1  0
 29 47  1  0
 30 48  1  0
 33 49  1  0
 33 50  1  0
 34 51  1  0
 35 52  1  0
 36 53  1  0
 37 54  1  0
M  CHG  5   3  -1   7  -1  20  -1  28  -1  39  -1
M  END
>  <UniqueID>  (3) 
3

>  <SMILES>  (3) 
O=C([O-])c1cc([N-]S(=O)(=O)c2ccc(N=Cc3cc([O-])c4c(c3)Oc3cc([O-])ccc3OC4)cc2)ccc1[O-]

>  <Energy>  (3) 
93.69813832533053

>  <Genealogy>  (3) 
O=C([O-])c1cc([N-]S(=O)(=O)c2ccc(N=Cc3cc([O-])c4c(c3)Oc3cc([O-])ccc3OC4)cc2)ccc1[O-] (protonated)
O=C([O-])c1cc([N-]S(=O)(=O)c2ccc(N=Cc3cc([O-])c4c(c3)Oc3cc([O-])ccc3OC4)cc2)ccc1[O-] (3D coordinates assigned)
O=C([O-])c1cc([N-]S(=O)(=O)c2ccc(N=Cc3cc([O-])c4c(c3)Oc3cc([O-])ccc3OC4)cc2)ccc1[O-] (nonaromatic ring conformer: 93.69813832533053 kcal/mol)

>  <smiles>  (3) 
O=C(O)c1cc(NS(=O)(=O)c2ccc(N=Cc3cc(O)c4c(c3)Oc3cc(O)ccc3OC4)cc2)ccc1O

>  <score_type>  (3) 
oracle

>  <origin>  (3) 
adgpu

>  <m_score__min__energy>  (3) 
-14.74

>  <m_primary>  (3) 
energy

$$$$
3:0
     RDKit          3D

 49 51  0  0  0  0  0  0  0  0999 V2000
   -0.1260   22.8570  -29.1100 C   0  0  0  0  0  0  0  0  0  0  0  0
    0.6100   23.9960  -28.6770 O   0  0  0  0  0  0  0  0  0  0  0  0
    0.2330   24.8350  -27.6150 C   0  0  0  0  0  0  0  0  0  0  0  0
    0.9560   24.8660  -26.4060 C   0  0  0  0  0  0  0  0  0  0  0  0
    0.6020   25.7580  -25.3910 C   0  0  0  0  0  0  0  0  0  0  0  0
   -0.4620   26.6490  -25.5730 C   0  0  0  0  0  0  0  0  0  0  0  0
   -0.8540   27.5910  -24.4730 C   0  0  0  0  0  0  0  0  0  0  0  0
   -1.2020   26.6040  -26.7620 C   0  0  0  0  0  0  0  0  0  0  0  0
   -0.8790   25.6900  -27.7720 C   0  0  0  0  0  0  0  0  0  0  0  0
   -1.6640   25.6960  -28.9720 N   0  0  0  0  0  0  0  0  0  0  0  0
   -2.7420   24.7990  -29.2590 C   0  0  0  0  0  0  0  0  0  0  0  0
   -3.0160   23.8560  -28.4680 O   0  0  0  0  0  0  0  0  0  0  0  0
   -3.5010   24.9860  -30.4570 N   0  0  0  0  0  0  0  0  0  0  0  0
   -4.7040   24.2790  -30.7940 C   0  0  0  0  0  0  0  0  0  0  0  0
   -5.9180   24.7700  -30.3160 C   0  0  0  0  0  0  0  0  0  0  0  0
   -7.1100   24.1190  -30.6160 C   0  0  0  0  0  0  0  0  0  0  0  0
   -7.1170   22.9430  -31.3850 C   0  0  0  0  0  0  0  0  0  0  0  0
   -8.4480   22.3080  -31.6910 C   0  0  0  0  0  0  0  0  0  0  0  0
   -5.8840   22.4100  -31.8520 C   0  0  0  0  0  0  0  0  0  0  0  0
   -5.7640   20.9060  -32.8000 S   0  0  0  0  0  0  0  0  0  0  0  0
   -4.4380   20.8880  -33.5080 O   0  0  0  0  0  0  0  0  0  0  0  0
   -6.8430   20.7870  -33.8390 O   0  0  0  0  0  0  0  0  0  0  0  0
   -5.8440   19.5010  -31.6850 C   0  0  0  0  0  0  0  0  0  0  0  0
   -5.2970   18.2140  -32.2950 C   0  0  0  0  0  0  0  0  0  0  0  0
   -6.6830   17.5880  -32.2090 C   0  0  0  0  0  0  0  0  0  0  0  0
   -7.2300   18.8700  -31.5980 C   0  0  0  0  0  0  0  0  0  0  0  0
   -4.6830   23.0800  -31.5300 C   0  0  0  0  0  0  0  0  0  0  0  0
   -3.4610   22.5320  -31.9140 O   0  0  0  0  0  0  0  0  0  0  0  0
   -0.4868   22.2987  -28.2336 H   0  0  0  0  0  0  0  0  0  0  0  0
   -0.9843   23.1836  -29.7155 H   0  0  0  0  0  0  0  0  0  0  0  0
    0.5244   22.2086  -29.7155 H   0  0  0  0  0  0  0  0  0  0  0  0
    1.8056   24.1826  -26.2604 H   0  0  0  0  0  0  0  0  0  0  0  0
    1.1620   25.7602  -24.4442 H   0  0  0  0  0  0  0  0  0  0  0  0
   -0.6577   27.1192  -23.4989 H   0  0  0  0  0  0  0  0  0  0  0  0
   -0.2667   28.5173  -24.5568 H   0  0  0  0  0  0  0  0  0  0  0  0
   -1.9251   27.8272  -24.5568 H   0  0  0  0  0  0  0  0  0  0  0  0
   -2.0463   27.2947  -26.9034 H   0  0  0  0  0  0  0  0  0  0  0  0
   -5.9334   25.6791  -29.6969 H   0  0  0  0  0  0  0  0  0  0  0  0
   -8.0606   24.5306  -30.2460 H   0  0  0  0  0  0  0  0  0  0  0  0
   -8.9622   22.0627  -30.7500 H   0  0  0  0  0  0  0  0  0  0  0  0
   -9.0637   23.0094  -32.2732 H   0  0  0  0  0  0  0  0  0  0  0  0
   -8.2902   21.3882  -32.2732 H   0  0  0  0  0  0  0  0  0  0  0  0
   -5.3756   19.9408  -30.7921 H   0  0  0  0  0  0  0  0  0  0  0  0
   -4.9183   18.3285  -33.3214 H   0  0  0  0  0  0  0  0  0  0  0  0
   -4.4283   17.7095  -31.8468 H   0  0  0  0  0  0  0  0  0  0  0  0
   -7.1215   17.3340  -33.1853 H   0  0  0  0  0  0  0  0  0  0  0  0
   -6.8260   16.6246  -31.6978 H   0  0  0  0  0  0  0  0  0  0  0  0
   -7.9915   19.3717  -32.2132 H   0  0  0  0  0  0  0  0  0  0  0  0
   -7.7715   18.8443  -30.6409 H   0  0  0  0  0  0  0  0  0  0  0  0
  1  2  1  0
  2  3  1  0
  3  4  2  0
  4  5  1  0
  5  6  2  0
  6  7  1  0
  6  8  1  0
  8  9  2  0
  9 10  1  0
 10 11  1  0
 11 12  2  0
 11 13  1  0
 13 14  1  0
 14 15  2  0
 15 16  1  0
 16 17  2  0
 17 18  1  0
 17 19  1  0
 19 20  1  0
 20 21  2  0
 20 22  2  0
 20 23  1  0
 23 24  1  0
 24 25  1  0
 25 26  1  0
 19 27  2  0
 27 28  1  0
  9  3  1  0
 27 14  1  0
 26 23  1  0
  1 29  1  0
  1 30  1  0
  1 31  1  0
  4 32  1  0
  5 33  1  0
  7 34  1  0
  7 35  1  0
  7 36  1  0
  8 37  1  0
 15 38  1  0
 16 39  1  0
 18 40  1  0
 18 41  1  0
 18 42  1  0
 23 43  1  0
 24 44  1  0
 24 45  1  0
 25 46  1  0
 25 47  1  0
 26 48  1  0
 26 49  1  0
M  CHG  3  10  -1  13  -1  28  -1
M  END
>  <UniqueID>  (4) 
4

>  <SMILES>  (4) 
COc1ccc(C)cc1[N-]C(=O)[N-]c1ccc(C)c(S(=O)(=O)C2CCC2)c1[O-]

>  <Energy>  (4) 
121.37937731323484

>  <Genealogy>  (4) 
COc1ccc(C)cc1[N-]C(=O)[N-]c1ccc(C)c(S(=O)(=O)C2CCC2)c1[O-] (protonated)
COc1ccc(C)cc1[N-]C(=O)[N-]c1ccc(C)c(S(=O)(=O)C2CCC2)c1[O-] (3D coordinates assigned)
COc1ccc(C)cc1[N-]C(=O)[N-]c1ccc(C)c(S(=O)(=O)C2CCC2)c1[O-] (nonaromatic ring conformer: 121.37937731323484 kcal/mol)

>  <smiles>  (4) 
COc1ccc(C)cc1NC(=O)Nc1ccc(C)c(S(=O)(=O)C2CCC2)c1O

>  <score_type>  (4) 
oracle

>  <origin>  (4) 
adgpu

>  <m_score__min__energy>  (4) 
-15.029999999999999

>  <m_primary>  (4) 
energy

$$$$
4:0
     RDKit          3D

 40 42  0  0  0  0  0  0  0  0999 V2000
   -4.2290   25.6810  -30.8380 O   0  0  0  0  0  0  0  0  0  0  0  0
   -4.0100   24.5430  -30.3430 C   0  0  0  0  0  0  0  0  0  0  0  0
   -3.7210   24.4500  -28.9410 N   0  0  0  0  0  0  0  0  0  0  0  0
   -2.4570   24.0890  -28.3630 C   0  0  0  0  0  0  0  0  0  0  0  0
   -2.3710   22.8970  -27.6310 C   0  0  0  0  0  0  0  0  0  0  0  0
   -1.1610   22.5140  -27.0450 C   0  0  0  0  0  0  0  0  0  0  0  0
   -0.0250   23.3120  -27.1990 C   0  0  0  0  0  0  0  0  0  0  0  0
   -0.0920   24.4860  -27.9550 C   0  0  0  0  0  0  0  0  0  0  0  0
   -1.2980   24.8710  -28.5500 C   0  0  0  0  0  0  0  0  0  0  0  0
   -1.3250   26.0120  -29.3450 O   0  0  0  0  0  0  0  0  0  0  0  0
   -3.9950   23.3510  -31.2260 C   0  0  0  0  0  0  0  0  0  0  0  0
   -5.1770   22.9350  -31.8620 C   0  0  0  0  0  0  0  0  0  0  0  0
   -5.1750   21.8220  -32.7050 C   0  0  0  0  0  0  0  0  0  0  0  0
   -3.9990   21.1020  -32.9270 C   0  0  0  0  0  0  0  0  0  0  0  0
   -4.0400   19.9800  -33.8210 N   0  0  0  0  0  0  0  0  0  0  0  0
   -4.9390   18.5220  -33.5500 S   0  0  0  0  0  0  0  0  0  0  0  0
   -5.0670   17.7780  -34.8510 O   0  0  0  0  0  0  0  0  0  0  0  0
   -4.2000   17.6640  -32.5640 O   0  0  0  0  0  0  0  0  0  0  0  0
   -6.5280   18.9050  -32.8950 C   0  0  0  0  0  0  0  0  0  0  0  0
   -7.3000   19.9290  -33.4610 C   0  0  0  0  0  0  0  0  0  0  0  0
   -8.5550   20.2390  -32.9270 C   0  0  0  0  0  0  0  0  0  0  0  0
   -9.0440   19.5250  -31.8290 C   0  0  0  0  0  0  0  0  0  0  0  0
   -8.2800   18.5000  -31.2640 C   0  0  0  0  0  0  0  0  0  0  0  0
   -7.0250   18.1870  -31.7970 C   0  0  0  0  0  0  0  0  0  0  0  0
   -2.8180   21.4970  -32.2780 C   0  0  0  0  0  0  0  0  0  0  0  0
   -2.8090   22.6170  -31.4320 C   0  0  0  0  0  0  0  0  0  0  0  0
   -1.6220   23.0080  -30.8140 O   0  0  0  0  0  0  0  0  0  0  0  0
   -3.2602   22.2595  -27.5170 H   0  0  0  0  0  0  0  0  0  0  0  0
   -1.1034   21.5830  -26.4619 H   0  0  0  0  0  0  0  0  0  0  0  0
    0.9227   23.0165  -26.7252 H   0  0  0  0  0  0  0  0  0  0  0  0
    0.8059   25.1086  -28.0823 H   0  0  0  0  0  0  0  0  0  0  0  0
   -6.1114   23.4907  -31.6943 H   0  0  0  0  0  0  0  0  0  0  0  0
   -6.1072   21.5097  -33.1983 H   0  0  0  0  0  0  0  0  0  0  0  0
   -6.9181   20.4898  -34.3268 H   0  0  0  0  0  0  0  0  0  0  0  0
   -9.1576   21.0450  -33.3712 H   0  0  0  0  0  0  0  0  0  0  0  0
  -10.0308   19.7701  -31.4094 H   0  0  0  0  0  0  0  0  0  0  0  0
   -8.6657   17.9392  -30.3999 H   0  0  0  0  0  0  0  0  0  0  0  0
   -6.4270   17.3767  -31.3545 H   0  0  0  0  0  0  0  0  0  0  0  0
   -1.8921   20.9239  -32.4339 H   0  0  0  0  0  0  0  0  0  0  0  0
   -1.5000   23.9420  -30.4380 H   0  0  0  0  0  0  0  0  0  0  0  0
  1  2  2  0
  2  3  1  0
  3  4  1  0
  4  5  2  0
  5  6  1  0
  6  7  2  0
  7  8  1  0
  8  9  2  0
  9 10  1  0
  2 11  1  0
 11 12  2  0
 12 13  1  0
 13 14  2  0
 14 15  1  0
 15 16  1  0
 16 17  2  0
 16 18  2  0
 16 19  1  0
 19 20  2  0
 20 21  1  0
 21 22  2  0
 22 23  1  0
 23 24  2  0
 14 25  1  0
 25 26  2  0
 26 27  1  0
  9  4  1  0
 26 11  1  0
 24 19  1  0
  5 28  1  0
  6 29  1  0
  7 30  1  0
  8 31  1  0
 12 32  1  0
 13 33  1  0
 20 34  1  0
 21 35  1  0
 22 36  1  0
 23 37  1  0
 24 38  1  0
 25 39  1  0
 27 40  1  0
M  CHG  3   3  -1  10  -1  15  -1
M  END
>  <UniqueID>  (5) 
5

>  <SMILES>  (5) 
O=C([N-]c1ccccc1[O-])c1ccc([N-]S(=O)(=O)c2ccccc2)cc1O

>  <Energy>  (5) 
55.22550764216811

>  <Genealogy>  (5) 
O=C([N-]c1ccccc1[O-])c1ccc([N-]S(=O)(=O)c2ccccc2)cc1O (protonated)
O=C([N-]c1ccccc1[O-])c1ccc([N-]S(=O)(=O)c2ccccc2)cc1O (3D coordinates assigned)
O=C([N-]c1ccccc1[O-])c1ccc([N-]S(=O)(=O)c2ccccc2)cc1O (optimized conformer: 55.22550764216811 kcal/mol)

>  <smiles>  (5) 
O=C(Nc1ccccc1O)c1ccc(NS(=O)(=O)c2ccccc2)cc1O

>  <score_type>  (5) 
oracle

>  <origin>  (5) 
adgpu

>  <m_score__min__energy>  (5) 
-14.06

>  <m_primary>  (5) 
energy

$$$$
5:0
     RDKit          3D

 56 59  0  0  0  0  0  0  0  0999 V2000
   -0.4930   24.8230  -27.1540 C   0  0  0  0  0  0  0  0  0  0  0  0
   -1.6490   23.9810  -27.6060 C   0  0  0  0  0  0  0  0  0  0  0  0
   -1.6970   22.6130  -27.3000 C   0  0  0  0  0  0  0  0  0  0  0  0
   -2.7680   21.8220  -27.7430 C   0  0  0  0  0  0  0  0  0  0  0  0
   -2.7990   20.3530  -27.4460 C   0  0  0  0  0  0  0  0  0  0  0  0
   -3.7750   22.4020  -28.5280 C   0  0  0  0  0  0  0  0  0  0  0  0
   -3.7280   23.7640  -28.8500 C   0  0  0  0  0  0  0  0  0  0  0  0
   -4.9920   24.4810  -29.8470 S   0  0  0  0  0  0  0  0  0  0  0  0
   -5.8790   25.3190  -28.9680 O   0  0  0  0  0  0  0  0  0  0  0  0
   -4.3860   25.3720  -30.8970 O   0  0  0  0  0  0  0  0  0  0  0  0
   -5.9470   23.2190  -30.6440 C   0  0  0  0  0  0  0  0  0  0  0  0
   -7.3340   23.1910  -30.4250 C   0  0  0  0  0  0  0  0  0  0  0  0
   -8.1370   22.2430  -31.0590 C   0  0  0  0  0  0  0  0  0  0  0  0
   -7.5660   21.3090  -31.9220 C   0  0  0  0  0  0  0  0  0  0  0  0
   -6.1890   21.3160  -32.1480 C   0  0  0  0  0  0  0  0  0  0  0  0
   -5.3620   22.2600  -31.5120 C   0  0  0  0  0  0  0  0  0  0  0  0
   -3.9050   22.1990  -31.7670 C   0  0  0  0  0  0  0  0  0  0  0  0
   -3.1990   23.2260  -31.5880 O   0  0  0  0  0  0  0  0  0  0  0  0
   -3.2520   20.9690  -32.1110 N   0  0  0  0  0  0  0  0  0  0  0  0
   -1.9870   20.8380  -32.7760 C   0  0  0  0  0  0  0  0  0  0  0  0
   -1.8990   20.6040  -34.1600 C   0  0  0  0  0  0  0  0  0  0  0  0
   -0.6500   20.4900  -34.7750 C   0  0  0  0  0  0  0  0  0  0  0  0
    0.5240   20.6180  -34.0200 C   0  0  0  0  0  0  0  0  0  0  0  0
    2.0910   20.4790  -34.8090 S   0  0  0  0  0  0  0  0  0  0  0  0
    1.8990   19.9160  -36.1890 O   0  0  0  0  0  0  0  0  0  0  0  0
    2.9920   19.5520  -34.0410 O   0  0  0  0  0  0  0  0  0  0  0  0
    2.8310   22.0440  -34.9290 N   0  0  0  0  0  0  0  0  0  0  0  0
    2.2100   23.1060  -35.3430 C   0  0  0  0  0  0  0  0  0  0  0  0
    2.8800   24.2870  -35.4040 N   0  0  0  0  0  0  0  0  0  0  0  0
    2.2640   25.4210  -35.8300 C   0  0  0  0  0  0  0  0  0  0  0  0
    0.9250   25.3820  -36.2160 C   0  0  0  0  0  0  0  0  0  0  0  0
    0.2500   24.1640  -36.1500 C   0  0  0  0  0  0  0  0  0  0  0  0
    0.9010   23.0540  -35.7160 N   0  0  0  0  0  0  0  0  0  0  0  0
    0.4360   20.8850  -32.6480 C   0  0  0  0  0  0  0  0  0  0  0  0
   -0.8130   21.0010  -32.0320 C   0  0  0  0  0  0  0  0  0  0  0  0
   -2.6590   24.5490  -28.3950 C   0  0  0  0  0  0  0  0  0  0  0  0
   -0.4630   24.8448  -26.0546 H   0  0  0  0  0  0  0  0  0  0  0  0
    0.4447   24.3949  -27.5379 H   0  0  0  0  0  0  0  0  0  0  0  0
   -0.6129   25.8468  -27.5379 H   0  0  0  0  0  0  0  0  0  0  0  0
   -0.8894   22.1570  -26.7086 H   0  0  0  0  0  0  0  0  0  0  0  0
   -2.8022   20.1991  -26.3568 H   0  0  0  0  0  0  0  0  0  0  0  0
   -3.7067   19.9099  -27.8816 H   0  0  0  0  0  0  0  0  0  0  0  0
   -1.9108   19.8720  -27.8816 H   0  0  0  0  0  0  0  0  0  0  0  0
   -4.6075   21.7828  -28.8933 H   0  0  0  0  0  0  0  0  0  0  0  0
   -7.7922   23.9250  -29.7458 H   0  0  0  0  0  0  0  0  0  0  0  0
   -9.2219   22.2324  -30.8778 H   0  0  0  0  0  0  0  0  0  0  0  0
   -8.2016   20.5656  -32.4254 H   0  0  0  0  0  0  0  0  0  0  0  0
   -5.7456   20.5759  -32.8304 H   0  0  0  0  0  0  0  0  0  0  0  0
   -2.8163   20.5105  -34.7599 H   0  0  0  0  0  0  0  0  0  0  0  0
   -0.5875   20.2990  -35.8565 H   0  0  0  0  0  0  0  0  0  0  0  0
    2.8213   26.3685  -35.8702 H   0  0  0  0  0  0  0  0  0  0  0  0
    0.4130   26.2911  -36.5645 H   0  0  0  0  0  0  0  0  0  0  0  0
   -0.8069   24.1022  -36.4486 H   0  0  0  0  0  0  0  0  0  0  0  0
    1.3535   21.0039  -32.0530 H   0  0  0  0  0  0  0  0  0  0  0  0
   -0.8737   21.2217  -30.9561 H   0  0  0  0  0  0  0  0  0  0  0  0
   -2.6126   25.6160  -28.6585 H   0  0  0  0  0  0  0  0  0  0  0  0
  1  2  1  0
  2  3  2  0
  3  4  1  0
  4  5  1  0
  4  6  2  0
  6  7  1  0
  7  8  1  0
  8  9  2  0
  8 10  2  0
  8 11  1  0
 11 12  2  0
 12 13  1  0
 13 14  2  0
 14 15  1  0
 15 16  2  0
 16 17  1  0
 17 18  2  0
 17 19  1  0
 19 20  1  0
 20 21  2  0
 21 22  1  0
 22 23  2  0
 23 24  1  0
 24 25  2  0
 24 26  2  0
 24 27  1  0
 27 28  2  3
 28 29  1  0
 29 30  2  0
 30 31  1  0
 31 32  2  0
 32 33  1  0
 23 34  1  0
 34 35  2  0
  7 36  2  0
 36  2  1  0
 16 11  1  0
 35 20  1  0
 33 28  1  0
  1 37  1  0
  1 38  1  0
  1 39  1  0
  3 40  1  0
  5 41  1  0
  5 42  1  0
  5 43  1  0
  6 44  1  0
 12 45  1  0
 13 46  1  0
 14 47  1  0
 15 48  1  0
 21 49  1  0
 22 50  1  0
 30 51  1  0
 31 52  1  0
 32 53  1  0
 34 54  1  0
 35 55  1  0
 36 56  1  0
M  CHG  2  19  -1  33  -1
M  END
>  <UniqueID>  (6) 
6

>  <SMILES>  (6) 
Cc1cc(C)cc(S(=O)(=O)c2ccccc2C(=O)[N-]c2ccc(S(=O)(=O)N=c3nccc[n-]3)cc2)c1

>  <Energy>  (6) 
74.73488183752887

>  <Genealogy>  (6) 
Cc1cc(C)cc(S(=O)(=O)c2ccccc2C(=O)[N-]c2ccc(S(=O)(=O)N=c3nccc[n-]3)cc2)c1 (protonated)
Cc1cc(C)cc(S(=O)(=O)c2ccccc2C(=O)[N-]c2ccc(S(=O)(=O)N=c3nccc[n-]3)cc2)c1 (3D coordinates assigned)
Cc1cc(C)cc(S(=O)(=O)c2ccccc2C(=O)[N-]c2ccc(S(=O)(=O)N=c3nccc[n-]3)cc2)c1 (optimized conformer: 74.73488183752887 kcal/mol)

>  <smiles>  (6) 
Cc1cc(C)cc(S(=O)(=O)c2ccccc2C(=O)Nc2ccc(S(=O)(=O)N=c3nccc[nH]3)cc2)c1

>  <score_type>  (6) 
oracle

>  <origin>  (6) 
adgpu

>  <m_score__min__energy>  (6) 
-11.76

>  <m_primary>  (6) 
energy

$$$$
6:0
     RDKit          3D

 48 51  0  0  0  0  0  0  0  0999 V2000
    3.7340   19.4160  -33.2250 H   0  0  0  0  0  0  0  0  0  0  0  0
    3.1070   20.0420  -33.7800 N   0  0  0  0  0  0  0  0  0  0  0  0
    1.8490   20.1870  -33.5000 C   0  0  0  0  0  0  0  0  0  0  0  0
    1.2660   19.5040  -32.4250 C   0  0  0  0  0  0  0  0  0  0  0  0
    1.8735   18.8333  -31.7995 H   0  0  0  0  0  0  0  0  0  0  0  0
   -0.0540   19.6760  -32.1610 N   0  0  0  0  0  0  0  0  0  0  0  0
   -0.8360   20.4900  -32.9200 C   0  0  0  0  0  0  0  0  0  0  0  0
   -2.2740   20.6330  -32.5900 C   0  0  0  0  0  0  0  0  0  0  0  0
   -3.1940   20.8830  -33.6230 C   0  0  0  0  0  0  0  0  0  0  0  0
   -2.8439   20.9303  -34.6647 H   0  0  0  0  0  0  0  0  0  0  0  0
   -4.5490   21.0720  -33.3390 C   0  0  0  0  0  0  0  0  0  0  0  0
   -5.2615   21.2488  -34.1582 H   0  0  0  0  0  0  0  0  0  0  0  0
   -5.0030   21.0370  -32.0140 C   0  0  0  0  0  0  0  0  0  0  0  0
   -6.4280   21.2660  -31.7080 C   0  0  0  0  0  0  0  0  0  0  0  0
   -7.3410   20.2320  -31.9740 C   0  0  0  0  0  0  0  0  0  0  0  0
   -6.9797   19.2774  -32.3842 H   0  0  0  0  0  0  0  0  0  0  0  0
   -8.7030   20.4060  -31.7220 C   0  0  0  0  0  0  0  0  0  0  0  0
   -9.4103   19.5909  -31.9352 H   0  0  0  0  0  0  0  0  0  0  0  0
   -9.1670   21.6130  -31.2000 C   0  0  0  0  0  0  0  0  0  0  0  0
  -10.2416   21.7516  -31.0099 H   0  0  0  0  0  0  0  0  0  0  0  0
   -8.2710   22.6460  -30.9180 C   0  0  0  0  0  0  0  0  0  0  0  0
   -8.6449   23.5942  -30.5043 H   0  0  0  0  0  0  0  0  0  0  0  0
   -6.8960   22.4850  -31.1580 C   0  0  0  0  0  0  0  0  0  0  0  0
   -5.7950   23.8060  -30.7280 S   0  0  0  0  0  0  0  0  0  0  0  0
   -6.5640   24.9570  -30.1430 O   0  0  0  0  0  0  0  0  0  0  0  0
   -5.0910   24.2810  -31.9680 O   0  0  0  0  0  0  0  0  0  0  0  0
   -4.6610   23.2510  -29.5350 N   0  0  0  0  0  0  0  0  0  0  0  0
   -3.5510   23.8580  -29.2440 C   0  0  0  0  0  0  0  0  0  0  0  0
   -3.1300   24.9680  -29.8010 O   0  0  0  0  0  0  0  0  0  0  0  0
   -1.9600   25.3020  -29.3360 N   0  0  0  0  0  0  0  0  0  0  0  0
   -1.6110   24.3630  -28.4300 C   0  0  0  0  0  0  0  0  0  0  0  0
   -0.2990   24.3350  -27.7190 C   0  0  0  0  0  0  0  0  0  0  0  0
   -0.4706   24.3387  -26.6325 H   0  0  0  0  0  0  0  0  0  0  0  0
    0.2511   23.4249  -28.0003 H   0  0  0  0  0  0  0  0  0  0  0  0
    0.2894   25.2208  -28.0003 H   0  0  0  0  0  0  0  0  0  0  0  0
   -2.6210   23.4230  -28.3290 C   0  0  0  0  0  0  0  0  0  0  0  0
   -2.6250   22.1520  -27.5380 C   0  0  0  0  0  0  0  0  0  0  0  0
   -2.6243   22.3887  -26.4638 H   0  0  0  0  0  0  0  0  0  0  0  0
   -3.5250   21.5695  -27.7845 H   0  0  0  0  0  0  0  0  0  0  0  0
   -1.7287   21.5639  -27.7845 H   0  0  0  0  0  0  0  0  0  0  0  0
   -4.0960   20.7710  -30.9800 C   0  0  0  0  0  0  0  0  0  0  0  0
   -4.4525   20.7152  -29.9409 H   0  0  0  0  0  0  0  0  0  0  0  0
   -2.7400   20.5760  -31.2610 C   0  0  0  0  0  0  0  0  0  0  0  0
   -1.8820   20.3960  -30.2240 F   0  0  0  0  0  0  0  0  0  0  0  0
   -0.2460   21.1890  -33.9860 C   0  0  0  0  0  0  0  0  0  0  0  0
   -0.8511   21.8709  -34.6015 H   0  0  0  0  0  0  0  0  0  0  0  0
    1.0770   21.0190  -34.2540 N   0  0  0  0  0  0  0  0  0  0  0  0
    1.5020   21.5450  -35.0520 H   0  0  0  0  0  0  0  0  0  0  0  0
  1  2  1  0
  2  3  2  3
  3  4  1  0
  4  5  1  0
  4  6  2  0
  6  7  1  0
  7  8  1  0
  8  9  2  0
  9 10  1  0
  9 11  1  0
 11 12  1  0
 11 13  2  0
 13 14  1  0
 14 15  2  0
 15 16  1  0
 15 17  1  0
 17 18  1  0
 17 19  2  0
 19 20  1  0
 19 21  1  0
 21 22  1  0
 21 23  2  0
 23 24  1  0
 24 25  2  0
 24 26  2  0
 24 27  1  0
 27 28  2  0
 28 29  1  0
 29 30  1  0
 30 31  1  0
 31 32  1  0
 32 33  1  0
 32 34  1  0
 32 35  1  0
 31 36  2  0
 36 37  1  0
 37 38  1  0
 37 39  1  0
 37 40  1  0
 13 41  1  0
 41 42  1  0
 41 43  2  0
 43 44  1  0
  7 45  2  0
 45 46  1  0
 45 47  1  0
 47 48  1  0
 47  3  1  0
 43  8  1  0
 23 14  1  0
 36 28  1  0
M  CHG  1  30  -1
M  END
>  <UniqueID>  (7) 
7

>  <SMILES>  (7) 
Cc1[n-]o/c(=N\S(=O)(=O)c2ccccc2-c2ccc(-c3c[nH]c(=N)cn3)c(F)c2)c1C

>  <Energy>  (7) 
95.98126327486477

>  <Genealogy>  (7) 
Cc1[n-]oc(=NS(=O)(=O)c2ccccc2-c2ccc(-c3c[nH]c(=N)cn3)c(F)c2)c1C (protonated)
Cc1[n-]o/c(=N\S(=O)(=O)c2ccccc2-c2ccc(-c3c[nH]c(=N)cn3)c(F)c2)c1C (cis-trans isomerization)
Cc1[n-]o/c(=N\S(=O)(=O)c2ccccc2-c2ccc(-c3c[nH]c(=N)cn3)c(F)c2)c1C (3D coordinates assigned)
Cc1[n-]o/c(=N\S(=O)(=O)c2ccccc2-c2ccc(-c3c[nH]c(=N)cn3)c(F)c2)c1C (optimized conformer: 95.98126327486477 kcal/mol)

>  <smiles>  (7) 
Cc1[nH]oc(=NS(=O)(=O)c2ccccc2-c2ccc(-c3c[nH]c(=N)cn3)c(F)c2)c1C

>  <score_type>  (7) 
oracle

>  <origin>  (7) 
adgpu

>  <m_score__min__energy>  (7) 
-12.02

>  <m_primary>  (7) 
energy

$$$$
7:0
     RDKit          3D

 65 69  0  0  0  0  0  0  0  0999 V2000
   -1.6050   25.8170  -28.9450 O   0  0  0  0  0  0  0  0  0  0  0  0
   -2.2690   24.6660  -28.2400 S   0  0  0  0  0  0  0  0  0  0  0  0
   -2.6260   25.1160  -26.8510 O   0  0  0  0  0  0  0  0  0  0  0  0
   -3.7450   24.2320  -29.1040 C   0  0  0  0  0  0  0  0  0  0  0  0
   -4.1910   25.0100  -30.1800 C   0  0  0  0  0  0  0  0  0  0  0  0
   -5.3620   24.6650  -30.8620 C   0  0  0  0  0  0  0  0  0  0  0  0
   -6.1120   23.5490  -30.4650 C   0  0  0  0  0  0  0  0  0  0  0  0
   -7.2990   23.1990  -31.1950 N   0  0  0  0  0  0  0  0  0  0  0  0
   -7.5270   21.9130  -31.7890 C   0  0  0  0  0  0  0  0  0  0  0  0
   -8.7660   21.3300  -31.9740 C   0  0  0  0  0  0  0  0  0  0  0  0
   -8.5100   20.0790  -32.5060 C   0  0  0  0  0  0  0  0  0  0  0  0
   -9.5010   19.1800  -32.8930 O   0  0  0  0  0  0  0  0  0  0  0  0
   -7.1780   19.8640  -32.6260 N   0  0  0  0  0  0  0  0  0  0  0  0
   -6.5160   18.6740  -33.0880 C   0  0  0  0  0  0  0  0  0  0  0  0
   -7.2560   17.5090  -33.3390 C   0  0  0  0  0  0  0  0  0  0  0  0
   -6.6190   16.3580  -33.8100 C   0  0  0  0  0  0  0  0  0  0  0  0
   -5.2410   16.3630  -34.0390 C   0  0  0  0  0  0  0  0  0  0  0  0
   -4.4920   17.5220  -33.7930 C   0  0  0  0  0  0  0  0  0  0  0  0
   -2.7590   17.5510  -34.1110 S   0  0  0  0  0  0  0  0  0  0  0  0
   -2.4780   16.9490  -35.4620 O   0  0  0  0  0  0  0  0  0  0  0  0
   -2.0610   16.7270  -33.0660 O   0  0  0  0  0  0  0  0  0  0  0  0
   -2.1740   19.1950  -34.0500 N   0  0  0  0  0  0  0  0  0  0  0  0
   -0.7740   19.2480  -34.5070 C   0  0  0  0  0  0  0  0  0  0  0  0
   -0.1360   20.6120  -34.1690 C   0  0  0  0  0  0  0  0  0  0  0  0
   -1.1260   21.5600  -33.8220 O   0  0  0  0  0  0  0  0  0  0  0  0
   -1.7660   21.1670  -32.6210 C   0  0  0  0  0  0  0  0  0  0  0  0
   -2.2860   19.7150  -32.6800 C   0  0  0  0  0  0  0  0  0  0  0  0
   -5.1330   18.6770  -33.3280 C   0  0  0  0  0  0  0  0  0  0  0  0
   -6.5780   20.9830  -32.1740 C   0  0  0  0  0  0  0  0  0  0  0  0
   -5.2000   21.1320  -32.0550 O   0  0  0  0  0  0  0  0  0  0  0  0
   -5.6480   22.7540  -29.4020 C   0  0  0  0  0  0  0  0  0  0  0  0
   -4.4780   23.1010  -28.7200 C   0  0  0  0  0  0  0  0  0  0  0  0
   -1.1520   23.3260  -28.1420 N   0  0  0  0  0  0  0  0  0  0  0  0
   -1.2370   22.6790  -26.8250 C   0  0  0  0  0  0  0  0  0  0  0  0
   -0.2190   21.5220  -26.7460 C   0  0  0  0  0  0  0  0  0  0  0  0
    0.3810   21.2430  -27.9990 O   0  0  0  0  0  0  0  0  0  0  0  0
   -0.6210   21.0520  -28.9790 C   0  0  0  0  0  0  0  0  0  0  0  0
   -1.4240   22.3490  -29.2090 C   0  0  0  0  0  0  0  0  0  0  0  0
   -3.6176   25.8962  -30.4898 H   0  0  0  0  0  0  0  0  0  0  0  0
   -5.6968   25.2730  -31.7153 H   0  0  0  0  0  0  0  0  0  0  0  0
   -8.0440   23.9230  -31.3050 H   0  0  0  0  0  0  0  0  0  0  0  0
   -9.7489   21.7683  -31.7462 H   0  0  0  0  0  0  0  0  0  0  0  0
   -9.8540   19.1480  -33.8410 H   0  0  0  0  0  0  0  0  0  0  0  0
   -8.3420   17.5015  -33.1643 H   0  0  0  0  0  0  0  0  0  0  0  0
   -7.2038   15.4461  -34.0009 H   0  0  0  0  0  0  0  0  0  0  0  0
   -4.7430   15.4562  -34.4129 H   0  0  0  0  0  0  0  0  0  0  0  0
   -0.2025   18.4501  -34.0103 H   0  0  0  0  0  0  0  0  0  0  0  0
   -0.7550   19.1117  -35.5984 H   0  0  0  0  0  0  0  0  0  0  0  0
    0.5549   20.4865  -33.3223 H   0  0  0  0  0  0  0  0  0  0  0  0
    0.4043   20.9765  -35.0551 H   0  0  0  0  0  0  0  0  0  0  0  0
   -1.0465   21.2513  -31.7932 H   0  0  0  0  0  0  0  0  0  0  0  0
   -2.6323   21.8279  -32.4705 H   0  0  0  0  0  0  0  0  0  0  0  0
   -1.6893   19.0868  -32.0023 H   0  0  0  0  0  0  0  0  0  0  0  0
   -3.3421   19.6975  -32.3729 H   0  0  0  0  0  0  0  0  0  0  0  0
   -4.5492   19.5921  -33.1498 H   0  0  0  0  0  0  0  0  0  0  0  0
   -6.2082   21.8549  -29.1057 H   0  0  0  0  0  0  0  0  0  0  0  0
   -4.1312   22.4836  -27.8783 H   0  0  0  0  0  0  0  0  0  0  0  0
   -1.0134   23.4167  -26.0403 H   0  0  0  0  0  0  0  0  0  0  0  0
   -2.2522   22.2809  -26.6801 H   0  0  0  0  0  0  0  0  0  0  0  0
    0.5700   21.7942  -26.0295 H   0  0  0  0  0  0  0  0  0  0  0  0
   -0.7611   20.6200  -26.4258 H   0  0  0  0  0  0  0  0  0  0  0  0
   -0.1466   20.7503  -29.9244 H   0  0  0  0  0  0  0  0  0  0  0  0
   -1.3107   20.2706  -28.6272 H   0  0  0  0  0  0  0  0  0  0  0  0
   -1.1378   22.7837  -30.1781 H   0  0  0  0  0  0  0  0  0  0  0  0
   -2.4969   22.1066  -29.2012 H   0  0  0  0  0  0  0  0  0  0  0  0
  1  2  2  0
  2  3  2  0
  2  4  1  0
  4  5  2  0
  5  6  1  0
  6  7  2  0
  7  8  1  0
  8  9  1  0
  9 10  1  0
 10 11  2  0
 11 12  1  0
 11 13  1  0
 13 14  1  0
 14 15  2  0
 15 16  1  0
 16 17  2  0
 17 18  1  0
 18 19  1  0
 19 20  2  0
 19 21  2  0
 19 22  1  0
 22 23  1  0
 23 24  1  0
 24 25  1  0
 25 26  1  0
 26 27  1  0
 18 28  2  0
 13 29  1  0
 29 30  1  0
  7 31  1  0
 31 32  2  0
  2 33  1  0
 33 34  1  0
 34 35  1  0
 35 36  1  0
 36 37  1  0
 37 38  1  0
 32  4  1  0
 38 33  1  0
 29  9  2  0
 28 14  1  0
 27 22  1  0
  5 39  1  0
  6 40  1  0
  8 41  1  0
 10 42  1  0
 12 43  1  0
 15 44  1  0
 16 45  1  0
 17 46  1  0
 23 47  1  0
 23 48  1  0
 24 49  1  0
 24 50  1  0
 26 51  1  0
 26 52  1  0
 27 53  1  0
 27 54  1  0
 28 55  1  0
 31 56  1  0
 32 57  1  0
 34 58  1  0
 34 59  1  0
 35 60  1  0
 35 61  1  0
 37 62  1  0
 37 63  1  0
 38 64  1  0
 38 65  1  0
M  CHG  1  30  -1
M  END
>  <UniqueID>  (8) 
8

>  <SMILES>  (8) 
O=S(=O)(c1ccc(Nc2cc(O)n(-c3cccc(S(=O)(=O)N4CCOCC4)c3)c2[O-])cc1)N1CCOCC1

>  <Energy>  (8) 
122.86684981454464

>  <Genealogy>  (8) 
O=S(=O)(c1ccc(Nc2cc(O)n(-c3cccc(S(=O)(=O)N4CCOCC4)c3)c2[O-])cc1)N1CCOCC1 (protonated)
O=S(=O)(c1ccc(Nc2cc(O)n(-c3cccc(S(=O)(=O)N4CCOCC4)c3)c2[O-])cc1)N1CCOCC1 (3D coordinates assigned)
O=S(=O)(c1ccc(Nc2cc(O)n(-c3cccc(S(=O)(=O)N4CCOCC4)c3)c2[O-])cc1)N1CCOCC1 (nonaromatic ring conformer: 122.86684981454464 kcal/mol)

>  <smiles>  (8) 
O=S(=O)(c1ccc(Nc2cc(O)n(-c3cccc(S(=O)(=O)N4CCOCC4)c3)c2O)cc1)N1CCOCC1

>  <score_type>  (8) 
oracle

>  <origin>  (8) 
adgpu

>  <m_score__min__energy>  (8) 
-10.58

>  <m_primary>  (8) 
energy

$$$$
8:0
     RDKit          3D

 41 43  0  0  0  0  0  0  0  0999 V2000
   -1.6280   25.6690  -28.9180 N   0  0  0  0  0  0  0  0  0  0  0  0
   -0.8420   24.6170  -27.7900 S   0  0  0  0  0  0  0  0  0  0  0  0
   -0.9680   25.2000  -26.4110 O   0  0  0  0  0  0  0  0  0  0  0  0
    0.6120   24.5260  -28.1610 O   0  0  0  0  0  0  0  0  0  0  0  0
   -1.5490   22.9920  -27.7980 C   0  0  0  0  0  0  0  0  0  0  0  0
   -0.7380   21.8680  -27.5640 C   0  0  0  0  0  0  0  0  0  0  0  0
   -1.2880   20.5860  -27.5700 C   0  0  0  0  0  0  0  0  0  0  0  0
   -2.6500   20.4100  -27.8110 C   0  0  0  0  0  0  0  0  0  0  0  0
   -3.4660   21.5150  -28.0570 C   0  0  0  0  0  0  0  0  0  0  0  0
   -2.9260   22.8160  -28.0530 C   0  0  0  0  0  0  0  0  0  0  0  0
   -3.7460   23.9670  -28.3150 N   0  0  0  0  0  0  0  0  0  0  0  0
   -4.4470   24.3760  -29.8470 S   0  0  0  0  0  0  0  0  0  0  0  0
   -5.7460   25.0960  -29.6180 O   0  0  0  0  0  0  0  0  0  0  0  0
   -3.5100   25.2860  -30.5940 O   0  0  0  0  0  0  0  0  0  0  0  0
   -4.7640   22.9080  -30.7660 C   0  0  0  0  0  0  0  0  0  0  0  0
   -3.7190   22.0150  -31.0320 C   0  0  0  0  0  0  0  0  0  0  0  0
   -3.9540   20.8570  -31.7770 C   0  0  0  0  0  0  0  0  0  0  0  0
   -5.2390   20.5820  -32.2740 C   0  0  0  0  0  0  0  0  0  0  0  0
   -5.4980   19.3470  -33.0490 C   0  0  0  0  0  0  0  0  0  0  0  0
   -4.5670   18.9420  -34.0200 C   0  0  0  0  0  0  0  0  0  0  0  0
   -4.7900   17.7920  -34.7810 C   0  0  0  0  0  0  0  0  0  0  0  0
   -5.9420   17.0310  -34.5780 C   0  0  0  0  0  0  0  0  0  0  0  0
   -6.8690   17.4130  -33.6060 C   0  0  0  0  0  0  0  0  0  0  0  0
   -6.6550   18.5630  -32.8360 C   0  0  0  0  0  0  0  0  0  0  0  0
   -7.8220   18.9450  -31.5730 Cl  0  0  0  0  0  0  0  0  0  0  0  0
   -6.2880   21.4730  -31.9950 C   0  0  0  0  0  0  0  0  0  0  0  0
   -6.0510   22.6310  -31.2480 C   0  0  0  0  0  0  0  0  0  0  0  0
   -2.6430   25.6990  -28.6710 H   0  0  0  0  0  0  0  0  0  0  0  0
   -1.5390   25.2400  -29.8650 H   0  0  0  0  0  0  0  0  0  0  0  0
    0.3375   22.0002  -27.3749 H   0  0  0  0  0  0  0  0  0  0  0  0
   -0.6460   19.7123  -27.3843 H   0  0  0  0  0  0  0  0  0  0  0  0
   -3.0820   19.3984  -27.8072 H   0  0  0  0  0  0  0  0  0  0  0  0
   -4.5381   21.3691  -28.2554 H   0  0  0  0  0  0  0  0  0  0  0  0
   -2.7083   22.2263  -30.6526 H   0  0  0  0  0  0  0  0  0  0  0  0
   -3.1290   20.1570  -31.9755 H   0  0  0  0  0  0  0  0  0  0  0  0
   -3.6550   19.5353  -34.1824 H   0  0  0  0  0  0  0  0  0  0  0  0
   -4.0565   17.4858  -35.5414 H   0  0  0  0  0  0  0  0  0  0  0  0
   -6.1199   16.1302  -35.1837 H   0  0  0  0  0  0  0  0  0  0  0  0
   -7.7727   16.8070  -33.4442 H   0  0  0  0  0  0  0  0  0  0  0  0
   -7.3012   21.2589  -32.3660 H   0  0  0  0  0  0  0  0  0  0  0  0
   -6.8768   23.3267  -31.0379 H   0  0  0  0  0  0  0  0  0  0  0  0
  1  2  1  0
  2  3  2  0
  2  4  2  0
  2  5  1  0
  5  6  2  0
  6  7  1  0
  7  8  2  0
  8  9  1  0
  9 10  2  0
 10 11  1  0
 11 12  1  0
 12 13  2  0
 12 14  2  0
 12 15  1  0
 15 16  2  0
 16 17  1  0
 17 18  2  0
 18 19  1  0
 19 20  2  0
 20 21  1  0
 21 22  2  0
 22 23  1  0
 23 24  2  0
 24 25  1  0
 18 26  1  0
 26 27  2  0
 10  5  1  0
 27 15  1  0
 24 19  1  0
  1 28  1  0
  1 29  1  0
  6 30  1  0
  7 31  1  0
  8 32  1  0
  9 33  1  0
 16 34  1  0
 17 35  1  0
 20 36  1  0
 21 37  1  0
 22 38  1  0
 23 39  1  0
 26 40  1  0
 27 41  1  0
M  CHG  1  11  -1
M  END
>  <UniqueID>  (9) 
9

>  <SMILES>  (9) 
NS(=O)(=O)c1ccccc1[N-]S(=O)(=O)c1ccc(-c2ccccc2Cl)cc1

>  <Energy>  (9) 
54.33245389281592

>  <Genealogy>  (9) 
NS(=O)(=O)c1ccccc1[N-]S(=O)(=O)c1ccc(-c2ccccc2Cl)cc1 (protonated)
NS(=O)(=O)c1ccccc1[N-]S(=O)(=O)c1ccc(-c2ccccc2Cl)cc1 (3D coordinates assigned)
NS(=O)(=O)c1ccccc1[N-]S(=O)(=O)c1ccc(-c2ccccc2Cl)cc1 (optimized conformer: 54.33245389281592 kcal/mol)

>  <smiles>  (9) 
NS(=O)(=O)c1ccccc1NS(=O)(=O)c1ccc(-c2ccccc2Cl)cc1

>  <score_type>  (9) 
oracle

>  <origin>  (9) 
adgpu

>  <m_score__min__energy>  (9) 
-10.66

>  <m_primary>  (9) 
energy

$$$$
9:0
     RDKit          3D

 43 45  0  0  0  0  0  0  0  0999 V2000
   -0.0480   22.3160  -34.7130 N   0  0  0  0  0  0  0  0  0  0  0  0
    1.0010   21.9840  -36.0460 S   0  0  0  0  0  0  0  0  0  0  0  0
    0.3450   20.9710  -36.9420 O   0  0  0  0  0  0  0  0  0  0  0  0
    1.2330   23.2420  -36.8360 O   0  0  0  0  0  0  0  0  0  0  0  0
    2.5440   21.3610  -35.4490 C   0  0  0  0  0  0  0  0  0  0  0  0
    3.7400   21.9740  -35.8530 C   0  0  0  0  0  0  0  0  0  0  0  0
    4.9680   21.5010  -35.3910 C   0  0  0  0  0  0  0  0  0  0  0  0
    5.0150   20.4080  -34.5250 C   0  0  0  0  0  0  0  0  0  0  0  0
    3.8340   19.7840  -34.1210 C   0  0  0  0  0  0  0  0  0  0  0  0
    2.5860   20.2530  -34.5760 C   0  0  0  0  0  0  0  0  0  0  0  0
    1.3590   19.6230  -34.1740 N   0  0  0  0  0  0  0  0  0  0  0  0
    1.0070   19.0350  -32.5820 S   0  0  0  0  0  0  0  0  0  0  0  0
    0.9360   17.5350  -32.6130 O   0  0  0  0  0  0  0  0  0  0  0  0
    2.1030   19.4470  -31.6400 O   0  0  0  0  0  0  0  0  0  0  0  0
   -0.5510   19.6670  -32.0620 C   0  0  0  0  0  0  0  0  0  0  0  0
   -1.3660   20.3380  -32.9840 C   0  0  0  0  0  0  0  0  0  0  0  0
   -2.5820   20.8900  -32.5750 C   0  0  0  0  0  0  0  0  0  0  0  0
   -2.9800   20.7950  -31.2390 C   0  0  0  0  0  0  0  0  0  0  0  0
   -2.1550   20.1520  -30.3010 C   0  0  0  0  0  0  0  0  0  0  0  0
   -2.5300   20.0590  -28.9180 N   0  0  0  0  0  0  0  0  0  0  0  0
   -2.6490   21.0480  -28.0770 C   0  0  0  0  0  0  0  0  0  0  0  0
   -2.2510   22.4440  -28.3730 C   0  0  0  0  0  0  0  0  0  0  0  0
   -3.0490   23.2140  -29.2300 C   0  0  0  0  0  0  0  0  0  0  0  0
   -2.7040   24.5390  -29.5190 C   0  0  0  0  0  0  0  0  0  0  0  0
   -3.4940   25.2840  -30.3860 O   0  0  0  0  0  0  0  0  0  0  0  0
   -1.5670   25.1100  -28.9370 C   0  0  0  0  0  0  0  0  0  0  0  0
   -1.2240   26.4250  -29.2330 O   0  0  0  0  0  0  0  0  0  0  0  0
   -0.7800   24.3580  -28.0540 C   0  0  0  0  0  0  0  0  0  0  0  0
    0.7750   25.1190  -27.2390 Br  0  0  0  0  0  0  0  0  0  0  0  0
   -1.1300   23.0350  -27.7610 C   0  0  0  0  0  0  0  0  0  0  0  0
   -0.9600   19.5580  -30.7260 C   0  0  0  0  0  0  0  0  0  0  0  0
   -1.0270   22.2780  -35.0740 H   0  0  0  0  0  0  0  0  0  0  0  0
    3.7087   22.8335  -36.5388 H   0  0  0  0  0  0  0  0  0  0  0  0
    5.9003   21.9901  -35.7096 H   0  0  0  0  0  0  0  0  0  0  0  0
    5.9844   20.0376  -34.1602 H   0  0  0  0  0  0  0  0  0  0  0  0
    3.8779   18.9195  -33.4422 H   0  0  0  0  0  0  0  0  0  0  0  0
   -1.0470   20.4301  -34.0327 H   0  0  0  0  0  0  0  0  0  0  0  0
   -3.2271   21.4001  -33.3055 H   0  0  0  0  0  0  0  0  0  0  0  0
   -3.9414   21.2246  -30.9209 H   0  0  0  0  0  0  0  0  0  0  0  0
   -3.0717   20.8323  -27.0847 H   0  0  0  0  0  0  0  0  0  0  0  0
   -3.9521   22.7741  -29.6782 H   0  0  0  0  0  0  0  0  0  0  0  0
   -0.5257   22.4541  -27.0487 H   0  0  0  0  0  0  0  0  0  0  0  0
   -0.3391   19.0030  -30.0073 H   0  0  0  0  0  0  0  0  0  0  0  0
  1  2  1  0
  2  3  2  0
  2  4  2  0
  2  5  1  0
  5  6  2  0
  6  7  1  0
  7  8  2  0
  8  9  1  0
  9 10  2  0
 10 11  1  0
 11 12  1  0
 12 13  2  0
 12 14  2  0
 12 15  1  0
 15 16  2  0
 16 17  1  0
 17 18  2  0
 18 19  1  0
 19 20  1  0
 20 21  2  3
 21 22  1  0
 22 23  2  0
 23 24  1  0
 24 25  1  0
 24 26  2  0
 26 27  1  0
 26 28  1  0
 28 29  1  0
 28 30  2  0
 19 31  2  0
 10  5  1  0
 31 15  1  0
 30 22  1  0
  1 32  1  0
  6 33  1  0
  7 34  1  0
  8 35  1  0
  9 36  1  0
 16 37  1  0
 17 38  1  0
 18 39  1  0
 21 40  1  0
 23 41  1  0
 30 42  1  0
 31 43  1  0
M  CHG  4   1  -1  11  -1  25  -1  27  -1
M  END
>  <UniqueID>  (10) 
10

>  <SMILES>  (10) 
[NH-]S(=O)(=O)c1ccccc1[N-]S(=O)(=O)c1cccc(N=Cc2cc([O-])c([O-])c(Br)c2)c1

>  <Energy>  (10) 
59.57916344590799

>  <Genealogy>  (10) 
[NH-]S(=O)(=O)c1ccccc1[N-]S(=O)(=O)c1cccc(N=Cc2cc([O-])c([O-])c(Br)c2)c1 (protonated)
[NH-]S(=O)(=O)c1ccccc1[N-]S(=O)(=O)c1cccc(N=Cc2cc([O-])c([O-])c(Br)c2)c1 (3D coordinates assigned)
[NH-]S(=O)(=O)c1ccccc1[N-]S(=O)(=O)c1cccc(N=Cc2cc([O-])c([O-])c(Br)c2)c1 (optimized conformer: 59.57916344590799 kcal/mol)

>  <smiles>  (10) 
NS(=O)(=O)c1ccccc1NS(=O)(=O)c1cccc(N=Cc2cc(O)c(O)c(Br)c2)c1

>  <score_type>  (10) 
oracle

>  <origin>  (10) 
adgpu

>  <m_score__min__energy>  (10) 
-15.359999999999999

>  <m_primary>  (10) 
energy

$$$$
10:0
     RDKit          3D

 53 56  0  0  0  0  0  0  0  0999 V2000
   -9.4390   19.5340  -32.3980 C   0  0  0  0  0  0  0  0  0  0  0  0
   -8.3920   20.5500  -32.0320 C   0  0  0  0  0  0  0  0  0  0  0  0
   -8.7860   21.6550  -31.2590 C   0  0  0  0  0  0  0  0  0  0  0  0
   -7.8790   22.6600  -30.9280 C   0  0  0  0  0  0  0  0  0  0  0  0
   -6.5540   22.5960  -31.3760 C   0  0  0  0  0  0  0  0  0  0  0  0
   -5.6110   23.6790  -31.0170 C   0  0  0  0  0  0  0  0  0  0  0  0
   -5.7600   25.0410  -31.2120 C   0  0  0  0  0  0  0  0  0  0  0  0
   -4.6660   25.6740  -30.7430 N   0  0  0  0  0  0  0  0  0  0  0  0
   -3.8980   24.6650  -30.2870 C   0  0  0  0  0  0  0  0  0  0  0  0
   -2.7420   24.8660  -29.7310 N   0  0  0  0  0  0  0  0  0  0  0  0
   -1.8380   23.8550  -29.2550 C   0  0  0  0  0  0  0  0  0  0  0  0
   -1.2350   23.9210  -27.9820 C   0  0  0  0  0  0  0  0  0  0  0  0
   -0.3820   22.9010  -27.5530 C   0  0  0  0  0  0  0  0  0  0  0  0
   -0.1350   21.8000  -28.3760 C   0  0  0  0  0  0  0  0  0  0  0  0
   -0.7520   21.7090  -29.6310 C   0  0  0  0  0  0  0  0  0  0  0  0
   -0.5250   20.6110  -30.4560 O   0  0  0  0  0  0  0  0  0  0  0  0
   -1.6060   22.7320  -30.0600 C   0  0  0  0  0  0  0  0  0  0  0  0
   -4.4510   23.4830  -30.4410 O   0  0  0  0  0  0  0  0  0  0  0  0
   -6.1530   21.5010  -32.1570 C   0  0  0  0  0  0  0  0  0  0  0  0
   -7.0440   20.4600  -32.4740 C   0  0  0  0  0  0  0  0  0  0  0  0
   -6.4050   19.1070  -33.4500 S   0  0  0  0  0  0  0  0  0  0  0  0
   -7.3140   17.9130  -33.3680 O   0  0  0  0  0  0  0  0  0  0  0  0
   -6.3850   19.5450  -34.8880 O   0  0  0  0  0  0  0  0  0  0  0  0
   -4.7750   18.6370  -33.0040 N   0  0  0  0  0  0  0  0  0  0  0  0
   -4.2600   19.3920  -31.8410 C   0  0  0  0  0  0  0  0  0  0  0  0
   -3.3330   20.5360  -32.2720 C   0  0  0  0  0  0  0  0  0  0  0  0
   -2.1440   20.0220  -32.9930 N   0  0  0  0  0  0  0  0  0  0  0  0
   -1.5790   21.0680  -33.8590 C   0  0  0  0  0  0  0  0  0  0  0  0
   -2.4010   18.7710  -33.7520 C   0  0  0  0  0  0  0  0  0  0  0  0
   -3.8720   18.6470  -34.1750 C   0  0  0  0  0  0  0  0  0  0  0  0
   -9.8753   19.1106  -31.4813 H   0  0  0  0  0  0  0  0  0  0  0  0
  -10.2292   20.0188  -32.9902 H   0  0  0  0  0  0  0  0  0  0  0  0
   -8.9782   18.7296  -32.9902 H   0  0  0  0  0  0  0  0  0  0  0  0
   -9.8265   21.7281  -30.9096 H   0  0  0  0  0  0  0  0  0  0  0  0
   -8.2063   23.5094  -30.3105 H   0  0  0  0  0  0  0  0  0  0  0  0
   -6.6306   25.5285  -31.6750 H   0  0  0  0  0  0  0  0  0  0  0  0
   -1.4370   24.7791  -27.3240 H   0  0  0  0  0  0  0  0  0  0  0  0
    0.0963   22.9653  -26.5645 H   0  0  0  0  0  0  0  0  0  0  0  0
    0.5445   21.0034  -28.0388 H   0  0  0  0  0  0  0  0  0  0  0  0
   -0.9480   20.5430  -31.3740 H   0  0  0  0  0  0  0  0  0  0  0  0
   -2.1002   22.6533  -31.0396 H   0  0  0  0  0  0  0  0  0  0  0  0
   -5.1189   21.4560  -32.5294 H   0  0  0  0  0  0  0  0  0  0  0  0
   -5.1103   19.8128  -31.2843 H   0  0  0  0  0  0  0  0  0  0  0  0
   -3.6807   18.6998  -31.2123 H   0  0  0  0  0  0  0  0  0  0  0  0
   -3.8877   21.2166  -32.9347 H   0  0  0  0  0  0  0  0  0  0  0  0
   -2.9909   21.0648  -31.3701 H   0  0  0  0  0  0  0  0  0  0  0  0
   -1.1479   21.8660  -33.2366 H   0  0  0  0  0  0  0  0  0  0  0  0
   -0.7930   20.6333  -34.4940 H   0  0  0  0  0  0  0  0  0  0  0  0
   -2.3735   21.4870  -34.4940 H   0  0  0  0  0  0  0  0  0  0  0  0
   -1.7706   18.7666  -34.6534 H   0  0  0  0  0  0  0  0  0  0  0  0
   -2.1631   17.9206  -33.0961 H   0  0  0  0  0  0  0  0  0  0  0  0
   -4.1316   19.5002  -34.8190 H   0  0  0  0  0  0  0  0  0  0  0  0
   -3.9965   17.6963  -34.7142 H   0  0  0  0  0  0  0  0  0  0  0  0
  1  2  1  0
  2  3  2  0
  3  4  1  0
  4  5  2  0
  5  6  1  0
  6  7  2  0
  7  8  1  0
  8  9  1  0
  9 10  2  3
 10 11  1  0
 11 12  2  0
 12 13  1  0
 13 14  2  0
 14 15  1  0
 15 16  1  0
 15 17  2  0
  9 18  1  0
  5 19  1  0
 19 20  2  0
 20 21  1  0
 21 22  2  0
 21 23  2  0
 21 24  1  0
 24 25  1  0
 25 26  1  0
 26 27  1  0
 27 28  1  0
 27 29  1  0
 29 30  1  0
 20  2  1  0
 30 24  1  0
 18  6  1  0
 17 11  1  0
  1 31  1  0
  1 32  1  0
  1 33  1  0
  3 34  1  0
  4 35  1  0
  7 36  1  0
 12 37  1  0
 13 38  1  0
 14 39  1  0
 16 40  1  0
 17 41  1  0
 19 42  1  0
 25 43  1  0
 25 44  1  0
 26 45  1  0
 26 46  1  0
 28 47  1  0
 28 48  1  0
 28 49  1  0
 29 50  1  0
 29 51  1  0
 30 52  1  0
 30 53  1  0
M  CHG  1   8  -1
M  END
>  <UniqueID>  (11) 
11

>  <SMILES>  (11) 
Cc1ccc(-c2c[n-]c(=Nc3cccc(O)c3)o2)cc1S(=O)(=O)N1CCN(C)CC1

>  <Energy>  (11) 
105.85037768156722

>  <Genealogy>  (11) 
Cc1ccc(-c2c[n-]c(=Nc3cccc(O)c3)o2)cc1S(=O)(=O)N1CCN(C)CC1 (protonated)
Cc1ccc(-c2c[n-]c(=Nc3cccc(O)c3)o2)cc1S(=O)(=O)N1CCN(C)CC1 (3D coordinates assigned)
Cc1ccc(-c2c[n-]c(=Nc3cccc(O)c3)o2)cc1S(=O)(=O)N1CCN(C)CC1 (nonaromatic ring conformer: 105.85037768156722 kcal/mol)

>  <smiles>  (11) 
Cc1ccc(-c2c[nH]c(=Nc3cccc(O)c3)o2)cc1S(=O)(=O)N1CCN(C)CC1

>  <score_type>  (11) 
oracle

>  <origin>  (11) 
adgpu

>  <m_score__min__energy>  (11) 
-11.25

>  <m_primary>  (11) 
energy

$$$$
11:0
     RDKit          3D

 33 35  0  0  0  0  0  0  0  0999 V2000
   -6.3160   16.0510  -33.8260 C   0  0  0  0  0  0  0  0  0  0  0  0
   -6.3730   17.3940  -33.1610 C   0  0  0  0  0  0  0  0  0  0  0  0
   -7.6180   18.0290  -32.9530 C   0  0  0  0  0  0  0  0  0  0  0  0
   -7.6630   19.3060  -32.3610 C   0  0  0  0  0  0  0  0  0  0  0  0
   -8.9730   20.0030  -32.1240 C   0  0  0  0  0  0  0  0  0  0  0  0
   -6.4810   19.8910  -32.0200 N   0  0  0  0  0  0  0  0  0  0  0  0
   -6.2270   21.0840  -31.4570 C   0  0  0  0  0  0  0  0  0  0  0  0
   -4.8460   21.1940  -31.3320 C   0  0  0  0  0  0  0  0  0  0  0  0
   -4.0940   22.3410  -30.7640 C   0  0  0  0  0  0  0  0  0  0  0  0
   -2.8600   22.1570  -30.1130 C   0  0  0  0  0  0  0  0  0  0  0  0
   -2.1680   23.2490  -29.5860 C   0  0  0  0  0  0  0  0  0  0  0  0
   -2.6910   24.5400  -29.6990 C   0  0  0  0  0  0  0  0  0  0  0  0
   -1.9850   25.6130  -29.1660 O   0  0  0  0  0  0  0  0  0  0  0  0
   -3.9220   24.7430  -30.3450 C   0  0  0  0  0  0  0  0  0  0  0  0
   -4.4730   26.0590  -30.4690 N   0  0  0  0  0  0  0  0  0  0  0  0
   -4.6160   23.6440  -30.8740 C   0  0  0  0  0  0  0  0  0  0  0  0
   -4.2510   20.0760  -31.8150 N   0  0  0  0  0  0  0  0  0  0  0  0
   -5.2850   19.3150  -32.2210 C   0  0  0  0  0  0  0  0  0  0  0  0
   -5.1830   18.0530  -32.8010 C   0  0  0  0  0  0  0  0  0  0  0  0
   -6.2826   15.2632  -33.0590 H   0  0  0  0  0  0  0  0  0  0  0  0
   -7.2092   15.9143  -34.4534 H   0  0  0  0  0  0  0  0  0  0  0  0
   -5.4145   15.9905  -34.4534 H   0  0  0  0  0  0  0  0  0  0  0  0
   -8.5498   17.5271  -33.2528 H   0  0  0  0  0  0  0  0  0  0  0  0
   -9.1482   20.0962  -31.0421 H   0  0  0  0  0  0  0  0  0  0  0  0
   -8.9430   21.0044  -32.5782 H   0  0  0  0  0  0  0  0  0  0  0  0
   -9.7867   19.4186  -32.5782 H   0  0  0  0  0  0  0  0  0  0  0  0
   -6.9719   21.8337  -31.1519 H   0  0  0  0  0  0  0  0  0  0  0  0
   -2.4377   21.1457  -30.0187 H   0  0  0  0  0  0  0  0  0  0  0  0
   -1.2048   23.0922  -29.0785 H   0  0  0  0  0  0  0  0  0  0  0  0
   -5.4330   26.2000  -30.8540 H   0  0  0  0  0  0  0  0  0  0  0  0
   -3.9320   26.9040  -30.1800 H   0  0  0  0  0  0  0  0  0  0  0  0
   -5.5794   23.8024  -31.3807 H   0  0  0  0  0  0  0  0  0  0  0  0
   -4.2021   17.5856  -32.9725 H   0  0  0  0  0  0  0  0  0  0  0  0
  1  2  1  0
  2  3  1  0
  3  4  2  0
  4  5  1  0
  4  6  1  0
  6  7  1  0
  7  8  2  0
  8  9  1  0
  9 10  2  0
 10 11  1  0
 11 12  2  0
 12 13  1  0
 12 14  1  0
 14 15  1  0
 14 16  2  0
  8 17  1  0
 17 18  2  0
 18 19  1  0
 19  2  2  0
 18  6  1  0
 16  9  1  0
  1 20  1  0
  1 21  1  0
  1 22  1  0
  3 23  1  0
  5 24  1  0
  5 25  1  0
  5 26  1  0
  7 27  1  0
 10 28  1  0
 11 29  1  0
 15 30  1  0
 15 31  1  0
 16 32  1  0
 19 33  1  0
M  CHG  1  13  -1
M  END
>  <UniqueID>  (12) 
12

>  <SMILES>  (12) 
Cc1cc(C)n2cc(-c3ccc([O-])c(N)c3)nc2c1

>  <Energy>  (12) 
69.79771531143454

>  <Genealogy>  (12) 
Cc1cc(C)n2cc(-c3ccc([O-])c(N)c3)nc2c1 (protonated)
Cc1cc(C)n2cc(-c3ccc([O-])c(N)c3)nc2c1 (3D coordinates assigned)
Cc1cc(C)n2cc(-c3ccc([O-])c(N)c3)nc2c1 (optimized conformer: 69.79771531143454 kcal/mol)

>  <smiles>  (12) 
Cc1cc(C)n2cc(-c3ccc(O)c(N)c3)nc2c1

>  <score_type>  (12) 
oracle

>  <origin>  (12) 
adgpu

>  <m_score__min__energy>  (12) 
-10.279999999999999

>  <m_primary>  (12) 
energy

$$$$
12:0
     RDKit          3D

 54 57  0  0  0  0  0  0  0  0999 V2000
    0.9789   19.8887  -35.4643 H   0  0  0  0  0  0  0  0  0  0  0  0
    0.0450   19.8840  -34.8830 C   0  0  0  0  0  0  0  0  0  0  0  0
   -0.5190   21.0840  -34.4460 C   0  0  0  0  0  0  0  0  0  0  0  0
    0.1170   22.2950  -34.7340 O   0  0  0  0  0  0  0  0  0  0  0  0
    1.1420   22.4050  -35.7180 C   0  0  0  0  0  0  0  0  0  0  0  0
    2.1177   22.5097  -35.2210 H   0  0  0  0  0  0  0  0  0  0  0  0
    1.1456   21.5021  -36.3463 H   0  0  0  0  0  0  0  0  0  0  0  0
    0.9539   23.2881  -36.3463 H   0  0  0  0  0  0  0  0  0  0  0  0
   -1.6800   21.0610  -33.7350 N   0  0  0  0  0  0  0  0  0  0  0  0
   -2.3230   19.8990  -33.4220 C   0  0  0  0  0  0  0  0  0  0  0  0
   -3.4080   19.9060  -32.7040 N   0  0  0  0  0  0  0  0  0  0  0  0
   -4.1010   21.0840  -32.2700 C   0  0  0  0  0  0  0  0  0  0  0  0
   -5.4410   21.1270  -32.1260 N   0  0  0  0  0  0  0  0  0  0  0  0
   -5.8740   22.3480  -31.7010 C   0  0  0  0  0  0  0  0  0  0  0  0
   -7.3140   22.6130  -31.5110 C   0  0  0  0  0  0  0  0  0  0  0  0
   -8.0300   21.8160  -30.8510 O   0  0  0  0  0  0  0  0  0  0  0  0
   -7.9080   23.7960  -32.0520 N   0  0  0  0  0  0  0  0  0  0  0  0
   -7.3520   24.4680  -32.6270 H   0  0  0  0  0  0  0  0  0  0  0  0
   -8.9210   23.9960  -31.8880 H   0  0  0  0  0  0  0  0  0  0  0  0
   -4.8490   23.2930  -31.5250 C   0  0  0  0  0  0  0  0  0  0  0  0
   -4.9490   24.6500  -30.9610 C   0  0  0  0  0  0  0  0  0  0  0  0
   -5.9820   25.3300  -31.1840 O   0  0  0  0  0  0  0  0  0  0  0  0
   -3.8900   25.2250  -30.1870 N   0  0  0  0  0  0  0  0  0  0  0  0
   -3.0860   24.5240  -29.2260 C   0  0  0  0  0  0  0  0  0  0  0  0
   -3.5570   23.3680  -28.5770 C   0  0  0  0  0  0  0  0  0  0  0  0
   -4.5655   22.9882  -28.7975 H   0  0  0  0  0  0  0  0  0  0  0  0
   -2.7490   22.7010  -27.6540 C   0  0  0  0  0  0  0  0  0  0  0  0
   -3.1333   21.8122  -27.1322 H   0  0  0  0  0  0  0  0  0  0  0  0
   -1.4510   23.1580  -27.3890 C   0  0  0  0  0  0  0  0  0  0  0  0
   -0.4280   22.3090  -26.2240 S   0  0  0  0  0  0  0  0  0  0  0  0
    1.0040   22.7120  -26.4440 O   0  0  0  0  0  0  0  0  0  0  0  0
   -0.8190   22.7270  -24.8350 O   0  0  0  0  0  0  0  0  0  0  0  0
   -0.5540   20.5700  -26.3530 N   0  0  0  0  0  0  0  0  0  0  0  0
   -0.3130   20.1010  -27.7160 C   0  0  0  0  0  0  0  0  0  0  0  0
   -0.7092   20.8251  -28.4431 H   0  0  0  0  0  0  0  0  0  0  0  0
    0.7631   19.9881  -27.9143 H   0  0  0  0  0  0  0  0  0  0  0  0
   -1.0400   18.7720  -27.8480 C   0  0  0  0  0  0  0  0  0  0  0  0
   -1.5337   18.6990  -28.8283 H   0  0  0  0  0  0  0  0  0  0  0  0
   -0.3498   17.9187  -27.7740 H   0  0  0  0  0  0  0  0  0  0  0  0
   -2.0740   18.7640  -26.7280 C   0  0  0  0  0  0  0  0  0  0  0  0
   -3.0902   18.6902  -27.1425 H   0  0  0  0  0  0  0  0  0  0  0  0
   -1.9415   17.9047  -26.0542 H   0  0  0  0  0  0  0  0  0  0  0  0
   -1.8900   20.0880  -26.0010 C   0  0  0  0  0  0  0  0  0  0  0  0
   -2.6531   20.8102  -26.3267 H   0  0  0  0  0  0  0  0  0  0  0  0
   -1.9955   19.9638  -24.9131 H   0  0  0  0  0  0  0  0  0  0  0  0
   -0.9750   24.3010  -28.0480 C   0  0  0  0  0  0  0  0  0  0  0  0
    0.0402   24.6703  -27.8408 H   0  0  0  0  0  0  0  0  0  0  0  0
   -1.7870   24.9730  -28.9680 C   0  0  0  0  0  0  0  0  0  0  0  0
   -1.4012   25.8601  -29.4917 H   0  0  0  0  0  0  0  0  0  0  0  0
   -3.3850   22.5680  -31.9220 S   0  0  0  0  0  0  0  0  0  0  0  0
   -1.7730   18.6790  -33.8350 C   0  0  0  0  0  0  0  0  0  0  0  0
   -2.2694   17.7313  -33.5791 H   0  0  0  0  0  0  0  0  0  0  0  0
   -0.5880   18.6770  -34.5750 C   0  0  0  0  0  0  0  0  0  0  0  0
   -0.1534   17.7254  -34.9151 H   0  0  0  0  0  0  0  0  0  0  0  0
  1  2  1  0
  2  3  2  0
  3  4  1  0
  4  5  1  0
  5  6  1  0
  5  7  1  0
  5  8  1  0
  3  9  1  0
  9 10  1  0
 10 11  2  0
 11 12  1  0
 12 13  2  0
 13 14  1  0
 14 15  1  0
 15 16  2  0
 15 17  1  0
 17 18  1  0
 17 19  1  0
 14 20  2  0
 20 21  1  0
 21 22  2  0
 21 23  1  0
 23 24  1  0
 24 25  2  0
 25 26  1  0
 25 27  1  0
 27 28  1  0
 27 29  2  0
 29 30  1  0
 30 31  2  0
 30 32  2  0
 30 33  1  0
 33 34  1  0
 34 35  1  0
 34 36  1  0
 34 37  1  0
 37 38  1  0
 37 39  1  0
 37 40  1  0
 40 41  1  0
 40 42  1  0
 40 43  1  0
 43 44  1  0
 43 45  1  0
 29 46  1  0
 46 47  1  0
 46 48  2  0
 48 49  1  0
 20 50  1  0
 10 51  1  0
 51 52  1  0
 51 53  2  0
 53 54  1  0
 53  2  1  0
 50 12  1  0
 48 24  1  0
 43 33  1  0
M  CHG  2   9  -1  23  -1
M  END
>  <UniqueID>  (13) 
13

>  <SMILES>  (13) 
COc1ccc/c(=N/c2nc(C(N)=O)c(C(=O)[N-]c3ccc(S(=O)(=O)N4CCCC4)cc3)s2)[n-]1

>  <Energy>  (13) 
98.400363098169

>  <Genealogy>  (13) 
COc1cccc(=Nc2nc(C(N)=O)c(C(=O)[N-]c3ccc(S(=O)(=O)N4CCCC4)cc3)s2)[n-]1 (protonated)
COc1ccc/c(=N/c2nc(C(N)=O)c(C(=O)[N-]c3ccc(S(=O)(=O)N4CCCC4)cc3)s2)[n-]1 (cis-trans isomerization)
COc1ccc/c(=N/c2nc(C(N)=O)c(C(=O)[N-]c3ccc(S(=O)(=O)N4CCCC4)cc3)s2)[n-]1 (3D coordinates assigned)
COc1ccc/c(=N/c2nc(C(N)=O)c(C(=O)[N-]c3ccc(S(=O)(=O)N4CCCC4)cc3)s2)[n-]1 (nonaromatic ring conformer: 98.400363098169 kcal/mol)

>  <smiles>  (13) 
COc1cccc(=Nc2nc(C(N)=O)c(C(=O)Nc3ccc(S(=O)(=O)N4CCCC4)cc3)s2)[nH]1

>  <score_type>  (13) 
oracle

>  <origin>  (13) 
adgpu

>  <m_score__min__energy>  (13) 
-12.449999999999999

>  <m_primary>  (13) 
energy

$$$$
13:0
     RDKit          3D

 36 38  0  0  0  0  0  0  0  0999 V2000
   -6.4290   18.0350  -33.5210 C   0  0  0  0  0  0  0  0  0  0  0  0
   -6.7430   19.3860  -33.8440 O   0  0  0  0  0  0  0  0  0  0  0  0
   -7.1090   20.3640  -32.9070 C   0  0  0  0  0  0  0  0  0  0  0  0
   -6.1720   21.2560  -32.3470 C   0  0  0  0  0  0  0  0  0  0  0  0
   -6.5770   22.2230  -31.4110 C   0  0  0  0  0  0  0  0  0  0  0  0
   -5.5960   23.1580  -30.8250 C   0  0  0  0  0  0  0  0  0  0  0  0
   -5.1790   23.1150  -29.5440 N   0  0  0  0  0  0  0  0  0  0  0  0
   -4.3090   24.1470  -29.5010 C   0  0  0  0  0  0  0  0  0  0  0  0
   -3.5480   24.5520  -28.2920 C   0  0  0  0  0  0  0  0  0  0  0  0
   -4.2510   24.8670  -27.1130 C   0  0  0  0  0  0  0  0  0  0  0  0
   -3.5700   25.2520  -25.9580 C   0  0  0  0  0  0  0  0  0  0  0  0
   -2.1790   25.3280  -25.9590 C   0  0  0  0  0  0  0  0  0  0  0  0
   -1.4620   25.0200  -27.1150 C   0  0  0  0  0  0  0  0  0  0  0  0
   -2.1320   24.6290  -28.2930 C   0  0  0  0  0  0  0  0  0  0  0  0
   -1.4230   24.3170  -29.4640 O   0  0  0  0  0  0  0  0  0  0  0  0
   -0.8880   23.0340  -29.7760 C   0  0  0  0  0  0  0  0  0  0  0  0
   -4.2100   24.7740  -30.6920 N   0  0  0  0  0  0  0  0  0  0  0  0
   -5.0180   24.1340  -31.4810 O   0  0  0  0  0  0  0  0  0  0  0  0
   -7.9270   22.2950  -31.0360 C   0  0  0  0  0  0  0  0  0  0  0  0
   -8.8580   21.4130  -31.5880 C   0  0  0  0  0  0  0  0  0  0  0  0
   -8.4540   20.4500  -32.5220 C   0  0  0  0  0  0  0  0  0  0  0  0
   -9.3850   19.5710  -33.0710 O   0  0  0  0  0  0  0  0  0  0  0  0
   -6.4014   17.9163  -32.4278 H   0  0  0  0  0  0  0  0  0  0  0  0
   -7.1964   17.3693  -33.9429 H   0  0  0  0  0  0  0  0  0  0  0  0
   -5.4467   17.7759  -33.9429 H   0  0  0  0  0  0  0  0  0  0  0  0
   -5.1149   21.1947  -32.6451 H   0  0  0  0  0  0  0  0  0  0  0  0
   -5.3494   24.8088  -27.1028 H   0  0  0  0  0  0  0  0  0  0  0  0
   -4.1324   25.4960  -25.0447 H   0  0  0  0  0  0  0  0  0  0  0  0
   -1.6451   25.6315  -25.0464 H   0  0  0  0  0  0  0  0  0  0  0  0
   -0.3638   25.0826  -27.1080 H   0  0  0  0  0  0  0  0  0  0  0  0
   -0.6629   22.4942  -28.8444 H   0  0  0  0  0  0  0  0  0  0  0  0
   -1.6230   22.4629  -30.3623 H   0  0  0  0  0  0  0  0  0  0  0  0
    0.0349   23.1543  -30.3623 H   0  0  0  0  0  0  0  0  0  0  0  0
   -8.2531   23.0490  -30.3045 H   0  0  0  0  0  0  0  0  0  0  0  0
   -9.9145   21.4745  -31.2879 H   0  0  0  0  0  0  0  0  0  0  0  0
   -9.1460   18.9570  -33.8420 H   0  0  0  0  0  0  0  0  0  0  0  0
  1  2  1  0
  2  3  1  0
  3  4  2  0
  4  5  1  0
  5  6  1  0
  6  7  2  0
  7  8  1  0
  8  9  1  0
  9 10  2  0
 10 11  1  0
 11 12  2  0
 12 13  1  0
 13 14  2  0
 14 15  1  0
 15 16  1  0
  8 17  2  0
 17 18  1  0
  5 19  2  0
 19 20  1  0
 20 21  2  0
 21 22  1  0
 21  3  1  0
 18  6  1  0
 14  9  1  0
  1 23  1  0
  1 24  1  0
  1 25  1  0
  4 26  1  0
 10 27  1  0
 11 28  1  0
 12 29  1  0
 13 30  1  0
 16 31  1  0
 16 32  1  0
 16 33  1  0
 19 34  1  0
 20 35  1  0
 22 36  1  0
M  END
>  <UniqueID>  (14) 
14

>  <SMILES>  (14) 
COc1cc(-c2nc(-c3ccccc3OC)no2)ccc1O

>  <Energy>  (14) 
72.32722304382524

>  <Genealogy>  (14) 
COc1cc(-c2nc(-c3ccccc3OC)no2)ccc1O (3D coordinates assigned)
COc1cc(-c2nc(-c3ccccc3OC)no2)ccc1O (optimized conformer: 72.32722304382524 kcal/mol)

>  <smiles>  (14) 
COc1cc(-c2nc(-c3ccccc3OC)no2)ccc1O

>  <score_type>  (14) 
oracle

>  <origin>  (14) 
adgpu

>  <m_score__min__energy>  (14) 
-7.4800000000000004

>  <m_primary>  (14) 
energy

$$$$
14:0
     RDKit          3D

 49 52  0  0  0  0  0  0  0  0999 V2000
   -3.3330   20.9130  -33.0370 C   0  0  0  0  0  0  0  0  0  0  0  0
   -4.1610   21.0680  -31.8910 O   0  0  0  0  0  0  0  0  0  0  0  0
   -4.8760   22.2350  -31.5720 C   0  0  0  0  0  0  0  0  0  0  0  0
   -4.2150   23.4240  -31.2010 C   0  0  0  0  0  0  0  0  0  0  0  0
   -4.9430   24.5600  -30.8390 C   0  0  0  0  0  0  0  0  0  0  0  0
   -4.2680   25.7230  -30.4740 O   0  0  0  0  0  0  0  0  0  0  0  0
   -6.3410   24.5210  -30.8420 C   0  0  0  0  0  0  0  0  0  0  0  0
   -7.0080   23.3540  -31.2140 C   0  0  0  0  0  0  0  0  0  0  0  0
   -6.2890   22.2090  -31.5980 C   0  0  0  0  0  0  0  0  0  0  0  0
   -7.0400   20.9940  -31.9930 C   0  0  0  0  0  0  0  0  0  0  0  0
   -8.3920   20.8290  -31.6670 C   0  0  0  0  0  0  0  0  0  0  0  0
   -9.0330   19.6540  -32.0510 C   0  0  0  0  0  0  0  0  0  0  0  0
   -8.3450   18.6910  -32.7160 N   0  0  0  0  0  0  0  0  0  0  0  0
   -7.0270   18.8470  -33.0170 C   0  0  0  0  0  0  0  0  0  0  0  0
   -6.3070   17.8140  -33.7190 N   0  0  0  0  0  0  0  0  0  0  0  0
   -5.0440   18.1490  -34.3940 C   0  0  0  0  0  0  0  0  0  0  0  0
   -4.5820   17.0310  -35.3350 C   0  0  0  0  0  0  0  0  0  0  0  0
   -4.6360   15.7260  -34.6620 N   0  0  0  0  0  0  0  0  0  0  0  0
   -3.6830   14.6930  -35.0000 C   0  0  0  0  0  0  0  0  0  0  0  0
   -2.7980   14.8570  -36.0830 C   0  0  0  0  0  0  0  0  0  0  0  0
   -1.8800   13.8540  -36.4080 C   0  0  0  0  0  0  0  0  0  0  0  0
   -1.8360   12.6750  -35.6600 C   0  0  0  0  0  0  0  0  0  0  0  0
   -2.7100   12.4970  -34.5870 C   0  0  0  0  0  0  0  0  0  0  0  0
   -3.6300   13.4970  -34.2560 C   0  0  0  0  0  0  0  0  0  0  0  0
   -5.7450   15.4160  -33.7450 C   0  0  0  0  0  0  0  0  0  0  0  0
   -6.8640   16.4590  -33.8360 C   0  0  0  0  0  0  0  0  0  0  0  0
   -6.3910   19.9940  -32.6480 N   0  0  0  0  0  0  0  0  0  0  0  0
   -2.2982   20.7193  -32.7182 H   0  0  0  0  0  0  0  0  0  0  0  0
   -3.6955   20.0671  -33.6396 H   0  0  0  0  0  0  0  0  0  0  0  0
   -3.3650   21.8327  -33.6396 H   0  0  0  0  0  0  0  0  0  0  0  0
   -3.1155   23.4574  -31.1966 H   0  0  0  0  0  0  0  0  0  0  0  0
   -4.6540   26.3710  -29.7990 H   0  0  0  0  0  0  0  0  0  0  0  0
   -6.9156   25.4125  -30.5504 H   0  0  0  0  0  0  0  0  0  0  0  0
   -8.1077   23.3295  -31.2068 H   0  0  0  0  0  0  0  0  0  0  0  0
   -8.9365   21.6118  -31.1187 H   0  0  0  0  0  0  0  0  0  0  0  0
  -10.0972   19.5060  -31.8154 H   0  0  0  0  0  0  0  0  0  0  0  0
   -5.1873   19.0693  -34.9793 H   0  0  0  0  0  0  0  0  0  0  0  0
   -4.2718   18.2845  -33.6224 H   0  0  0  0  0  0  0  0  0  0  0  0
   -5.2379   17.0088  -36.2178 H   0  0  0  0  0  0  0  0  0  0  0  0
   -3.5425   17.2300  -35.6348 H   0  0  0  0  0  0  0  0  0  0  0  0
   -2.8293   15.7817  -36.6780 H   0  0  0  0  0  0  0  0  0  0  0  0
   -1.1911   13.9934  -37.2542 H   0  0  0  0  0  0  0  0  0  0  0  0
   -1.1125   11.8872  -35.9168 H   0  0  0  0  0  0  0  0  0  0  0  0
   -2.6753   11.5675  -33.9998 H   0  0  0  0  0  0  0  0  0  0  0  0
   -4.3167   13.3492  -33.4095 H   0  0  0  0  0  0  0  0  0  0  0  0
   -6.1559   14.4289  -34.0033 H   0  0  0  0  0  0  0  0  0  0  0  0
   -5.3525   15.4229  -32.7174 H   0  0  0  0  0  0  0  0  0  0  0  0
   -7.3757   16.3591  -34.8046 H   0  0  0  0  0  0  0  0  0  0  0  0
   -7.5770   16.2924  -33.0151 H   0  0  0  0  0  0  0  0  0  0  0  0
  1  2  1  0
  2  3  1  0
  3  4  2  0
  4  5  1  0
  5  6  1  0
  5  7  2  0
  7  8  1  0
  8  9  2  0
  9 10  1  0
 10 11  2  0
 11 12  1  0
 12 13  2  0
 13 14  1  0
 14 15  1  0
 15 16  1  0
 16 17  1  0
 17 18  1  0
 18 19  1  0
 19 20  2  0
 20 21  1  0
 21 22  2  0
 22 23  1  0
 23 24  2  0
 18 25  1  0
 25 26  1  0
 14 27  2  0
  9  3  1  0
 27 10  1  0
 26 15  1  0
 24 19  1  0
  1 28  1  0
  1 29  1  0
  1 30  1  0
  4 31  1  0
  6 32  1  0
  7 33  1  0
  8 34  1  0
 11 35  1  0
 12 36  1  0
 16 37  1  0
 16 38  1  0
 17 39  1  0
 17 40  1  0
 20 41  1  0
 21 42  1  0
 22 43  1  0
 23 44  1  0
 24 45  1  0
 25 46  1  0
 25 47  1  0
 26 48  1  0
 26 49  1  0
M  END
>  <UniqueID>  (15) 
15

>  <SMILES>  (15) 
COc1cc(O)ccc1-c1ccnc(N2CCN(c3ccccc3)CC2)n1

>  <Energy>  (15) 
62.01132235675211

>  <Genealogy>  (15) 
COc1cc(O)ccc1-c1ccnc(N2CCN(c3ccccc3)CC2)n1 (3D coordinates assigned)
COc1cc(O)ccc1-c1ccnc(N2CCN(c3ccccc3)CC2)n1 (nonaromatic ring conformer: 62.01132235675211 kcal/mol)

>  <smiles>  (15) 
COc1cc(O)ccc1-c1ccnc(N2CCN(c3ccccc3)CC2)n1

>  <score_type>  (15) 
oracle

>  <origin>  (15) 
adgpu

>  <m_score__min__energy>  (15) 
-8.1400000000000006

>  <m_primary>  (15) 
energy

$$$$
15:0
     RDKit          3D

 28 29  0  0  0  0  0  0  0  0999 V2000
   -3.5680   21.8260  -33.8320 N   0  0  0  0  0  0  0  0  0  0  0  0
   -4.3310   21.2430  -32.7320 C   0  0  0  0  0  0  0  0  0  0  0  0
   -4.7700   22.3080  -31.7480 C   0  0  0  0  0  0  0  0  0  0  0  0
   -3.8270   23.2580  -31.3180 C   0  0  0  0  0  0  0  0  0  0  0  0
   -4.1640   24.2160  -30.3550 C   0  0  0  0  0  0  0  0  0  0  0  0
   -3.2300   25.1610  -29.9350 O   0  0  0  0  0  0  0  0  0  0  0  0
   -5.4450   24.2240  -29.8030 C   0  0  0  0  0  0  0  0  0  0  0  0
   -6.3900   23.2800  -30.2070 C   0  0  0  0  0  0  0  0  0  0  0  0
   -6.0690   22.3200  -31.1790 C   0  0  0  0  0  0  0  0  0  0  0  0
   -7.1060   21.3430  -31.5690 C   0  0  0  0  0  0  0  0  0  0  0  0
   -6.7990   19.9750  -31.6470 C   0  0  0  0  0  0  0  0  0  0  0  0
   -7.7790   19.0570  -32.0350 C   0  0  0  0  0  0  0  0  0  0  0  0
   -9.0660   19.4990  -32.3560 C   0  0  0  0  0  0  0  0  0  0  0  0
  -10.0150   18.6070  -32.7320 F   0  0  0  0  0  0  0  0  0  0  0  0
   -9.3720   20.8620  -32.2930 C   0  0  0  0  0  0  0  0  0  0  0  0
   -8.3950   21.7830  -31.9060 C   0  0  0  0  0  0  0  0  0  0  0  0
   -4.1980   22.4460  -34.3900 H   0  0  0  0  0  0  0  0  0  0  0  0
   -3.2430   21.0560  -34.4630 H   0  0  0  0  0  0  0  0  0  0  0  0
   -5.2212   20.7408  -33.1387 H   0  0  0  0  0  0  0  0  0  0  0  0
   -3.6883   20.5231  -32.2040 H   0  0  0  0  0  0  0  0  0  0  0  0
   -2.8126   23.2482  -31.7434 H   0  0  0  0  0  0  0  0  0  0  0  0
   -3.5000   26.1140  -29.7200 H   0  0  0  0  0  0  0  0  0  0  0  0
   -5.7112   24.9770  -29.0466 H   0  0  0  0  0  0  0  0  0  0  0  0
   -7.3950   23.2884  -29.7598 H   0  0  0  0  0  0  0  0  0  0  0  0
   -5.7853   19.6251  -31.4023 H   0  0  0  0  0  0  0  0  0  0  0  0
   -7.5373   17.9852  -32.0879 H   0  0  0  0  0  0  0  0  0  0  0  0
  -10.3838   21.2098  -32.5486 H   0  0  0  0  0  0  0  0  0  0  0  0
   -8.6370   22.8553  -31.8655 H   0  0  0  0  0  0  0  0  0  0  0  0
  1  2  1  0
  2  3  1  0
  3  4  2  0
  4  5  1  0
  5  6  1  0
  5  7  2  0
  7  8  1  0
  8  9  2  0
  9 10  1  0
 10 11  2  0
 11 12  1  0
 12 13  2  0
 13 14  1  0
 13 15  1  0
 15 16  2  0
  9  3  1  0
 16 10  1  0
  1 17  1  0
  1 18  1  0
  2 19  1  0
  2 20  1  0
  4 21  1  0
  6 22  1  0
  7 23  1  0
  8 24  1  0
 11 25  1  0
 12 26  1  0
 15 27  1  0
 16 28  1  0
M  END
>  <UniqueID>  (16) 
16

>  <SMILES>  (16) 
NCc1cc(O)ccc1-c1ccc(F)cc1

>  <Energy>  (16) 
35.51752073140471

>  <Genealogy>  (16) 
NCc1cc(O)ccc1-c1ccc(F)cc1 (3D coordinates assigned)
NCc1cc(O)ccc1-c1ccc(F)cc1 (optimized conformer: 35.51752073140471 kcal/mol)

>  <smiles>  (16) 
NCc1cc(O)ccc1-c1ccc(F)cc1

>  <score_type>  (16) 
oracle

>  <origin>  (16) 
adgpu

>  <m_score__min__energy>  (16) 
-7.5999999999999996

>  <m_primary>  (16) 
energy

$$$$
16:0
     RDKit          3D

 40 42  0  0  0  0  0  0  0  0999 V2000
   -2.4830   24.7040  -28.7230 C   0  0  0  0  0  0  0  0  0  0  0  0
   -3.3200   25.2880  -29.7170 O   0  0  0  0  0  0  0  0  0  0  0  0
   -4.4720   24.6810  -30.2440 C   0  0  0  0  0  0  0  0  0  0  0  0
   -5.7630   25.1730  -29.9800 C   0  0  0  0  0  0  0  0  0  0  0  0
   -6.8840   24.5440  -30.5230 C   0  0  0  0  0  0  0  0  0  0  0  0
   -6.7390   23.4180  -31.3490 C   0  0  0  0  0  0  0  0  0  0  0  0
   -7.9250   22.7320  -31.9160 C   0  0  0  0  0  0  0  0  0  0  0  0
   -8.9100   23.4260  -32.2900 O   0  0  0  0  0  0  0  0  0  0  0  0
   -7.9960   21.2570  -32.0590 C   0  0  0  0  0  0  0  0  0  0  0  0
   -9.0760   20.5260  -31.5460 C   0  0  0  0  0  0  0  0  0  0  0  0
   -9.1170   19.1800  -31.7100 N   0  0  0  0  0  0  0  0  0  0  0  0
   -8.1520   18.5260  -32.3560 N   0  0  0  0  0  0  0  0  0  0  0  0
   -7.0800   19.1710  -32.8930 C   0  0  0  0  0  0  0  0  0  0  0  0
   -6.0660   18.4270  -33.5980 N   0  0  0  0  0  0  0  0  0  0  0  0
   -6.2160   17.2280  -34.1920 C   0  0  0  0  0  0  0  0  0  0  0  0
   -5.0040   16.8520  -34.7240 C   0  0  0  0  0  0  0  0  0  0  0  0
   -4.0860   17.8040  -34.4740 N   0  0  0  0  0  0  0  0  0  0  0  0
   -4.7630   18.7500  -33.7880 C   0  0  0  0  0  0  0  0  0  0  0  0
   -4.1110   20.0120  -33.3130 C   0  0  0  0  0  0  0  0  0  0  0  0
   -6.9950   20.5640  -32.7520 C   0  0  0  0  0  0  0  0  0  0  0  0
   -5.4510   22.9170  -31.5990 C   0  0  0  0  0  0  0  0  0  0  0  0
   -4.3150   23.5470  -31.0540 C   0  0  0  0  0  0  0  0  0  0  0  0
   -3.0140   23.0750  -31.2950 O   0  0  0  0  0  0  0  0  0  0  0  0
   -2.5170   21.8160  -30.8560 C   0  0  0  0  0  0  0  0  0  0  0  0
   -2.8610   24.9677  -27.7242 H   0  0  0  0  0  0  0  0  0  0  0  0
   -2.4848   23.6101  -28.8386 H   0  0  0  0  0  0  0  0  0  0  0  0
   -1.4569   25.0832  -28.8386 H   0  0  0  0  0  0  0  0  0  0  0  0
   -5.8898   26.0595  -29.3412 H   0  0  0  0  0  0  0  0  0  0  0  0
   -7.8888   24.9333  -30.3022 H   0  0  0  0  0  0  0  0  0  0  0  0
   -9.8877   21.0419  -31.0122 H   0  0  0  0  0  0  0  0  0  0  0  0
   -7.1490   16.6476  -34.2433 H   0  0  0  0  0  0  0  0  0  0  0  0
   -4.8143   15.9162  -35.2702 H   0  0  0  0  0  0  0  0  0  0  0  0
   -4.1024   20.0287  -32.2132 H   0  0  0  0  0  0  0  0  0  0  0  0
   -3.0780   20.0548  -33.6885 H   0  0  0  0  0  0  0  0  0  0  0  0
   -4.6738   20.8793  -33.6885 H   0  0  0  0  0  0  0  0  0  0  0  0
   -6.1443   21.1110  -33.1846 H   0  0  0  0  0  0  0  0  0  0  0  0
   -5.3279   22.0226  -32.2274 H   0  0  0  0  0  0  0  0  0  0  0  0
   -2.5064   21.7892  -29.7564 H   0  0  0  0  0  0  0  0  0  0  0  0
   -3.1656   21.0130  -31.2361 H   0  0  0  0  0  0  0  0  0  0  0  0
   -1.4948   21.6726  -31.2361 H   0  0  0  0  0  0  0  0  0  0  0  0
  1  2  1  0
  2  3  1  0
  3  4  2  0
  4  5  1  0
  5  6  2  0
  6  7  1  0
  7  8  2  0
  7  9  1  0
  9 10  2  0
 10 11  1  0
 11 12  2  0
 12 13  1  0
 13 14  1  0
 14 15  1  0
 15 16  2  0
 16 17  1  0
 17 18  2  0
 18 19  1  0
 13 20  2  0
  6 21  1  0
 21 22  2  0
 22 23  1  0
 23 24  1  0
 22  3  1  0
 20  9  1  0
 18 14  1  0
  1 25  1  0
  1 26  1  0
  1 27  1  0
  4 28  1  0
  5 29  1  0
 10 30  1  0
 15 31  1  0
 16 32  1  0
 19 33  1  0
 19 34  1  0
 19 35  1  0
 20 36  1  0
 21 37  1  0
 24 38  1  0
 24 39  1  0
 24 40  1  0
M  END
>  <UniqueID>  (17) 
17

>  <SMILES>  (17) 
COc1ccc(C(=O)c2cnnc(-n3ccnc3C)c2)cc1OC

>  <Energy>  (17) 
80.66258360672718

>  <Genealogy>  (17) 
COc1ccc(C(=O)c2cnnc(-n3ccnc3C)c2)cc1OC (3D coordinates assigned)
COc1ccc(C(=O)c2cnnc(-n3ccnc3C)c2)cc1OC (optimized conformer: 80.66258360672718 kcal/mol)

>  <smiles>  (17) 
COc1ccc(C(=O)c2cnnc(-n3ccnc3C)c2)cc1OC

>  <score_type>  (17) 
oracle

>  <origin>  (17) 
adgpu

>  <m_score__min__energy>  (17) 
-8.7599999999999998

>  <m_primary>  (17) 
energy

$$$$
17:0
     RDKit          3D

 57 60  0  0  0  0  0  0  0  0999 V2000
   -5.6588   24.7917  -32.3273 H   0  0  0  0  0  0  0  0  0  0  0  0
   -6.1190   24.1320  -31.5770 C   0  0  0  0  0  0  0  0  0  0  0  0
   -7.2790   23.4230  -31.8950 C   0  0  0  0  0  0  0  0  0  0  0  0
   -7.7340   23.5357  -32.8901 H   0  0  0  0  0  0  0  0  0  0  0  0
   -7.8660   22.5690  -30.9530 C   0  0  0  0  0  0  0  0  0  0  0  0
   -9.3260   21.6820  -31.3760 S   0  0  0  0  0  0  0  0  0  0  0  0
  -10.3640   21.9210  -30.3170 O   0  0  0  0  0  0  0  0  0  0  0  0
   -9.8460   22.1430  -32.7090 O   0  0  0  0  0  0  0  0  0  0  0  0
   -8.9440   19.9920  -31.4670 N   0  0  0  0  0  0  0  0  0  0  0  0
   -8.0270   19.4970  -32.2410 C   0  0  0  0  0  0  0  0  0  0  0  0
   -7.2820   20.2990  -33.0510 N   0  0  0  0  0  0  0  0  0  0  0  0
   -6.3360   19.7990  -33.8510 N   0  0  0  0  0  0  0  0  0  0  0  0
   -6.0740   18.4670  -33.8910 C   0  0  0  0  0  0  0  0  0  0  0  0
   -4.8280   17.8520  -34.9550 Cl  0  0  0  0  0  0  0  0  0  0  0  0
   -6.8050   17.5990  -33.0810 C   0  0  0  0  0  0  0  0  0  0  0  0
   -6.6047   16.5176  -33.1005 H   0  0  0  0  0  0  0  0  0  0  0  0
   -7.7930   18.1190  -32.2460 C   0  0  0  0  0  0  0  0  0  0  0  0
   -8.3816   17.4524  -31.5985 H   0  0  0  0  0  0  0  0  0  0  0  0
   -7.2740   22.4200  -29.6910 C   0  0  0  0  0  0  0  0  0  0  0  0
   -7.7231   21.7414  -28.9509 H   0  0  0  0  0  0  0  0  0  0  0  0
   -6.1140   23.1320  -29.3710 C   0  0  0  0  0  0  0  0  0  0  0  0
   -5.6513   23.0048  -28.3812 H   0  0  0  0  0  0  0  0  0  0  0  0
   -5.5350   24.0080  -30.3030 C   0  0  0  0  0  0  0  0  0  0  0  0
   -4.3330   24.7150  -29.9570 N   0  0  0  0  0  0  0  0  0  0  0  0
   -4.3800   25.7550  -29.8660 H   0  0  0  0  0  0  0  0  0  0  0  0
   -3.0680   24.0700  -29.7470 C   0  0  0  0  0  0  0  0  0  0  0  0
   -1.8770   24.8970  -28.9780 S   0  0  0  0  0  0  0  0  0  0  0  0
   -2.7520   22.8650  -30.4590 N   0  0  0  0  0  0  0  0  0  0  0  0
   -3.1660   22.7420  -31.4110 H   0  0  0  0  0  0  0  0  0  0  0  0
   -1.9290   21.8100  -29.9340 C   0  0  0  0  0  0  0  0  0  0  0  0
   -2.1170   21.3840  -28.6100 C   0  0  0  0  0  0  0  0  0  0  0  0
   -2.9078   21.8406  -27.9967 H   0  0  0  0  0  0  0  0  0  0  0  0
   -1.3070   20.3840  -28.0650 C   0  0  0  0  0  0  0  0  0  0  0  0
   -1.4726   20.0470  -27.0311 H   0  0  0  0  0  0  0  0  0  0  0  0
   -0.2840   19.8090  -28.8320 C   0  0  0  0  0  0  0  0  0  0  0  0
    0.7330   18.5340  -28.1630 S   0  0  0  0  0  0  0  0  0  0  0  0
   -0.0420   17.7530  -27.1360 O   0  0  0  0  0  0  0  0  0  0  0  0
    1.9070   19.1770  -27.4780 O   0  0  0  0  0  0  0  0  0  0  0  0
    1.3120   17.4780  -29.4370 N   0  0  0  0  0  0  0  0  0  0  0  0
    0.7880   17.7550  -30.3000 H   0  0  0  0  0  0  0  0  0  0  0  0
    0.9920   16.0620  -29.1630 C   0  0  0  0  0  0  0  0  0  0  0  0
   -0.0639   15.9891  -28.8635 H   0  0  0  0  0  0  0  0  0  0  0  0
    1.1887   15.4879  -30.0804 H   0  0  0  0  0  0  0  0  0  0  0  0
    1.8720   15.4710  -28.0350 C   0  0  0  0  0  0  0  0  0  0  0  0
    1.2782   15.4435  -27.1094 H   0  0  0  0  0  0  0  0  0  0  0  0
    2.1847   14.4685  -28.3626 H   0  0  0  0  0  0  0  0  0  0  0  0
    3.0530   16.2130  -27.7870 O   0  0  0  0  0  0  0  0  0  0  0  0
    3.6390   16.6220  -29.0030 C   0  0  0  0  0  0  0  0  0  0  0  0
    4.6308   17.0525  -28.8005 H   0  0  0  0  0  0  0  0  0  0  0  0
    3.7337   15.7484  -29.6647 H   0  0  0  0  0  0  0  0  0  0  0  0
    2.7590   17.6790  -29.6950 C   0  0  0  0  0  0  0  0  0  0  0  0
    3.0475   18.6739  -29.3249 H   0  0  0  0  0  0  0  0  0  0  0  0
    2.9190   17.5859  -30.7793 H   0  0  0  0  0  0  0  0  0  0  0  0
   -0.0830   20.2390  -30.1490 C   0  0  0  0  0  0  0  0  0  0  0  0
    0.7160   19.7887  -30.7563 H   0  0  0  0  0  0  0  0  0  0  0  0
   -0.8940   21.2390  -30.6960 C   0  0  0  0  0  0  0  0  0  0  0  0
   -0.7213   21.5804  -31.7273 H   0  0  0  0  0  0  0  0  0  0  0  0
  1  2  1  0
  2  3  2  0
  3  4  1  0
  3  5  1  0
  5  6  1  0
  6  7  2  0
  6  8  2  0
  6  9  1  0
  9 10  2  0
 10 11  1  0
 11 12  1  0
 12 13  2  0
 13 14  1  0
 13 15  1  0
 15 16  1  0
 15 17  2  0
 17 18  1  0
  5 19  2  0
 19 20  1  0
 19 21  1  0
 21 22  1  0
 21 23  2  0
 23 24  1  0
 24 25  1  0
 24 26  1  0
 26 27  2  0
 26 28  1  0
 28 29  1  0
 28 30  1  0
 30 31  2  0
 31 32  1  0
 31 33  1  0
 33 34  1  0
 33 35  2  0
 35 36  1  0
 36 37  2  0
 36 38  2  0
 36 39  1  0
 39 40  1  0
 39 41  1  0
 41 42  1  0
 41 43  1  0
 41 44  1  0
 44 45  1  0
 44 46  1  0
 44 47  1  0
 47 48  1  0
 48 49  1  0
 48 50  1  0
 48 51  1  0
 51 52  1  0
 51 53  1  0
 35 54  1  0
 54 55  1  0
 54 56  2  0
 56 57  1  0
 23  2  1  0
 56 30  1  0
 17 10  1  0
 51 39  1  0
M  CHG  2  11  -1  39   1
M  END
>  <UniqueID>  (18) 
18

>  <SMILES>  (18) 
O=S(=O)(/N=c1/ccc(Cl)n[n-]1)c1ccc(NC(=S)Nc2ccc(S(=O)(=O)[NH+]3CCOCC3)cc2)cc1

>  <Energy>  (18) 
83.64203375714847

>  <Genealogy>  (18) 
O=S(=O)(N=c1ccc(Cl)n[n-]1)c1ccc(NC(=S)Nc2ccc(S(=O)(=O)[NH+]3CCOCC3)cc2)cc1 (protonated)
O=S(=O)(/N=c1/ccc(Cl)n[n-]1)c1ccc(NC(=S)Nc2ccc(S(=O)(=O)[NH+]3CCOCC3)cc2)cc1 (cis-trans isomerization)
O=S(=O)(/N=c1/ccc(Cl)n[n-]1)c1ccc(NC(=S)Nc2ccc(S(=O)(=O)[NH+]3CCOCC3)cc2)cc1 (3D coordinates assigned)
O=S(=O)(/N=c1/ccc(Cl)n[n-]1)c1ccc(NC(=S)Nc2ccc(S(=O)(=O)[NH+]3CCOCC3)cc2)cc1 (nonaromatic ring conformer: 83.64203375714847 kcal/mol)

>  <smiles>  (18) 
O=S(=O)(N=c1ccc(Cl)n[nH]1)c1ccc(NC(=S)Nc2ccc(S(=O)(=O)N3CCOCC3)cc2)cc1

>  <score_type>  (18) 
oracle

>  <origin>  (18) 
adgpu

>  <m_score__min__energy>  (18) 
-10.4

>  <m_primary>  (18) 
energy

$$$$
18:0
     RDKit          3D

 37 40  0  0  0  0  0  0  0  0999 V2000
   -1.7052   22.5510  -31.2382 H   0  0  0  0  0  0  0  0  0  0  0  0
   -1.9270   21.6310  -31.7990 C   0  0  0  0  0  0  0  0  0  0  0  0
   -1.1342   21.1356  -32.3787 H   0  0  0  0  0  0  0  0  0  0  0  0
   -3.1600   21.1150  -31.7760 C   0  0  0  0  0  0  0  0  0  0  0  0
   -4.3250   21.6490  -31.2030 C   0  0  0  0  0  0  0  0  0  0  0  0
   -4.5240   22.7240  -30.4140 C   0  0  0  0  0  0  0  0  0  0  0  0
   -5.5626   23.0496  -30.2550 H   0  0  0  0  0  0  0  0  0  0  0  0
   -3.4640   23.4960  -29.7490 C   0  0  0  0  0  0  0  0  0  0  0  0
   -3.2060   24.8500  -29.9050 C   0  0  0  0  0  0  0  0  0  0  0  0
   -3.8470   25.6740  -30.8220 O   0  0  0  0  0  0  0  0  0  0  0  0
   -2.2510   25.2950  -29.0550 N   0  0  0  0  0  0  0  0  0  0  0  0
   -1.9230   24.2050  -28.3330 C   0  0  0  0  0  0  0  0  0  0  0  0
   -0.9990   24.1470  -27.2920 C   0  0  0  0  0  0  0  0  0  0  0  0
   -0.4191   25.0349  -27.0000 H   0  0  0  0  0  0  0  0  0  0  0  0
   -0.8290   22.9200  -26.6250 C   0  0  0  0  0  0  0  0  0  0  0  0
   -0.1012   22.8403  -25.8040 H   0  0  0  0  0  0  0  0  0  0  0  0
   -1.5870   21.7900  -27.0030 C   0  0  0  0  0  0  0  0  0  0  0  0
   -1.4489   20.8369  -26.4715 H   0  0  0  0  0  0  0  0  0  0  0  0
   -2.5170   21.8750  -28.0540 C   0  0  0  0  0  0  0  0  0  0  0  0
   -3.1214   21.0048  -28.3498 H   0  0  0  0  0  0  0  0  0  0  0  0
   -2.6480   23.1010  -28.7100 C   0  0  0  0  0  0  0  0  0  0  0  0
   -5.3210   20.7850  -31.6290 C   0  0  0  0  0  0  0  0  0  0  0  0
   -6.5440   20.8720  -31.3310 O   0  0  0  0  0  0  0  0  0  0  0  0
   -4.7890   19.7910  -32.3710 N   0  0  0  0  0  0  0  0  0  0  0  0
   -5.4800   18.6890  -32.9890 C   0  0  0  0  0  0  0  0  0  0  0  0
   -6.5790   18.0800  -32.3560 C   0  0  0  0  0  0  0  0  0  0  0  0
   -6.9143   18.4437  -31.3735 H   0  0  0  0  0  0  0  0  0  0  0  0
   -7.2480   17.0150  -32.9680 C   0  0  0  0  0  0  0  0  0  0  0  0
   -8.1042   16.5418  -32.4651 H   0  0  0  0  0  0  0  0  0  0  0  0
   -6.8290   16.5520  -34.2180 C   0  0  0  0  0  0  0  0  0  0  0  0
   -7.3544   15.7131  -34.6978 H   0  0  0  0  0  0  0  0  0  0  0  0
   -5.7430   17.1540  -34.8590 C   0  0  0  0  0  0  0  0  0  0  0  0
   -5.4148   16.7892  -35.8435 H   0  0  0  0  0  0  0  0  0  0  0  0
   -5.0730   18.2200  -34.2500 C   0  0  0  0  0  0  0  0  0  0  0  0
   -4.2222   18.6943  -34.7611 H   0  0  0  0  0  0  0  0  0  0  0  0
   -3.4810   19.9880  -32.4480 N   0  0  0  0  0  0  0  0  0  0  0  0
   -2.8220   19.3920  -33.0000 H   0  0  0  0  0  0  0  0  0  0  0  0
  1  2  1  0
  2  3  1  0
  2  4  2  0
  4  5  1  0
  5  6  2  0
  6  7  1  0
  6  8  1  0
  8  9  2  0
  9 10  1  0
  9 11  1  0
 11 12  1  0
 12 13  2  0
 13 14  1  0
 13 15  1  0
 15 16  1  0
 15 17  2  0
 17 18  1  0
 17 19  1  0
 19 20  1  0
 19 21  2  0
  5 22  1  0
 22 23  2  0
 22 24  1  0
 24 25  1  0
 25 26  2  0
 26 27  1  0
 26 28  1  0
 28 29  1  0
 28 30  2  0
 30 31  1  0
 30 32  1  0
 32 33  1  0
 32 34  2  0
 34 35  1  0
 24 36  1  0
 36 37  1  0
 36  4  1  0
 21  8  1  0
 34 25  1  0
 21 12  1  0
M  CHG  2  10  -1  11  -1
M  END
>  <UniqueID>  (19) 
19

>  <SMILES>  (19) 
C=c1[nH]n(-c2ccccc2)c(=O)/c1=C/c1c([O-])[n-]c2ccccc12

>  <Energy>  (19) 
124.7376920959946

>  <Genealogy>  (19) 
C=c1[nH]n(-c2ccccc2)c(=O)c1=Cc1c([O-])[n-]c2ccccc12 (protonated)
C=c1[nH]n(-c2ccccc2)c(=O)/c1=C/c1c([O-])[n-]c2ccccc12 (cis-trans isomerization)
C=c1[nH]n(-c2ccccc2)c(=O)/c1=C/c1c([O-])[n-]c2ccccc12 (3D coordinates assigned)
C=c1[nH]n(-c2ccccc2)c(=O)/c1=C/c1c([O-])[n-]c2ccccc12 (optimized conformer: 124.7376920959946 kcal/mol)

>  <smiles>  (19) 
C=c1[nH]n(-c2ccccc2)c(=O)c1=Cc1c(O)[nH]c2ccccc12

>  <score_type>  (19) 
oracle

>  <origin>  (19) 
adgpu

>  <m_score__min__energy>  (19) 
-12.56

>  <m_primary>  (19) 
energy

$$$$
19:0
     RDKit          3D

 44 47  0  0  0  0  0  0  0  0999 V2000
  -10.6784   20.9712  -32.2621 H   0  0  0  0  0  0  0  0  0  0  0  0
   -9.6590   21.2770  -31.9840 C   0  0  0  0  0  0  0  0  0  0  0  0
   -9.3160   22.5920  -32.0020 N   0  0  0  0  0  0  0  0  0  0  0  0
   -8.0630   23.0070  -31.6740 C   0  0  0  0  0  0  0  0  0  0  0  0
   -7.8205   24.0798  -31.6870 H   0  0  0  0  0  0  0  0  0  0  0  0
   -7.0780   22.0720  -31.3190 C   0  0  0  0  0  0  0  0  0  0  0  0
   -5.7210   22.5000  -30.9340 C   0  0  0  0  0  0  0  0  0  0  0  0
   -5.4570   23.1240  -29.7690 N   0  0  0  0  0  0  0  0  0  0  0  0
   -4.1660   23.4210  -29.7420 N   0  0  0  0  0  0  0  0  0  0  0  0
   -3.5260   24.0810  -28.6310 C   0  0  0  0  0  0  0  0  0  0  0  0
   -4.2170   24.3240  -27.4260 C   0  0  0  0  0  0  0  0  0  0  0  0
   -5.2660   24.0090  -27.3245 H   0  0  0  0  0  0  0  0  0  0  0  0
   -3.5770   24.9630  -26.3590 C   0  0  0  0  0  0  0  0  0  0  0  0
   -4.1254   25.1503  -25.4240 H   0  0  0  0  0  0  0  0  0  0  0  0
   -2.2450   25.3640  -26.4760 C   0  0  0  0  0  0  0  0  0  0  0  0
   -1.7460   25.8685  -25.6355 H   0  0  0  0  0  0  0  0  0  0  0  0
   -1.5470   25.1240  -27.6610 C   0  0  0  0  0  0  0  0  0  0  0  0
   -0.4967   25.4379  -27.7528 H   0  0  0  0  0  0  0  0  0  0  0  0
   -2.1810   24.4850  -28.7320 C   0  0  0  0  0  0  0  0  0  0  0  0
   -1.6236   24.2965  -29.6614 H   0  0  0  0  0  0  0  0  0  0  0  0
   -3.5810   22.9870  -30.8790 C   0  0  0  0  0  0  0  0  0  0  0  0
   -2.5166   23.0947  -31.1350 H   0  0  0  0  0  0  0  0  0  0  0  0
   -4.5430   22.3850  -31.6670 C   0  0  0  0  0  0  0  0  0  0  0  0
   -4.2910   21.6620  -32.9270 C   0  0  0  0  0  0  0  0  0  0  0  0
   -3.2050   21.8580  -33.5370 O   0  0  0  0  0  0  0  0  0  0  0  0
   -5.2930   20.7860  -33.4650 N   0  0  0  0  0  0  0  0  0  0  0  0
   -5.3330   19.4810  -33.4990 C   0  0  0  0  0  0  0  0  0  0  0  0
   -4.3790   18.6670  -32.8520 C   0  0  0  0  0  0  0  0  0  0  0  0
   -3.5526   19.1251  -32.2889 H   0  0  0  0  0  0  0  0  0  0  0  0
   -4.4890   17.2780  -32.9300 C   0  0  0  0  0  0  0  0  0  0  0  0
   -3.7483   16.6397  -32.4260 H   0  0  0  0  0  0  0  0  0  0  0  0
   -5.5380   16.6960  -33.6470 C   0  0  0  0  0  0  0  0  0  0  0  0
   -5.6890   15.2050  -33.7020 C   0  0  0  0  0  0  0  0  0  0  0  0
   -5.7298   14.8026  -32.6791 H   0  0  0  0  0  0  0  0  0  0  0  0
   -6.6176   14.9499  -34.2336 H   0  0  0  0  0  0  0  0  0  0  0  0
   -4.8304   14.7689  -34.2336 H   0  0  0  0  0  0  0  0  0  0  0  0
   -6.4880   17.5310  -34.2450 C   0  0  0  0  0  0  0  0  0  0  0  0
   -7.3377   17.0910  -34.7876 H   0  0  0  0  0  0  0  0  0  0  0  0
   -6.3680   18.8830  -34.1600 N   0  0  0  0  0  0  0  0  0  0  0  0
   -7.0940   19.4760  -34.6230 H   0  0  0  0  0  0  0  0  0  0  0  0
   -7.4270   20.7150  -31.2700 C   0  0  0  0  0  0  0  0  0  0  0  0
   -6.6825   19.9664  -30.9612 H   0  0  0  0  0  0  0  0  0  0  0  0
   -8.7190   20.3140  -31.6130 C   0  0  0  0  0  0  0  0  0  0  0  0
   -8.9940   19.2492  -31.5912 H   0  0  0  0  0  0  0  0  0  0  0  0
  1  2  1  0
  2  3  2  0
  3  4  1  0
  4  5  1  0
  4  6  2  0
  6  7  1  0
  7  8  2  0
  8  9  1  0
  9 10  1  0
 10 11  2  0
 11 12  1  0
 11 13  1  0
 13 14  1  0
 13 15  2  0
 15 16  1  0
 15 17  1  0
 17 18  1  0
 17 19  2  0
 19 20  1  0
  9 21  1  0
 21 22  1  0
 21 23  2  0
 23 24  1  0
 24 25  2  0
 24 26  1  0
 26 27  2  0
 27 28  1  0
 28 29  1  0
 28 30  2  0
 30 31  1  0
 30 32  1  0
 32 33  1  0
 33 34  1  0
 33 35  1  0
 33 36  1  0
 32 37  2  0
 37 38  1  0
 37 39  1  0
 39 40  1  0
  6 41  1  0
 41 42  1  0
 41 43  2  0
 43 44  1  0
 43  2  1  0
 23  7  1  0
 39 27  1  0
 19 10  1  0
M  END
>  <UniqueID>  (20) 
20

>  <SMILES>  (20) 
Cc1cc/c(=N\C(=O)c2cn(-c3ccccc3)nc2-c2cccnc2)[nH]c1

>  <Energy>  (20) 
94.79683821283014

>  <Genealogy>  (20) 
Cc1cc/c(=N\C(=O)c2cn(-c3ccccc3)nc2-c2cccnc2)[nH]c1 (cis-trans isomerization)
Cc1cc/c(=N\C(=O)c2cn(-c3ccccc3)nc2-c2cccnc2)[nH]c1 (3D coordinates assigned)
Cc1cc/c(=N\C(=O)c2cn(-c3ccccc3)nc2-c2cccnc2)[nH]c1 (optimized conformer: 94.79683821283014 kcal/mol)

>  <smiles>  (20) 
Cc1ccc(=NC(=O)c2cn(-c3ccccc3)nc2-c2cccnc2)[nH]c1

>  <score_type>  (20) 
oracle

>  <origin>  (20) 
adgpu

>  <m_score__min__energy>  (20) 
-9.2100000000000009

>  <m_primary>  (20) 
energy

$$$$
20:0
     RDKit          3D

 42 44  0  0  0  0  0  0  0  0999 V2000
   -4.7780   25.6640  -28.6360 H   0  0  0  0  0  0  0  0  0  0  0  0
   -4.9000   24.7090  -28.3210 O   0  0  0  0  0  0  0  0  0  0  0  0
   -3.9000   23.7490  -28.4640 C   0  0  0  0  0  0  0  0  0  0  0  0
   -4.0910   22.4770  -27.9170 C   0  0  0  0  0  0  0  0  0  0  0  0
   -5.0250   22.2463  -27.3838 H   0  0  0  0  0  0  0  0  0  0  0  0
   -3.1030   21.4960  -28.0430 C   0  0  0  0  0  0  0  0  0  0  0  0
   -3.2673   20.4959  -27.6155 H   0  0  0  0  0  0  0  0  0  0  0  0
   -1.9010   21.7810  -28.7130 C   0  0  0  0  0  0  0  0  0  0  0  0
   -0.8590   20.7350  -28.8440 C   0  0  0  0  0  0  0  0  0  0  0  0
   -0.0670   20.5280  -27.8860 O   0  0  0  0  0  0  0  0  0  0  0  0
   -0.7500   19.9100  -30.0120 N   0  0  0  0  0  0  0  0  0  0  0  0
   -0.4500   20.3600  -31.3420 C   0  0  0  0  0  0  0  0  0  0  0  0
    0.8040   20.0700  -31.8890 C   0  0  0  0  0  0  0  0  0  0  0  0
    1.5364   19.4969  -31.3015 H   0  0  0  0  0  0  0  0  0  0  0  0
    1.1340   20.5030  -33.1770 C   0  0  0  0  0  0  0  0  0  0  0  0
    2.1175   20.2568  -33.6038 H   0  0  0  0  0  0  0  0  0  0  0  0
    0.2140   21.2500  -33.9250 C   0  0  0  0  0  0  0  0  0  0  0  0
    0.6210   21.8020  -35.5460 S   0  0  0  0  0  0  0  0  0  0  0  0
   -0.1430   20.9850  -36.5490 O   0  0  0  0  0  0  0  0  0  0  0  0
    2.0940   21.6430  -35.8030 O   0  0  0  0  0  0  0  0  0  0  0  0
    0.1950   23.4710  -35.7280 N   0  0  0  0  0  0  0  0  0  0  0  0
    0.8590   24.2760  -36.4980 C   0  0  0  0  0  0  0  0  0  0  0  0
    1.9030   23.9350  -37.2160 O   0  0  0  0  0  0  0  0  0  0  0  0
    2.3690   24.9640  -37.8660 N   0  0  0  0  0  0  0  0  0  0  0  0
    1.5880   26.0190  -37.5490 C   0  0  0  0  0  0  0  0  0  0  0  0
    1.7990   27.4010  -38.0760 C   0  0  0  0  0  0  0  0  0  0  0  0
    1.9060   28.1018  -37.2349 H   0  0  0  0  0  0  0  0  0  0  0  0
    2.7110   27.4238  -38.6906 H   0  0  0  0  0  0  0  0  0  0  0  0
    0.9353   27.6949  -38.6906 H   0  0  0  0  0  0  0  0  0  0  0  0
    0.5890   25.6120  -36.6840 C   0  0  0  0  0  0  0  0  0  0  0  0
   -0.4430   26.4520  -35.9990 C   0  0  0  0  0  0  0  0  0  0  0  0
   -0.3277   26.3581  -34.9091 H   0  0  0  0  0  0  0  0  0  0  0  0
   -0.3129   27.5042  -36.2922 H   0  0  0  0  0  0  0  0  0  0  0  0
   -1.4469   26.1111  -36.2922 H   0  0  0  0  0  0  0  0  0  0  0  0
   -1.0360   21.5590  -33.3740 C   0  0  0  0  0  0  0  0  0  0  0  0
   -1.7618   22.1450  -33.9569 H   0  0  0  0  0  0  0  0  0  0  0  0
   -1.3650   21.1260  -32.0870 C   0  0  0  0  0  0  0  0  0  0  0  0
   -2.3428   21.3849  -31.6548 H   0  0  0  0  0  0  0  0  0  0  0  0
   -1.7190   23.0560  -29.2770 C   0  0  0  0  0  0  0  0  0  0  0  0
   -0.7914   23.2839  -29.8225 H   0  0  0  0  0  0  0  0  0  0  0  0
   -2.7080   24.0370  -29.1500 C   0  0  0  0  0  0  0  0  0  0  0  0
   -2.5010   25.2930  -29.7090 O   0  0  0  0  0  0  0  0  0  0  0  0
  1  2  1  0
  2  3  1  0
  3  4  2  0
  4  5  1  0
  4  6  1  0
  6  7  1  0
  6  8  2  0
  8  9  1  0
  9 10  2  0
  9 11  1  0
 11 12  1  0
 12 13  2  0
 13 14  1  0
 13 15  1  0
 15 16  1  0
 15 17  2  0
 17 18  1  0
 18 19  2  0
 18 20  2  0
 18 21  1  0
 21 22  2  0
 22 23  1  0
 23 24  1  0
 24 25  1  0
 25 26  1  0
 26 27  1  0
 26 28  1  0
 26 29  1  0
 25 30  2  0
 30 31  1  0
 31 32  1  0
 31 33  1  0
 31 34  1  0
 17 35  1  0
 35 36  1  0
 35 37  2  0
 37 38  1  0
  8 39  1  0
 39 40  1  0
 39 41  2  0
 41 42  1  0
 41  3  1  0
 37 12  1  0
 30 22  1  0
M  CHG  3  11  -1  24  -1  42  -1
M  END
>  <UniqueID>  (21) 
21

>  <SMILES>  (21) 
Cc1[n-]o/c(=N\S(=O)(=O)c2ccc([N-]C(=O)c3ccc(O)c([O-])c3)cc2)c1C

>  <Energy>  (21) 
83.70582279162619

>  <Genealogy>  (21) 
Cc1[n-]oc(=NS(=O)(=O)c2ccc([N-]C(=O)c3ccc(O)c([O-])c3)cc2)c1C (protonated)
Cc1[n-]o/c(=N\S(=O)(=O)c2ccc([N-]C(=O)c3ccc(O)c([O-])c3)cc2)c1C (cis-trans isomerization)
Cc1[n-]o/c(=N\S(=O)(=O)c2ccc([N-]C(=O)c3ccc(O)c([O-])c3)cc2)c1C (3D coordinates assigned)
Cc1[n-]o/c(=N\S(=O)(=O)c2ccc([N-]C(=O)c3ccc(O)c([O-])c3)cc2)c1C (optimized conformer: 83.70582279162619 kcal/mol)

>  <smiles>  (21) 
Cc1[nH]oc(=NS(=O)(=O)c2ccc(NC(=O)c3ccc(O)c(O)c3)cc2)c1C

>  <score_type>  (21) 
oracle

>  <origin>  (21) 
adgpu

>  <m_score__min__energy>  (21) 
-13.359999999999999

>  <m_primary>  (21) 
energy

$$$$
21:0
     RDKit          3D

 42 44  0  0  0  0  0  0  0  0999 V2000
   -6.8530   17.6350  -32.9960 C   0  0  0  0  0  0  0  0  0  0  0  0
   -6.8020   19.0550  -33.4700 C   0  0  0  0  0  0  0  0  0  0  0  0
   -6.1530   19.3280  -34.5150 O   0  0  0  0  0  0  0  0  0  0  0  0
   -7.5280   20.0940  -32.7880 N   0  0  0  0  0  0  0  0  0  0  0  0
   -8.9860   19.9140  -32.6770 C   0  0  0  0  0  0  0  0  0  0  0  0
   -9.6810   21.1500  -32.1010 C   0  0  0  0  0  0  0  0  0  0  0  0
   -8.9940   21.5940  -30.8110 C   0  0  0  0  0  0  0  0  0  0  0  0
   -7.5430   21.8830  -31.0750 C   0  0  0  0  0  0  0  0  0  0  0  0
   -6.8780   22.8700  -30.3310 C   0  0  0  0  0  0  0  0  0  0  0  0
   -5.5360   23.1650  -30.5880 C   0  0  0  0  0  0  0  0  0  0  0  0
   -4.7110   24.3950  -29.6320 S   0  0  0  0  0  0  0  0  0  0  0  0
   -3.8600   25.2510  -30.5280 O   0  0  0  0  0  0  0  0  0  0  0  0
   -5.7510   25.2720  -28.9920 O   0  0  0  0  0  0  0  0  0  0  0  0
   -3.7350   23.6510  -28.3810 N   0  0  0  0  0  0  0  0  0  0  0  0
   -2.5150   23.0310  -28.9280 C   0  0  0  0  0  0  0  0  0  0  0  0
   -1.4590   24.0840  -29.3420 C   0  0  0  0  0  0  0  0  0  0  0  0
   -1.6660   25.3580  -28.7560 O   0  0  0  0  0  0  0  0  0  0  0  0
   -2.0310   25.2190  -27.4010 C   0  0  0  0  0  0  0  0  0  0  0  0
   -3.4350   24.5980  -27.2840 C   0  0  0  0  0  0  0  0  0  0  0  0
   -4.8520   22.4650  -31.5890 C   0  0  0  0  0  0  0  0  0  0  0  0
   -5.5010   21.4680  -32.3190 C   0  0  0  0  0  0  0  0  0  0  0  0
   -6.8430   21.1380  -32.0480 C   0  0  0  0  0  0  0  0  0  0  0  0
   -6.8537   17.6154  -31.8962 H   0  0  0  0  0  0  0  0  0  0  0  0
   -7.7689   17.1556  -33.3719 H   0  0  0  0  0  0  0  0  0  0  0  0
   -5.9738   17.0912  -33.3719 H   0  0  0  0  0  0  0  0  0  0  0  0
   -9.3949   19.7124  -33.6781 H   0  0  0  0  0  0  0  0  0  0  0  0
   -9.1704   19.0738  -31.9914 H   0  0  0  0  0  0  0  0  0  0  0  0
   -9.6352   21.9672  -32.8359 H   0  0  0  0  0  0  0  0  0  0  0  0
  -10.7289   20.8995  -31.8794 H   0  0  0  0  0  0  0  0  0  0  0  0
   -9.4835   22.5032  -30.4319 H   0  0  0  0  0  0  0  0  0  0  0  0
   -9.0722   20.7896  -30.0648 H   0  0  0  0  0  0  0  0  0  0  0  0
   -7.4160   23.4146  -29.5411 H   0  0  0  0  0  0  0  0  0  0  0  0
   -2.0780   22.3733  -28.1622 H   0  0  0  0  0  0  0  0  0  0  0  0
   -2.7982   22.4651  -29.8277 H   0  0  0  0  0  0  0  0  0  0  0  0
   -0.4667   23.7190  -29.0384 H   0  0  0  0  0  0  0  0  0  0  0  0
   -1.5429   24.2131  -30.4312 H   0  0  0  0  0  0  0  0  0  0  0  0
   -1.3033   24.5677  -26.8947 H   0  0  0  0  0  0  0  0  0  0  0  0
   -2.0404   26.2132  -26.9303 H   0  0  0  0  0  0  0  0  0  0  0  0
   -3.5031   24.0604  -26.3268 H   0  0  0  0  0  0  0  0  0  0  0  0
   -4.1663   25.4175  -27.3439 H   0  0  0  0  0  0  0  0  0  0  0  0
   -3.7989   22.7017  -31.8011 H   0  0  0  0  0  0  0  0  0  0  0  0
   -4.9589   20.9347  -33.1138 H   0  0  0  0  0  0  0  0  0  0  0  0
  1  2  1  0
  2  3  2  0
  2  4  1  0
  4  5  1  0
  5  6  1  0
  6  7  1  0
  7  8  1  0
  8  9  2  0
  9 10  1  0
 10 11  1  0
 11 12  2  0
 11 13  2  0
 11 14  1  0
 14 15  1  0
 15 16  1  0
 16 17  1  0
 17 18  1  0
 18 19  1  0
 10 20  2  0
 20 21  1  0
 21 22  2  0
 22  4  1  0
 22  8  1  0
 19 14  1  0
  1 23  1  0
  1 24  1  0
  1 25  1  0
  5 26  1  0
  5 27  1  0
  6 28  1  0
  6 29  1  0
  7 30  1  0
  7 31  1  0
  9 32  1  0
 15 33  1  0
 15 34  1  0
 16 35  1  0
 16 36  1  0
 18 37  1  0
 18 38  1  0
 19 39  1  0
 19 40  1  0
 20 41  1  0
 21 42  1  0
M  END
>  <UniqueID>  (22) 
22

>  <SMILES>  (22) 
CC(=O)N1CCCc2cc(S(=O)(=O)N3CCOCC3)ccc21

>  <Energy>  (22) 
58.54842380366725

>  <Genealogy>  (22) 
CC(=O)N1CCCc2cc(S(=O)(=O)N3CCOCC3)ccc21 (3D coordinates assigned)
CC(=O)N1CCCc2cc(S(=O)(=O)N3CCOCC3)ccc21 (nonaromatic ring conformer: 58.54842380366725 kcal/mol)

>  <smiles>  (22) 
CC(=O)N1CCCc2cc(S(=O)(=O)N3CCOCC3)ccc21

>  <score_type>  (22) 
oracle

>  <origin>  (22) 
adgpu

>  <m_score__min__energy>  (22) 
-9.75

>  <m_primary>  (22) 
energy

$$$$
22:0
     RDKit          3D

 52 56  0  0  0  0  0  0  0  0999 V2000
   -5.6750   19.5200  -33.3530 O   0  0  0  0  0  0  0  0  0  0  0  0
   -6.5940   20.3010  -32.9900 C   0  0  0  0  0  0  0  0  0  0  0  0
   -8.0370   19.8930  -33.0720 C   0  0  0  0  0  0  0  0  0  0  0  0
   -8.8150   20.3900  -31.8310 C   0  0  0  0  0  0  0  0  0  0  0  0
   -8.5330   21.8690  -31.4190 C   0  0  0  0  0  0  0  0  0  0  0  0
   -7.4640   22.5600  -32.2900 C   0  0  1  0  0  0  0  0  0  0  0  0
   -7.0510   23.9540  -31.7690 C   0  0  0  0  0  0  0  0  0  0  0  0
   -5.8440   23.9290  -30.9390 N   0  0  0  0  0  0  0  0  0  0  0  0
   -4.9140   23.0240  -31.0770 C   0  0  0  0  0  0  0  0  0  0  0  0
   -3.6410   23.1310  -30.3210 C   0  0  0  0  0  0  0  0  0  0  0  0
   -3.2020   24.3750  -29.8570 C   0  0  0  0  0  0  0  0  0  0  0  0
   -3.9650   25.5030  -30.1910 O   0  0  0  0  0  0  0  0  0  0  0  0
   -2.0110   24.4570  -29.1000 C   0  0  0  0  0  0  0  0  0  0  0  0
   -1.5790   25.6810  -28.5390 C   0  0  0  0  0  0  0  0  0  0  0  0
   -0.4070   25.7500  -27.7930 C   0  0  0  0  0  0  0  0  0  0  0  0
    0.3510   24.6080  -27.5790 C   0  0  0  0  0  0  0  0  0  0  0  0
   -0.0550   23.3860  -28.1080 C   0  0  0  0  0  0  0  0  0  0  0  0
   -1.2390   23.2740  -28.8850 C   0  0  0  0  0  0  0  0  0  0  0  0
   -1.6600   22.0650  -29.4220 N   0  0  0  0  0  0  0  0  0  0  0  0
   -0.8810   20.8090  -29.2870 C   0  0  0  0  0  0  0  0  0  0  0  0
   -1.4260   19.9460  -28.1720 C   0  0  0  0  0  0  0  0  0  0  0  0
   -2.6450   20.2640  -27.5470 C   0  0  0  0  0  0  0  0  0  0  0  0
   -3.1450   19.4550  -26.5220 C   0  0  0  0  0  0  0  0  0  0  0  0
   -2.4360   18.3240  -26.1110 C   0  0  0  0  0  0  0  0  0  0  0  0
   -1.2240   18.0000  -26.7250 C   0  0  0  0  0  0  0  0  0  0  0  0
   -0.7200   18.8060  -27.7500 C   0  0  0  0  0  0  0  0  0  0  0  0
   -2.8550   21.9900  -30.1000 C   0  0  0  0  0  0  0  0  0  0  0  0
   -3.2700   20.8760  -30.5280 O   0  0  0  0  0  0  0  0  0  0  0  0
   -5.1560   21.8560  -31.8700 N   0  0  0  0  0  0  0  0  0  0  0  0
   -6.2940   21.6290  -32.4480 C   0  0  0  0  0  0  0  0  0  0  0  0
   -8.4848   20.3283  -33.9775 H   0  0  0  0  0  0  0  0  0  0  0  0
   -8.0934   18.7951  -33.1094 H   0  0  0  0  0  0  0  0  0  0  0  0
   -9.8902   20.2947  -32.0426 H   0  0  0  0  0  0  0  0  0  0  0  0
   -8.4764   19.7684  -30.9890 H   0  0  0  0  0  0  0  0  0  0  0  0
   -9.4706   22.4380  -31.5027 H   0  0  0  0  0  0  0  0  0  0  0  0
   -8.1461   21.8487  -30.3895 H   0  0  0  0  0  0  0  0  0  0  0  0
   -7.9012   22.7642  -33.2785 H   0  0  0  0  0  0  0  0  0  0  0  0
   -6.8667   24.6091  -32.6332 H   0  0  0  0  0  0  0  0  0  0  0  0
   -7.8729   24.3220  -31.1372 H   0  0  0  0  0  0  0  0  0  0  0  0
   -5.6890   24.7410  -30.2990 H   0  0  0  0  0  0  0  0  0  0  0  0
   -3.8650   26.4170  -29.7760 H   0  0  0  0  0  0  0  0  0  0  0  0
   -2.1777   26.5906  -28.6946 H   0  0  0  0  0  0  0  0  0  0  0  0
   -0.0805   26.7123  -27.3718 H   0  0  0  0  0  0  0  0  0  0  0  0
    1.2771   24.6683  -26.9886 H   0  0  0  0  0  0  0  0  0  0  0  0
    0.5533   22.4889  -27.9205 H   0  0  0  0  0  0  0  0  0  0  0  0
   -0.9348   20.2498  -30.2327 H   0  0  0  0  0  0  0  0  0  0  0  0
    0.1611   21.0688  -29.0493 H   0  0  0  0  0  0  0  0  0  0  0  0
   -3.2079   21.1536  -27.8661 H   0  0  0  0  0  0  0  0  0  0  0  0
   -4.0993   19.7100  -26.0380 H   0  0  0  0  0  0  0  0  0  0  0  0
   -2.8317   17.6891  -25.3046 H   0  0  0  0  0  0  0  0  0  0  0  0
   -0.6653   17.1094  -26.4016 H   0  0  0  0  0  0  0  0  0  0  0  0
    0.2354   18.5464  -28.2295 H   0  0  0  0  0  0  0  0  0  0  0  0
  1  2  2  0
  2  3  1  0
  3  4  1  0
  4  5  1  0
  5  6  1  0
  6  7  1  0
  7  8  1  0
  8  9  2  0
  9 10  1  0
 10 11  2  0
 11 12  1  0
 11 13  1  0
 13 14  2  0
 14 15  1  0
 15 16  2  0
 16 17  1  0
 17 18  2  0
 18 19  1  0
 19 20  1  0
 20 21  1  0
 21 22  2  0
 22 23  1  0
 23 24  2  0
 24 25  1  0
 25 26  2  0
 19 27  1  0
 27 28  2  0
  9 29  1  0
 29 30  2  0
 30  2  1  0
 30  6  1  0
 27 10  1  0
 18 13  1  0
 26 21  1  0
  3 31  1  0
  3 32  1  0
  4 33  1  0
  4 34  1  0
  5 35  1  0
  5 36  1  0
  6 37  1  6
  7 38  1  0
  7 39  1  0
  8 40  1  0
 12 41  1  0
 14 42  1  0
 15 43  1  0
 16 44  1  0
 17 45  1  0
 20 46  1  0
 20 47  1  0
 22 48  1  0
 23 49  1  0
 24 50  1  0
 25 51  1  0
 26 52  1  0
M  CHG  1   8   1
M  END
>  <UniqueID>  (23) 
23

>  <SMILES>  (23) 
O=C1CCC[C@H]2C[NH+]=C(c3c(O)c4ccccc4n(Cc4ccccc4)c3=O)N=C12

>  <Energy>  (23) 
89.77817622106143

>  <Genealogy>  (23) 
O=C1CCCC2C[NH+]=C(c3c(O)c4ccccc4n(Cc4ccccc4)c3=O)N=C12 (protonated)
O=C1CCC[C@H]2C[NH+]=C(c3c(O)c4ccccc4n(Cc4ccccc4)c3=O)N=C12 (chirality)
O=C1CCC[C@H]2C[NH+]=C(c3c(O)c4ccccc4n(Cc4ccccc4)c3=O)N=C12 (3D coordinates assigned)
O=C1CCC[C@H]2C[NH+]=C(c3c(O)c4ccccc4n(Cc4ccccc4)c3=O)N=C12 (nonaromatic ring conformer: 89.77817622106143 kcal/mol)

>  <smiles>  (23) 
O=C1CCCC2CN=C(c3c(O)c4ccccc4n(Cc4ccccc4)c3=O)N=C12

>  <score_type>  (23) 
oracle

>  <origin>  (23) 
adgpu

>  <m_score__min__energy>  (23) 
-9.4600000000000009

>  <m_primary>  (23) 
energy

$$$$
23:0
     RDKit          3D

 43 45  0  0  0  0  0  0  0  0999 V2000
   -0.1980   24.8330  -28.1470 C   0  0  0  0  0  0  0  0  0  0  0  0
   -1.2260   25.3380  -29.0480 N   0  0  0  0  0  0  0  0  0  0  0  0
   -2.5830   24.8780  -28.9760 C   0  0  0  0  0  0  0  0  0  0  0  0
   -2.9480   24.1430  -28.0190 O   0  0  0  0  0  0  0  0  0  0  0  0
   -3.5560   25.2910  -29.9430 N   0  0  0  0  0  0  0  0  0  0  0  0
   -4.5880   24.4690  -30.5020 C   0  0  0  0  0  0  0  0  0  0  0  0
   -4.2320   23.2810  -31.1510 C   0  0  0  0  0  0  0  0  0  0  0  0
   -5.2110   22.4700  -31.7330 C   0  0  0  0  0  0  0  0  0  0  0  0
   -6.5660   22.8460  -31.6810 C   0  0  0  0  0  0  0  0  0  0  0  0
   -7.5820   22.0700  -32.2580 O   0  0  0  0  0  0  0  0  0  0  0  0
   -7.4990   20.6960  -32.5110 C   0  0  0  0  0  0  0  0  0  0  0  0
   -6.4670   20.2230  -33.2560 N   0  0  0  0  0  0  0  0  0  0  0  0
   -6.3650   18.8990  -33.5370 C   0  0  0  0  0  0  0  0  0  0  0  0
   -5.2970   18.4230  -34.3000 C   0  0  0  0  0  0  0  0  0  0  0  0
   -5.1890   17.0490  -34.5920 C   0  0  0  0  0  0  0  0  0  0  0  0
   -4.1300   16.5310  -35.3550 O   0  0  0  0  0  0  0  0  0  0  0  0
   -2.8820   16.1020  -34.8180 C   0  0  0  0  0  0  0  0  0  0  0  0
   -6.1620   16.1560  -34.1130 C   0  0  0  0  0  0  0  0  0  0  0  0
   -6.0220   14.7930  -34.4240 O   0  0  0  0  0  0  0  0  0  0  0  0
   -5.2080   13.8780  -33.6960 C   0  0  0  0  0  0  0  0  0  0  0  0
   -7.2390   16.6410  -33.3450 C   0  0  0  0  0  0  0  0  0  0  0  0
   -7.3410   18.0120  -33.0560 C   0  0  0  0  0  0  0  0  0  0  0  0
   -8.3920   18.5540  -32.2990 C   0  0  0  0  0  0  0  0  0  0  0  0
   -9.3050   17.8180  -31.8380 O   0  0  0  0  0  0  0  0  0  0  0  0
   -8.4320   19.8600  -32.0620 O   0  0  0  0  0  0  0  0  0  0  0  0
   -6.9150   24.0580  -31.0740 C   0  0  0  0  0  0  0  0  0  0  0  0
   -5.9360   24.8680  -30.4900 C   0  0  0  0  0  0  0  0  0  0  0  0
   -0.5149   24.9887  -27.1052 H   0  0  0  0  0  0  0  0  0  0  0  0
   -0.0476   23.7584  -28.3278 H   0  0  0  0  0  0  0  0  0  0  0  0
    0.7444   25.3707  -28.3278 H   0  0  0  0  0  0  0  0  0  0  0  0
   -0.9670   26.0810  -29.7340 H   0  0  0  0  0  0  0  0  0  0  0  0
   -3.1744   22.9833  -31.2035 H   0  0  0  0  0  0  0  0  0  0  0  0
   -4.9209   21.5344  -32.2335 H   0  0  0  0  0  0  0  0  0  0  0  0
   -4.5365   19.1239  -34.6748 H   0  0  0  0  0  0  0  0  0  0  0  0
   -2.9305   16.1187  -33.7192 H   0  0  0  0  0  0  0  0  0  0  0  0
   -2.6680   15.0787  -35.1601 H   0  0  0  0  0  0  0  0  0  0  0  0
   -2.0840   16.7774  -35.1601 H   0  0  0  0  0  0  0  0  0  0  0  0
   -5.3507   14.0385  -32.6172 H   0  0  0  0  0  0  0  0  0  0  0  0
   -5.4934   12.8476  -33.9544 H   0  0  0  0  0  0  0  0  0  0  0  0
   -4.1514   14.0415  -33.9544 H   0  0  0  0  0  0  0  0  0  0  0  0
   -8.0028   15.9437  -32.9703 H   0  0  0  0  0  0  0  0  0  0  0  0
   -7.9679   24.3759  -31.0562 H   0  0  0  0  0  0  0  0  0  0  0  0
   -6.2216   25.8205  -30.0197 H   0  0  0  0  0  0  0  0  0  0  0  0
  1  2  1  0
  2  3  1  0
  3  4  2  0
  3  5  1  0
  5  6  1  0
  6  7  2  0
  7  8  1  0
  8  9  2  0
  9 10  1  0
 10 11  1  0
 11 12  2  0
 12 13  1  0
 13 14  2  0
 14 15  1  0
 15 16  1  0
 16 17  1  0
 15 18  2  0
 18 19  1  0
 19 20  1  0
 18 21  1  0
 21 22  2  0
 22 23  1  0
 23 24  2  0
 23 25  1  0
  9 26  1  0
 26 27  2  0
 27  6  1  0
 25 11  1  0
 22 13  1  0
  1 28  1  0
  1 29  1  0
  1 30  1  0
  2 31  1  0
  7 32  1  0
  8 33  1  0
 14 34  1  0
 17 35  1  0
 17 36  1  0
 17 37  1  0
 20 38  1  0
 20 39  1  0
 20 40  1  0
 21 41  1  0
 26 42  1  0
 27 43  1  0
M  CHG  1   5  -1
M  END
>  <UniqueID>  (24) 
24

>  <SMILES>  (24) 
CNC(=O)[N-]c1ccc(Oc2nc3cc(OC)c(OC)cc3c(=O)o2)cc1

>  <Energy>  (24) 
54.799211842270424

>  <Genealogy>  (24) 
CNC(=O)[N-]c1ccc(Oc2nc3cc(OC)c(OC)cc3c(=O)o2)cc1 (protonated)
CNC(=O)[N-]c1ccc(Oc2nc3cc(OC)c(OC)cc3c(=O)o2)cc1 (3D coordinates assigned)
CNC(=O)[N-]c1ccc(Oc2nc3cc(OC)c(OC)cc3c(=O)o2)cc1 (optimized conformer: 54.799211842270424 kcal/mol)

>  <smiles>  (24) 
CNC(=O)Nc1ccc(Oc2nc3cc(OC)c(OC)cc3c(=O)o2)cc1

>  <score_type>  (24) 
oracle

>  <origin>  (24) 
adgpu

>  <m_score__min__energy>  (24) 
-9.0999999999999996

>  <m_primary>  (24) 
energy

$$$$
24:0
     RDKit          3D

 51 54  0  0  0  0  0  0  0  0999 V2000
   -5.5550   26.2050  -30.4760 O   0  0  0  0  0  0  0  0  0  0  0  0
   -4.9010   25.1410  -30.6360 C   0  0  0  0  0  0  0  0  0  0  0  0
   -3.4870   25.1570  -30.4050 N   0  0  0  0  0  0  0  0  0  0  0  0
   -2.8090   24.5510  -29.2950 C   0  0  0  0  0  0  0  0  0  0  0  0
   -1.4290   24.2790  -29.3180 C   0  0  0  0  0  0  0  0  0  0  0  0
   -0.8370   23.5920  -28.2560 C   0  0  0  0  0  0  0  0  0  0  0  0
   -1.6290   23.1680  -27.1890 C   0  0  0  0  0  0  0  0  0  0  0  0
   -2.9620   23.4380  -27.1810 N   0  0  0  0  0  0  0  0  0  0  0  0
   -3.5600   24.1140  -28.1980 C   0  0  0  0  0  0  0  0  0  0  0  0
   -5.5960   23.9250  -31.1010 C   0  0  0  0  0  0  0  0  0  0  0  0
   -6.9610   23.7500  -30.8250 C   0  0  0  0  0  0  0  0  0  0  0  0
   -7.6320   22.6180  -31.2880 C   0  0  0  0  0  0  0  0  0  0  0  0
   -6.9540   21.6650  -32.0500 C   0  0  0  0  0  0  0  0  0  0  0  0
   -5.5950   21.8270  -32.3440 C   0  0  0  0  0  0  0  0  0  0  0  0
   -4.9650   20.8640  -33.2020 N   0  0  0  0  0  0  0  0  0  0  0  0
   -3.8690   19.9980  -32.8840 C   0  0  0  0  0  0  0  0  0  0  0  0
   -4.1280   18.8320  -32.4870 O   0  0  0  0  0  0  0  0  0  0  0  0
   -2.4520   20.4370  -32.9480 C   0  0  0  0  0  0  0  0  0  0  0  0
   -1.7630   20.3250  -34.1700 C   0  0  0  0  0  0  0  0  0  0  0  0
   -0.4140   20.6980  -34.2780 C   0  0  0  0  0  0  0  0  0  0  0  0
    0.3170   20.5530  -35.5890 C   0  0  0  0  0  0  0  0  0  0  0  0
    0.4670   19.2170  -35.9210 F   0  0  0  0  0  0  0  0  0  0  0  0
    1.5680   21.1330  -35.4800 F   0  0  0  0  0  0  0  0  0  0  0  0
   -0.3810   21.1750  -36.6100 F   0  0  0  0  0  0  0  0  0  0  0  0
    0.2660   21.1220  -33.1300 C   0  0  0  0  0  0  0  0  0  0  0  0
   -0.4020   21.2310  -31.9120 C   0  0  0  0  0  0  0  0  0  0  0  0
   -1.7630   20.8940  -31.8040 C   0  0  0  0  0  0  0  0  0  0  0  0
   -2.4560   21.0360  -30.5910 O   0  0  0  0  0  0  0  0  0  0  0  0
   -2.1090   20.4470  -29.3690 C   0  0  0  0  0  0  0  0  0  0  0  0
   -3.0550   20.4280  -28.3370 C   0  0  0  0  0  0  0  0  0  0  0  0
   -2.7450   19.8390  -27.1080 C   0  0  0  0  0  0  0  0  0  0  0  0
   -1.4920   19.2510  -26.9110 C   0  0  0  0  0  0  0  0  0  0  0  0
   -0.5510   19.2460  -27.9430 C   0  0  0  0  0  0  0  0  0  0  0  0
   -0.8580   19.8370  -29.1740 C   0  0  0  0  0  0  0  0  0  0  0  0
   -4.9140   22.9590  -31.8620 C   0  0  0  0  0  0  0  0  0  0  0  0
   -0.8171   24.6070  -30.1712 H   0  0  0  0  0  0  0  0  0  0  0  0
    0.2438   23.3872  -28.2609 H   0  0  0  0  0  0  0  0  0  0  0  0
   -1.1752   22.6149  -26.3534 H   0  0  0  0  0  0  0  0  0  0  0  0
   -4.6401   24.3185  -28.1582 H   0  0  0  0  0  0  0  0  0  0  0  0
   -7.5037   24.5083  -30.2414 H   0  0  0  0  0  0  0  0  0  0  0  0
   -8.6970   22.4762  -31.0522 H   0  0  0  0  0  0  0  0  0  0  0  0
   -7.4915   20.7803  -32.4221 H   0  0  0  0  0  0  0  0  0  0  0  0
   -2.2901   19.9389  -35.0549 H   0  0  0  0  0  0  0  0  0  0  0  0
    1.3358   21.3710  -33.1900 H   0  0  0  0  0  0  0  0  0  0  0  0
    0.1420   21.5851  -31.0239 H   0  0  0  0  0  0  0  0  0  0  0  0
   -4.0462   20.8784  -28.4941 H   0  0  0  0  0  0  0  0  0  0  0  0
   -3.4868   19.8381  -26.2958 H   0  0  0  0  0  0  0  0  0  0  0  0
   -1.2470   18.7917  -25.9420 H   0  0  0  0  0  0  0  0  0  0  0  0
    0.4320   18.7773  -27.7882 H   0  0  0  0  0  0  0  0  0  0  0  0
   -0.1197   19.8240  -29.9893 H   0  0  0  0  0  0  0  0  0  0  0  0
   -3.8439   23.0893  -32.0810 H   0  0  0  0  0  0  0  0  0  0  0  0
  1  2  2  0
  2  3  1  0
  3  4  1  0
  4  5  2  0
  5  6  1  0
  6  7  2  0
  7  8  1  0
  8  9  2  0
  2 10  1  0
 10 11  2  0
 11 12  1  0
 12 13  2  0
 13 14  1  0
 14 15  1  0
 15 16  1  0
 16 17  2  0
 16 18  1  0
 18 19  2  0
 19 20  1  0
 20 21  1  0
 21 22  1  0
 21 23  1  0
 21 24  1  0
 20 25  2  0
 25 26  1  0
 26 27  2  0
 27 28  1  0
 28 29  1  0
 29 30  2  0
 30 31  1  0
 31 32  2  0
 32 33  1  0
 33 34  2  0
 14 35  2  0
  9  4  1  0
 35 10  1  0
 27 18  1  0
 34 29  1  0
  5 36  1  0
  6 37  1  0
  7 38  1  0
  9 39  1  0
 11 40  1  0
 12 41  1  0
 13 42  1  0
 19 43  1  0
 25 44  1  0
 26 45  1  0
 30 46  1  0
 31 47  1  0
 32 48  1  0
 33 49  1  0
 34 50  1  0
 35 51  1  0
M  CHG  2   3  -1  15  -1
M  END
>  <UniqueID>  (25) 
25

>  <SMILES>  (25) 
O=C([N-]c1cccnc1)c1cccc([N-]C(=O)c2cc(C(F)(F)F)ccc2Oc2ccccc2)c1

>  <Energy>  (25) 
74.59603338621308

>  <Genealogy>  (25) 
O=C([N-]c1cccnc1)c1cccc([N-]C(=O)c2cc(C(F)(F)F)ccc2Oc2ccccc2)c1 (protonated)
O=C([N-]c1cccnc1)c1cccc([N-]C(=O)c2cc(C(F)(F)F)ccc2Oc2ccccc2)c1 (3D coordinates assigned)
O=C([N-]c1cccnc1)c1cccc([N-]C(=O)c2cc(C(F)(F)F)ccc2Oc2ccccc2)c1 (optimized conformer: 74.59603338621308 kcal/mol)

>  <smiles>  (25) 
O=C(Nc1cccnc1)c1cccc(NC(=O)c2cc(C(F)(F)F)ccc2Oc2ccccc2)c1

>  <score_type>  (25) 
oracle

>  <origin>  (25) 
adgpu

>  <m_score__min__energy>  (25) 
-10.9

>  <m_primary>  (25) 
energy

$$$$
25:0
     RDKit          3D

 51 54  0  0  0  0  0  0  0  0999 V2000
   -2.9787   16.9968  -34.3866 H   0  0  0  0  0  0  0  0  0  0  0  0
   -3.9670   17.2940  -34.0060 C   0  0  0  0  0  0  0  0  0  0  0  0
   -4.5550   16.5830  -32.9550 C   0  0  0  0  0  0  0  0  0  0  0  0
   -4.0327   15.7205  -32.5154 H   0  0  0  0  0  0  0  0  0  0  0  0
   -5.8090   16.9680  -32.4610 C   0  0  0  0  0  0  0  0  0  0  0  0
   -6.2742   16.3993  -31.6423 H   0  0  0  0  0  0  0  0  0  0  0  0
   -6.4750   18.0810  -33.0100 C   0  0  0  0  0  0  0  0  0  0  0  0
   -7.7280   18.5020  -32.5410 O   0  0  0  0  0  0  0  0  0  0  0  0
   -8.0560   19.8200  -32.1870 C   0  0  0  0  0  0  0  0  0  0  0  0
   -9.3880   20.2380  -32.2990 C   0  0  0  0  0  0  0  0  0  0  0  0
  -10.1553   19.5321  -32.6498 H   0  0  0  0  0  0  0  0  0  0  0  0
   -9.7480   21.5490  -31.9670 C   0  0  0  0  0  0  0  0  0  0  0  0
  -10.7972   21.8687  -32.0506 H   0  0  0  0  0  0  0  0  0  0  0  0
   -8.7750   22.4530  -31.5290 C   0  0  0  0  0  0  0  0  0  0  0  0
   -9.0618   23.4809  -31.2623 H   0  0  0  0  0  0  0  0  0  0  0  0
   -7.4360   22.0530  -31.4290 C   0  0  0  0  0  0  0  0  0  0  0  0
   -6.2090   23.1920  -30.8830 S   0  0  0  0  0  0  0  0  0  0  0  0
   -6.7590   23.9830  -29.7310 O   0  0  0  0  0  0  0  0  0  0  0  0
   -5.8370   24.1380  -31.9930 O   0  0  0  0  0  0  0  0  0  0  0  0
   -4.7850   22.3480  -30.3660 N   0  0  0  0  0  0  0  0  0  0  0  0
   -4.7050   22.1420  -29.3480 H   0  0  0  0  0  0  0  0  0  0  0  0
   -3.6930   22.0030  -31.2370 C   0  0  0  0  0  0  0  0  0  0  0  0
   -2.3660   21.9220  -30.7720 C   0  0  0  0  0  0  0  0  0  0  0  0
   -2.1469   22.1030  -29.7093 H   0  0  0  0  0  0  0  0  0  0  0  0
   -1.3260   21.6130  -31.6530 C   0  0  0  0  0  0  0  0  0  0  0  0
   -0.2916   21.5628  -31.2823 H   0  0  0  0  0  0  0  0  0  0  0  0
   -1.5940   21.3670  -33.0050 C   0  0  0  0  0  0  0  0  0  0  0  0
   -0.2650   21.0060  -34.1020 S   0  0  0  0  0  0  0  0  0  0  0  0
   -0.4880   19.6950  -34.8070 O   0  0  0  0  0  0  0  0  0  0  0  0
    1.0090   20.9140  -33.3090 O   0  0  0  0  0  0  0  0  0  0  0  0
   -0.1100   22.2740  -35.2800 N   0  0  0  0  0  0  0  0  0  0  0  0
    1.0210   22.7160  -35.7420 C   0  0  0  0  0  0  0  0  0  0  0  0
    1.1040   23.7110  -36.6470 N   0  0  0  0  0  0  0  0  0  0  0  0
    2.3730   23.8990  -36.8750 O   0  0  0  0  0  0  0  0  0  0  0  0
    3.1080   23.0760  -36.1640 C   0  0  0  0  0  0  0  0  0  0  0  0
    4.5980   23.0200  -36.2070 C   0  0  0  0  0  0  0  0  0  0  0  0
    4.9941   23.0051  -35.1809 H   0  0  0  0  0  0  0  0  0  0  0  0
    4.9156   22.1093  -36.7359 H   0  0  0  0  0  0  0  0  0  0  0  0
    4.9831   23.9043  -36.7359 H   0  0  0  0  0  0  0  0  0  0  0  0
    2.2880   22.2710  -35.4020 C   0  0  0  0  0  0  0  0  0  0  0  0
    2.5699   21.4735  -34.6988 H   0  0  0  0  0  0  0  0  0  0  0  0
   -2.9140   21.4340  -33.4730 C   0  0  0  0  0  0  0  0  0  0  0  0
   -3.1321   21.2337  -34.5324 H   0  0  0  0  0  0  0  0  0  0  0  0
   -3.9530   21.7550  -32.5950 C   0  0  0  0  0  0  0  0  0  0  0  0
   -4.9850   21.8140  -32.9713 H   0  0  0  0  0  0  0  0  0  0  0  0
   -7.0770   20.7410  -31.7670 C   0  0  0  0  0  0  0  0  0  0  0  0
   -6.0241   20.4288  -31.7038 H   0  0  0  0  0  0  0  0  0  0  0  0
   -5.8890   18.7690  -34.0810 C   0  0  0  0  0  0  0  0  0  0  0  0
   -6.4167   19.6186  -34.5390 H   0  0  0  0  0  0  0  0  0  0  0  0
   -4.6360   18.3820  -34.5720 C   0  0  0  0  0  0  0  0  0  0  0  0
   -4.1777   18.9356  -35.4048 H   0  0  0  0  0  0  0  0  0  0  0  0
  1  2  1  0
  2  3  2  0
  3  4  1  0
  3  5  1  0
  5  6  1  0
  5  7  2  0
  7  8  1  0
  8  9  1  0
  9 10  2  0
 10 11  1  0
 10 12  1  0
 12 13  1  0
 12 14  2  0
 14 15  1  0
 14 16  1  0
 16 17  1  0
 17 18  2  0
 17 19  2  0
 17 20  1  0
 20 21  1  0
 20 22  1  0
 22 23  2  0
 23 24  1  0
 23 25  1  0
 25 26  1  0
 25 27  2  0
 27 28  1  0
 28 29  2  0
 28 30  2  0
 28 31  1  0
 31 32  2  0
 32 33  1  0
 33 34  1  0
 34 35  1  0
 35 36  1  0
 36 37  1  0
 36 38  1  0
 36 39  1  0
 35 40  2  0
 40 41  1  0
 27 42  1  0
 42 43  1  0
 42 44  2  0
 44 45  1  0
 16 46  2  0
 46 47  1  0
  7 48  1  0
 48 49  1  0
 48 50  2  0
 50 51  1  0
 50  2  1  0
 46  9  1  0
 44 22  1  0
 40 32  1  0
M  CHG  1  33  -1
M  END
>  <UniqueID>  (26) 
26

>  <SMILES>  (26) 
Cc1c/c(=N\S(=O)(=O)c2ccc(NS(=O)(=O)c3cccc(Oc4ccccc4)c3)cc2)[n-]o1

>  <Energy>  (26) 
97.52562942366275

>  <Genealogy>  (26) 
Cc1cc(=NS(=O)(=O)c2ccc(NS(=O)(=O)c3cccc(Oc4ccccc4)c3)cc2)[n-]o1 (protonated)
Cc1c/c(=N\S(=O)(=O)c2ccc(NS(=O)(=O)c3cccc(Oc4ccccc4)c3)cc2)[n-]o1 (cis-trans isomerization)
Cc1c/c(=N\S(=O)(=O)c2ccc(NS(=O)(=O)c3cccc(Oc4ccccc4)c3)cc2)[n-]o1 (3D coordinates assigned)
Cc1c/c(=N\S(=O)(=O)c2ccc(NS(=O)(=O)c3cccc(Oc4ccccc4)c3)cc2)[n-]o1 (optimized conformer: 97.52562942366275 kcal/mol)

>  <smiles>  (26) 
Cc1cc(=NS(=O)(=O)c2ccc(NS(=O)(=O)c3cccc(Oc4ccccc4)c3)cc2)[nH]o1

>  <score_type>  (26) 
oracle

>  <origin>  (26) 
adgpu

>  <m_score__min__energy>  (26) 
-11.949999999999999

>  <m_primary>  (26) 
energy

$$$$
26:0
     RDKit          3D

 42 44  0  0  0  0  0  0  0  0999 V2000
   -8.4900   19.0080  -32.3470 C   0  0  0  0  0  0  0  0  0  0  0  0
   -7.8240   20.0570  -33.0430 O   0  0  0  0  0  0  0  0  0  0  0  0
   -7.2450   21.1730  -32.4220 C   0  0  0  0  0  0  0  0  0  0  0  0
   -8.0440   21.9560  -31.5790 C   0  0  0  0  0  0  0  0  0  0  0  0
   -7.5040   23.0620  -30.9140 C   0  0  0  0  0  0  0  0  0  0  0  0
   -6.1560   23.3990  -31.0900 C   0  0  0  0  0  0  0  0  0  0  0  0
   -5.4510   24.7210  -30.1630 S   0  0  0  0  0  0  0  0  0  0  0  0
   -4.2460   25.2730  -30.8740 O   0  0  0  0  0  0  0  0  0  0  0  0
   -6.4730   25.8130  -30.0230 O   0  0  0  0  0  0  0  0  0  0  0  0
   -4.9690   24.1810  -28.5850 N   0  0  0  0  0  0  0  0  0  0  0  0
   -3.7980   23.3770  -28.3590 C   0  0  0  0  0  0  0  0  0  0  0  0
   -3.0570   23.5500  -27.1810 C   0  0  0  0  0  0  0  0  0  0  0  0
   -1.9250   22.7680  -26.9360 C   0  0  0  0  0  0  0  0  0  0  0  0
   -1.5290   21.7970  -27.8610 C   0  0  0  0  0  0  0  0  0  0  0  0
   -2.2600   21.6020  -29.0380 C   0  0  0  0  0  0  0  0  0  0  0  0
   -1.8620   20.5810  -29.9170 O   0  0  0  0  0  0  0  0  0  0  0  0
   -1.3770   20.7800  -31.2160 C   0  0  0  0  0  0  0  0  0  0  0  0
   -2.2410   21.1400  -32.2000 N   0  0  0  0  0  0  0  0  0  0  0  0
   -1.8090   21.3570  -33.4700 C   0  0  0  0  0  0  0  0  0  0  0  0
   -0.4540   21.2020  -33.7890 C   0  0  0  0  0  0  0  0  0  0  0  0
    0.0290   21.4490  -35.1220 N   0  0  0  0  0  0  0  0  0  0  0  0
   -0.0950   20.5850  -36.0130 O   0  0  0  0  0  0  0  0  0  0  0  0
    0.6500   22.6370  -35.4290 O   0  0  0  0  0  0  0  0  0  0  0  0
    0.4150   20.8000  -32.7630 C   0  0  0  0  0  0  0  0  0  0  0  0
   -0.0610   20.5980  -31.5080 N   0  0  0  0  0  0  0  0  0  0  0  0
   -3.4000   22.3900  -29.2760 C   0  0  0  0  0  0  0  0  0  0  0  0
   -5.3580   22.6360  -31.9530 C   0  0  0  0  0  0  0  0  0  0  0  0
   -5.8960   21.5280  -32.6140 C   0  0  0  0  0  0  0  0  0  0  0  0
   -8.3898   19.1658  -31.2630 H   0  0  0  0  0  0  0  0  0  0  0  0
   -9.5555   19.0054  -32.6202 H   0  0  0  0  0  0  0  0  0  0  0  0
   -8.0391   18.0426  -32.6202 H   0  0  0  0  0  0  0  0  0  0  0  0
   -9.1044   21.6992  -31.4388 H   0  0  0  0  0  0  0  0  0  0  0  0
   -8.1394   23.6682  -30.2516 H   0  0  0  0  0  0  0  0  0  0  0  0
   -5.4310   24.6380  -27.7670 H   0  0  0  0  0  0  0  0  0  0  0  0
   -3.3688   24.3060  -26.4452 H   0  0  0  0  0  0  0  0  0  0  0  0
   -1.3443   22.9166  -26.0136 H   0  0  0  0  0  0  0  0  0  0  0  0
   -0.6381   21.1832  -27.6623 H   0  0  0  0  0  0  0  0  0  0  0  0
   -2.5254   21.6552  -34.2496 H   0  0  0  0  0  0  0  0  0  0  0  0
    1.4834   20.6484  -32.9762 H   0  0  0  0  0  0  0  0  0  0  0  0
   -3.9878   22.2315  -30.1922 H   0  0  0  0  0  0  0  0  0  0  0  0
   -4.3044   22.9100  -32.1108 H   0  0  0  0  0  0  0  0  0  0  0  0
   -5.2629   20.9310  -33.2869 H   0  0  0  0  0  0  0  0  0  0  0  0
  1  2  1  0
  2  3  1  0
  3  4  2  0
  4  5  1  0
  5  6  2  0
  6  7  1  0
  7  8  2  0
  7  9  2  0
  7 10  1  0
 10 11  1  0
 11 12  2  0
 12 13  1  0
 13 14  2  0
 14 15  1  0
 15 16  1  0
 16 17  1  0
 17 18  2  0
 18 19  1  0
 19 20  2  0
 20 21  1  0
 21 22  2  0
 21 23  1  0
 20 24  1  0
 24 25  2  0
 15 26  2  0
  6 27  1  0
 27 28  2  0
 28  3  1  0
 26 11  1  0
 25 17  1  0
  1 29  1  0
  1 30  1  0
  1 31  1  0
  4 32  1  0
  5 33  1  0
 10 34  1  0
 12 35  1  0
 13 36  1  0
 14 37  1  0
 19 38  1  0
 24 39  1  0
 26 40  1  0
 27 41  1  0
 28 42  1  0
M  CHG  2  21   1  23  -1
M  END
>  <UniqueID>  (27) 
27

>  <SMILES>  (27) 
COc1ccc(S(=O)(=O)Nc2cccc(Oc3ncc([N+](=O)[O-])cn3)c2)cc1

>  <Energy>  (27) 
51.868515525306876

>  <Genealogy>  (27) 
COc1ccc(S(=O)(=O)Nc2cccc(Oc3ncc([N+](=O)[O-])cn3)c2)cc1 (3D coordinates assigned)
COc1ccc(S(=O)(=O)Nc2cccc(Oc3ncc([N+](=O)[O-])cn3)c2)cc1 (optimized conformer: 51.868515525306876 kcal/mol)

>  <smiles>  (27) 
COc1ccc(S(=O)(=O)Nc2cccc(Oc3ncc([N+](=O)[O-])cn3)c2)cc1

>  <score_type>  (27) 
oracle

>  <origin>  (27) 
adgpu

>  <m_score__min__energy>  (27) 
-9.3300000000000001

>  <m_primary>  (27) 
energy

$$$$
27:0
     RDKit          3D

 57 61  0  0  0  0  0  0  0  0999 V2000
   -6.3870   16.0050  -34.2250 C   0  0  0  0  0  0  0  0  0  0  0  0
   -6.2180   17.3890  -33.6930 C   0  0  0  0  0  0  0  0  0  0  0  0
   -5.0140   18.0350  -33.4970 C   0  0  0  0  0  0  0  0  0  0  0  0
   -5.3700   19.2730  -32.9970 C   0  0  0  0  0  0  0  0  0  0  0  0
   -4.4150   20.2900  -32.5050 C   0  0  0  0  0  0  0  0  0  0  0  0
   -3.5910   20.8120  -33.3020 O   0  0  0  0  0  0  0  0  0  0  0  0
   -4.4270   20.6760  -31.1220 N   0  0  0  0  0  0  0  0  0  0  0  0
   -3.7590   21.8420  -30.6100 C   0  0  0  0  0  0  0  0  0  0  0  0
   -2.5280   21.7520  -29.9380 C   0  0  0  0  0  0  0  0  0  0  0  0
   -1.8970   22.9090  -29.4760 C   0  0  0  0  0  0  0  0  0  0  0  0
   -2.4960   24.1530  -29.6920 C   0  0  0  0  0  0  0  0  0  0  0  0
   -1.8500   25.3110  -29.2400 O   0  0  0  0  0  0  0  0  0  0  0  0
   -1.2340   25.4540  -27.9890 C   0  0  0  0  0  0  0  0  0  0  0  0
    0.1020   25.0830  -27.7710 C   0  0  0  0  0  0  0  0  0  0  0  0
    0.6580   25.2610  -26.4930 C   0  0  0  0  0  0  0  0  0  0  0  0
    2.0250   24.8890  -26.2060 N   0  0  0  0  0  0  0  0  0  0  0  0
    2.4860   24.7100  -24.8220 C   0  0  0  0  0  0  0  0  0  0  0  0
    3.9960   24.9510  -24.7280 C   0  0  0  0  0  0  0  0  0  0  0  0
    4.6890   24.1880  -25.6950 O   0  0  0  0  0  0  0  0  0  0  0  0
    4.3470   24.6420  -26.9890 C   0  0  0  0  0  0  0  0  0  0  0  0
    2.8710   24.3690  -27.2880 C   0  0  0  0  0  0  0  0  0  0  0  0
   -0.1100   25.8100  -25.5130 N   0  0  0  0  0  0  0  0  0  0  0  0
   -1.3940   26.1820  -25.7440 C   0  0  0  0  0  0  0  0  0  0  0  0
   -1.9440   26.0070  -26.9730 N   0  0  0  0  0  0  0  0  0  0  0  0
   -3.6750   24.2230  -30.3720 N   0  0  0  0  0  0  0  0  0  0  0  0
   -4.3070   23.1120  -30.8320 C   0  0  0  0  0  0  0  0  0  0  0  0
   -6.7220   19.3380  -32.9250 N   0  0  0  0  0  0  0  0  0  0  0  0
   -7.5360   20.4530  -32.5290 C   0  0  0  0  0  0  0  0  0  0  0  0
   -8.8510   20.2560  -32.0730 C   0  0  0  0  0  0  0  0  0  0  0  0
   -9.6230   21.3450  -31.6570 C   0  0  0  0  0  0  0  0  0  0  0  0
   -9.0840   22.6350  -31.6780 C   0  0  0  0  0  0  0  0  0  0  0  0
   -7.7690   22.8360  -32.1070 C   0  0  0  0  0  0  0  0  0  0  0  0
   -6.9940   21.7490  -32.5230 C   0  0  0  0  0  0  0  0  0  0  0  0
   -7.2390   18.1930  -33.3440 N   0  0  0  0  0  0  0  0  0  0  0  0
   -6.4733   15.2980  -33.3868 H   0  0  0  0  0  0  0  0  0  0  0  0
   -7.2976   15.9573  -34.8402 H   0  0  0  0  0  0  0  0  0  0  0  0
   -5.5146   15.7396  -34.8402 H   0  0  0  0  0  0  0  0  0  0  0  0
   -4.0019   17.6517  -33.6939 H   0  0  0  0  0  0  0  0  0  0  0  0
   -4.8600   20.0200  -30.4330 H   0  0  0  0  0  0  0  0  0  0  0  0
   -2.0611   20.7693  -29.7758 H   0  0  0  0  0  0  0  0  0  0  0  0
   -0.9355   22.8417  -28.9459 H   0  0  0  0  0  0  0  0  0  0  0  0
    0.7044   24.6594  -28.5881 H   0  0  0  0  0  0  0  0  0  0  0  0
    1.9633   25.4255  -24.1702 H   0  0  0  0  0  0  0  0  0  0  0  0
    2.2680   23.6801  -24.5031 H   0  0  0  0  0  0  0  0  0  0  0  0
    4.2016   26.0184  -24.8963 H   0  0  0  0  0  0  0  0  0  0  0  0
    4.3391   24.6470  -23.7281 H   0  0  0  0  0  0  0  0  0  0  0  0
    4.5337   25.7242  -27.0526 H   0  0  0  0  0  0  0  0  0  0  0  0
    4.9615   24.1036  -27.7255 H   0  0  0  0  0  0  0  0  0  0  0  0
    2.5953   24.8614  -28.2322 H   0  0  0  0  0  0  0  0  0  0  0  0
    2.7184   23.2827  -27.3697 H   0  0  0  0  0  0  0  0  0  0  0  0
   -1.9908   26.6264  -24.9339 H   0  0  0  0  0  0  0  0  0  0  0  0
   -5.2546   23.2102  -31.3820 H   0  0  0  0  0  0  0  0  0  0  0  0
   -9.2743   19.2412  -32.0433 H   0  0  0  0  0  0  0  0  0  0  0  0
  -10.6557   21.1867  -31.3128 H   0  0  0  0  0  0  0  0  0  0  0  0
   -9.6948   23.4916  -31.3569 H   0  0  0  0  0  0  0  0  0  0  0  0
   -7.3434   23.8503  -32.1174 H   0  0  0  0  0  0  0  0  0  0  0  0
   -5.9551   21.9095  -32.8470 H   0  0  0  0  0  0  0  0  0  0  0  0
  1  2  1  0
  2  3  1  0
  3  4  2  0
  4  5  1  0
  5  6  2  0
  5  7  1  0
  7  8  1  0
  8  9  2  0
  9 10  1  0
 10 11  2  0
 11 12  1  0
 12 13  1  0
 13 14  2  0
 14 15  1  0
 15 16  1  0
 16 17  1  0
 17 18  1  0
 18 19  1  0
 19 20  1  0
 20 21  1  0
 15 22  2  0
 22 23  1  0
 23 24  2  0
 11 25  1  0
 25 26  2  0
  4 27  1  0
 27 28  1  0
 28 29  2  0
 29 30  1  0
 30 31  2  0
 31 32  1  0
 32 33  2  0
 27 34  1  0
 34  2  2  0
 26  8  1  0
 33 28  1  0
 24 13  1  0
 21 16  1  0
  1 35  1  0
  1 36  1  0
  1 37  1  0
  3 38  1  0
  7 39  1  0
  9 40  1  0
 10 41  1  0
 14 42  1  0
 17 43  1  0
 17 44  1  0
 18 45  1  0
 18 46  1  0
 20 47  1  0
 20 48  1  0
 21 49  1  0
 21 50  1  0
 23 51  1  0
 26 52  1  0
 29 53  1  0
 30 54  1  0
 31 55  1  0
 32 56  1  0
 33 57  1  0
M  END
>  <UniqueID>  (28) 
28

>  <SMILES>  (28) 
Cc1cc(C(=O)Nc2ccc(Oc3cc(N4CCOCC4)ncn3)nc2)n(-c2ccccc2)n1

>  <Energy>  (28) 
112.15994613845437

>  <Genealogy>  (28) 
Cc1cc(C(=O)Nc2ccc(Oc3cc(N4CCOCC4)ncn3)nc2)n(-c2ccccc2)n1 (3D coordinates assigned)
Cc1cc(C(=O)Nc2ccc(Oc3cc(N4CCOCC4)ncn3)nc2)n(-c2ccccc2)n1 (nonaromatic ring conformer: 112.15994613845437 kcal/mol)

>  <smiles>  (28) 
Cc1cc(C(=O)Nc2ccc(Oc3cc(N4CCOCC4)ncn3)nc2)n(-c2ccccc2)n1

>  <score_type>  (28) 
oracle

>  <origin>  (28) 
adgpu

>  <m_score__min__energy>  (28) 
-9.9000000000000004

>  <m_primary>  (28) 
energy

$$$$
28:0
     RDKit          3D

 44 46  0  0  0  0  0  0  0  0999 V2000
   -7.3541   25.7947  -28.3730 H   0  0  0  0  0  0  0  0  0  0  0  0
   -6.4660   25.7580  -29.0210 C   0  0  0  0  0  0  0  0  0  0  0  0
   -5.5005   26.1352  -28.6528 H   0  0  0  0  0  0  0  0  0  0  0  0
   -6.5600   25.2550  -30.2560 C   0  0  0  0  0  0  0  0  0  0  0  0
   -7.5321   24.8816  -30.6104 H   0  0  0  0  0  0  0  0  0  0  0  0
   -5.3710   25.1870  -31.1720 C   0  0  0  0  0  0  0  0  0  0  0  0
   -5.7195   25.1143  -32.2128 H   0  0  0  0  0  0  0  0  0  0  0  0
   -4.7657   26.0956  -31.0375 H   0  0  0  0  0  0  0  0  0  0  0  0
   -4.5450   24.0150  -30.8560 N   0  0  0  0  0  0  0  0  0  0  0  0
   -3.3760   24.0880  -30.1540 C   0  0  0  0  0  0  0  0  0  0  0  0
   -2.8450   25.2980  -29.7170 O   0  0  0  0  0  0  0  0  0  0  0  0
   -2.7600   22.8640  -29.9060 C   0  0  0  0  0  0  0  0  0  0  0  0
   -1.4420   22.6520  -29.2310 C   0  0  0  0  0  0  0  0  0  0  0  0
   -0.6469   22.6127  -29.9901 H   0  0  0  0  0  0  0  0  0  0  0  0
   -1.2560   23.4841  -28.5360 H   0  0  0  0  0  0  0  0  0  0  0  0
   -1.4570   21.3620  -28.4600 C   0  0  0  0  0  0  0  0  0  0  0  0
   -2.5080   21.0830  -27.5690 C   0  0  0  0  0  0  0  0  0  0  0  0
   -3.3053   21.8244  -27.4122 H   0  0  0  0  0  0  0  0  0  0  0  0
   -2.5430   19.8650  -26.8810 C   0  0  0  0  0  0  0  0  0  0  0  0
   -3.3639   19.6537  -26.1800 H   0  0  0  0  0  0  0  0  0  0  0  0
   -1.5370   18.9170  -27.0830 C   0  0  0  0  0  0  0  0  0  0  0  0
   -1.5646   17.9616  -26.5385 H   0  0  0  0  0  0  0  0  0  0  0  0
   -0.4950   19.1820  -27.9770 C   0  0  0  0  0  0  0  0  0  0  0  0
    0.2951   18.4336  -28.1369 H   0  0  0  0  0  0  0  0  0  0  0  0
   -0.4560   20.3970  -28.6680 C   0  0  0  0  0  0  0  0  0  0  0  0
    0.3607   20.5985  -29.3768 H   0  0  0  0  0  0  0  0  0  0  0  0
   -3.6980   21.6510  -30.6010 S   0  0  0  0  0  0  0  0  0  0  0  0
   -4.8590   22.7340  -31.1830 C   0  0  0  0  0  0  0  0  0  0  0  0
   -5.9560   22.4110  -31.8080 N   0  0  0  0  0  0  0  0  0  0  0  0
   -6.3470   21.0950  -32.2260 C   0  0  0  0  0  0  0  0  0  0  0  0
   -7.4750   20.4540  -31.6860 C   0  0  0  0  0  0  0  0  0  0  0  0
   -8.1002   20.9773  -30.9476 H   0  0  0  0  0  0  0  0  0  0  0  0
   -7.8070   19.1550  -32.0820 C   0  0  0  0  0  0  0  0  0  0  0  0
   -8.7020   18.6678  -31.6678 H   0  0  0  0  0  0  0  0  0  0  0  0
   -7.0000   18.4680  -33.0090 C   0  0  0  0  0  0  0  0  0  0  0  0
   -7.2910   17.1670  -33.4420 O   0  0  0  0  0  0  0  0  0  0  0  0
   -6.3120   16.2230  -33.8660 C   0  0  0  0  0  0  0  0  0  0  0  0
   -5.8378   15.7658  -32.9850 H   0  0  0  0  0  0  0  0  0  0  0  0
   -6.7945   15.4406  -34.4702 H   0  0  0  0  0  0  0  0  0  0  0  0
   -5.5477   16.7337  -34.4702 H   0  0  0  0  0  0  0  0  0  0  0  0
   -5.8590   19.1000  -33.5190 C   0  0  0  0  0  0  0  0  0  0  0  0
   -5.2180   18.5702  -34.2390 H   0  0  0  0  0  0  0  0  0  0  0  0
   -5.5280   20.3980  -33.1210 C   0  0  0  0  0  0  0  0  0  0  0  0
   -4.6178   20.8748  -33.5138 H   0  0  0  0  0  0  0  0  0  0  0  0
  1  2  1  0
  2  3  1  0
  2  4  2  0
  4  5  1  0
  4  6  1  0
  6  7  1  0
  6  8  1  0
  6  9  1  0
  9 10  1  0
 10 11  1  0
 10 12  2  0
 12 13  1  0
 13 14  1  0
 13 15  1  0
 13 16  1  0
 16 17  2  0
 17 18  1  0
 17 19  1  0
 19 20  1  0
 19 21  2  0
 21 22  1  0
 21 23  1  0
 23 24  1  0
 23 25  2  0
 25 26  1  0
 12 27  1  0
 27 28  1  0
 28 29  2  0
 29 30  1  0
 30 31  2  0
 31 32  1  0
 31 33  1  0
 33 34  1  0
 33 35  2  0
 35 36  1  0
 36 37  1  0
 37 38  1  0
 37 39  1  0
 37 40  1  0
 35 41  1  0
 41 42  1  0
 41 43  2  0
 43 44  1  0
 28  9  1  0
 43 30  1  0
 25 16  1  0
M  CHG  1  11  -1
M  END
>  <UniqueID>  (29) 
29

>  <SMILES>  (29) 
C=CCn1c([O-])c(Cc2ccccc2)s/c1=N\c1ccc(OC)cc1

>  <Energy>  (29) 
78.55640214806073

>  <Genealogy>  (29) 
C=CCn1c([O-])c(Cc2ccccc2)sc1=Nc1ccc(OC)cc1 (protonated)
C=CCn1c([O-])c(Cc2ccccc2)s/c1=N\c1ccc(OC)cc1 (cis-trans isomerization)
C=CCn1c([O-])c(Cc2ccccc2)s/c1=N\c1ccc(OC)cc1 (3D coordinates assigned)
C=CCn1c([O-])c(Cc2ccccc2)s/c1=N\c1ccc(OC)cc1 (optimized conformer: 78.55640214806073 kcal/mol)

>  <smiles>  (29) 
C=CCn1c(O)c(Cc2ccccc2)sc1=Nc1ccc(OC)cc1

>  <score_type>  (29) 
oracle

>  <origin>  (29) 
adgpu

>  <m_score__min__energy>  (29) 
-10.94

>  <m_primary>  (29) 
energy

$$$$
29:0
     RDKit          3D

 52 54  0  0  0  0  0  0  0  0999 V2000
   -3.3332   15.8211  -34.8837 H   0  0  0  0  0  0  0  0  0  0  0  0
   -2.9740   16.8130  -34.5720 C   0  0  0  0  0  0  0  0  0  0  0  0
   -1.7070   17.2440  -34.9700 C   0  0  0  0  0  0  0  0  0  0  0  0
   -1.0828   16.5914  -35.5980 H   0  0  0  0  0  0  0  0  0  0  0  0
   -1.2220   18.4990  -34.5780 C   0  0  0  0  0  0  0  0  0  0  0  0
    0.1600   18.9210  -35.0030 C   0  0  0  0  0  0  0  0  0  0  0  0
    0.7763   19.1092  -34.1115 H   0  0  0  0  0  0  0  0  0  0  0  0
    0.6188   18.1220  -35.6039 H   0  0  0  0  0  0  0  0  0  0  0  0
    0.0942   19.8400  -35.6039 H   0  0  0  0  0  0  0  0  0  0  0  0
   -2.0350   19.3340  -33.7800 C   0  0  0  0  0  0  0  0  0  0  0  0
   -1.5380   20.6720  -33.3030 C   0  0  0  0  0  0  0  0  0  0  0  0
   -1.5314   20.6899  -32.2032 H   0  0  0  0  0  0  0  0  0  0  0  0
   -0.5177   20.8393  -33.6786 H   0  0  0  0  0  0  0  0  0  0  0  0
   -2.2016   21.4648  -33.6786 H   0  0  0  0  0  0  0  0  0  0  0  0
   -3.3110   18.8930  -33.3880 C   0  0  0  0  0  0  0  0  0  0  0  0
   -3.9414   19.5452  -32.7658 H   0  0  0  0  0  0  0  0  0  0  0  0
   -3.7950   17.6300  -33.7790 C   0  0  0  0  0  0  0  0  0  0  0  0
   -5.1400   17.1260  -33.3660 C   0  0  0  0  0  0  0  0  0  0  0  0
   -5.2010   16.0250  -32.7460 O   0  0  0  0  0  0  0  0  0  0  0  0
   -6.3670   17.8010  -33.7570 N   0  0  2  0  0  0  0  0  0  0  0  0
   -6.9680   17.1360  -34.2930 H   0  0  0  0  0  0  0  0  0  0  0  0
   -6.1120   18.9170  -34.6910 C   0  0  0  0  0  0  0  0  0  0  0  0
   -5.9027   19.8331  -34.1192 H   0  0  0  0  0  0  0  0  0  0  0  0
   -5.2462   18.6743  -35.3246 H   0  0  0  0  0  0  0  0  0  0  0  0
   -6.9973   19.0745  -35.3246 H   0  0  0  0  0  0  0  0  0  0  0  0
   -7.1460   18.2300  -32.5690 C   0  0  0  0  0  0  0  0  0  0  0  0
   -6.9141   17.5487  -31.7371 H   0  0  0  0  0  0  0  0  0  0  0  0
   -8.2083   18.1993  -32.8528 H   0  0  0  0  0  0  0  0  0  0  0  0
   -6.8470   19.6480  -32.1240 C   0  0  0  0  0  0  0  0  0  0  0  0
   -5.5650   19.9940  -31.6650 C   0  0  0  0  0  0  0  0  0  0  0  0
   -4.7634   19.2408  -31.6628 H   0  0  0  0  0  0  0  0  0  0  0  0
   -5.3020   21.2900  -31.2110 C   0  0  0  0  0  0  0  0  0  0  0  0
   -4.2991   21.5475  -30.8398 H   0  0  0  0  0  0  0  0  0  0  0  0
   -6.3100   22.2610  -31.2270 C   0  0  0  0  0  0  0  0  0  0  0  0
   -5.9780   23.8750  -30.6060 S   0  0  0  0  0  0  0  0  0  0  0  0
   -7.2610   24.6310  -30.3890 O   0  0  0  0  0  0  0  0  0  0  0  0
   -5.1460   24.6270  -31.6090 O   0  0  0  0  0  0  0  0  0  0  0  0
   -5.1050   23.7580  -29.1120 N   0  0  0  0  0  0  0  0  0  0  0  0
   -3.9230   24.2640  -28.9400 C   0  0  0  0  0  0  0  0  0  0  0  0
   -3.2310   24.9280  -29.8860 N   0  0  0  0  0  0  0  0  0  0  0  0
   -2.1050   25.2760  -29.3330 O   0  0  0  0  0  0  0  0  0  0  0  0
   -2.0450   24.8700  -28.0830 C   0  0  0  0  0  0  0  0  0  0  0  0
   -0.8830   25.0950  -27.1750 C   0  0  0  0  0  0  0  0  0  0  0  0
   -1.2171   25.0303  -26.1290 H   0  0  0  0  0  0  0  0  0  0  0  0
   -0.1168   24.3285  -27.3632 H   0  0  0  0  0  0  0  0  0  0  0  0
   -0.4582   26.0921  -27.3632 H   0  0  0  0  0  0  0  0  0  0  0  0
   -3.2060   24.1970  -27.7680 C   0  0  0  0  0  0  0  0  0  0  0  0
   -3.4888   23.7239  -26.8160 H   0  0  0  0  0  0  0  0  0  0  0  0
   -7.5870   21.9250  -31.6960 C   0  0  0  0  0  0  0  0  0  0  0  0
   -8.3830   22.6841  -31.7102 H   0  0  0  0  0  0  0  0  0  0  0  0
   -7.8530   20.6280  -32.1460 C   0  0  0  0  0  0  0  0  0  0  0  0
   -8.8560   20.3737  -32.5194 H   0  0  0  0  0  0  0  0  0  0  0  0
  1  2  1  0
  2  3  2  0
  3  4  1  0
  3  5  1  0
  5  6  1  0
  6  7  1  0
  6  8  1  0
  6  9  1  0
  5 10  2  0
 10 11  1  0
 11 12  1  0
 11 13  1  0
 11 14  1  0
 10 15  1  0
 15 16  1  0
 15 17  2  0
 17 18  1  0
 18 19  2  0
 18 20  1  0
 20 21  1  6
 20 22  1  0
 22 23  1  0
 22 24  1  0
 22 25  1  0
 20 26  1  0
 26 27  1  0
 26 28  1  0
 26 29  1  0
 29 30  2  0
 30 31  1  0
 30 32  1  0
 32 33  1  0
 32 34  2  0
 34 35  1  0
 35 36  2  0
 35 37  2  0
 35 38  1  0
 38 39  2  0
 39 40  1  0
 40 41  1  0
 41 42  1  0
 42 43  1  0
 43 44  1  0
 43 45  1  0
 43 46  1  0
 42 47  2  0
 47 48  1  0
 34 49  1  0
 49 50  1  0
 49 51  2  0
 51 52  1  0
 17  2  1  0
 51 29  1  0
 47 39  1  0
M  CHG  2  20   1  40  -1
M  END
>  <UniqueID>  (30) 
30

>  <SMILES>  (30) 
Cc1c/c(=N/S(=O)(=O)c2ccc(C[N@@H+](C)C(=O)c3ccc(C)c(C)c3)cc2)[n-]o1

>  <Energy>  (30) 
94.23008248214298

>  <Genealogy>  (30) 
Cc1cc(=NS(=O)(=O)c2ccc(C[NH+](C)C(=O)c3ccc(C)c(C)c3)cc2)[n-]o1 (protonated)
Cc1cc(=NS(=O)(=O)c2ccc(C[N@@H+](C)C(=O)c3ccc(C)c(C)c3)cc2)[n-]o1 (chirality)
Cc1c/c(=N/S(=O)(=O)c2ccc(C[N@@H+](C)C(=O)c3ccc(C)c(C)c3)cc2)[n-]o1 (cis-trans isomerization)
Cc1c/c(=N/S(=O)(=O)c2ccc(C[N@@H+](C)C(=O)c3ccc(C)c(C)c3)cc2)[n-]o1 (3D coordinates assigned)
Cc1c/c(=N/S(=O)(=O)c2ccc(C[N@@H+](C)C(=O)c3ccc(C)c(C)c3)cc2)[n-]o1 (optimized conformer: 94.23008248214298 kcal/mol)

>  <smiles>  (30) 
Cc1cc(=NS(=O)(=O)c2ccc(CN(C)C(=O)c3ccc(C)c(C)c3)cc2)[nH]o1

>  <score_type>  (30) 
oracle

>  <origin>  (30) 
adgpu

>  <m_score__min__energy>  (30) 
-11.050000000000001

>  <m_primary>  (30) 
energy

$$$$
30:0
     RDKit          3D

 59 63  0  0  0  0  0  0  0  0999 V2000
    1.4980   24.6100  -27.9700 O   0  0  0  0  0  0  0  0  0  0  0  0
    0.2860   24.5020  -27.6390 C   0  0  0  0  0  0  0  0  0  0  0  0
   -0.1490   24.9490  -26.3460 N   0  0  0  0  0  0  0  0  0  0  0  0
   -0.2880   26.3130  -25.9180 C   0  0  0  0  0  0  0  0  0  0  0  0
   -0.4040   26.5800  -24.5490 C   0  0  0  0  0  0  0  0  0  0  0  0
   -0.5470   27.8940  -24.0930 C   0  0  0  0  0  0  0  0  0  0  0  0
   -0.5930   28.9520  -25.0050 C   0  0  0  0  0  0  0  0  0  0  0  0
   -0.7320   30.2580  -24.5380 O   0  0  0  0  0  0  0  0  0  0  0  0
   -0.5060   28.6890  -26.3780 C   0  0  0  0  0  0  0  0  0  0  0  0
   -0.3620   27.3760  -26.8350 C   0  0  0  0  0  0  0  0  0  0  0  0
   -0.6730   23.8480  -28.5610 C   0  0  0  0  0  0  0  0  0  0  0  0
   -0.5650   22.4760  -28.8430 C   0  0  0  0  0  0  0  0  0  0  0  0
   -1.4860   21.8510  -29.6850 C   0  0  0  0  0  0  0  0  0  0  0  0
   -2.5370   22.5780  -30.2740 C   0  0  0  0  0  0  0  0  0  0  0  0
   -3.5350   21.8680  -31.1150 C   0  0  0  0  0  0  0  0  0  0  0  0
   -4.8560   22.1770  -31.0470 N   0  0  0  0  0  0  0  0  0  0  0  0
   -5.7610   21.4880  -31.7880 C   0  0  0  0  0  0  0  0  0  0  0  0
   -7.1520   21.8060  -31.7060 N   0  0  0  0  0  0  0  0  0  0  0  0
   -7.5680   23.1990  -31.5450 C   0  0  0  0  0  0  0  0  0  0  0  0
   -8.9720   23.3720  -32.1250 C   0  0  0  0  0  0  0  0  0  0  0  0
   -9.8620   22.4230  -31.5630 O   0  0  0  0  0  0  0  0  0  0  0  0
   -9.4870   21.1180  -31.9660 C   0  0  0  0  0  0  0  0  0  0  0  0
   -8.1110   20.7410  -31.4080 C   0  0  0  0  0  0  0  0  0  0  0  0
   -5.3460   20.4880  -32.6060 N   0  0  0  0  0  0  0  0  0  0  0  0
   -4.0260   20.1800  -32.7000 C   0  0  0  0  0  0  0  0  0  0  0  0
   -3.5830   19.1290  -33.5840 N   0  0  0  0  0  0  0  0  0  0  0  0
   -4.5680   18.3650  -34.3580 C   0  0  0  0  0  0  0  0  0  0  0  0
   -4.0010   16.9920  -34.7270 C   0  0  0  0  0  0  0  0  0  0  0  0
   -2.7410   17.1230  -35.3500 O   0  0  0  0  0  0  0  0  0  0  0  0
   -1.8020   17.6460  -34.4320 C   0  0  0  0  0  0  0  0  0  0  0  0
   -2.1790   19.0710  -34.0090 C   0  0  0  0  0  0  0  0  0  0  0  0
   -3.1300   20.8740  -31.9500 N   0  0  0  0  0  0  0  0  0  0  0  0
   -2.6360   23.9620  -30.0040 C   0  0  0  0  0  0  0  0  0  0  0  0
   -3.6570   24.7320  -30.5520 O   0  0  0  0  0  0  0  0  0  0  0  0
   -1.7110   24.5840  -29.1580 C   0  0  0  0  0  0  0  0  0  0  0  0
   -0.3825   25.7505  -23.8269 H   0  0  0  0  0  0  0  0  0  0  0  0
   -0.6234   28.0954  -23.0143 H   0  0  0  0  0  0  0  0  0  0  0  0
   -0.4050   30.5310  -23.6170 H   0  0  0  0  0  0  0  0  0  0  0  0
   -0.5512   29.5185  -27.0990 H   0  0  0  0  0  0  0  0  0  0  0  0
   -0.3064   27.1739  -27.9148 H   0  0  0  0  0  0  0  0  0  0  0  0
    0.2518   21.8898  -28.3967 H   0  0  0  0  0  0  0  0  0  0  0  0
   -1.3889   20.7749  -29.8911 H   0  0  0  0  0  0  0  0  0  0  0  0
   -7.5762   23.4598  -30.4764 H   0  0  0  0  0  0  0  0  0  0  0  0
   -6.8647   23.8593  -32.0736 H   0  0  0  0  0  0  0  0  0  0  0  0
   -9.3343   24.3858  -31.8995 H   0  0  0  0  0  0  0  0  0  0  0  0
   -8.9286   23.2179  -33.2133 H   0  0  0  0  0  0  0  0  0  0  0  0
  -10.2335   20.3997  -31.5962 H   0  0  0  0  0  0  0  0  0  0  0  0
   -9.4366   21.0932  -33.0646 H   0  0  0  0  0  0  0  0  0  0  0  0
   -8.1820   20.6065  -30.3186 H   0  0  0  0  0  0  0  0  0  0  0  0
   -7.7723   19.8036  -31.8733 H   0  0  0  0  0  0  0  0  0  0  0  0
   -5.4790   18.2320  -33.7560 H   0  0  0  0  0  0  0  0  0  0  0  0
   -4.8043   18.9153  -35.2806 H   0  0  0  0  0  0  0  0  0  0  0  0
   -3.8911   16.3894  -33.8133 H   0  0  0  0  0  0  0  0  0  0  0  0
   -4.6923   16.5008  -35.4276 H   0  0  0  0  0  0  0  0  0  0  0  0
   -1.7739   17.0021  -33.5406 H   0  0  0  0  0  0  0  0  0  0  0  0
   -0.8160   17.6751  -34.9188 H   0  0  0  0  0  0  0  0  0  0  0  0
   -1.5351   19.3824  -33.1733 H   0  0  0  0  0  0  0  0  0  0  0  0
   -2.0401   19.7445  -34.8676 H   0  0  0  0  0  0  0  0  0  0  0  0
   -1.7973   25.6622  -28.9578 H   0  0  0  0  0  0  0  0  0  0  0  0
  1  2  2  0
  2  3  1  0
  3  4  1  0
  4  5  2  0
  5  6  1  0
  6  7  2  0
  7  8  1  0
  7  9  1  0
  9 10  2  0
  2 11  1  0
 11 12  2  0
 12 13  1  0
 13 14  2  0
 14 15  1  0
 15 16  2  0
 16 17  1  0
 17 18  1  0
 18 19  1  0
 19 20  1  0
 20 21  1  0
 21 22  1  0
 22 23  1  0
 17 24  2  0
 24 25  1  0
 25 26  1  0
 26 27  1  0
 27 28  1  0
 28 29  1  0
 29 30  1  0
 30 31  1  0
 25 32  2  0
 14 33  1  0
 33 34  1  0
 33 35  2  0
 10  4  1  0
 35 11  1  0
 32 15  1  0
 23 18  1  0
 31 26  1  0
  5 36  1  0
  6 37  1  0
  8 38  1  0
  9 39  1  0
 10 40  1  0
 12 41  1  0
 13 42  1  0
 19 43  1  0
 19 44  1  0
 20 45  1  0
 20 46  1  0
 22 47  1  0
 22 48  1  0
 23 49  1  0
 23 50  1  0
 27 51  1  0
 27 52  1  0
 28 53  1  0
 28 54  1  0
 30 55  1  0
 30 56  1  0
 31 57  1  0
 31 58  1  0
 35 59  1  0
M  CHG  2   3  -1  34  -1
M  END
>  <UniqueID>  (31) 
31

>  <SMILES>  (31) 
O=C([N-]c1ccc(O)cc1)c1ccc(-c2nc(N3CCOCC3)nc(N3CCOCC3)n2)c([O-])c1

>  <Energy>  (31) 
80.02363696414056

>  <Genealogy>  (31) 
O=C([N-]c1ccc(O)cc1)c1ccc(-c2nc(N3CCOCC3)nc(N3CCOCC3)n2)c([O-])c1 (protonated)
O=C([N-]c1ccc(O)cc1)c1ccc(-c2nc(N3CCOCC3)nc(N3CCOCC3)n2)c([O-])c1 (3D coordinates assigned)
O=C([N-]c1ccc(O)cc1)c1ccc(-c2nc(N3CCOCC3)nc(N3CCOCC3)n2)c([O-])c1 (nonaromatic ring conformer: 80.02363696414056 kcal/mol)

>  <smiles>  (31) 
O=C(Nc1ccc(O)cc1)c1ccc(-c2nc(N3CCOCC3)nc(N3CCOCC3)n2)c(O)c1

>  <score_type>  (31) 
oracle

>  <origin>  (31) 
adgpu

>  <m_score__min__energy>  (31) 
-11.15

>  <m_primary>  (31) 
energy

$$$$
31:0
     RDKit          3D

 48 51  0  0  0  0  0  0  0  0999 V2000
   -4.3400   12.7080  -35.2160 H   0  0  0  0  0  0  0  0  0  0  0  0
   -5.2690   13.1330  -35.0010 N   0  0  0  0  0  0  0  0  0  0  0  0
   -5.3720   14.3460  -34.5580 C   0  0  0  0  0  0  0  0  0  0  0  0
   -4.2550   15.1000  -34.3660 N   0  0  0  0  0  0  0  0  0  0  0  0
   -4.3360   16.3750  -33.9060 C   0  0  0  0  0  0  0  0  0  0  0  0
   -3.4203   16.9688  -33.7687 H   0  0  0  0  0  0  0  0  0  0  0  0
   -5.5850   16.9350  -33.6060 C   0  0  0  0  0  0  0  0  0  0  0  0
   -5.6820   18.3280  -33.1110 C   0  0  0  0  0  0  0  0  0  0  0  0
   -4.9690   18.6930  -32.0070 N   0  0  0  0  0  0  0  0  0  0  0  0
   -5.0190   19.9500  -31.4940 C   0  0  0  0  0  0  0  0  0  0  0  0
   -4.4175   20.2054  -30.6091 H   0  0  0  0  0  0  0  0  0  0  0  0
   -5.8350   20.9230  -32.0890 C   0  0  0  0  0  0  0  0  0  0  0  0
   -5.9160   22.2940  -31.5350 C   0  0  0  0  0  0  0  0  0  0  0  0
   -4.7210   22.9830  -31.2620 C   0  0  0  0  0  0  0  0  0  0  0  0
   -3.7567   22.4994  -31.4771 H   0  0  0  0  0  0  0  0  0  0  0  0
   -4.7380   24.2740  -30.7210 C   0  0  0  0  0  0  0  0  0  0  0  0
   -3.4880   24.9290  -30.4680 N   0  0  0  0  0  0  0  0  0  0  0  0
   -2.3790   24.5290  -29.1990 S   0  0  0  0  0  0  0  0  0  0  0  0
   -1.1490   25.3770  -29.3410 O   0  0  0  0  0  0  0  0  0  0  0  0
   -3.0060   24.8200  -27.8680 O   0  0  0  0  0  0  0  0  0  0  0  0
   -1.9140   22.8340  -29.3260 C   0  0  0  0  0  0  0  0  0  0  0  0
   -1.2980   22.3740  -30.4990 C   0  0  0  0  0  0  0  0  0  0  0  0
   -1.0832   23.0764  -31.3178 H   0  0  0  0  0  0  0  0  0  0  0  0
   -0.9560   21.0230  -30.6300 C   0  0  0  0  0  0  0  0  0  0  0  0
   -0.4672   20.6668  -31.5488 H   0  0  0  0  0  0  0  0  0  0  0  0
   -1.2350   20.1250  -29.5940 C   0  0  0  0  0  0  0  0  0  0  0  0
   -0.9755   19.0616  -29.7028 H   0  0  0  0  0  0  0  0  0  0  0  0
   -1.8440   20.5800  -28.4200 C   0  0  0  0  0  0  0  0  0  0  0  0
   -2.0601   19.8742  -27.6045 H   0  0  0  0  0  0  0  0  0  0  0  0
   -2.1790   21.9320  -28.2810 C   0  0  0  0  0  0  0  0  0  0  0  0
   -2.6500   22.2889  -27.3532 H   0  0  0  0  0  0  0  0  0  0  0  0
   -5.9700   24.8890  -30.4540 C   0  0  0  0  0  0  0  0  0  0  0  0
   -5.9940   25.8993  -30.0197 H   0  0  0  0  0  0  0  0  0  0  0  0
   -7.1650   24.2270  -30.7360 C   0  0  0  0  0  0  0  0  0  0  0  0
   -8.1244   24.7180  -30.5155 H   0  0  0  0  0  0  0  0  0  0  0  0
   -7.1560   22.9390  -31.2990 C   0  0  0  0  0  0  0  0  0  0  0  0
   -8.4740   22.2870  -31.6320 C   0  0  0  0  0  0  0  0  0  0  0  0
   -8.9998   22.0269  -30.7015 H   0  0  0  0  0  0  0  0  0  0  0  0
   -9.0901   22.9842  -32.2187 H   0  0  0  0  0  0  0  0  0  0  0  0
   -8.2936   21.3742  -32.2187 H   0  0  0  0  0  0  0  0  0  0  0  0
   -6.5720   20.5750  -33.2300 C   0  0  0  0  0  0  0  0  0  0  0  0
   -7.2082   21.3252  -33.7224 H   0  0  0  0  0  0  0  0  0  0  0  0
   -6.5000   19.2790  -33.7420 C   0  0  0  0  0  0  0  0  0  0  0  0
   -7.0807   19.0039  -34.6348 H   0  0  0  0  0  0  0  0  0  0  0  0
   -6.7240   16.1380  -33.8160 C   0  0  0  0  0  0  0  0  0  0  0  0
   -7.7231   16.5433  -33.5981 H   0  0  0  0  0  0  0  0  0  0  0  0
   -6.5970   14.8690  -34.2870 N   0  0  0  0  0  0  0  0  0  0  0  0
   -7.4590   14.2960  -34.4460 H   0  0  0  0  0  0  0  0  0  0  0  0
  1  2  1  0
  2  3  2  0
  3  4  1  0
  4  5  2  0
  5  6  1  0
  5  7  1  0
  7  8  1  0
  8  9  2  0
  9 10  1  0
 10 11  1  0
 10 12  2  0
 12 13  1  0
 13 14  2  0
 14 15  1  0
 14 16  1  0
 16 17  1  0
 17 18  1  0
 18 19  2  0
 18 20  2  0
 18 21  1  0
 21 22  2  0
 22 23  1  0
 22 24  1  0
 24 25  1  0
 24 26  2  0
 26 27  1  0
 26 28  1  0
 28 29  1  0
 28 30  2  0
 30 31  1  0
 16 32  2  0
 32 33  1  0
 32 34  1  0
 34 35  1  0
 34 36  2  0
 36 37  1  0
 37 38  1  0
 37 39  1  0
 37 40  1  0
 12 41  1  0
 41 42  1  0
 41 43  2  0
 43 44  1  0
  7 45  2  0
 45 46  1  0
 45 47  1  0
 47 48  1  0
 47  3  1  0
 43  8  1  0
 36 13  1  0
 30 21  1  0
M  CHG  1  17  -1
M  END
>  <UniqueID>  (32) 
32

>  <SMILES>  (32) 
[H]/N=c1\ncc(-c2ccc(-c3cc([N-]S(=O)(=O)c4ccccc4)ccc3C)cn2)c[nH]1

>  <Energy>  (32) 
68.8058075611345

>  <Genealogy>  (32) 
Cc1ccc([N-]S(=O)(=O)c2ccccc2)cc1-c1ccc(-c2cnc(=N)[nH]c2)nc1 (protonated)
[H]/N=c1\ncc(-c2ccc(-c3cc([N-]S(=O)(=O)c4ccccc4)ccc3C)cn2)c[nH]1 (cis-trans isomerization)
[H]/N=c1\ncc(-c2ccc(-c3cc([N-]S(=O)(=O)c4ccccc4)ccc3C)cn2)c[nH]1 (3D coordinates assigned)
[H]/N=c1\ncc(-c2ccc(-c3cc([N-]S(=O)(=O)c4ccccc4)ccc3C)cn2)c[nH]1 (optimized conformer: 68.8058075611345 kcal/mol)

>  <smiles>  (32) 
Cc1ccc(NS(=O)(=O)c2ccccc2)cc1-c1ccc(-c2cnc(=N)[nH]c2)nc1

>  <score_type>  (32) 
oracle

>  <origin>  (32) 
adgpu

>  <m_score__min__energy>  (32) 
-10.93

>  <m_primary>  (32) 
energy

$$$$
32:0
     RDKit          3D

 48 50  0  0  0  0  0  0  0  0999 V2000
   -0.1540   23.2940  -24.5230 C   0  0  0  0  0  0  0  0  0  0  0  0
   -0.7360   22.5340  -25.5760 O   0  0  0  0  0  0  0  0  0  0  0  0
   -1.3810   23.0900  -26.6920 C   0  0  0  0  0  0  0  0  0  0  0  0
   -1.8450   24.4160  -26.7090 C   0  0  0  0  0  0  0  0  0  0  0  0
   -2.4580   24.9300  -27.8530 C   0  0  0  0  0  0  0  0  0  0  0  0
   -2.6010   24.1430  -29.0010 C   0  0  0  0  0  0  0  0  0  0  0  0
   -3.1400   24.7600  -30.1800 N   0  0  0  0  0  0  0  0  0  0  0  0
   -4.5340   24.9540  -30.4600 C   0  0  0  0  0  0  0  0  0  0  0  0
   -4.9930   26.1260  -30.4500 O   0  0  0  0  0  0  0  0  0  0  0  0
   -5.4390   23.8240  -30.7760 C   0  0  0  0  0  0  0  0  0  0  0  0
   -6.7960   23.8900  -30.4180 C   0  0  0  0  0  0  0  0  0  0  0  0
   -7.6540   22.8250  -30.7030 C   0  0  0  0  0  0  0  0  0  0  0  0
   -7.1690   21.6880  -31.3540 C   0  0  0  0  0  0  0  0  0  0  0  0
   -5.8250   21.6180  -31.7370 C   0  0  0  0  0  0  0  0  0  0  0  0
   -5.2150   20.1640  -32.5260 S   0  0  0  0  0  0  0  0  0  0  0  0
   -5.7370   20.0890  -33.9350 O   0  0  0  0  0  0  0  0  0  0  0  0
   -5.7040   18.9590  -31.7700 O   0  0  0  0  0  0  0  0  0  0  0  0
   -3.4680   20.1810  -32.5400 N   0  0  0  0  0  0  0  0  0  0  0  0
   -2.9240   18.8170  -32.7620 C   0  0  0  0  0  0  0  0  0  0  0  0
   -2.4260   18.6250  -34.2080 C   0  0  0  0  0  0  0  0  0  0  0  0
   -1.4090   19.5470  -34.5780 O   0  0  0  0  0  0  0  0  0  0  0  0
   -1.5470   20.8260  -33.9720 C   0  0  0  0  0  0  0  0  0  0  0  0
   -2.9840   21.1590  -33.5380 C   0  0  0  0  0  0  0  0  0  0  0  0
   -4.9640   22.6860  -31.4530 C   0  0  0  0  0  0  0  0  0  0  0  0
   -2.1800   22.7930  -28.9800 C   0  0  0  0  0  0  0  0  0  0  0  0
   -2.4130   21.9160  -30.0940 N   0  0  0  0  0  0  0  0  0  0  0  0
   -1.7730   22.0630  -31.1560 O   0  0  0  0  0  0  0  0  0  0  0  0
   -3.2090   20.8040  -29.9450 O   0  0  0  0  0  0  0  0  0  0  0  0
   -1.5620   22.2870  -27.8220 C   0  0  0  0  0  0  0  0  0  0  0  0
   -0.4706   22.8806  -23.5541 H   0  0  0  0  0  0  0  0  0  0  0  0
    0.9423   23.2484  -24.6005 H   0  0  0  0  0  0  0  0  0  0  0  0
   -0.4838   24.3405  -24.6005 H   0  0  0  0  0  0  0  0  0  0  0  0
   -1.7250   25.0507  -25.8187 H   0  0  0  0  0  0  0  0  0  0  0  0
   -2.8324   25.9643  -27.8519 H   0  0  0  0  0  0  0  0  0  0  0  0
   -7.1850   24.7851  -29.9106 H   0  0  0  0  0  0  0  0  0  0  0  0
   -8.7139   22.8818  -30.4142 H   0  0  0  0  0  0  0  0  0  0  0  0
   -7.8448   20.8464  -31.5658 H   0  0  0  0  0  0  0  0  0  0  0  0
   -3.1620   20.5050  -31.5920 H   0  0  0  0  0  0  0  0  0  0  0  0
   -2.0835   18.6527  -32.0717 H   0  0  0  0  0  0  0  0  0  0  0  0
   -3.7329   18.0938  -32.5813 H   0  0  0  0  0  0  0  0  0  0  0  0
   -2.0260   17.6051  -34.3073 H   0  0  0  0  0  0  0  0  0  0  0  0
   -3.2834   18.7998  -34.8745 H   0  0  0  0  0  0  0  0  0  0  0  0
   -0.9003   20.8593  -33.0828 H   0  0  0  0  0  0  0  0  0  0  0  0
   -1.2622   21.5705  -34.7301 H   0  0  0  0  0  0  0  0  0  0  0  0
   -3.0036   22.1660  -33.0958 H   0  0  0  0  0  0  0  0  0  0  0  0
   -3.6389   21.1173  -34.4208 H   0  0  0  0  0  0  0  0  0  0  0  0
   -3.9094   22.6344  -31.7615 H   0  0  0  0  0  0  0  0  0  0  0  0
   -1.2157   21.2431  -27.8054 H   0  0  0  0  0  0  0  0  0  0  0  0
  1  2  1  0
  2  3  1  0
  3  4  2  0
  4  5  1  0
  5  6  2  0
  6  7  1  0
  7  8  1  0
  8  9  2  0
  8 10  1  0
 10 11  2  0
 11 12  1  0
 12 13  2  0
 13 14  1  0
 14 15  1  0
 15 16  2  0
 15 17  2  0
 15 18  1  0
 18 19  1  0
 19 20  1  0
 20 21  1  0
 21 22  1  0
 22 23  1  0
 14 24  2  0
  6 25  1  0
 25 26  1  0
 26 27  2  0
 26 28  1  0
 25 29  2  0
 29  3  1  0
 24 10  1  0
 23 18  1  0
  1 30  1  0
  1 31  1  0
  1 32  1  0
  4 33  1  0
  5 34  1  0
 11 35  1  0
 12 36  1  0
 13 37  1  0
 18 38  1  0
 19 39  1  0
 19 40  1  0
 20 41  1  0
 20 42  1  0
 22 43  1  0
 22 44  1  0
 23 45  1  0
 23 46  1  0
 24 47  1  0
 29 48  1  0
M  CHG  4   7  -1  18   1  26   1  28  -1
M  END
>  <UniqueID>  (33) 
33

>  <SMILES>  (33) 
COc1ccc([N-]C(=O)c2cccc(S(=O)(=O)[NH+]3CCOCC3)c2)c([N+](=O)[O-])c1

>  <Energy>  (33) 
69.28551381866423

>  <Genealogy>  (33) 
COc1ccc([N-]C(=O)c2cccc(S(=O)(=O)[NH+]3CCOCC3)c2)c([N+](=O)[O-])c1 (protonated)
COc1ccc([N-]C(=O)c2cccc(S(=O)(=O)[NH+]3CCOCC3)c2)c([N+](=O)[O-])c1 (3D coordinates assigned)
COc1ccc([N-]C(=O)c2cccc(S(=O)(=O)[NH+]3CCOCC3)c2)c([N+](=O)[O-])c1 (nonaromatic ring conformer: 69.28551381866423 kcal/mol)

>  <smiles>  (33) 
COc1ccc(NC(=O)c2cccc(S(=O)(=O)N3CCOCC3)c2)c([N+](=O)[O-])c1

>  <score_type>  (33) 
oracle

>  <origin>  (33) 
adgpu

>  <m_score__min__energy>  (33) 
-10.369999999999999

>  <m_primary>  (33) 
energy

$$$$
33:0
     RDKit          3D

 35 36  0  0  0  0  0  0  0  0999 V2000
   -6.4060   17.9690  -34.2030 C   0  0  0  0  0  0  0  0  0  0  0  0
   -6.1150   19.4580  -34.0690 C   0  0  0  0  0  0  0  0  0  0  0  0
   -5.8580   19.8030  -32.6630 N   0  0  0  0  0  0  0  0  0  0  0  0
   -4.7030   19.2620  -31.9250 C   0  0  0  0  0  0  0  0  0  0  0  0
   -3.5520   18.8810  -32.8390 C   0  0  0  0  0  0  0  0  0  0  0  0
   -3.4520   17.5380  -33.2390 C   0  0  0  0  0  0  0  0  0  0  0  0
   -2.4340   17.1170  -34.0930 C   0  0  0  0  0  0  0  0  0  0  0  0
   -1.4950   18.0310  -34.5590 C   0  0  0  0  0  0  0  0  0  0  0  0
   -1.5670   19.3690  -34.1730 C   0  0  0  0  0  0  0  0  0  0  0  0
   -2.5920   19.8230  -33.3170 C   0  0  0  0  0  0  0  0  0  0  0  0
   -2.6220   21.2840  -32.9030 C   0  0  0  0  0  0  0  0  0  0  0  0
   -3.6170   21.9550  -33.5890 F   0  0  0  0  0  0  0  0  0  0  0  0
   -1.4220   21.9210  -33.1720 F   0  0  0  0  0  0  0  0  0  0  0  0
   -2.8580   21.3750  -31.5420 F   0  0  0  0  0  0  0  0  0  0  0  0
   -6.4600   21.0030  -32.1540 C   0  0  0  0  0  0  0  0  0  0  0  0
   -5.6710   22.0750  -31.8690 N   0  0  0  0  0  0  0  0  0  0  0  0
   -6.2000   23.2270  -31.3800 C   0  0  0  0  0  0  0  0  0  0  0  0
   -5.3410   24.3400  -31.0870 C   0  0  0  0  0  0  0  0  0  0  0  0
   -4.6500   25.2380  -30.8510 N   0  0  0  0  0  0  0  0  0  0  0  0
   -7.5370   23.3270  -31.1690 N   0  0  0  0  0  0  0  0  0  0  0  0
   -8.3640   22.2860  -31.4420 C   0  0  0  0  0  0  0  0  0  0  0  0
   -7.8450   21.0920  -31.9440 C   0  0  0  0  0  0  0  0  0  0  0  0
   -9.0350   19.6540  -32.3620 Br  0  0  0  0  0  0  0  0  0  0  0  0
   -6.4936   17.5210  -33.2022 H   0  0  0  0  0  0  0  0  0  0  0  0
   -7.3488   17.8276  -34.7518 H   0  0  0  0  0  0  0  0  0  0  0  0
   -5.5858   17.4830  -34.7518 H   0  0  0  0  0  0  0  0  0  0  0  0
   -5.2305   19.7106  -34.6722 H   0  0  0  0  0  0  0  0  0  0  0  0
   -6.9875   20.0265  -34.4233 H   0  0  0  0  0  0  0  0  0  0  0  0
   -4.3509   20.0240  -31.2141 H   0  0  0  0  0  0  0  0  0  0  0  0
   -5.0353   18.3488  -31.4096 H   0  0  0  0  0  0  0  0  0  0  0  0
   -4.1883   16.8075  -32.8726 H   0  0  0  0  0  0  0  0  0  0  0  0
   -2.3733   16.0620  -34.3983 H   0  0  0  0  0  0  0  0  0  0  0  0
   -0.6931   17.6974  -35.2341 H   0  0  0  0  0  0  0  0  0  0  0  0
   -0.8135   20.0807  -34.5414 H   0  0  0  0  0  0  0  0  0  0  0  0
   -9.4456   22.3838  -31.2672 H   0  0  0  0  0  0  0  0  0  0  0  0
  1  2  1  0
  2  3  1  0
  3  4  1  0
  4  5  1  0
  5  6  2  0
  6  7  1  0
  7  8  2  0
  8  9  1  0
  9 10  2  0
 10 11  1  0
 11 12  1  0
 11 13  1  0
 11 14  1  0
  3 15  1  0
 15 16  2  0
 16 17  1  0
 17 18  1  0
 18 19  3  0
 17 20  2  0
 20 21  1  0
 21 22  2  0
 22 23  1  0
 10  5  1  0
 22 15  1  0
  1 24  1  0
  1 25  1  0
  1 26  1  0
  2 27  1  0
  2 28  1  0
  4 29  1  0
  4 30  1  0
  6 31  1  0
  7 32  1  0
  8 33  1  0
  9 34  1  0
 21 35  1  0
M  END
>  <UniqueID>  (34) 
34

>  <SMILES>  (34) 
CCN(Cc1ccccc1C(F)(F)F)c1nc(C#N)ncc1Br

>  <Energy>  (34) 
41.83533026676442

>  <Genealogy>  (34) 
CCN(Cc1ccccc1C(F)(F)F)c1nc(C#N)ncc1Br (3D coordinates assigned)
CCN(Cc1ccccc1C(F)(F)F)c1nc(C#N)ncc1Br (optimized conformer: 41.83533026676442 kcal/mol)

>  <smiles>  (34) 
CCN(Cc1ccccc1C(F)(F)F)c1nc(C#N)ncc1Br

>  <score_type>  (34) 
oracle

>  <origin>  (34) 
adgpu

>  <m_score__min__energy>  (34) 
-7.29

>  <m_primary>  (34) 
energy

$$$$
34:0
     RDKit          3D

 43 45  0  0  0  0  0  0  0  0999 V2000
   -6.8230   16.5460  -33.8040 C   0  0  0  0  0  0  0  0  0  0  0  0
   -6.7080   17.9880  -33.4020 C   0  0  0  0  0  0  0  0  0  0  0  0
   -5.5480   18.7120  -33.7040 C   0  0  0  0  0  0  0  0  0  0  0  0
   -5.4270   20.0450  -33.3090 C   0  0  0  0  0  0  0  0  0  0  0  0
   -6.4590   20.6710  -32.5980 C   0  0  0  0  0  0  0  0  0  0  0  0
   -6.3130   22.0480  -32.2310 N   0  0  0  0  0  0  0  0  0  0  0  0
   -7.1110   23.0140  -32.6530 N   0  0  0  0  0  0  0  0  0  0  0  0
   -6.7350   24.1790  -32.1440 N   0  0  0  0  0  0  0  0  0  0  0  0
   -5.6550   23.9440  -31.3700 C   0  0  0  0  0  0  0  0  0  0  0  0
   -4.9220   25.0070  -30.6580 C   0  0  0  0  0  0  0  0  0  0  0  0
   -5.5650   25.9970  -30.2220 O   0  0  0  0  0  0  0  0  0  0  0  0
   -3.5030   24.9650  -30.4580 N   0  0  0  0  0  0  0  0  0  0  0  0
   -2.7970   24.1150  -29.5420 C   0  0  0  0  0  0  0  0  0  0  0  0
   -1.6890   23.4050  -30.0260 C   0  0  0  0  0  0  0  0  0  0  0  0
   -0.9140   22.6230  -29.1680 C   0  0  0  0  0  0  0  0  0  0  0  0
   -1.2490   22.5270  -27.8170 C   0  0  0  0  0  0  0  0  0  0  0  0
   -0.2580   21.5680  -26.7340 Cl  0  0  0  0  0  0  0  0  0  0  0  0
   -2.3850   23.1800  -27.3310 C   0  0  0  0  0  0  0  0  0  0  0  0
   -3.1910   23.9490  -28.1880 C   0  0  0  0  0  0  0  0  0  0  0  0
   -4.4520   24.5500  -27.6310 C   0  0  0  0  0  0  0  0  0  0  0  0
   -5.4000   22.5830  -31.3970 C   0  0  0  0  0  0  0  0  0  0  0  0
   -4.4240   21.8010  -30.5720 C   0  0  0  0  0  0  0  0  0  0  0  0
   -7.6100   19.9330  -32.2370 C   0  0  0  0  0  0  0  0  0  0  0  0
   -8.7220   20.5390  -31.4250 C   0  0  0  0  0  0  0  0  0  0  0  0
   -7.7280   18.5970  -32.6570 C   0  0  0  0  0  0  0  0  0  0  0  0
   -6.8732   15.9170  -32.9029 H   0  0  0  0  0  0  0  0  0  0  0  0
   -7.7353   16.4036  -34.4018 H   0  0  0  0  0  0  0  0  0  0  0  0
   -5.9447   16.2608  -34.4018 H   0  0  0  0  0  0  0  0  0  0  0  0
   -4.7284   18.2278  -34.2551 H   0  0  0  0  0  0  0  0  0  0  0  0
   -4.5152   20.6079  -33.5576 H   0  0  0  0  0  0  0  0  0  0  0  0
   -1.4278   23.4649  -31.0929 H   0  0  0  0  0  0  0  0  0  0  0  0
   -0.0387   22.0822  -29.5571 H   0  0  0  0  0  0  0  0  0  0  0  0
   -2.6509   23.0913  -26.2673 H   0  0  0  0  0  0  0  0  0  0  0  0
   -4.4127   24.5313  -26.5319 H   0  0  0  0  0  0  0  0  0  0  0  0
   -4.5464   25.5899  -27.9769 H   0  0  0  0  0  0  0  0  0  0  0  0
   -5.3192   23.9684  -27.9769 H   0  0  0  0  0  0  0  0  0  0  0  0
   -4.6308   21.9667  -29.5044 H   0  0  0  0  0  0  0  0  0  0  0  0
   -4.5239   20.7302  -30.8029 H   0  0  0  0  0  0  0  0  0  0  0  0
   -3.4007   22.1320  -30.8029 H   0  0  0  0  0  0  0  0  0  0  0  0
   -8.5015   20.4188  -30.3540 H   0  0  0  0  0  0  0  0  0  0  0  0
   -8.8090   21.6093  -31.6636 H   0  0  0  0  0  0  0  0  0  0  0  0
   -9.6686   20.0320  -31.6636 H   0  0  0  0  0  0  0  0  0  0  0  0
   -8.6301   18.0230  -32.3986 H   0  0  0  0  0  0  0  0  0  0  0  0
  1  2  1  0
  2  3  2  0
  3  4  1  0
  4  5  2  0
  5  6  1  0
  6  7  1  0
  7  8  2  0
  8  9  1  0
  9 10  1  0
 10 11  2  0
 10 12  1  0
 12 13  1  0
 13 14  2  0
 14 15  1  0
 15 16  2  0
 16 17  1  0
 16 18  1  0
 18 19  2  0
 19 20  1  0
  9 21  2  0
 21 22  1  0
  5 23  1  0
 23 24  1  0
 23 25  2  0
 25  2  1  0
 21  6  1  0
 19 13  1  0
  1 26  1  0
  1 27  1  0
  1 28  1  0
  3 29  1  0
  4 30  1  0
 14 31  1  0
 15 32  1  0
 18 33  1  0
 20 34  1  0
 20 35  1  0
 20 36  1  0
 22 37  1  0
 22 38  1  0
 22 39  1  0
 24 40  1  0
 24 41  1  0
 24 42  1  0
 25 43  1  0
M  CHG  1  12  -1
M  END
>  <UniqueID>  (35) 
35

>  <SMILES>  (35) 
Cc1ccc(-n2nnc(C(=O)[N-]c3ccc(Cl)cc3C)c2C)c(C)c1

>  <Energy>  (35) 
93.81884851374542

>  <Genealogy>  (35) 
Cc1ccc(-n2nnc(C(=O)[N-]c3ccc(Cl)cc3C)c2C)c(C)c1 (protonated)
Cc1ccc(-n2nnc(C(=O)[N-]c3ccc(Cl)cc3C)c2C)c(C)c1 (3D coordinates assigned)
Cc1ccc(-n2nnc(C(=O)[N-]c3ccc(Cl)cc3C)c2C)c(C)c1 (optimized conformer: 93.81884851374542 kcal/mol)

>  <smiles>  (35) 
Cc1ccc(-n2nnc(C(=O)Nc3ccc(Cl)cc3C)c2C)c(C)c1

>  <score_type>  (35) 
oracle

>  <origin>  (35) 
adgpu

>  <m_score__min__energy>  (35) 
-11.369999999999999

>  <m_primary>  (35) 
energy

$$$$
35:0
     RDKit          3D

 39 41  0  0  0  0  0  0  0  0999 V2000
   -8.2550   19.9440  -33.4670 N   0  0  0  0  0  0  0  0  0  0  0  0
   -8.6900   20.8450  -32.0570 S   0  0  0  0  0  0  0  0  0  0  0  0
   -9.9540   21.6120  -32.3230 O   0  0  0  0  0  0  0  0  0  0  0  0
   -8.9320   19.9000  -30.9140 O   0  0  0  0  0  0  0  0  0  0  0  0
   -7.3960   21.9650  -31.6470 C   0  0  0  0  0  0  0  0  0  0  0  0
   -6.4000   22.2760  -32.5840 C   0  0  0  0  0  0  0  0  0  0  0  0
   -5.3640   23.1530  -32.2450 C   0  0  0  0  0  0  0  0  0  0  0  0
   -5.3000   23.7050  -30.9550 C   0  0  0  0  0  0  0  0  0  0  0  0
   -4.2460   24.5970  -30.5680 N   0  0  0  0  0  0  0  0  0  0  0  0
   -3.0920   24.2870  -29.7720 C   0  0  0  0  0  0  0  0  0  0  0  0
   -2.3860   25.2370  -29.3430 O   0  0  0  0  0  0  0  0  0  0  0  0
   -2.7790   22.8920  -29.3070 C   0  0  0  0  0  0  0  0  0  0  0  0
   -1.3820   22.2070  -30.2640 S   0  0  0  0  0  0  0  0  0  0  0  0
   -2.4160   21.4110  -31.4920 C   0  0  0  0  0  0  0  0  0  0  0  0
   -2.4010   21.7350  -32.7960 N   0  0  0  0  0  0  0  0  0  0  0  0
   -3.3020   20.9680  -33.3830 N   0  0  0  0  0  0  0  0  0  0  0  0
   -3.8360   20.1930  -32.4190 C   0  0  0  0  0  0  0  0  0  0  0  0
   -4.9000   19.1950  -32.6600 C   0  0  0  0  0  0  0  0  0  0  0  0
   -5.7190   18.7540  -31.6040 C   0  0  0  0  0  0  0  0  0  0  0  0
   -6.7100   17.7950  -31.8330 C   0  0  0  0  0  0  0  0  0  0  0  0
   -6.8990   17.2720  -33.1140 C   0  0  0  0  0  0  0  0  0  0  0  0
   -6.0930   17.7030  -34.1700 C   0  0  0  0  0  0  0  0  0  0  0  0
   -5.0960   18.6590  -33.9460 C   0  0  0  0  0  0  0  0  0  0  0  0
   -3.3020   20.4410  -31.2050 N   0  0  0  0  0  0  0  0  0  0  0  0
   -6.3330   23.4450  -30.0470 C   0  0  0  0  0  0  0  0  0  0  0  0
   -7.3700   22.5720  -30.3850 C   0  0  0  0  0  0  0  0  0  0  0  0
   -8.7100   20.4140  -34.2810 H   0  0  0  0  0  0  0  0  0  0  0  0
   -8.6980   19.0030  -33.3770 H   0  0  0  0  0  0  0  0  0  0  0  0
   -6.4334   21.8290  -33.5885 H   0  0  0  0  0  0  0  0  0  0  0  0
   -4.5976   23.4109  -32.9907 H   0  0  0  0  0  0  0  0  0  0  0  0
   -2.5117   22.9159  -28.2402 H   0  0  0  0  0  0  0  0  0  0  0  0
   -3.6638   22.2561  -29.4581 H   0  0  0  0  0  0  0  0  0  0  0  0
   -5.5787   19.1658  -30.5937 H   0  0  0  0  0  0  0  0  0  0  0  0
   -7.3429   17.4513  -31.0016 H   0  0  0  0  0  0  0  0  0  0  0  0
   -7.6826   16.5207  -33.2913 H   0  0  0  0  0  0  0  0  0  0  0  0
   -6.2421   17.2906  -35.1788 H   0  0  0  0  0  0  0  0  0  0  0  0
   -4.4618   18.9934  -34.7802 H   0  0  0  0  0  0  0  0  0  0  0  0
   -6.3283   23.9314  -29.0604 H   0  0  0  0  0  0  0  0  0  0  0  0
   -8.1682   22.3608  -29.6581 H   0  0  0  0  0  0  0  0  0  0  0  0
  1  2  1  0
  2  3  2  0
  2  4  2  0
  2  5  1  0
  5  6  2  0
  6  7  1  0
  7  8  2  0
  8  9  1  0
  9 10  1  0
 10 11  2  0
 10 12  1  0
 12 13  1  0
 13 14  1  0
 14 15  2  0
 15 16  1  0
 16 17  1  0
 17 18  1  0
 18 19  2  0
 19 20  1  0
 20 21  2  0
 21 22  1  0
 22 23  2  0
 17 24  2  0
  8 25  1  0
 25 26  2  0
 26  5  1  0
 24 14  1  0
 23 18  1  0
  1 27  1  0
  1 28  1  0
  6 29  1  0
  7 30  1  0
 12 31  1  0
 12 32  1  0
 19 33  1  0
 20 34  1  0
 21 35  1  0
 22 36  1  0
 23 37  1  0
 25 38  1  0
 26 39  1  0
M  CHG  2   9  -1  16  -1
M  END
>  <UniqueID>  (36) 
36

>  <SMILES>  (36) 
NS(=O)(=O)c1ccc([N-]C(=O)CSc2n[n-]c(-c3ccccc3)n2)cc1

>  <Energy>  (36) 
69.26681299781058

>  <Genealogy>  (36) 
NS(=O)(=O)c1ccc([N-]C(=O)CSc2n[n-]c(-c3ccccc3)n2)cc1 (protonated)
NS(=O)(=O)c1ccc([N-]C(=O)CSc2n[n-]c(-c3ccccc3)n2)cc1 (3D coordinates assigned)
NS(=O)(=O)c1ccc([N-]C(=O)CSc2n[n-]c(-c3ccccc3)n2)cc1 (optimized conformer: 69.26681299781058 kcal/mol)

>  <smiles>  (36) 
NS(=O)(=O)c1ccc(NC(=O)CSc2n[nH]c(-c3ccccc3)n2)cc1

>  <score_type>  (36) 
oracle

>  <origin>  (36) 
adgpu

>  <m_score__min__energy>  (36) 
-11.140000000000001

>  <m_primary>  (36) 
energy

$$$$
36:0
     RDKit          3D

 40 43  0  0  0  0  0  0  0  0999 V2000
   -4.4984   24.9815  -31.1525 H   0  0  0  0  0  0  0  0  0  0  0  0
   -3.9240   24.4200  -30.4010 C   0  0  0  0  0  0  0  0  0  0  0  0
   -2.7660   24.9230  -29.9090 N   0  0  0  0  0  0  0  0  0  0  0  0
   -2.0060   24.2760  -28.9850 C   0  0  0  0  0  0  0  0  0  0  0  0
   -0.9390   24.9110  -28.5720 N   0  0  0  0  0  0  0  0  0  0  0  0
    0.2800   24.5940  -27.3720 S   0  0  0  0  0  0  0  0  0  0  0  0
    1.5850   25.1220  -27.8960 O   0  0  0  0  0  0  0  0  0  0  0  0
    0.4330   23.1170  -27.1510 O   0  0  0  0  0  0  0  0  0  0  0  0
   -0.0620   25.4450  -25.8690 C   0  0  0  0  0  0  0  0  0  0  0  0
    0.9560   25.6400  -24.9240 C   0  0  0  0  0  0  0  0  0  0  0  0
    1.9704   25.2649  -25.1246 H   0  0  0  0  0  0  0  0  0  0  0  0
    0.6840   26.3100  -23.7280 C   0  0  0  0  0  0  0  0  0  0  0  0
    1.4834   26.4567  -22.9868 H   0  0  0  0  0  0  0  0  0  0  0  0
   -0.6020   26.7940  -23.4720 C   0  0  0  0  0  0  0  0  0  0  0  0
   -0.8139   27.3213  -22.5301 H   0  0  0  0  0  0  0  0  0  0  0  0
   -1.6190   26.6080  -24.4130 C   0  0  0  0  0  0  0  0  0  0  0  0
   -2.6311   26.9887  -24.2112 H   0  0  0  0  0  0  0  0  0  0  0  0
   -1.3500   25.9380  -25.6110 C   0  0  0  0  0  0  0  0  0  0  0  0
   -2.1501   25.7973  -26.3526 H   0  0  0  0  0  0  0  0  0  0  0  0
   -2.4490   22.9890  -28.5480 C   0  0  0  0  0  0  0  0  0  0  0  0
   -1.6950   22.0620  -27.6450 C   0  0  0  0  0  0  0  0  0  0  0  0
   -1.9050   22.3201  -26.5965 H   0  0  0  0  0  0  0  0  0  0  0  0
   -2.0099   21.0258  -27.8376 H   0  0  0  0  0  0  0  0  0  0  0  0
   -0.6164   22.1593  -27.8376 H   0  0  0  0  0  0  0  0  0  0  0  0
   -3.6170   22.5030  -29.0540 N   0  0  0  0  0  0  0  0  0  0  0  0
   -4.3800   23.1850  -29.9460 C   0  0  0  0  0  0  0  0  0  0  0  0
   -5.5960   22.5900  -30.4350 N   0  0  0  0  0  0  0  0  0  0  0  0
   -7.1260   23.1870  -30.1370 S   0  0  0  0  0  0  0  0  0  0  0  0
   -8.0020   22.0680  -31.0050 C   0  0  0  0  0  0  0  0  0  0  0  0
   -9.3750   21.9550  -31.2000 C   0  0  0  0  0  0  0  0  0  0  0  0
  -10.0754   22.6671  -30.7392 H   0  0  0  0  0  0  0  0  0  0  0  0
   -9.8360   20.9010  -32.0050 C   0  0  0  0  0  0  0  0  0  0  0  0
  -10.9151   20.7789  -32.1800 H   0  0  0  0  0  0  0  0  0  0  0  0
   -8.9260   19.9990  -32.5900 C   0  0  0  0  0  0  0  0  0  0  0  0
   -9.3007   19.1776  -33.2184 H   0  0  0  0  0  0  0  0  0  0  0  0
   -7.5420   20.1390  -32.3780 C   0  0  0  0  0  0  0  0  0  0  0  0
   -6.8303   19.4366  -32.8365 H   0  0  0  0  0  0  0  0  0  0  0  0
   -7.0890   21.1900  -31.5720 C   0  0  0  0  0  0  0  0  0  0  0  0
   -5.7510   21.5020  -31.2490 C   0  0  0  0  0  0  0  0  0  0  0  0
   -4.7750   20.8490  -31.7070 O   0  0  0  0  0  0  0  0  0  0  0  0
  1  2  1  0
  2  3  1  0
  3  4  1  0
  4  5  2  0
  5  6  1  0
  6  7  2  0
  6  8  2  0
  6  9  1  0
  9 10  2  0
 10 11  1  0
 10 12  1  0
 12 13  1  0
 12 14  2  0
 14 15  1  0
 14 16  1  0
 16 17  1  0
 16 18  2  0
 18 19  1  0
  4 20  1  0
 20 21  1  0
 21 22  1  0
 21 23  1  0
 21 24  1  0
 20 25  2  0
 25 26  1  0
 26 27  1  0
 27 28  1  0
 28 29  1  0
 29 30  2  0
 30 31  1  0
 30 32  1  0
 32 33  1  0
 32 34  2  0
 34 35  1  0
 34 36  1  0
 36 37  1  0
 36 38  2  0
 38 39  1  0
 39 40  2  0
 26  2  2  0
 39 27  1  0
 18  9  1  0
 38 29  1  0
M  CHG  1   3  -1
M  END
>  <UniqueID>  (37) 
37

>  <SMILES>  (37) 
Cc1nc(-n2sc3ccccc3c2=O)c[n-]/c1=N/S(=O)(=O)c1ccccc1

>  <Energy>  (37) 
107.49496491747621

>  <Genealogy>  (37) 
Cc1nc(-n2sc3ccccc3c2=O)c[n-]c1=NS(=O)(=O)c1ccccc1 (protonated)
Cc1nc(-n2sc3ccccc3c2=O)c[n-]/c1=N/S(=O)(=O)c1ccccc1 (cis-trans isomerization)
Cc1nc(-n2sc3ccccc3c2=O)c[n-]/c1=N/S(=O)(=O)c1ccccc1 (3D coordinates assigned)
Cc1nc(-n2sc3ccccc3c2=O)c[n-]/c1=N/S(=O)(=O)c1ccccc1 (optimized conformer: 107.49496491747621 kcal/mol)

>  <smiles>  (37) 
Cc1nc(-n2sc3ccccc3c2=O)c[nH]c1=NS(=O)(=O)c1ccccc1

>  <score_type>  (37) 
oracle

>  <origin>  (37) 
adgpu

>  <m_score__min__energy>  (37) 
-10.74

>  <m_primary>  (37) 
energy

$$$$
37:0
     RDKit          3D

 38 40  0  0  0  0  0  0  0  0999 V2000
   -1.6100   21.3320  -28.8160 H   0  0  0  0  0  0  0  0  0  0  0  0
   -1.3930   20.8900  -29.7010 O   0  0  0  0  0  0  0  0  0  0  0  0
   -2.2300   21.0230  -30.8060 C   0  0  0  0  0  0  0  0  0  0  0  0
   -1.7650   21.6810  -31.9500 C   0  0  0  0  0  0  0  0  0  0  0  0
   -0.7459   22.0947  -31.9688 H   0  0  0  0  0  0  0  0  0  0  0  0
   -2.5920   21.8140  -33.0690 C   0  0  0  0  0  0  0  0  0  0  0  0
   -2.2182   22.3195  -33.9716 H   0  0  0  0  0  0  0  0  0  0  0  0
   -3.8940   21.3050  -33.0420 C   0  0  0  0  0  0  0  0  0  0  0  0
   -4.5365   21.3920  -33.9306 H   0  0  0  0  0  0  0  0  0  0  0  0
   -4.3820   20.6830  -31.8820 C   0  0  0  0  0  0  0  0  0  0  0  0
   -5.7110   20.1480  -31.8420 N   0  0  0  0  0  0  0  0  0  0  0  0
   -6.8570   20.7680  -31.6900 C   0  0  0  0  0  0  0  0  0  0  0  0
   -8.0360   20.0260  -31.9240 C   0  0  0  0  0  0  0  0  0  0  0  0
   -7.9870   18.6220  -32.2620 C   0  0  0  0  0  0  0  0  0  0  0  0
   -7.9470   17.4980  -32.5330 N   0  0  0  0  0  0  0  0  0  0  0  0
   -9.2790   20.6610  -31.8770 C   0  0  0  0  0  0  0  0  0  0  0  0
  -10.1948   20.0864  -32.0799 H   0  0  0  0  0  0  0  0  0  0  0  0
   -9.3630   21.9800  -31.5830 N   0  0  0  0  0  0  0  0  0  0  0  0
   -8.2620   22.7220  -31.3050 C   0  0  0  0  0  0  0  0  0  0  0  0
   -8.3722   23.7904  -31.0674 H   0  0  0  0  0  0  0  0  0  0  0  0
   -6.9830   22.1420  -31.3170 C   0  0  0  0  0  0  0  0  0  0  0  0
   -5.8710   22.9680  -30.7930 C   0  0  0  0  0  0  0  0  0  0  0  0
   -5.6270   24.2430  -31.3240 C   0  0  0  0  0  0  0  0  0  0  0  0
   -6.2675   24.6336  -32.1285 H   0  0  0  0  0  0  0  0  0  0  0  0
   -4.5740   25.0180  -30.8350 C   0  0  0  0  0  0  0  0  0  0  0  0
   -4.3826   26.0139  -31.2610 H   0  0  0  0  0  0  0  0  0  0  0  0
   -3.7620   24.5330  -29.8060 C   0  0  0  0  0  0  0  0  0  0  0  0
   -2.7060   25.3100  -29.3410 O   0  0  0  0  0  0  0  0  0  0  0  0
   -4.0050   23.2720  -29.2460 C   0  0  0  0  0  0  0  0  0  0  0  0
   -3.1600   22.8190  -28.2200 O   0  0  0  0  0  0  0  0  0  0  0  0
   -2.7290   23.6150  -27.1220 C   0  0  0  0  0  0  0  0  0  0  0  0
   -2.9990   23.1164  -26.1794 H   0  0  0  0  0  0  0  0  0  0  0  0
   -1.6376   23.7443  -27.1689 H   0  0  0  0  0  0  0  0  0  0  0  0
   -3.2172   24.5996  -27.1689 H   0  0  0  0  0  0  0  0  0  0  0  0
   -5.0800   22.5000  -29.7300 C   0  0  0  0  0  0  0  0  0  0  0  0
   -5.3014   21.5244  -29.2726 H   0  0  0  0  0  0  0  0  0  0  0  0
   -3.5340   20.5080  -30.7810 C   0  0  0  0  0  0  0  0  0  0  0  0
   -3.8921   19.9649  -29.8940 H   0  0  0  0  0  0  0  0  0  0  0  0
  1  2  1  0
  2  3  1  0
  3  4  2  0
  4  5  1  0
  4  6  1  0
  6  7  1  0
  6  8  2  0
  8  9  1  0
  8 10  1  0
 10 11  1  0
 11 12  2  0
 12 13  1  0
 13 14  1  0
 14 15  3  0
 13 16  2  0
 16 17  1  0
 16 18  1  0
 18 19  1  0
 19 20  1  0
 19 21  2  0
 21 22  1  0
 22 23  2  0
 23 24  1  0
 23 25  1  0
 25 26  1  0
 25 27  2  0
 27 28  1  0
 27 29  1  0
 29 30  1  0
 30 31  1  0
 31 32  1  0
 31 33  1  0
 31 34  1  0
 29 35  2  0
 35 36  1  0
 10 37  2  0
 37 38  1  0
 37  3  1  0
 21 12  1  0
 35 22  1  0
M  CHG  2  18  -1  28  -1
M  END
>  <UniqueID>  (38) 
38

>  <SMILES>  (38) 
COc1cc(-c2c[n-]cc(C#N)/c2=N/c2cccc(O)c2)ccc1[O-]

>  <Energy>  (38) 
60.85419490895663

>  <Genealogy>  (38) 
COc1cc(-c2c[n-]cc(C#N)c2=Nc2cccc(O)c2)ccc1[O-] (protonated)
COc1cc(-c2c[n-]cc(C#N)/c2=N/c2cccc(O)c2)ccc1[O-] (cis-trans isomerization)
COc1cc(-c2c[n-]cc(C#N)/c2=N/c2cccc(O)c2)ccc1[O-] (3D coordinates assigned)
COc1cc(-c2c[n-]cc(C#N)/c2=N/c2cccc(O)c2)ccc1[O-] (optimized conformer: 60.85419490895663 kcal/mol)

>  <smiles>  (38) 
COc1cc(-c2c[nH]cc(C#N)c2=Nc2cccc(O)c2)ccc1O

>  <score_type>  (38) 
oracle

>  <origin>  (38) 
adgpu

>  <m_score__min__energy>  (38) 
-9.2699999999999996

>  <m_primary>  (38) 
energy

$$$$
38:0
     RDKit          3D

 42 44  0  0  0  0  0  0  0  0999 V2000
   -3.0634   16.4324  -34.2825 H   0  0  0  0  0  0  0  0  0  0  0  0
   -3.9300   17.1080  -34.2320 C   0  0  0  0  0  0  0  0  0  0  0  0
   -4.3250   17.7530  -33.1590 O   0  0  0  0  0  0  0  0  0  0  0  0
   -5.3860   18.4660  -33.4620 C   0  0  0  0  0  0  0  0  0  0  0  0
   -6.1000   19.3360  -32.5120 C   0  0  0  0  0  0  0  0  0  0  0  0
   -6.0680   19.0700  -31.2790 O   0  0  0  0  0  0  0  0  0  0  0  0
   -6.8760   20.5330  -32.9860 C   0  0  0  0  0  0  0  0  0  0  0  0
   -7.3155   20.3115  -33.9697 H   0  0  0  0  0  0  0  0  0  0  0  0
   -6.1918   21.3914  -33.0570 H   0  0  0  0  0  0  0  0  0  0  0  0
   -7.9850   20.8750  -32.0120 C   0  0  0  0  0  0  0  0  0  0  0  0
   -7.9070   21.8820  -31.1880 N   0  0  0  0  0  0  0  0  0  0  0  0
   -6.7670   22.7340  -31.0070 C   0  0  0  0  0  0  0  0  0  0  0  0
   -6.9480   24.1180  -30.9450 C   0  0  0  0  0  0  0  0  0  0  0  0
   -7.9588   24.5439  -31.0278 H   0  0  0  0  0  0  0  0  0  0  0  0
   -5.8470   24.9620  -30.7780 C   0  0  0  0  0  0  0  0  0  0  0  0
   -5.9923   26.0520  -30.7510 H   0  0  0  0  0  0  0  0  0  0  0  0
   -4.5610   24.4280  -30.6450 C   0  0  0  0  0  0  0  0  0  0  0  0
   -3.4850   25.2930  -30.4780 O   0  0  0  0  0  0  0  0  0  0  0  0
   -4.3700   23.0310  -30.6660 C   0  0  0  0  0  0  0  0  0  0  0  0
   -3.0100   22.4480  -30.5580 C   0  0  0  0  0  0  0  0  0  0  0  0
   -2.3310   22.6690  -29.5160 O   0  0  0  0  0  0  0  0  0  0  0  0
   -2.4150   21.6240  -31.6390 C   0  0  0  0  0  0  0  0  0  0  0  0
   -1.0770   21.1930  -31.5700 C   0  0  0  0  0  0  0  0  0  0  0  0
   -0.4615   21.4584  -30.6978 H   0  0  0  0  0  0  0  0  0  0  0  0
   -0.5250   20.4290  -32.6040 C   0  0  0  0  0  0  0  0  0  0  0  0
    0.5194   20.0900  -32.5389 H   0  0  0  0  0  0  0  0  0  0  0  0
   -1.2980   20.0960  -33.7190 C   0  0  0  0  0  0  0  0  0  0  0  0
   -0.8632   19.4916  -34.5287 H   0  0  0  0  0  0  0  0  0  0  0  0
   -2.6220   20.5300  -33.8060 C   0  0  0  0  0  0  0  0  0  0  0  0
   -3.2280   20.2718  -34.6870 H   0  0  0  0  0  0  0  0  0  0  0  0
   -3.1790   21.2930  -32.7740 C   0  0  0  0  0  0  0  0  0  0  0  0
   -4.2212   21.6366  -32.8501 H   0  0  0  0  0  0  0  0  0  0  0  0
   -5.4840   22.1920  -30.8450 C   0  0  0  0  0  0  0  0  0  0  0  0
   -5.3478   21.1005  -30.8581 H   0  0  0  0  0  0  0  0  0  0  0  0
   -9.2600   20.0860  -32.0280 C   0  0  0  0  0  0  0  0  0  0  0  0
   -9.5812   19.8872  -30.9949 H   0  0  0  0  0  0  0  0  0  0  0  0
  -10.0397   20.6597  -32.5504 H   0  0  0  0  0  0  0  0  0  0  0  0
   -9.0945   19.1322  -32.5504 H   0  0  0  0  0  0  0  0  0  0  0  0
   -5.7110   18.2810  -34.7910 C   0  0  0  0  0  0  0  0  0  0  0  0
   -6.5485   18.7365  -35.3398 H   0  0  0  0  0  0  0  0  0  0  0  0
   -4.7680   17.4070  -35.2870 C   0  0  0  0  0  0  0  0  0  0  0  0
   -4.6975   17.0248  -36.3161 H   0  0  0  0  0  0  0  0  0  0  0  0
  1  2  1  0
  2  3  1  0
  3  4  1  0
  4  5  1  0
  5  6  2  0
  5  7  1  0
  7  8  1  0
  7  9  1  0
  7 10  1  0
 10 11  2  0
 11 12  1  0
 12 13  2  0
 13 14  1  0
 13 15  1  0
 15 16  1  0
 15 17  2  0
 17 18  1  0
 17 19  1  0
 19 20  1  0
 20 21  2  0
 20 22  1  0
 22 23  2  0
 23 24  1  0
 23 25  1  0
 25 26  1  0
 25 27  2  0
 27 28  1  0
 27 29  1  0
 29 30  1  0
 29 31  2  0
 31 32  1  0
 19 33  2  0
 33 34  1  0
 10 35  1  0
 35 36  1  0
 35 37  1  0
 35 38  1  0
  4 39  2  0
 39 40  1  0
 39 41  1  0
 41 42  1  0
 41  2  2  0
 33 12  1  0
 31 22  1  0
M  CHG  1  18  -1
M  END
>  <UniqueID>  (39) 
39

>  <SMILES>  (39) 
C/C(CC(=O)c1ccco1)=N/c1ccc([O-])c(C(=O)c2ccccc2)c1

>  <Energy>  (39) 
77.95510312348375

>  <Genealogy>  (39) 
CC(CC(=O)c1ccco1)=Nc1ccc([O-])c(C(=O)c2ccccc2)c1 (protonated)
C/C(CC(=O)c1ccco1)=N/c1ccc([O-])c(C(=O)c2ccccc2)c1 (cis-trans isomerization)
C/C(CC(=O)c1ccco1)=N/c1ccc([O-])c(C(=O)c2ccccc2)c1 (3D coordinates assigned)
C/C(CC(=O)c1ccco1)=N/c1ccc([O-])c(C(=O)c2ccccc2)c1 (optimized conformer: 77.95510312348375 kcal/mol)

>  <smiles>  (39) 
CC(CC(=O)c1ccco1)=Nc1ccc(O)c(C(=O)c2ccccc2)c1

>  <score_type>  (39) 
oracle

>  <origin>  (39) 
adgpu

>  <m_score__min__energy>  (39) 
-11.630000000000001

>  <m_primary>  (39) 
energy

$$$$
39:0
     RDKit          3D

 44 46  0  0  0  0  0  0  0  0999 V2000
   -1.8919   28.7294  -36.2849 H   0  0  0  0  0  0  0  0  0  0  0  0
   -1.1910   27.8910  -36.4110 C   0  0  0  0  0  0  0  0  0  0  0  0
   -1.1360   27.2040  -37.6250 C   0  0  0  0  0  0  0  0  0  0  0  0
   -1.8008   27.4953  -38.4515 H   0  0  0  0  0  0  0  0  0  0  0  0
   -0.2360   26.1450  -37.7920 C   0  0  0  0  0  0  0  0  0  0  0  0
   -0.2074   25.5964  -38.7450 H   0  0  0  0  0  0  0  0  0  0  0  0
    0.6290   25.7800  -36.7510 C   0  0  0  0  0  0  0  0  0  0  0  0
    1.5150   24.6650  -36.9520 N   0  0  0  0  0  0  0  0  0  0  0  0
    1.3870   23.4670  -36.4620 C   0  0  0  0  0  0  0  0  0  0  0  0
    2.2940   22.5140  -36.7960 N   0  0  0  0  0  0  0  0  0  0  0  0
    2.1980   21.2590  -36.2800 C   0  0  0  0  0  0  0  0  0  0  0  0
    3.0560   20.3380  -36.5990 N   0  0  0  0  0  0  0  0  0  0  0  0
    4.1740   20.5450  -37.5120 C   0  0  0  0  0  0  0  0  0  0  0  0
    5.0936   20.7153  -36.9329 H   0  0  0  0  0  0  0  0  0  0  0  0
    4.2994   19.6548  -38.1459 H   0  0  0  0  0  0  0  0  0  0  0  0
    3.9724   21.4211  -38.1459 H   0  0  0  0  0  0  0  0  0  0  0  0
    1.1920   20.9640  -35.4200 N   0  0  0  0  0  0  0  0  0  0  0  0
    0.2830   21.9140  -35.0710 C   0  0  0  0  0  0  0  0  0  0  0  0
   -0.6840   21.6470  -34.2460 N   0  0  0  0  0  0  0  0  0  0  0  0
   -0.9290   20.3420  -33.6300 C   0  0  0  0  0  0  0  0  0  0  0  0
   -0.4945   19.5588  -34.2686 H   0  0  0  0  0  0  0  0  0  0  0  0
   -0.4638   20.3398  -32.6332 H   0  0  0  0  0  0  0  0  0  0  0  0
   -2.4320   20.0690  -33.4590 C   0  0  0  0  0  0  0  0  0  0  0  0
   -2.9906   20.8480  -33.9985 H   0  0  0  0  0  0  0  0  0  0  0  0
   -2.6249   19.0628  -33.8595 H   0  0  0  0  0  0  0  0  0  0  0  0
   -2.8940   20.0670  -31.9920 C   0  0  0  0  0  0  0  0  0  0  0  0
   -3.9001   19.6257  -31.9379 H   0  0  0  0  0  0  0  0  0  0  0  0
   -2.1682   19.4803  -31.4098 H   0  0  0  0  0  0  0  0  0  0  0  0
   -2.9410   21.4560  -31.4090 C   0  0  0  0  0  0  0  0  0  0  0  0
   -1.8580   21.9530  -30.6640 C   0  0  0  0  0  0  0  0  0  0  0  0
   -0.9616   21.3320  -30.5198 H   0  0  0  0  0  0  0  0  0  0  0  0
   -1.9150   23.2340  -30.1050 C   0  0  0  0  0  0  0  0  0  0  0  0
   -1.0625   23.6196  -29.5265 H   0  0  0  0  0  0  0  0  0  0  0  0
   -3.0550   24.0250  -30.2810 C   0  0  0  0  0  0  0  0  0  0  0  0
   -3.1110   25.2960  -29.7250 O   0  0  0  0  0  0  0  0  0  0  0  0
   -4.1390   23.5340  -31.0170 C   0  0  0  0  0  0  0  0  0  0  0  0
   -5.0356   24.1560  -31.1556 H   0  0  0  0  0  0  0  0  0  0  0  0
   -4.0840   22.2550  -31.5760 C   0  0  0  0  0  0  0  0  0  0  0  0
   -4.9404   21.8716  -32.1500 H   0  0  0  0  0  0  0  0  0  0  0  0
    0.3900   23.1630  -35.5880 N   0  0  0  0  0  0  0  0  0  0  0  0
    0.5450   26.4560  -35.5190 C   0  0  0  0  0  0  0  0  0  0  0  0
    1.1899   26.1514  -34.6816 H   0  0  0  0  0  0  0  0  0  0  0  0
   -0.3560   27.5140  -35.3560 C   0  0  0  0  0  0  0  0  0  0  0  0
   -0.4070   28.0494  -34.3965 H   0  0  0  0  0  0  0  0  0  0  0  0
  1  2  1  0
  2  3  2  0
  3  4  1  0
  3  5  1  0
  5  6  1  0
  5  7  2  0
  7  8  1  0
  8  9  2  3
  9 10  1  0
 10 11  1  0
 11 12  2  0
 12 13  1  0
 13 14  1  0
 13 15  1  0
 13 16  1  0
 11 17  1  0
 17 18  1  0
 18 19  2  0
 19 20  1  0
 20 21  1  0
 20 22  1  0
 20 23  1  0
 23 24  1  0
 23 25  1  0
 23 26  1  0
 26 27  1  0
 26 28  1  0
 26 29  1  0
 29 30  2  0
 30 31  1  0
 30 32  1  0
 32 33  1  0
 32 34  2  0
 34 35  1  0
 34 36  1  0
 36 37  1  0
 36 38  2  0
 38 39  1  0
 18 40  1  0
  7 41  1  0
 41 42  1  0
 41 43  2  0
 43 44  1  0
 43  2  1  0
 40  9  1  0
 38 29  1  0
M  CHG  4  10  -1  17  -1  35  -1  40  -1
M  END
>  <UniqueID>  (40) 
40

>  <SMILES>  (40) 
C/N=c1\[n-]c(=Nc2ccccc2)[n-]/c(=N/CCCc2ccc([O-])cc2)[n-]1

>  <Energy>  (40) 
47.79975443268001

>  <Genealogy>  (40) 
CN=c1[n-]c(=NCCCc2ccc([O-])cc2)[n-]c(=Nc2ccccc2)[n-]1 (protonated)
C/N=c1\[n-]c(=Nc2ccccc2)[n-]/c(=N/CCCc2ccc([O-])cc2)[n-]1 (cis-trans isomerization)
C/N=c1\[n-]c(=Nc2ccccc2)[n-]/c(=N/CCCc2ccc([O-])cc2)[n-]1 (3D coordinates assigned)
C/N=c1\[n-]c(=Nc2ccccc2)[n-]/c(=N/CCCc2ccc([O-])cc2)[n-]1 (optimized conformer: 47.79975443268001 kcal/mol)

>  <smiles>  (40) 
CN=c1[nH]c(=NCCCc2ccc(O)cc2)[nH]c(=Nc2ccccc2)[nH]1

>  <score_type>  (40) 
oracle

>  <origin>  (40) 
adgpu

>  <m_score__min__energy>  (40) 
-12.609999999999999

>  <m_primary>  (40) 
energy

$$$$
40:0
     RDKit          3D

 37 39  0  0  0  0  0  0  0  0999 V2000
   -2.3230   23.5500  -29.6300 O   0  0  0  0  0  0  0  0  0  0  0  0
   -2.6040   24.7760  -29.6100 C   0  0  0  0  0  0  0  0  0  0  0  0
   -3.8090   25.2250  -30.2460 N   0  0  0  0  0  0  0  0  0  0  0  0
   -4.8610   24.3700  -30.7090 C   0  0  0  0  0  0  0  0  0  0  0  0
   -6.2120   24.6930  -30.4940 C   0  0  0  0  0  0  0  0  0  0  0  0
   -7.2200   23.8850  -31.0240 C   0  0  0  0  0  0  0  0  0  0  0  0
   -6.8950   22.7520  -31.7780 C   0  0  0  0  0  0  0  0  0  0  0  0
   -7.9290   21.9830  -32.3290 O   0  0  0  0  0  0  0  0  0  0  0  0
   -7.9680   20.5810  -32.3370 C   0  0  0  0  0  0  0  0  0  0  0  0
   -8.8680   19.8520  -31.5400 C   0  0  0  0  0  0  0  0  0  0  0  0
   -8.8530   18.4570  -31.5720 C   0  0  0  0  0  0  0  0  0  0  0  0
   -7.9310   17.8000  -32.3900 C   0  0  0  0  0  0  0  0  0  0  0  0
   -7.0550   18.5200  -33.1400 N   0  0  0  0  0  0  0  0  0  0  0  0
   -7.0500   19.8800  -33.1260 C   0  0  0  0  0  0  0  0  0  0  0  0
   -5.5440   22.3930  -31.9370 C   0  0  0  0  0  0  0  0  0  0  0  0
   -4.5350   23.1960  -31.3970 C   0  0  0  0  0  0  0  0  0  0  0  0
   -1.7080   25.6850  -28.9520 N   0  0  0  0  0  0  0  0  0  0  0  0
   -1.0430   25.4480  -27.7010 C   0  0  0  0  0  0  0  0  0  0  0  0
   -1.5060   26.1120  -26.5570 C   0  0  0  0  0  0  0  0  0  0  0  0
   -0.8470   25.9600  -25.3350 C   0  0  0  0  0  0  0  0  0  0  0  0
    0.2700   25.1270  -25.2410 C   0  0  0  0  0  0  0  0  0  0  0  0
    0.7160   24.4270  -26.3650 C   0  0  0  0  0  0  0  0  0  0  0  0
    0.0570   24.5710  -27.5960 C   0  0  0  0  0  0  0  0  0  0  0  0
    0.4840   23.8380  -28.7010 O   0  0  0  0  0  0  0  0  0  0  0  0
   -6.4759   25.5848  -29.9066 H   0  0  0  0  0  0  0  0  0  0  0  0
   -8.2753   24.1406  -30.8478 H   0  0  0  0  0  0  0  0  0  0  0  0
   -9.5829   20.3805  -30.8922 H   0  0  0  0  0  0  0  0  0  0  0  0
   -9.5608   17.8801  -30.9586 H   0  0  0  0  0  0  0  0  0  0  0  0
   -7.9137   16.7008  -32.4274 H   0  0  0  0  0  0  0  0  0  0  0  0
   -6.3208   20.4312  -33.7379 H   0  0  0  0  0  0  0  0  0  0  0  0
   -5.2809   21.4779  -32.4878 H   0  0  0  0  0  0  0  0  0  0  0  0
   -3.4809   22.9038  -31.5134 H   0  0  0  0  0  0  0  0  0  0  0  0
   -2.3945   26.7573  -26.6219 H   0  0  0  0  0  0  0  0  0  0  0  0
   -1.2082   26.4970  -24.4455 H   0  0  0  0  0  0  0  0  0  0  0  0
    0.7987   25.0220  -24.2821 H   0  0  0  0  0  0  0  0  0  0  0  0
    1.5872   23.7603  -26.2849 H   0  0  0  0  0  0  0  0  0  0  0  0
   -0.1340   23.6410  -29.4790 H   0  0  0  0  0  0  0  0  0  0  0  0
  1  2  2  0
  2  3  1  0
  3  4  1  0
  4  5  2  0
  5  6  1  0
  6  7  2  0
  7  8  1  0
  8  9  1  0
  9 10  2  0
 10 11  1  0
 11 12  2  0
 12 13  1  0
 13 14  2  0
  7 15  1  0
 15 16  2  0
  2 17  1  0
 17 18  1  0
 18 19  2  0
 19 20  1  0
 20 21  2  0
 21 22  1  0
 22 23  2  0
 23 24  1  0
 16  4  1  0
 23 18  1  0
 14  9  1  0
  5 25  1  0
  6 26  1  0
 10 27  1  0
 11 28  1  0
 12 29  1  0
 14 30  1  0
 15 31  1  0
 16 32  1  0
 19 33  1  0
 20 34  1  0
 21 35  1  0
 22 36  1  0
 24 37  1  0
M  CHG  2   3  -1  17  -1
M  END
>  <UniqueID>  (41) 
41

>  <SMILES>  (41) 
O=C([N-]c1ccc(Oc2cccnc2)cc1)[N-]c1ccccc1O

>  <Energy>  (41) 
54.93366709980821

>  <Genealogy>  (41) 
O=C([N-]c1ccc(Oc2cccnc2)cc1)[N-]c1ccccc1O (protonated)
O=C([N-]c1ccc(Oc2cccnc2)cc1)[N-]c1ccccc1O (3D coordinates assigned)
O=C([N-]c1ccc(Oc2cccnc2)cc1)[N-]c1ccccc1O (optimized conformer: 54.93366709980821 kcal/mol)

>  <smiles>  (41) 
O=C(Nc1ccc(Oc2cccnc2)cc1)Nc1ccccc1O

>  <score_type>  (41) 
oracle

>  <origin>  (41) 
adgpu

>  <m_score__min__energy>  (41) 
-10.83

>  <m_primary>  (41) 
energy

$$$$
41:0
     RDKit          3D

 42 43  0  0  0  0  0  0  0  0999 V2000
   -9.5300   21.6000  -30.7750 C   0  0  0  0  0  0  0  0  0  0  0  0
   -8.6070   20.7150  -31.5700 C   0  0  0  0  0  0  0  0  0  0  0  0
   -8.8350   19.3290  -31.5990 C   0  0  0  0  0  0  0  0  0  0  0  0
   -8.0010   18.4860  -32.3350 C   0  0  0  0  0  0  0  0  0  0  0  0
   -6.9190   19.0120  -33.0460 C   0  0  0  0  0  0  0  0  0  0  0  0
   -5.9150   17.9460  -34.0320 S   0  0  0  0  0  0  0  0  0  0  0  0
   -5.7840   18.5450  -35.4030 O   0  0  0  0  0  0  0  0  0  0  0  0
   -6.5800   16.6040  -34.1710 O   0  0  0  0  0  0  0  0  0  0  0  0
   -4.3210   17.7330  -33.3600 N   0  0  0  0  0  0  0  0  0  0  0  0
   -3.4580   18.8970  -33.5820 C   0  0  0  0  0  0  0  0  0  0  0  0
   -2.4760   19.0990  -32.4240 C   0  0  0  0  0  0  0  0  0  0  0  0
   -2.7270   20.4190  -31.7470 C   0  0  0  0  0  0  0  0  0  0  0  0
   -4.0330   20.7930  -31.3920 C   0  0  0  0  0  0  0  0  0  0  0  0
   -4.2730   22.0360  -30.8010 C   0  0  0  0  0  0  0  0  0  0  0  0
   -3.2130   22.9220  -30.5610 C   0  0  0  0  0  0  0  0  0  0  0  0
   -3.5230   24.4940  -29.8320 S   0  0  0  0  0  0  0  0  0  0  0  0
   -2.0390   25.1680  -29.2630 N   0  0  0  0  0  0  0  0  0  0  0  0
   -4.4780   24.3430  -28.6810 O   0  0  0  0  0  0  0  0  0  0  0  0
   -4.1360   25.4150  -30.8500 O   0  0  0  0  0  0  0  0  0  0  0  0
   -1.9120   22.5580  -30.9330 C   0  0  0  0  0  0  0  0  0  0  0  0
   -1.6700   21.3150  -31.5260 C   0  0  0  0  0  0  0  0  0  0  0  0
   -6.6730   20.3900  -33.0150 C   0  0  0  0  0  0  0  0  0  0  0  0
   -7.5050   21.2520  -32.2800 C   0  0  0  0  0  0  0  0  0  0  0  0
   -7.2330   22.7330  -32.2980 C   0  0  0  0  0  0  0  0  0  0  0  0
   -9.3595   21.4365  -29.7007 H   0  0  0  0  0  0  0  0  0  0  0  0
   -9.3308   22.6533  -31.0218 H   0  0  0  0  0  0  0  0  0  0  0  0
  -10.5740   21.3567  -31.0218 H   0  0  0  0  0  0  0  0  0  0  0  0
   -9.6791   18.9041  -31.0361 H   0  0  0  0  0  0  0  0  0  0  0  0
   -8.1961   17.4036  -32.3555 H   0  0  0  0  0  0  0  0  0  0  0  0
   -2.8885   18.7473  -34.5111 H   0  0  0  0  0  0  0  0  0  0  0  0
   -4.0960   19.7903  -33.6523 H   0  0  0  0  0  0  0  0  0  0  0  0
   -2.6051   18.2868  -31.6935 H   0  0  0  0  0  0  0  0  0  0  0  0
   -1.4501   19.0912  -32.8209 H   0  0  0  0  0  0  0  0  0  0  0  0
   -4.8703   20.1048  -31.5799 H   0  0  0  0  0  0  0  0  0  0  0  0
   -5.2983   22.3210  -30.5226 H   0  0  0  0  0  0  0  0  0  0  0  0
   -1.6050   25.6740  -30.0680 H   0  0  0  0  0  0  0  0  0  0  0  0
   -1.0776   23.2530  -30.7578 H   0  0  0  0  0  0  0  0  0  0  0  0
   -0.6469   21.0385  -31.8204 H   0  0  0  0  0  0  0  0  0  0  0  0
   -5.8190   20.8026  -33.5721 H   0  0  0  0  0  0  0  0  0  0  0  0
   -7.1645   23.1058  -31.2654 H   0  0  0  0  0  0  0  0  0  0  0  0
   -6.2845   22.9253  -32.8209 H   0  0  0  0  0  0  0  0  0  0  0  0
   -8.0513   23.2498  -32.8209 H   0  0  0  0  0  0  0  0  0  0  0  0
  1  2  1  0
  2  3  2  0
  3  4  1  0
  4  5  2  0
  5  6  1  0
  6  7  2  0
  6  8  2  0
  6  9  1  0
  9 10  1  0
 10 11  1  0
 11 12  1  0
 12 13  2  0
 13 14  1  0
 14 15  2  0
 15 16  1  0
 16 17  1  0
 16 18  2  0
 16 19  2  0
 15 20  1  0
 20 21  2  0
  5 22  1  0
 22 23  2  0
 23 24  1  0
 23  2  1  0
 21 12  1  0
  1 25  1  0
  1 26  1  0
  1 27  1  0
  3 28  1  0
  4 29  1  0
 10 30  1  0
 10 31  1  0
 11 32  1  0
 11 33  1  0
 13 34  1  0
 14 35  1  0
 17 36  1  0
 20 37  1  0
 21 38  1  0
 22 39  1  0
 24 40  1  0
 24 41  1  0
 24 42  1  0
M  CHG  2   9  -1  17  -1
M  END
>  <UniqueID>  (42) 
42

>  <SMILES>  (42) 
Cc1ccc(S(=O)(=O)[N-]CCc2ccc(S([NH-])(=O)=O)cc2)cc1C

>  <Energy>  (42) 
38.12803787154491

>  <Genealogy>  (42) 
Cc1ccc(S(=O)(=O)[N-]CCc2ccc(S([NH-])(=O)=O)cc2)cc1C (protonated)
Cc1ccc(S(=O)(=O)[N-]CCc2ccc(S([NH-])(=O)=O)cc2)cc1C (3D coordinates assigned)
Cc1ccc(S(=O)(=O)[N-]CCc2ccc(S([NH-])(=O)=O)cc2)cc1C (optimized conformer: 38.12803787154491 kcal/mol)

>  <smiles>  (42) 
Cc1ccc(S(=O)(=O)NCCc2ccc(S(N)(=O)=O)cc2)cc1C

>  <score_type>  (42) 
oracle

>  <origin>  (42) 
adgpu

>  <m_score__min__energy>  (42) 
-11.869999999999999

>  <m_primary>  (42) 
energy

$$$$
42:0
     RDKit          3D

 63 67  0  0  0  0  0  0  0  0999 V2000
    0.1880   24.0760  -28.7870 O   0  0  0  0  0  0  0  0  0  0  0  0
   -0.4530   23.0170  -29.0260 C   0  0  0  0  0  0  0  0  0  0  0  0
    0.2600   21.8680  -29.4960 N   0  0  0  0  0  0  0  0  0  0  0  0
   -0.2790   20.9350  -30.4430 C   0  0  0  0  0  0  0  0  0  0  0  0
   -1.0480   21.4050  -31.5120 C   0  0  0  0  0  0  0  0  0  0  0  0
   -1.5410   20.5110  -32.4670 C   0  0  0  0  0  0  0  0  0  0  0  0
   -1.2970   19.1320  -32.3470 C   0  0  0  0  0  0  0  0  0  0  0  0
   -1.9500   18.0060  -33.5480 S   0  0  0  0  0  0  0  0  0  0  0  0
   -1.4420   18.4180  -34.9040 O   0  0  0  0  0  0  0  0  0  0  0  0
   -1.4230   16.6280  -33.2490 O   0  0  0  0  0  0  0  0  0  0  0  0
   -3.7030   17.9020  -33.5560 N   0  0  0  0  0  0  0  0  0  0  0  0
   -4.2410   17.9210  -34.9290 C   0  0  0  0  0  0  0  0  0  0  0  0
   -5.7750   17.8350  -34.8790 C   0  0  0  0  0  0  0  0  0  0  0  0
   -6.1900   16.6650  -34.1970 O   0  0  0  0  0  0  0  0  0  0  0  0
   -5.7240   16.6960  -32.8580 C   0  0  0  0  0  0  0  0  0  0  0  0
   -4.1850   16.7240  -32.8190 C   0  0  0  0  0  0  0  0  0  0  0  0
   -0.5860   18.6590  -31.2360 C   0  0  0  0  0  0  0  0  0  0  0  0
   -0.0610   19.5540  -30.3010 C   0  0  0  0  0  0  0  0  0  0  0  0
   -1.9190   22.9780  -28.8220 C   0  0  0  0  0  0  0  0  0  0  0  0
   -2.4590   22.3480  -27.6920 C   0  0  0  0  0  0  0  0  0  0  0  0
   -3.8410   22.3500  -27.4820 C   0  0  0  0  0  0  0  0  0  0  0  0
   -4.6920   22.9730  -28.3980 C   0  0  0  0  0  0  0  0  0  0  0  0
   -4.1660   23.5870  -29.5400 C   0  0  0  0  0  0  0  0  0  0  0  0
   -5.2260   24.3890  -30.6980 S   0  0  0  0  0  0  0  0  0  0  0  0
   -6.5480   24.6960  -30.0500 O   0  0  0  0  0  0  0  0  0  0  0  0
   -4.5780   25.6780  -31.1160 O   0  0  0  0  0  0  0  0  0  0  0  0
   -5.5030   23.3870  -32.1060 N   0  0  0  0  0  0  0  0  0  0  0  0
   -4.7570   22.1120  -31.9760 C   0  0  0  0  0  0  0  0  0  0  0  0
   -5.2840   21.0370  -32.9310 C   0  0  0  0  0  0  0  0  0  0  0  0
   -6.7200   20.7810  -32.5960 C   0  0  0  0  0  0  0  0  0  0  0  0
   -7.2520   19.4840  -32.5760 C   0  0  0  0  0  0  0  0  0  0  0  0
   -8.5890   19.2840  -32.2070 C   0  0  0  0  0  0  0  0  0  0  0  0
   -9.3970   20.3760  -31.8700 C   0  0  0  0  0  0  0  0  0  0  0  0
   -8.8730   21.6740  -31.9110 C   0  0  0  0  0  0  0  0  0  0  0  0
   -7.5270   21.8800  -32.2640 C   0  0  0  0  0  0  0  0  0  0  0  0
   -6.9630   23.2790  -32.3910 C   0  0  0  0  0  0  0  0  0  0  0  0
   -2.7830   23.5920  -29.7450 C   0  0  0  0  0  0  0  0  0  0  0  0
   -1.2653   22.4796  -31.6017 H   0  0  0  0  0  0  0  0  0  0  0  0
   -2.1245   20.8898  -33.3191 H   0  0  0  0  0  0  0  0  0  0  0  0
   -3.9421   18.8551  -35.4271 H   0  0  0  0  0  0  0  0  0  0  0  0
   -3.8436   17.0628  -35.4907 H   0  0  0  0  0  0  0  0  0  0  0  0
   -6.1690   18.7177  -34.3540 H   0  0  0  0  0  0  0  0  0  0  0  0
   -6.1604   17.7990  -35.9086 H   0  0  0  0  0  0  0  0  0  0  0  0
   -6.1144   17.5959  -32.3603 H   0  0  0  0  0  0  0  0  0  0  0  0
   -6.0750   15.7913  -32.3399 H   0  0  0  0  0  0  0  0  0  0  0  0
   -3.8446   16.7791  -31.7745 H   0  0  0  0  0  0  0  0  0  0  0  0
   -3.7872   15.8097  -33.2836 H   0  0  0  0  0  0  0  0  0  0  0  0
   -0.4406   17.5772  -31.0995 H   0  0  0  0  0  0  0  0  0  0  0  0
    0.5253   19.1765  -29.4503 H   0  0  0  0  0  0  0  0  0  0  0  0
   -1.7944   21.8515  -26.9697 H   0  0  0  0  0  0  0  0  0  0  0  0
   -4.2603   21.8588  -26.5915 H   0  0  0  0  0  0  0  0  0  0  0  0
   -5.7777   22.9809  -28.2212 H   0  0  0  0  0  0  0  0  0  0  0  0
   -3.6962   22.2971  -32.2007 H   0  0  0  0  0  0  0  0  0  0  0  0
   -4.8887   21.7456  -30.9472 H   0  0  0  0  0  0  0  0  0  0  0  0
   -5.2004   21.3880  -33.9701 H   0  0  0  0  0  0  0  0  0  0  0  0
   -4.6973   20.1125  -32.8252 H   0  0  0  0  0  0  0  0  0  0  0  0
   -6.6213   18.6252  -32.8494 H   0  0  0  0  0  0  0  0  0  0  0  0
   -9.0047   18.2659  -32.1821 H   0  0  0  0  0  0  0  0  0  0  0  0
  -10.4438   20.2146  -31.5729 H   0  0  0  0  0  0  0  0  0  0  0  0
   -9.5147   22.5335  -31.6669 H   0  0  0  0  0  0  0  0  0  0  0  0
   -7.1388   23.6280  -33.4193 H   0  0  0  0  0  0  0  0  0  0  0  0
   -7.4749   23.8919  -31.6345 H   0  0  0  0  0  0  0  0  0  0  0  0
   -2.3668   24.0815  -30.6378 H   0  0  0  0  0  0  0  0  0  0  0  0
  1  2  2  0
  2  3  1  0
  3  4  1  0
  4  5  2  0
  5  6  1  0
  6  7  2  0
  7  8  1  0
  8  9  2  0
  8 10  2  0
  8 11  1  0
 11 12  1  0
 12 13  1  0
 13 14  1  0
 14 15  1  0
 15 16  1  0
  7 17  1  0
 17 18  2  0
  2 19  1  0
 19 20  2  0
 20 21  1  0
 21 22  2  0
 22 23  1  0
 23 24  1  0
 24 25  2  0
 24 26  2  0
 24 27  1  0
 27 28  1  0
 28 29  1  0
 29 30  1  0
 30 31  2  0
 31 32  1  0
 32 33  2  0
 33 34  1  0
 34 35  2  0
 35 36  1  0
 23 37  2  0
 18  4  1  0
 37 19  1  0
 16 11  1  0
 36 27  1  0
 35 30  1  0
  5 38  1  0
  6 39  1  0
 12 40  1  0
 12 41  1  0
 13 42  1  0
 13 43  1  0
 15 44  1  0
 15 45  1  0
 16 46  1  0
 16 47  1  0
 17 48  1  0
 18 49  1  0
 20 50  1  0
 21 51  1  0
 22 52  1  0
 28 53  1  0
 28 54  1  0
 29 55  1  0
 29 56  1  0
 31 57  1  0
 32 58  1  0
 33 59  1  0
 34 60  1  0
 36 61  1  0
 36 62  1  0
 37 63  1  0
M  CHG  1   3  -1
M  END
>  <UniqueID>  (43) 
43

>  <SMILES>  (43) 
O=C([N-]c1ccc(S(=O)(=O)N2CCOCC2)cc1)c1cccc(S(=O)(=O)N2CCc3ccccc3C2)c1

>  <Energy>  (43) 
87.03672888581293

>  <Genealogy>  (43) 
O=C([N-]c1ccc(S(=O)(=O)N2CCOCC2)cc1)c1cccc(S(=O)(=O)N2CCc3ccccc3C2)c1 (protonated)
O=C([N-]c1ccc(S(=O)(=O)N2CCOCC2)cc1)c1cccc(S(=O)(=O)N2CCc3ccccc3C2)c1 (3D coordinates assigned)
O=C([N-]c1ccc(S(=O)(=O)N2CCOCC2)cc1)c1cccc(S(=O)(=O)N2CCc3ccccc3C2)c1 (nonaromatic ring conformer: 87.03672888581293 kcal/mol)

>  <smiles>  (43) 
O=C(Nc1ccc(S(=O)(=O)N2CCOCC2)cc1)c1cccc(S(=O)(=O)N2CCc3ccccc3C2)c1

>  <score_type>  (43) 
oracle

>  <origin>  (43) 
adgpu

>  <m_score__min__energy>  (43) 
-13.109999999999999

>  <m_primary>  (43) 
energy

$$$$
43:0
     RDKit          3D

 45 47  0  0  0  0  0  0  0  0999 V2000
   -2.6870   19.8160  -27.0650 C   0  0  0  0  0  0  0  0  0  0  0  0
   -1.1060   20.2750  -27.8400 S   0  0  0  0  0  0  0  0  0  0  0  0
   -1.3730   22.0350  -27.6160 C   0  0  0  0  0  0  0  0  0  0  0  0
   -1.0250   22.6470  -26.4060 C   0  0  0  0  0  0  0  0  0  0  0  0
   -1.2480   24.0140  -26.2260 C   0  0  0  0  0  0  0  0  0  0  0  0
   -1.8080   24.7750  -27.2550 C   0  0  0  0  0  0  0  0  0  0  0  0
   -2.1270   24.1750  -28.4870 C   0  0  0  0  0  0  0  0  0  0  0  0
   -2.7330   24.9180  -29.5540 N   0  0  0  0  0  0  0  0  0  0  0  0
   -3.9040   24.5520  -30.2950 C   0  0  0  0  0  0  0  0  0  0  0  0
   -4.5750   25.4610  -30.8520 O   0  0  0  0  0  0  0  0  0  0  0  0
   -4.3390   23.1840  -30.3700 N   0  0  0  0  0  0  0  0  0  0  0  0
   -5.5750   22.7860  -30.9840 C   0  0  0  0  0  0  0  0  0  0  0  0
   -6.7810   23.4150  -30.6270 C   0  0  0  0  0  0  0  0  0  0  0  0
   -7.9930   22.9780  -31.1670 C   0  0  0  0  0  0  0  0  0  0  0  0
   -8.0160   21.9020  -32.0560 C   0  0  0  0  0  0  0  0  0  0  0  0
   -6.8250   21.2630  -32.4130 C   0  0  0  0  0  0  0  0  0  0  0  0
   -5.6030   21.7050  -31.8890 C   0  0  0  0  0  0  0  0  0  0  0  0
   -4.0830   20.9070  -32.4210 S   0  0  0  0  0  0  0  0  0  0  0  0
   -4.9250   19.3880  -32.8750 C   0  0  0  0  0  0  0  0  0  0  0  0
   -5.0720   19.0340  -34.2200 C   0  0  0  0  0  0  0  0  0  0  0  0
   -5.7260   17.8470  -34.5680 C   0  0  0  0  0  0  0  0  0  0  0  0
   -6.2510   17.0120  -33.5690 C   0  0  0  0  0  0  0  0  0  0  0  0
   -6.9150   15.7180  -33.9360 C   0  0  0  0  0  0  0  0  0  0  0  0
   -6.0920   17.3650  -32.2200 C   0  0  0  0  0  0  0  0  0  0  0  0
   -5.4350   18.5510  -31.8760 C   0  0  0  0  0  0  0  0  0  0  0  0
   -1.9250   22.7990  -28.6510 C   0  0  0  0  0  0  0  0  0  0  0  0
   -2.5814   19.8467  -25.9705 H   0  0  0  0  0  0  0  0  0  0  0  0
   -3.4681   20.5245  -27.3780 H   0  0  0  0  0  0  0  0  0  0  0  0
   -2.9673   18.7994  -27.3780 H   0  0  0  0  0  0  0  0  0  0  0  0
   -0.5761   22.0515  -25.5973 H   0  0  0  0  0  0  0  0  0  0  0  0
   -0.9821   24.4924  -25.2719 H   0  0  0  0  0  0  0  0  0  0  0  0
   -2.0002   25.8471  -27.1015 H   0  0  0  0  0  0  0  0  0  0  0  0
   -3.7540   22.4360  -29.9390 H   0  0  0  0  0  0  0  0  0  0  0  0
   -6.7699   24.2562  -29.9183 H   0  0  0  0  0  0  0  0  0  0  0  0
   -8.9307   23.4826  -30.8912 H   0  0  0  0  0  0  0  0  0  0  0  0
   -8.9722   21.5566  -32.4760 H   0  0  0  0  0  0  0  0  0  0  0  0
   -6.8473   20.4103  -33.1076 H   0  0  0  0  0  0  0  0  0  0  0  0
   -4.6723   19.6907  -35.0067 H   0  0  0  0  0  0  0  0  0  0  0  0
   -5.8290   17.5674  -35.6269 H   0  0  0  0  0  0  0  0  0  0  0  0
   -7.1932   15.1759  -33.0201 H   0  0  0  0  0  0  0  0  0  0  0  0
   -7.8185   15.9246  -34.5285 H   0  0  0  0  0  0  0  0  0  0  0  0
   -6.2203   15.1045  -34.5285 H   0  0  0  0  0  0  0  0  0  0  0  0
   -6.4852   16.7071  -31.4309 H   0  0  0  0  0  0  0  0  0  0  0  0
   -5.3189   18.8265  -30.8174 H   0  0  0  0  0  0  0  0  0  0  0  0
   -2.2019   22.3153  -29.5994 H   0  0  0  0  0  0  0  0  0  0  0  0
  1  2  1  0
  2  3  1  0
  3  4  2  0
  4  5  1  0
  5  6  2  0
  6  7  1  0
  7  8  1  0
  8  9  1  0
  9 10  2  0
  9 11  1  0
 11 12  1  0
 12 13  2  0
 13 14  1  0
 14 15  2  0
 15 16  1  0
 16 17  2  0
 17 18  1  0
 18 19  1  0
 19 20  2  0
 20 21  1  0
 21 22  2  0
 22 23  1  0
 22 24  1  0
 24 25  2  0
  7 26  2  0
 26  3  1  0
 17 12  1  0
 25 19  1  0
  1 27  1  0
  1 28  1  0
  1 29  1  0
  4 30  1  0
  5 31  1  0
  6 32  1  0
 11 33  1  0
 13 34  1  0
 14 35  1  0
 15 36  1  0
 16 37  1  0
 20 38  1  0
 21 39  1  0
 23 40  1  0
 23 41  1  0
 23 42  1  0
 24 43  1  0
 25 44  1  0
 26 45  1  0
M  CHG  1   8  -1
M  END
>  <UniqueID>  (44) 
44

>  <SMILES>  (44) 
CSc1cccc([N-]C(=O)Nc2ccccc2Sc2ccc(C)cc2)c1

>  <Energy>  (44) 
46.06821624515476

>  <Genealogy>  (44) 
CSc1cccc([N-]C(=O)Nc2ccccc2Sc2ccc(C)cc2)c1 (protonated)
CSc1cccc([N-]C(=O)Nc2ccccc2Sc2ccc(C)cc2)c1 (3D coordinates assigned)
CSc1cccc([N-]C(=O)Nc2ccccc2Sc2ccc(C)cc2)c1 (optimized conformer: 46.06821624515476 kcal/mol)

>  <smiles>  (44) 
CSc1cccc(NC(=O)Nc2ccccc2Sc2ccc(C)cc2)c1

>  <score_type>  (44) 
oracle

>  <origin>  (44) 
adgpu

>  <m_score__min__energy>  (44) 
-10.619999999999999

>  <m_primary>  (44) 
energy

$$$$
44:0
     RDKit          3D

 40 43  0  0  0  0  0  0  0  0999 V2000
   -6.6060   23.5890  -32.0170 C   0  0  0  0  0  0  0  0  0  0  0  0
   -5.4020   24.0240  -31.2470 C   0  0  0  0  0  0  0  0  0  0  0  0
   -4.9900   25.3040  -31.1650 N   0  0  0  0  0  0  0  0  0  0  0  0
   -3.8760   25.3060  -30.4910 O   0  0  0  0  0  0  0  0  0  0  0  0
   -3.5320   24.0890  -30.1360 C   0  0  0  0  0  0  0  0  0  0  0  0
   -2.2970   23.7540  -29.3690 C   0  0  0  0  0  0  0  0  0  0  0  0
   -4.4910   23.2080  -30.6000 C   0  0  0  0  0  0  0  0  0  0  0  0
   -4.4900   21.7090  -30.5140 C   0  0  0  0  0  0  0  0  0  0  0  0
   -3.7320   21.1430  -31.6250 N   0  0  0  0  0  0  0  0  0  0  0  0
   -2.7040   21.7350  -32.2610 C   0  0  0  0  0  0  0  0  0  0  0  0
   -2.3070   20.8950  -33.2770 C   0  0  0  0  0  0  0  0  0  0  0  0
   -1.2810   21.1700  -34.2410 N   0  0  0  0  0  0  0  0  0  0  0  0
    0.1250   21.0580  -33.9670 C   0  0  0  0  0  0  0  0  0  0  0  0
    0.5360   21.1040  -32.7750 O   0  0  0  0  0  0  0  0  0  0  0  0
    1.1080   20.9390  -35.0700 C   0  0  0  0  0  0  0  0  0  0  0  0
    1.1300   19.7860  -35.9060 C   0  0  0  0  0  0  0  0  0  0  0  0
    2.0680   19.6690  -36.9500 C   0  0  0  0  0  0  0  0  0  0  0  0
    2.9700   20.7110  -37.1290 C   0  0  0  0  0  0  0  0  0  0  0  0
    3.9440   20.8110  -38.0490 N   0  0  0  0  0  0  0  0  0  0  0  0
    4.5590   21.9740  -37.8420 N   0  0  0  0  0  0  0  0  0  0  0  0
    3.9800   22.6070  -36.7950 C   0  0  0  0  0  0  0  0  0  0  0  0
    2.9630   21.8130  -36.3280 C   0  0  0  0  0  0  0  0  0  0  0  0
    2.0550   21.9700  -35.2860 C   0  0  0  0  0  0  0  0  0  0  0  0
   -3.1570   19.8060  -33.2210 C   0  0  0  0  0  0  0  0  0  0  0  0
   -4.0200   19.9840  -32.2000 N   0  0  0  0  0  0  0  0  0  0  0  0
   -7.4042   23.3006  -31.3173 H   0  0  0  0  0  0  0  0  0  0  0  0
   -6.9553   24.4178  -32.6503 H   0  0  0  0  0  0  0  0  0  0  0  0
   -6.3450   22.7283  -32.6503 H   0  0  0  0  0  0  0  0  0  0  0  0
   -2.5081   23.8113  -28.2910 H   0  0  0  0  0  0  0  0  0  0  0  0
   -1.9713   22.7351  -29.6253 H   0  0  0  0  0  0  0  0  0  0  0  0
   -1.5010   24.4687  -29.6253 H   0  0  0  0  0  0  0  0  0  0  0  0
   -4.0293   21.3995  -29.5643 H   0  0  0  0  0  0  0  0  0  0  0  0
   -5.5269   21.3451  -30.5635 H   0  0  0  0  0  0  0  0  0  0  0  0
   -2.2619   22.7115  -32.0141 H   0  0  0  0  0  0  0  0  0  0  0  0
   -1.5830   21.5300  -35.1750 H   0  0  0  0  0  0  0  0  0  0  0  0
    0.4052   18.9767  -35.7340 H   0  0  0  0  0  0  0  0  0  0  0  0
    2.0861   18.7830  -37.6016 H   0  0  0  0  0  0  0  0  0  0  0  0
    4.2734   23.5865  -36.3895 H   0  0  0  0  0  0  0  0  0  0  0  0
    2.0718   22.8670  -34.6495 H   0  0  0  0  0  0  0  0  0  0  0  0
   -3.1333   18.9385  -33.8969 H   0  0  0  0  0  0  0  0  0  0  0  0
  1  2  1  0
  2  3  2  0
  3  4  1  0
  4  5  1  0
  5  6  1  0
  5  7  2  0
  7  8  1  0
  8  9  1  0
  9 10  1  0
 10 11  2  0
 11 12  1  0
 12 13  1  0
 13 14  2  0
 13 15  1  0
 15 16  2  0
 16 17  1  0
 17 18  2  0
 18 19  1  0
 19 20  1  0
 20 21  2  0
 21 22  1  0
 22 23  2  0
 11 24  1  0
 24 25  2  0
  7  2  1  0
 25  9  1  0
 23 15  1  0
 22 18  1  0
  1 26  1  0
  1 27  1  0
  1 28  1  0
  6 29  1  0
  6 30  1  0
  6 31  1  0
  8 32  1  0
  8 33  1  0
 10 34  1  0
 12 35  1  0
 16 36  1  0
 17 37  1  0
 21 38  1  0
 23 39  1  0
 24 40  1  0
M  CHG  1  19  -1
M  END
>  <UniqueID>  (45) 
45

>  <SMILES>  (45) 
Cc1noc(C)c1Cn1cc(NC(=O)c2ccc3[n-]ncc3c2)cn1

>  <Energy>  (45) 
142.6917918963149

>  <Genealogy>  (45) 
Cc1noc(C)c1Cn1cc(NC(=O)c2ccc3[n-]ncc3c2)cn1 (protonated)
Cc1noc(C)c1Cn1cc(NC(=O)c2ccc3[n-]ncc3c2)cn1 (3D coordinates assigned)
Cc1noc(C)c1Cn1cc(NC(=O)c2ccc3[n-]ncc3c2)cn1 (optimized conformer: 142.6917918963149 kcal/mol)

>  <smiles>  (45) 
Cc1noc(C)c1Cn1cc(NC(=O)c2ccc3[nH]ncc3c2)cn1

>  <score_type>  (45) 
oracle

>  <origin>  (45) 
adgpu

>  <m_score__min__energy>  (45) 
-9.4000000000000004

>  <m_primary>  (45) 
energy

$$$$
45:0
     RDKit          3D

 64 68  0  0  0  0  0  0  0  0999 V2000
   -3.8700   25.6800  -30.8760 O   0  0  0  0  0  0  0  0  0  0  0  0
   -4.0240   24.6220  -30.2120 C   0  0  0  0  0  0  0  0  0  0  0  0
   -3.1100   24.3350  -29.1450 N   0  0  0  0  0  0  0  0  0  0  0  0
   -2.3500   23.1250  -28.9950 C   0  0  0  0  0  0  0  0  0  0  0  0
   -0.9630   23.0920  -29.2270 C   0  0  0  0  0  0  0  0  0  0  0  0
   -0.2440   21.9090  -29.0330 C   0  0  0  0  0  0  0  0  0  0  0  0
   -0.9040   20.7420  -28.6310 C   0  0  0  0  0  0  0  0  0  0  0  0
    0.0200   19.2720  -28.3320 S   0  0  0  0  0  0  0  0  0  0  0  0
    1.2330   19.5890  -27.5030 O   0  0  0  0  0  0  0  0  0  0  0  0
   -0.8450   18.3110  -27.5670 O   0  0  0  0  0  0  0  0  0  0  0  0
    0.5030   18.5470  -29.8470 N   0  0  0  0  0  0  0  0  0  0  0  0
    1.9060   18.9100  -30.1480 C   0  0  0  0  0  0  0  0  0  0  0  0
    2.1810   18.8100  -31.6580 C   0  0  0  0  0  0  0  0  0  0  0  0
    1.3860   19.6910  -32.4410 O   0  0  0  0  0  0  0  0  0  0  0  0
    0.1370   20.0200  -31.8410 C   0  0  0  0  0  0  0  0  0  0  0  0
   -0.4320   18.9050  -30.9440 C   0  0  0  0  0  0  0  0  0  0  0  0
   -2.2930   20.7660  -28.4320 C   0  0  0  0  0  0  0  0  0  0  0  0
   -3.0110   21.9500  -28.6220 C   0  0  0  0  0  0  0  0  0  0  0  0
   -5.1150   23.6890  -30.5690 C   0  0  0  0  0  0  0  0  0  0  0  0
   -5.9530   23.1560  -29.5750 C   0  0  0  0  0  0  0  0  0  0  0  0
   -7.0450   22.3590  -29.9260 C   0  0  0  0  0  0  0  0  0  0  0  0
   -7.3130   22.0810  -31.2720 C   0  0  0  0  0  0  0  0  0  0  0  0
   -8.7810   21.2130  -31.7240 S   0  0  0  0  0  0  0  0  0  0  0  0
   -9.5050   20.7780  -30.4820 O   0  0  0  0  0  0  0  0  0  0  0  0
   -9.6880   22.1320  -32.4960 O   0  0  0  0  0  0  0  0  0  0  0  0
   -8.3970   19.8040  -32.6890 N   0  0  0  0  0  0  0  0  0  0  0  0
   -8.5570   18.5530  -31.9020 C   0  0  0  0  0  0  0  0  0  0  0  0
   -7.2240   17.9300  -31.4710 C   0  0  0  0  0  0  0  0  0  0  0  0
   -6.4020   17.6930  -32.6990 C   0  0  0  0  0  0  0  0  0  0  0  0
   -5.6850   16.5030  -32.8950 C   0  0  0  0  0  0  0  0  0  0  0  0
   -4.9780   16.3050  -34.0840 C   0  0  0  0  0  0  0  0  0  0  0  0
   -4.9720   17.2960  -35.0710 C   0  0  0  0  0  0  0  0  0  0  0  0
   -5.6650   18.4940  -34.8660 C   0  0  0  0  0  0  0  0  0  0  0  0
   -6.3960   18.6880  -33.6840 C   0  0  0  0  0  0  0  0  0  0  0  0
   -7.1000   19.9880  -33.3930 C   0  0  0  0  0  0  0  0  0  0  0  0
   -6.4430   22.5610  -32.2620 C   0  0  0  0  0  0  0  0  0  0  0  0
   -5.3460   23.3550  -31.9120 C   0  0  0  0  0  0  0  0  0  0  0  0
   -0.4420   24.0009  -29.5625 H   0  0  0  0  0  0  0  0  0  0  0  0
    0.8437   21.8952  -29.1968 H   0  0  0  0  0  0  0  0  0  0  0  0
    0.4540   17.5090  -29.7090 H   0  0  0  0  0  0  0  0  0  0  0  0
    2.0916   19.9417  -29.8146 H   0  0  0  0  0  0  0  0  0  0  0  0
    2.5730   18.2127  -29.6199 H   0  0  0  0  0  0  0  0  0  0  0  0
    3.2404   19.0475  -31.8350 H   0  0  0  0  0  0  0  0  0  0  0  0
    1.9249   17.7853  -31.9653 H   0  0  0  0  0  0  0  0  0  0  0  0
    0.2735   20.9231  -31.2280 H   0  0  0  0  0  0  0  0  0  0  0  0
   -0.5822   20.1726  -32.6592 H   0  0  0  0  0  0  0  0  0  0  0  0
   -1.3798   19.2502  -30.5053 H   0  0  0  0  0  0  0  0  0  0  0  0
   -0.5861   18.0113  -31.5665 H   0  0  0  0  0  0  0  0  0  0  0  0
   -2.8186   19.8496  -28.1254 H   0  0  0  0  0  0  0  0  0  0  0  0
   -4.1014   21.9579  -28.4775 H   0  0  0  0  0  0  0  0  0  0  0  0
   -5.7480   23.3675  -28.5152 H   0  0  0  0  0  0  0  0  0  0  0  0
   -7.6974   21.9479  -29.1416 H   0  0  0  0  0  0  0  0  0  0  0  0
   -9.1431   18.7813  -30.9996 H   0  0  0  0  0  0  0  0  0  0  0  0
   -9.0616   17.8229  -32.5518 H   0  0  0  0  0  0  0  0  0  0  0  0
   -6.6936   18.6159  -30.7941 H   0  0  0  0  0  0  0  0  0  0  0  0
   -7.4003   16.9818  -30.9420 H   0  0  0  0  0  0  0  0  0  0  0  0
   -5.6794   15.7278  -32.1146 H   0  0  0  0  0  0  0  0  0  0  0  0
   -4.4250   15.3677  -34.2441 H   0  0  0  0  0  0  0  0  0  0  0  0
   -4.4218   17.1333  -36.0095 H   0  0  0  0  0  0  0  0  0  0  0  0
   -5.6368   19.2837  -35.6313 H   0  0  0  0  0  0  0  0  0  0  0  0
   -6.4447   20.6077  -32.7633 H   0  0  0  0  0  0  0  0  0  0  0  0
   -7.3162   20.4674  -34.3591 H   0  0  0  0  0  0  0  0  0  0  0  0
   -6.6242   22.3120  -33.3180 H   0  0  0  0  0  0  0  0  0  0  0  0
   -4.6618   23.7190  -32.6926 H   0  0  0  0  0  0  0  0  0  0  0  0
  1  2  2  0
  2  3  1  0
  3  4  1  0
  4  5  2  0
  5  6  1  0
  6  7  2  0
  7  8  1  0
  8  9  2  0
  8 10  2  0
  8 11  1  0
 11 12  1  0
 12 13  1  0
 13 14  1  0
 14 15  1  0
 15 16  1  0
  7 17  1  0
 17 18  2  0
  2 19  1  0
 19 20  2  0
 20 21  1  0
 21 22  2  0
 22 23  1  0
 23 24  2  0
 23 25  2  0
 23 26  1  0
 26 27  1  0
 27 28  1  0
 28 29  1  0
 29 30  2  0
 30 31  1  0
 31 32  2  0
 32 33  1  0
 33 34  2  0
 34 35  1  0
 22 36  1  0
 36 37  2  0
 18  4  1  0
 37 19  1  0
 16 11  1  0
 35 26  1  0
 34 29  1  0
  5 38  1  0
  6 39  1  0
 11 40  1  0
 12 41  1  0
 12 42  1  0
 13 43  1  0
 13 44  1  0
 15 45  1  0
 15 46  1  0
 16 47  1  0
 16 48  1  0
 17 49  1  0
 18 50  1  0
 20 51  1  0
 21 52  1  0
 27 53  1  0
 27 54  1  0
 28 55  1  0
 28 56  1  0
 30 57  1  0
 31 58  1  0
 32 59  1  0
 33 60  1  0
 35 61  1  0
 35 62  1  0
 36 63  1  0
 37 64  1  0
M  CHG  2   3  -1  11   1
M  END
>  <UniqueID>  (46) 
46

>  <SMILES>  (46) 
O=C([N-]c1ccc(S(=O)(=O)[NH+]2CCOCC2)cc1)c1ccc(S(=O)(=O)N2CCc3ccccc3C2)cc1

>  <Energy>  (46) 
90.46180619014164

>  <Genealogy>  (46) 
O=C([N-]c1ccc(S(=O)(=O)[NH+]2CCOCC2)cc1)c1ccc(S(=O)(=O)N2CCc3ccccc3C2)cc1 (protonated)
O=C([N-]c1ccc(S(=O)(=O)[NH+]2CCOCC2)cc1)c1ccc(S(=O)(=O)N2CCc3ccccc3C2)cc1 (3D coordinates assigned)
O=C([N-]c1ccc(S(=O)(=O)[NH+]2CCOCC2)cc1)c1ccc(S(=O)(=O)N2CCc3ccccc3C2)cc1 (nonaromatic ring conformer: 90.46180619014164 kcal/mol)

>  <smiles>  (46) 
O=C(Nc1ccc(S(=O)(=O)N2CCOCC2)cc1)c1ccc(S(=O)(=O)N2CCc3ccccc3C2)cc1

>  <score_type>  (46) 
oracle

>  <origin>  (46) 
adgpu

>  <m_score__min__energy>  (46) 
-13.77

>  <m_primary>  (46) 
energy

$$$$
46:0
     RDKit          3D

 55 58  0  0  0  0  0  0  0  0999 V2000
   -2.5200   24.6800  -28.1210 C   0  0  0  0  0  0  0  0  0  0  0  0
   -2.7440   24.9290  -29.5040 O   0  0  0  0  0  0  0  0  0  0  0  0
   -3.8810   24.5110  -30.2140 C   0  0  0  0  0  0  0  0  0  0  0  0
   -4.9560   25.3810  -30.4750 C   0  0  0  0  0  0  0  0  0  0  0  0
   -6.0660   24.9400  -31.1970 C   0  0  0  0  0  0  0  0  0  0  0  0
   -6.1340   23.6160  -31.6630 C   0  0  0  0  0  0  0  0  0  0  0  0
   -7.2790   23.1230  -32.3820 N   0  0  0  0  0  0  0  0  0  0  0  0
   -8.3590   21.9200  -31.7520 S   0  0  0  0  0  0  0  0  0  0  0  0
   -8.4520   22.0750  -30.2610 O   0  0  0  0  0  0  0  0  0  0  0  0
   -9.7250   22.1150  -32.3490 O   0  0  0  0  0  0  0  0  0  0  0  0
   -7.7770   20.3160  -32.1840 C   0  0  0  0  0  0  0  0  0  0  0  0
   -8.3820   19.1680  -31.6560 C   0  0  0  0  0  0  0  0  0  0  0  0
   -7.8770   17.9020  -31.9600 C   0  0  0  0  0  0  0  0  0  0  0  0
   -6.7590   17.7620  -32.8020 C   0  0  0  0  0  0  0  0  0  0  0  0
   -6.2120   16.4170  -33.1150 C   0  0  0  0  0  0  0  0  0  0  0  0
   -5.0630   15.9400  -32.4530 C   0  0  0  0  0  0  0  0  0  0  0  0
   -4.5500   14.6730  -32.7470 C   0  0  0  0  0  0  0  0  0  0  0  0
   -5.1750   13.8680  -33.7010 C   0  0  0  0  0  0  0  0  0  0  0  0
   -6.3170   14.3280  -34.3640 C   0  0  0  0  0  0  0  0  0  0  0  0
   -6.8340   15.5940  -34.0740 C   0  0  0  0  0  0  0  0  0  0  0  0
   -6.1630   18.9210  -33.3390 C   0  0  0  0  0  0  0  0  0  0  0  0
   -6.6700   20.1860  -33.0310 C   0  0  0  0  0  0  0  0  0  0  0  0
   -5.0560   22.7530  -31.4160 C   0  0  0  0  0  0  0  0  0  0  0  0
   -3.9370   23.1880  -30.6920 C   0  0  0  0  0  0  0  0  0  0  0  0
   -2.8540   22.2750  -30.4500 N   0  0  0  0  0  0  0  0  0  0  0  0
   -2.0430   21.7750  -31.5650 C   0  0  0  0  0  0  0  0  0  0  0  0
   -0.5560   21.6500  -31.1660 C   0  0  0  0  0  0  0  0  0  0  0  0
   -0.3280   21.4360  -29.7230 N   0  0  0  0  0  0  0  0  0  0  0  0
   -1.4640   20.7880  -29.0580 C   0  0  0  0  0  0  0  0  0  0  0  0
   -2.6950   21.6990  -29.1110 C   0  0  0  0  0  0  0  0  0  0  0  0
   -3.1364   25.3652  -27.5205 H   0  0  0  0  0  0  0  0  0  0  0  0
   -2.7929   23.6405  -27.8867 H   0  0  0  0  0  0  0  0  0  0  0  0
   -1.4575   24.8418  -27.8867 H   0  0  0  0  0  0  0  0  0  0  0  0
   -4.9211   26.4170  -30.1070 H   0  0  0  0  0  0  0  0  0  0  0  0
   -6.8941   25.6342  -31.4029 H   0  0  0  0  0  0  0  0  0  0  0  0
   -7.4070   23.3980  -33.3820 H   0  0  0  0  0  0  0  0  0  0  0  0
   -9.2589   19.2643  -30.9989 H   0  0  0  0  0  0  0  0  0  0  0  0
   -8.3574   17.0071  -31.5376 H   0  0  0  0  0  0  0  0  0  0  0  0
   -4.5662   16.5689  -31.6996 H   0  0  0  0  0  0  0  0  0  0  0  0
   -3.6521   14.3098  -32.2255 H   0  0  0  0  0  0  0  0  0  0  0  0
   -4.7691   12.8719  -33.9312 H   0  0  0  0  0  0  0  0  0  0  0  0
   -6.8093   13.6926  -35.1149 H   0  0  0  0  0  0  0  0  0  0  0  0
   -7.7330   15.9500  -34.5985 H   0  0  0  0  0  0  0  0  0  0  0  0
   -5.2926   18.8289  -34.0053 H   0  0  0  0  0  0  0  0  0  0  0  0
   -6.1972   21.0837  -33.4559 H   0  0  0  0  0  0  0  0  0  0  0  0
   -5.0891   21.7211  -31.7955 H   0  0  0  0  0  0  0  0  0  0  0  0
   -2.4178   20.7853  -31.8651 H   0  0  0  0  0  0  0  0  0  0  0  0
   -2.1200   22.4894  -32.3979 H   0  0  0  0  0  0  0  0  0  0  0  0
   -0.1234   20.7991  -31.7126 H   0  0  0  0  0  0  0  0  0  0  0  0
   -0.0809   22.6090  -31.4202 H   0  0  0  0  0  0  0  0  0  0  0  0
   -0.1610   22.3630  -29.2640 H   0  0  0  0  0  0  0  0  0  0  0  0
   -1.6910   19.8397  -29.5672 H   0  0  0  0  0  0  0  0  0  0  0  0
   -1.2037   20.5955  -28.0067 H   0  0  0  0  0  0  0  0  0  0  0  0
   -3.5907   21.1111  -28.8617 H   0  0  0  0  0  0  0  0  0  0  0  0
   -2.5624   22.5164  -28.3870 H   0  0  0  0  0  0  0  0  0  0  0  0
  1  2  1  0
  2  3  1  0
  3  4  2  0
  4  5  1  0
  5  6  2  0
  6  7  1  0
  7  8  1  0
  8  9  2  0
  8 10  2  0
  8 11  1  0
 11 12  2  0
 12 13  1  0
 13 14  2  0
 14 15  1  0
 15 16  2  0
 16 17  1  0
 17 18  2  0
 18 19  1  0
 19 20  2  0
 14 21  1  0
 21 22  2  0
  6 23  1  0
 23 24  2  0
 24 25  1  0
 25 26  1  0
 26 27  1  0
 27 28  1  0
 28 29  1  0
 29 30  1  0
 24  3  1  0
 30 25  1  0
 22 11  1  0
 20 15  1  0
  1 31  1  0
  1 32  1  0
  1 33  1  0
  4 34  1  0
  5 35  1  0
  7 36  1  0
 12 37  1  0
 13 38  1  0
 16 39  1  0
 17 40  1  0
 18 41  1  0
 19 42  1  0
 20 43  1  0
 21 44  1  0
 22 45  1  0
 23 46  1  0
 26 47  1  0
 26 48  1  0
 27 49  1  0
 27 50  1  0
 28 51  1  0
 29 52  1  0
 29 53  1  0
 30 54  1  0
 30 55  1  0
M  END
>  <UniqueID>  (47) 
47

>  <SMILES>  (47) 
COc1ccc(NS(=O)(=O)c2ccc(-c3ccccc3)cc2)cc1N1CCNCC1

>  <Energy>  (47) 
74.63288828310155

>  <Genealogy>  (47) 
COc1ccc(NS(=O)(=O)c2ccc(-c3ccccc3)cc2)cc1N1CCNCC1 (3D coordinates assigned)
COc1ccc(NS(=O)(=O)c2ccc(-c3ccccc3)cc2)cc1N1CCNCC1 (nonaromatic ring conformer: 74.63288828310155 kcal/mol)

>  <smiles>  (47) 
COc1ccc(NS(=O)(=O)c2ccc(-c3ccccc3)cc2)cc1N1CCNCC1

>  <score_type>  (47) 
oracle

>  <origin>  (47) 
adgpu

>  <m_score__min__energy>  (47) 
-11.199999999999999

>  <m_primary>  (47) 
energy

$$$$
47:0
     RDKit          3D

 53 55  0  0  0  0  0  0  0  0999 V2000
   -6.9680   23.1920  -32.5370 N   0  0  0  0  0  0  0  0  0  0  0  0
   -8.1040   22.3940  -32.2080 C   0  0  0  0  0  0  0  0  0  0  0  0
   -9.1950   22.9630  -31.9330 O   0  0  0  0  0  0  0  0  0  0  0  0
   -8.0070   20.9150  -32.1910 C   0  0  0  0  0  0  0  0  0  0  0  0
   -8.7350   20.1590  -31.2550 C   0  0  0  0  0  0  0  0  0  0  0  0
   -8.6430   18.7650  -31.2460 C   0  0  0  0  0  0  0  0  0  0  0  0
   -7.8190   18.1090  -32.1640 C   0  0  0  0  0  0  0  0  0  0  0  0
   -7.0760   18.8460  -33.0950 C   0  0  0  0  0  0  0  0  0  0  0  0
   -6.0260   18.0200  -34.2500 S   0  0  0  0  0  0  0  0  0  0  0  0
   -6.5330   16.6190  -34.4470 O   0  0  0  0  0  0  0  0  0  0  0  0
   -6.1060   18.7230  -35.5760 O   0  0  0  0  0  0  0  0  0  0  0  0
   -4.3550   17.9820  -33.7160 N   0  0  0  0  0  0  0  0  0  0  0  0
   -3.6760   19.2720  -33.9720 C   0  0  0  0  0  0  0  0  0  0  0  0
   -2.5760   19.5240  -32.9300 C   0  0  0  0  0  0  0  0  0  0  0  0
   -2.8820   20.7410  -32.0940 C   0  0  0  0  0  0  0  0  0  0  0  0
   -1.9750   21.1710  -31.1130 C   0  0  0  0  0  0  0  0  0  0  0  0
   -2.2110   22.3510  -30.4030 C   0  0  0  0  0  0  0  0  0  0  0  0
   -3.3510   23.1190  -30.6710 C   0  0  0  0  0  0  0  0  0  0  0  0
   -3.6040   24.6380  -29.8170 S   0  0  0  0  0  0  0  0  0  0  0  0
   -2.0840   25.2390  -29.2560 N   0  0  0  0  0  0  0  0  0  0  0  0
   -4.2340   25.6480  -30.7350 O   0  0  0  0  0  0  0  0  0  0  0  0
   -4.5180   24.4120  -28.6470 O   0  0  0  0  0  0  0  0  0  0  0  0
   -4.2570   22.6950  -31.6530 C   0  0  0  0  0  0  0  0  0  0  0  0
   -4.0240   21.5120  -32.3600 C   0  0  0  0  0  0  0  0  0  0  0  0
   -3.6250   16.8440  -34.3110 C   0  0  0  0  0  0  0  0  0  0  0  0
   -3.6940   15.6370  -33.4140 C   0  0  0  0  0  0  0  0  0  0  0  0
   -4.6890   15.5520  -32.4250 C   0  0  0  0  0  0  0  0  0  0  0  0
   -4.7510   14.4380  -31.5820 C   0  0  0  0  0  0  0  0  0  0  0  0
   -3.8140   13.4090  -31.7100 C   0  0  0  0  0  0  0  0  0  0  0  0
   -2.8080   13.4970  -32.6760 C   0  0  0  0  0  0  0  0  0  0  0  0
   -2.7410   14.6100  -33.5210 C   0  0  0  0  0  0  0  0  0  0  0  0
   -7.1830   20.2450  -33.1140 C   0  0  0  0  0  0  0  0  0  0  0  0
   -6.8590   23.6020  -33.4910 H   0  0  0  0  0  0  0  0  0  0  0  0
   -9.3812   20.6686  -30.5251 H   0  0  0  0  0  0  0  0  0  0  0  0
   -9.2211   18.1821  -30.5139 H   0  0  0  0  0  0  0  0  0  0  0  0
   -7.7536   17.0110  -32.1556 H   0  0  0  0  0  0  0  0  0  0  0  0
   -3.2247   19.2495  -34.9749 H   0  0  0  0  0  0  0  0  0  0  0  0
   -4.4181   20.0812  -33.9049 H   0  0  0  0  0  0  0  0  0  0  0  0
   -2.4989   18.6467  -32.2710 H   0  0  0  0  0  0  0  0  0  0  0  0
   -1.6280   19.6966  -33.4606 H   0  0  0  0  0  0  0  0  0  0  0  0
   -1.0741   20.5762  -30.9021 H   0  0  0  0  0  0  0  0  0  0  0  0
   -1.4989   22.6779  -29.6309 H   0  0  0  0  0  0  0  0  0  0  0  0
   -1.6060   25.6740  -30.0770 H   0  0  0  0  0  0  0  0  0  0  0  0
   -5.1537   23.2949  -31.8678 H   0  0  0  0  0  0  0  0  0  0  0  0
   -4.7392   21.1838  -33.1286 H   0  0  0  0  0  0  0  0  0  0  0  0
   -4.0743   16.5964  -35.2840 H   0  0  0  0  0  0  0  0  0  0  0  0
   -2.5702   17.1292  -34.4379 H   0  0  0  0  0  0  0  0  0  0  0  0
   -5.4217   16.3648  -32.3137 H   0  0  0  0  0  0  0  0  0  0  0  0
   -5.5385   14.3715  -30.8169 H   0  0  0  0  0  0  0  0  0  0  0  0
   -3.8683   12.5302  -31.0506 H   0  0  0  0  0  0  0  0  0  0  0  0
   -2.0673   12.6895  -32.7722 H   0  0  0  0  0  0  0  0  0  0  0  0
   -1.9399   14.6813  -34.2714 H   0  0  0  0  0  0  0  0  0  0  0  0
   -6.6167   20.8240  -33.8583 H   0  0  0  0  0  0  0  0  0  0  0  0
  1  2  1  0
  2  3  2  0
  2  4  1  0
  4  5  2  0
  5  6  1  0
  6  7  2  0
  7  8  1  0
  8  9  1  0
  9 10  2  0
  9 11  2  0
  9 12  1  0
 12 13  1  0
 13 14  1  0
 14 15  1  0
 15 16  2  0
 16 17  1  0
 17 18  2  0
 18 19  1  0
 19 20  1  0
 19 21  2  0
 19 22  2  0
 18 23  1  0
 23 24  2  0
 12 25  1  0
 25 26  1  0
 26 27  2  0
 27 28  1  0
 28 29  2  0
 29 30  1  0
 30 31  2  0
  8 32  2  0
 32  4  1  0
 24 15  1  0
 31 26  1  0
  1 33  1  0
  5 34  1  0
  6 35  1  0
  7 36  1  0
 13 37  1  0
 13 38  1  0
 14 39  1  0
 14 40  1  0
 16 41  1  0
 17 42  1  0
 20 43  1  0
 23 44  1  0
 24 45  1  0
 25 46  1  0
 25 47  1  0
 27 48  1  0
 28 49  1  0
 29 50  1  0
 30 51  1  0
 31 52  1  0
 32 53  1  0
M  CHG  2   1  -1  20  -1
M  END
>  <UniqueID>  (48) 
48

>  <SMILES>  (48) 
[NH-]C(=O)c1cccc(S(=O)(=O)N(CCc2ccc(S([NH-])(=O)=O)cc2)Cc2ccccc2)c1

>  <Energy>  (48) 
51.776407135598355

>  <Genealogy>  (48) 
[NH-]C(=O)c1cccc(S(=O)(=O)N(CCc2ccc(S([NH-])(=O)=O)cc2)Cc2ccccc2)c1 (protonated)
[NH-]C(=O)c1cccc(S(=O)(=O)N(CCc2ccc(S([NH-])(=O)=O)cc2)Cc2ccccc2)c1 (3D coordinates assigned)
[NH-]C(=O)c1cccc(S(=O)(=O)N(CCc2ccc(S([NH-])(=O)=O)cc2)Cc2ccccc2)c1 (optimized conformer: 51.776407135598355 kcal/mol)

>  <smiles>  (48) 
NC(=O)c1cccc(S(=O)(=O)N(CCc2ccc(S(N)(=O)=O)cc2)Cc2ccccc2)c1

>  <score_type>  (48) 
oracle

>  <origin>  (48) 
adgpu

>  <m_score__min__energy>  (48) 
-13.75

>  <m_primary>  (48) 
energy

$$$$
48:0
     RDKit          3D

 47 49  0  0  0  0  0  0  0  0999 V2000
   -5.6340   11.8390  -35.9510 C   0  0  0  0  0  0  0  0  0  0  0  0
   -6.5440   12.2870  -34.8020 C   0  0  0  0  0  0  0  0  0  0  0  0
   -7.6070   13.2970  -35.2550 C   0  0  0  0  0  0  0  0  0  0  0  0
   -5.7130   12.6860  -33.5810 C   0  0  0  0  0  0  0  0  0  0  0  0
   -5.9590   11.9380  -32.4080 C   0  0  0  0  0  0  0  0  0  0  0  0
   -5.2930   12.2130  -31.2160 C   0  0  0  0  0  0  0  0  0  0  0  0
   -4.3670   13.2460  -31.1630 C   0  0  0  0  0  0  0  0  0  0  0  0
   -4.0840   13.9880  -32.3070 C   0  0  0  0  0  0  0  0  0  0  0  0
   -4.7030   13.7020  -33.5360 C   0  0  0  0  0  0  0  0  0  0  0  0
   -4.2250   14.7550  -34.9360 S   0  0  0  0  0  0  0  0  0  0  0  0
   -4.3760   16.3360  -34.0730 C   0  0  0  0  0  0  0  0  0  0  0  0
   -5.6490   16.8750  -33.8240 C   0  0  0  0  0  0  0  0  0  0  0  0
   -6.7950   16.1390  -34.0960 O   0  0  0  0  0  0  0  0  0  0  0  0
   -5.7790   18.1470  -33.2610 C   0  0  0  0  0  0  0  0  0  0  0  0
   -4.6430   18.8790  -32.8840 C   0  0  0  0  0  0  0  0  0  0  0  0
   -4.7750   20.2380  -32.3030 C   0  0  0  0  0  0  0  0  0  0  0  0
   -6.0090   20.9080  -32.3680 C   0  0  0  0  0  0  0  0  0  0  0  0
   -6.1520   22.1860  -31.8200 C   0  0  0  0  0  0  0  0  0  0  0  0
   -5.0620   22.8170  -31.2080 C   0  0  0  0  0  0  0  0  0  0  0  0
   -5.2440   24.4210  -30.5060 S   0  0  0  0  0  0  0  0  0  0  0  0
   -3.7650   25.2980  -30.6780 N   0  0  0  0  0  0  0  0  0  0  0  0
   -6.3520   25.1600  -31.2040 O   0  0  0  0  0  0  0  0  0  0  0  0
   -5.5880   24.3040  -29.0480 O   0  0  0  0  0  0  0  0  0  0  0  0
   -3.8300   22.1560  -31.1410 C   0  0  0  0  0  0  0  0  0  0  0  0
   -3.6820   20.8770  -31.6850 C   0  0  0  0  0  0  0  0  0  0  0  0
   -2.4630   20.2820  -31.6410 F   0  0  0  0  0  0  0  0  0  0  0  0
   -3.3770   18.2980  -33.0410 C   0  0  0  0  0  0  0  0  0  0  0  0
   -3.2390   17.0170  -33.5860 C   0  0  0  0  0  0  0  0  0  0  0  0
   -1.9710   16.4370  -33.5920 O   0  0  0  0  0  0  0  0  0  0  0  0
   -4.7188   11.3884  -35.5395 H   0  0  0  0  0  0  0  0  0  0  0  0
   -6.1618   11.0977  -36.5691 H   0  0  0  0  0  0  0  0  0  0  0  0
   -5.3684   12.7093  -36.5691 H   0  0  0  0  0  0  0  0  0  0  0  0
   -7.1497   11.4327  -34.4655 H   0  0  0  0  0  0  0  0  0  0  0  0
   -8.0829   13.7492  -34.3723 H   0  0  0  0  0  0  0  0  0  0  0  0
   -7.1314   14.0840  -35.8587 H   0  0  0  0  0  0  0  0  0  0  0  0
   -8.3687   12.7818  -35.8587 H   0  0  0  0  0  0  0  0  0  0  0  0
   -6.6934   11.1196  -32.4367 H   0  0  0  0  0  0  0  0  0  0  0  0
   -5.5004   11.6126  -30.3180 H   0  0  0  0  0  0  0  0  0  0  0  0
   -3.8565   13.4785  -30.2168 H   0  0  0  0  0  0  0  0  0  0  0  0
   -3.3611   14.8150  -32.2475 H   0  0  0  0  0  0  0  0  0  0  0  0
   -6.7800   18.5781  -33.1121 H   0  0  0  0  0  0  0  0  0  0  0  0
   -6.8686   20.4230  -32.8537 H   0  0  0  0  0  0  0  0  0  0  0  0
   -7.1244   22.6979  -31.8697 H   0  0  0  0  0  0  0  0  0  0  0  0
   -3.5180   25.6650  -29.7320 H   0  0  0  0  0  0  0  0  0  0  0  0
   -2.9725   22.6464  -30.6570 H   0  0  0  0  0  0  0  0  0  0  0  0
   -2.4810   18.8562  -32.7319 H   0  0  0  0  0  0  0  0  0  0  0  0
   -1.7270   15.6660  -34.2010 H   0  0  0  0  0  0  0  0  0  0  0  0
  1  2  1  0
  2  3  1  0
  2  4  1  0
  4  5  2  0
  5  6  1  0
  6  7  2  0
  7  8  1  0
  8  9  2  0
  9 10  1  0
 10 11  1  0
 11 12  2  0
 12 13  1  0
 12 14  1  0
 14 15  2  0
 15 16  1  0
 16 17  2  0
 17 18  1  0
 18 19  2  0
 19 20  1  0
 20 21  1  0
 20 22  2  0
 20 23  2  0
 19 24  1  0
 24 25  2  0
 25 26  1  0
 15 27  1  0
 27 28  2  0
 28 29  1  0
  9  4  1  0
 28 11  1  0
 25 16  1  0
  1 30  1  0
  1 31  1  0
  1 32  1  0
  2 33  1  0
  3 34  1  0
  3 35  1  0
  3 36  1  0
  5 37  1  0
  6 38  1  0
  7 39  1  0
  8 40  1  0
 14 41  1  0
 17 42  1  0
 18 43  1  0
 21 44  1  0
 24 45  1  0
 27 46  1  0
 29 47  1  0
M  CHG  2  13  -1  21  -1
M  END
>  <UniqueID>  (49) 
49

>  <SMILES>  (49) 
CC(C)c1ccccc1Sc1c([O-])cc(-c2ccc(S([NH-])(=O)=O)cc2F)cc1O

>  <Energy>  (49) 
62.688423881290035

>  <Genealogy>  (49) 
CC(C)c1ccccc1Sc1c([O-])cc(-c2ccc(S([NH-])(=O)=O)cc2F)cc1O (protonated)
CC(C)c1ccccc1Sc1c([O-])cc(-c2ccc(S([NH-])(=O)=O)cc2F)cc1O (3D coordinates assigned)
CC(C)c1ccccc1Sc1c([O-])cc(-c2ccc(S([NH-])(=O)=O)cc2F)cc1O (optimized conformer: 62.688423881290035 kcal/mol)

>  <smiles>  (49) 
CC(C)c1ccccc1Sc1c(O)cc(-c2ccc(S(N)(=O)=O)cc2F)cc1O

>  <score_type>  (49) 
oracle

>  <origin>  (49) 
adgpu

>  <m_score__min__energy>  (49) 
-10.69

>  <m_primary>  (49) 
energy

$$$$
49:0
     RDKit          3D

 50 53  0  0  0  0  0  0  0  0999 V2000
   -4.5480   17.2070  -35.6820 O   0  0  0  0  0  0  0  0  0  0  0  0
   -4.2560   17.7790  -34.5970 C   0  0  0  0  0  0  0  0  0  0  0  0
   -2.8840   17.8950  -34.2020 N   0  0  0  0  0  0  0  0  0  0  0  0
   -2.1580   19.1590  -34.1450 C   0  0  0  0  0  0  0  0  0  0  0  0
   -2.7690   20.0730  -33.1180 C   0  0  0  0  0  0  0  0  0  0  0  0
   -3.5170   21.1950  -33.5160 C   0  0  0  0  0  0  0  0  0  0  0  0
   -4.1000   22.0310  -32.5590 C   0  0  0  0  0  0  0  0  0  0  0  0
   -3.9430   21.7530  -31.1980 C   0  0  0  0  0  0  0  0  0  0  0  0
   -3.2020   20.6360  -30.7940 C   0  0  0  0  0  0  0  0  0  0  0  0
   -2.6200   19.7960  -31.7480 C   0  0  0  0  0  0  0  0  0  0  0  0
   -5.3290   18.3250  -33.7350 C   0  0  0  0  0  0  0  0  0  0  0  0
   -5.5800   17.7720  -32.4670 C   0  0  0  0  0  0  0  0  0  0  0  0
   -6.6010   18.2820  -31.6610 C   0  0  0  0  0  0  0  0  0  0  0  0
   -7.3870   19.3560  -32.1040 C   0  0  0  0  0  0  0  0  0  0  0  0
   -8.4750   19.9200  -31.2320 C   0  0  0  0  0  0  0  0  0  0  0  0
   -9.2970   21.3310  -32.0530 S   0  0  0  0  0  0  0  0  0  0  0  0
   -8.0190   22.5150  -31.6400 C   0  0  0  0  0  0  0  0  0  0  0  0
   -7.1950   23.0840  -32.5450 N   0  0  0  0  0  0  0  0  0  0  0  0
   -6.4370   23.9020  -31.8390 N   0  0  0  0  0  0  0  0  0  0  0  0
   -6.7940   23.8240  -30.5640 N   0  0  0  0  0  0  0  0  0  0  0  0
   -6.1870   24.6010  -29.4920 C   0  0  0  0  0  0  0  0  0  0  0  0
   -4.7930   24.1030  -29.2180 C   0  0  0  0  0  0  0  0  0  0  0  0
   -4.5880   23.1130  -28.2400 C   0  0  0  0  0  0  0  0  0  0  0  0
   -3.2950   22.6720  -27.9400 C   0  0  0  0  0  0  0  0  0  0  0  0
   -2.1950   23.2230  -28.6070 C   0  0  0  0  0  0  0  0  0  0  0  0
   -2.3870   24.2160  -29.5730 C   0  0  0  0  0  0  0  0  0  0  0  0
   -3.6800   24.6640  -29.8750 C   0  0  0  0  0  0  0  0  0  0  0  0
   -3.8460   25.6660  -30.8240 O   0  0  0  0  0  0  0  0  0  0  0  0
   -7.7860   22.9680  -30.3960 N   0  0  0  0  0  0  0  0  0  0  0  0
   -7.1280   19.9210  -33.3610 C   0  0  0  0  0  0  0  0  0  0  0  0
   -6.1140   19.4060  -34.1730 C   0  0  0  0  0  0  0  0  0  0  0  0
   -1.1096   18.9623  -33.8762 H   0  0  0  0  0  0  0  0  0  0  0  0
   -2.2127   19.6449  -35.1304 H   0  0  0  0  0  0  0  0  0  0  0  0
   -3.6442   21.4162  -34.5860 H   0  0  0  0  0  0  0  0  0  0  0  0
   -4.6826   22.9081  -32.8772 H   0  0  0  0  0  0  0  0  0  0  0  0
   -4.4012   22.4113  -30.4452 H   0  0  0  0  0  0  0  0  0  0  0  0
   -3.0774   20.4187  -29.7229 H   0  0  0  0  0  0  0  0  0  0  0  0
   -2.0440   18.9160  -31.4257 H   0  0  0  0  0  0  0  0  0  0  0  0
   -4.9682   16.9318  -32.1069 H   0  0  0  0  0  0  0  0  0  0  0  0
   -6.7897   17.8383  -30.6723 H   0  0  0  0  0  0  0  0  0  0  0  0
   -9.2196   19.1356  -31.0313 H   0  0  0  0  0  0  0  0  0  0  0  0
   -8.0267   20.2714  -30.2910 H   0  0  0  0  0  0  0  0  0  0  0  0
   -6.1435   25.6592  -29.7892 H   0  0  0  0  0  0  0  0  0  0  0  0
   -6.7937   24.4930  -28.5808 H   0  0  0  0  0  0  0  0  0  0  0  0
   -5.4495   22.6832  -27.7081 H   0  0  0  0  0  0  0  0  0  0  0  0
   -3.1427   21.8919  -27.1796 H   0  0  0  0  0  0  0  0  0  0  0  0
   -1.1785   22.8748  -28.3713 H   0  0  0  0  0  0  0  0  0  0  0  0
   -1.5209   24.6464  -30.0970 H   0  0  0  0  0  0  0  0  0  0  0  0
   -7.7269   20.7751  -33.7101 H   0  0  0  0  0  0  0  0  0  0  0  0
   -5.9286   19.8497  -35.1623 H   0  0  0  0  0  0  0  0  0  0  0  0
  1  2  2  0
  2  3  1  0
  3  4  1  0
  4  5  1  0
  5  6  2  0
  6  7  1  0
  7  8  2  0
  8  9  1  0
  9 10  2  0
  2 11  1  0
 11 12  2  0
 12 13  1  0
 13 14  2  0
 14 15  1  0
 15 16  1  0
 16 17  1  0
 17 18  1  0
 18 19  2  0
 19 20  1  0
 20 21  1  0
 21 22  1  0
 22 23  2  0
 23 24  1  0
 24 25  2  0
 25 26  1  0
 26 27  2  0
 27 28  1  0
 20 29  1  0
 14 30  1  0
 30 31  2  0
 10  5  1  0
 31 11  1  0
 29 17  2  0
 27 22  1  0
  4 32  1  0
  4 33  1  0
  6 34  1  0
  7 35  1  0
  8 36  1  0
  9 37  1  0
 10 38  1  0
 12 39  1  0
 13 40  1  0
 15 41  1  0
 15 42  1  0
 21 43  1  0
 21 44  1  0
 23 45  1  0
 24 46  1  0
 25 47  1  0
 26 48  1  0
 30 49  1  0
 31 50  1  0
M  CHG  2   3  -1  28  -1
M  END
>  <UniqueID>  (50) 
50

>  <SMILES>  (50) 
O=C([N-]Cc1ccccc1)c1ccc(CSc2nnn(Cc3ccccc3[O-])n2)cc1

>  <Energy>  (50) 
86.77673217295333

>  <Genealogy>  (50) 
O=C([N-]Cc1ccccc1)c1ccc(CSc2nnn(Cc3ccccc3[O-])n2)cc1 (protonated)
O=C([N-]Cc1ccccc1)c1ccc(CSc2nnn(Cc3ccccc3[O-])n2)cc1 (3D coordinates assigned)
O=C([N-]Cc1ccccc1)c1ccc(CSc2nnn(Cc3ccccc3[O-])n2)cc1 (optimized conformer: 86.77673217295333 kcal/mol)

>  <smiles>  (50) 
O=C(NCc1ccccc1)c1ccc(CSc2nnn(Cc3ccccc3O)n2)cc1

>  <score_type>  (50) 
oracle

>  <origin>  (50) 
adgpu

>  <m_score__min__energy>  (50) 
-13.32

>  <m_primary>  (50) 
energy

$$$$
