0:0
     RDKit          3D

 50 52  0  0  0  0  0  0  0  0999 V2000
   -8.1800   18.5960  -31.6790 C   0  0  0  0  0  0  0  0  0  0  0  0
   -8.6980   19.9060  -31.8850 O   0  0  0  0  0  0  0  0  0  0  0  0
   -7.9190   21.0730  -31.8970 C   0  0  0  0  0  0  0  0  0  0  0  0
   -6.5750   20.9720  -32.2750 C   0  0  0  0  0  0  0  0  0  0  0  0
   -5.7560   22.1060  -32.3020 C   0  0  0  0  0  0  0  0  0  0  0  0
   -6.2720   23.3600  -31.9290 C   0  0  0  0  0  0  0  0  0  0  0  0
   -5.4730   24.5500  -31.9650 N   0  0  0  0  0  0  0  0  0  0  0  0
   -5.0020   25.2900  -30.8340 C   0  0  0  0  0  0  0  0  0  0  0  0
   -5.8320   25.9200  -30.1260 O   0  0  0  0  0  0  0  0  0  0  0  0
   -3.6120   25.2920  -30.4870 N   0  0  0  0  0  0  0  0  0  0  0  0
   -3.0490   24.5130  -29.4240 C   0  0  0  0  0  0  0  0  0  0  0  0
   -3.7650   23.4090  -28.9660 C   0  0  0  0  0  0  0  0  0  0  0  0
   -3.2370   22.5880  -27.9770 C   0  0  0  0  0  0  0  0  0  0  0  0
   -1.9890   22.8660  -27.3980 C   0  0  0  0  0  0  0  0  0  0  0  0
   -1.4510   21.8850  -26.3880 C   0  0  0  0  0  0  0  0  0  0  0  0
   -1.2650   24.0180  -27.8190 C   0  0  0  0  0  0  0  0  0  0  0  0
    0.3110   24.4730  -27.1020 S   0  0  0  0  0  0  0  0  0  0  0  0
    0.9570   23.2940  -26.4300 O   0  0  0  0  0  0  0  0  0  0  0  0
    1.2390   24.9080  -28.2020 O   0  0  0  0  0  0  0  0  0  0  0  0
    0.1640   25.7740  -25.9410 N   0  0  0  0  0  0  0  0  0  0  0  0
   -0.8190   26.7710  -26.3850 C   0  0  0  0  0  0  0  0  0  0  0  0
   -0.8920   27.9270  -25.3630 C   0  0  0  0  0  0  0  0  0  0  0  0
   -0.1260   27.6630  -24.2010 O   0  0  0  0  0  0  0  0  0  0  0  0
   -0.5090   26.4200  -23.6450 C   0  0  0  0  0  0  0  0  0  0  0  0
   -0.2070   25.2580  -24.6140 C   0  0  0  0  0  0  0  0  0  0  0  0
   -1.8130   24.8440  -28.8290 C   0  0  0  0  0  0  0  0  0  0  0  0
   -1.1350   26.0050  -29.2100 O   0  0  0  0  0  0  0  0  0  0  0  0
   -7.6220   23.4660  -31.5740 C   0  0  0  0  0  0  0  0  0  0  0  0
   -8.4410   22.3320  -31.5490 C   0  0  0  0  0  0  0  0  0  0  0  0
   -8.1018   18.3982  -30.5998 H   0  0  0  0  0  0  0  0  0  0  0  0
   -8.8542   17.8586  -32.1390 H   0  0  0  0  0  0  0  0  0  0  0  0
   -7.1838   18.5191  -32.1390 H   0  0  0  0  0  0  0  0  0  0  0  0
   -6.1591   19.9924  -32.5533 H   0  0  0  0  0  0  0  0  0  0  0  0
   -4.7055   22.0165  -32.6158 H   0  0  0  0  0  0  0  0  0  0  0  0
   -4.7551   23.1858  -29.3902 H   0  0  0  0  0  0  0  0  0  0  0  0
   -3.8054   21.7074  -27.6430 H   0  0  0  0  0  0  0  0  0  0  0  0
   -1.6543   22.2557  -25.3725 H   0  0  0  0  0  0  0  0  0  0  0  0
   -1.9405   20.9098  -26.5272 H   0  0  0  0  0  0  0  0  0  0  0  0
   -0.3655   21.7736  -26.5272 H   0  0  0  0  0  0  0  0  0  0  0  0
   -0.5179   27.1690  -27.3653 H   0  0  0  0  0  0  0  0  0  0  0  0
   -1.8074   26.2950  -26.4653 H   0  0  0  0  0  0  0  0  0  0  0  0
   -0.5117   28.8437  -25.8373 H   0  0  0  0  0  0  0  0  0  0  0  0
   -1.9423   28.0410  -25.0565 H   0  0  0  0  0  0  0  0  0  0  0  0
    0.0457   26.2597  -22.7087 H   0  0  0  0  0  0  0  0  0  0  0  0
   -1.5923   26.4425  -23.4553 H   0  0  0  0  0  0  0  0  0  0  0  0
    0.6246   24.6598  -24.2132 H   0  0  0  0  0  0  0  0  0  0  0  0
   -1.1089   24.6363  -24.7145 H   0  0  0  0  0  0  0  0  0  0  0  0
   -1.2430   26.4370  -30.1180 H   0  0  0  0  0  0  0  0  0  0  0  0
   -8.0421   24.4485  -31.3127 H   0  0  0  0  0  0  0  0  0  0  0  0
   -9.4972   22.4253  -31.2561 H   0  0  0  0  0  0  0  0  0  0  0  0
  1  2  1  0
  2  3  1  0
  3  4  2  0
  4  5  1  0
  5  6  2  0
  6  7  1  0
  7  8  1  0
  8  9  2  0
  8 10  1  0
 10 11  1  0
 11 12  2  0
 12 13  1  0
 13 14  2  0
 14 15  1  0
 14 16  1  0
 16 17  1  0
 17 18  2  0
 17 19  2  0
 17 20  1  0
 20 21  1  0
 21 22  1  0
 22 23  1  0
 23 24  1  0
 24 25  1  0
 16 26  2  0
 26 27  1  0
  6 28  1  0
 28 29  2  0
 29  3  1  0
 26 11  1  0
 25 20  1  0
  1 30  1  0
  1 31  1  0
  1 32  1  0
  4 33  1  0
  5 34  1  0
 12 35  1  0
 13 36  1  0
 15 37  1  0
 15 38  1  0
 15 39  1  0
 21 40  1  0
 21 41  1  0
 22 42  1  0
 22 43  1  0
 24 44  1  0
 24 45  1  0
 25 46  1  0
 25 47  1  0
 27 48  1  0
 28 49  1  0
 29 50  1  0
M  CHG  2   7  -1  10  -1
M  END
>  <UniqueID>  (1) 
1

>  <SMILES>  (1) 
COc1ccc([N-]C(=O)[N-]c2ccc(C)c(S(=O)(=O)N3CCOCC3)c2O)cc1

>  <Energy>  (1) 
73.0702064459751

>  <Genealogy>  (1) 
COc1ccc([N-]C(=O)[N-]c2ccc(C)c(S(=O)(=O)N3CCOCC3)c2O)cc1 (protonated)
COc1ccc([N-]C(=O)[N-]c2ccc(C)c(S(=O)(=O)N3CCOCC3)c2O)cc1 (3D coordinates assigned)
COc1ccc([N-]C(=O)[N-]c2ccc(C)c(S(=O)(=O)N3CCOCC3)c2O)cc1 (nonaromatic ring conformer: 73.0702064459751 kcal/mol)

>  <smiles>  (1) 
COc1ccc(NC(=O)Nc2ccc(C)c(S(=O)(=O)N3CCOCC3)c2O)cc1

>  <score_type>  (1) 
oracle

>  <origin>  (1) 
adgpu

>  <m_score__min__energy>  (1) 
-12.710000000000001

>  <m_primary>  (1) 
energy

$$$$
1:0
     RDKit          3D

 48 50  0  0  0  0  0  0  0  0999 V2000
    0.2350   22.2580  -26.6020 C   0  0  0  0  0  0  0  0  0  0  0  0
   -1.1810   22.2200  -27.1140 C   0  0  0  0  0  0  0  0  0  0  0  0
   -1.8680   20.9970  -27.0520 C   0  0  0  0  0  0  0  0  0  0  0  0
   -3.1920   20.9030  -27.4620 C   0  0  0  0  0  0  0  0  0  0  0  0
   -3.8600   22.0300  -27.9270 C   0  0  0  0  0  0  0  0  0  0  0  0
   -3.2000   23.2640  -28.0280 C   0  0  0  0  0  0  0  0  0  0  0  0
   -3.9400   24.4230  -28.4470 N   0  0  0  0  0  0  0  0  0  0  0  0
   -4.8060   24.4860  -29.9480 S   0  0  0  0  0  0  0  0  0  0  0  0
   -4.0470   25.3380  -30.9250 O   0  0  0  0  0  0  0  0  0  0  0  0
   -6.1600   25.1010  -29.7250 O   0  0  0  0  0  0  0  0  0  0  0  0
   -4.9610   22.8630  -30.6180 C   0  0  0  0  0  0  0  0  0  0  0  0
   -3.8380   22.1770  -31.0960 C   0  0  0  0  0  0  0  0  0  0  0  0
   -3.9770   20.9060  -31.6600 C   0  0  0  0  0  0  0  0  0  0  0  0
   -5.2440   20.3000  -31.7540 C   0  0  0  0  0  0  0  0  0  0  0  0
   -5.3940   18.9530  -32.3590 C   0  0  0  0  0  0  0  0  0  0  0  0
   -4.2610   18.2150  -32.7490 C   0  0  0  0  0  0  0  0  0  0  0  0
   -4.4040   16.9460  -33.3180 C   0  0  0  0  0  0  0  0  0  0  0  0
   -5.6770   16.3970  -33.5120 C   0  0  0  0  0  0  0  0  0  0  0  0
   -5.8490   14.7920  -34.2170 S   0  0  0  0  0  0  0  0  0  0  0  0
   -4.5690   14.5180  -35.3440 N   0  0  0  0  0  0  0  0  0  0  0  0
   -7.1720   14.6870  -34.9210 O   0  0  0  0  0  0  0  0  0  0  0  0
   -5.7930   13.7500  -33.1370 O   0  0  0  0  0  0  0  0  0  0  0  0
   -6.8090   17.1230  -33.1210 C   0  0  0  0  0  0  0  0  0  0  0  0
   -6.6700   18.3920  -32.5490 C   0  0  0  0  0  0  0  0  0  0  0  0
   -6.3650   20.9940  -31.2650 C   0  0  0  0  0  0  0  0  0  0  0  0
   -6.2240   22.2650  -30.7020 C   0  0  0  0  0  0  0  0  0  0  0  0
   -1.8320   23.3630  -27.6580 C   0  0  0  0  0  0  0  0  0  0  0  0
   -0.9690   24.9080  -27.8950 S   0  0  0  0  0  0  0  0  0  0  0  0
   -1.5060   25.6730  -29.3490 N   0  0  0  0  0  0  0  0  0  0  0  0
   -1.2450   25.8110  -26.7260 O   0  0  0  0  0  0  0  0  0  0  0  0
    0.5140   24.7080  -28.0210 O   0  0  0  0  0  0  0  0  0  0  0  0
    0.2273   22.2578  -25.5020 H   0  0  0  0  0  0  0  0  0  0  0  0
    0.7800   21.3742  -26.9650 H   0  0  0  0  0  0  0  0  0  0  0  0
    0.7318   23.1698  -26.9650 H   0  0  0  0  0  0  0  0  0  0  0  0
   -1.3515   20.1023  -26.6741 H   0  0  0  0  0  0  0  0  0  0  0  0
   -3.7127   19.9350  -27.4186 H   0  0  0  0  0  0  0  0  0  0  0  0
   -4.9178   21.9534  -28.2190 H   0  0  0  0  0  0  0  0  0  0  0  0
   -3.9240   25.2900  -27.8650 H   0  0  0  0  0  0  0  0  0  0  0  0
   -2.8426   22.6402  -31.0273 H   0  0  0  0  0  0  0  0  0  0  0  0
   -3.0891   20.3748  -32.0335 H   0  0  0  0  0  0  0  0  0  0  0  0
   -3.2564   18.6393  -32.6052 H   0  0  0  0  0  0  0  0  0  0  0  0
   -3.5114   16.3759  -33.6149 H   0  0  0  0  0  0  0  0  0  0  0  0
   -4.2340   15.4550  -35.6600 H   0  0  0  0  0  0  0  0  0  0  0  0
   -7.8115   16.6936  -33.2643 H   0  0  0  0  0  0  0  0  0  0  0  0
   -7.5648   18.9552  -32.2456 H   0  0  0  0  0  0  0  0  0  0  0  0
   -7.3615   20.5323  -31.3262 H   0  0  0  0  0  0  0  0  0  0  0  0
   -7.1088   22.7978  -30.3233 H   0  0  0  0  0  0  0  0  0  0  0  0
   -2.5500   25.6230  -29.3480 H   0  0  0  0  0  0  0  0  0  0  0  0
  1  2  1  0
  2  3  2  0
  3  4  1  0
  4  5  2  0
  5  6  1  0
  6  7  1  0
  7  8  1  0
  8  9  2  0
  8 10  2  0
  8 11  1  0
 11 12  2  0
 12 13  1  0
 13 14  2  0
 14 15  1  0
 15 16  2  0
 16 17  1  0
 17 18  2  0
 18 19  1  0
 19 20  1  0
 19 21  2  0
 19 22  2  0
 18 23  1  0
 23 24  2  0
 14 25  1  0
 25 26  2  0
  6 27  2  0
 27 28  1  0
 28 29  1  0
 28 30  2  0
 28 31  2  0
 27  2  1  0
 26 11  1  0
 24 15  1  0
  1 32  1  0
  1 33  1  0
  1 34  1  0
  3 35  1  0
  4 36  1  0
  5 37  1  0
  7 38  1  0
 12 39  1  0
 13 40  1  0
 16 41  1  0
 17 42  1  0
 20 43  1  0
 23 44  1  0
 24 45  1  0
 25 46  1  0
 26 47  1  0
 29 48  1  0
M  CHG  2  20  -1  29  -1
M  END
>  <UniqueID>  (2) 
2

>  <SMILES>  (2) 
Cc1cccc(NS(=O)(=O)c2ccc(-c3ccc(S([NH-])(=O)=O)cc3)cc2)c1S([NH-])(=O)=O

>  <Energy>  (2) 
64.06233635852571

>  <Genealogy>  (2) 
Cc1cccc(NS(=O)(=O)c2ccc(-c3ccc(S([NH-])(=O)=O)cc3)cc2)c1S([NH-])(=O)=O (protonated)
Cc1cccc(NS(=O)(=O)c2ccc(-c3ccc(S([NH-])(=O)=O)cc3)cc2)c1S([NH-])(=O)=O (3D coordinates assigned)
Cc1cccc(NS(=O)(=O)c2ccc(-c3ccc(S([NH-])(=O)=O)cc3)cc2)c1S([NH-])(=O)=O (optimized conformer: 64.06233635852571 kcal/mol)

>  <smiles>  (2) 
Cc1cccc(NS(=O)(=O)c2ccc(-c3ccc(S(N)(=O)=O)cc3)cc2)c1S(N)(=O)=O

>  <score_type>  (2) 
oracle

>  <origin>  (2) 
adgpu

>  <m_score__min__energy>  (2) 
-12

>  <m_primary>  (2) 
energy

$$$$
2:0
     RDKit          3D

 38 40  0  0  0  0  0  0  0  0999 V2000
   -4.3160   19.0500  -33.6590 C   0  0  0  0  0  0  0  0  0  0  0  0
   -4.5930   20.3760  -33.0000 C   0  0  0  0  0  0  0  0  0  0  0  0
   -5.9380   20.7990  -32.9060 C   0  0  0  0  0  0  0  0  0  0  0  0
   -6.2170   22.0010  -32.2670 C   0  0  0  0  0  0  0  0  0  0  0  0
   -7.4270   22.5580  -32.0910 N   0  0  0  0  0  0  0  0  0  0  0  0
   -7.2150   23.7110  -31.4220 C   0  0  0  0  0  0  0  0  0  0  0  0
   -5.8570   23.8890  -31.1700 C   0  0  0  0  0  0  0  0  0  0  0  0
   -5.2630   25.0400  -30.4650 C   0  0  0  0  0  0  0  0  0  0  0  0
   -3.8670   25.3130  -30.5490 N   0  0  0  0  0  0  0  0  0  0  0  0
   -5.9980   25.7980  -29.7780 O   0  0  0  0  0  0  0  0  0  0  0  0
   -5.2300   22.7770  -31.7210 C   0  0  0  0  0  0  0  0  0  0  0  0
   -3.8920   22.3920  -31.7800 C   0  0  0  0  0  0  0  0  0  0  0  0
   -3.5550   21.1820  -32.4280 C   0  0  0  0  0  0  0  0  0  0  0  0
   -1.8330   20.7360  -32.4880 S   0  0  0  0  0  0  0  0  0  0  0  0
   -1.0600   21.7180  -31.6520 O   0  0  0  0  0  0  0  0  0  0  0  0
   -1.6170   19.3750  -31.8900 O   0  0  0  0  0  0  0  0  0  0  0  0
   -1.1850   20.7530  -34.1140 N   0  0  0  0  0  0  0  0  0  0  0  0
   -0.8400   19.4130  -34.5920 C   0  0  0  0  0  0  0  0  0  0  0  0
    0.2310   19.5940  -35.6600 C   0  0  0  0  0  0  0  0  0  0  0  0
    0.7770   21.0000  -35.4530 C   0  0  0  0  0  0  0  0  0  0  0  0
    0.0450   21.5380  -34.2320 C   0  0  0  0  0  0  0  0  0  0  0  0
   -4.1558   18.2831  -32.8868 H   0  0  0  0  0  0  0  0  0  0  0  0
   -5.1741   18.7656  -34.2857 H   0  0  0  0  0  0  0  0  0  0  0  0
   -3.4158   19.1330  -34.2857 H   0  0  0  0  0  0  0  0  0  0  0  0
   -6.7486   20.1885  -33.3305 H   0  0  0  0  0  0  0  0  0  0  0  0
   -8.3470   22.1780  -32.4060 H   0  0  0  0  0  0  0  0  0  0  0  0
   -8.0055   24.4129  -31.1179 H   0  0  0  0  0  0  0  0  0  0  0  0
   -3.4990   26.0250  -31.2190 H   0  0  0  0  0  0  0  0  0  0  0  0
   -3.1099   23.0204  -31.3290 H   0  0  0  0  0  0  0  0  0  0  0  0
   -1.9110   21.1620  -34.7490 H   0  0  0  0  0  0  0  0  0  0  0  0
   -0.4505   18.8031  -33.7635 H   0  0  0  0  0  0  0  0  0  0  0  0
   -1.7226   18.8976  -34.9987 H   0  0  0  0  0  0  0  0  0  0  0  0
    1.0300   18.8486  -35.5336 H   0  0  0  0  0  0  0  0  0  0  0  0
   -0.1755   19.4587  -36.6731 H   0  0  0  0  0  0  0  0  0  0  0  0
    1.8612   20.9694  -35.2700 H   0  0  0  0  0  0  0  0  0  0  0  0
    0.6218   21.6351  -36.3376 H   0  0  0  0  0  0  0  0  0  0  0  0
    0.6641   21.4144  -33.3312 H   0  0  0  0  0  0  0  0  0  0  0  0
   -0.1730   22.6111  -34.3361 H   0  0  0  0  0  0  0  0  0  0  0  0
  1  2  1  0
  2  3  2  0
  3  4  1  0
  4  5  1  0
  5  6  1  0
  6  7  2  0
  7  8  1  0
  8  9  1  0
  8 10  2  0
  7 11  1  0
 11 12  1  0
 12 13  2  0
 13 14  1  0
 14 15  2  0
 14 16  2  0
 14 17  1  0
 17 18  1  0
 18 19  1  0
 19 20  1  0
 20 21  1  0
 13  2  1  0
 21 17  1  0
 11  4  2  0
  1 22  1  0
  1 23  1  0
  1 24  1  0
  3 25  1  0
  5 26  1  0
  6 27  1  0
  9 28  1  0
 12 29  1  0
 17 30  1  0
 18 31  1  0
 18 32  1  0
 19 33  1  0
 19 34  1  0
 20 35  1  0
 20 36  1  0
 21 37  1  0
 21 38  1  0
M  CHG  2   9  -1  17   1
M  END
>  <UniqueID>  (3) 
3

>  <SMILES>  (3) 
Cc1cc2[nH]cc(C([NH-])=O)c2cc1S(=O)(=O)[NH+]1CCCC1

>  <Energy>  (3) 
75.84797246378281

>  <Genealogy>  (3) 
Cc1cc2[nH]cc(C([NH-])=O)c2cc1S(=O)(=O)[NH+]1CCCC1 (protonated)
Cc1cc2[nH]cc(C([NH-])=O)c2cc1S(=O)(=O)[NH+]1CCCC1 (3D coordinates assigned)
Cc1cc2[nH]cc(C([NH-])=O)c2cc1S(=O)(=O)[NH+]1CCCC1 (nonaromatic ring conformer: 75.84797246378281 kcal/mol)

>  <smiles>  (3) 
Cc1cc2[nH]cc(C(N)=O)c2cc1S(=O)(=O)N1CCCC1

>  <score_type>  (3) 
oracle

>  <origin>  (3) 
adgpu

>  <m_score__min__energy>  (3) 
-9.8599999999999994

>  <m_primary>  (3) 
energy

$$$$
3:0
     RDKit          3D

 56 59  0  0  0  0  0  0  0  0999 V2000
   -4.6710   22.8890  -29.7490 C   0  0  0  0  0  0  0  0  0  0  0  0
   -4.3910   21.6020  -30.2870 O   0  0  0  0  0  0  0  0  0  0  0  0
   -3.3630   21.3300  -31.2030 C   0  0  0  0  0  0  0  0  0  0  0  0
   -2.2040   20.6170  -30.8400 C   0  0  0  0  0  0  0  0  0  0  0  0
   -1.1950   20.3850  -31.7790 C   0  0  0  0  0  0  0  0  0  0  0  0
   -1.3330   20.8470  -33.0930 C   0  0  0  0  0  0  0  0  0  0  0  0
   -0.0390   20.5590  -34.2520 S   0  0  0  0  0  0  0  0  0  0  0  0
    1.1420   21.4430  -33.9750 O   0  0  0  0  0  0  0  0  0  0  0  0
   -0.5470   20.8660  -35.6330 O   0  0  0  0  0  0  0  0  0  0  0  0
    0.4400   18.8950  -34.1830 N   0  0  0  0  0  0  0  0  0  0  0  0
   -0.3380   17.7820  -34.6440 C   0  0  0  0  0  0  0  0  0  0  0  0
    0.1940   16.7980  -35.4950 C   0  0  0  0  0  0  0  0  0  0  0  0
   -0.6030   15.7330  -35.9190 C   0  0  0  0  0  0  0  0  0  0  0  0
   -1.9290   15.6340  -35.4960 C   0  0  0  0  0  0  0  0  0  0  0  0
   -2.4770   16.6080  -34.6490 C   0  0  0  0  0  0  0  0  0  0  0  0
   -3.8750   16.4750  -34.1750 C   0  0  0  0  0  0  0  0  0  0  0  0
   -4.4890   15.3920  -34.3800 O   0  0  0  0  0  0  0  0  0  0  0  0
   -4.5470   17.5400  -33.4740 N   0  0  0  0  0  0  0  0  0  0  0  0
   -5.5060   17.1980  -32.4160 C   0  0  0  0  0  0  0  0  0  0  0  0
   -6.0160   18.4470  -31.6850 C   0  0  0  0  0  0  0  0  0  0  0  0
   -6.4480   19.4720  -32.6480 N   0  0  0  0  0  0  0  0  0  0  0  0
   -7.5010   20.3920  -32.2800 C   0  0  0  0  0  0  0  0  0  0  0  0
   -8.8540   20.0110  -32.3290 C   0  0  0  0  0  0  0  0  0  0  0  0
   -9.8440   20.9390  -31.9950 C   0  0  0  0  0  0  0  0  0  0  0  0
   -9.4870   22.2320  -31.6130 C   0  0  0  0  0  0  0  0  0  0  0  0
   -8.1370   22.5780  -31.5620 C   0  0  0  0  0  0  0  0  0  0  0  0
   -7.1870   21.6620  -31.8920 N   0  0  0  0  0  0  0  0  0  0  0  0
   -5.6770   19.6860  -33.8870 C   0  0  0  0  0  0  0  0  0  0  0  0
   -4.3390   18.9430  -33.8550 C   0  0  0  0  0  0  0  0  0  0  0  0
   -1.6670   17.6730  -34.2160 C   0  0  0  0  0  0  0  0  0  0  0  0
   -2.4870   21.5490  -33.4620 C   0  0  0  0  0  0  0  0  0  0  0  0
   -3.4950   21.7950  -32.5200 C   0  0  0  0  0  0  0  0  0  0  0  0
   -4.6340   22.5080  -32.8820 O   0  0  0  0  0  0  0  0  0  0  0  0
   -4.6598   22.8375  -28.6503 H   0  0  0  0  0  0  0  0  0  0  0  0
   -3.9072   23.6032  -30.0904 H   0  0  0  0  0  0  0  0  0  0  0  0
   -5.6625   23.2214  -30.0904 H   0  0  0  0  0  0  0  0  0  0  0  0
   -2.0923   20.2408  -29.8124 H   0  0  0  0  0  0  0  0  0  0  0  0
   -0.2882   19.8367  -31.4839 H   0  0  0  0  0  0  0  0  0  0  0  0
    1.2402   16.8671  -35.8276 H   0  0  0  0  0  0  0  0  0  0  0  0
   -0.1837   14.9685  -36.5896 H   0  0  0  0  0  0  0  0  0  0  0  0
   -2.5477   14.7875  -35.8287 H   0  0  0  0  0  0  0  0  0  0  0  0
   -6.3621   16.6746  -32.8668 H   0  0  0  0  0  0  0  0  0  0  0  0
   -4.9932   16.5579  -31.6830 H   0  0  0  0  0  0  0  0  0  0  0  0
   -6.8676   18.1694  -31.0465 H   0  0  0  0  0  0  0  0  0  0  0  0
   -5.1990   18.8576  -31.0735 H   0  0  0  0  0  0  0  0  0  0  0  0
   -9.1310   18.9894  -32.6282 H   0  0  0  0  0  0  0  0  0  0  0  0
  -10.9046   20.6498  -32.0334 H   0  0  0  0  0  0  0  0  0  0  0  0
  -10.2609   22.9699  -31.3551 H   0  0  0  0  0  0  0  0  0  0  0  0
   -7.8403   23.5917  -31.2549 H   0  0  0  0  0  0  0  0  0  0  0  0
   -6.2667   19.3223  -34.7414 H   0  0  0  0  0  0  0  0  0  0  0  0
   -5.4701   20.7622  -33.9813 H   0  0  0  0  0  0  0  0  0  0  0  0
   -3.8767   18.9840  -34.8523 H   0  0  0  0  0  0  0  0  0  0  0  0
   -3.6801   19.4218  -33.1157 H   0  0  0  0  0  0  0  0  0  0  0  0
   -2.0821   18.4291  -33.5333 H   0  0  0  0  0  0  0  0  0  0  0  0
   -2.6028   21.9087  -34.4951 H   0  0  0  0  0  0  0  0  0  0  0  0
   -5.4470   22.5490  -32.2810 H   0  0  0  0  0  0  0  0  0  0  0  0
  1  2  1  0
  2  3  1  0
  3  4  2  0
  4  5  1  0
  5  6  2  0
  6  7  1  0
  7  8  2  0
  7  9  2  0
  7 10  1  0
 10 11  1  0
 11 12  2  0
 12 13  1  0
 13 14  2  0
 14 15  1  0
 15 16  1  0
 16 17  2  0
 16 18  1  0
 18 19  1  0
 19 20  1  0
 20 21  1  0
 21 22  1  0
 22 23  2  0
 23 24  1  0
 24 25  2  0
 25 26  1  0
 26 27  2  0
 21 28  1  0
 28 29  1  0
 15 30  2  0
  6 31  1  0
 31 32  2  0
 32 33  1  0
 32  3  1  0
 30 11  1  0
 29 18  1  0
 27 22  1  0
  1 34  1  0
  1 35  1  0
  1 36  1  0
  4 37  1  0
  5 38  1  0
 12 39  1  0
 13 40  1  0
 14 41  1  0
 19 42  1  0
 19 43  1  0
 20 44  1  0
 20 45  1  0
 23 46  1  0
 24 47  1  0
 25 48  1  0
 26 49  1  0
 28 50  1  0
 28 51  1  0
 29 52  1  0
 29 53  1  0
 30 54  1  0
 31 55  1  0
 33 56  1  0
M  CHG  1  10  -1
M  END
>  <UniqueID>  (4) 
4

>  <SMILES>  (4) 
COc1ccc(S(=O)(=O)[N-]c2cccc(C(=O)N3CCN(c4ccccn4)CC3)c2)cc1O

>  <Energy>  (4) 
69.72863427787422

>  <Genealogy>  (4) 
COc1ccc(S(=O)(=O)[N-]c2cccc(C(=O)N3CCN(c4ccccn4)CC3)c2)cc1O (protonated)
COc1ccc(S(=O)(=O)[N-]c2cccc(C(=O)N3CCN(c4ccccn4)CC3)c2)cc1O (3D coordinates assigned)
COc1ccc(S(=O)(=O)[N-]c2cccc(C(=O)N3CCN(c4ccccn4)CC3)c2)cc1O (nonaromatic ring conformer: 69.72863427787422 kcal/mol)

>  <smiles>  (4) 
COc1ccc(S(=O)(=O)Nc2cccc(C(=O)N3CCN(c4ccccn4)CC3)c2)cc1O

>  <score_type>  (4) 
oracle

>  <origin>  (4) 
adgpu

>  <m_score__min__energy>  (4) 
-10.49

>  <m_primary>  (4) 
energy

$$$$
4:0
     RDKit          3D

 57 60  0  0  0  0  0  0  0  0999 V2000
   -2.3350   25.0570  -27.5790 C   0  0  0  0  0  0  0  0  0  0  0  0
   -2.3570   24.9700  -29.0000 O   0  0  0  0  0  0  0  0  0  0  0  0
   -2.1080   23.7960  -29.7250 C   0  0  0  0  0  0  0  0  0  0  0  0
   -0.8830   23.1040  -29.6430 C   0  0  0  0  0  0  0  0  0  0  0  0
   -0.6820   21.9350  -30.3830 C   0  0  0  0  0  0  0  0  0  0  0  0
   -1.6880   21.4470  -31.2330 C   0  0  0  0  0  0  0  0  0  0  0  0
   -1.4720   20.2540  -32.0120 N   0  0  0  0  0  0  0  0  0  0  0  0
   -2.1440   20.0780  -33.3060 C   0  0  0  0  0  0  0  0  0  0  0  0
   -1.3200   19.1430  -34.2080 C   0  0  0  0  0  0  0  0  0  0  0  0
   -1.0130   17.8290  -33.5710 N   0  0  0  0  0  0  0  0  0  0  0  0
   -1.7980   16.7100  -34.1520 C   0  0  0  0  0  0  0  0  0  0  0  0
   -3.2430   16.9770  -34.1510 N   0  0  0  0  0  0  0  0  0  0  0  0
   -3.8160   17.8950  -34.9130 N   0  0  0  0  0  0  0  0  0  0  0  0
   -5.1250   17.8960  -34.5900 C   0  0  0  0  0  0  0  0  0  0  0  0
   -6.0980   18.8860  -35.1460 C   0  0  0  0  0  0  0  0  0  0  0  0
   -5.4040   16.9860  -33.6270 N   0  0  0  0  0  0  0  0  0  0  0  0
   -6.6570   16.8250  -32.8830 C   0  0  0  0  0  0  0  0  0  0  0  0
   -7.1300   18.1610  -32.3700 C   0  0  0  0  0  0  0  0  0  0  0  0
   -8.5020   18.4650  -32.3300 C   0  0  0  0  0  0  0  0  0  0  0  0
   -8.9320   19.7280  -31.9110 C   0  0  0  0  0  0  0  0  0  0  0  0
   -7.9980   20.6960  -31.5260 C   0  0  0  0  0  0  0  0  0  0  0  0
   -8.4170   21.9230  -31.1250 F   0  0  0  0  0  0  0  0  0  0  0  0
   -6.6330   20.4010  -31.5570 C   0  0  0  0  0  0  0  0  0  0  0  0
   -6.2000   19.1400  -31.9780 C   0  0  0  0  0  0  0  0  0  0  0  0
   -4.2040   16.4160  -33.3830 C   0  0  0  0  0  0  0  0  0  0  0  0
   -3.9590   15.1670  -32.3430 S   0  0  0  0  0  0  0  0  0  0  0  0
   -1.0790   17.8350  -32.0850 C   0  0  0  0  0  0  0  0  0  0  0  0
   -0.6210   19.1730  -31.4990 C   0  0  0  0  0  0  0  0  0  0  0  0
   -2.9120   22.1370  -31.3060 C   0  0  0  0  0  0  0  0  0  0  0  0
   -3.1170   23.2980  -30.5550 C   0  0  0  0  0  0  0  0  0  0  0  0
   -2.5831   24.0760  -27.1477 H   0  0  0  0  0  0  0  0  0  0  0  0
   -1.3317   25.3609  -27.2457 H   0  0  0  0  0  0  0  0  0  0  0  0
   -3.0732   25.8013  -27.2457 H   0  0  0  0  0  0  0  0  0  0  0  0
   -0.0812   23.4855  -28.9937 H   0  0  0  0  0  0  0  0  0  0  0  0
    0.2716   21.3931  -30.2989 H   0  0  0  0  0  0  0  0  0  0  0  0
   -3.1399   19.6405  -33.1420 H   0  0  0  0  0  0  0  0  0  0  0  0
   -2.2412   21.0576  -33.7969 H   0  0  0  0  0  0  0  0  0  0  0  0
   -1.8880   18.9591  -35.1319 H   0  0  0  0  0  0  0  0  0  0  0  0
   -0.3598   19.6423  -34.4046 H   0  0  0  0  0  0  0  0  0  0  0  0
   -0.0140   17.6140  -33.8100 H   0  0  0  0  0  0  0  0  0  0  0  0
   -1.4695   16.5499  -35.1895 H   0  0  0  0  0  0  0  0  0  0  0  0
   -1.6219   15.8198  -33.5303 H   0  0  0  0  0  0  0  0  0  0  0  0
   -6.6069   19.4038  -34.3196 H   0  0  0  0  0  0  0  0  0  0  0  0
   -5.5609   19.6208  -35.7637 H   0  0  0  0  0  0  0  0  0  0  0  0
   -6.8420   18.3617  -35.7637 H   0  0  0  0  0  0  0  0  0  0  0  0
   -7.4227   16.3987  -33.5478 H   0  0  0  0  0  0  0  0  0  0  0  0
   -6.4853   16.1520  -32.0300 H   0  0  0  0  0  0  0  0  0  0  0  0
   -9.2402   17.7064  -32.6295 H   0  0  0  0  0  0  0  0  0  0  0  0
  -10.0067   19.9609  -31.8840 H   0  0  0  0  0  0  0  0  0  0  0  0
   -5.8989   21.1606  -31.2503 H   0  0  0  0  0  0  0  0  0  0  0  0
   -5.1241   18.9122  -32.0027 H   0  0  0  0  0  0  0  0  0  0  0  0
   -2.1174   17.6474  -31.7743 H   0  0  0  0  0  0  0  0  0  0  0  0
   -0.4053   17.0502  -31.7105 H   0  0  0  0  0  0  0  0  0  0  0  0
   -0.6966   19.1371  -30.4022 H   0  0  0  0  0  0  0  0  0  0  0  0
    0.4228   19.3608  -31.7908 H   0  0  0  0  0  0  0  0  0  0  0  0
   -3.7133   21.7602  -31.9587 H   0  0  0  0  0  0  0  0  0  0  0  0
   -4.0808   23.8246  -30.6176 H   0  0  0  0  0  0  0  0  0  0  0  0
  1  2  1  0
  2  3  1  0
  3  4  2  0
  4  5  1  0
  5  6  2  0
  6  7  1  0
  7  8  1  0
  8  9  1  0
  9 10  1  0
 10 11  1  0
 11 12  1  0
 12 13  1  0
 13 14  2  0
 14 15  1  0
 14 16  1  0
 16 17  1  0
 17 18  1  0
 18 19  2  0
 19 20  1  0
 20 21  2  0
 21 22  1  0
 21 23  1  0
 23 24  2  0
 16 25  1  0
 25 26  2  0
 10 27  1  0
 27 28  1  0
  6 29  1  0
 29 30  2  0
 30  3  1  0
 28  7  1  0
 25 12  1  0
 24 18  1  0
  1 31  1  0
  1 32  1  0
  1 33  1  0
  4 34  1  0
  5 35  1  0
  8 36  1  0
  8 37  1  0
  9 38  1  0
  9 39  1  0
 10 40  1  0
 11 41  1  0
 11 42  1  0
 15 43  1  0
 15 44  1  0
 15 45  1  0
 17 46  1  0
 17 47  1  0
 19 48  1  0
 20 49  1  0
 23 50  1  0
 24 51  1  0
 27 52  1  0
 27 53  1  0
 28 54  1  0
 28 55  1  0
 29 56  1  0
 30 57  1  0
M  CHG  1  10   1
M  END
>  <UniqueID>  (5) 
5

>  <SMILES>  (5) 
COc1ccc(N2CC[NH+](Cn3nc(C)n(Cc4ccc(F)cc4)c3=S)CC2)cc1

>  <Energy>  (5) 
104.8354499920305

>  <Genealogy>  (5) 
COc1ccc(N2CC[NH+](Cn3nc(C)n(Cc4ccc(F)cc4)c3=S)CC2)cc1 (protonated)
COc1ccc(N2CC[NH+](Cn3nc(C)n(Cc4ccc(F)cc4)c3=S)CC2)cc1 (3D coordinates assigned)
COc1ccc(N2CC[NH+](Cn3nc(C)n(Cc4ccc(F)cc4)c3=S)CC2)cc1 (nonaromatic ring conformer: 104.8354499920305 kcal/mol)

>  <smiles>  (5) 
COc1ccc(N2CCN(Cn3nc(C)n(Cc4ccc(F)cc4)c3=S)CC2)cc1

>  <score_type>  (5) 
oracle

>  <origin>  (5) 
adgpu

>  <m_score__min__energy>  (5) 
-7.5300000000000002

>  <m_primary>  (5) 
energy

$$$$
5:0
     RDKit          3D

 49 51  0  0  0  0  0  0  0  0999 V2000
   -9.5670   21.3460  -32.3420 C   0  0  0  0  0  0  0  0  0  0  0  0
   -8.2130   21.6160  -31.7540 C   0  0  0  0  0  0  0  0  0  0  0  0
   -8.0330   22.6760  -30.8530 C   0  0  0  0  0  0  0  0  0  0  0  0
   -6.7650   22.9530  -30.3340 C   0  0  0  0  0  0  0  0  0  0  0  0
   -5.6570   22.1710  -30.7080 C   0  0  0  0  0  0  0  0  0  0  0  0
   -4.3380   22.4490  -30.2070 N   0  0  0  0  0  0  0  0  0  0  0  0
   -3.6480   23.6910  -30.3960 C   0  0  0  0  0  0  0  0  0  0  0  0
   -4.2420   24.6860  -30.8940 O   0  0  0  0  0  0  0  0  0  0  0  0
   -2.2700   23.7910  -30.0180 N   0  0  0  0  0  0  0  0  0  0  0  0
   -1.7920   23.9550  -28.6750 C   0  0  0  0  0  0  0  0  0  0  0  0
   -1.7590   22.8380  -27.8430 C   0  0  0  0  0  0  0  0  0  0  0  0
   -1.3000   22.9480  -26.5340 C   0  0  0  0  0  0  0  0  0  0  0  0
   -0.8540   24.1790  -26.0270 C   0  0  0  0  0  0  0  0  0  0  0  0
   -0.3890   24.2190  -24.5940 C   0  0  0  0  0  0  0  0  0  0  0  0
   -0.9140   25.3390  -26.8520 C   0  0  0  0  0  0  0  0  0  0  0  0
   -0.3640   26.9470  -26.2900 S   0  0  0  0  0  0  0  0  0  0  0  0
   -1.1330   27.3830  -25.0760 O   0  0  0  0  0  0  0  0  0  0  0  0
   -0.6380   27.9650  -27.3630 O   0  0  0  0  0  0  0  0  0  0  0  0
    1.3450   26.9590  -25.9010 N   0  0  0  0  0  0  0  0  0  0  0  0
    1.5630   26.6750  -24.4700 C   0  0  0  0  0  0  0  0  0  0  0  0
    3.0200   26.2570  -24.2210 C   0  0  0  0  0  0  0  0  0  0  0  0
    3.4190   25.0880  -24.9280 O   0  0  0  0  0  0  0  0  0  0  0  0
    2.6240   24.8140  -26.0750 C   0  0  0  0  0  0  0  0  0  0  0  0
    2.1410   26.0860  -26.7930 C   0  0  0  0  0  0  0  0  0  0  0  0
   -1.4180   25.2130  -28.1680 C   0  0  0  0  0  0  0  0  0  0  0  0
   -1.5860   26.3410  -28.9630 O   0  0  0  0  0  0  0  0  0  0  0  0
   -5.8350   21.1400  -31.6410 C   0  0  0  0  0  0  0  0  0  0  0  0
   -7.1030   20.8620  -32.1600 C   0  0  0  0  0  0  0  0  0  0  0  0
  -10.2963   21.2006  -31.5315 H   0  0  0  0  0  0  0  0  0  0  0  0
   -9.8742   22.2006  -32.9628 H   0  0  0  0  0  0  0  0  0  0  0  0
   -9.5229   20.4390  -32.9628 H   0  0  0  0  0  0  0  0  0  0  0  0
   -8.8937   23.2921  -30.5535 H   0  0  0  0  0  0  0  0  0  0  0  0
   -6.6328   23.7871  -29.6292 H   0  0  0  0  0  0  0  0  0  0  0  0
   -3.8870   21.7410  -29.5840 H   0  0  0  0  0  0  0  0  0  0  0  0
   -2.0979   21.8630  -28.2233 H   0  0  0  0  0  0  0  0  0  0  0  0
   -1.2864   22.0582  -25.8875 H   0  0  0  0  0  0  0  0  0  0  0  0
   -1.2583   24.1442  -23.9242 H   0  0  0  0  0  0  0  0  0  0  0  0
    0.2923   23.3761  -24.4059 H   0  0  0  0  0  0  0  0  0  0  0  0
    0.1384   25.1658  -24.4059 H   0  0  0  0  0  0  0  0  0  0  0  0
    1.3402   27.5785  -23.8835 H   0  0  0  0  0  0  0  0  0  0  0  0
    0.8995   25.8523  -24.1652 H   0  0  0  0  0  0  0  0  0  0  0  0
    3.6743   27.0863  -24.5278 H   0  0  0  0  0  0  0  0  0  0  0  0
    3.1038   26.0232  -23.1494 H   0  0  0  0  0  0  0  0  0  0  0  0
    3.2218   24.2191  -26.7812 H   0  0  0  0  0  0  0  0  0  0  0  0
    1.7304   24.2716  -25.7325 H   0  0  0  0  0  0  0  0  0  0  0  0
    3.0175   26.6472  -27.1491 H   0  0  0  0  0  0  0  0  0  0  0  0
    1.4972   25.7793  -27.6305 H   0  0  0  0  0  0  0  0  0  0  0  0
   -4.9696   20.5446  -31.9675 H   0  0  0  0  0  0  0  0  0  0  0  0
   -7.2302   20.0487  -32.8896 H   0  0  0  0  0  0  0  0  0  0  0  0
  1  2  1  0
  2  3  2  0
  3  4  1  0
  4  5  2  0
  5  6  1  0
  6  7  1  0
  7  8  2  0
  7  9  1  0
  9 10  1  0
 10 11  2  0
 11 12  1  0
 12 13  2  0
 13 14  1  0
 13 15  1  0
 15 16  1  0
 16 17  2  0
 16 18  2  0
 16 19  1  0
 19 20  1  0
 20 21  1  0
 21 22  1  0
 22 23  1  0
 23 24  1  0
 15 25  2  0
 25 26  1  0
  5 27  1  0
 27 28  2  0
 28  2  1  0
 25 10  1  0
 24 19  1  0
  1 29  1  0
  1 30  1  0
  1 31  1  0
  3 32  1  0
  4 33  1  0
  6 34  1  0
 11 35  1  0
 12 36  1  0
 14 37  1  0
 14 38  1  0
 14 39  1  0
 20 40  1  0
 20 41  1  0
 21 42  1  0
 21 43  1  0
 23 44  1  0
 23 45  1  0
 24 46  1  0
 24 47  1  0
 27 48  1  0
 28 49  1  0
M  CHG  2   9  -1  26  -1
M  END
>  <UniqueID>  (6) 
6

>  <SMILES>  (6) 
Cc1ccc(NC(=O)[N-]c2ccc(C)c(S(=O)(=O)N3CCOCC3)c2[O-])cc1

>  <Energy>  (6) 
75.32469746714838

>  <Genealogy>  (6) 
Cc1ccc(NC(=O)[N-]c2ccc(C)c(S(=O)(=O)N3CCOCC3)c2[O-])cc1 (protonated)
Cc1ccc(NC(=O)[N-]c2ccc(C)c(S(=O)(=O)N3CCOCC3)c2[O-])cc1 (3D coordinates assigned)
Cc1ccc(NC(=O)[N-]c2ccc(C)c(S(=O)(=O)N3CCOCC3)c2[O-])cc1 (nonaromatic ring conformer: 75.32469746714838 kcal/mol)

>  <smiles>  (6) 
Cc1ccc(NC(=O)Nc2ccc(C)c(S(=O)(=O)N3CCOCC3)c2O)cc1

>  <score_type>  (6) 
oracle

>  <origin>  (6) 
adgpu

>  <m_score__min__energy>  (6) 
-12.789999999999999

>  <m_primary>  (6) 
energy

$$$$
6:0
     RDKit          3D

 55 58  0  0  0  0  0  0  0  0999 V2000
    0.5740   24.5090  -24.6010 C   0  0  0  0  0  0  0  0  0  0  0  0
   -0.2340   24.7140  -25.8470 C   0  0  0  0  0  0  0  0  0  0  0  0
   -0.0780   25.8820  -26.6070 C   0  0  0  0  0  0  0  0  0  0  0  0
   -0.8470   26.0850  -27.7570 C   0  0  0  0  0  0  0  0  0  0  0  0
   -1.8110   25.1350  -28.1410 C   0  0  0  0  0  0  0  0  0  0  0  0
   -2.5790   25.2740  -29.3460 N   0  0  0  0  0  0  0  0  0  0  0  0
   -3.1300   24.2040  -30.1170 C   0  0  0  0  0  0  0  0  0  0  0  0
   -2.4620   23.1500  -30.2870 O   0  0  0  0  0  0  0  0  0  0  0  0
   -4.3700   24.3490  -30.8240 N   0  0  0  0  0  0  0  0  0  0  0  0
   -5.3890   23.3890  -31.1740 C   0  0  0  0  0  0  0  0  0  0  0  0
   -6.7070   23.7630  -30.9100 C   0  0  0  0  0  0  0  0  0  0  0  0
   -7.7730   22.9520  -31.2820 C   0  0  0  0  0  0  0  0  0  0  0  0
   -7.5550   21.7610  -31.9860 C   0  0  0  0  0  0  0  0  0  0  0  0
   -8.7550   20.9400  -32.3770 C   0  0  0  0  0  0  0  0  0  0  0  0
   -6.2290   21.3850  -32.3240 C   0  0  0  0  0  0  0  0  0  0  0  0
   -5.9080   20.0190  -33.4300 S   0  0  0  0  0  0  0  0  0  0  0  0
   -4.5400   20.1200  -34.0420 O   0  0  0  0  0  0  0  0  0  0  0  0
   -6.9390   20.0440  -34.5230 O   0  0  0  0  0  0  0  0  0  0  0  0
   -5.9820   18.4930  -32.5940 N   0  0  0  0  0  0  0  0  0  0  0  0
   -5.3110   17.3040  -32.9740 C   0  0  0  0  0  0  0  0  0  0  0  0
   -4.6580   17.0470  -34.1840 C   0  0  0  0  0  0  0  0  0  0  0  0
   -4.0430   15.7970  -34.3560 C   0  0  0  0  0  0  0  0  0  0  0  0
   -4.0970   14.8320  -33.3320 C   0  0  0  0  0  0  0  0  0  0  0  0
   -4.7740   15.1120  -32.1350 C   0  0  0  0  0  0  0  0  0  0  0  0
   -5.3710   16.3640  -31.9830 C   0  0  0  0  0  0  0  0  0  0  0  0
   -6.1230   16.8840  -30.8080 C   0  0  0  0  0  0  0  0  0  0  0  0
   -6.5880   18.2950  -31.2750 C   0  0  2  0  0  0  0  0  0  0  0  0
   -8.1130   18.3840  -31.3740 C   0  0  0  0  0  0  0  0  0  0  0  0
   -5.1470   22.1460  -31.8080 C   0  0  0  0  0  0  0  0  0  0  0  0
   -3.8510   21.6500  -31.8810 O   0  0  0  0  0  0  0  0  0  0  0  0
   -1.9700   23.9730  -27.3750 C   0  0  0  0  0  0  0  0  0  0  0  0
   -1.1950   23.7670  -26.2300 C   0  0  0  0  0  0  0  0  0  0  0  0
   -0.0639   24.6708  -23.7196 H   0  0  0  0  0  0  0  0  0  0  0  0
    0.9685   23.4823  -24.5846 H   0  0  0  0  0  0  0  0  0  0  0  0
    1.4103   25.2234  -24.5846 H   0  0  0  0  0  0  0  0  0  0  0  0
    0.6534   26.6428  -26.2968 H   0  0  0  0  0  0  0  0  0  0  0  0
   -0.6977   26.9905  -28.3635 H   0  0  0  0  0  0  0  0  0  0  0  0
   -6.9061   24.7163  -30.3985 H   0  0  0  0  0  0  0  0  0  0  0  0
   -8.7993   23.2490  -31.0205 H   0  0  0  0  0  0  0  0  0  0  0  0
   -9.2695   20.5880  -31.4707 H   0  0  0  0  0  0  0  0  0  0  0  0
   -9.4432   21.5574  -32.9730 H   0  0  0  0  0  0  0  0  0  0  0  0
   -8.4290   20.0748  -32.9730 H   0  0  0  0  0  0  0  0  0  0  0  0
   -4.6272   17.8051  -34.9804 H   0  0  0  0  0  0  0  0  0  0  0  0
   -3.5166   15.5703  -35.2949 H   0  0  0  0  0  0  0  0  0  0  0  0
   -3.6075   13.8567  -33.4706 H   0  0  0  0  0  0  0  0  0  0  0  0
   -4.8327   14.3606  -31.3338 H   0  0  0  0  0  0  0  0  0  0  0  0
   -6.9854   16.2416  -30.5766 H   0  0  0  0  0  0  0  0  0  0  0  0
   -5.5190   16.9125  -29.8891 H   0  0  0  0  0  0  0  0  0  0  0  0
   -6.2804   19.0671  -30.5544 H   0  0  0  0  0  0  0  0  0  0  0  0
   -8.5452   18.4092  -30.3628 H   0  0  0  0  0  0  0  0  0  0  0  0
   -8.3925   19.3000  -31.9152 H   0  0  0  0  0  0  0  0  0  0  0  0
   -8.4971   17.5067  -31.9152 H   0  0  0  0  0  0  0  0  0  0  0  0
   -3.0560   22.1170  -31.4670 H   0  0  0  0  0  0  0  0  0  0  0  0
   -2.7101   23.2172  -27.6767 H   0  0  0  0  0  0  0  0  0  0  0  0
   -1.3395   22.8585  -25.6269 H   0  0  0  0  0  0  0  0  0  0  0  0
  1  2  1  0
  2  3  2  0
  3  4  1  0
  4  5  2  0
  5  6  1  0
  6  7  1  0
  7  8  2  0
  7  9  1  0
  9 10  1  0
 10 11  2  0
 11 12  1  0
 12 13  2  0
 13 14  1  0
 13 15  1  0
 15 16  1  0
 16 17  2  0
 16 18  2  0
 16 19  1  0
 19 20  1  0
 20 21  2  0
 21 22  1  0
 22 23  2  0
 23 24  1  0
 24 25  2  0
 25 26  1  0
 26 27  1  0
 27 28  1  0
 15 29  2  0
 29 30  1  0
  5 31  1  0
 31 32  2  0
 32  2  1  0
 29 10  1  0
 27 19  1  0
 25 20  1  0
  1 33  1  0
  1 34  1  0
  1 35  1  0
  3 36  1  0
  4 37  1  0
 11 38  1  0
 12 39  1  0
 14 40  1  0
 14 41  1  0
 14 42  1  0
 21 43  1  0
 22 44  1  0
 23 45  1  0
 24 46  1  0
 26 47  1  0
 26 48  1  0
 27 49  1  1
 28 50  1  0
 28 51  1  0
 28 52  1  0
 30 53  1  0
 31 54  1  0
 32 55  1  0
M  CHG  2   6  -1   9  -1
M  END
>  <UniqueID>  (7) 
7

>  <SMILES>  (7) 
Cc1ccc([N-]C(=O)[N-]c2ccc(C)c(S(=O)(=O)N3c4ccccc4C[C@@H]3C)c2O)cc1

>  <Energy>  (7) 
91.16259659721068

>  <Genealogy>  (7) 
Cc1ccc([N-]C(=O)[N-]c2ccc(C)c(S(=O)(=O)N3c4ccccc4CC3C)c2O)cc1 (protonated)
Cc1ccc([N-]C(=O)[N-]c2ccc(C)c(S(=O)(=O)N3c4ccccc4C[C@@H]3C)c2O)cc1 (chirality)
Cc1ccc([N-]C(=O)[N-]c2ccc(C)c(S(=O)(=O)N3c4ccccc4C[C@@H]3C)c2O)cc1 (3D coordinates assigned)
Cc1ccc([N-]C(=O)[N-]c2ccc(C)c(S(=O)(=O)N3c4ccccc4C[C@@H]3C)c2O)cc1 (nonaromatic ring conformer: 91.16259659721068 kcal/mol)

>  <smiles>  (7) 
Cc1ccc(NC(=O)Nc2ccc(C)c(S(=O)(=O)N3c4ccccc4CC3C)c2O)cc1

>  <score_type>  (7) 
oracle

>  <origin>  (7) 
adgpu

>  <m_score__min__energy>  (7) 
-12.5

>  <m_primary>  (7) 
energy

$$$$
7:0
     RDKit          3D

 73 77  0  0  0  0  0  0  0  0999 V2000
   -3.5540   20.0810  -31.4920 O   0  0  0  0  0  0  0  0  0  0  0  0
   -3.7650   20.5660  -32.6360 C   0  0  0  0  0  0  0  0  0  0  0  0
   -5.0960   20.9620  -32.9830 N   0  0  0  0  0  0  0  0  0  0  0  0
   -5.8500   22.0210  -32.3770 C   0  0  0  0  0  0  0  0  0  0  0  0
   -7.2450   21.9440  -32.2260 C   0  0  0  0  0  0  0  0  0  0  0  0
   -7.9390   22.9780  -31.5950 C   0  0  0  0  0  0  0  0  0  0  0  0
   -7.2520   24.0870  -31.0960 C   0  0  0  0  0  0  0  0  0  0  0  0
   -5.8520   24.1690  -31.2140 C   0  0  0  0  0  0  0  0  0  0  0  0
   -5.1170   25.3320  -30.6640 C   0  0  0  0  0  0  0  0  0  0  0  0
   -5.7260   26.4150  -30.4460 O   0  0  0  0  0  0  0  0  0  0  0  0
   -3.7050   25.2390  -30.4240 N   0  0  0  0  0  0  0  0  0  0  0  0
   -3.0190   24.1850  -29.7340 C   0  0  0  0  0  0  0  0  0  0  0  0
   -2.4110   23.1160  -30.4160 C   0  0  0  0  0  0  0  0  0  0  0  0
   -1.7210   22.1280  -29.7070 C   0  0  0  0  0  0  0  0  0  0  0  0
   -1.6110   22.2080  -28.3110 C   0  0  0  0  0  0  0  0  0  0  0  0
   -0.7660   20.9580  -27.4000 S   0  0  0  0  0  0  0  0  0  0  0  0
    0.6970   21.2880  -27.3070 O   0  0  0  0  0  0  0  0  0  0  0  0
   -1.3350   20.9240  -26.0080 O   0  0  0  0  0  0  0  0  0  0  0  0
   -0.9880   19.3930  -28.1530 N   0  0  0  0  0  0  0  0  0  0  0  0
   -0.1900   19.2540  -29.3870 C   0  0  0  0  0  0  0  0  0  0  0  0
    1.3120   19.0610  -29.1100 C   0  0  0  0  0  0  0  0  0  0  0  0
    1.5920   18.1490  -27.9040 C   0  0  0  0  0  0  0  0  0  0  0  0
    0.3590   17.3440  -27.4980 C   0  0  0  0  0  0  0  0  0  0  0  0
   -0.8200   18.2810  -27.1830 C   0  0  0  0  0  0  0  0  0  0  0  0
   -2.2000   23.2810  -27.6330 C   0  0  0  0  0  0  0  0  0  0  0  0
   -2.8920   24.2670  -28.3410 C   0  0  0  0  0  0  0  0  0  0  0  0
   -5.1610   23.1230  -31.8540 C   0  0  0  0  0  0  0  0  0  0  0  0
   -2.6670   20.8010  -33.5330 N   0  0  0  0  0  0  0  0  0  0  0  0
   -1.4170   20.0940  -33.4650 C   0  0  0  0  0  0  0  0  0  0  0  0
   -0.3890   20.5840  -32.6450 C   0  0  0  0  0  0  0  0  0  0  0  0
    0.8410   19.9220  -32.5780 C   0  0  0  0  0  0  0  0  0  0  0  0
    1.0670   18.7750  -33.3500 C   0  0  0  0  0  0  0  0  0  0  0  0
    2.6080   17.9270  -33.2550 S   0  0  0  0  0  0  0  0  0  0  0  0
    3.0540   17.5440  -34.6390 O   0  0  0  0  0  0  0  0  0  0  0  0
    3.6410   18.8410  -32.6560 O   0  0  0  0  0  0  0  0  0  0  0  0
    2.4350   16.5100  -32.2500 N   0  0  0  0  0  0  0  0  0  0  0  0
    3.2860   16.5920  -31.0630 C   0  0  0  0  0  0  0  0  0  0  0  0
    2.6010   15.7800  -29.9740 C   0  0  0  0  0  0  0  0  0  0  0  0
    1.1670   15.5970  -30.4450 C   0  0  0  0  0  0  0  0  0  0  0  0
    1.0710   16.3840  -31.7420 C   0  0  0  0  0  0  0  0  0  0  0  0
    0.0500   18.2930  -34.1860 C   0  0  0  0  0  0  0  0  0  0  0  0
   -1.1810   18.9490  -34.2480 C   0  0  0  0  0  0  0  0  0  0  0  0
   -7.7909   21.0677  -32.6056 H   0  0  0  0  0  0  0  0  0  0  0  0
   -9.0324   22.9190  -31.4903 H   0  0  0  0  0  0  0  0  0  0  0  0
   -7.8083   24.9009  -30.6080 H   0  0  0  0  0  0  0  0  0  0  0  0
   -2.4786   23.0568  -31.5123 H   0  0  0  0  0  0  0  0  0  0  0  0
   -1.2630   21.2854  -30.2457 H   0  0  0  0  0  0  0  0  0  0  0  0
   -0.5586   18.3820  -29.9471 H   0  0  0  0  0  0  0  0  0  0  0  0
   -0.3031   20.1860  -29.9602 H   0  0  0  0  0  0  0  0  0  0  0  0
    1.7777   18.6152  -30.0013 H   0  0  0  0  0  0  0  0  0  0  0  0
    1.7317   20.0506  -28.8766 H   0  0  0  0  0  0  0  0  0  0  0  0
    2.4012   17.4515  -28.1663 H   0  0  0  0  0  0  0  0  0  0  0  0
    1.8769   18.7867  -27.0542 H   0  0  0  0  0  0  0  0  0  0  0  0
    0.0773   16.6734  -28.3232 H   0  0  0  0  0  0  0  0  0  0  0  0
    0.5979   16.7596  -26.5973 H   0  0  0  0  0  0  0  0  0  0  0  0
   -1.7439   17.6840  -27.1788 H   0  0  0  0  0  0  0  0  0  0  0  0
   -0.6066   18.7415  -26.2071 H   0  0  0  0  0  0  0  0  0  0  0  0
   -2.1179   23.3486  -26.5381 H   0  0  0  0  0  0  0  0  0  0  0  0
   -3.3404   25.1139  -27.8008 H   0  0  0  0  0  0  0  0  0  0  0  0
   -4.0658   23.1714  -31.9447 H   0  0  0  0  0  0  0  0  0  0  0  0
   -2.7610   21.5790  -34.2250 H   0  0  0  0  0  0  0  0  0  0  0  0
   -0.5518   21.4952  -32.0508 H   0  0  0  0  0  0  0  0  0  0  0  0
    1.6335   20.3030  -31.9171 H   0  0  0  0  0  0  0  0  0  0  0  0
    4.2796   16.1727  -31.2797 H   0  0  0  0  0  0  0  0  0  0  0  0
    3.4245   17.6368  -30.7481 H   0  0  0  0  0  0  0  0  0  0  0  0
    3.0940   14.8039  -29.8547 H   0  0  0  0  0  0  0  0  0  0  0  0
    2.6486   16.2846  -28.9977 H   0  0  0  0  0  0  0  0  0  0  0  0
    0.9519   14.5329  -30.6225 H   0  0  0  0  0  0  0  0  0  0  0  0
    0.4403   15.9465  -29.6968 H   0  0  0  0  0  0  0  0  0  0  0  0
    0.4429   15.8464  -32.4676 H   0  0  0  0  0  0  0  0  0  0  0  0
    0.6143   17.3710  -31.5767 H   0  0  0  0  0  0  0  0  0  0  0  0
    0.2226   17.3940  -34.7958 H   0  0  0  0  0  0  0  0  0  0  0  0
   -1.9707   18.5686  -34.9126 H   0  0  0  0  0  0  0  0  0  0  0  0
  1  2  2  0
  2  3  1  0
  3  4  1  0
  4  5  2  0
  5  6  1  0
  6  7  2  0
  7  8  1  0
  8  9  1  0
  9 10  2  0
  9 11  1  0
 11 12  1  0
 12 13  2  0
 13 14  1  0
 14 15  2  0
 15 16  1  0
 16 17  2  0
 16 18  2  0
 16 19  1  0
 19 20  1  0
 20 21  1  0
 21 22  1  0
 22 23  1  0
 23 24  1  0
 15 25  1  0
 25 26  2  0
  8 27  2  0
  2 28  1  0
 28 29  1  0
 29 30  2  0
 30 31  1  0
 31 32  2  0
 32 33  1  0
 33 34  2  0
 33 35  2  0
 33 36  1  0
 36 37  1  0
 37 38  1  0
 38 39  1  0
 39 40  1  0
 32 41  1  0
 41 42  2  0
 27  4  1  0
 42 29  1  0
 26 12  1  0
 40 36  1  0
 24 19  1  0
  5 43  1  0
  6 44  1  0
  7 45  1  0
 13 46  1  0
 14 47  1  0
 20 48  1  0
 20 49  1  0
 21 50  1  0
 21 51  1  0
 22 52  1  0
 22 53  1  0
 23 54  1  0
 23 55  1  0
 24 56  1  0
 24 57  1  0
 25 58  1  0
 26 59  1  0
 27 60  1  0
 28 61  1  0
 30 62  1  0
 31 63  1  0
 37 64  1  0
 37 65  1  0
 38 66  1  0
 38 67  1  0
 39 68  1  0
 39 69  1  0
 40 70  1  0
 40 71  1  0
 41 72  1  0
 42 73  1  0
M  CHG  2   3  -1  11  -1
M  END
>  <UniqueID>  (8) 
8

>  <SMILES>  (8) 
O=C([N-]c1cccc(C(=O)[N-]c2ccc(S(=O)(=O)N3CCCCC3)cc2)c1)Nc1ccc(S(=O)(=O)N2CCCC2)cc1

>  <Energy>  (8) 
96.0207406555808

>  <Genealogy>  (8) 
O=C([N-]c1cccc(C(=O)[N-]c2ccc(S(=O)(=O)N3CCCCC3)cc2)c1)Nc1ccc(S(=O)(=O)N2CCCC2)cc1 (protonated)
O=C([N-]c1cccc(C(=O)[N-]c2ccc(S(=O)(=O)N3CCCCC3)cc2)c1)Nc1ccc(S(=O)(=O)N2CCCC2)cc1 (3D coordinates assigned)
O=C([N-]c1cccc(C(=O)[N-]c2ccc(S(=O)(=O)N3CCCCC3)cc2)c1)Nc1ccc(S(=O)(=O)N2CCCC2)cc1 (nonaromatic ring conformer: 96.0207406555808 kcal/mol)

>  <smiles>  (8) 
O=C(Nc1ccc(S(=O)(=O)N2CCCC2)cc1)Nc1cccc(C(=O)Nc2ccc(S(=O)(=O)N3CCCCC3)cc2)c1

>  <score_type>  (8) 
oracle

>  <origin>  (8) 
adgpu

>  <m_score__min__energy>  (8) 
-12.17

>  <m_primary>  (8) 
energy

$$$$
8:0
     RDKit          3D

 63 66  0  0  1  0  0  0  0  0999 V2000
   -9.8760   20.9820  -32.0060 C   0  0  0  0  0  0  0  0  0  0  0  0
   -8.4620   20.8310  -32.4160 C   0  0  0  0  0  0  0  0  0  0  0  0
   -7.5220   21.7820  -32.1010 C   0  0  0  0  0  0  0  0  0  0  0  0
   -6.2100   21.6240  -32.4910 C   0  0  0  0  0  0  0  0  0  0  0  0
   -5.2880   22.4860  -32.2200 N   0  0  0  0  0  0  0  0  0  0  0  0
   -5.5820   23.6770  -31.4850 C   0  0  0  0  0  0  0  0  0  0  0  0
   -4.4370   24.0960  -30.6110 C   0  0  0  0  0  0  0  0  0  0  0  0
   -4.1790   25.3280  -30.4750 O   0  0  0  0  0  0  0  0  0  0  0  0
   -3.6880   23.0730  -29.9690 N   0  0  0  0  0  0  0  0  0  0  0  0
   -2.5870   23.3510  -29.1220 C   0  0  0  0  0  0  0  0  0  0  0  0
   -2.1430   22.4950  -28.1360 C   0  0  0  0  0  0  0  0  0  0  0  0
   -1.0430   22.8810  -27.3630 C   0  0  0  0  0  0  0  0  0  0  0  0
   -0.4070   24.0750  -27.5640 C   0  0  0  0  0  0  0  0  0  0  0  0
    0.9700   24.6180  -26.6360 S   0  0  0  0  0  0  0  0  0  0  0  0
    1.6710   25.7150  -27.3710 O   0  0  0  0  0  0  0  0  0  0  0  0
    1.9650   23.5350  -26.4040 O   0  0  0  0  0  0  0  0  0  0  0  0
    0.4790   25.2620  -25.1100 N   0  0  0  0  0  0  0  0  0  0  0  0
    0.7910   26.6530  -24.9510 C   0  0  0  0  0  0  0  0  0  0  0  0
   -0.3000   27.5520  -25.4970 C   0  0  0  0  0  0  0  0  0  0  0  0
   -1.2810   26.8640  -26.1810 O   0  0  0  0  0  0  0  0  0  0  0  0
   -1.8840   25.8520  -25.4600 C   0  0  0  0  0  0  0  0  0  0  0  0
   -0.8810   24.9300  -24.8120 C   0  0  0  0  0  0  0  0  0  0  0  0
   -0.8650   24.9250  -28.5590 C   0  0  0  0  0  0  0  0  0  0  0  0
   -1.9450   24.5760  -29.3370 C   0  0  0  0  0  0  0  0  0  0  0  0
   -5.8650   20.5280  -33.1840 N   0  0  0  0  0  0  0  0  0  0  0  0
   -6.7570   19.5950  -33.5000 C   0  0  0  0  0  0  0  0  0  0  0  0
   -6.4850   18.5270  -34.1620 N   0  0  0  0  0  0  0  0  0  0  0  0
   -5.1630   18.2540  -34.6180 C   0  0  0  0  0  0  0  0  0  0  0  0
   -4.6770   17.0140  -33.9590 C   0  0  0  0  0  0  0  0  0  0  0  0
   -3.5150   16.3670  -34.3270 C   0  0  0  0  0  0  0  0  0  0  0  0
   -3.0760   15.2060  -33.6920 C   0  0  0  0  0  0  0  0  0  0  0  0
   -3.7990   14.6580  -32.6620 C   0  0  0  0  0  0  0  0  0  0  0  0
   -4.9600   15.2840  -32.2780 C   0  0  0  0  0  0  0  0  0  0  0  0
   -5.3810   16.4190  -32.9030 C   0  0  0  0  0  0  0  0  0  0  0  0
   -8.0510   19.7520  -33.1150 N   0  0  0  0  0  0  0  0  0  0  0  0
   -9.9406   20.9889  -30.9079 H   0  0  0  0  0  0  0  0  0  0  0  0
  -10.2738   21.9277  -32.4027 H   0  0  0  0  0  0  0  0  0  0  0  0
  -10.4645   20.1416  -32.4027 H   0  0  0  0  0  0  0  0  0  0  0  0
   -7.8189   22.6762  -31.5333 H   0  0  0  0  0  0  0  0  0  0  0  0
   -5.8014   24.4876  -32.1955 H   0  0  0  0  0  0  0  0  0  0  0  0
   -6.4463   23.4710  -30.8365 H   0  0  0  0  0  0  0  0  0  0  0  0
   -3.9390   22.0610  -30.1100 H   0  0  0  0  0  0  0  0  0  0  0  0
   -2.6426   21.5307  -27.9614 H   0  0  0  0  0  0  0  0  0  0  0  0
   -0.6801   22.2069  -26.5731 H   0  0  0  0  0  0  0  0  0  0  0  0
    0.9222   26.8661  -23.8799 H   0  0  0  0  0  0  0  0  0  0  0  0
    1.7117   26.8587  -25.5167 H   0  0  0  0  0  0  0  0  0  0  0  0
   -0.7682   28.0838  -24.6556 H   0  0  0  0  0  0  0  0  0  0  0  0
    0.1728   28.2423  -26.2111 H   0  0  0  0  0  0  0  0  0  0  0  0
   -2.5089   26.3020  -24.6745 H   0  0  0  0  0  0  0  0  0  0  0  0
   -2.4852   25.2538  -26.1606 H   0  0  0  0  0  0  0  0  0  0  0  0
   -1.0194   24.9767  -23.7217 H   0  0  0  0  0  0  0  0  0  0  0  0
   -1.0625   23.9224  -25.2141 H   0  0  0  0  0  0  0  0  0  0  0  0
   -0.3602   25.8876  -28.7281 H   0  0  0  0  0  0  0  0  0  0  0  0
   -2.3021   25.2565  -30.1241 H   0  0  0  0  0  0  0  0  0  0  0  0
   -4.8940   20.4060  -33.4750 H   0  0  0  0  0  0  0  0  0  0  0  0
   -5.1694   18.1149  -35.7092 H   0  0  0  0  0  0  0  0  0  0  0  0
   -4.4997   19.0952  -34.3682 H   0  0  0  0  0  0  0  0  0  0  0  0
   -2.9142   16.7816  -35.1499 H   0  0  0  0  0  0  0  0  0  0  0  0
   -2.1424   14.7251  -34.0192 H   0  0  0  0  0  0  0  0  0  0  0  0
   -3.4579   13.7420  -32.1575 H   0  0  0  0  0  0  0  0  0  0  0  0
   -5.5573   14.8635  -31.4555 H   0  0  0  0  0  0  0  0  0  0  0  0
   -6.3155   16.8897  -32.5636 H   0  0  0  0  0  0  0  0  0  0  0  0
   -8.7870   19.0330  -33.3490 H   0  0  0  0  0  0  0  0  0  0  0  0
  1  2  1  0
  2  3  2  0
  3  4  1  0
  4  5  2  0
  5  6  1  0
  6  7  1  0
  7  8  2  0
  7  9  1  0
  9 10  1  0
 10 11  2  0
 11 12  1  0
 12 13  2  0
 13 14  1  0
 14 15  2  0
 14 16  2  0
 14 17  1  0
 17 18  1  0
 18 19  1  0
 19 20  1  0
 20 21  1  0
 21 22  1  0
 13 23  1  0
 23 24  2  0
  4 25  1  0
 25 26  1  0
 26 27  2  0
 27 28  1  0
 28 29  1  0
 29 30  2  0
 30 31  1  0
 31 32  2  0
 32 33  1  0
 33 34  2  0
 26 35  1  0
 35  2  1  0
 24 10  1  0
 34 29  1  0
 22 17  1  0
  1 36  1  0
  1 37  1  0
  1 38  1  0
  3 39  1  0
  6 40  1  0
  6 41  1  0
  9 42  1  0
 11 43  1  0
 12 44  1  0
 18 45  1  0
 18 46  1  0
 19 47  1  0
 19 48  1  0
 21 49  1  0
 21 50  1  0
 22 51  1  0
 22 52  1  0
 23 53  1  0
 24 54  1  0
 25 55  1  0
 28 56  1  0
 28 57  1  0
 30 58  1  0
 31 59  1  0
 32 60  1  0
 33 61  1  0
 34 62  1  0
 35 63  1  0
M  END
>  <smiles>  (9) 
Cc1cc(=NCC(=O)Nc2ccc(S(=O)(=O)N3CCOCC3)cc2)[nH]c(=NCc2ccccc2)[nH]1

>  <score_type>  (9) 
oracle

>  <origin>  (9) 
adgpu

>  <m_score__min__energy>  (9) 
-10.380000000000001

>  <m_primary>  (9) 
energy

$$$$
9:0
     RDKit          3D

 57 60  0  0  0  0  0  0  0  0999 V2000
   -5.3820   25.6740  -29.8030 O   0  0  0  0  0  0  0  0  0  0  0  0
   -4.6180   24.7420  -30.1690 C   0  0  0  0  0  0  0  0  0  0  0  0
   -3.1990   24.9320  -30.0870 N   0  0  0  0  0  0  0  0  0  0  0  0
   -2.4110   24.7320  -28.9040 C   0  0  0  0  0  0  0  0  0  0  0  0
   -3.0550   24.5240  -27.6830 C   0  0  0  0  0  0  0  0  0  0  0  0
   -2.3110   24.3460  -26.5120 C   0  0  0  0  0  0  0  0  0  0  0  0
   -0.9100   24.3540  -26.5570 C   0  0  0  0  0  0  0  0  0  0  0  0
    0.0340   24.1470  -25.0810 S   0  0  0  0  0  0  0  0  0  0  0  0
    1.4420   23.7550  -25.4350 O   0  0  0  0  0  0  0  0  0  0  0  0
   -0.5910   23.0480  -24.2700 O   0  0  0  0  0  0  0  0  0  0  0  0
    0.0570   25.6250  -24.1390 N   0  0  0  0  0  0  0  0  0  0  0  0
   -1.2430   26.3060  -24.1770 C   0  0  0  0  0  0  0  0  0  0  0  0
   -1.1990   27.3100  -25.3160 C   0  0  0  0  0  0  0  0  0  0  0  0
    0.2740   27.5480  -25.5920 C   0  0  0  0  0  0  0  0  0  0  0  0
    1.0280   26.5810  -24.6870 C   0  0  0  0  0  0  0  0  0  0  0  0
   -0.2630   24.5370  -27.7840 C   0  0  0  0  0  0  0  0  0  0  0  0
   -1.0060   24.7120  -28.9530 C   0  0  0  0  0  0  0  0  0  0  0  0
   -5.1930   23.5040  -30.7390 C   0  0  0  0  0  0  0  0  0  0  0  0
   -6.5860   23.4080  -30.8920 C   0  0  0  0  0  0  0  0  0  0  0  0
   -7.1580   22.2870  -31.4950 C   0  0  0  0  0  0  0  0  0  0  0  0
   -6.3450   21.2520  -31.9670 C   0  0  0  0  0  0  0  0  0  0  0  0
   -7.0570   19.8990  -32.8420 S   0  0  0  0  0  0  0  0  0  0  0  0
   -8.5490   19.9280  -32.6510 O   0  0  0  0  0  0  0  0  0  0  0  0
   -6.7780   20.0570  -34.3130 O   0  0  0  0  0  0  0  0  0  0  0  0
   -6.4390   18.3540  -32.2900 N   0  0  0  0  0  0  0  0  0  0  0  0
   -4.9870   18.2030  -32.5250 C   0  0  0  0  0  0  0  0  0  0  0  0
   -4.6620   17.3500  -33.7620 C   0  0  0  0  0  0  0  0  0  0  0  0
   -5.7060   17.4220  -34.7040 O   0  0  0  0  0  0  0  0  0  0  0  0
   -6.8450   16.7520  -34.2000 C   0  0  0  0  0  0  0  0  0  0  0  0
   -7.2380   17.2120  -32.7750 C   0  0  0  0  0  0  0  0  0  0  0  0
   -4.9560   21.3240  -31.7870 C   0  0  0  0  0  0  0  0  0  0  0  0
   -4.3770   22.4400  -31.1740 C   0  0  0  0  0  0  0  0  0  0  0  0
   -2.6210   22.5090  -31.0580 Cl  0  0  0  0  0  0  0  0  0  0  0  0
   -4.1540   24.4999  -27.6416 H   0  0  0  0  0  0  0  0  0  0  0  0
   -2.8274   24.1991  -25.5519 H   0  0  0  0  0  0  0  0  0  0  0  0
    0.3140   25.3860  -23.1520 H   0  0  0  0  0  0  0  0  0  0  0  0
   -2.0454   25.5742  -24.3521 H   0  0  0  0  0  0  0  0  0  0  0  0
   -1.4432   26.8126  -23.2213 H   0  0  0  0  0  0  0  0  0  0  0  0
   -1.6958   26.9009  -26.2081 H   0  0  0  0  0  0  0  0  0  0  0  0
   -1.7210   28.2430  -25.0571 H   0  0  0  0  0  0  0  0  0  0  0  0
    0.5039   27.3426  -26.6479 H   0  0  0  0  0  0  0  0  0  0  0  0
    0.5590   28.5921  -25.3954 H   0  0  0  0  0  0  0  0  0  0  0  0
    1.7931   26.0451  -25.2678 H   0  0  0  0  0  0  0  0  0  0  0  0
    1.5279   27.1279  -23.8740 H   0  0  0  0  0  0  0  0  0  0  0  0
    0.8361   24.5430  -27.8278 H   0  0  0  0  0  0  0  0  0  0  0  0
   -0.4899   24.8348  -29.9166 H   0  0  0  0  0  0  0  0  0  0  0  0
   -7.2315   24.2234  -30.5335 H   0  0  0  0  0  0  0  0  0  0  0  0
   -8.2508   22.2175  -31.5992 H   0  0  0  0  0  0  0  0  0  0  0  0
   -4.5490   19.2024  -32.6640 H   0  0  0  0  0  0  0  0  0  0  0  0
   -4.5650   17.6865  -31.6502 H   0  0  0  0  0  0  0  0  0  0  0  0
   -3.7341   17.7202  -34.2223 H   0  0  0  0  0  0  0  0  0  0  0  0
   -4.5406   16.3029  -33.4477 H   0  0  0  0  0  0  0  0  0  0  0  0
   -7.6916   16.9435  -34.8758 H   0  0  0  0  0  0  0  0  0  0  0  0
   -6.5979   15.6816  -34.1431 H   0  0  0  0  0  0  0  0  0  0  0  0
   -8.2981   17.5056  -32.7826 H   0  0  0  0  0  0  0  0  0  0  0  0
   -7.0469   16.3683  -32.0956 H   0  0  0  0  0  0  0  0  0  0  0  0
   -4.3173   20.4969  -32.1304 H   0  0  0  0  0  0  0  0  0  0  0  0
  1  2  2  0
  2  3  1  0
  3  4  1  0
  4  5  2  0
  5  6  1  0
  6  7  2  0
  7  8  1  0
  8  9  2  0
  8 10  2  0
  8 11  1  0
 11 12  1  0
 12 13  1  0
 13 14  1  0
 14 15  1  0
  7 16  1  0
 16 17  2  0
  2 18  1  0
 18 19  2  0
 19 20  1  0
 20 21  2  0
 21 22  1  0
 22 23  2  0
 22 24  2  0
 22 25  1  0
 25 26  1  0
 26 27  1  0
 27 28  1  0
 28 29  1  0
 29 30  1  0
 21 31  1  0
 31 32  2  0
 32 33  1  0
 17  4  1  0
 32 18  1  0
 15 11  1  0
 30 25  1  0
  5 34  1  0
  6 35  1  0
 11 36  1  0
 12 37  1  0
 12 38  1  0
 13 39  1  0
 13 40  1  0
 14 41  1  0
 14 42  1  0
 15 43  1  0
 15 44  1  0
 16 45  1  0
 17 46  1  0
 19 47  1  0
 20 48  1  0
 26 49  1  0
 26 50  1  0
 27 51  1  0
 27 52  1  0
 29 53  1  0
 29 54  1  0
 30 55  1  0
 30 56  1  0
 31 57  1  0
M  CHG  2   3  -1  11   1
M  END
>  <UniqueID>  (10) 
9

>  <SMILES>  (10) 
O=C([N-]c1ccc(S(=O)(=O)[NH+]2CCCC2)cc1)c1ccc(S(=O)(=O)N2CCOCC2)cc1Cl

>  <Energy>  (10) 
77.78756239238365

>  <Genealogy>  (10) 
O=C([N-]c1ccc(S(=O)(=O)[NH+]2CCCC2)cc1)c1ccc(S(=O)(=O)N2CCOCC2)cc1Cl (protonated)
O=C([N-]c1ccc(S(=O)(=O)[NH+]2CCCC2)cc1)c1ccc(S(=O)(=O)N2CCOCC2)cc1Cl (3D coordinates assigned)
O=C([N-]c1ccc(S(=O)(=O)[NH+]2CCCC2)cc1)c1ccc(S(=O)(=O)N2CCOCC2)cc1Cl (nonaromatic ring conformer: 77.78756239238365 kcal/mol)

>  <smiles>  (10) 
O=C(Nc1ccc(S(=O)(=O)N2CCCC2)cc1)c1ccc(S(=O)(=O)N2CCOCC2)cc1Cl

>  <score_type>  (10) 
oracle

>  <origin>  (10) 
adgpu

>  <m_score__min__energy>  (10) 
-12.44

>  <m_primary>  (10) 
energy

$$$$
10:0
     RDKit          3D

 55 58  0  0  0  0  0  0  0  0999 V2000
   -1.6350   18.5680  -26.7840 C   0  0  0  0  0  0  0  0  0  0  0  0
   -1.7450   19.7840  -27.6550 C   0  0  0  0  0  0  0  0  0  0  0  0
   -0.8810   19.9560  -28.7480 C   0  0  0  0  0  0  0  0  0  0  0  0
   -1.0140   21.0700  -29.5820 C   0  0  0  0  0  0  0  0  0  0  0  0
   -2.0090   22.0320  -29.3290 C   0  0  0  0  0  0  0  0  0  0  0  0
   -2.1930   23.1670  -30.1850 N   0  0  0  0  0  0  0  0  0  0  0  0
   -3.1180   24.2380  -29.9620 C   0  0  0  0  0  0  0  0  0  0  0  0
   -2.7260   25.2600  -29.3400 O   0  0  0  0  0  0  0  0  0  0  0  0
   -4.4470   24.1940  -30.5070 N   0  0  0  0  0  0  0  0  0  0  0  0
   -5.4050   25.3000  -30.4040 C   0  0  0  0  0  0  0  0  0  0  0  0
   -6.7910   24.7030  -30.7480 C   0  0  0  0  0  0  0  0  0  0  0  0
   -6.4930   23.2710  -31.0180 C   0  0  0  0  0  0  0  0  0  0  0  0
   -7.3840   22.2650  -31.3940 C   0  0  0  0  0  0  0  0  0  0  0  0
   -6.8810   20.9740  -31.6390 C   0  0  0  0  0  0  0  0  0  0  0  0
   -7.9820   19.6730  -32.0900 S   0  0  0  0  0  0  0  0  0  0  0  0
   -9.1460   20.2390  -32.8570 O   0  0  0  0  0  0  0  0  0  0  0  0
   -8.5040   19.0250  -30.8380 O   0  0  0  0  0  0  0  0  0  0  0  0
   -7.1460   18.4820  -33.0590 N   0  0  0  0  0  0  0  0  0  0  0  0
   -6.2510   17.6730  -32.2040 C   0  0  0  0  0  0  0  0  0  0  0  0
   -5.1830   16.9510  -33.0320 C   0  0  0  0  0  0  0  0  0  0  0  0
   -4.2630   17.9600  -33.7620 C   0  0  0  0  0  0  0  0  0  0  0  0
   -2.9530   18.1780  -32.9940 C   0  0  0  0  0  0  0  0  0  0  0  0
   -4.9710   19.3130  -34.0160 C   0  0  0  0  0  0  0  0  0  0  0  0
   -6.4790   19.1160  -34.2240 C   0  0  0  0  0  0  0  0  0  0  0  0
   -5.5000   20.7210  -31.4990 C   0  0  0  0  0  0  0  0  0  0  0  0
   -4.6240   21.7510  -31.1180 C   0  0  0  0  0  0  0  0  0  0  0  0
   -5.1570   23.0200  -30.8710 C   0  0  0  0  0  0  0  0  0  0  0  0
   -2.8910   21.8380  -28.2610 C   0  0  0  0  0  0  0  0  0  0  0  0
   -2.7620   20.7230  -27.4280 C   0  0  0  0  0  0  0  0  0  0  0  0
   -1.6624   18.8706  -25.7268 H   0  0  0  0  0  0  0  0  0  0  0  0
   -2.4755   17.8899  -26.9932 H   0  0  0  0  0  0  0  0  0  0  0  0
   -0.6865   18.0517  -26.9932 H   0  0  0  0  0  0  0  0  0  0  0  0
   -0.0965   19.2115  -28.9489 H   0  0  0  0  0  0  0  0  0  0  0  0
   -0.3374   21.1951  -30.4403 H   0  0  0  0  0  0  0  0  0  0  0  0
   -5.4083   25.7080  -29.3825 H   0  0  0  0  0  0  0  0  0  0  0  0
   -5.1424   26.1230  -31.0850 H   0  0  0  0  0  0  0  0  0  0  0  0
   -7.4856   24.8075  -29.9014 H   0  0  0  0  0  0  0  0  0  0  0  0
   -7.2770   25.2075  -31.5961 H   0  0  0  0  0  0  0  0  0  0  0  0
   -8.4584   22.4771  -31.4968 H   0  0  0  0  0  0  0  0  0  0  0  0
   -5.7542   18.3352  -31.4796 H   0  0  0  0  0  0  0  0  0  0  0  0
   -6.8590   16.9145  -31.6892 H   0  0  0  0  0  0  0  0  0  0  0  0
   -4.5718   16.3270  -32.3634 H   0  0  0  0  0  0  0  0  0  0  0  0
   -5.6882   16.3310  -33.7872 H   0  0  0  0  0  0  0  0  0  0  0  0
   -4.0236   17.5186  -34.7407 H   0  0  0  0  0  0  0  0  0  0  0  0
   -3.1520   18.1449  -31.9127 H   0  0  0  0  0  0  0  0  0  0  0  0
   -2.2364   17.3868  -33.2593 H   0  0  0  0  0  0  0  0  0  0  0  0
   -2.5313   19.1587  -33.2593 H   0  0  0  0  0  0  0  0  0  0  0  0
   -4.8107   19.9709  -33.1491 H   0  0  0  0  0  0  0  0  0  0  0  0
   -4.5483   19.7636  -34.9261 H   0  0  0  0  0  0  0  0  0  0  0  0
   -6.9402   20.0990  -34.4001 H   0  0  0  0  0  0  0  0  0  0  0  0
   -6.6079   18.4427  -35.0843 H   0  0  0  0  0  0  0  0  0  0  0  0
   -5.1070   19.7114  -31.6893 H   0  0  0  0  0  0  0  0  0  0  0  0
   -3.5448   21.5638  -31.0164 H   0  0  0  0  0  0  0  0  0  0  0  0
   -3.6922   22.5684  -28.0752 H   0  0  0  0  0  0  0  0  0  0  0  0
   -3.4612   20.5813  -26.5907 H   0  0  0  0  0  0  0  0  0  0  0  0
  1  2  1  0
  2  3  2  0
  3  4  1  0
  4  5  2  0
  5  6  1  0
  6  7  1  0
  7  8  2  0
  7  9  1  0
  9 10  1  0
 10 11  1  0
 11 12  1  0
 12 13  2  0
 13 14  1  0
 14 15  1  0
 15 16  2  0
 15 17  2  0
 15 18  1  0
 18 19  1  0
 19 20  1  0
 20 21  1  0
 21 22  1  0
 21 23  1  0
 23 24  1  0
 14 25  2  0
 25 26  1  0
 26 27  2  0
  5 28  1  0
 28 29  2  0
 29  2  1  0
 27  9  1  0
 27 12  1  0
 24 18  1  0
  1 30  1  0
  1 31  1  0
  1 32  1  0
  3 33  1  0
  4 34  1  0
 10 35  1  0
 10 36  1  0
 11 37  1  0
 11 38  1  0
 13 39  1  0
 19 40  1  0
 19 41  1  0
 20 42  1  0
 20 43  1  0
 21 44  1  0
 22 45  1  0
 22 46  1  0
 22 47  1  0
 23 48  1  0
 23 49  1  0
 24 50  1  0
 24 51  1  0
 25 52  1  0
 26 53  1  0
 28 54  1  0
 29 55  1  0
M  CHG  1   6  -1
M  END
>  <UniqueID>  (11) 
10

>  <SMILES>  (11) 
Cc1ccc([N-]C(=O)N2CCc3cc(S(=O)(=O)N4CCC(C)CC4)ccc32)cc1

>  <Energy>  (11) 
81.46343291531204

>  <Genealogy>  (11) 
Cc1ccc([N-]C(=O)N2CCc3cc(S(=O)(=O)N4CCC(C)CC4)ccc32)cc1 (protonated)
Cc1ccc([N-]C(=O)N2CCc3cc(S(=O)(=O)N4CCC(C)CC4)ccc32)cc1 (3D coordinates assigned)
Cc1ccc([N-]C(=O)N2CCc3cc(S(=O)(=O)N4CCC(C)CC4)ccc32)cc1 (nonaromatic ring conformer: 81.46343291531204 kcal/mol)

>  <smiles>  (11) 
Cc1ccc(NC(=O)N2CCc3cc(S(=O)(=O)N4CCC(C)CC4)ccc32)cc1

>  <score_type>  (11) 
oracle

>  <origin>  (11) 
adgpu

>  <m_score__min__energy>  (11) 
-11.24

>  <m_primary>  (11) 
energy

$$$$
11:0
     RDKit          3D

 42 44  0  0  0  0  0  0  0  0999 V2000
   -7.6120   17.7430  -32.4320 C   0  0  0  0  0  0  0  0  0  0  0  0
   -7.1910   19.1830  -32.4200 C   0  0  0  0  0  0  0  0  0  0  0  0
   -5.8400   19.5230  -32.5640 C   0  0  0  0  0  0  0  0  0  0  0  0
   -5.4350   20.8660  -32.5430 C   0  0  0  0  0  0  0  0  0  0  0  0
   -3.9770   21.2040  -32.7060 C   0  0  0  0  0  0  0  0  0  0  0  0
   -6.3950   21.8820  -32.3460 C   0  0  0  0  0  0  0  0  0  0  0  0
   -5.9960   23.2580  -32.3890 N   0  0  0  0  0  0  0  0  0  0  0  0
   -5.8340   24.1580  -30.9160 S   0  0  0  0  0  0  0  0  0  0  0  0
   -7.0350   23.9060  -30.0490 O   0  0  0  0  0  0  0  0  0  0  0  0
   -5.7610   25.6280  -31.2170 O   0  0  0  0  0  0  0  0  0  0  0  0
   -4.3820   23.6410  -30.0610 C   0  0  0  0  0  0  0  0  0  0  0  0
   -4.2560   22.3020  -29.6160 C   0  0  0  0  0  0  0  0  0  0  0  0
   -3.0760   21.8650  -28.9880 C   0  0  0  0  0  0  0  0  0  0  0  0
   -2.0420   22.7890  -28.8340 C   0  0  0  0  0  0  0  0  0  0  0  0
   -2.1630   24.0820  -29.2550 C   0  0  0  0  0  0  0  0  0  0  0  0
   -3.3190   24.5490  -29.8750 C   0  0  0  0  0  0  0  0  0  0  0  0
   -1.0480   24.7800  -28.9720 N   0  0  0  0  0  0  0  0  0  0  0  0
   -0.2580   23.8550  -28.3690 C   0  0  0  0  0  0  0  0  0  0  0  0
    1.2280   24.2240  -27.7880 S   0  0  0  0  0  0  0  0  0  0  0  0
   -0.8290   22.6220  -28.2820 N   0  0  0  0  0  0  0  0  0  0  0  0
   -0.3070   21.4260  -27.6220 C   0  0  0  0  0  0  0  0  0  0  0  0
   -7.7480   21.5360  -32.1320 C   0  0  0  0  0  0  0  0  0  0  0  0
   -8.7960   22.5840  -31.8690 C   0  0  0  0  0  0  0  0  0  0  0  0
   -8.1350   20.1900  -32.1900 C   0  0  0  0  0  0  0  0  0  0  0  0
   -7.7172   17.3831  -31.3979 H   0  0  0  0  0  0  0  0  0  0  0  0
   -8.5758   17.6471  -32.9535 H   0  0  0  0  0  0  0  0  0  0  0  0
   -6.8517   17.1430  -32.9535 H   0  0  0  0  0  0  0  0  0  0  0  0
   -5.0894   18.7296  -32.6948 H   0  0  0  0  0  0  0  0  0  0  0  0
   -3.5125   21.3117  -31.7147 H   0  0  0  0  0  0  0  0  0  0  0  0
   -3.4738   20.3987  -33.2612 H   0  0  0  0  0  0  0  0  0  0  0  0
   -3.8794   22.1486  -33.2612 H   0  0  0  0  0  0  0  0  0  0  0  0
   -6.1440   23.7960  -33.2700 H   0  0  0  0  0  0  0  0  0  0  0  0
   -5.0883   21.5980  -29.7629 H   0  0  0  0  0  0  0  0  0  0  0  0
   -2.9718   20.8300  -28.6304 H   0  0  0  0  0  0  0  0  0  0  0  0
   -3.4006   25.5938  -30.2094 H   0  0  0  0  0  0  0  0  0  0  0  0
   -0.3634   21.5551  -26.5311 H   0  0  0  0  0  0  0  0  0  0  0  0
   -0.9057   20.5524  -27.9192 H   0  0  0  0  0  0  0  0  0  0  0  0
    0.7407   21.2709  -27.9192 H   0  0  0  0  0  0  0  0  0  0  0  0
   -8.9232   22.7112  -30.7838 H   0  0  0  0  0  0  0  0  0  0  0  0
   -8.4803   23.5384  -32.3155 H   0  0  0  0  0  0  0  0  0  0  0  0
   -9.7504   22.2683  -32.3155 H   0  0  0  0  0  0  0  0  0  0  0  0
   -9.1931   19.9222  -32.0531 H   0  0  0  0  0  0  0  0  0  0  0  0
  1  2  1  0
  2  3  2  0
  3  4  1  0
  4  5  1  0
  4  6  2  0
  6  7  1  0
  7  8  1  0
  8  9  2  0
  8 10  2  0
  8 11  1  0
 11 12  2  0
 12 13  1  0
 13 14  2  0
 14 15  1  0
 15 16  2  0
 15 17  1  0
 17 18  1  0
 18 19  2  0
 18 20  1  0
 20 21  1  0
  6 22  1  0
 22 23  1  0
 22 24  2  0
 24  2  1  0
 16 11  1  0
 20 14  1  0
  1 25  1  0
  1 26  1  0
  1 27  1  0
  3 28  1  0
  5 29  1  0
  5 30  1  0
  5 31  1  0
  7 32  1  0
 12 33  1  0
 13 34  1  0
 16 35  1  0
 21 36  1  0
 21 37  1  0
 21 38  1  0
 23 39  1  0
 23 40  1  0
 23 41  1  0
 24 42  1  0
M  CHG  1  17  -1
M  END
>  <UniqueID>  (12) 
11

>  <SMILES>  (12) 
Cc1cc(C)c(NS(=O)(=O)c2ccc3c(c2)[n-]c(=S)n3C)c(C)c1

>  <Energy>  (12) 
87.29816859494623

>  <Genealogy>  (12) 
Cc1cc(C)c(NS(=O)(=O)c2ccc3c(c2)[n-]c(=S)n3C)c(C)c1 (protonated)
Cc1cc(C)c(NS(=O)(=O)c2ccc3c(c2)[n-]c(=S)n3C)c(C)c1 (3D coordinates assigned)
Cc1cc(C)c(NS(=O)(=O)c2ccc3c(c2)[n-]c(=S)n3C)c(C)c1 (optimized conformer: 87.29816859494623 kcal/mol)

>  <smiles>  (12) 
Cc1cc(C)c(NS(=O)(=O)c2ccc3c(c2)[nH]c(=S)n3C)c(C)c1

>  <score_type>  (12) 
oracle

>  <origin>  (12) 
adgpu

>  <m_score__min__energy>  (12) 
-9.8000000000000007

>  <m_primary>  (12) 
energy

$$$$
12:0
     RDKit          3D

 46 48  0  0  0  0  0  0  0  0999 V2000
   -5.7660   26.3020  -30.8360 O   0  0  0  0  0  0  0  0  0  0  0  0
   -5.5010   25.0700  -30.7820 C   0  0  0  0  0  0  0  0  0  0  0  0
   -4.7990   24.5180  -29.5810 C   0  0  0  0  0  0  0  0  0  0  0  0
   -3.3930   24.7450  -29.6760 O   0  0  0  0  0  0  0  0  0  0  0  0
   -2.4470   24.4270  -28.6870 C   0  0  0  0  0  0  0  0  0  0  0  0
   -2.5580   23.2810  -27.8730 C   0  0  0  0  0  0  0  0  0  0  0  0
   -1.5820   23.0040  -26.9100 C   0  0  0  0  0  0  0  0  0  0  0  0
   -0.4960   23.8650  -26.7440 C   0  0  0  0  0  0  0  0  0  0  0  0
   -0.3820   25.0080  -27.5400 C   0  0  0  0  0  0  0  0  0  0  0  0
   -1.3550   25.2890  -28.5070 C   0  0  0  0  0  0  0  0  0  0  0  0
   -1.2300   26.4300  -29.2930 O   0  0  0  0  0  0  0  0  0  0  0  0
   -5.7970   24.2100  -31.8880 N   0  0  0  0  0  0  0  0  0  0  0  0
   -5.4830   22.8130  -31.9600 C   0  0  0  0  0  0  0  0  0  0  0  0
   -6.5220   21.9120  -32.2240 C   0  0  0  0  0  0  0  0  0  0  0  0
   -6.2720   20.5350  -32.2890 C   0  0  0  0  0  0  0  0  0  0  0  0
   -7.5970   19.4050  -32.5550 S   0  0  0  0  0  0  0  0  0  0  0  0
   -8.2280   19.0480  -31.2370 O   0  0  0  0  0  0  0  0  0  0  0  0
   -8.6360   20.0650  -33.4190 O   0  0  0  0  0  0  0  0  0  0  0  0
   -7.0010   17.9690  -33.3510 N   0  0  0  0  0  0  0  0  0  0  0  0
   -6.0800   18.3400  -34.4410 C   0  0  0  0  0  0  0  0  0  0  0  0
   -5.3060   17.1090  -34.9540 C   0  0  0  0  0  0  0  0  0  0  0  0
   -5.8940   15.9110  -34.4850 O   0  0  0  0  0  0  0  0  0  0  0  0
   -5.7770   15.8400  -33.0740 C   0  0  0  0  0  0  0  0  0  0  0  0
   -6.3170   17.1070  -32.3760 C   0  0  0  0  0  0  0  0  0  0  0  0
   -4.9690   20.0600  -32.1010 C   0  0  0  0  0  0  0  0  0  0  0  0
   -3.9200   20.9550  -31.8770 C   0  0  0  0  0  0  0  0  0  0  0  0
   -4.1660   22.3350  -31.8200 C   0  0  0  0  0  0  0  0  0  0  0  0
   -3.1040   23.2220  -31.6540 O   0  0  0  0  0  0  0  0  0  0  0  0
   -5.1852   25.0118  -28.6771 H   0  0  0  0  0  0  0  0  0  0  0  0
   -4.9819   23.4346  -29.5285 H   0  0  0  0  0  0  0  0  0  0  0  0
   -3.4151   22.6025  -27.9957 H   0  0  0  0  0  0  0  0  0  0  0  0
   -1.6706   22.1053  -26.2819 H   0  0  0  0  0  0  0  0  0  0  0  0
    0.2703   23.6438  -25.9865 H   0  0  0  0  0  0  0  0  0  0  0  0
    0.4727   25.6875  -27.4068 H   0  0  0  0  0  0  0  0  0  0  0  0
   -7.5434   22.2887  -32.3817 H   0  0  0  0  0  0  0  0  0  0  0  0
   -6.6596   18.7717  -35.2703 H   0  0  0  0  0  0  0  0  0  0  0  0
   -5.3563   19.0725  -34.0541 H   0  0  0  0  0  0  0  0  0  0  0  0
   -5.3175   17.1092  -36.0539 H   0  0  0  0  0  0  0  0  0  0  0  0
   -4.2728   17.1629  -34.5803 H   0  0  0  0  0  0  0  0  0  0  0  0
   -6.3455   14.9692  -32.7154 H   0  0  0  0  0  0  0  0  0  0  0  0
   -4.7083   15.7510  -32.8293 H   0  0  0  0  0  0  0  0  0  0  0  0
   -7.0270   16.8139  -31.5886 H   0  0  0  0  0  0  0  0  0  0  0  0
   -5.4754   17.6608  -31.9343 H   0  0  0  0  0  0  0  0  0  0  0  0
   -4.7702   18.9785  -32.1297 H   0  0  0  0  0  0  0  0  0  0  0  0
   -2.8960   20.5758  -31.7446 H   0  0  0  0  0  0  0  0  0  0  0  0
   -3.2510   24.2230  -31.5940 H   0  0  0  0  0  0  0  0  0  0  0  0
  1  2  2  0
  2  3  1  0
  3  4  1  0
  4  5  1  0
  5  6  2  0
  6  7  1  0
  7  8  2  0
  8  9  1  0
  9 10  2  0
 10 11  1  0
  2 12  1  0
 12 13  1  0
 13 14  2  0
 14 15  1  0
 15 16  1  0
 16 17  2  0
 16 18  2  0
 16 19  1  0
 19 20  1  0
 20 21  1  0
 21 22  1  0
 22 23  1  0
 23 24  1  0
 15 25  2  0
 25 26  1  0
 26 27  2  0
 27 28  1  0
 10  5  1  0
 27 13  1  0
 24 19  1  0
  3 29  1  0
  3 30  1  0
  6 31  1  0
  7 32  1  0
  8 33  1  0
  9 34  1  0
 14 35  1  0
 20 36  1  0
 20 37  1  0
 21 38  1  0
 21 39  1  0
 23 40  1  0
 23 41  1  0
 24 42  1  0
 24 43  1  0
 25 44  1  0
 26 45  1  0
 28 46  1  0
M  CHG  2  11  -1  12  -1
M  END
>  <UniqueID>  (13) 
12

>  <SMILES>  (13) 
O=C(COc1ccccc1[O-])[N-]c1cc(S(=O)(=O)N2CCOCC2)ccc1O

>  <Energy>  (13) 
58.77786567504287

>  <Genealogy>  (13) 
O=C(COc1ccccc1[O-])[N-]c1cc(S(=O)(=O)N2CCOCC2)ccc1O (protonated)
O=C(COc1ccccc1[O-])[N-]c1cc(S(=O)(=O)N2CCOCC2)ccc1O (3D coordinates assigned)
O=C(COc1ccccc1[O-])[N-]c1cc(S(=O)(=O)N2CCOCC2)ccc1O (nonaromatic ring conformer: 58.77786567504287 kcal/mol)

>  <smiles>  (13) 
O=C(COc1ccccc1O)Nc1cc(S(=O)(=O)N2CCOCC2)ccc1O

>  <score_type>  (13) 
oracle

>  <origin>  (13) 
adgpu

>  <m_score__min__energy>  (13) 
-13.34

>  <m_primary>  (13) 
energy

$$$$
13:0
     RDKit          3D

 46 49  0  0  0  0  0  0  0  0999 V2000
   -0.1780   21.4830  -29.6930 O   0  0  0  0  0  0  0  0  0  0  0  0
   -1.1720   21.6630  -28.9390 C   0  0  0  0  0  0  0  0  0  0  0  0
   -0.9470   22.0710  -27.5160 C   0  0  0  0  0  0  0  0  0  0  0  0
   -1.0240   23.8860  -27.3460 S   0  0  0  0  0  0  0  0  0  0  0  0
   -2.4980   24.0650  -28.3480 C   0  0  0  0  0  0  0  0  0  0  0  0
   -3.6340   23.3560  -28.1080 N   0  0  0  0  0  0  0  0  0  0  0  0
   -4.4490   23.7930  -29.0780 C   0  0  0  0  0  0  0  0  0  0  0  0
   -5.7600   23.4160  -29.3430 C   0  0  0  0  0  0  0  0  0  0  0  0
   -6.3980   24.0340  -30.4340 C   0  0  0  0  0  0  0  0  0  0  0  0
   -5.6990   24.9920  -31.2060 C   0  0  0  0  0  0  0  0  0  0  0  0
   -4.4080   25.3230  -30.8970 N   0  0  0  0  0  0  0  0  0  0  0  0
   -3.8130   24.7160  -29.8410 C   0  0  0  0  0  0  0  0  0  0  0  0
   -2.5630   24.9180  -29.4040 N   0  0  0  0  0  0  0  0  0  0  0  0
   -2.5050   21.4090  -29.4090 N   0  0  0  0  0  0  0  0  0  0  0  0
   -2.8390   21.1440  -30.7820 C   0  0  0  0  0  0  0  0  0  0  0  0
   -1.9290   21.4920  -31.7910 C   0  0  0  0  0  0  0  0  0  0  0  0
   -2.2220   21.2270  -33.1310 C   0  0  0  0  0  0  0  0  0  0  0  0
   -3.4190   20.5990  -33.4760 C   0  0  0  0  0  0  0  0  0  0  0  0
   -4.3280   20.2220  -32.4790 C   0  0  0  0  0  0  0  0  0  0  0  0
   -5.8210   19.4020  -32.9310 S   0  0  0  0  0  0  0  0  0  0  0  0
   -6.4420   20.0780  -34.1230 O   0  0  0  0  0  0  0  0  0  0  0  0
   -5.4900   17.9810  -33.2940 O   0  0  0  0  0  0  0  0  0  0  0  0
   -6.9370   19.4260  -31.5830 N   0  0  0  0  0  0  0  0  0  0  0  0
   -7.5000   20.7680  -31.4050 C   0  0  0  0  0  0  0  0  0  0  0  0
   -8.8170   20.8380  -32.1650 C   0  0  0  0  0  0  0  0  0  0  0  0
   -9.1910   19.3980  -32.4610 C   0  0  0  0  0  0  0  0  0  0  0  0
   -8.0840   18.5520  -31.8500 C   0  0  0  0  0  0  0  0  0  0  0  0
   -4.0340   20.4890  -31.1330 C   0  0  0  0  0  0  0  0  0  0  0  0
   -1.7227   21.6157  -26.8828 H   0  0  0  0  0  0  0  0  0  0  0  0
    0.0504   21.7284  -27.2032 H   0  0  0  0  0  0  0  0  0  0  0  0
   -6.2769   22.6663  -28.7260 H   0  0  0  0  0  0  0  0  0  0  0  0
   -7.4365   23.7734  -30.6860 H   0  0  0  0  0  0  0  0  0  0  0  0
   -6.1970   25.4738  -32.0603 H   0  0  0  0  0  0  0  0  0  0  0  0
   -3.2620   21.3180  -28.6940 H   0  0  0  0  0  0  0  0  0  0  0  0
   -0.9781   21.9769  -31.5254 H   0  0  0  0  0  0  0  0  0  0  0  0
   -1.5071   21.5142  -33.9161 H   0  0  0  0  0  0  0  0  0  0  0  0
   -3.6495   20.3995  -34.5329 H   0  0  0  0  0  0  0  0  0  0  0  0
   -7.6767   20.9585  -30.3361 H   0  0  0  0  0  0  0  0  0  0  0  0
   -6.8008   21.5263  -31.7873 H   0  0  0  0  0  0  0  0  0  0  0  0
   -9.5916   21.3175  -31.5485 H   0  0  0  0  0  0  0  0  0  0  0  0
   -8.7259   21.4335  -33.0854 H   0  0  0  0  0  0  0  0  0  0  0  0
  -10.1599   19.1512  -32.0024 H   0  0  0  0  0  0  0  0  0  0  0  0
   -9.2905   19.2180  -33.5416 H   0  0  0  0  0  0  0  0  0  0  0  0
   -8.4353   18.1004  -30.9105 H   0  0  0  0  0  0  0  0  0  0  0  0
   -7.7959   17.7454  -32.5402 H   0  0  0  0  0  0  0  0  0  0  0  0
   -4.7417   20.1845  -30.3479 H   0  0  0  0  0  0  0  0  0  0  0  0
  1  2  2  0
  2  3  1  0
  3  4  1  0
  4  5  1  0
  5  6  2  0
  6  7  1  0
  7  8  2  0
  8  9  1  0
  9 10  2  0
 10 11  1  0
 11 12  2  0
 12 13  1  0
  2 14  1  0
 14 15  1  0
 15 16  2  0
 16 17  1  0
 17 18  2  0
 18 19  1  0
 19 20  1  0
 20 21  2  0
 20 22  2  0
 20 23  1  0
 23 24  1  0
 24 25  1  0
 25 26  1  0
 26 27  1  0
 19 28  2  0
 13  5  1  0
 28 15  1  0
 12  7  1  0
 27 23  1  0
  3 29  1  0
  3 30  1  0
  8 31  1  0
  9 32  1  0
 10 33  1  0
 14 34  1  0
 16 35  1  0
 17 36  1  0
 18 37  1  0
 24 38  1  0
 24 39  1  0
 25 40  1  0
 25 41  1  0
 26 42  1  0
 26 43  1  0
 27 44  1  0
 27 45  1  0
 28 46  1  0
M  CHG  1  13  -1
M  END
>  <UniqueID>  (14) 
13

>  <SMILES>  (14) 
O=C(CSc1nc2cccnc2[n-]1)Nc1cccc(S(=O)(=O)N2CCCC2)c1

>  <Energy>  (14) 
85.43963481606984

>  <Genealogy>  (14) 
O=C(CSc1nc2cccnc2[n-]1)Nc1cccc(S(=O)(=O)N2CCCC2)c1 (protonated)
O=C(CSc1nc2cccnc2[n-]1)Nc1cccc(S(=O)(=O)N2CCCC2)c1 (3D coordinates assigned)
O=C(CSc1nc2cccnc2[n-]1)Nc1cccc(S(=O)(=O)N2CCCC2)c1 (nonaromatic ring conformer: 85.43963481606984 kcal/mol)

>  <smiles>  (14) 
O=C(CSc1nc2cccnc2[nH]1)Nc1cccc(S(=O)(=O)N2CCCC2)c1

>  <score_type>  (14) 
oracle

>  <origin>  (14) 
adgpu

>  <m_score__min__energy>  (14) 
-10.33

>  <m_primary>  (14) 
energy

$$$$
14:0
     RDKit          3D

 46 48  0  0  0  0  0  0  0  0999 V2000
   -5.6640   25.3410  -30.4150 C   0  0  0  0  0  0  0  0  0  0  0  0
   -4.2400   25.6480  -30.5040 N   0  0  0  0  0  0  0  0  0  0  0  0
   -3.3130   24.3750  -29.7720 S   0  0  0  0  0  0  0  0  0  0  0  0
   -1.9820   24.9060  -29.3160 O   0  0  0  0  0  0  0  0  0  0  0  0
   -4.0550   23.8610  -28.5710 O   0  0  0  0  0  0  0  0  0  0  0  0
   -3.0710   23.0540  -30.9140 C   0  0  0  0  0  0  0  0  0  0  0  0
   -4.0620   22.7390  -31.8550 C   0  0  0  0  0  0  0  0  0  0  0  0
   -3.8830   21.6690  -32.7350 C   0  0  0  0  0  0  0  0  0  0  0  0
   -2.7010   20.9190  -32.7080 C   0  0  0  0  0  0  0  0  0  0  0  0
   -2.5750   19.7820  -33.5780 N   0  0  0  0  0  0  0  0  0  0  0  0
   -3.4560   18.8390  -33.7340 C   0  0  0  0  0  0  0  0  0  0  0  0
   -4.5700   18.7830  -32.9530 N   0  0  0  0  0  0  0  0  0  0  0  0
   -5.4930   17.7970  -33.1050 C   0  0  0  0  0  0  0  0  0  0  0  0
   -6.6400   17.7540  -32.2420 N   0  0  0  0  0  0  0  0  0  0  0  0
   -6.4880   17.2760  -30.8660 C   0  0  0  0  0  0  0  0  0  0  0  0
   -7.9360   18.2330  -32.7360 C   0  0  0  0  0  0  0  0  0  0  0  0
   -8.1250   19.6950  -32.4270 C   0  0  0  0  0  0  0  0  0  0  0  0
   -7.0700   20.6060  -32.6160 C   0  0  0  0  0  0  0  0  0  0  0  0
   -7.2430   21.9580  -32.3030 C   0  0  0  0  0  0  0  0  0  0  0  0
   -8.4670   22.4080  -31.7990 C   0  0  0  0  0  0  0  0  0  0  0  0
   -9.5270   21.5120  -31.6300 C   0  0  0  0  0  0  0  0  0  0  0  0
   -9.3580   20.1600  -31.9440 C   0  0  0  0  0  0  0  0  0  0  0  0
   -5.2980   16.8180  -34.0850 C   0  0  0  0  0  0  0  0  0  0  0  0
   -4.1420   16.8770  -34.8630 C   0  0  0  0  0  0  0  0  0  0  0  0
   -3.2440   17.8780  -34.6700 N   0  0  0  0  0  0  0  0  0  0  0  0
   -1.7120   21.2270  -31.7550 C   0  0  0  0  0  0  0  0  0  0  0  0
   -1.9000   22.2860  -30.8630 C   0  0  0  0  0  0  0  0  0  0  0  0
   -5.9599   25.2772  -29.3575 H   0  0  0  0  0  0  0  0  0  0  0  0
   -6.2420   26.1352  -30.9102 H   0  0  0  0  0  0  0  0  0  0  0  0
   -5.8634   24.3792  -30.9102 H   0  0  0  0  0  0  0  0  0  0  0  0
   -4.9841   23.3370  -31.9003 H   0  0  0  0  0  0  0  0  0  0  0  0
   -4.6757   21.4140  -33.4537 H   0  0  0  0  0  0  0  0  0  0  0  0
   -6.7452   18.0849  -30.1663 H   0  0  0  0  0  0  0  0  0  0  0  0
   -7.1582   16.4199  -30.6991 H   0  0  0  0  0  0  0  0  0  0  0  0
   -5.4464   16.9642  -30.6991 H   0  0  0  0  0  0  0  0  0  0  0  0
   -7.9821   18.0867  -33.8253 H   0  0  0  0  0  0  0  0  0  0  0  0
   -8.7335   17.6634  -32.2364 H   0  0  0  0  0  0  0  0  0  0  0  0
   -6.1058   20.2538  -33.0113 H   0  0  0  0  0  0  0  0  0  0  0  0
   -6.4159   22.6675  -32.4534 H   0  0  0  0  0  0  0  0  0  0  0  0
   -8.5962   23.4680  -31.5351 H   0  0  0  0  0  0  0  0  0  0  0  0
  -10.4947   21.8710  -31.2497 H   0  0  0  0  0  0  0  0  0  0  0  0
  -10.1946   19.4581  -31.8120 H   0  0  0  0  0  0  0  0  0  0  0  0
   -6.0394   16.0200  -34.2385 H   0  0  0  0  0  0  0  0  0  0  0  0
   -3.9574   16.1132  -35.6327 H   0  0  0  0  0  0  0  0  0  0  0  0
   -0.7878   20.6319  -31.7123 H   0  0  0  0  0  0  0  0  0  0  0  0
   -1.1252   22.5179  -30.1174 H   0  0  0  0  0  0  0  0  0  0  0  0
  1  2  1  0
  2  3  1  0
  3  4  2  0
  3  5  2  0
  3  6  1  0
  6  7  2  0
  7  8  1  0
  8  9  2  0
  9 10  1  0
 10 11  2  3
 11 12  1  0
 12 13  2  0
 13 14  1  0
 14 15  1  0
 14 16  1  0
 16 17  1  0
 17 18  2  0
 18 19  1  0
 19 20  2  0
 20 21  1  0
 21 22  2  0
 13 23  1  0
 23 24  2  0
 24 25  1  0
  9 26  1  0
 26 27  2  0
 27  6  1  0
 25 11  1  0
 22 17  1  0
  1 28  1  0
  1 29  1  0
  1 30  1  0
  7 31  1  0
  8 32  1  0
 15 33  1  0
 15 34  1  0
 15 35  1  0
 16 36  1  0
 16 37  1  0
 18 38  1  0
 19 39  1  0
 20 40  1  0
 21 41  1  0
 22 42  1  0
 23 43  1  0
 24 44  1  0
 26 45  1  0
 27 46  1  0
M  CHG  2   2  -1  25  -1
M  END
>  <UniqueID>  (15) 
14

>  <SMILES>  (15) 
C[N-]S(=O)(=O)c1ccc(N=c2nc(N(C)Cc3ccccc3)cc[n-]2)cc1

>  <Energy>  (15) 
51.084712946326924

>  <Genealogy>  (15) 
C[N-]S(=O)(=O)c1ccc(N=c2nc(N(C)Cc3ccccc3)cc[n-]2)cc1 (protonated)
C[N-]S(=O)(=O)c1ccc(N=c2nc(N(C)Cc3ccccc3)cc[n-]2)cc1 (3D coordinates assigned)
C[N-]S(=O)(=O)c1ccc(N=c2nc(N(C)Cc3ccccc3)cc[n-]2)cc1 (optimized conformer: 51.084712946326924 kcal/mol)

>  <smiles>  (15) 
CNS(=O)(=O)c1ccc(N=c2nc(N(C)Cc3ccccc3)cc[nH]2)cc1

>  <score_type>  (15) 
oracle

>  <origin>  (15) 
adgpu

>  <m_score__min__energy>  (15) 
-10.56

>  <m_primary>  (15) 
energy

$$$$
15:0
     RDKit          3D

 70 74  0  0  0  0  0  0  0  0999 V2000
    0.0570   22.0990  -35.2770 N   0  0  0  0  0  0  0  0  0  0  0  0
    0.0440   21.4550  -34.3150 C   0  0  0  0  0  0  0  0  0  0  0  0
    0.0300   20.6550  -33.1190 C   0  0  0  0  0  0  0  0  0  0  0  0
   -1.1730   20.4300  -32.4390 C   0  0  0  0  0  0  0  0  0  0  0  0
   -1.1860   19.6630  -31.2710 C   0  0  0  0  0  0  0  0  0  0  0  0
    0.0060   19.1150  -30.7740 C   0  0  0  0  0  0  0  0  0  0  0  0
   -0.0030   18.3350  -29.5690 N   0  0  0  0  0  0  0  0  0  0  0  0
    0.3270   16.9070  -29.6040 C   0  0  0  0  0  0  0  0  0  0  0  0
    1.3220   16.5680  -28.5240 C   0  0  0  0  0  0  0  0  0  0  0  0
    0.9700   15.7010  -27.4770 C   0  0  0  0  0  0  0  0  0  0  0  0
    1.8940   15.3990  -26.4710 C   0  0  0  0  0  0  0  0  0  0  0  0
    3.1680   15.9720  -26.4950 C   0  0  0  0  0  0  0  0  0  0  0  0
    3.5210   16.8450  -27.5250 C   0  0  0  0  0  0  0  0  0  0  0  0
    2.6040   17.1420  -28.5390 C   0  0  0  0  0  0  0  0  0  0  0  0
   -0.4860   19.0800  -28.0740 S   0  0  0  0  0  0  0  0  0  0  0  0
   -1.5990   18.2870  -27.4460 O   0  0  0  0  0  0  0  0  0  0  0  0
    0.6740   19.0910  -27.1190 O   0  0  0  0  0  0  0  0  0  0  0  0
   -1.0360   20.7230  -28.3780 C   0  0  0  0  0  0  0  0  0  0  0  0
   -2.3860   21.0540  -28.2120 C   0  0  0  0  0  0  0  0  0  0  0  0
   -2.8370   22.3420  -28.5090 C   0  0  0  0  0  0  0  0  0  0  0  0
   -1.9420   23.3170  -28.9810 C   0  0  0  0  0  0  0  0  0  0  0  0
   -2.4240   24.6680  -29.3450 C   0  0  0  0  0  0  0  0  0  0  0  0
   -1.8830   25.6800  -28.8240 O   0  0  0  0  0  0  0  0  0  0  0  0
   -3.5230   24.8590  -30.2470 N   0  0  0  0  0  0  0  0  0  0  0  0
   -4.3950   23.8270  -30.7330 C   0  0  0  0  0  0  0  0  0  0  0  0
   -3.8590   22.7890  -31.5040 C   0  0  0  0  0  0  0  0  0  0  0  0
   -4.6840   21.7720  -31.9940 C   0  0  0  0  0  0  0  0  0  0  0  0
   -6.0540   21.7710  -31.6980 C   0  0  0  0  0  0  0  0  0  0  0  0
   -7.1020   20.4810  -32.2960 S   0  0  0  0  0  0  0  0  0  0  0  0
   -8.5020   20.7100  -31.7970 O   0  0  0  0  0  0  0  0  0  0  0  0
   -7.1290   20.5210  -33.7990 O   0  0  0  0  0  0  0  0  0  0  0  0
   -6.5490   18.9070  -31.7690 N   0  0  0  0  0  0  0  0  0  0  0  0
   -5.2490   18.5840  -32.3880 C   0  0  0  0  0  0  0  0  0  0  0  0
   -4.9870   17.0690  -32.3330 C   0  0  0  0  0  0  0  0  0  0  0  0
   -5.9700   16.2780  -32.9940 O   0  0  0  0  0  0  0  0  0  0  0  0
   -7.2140   16.9420  -33.1700 C   0  0  0  0  0  0  0  0  0  0  0  0
   -7.5760   17.8650  -31.9930 C   0  0  0  0  0  0  0  0  0  0  0  0
   -6.5890   22.7990  -30.9130 C   0  0  0  0  0  0  0  0  0  0  0  0
   -5.7670   23.8150  -30.4230 C   0  0  0  0  0  0  0  0  0  0  0  0
   -0.5810   22.9920  -29.1090 C   0  0  0  0  0  0  0  0  0  0  0  0
   -0.1330   21.7010  -28.8140 C   0  0  0  0  0  0  0  0  0  0  0  0
    1.2080   19.3350  -31.4600 C   0  0  0  0  0  0  0  0  0  0  0  0
    1.2210   20.1020  -32.6290 C   0  0  0  0  0  0  0  0  0  0  0  0
   -2.1100   20.8579  -32.8250 H   0  0  0  0  0  0  0  0  0  0  0  0
   -2.1333   19.4884  -30.7399 H   0  0  0  0  0  0  0  0  0  0  0  0
   -0.5900   16.3197  -29.4485 H   0  0  0  0  0  0  0  0  0  0  0  0
    0.7692   16.6682  -30.5825 H   0  0  0  0  0  0  0  0  0  0  0  0
   -0.0362   15.2576  -27.4477 H   0  0  0  0  0  0  0  0  0  0  0  0
    1.6171   14.7094  -25.6599 H   0  0  0  0  0  0  0  0  0  0  0  0
    3.8927   15.7351  -25.7021 H   0  0  0  0  0  0  0  0  0  0  0  0
    4.5222   17.3005  -27.5396 H   0  0  0  0  0  0  0  0  0  0  0  0
    2.8880   17.8276  -29.3510 H   0  0  0  0  0  0  0  0  0  0  0  0
   -3.0946   20.2964  -27.8461 H   0  0  0  0  0  0  0  0  0  0  0  0
   -3.8989   22.5946  -28.3726 H   0  0  0  0  0  0  0  0  0  0  0  0
   -2.7817   22.7732  -31.7259 H   0  0  0  0  0  0  0  0  0  0  0  0
   -4.2565   20.9701  -32.6138 H   0  0  0  0  0  0  0  0  0  0  0  0
   -5.2566   18.9121  -33.4379 H   0  0  0  0  0  0  0  0  0  0  0  0
   -4.4528   19.1028  -31.8341 H   0  0  0  0  0  0  0  0  0  0  0  0
   -4.0126   16.8710  -32.8035 H   0  0  0  0  0  0  0  0  0  0  0  0
   -5.0161   16.7835  -31.2711 H   0  0  0  0  0  0  0  0  0  0  0  0
   -7.1612   17.5476  -34.0867 H   0  0  0  0  0  0  0  0  0  0  0  0
   -7.9934   16.1683  -33.2326 H   0  0  0  0  0  0  0  0  0  0  0  0
   -8.5374   18.3544  -32.2082 H   0  0  0  0  0  0  0  0  0  0  0  0
   -7.6379   17.2482  -31.0843 H   0  0  0  0  0  0  0  0  0  0  0  0
   -7.6642   22.8062  -30.6808 H   0  0  0  0  0  0  0  0  0  0  0  0
   -6.1935   24.6090  -29.7923 H   0  0  0  0  0  0  0  0  0  0  0  0
    0.1354   23.7570  -29.4429 H   0  0  0  0  0  0  0  0  0  0  0  0
    0.9328   21.4523  -28.9247 H   0  0  0  0  0  0  0  0  0  0  0  0
    2.1444   18.9028  -31.0775 H   0  0  0  0  0  0  0  0  0  0  0  0
    2.1668   20.2715  -33.1645 H   0  0  0  0  0  0  0  0  0  0  0  0
  1  2  3  0
  2  3  1  0
  3  4  2  0
  4  5  1  0
  5  6  2  0
  6  7  1  0
  7  8  1  0
  8  9  1  0
  9 10  2  0
 10 11  1  0
 11 12  2  0
 12 13  1  0
 13 14  2  0
  7 15  1  0
 15 16  2  0
 15 17  2  0
 15 18  1  0
 18 19  2  0
 19 20  1  0
 20 21  2  0
 21 22  1  0
 22 23  2  0
 22 24  1  0
 24 25  1  0
 25 26  2  0
 26 27  1  0
 27 28  2  0
 28 29  1  0
 29 30  2  0
 29 31  2  0
 29 32  1  0
 32 33  1  0
 33 34  1  0
 34 35  1  0
 35 36  1  0
 36 37  1  0
 28 38  1  0
 38 39  2  0
 21 40  1  0
 40 41  2  0
  6 42  1  0
 42 43  2  0
 43  3  1  0
 14  9  1  0
 41 18  1  0
 39 25  1  0
 37 32  1  0
  4 44  1  0
  5 45  1  0
  8 46  1  0
  8 47  1  0
 10 48  1  0
 11 49  1  0
 12 50  1  0
 13 51  1  0
 14 52  1  0
 19 53  1  0
 20 54  1  0
 26 55  1  0
 27 56  1  0
 33 57  1  0
 33 58  1  0
 34 59  1  0
 34 60  1  0
 36 61  1  0
 36 62  1  0
 37 63  1  0
 37 64  1  0
 38 65  1  0
 39 66  1  0
 40 67  1  0
 41 68  1  0
 42 69  1  0
 43 70  1  0
M  CHG  1  24  -1
M  END
>  <UniqueID>  (16) 
15

>  <SMILES>  (16) 
N#Cc1ccc(N(Cc2ccccc2)S(=O)(=O)c2ccc(C(=O)[N-]c3ccc(S(=O)(=O)N4CCOCC4)cc3)cc2)cc1

>  <Energy>  (16) 
93.0808770802432

>  <Genealogy>  (16) 
N#Cc1ccc(N(Cc2ccccc2)S(=O)(=O)c2ccc(C(=O)[N-]c3ccc(S(=O)(=O)N4CCOCC4)cc3)cc2)cc1 (protonated)
N#Cc1ccc(N(Cc2ccccc2)S(=O)(=O)c2ccc(C(=O)[N-]c3ccc(S(=O)(=O)N4CCOCC4)cc3)cc2)cc1 (3D coordinates assigned)
N#Cc1ccc(N(Cc2ccccc2)S(=O)(=O)c2ccc(C(=O)[N-]c3ccc(S(=O)(=O)N4CCOCC4)cc3)cc2)cc1 (nonaromatic ring conformer: 93.0808770802432 kcal/mol)

>  <smiles>  (16) 
N#Cc1ccc(N(Cc2ccccc2)S(=O)(=O)c2ccc(C(=O)Nc3ccc(S(=O)(=O)N4CCOCC4)cc3)cc2)cc1

>  <score_type>  (16) 
oracle

>  <origin>  (16) 
adgpu

>  <m_score__min__energy>  (16) 
-12.84

>  <m_primary>  (16) 
energy

$$$$
16:0
     RDKit          3D

 40 42  0  0  0  0  0  0  0  0999 V2000
   -1.5940   20.3800  -27.2680 C   0  0  0  0  0  0  0  0  0  0  0  0
   -2.4260   21.3200  -28.0890 C   0  0  0  0  0  0  0  0  0  0  0  0
   -2.1410   21.5120  -29.4500 C   0  0  0  0  0  0  0  0  0  0  0  0
   -2.8940   22.4150  -30.2070 C   0  0  0  0  0  0  0  0  0  0  0  0
   -3.9280   23.1460  -29.6080 C   0  0  0  0  0  0  0  0  0  0  0  0
   -4.9070   24.2630  -30.5580 S   0  0  0  0  0  0  0  0  0  0  0  0
   -4.2540   25.6170  -30.5460 O   0  0  0  0  0  0  0  0  0  0  0  0
   -5.0010   23.7910  -31.9820 O   0  0  0  0  0  0  0  0  0  0  0  0
   -6.5000   24.3890  -29.8770 N   0  0  0  0  0  0  0  0  0  0  0  0
   -7.4670   23.7230  -30.7560 C   0  0  0  0  0  0  0  0  0  0  0  0
   -7.7580   22.3020  -30.2630 C   0  0  0  0  0  0  0  0  0  0  0  0
   -7.7840   21.3180  -31.3960 C   0  0  0  0  0  0  0  0  0  0  0  0
   -8.9090   20.9080  -32.1070 C   0  0  0  0  0  0  0  0  0  0  0  0
   -8.5540   20.0740  -33.1110 N   0  0  0  0  0  0  0  0  0  0  0  0
   -7.2150   19.9630  -33.0480 C   0  0  0  0  0  0  0  0  0  0  0  0
   -6.3890   19.2270  -33.8950 C   0  0  0  0  0  0  0  0  0  0  0  0
   -5.0020   19.2720  -33.6630 C   0  0  0  0  0  0  0  0  0  0  0  0
   -4.4790   20.0470  -32.6030 C   0  0  0  0  0  0  0  0  0  0  0  0
   -5.3370   20.7820  -31.7660 C   0  0  0  0  0  0  0  0  0  0  0  0
   -6.7080   20.7130  -32.0180 C   0  0  0  0  0  0  0  0  0  0  0  0
   -4.2070   22.9640  -28.2480 C   0  0  0  0  0  0  0  0  0  0  0  0
   -3.4550   22.0620  -27.4890 C   0  0  0  0  0  0  0  0  0  0  0  0
   -1.7668   20.5753  -26.1994 H   0  0  0  0  0  0  0  0  0  0  0  0
   -1.8750   19.3424  -27.5013 H   0  0  0  0  0  0  0  0  0  0  0  0
   -0.5300   20.5330  -27.5013 H   0  0  0  0  0  0  0  0  0  0  0  0
   -1.3222   20.9500  -29.9229 H   0  0  0  0  0  0  0  0  0  0  0  0
   -2.6737   22.5517  -31.2760 H   0  0  0  0  0  0  0  0  0  0  0  0
   -6.4700   23.8720  -28.9690 H   0  0  0  0  0  0  0  0  0  0  0  0
   -8.4032   24.3005  -30.7661 H   0  0  0  0  0  0  0  0  0  0  0  0
   -7.0428   23.6658  -31.7693 H   0  0  0  0  0  0  0  0  0  0  0  0
   -6.9752   22.0044  -29.5498 H   0  0  0  0  0  0  0  0  0  0  0  0
   -8.7480   22.3004  -29.7835 H   0  0  0  0  0  0  0  0  0  0  0  0
   -9.9404   21.2184  -31.8837 H   0  0  0  0  0  0  0  0  0  0  0  0
   -9.1930   19.6230  -33.8030 H   0  0  0  0  0  0  0  0  0  0  0  0
   -6.8078   18.6300  -34.7185 H   0  0  0  0  0  0  0  0  0  0  0  0
   -4.3206   18.7006  -34.3104 H   0  0  0  0  0  0  0  0  0  0  0  0
   -3.3928   20.0753  -32.4316 H   0  0  0  0  0  0  0  0  0  0  0  0
   -4.9409   21.3911  -30.9401 H   0  0  0  0  0  0  0  0  0  0  0  0
   -5.0210   23.5328  -27.7748 H   0  0  0  0  0  0  0  0  0  0  0  0
   -3.6707   21.9336  -26.4180 H   0  0  0  0  0  0  0  0  0  0  0  0
  1  2  1  0
  2  3  2  0
  3  4  1  0
  4  5  2  0
  5  6  1  0
  6  7  2  0
  6  8  2  0
  6  9  1  0
  9 10  1  0
 10 11  1  0
 11 12  1  0
 12 13  2  0
 13 14  1  0
 14 15  1  0
 15 16  2  0
 16 17  1  0
 17 18  2  0
 18 19  1  0
 19 20  2  0
  5 21  1  0
 21 22  2  0
 22  2  1  0
 20 12  1  0
 20 15  1  0
  1 23  1  0
  1 24  1  0
  1 25  1  0
  3 26  1  0
  4 27  1  0
  9 28  1  0
 10 29  1  0
 10 30  1  0
 11 31  1  0
 11 32  1  0
 13 33  1  0
 14 34  1  0
 16 35  1  0
 17 36  1  0
 18 37  1  0
 19 38  1  0
 21 39  1  0
 22 40  1  0
M  END
>  <UniqueID>  (17) 
16

>  <SMILES>  (17) 
Cc1ccc(S(=O)(=O)NCCc2c[nH]c3ccccc23)cc1

>  <Energy>  (17) 
68.38445826266737

>  <Genealogy>  (17) 
Cc1ccc(S(=O)(=O)NCCc2c[nH]c3ccccc23)cc1 (3D coordinates assigned)
Cc1ccc(S(=O)(=O)NCCc2c[nH]c3ccccc23)cc1 (optimized conformer: 68.38445826266737 kcal/mol)

>  <smiles>  (17) 
Cc1ccc(S(=O)(=O)NCCc2c[nH]c3ccccc23)cc1

>  <score_type>  (17) 
oracle

>  <origin>  (17) 
adgpu

>  <m_score__min__energy>  (17) 
-9.4100000000000001

>  <m_primary>  (17) 
energy

$$$$
17:0
     RDKit          3D

 48 50  0  0  0  0  0  0  0  0999 V2000
   -1.5360   22.8150  -29.2080 C   0  0  0  0  0  0  0  0  0  0  0  0
   -2.6760   23.5710  -29.8120 C   0  0  0  0  0  0  0  0  0  0  0  0
   -2.7530   24.9150  -29.7670 N   0  0  0  0  0  0  0  0  0  0  0  0
   -3.8640   25.2980  -30.3750 N   0  0  0  0  0  0  0  0  0  0  0  0
   -4.5200   24.2010  -30.7990 C   0  0  0  0  0  0  0  0  0  0  0  0
   -5.7700   24.2670  -31.6150 C   0  0  0  0  0  0  0  0  0  0  0  0
   -3.8020   23.0670  -30.4520 C   0  0  0  0  0  0  0  0  0  0  0  0
   -4.1970   21.3830  -30.8460 S   0  0  0  0  0  0  0  0  0  0  0  0
   -3.5150   20.4820  -29.8560 O   0  0  0  0  0  0  0  0  0  0  0  0
   -5.6770   21.1710  -30.6860 O   0  0  0  0  0  0  0  0  0  0  0  0
   -3.7040   20.9230  -32.4710 N   0  0  0  0  0  0  0  0  0  0  0  0
   -2.4850   21.6510  -32.8760 C   0  0  0  0  0  0  0  0  0  0  0  0
   -1.2580   20.9970  -32.3110 C   0  0  0  0  0  0  0  0  0  0  0  0
   -0.1270   21.3180  -32.7630 O   0  0  0  0  0  0  0  0  0  0  0  0
   -1.3810   19.9370  -31.3490 N   0  0  0  0  0  0  0  0  0  0  0  0
   -0.3020   19.4800  -30.5160 C   0  0  0  0  0  0  0  0  0  0  0  0
    0.9840   19.3540  -31.0620 C   0  0  0  0  0  0  0  0  0  0  0  0
    2.0450   18.8890  -30.2790 C   0  0  0  0  0  0  0  0  0  0  0  0
    1.8270   18.5300  -28.9470 C   0  0  0  0  0  0  0  0  0  0  0  0
    0.5460   18.6310  -28.3970 C   0  0  0  0  0  0  0  0  0  0  0  0
    0.3310   18.2640  -27.1090 F   0  0  0  0  0  0  0  0  0  0  0  0
   -0.5170   19.0960  -29.1780 C   0  0  0  0  0  0  0  0  0  0  0  0
   -4.7940   21.1410  -33.4420 C   0  0  0  0  0  0  0  0  0  0  0  0
   -5.9490   20.2160  -33.1750 C   0  0  0  0  0  0  0  0  0  0  0  0
   -5.7370   18.8380  -33.0250 C   0  0  0  0  0  0  0  0  0  0  0  0
   -6.8190   18.0040  -32.7380 C   0  0  0  0  0  0  0  0  0  0  0  0
   -8.0940   18.5500  -32.5810 C   0  0  0  0  0  0  0  0  0  0  0  0
   -8.2660   19.9300  -32.7080 C   0  0  0  0  0  0  0  0  0  0  0  0
   -7.2000   20.7260  -32.9930 N   0  0  0  0  0  0  0  0  0  0  0  0
   -1.6056   22.8611  -28.1112 H   0  0  0  0  0  0  0  0  0  0  0  0
   -1.5783   21.7653  -29.5343 H   0  0  0  0  0  0  0  0  0  0  0  0
   -0.5855   23.2624  -29.5343 H   0  0  0  0  0  0  0  0  0  0  0  0
   -6.6423   24.3131  -30.9464 H   0  0  0  0  0  0  0  0  0  0  0  0
   -5.7466   25.1652  -32.2496 H   0  0  0  0  0  0  0  0  0  0  0  0
   -5.8413   23.3714  -32.2496 H   0  0  0  0  0  0  0  0  0  0  0  0
   -2.4169   21.6567  -33.9739 H   0  0  0  0  0  0  0  0  0  0  0  0
   -2.5449   22.6791  -32.4894 H   0  0  0  0  0  0  0  0  0  0  0  0
   -2.2960   19.4370  -31.2880 H   0  0  0  0  0  0  0  0  0  0  0  0
    1.1591   19.6231  -32.1141 H   0  0  0  0  0  0  0  0  0  0  0  0
    3.0525   18.8058  -30.7126 H   0  0  0  0  0  0  0  0  0  0  0  0
    2.6632   18.1679  -28.3309 H   0  0  0  0  0  0  0  0  0  0  0  0
   -1.5261   19.1622  -28.7451 H   0  0  0  0  0  0  0  0  0  0  0  0
   -5.1417   22.1817  -33.3643 H   0  0  0  0  0  0  0  0  0  0  0  0
   -4.4087   20.9368  -34.4519 H   0  0  0  0  0  0  0  0  0  0  0  0
   -4.7262   18.4176  -33.1326 H   0  0  0  0  0  0  0  0  0  0  0  0
   -6.6672   16.9193  -32.6358 H   0  0  0  0  0  0  0  0  0  0  0  0
   -8.9537   17.9005  -32.3597 H   0  0  0  0  0  0  0  0  0  0  0  0
   -9.2640   20.3738  -32.5775 H   0  0  0  0  0  0  0  0  0  0  0  0
  1  2  1  0
  2  3  2  0
  3  4  1  0
  4  5  1  0
  5  6  1  0
  5  7  2  0
  7  8  1  0
  8  9  2  0
  8 10  2  0
  8 11  1  0
 11 12  1  0
 12 13  1  0
 13 14  2  0
 13 15  1  0
 15 16  1  0
 16 17  2  0
 17 18  1  0
 18 19  2  0
 19 20  1  0
 20 21  1  0
 20 22  2  0
 11 23  1  0
 23 24  1  0
 24 25  2  0
 25 26  1  0
 26 27  2  0
 27 28  1  0
 28 29  2  0
  7  2  1  0
 22 16  1  0
 29 24  1  0
  1 30  1  0
  1 31  1  0
  1 32  1  0
  6 33  1  0
  6 34  1  0
  6 35  1  0
 12 36  1  0
 12 37  1  0
 15 38  1  0
 17 39  1  0
 18 40  1  0
 19 41  1  0
 22 42  1  0
 23 43  1  0
 23 44  1  0
 25 45  1  0
 26 46  1  0
 27 47  1  0
 28 48  1  0
M  CHG  1   4  -1
M  END
>  <UniqueID>  (18) 
17

>  <SMILES>  (18) 
Cc1n[n-]c(C)c1S(=O)(=O)N(CC(=O)Nc1cccc(F)c1)Cc1ccccn1

>  <Energy>  (18) 
82.06440788356532

>  <Genealogy>  (18) 
Cc1n[n-]c(C)c1S(=O)(=O)N(CC(=O)Nc1cccc(F)c1)Cc1ccccn1 (protonated)
Cc1n[n-]c(C)c1S(=O)(=O)N(CC(=O)Nc1cccc(F)c1)Cc1ccccn1 (3D coordinates assigned)
Cc1n[n-]c(C)c1S(=O)(=O)N(CC(=O)Nc1cccc(F)c1)Cc1ccccn1 (optimized conformer: 82.06440788356532 kcal/mol)

>  <smiles>  (18) 
Cc1n[nH]c(C)c1S(=O)(=O)N(CC(=O)Nc1cccc(F)c1)Cc1ccccn1

>  <score_type>  (18) 
oracle

>  <origin>  (18) 
adgpu

>  <m_score__min__energy>  (18) 
-9.9800000000000004

>  <m_primary>  (18) 
energy

$$$$
18:0
     RDKit          3D

 35 38  0  0  0  0  0  0  0  0999 V2000
    0.6220   24.0200  -28.6020 O   0  0  0  0  0  0  0  0  0  0  0  0
   -0.5690   24.0720  -29.0080 C   0  0  0  0  0  0  0  0  0  0  0  0
   -1.1450   22.9670  -29.5530 N   0  0  0  0  0  0  0  0  0  0  0  0
   -2.4290   22.9910  -29.9990 C   0  0  0  0  0  0  0  0  0  0  0  0
   -3.0100   21.8510  -30.5620 C   0  0  0  0  0  0  0  0  0  0  0  0
   -4.3320   21.8960  -31.0170 C   0  0  0  0  0  0  0  0  0  0  0  0
   -5.0820   23.0760  -30.9050 C   0  0  0  0  0  0  0  0  0  0  0  0
   -6.7360   23.1330  -31.5100 S   0  0  0  0  0  0  0  0  0  0  0  0
   -7.5810   23.9470  -30.5730 O   0  0  0  0  0  0  0  0  0  0  0  0
   -6.7500   23.7740  -32.8690 O   0  0  0  0  0  0  0  0  0  0  0  0
   -7.3720   21.5240  -31.6200 N   0  0  0  0  0  0  0  0  0  0  0  0
   -8.5410   21.0380  -30.8910 C   0  0  0  0  0  0  0  0  0  0  0  0
   -8.7200   19.5600  -31.3190 C   0  0  0  0  0  0  0  0  0  0  0  0
   -7.6010   19.3390  -32.2810 C   0  0  0  0  0  0  0  0  0  0  0  0
   -7.2780   18.1740  -32.9760 C   0  0  0  0  0  0  0  0  0  0  0  0
   -6.1650   18.1920  -33.8340 C   0  0  0  0  0  0  0  0  0  0  0  0
   -5.4030   19.3670  -33.9820 C   0  0  0  0  0  0  0  0  0  0  0  0
   -5.7490   20.5290  -33.2720 C   0  0  0  0  0  0  0  0  0  0  0  0
   -6.8590   20.4800  -32.4250 C   0  0  0  0  0  0  0  0  0  0  0  0
   -4.4970   24.2240  -30.3490 C   0  0  0  0  0  0  0  0  0  0  0  0
   -3.1750   24.1830  -29.8930 C   0  0  0  0  0  0  0  0  0  0  0  0
   -2.5950   25.2850  -29.3480 N   0  0  0  0  0  0  0  0  0  0  0  0
   -1.3110   25.2580  -28.9030 C   0  0  0  0  0  0  0  0  0  0  0  0
   -0.8000   26.2940  -28.4010 O   0  0  0  0  0  0  0  0  0  0  0  0
   -2.4290   20.9208  -30.6470 H   0  0  0  0  0  0  0  0  0  0  0  0
   -4.7863   21.0002  -31.4655 H   0  0  0  0  0  0  0  0  0  0  0  0
   -8.3712   21.1049  -29.8062 H   0  0  0  0  0  0  0  0  0  0  0  0
   -9.4363   21.6362  -31.1160 H   0  0  0  0  0  0  0  0  0  0  0  0
   -8.6334   18.8866  -30.4535 H   0  0  0  0  0  0  0  0  0  0  0  0
   -9.7084   19.3571  -31.7570 H   0  0  0  0  0  0  0  0  0  0  0  0
   -7.8806   17.2617  -32.8554 H   0  0  0  0  0  0  0  0  0  0  0  0
   -5.8882   17.2852  -34.3918 H   0  0  0  0  0  0  0  0  0  0  0  0
   -4.5337   19.3751  -34.6560 H   0  0  0  0  0  0  0  0  0  0  0  0
   -5.1616   21.4527  -33.3801 H   0  0  0  0  0  0  0  0  0  0  0  0
   -5.0773   25.1553  -30.2718 H   0  0  0  0  0  0  0  0  0  0  0  0
  1  2  2  0
  2  3  1  0
  3  4  1  0
  4  5  2  0
  5  6  1  0
  6  7  2  0
  7  8  1  0
  8  9  2  0
  8 10  2  0
  8 11  1  0
 11 12  1  0
 12 13  1  0
 13 14  1  0
 14 15  2  0
 15 16  1  0
 16 17  2  0
 17 18  1  0
 18 19  2  0
  7 20  1  0
 20 21  2  0
 21 22  1  0
 22 23  1  0
 23 24  2  0
 23  2  1  0
 21  4  1  0
 19 11  1  0
 19 14  1  0
  5 25  1  0
  6 26  1  0
 12 27  1  0
 12 28  1  0
 13 29  1  0
 13 30  1  0
 15 31  1  0
 16 32  1  0
 17 33  1  0
 18 34  1  0
 20 35  1  0
M  CHG  2   3  -1  22  -1
M  END
>  <UniqueID>  (19) 
18

>  <SMILES>  (19) 
O=c1[n-]c2ccc(S(=O)(=O)N3CCc4ccccc43)cc2[n-]c1=O

>  <Energy>  (19) 
59.98081845257958

>  <Genealogy>  (19) 
O=c1[n-]c2ccc(S(=O)(=O)N3CCc4ccccc43)cc2[n-]c1=O (protonated)
O=c1[n-]c2ccc(S(=O)(=O)N3CCc4ccccc43)cc2[n-]c1=O (3D coordinates assigned)
O=c1[n-]c2ccc(S(=O)(=O)N3CCc4ccccc43)cc2[n-]c1=O (nonaromatic ring conformer: 59.98081845257958 kcal/mol)

>  <smiles>  (19) 
O=c1[nH]c2ccc(S(=O)(=O)N3CCc4ccccc43)cc2[nH]c1=O

>  <score_type>  (19) 
oracle

>  <origin>  (19) 
adgpu

>  <m_score__min__energy>  (19) 
-11.6

>  <m_primary>  (19) 
energy

$$$$
19:0
     RDKit          3D

 49 52  0  0  0  0  0  0  0  0999 V2000
   -4.0780   19.3920  -33.2550 C   0  0  0  0  0  0  0  0  0  0  0  0
   -4.8630   19.3240  -32.0690 O   0  0  0  0  0  0  0  0  0  0  0  0
   -6.2600   19.1860  -32.0440 C   0  0  0  0  0  0  0  0  0  0  0  0
   -6.8830   17.9210  -32.0390 C   0  0  0  0  0  0  0  0  0  0  0  0
   -8.2750   17.8180  -32.0090 C   0  0  0  0  0  0  0  0  0  0  0  0
   -9.0610   18.9700  -31.9990 C   0  0  0  0  0  0  0  0  0  0  0  0
   -8.4570   20.2290  -32.0060 C   0  0  0  0  0  0  0  0  0  0  0  0
   -7.0550   20.3480  -32.0110 C   0  0  0  0  0  0  0  0  0  0  0  0
   -6.4290   21.6410  -32.0390 N   0  0  0  0  0  0  0  0  0  0  0  0
   -7.1510   22.8790  -31.9550 C   0  0  0  0  0  0  0  0  0  0  0  0
   -8.3600   22.8940  -31.6000 O   0  0  0  0  0  0  0  0  0  0  0  0
   -6.4660   24.1670  -32.2910 C   0  0  0  0  0  0  0  0  0  0  0  0
   -5.6240   24.8360  -30.8180 S   0  0  0  0  0  0  0  0  0  0  0  0
   -4.4020   23.5220  -30.7480 C   0  0  0  0  0  0  0  0  0  0  0  0
   -4.1180   22.7240  -31.7940 N   0  0  0  0  0  0  0  0  0  0  0  0
   -3.2140   21.8500  -31.3780 N   0  0  0  0  0  0  0  0  0  0  0  0
   -2.9510   22.1360  -30.0870 C   0  0  0  0  0  0  0  0  0  0  0  0
   -2.0470   21.3180  -29.2540 C   0  0  0  0  0  0  0  0  0  0  0  0
   -0.6610   21.3370  -29.4590 C   0  0  0  0  0  0  0  0  0  0  0  0
    0.1660   20.5580  -28.6460 C   0  0  0  0  0  0  0  0  0  0  0  0
   -0.3750   19.7760  -27.6750 N   0  0  0  0  0  0  0  0  0  0  0  0
   -1.7170   19.7260  -27.4660 C   0  0  0  0  0  0  0  0  0  0  0  0
   -2.5780   20.4890  -28.2580 C   0  0  0  0  0  0  0  0  0  0  0  0
   -3.6830   23.1880  -29.6560 N   0  0  0  0  0  0  0  0  0  0  0  0
   -3.8370   23.7060  -28.2930 C   0  0  0  0  0  0  0  0  0  0  0  0
   -2.7000   24.6130  -27.9530 C   0  0  0  0  0  0  0  0  0  0  0  0
   -2.1580   24.7910  -26.6970 C   0  0  0  0  0  0  0  0  0  0  0  0
   -1.1250   25.6900  -26.8640 C   0  0  0  0  0  0  0  0  0  0  0  0
   -1.1020   26.0020  -28.2090 C   0  0  0  0  0  0  0  0  0  0  0  0
   -2.0520   25.3430  -28.8320 O   0  0  0  0  0  0  0  0  0  0  0  0
   -3.0153   19.4841  -32.9865 H   0  0  0  0  0  0  0  0  0  0  0  0
   -4.2286   18.4774  -33.8474 H   0  0  0  0  0  0  0  0  0  0  0  0
   -4.3837   20.2670  -33.8474 H   0  0  0  0  0  0  0  0  0  0  0  0
   -6.2681   17.0092  -32.0589 H   0  0  0  0  0  0  0  0  0  0  0  0
   -8.7523   16.8271  -31.9932 H   0  0  0  0  0  0  0  0  0  0  0  0
  -10.1578   18.8868  -31.9856 H   0  0  0  0  0  0  0  0  0  0  0  0
   -9.0818   21.1343  -32.0076 H   0  0  0  0  0  0  0  0  0  0  0  0
   -5.3840   21.6870  -32.0760 H   0  0  0  0  0  0  0  0  0  0  0  0
   -5.7244   23.9881  -33.0835 H   0  0  0  0  0  0  0  0  0  0  0  0
   -7.2167   24.8933  -32.6359 H   0  0  0  0  0  0  0  0  0  0  0  0
   -0.2272   21.9608  -30.2544 H   0  0  0  0  0  0  0  0  0  0  0  0
    1.2561   20.5776  -28.7919 H   0  0  0  0  0  0  0  0  0  0  0  0
   -2.1256   19.0837  -26.6720 H   0  0  0  0  0  0  0  0  0  0  0  0
   -3.6655   20.4391  -28.1005 H   0  0  0  0  0  0  0  0  0  0  0  0
   -4.7815   24.2653  -28.2217 H   0  0  0  0  0  0  0  0  0  0  0  0
   -3.8454   22.8620  -27.5877 H   0  0  0  0  0  0  0  0  0  0  0  0
   -2.4816   24.3158  -25.7592 H   0  0  0  0  0  0  0  0  0  0  0  0
   -0.4550   26.0796  -26.0834 H   0  0  0  0  0  0  0  0  0  0  0  0
   -0.3953   26.6969  -28.6861 H   0  0  0  0  0  0  0  0  0  0  0  0
  1  2  1  0
  2  3  1  0
  3  4  2  0
  4  5  1  0
  5  6  2  0
  6  7  1  0
  7  8  2  0
  8  9  1  0
  9 10  1  0
 10 11  2  0
 10 12  1  0
 12 13  1  0
 13 14  1  0
 14 15  2  0
 15 16  1  0
 16 17  2  0
 17 18  1  0
 18 19  2  0
 19 20  1  0
 20 21  2  0
 21 22  1  0
 22 23  2  0
 17 24  1  0
 24 25  1  0
 25 26  1  0
 26 27  2  0
 27 28  1  0
 28 29  2  0
 29 30  1  0
  8  3  1  0
 24 14  1  0
 30 26  1  0
 23 18  1  0
  1 31  1  0
  1 32  1  0
  1 33  1  0
  4 34  1  0
  5 35  1  0
  6 36  1  0
  7 37  1  0
  9 38  1  0
 12 39  1  0
 12 40  1  0
 19 41  1  0
 20 42  1  0
 22 43  1  0
 23 44  1  0
 25 45  1  0
 25 46  1  0
 27 47  1  0
 28 48  1  0
 29 49  1  0
M  END
>  <UniqueID>  (20) 
19

>  <SMILES>  (20) 
COc1ccccc1NC(=O)CSc1nnc(-c2ccncc2)n1Cc1ccco1

>  <Energy>  (20) 
115.76532413138712

>  <Genealogy>  (20) 
COc1ccccc1NC(=O)CSc1nnc(-c2ccncc2)n1Cc1ccco1 (3D coordinates assigned)
COc1ccccc1NC(=O)CSc1nnc(-c2ccncc2)n1Cc1ccco1 (optimized conformer: 115.76532413138712 kcal/mol)

>  <smiles>  (20) 
COc1ccccc1NC(=O)CSc1nnc(-c2ccncc2)n1Cc1ccco1

>  <score_type>  (20) 
oracle

>  <origin>  (20) 
adgpu

>  <m_score__min__energy>  (20) 
-8.7200000000000006

>  <m_primary>  (20) 
energy

$$$$
20:0
     RDKit          3D

 53 55  0  0  1  0  0  0  0  0999 V2000
   -5.7270   18.2480  -34.8050 C   0  0  0  0  0  0  0  0  0  0  0  0
   -5.7460   18.2020  -33.4830 C   0  0  0  0  0  0  0  0  0  0  0  0
   -5.9230   19.3910  -32.6680 C   0  0  0  0  0  0  0  0  0  0  0  0
   -6.0690   19.3230  -31.4020 O   0  0  0  0  0  0  0  0  0  0  0  0
   -5.9480   20.7140  -33.2070 N   0  0  0  0  0  0  0  0  0  0  0  0
   -6.1290   21.7870  -32.2820 C   0  0  0  0  0  0  0  0  0  0  0  0
   -5.0070   22.5290  -31.9750 C   0  0  0  0  0  0  0  0  0  0  0  0
   -5.1330   23.5890  -31.0770 C   0  0  0  0  0  0  0  0  0  0  0  0
   -4.0240   24.3980  -30.7130 N   0  0  0  0  0  0  0  0  0  0  0  0
   -3.2790   24.0230  -29.7310 C   0  0  0  0  0  0  0  0  0  0  0  0
   -3.5090   22.8950  -29.0350 N   0  0  0  0  0  0  0  0  0  0  0  0
   -2.7190   22.5200  -28.0140 C   0  0  0  0  0  0  0  0  0  0  0  0
   -1.6570   23.3220  -27.6880 C   0  0  0  0  0  0  0  0  0  0  0  0
   -0.6290   22.8680  -26.3720 Cl  0  0  0  0  0  0  0  0  0  0  0  0
   -1.3920   24.4750  -28.3710 C   0  0  0  0  0  0  0  0  0  0  0  0
   -0.4310   25.2800  -28.1490 N   0  0  0  0  0  0  0  0  0  0  0  0
    0.5070   25.0500  -27.1200 C   0  0  0  0  0  0  0  0  0  0  0  0
    1.6750   24.3500  -27.4540 C   0  0  0  0  0  0  0  0  0  0  0  0
    2.6640   24.1090  -26.5150 C   0  0  0  0  0  0  0  0  0  0  0  0
    2.4740   24.5740  -25.2340 C   0  0  0  0  0  0  0  0  0  0  0  0
    1.3230   25.2740  -24.8640 C   0  0  0  0  0  0  0  0  0  0  0  0
    0.3210   25.5200  -25.8120 C   0  0  0  0  0  0  0  0  0  0  0  0
   -1.1090   26.3880  -25.3850 S   0  0  0  0  0  0  0  0  0  0  0  0
   -1.2210   27.6360  -26.1950 O   0  0  0  0  0  0  0  0  0  0  0  0
   -2.3080   25.5310  -25.6830 O   0  0  0  0  0  0  0  0  0  0  0  0
   -1.1650   26.7880  -23.7080 N   0  0  0  0  0  0  0  0  0  0  0  0
   -0.0010   27.4920  -23.2670 C   0  0  0  0  0  0  0  0  0  0  0  0
   -2.2310   24.7960  -29.3960 N   0  0  0  0  0  0  0  0  0  0  0  0
   -6.3810   23.8520  -30.5300 C   0  0  0  0  0  0  0  0  0  0  0  0
   -7.5000   23.0950  -30.8500 C   0  0  0  0  0  0  0  0  0  0  0  0
   -7.3730   22.0430  -31.7420 C   0  0  0  0  0  0  0  0  0  0  0  0
   -8.5130   21.1810  -32.1420 C   0  0  0  0  0  0  0  0  0  0  0  0
   -5.5904   17.3237  -35.3856 H   0  0  0  0  0  0  0  0  0  0  0  0
   -5.8478   19.2105  -35.3236 H   0  0  0  0  0  0  0  0  0  0  0  0
   -5.6235   17.2295  -32.9838 H   0  0  0  0  0  0  0  0  0  0  0  0
   -5.8350   20.8590  -34.2340 H   0  0  0  0  0  0  0  0  0  0  0  0
   -4.0339   22.2898  -32.4287 H   0  0  0  0  0  0  0  0  0  0  0  0
   -4.3110   22.2760  -29.2720 H   0  0  0  0  0  0  0  0  0  0  0  0
   -2.9198   21.5940  -27.4552 H   0  0  0  0  0  0  0  0  0  0  0  0
    1.8086   23.9848  -28.4830 H   0  0  0  0  0  0  0  0  0  0  0  0
    3.5778   23.5600  -26.7862 H   0  0  0  0  0  0  0  0  0  0  0  0
    3.2518   24.3890  -24.4785 H   0  0  0  0  0  0  0  0  0  0  0  0
    1.2036   25.6313  -23.8305 H   0  0  0  0  0  0  0  0  0  0  0  0
   -2.0410   27.2630  -23.4380 H   0  0  0  0  0  0  0  0  0  0  0  0
    0.0238   27.5070  -22.1674 H   0  0  0  0  0  0  0  0  0  0  0  0
    0.8991   26.9868  -23.6472 H   0  0  0  0  0  0  0  0  0  0  0  0
   -0.0305   28.5238  -23.6472 H   0  0  0  0  0  0  0  0  0  0  0  0
   -2.0640   25.6740  -29.9470 H   0  0  0  0  0  0  0  0  0  0  0  0
   -6.4869   24.6862  -29.8208 H   0  0  0  0  0  0  0  0  0  0  0  0
   -8.4764   23.3281  -30.4002 H   0  0  0  0  0  0  0  0  0  0  0  0
   -9.0176   20.7995  -31.2421 H   0  0  0  0  0  0  0  0  0  0  0  0
   -9.2249   21.7687  -32.7402 H   0  0  0  0  0  0  0  0  0  0  0  0
   -8.1415   20.3359  -32.7402 H   0  0  0  0  0  0  0  0  0  0  0  0
  1  2  2  0
  2  3  1  0
  3  4  2  0
  3  5  1  0
  5  6  1  0
  6  7  2  0
  7  8  1  0
  8  9  1  0
  9 10  2  0
 10 11  1  0
 11 12  1  0
 12 13  2  0
 13 14  1  0
 13 15  1  0
 15 16  2  0
 16 17  1  0
 17 18  2  0
 18 19  1  0
 19 20  2  0
 20 21  1  0
 21 22  2  0
 22 23  1  0
 23 24  2  0
 23 25  2  0
 23 26  1  0
 26 27  1  0
 15 28  1  0
  8 29  2  0
 29 30  1  0
 30 31  2  0
 31 32  1  0
 31  6  1  0
 28 10  1  0
 22 17  1  0
  1 33  1  0
  1 34  1  0
  2 35  1  0
  5 36  1  0
  7 37  1  0
 11 38  1  0
 12 39  1  0
 18 40  1  0
 19 41  1  0
 20 42  1  0
 21 43  1  0
 26 44  1  0
 27 45  1  0
 27 46  1  0
 27 47  1  0
 28 48  1  0
 29 49  1  0
 30 50  1  0
 32 51  1  0
 32 52  1  0
 32 53  1  0
M  END
>  <smiles>  (21) 
C=CC(=O)Nc1cc(N=c2[nH]cc(Cl)c(=Nc3ccccc3S(=O)(=O)NC)[nH]2)ccc1C

>  <score_type>  (21) 
oracle

>  <origin>  (21) 
adgpu

>  <m_score__min__energy>  (21) 
-10.880000000000001

>  <m_primary>  (21) 
energy

$$$$
21:0
     RDKit          3D

 50 52  0  0  0  0  0  0  0  0999 V2000
   -8.5960   22.8430  -31.7640 C   0  0  0  0  0  0  0  0  0  0  0  0
   -8.3580   21.3660  -31.9430 C   0  0  0  0  0  0  0  0  0  0  0  0
   -9.4370   20.5440  -32.3120 C   0  0  0  0  0  0  0  0  0  0  0  0
   -9.2530   19.1740  -32.5050 C   0  0  0  0  0  0  0  0  0  0  0  0
   -7.9940   18.6060  -32.3220 C   0  0  0  0  0  0  0  0  0  0  0  0
   -6.9130   19.4040  -31.9430 C   0  0  0  0  0  0  0  0  0  0  0  0
   -7.0770   20.7860  -31.7430 C   0  0  0  0  0  0  0  0  0  0  0  0
   -5.9130   21.5940  -31.3100 C   0  0  0  0  0  0  0  0  0  0  0  0
   -4.8830   21.6310  -32.0360 O   0  0  0  0  0  0  0  0  0  0  0  0
   -5.9700   22.3640  -30.0970 N   0  0  0  0  0  0  0  0  0  0  0  0
   -4.8400   23.0420  -29.5220 C   0  0  0  0  0  0  0  0  0  0  0  0
   -4.4750   22.7650  -28.1960 C   0  0  0  0  0  0  0  0  0  0  0  0
   -3.3650   23.3920  -27.6210 C   0  0  0  0  0  0  0  0  0  0  0  0
   -2.5990   24.2950  -28.3700 C   0  0  0  0  0  0  0  0  0  0  0  0
   -1.1850   25.0590  -27.6580 S   0  0  0  0  0  0  0  0  0  0  0  0
   -1.2390   26.5380  -27.9270 O   0  0  0  0  0  0  0  0  0  0  0  0
    0.0530   24.5110  -28.3150 O   0  0  0  0  0  0  0  0  0  0  0  0
   -1.1970   24.7190  -25.9350 N   0  0  0  0  0  0  0  0  0  0  0  0
   -1.6840   25.8580  -25.1230 C   0  0  0  0  0  0  0  0  0  0  0  0
   -0.5620   26.7430  -24.5400 C   0  0  0  0  0  0  0  0  0  0  0  0
    0.7540   26.5940  -25.2950 C   0  0  0  0  0  0  0  0  0  0  0  0
    1.2220   25.1330  -25.3220 C   0  0  0  0  0  0  0  0  0  0  0  0
    0.0610   24.1080  -25.4530 C   0  0  1  0  0  0  0  0  0  0  0  0
   -0.1870   23.3590  -24.1350 C   0  0  0  0  0  0  0  0  0  0  0  0
   -2.9390   24.5480  -29.7050 C   0  0  0  0  0  0  0  0  0  0  0  0
   -4.0490   23.9240  -30.2800 C   0  0  0  0  0  0  0  0  0  0  0  0
   -8.6343   23.0808  -30.6907 H   0  0  0  0  0  0  0  0  0  0  0  0
   -7.7770   23.4061  -32.2353 H   0  0  0  0  0  0  0  0  0  0  0  0
   -9.5504   23.1204  -32.2353 H   0  0  0  0  0  0  0  0  0  0  0  0
  -10.4355   20.9845  -32.4499 H   0  0  0  0  0  0  0  0  0  0  0  0
  -10.1029   18.5420  -32.8019 H   0  0  0  0  0  0  0  0  0  0  0  0
   -7.8514   17.5263  -32.4765 H   0  0  0  0  0  0  0  0  0  0  0  0
   -5.9228   18.9469  -31.7994 H   0  0  0  0  0  0  0  0  0  0  0  0
   -6.8930   22.4820  -29.6220 H   0  0  0  0  0  0  0  0  0  0  0  0
   -5.0658   22.0499  -27.6047 H   0  0  0  0  0  0  0  0  0  0  0  0
   -3.0925   23.1756  -26.5775 H   0  0  0  0  0  0  0  0  0  0  0  0
   -2.3242   26.4867  -25.7592 H   0  0  0  0  0  0  0  0  0  0  0  0
   -2.2254   25.4283  -24.2673 H   0  0  0  0  0  0  0  0  0  0  0  0
   -0.8804   27.7947  -24.5910 H   0  0  0  0  0  0  0  0  0  0  0  0
   -0.3891   26.4214  -23.5024 H   0  0  0  0  0  0  0  0  0  0  0  0
    0.6153   26.9445  -26.3284 H   0  0  0  0  0  0  0  0  0  0  0  0
    1.5188   27.1929  -24.7788 H   0  0  0  0  0  0  0  0  0  0  0  0
    1.9000   25.0012  -26.1781 H   0  0  0  0  0  0  0  0  0  0  0  0
    1.7179   24.9362  -24.3601 H   0  0  0  0  0  0  0  0  0  0  0  0
    0.3883   23.3852  -26.2148 H   0  0  0  0  0  0  0  0  0  0  0  0
    0.0335   24.0250  -23.2877 H   0  0  0  0  0  0  0  0  0  0  0  0
   -1.2387   23.0402  -24.0867 H   0  0  0  0  0  0  0  0  0  0  0  0
    0.4666   22.4755  -24.0867 H   0  0  0  0  0  0  0  0  0  0  0  0
   -2.3294   25.2410  -30.3034 H   0  0  0  0  0  0  0  0  0  0  0  0
   -4.3056   24.1235  -31.3309 H   0  0  0  0  0  0  0  0  0  0  0  0
  1  2  1  0
  2  3  2  0
  3  4  1  0
  4  5  2  0
  5  6  1  0
  6  7  2  0
  7  8  1  0
  8  9  2  0
  8 10  1  0
 10 11  1  0
 11 12  2  0
 12 13  1  0
 13 14  2  0
 14 15  1  0
 15 16  2  0
 15 17  2  0
 15 18  1  0
 18 19  1  0
 19 20  1  0
 20 21  1  0
 21 22  1  0
 22 23  1  0
 23 24  1  0
 14 25  1  0
 25 26  2  0
  7  2  1  0
 26 11  1  0
 23 18  1  0
  1 27  1  0
  1 28  1  0
  1 29  1  0
  3 30  1  0
  4 31  1  0
  5 32  1  0
  6 33  1  0
 10 34  1  0
 12 35  1  0
 13 36  1  0
 19 37  1  0
 19 38  1  0
 20 39  1  0
 20 40  1  0
 21 41  1  0
 21 42  1  0
 22 43  1  0
 22 44  1  0
 23 45  1  6
 24 46  1  0
 24 47  1  0
 24 48  1  0
 25 49  1  0
 26 50  1  0
M  END
>  <UniqueID>  (22) 
20

>  <SMILES>  (22) 
Cc1ccccc1C(=O)Nc1ccc(S(=O)(=O)N2CCCC[C@H]2C)cc1

>  <Energy>  (22) 
69.50036442079863

>  <Genealogy>  (22) 
Cc1ccccc1C(=O)Nc1ccc(S(=O)(=O)N2CCCC[C@H]2C)cc1 (chirality)
Cc1ccccc1C(=O)Nc1ccc(S(=O)(=O)N2CCCC[C@H]2C)cc1 (3D coordinates assigned)
Cc1ccccc1C(=O)Nc1ccc(S(=O)(=O)N2CCCC[C@H]2C)cc1 (nonaromatic ring conformer: 69.50036442079863 kcal/mol)

>  <smiles>  (22) 
Cc1ccccc1C(=O)Nc1ccc(S(=O)(=O)N2CCCCC2C)cc1

>  <score_type>  (22) 
oracle

>  <origin>  (22) 
adgpu

>  <m_score__min__energy>  (22) 
-9.1099999999999994

>  <m_primary>  (22) 
energy

$$$$
22:0
     RDKit          3D

 57 60  0  0  0  0  0  0  0  0999 V2000
   -3.8610   25.4790  -30.8420 O   0  0  0  0  0  0  0  0  0  0  0  0
   -4.4040   24.5760  -30.1530 C   0  0  0  0  0  0  0  0  0  0  0  0
   -4.1590   24.5190  -28.7420 N   0  0  0  0  0  0  0  0  0  0  0  0
   -3.1040   23.7310  -28.1740 C   0  0  0  0  0  0  0  0  0  0  0  0
   -3.2810   22.3570  -27.9400 C   0  0  0  0  0  0  0  0  0  0  0  0
   -2.2810   21.6170  -27.3060 C   0  0  0  0  0  0  0  0  0  0  0  0
   -1.1060   22.2450  -26.8900 C   0  0  0  0  0  0  0  0  0  0  0  0
   -0.9230   23.6170  -27.1090 C   0  0  0  0  0  0  0  0  0  0  0  0
    0.5180   24.4300  -26.4900 S   0  0  0  0  0  0  0  0  0  0  0  0
    1.6410   23.4330  -26.4000 O   0  0  0  0  0  0  0  0  0  0  0  0
    0.9260   25.5080  -27.4550 O   0  0  0  0  0  0  0  0  0  0  0  0
    0.2530   25.1430  -24.9160 N   0  0  0  0  0  0  0  0  0  0  0  0
    1.2070   26.2150  -24.6140 C   0  0  0  0  0  0  0  0  0  0  0  0
    0.5080   27.1690  -23.6510 C   0  0  0  0  0  0  0  0  0  0  0  0
   -0.9640   26.7860  -23.6900 C   0  0  0  0  0  0  0  0  0  0  0  0
   -1.0730   25.7470  -24.7930 C   0  0  0  0  0  0  0  0  0  0  0  0
   -1.9120   24.3500  -27.7830 C   0  0  0  0  0  0  0  0  0  0  0  0
   -5.2890   23.5870  -30.7960 C   0  0  0  0  0  0  0  0  0  0  0  0
   -6.5540   23.3250  -30.2490 C   0  0  0  0  0  0  0  0  0  0  0  0
   -7.3230   22.2650  -30.7280 C   0  0  0  0  0  0  0  0  0  0  0  0
   -6.8260   21.4400  -31.7440 C   0  0  0  0  0  0  0  0  0  0  0  0
   -7.7030   19.9760  -32.1880 S   0  0  0  0  0  0  0  0  0  0  0  0
   -8.7360   20.3060  -33.2300 O   0  0  0  0  0  0  0  0  0  0  0  0
   -8.4160   19.4400  -30.9770 O   0  0  0  0  0  0  0  0  0  0  0  0
   -6.6210   18.7540  -32.8160 N   0  0  0  0  0  0  0  0  0  0  0  0
   -6.1610   19.1130  -34.1660 C   0  0  0  0  0  0  0  0  0  0  0  0
   -5.1700   18.0470  -34.6820 C   0  0  0  0  0  0  0  0  0  0  0  0
   -5.1400   16.8930  -33.8590 O   0  0  0  0  0  0  0  0  0  0  0  0
   -6.4560   16.4190  -33.6480 C   0  0  0  0  0  0  0  0  0  0  0  0
   -7.2860   17.4390  -32.8400 C   0  0  0  0  0  0  0  0  0  0  0  0
   -5.5910   21.7390  -32.3370 C   0  0  0  0  0  0  0  0  0  0  0  0
   -4.8300   22.8160  -31.8730 C   0  0  0  0  0  0  0  0  0  0  0  0
   -4.2108   21.8624  -28.2574 H   0  0  0  0  0  0  0  0  0  0  0  0
   -2.4192   20.5393  -27.1344 H   0  0  0  0  0  0  0  0  0  0  0  0
   -0.3206   21.6607  -26.3883 H   0  0  0  0  0  0  0  0  0  0  0  0
    0.3500   24.3880  -24.1960 H   0  0  0  0  0  0  0  0  0  0  0  0
    2.1098   25.7973  -24.1445 H   0  0  0  0  0  0  0  0  0  0  0  0
    1.5171   26.7372  -25.5312 H   0  0  0  0  0  0  0  0  0  0  0  0
    0.9089   27.0493  -22.6337 H   0  0  0  0  0  0  0  0  0  0  0  0
    0.6623   28.2201  -23.9365 H   0  0  0  0  0  0  0  0  0  0  0  0
   -1.2780   26.3600  -22.7257 H   0  0  0  0  0  0  0  0  0  0  0  0
   -1.6115   27.6554  -23.8770 H   0  0  0  0  0  0  0  0  0  0  0  0
   -1.8170   24.9825  -24.5247 H   0  0  0  0  0  0  0  0  0  0  0  0
   -1.3965   26.2011  -25.7413 H   0  0  0  0  0  0  0  0  0  0  0  0
   -1.7493   25.4151  -28.0046 H   0  0  0  0  0  0  0  0  0  0  0  0
   -6.9413   23.9591  -29.4379 H   0  0  0  0  0  0  0  0  0  0  0  0
   -8.3216   22.0768  -30.3069 H   0  0  0  0  0  0  0  0  0  0  0  0
   -7.0255   19.1665  -34.8441 H   0  0  0  0  0  0  0  0  0  0  0  0
   -5.6570   20.0901  -34.1300 H   0  0  0  0  0  0  0  0  0  0  0  0
   -5.4693   17.7488  -35.6976 H   0  0  0  0  0  0  0  0  0  0  0  0
   -4.1640   18.4919  -34.6722 H   0  0  0  0  0  0  0  0  0  0  0  0
   -6.9393   16.2524  -34.6220 H   0  0  0  0  0  0  0  0  0  0  0  0
   -6.4039   15.4790  -33.0791 H   0  0  0  0  0  0  0  0  0  0  0  0
   -8.2778   17.5450  -33.3039 H   0  0  0  0  0  0  0  0  0  0  0  0
   -7.3832   17.0745  -31.8067 H   0  0  0  0  0  0  0  0  0  0  0  0
   -5.2197   21.1241  -33.1701 H   0  0  0  0  0  0  0  0  0  0  0  0
   -3.8706   23.0585  -32.3533 H   0  0  0  0  0  0  0  0  0  0  0  0
  1  2  2  0
  2  3  1  0
  3  4  1  0
  4  5  2  0
  5  6  1  0
  6  7  2  0
  7  8  1  0
  8  9  1  0
  9 10  2  0
  9 11  2  0
  9 12  1  0
 12 13  1  0
 13 14  1  0
 14 15  1  0
 15 16  1  0
  8 17  2  0
  2 18  1  0
 18 19  2  0
 19 20  1  0
 20 21  2  0
 21 22  1  0
 22 23  2  0
 22 24  2  0
 22 25  1  0
 25 26  1  0
 26 27  1  0
 27 28  1  0
 28 29  1  0
 29 30  1  0
 21 31  1  0
 31 32  2  0
 17  4  1  0
 32 18  1  0
 16 12  1  0
 30 25  1  0
  5 33  1  0
  6 34  1  0
  7 35  1  0
 12 36  1  0
 13 37  1  0
 13 38  1  0
 14 39  1  0
 14 40  1  0
 15 41  1  0
 15 42  1  0
 16 43  1  0
 16 44  1  0
 17 45  1  0
 19 46  1  0
 20 47  1  0
 26 48  1  0
 26 49  1  0
 27 50  1  0
 27 51  1  0
 29 52  1  0
 29 53  1  0
 30 54  1  0
 30 55  1  0
 31 56  1  0
 32 57  1  0
M  CHG  2   3  -1  12   1
M  END
>  <UniqueID>  (23) 
21

>  <SMILES>  (23) 
O=C([N-]c1cccc(S(=O)(=O)[NH+]2CCCC2)c1)c1ccc(S(=O)(=O)N2CCOCC2)cc1

>  <Energy>  (23) 
72.72209592433207

>  <Genealogy>  (23) 
O=C([N-]c1cccc(S(=O)(=O)[NH+]2CCCC2)c1)c1ccc(S(=O)(=O)N2CCOCC2)cc1 (protonated)
O=C([N-]c1cccc(S(=O)(=O)[NH+]2CCCC2)c1)c1ccc(S(=O)(=O)N2CCOCC2)cc1 (3D coordinates assigned)
O=C([N-]c1cccc(S(=O)(=O)[NH+]2CCCC2)c1)c1ccc(S(=O)(=O)N2CCOCC2)cc1 (nonaromatic ring conformer: 72.72209592433207 kcal/mol)

>  <smiles>  (23) 
O=C(Nc1cccc(S(=O)(=O)N2CCCC2)c1)c1ccc(S(=O)(=O)N2CCOCC2)cc1

>  <score_type>  (23) 
oracle

>  <origin>  (23) 
adgpu

>  <m_score__min__energy>  (23) 
-12.6

>  <m_primary>  (23) 
energy

$$$$
23:0
     RDKit          3D

 62 67  0  0  0  0  0  0  0  0999 V2000
   -7.6790   21.6200  -31.2220 C   0  0  0  0  0  0  0  0  0  0  0  0
   -6.4820   22.4850  -30.9640 C   0  0  0  0  0  0  0  0  0  0  0  0
   -5.1970   21.9290  -30.9540 C   0  0  0  0  0  0  0  0  0  0  0  0
   -4.0850   22.7270  -30.6790 C   0  0  0  0  0  0  0  0  0  0  0  0
   -4.2430   24.0970  -30.4140 C   0  0  0  0  0  0  0  0  0  0  0  0
   -3.1110   24.9260  -30.1280 N   0  0  0  0  0  0  0  0  0  0  0  0
   -2.1940   24.8810  -28.6560 S   0  0  0  0  0  0  0  0  0  0  0  0
   -1.2750   26.0690  -28.6240 O   0  0  0  0  0  0  0  0  0  0  0  0
   -3.0890   24.9530  -27.4530 O   0  0  0  0  0  0  0  0  0  0  0  0
   -1.2690   23.3730  -28.6300 C   0  0  0  0  0  0  0  0  0  0  0  0
   -1.1430   22.6380  -29.8190 C   0  0  0  0  0  0  0  0  0  0  0  0
   -0.5410   21.3780  -29.8190 C   0  0  0  0  0  0  0  0  0  0  0  0
   -0.0770   20.8170  -28.6210 C   0  0  0  0  0  0  0  0  0  0  0  0
    0.5390   19.5140  -28.6120 N   0  0  0  0  0  0  0  0  0  0  0  0
    1.6320   19.2890  -29.4260 C   0  0  0  0  0  0  0  0  0  0  0  0
    2.2600   18.0740  -29.4410 N   0  0  0  0  0  0  0  0  0  0  0  0
    1.7800   17.0980  -28.6370 C   0  0  0  0  0  0  0  0  0  0  0  0
    0.7030   17.2830  -27.8170 C   0  0  0  0  0  0  0  0  0  0  0  0
    0.4310   16.1690  -27.1000 N   0  0  0  0  0  0  0  0  0  0  0  0
    1.3670   15.2750  -27.4950 C   0  0  0  0  0  0  0  0  0  0  0  0
    1.5240   13.9650  -27.0460 C   0  0  0  0  0  0  0  0  0  0  0  0
    2.5790   13.2040  -27.5860 C   0  0  0  0  0  0  0  0  0  0  0  0
    3.4460   13.7610  -28.5550 C   0  0  0  0  0  0  0  0  0  0  0  0
    3.2710   15.0870  -28.9940 C   0  0  0  0  0  0  0  0  0  0  0  0
    2.2180   15.8130  -28.4430 C   0  0  0  0  0  0  0  0  0  0  0  0
    0.0630   18.5140  -27.7920 C   0  0  0  0  0  0  0  0  0  0  0  0
   -0.9170   18.7060  -27.0200 O   0  0  0  0  0  0  0  0  0  0  0  0
   -0.2040   21.5430  -27.4280 C   0  0  0  0  0  0  0  0  0  0  0  0
   -0.7670   22.8280  -27.4240 C   0  0  0  0  0  0  0  0  0  0  0  0
   -0.8490   23.7150  -25.8560 S   0  0  0  0  0  0  0  0  0  0  0  0
    0.4270   24.9000  -26.3080 C   0  0  0  0  0  0  0  0  0  0  0  0
    1.5740   24.4640  -26.9870 C   0  0  0  0  0  0  0  0  0  0  0  0
    2.5640   25.3790  -27.3560 C   0  0  0  0  0  0  0  0  0  0  0  0
    2.4210   26.7330  -27.0380 C   0  0  0  0  0  0  0  0  0  0  0  0
    1.2910   27.1700  -26.3430 C   0  0  0  0  0  0  0  0  0  0  0  0
    0.2990   26.2550  -25.9750 C   0  0  0  0  0  0  0  0  0  0  0  0
   -5.5360   24.6550  -30.3870 C   0  0  0  0  0  0  0  0  0  0  0  0
   -5.7320   26.1110  -30.0660 C   0  0  0  0  0  0  0  0  0  0  0  0
   -6.6480   23.8420  -30.6540 C   0  0  0  0  0  0  0  0  0  0  0  0
   -8.1164   21.3039  -30.2635 H   0  0  0  0  0  0  0  0  0  0  0  0
   -8.4255   22.1887  -31.7959 H   0  0  0  0  0  0  0  0  0  0  0  0
   -7.3734   20.7327  -31.7959 H   0  0  0  0  0  0  0  0  0  0  0  0
   -5.0629   20.8576  -31.1640 H   0  0  0  0  0  0  0  0  0  0  0  0
   -3.0798   22.2803  -30.6698 H   0  0  0  0  0  0  0  0  0  0  0  0
   -1.5227   23.0592  -30.7615 H   0  0  0  0  0  0  0  0  0  0  0  0
   -0.4305   20.8236  -30.7626 H   0  0  0  0  0  0  0  0  0  0  0  0
    2.0028   20.0988  -30.0716 H   0  0  0  0  0  0  0  0  0  0  0  0
   -0.3280   16.0300  -26.3950 H   0  0  0  0  0  0  0  0  0  0  0  0
    0.8449   13.5385  -26.2931 H   0  0  0  0  0  0  0  0  0  0  0  0
    2.7301   12.1671  -27.2512 H   0  0  0  0  0  0  0  0  0  0  0  0
    4.2638   13.1529  -28.9690 H   0  0  0  0  0  0  0  0  0  0  0  0
    3.9408   15.5329  -29.7440 H   0  0  0  0  0  0  0  0  0  0  0  0
    0.1423   21.0992  -26.4830 H   0  0  0  0  0  0  0  0  0  0  0  0
    1.6950   23.3980  -27.2301 H   0  0  0  0  0  0  0  0  0  0  0  0
    3.4570   25.0334  -27.8974 H   0  0  0  0  0  0  0  0  0  0  0  0
    3.1976   27.4533  -27.3348 H   0  0  0  0  0  0  0  0  0  0  0  0
    1.1812   28.2337  -26.0850 H   0  0  0  0  0  0  0  0  0  0  0  0
   -0.5862   26.6010  -25.4213 H   0  0  0  0  0  0  0  0  0  0  0  0
   -5.7503   26.2466  -28.9745 H   0  0  0  0  0  0  0  0  0  0  0  0
   -4.9044   26.6955  -30.4943 H   0  0  0  0  0  0  0  0  0  0  0  0
   -6.6847   26.4559  -30.4943 H   0  0  0  0  0  0  0  0  0  0  0  0
   -7.6593   24.2734  -30.6197 H   0  0  0  0  0  0  0  0  0  0  0  0
  1  2  1  0
  2  3  2  0
  3  4  1  0
  4  5  2  0
  5  6  1  0
  6  7  1  0
  7  8  2  0
  7  9  2  0
  7 10  1  0
 10 11  2  0
 11 12  1  0
 12 13  2  0
 13 14  1  0
 14 15  1  0
 15 16  2  0
 16 17  1  0
 17 18  2  0
 18 19  1  0
 19 20  1  0
 20 21  2  0
 21 22  1  0
 22 23  2  0
 23 24  1  0
 24 25  2  0
 18 26  1  0
 26 27  2  0
 13 28  1  0
 28 29  2  0
 29 30  1  0
 30 31  1  0
 31 32  2  0
 32 33  1  0
 33 34  2  0
 34 35  1  0
 35 36  2  0
  5 37  1  0
 37 38  1  0
 37 39  2  0
 39  2  1  0
 29 10  1  0
 36 31  1  0
 26 14  1  0
 25 17  1  0
 25 20  1  0
  1 40  1  0
  1 41  1  0
  1 42  1  0
  3 43  1  0
  4 44  1  0
 11 45  1  0
 12 46  1  0
 15 47  1  0
 19 48  1  0
 21 49  1  0
 22 50  1  0
 23 51  1  0
 24 52  1  0
 28 53  1  0
 32 54  1  0
 33 55  1  0
 34 56  1  0
 35 57  1  0
 36 58  1  0
 38 59  1  0
 38 60  1  0
 38 61  1  0
 39 62  1  0
M  CHG  1   6  -1
M  END
>  <UniqueID>  (24) 
22

>  <SMILES>  (24) 
Cc1ccc([N-]S(=O)(=O)c2ccc(-n3cnc4c([nH]c5ccccc54)c3=O)cc2Sc2ccccc2)c(C)c1

>  <Energy>  (24) 
127.70014379650029

>  <Genealogy>  (24) 
Cc1ccc([N-]S(=O)(=O)c2ccc(-n3cnc4c([nH]c5ccccc54)c3=O)cc2Sc2ccccc2)c(C)c1 (protonated)
Cc1ccc([N-]S(=O)(=O)c2ccc(-n3cnc4c([nH]c5ccccc54)c3=O)cc2Sc2ccccc2)c(C)c1 (3D coordinates assigned)
Cc1ccc([N-]S(=O)(=O)c2ccc(-n3cnc4c([nH]c5ccccc54)c3=O)cc2Sc2ccccc2)c(C)c1 (optimized conformer: 127.70014379650029 kcal/mol)

>  <smiles>  (24) 
Cc1ccc(NS(=O)(=O)c2ccc(-n3cnc4c([nH]c5ccccc54)c3=O)cc2Sc2ccccc2)c(C)c1

>  <score_type>  (24) 
oracle

>  <origin>  (24) 
adgpu

>  <m_score__min__energy>  (24) 
-12.51

>  <m_primary>  (24) 
energy

$$$$
24:0
     RDKit          3D

 51 54  0  0  0  0  0  0  0  0999 V2000
    0.8390   17.2890  -29.3080 O   0  0  0  0  0  0  0  0  0  0  0  0
   -0.0390   18.0830  -28.8790 C   0  0  0  0  0  0  0  0  0  0  0  0
   -0.5270   17.8760  -27.4680 C   0  0  0  0  0  0  0  0  0  0  0  0
   -0.9770   19.1310  -26.7210 C   0  0  0  0  0  0  0  0  0  0  0  0
   -2.2010   19.7750  -27.3710 C   0  0  0  0  0  0  0  0  0  0  0  0
   -1.7700   20.8130  -28.3680 C   0  0  0  0  0  0  0  0  0  0  0  0
   -2.2320   22.1360  -28.2140 C   0  0  0  0  0  0  0  0  0  0  0  0
   -1.8270   23.1420  -29.0990 C   0  0  0  0  0  0  0  0  0  0  0  0
   -2.3970   24.7970  -28.9100 S   0  0  0  0  0  0  0  0  0  0  0  0
   -1.2380   25.7540  -28.9680 O   0  0  0  0  0  0  0  0  0  0  0  0
   -3.0890   24.9260  -27.5810 O   0  0  0  0  0  0  0  0  0  0  0  0
   -3.5030   25.1550  -30.1960 N   0  0  0  0  0  0  0  0  0  0  0  0
   -4.6680   24.3870  -30.5200 C   0  0  0  0  0  0  0  0  0  0  0  0
   -5.8640   24.6670  -29.8480 C   0  0  0  0  0  0  0  0  0  0  0  0
   -7.0240   23.9410  -30.1300 C   0  0  0  0  0  0  0  0  0  0  0  0
   -7.0000   22.9170  -31.0870 C   0  0  0  0  0  0  0  0  0  0  0  0
   -8.4700   22.0190  -31.4530 S   0  0  0  0  0  0  0  0  0  0  0  0
   -9.3490   22.8530  -32.3420 O   0  0  0  0  0  0  0  0  0  0  0  0
   -9.2160   21.7270  -30.1790 O   0  0  0  0  0  0  0  0  0  0  0  0
   -8.0510   20.5360  -32.2720 N   0  0  0  0  0  0  0  0  0  0  0  0
   -6.9140   19.8770  -31.6300 C   0  0  0  0  0  0  0  0  0  0  0  0
   -7.0510   18.3920  -31.9310 C   0  0  0  0  0  0  0  0  0  0  0  0
   -8.5100   18.1900  -32.3080 C   0  0  0  0  0  0  0  0  0  0  0  0
   -9.1450   19.5690  -32.2150 C   0  0  0  0  0  0  0  0  0  0  0  0
   -5.8090   22.6390  -31.7700 C   0  0  0  0  0  0  0  0  0  0  0  0
   -4.6480   23.3660  -31.4870 C   0  0  0  0  0  0  0  0  0  0  0  0
   -0.9560   22.8320  -30.1440 C   0  0  0  0  0  0  0  0  0  0  0  0
   -0.4990   21.5250  -30.3130 C   0  0  0  0  0  0  0  0  0  0  0  0
   -0.8900   20.5060  -29.4340 C   0  0  0  0  0  0  0  0  0  0  0  0
   -0.4170   19.1790  -29.7240 N   0  0  0  0  0  0  0  0  0  0  0  0
   -1.3807   17.1833  -27.5059 H   0  0  0  0  0  0  0  0  0  0  0  0
    0.3399   17.4943  -26.9087 H   0  0  0  0  0  0  0  0  0  0  0  0
   -1.2273   18.8575  -25.6854 H   0  0  0  0  0  0  0  0  0  0  0  0
   -0.1529   19.8590  -26.7517 H   0  0  0  0  0  0  0  0  0  0  0  0
   -2.7904   19.0006  -27.8838 H   0  0  0  0  0  0  0  0  0  0  0  0
   -2.8114   20.2554  -26.5921 H   0  0  0  0  0  0  0  0  0  0  0  0
   -2.9180   22.3803  -27.3896 H   0  0  0  0  0  0  0  0  0  0  0  0
   -5.8906   25.4653  -29.0917 H   0  0  0  0  0  0  0  0  0  0  0  0
   -7.9590   24.1737  -29.5994 H   0  0  0  0  0  0  0  0  0  0  0  0
   -5.9693   20.2627  -32.0408 H   0  0  0  0  0  0  0  0  0  0  0  0
   -6.9048   20.0646  -30.5462 H   0  0  0  0  0  0  0  0  0  0  0  0
   -6.3945   18.1063  -32.7661 H   0  0  0  0  0  0  0  0  0  0  0  0
   -6.7609   17.7714  -31.0703 H   0  0  0  0  0  0  0  0  0  0  0  0
   -8.5921   17.7966  -33.3319 H   0  0  0  0  0  0  0  0  0  0  0  0
   -9.0071   17.4649  -31.6468 H   0  0  0  0  0  0  0  0  0  0  0  0
   -9.8354   19.7267  -33.0567 H   0  0  0  0  0  0  0  0  0  0  0  0
   -9.7233   19.6780  -31.2857 H   0  0  0  0  0  0  0  0  0  0  0  0
   -5.7867   21.8459  -32.5319 H   0  0  0  0  0  0  0  0  0  0  0  0
   -3.7150   23.1381  -32.0233 H   0  0  0  0  0  0  0  0  0  0  0  0
   -0.6286   23.6210  -30.8370 H   0  0  0  0  0  0  0  0  0  0  0  0
    0.1778   21.2909  -31.1479 H   0  0  0  0  0  0  0  0  0  0  0  0
  1  2  2  0
  2  3  1  0
  3  4  1  0
  4  5  1  0
  5  6  1  0
  6  7  2  0
  7  8  1  0
  8  9  1  0
  9 10  2  0
  9 11  2  0
  9 12  1  0
 12 13  1  0
 13 14  2  0
 14 15  1  0
 15 16  2  0
 16 17  1  0
 17 18  2  0
 17 19  2  0
 17 20  1  0
 20 21  1  0
 21 22  1  0
 22 23  1  0
 23 24  1  0
 16 25  1  0
 25 26  2  0
  8 27  2  0
 27 28  1  0
 28 29  2  0
 29 30  1  0
 30  2  1  0
 29  6  1  0
 26 13  1  0
 24 20  1  0
  3 31  1  0
  3 32  1  0
  4 33  1  0
  4 34  1  0
  5 35  1  0
  5 36  1  0
  7 37  1  0
 14 38  1  0
 15 39  1  0
 21 40  1  0
 21 41  1  0
 22 42  1  0
 22 43  1  0
 23 44  1  0
 23 45  1  0
 24 46  1  0
 24 47  1  0
 25 48  1  0
 26 49  1  0
 27 50  1  0
 28 51  1  0
M  CHG  2  12  -1  30  -1
M  END
>  <UniqueID>  (25) 
23

>  <SMILES>  (25) 
O=C1CCCc2cc(S(=O)(=O)[N-]c3ccc(S(=O)(=O)N4CCCC4)cc3)ccc2[N-]1

>  <Energy>  (25) 
68.66017740893184

>  <Genealogy>  (25) 
O=C1CCCc2cc(S(=O)(=O)[N-]c3ccc(S(=O)(=O)N4CCCC4)cc3)ccc2[N-]1 (protonated)
O=C1CCCc2cc(S(=O)(=O)[N-]c3ccc(S(=O)(=O)N4CCCC4)cc3)ccc2[N-]1 (3D coordinates assigned)
O=C1CCCc2cc(S(=O)(=O)[N-]c3ccc(S(=O)(=O)N4CCCC4)cc3)ccc2[N-]1 (nonaromatic ring conformer: 68.66017740893184 kcal/mol)

>  <smiles>  (25) 
O=C1CCCc2cc(S(=O)(=O)Nc3ccc(S(=O)(=O)N4CCCC4)cc3)ccc2N1

>  <score_type>  (25) 
oracle

>  <origin>  (25) 
adgpu

>  <m_score__min__energy>  (25) 
-10.199999999999999

>  <m_primary>  (25) 
energy

$$$$
25:0
     RDKit          3D

 44 46  0  0  0  0  0  0  0  0999 V2000
   -4.6450   25.4050  -31.2250 O   0  0  0  0  0  0  0  0  0  0  0  0
   -5.3490   24.7360  -30.0780 S   0  0  0  0  0  0  0  0  0  0  0  0
   -6.4160   25.6540  -29.5550 O   0  0  0  0  0  0  0  0  0  0  0  0
   -4.2050   24.4080  -28.8200 N   0  0  0  0  0  0  0  0  0  0  0  0
   -3.0070   23.6290  -28.9710 C   0  0  0  0  0  0  0  0  0  0  0  0
   -3.0130   22.2260  -28.8470 C   0  0  0  0  0  0  0  0  0  0  0  0
   -1.8250   21.5030  -28.9770 C   0  0  0  0  0  0  0  0  0  0  0  0
   -0.6270   22.1670  -29.2380 C   0  0  0  0  0  0  0  0  0  0  0  0
   -0.6100   23.5590  -29.3660 C   0  0  0  0  0  0  0  0  0  0  0  0
   -1.7980   24.2860  -29.2300 C   0  0  0  0  0  0  0  0  0  0  0  0
   -1.7640   25.6720  -29.3420 O   0  0  0  0  0  0  0  0  0  0  0  0
   -6.0930   23.2260  -30.5870 C   0  0  0  0  0  0  0  0  0  0  0  0
   -7.3010   22.7970  -30.0280 C   0  0  0  0  0  0  0  0  0  0  0  0
   -7.9410   21.6590  -30.5260 C   0  0  0  0  0  0  0  0  0  0  0  0
   -7.3750   20.9370  -31.5840 C   0  0  0  0  0  0  0  0  0  0  0  0
   -8.2470   19.5820  -32.3000 S   0  0  0  0  0  0  0  0  0  0  0  0
   -9.1640   18.9840  -31.2670 O   0  0  0  0  0  0  0  0  0  0  0  0
   -9.0890   20.0790  -33.4420 O   0  0  0  0  0  0  0  0  0  0  0  0
   -7.1450   18.3620  -32.8960 N   0  0  0  0  0  0  0  0  0  0  0  0
   -6.4260   18.8170  -34.1110 C   0  0  0  0  0  0  0  0  0  0  0  0
   -4.9860   19.2730  -33.8210 C   0  0  0  0  0  0  0  0  0  0  0  0
   -4.1620   18.1440  -33.1760 C   0  0  0  0  0  0  0  0  0  0  0  0
   -5.0250   17.1770  -32.3460 C   0  0  0  0  0  0  0  0  0  0  0  0
   -6.2700   17.8820  -31.8020 C   0  0  0  0  0  0  0  0  0  0  0  0
   -6.1430   21.3400  -32.1130 C   0  0  0  0  0  0  0  0  0  0  0  0
   -5.5080   22.4830  -31.6210 C   0  0  0  0  0  0  0  0  0  0  0  0
   -3.9569   21.6977  -28.6470 H   0  0  0  0  0  0  0  0  0  0  0  0
   -1.8345   20.4079  -28.8733 H   0  0  0  0  0  0  0  0  0  0  0  0
    0.3064   21.5945  -29.3434 H   0  0  0  0  0  0  0  0  0  0  0  0
    0.3354   24.0818  -29.5732 H   0  0  0  0  0  0  0  0  0  0  0  0
   -7.7487   23.3571  -29.1938 H   0  0  0  0  0  0  0  0  0  0  0  0
   -8.8932   21.3290  -30.0852 H   0  0  0  0  0  0  0  0  0  0  0  0
   -6.3924   17.9856  -34.8305 H   0  0  0  0  0  0  0  0  0  0  0  0
   -6.9717   19.6842  -34.5112 H   0  0  0  0  0  0  0  0  0  0  0  0
   -4.5074   19.5715  -34.7654 H   0  0  0  0  0  0  0  0  0  0  0  0
   -5.0241   20.1197  -33.1199 H   0  0  0  0  0  0  0  0  0  0  0  0
   -3.6624   17.5738  -33.9730 H   0  0  0  0  0  0  0  0  0  0  0  0
   -3.4369   18.6109  -32.4933 H   0  0  0  0  0  0  0  0  0  0  0  0
   -5.3371   16.3363  -32.9830 H   0  0  0  0  0  0  0  0  0  0  0  0
   -4.4275   16.8154  -31.4961 H   0  0  0  0  0  0  0  0  0  0  0  0
   -6.8354   17.1760  -31.1760 H   0  0  0  0  0  0  0  0  0  0  0  0
   -5.9438   18.7528  -31.2144 H   0  0  0  0  0  0  0  0  0  0  0  0
   -5.6739   20.7553  -32.9180 H   0  0  0  0  0  0  0  0  0  0  0  0
   -4.5450   22.8009  -32.0470 H   0  0  0  0  0  0  0  0  0  0  0  0
  1  2  2  0
  2  3  2  0
  2  4  1  0
  4  5  1  0
  5  6  2  0
  6  7  1  0
  7  8  2  0
  8  9  1  0
  9 10  2  0
 10 11  1  0
  2 12  1  0
 12 13  2  0
 13 14  1  0
 14 15  2  0
 15 16  1  0
 16 17  2  0
 16 18  2  0
 16 19  1  0
 19 20  1  0
 20 21  1  0
 21 22  1  0
 22 23  1  0
 23 24  1  0
 15 25  1  0
 25 26  2  0
 10  5  1  0
 26 12  1  0
 24 19  1  0
  6 27  1  0
  7 28  1  0
  8 29  1  0
  9 30  1  0
 13 31  1  0
 14 32  1  0
 20 33  1  0
 20 34  1  0
 21 35  1  0
 21 36  1  0
 22 37  1  0
 22 38  1  0
 23 39  1  0
 23 40  1  0
 24 41  1  0
 24 42  1  0
 25 43  1  0
 26 44  1  0
M  CHG  2   4  -1  11  -1
M  END
>  <UniqueID>  (26) 
24

>  <SMILES>  (26) 
O=S(=O)([N-]c1ccccc1[O-])c1ccc(S(=O)(=O)N2CCCCC2)cc1

>  <Energy>  (26) 
51.793637664044404

>  <Genealogy>  (26) 
O=S(=O)([N-]c1ccccc1[O-])c1ccc(S(=O)(=O)N2CCCCC2)cc1 (protonated)
O=S(=O)([N-]c1ccccc1[O-])c1ccc(S(=O)(=O)N2CCCCC2)cc1 (3D coordinates assigned)
O=S(=O)([N-]c1ccccc1[O-])c1ccc(S(=O)(=O)N2CCCCC2)cc1 (nonaromatic ring conformer: 51.793637664044404 kcal/mol)

>  <smiles>  (26) 
O=S(=O)(Nc1ccccc1O)c1ccc(S(=O)(=O)N2CCCCC2)cc1

>  <score_type>  (26) 
oracle

>  <origin>  (26) 
adgpu

>  <m_score__min__energy>  (26) 
-14.57

>  <m_primary>  (26) 
energy

$$$$
26:0
     RDKit          3D

 36 38  0  0  0  0  0  0  0  0999 V2000
   -2.6453   21.0580  -29.1490 H   0  0  0  0  0  0  0  0  0  0  0  0
   -3.2690   21.9640  -29.1380 C   0  0  0  0  0  0  0  0  0  0  0  0
   -3.1070   22.9140  -28.1070 C   0  0  0  0  0  0  0  0  0  0  0  0
   -2.3591   22.7429  -27.3188 H   0  0  0  0  0  0  0  0  0  0  0  0
   -3.8950   24.0770  -28.0810 C   0  0  0  0  0  0  0  0  0  0  0  0
   -3.7759   24.8244  -27.2828 H   0  0  0  0  0  0  0  0  0  0  0  0
   -4.8320   24.2550  -29.0970 C   0  0  0  0  0  0  0  0  0  0  0  0
   -4.9970   23.3310  -30.1020 C   0  0  0  0  0  0  0  0  0  0  0  0
   -4.2230   22.1680  -30.1520 C   0  0  0  0  0  0  0  0  0  0  0  0
   -4.3558   21.4339  -30.9603 H   0  0  0  0  0  0  0  0  0  0  0  0
   -5.9960   23.8240  -30.9320 C   0  0  0  0  0  0  0  0  0  0  0  0
   -6.5560   23.2320  -32.1600 C   0  0  0  0  0  0  0  0  0  0  0  0
   -7.5280   23.7950  -32.7310 O   0  0  0  0  0  0  0  0  0  0  0  0
   -6.0830   21.9690  -32.6370 N   0  0  0  0  0  0  0  0  0  0  0  0
   -6.6050   20.7820  -32.4750 C   0  0  0  0  0  0  0  0  0  0  0  0
   -5.9500   19.6640  -32.8530 N   0  0  0  0  0  0  0  0  0  0  0  0
   -4.6530   19.5790  -33.5190 C   0  0  0  0  0  0  0  0  0  0  0  0
   -3.8555   19.5267  -32.7632 H   0  0  0  0  0  0  0  0  0  0  0  0
   -4.6221   18.6769  -34.1477 H   0  0  0  0  0  0  0  0  0  0  0  0
   -4.5046   20.4693  -34.1477 H   0  0  0  0  0  0  0  0  0  0  0  0
   -6.7670   18.6360  -32.5670 C   0  0  0  0  0  0  0  0  0  0  0  0
   -6.5541   17.5722  -32.7486 H   0  0  0  0  0  0  0  0  0  0  0  0
   -7.9190   19.1470  -32.0060 C   0  0  0  0  0  0  0  0  0  0  0  0
   -9.1120   18.3340  -31.6060 C   0  0  0  0  0  0  0  0  0  0  0  0
   -9.1752   18.2910  -30.5087 H   0  0  0  0  0  0  0  0  0  0  0  0
  -10.0242   18.7992  -32.0078 H   0  0  0  0  0  0  0  0  0  0  0  0
   -9.0126   17.3148  -32.0078 H   0  0  0  0  0  0  0  0  0  0  0  0
   -7.8400   20.5000  -31.9700 N   0  0  0  0  0  0  0  0  0  0  0  0
   -8.9320   21.4070  -31.5970 C   0  0  0  0  0  0  0  0  0  0  0  0
   -9.0021   21.4652  -30.5008 H   0  0  0  0  0  0  0  0  0  0  0  0
   -8.7323   22.4087  -32.0053 H   0  0  0  0  0  0  0  0  0  0  0  0
   -9.8800   21.0269  -32.0053 H   0  0  0  0  0  0  0  0  0  0  0  0
   -6.3800   25.0410  -30.3720 C   0  0  0  0  0  0  0  0  0  0  0  0
   -7.1557   25.7031  -30.7842 H   0  0  0  0  0  0  0  0  0  0  0  0
   -5.6670   25.2950  -29.2520 N   0  0  0  0  0  0  0  0  0  0  0  0
   -5.7500   26.1350  -28.6370 H   0  0  0  0  0  0  0  0  0  0  0  0
  1  2  1  0
  2  3  2  0
  3  4  1  0
  3  5  1  0
  5  6  1  0
  5  7  2  0
  7  8  1  0
  8  9  2  0
  9 10  1  0
  8 11  1  0
 11 12  1  0
 12 13  2  0
 12 14  1  0
 14 15  2  0
 15 16  1  0
 16 17  1  0
 17 18  1  0
 17 19  1  0
 17 20  1  0
 16 21  1  0
 21 22  1  0
 21 23  2  0
 23 24  1  0
 24 25  1  0
 24 26  1  0
 24 27  1  0
 23 28  1  0
 28 29  1  0
 29 30  1  0
 29 31  1  0
 29 32  1  0
 11 33  2  0
 33 34  1  0
 33 35  1  0
 35 36  1  0
  9  2  1  0
 28 15  1  0
 35  7  1  0
M  END
>  <UniqueID>  (27) 
25

>  <SMILES>  (27) 
Cc1cn(C)/c(=N/C(=O)c2c[nH]c3ccccc23)n1C

>  <Energy>  (27) 
113.64282900432131

>  <Genealogy>  (27) 
Cc1cn(C)/c(=N/C(=O)c2c[nH]c3ccccc23)n1C (cis-trans isomerization)
Cc1cn(C)/c(=N/C(=O)c2c[nH]c3ccccc23)n1C (3D coordinates assigned)
Cc1cn(C)/c(=N/C(=O)c2c[nH]c3ccccc23)n1C (optimized conformer: 113.64282900432131 kcal/mol)

>  <smiles>  (27) 
Cc1cn(C)c(=NC(=O)c2c[nH]c3ccccc23)n1C

>  <score_type>  (27) 
oracle

>  <origin>  (27) 
adgpu

>  <m_score__min__energy>  (27) 
-7.4299999999999997

>  <m_primary>  (27) 
energy

$$$$
27:0
     RDKit          3D

 45 47  0  0  0  0  0  0  0  0999 V2000
   -3.8820   25.4790  -30.8480 O   0  0  0  0  0  0  0  0  0  0  0  0
   -4.1680   24.2950  -30.5400 C   0  0  0  0  0  0  0  0  0  0  0  0
   -4.5490   23.3780  -31.5770 N   0  0  0  0  0  0  0  0  0  0  0  0
   -5.8300   22.7520  -31.7280 C   0  0  0  0  0  0  0  0  0  0  0  0
   -7.0170   23.5010  -31.8090 C   0  0  0  0  0  0  0  0  0  0  0  0
   -8.2490   22.8560  -31.9460 C   0  0  0  0  0  0  0  0  0  0  0  0
   -8.3100   21.4620  -31.9760 C   0  0  0  0  0  0  0  0  0  0  0  0
   -7.1380   20.7010  -31.8630 C   0  0  0  0  0  0  0  0  0  0  0  0
   -7.2190   18.9370  -31.8770 S   0  0  0  0  0  0  0  0  0  0  0  0
   -6.2430   18.3890  -30.8740 O   0  0  0  0  0  0  0  0  0  0  0  0
   -8.5980   18.5020  -31.4670 O   0  0  0  0  0  0  0  0  0  0  0  0
   -6.8580   18.2880  -33.4600 N   0  0  0  0  0  0  0  0  0  0  0  0
   -6.9030   16.8040  -33.4670 C   0  0  0  0  0  0  0  0  0  0  0  0
   -5.5090   16.1640  -33.4630 C   0  0  0  0  0  0  0  0  0  0  0  0
   -4.6800   16.6210  -34.6750 C   0  0  0  0  0  0  0  0  0  0  0  0
   -5.0370   18.0430  -35.1380 C   0  0  0  0  0  0  0  0  0  0  0  0
   -5.6030   18.8730  -33.9810 C   0  0  0  0  0  0  0  0  0  0  0  0
   -5.9020   21.3530  -31.7300 C   0  0  0  0  0  0  0  0  0  0  0  0
   -4.1030   23.8980  -29.1640 N   0  0  0  0  0  0  0  0  0  0  0  0
   -2.9300   23.4300  -28.4840 C   0  0  0  0  0  0  0  0  0  0  0  0
   -2.9440   22.2370  -27.7390 C   0  0  0  0  0  0  0  0  0  0  0  0
   -1.8000   21.8250  -27.0500 C   0  0  0  0  0  0  0  0  0  0  0  0
   -0.6330   22.5890  -27.1090 C   0  0  0  0  0  0  0  0  0  0  0  0
   -0.6130   23.7790  -27.8390 C   0  0  0  0  0  0  0  0  0  0  0  0
   -1.7620   24.2080  -28.5200 C   0  0  0  0  0  0  0  0  0  0  0  0
   -1.7470   25.4010  -29.2400 O   0  0  0  0  0  0  0  0  0  0  0  0
   -6.9757   24.5993  -31.7643 H   0  0  0  0  0  0  0  0  0  0  0  0
   -9.1723   23.4479  -32.0303 H   0  0  0  0  0  0  0  0  0  0  0  0
   -9.2814   20.9584  -32.0887 H   0  0  0  0  0  0  0  0  0  0  0  0
   -7.4472   16.4652  -32.5731 H   0  0  0  0  0  0  0  0  0  0  0  0
   -7.4058   16.4936  -34.3948 H   0  0  0  0  0  0  0  0  0  0  0  0
   -4.9845   16.4537  -32.5405 H   0  0  0  0  0  0  0  0  0  0  0  0
   -5.6286   15.0718  -33.5165 H   0  0  0  0  0  0  0  0  0  0  0  0
   -3.6148   16.5973  -34.4015 H   0  0  0  0  0  0  0  0  0  0  0  0
   -4.9027   15.9360  -35.5063 H   0  0  0  0  0  0  0  0  0  0  0  0
   -4.1309   18.5338  -35.5229 H   0  0  0  0  0  0  0  0  0  0  0  0
   -5.8021   17.9728  -35.9252 H   0  0  0  0  0  0  0  0  0  0  0  0
   -4.8610   18.9087  -33.1697 H   0  0  0  0  0  0  0  0  0  0  0  0
   -5.8216   19.8841  -34.3550 H   0  0  0  0  0  0  0  0  0  0  0  0
   -4.9814   20.7599  -31.6264 H   0  0  0  0  0  0  0  0  0  0  0  0
   -3.8581   21.6265  -27.6986 H   0  0  0  0  0  0  0  0  0  0  0  0
   -1.8191   20.8968  -26.4600 H   0  0  0  0  0  0  0  0  0  0  0  0
    0.2712   22.2533  -26.5801 H   0  0  0  0  0  0  0  0  0  0  0  0
    0.3062   24.3818  -27.8803 H   0  0  0  0  0  0  0  0  0  0  0  0
   -2.5150   25.6670  -29.8440 H   0  0  0  0  0  0  0  0  0  0  0  0
  1  2  2  0
  2  3  1  0
  3  4  1  0
  4  5  2  0
  5  6  1  0
  6  7  2  0
  7  8  1  0
  8  9  1  0
  9 10  2  0
  9 11  2  0
  9 12  1  0
 12 13  1  0
 13 14  1  0
 14 15  1  0
 15 16  1  0
 16 17  1  0
  8 18  2  0
  2 19  1  0
 19 20  1  0
 20 21  2  0
 21 22  1  0
 22 23  2  0
 23 24  1  0
 24 25  2  0
 25 26  1  0
 18  4  1  0
 25 20  1  0
 17 12  1  0
  5 27  1  0
  6 28  1  0
  7 29  1  0
 13 30  1  0
 13 31  1  0
 14 32  1  0
 14 33  1  0
 15 34  1  0
 15 35  1  0
 16 36  1  0
 16 37  1  0
 17 38  1  0
 17 39  1  0
 18 40  1  0
 21 41  1  0
 22 42  1  0
 23 43  1  0
 24 44  1  0
 26 45  1  0
M  CHG  2   3  -1  19  -1
M  END
>  <UniqueID>  (28) 
26

>  <SMILES>  (28) 
O=C([N-]c1cccc(S(=O)(=O)N2CCCCC2)c1)[N-]c1ccccc1O

>  <Energy>  (28) 
55.90161949640174

>  <Genealogy>  (28) 
O=C([N-]c1cccc(S(=O)(=O)N2CCCCC2)c1)[N-]c1ccccc1O (protonated)
O=C([N-]c1cccc(S(=O)(=O)N2CCCCC2)c1)[N-]c1ccccc1O (3D coordinates assigned)
O=C([N-]c1cccc(S(=O)(=O)N2CCCCC2)c1)[N-]c1ccccc1O (nonaromatic ring conformer: 55.90161949640174 kcal/mol)

>  <smiles>  (28) 
O=C(Nc1cccc(S(=O)(=O)N2CCCCC2)c1)Nc1ccccc1O

>  <score_type>  (28) 
oracle

>  <origin>  (28) 
adgpu

>  <m_score__min__energy>  (28) 
-12.83

>  <m_primary>  (28) 
energy

$$$$
28:0
     RDKit          3D

 71 75  0  0  0  0  0  0  0  0999 V2000
   -2.7830   20.8950  -31.5740 O   0  0  0  0  0  0  0  0  0  0  0  0
   -3.1950   20.4720  -32.6890 C   0  0  0  0  0  0  0  0  0  0  0  0
   -4.5730   20.6410  -33.0580 N   0  0  0  0  0  0  0  0  0  0  0  0
   -5.4770   21.5440  -32.3960 C   0  0  0  0  0  0  0  0  0  0  0  0
   -6.8680   21.3500  -32.4360 C   0  0  0  0  0  0  0  0  0  0  0  0
   -7.7220   22.2290  -31.7630 C   0  0  0  0  0  0  0  0  0  0  0  0
   -7.1960   23.2960  -31.0330 C   0  0  0  0  0  0  0  0  0  0  0  0
   -5.8090   23.4860  -30.9620 C   0  0  0  0  0  0  0  0  0  0  0  0
   -5.1420   24.8120  -30.0060 S   0  0  0  0  0  0  0  0  0  0  0  0
   -4.2110   25.6230  -30.8640 O   0  0  0  0  0  0  0  0  0  0  0  0
   -6.2600   25.7100  -29.5540 O   0  0  0  0  0  0  0  0  0  0  0  0
   -4.2780   24.2210  -28.6050 N   0  0  0  0  0  0  0  0  0  0  0  0
   -2.8340   24.5220  -28.7260 C   0  0  0  0  0  0  0  0  0  0  0  0
   -2.0030   23.6760  -27.7570 C   0  0  0  0  0  0  0  0  0  0  0  0
   -2.1490   22.1740  -28.0660 C   0  0  0  0  0  0  0  0  0  0  0  0
   -3.4770   21.8380  -28.7680 C   0  0  0  0  0  0  0  0  0  0  0  0
   -4.5930   22.7960  -28.3290 C   0  0  0  0  0  0  0  0  0  0  0  0
   -4.9550   22.6080  -31.6440 C   0  0  0  0  0  0  0  0  0  0  0  0
   -2.2570   19.7800  -33.6050 C   0  0  0  0  0  0  0  0  0  0  0  0
   -1.0140   20.3730  -33.8860 C   0  0  0  0  0  0  0  0  0  0  0  0
   -0.0820   19.7280  -34.7050 C   0  0  0  0  0  0  0  0  0  0  0  0
    1.4580   20.5080  -35.0520 S   0  0  0  0  0  0  0  0  0  0  0  0
    1.9210   20.1420  -36.4360 O   0  0  0  0  0  0  0  0  0  0  0  0
    2.4780   20.0400  -34.0520 O   0  0  0  0  0  0  0  0  0  0  0  0
    1.2660   22.2400  -34.9250 N   0  0  0  0  0  0  0  0  0  0  0  0
    0.2350   22.7310  -35.8390 C   0  0  0  0  0  0  0  0  0  0  0  0
    0.5970   24.1700  -36.1710 C   0  0  0  0  0  0  0  0  0  0  0  0
    2.0650   24.3150  -35.7980 C   0  0  0  0  0  0  0  0  0  0  0  0
    2.4910   22.9420  -35.3040 C   0  0  0  0  0  0  0  0  0  0  0  0
   -0.3790   18.4690  -35.2360 C   0  0  0  0  0  0  0  0  0  0  0  0
   -1.6100   17.8680  -34.9690 C   0  0  0  0  0  0  0  0  0  0  0  0
   -2.5600   18.5170  -34.1660 C   0  0  0  0  0  0  0  0  0  0  0  0
   -3.8470   17.9100  -33.9820 N   0  0  0  0  0  0  0  0  0  0  0  0
   -4.2530   17.2850  -32.7360 C   0  0  0  0  0  0  0  0  0  0  0  0
   -5.7560   17.0670  -32.8640 C   0  0  0  0  0  0  0  0  0  0  0  0
   -6.0840   17.2460  -34.3470 C   0  0  0  0  0  0  0  0  0  0  0  0
   -4.9310   18.0460  -34.9350 C   0  0  0  0  0  0  0  0  0  0  0  0
   -4.9690   19.9950  -33.7790 H   0  0  0  0  0  0  0  0  0  0  0  0
   -7.2869   20.5030  -32.9992 H   0  0  0  0  0  0  0  0  0  0  0  0
   -8.8108   22.0793  -31.8089 H   0  0  0  0  0  0  0  0  0  0  0  0
   -7.8719   23.9899  -30.5118 H   0  0  0  0  0  0  0  0  0  0  0  0
   -2.5093   24.3096  -29.7553 H   0  0  0  0  0  0  0  0  0  0  0  0
   -2.6799   25.5827  -28.4787 H   0  0  0  0  0  0  0  0  0  0  0  0
   -0.9444   23.9604  -27.8489 H   0  0  0  0  0  0  0  0  0  0  0  0
   -2.3653   23.8590  -26.7346 H   0  0  0  0  0  0  0  0  0  0  0  0
   -1.3185   21.8667  -28.7185 H   0  0  0  0  0  0  0  0  0  0  0  0
   -2.1344   21.6347  -27.1074 H   0  0  0  0  0  0  0  0  0  0  0  0
   -3.3392   21.9218  -29.8561 H   0  0  0  0  0  0  0  0  0  0  0  0
   -3.7680   20.8136  -28.4924 H   0  0  0  0  0  0  0  0  0  0  0  0
   -5.5147   22.5303  -28.8674 H   0  0  0  0  0  0  0  0  0  0  0  0
   -4.7077   22.6898  -27.2402 H   0  0  0  0  0  0  0  0  0  0  0  0
   -3.8661   22.7542  -31.5893 H   0  0  0  0  0  0  0  0  0  0  0  0
   -0.7715   21.3562  -33.4565 H   0  0  0  0  0  0  0  0  0  0  0  0
    0.2194   22.1226  -36.7553 H   0  0  0  0  0  0  0  0  0  0  0  0
   -0.7631   22.6691  -35.3807 H   0  0  0  0  0  0  0  0  0  0  0  0
    0.4516   24.3655  -37.2437 H   0  0  0  0  0  0  0  0  0  0  0  0
   -0.0356   24.8865  -35.6265 H   0  0  0  0  0  0  0  0  0  0  0  0
    2.6583   24.6097  -36.6761 H   0  0  0  0  0  0  0  0  0  0  0  0
    2.2193   25.0916  -35.0344 H   0  0  0  0  0  0  0  0  0  0  0  0
    3.0110   22.3946  -36.1040 H   0  0  0  0  0  0  0  0  0  0  0  0
    3.1836   23.0221  -34.4532 H   0  0  0  0  0  0  0  0  0  0  0  0
    0.3594   17.9510  -35.8657 H   0  0  0  0  0  0  0  0  0  0  0  0
   -1.8371   16.8780  -35.3913 H   0  0  0  0  0  0  0  0  0  0  0  0
   -3.7348   16.3242  -32.6006 H   0  0  0  0  0  0  0  0  0  0  0  0
   -4.0026   17.9083  -31.8649 H   0  0  0  0  0  0  0  0  0  0  0  0
   -6.0245   16.0529  -32.5330 H   0  0  0  0  0  0  0  0  0  0  0  0
   -6.3201   17.7746  -32.2387 H   0  0  0  0  0  0  0  0  0  0  0  0
   -6.1625   16.2670  -34.8425 H   0  0  0  0  0  0  0  0  0  0  0  0
   -7.0462   17.7599  -34.4889 H   0  0  0  0  0  0  0  0  0  0  0  0
   -4.6377   17.6374  -35.9133 H   0  0  0  0  0  0  0  0  0  0  0  0
   -5.2036   19.0990  -35.0991 H   0  0  0  0  0  0  0  0  0  0  0  0
  1  2  2  0
  2  3  1  0
  3  4  1  0
  4  5  2  0
  5  6  1  0
  6  7  2  0
  7  8  1  0
  8  9  1  0
  9 10  2  0
  9 11  2  0
  9 12  1  0
 12 13  1  0
 13 14  1  0
 14 15  1  0
 15 16  1  0
 16 17  1  0
  8 18  2  0
  2 19  1  0
 19 20  2  0
 20 21  1  0
 21 22  1  0
 22 23  2  0
 22 24  2  0
 22 25  1  0
 25 26  1  0
 26 27  1  0
 27 28  1  0
 28 29  1  0
 21 30  2  0
 30 31  1  0
 31 32  2  0
 32 33  1  0
 33 34  1  0
 34 35  1  0
 35 36  1  0
 36 37  1  0
 18  4  1  0
 32 19  1  0
 37 33  1  0
 17 12  1  0
 29 25  1  0
  3 38  1  0
  5 39  1  0
  6 40  1  0
  7 41  1  0
 13 42  1  0
 13 43  1  0
 14 44  1  0
 14 45  1  0
 15 46  1  0
 15 47  1  0
 16 48  1  0
 16 49  1  0
 17 50  1  0
 17 51  1  0
 18 52  1  0
 20 53  1  0
 26 54  1  0
 26 55  1  0
 27 56  1  0
 27 57  1  0
 28 58  1  0
 28 59  1  0
 29 60  1  0
 29 61  1  0
 30 62  1  0
 31 63  1  0
 34 64  1  0
 34 65  1  0
 35 66  1  0
 35 67  1  0
 36 68  1  0
 36 69  1  0
 37 70  1  0
 37 71  1  0
M  END
>  <UniqueID>  (29) 
27

>  <SMILES>  (29) 
O=C(Nc1cccc(S(=O)(=O)N2CCCCC2)c1)c1cc(S(=O)(=O)N2CCCC2)ccc1N1CCCC1

>  <Energy>  (29) 
90.19848620719732

>  <Genealogy>  (29) 
O=C(Nc1cccc(S(=O)(=O)N2CCCCC2)c1)c1cc(S(=O)(=O)N2CCCC2)ccc1N1CCCC1 (3D coordinates assigned)
O=C(Nc1cccc(S(=O)(=O)N2CCCCC2)c1)c1cc(S(=O)(=O)N2CCCC2)ccc1N1CCCC1 (nonaromatic ring conformer: 90.19848620719732 kcal/mol)

>  <smiles>  (29) 
O=C(Nc1cccc(S(=O)(=O)N2CCCCC2)c1)c1cc(S(=O)(=O)N2CCCC2)ccc1N1CCCC1

>  <score_type>  (29) 
oracle

>  <origin>  (29) 
adgpu

>  <m_score__min__energy>  (29) 
-11.59

>  <m_primary>  (29) 
energy

$$$$
29:0
     RDKit          3D

 37 39  0  0  0  0  0  0  0  0999 V2000
   -1.4712   17.4275  -26.1493 H   0  0  0  0  0  0  0  0  0  0  0  0
   -1.7330   18.3430  -26.7000 C   0  0  0  0  0  0  0  0  0  0  0  0
   -1.0240   18.8690  -27.6710 O   0  0  0  0  0  0  0  0  0  0  0  0
   -1.6370   19.9490  -28.0990 C   0  0  0  0  0  0  0  0  0  0  0  0
   -1.1110   20.8320  -29.1900 C   0  0  0  0  0  0  0  0  0  0  0  0
   -0.9651   20.2314  -30.1000 H   0  0  0  0  0  0  0  0  0  0  0  0
   -0.1568   21.2678  -28.8588 H   0  0  0  0  0  0  0  0  0  0  0  0
   -2.0430   21.9180  -29.4790 N   0  0  0  0  0  0  0  0  0  0  0  0
   -1.8980   23.1900  -29.2180 C   0  0  0  0  0  0  0  0  0  0  0  0
   -0.8570   23.8150  -28.5410 C   0  0  0  0  0  0  0  0  0  0  0  0
    0.3270   23.2550  -27.9410 C   0  0  0  0  0  0  0  0  0  0  0  0
    1.2790   22.8110  -27.4550 N   0  0  0  0  0  0  0  0  0  0  0  0
   -1.2390   25.1450  -28.4860 C   0  0  0  0  0  0  0  0  0  0  0  0
   -0.5050   26.2510  -27.8000 C   0  0  0  0  0  0  0  0  0  0  0  0
   -0.5882   26.1257  -26.7103 H   0  0  0  0  0  0  0  0  0  0  0  0
    0.5551   26.2241  -28.0923 H   0  0  0  0  0  0  0  0  0  0  0  0
   -0.9416   27.2174  -28.0923 H   0  0  0  0  0  0  0  0  0  0  0  0
   -2.4370   25.3030  -29.0830 N   0  0  0  0  0  0  0  0  0  0  0  0
   -2.8260   24.1200  -29.5390 N   0  0  0  0  0  0  0  0  0  0  0  0
   -4.0710   23.9220  -30.2360 C   0  0  0  0  0  0  0  0  0  0  0  0
   -4.1770   22.9940  -31.2860 C   0  0  0  0  0  0  0  0  0  0  0  0
   -3.3003   22.3970  -31.5776 H   0  0  0  0  0  0  0  0  0  0  0  0
   -5.3890   22.8240  -31.9630 C   0  0  0  0  0  0  0  0  0  0  0  0
   -5.4596   22.0967  -32.7852 H   0  0  0  0  0  0  0  0  0  0  0  0
   -6.5150   23.5770  -31.5980 C   0  0  0  0  0  0  0  0  0  0  0  0
   -7.8030   23.4230  -32.3510 C   0  0  0  0  0  0  0  0  0  0  0  0
   -8.6348   23.3235  -31.6382 H   0  0  0  0  0  0  0  0  0  0  0  0
   -7.9660   24.3081  -32.9835 H   0  0  0  0  0  0  0  0  0  0  0  0
   -7.7528   22.5245  -32.9835 H   0  0  0  0  0  0  0  0  0  0  0  0
   -6.4030   24.5290  -30.5740 C   0  0  0  0  0  0  0  0  0  0  0  0
   -7.2732   25.1441  -30.3011 H   0  0  0  0  0  0  0  0  0  0  0  0
   -5.1920   24.7000  -29.8990 C   0  0  0  0  0  0  0  0  0  0  0  0
   -5.1151   25.4494  -29.0975 H   0  0  0  0  0  0  0  0  0  0  0  0
   -2.7940   20.1540  -27.3740 C   0  0  0  0  0  0  0  0  0  0  0  0
   -3.5147   20.9768  -27.4903 H   0  0  0  0  0  0  0  0  0  0  0  0
   -2.8570   19.1120  -26.4740 C   0  0  0  0  0  0  0  0  0  0  0  0
   -3.6436   18.9300  -25.7269 H   0  0  0  0  0  0  0  0  0  0  0  0
  1  2  1  0
  2  3  1  0
  3  4  1  0
  4  5  1  0
  5  6  1  0
  5  7  1  0
  5  8  1  0
  8  9  2  0
  9 10  1  0
 10 11  1  0
 11 12  3  0
 10 13  2  0
 13 14  1  0
 14 15  1  0
 14 16  1  0
 14 17  1  0
 13 18  1  0
 18 19  1  0
 19 20  1  0
 20 21  2  0
 21 22  1  0
 21 23  1  0
 23 24  1  0
 23 25  2  0
 25 26  1  0
 26 27  1  0
 26 28  1  0
 26 29  1  0
 25 30  1  0
 30 31  1  0
 30 32  2  0
 32 33  1  0
  4 34  2  0
 34 35  1  0
 34 36  1  0
 36 37  1  0
 36  2  2  0
 19  9  1  0
 32 20  1  0
M  CHG  1  18  -1
M  END
>  <UniqueID>  (30) 
28

>  <SMILES>  (30) 
Cc1ccc(-n2[n-]c(C)c(C#N)/c2=N\Cc2ccco2)cc1

>  <Energy>  (30) 
100.87802189588356

>  <Genealogy>  (30) 
Cc1ccc(-n2[n-]c(C)c(C#N)c2=NCc2ccco2)cc1 (protonated)
Cc1ccc(-n2[n-]c(C)c(C#N)/c2=N\Cc2ccco2)cc1 (cis-trans isomerization)
Cc1ccc(-n2[n-]c(C)c(C#N)/c2=N\Cc2ccco2)cc1 (3D coordinates assigned)
Cc1ccc(-n2[n-]c(C)c(C#N)/c2=N\Cc2ccco2)cc1 (optimized conformer: 100.87802189588356 kcal/mol)

>  <smiles>  (30) 
Cc1ccc(-n2[nH]c(C)c(C#N)c2=NCc2ccco2)cc1

>  <score_type>  (30) 
oracle

>  <origin>  (30) 
adgpu

>  <m_score__min__energy>  (30) 
-8.6699999999999999

>  <m_primary>  (30) 
energy

$$$$
30:0
     RDKit          3D

 44 46  0  0  0  0  0  0  0  0999 V2000
   -4.4230   18.2370  -34.2290 C   0  0  0  0  0  0  0  0  0  0  0  0
   -5.2990   19.3570  -34.1530 O   0  0  0  0  0  0  0  0  0  0  0  0
   -5.1310   20.4370  -33.2740 C   0  0  0  0  0  0  0  0  0  0  0  0
   -3.8650   20.9510  -32.9460 C   0  0  0  0  0  0  0  0  0  0  0  0
   -3.7490   22.0280  -32.0660 C   0  0  0  0  0  0  0  0  0  0  0  0
   -4.8910   22.6110  -31.5010 C   0  0  0  0  0  0  0  0  0  0  0  0
   -4.7310   23.9730  -30.3900 S   0  0  0  0  0  0  0  0  0  0  0  0
   -5.2390   23.5630  -29.0360 O   0  0  0  0  0  0  0  0  0  0  0  0
   -5.5340   25.1300  -30.9160 O   0  0  0  0  0  0  0  0  0  0  0  0
   -3.0670   24.4460  -30.2570 N   0  0  0  0  0  0  0  0  0  0  0  0
   -2.1930   24.1130  -29.1690 C   0  0  0  0  0  0  0  0  0  0  0  0
   -2.2300   22.8520  -28.5450 C   0  0  0  0  0  0  0  0  0  0  0  0
   -1.3660   22.5660  -27.4780 C   0  0  0  0  0  0  0  0  0  0  0  0
   -0.4490   23.5330  -27.0410 C   0  0  0  0  0  0  0  0  0  0  0  0
   -0.4000   24.7830  -27.6700 C   0  0  0  0  0  0  0  0  0  0  0  0
   -1.2720   25.0730  -28.7250 C   0  0  0  0  0  0  0  0  0  0  0  0
   -1.2170   26.3230  -29.3340 O   0  0  0  0  0  0  0  0  0  0  0  0
    0.4960   23.1770  -25.9270 C   0  0  0  0  0  0  0  0  0  0  0  0
   -0.2530   22.4410  -24.8020 C   0  0  0  0  0  0  0  0  0  0  0  0
   -1.2300   21.3390  -25.2910 C   0  0  0  0  0  0  0  0  0  0  0  0
   -1.3500   21.2130  -26.8220 C   0  0  0  0  0  0  0  0  0  0  0  0
   -6.1650   22.1070  -31.8210 C   0  0  0  0  0  0  0  0  0  0  0  0
   -7.2970   22.7050  -31.2430 O   0  0  0  0  0  0  0  0  0  0  0  0
   -8.3080   23.3950  -31.9710 C   0  0  0  0  0  0  0  0  0  0  0  0
   -6.2720   21.0180  -32.7100 C   0  0  0  0  0  0  0  0  0  0  0  0
   -4.1633   17.9050  -33.2130 H   0  0  0  0  0  0  0  0  0  0  0  0
   -4.9219   17.4171  -34.7664 H   0  0  0  0  0  0  0  0  0  0  0  0
   -3.5070   18.5237  -34.7664 H   0  0  0  0  0  0  0  0  0  0  0  0
   -2.9614   20.5026  -33.3847 H   0  0  0  0  0  0  0  0  0  0  0  0
   -2.7534   22.4222  -31.8140 H   0  0  0  0  0  0  0  0  0  0  0  0
   -2.9393   22.0878  -28.8956 H   0  0  0  0  0  0  0  0  0  0  0  0
    0.3255   25.5385  -27.3340 H   0  0  0  0  0  0  0  0  0  0  0  0
    1.2904   22.5255  -26.3200 H   0  0  0  0  0  0  0  0  0  0  0  0
    0.9317   24.1014  -25.5199 H   0  0  0  0  0  0  0  0  0  0  0  0
    0.4924   21.9713  -24.1434 H   0  0  0  0  0  0  0  0  0  0  0  0
   -0.8662   23.1965  -24.2889 H   0  0  0  0  0  0  0  0  0  0  0  0
   -0.8825   20.3735  -24.8946 H   0  0  0  0  0  0  0  0  0  0  0  0
   -2.2271   21.6255  -24.9254 H   0  0  0  0  0  0  0  0  0  0  0  0
   -0.4925   20.6392  -27.2034 H   0  0  0  0  0  0  0  0  0  0  0  0
   -2.2943   20.7001  -27.0569 H   0  0  0  0  0  0  0  0  0  0  0  0
   -9.0062   23.8715  -31.2671 H   0  0  0  0  0  0  0  0  0  0  0  0
   -7.8431   24.1651  -32.6041 H   0  0  0  0  0  0  0  0  0  0  0  0
   -8.8557   22.6814  -32.6041 H   0  0  0  0  0  0  0  0  0  0  0  0
   -7.2656   20.6199  -32.9635 H   0  0  0  0  0  0  0  0  0  0  0  0
  1  2  1  0
  2  3  1  0
  3  4  2  0
  4  5  1  0
  5  6  2  0
  6  7  1  0
  7  8  2  0
  7  9  2  0
  7 10  1  0
 10 11  1  0
 11 12  2  0
 12 13  1  0
 13 14  2  0
 14 15  1  0
 15 16  2  0
 16 17  1  0
 14 18  1  0
 18 19  1  0
 19 20  1  0
 20 21  1  0
  6 22  1  0
 22 23  1  0
 23 24  1  0
 22 25  2  0
 25  3  1  0
 16 11  1  0
 21 13  1  0
  1 26  1  0
  1 27  1  0
  1 28  1  0
  4 29  1  0
  5 30  1  0
 12 31  1  0
 15 32  1  0
 18 33  1  0
 18 34  1  0
 19 35  1  0
 19 36  1  0
 20 37  1  0
 20 38  1  0
 21 39  1  0
 21 40  1  0
 24 41  1  0
 24 42  1  0
 24 43  1  0
 25 44  1  0
M  CHG  2  10  -1  17  -1
M  END
>  <UniqueID>  (31) 
29

>  <SMILES>  (31) 
COc1ccc(S(=O)(=O)[N-]c2cc3c(cc2[O-])CCCC3)c(OC)c1

>  <Energy>  (31) 
53.53716219963859

>  <Genealogy>  (31) 
COc1ccc(S(=O)(=O)[N-]c2cc3c(cc2[O-])CCCC3)c(OC)c1 (protonated)
COc1ccc(S(=O)(=O)[N-]c2cc3c(cc2[O-])CCCC3)c(OC)c1 (3D coordinates assigned)
COc1ccc(S(=O)(=O)[N-]c2cc3c(cc2[O-])CCCC3)c(OC)c1 (nonaromatic ring conformer: 53.53716219963859 kcal/mol)

>  <smiles>  (31) 
COc1ccc(S(=O)(=O)Nc2cc3c(cc2O)CCCC3)c(OC)c1

>  <score_type>  (31) 
oracle

>  <origin>  (31) 
adgpu

>  <m_score__min__energy>  (31) 
-12.94

>  <m_primary>  (31) 
energy

$$$$
31:0
     RDKit          3D

 52 54  0  0  0  0  0  0  0  0999 V2000
   -8.3810   19.4130  -31.2370 C   0  0  0  0  0  0  0  0  0  0  0  0
   -7.4000   18.8890  -32.2520 C   0  0  0  0  0  0  0  0  0  0  0  0
   -7.6110   17.6180  -32.8130 C   0  0  0  0  0  0  0  0  0  0  0  0
   -6.7510   17.1200  -33.7940 C   0  0  0  0  0  0  0  0  0  0  0  0
   -5.6560   17.8740  -34.2240 C   0  0  0  0  0  0  0  0  0  0  0  0
   -4.8120   17.3460  -35.2600 N   0  0  0  0  0  0  0  0  0  0  0  0
   -3.4230   16.9990  -35.1420 C   0  0  0  0  0  0  0  0  0  0  0  0
   -2.9560   16.1230  -35.9160 O   0  0  0  0  0  0  0  0  0  0  0  0
   -2.5180   17.6600  -34.1710 C   0  0  0  0  0  0  0  0  0  0  0  0
   -1.8180   16.9110  -33.2100 C   0  0  0  0  0  0  0  0  0  0  0  0
   -0.9260   17.5380  -32.3380 C   0  0  0  0  0  0  0  0  0  0  0  0
   -0.7390   18.9210  -32.3970 C   0  0  0  0  0  0  0  0  0  0  0  0
   -1.4720   19.6970  -33.3130 C   0  0  0  0  0  0  0  0  0  0  0  0
   -1.2710   21.1900  -33.4030 C   0  0  0  0  0  0  0  0  0  0  0  0
   -0.3980   21.5960  -32.4100 F   0  0  0  0  0  0  0  0  0  0  0  0
   -2.4710   21.8660  -33.2500 F   0  0  0  0  0  0  0  0  0  0  0  0
   -0.7400   21.5250  -34.6350 F   0  0  0  0  0  0  0  0  0  0  0  0
   -2.3480   19.0560  -34.2050 C   0  0  0  0  0  0  0  0  0  0  0  0
   -5.3910   19.1090  -33.6120 C   0  0  0  0  0  0  0  0  0  0  0  0
   -6.2630   19.6370  -32.6470 C   0  0  0  0  0  0  0  0  0  0  0  0
   -5.9880   20.9930  -32.1250 C   0  0  0  0  0  0  0  0  0  0  0  0
   -6.8190   22.0720  -32.4460 C   0  0  0  0  0  0  0  0  0  0  0  0
   -6.5610   23.3400  -31.9210 C   0  0  0  0  0  0  0  0  0  0  0  0
   -5.4680   23.5560  -31.0590 C   0  0  0  0  0  0  0  0  0  0  0  0
   -5.2140   24.9300  -30.5520 C   0  0  0  0  0  0  0  0  0  0  0  0
   -3.8890   25.4550  -30.4780 N   0  0  0  0  0  0  0  0  0  0  0  0
   -6.1800   25.6640  -30.2070 O   0  0  0  0  0  0  0  0  0  0  0  0
   -4.6390   22.4590  -30.7160 C   0  0  0  0  0  0  0  0  0  0  0  0
   -3.5610   22.5970  -29.7770 N   0  0  0  0  0  0  0  0  0  0  0  0
   -2.2440   22.0650  -30.1230 C   0  0  0  0  0  0  0  0  0  0  0  0
   -3.8870   22.7850  -28.3650 C   0  0  0  0  0  0  0  0  0  0  0  0
   -4.9080   21.1920  -31.2550 C   0  0  0  0  0  0  0  0  0  0  0  0
   -8.0032   19.2112  -30.2238 H   0  0  0  0  0  0  0  0  0  0  0  0
   -8.5051   20.4975  -31.3728 H   0  0  0  0  0  0  0  0  0  0  0  0
   -9.3514   18.9131  -31.3728 H   0  0  0  0  0  0  0  0  0  0  0  0
   -8.4626   17.0089  -32.4758 H   0  0  0  0  0  0  0  0  0  0  0  0
   -6.9368   16.1278  -34.2310 H   0  0  0  0  0  0  0  0  0  0  0  0
   -1.9738   15.8241  -33.1444 H   0  0  0  0  0  0  0  0  0  0  0  0
   -0.3683   16.9406  -31.6017 H   0  0  0  0  0  0  0  0  0  0  0  0
   -0.0156   19.4052  -31.7245 H   0  0  0  0  0  0  0  0  0  0  0  0
   -2.9081   19.6534  -34.9394 H   0  0  0  0  0  0  0  0  0  0  0  0
   -4.4878   19.6707  -33.8924 H   0  0  0  0  0  0  0  0  0  0  0  0
   -7.6792   21.9208  -33.1147 H   0  0  0  0  0  0  0  0  0  0  0  0
   -7.2197   24.1809  -32.1839 H   0  0  0  0  0  0  0  0  0  0  0  0
   -3.4990   26.0420  -31.2480 H   0  0  0  0  0  0  0  0  0  0  0  0
   -1.6861   21.8396  -29.2022 H   0  0  0  0  0  0  0  0  0  0  0  0
   -2.3639   21.1448  -30.7136 H   0  0  0  0  0  0  0  0  0  0  0  0
   -1.6911   22.8103  -30.7136 H   0  0  0  0  0  0  0  0  0  0  0  0
   -3.1007   22.3315  -27.7436 H   0  0  0  0  0  0  0  0  0  0  0  0
   -3.9542   23.8605  -28.1442 H   0  0  0  0  0  0  0  0  0  0  0  0
   -4.8515   22.3044  -28.1442 H   0  0  0  0  0  0  0  0  0  0  0  0
   -4.2614   20.3423  -30.9906 H   0  0  0  0  0  0  0  0  0  0  0  0
  1  2  1  0
  2  3  2  0
  3  4  1  0
  4  5  2  0
  5  6  1  0
  6  7  1  0
  7  8  2  0
  7  9  1  0
  9 10  2  0
 10 11  1  0
 11 12  2  0
 12 13  1  0
 13 14  1  0
 14 15  1  0
 14 16  1  0
 14 17  1  0
 13 18  2  0
  5 19  1  0
 19 20  2  0
 20 21  1  0
 21 22  2  0
 22 23  1  0
 23 24  2  0
 24 25  1  0
 25 26  1  0
 25 27  2  0
 24 28  1  0
 28 29  1  0
 29 30  1  0
 29 31  1  0
 28 32  2  0
 20  2  1  0
 32 21  1  0
 18  9  1  0
  1 33  1  0
  1 34  1  0
  1 35  1  0
  3 36  1  0
  4 37  1  0
 10 38  1  0
 11 39  1  0
 12 40  1  0
 18 41  1  0
 19 42  1  0
 22 43  1  0
 23 44  1  0
 26 45  1  0
 30 46  1  0
 30 47  1  0
 30 48  1  0
 31 49  1  0
 31 50  1  0
 31 51  1  0
 32 52  1  0
M  CHG  2   6  -1  26  -1
M  END
>  <UniqueID>  (32) 
30

>  <SMILES>  (32) 
Cc1ccc([N-]C(=O)c2cccc(C(F)(F)F)c2)cc1-c1ccc(C([NH-])=O)c(N(C)C)c1

>  <Energy>  (32) 
72.43007238852486

>  <Genealogy>  (32) 
Cc1ccc([N-]C(=O)c2cccc(C(F)(F)F)c2)cc1-c1ccc(C([NH-])=O)c(N(C)C)c1 (protonated)
Cc1ccc([N-]C(=O)c2cccc(C(F)(F)F)c2)cc1-c1ccc(C([NH-])=O)c(N(C)C)c1 (3D coordinates assigned)
Cc1ccc([N-]C(=O)c2cccc(C(F)(F)F)c2)cc1-c1ccc(C([NH-])=O)c(N(C)C)c1 (optimized conformer: 72.43007238852486 kcal/mol)

>  <smiles>  (32) 
Cc1ccc(NC(=O)c2cccc(C(F)(F)F)c2)cc1-c1ccc(C(N)=O)c(N(C)C)c1

>  <score_type>  (32) 
oracle

>  <origin>  (32) 
adgpu

>  <m_score__min__energy>  (32) 
-11.31

>  <m_primary>  (32) 
energy

$$$$
32:0
     RDKit          3D

 52 55  0  0  0  0  0  0  0  0999 V2000
   -1.8660   21.8720  -32.5610 C   0  0  0  0  0  0  0  0  0  0  0  0
   -1.7410   22.0560  -31.0820 C   0  0  0  0  0  0  0  0  0  0  0  0
   -0.6360   21.7200  -30.3850 N   0  0  0  0  0  0  0  0  0  0  0  0
   -0.8690   21.9780  -29.1070 N   0  0  0  0  0  0  0  0  0  0  0  0
    0.0830   21.6590  -28.0480 C   0  0  0  0  0  0  0  0  0  0  0  0
   -2.1110   22.4950  -28.9750 C   0  0  0  0  0  0  0  0  0  0  0  0
   -2.7760   22.7580  -27.7330 N   0  0  0  0  0  0  0  0  0  0  0  0
   -3.1160   24.0610  -27.2510 C   0  0  0  0  0  0  0  0  0  0  0  0
   -4.2250   24.5800  -27.5560 O   0  0  0  0  0  0  0  0  0  0  0  0
   -2.1860   24.7670  -26.3520 C   0  0  0  0  0  0  0  0  0  0  0  0
   -1.0680   24.1170  -25.8020 C   0  0  0  0  0  0  0  0  0  0  0  0
   -0.2120   24.8250  -24.9550 C   0  0  0  0  0  0  0  0  0  0  0  0
   -0.4720   26.1650  -24.6640 C   0  0  0  0  0  0  0  0  0  0  0  0
   -1.5920   26.7790  -25.2260 C   0  0  0  0  0  0  0  0  0  0  0  0
   -2.4140   26.0760  -26.0490 N   0  0  0  0  0  0  0  0  0  0  0  0
   -2.7170   22.5290  -30.2150 C   0  0  0  0  0  0  0  0  0  0  0  0
   -4.1020   22.9410  -30.5290 C   0  0  0  0  0  0  0  0  0  0  0  0
   -5.0880   21.9650  -30.7390 C   0  0  0  0  0  0  0  0  0  0  0  0
   -6.4140   22.3310  -31.0190 C   0  0  0  0  0  0  0  0  0  0  0  0
   -7.4140   21.2740  -31.2570 C   0  0  0  0  0  0  0  0  0  0  0  0
   -8.5520   21.3800  -30.7250 O   0  0  0  0  0  0  0  0  0  0  0  0
   -7.1160   20.1380  -32.0890 N   0  0  0  0  0  0  0  0  0  0  0  0
   -8.1090   19.1370  -32.4380 C   0  0  0  0  0  0  0  0  0  0  0  0
   -7.3300   17.9750  -33.0410 C   0  0  0  0  0  0  0  0  0  0  0  0
   -5.9440   18.5220  -33.3700 C   0  0  0  0  0  0  0  0  0  0  0  0
   -5.7780   19.7820  -32.5320 C   0  0  0  0  0  0  0  0  0  0  0  0
   -6.7540   23.6980  -31.0990 C   0  0  0  0  0  0  0  0  0  0  0  0
   -8.0600   24.1220  -31.3560 O   0  0  0  0  0  0  0  0  0  0  0  0
   -5.7680   24.6690  -30.9000 C   0  0  0  0  0  0  0  0  0  0  0  0
   -4.4500   24.3010  -30.6180 C   0  0  0  0  0  0  0  0  0  0  0  0
   -3.4900   25.2940  -30.4490 O   0  0  0  0  0  0  0  0  0  0  0  0
   -2.4729   20.9786  -32.7693 H   0  0  0  0  0  0  0  0  0  0  0  0
   -2.3514   22.7558  -33.0007 H   0  0  0  0  0  0  0  0  0  0  0  0
   -0.8656   21.7463  -33.0007 H   0  0  0  0  0  0  0  0  0  0  0  0
   -0.3914   21.8180  -27.0684 H   0  0  0  0  0  0  0  0  0  0  0  0
    0.3936   20.6077  -28.1387 H   0  0  0  0  0  0  0  0  0  0  0  0
    0.9644   22.3109  -28.1387 H   0  0  0  0  0  0  0  0  0  0  0  0
   -0.8689   23.0608  -26.0362 H   0  0  0  0  0  0  0  0  0  0  0  0
    0.6660   24.3269  -24.5179 H   0  0  0  0  0  0  0  0  0  0  0  0
    0.1980   26.7304  -23.9996 H   0  0  0  0  0  0  0  0  0  0  0  0
   -1.8100   27.8338  -25.0025 H   0  0  0  0  0  0  0  0  0  0  0  0
   -4.8186   20.8999  -30.6835 H   0  0  0  0  0  0  0  0  0  0  0  0
   -8.6541   18.8086  -31.5408 H   0  0  0  0  0  0  0  0  0  0  0  0
   -8.8551   19.5340  -33.1421 H   0  0  0  0  0  0  0  0  0  0  0  0
   -7.2532   17.1501  -32.3173 H   0  0  0  0  0  0  0  0  0  0  0  0
   -7.8291   17.5779  -33.9372 H   0  0  0  0  0  0  0  0  0  0  0  0
   -5.1706   17.7848  -33.1084 H   0  0  0  0  0  0  0  0  0  0  0  0
   -5.8411   18.7369  -34.4439 H   0  0  0  0  0  0  0  0  0  0  0  0
   -5.1273   19.5847  -31.6673 H   0  0  0  0  0  0  0  0  0  0  0  0
   -5.3111   20.5945  -33.1081 H   0  0  0  0  0  0  0  0  0  0  0  0
   -8.8560   23.4980  -31.3260 H   0  0  0  0  0  0  0  0  0  0  0  0
   -6.0328   25.7346  -30.9662 H   0  0  0  0  0  0  0  0  0  0  0  0
  1  2  1  0
  2  3  2  0
  3  4  1  0
  4  5  1  0
  4  6  1  0
  6  7  1  0
  7  8  1  0
  8  9  2  0
  8 10  1  0
 10 11  2  0
 11 12  1  0
 12 13  2  0
 13 14  1  0
 14 15  2  0
  6 16  2  0
 16 17  1  0
 17 18  2  0
 18 19  1  0
 19 20  1  0
 20 21  2  0
 20 22  1  0
 22 23  1  0
 23 24  1  0
 24 25  1  0
 25 26  1  0
 19 27  2  0
 27 28  1  0
 27 29  1  0
 29 30  2  0
 30 31  1  0
 16  2  1  0
 30 17  1  0
 15 10  1  0
 26 22  1  0
  1 32  1  0
  1 33  1  0
  1 34  1  0
  5 35  1  0
  5 36  1  0
  5 37  1  0
 11 38  1  0
 12 39  1  0
 13 40  1  0
 14 41  1  0
 18 42  1  0
 23 43  1  0
 23 44  1  0
 24 45  1  0
 24 46  1  0
 25 47  1  0
 25 48  1  0
 26 49  1  0
 26 50  1  0
 28 51  1  0
 29 52  1  0
M  CHG  2   7  -1  31  -1
M  END
>  <UniqueID>  (33) 
31

>  <SMILES>  (33) 
Cc1nn(C)c([N-]C(=O)c2ccccn2)c1-c1cc(C(=O)N2CCCC2)c(O)cc1[O-]

>  <Energy>  (33) 
101.70861401435377

>  <Genealogy>  (33) 
Cc1nn(C)c([N-]C(=O)c2ccccn2)c1-c1cc(C(=O)N2CCCC2)c(O)cc1[O-] (protonated)
Cc1nn(C)c([N-]C(=O)c2ccccn2)c1-c1cc(C(=O)N2CCCC2)c(O)cc1[O-] (3D coordinates assigned)
Cc1nn(C)c([N-]C(=O)c2ccccn2)c1-c1cc(C(=O)N2CCCC2)c(O)cc1[O-] (nonaromatic ring conformer: 101.70861401435377 kcal/mol)

>  <smiles>  (33) 
Cc1nn(C)c(NC(=O)c2ccccn2)c1-c1cc(C(=O)N2CCCC2)c(O)cc1O

>  <score_type>  (33) 
oracle

>  <origin>  (33) 
adgpu

>  <m_score__min__energy>  (33) 
-12.630000000000001

>  <m_primary>  (33) 
energy

$$$$
33:0
     RDKit          3D

 38 40  0  0  0  0  0  0  0  0999 V2000
   -7.8200   23.4110  -32.4180 O   0  0  0  0  0  0  0  0  0  0  0  0
   -6.7180   22.8120  -32.3060 C   0  0  0  0  0  0  0  0  0  0  0  0
   -6.5600   21.5470  -32.9670 N   0  0  0  0  0  0  0  0  0  0  0  0
   -7.1830   20.3070  -32.5980 C   0  0  0  0  0  0  0  0  0  0  0  0
   -8.4850   20.3520  -32.0820 C   0  0  0  0  0  0  0  0  0  0  0  0
   -9.1670   19.1730  -31.7730 C   0  0  0  0  0  0  0  0  0  0  0  0
   -8.5500   17.9370  -31.9680 C   0  0  0  0  0  0  0  0  0  0  0  0
   -7.2400   17.8780  -32.4470 C   0  0  0  0  0  0  0  0  0  0  0  0
   -6.5330   19.0540  -32.7340 C   0  0  0  0  0  0  0  0  0  0  0  0
   -5.1630   18.9470  -33.1500 N   0  0  0  0  0  0  0  0  0  0  0  0
   -4.5510   17.7310  -33.6190 C   0  0  0  0  0  0  0  0  0  0  0  0
   -4.1590   17.6340  -34.9630 C   0  0  0  0  0  0  0  0  0  0  0  0
   -3.5570   16.4680  -35.4440 C   0  0  0  0  0  0  0  0  0  0  0  0
   -3.3560   15.3810  -34.5900 C   0  0  0  0  0  0  0  0  0  0  0  0
   -3.7620   15.4570  -33.2560 C   0  0  0  0  0  0  0  0  0  0  0  0
   -4.3610   16.6230  -32.7710 C   0  0  0  0  0  0  0  0  0  0  0  0
   -5.6150   23.4490  -31.5430 C   0  0  0  0  0  0  0  0  0  0  0  0
   -5.8170   24.6910  -30.9130 C   0  0  0  0  0  0  0  0  0  0  0  0
   -4.7840   25.3040  -30.2010 C   0  0  0  0  0  0  0  0  0  0  0  0
   -3.5400   24.6800  -30.0960 C   0  0  0  0  0  0  0  0  0  0  0  0
   -2.5130   25.2920  -29.3890 O   0  0  0  0  0  0  0  0  0  0  0  0
   -3.3300   23.4380  -30.6980 C   0  0  0  0  0  0  0  0  0  0  0  0
   -4.3600   22.8140  -31.4170 C   0  0  0  0  0  0  0  0  0  0  0  0
   -4.1330   21.5740  -32.0150 O   0  0  0  0  0  0  0  0  0  0  0  0
   -8.9739   21.3238  -31.9190 H   0  0  0  0  0  0  0  0  0  0  0  0
  -10.1916   19.2190  -31.3755 H   0  0  0  0  0  0  0  0  0  0  0  0
   -9.0959   17.0086  -31.7442 H   0  0  0  0  0  0  0  0  0  0  0  0
   -6.7587   16.9009  -32.6004 H   0  0  0  0  0  0  0  0  0  0  0  0
   -4.6150   19.8350  -33.2270 H   0  0  0  0  0  0  0  0  0  0  0  0
   -4.3268   18.4821  -35.6431 H   0  0  0  0  0  0  0  0  0  0  0  0
   -3.2412   16.4062  -36.4959 H   0  0  0  0  0  0  0  0  0  0  0  0
   -2.8780   14.4653  -34.9682 H   0  0  0  0  0  0  0  0  0  0  0  0
   -3.6102   14.5980  -32.5859 H   0  0  0  0  0  0  0  0  0  0  0  0
   -4.6857   16.6754  -31.7213 H   0  0  0  0  0  0  0  0  0  0  0  0
   -6.7981   25.1837  -30.9821 H   0  0  0  0  0  0  0  0  0  0  0  0
   -4.9509   26.2801  -29.7222 H   0  0  0  0  0  0  0  0  0  0  0  0
   -2.3505   22.9456  -30.6079 H   0  0  0  0  0  0  0  0  0  0  0  0
   -4.8640   21.0820  -32.5120 H   0  0  0  0  0  0  0  0  0  0  0  0
  1  2  2  0
  2  3  1  0
  3  4  1  0
  4  5  2  0
  5  6  1  0
  6  7  2  0
  7  8  1  0
  8  9  2  0
  9 10  1  0
 10 11  1  0
 11 12  2  0
 12 13  1  0
 13 14  2  0
 14 15  1  0
 15 16  2  0
  2 17  1  0
 17 18  2  0
 18 19  1  0
 19 20  2  0
 20 21  1  0
 20 22  1  0
 22 23  2  0
 23 24  1  0
  9  4  1  0
 16 11  1  0
 23 17  1  0
  5 25  1  0
  6 26  1  0
  7 27  1  0
  8 28  1  0
 10 29  1  0
 12 30  1  0
 13 31  1  0
 14 32  1  0
 15 33  1  0
 16 34  1  0
 18 35  1  0
 19 36  1  0
 22 37  1  0
 24 38  1  0
M  CHG  2   3  -1  21  -1
M  END
>  <UniqueID>  (34) 
32

>  <SMILES>  (34) 
O=C([N-]c1ccccc1Nc1ccccc1)c1ccc([O-])cc1O

>  <Energy>  (34) 
55.03962833272496

>  <Genealogy>  (34) 
O=C([N-]c1ccccc1Nc1ccccc1)c1ccc([O-])cc1O (protonated)
O=C([N-]c1ccccc1Nc1ccccc1)c1ccc([O-])cc1O (3D coordinates assigned)
O=C([N-]c1ccccc1Nc1ccccc1)c1ccc([O-])cc1O (optimized conformer: 55.03962833272496 kcal/mol)

>  <smiles>  (34) 
O=C(Nc1ccccc1Nc1ccccc1)c1ccc(O)cc1O

>  <score_type>  (34) 
oracle

>  <origin>  (34) 
adgpu

>  <m_score__min__energy>  (34) 
-10.300000000000001

>  <m_primary>  (34) 
energy

$$$$
34:0
     RDKit          3D

 51 53  0  0  0  0  0  0  0  0999 V2000
   -5.5950   25.6270  -29.9150 N   0  0  0  0  0  0  0  0  0  0  0  0
   -5.9130   24.3550  -30.4920 C   0  0  0  0  0  0  0  0  0  0  0  0
   -7.2540   23.9570  -30.5880 C   0  0  0  0  0  0  0  0  0  0  0  0
   -7.5880   22.7190  -31.1420 C   0  0  0  0  0  0  0  0  0  0  0  0
   -6.5840   21.8740  -31.6290 C   0  0  0  0  0  0  0  0  0  0  0  0
   -6.9890   20.3050  -32.3170 S   0  0  0  0  0  0  0  0  0  0  0  0
   -7.2250   20.4730  -33.7910 O   0  0  0  0  0  0  0  0  0  0  0  0
   -8.2400   19.7750  -31.6710 O   0  0  0  0  0  0  0  0  0  0  0  0
   -5.6600   19.2000  -32.0370 N   0  0  0  0  0  0  0  0  0  0  0  0
   -6.1280   17.8790  -31.5410 C   0  0  0  0  0  0  0  0  0  0  0  0
   -5.7810   16.7020  -32.4670 C   0  0  0  0  0  0  0  0  0  0  0  0
   -6.0780   17.0630  -33.9200 C   0  0  0  0  0  0  0  0  0  0  0  0
   -5.3120   18.3190  -34.3690 C   0  0  0  0  0  0  0  0  0  0  0  0
   -4.7430   19.1380  -33.1930 C   0  0  0  0  0  0  0  0  0  0  0  0
   -5.2450   22.2750  -31.5580 C   0  0  0  0  0  0  0  0  0  0  0  0
   -4.8960   23.4900  -30.9500 C   0  0  0  0  0  0  0  0  0  0  0  0
   -3.5230   23.8890  -30.8410 N   0  0  0  0  0  0  0  0  0  0  0  0
   -2.7770   24.1120  -29.6350 C   0  0  0  0  0  0  0  0  0  0  0  0
   -2.5330   25.3000  -29.2930 O   0  0  0  0  0  0  0  0  0  0  0  0
   -2.3560   22.9970  -28.7120 C   0  0  0  0  0  0  0  0  0  0  0  0
   -0.6910   22.4370  -29.0530 S   0  0  0  0  0  0  0  0  0  0  0  0
    0.2060   23.6210  -29.2880 O   0  0  0  0  0  0  0  0  0  0  0  0
   -0.1720   21.6790  -27.8630 O   0  0  0  0  0  0  0  0  0  0  0  0
   -0.6760   21.3740  -30.4570 C   0  0  0  0  0  0  0  0  0  0  0  0
   -1.4960   21.6380  -31.5640 C   0  0  0  0  0  0  0  0  0  0  0  0
   -1.4900   20.7750  -32.6640 C   0  0  0  0  0  0  0  0  0  0  0  0
   -0.6640   19.6470  -32.6650 C   0  0  0  0  0  0  0  0  0  0  0  0
    0.1540   19.3790  -31.5630 C   0  0  0  0  0  0  0  0  0  0  0  0
    0.1480   20.2380  -30.4600 C   0  0  0  0  0  0  0  0  0  0  0  0
   -4.6180   25.8720  -29.6330 H   0  0  0  0  0  0  0  0  0  0  0  0
   -6.3390   26.3450  -29.7650 H   0  0  0  0  0  0  0  0  0  0  0  0
   -8.0490   24.6247  -30.2243 H   0  0  0  0  0  0  0  0  0  0  0  0
   -8.6417   22.4077  -31.1956 H   0  0  0  0  0  0  0  0  0  0  0  0
   -5.6656   17.6947  -30.5601 H   0  0  0  0  0  0  0  0  0  0  0  0
   -7.2257   17.9299  -31.4905 H   0  0  0  0  0  0  0  0  0  0  0  0
   -4.7123   16.4627  -32.3641 H   0  0  0  0  0  0  0  0  0  0  0  0
   -6.3920   15.8324  -32.1832 H   0  0  0  0  0  0  0  0  0  0  0  0
   -5.7852   16.2196  -34.5626 H   0  0  0  0  0  0  0  0  0  0  0  0
   -7.1545   17.2726  -34.0052 H   0  0  0  0  0  0  0  0  0  0  0  0
   -4.4771   18.0072  -35.0138 H   0  0  0  0  0  0  0  0  0  0  0  0
   -6.0268   18.9645  -34.9005 H   0  0  0  0  0  0  0  0  0  0  0  0
   -3.7994   18.6756  -32.8677 H   0  0  0  0  0  0  0  0  0  0  0  0
   -4.5934   20.1675  -33.5504 H   0  0  0  0  0  0  0  0  0  0  0  0
   -4.4598   21.6321  -31.9825 H   0  0  0  0  0  0  0  0  0  0  0  0
   -2.4036   23.3581  -27.6741 H   0  0  0  0  0  0  0  0  0  0  0  0
   -3.0387   22.1491  -28.8700 H   0  0  0  0  0  0  0  0  0  0  0  0
   -2.1452   22.5260  -31.5667 H   0  0  0  0  0  0  0  0  0  0  0  0
   -2.1359   20.9838  -33.5296 H   0  0  0  0  0  0  0  0  0  0  0  0
   -0.6576   18.9705  -33.5324 H   0  0  0  0  0  0  0  0  0  0  0  0
    0.8032   18.4910  -31.5640 H   0  0  0  0  0  0  0  0  0  0  0  0
    0.7902   20.0231  -29.5931 H   0  0  0  0  0  0  0  0  0  0  0  0
  1  2  1  0
  2  3  2  0
  3  4  1  0
  4  5  2  0
  5  6  1  0
  6  7  2  0
  6  8  2  0
  6  9  1  0
  9 10  1  0
 10 11  1  0
 11 12  1  0
 12 13  1  0
 13 14  1  0
  5 15  1  0
 15 16  2  0
 16 17  1  0
 17 18  1  0
 18 19  2  0
 18 20  1  0
 20 21  1  0
 21 22  2  0
 21 23  2  0
 21 24  1  0
 24 25  2  0
 25 26  1  0
 26 27  2  0
 27 28  1  0
 28 29  2  0
 16  2  1  0
 29 24  1  0
 14  9  1  0
  1 30  1  0
  1 31  1  0
  3 32  1  0
  4 33  1  0
 10 34  1  0
 10 35  1  0
 11 36  1  0
 11 37  1  0
 12 38  1  0
 12 39  1  0
 13 40  1  0
 13 41  1  0
 14 42  1  0
 14 43  1  0
 15 44  1  0
 20 45  1  0
 20 46  1  0
 25 47  1  0
 26 48  1  0
 27 49  1  0
 28 50  1  0
 29 51  1  0
M  CHG  1  17  -1
M  END
>  <UniqueID>  (35) 
33

>  <SMILES>  (35) 
Nc1ccc(S(=O)(=O)N2CCCCC2)cc1[N-]C(=O)CS(=O)(=O)c1ccccc1

>  <Energy>  (35) 
58.47324808252169

>  <Genealogy>  (35) 
Nc1ccc(S(=O)(=O)N2CCCCC2)cc1[N-]C(=O)CS(=O)(=O)c1ccccc1 (protonated)
Nc1ccc(S(=O)(=O)N2CCCCC2)cc1[N-]C(=O)CS(=O)(=O)c1ccccc1 (3D coordinates assigned)
Nc1ccc(S(=O)(=O)N2CCCCC2)cc1[N-]C(=O)CS(=O)(=O)c1ccccc1 (nonaromatic ring conformer: 58.47324808252169 kcal/mol)

>  <smiles>  (35) 
Nc1ccc(S(=O)(=O)N2CCCCC2)cc1NC(=O)CS(=O)(=O)c1ccccc1

>  <score_type>  (35) 
oracle

>  <origin>  (35) 
adgpu

>  <m_score__min__energy>  (35) 
-11.67

>  <m_primary>  (35) 
energy

$$$$
35:0
     RDKit          3D

 49 51  0  0  0  0  0  0  0  0999 V2000
    0.1680   22.9350  -25.6510 C   0  0  0  0  0  0  0  0  0  0  0  0
   -0.8990   22.4640  -26.6050 C   0  0  0  0  0  0  0  0  0  0  0  0
   -1.4060   21.1650  -26.4360 C   0  0  0  0  0  0  0  0  0  0  0  0
   -2.3680   20.6600  -27.3040 C   0  0  0  0  0  0  0  0  0  0  0  0
   -2.8260   21.4330  -28.3650 C   0  0  0  0  0  0  0  0  0  0  0  0
   -2.3510   22.7410  -28.5580 C   0  0  0  0  0  0  0  0  0  0  0  0
   -2.7660   23.4750  -29.7220 N   0  0  0  0  0  0  0  0  0  0  0  0
   -4.3770   24.0840  -29.9230 S   0  0  0  0  0  0  0  0  0  0  0  0
   -4.3470   25.2710  -30.8460 O   0  0  0  0  0  0  0  0  0  0  0  0
   -4.9050   24.5220  -28.5860 O   0  0  0  0  0  0  0  0  0  0  0  0
   -5.4080   22.8360  -30.6120 C   0  0  0  0  0  0  0  0  0  0  0  0
   -6.7940   23.0240  -30.6910 C   0  0  0  0  0  0  0  0  0  0  0  0
   -7.6110   22.0180  -31.2140 C   0  0  0  0  0  0  0  0  0  0  0  0
   -7.0510   20.8120  -31.6580 C   0  0  0  0  0  0  0  0  0  0  0  0
   -8.0860   19.5330  -32.3050 S   0  0  0  0  0  0  0  0  0  0  0  0
   -9.2210   20.1610  -33.0650 O   0  0  0  0  0  0  0  0  0  0  0  0
   -8.6680   18.7500  -31.1610 O   0  0  0  0  0  0  0  0  0  0  0  0
   -7.2280   18.4390  -33.3640 N   0  0  0  0  0  0  0  0  0  0  0  0
   -6.2450   19.1350  -34.1930 C   0  0  0  0  0  0  0  0  0  0  0  0
   -5.1890   18.1040  -34.5600 C   0  0  0  0  0  0  0  0  0  0  0  0
   -5.3340   16.9940  -33.5280 C   0  0  0  0  0  0  0  0  0  0  0  0
   -6.4730   17.4330  -32.6220 C   0  0  0  0  0  0  0  0  0  0  0  0
   -5.6610   20.6340  -31.5980 C   0  0  0  0  0  0  0  0  0  0  0  0
   -4.8450   21.6400  -31.0760 C   0  0  0  0  0  0  0  0  0  0  0  0
   -1.4140   23.2900  -27.6420 C   0  0  0  0  0  0  0  0  0  0  0  0
   -0.9180   24.9980  -27.7830 S   0  0  0  0  0  0  0  0  0  0  0  0
   -1.6010   25.6790  -29.2170 N   0  0  0  0  0  0  0  0  0  0  0  0
   -1.3770   25.7860  -26.5880 O   0  0  0  0  0  0  0  0  0  0  0  0
    0.5800   25.1130  -27.8460 O   0  0  0  0  0  0  0  0  0  0  0  0
   -0.1731   22.7845  -24.6161 H   0  0  0  0  0  0  0  0  0  0  0  0
    1.0907   22.3605  -25.8202 H   0  0  0  0  0  0  0  0  0  0  0  0
    0.3653   24.0038  -25.8202 H   0  0  0  0  0  0  0  0  0  0  0  0
   -1.0382   20.5406  -25.6084 H   0  0  0  0  0  0  0  0  0  0  0  0
   -2.7675   19.6466  -27.1508 H   0  0  0  0  0  0  0  0  0  0  0  0
   -3.5686   21.0158  -29.0611 H   0  0  0  0  0  0  0  0  0  0  0  0
   -2.0860   23.6520  -30.4940 H   0  0  0  0  0  0  0  0  0  0  0  0
   -7.2405   23.9662  -30.3404 H   0  0  0  0  0  0  0  0  0  0  0  0
   -8.6981   22.1732  -31.2775 H   0  0  0  0  0  0  0  0  0  0  0  0
   -6.7239   19.5295  -35.1013 H   0  0  0  0  0  0  0  0  0  0  0  0
   -5.8021   19.9874  -33.6570 H   0  0  0  0  0  0  0  0  0  0  0  0
   -5.3673   17.7138  -35.5729 H   0  0  0  0  0  0  0  0  0  0  0  0
   -4.1771   18.5354  -34.5582 H   0  0  0  0  0  0  0  0  0  0  0  0
   -5.5785   16.0408  -34.0195 H   0  0  0  0  0  0  0  0  0  0  0  0
   -4.4023   16.8332  -32.9659 H   0  0  0  0  0  0  0  0  0  0  0  0
   -7.1182   16.5756  -32.3798 H   0  0  0  0  0  0  0  0  0  0  0  0
   -6.0929   17.8401  -31.6734 H   0  0  0  0  0  0  0  0  0  0  0  0
   -5.2120   19.6987  -31.9634 H   0  0  0  0  0  0  0  0  0  0  0  0
   -3.7559   21.4927  -31.0290 H   0  0  0  0  0  0  0  0  0  0  0  0
   -0.8270   25.7760  -29.9110 H   0  0  0  0  0  0  0  0  0  0  0  0
  1  2  1  0
  2  3  2  0
  3  4  1  0
  4  5  2  0
  5  6  1  0
  6  7  1  0
  7  8  1  0
  8  9  2  0
  8 10  2  0
  8 11  1  0
 11 12  2  0
 12 13  1  0
 13 14  2  0
 14 15  1  0
 15 16  2  0
 15 17  2  0
 15 18  1  0
 18 19  1  0
 19 20  1  0
 20 21  1  0
 21 22  1  0
 14 23  1  0
 23 24  2  0
  6 25  2  0
 25 26  1  0
 26 27  1  0
 26 28  2  0
 26 29  2  0
 25  2  1  0
 24 11  1  0
 22 18  1  0
  1 30  1  0
  1 31  1  0
  1 32  1  0
  3 33  1  0
  4 34  1  0
  5 35  1  0
  7 36  1  0
 12 37  1  0
 13 38  1  0
 19 39  1  0
 19 40  1  0
 20 41  1  0
 20 42  1  0
 21 43  1  0
 21 44  1  0
 22 45  1  0
 22 46  1  0
 23 47  1  0
 24 48  1  0
 27 49  1  0
M  CHG  1  27  -1
M  END
>  <UniqueID>  (36) 
34

>  <SMILES>  (36) 
Cc1cccc(NS(=O)(=O)c2ccc(S(=O)(=O)N3CCCC3)cc2)c1S([NH-])(=O)=O

>  <Energy>  (36) 
60.15279908565454

>  <Genealogy>  (36) 
Cc1cccc(NS(=O)(=O)c2ccc(S(=O)(=O)N3CCCC3)cc2)c1S([NH-])(=O)=O (protonated)
Cc1cccc(NS(=O)(=O)c2ccc(S(=O)(=O)N3CCCC3)cc2)c1S([NH-])(=O)=O (3D coordinates assigned)
Cc1cccc(NS(=O)(=O)c2ccc(S(=O)(=O)N3CCCC3)cc2)c1S([NH-])(=O)=O (nonaromatic ring conformer: 60.15279908565454 kcal/mol)

>  <smiles>  (36) 
Cc1cccc(NS(=O)(=O)c2ccc(S(=O)(=O)N3CCCC3)cc2)c1S(N)(=O)=O

>  <score_type>  (36) 
oracle

>  <origin>  (36) 
adgpu

>  <m_score__min__energy>  (36) 
-13.300000000000001

>  <m_primary>  (36) 
energy

$$$$
36:0
     RDKit          3D

 33 35  0  0  0  0  0  0  0  0999 V2000
   -5.1640   21.6310  -33.7900 H   0  0  0  0  0  0  0  0  0  0  0  0
   -5.5950   20.8380  -33.3280 O   0  0  0  0  0  0  0  0  0  0  0  0
   -6.8470   20.9330  -32.7240 C   0  0  0  0  0  0  0  0  0  0  0  0
   -7.8610   20.0340  -33.0910 C   0  0  0  0  0  0  0  0  0  0  0  0
   -7.6711   19.2859  -33.8747 H   0  0  0  0  0  0  0  0  0  0  0  0
   -9.1090   20.0840  -32.4670 C   0  0  0  0  0  0  0  0  0  0  0  0
   -9.8999   19.3786  -32.7619 H   0  0  0  0  0  0  0  0  0  0  0  0
   -9.3530   21.0280  -31.4700 C   0  0  0  0  0  0  0  0  0  0  0  0
  -10.3342   21.0610  -30.9738 H   0  0  0  0  0  0  0  0  0  0  0  0
   -8.3540   21.9320  -31.1000 C   0  0  0  0  0  0  0  0  0  0  0  0
   -8.5533   22.6715  -30.3104 H   0  0  0  0  0  0  0  0  0  0  0  0
   -7.0960   21.9050  -31.7280 C   0  0  0  0  0  0  0  0  0  0  0  0
   -6.0610   22.8860  -31.3220 C   0  0  0  0  0  0  0  0  0  0  0  0
   -4.8270   22.5920  -30.2090 S   0  0  0  0  0  0  0  0  0  0  0  0
   -4.2100   24.1560  -30.3360 C   0  0  0  0  0  0  0  0  0  0  0  0
   -3.1800   24.6190  -29.6950 N   0  0  0  0  0  0  0  0  0  0  0  0
   -2.3840   23.8400  -28.7530 C   0  0  0  0  0  0  0  0  0  0  0  0
   -1.5445   23.3679  -29.2844 H   0  0  0  0  0  0  0  0  0  0  0  0
   -3.0127   23.0610  -28.2970 H   0  0  0  0  0  0  0  0  0  0  0  0
   -1.8510   24.7480  -27.6790 C   0  0  0  0  0  0  0  0  0  0  0  0
   -1.9460   24.3690  -26.3300 C   0  0  0  0  0  0  0  0  0  0  0  0
   -2.3885   23.3975  -26.0647 H   0  0  0  0  0  0  0  0  0  0  0  0
   -1.4810   25.2200  -25.3220 C   0  0  0  0  0  0  0  0  0  0  0  0
   -1.5500   24.9127  -24.2680 H   0  0  0  0  0  0  0  0  0  0  0  0
   -0.9290   26.4600  -25.6530 C   0  0  0  0  0  0  0  0  0  0  0  0
   -0.5611   27.1273  -24.8597 H   0  0  0  0  0  0  0  0  0  0  0  0
   -0.8440   26.8530  -26.9910 C   0  0  0  0  0  0  0  0  0  0  0  0
   -0.4102   27.8304  -27.2489 H   0  0  0  0  0  0  0  0  0  0  0  0
   -1.3090   26.0070  -28.0040 C   0  0  0  0  0  0  0  0  0  0  0  0
   -1.2300   26.4250  -29.3290 O   0  0  0  0  0  0  0  0  0  0  0  0
   -4.9230   24.9110  -31.1970 N   0  0  0  0  0  0  0  0  0  0  0  0
   -5.9530   24.2130  -31.7460 C   0  0  0  0  0  0  0  0  0  0  0  0
   -6.6497   24.6601  -32.4704 H   0  0  0  0  0  0  0  0  0  0  0  0
  1  2  1  0
  2  3  1  0
  3  4  2  0
  4  5  1  0
  4  6  1  0
  6  7  1  0
  6  8  2  0
  8  9  1  0
  8 10  1  0
 10 11  1  0
 10 12  2  0
 12 13  1  0
 13 14  1  0
 14 15  1  0
 15 16  2  0
 16 17  1  0
 17 18  1  0
 17 19  1  0
 17 20  1  0
 20 21  2  0
 21 22  1  0
 21 23  1  0
 23 24  1  0
 23 25  2  0
 25 26  1  0
 25 27  1  0
 27 28  1  0
 27 29  2  0
 29 30  1  0
 15 31  1  0
 31 32  1  0
 32 33  1  0
 12  3  1  0
 32 13  2  0
 29 20  1  0
M  CHG  2  30  -1  31  -1
M  END
>  <UniqueID>  (37) 
35

>  <SMILES>  (37) 
[O-]c1ccccc1C/N=c1/[n-]cc(-c2ccccc2O)s1

>  <Energy>  (37) 
70.06803941305753

>  <Genealogy>  (37) 
[O-]c1ccccc1CN=c1[n-]cc(-c2ccccc2O)s1 (protonated)
[O-]c1ccccc1C/N=c1/[n-]cc(-c2ccccc2O)s1 (cis-trans isomerization)
[O-]c1ccccc1C/N=c1/[n-]cc(-c2ccccc2O)s1 (3D coordinates assigned)
[O-]c1ccccc1C/N=c1/[n-]cc(-c2ccccc2O)s1 (optimized conformer: 70.06803941305753 kcal/mol)

>  <smiles>  (37) 
Oc1ccccc1CN=c1[nH]cc(-c2ccccc2O)s1

>  <score_type>  (37) 
oracle

>  <origin>  (37) 
adgpu

>  <m_score__min__energy>  (37) 
-12.68

>  <m_primary>  (37) 
energy

$$$$
37:0
     RDKit          3D

 45 47  0  0  0  0  0  0  0  0999 V2000
   -5.0890   17.3720  -34.6230 C   0  0  0  0  0  0  0  0  0  0  0  0
   -6.4780   17.7880  -34.4450 N   0  0  0  0  0  0  0  0  0  0  0  0
   -6.6970   18.4330  -32.8470 S   0  0  0  0  0  0  0  0  0  0  0  0
   -8.0710   19.0320  -32.7220 O   0  0  0  0  0  0  0  0  0  0  0  0
   -6.5680   17.3220  -31.8430 O   0  0  0  0  0  0  0  0  0  0  0  0
   -5.4720   19.6540  -32.5110 C   0  0  0  0  0  0  0  0  0  0  0  0
   -4.9510   20.4420  -33.5470 C   0  0  0  0  0  0  0  0  0  0  0  0
   -3.9650   21.3940  -33.2760 C   0  0  0  0  0  0  0  0  0  0  0  0
   -3.5010   21.5800  -31.9610 C   0  0  0  0  0  0  0  0  0  0  0  0
   -2.5040   22.5150  -31.6500 O   0  0  0  0  0  0  0  0  0  0  0  0
   -2.0930   22.8770  -30.3580 C   0  0  0  0  0  0  0  0  0  0  0  0
   -1.1220   22.1170  -29.6770 C   0  0  0  0  0  0  0  0  0  0  0  0
   -0.7520   22.4440  -28.3720 C   0  0  0  0  0  0  0  0  0  0  0  0
   -1.3390   23.5360  -27.7350 C   0  0  0  0  0  0  0  0  0  0  0  0
   -2.2740   24.3210  -28.4120 C   0  0  0  0  0  0  0  0  0  0  0  0
   -2.6360   24.0250  -29.7320 C   0  0  0  0  0  0  0  0  0  0  0  0
   -3.5750   24.9020  -30.3740 N   0  0  0  0  0  0  0  0  0  0  0  0
   -5.2410   25.1390  -29.9500 S   0  0  0  0  0  0  0  0  0  0  0  0
   -5.6860   26.4810  -30.4550 O   0  0  0  0  0  0  0  0  0  0  0  0
   -5.3780   25.1080  -28.4530 O   0  0  0  0  0  0  0  0  0  0  0  0
   -6.2540   23.9050  -30.6940 C   0  0  0  0  0  0  0  0  0  0  0  0
   -6.3650   23.8260  -32.0890 C   0  0  0  0  0  0  0  0  0  0  0  0
   -7.1930   22.8660  -32.6740 C   0  0  0  0  0  0  0  0  0  0  0  0
   -7.9060   21.9720  -31.8730 C   0  0  0  0  0  0  0  0  0  0  0  0
   -7.7870   22.0350  -30.4820 C   0  0  0  0  0  0  0  0  0  0  0  0
   -6.9610   22.9960  -29.8920 C   0  0  0  0  0  0  0  0  0  0  0  0
   -4.0070   20.7740  -30.9360 C   0  0  0  0  0  0  0  0  0  0  0  0
   -4.9890   19.8170  -31.2080 C   0  0  0  0  0  0  0  0  0  0  0  0
   -4.6193   17.2313  -33.6383 H   0  0  0  0  0  0  0  0  0  0  0  0
   -5.0586   16.4253  -35.1824 H   0  0  0  0  0  0  0  0  0  0  0  0
   -4.5432   18.1461  -35.1824 H   0  0  0  0  0  0  0  0  0  0  0  0
   -6.6650   18.5670  -35.1160 H   0  0  0  0  0  0  0  0  0  0  0  0
   -5.3192   20.3105  -34.5751 H   0  0  0  0  0  0  0  0  0  0  0  0
   -3.5498   22.0006  -34.0943 H   0  0  0  0  0  0  0  0  0  0  0  0
   -0.6514   21.2584  -30.1783 H   0  0  0  0  0  0  0  0  0  0  0  0
    0.0025   21.8404  -27.8462 H   0  0  0  0  0  0  0  0  0  0  0  0
   -1.0652   23.7795  -26.6978 H   0  0  0  0  0  0  0  0  0  0  0  0
   -2.7317   25.1819  -27.9028 H   0  0  0  0  0  0  0  0  0  0  0  0
   -5.7982   24.5222  -32.7246 H   0  0  0  0  0  0  0  0  0  0  0  0
   -7.2838   22.8139  -33.7690 H   0  0  0  0  0  0  0  0  0  0  0  0
   -8.5606   21.2190  -32.3362 H   0  0  0  0  0  0  0  0  0  0  0  0
   -8.3441   21.3273  -29.8505 H   0  0  0  0  0  0  0  0  0  0  0  0
   -6.8650   23.0398  -28.7971 H   0  0  0  0  0  0  0  0  0  0  0  0
   -3.6299   20.8939  -29.9096 H   0  0  0  0  0  0  0  0  0  0  0  0
   -5.3834   19.1899  -30.3948 H   0  0  0  0  0  0  0  0  0  0  0  0
  1  2  1  0
  2  3  1  0
  3  4  2  0
  3  5  2  0
  3  6  1  0
  6  7  2  0
  7  8  1  0
  8  9  2  0
  9 10  1  0
 10 11  1  0
 11 12  2  0
 12 13  1  0
 13 14  2  0
 14 15  1  0
 15 16  2  0
 16 17  1  0
 17 18  1  0
 18 19  2  0
 18 20  2  0
 18 21  1  0
 21 22  2  0
 22 23  1  0
 23 24  2  0
 24 25  1  0
 25 26  2  0
  9 27  1  0
 27 28  2  0
 28  6  1  0
 16 11  1  0
 26 21  1  0
  1 29  1  0
  1 30  1  0
  1 31  1  0
  2 32  1  0
  7 33  1  0
  8 34  1  0
 12 35  1  0
 13 36  1  0
 14 37  1  0
 15 38  1  0
 22 39  1  0
 23 40  1  0
 24 41  1  0
 25 42  1  0
 26 43  1  0
 27 44  1  0
 28 45  1  0
M  CHG  1  17  -1
M  END
>  <UniqueID>  (38) 
36

>  <SMILES>  (38) 
CNS(=O)(=O)c1ccc(Oc2ccccc2[N-]S(=O)(=O)c2ccccc2)cc1

>  <Energy>  (38) 
56.28420079138439

>  <Genealogy>  (38) 
CNS(=O)(=O)c1ccc(Oc2ccccc2[N-]S(=O)(=O)c2ccccc2)cc1 (protonated)
CNS(=O)(=O)c1ccc(Oc2ccccc2[N-]S(=O)(=O)c2ccccc2)cc1 (3D coordinates assigned)
CNS(=O)(=O)c1ccc(Oc2ccccc2[N-]S(=O)(=O)c2ccccc2)cc1 (optimized conformer: 56.28420079138439 kcal/mol)

>  <smiles>  (38) 
CNS(=O)(=O)c1ccc(Oc2ccccc2NS(=O)(=O)c2ccccc2)cc1

>  <score_type>  (38) 
oracle

>  <origin>  (38) 
adgpu

>  <m_score__min__energy>  (38) 
-10.539999999999999

>  <m_primary>  (38) 
energy

$$$$
38:0
     RDKit          3D

 49 52  0  0  0  0  0  0  0  0999 V2000
   -3.1080   24.5400  -27.5730 C   0  0  0  0  0  0  0  0  0  0  0  0
   -3.7470   24.0580  -28.8490 C   0  0  0  0  0  0  0  0  0  0  0  0
   -5.0650   24.4640  -29.1220 C   0  0  0  0  0  0  0  0  0  0  0  0
   -5.7310   24.0110  -30.2590 C   0  0  0  0  0  0  0  0  0  0  0  0
   -5.1050   23.1180  -31.1380 C   0  0  0  0  0  0  0  0  0  0  0  0
   -5.7650   22.6540  -32.3290 N   0  0  0  0  0  0  0  0  0  0  0  0
   -6.1700   21.2930  -32.5540 C   0  0  0  0  0  0  0  0  0  0  0  0
   -7.3400   20.7740  -31.9700 C   0  0  0  0  0  0  0  0  0  0  0  0
   -7.7050   19.4410  -32.1770 C   0  0  0  0  0  0  0  0  0  0  0  0
   -6.8970   18.6040  -32.9580 C   0  0  0  0  0  0  0  0  0  0  0  0
   -7.2430   17.2640  -33.1790 C   0  0  0  0  0  0  0  0  0  0  0  0
   -6.4390   16.4690  -33.9360 N   0  0  0  0  0  0  0  0  0  0  0  0
   -5.2920   16.9350  -34.4960 C   0  0  0  0  0  0  0  0  0  0  0  0
   -4.9030   18.2620  -34.3030 C   0  0  0  0  0  0  0  0  0  0  0  0
   -5.7090   19.1090  -33.5300 C   0  0  0  0  0  0  0  0  0  0  0  0
   -5.3490   20.4490  -33.3170 C   0  0  0  0  0  0  0  0  0  0  0  0
   -3.7890   22.7140  -30.8800 C   0  0  0  0  0  0  0  0  0  0  0  0
   -3.1000   23.1630  -29.7390 C   0  0  0  0  0  0  0  0  0  0  0  0
   -1.4480   22.5660  -29.4630 S   0  0  0  0  0  0  0  0  0  0  0  0
   -0.9190   21.9520  -30.7310 O   0  0  0  0  0  0  0  0  0  0  0  0
   -0.5550   23.7190  -29.0980 O   0  0  0  0  0  0  0  0  0  0  0  0
   -1.4210   21.3680  -28.1920 N   0  0  0  0  0  0  0  0  0  0  0  0
   -2.7980   20.9590  -27.8430 C   0  0  0  0  0  0  0  0  0  0  0  0
   -2.8070   19.6560  -27.0170 C   0  0  0  0  0  0  0  0  0  0  0  0
   -1.5340   19.4030  -26.4610 O   0  0  0  0  0  0  0  0  0  0  0  0
   -0.6030   19.1300  -27.4940 C   0  0  0  0  0  0  0  0  0  0  0  0
   -0.6210   20.2030  -28.6070 C   0  0  0  0  0  0  0  0  0  0  0  0
   -3.6538   24.1283  -26.7113 H   0  0  0  0  0  0  0  0  0  0  0  0
   -2.0609   24.2048  -27.5379 H   0  0  0  0  0  0  0  0  0  0  0  0
   -3.1426   25.6389  -27.5379 H   0  0  0  0  0  0  0  0  0  0  0  0
   -5.5770   25.1480  -28.4292 H   0  0  0  0  0  0  0  0  0  0  0  0
   -6.7543   24.3567  -30.4675 H   0  0  0  0  0  0  0  0  0  0  0  0
   -5.9610   23.3530  -33.0810 H   0  0  0  0  0  0  0  0  0  0  0  0
   -7.9723   21.4224  -31.3457 H   0  0  0  0  0  0  0  0  0  0  0  0
   -8.6282   19.0482  -31.7260 H   0  0  0  0  0  0  0  0  0  0  0  0
   -8.1650   16.8547  -32.7403 H   0  0  0  0  0  0  0  0  0  0  0  0
   -4.6673   16.2640  -35.1039 H   0  0  0  0  0  0  0  0  0  0  0  0
   -3.9729   18.6391  -34.7533 H   0  0  0  0  0  0  0  0  0  0  0  0
   -4.4170   20.8399  -33.7512 H   0  0  0  0  0  0  0  0  0  0  0  0
   -3.2853   22.0334  -31.5822 H   0  0  0  0  0  0  0  0  0  0  0  0
   -0.9660   21.7980  -27.3540 H   0  0  0  0  0  0  0  0  0  0  0  0
   -3.2704   21.7591  -27.2542 H   0  0  0  0  0  0  0  0  0  0  0  0
   -3.3527   20.7808  -28.7760 H   0  0  0  0  0  0  0  0  0  0  0  0
   -3.5427   19.7497  -26.2046 H   0  0  0  0  0  0  0  0  0  0  0  0
   -3.0726   18.8206  -27.6814 H   0  0  0  0  0  0  0  0  0  0  0  0
    0.4061   19.0911  -27.0580 H   0  0  0  0  0  0  0  0  0  0  0  0
   -0.8837   18.1698  -27.9513 H   0  0  0  0  0  0  0  0  0  0  0  0
    0.4097   20.5273  -28.8130 H   0  0  0  0  0  0  0  0  0  0  0  0
   -1.0714   19.7679  -29.5114 H   0  0  0  0  0  0  0  0  0  0  0  0
  1  2  1  0
  2  3  2  0
  3  4  1  0
  4  5  2  0
  5  6  1  0
  6  7  1  0
  7  8  2  0
  8  9  1  0
  9 10  2  0
 10 11  1  0
 11 12  2  0
 12 13  1  0
 13 14  2  0
 14 15  1  0
 15 16  2  0
  5 17  1  0
 17 18  2  0
 18 19  1  0
 19 20  2  0
 19 21  2  0
 19 22  1  0
 22 23  1  0
 23 24  1  0
 24 25  1  0
 25 26  1  0
 26 27  1  0
 18  2  1  0
 27 22  1  0
 16  7  1  0
 15 10  1  0
  1 28  1  0
  1 29  1  0
  1 30  1  0
  3 31  1  0
  4 32  1  0
  6 33  1  0
  8 34  1  0
  9 35  1  0
 11 36  1  0
 13 37  1  0
 14 38  1  0
 16 39  1  0
 17 40  1  0
 22 41  1  0
 23 42  1  0
 23 43  1  0
 24 44  1  0
 24 45  1  0
 26 46  1  0
 26 47  1  0
 27 48  1  0
 27 49  1  0
M  CHG  1  22   1
M  END
>  <UniqueID>  (39) 
37

>  <SMILES>  (39) 
Cc1ccc(Nc2ccc3cnccc3c2)cc1S(=O)(=O)[NH+]1CCOCC1

>  <Energy>  (39) 
70.93633606670284

>  <Genealogy>  (39) 
Cc1ccc(Nc2ccc3cnccc3c2)cc1S(=O)(=O)[NH+]1CCOCC1 (protonated)
Cc1ccc(Nc2ccc3cnccc3c2)cc1S(=O)(=O)[NH+]1CCOCC1 (3D coordinates assigned)
Cc1ccc(Nc2ccc3cnccc3c2)cc1S(=O)(=O)[NH+]1CCOCC1 (nonaromatic ring conformer: 70.93633606670284 kcal/mol)

>  <smiles>  (39) 
Cc1ccc(Nc2ccc3cnccc3c2)cc1S(=O)(=O)N1CCOCC1

>  <score_type>  (39) 
oracle

>  <origin>  (39) 
adgpu

>  <m_score__min__energy>  (39) 
-8.7899999999999991

>  <m_primary>  (39) 
energy

$$$$
39:0
     RDKit          3D

 37 39  0  0  0  0  0  0  0  0999 V2000
   -3.8620   25.3120  -30.8270 N   0  0  0  0  0  0  0  0  0  0  0  0
   -3.3660   23.8430  -30.0650 S   0  0  0  0  0  0  0  0  0  0  0  0
   -1.9050   23.9250  -29.7250 O   0  0  0  0  0  0  0  0  0  0  0  0
   -4.1460   23.6470  -28.7950 O   0  0  0  0  0  0  0  0  0  0  0  0
   -3.6520   22.4900  -31.1550 C   0  0  0  0  0  0  0  0  0  0  0  0
   -3.0510   21.2490  -30.9090 C   0  0  0  0  0  0  0  0  0  0  0  0
   -3.2890   20.1710  -31.7650 C   0  0  0  0  0  0  0  0  0  0  0  0
   -4.1340   20.3200  -32.8760 C   0  0  0  0  0  0  0  0  0  0  0  0
   -4.4010   19.2020  -33.7420 N   0  0  0  0  0  0  0  0  0  0  0  0
   -5.7350   19.0590  -34.3370 C   0  0  0  0  0  0  0  0  0  0  0  0
   -6.7910   19.1680  -33.2690 C   0  0  0  0  0  0  0  0  0  0  0  0
   -7.5940   20.3160  -33.1750 C   0  0  0  0  0  0  0  0  0  0  0  0
   -8.6000   20.3930  -32.2060 C   0  0  0  0  0  0  0  0  0  0  0  0
   -8.8160   19.3240  -31.3320 C   0  0  0  0  0  0  0  0  0  0  0  0
   -8.0250   18.1750  -31.4260 C   0  0  0  0  0  0  0  0  0  0  0  0
   -7.0190   18.0940  -32.3920 C   0  0  0  0  0  0  0  0  0  0  0  0
   -3.4250   18.1520  -33.8810 C   0  0  0  0  0  0  0  0  0  0  0  0
   -3.7190   16.8360  -33.7770 N   0  0  0  0  0  0  0  0  0  0  0  0
   -2.5190   16.2630  -33.9920 C   0  0  0  0  0  0  0  0  0  0  0  0
   -1.5660   17.1820  -34.2160 N   0  0  0  0  0  0  0  0  0  0  0  0
   -2.1230   18.3760  -34.1510 N   0  0  0  0  0  0  0  0  0  0  0  0
   -4.7430   21.5620  -33.1140 C   0  0  0  0  0  0  0  0  0  0  0  0
   -4.5040   22.6410  -32.2570 C   0  0  0  0  0  0  0  0  0  0  0  0
   -3.8770   26.0490  -30.0870 H   0  0  0  0  0  0  0  0  0  0  0  0
   -2.3896   21.1228  -30.0391 H   0  0  0  0  0  0  0  0  0  0  0  0
   -2.8116   19.1999  -31.5673 H   0  0  0  0  0  0  0  0  0  0  0  0
   -5.8881   19.8531  -35.0827 H   0  0  0  0  0  0  0  0  0  0  0  0
   -5.8107   18.0735  -34.8197 H   0  0  0  0  0  0  0  0  0  0  0  0
   -7.4316   21.1570  -33.8651 H   0  0  0  0  0  0  0  0  0  0  0  0
   -9.2224   21.2969  -32.1318 H   0  0  0  0  0  0  0  0  0  0  0  0
   -9.6076   19.3866  -30.5708 H   0  0  0  0  0  0  0  0  0  0  0  0
   -8.1950   17.3335  -30.7383 H   0  0  0  0  0  0  0  0  0  0  0  0
   -6.4029   17.1858  -32.4664 H   0  0  0  0  0  0  0  0  0  0  0  0
   -2.3419   15.1774  -33.9849 H   0  0  0  0  0  0  0  0  0  0  0  0
   -0.5560   17.0030  -34.4100 H   0  0  0  0  0  0  0  0  0  0  0  0
   -5.4114   21.6872  -33.9786 H   0  0  0  0  0  0  0  0  0  0  0  0
   -4.9862   23.6109  -32.4486 H   0  0  0  0  0  0  0  0  0  0  0  0
  1  2  1  0
  2  3  2  0
  2  4  2  0
  2  5  1  0
  5  6  2  0
  6  7  1  0
  7  8  2  0
  8  9  1  0
  9 10  1  0
 10 11  1  0
 11 12  2  0
 12 13  1  0
 13 14  2  0
 14 15  1  0
 15 16  2  0
  9 17  1  0
 17 18  1  0
 18 19  2  0
 19 20  1  0
 20 21  1  0
  8 22  1  0
 22 23  2  0
 23  5  1  0
 16 11  1  0
 21 17  2  0
  1 24  1  0
  6 25  1  0
  7 26  1  0
 10 27  1  0
 10 28  1  0
 12 29  1  0
 13 30  1  0
 14 31  1  0
 15 32  1  0
 16 33  1  0
 19 34  1  0
 20 35  1  0
 22 36  1  0
 23 37  1  0
M  CHG  1   1  -1
M  END
>  <UniqueID>  (40) 
38

>  <SMILES>  (40) 
[NH-]S(=O)(=O)c1ccc(N(Cc2ccccc2)c2nc[nH]n2)cc1

>  <Energy>  (40) 
75.46822847718359

>  <Genealogy>  (40) 
[NH-]S(=O)(=O)c1ccc(N(Cc2ccccc2)c2nc[nH]n2)cc1 (protonated)
[NH-]S(=O)(=O)c1ccc(N(Cc2ccccc2)c2nc[nH]n2)cc1 (3D coordinates assigned)
[NH-]S(=O)(=O)c1ccc(N(Cc2ccccc2)c2nc[nH]n2)cc1 (optimized conformer: 75.46822847718359 kcal/mol)

>  <smiles>  (40) 
NS(=O)(=O)c1ccc(N(Cc2ccccc2)c2nc[nH]n2)cc1

>  <score_type>  (40) 
oracle

>  <origin>  (40) 
adgpu

>  <m_score__min__energy>  (40) 
-9.9299999999999997

>  <m_primary>  (40) 
energy

$$$$
40:0
     RDKit          3D

 49 52  0  0  0  0  0  0  0  0999 V2000
   -2.0340   19.9630  -29.6540 O   0  0  0  0  0  0  0  0  0  0  0  0
   -2.0900   20.8650  -30.5350 C   0  0  0  0  0  0  0  0  0  0  0  0
   -1.9590   22.2800  -30.1210 C   0  0  0  0  0  0  0  0  0  0  0  0
   -0.8490   22.7090  -29.3740 C   0  0  0  0  0  0  0  0  0  0  0  0
   -0.7380   24.0460  -28.9800 C   0  0  0  0  0  0  0  0  0  0  0  0
   -1.7370   24.9640  -29.3170 C   0  0  0  0  0  0  0  0  0  0  0  0
   -1.6180   26.2920  -28.9240 O   0  0  0  0  0  0  0  0  0  0  0  0
   -2.8550   24.5420  -30.0450 C   0  0  0  0  0  0  0  0  0  0  0  0
   -3.8550   25.4490  -30.3770 O   0  0  0  0  0  0  0  0  0  0  0  0
   -2.9690   23.2040  -30.4400 C   0  0  0  0  0  0  0  0  0  0  0  0
   -2.3020   20.5000  -31.9130 N   0  0  0  0  0  0  0  0  0  0  0  0
   -1.8060   19.2170  -32.4270 C   0  0  0  0  0  0  0  0  0  0  0  0
   -2.9740   18.3430  -32.9280 C   0  0  0  0  0  0  0  0  0  0  0  0
   -4.1870   19.1310  -33.2670 N   0  0  0  0  0  0  0  0  0  0  0  0
   -5.0890   18.3810  -34.1670 C   0  0  0  0  0  0  0  0  0  0  0  0
   -4.8460   16.8920  -34.0590 C   0  0  0  0  0  0  0  0  0  0  0  0
   -4.0260   16.2760  -35.0240 C   0  0  0  0  0  0  0  0  0  0  0  0
   -3.8010   14.9010  -34.9890 C   0  0  0  0  0  0  0  0  0  0  0  0
   -4.3650   14.1220  -33.9760 C   0  0  0  0  0  0  0  0  0  0  0  0
   -5.1890   14.7110  -33.0170 C   0  0  0  0  0  0  0  0  0  0  0  0
   -5.4310   16.0970  -33.0310 C   0  0  0  0  0  0  0  0  0  0  0  0
   -6.2770   16.6600  -32.0110 N   0  0  0  0  0  0  0  0  0  0  0  0
   -7.3220   17.2740  -32.3120 O   0  0  0  0  0  0  0  0  0  0  0  0
   -5.8500   16.6860  -30.7040 O   0  0  0  0  0  0  0  0  0  0  0  0
   -4.0890   12.7510  -33.9370 O   0  0  0  0  0  0  0  0  0  0  0  0
   -3.0430   12.1850  -34.7310 C   0  0  0  0  0  0  0  0  0  0  0  0
   -2.9980   12.8580  -36.1080 C   0  0  0  0  0  0  0  0  0  0  0  0
   -3.0110   14.2810  -35.9640 O   0  0  0  0  0  0  0  0  0  0  0  0
   -3.8340   20.4380  -33.8500 C   0  0  0  0  0  0  0  0  0  0  0  0
   -3.1800   21.3080  -32.7700 C   0  0  0  0  0  0  0  0  0  0  0  0
   -0.0638   21.9898  -29.0979 H   0  0  0  0  0  0  0  0  0  0  0  0
    0.1382   24.3765  -28.4030 H   0  0  0  0  0  0  0  0  0  0  0  0
   -3.8542   22.8737  -31.0034 H   0  0  0  0  0  0  0  0  0  0  0  0
   -1.1126   19.4053  -33.2599 H   0  0  0  0  0  0  0  0  0  0  0  0
   -1.2898   18.6857  -31.6138 H   0  0  0  0  0  0  0  0  0  0  0  0
   -2.6455   17.8015  -33.8274 H   0  0  0  0  0  0  0  0  0  0  0  0
   -3.2452   17.6579  -32.1113 H   0  0  0  0  0  0  0  0  0  0  0  0
   -6.1321   18.5963  -33.8921 H   0  0  0  0  0  0  0  0  0  0  0  0
   -4.8912   18.6945  -35.2027 H   0  0  0  0  0  0  0  0  0  0  0  0
   -3.5591   16.8852  -35.8120 H   0  0  0  0  0  0  0  0  0  0  0  0
   -5.6546   14.0852  -32.2414 H   0  0  0  0  0  0  0  0  0  0  0  0
   -2.0794   12.3347  -34.2221 H   0  0  0  0  0  0  0  0  0  0  0  0
   -3.2356   11.1101  -34.8637 H   0  0  0  0  0  0  0  0  0  0  0  0
   -2.0791   12.5543  -36.6308 H   0  0  0  0  0  0  0  0  0  0  0  0
   -3.8802   12.5482  -36.6874 H   0  0  0  0  0  0  0  0  0  0  0  0
   -3.1296   20.2921  -34.6822 H   0  0  0  0  0  0  0  0  0  0  0  0
   -4.7411   20.9334  -34.2264 H   0  0  0  0  0  0  0  0  0  0  0  0
   -2.5858   22.0975  -33.2533 H   0  0  0  0  0  0  0  0  0  0  0  0
   -3.9705   21.7522  -32.1473 H   0  0  0  0  0  0  0  0  0  0  0  0
  1  2  2  0
  2  3  1  0
  3  4  2  0
  4  5  1  0
  5  6  2  0
  6  7  1  0
  6  8  1  0
  8  9  1  0
  8 10  2  0
  2 11  1  0
 11 12  1  0
 12 13  1  0
 13 14  1  0
 14 15  1  0
 15 16  1  0
 16 17  2  0
 17 18  1  0
 18 19  2  0
 19 20  1  0
 20 21  2  0
 21 22  1  0
 22 23  2  0
 22 24  1  0
 19 25  1  0
 25 26  1  0
 26 27  1  0
 27 28  1  0
 14 29  1  0
 29 30  1  0
 10  3  1  0
 30 11  1  0
 21 16  1  0
 28 18  1  0
  4 31  1  0
  5 32  1  0
 10 33  1  0
 12 34  1  0
 12 35  1  0
 13 36  1  0
 13 37  1  0
 15 38  1  0
 15 39  1  0
 17 40  1  0
 20 41  1  0
 26 42  1  0
 26 43  1  0
 27 44  1  0
 27 45  1  0
 29 46  1  0
 29 47  1  0
 30 48  1  0
 30 49  1  0
M  CHG  4   7  -1   9  -1  22   1  24  -1
M  END
>  <UniqueID>  (41) 
39

>  <SMILES>  (41) 
O=C(c1ccc([O-])c([O-])c1)N1CCN(Cc2cc3c(cc2[N+](=O)[O-])OCCO3)CC1

>  <Energy>  (41) 
70.03289713155753

>  <Genealogy>  (41) 
O=C(c1ccc([O-])c([O-])c1)N1CCN(Cc2cc3c(cc2[N+](=O)[O-])OCCO3)CC1 (protonated)
O=C(c1ccc([O-])c([O-])c1)N1CCN(Cc2cc3c(cc2[N+](=O)[O-])OCCO3)CC1 (3D coordinates assigned)
O=C(c1ccc([O-])c([O-])c1)N1CCN(Cc2cc3c(cc2[N+](=O)[O-])OCCO3)CC1 (nonaromatic ring conformer: 70.03289713155753 kcal/mol)

>  <smiles>  (41) 
O=C(c1ccc(O)c(O)c1)N1CCN(Cc2cc3c(cc2[N+](=O)[O-])OCCO3)CC1

>  <score_type>  (41) 
oracle

>  <origin>  (41) 
adgpu

>  <m_score__min__energy>  (41) 
-12.449999999999999

>  <m_primary>  (41) 
energy

$$$$
41:0
     RDKit          3D

 38 41  0  0  0  0  0  0  0  0999 V2000
   -6.5720   25.9670  -29.6900 O   0  0  0  0  0  0  0  0  0  0  0  0
   -5.4700   24.9950  -30.0080 S   0  0  0  0  0  0  0  0  0  0  0  0
   -4.4150   25.6870  -30.8230 O   0  0  0  0  0  0  0  0  0  0  0  0
   -4.7530   24.4210  -28.5370 N   0  0  0  0  0  0  0  0  0  0  0  0
   -3.6020   23.5750  -28.5210 C   0  0  0  0  0  0  0  0  0  0  0  0
   -3.7650   22.2270  -28.1770 C   0  0  0  0  0  0  0  0  0  0  0  0
   -2.6530   21.3770  -28.1020 C   0  0  0  0  0  0  0  0  0  0  0  0
   -1.3730   21.8700  -28.3910 C   0  0  0  0  0  0  0  0  0  0  0  0
   -1.2120   23.2070  -28.7790 C   0  0  0  0  0  0  0  0  0  0  0  0
   -2.3190   24.0600  -28.8570 C   0  0  0  0  0  0  0  0  0  0  0  0
   -2.1200   25.3690  -29.3000 O   0  0  0  0  0  0  0  0  0  0  0  0
   -0.2080   20.9170  -28.3720 C   0  0  0  0  0  0  0  0  0  0  0  0
   -0.2710   19.9440  -27.1760 C   0  0  0  0  0  0  0  0  0  0  0  0
   -1.7000   19.5330  -26.7340 C   0  0  0  0  0  0  0  0  0  0  0  0
   -2.7970   19.9270  -27.7320 C   0  0  0  0  0  0  0  0  0  0  0  0
   -6.1460   23.6480  -30.9250 C   0  0  0  0  0  0  0  0  0  0  0  0
   -7.5350   23.4300  -30.9540 C   0  0  0  0  0  0  0  0  0  0  0  0
   -8.0790   22.3640  -31.6880 C   0  0  0  0  0  0  0  0  0  0  0  0
   -7.2490   21.4970  -32.4100 C   0  0  0  0  0  0  0  0  0  0  0  0
   -5.8710   21.7050  -32.3950 C   0  0  0  0  0  0  0  0  0  0  0  0
   -5.0030   20.9120  -33.0730 N   0  0  0  0  0  0  0  0  0  0  0  0
   -3.5730   21.6420  -32.6790 S   0  0  0  0  0  0  0  0  0  0  0  0
   -3.9610   22.9140  -31.6970 N   0  0  0  0  0  0  0  0  0  0  0  0
   -5.3120   22.7840  -31.6520 C   0  0  0  0  0  0  0  0  0  0  0  0
   -4.7701   21.8337  -27.9648 H   0  0  0  0  0  0  0  0  0  0  0  0
   -0.2097   23.5883  -29.0237 H   0  0  0  0  0  0  0  0  0  0  0  0
   -2.8690   26.0470  -29.3480 H   0  0  0  0  0  0  0  0  0  0  0  0
   -0.2125   20.3333  -29.3043 H   0  0  0  0  0  0  0  0  0  0  0  0
    0.7129   21.5109  -28.2763 H   0  0  0  0  0  0  0  0  0  0  0  0
    0.2761   19.0303  -27.4514 H   0  0  0  0  0  0  0  0  0  0  0  0
    0.1703   20.4799  -26.3227 H   0  0  0  0  0  0  0  0  0  0  0  0
   -1.7227   18.4405  -26.6078 H   0  0  0  0  0  0  0  0  0  0  0  0
   -1.9117   20.0707  -25.7980 H   0  0  0  0  0  0  0  0  0  0  0  0
   -2.7063   19.3085  -28.6371 H   0  0  0  0  0  0  0  0  0  0  0  0
   -3.7824   19.7665  -27.2702 H   0  0  0  0  0  0  0  0  0  0  0  0
   -8.2028   24.1023  -30.3953 H   0  0  0  0  0  0  0  0  0  0  0  0
   -9.1679   22.2081  -31.6962 H   0  0  0  0  0  0  0  0  0  0  0  0
   -7.6796   20.6619  -32.9820 H   0  0  0  0  0  0  0  0  0  0  0  0
  1  2  2  0
  2  3  2  0
  2  4  1  0
  4  5  1  0
  5  6  2  0
  6  7  1  0
  7  8  2  0
  8  9  1  0
  9 10  2  0
 10 11  1  0
  8 12  1  0
 12 13  1  0
 13 14  1  0
 14 15  1  0
  2 16  1  0
 16 17  2  0
 17 18  1  0
 18 19  2  0
 19 20  1  0
 20 21  2  0
 21 22  1  0
 22 23  1  0
 23 24  2  0
 10  5  1  0
 24 16  1  0
 15  7  1  0
 24 20  1  0
  6 25  1  0
  9 26  1  0
 11 27  1  0
 12 28  1  0
 12 29  1  0
 13 30  1  0
 13 31  1  0
 14 32  1  0
 14 33  1  0
 15 34  1  0
 15 35  1  0
 17 36  1  0
 18 37  1  0
 19 38  1  0
M  CHG  1   4  -1
M  END
>  <UniqueID>  (42) 
40

>  <SMILES>  (42) 
O=S(=O)([N-]c1cc2c(cc1O)CCCC2)c1cccc2nsnc12

>  <Energy>  (42) 
94.51652295686982

>  <Genealogy>  (42) 
O=S(=O)([N-]c1cc2c(cc1O)CCCC2)c1cccc2nsnc12 (protonated)
O=S(=O)([N-]c1cc2c(cc1O)CCCC2)c1cccc2nsnc12 (3D coordinates assigned)
O=S(=O)([N-]c1cc2c(cc1O)CCCC2)c1cccc2nsnc12 (nonaromatic ring conformer: 94.51652295686982 kcal/mol)

>  <smiles>  (42) 
O=S(=O)(Nc1cc2c(cc1O)CCCC2)c1cccc2nsnc12

>  <score_type>  (42) 
oracle

>  <origin>  (42) 
adgpu

>  <m_score__min__energy>  (42) 
-11.039999999999999

>  <m_primary>  (42) 
energy

$$$$
42:0
     RDKit          3D

 56 59  0  0  0  0  0  0  0  0999 V2000
   -2.7340   19.3330  -26.4970 C   0  0  0  0  0  0  0  0  0  0  0  0
   -1.8820   20.1280  -27.3130 O   0  0  0  0  0  0  0  0  0  0  0  0
   -1.1680   19.6500  -28.4250 C   0  0  0  0  0  0  0  0  0  0  0  0
   -0.5020   18.4080  -28.3990 C   0  0  0  0  0  0  0  0  0  0  0  0
    0.2220   17.9720  -29.5100 C   0  0  0  0  0  0  0  0  0  0  0  0
    0.2940   18.7640  -30.6560 C   0  0  0  0  0  0  0  0  0  0  0  0
   -0.3680   19.9930  -30.6990 C   0  0  0  0  0  0  0  0  0  0  0  0
   -1.1110   20.4390  -29.5930 C   0  0  0  0  0  0  0  0  0  0  0  0
   -1.8310   21.7340  -29.6800 C   0  0  0  0  0  0  0  0  0  0  0  0
   -1.4480   22.7770  -28.8260 C   0  0  0  0  0  0  0  0  0  0  0  0
   -2.1070   23.9750  -28.8300 N   0  0  0  0  0  0  0  0  0  0  0  0
   -1.6780   25.0070  -27.9190 C   0  0  0  0  0  0  0  0  0  0  0  0
   -0.8820   26.0710  -28.3760 C   0  0  0  0  0  0  0  0  0  0  0  0
   -0.4540   27.0640  -27.4900 C   0  0  0  0  0  0  0  0  0  0  0  0
   -0.8160   27.0070  -26.1380 C   0  0  0  0  0  0  0  0  0  0  0  0
   -0.2610   28.2450  -25.0170 S   0  0  0  0  0  0  0  0  0  0  0  0
    0.0370   27.5100  -23.4250 C   0  0  0  0  0  0  0  0  0  0  0  0
    1.0100   28.8660  -25.5280 O   0  0  0  0  0  0  0  0  0  0  0  0
   -1.3040   29.3190  -24.8880 O   0  0  0  0  0  0  0  0  0  0  0  0
   -1.5970   25.9410  -25.6750 C   0  0  0  0  0  0  0  0  0  0  0  0
   -2.0260   24.9470  -26.5590 C   0  0  0  0  0  0  0  0  0  0  0  0
   -3.1560   24.1850  -29.6860 C   0  0  0  0  0  0  0  0  0  0  0  0
   -3.7550   25.2970  -29.7120 O   0  0  0  0  0  0  0  0  0  0  0  0
   -3.5690   23.1760  -30.5580 C   0  0  0  0  0  0  0  0  0  0  0  0
   -2.9040   21.9450  -30.5760 C   0  0  0  0  0  0  0  0  0  0  0  0
   -3.3350   20.9110  -31.5490 C   0  0  0  0  0  0  0  0  0  0  0  0
   -4.4300   20.0760  -31.2680 C   0  0  0  0  0  0  0  0  0  0  0  0
   -4.8590   19.1340  -32.2070 C   0  0  0  0  0  0  0  0  0  0  0  0
   -4.1900   19.0040  -33.4310 C   0  0  0  0  0  0  0  0  0  0  0  0
   -4.7510   17.8430  -34.6290 S   0  0  0  0  0  0  0  0  0  0  0  0
   -5.5110   16.5140  -33.8310 N   0  0  0  0  0  0  0  0  0  0  0  0
   -3.5870   17.3410  -35.4360 O   0  0  0  0  0  0  0  0  0  0  0  0
   -5.7330   18.5020  -35.5560 O   0  0  0  0  0  0  0  0  0  0  0  0
   -3.0890   19.8240  -33.7090 C   0  0  0  0  0  0  0  0  0  0  0  0
   -2.6590   20.7670  -32.7710 C   0  0  0  0  0  0  0  0  0  0  0  0
   -2.5187   19.5339  -25.4372 H   0  0  0  0  0  0  0  0  0  0  0  0
   -3.7838   19.5818  -26.7114 H   0  0  0  0  0  0  0  0  0  0  0  0
   -2.5583   18.2685  -26.7114 H   0  0  0  0  0  0  0  0  0  0  0  0
   -0.5531   17.7788  -27.4982 H   0  0  0  0  0  0  0  0  0  0  0  0
    0.7374   17.0007  -29.4817 H   0  0  0  0  0  0  0  0  0  0  0  0
    0.8725   18.4204  -31.5263 H   0  0  0  0  0  0  0  0  0  0  0  0
   -0.3074   20.6154  -31.6040 H   0  0  0  0  0  0  0  0  0  0  0  0
   -0.6013   22.6291  -28.1395 H   0  0  0  0  0  0  0  0  0  0  0  0
   -0.5942   26.1228  -29.4364 H   0  0  0  0  0  0  0  0  0  0  0  0
    0.1694   27.8932  -27.8559 H   0  0  0  0  0  0  0  0  0  0  0  0
   -0.2504   28.2187  -22.6344 H   0  0  0  0  0  0  0  0  0  0  0  0
   -0.5595   26.5909  -23.3280 H   0  0  0  0  0  0  0  0  0  0  0  0
    1.1052   27.2658  -23.3280 H   0  0  0  0  0  0  0  0  0  0  0  0
   -1.8739   25.8857  -24.6119 H   0  0  0  0  0  0  0  0  0  0  0  0
   -2.6396   24.1129  -26.1879 H   0  0  0  0  0  0  0  0  0  0  0  0
   -4.4200   23.3493  -31.2331 H   0  0  0  0  0  0  0  0  0  0  0  0
   -4.9521   20.1644  -30.3039 H   0  0  0  0  0  0  0  0  0  0  0  0
   -5.7245   18.4927  -31.9843 H   0  0  0  0  0  0  0  0  0  0  0  0
   -6.5420   16.6270  -33.9650 H   0  0  0  0  0  0  0  0  0  0  0  0
   -2.5608   19.7256  -34.6689 H   0  0  0  0  0  0  0  0  0  0  0  0
   -1.7865   21.3995  -32.9915 H   0  0  0  0  0  0  0  0  0  0  0  0
  1  2  1  0
  2  3  1  0
  3  4  2  0
  4  5  1  0
  5  6  2  0
  6  7  1  0
  7  8  2  0
  8  9  1  0
  9 10  2  0
 10 11  1  0
 11 12  1  0
 12 13  2  0
 13 14  1  0
 14 15  2  0
 15 16  1  0
 16 17  1  0
 16 18  2  0
 16 19  2  0
 15 20  1  0
 20 21  2  0
 11 22  1  0
 22 23  2  0
 22 24  1  0
 24 25  2  0
 25 26  1  0
 26 27  2  0
 27 28  1  0
 28 29  2  0
 29 30  1  0
 30 31  1  0
 30 32  2  0
 30 33  2  0
 29 34  1  0
 34 35  2  0
  8  3  1  0
 25  9  1  0
 35 26  1  0
 21 12  1  0
  1 36  1  0
  1 37  1  0
  1 38  1  0
  4 39  1  0
  5 40  1  0
  6 41  1  0
  7 42  1  0
 10 43  1  0
 13 44  1  0
 14 45  1  0
 17 46  1  0
 17 47  1  0
 17 48  1  0
 20 49  1  0
 21 50  1  0
 24 51  1  0
 27 52  1  0
 28 53  1  0
 31 54  1  0
 34 55  1  0
 35 56  1  0
M  CHG  1  31  -1
M  END
>  <UniqueID>  (43) 
41

>  <SMILES>  (43) 
COc1ccccc1-c1cn(-c2ccc(S(C)(=O)=O)cc2)c(=O)cc1-c1ccc(S([NH-])(=O)=O)cc1

>  <Energy>  (43) 
77.87787943313644

>  <Genealogy>  (43) 
COc1ccccc1-c1cn(-c2ccc(S(C)(=O)=O)cc2)c(=O)cc1-c1ccc(S([NH-])(=O)=O)cc1 (protonated)
COc1ccccc1-c1cn(-c2ccc(S(C)(=O)=O)cc2)c(=O)cc1-c1ccc(S([NH-])(=O)=O)cc1 (3D coordinates assigned)
COc1ccccc1-c1cn(-c2ccc(S(C)(=O)=O)cc2)c(=O)cc1-c1ccc(S([NH-])(=O)=O)cc1 (optimized conformer: 77.87787943313644 kcal/mol)

>  <smiles>  (43) 
COc1ccccc1-c1cn(-c2ccc(S(C)(=O)=O)cc2)c(=O)cc1-c1ccc(S(N)(=O)=O)cc1

>  <score_type>  (43) 
oracle

>  <origin>  (43) 
adgpu

>  <m_score__min__energy>  (43) 
-8.7300000000000004

>  <m_primary>  (43) 
energy

$$$$
43:0
     RDKit          3D

 49 51  0  0  0  0  0  0  0  0999 V2000
    3.5700   23.8810  -27.4170 C   0  0  0  0  0  0  0  0  0  0  0  0
    3.4330   25.1160  -26.6570 N   0  0  0  0  0  0  0  0  0  0  0  0
    2.2450   25.9180  -26.6000 C   0  0  0  0  0  0  0  0  0  0  0  0
    2.3640   27.1710  -26.5650 O   0  0  0  0  0  0  0  0  0  0  0  0
    0.8910   25.3270  -26.6200 C   0  0  0  0  0  0  0  0  0  0  0  0
    0.5230   24.3970  -25.6360 C   0  0  0  0  0  0  0  0  0  0  0  0
   -0.7430   23.8080  -25.6620 C   0  0  0  0  0  0  0  0  0  0  0  0
   -1.6510   24.1400  -26.6710 C   0  0  0  0  0  0  0  0  0  0  0  0
   -1.3020   25.0690  -27.6610 C   0  0  0  0  0  0  0  0  0  0  0  0
   -2.2410   25.3690  -28.7090 N   0  0  0  0  0  0  0  0  0  0  0  0
   -2.7660   24.3940  -29.6200 C   0  0  0  0  0  0  0  0  0  0  0  0
   -2.2360   23.2540  -29.7100 O   0  0  0  0  0  0  0  0  0  0  0  0
   -3.8410   24.7630  -30.4920 N   0  0  0  0  0  0  0  0  0  0  0  0
   -5.0610   24.0340  -30.6970 C   0  0  0  0  0  0  0  0  0  0  0  0
   -5.6460   23.2610  -29.6780 C   0  0  0  0  0  0  0  0  0  0  0  0
   -6.8450   22.5810  -29.9120 C   0  0  0  0  0  0  0  0  0  0  0  0
   -7.4790   22.6710  -31.1590 C   0  0  0  0  0  0  0  0  0  0  0  0
   -8.9820   21.7940  -31.4600 S   0  0  0  0  0  0  0  0  0  0  0  0
   -9.6850   21.5540  -30.1540 O   0  0  0  0  0  0  0  0  0  0  0  0
   -9.8810   22.6350  -32.3240 O   0  0  0  0  0  0  0  0  0  0  0  0
   -8.6870   20.2640  -32.2520 N   0  0  0  0  0  0  0  0  0  0  0  0
   -8.6850   19.1650  -31.2680 C   0  0  0  0  0  0  0  0  0  0  0  0
   -7.9470   17.9380  -31.8280 C   0  0  0  0  0  0  0  0  0  0  0  0
   -6.5840   18.1820  -32.1590 O   0  0  0  0  0  0  0  0  0  0  0  0
   -6.2930   19.5480  -32.4200 C   0  0  0  0  0  0  0  0  0  0  0  0
   -7.4620   20.3030  -33.0800 C   0  0  0  0  0  0  0  0  0  0  0  0
   -6.9120   23.4700  -32.1620 C   0  0  0  0  0  0  0  0  0  0  0  0
   -5.7130   24.1500  -31.9290 C   0  0  0  0  0  0  0  0  0  0  0  0
   -0.0160   25.6400  -27.6460 C   0  0  0  0  0  0  0  0  0  0  0  0
    3.6641   23.0323  -26.7236 H   0  0  0  0  0  0  0  0  0  0  0  0
    2.6820   23.7400  -28.0507 H   0  0  0  0  0  0  0  0  0  0  0  0
    4.4673   23.9380  -28.0507 H   0  0  0  0  0  0  0  0  0  0  0  0
    1.2347   24.1307  -24.8407 H   0  0  0  0  0  0  0  0  0  0  0  0
   -1.0261   23.0811  -24.8865 H   0  0  0  0  0  0  0  0  0  0  0  0
   -2.6452   23.6697  -26.6885 H   0  0  0  0  0  0  0  0  0  0  0  0
   -2.5030   26.3690  -28.8690 H   0  0  0  0  0  0  0  0  0  0  0  0
   -5.1589   23.1912  -28.6942 H   0  0  0  0  0  0  0  0  0  0  0  0
   -7.2933   21.9720  -29.1132 H   0  0  0  0  0  0  0  0  0  0  0  0
   -8.1808   19.5024  -30.3504 H   0  0  0  0  0  0  0  0  0  0  0  0
   -9.7256   18.8834  -31.0491 H   0  0  0  0  0  0  0  0  0  0  0  0
   -7.9816   17.1392  -31.0725 H   0  0  0  0  0  0  0  0  0  0  0  0
   -8.4561   17.6602  -32.7627 H   0  0  0  0  0  0  0  0  0  0  0  0
   -6.0514   20.0420  -31.4673 H   0  0  0  0  0  0  0  0  0  0  0  0
   -5.4488   19.5731  -33.1247 H   0  0  0  0  0  0  0  0  0  0  0  0
   -7.1677   21.3524  -33.2289 H   0  0  0  0  0  0  0  0  0  0  0  0
   -7.6849   19.8115  -34.0385 H   0  0  0  0  0  0  0  0  0  0  0  0
   -7.4130   23.5622  -33.1369 H   0  0  0  0  0  0  0  0  0  0  0  0
   -5.2796   24.7803  -32.7195 H   0  0  0  0  0  0  0  0  0  0  0  0
    0.2813   26.3367  -28.4437 H   0  0  0  0  0  0  0  0  0  0  0  0
  1  2  1  0
  2  3  1  0
  3  4  2  0
  3  5  1  0
  5  6  2  0
  6  7  1  0
  7  8  2  0
  8  9  1  0
  9 10  1  0
 10 11  1  0
 11 12  2  0
 11 13  1  0
 13 14  1  0
 14 15  2  0
 15 16  1  0
 16 17  2  0
 17 18  1  0
 18 19  2  0
 18 20  2  0
 18 21  1  0
 21 22  1  0
 22 23  1  0
 23 24  1  0
 24 25  1  0
 25 26  1  0
 17 27  1  0
 27 28  2  0
  9 29  2  0
 29  5  1  0
 28 14  1  0
 26 21  1  0
  1 30  1  0
  1 31  1  0
  1 32  1  0
  6 33  1  0
  7 34  1  0
  8 35  1  0
 10 36  1  0
 15 37  1  0
 16 38  1  0
 22 39  1  0
 22 40  1  0
 23 41  1  0
 23 42  1  0
 25 43  1  0
 25 44  1  0
 26 45  1  0
 26 46  1  0
 27 47  1  0
 28 48  1  0
 29 49  1  0
M  CHG  2   2  -1  13  -1
M  END
>  <UniqueID>  (44) 
42

>  <SMILES>  (44) 
C[N-]C(=O)c1cccc(NC(=O)[N-]c2ccc(S(=O)(=O)N3CCOCC3)cc2)c1

>  <Energy>  (44) 
71.63514430495925

>  <Genealogy>  (44) 
C[N-]C(=O)c1cccc(NC(=O)[N-]c2ccc(S(=O)(=O)N3CCOCC3)cc2)c1 (protonated)
C[N-]C(=O)c1cccc(NC(=O)[N-]c2ccc(S(=O)(=O)N3CCOCC3)cc2)c1 (3D coordinates assigned)
C[N-]C(=O)c1cccc(NC(=O)[N-]c2ccc(S(=O)(=O)N3CCOCC3)cc2)c1 (nonaromatic ring conformer: 71.63514430495925 kcal/mol)

>  <smiles>  (44) 
CNC(=O)c1cccc(NC(=O)Nc2ccc(S(=O)(=O)N3CCOCC3)cc2)c1

>  <score_type>  (44) 
oracle

>  <origin>  (44) 
adgpu

>  <m_score__min__energy>  (44) 
-10.710000000000001

>  <m_primary>  (44) 
energy

$$$$
44:0
     RDKit          3D

 59 62  0  0  0  0  0  0  0  0999 V2000
   -2.5660   22.1500  -32.3060 O   0  0  0  0  0  0  0  0  0  0  0  0
   -2.7730   22.6790  -31.1800 C   0  0  0  0  0  0  0  0  0  0  0  0
   -1.7010   22.7830  -30.2320 N   0  0  0  0  0  0  0  0  0  0  0  0
   -1.6690   22.2400  -28.9040 C   0  0  0  0  0  0  0  0  0  0  0  0
   -2.1990   20.9620  -28.6910 C   0  0  0  0  0  0  0  0  0  0  0  0
   -2.1740   20.3900  -27.4160 C   0  0  0  0  0  0  0  0  0  0  0  0
   -1.6100   21.0870  -26.3450 C   0  0  0  0  0  0  0  0  0  0  0  0
   -1.0550   22.3570  -26.5490 C   0  0  0  0  0  0  0  0  0  0  0  0
   -0.3170   23.2440  -25.2170 S   0  0  0  0  0  0  0  0  0  0  0  0
   -0.2850   22.3510  -24.0080 O   0  0  0  0  0  0  0  0  0  0  0  0
    1.0930   23.6340  -25.5690 O   0  0  0  0  0  0  0  0  0  0  0  0
   -1.2590   24.6740  -24.8770 N   0  0  0  0  0  0  0  0  0  0  0  0
   -1.8150   25.2560  -26.1200 C   0  0  0  0  0  0  0  0  0  0  0  0
   -1.0780   26.5410  -26.5400 C   0  0  0  0  0  0  0  0  0  0  0  0
   -1.1170   27.5520  -25.5440 O   0  0  0  0  0  0  0  0  0  0  0  0
   -1.0310   27.0530  -24.2150 C   0  0  0  0  0  0  0  0  0  0  0  0
   -0.4460   25.6330  -24.1050 C   0  0  0  0  0  0  0  0  0  0  0  0
   -1.0760   22.9270  -27.8300 C   0  0  0  0  0  0  0  0  0  0  0  0
   -4.1070   23.2480  -30.8530 C   0  0  0  0  0  0  0  0  0  0  0  0
   -5.2700   22.5090  -31.1470 C   0  0  0  0  0  0  0  0  0  0  0  0
   -6.5400   23.0110  -30.8350 C   0  0  0  0  0  0  0  0  0  0  0  0
   -7.9840   22.0560  -31.1830 S   0  0  0  0  0  0  0  0  0  0  0  0
   -8.8500   22.0020  -29.9550 O   0  0  0  0  0  0  0  0  0  0  0  0
   -8.7710   22.7270  -32.2770 O   0  0  0  0  0  0  0  0  0  0  0  0
   -7.5770   20.4310  -31.6760 N   0  0  0  0  0  0  0  0  0  0  0  0
   -8.7560   19.5490  -31.5500 C   0  0  0  0  0  0  0  0  0  0  0  0
   -8.5380   18.1740  -32.2210 C   0  0  0  0  0  0  0  0  0  0  0  0
   -7.0600   17.9210  -32.5290 C   0  0  0  0  0  0  0  0  0  0  0  0
   -6.4800   19.0440  -33.4070 C   0  0  0  0  0  0  0  0  0  0  0  0
   -7.0620   20.4270  -33.0550 C   0  0  0  0  0  0  0  0  0  0  0  0
   -6.6590   24.2660  -30.2300 C   0  0  0  0  0  0  0  0  0  0  0  0
   -5.5180   25.0140  -29.9370 C   0  0  0  0  0  0  0  0  0  0  0  0
   -4.2480   24.5170  -30.2430 C   0  0  0  0  0  0  0  0  0  0  0  0
   -3.1380   25.2980  -29.9370 O   0  0  0  0  0  0  0  0  0  0  0  0
   -2.6376   20.4048  -29.5319 H   0  0  0  0  0  0  0  0  0  0  0  0
   -2.5996   19.3884  -27.2556 H   0  0  0  0  0  0  0  0  0  0  0  0
   -1.6016   20.6384  -25.3407 H   0  0  0  0  0  0  0  0  0  0  0  0
   -1.7257   24.5158  -26.9288 H   0  0  0  0  0  0  0  0  0  0  0  0
   -2.8668   25.5162  -25.9304 H   0  0  0  0  0  0  0  0  0  0  0  0
   -0.0266   26.2912  -26.7453 H   0  0  0  0  0  0  0  0  0  0  0  0
   -1.5869   26.9366  -27.4314 H   0  0  0  0  0  0  0  0  0  0  0  0
   -0.3930   27.7339  -23.6325 H   0  0  0  0  0  0  0  0  0  0  0  0
   -2.0611   26.9984  -23.8331 H   0  0  0  0  0  0  0  0  0  0  0  0
    0.5814   25.6341  -24.4979 H   0  0  0  0  0  0  0  0  0  0  0  0
   -0.4494   25.3295  -23.0477 H   0  0  0  0  0  0  0  0  0  0  0  0
   -0.6261   23.9170  -27.9956 H   0  0  0  0  0  0  0  0  0  0  0  0
   -5.1794   21.5240  -31.6283 H   0  0  0  0  0  0  0  0  0  0  0  0
   -8.9666   19.3914  -30.4819 H   0  0  0  0  0  0  0  0  0  0  0  0
   -9.5983   20.0406  -32.0588 H   0  0  0  0  0  0  0  0  0  0  0  0
   -8.9010   17.3860  -31.5447 H   0  0  0  0  0  0  0  0  0  0  0  0
   -9.0922   18.1649  -33.1711 H   0  0  0  0  0  0  0  0  0  0  0  0
   -6.4981   17.8763  -31.5844 H   0  0  0  0  0  0  0  0  0  0  0  0
   -6.9733   16.9695  -33.0741 H   0  0  0  0  0  0  0  0  0  0  0  0
   -5.3894   19.0740  -33.2669 H   0  0  0  0  0  0  0  0  0  0  0  0
   -6.7472   18.8243  -34.4512 H   0  0  0  0  0  0  0  0  0  0  0  0
   -6.2725   21.1872  -33.1493 H   0  0  0  0  0  0  0  0  0  0  0  0
   -7.8883   20.6526  -33.7452 H   0  0  0  0  0  0  0  0  0  0  0  0
   -7.6544   24.6646  -29.9844 H   0  0  0  0  0  0  0  0  0  0  0  0
   -5.6187   26.0011  -29.4622 H   0  0  0  0  0  0  0  0  0  0  0  0
  1  2  2  0
  2  3  1  0
  3  4  1  0
  4  5  2  0
  5  6  1  0
  6  7  2  0
  7  8  1  0
  8  9  1  0
  9 10  2  0
  9 11  2  0
  9 12  1  0
 12 13  1  0
 13 14  1  0
 14 15  1  0
 15 16  1  0
 16 17  1  0
  8 18  2  0
  2 19  1  0
 19 20  2  0
 20 21  1  0
 21 22  1  0
 22 23  2  0
 22 24  2  0
 22 25  1  0
 25 26  1  0
 26 27  1  0
 27 28  1  0
 28 29  1  0
 29 30  1  0
 21 31  2  0
 31 32  1  0
 32 33  2  0
 33 34  1  0
 18  4  1  0
 33 19  1  0
 17 12  1  0
 30 25  1  0
  5 35  1  0
  6 36  1  0
  7 37  1  0
 13 38  1  0
 13 39  1  0
 14 40  1  0
 14 41  1  0
 16 42  1  0
 16 43  1  0
 17 44  1  0
 17 45  1  0
 18 46  1  0
 20 47  1  0
 26 48  1  0
 26 49  1  0
 27 50  1  0
 27 51  1  0
 28 52  1  0
 28 53  1  0
 29 54  1  0
 29 55  1  0
 30 56  1  0
 30 57  1  0
 31 58  1  0
 32 59  1  0
M  CHG  2   3  -1  34  -1
M  END
>  <UniqueID>  (45) 
43

>  <SMILES>  (45) 
O=C([N-]c1cccc(S(=O)(=O)N2CCOCC2)c1)c1cc(S(=O)(=O)N2CCCCC2)ccc1[O-]

>  <Energy>  (45) 
81.7616427340726

>  <Genealogy>  (45) 
O=C([N-]c1cccc(S(=O)(=O)N2CCOCC2)c1)c1cc(S(=O)(=O)N2CCCCC2)ccc1[O-] (protonated)
O=C([N-]c1cccc(S(=O)(=O)N2CCOCC2)c1)c1cc(S(=O)(=O)N2CCCCC2)ccc1[O-] (3D coordinates assigned)
O=C([N-]c1cccc(S(=O)(=O)N2CCOCC2)c1)c1cc(S(=O)(=O)N2CCCCC2)ccc1[O-] (nonaromatic ring conformer: 81.7616427340726 kcal/mol)

>  <smiles>  (45) 
O=C(Nc1cccc(S(=O)(=O)N2CCOCC2)c1)c1cc(S(=O)(=O)N2CCCCC2)ccc1O

>  <score_type>  (45) 
oracle

>  <origin>  (45) 
adgpu

>  <m_score__min__energy>  (45) 
-14.960000000000001

>  <m_primary>  (45) 
energy

$$$$
45:0
     RDKit          3D

 59 63  0  0  0  0  0  0  0  0999 V2000
    0.8480   17.2590  -35.1910 O   0  0  0  0  0  0  0  0  0  0  0  0
    0.3270   18.2940  -34.6950 C   0  0  0  0  0  0  0  0  0  0  0  0
    1.1910   19.3580  -34.2700 N   0  0  0  0  0  0  0  0  0  0  0  0
    1.4520   20.5790  -34.9770 C   0  0  0  0  0  0  0  0  0  0  0  0
    2.7120   20.8330  -35.5870 C   0  0  0  0  0  0  0  0  0  0  0  0
    2.9390   22.0310  -36.2880 C   0  0  0  0  0  0  0  0  0  0  0  0
    1.8990   22.9540  -36.3430 C   0  0  0  0  0  0  0  0  0  0  0  0
    1.8920   24.1490  -36.9510 N   0  0  0  0  0  0  0  0  0  0  0  0
    0.6430   24.6160  -36.6770 C   0  0  0  0  0  0  0  0  0  0  0  0
    0.1550   25.9300  -37.1510 C   0  0  0  0  0  0  0  0  0  0  0  0
    0.3960   26.3460  -38.4730 C   0  0  0  0  0  0  0  0  0  0  0  0
   -0.0650   27.5890  -38.9200 C   0  0  0  0  0  0  0  0  0  0  0  0
   -0.7700   28.4270  -38.0540 C   0  0  0  0  0  0  0  0  0  0  0  0
   -1.0130   28.0250  -36.7380 C   0  0  0  0  0  0  0  0  0  0  0  0
   -0.5560   26.7810  -36.2880 C   0  0  0  0  0  0  0  0  0  0  0  0
   -0.1170   23.7700  -35.9300 N   0  0  0  0  0  0  0  0  0  0  0  0
    0.7050   22.7290  -35.7350 C   0  0  0  0  0  0  0  0  0  0  0  0
    0.4400   21.5570  -35.0350 C   0  0  0  0  0  0  0  0  0  0  0  0
   -1.1440   18.3460  -34.5080 C   0  0  0  0  0  0  0  0  0  0  0  0
   -1.9690   17.3050  -34.9710 C   0  0  0  0  0  0  0  0  0  0  0  0
   -3.3490   17.3490  -34.7600 C   0  0  0  0  0  0  0  0  0  0  0  0
   -3.9280   18.4460  -34.1080 C   0  0  0  0  0  0  0  0  0  0  0  0
   -5.6670   18.4830  -33.8070 S   0  0  0  0  0  0  0  0  0  0  0  0
   -6.1980   17.0760  -33.8010 O   0  0  0  0  0  0  0  0  0  0  0  0
   -6.3450   19.2280  -34.9270 O   0  0  0  0  0  0  0  0  0  0  0  0
   -6.0330   19.2480  -32.2740 N   0  0  0  0  0  0  0  0  0  0  0  0
   -6.3190   20.6840  -32.5110 C   0  0  0  0  0  0  0  0  0  0  0  0
   -7.0900   21.3890  -31.3720 C   0  0  0  0  0  0  0  0  0  0  0  0
   -8.5870   21.0440  -31.2950 C   0  0  0  0  0  0  0  0  0  0  0  0
   -9.1060   20.0710  -32.3880 C   0  0  0  0  0  0  0  0  0  0  0  0
   -8.5180   18.6510  -32.3390 C   0  0  0  0  0  0  0  0  0  0  0  0
   -7.1530   18.5280  -31.6200 C   0  0  0  0  0  0  0  0  0  0  0  0
   -3.1170   19.5050  -33.6840 C   0  0  0  0  0  0  0  0  0  0  0  0
   -1.7340   19.4560  -33.8800 C   0  0  0  0  0  0  0  0  0  0  0  0
    3.5157   20.0859  -35.5097 H   0  0  0  0  0  0  0  0  0  0  0  0
    3.9045   22.2313  -36.7755 H   0  0  0  0  0  0  0  0  0  0  0  0
    0.9506   25.6897  -39.1598 H   0  0  0  0  0  0  0  0  0  0  0  0
    0.1283   27.9065  -39.9553 H   0  0  0  0  0  0  0  0  0  0  0  0
   -1.1339   29.4030  -38.4074 H   0  0  0  0  0  0  0  0  0  0  0  0
   -1.5644   28.6874  -36.0545 H   0  0  0  0  0  0  0  0  0  0  0  0
   -0.7546   26.4676  -35.2525 H   0  0  0  0  0  0  0  0  0  0  0  0
   -0.5303   21.3985  -34.5416 H   0  0  0  0  0  0  0  0  0  0  0  0
   -1.5245   16.4508  -35.5027 H   0  0  0  0  0  0  0  0  0  0  0  0
   -3.9833   16.5199  -35.1067 H   0  0  0  0  0  0  0  0  0  0  0  0
   -5.1600   19.1420  -31.7110 H   0  0  0  0  0  0  0  0  0  0  0  0
   -5.3603   21.2054  -32.6489 H   0  0  0  0  0  0  0  0  0  0  0  0
   -6.9689   20.7276  -33.3974 H   0  0  0  0  0  0  0  0  0  0  0  0
   -6.6241   21.1051  -30.4168 H   0  0  0  0  0  0  0  0  0  0  0  0
   -7.0316   22.4675  -31.5805 H   0  0  0  0  0  0  0  0  0  0  0  0
   -8.7789   20.5850  -30.3139 H   0  0  0  0  0  0  0  0  0  0  0  0
   -9.1236   21.9909  -31.4543 H   0  0  0  0  0  0  0  0  0  0  0  0
  -10.1977   19.9903  -32.2801 H   0  0  0  0  0  0  0  0  0  0  0  0
   -8.7877   20.4982  -33.3504 H   0  0  0  0  0  0  0  0  0  0  0  0
   -9.2372   18.0026  -31.8172 H   0  0  0  0  0  0  0  0  0  0  0  0
   -8.3402   18.3577  -33.3842 H   0  0  0  0  0  0  0  0  0  0  0  0
   -7.2667   18.9271  -30.6013 H   0  0  0  0  0  0  0  0  0  0  0  0
   -6.8880   17.4607  -31.6438 H   0  0  0  0  0  0  0  0  0  0  0  0
   -3.5700   20.3797  -33.1944 H   0  0  0  0  0  0  0  0  0  0  0  0
   -1.1037   20.2912  -33.5407 H   0  0  0  0  0  0  0  0  0  0  0  0
  1  2  2  0
  2  3  1  0
  3  4  1  0
  4  5  2  0
  5  6  1  0
  6  7  2  0
  7  8  1  0
  8  9  1  0
  9 10  1  0
 10 11  2  0
 11 12  1  0
 12 13  2  0
 13 14  1  0
 14 15  2  0
  9 16  2  0
 16 17  1  0
 17 18  2  0
  2 19  1  0
 19 20  2  0
 20 21  1  0
 21 22  2  0
 22 23  1  0
 23 24  2  0
 23 25  2  0
 23 26  1  0
 26 27  1  0
 27 28  1  0
 28 29  1  0
 29 30  1  0
 30 31  1  0
 31 32  1  0
 22 33  1  0
 33 34  2  0
 18  4  1  0
 34 19  1  0
 17  7  1  0
 32 26  1  0
 15 10  1  0
  5 35  1  0
  6 36  1  0
 11 37  1  0
 12 38  1  0
 13 39  1  0
 14 40  1  0
 15 41  1  0
 18 42  1  0
 20 43  1  0
 21 44  1  0
 26 45  1  0
 27 46  1  0
 27 47  1  0
 28 48  1  0
 28 49  1  0
 29 50  1  0
 29 51  1  0
 30 52  1  0
 30 53  1  0
 31 54  1  0
 31 55  1  0
 32 56  1  0
 32 57  1  0
 33 58  1  0
 34 59  1  0
M  CHG  3   3  -1   8  -1  26   1
M  END
>  <UniqueID>  (46) 
44

>  <SMILES>  (46) 
O=C([N-]c1ccc2[n-]c(-c3ccccc3)nc2c1)c1ccc(S(=O)(=O)[NH+]2CCCCCC2)cc1

>  <Energy>  (46) 
116.80797906060938

>  <Genealogy>  (46) 
O=C([N-]c1ccc2[n-]c(-c3ccccc3)nc2c1)c1ccc(S(=O)(=O)[NH+]2CCCCCC2)cc1 (protonated)
O=C([N-]c1ccc2[n-]c(-c3ccccc3)nc2c1)c1ccc(S(=O)(=O)[NH+]2CCCCCC2)cc1 (3D coordinates assigned)
O=C([N-]c1ccc2[n-]c(-c3ccccc3)nc2c1)c1ccc(S(=O)(=O)[NH+]2CCCCCC2)cc1 (nonaromatic ring conformer: 116.80797906060938 kcal/mol)

>  <smiles>  (46) 
O=C(Nc1ccc2[nH]c(-c3ccccc3)nc2c1)c1ccc(S(=O)(=O)N2CCCCCC2)cc1

>  <score_type>  (46) 
oracle

>  <origin>  (46) 
adgpu

>  <m_score__min__energy>  (46) 
-10.81

>  <m_primary>  (46) 
energy

$$$$
46:0
     RDKit          3D

 52 55  0  0  0  0  0  0  0  0999 V2000
   -5.7960   25.2720  -28.9260 O   0  0  0  0  0  0  0  0  0  0  0  0
   -5.4030   24.9610  -30.3440 S   0  0  0  0  0  0  0  0  0  0  0  0
   -5.8960   26.0630  -31.2400 O   0  0  0  0  0  0  0  0  0  0  0  0
   -3.6730   24.8700  -30.4570 N   0  0  0  0  0  0  0  0  0  0  0  0
   -2.8040   24.1690  -29.5560 C   0  0  0  0  0  0  0  0  0  0  0  0
   -3.1320   22.8480  -29.2270 C   0  0  0  0  0  0  0  0  0  0  0  0
   -2.3460   22.1190  -28.3250 C   0  0  0  0  0  0  0  0  0  0  0  0
   -1.2160   22.7090  -27.7460 C   0  0  0  0  0  0  0  0  0  0  0  0
   -0.8740   24.0280  -28.0740 C   0  0  0  0  0  0  0  0  0  0  0  0
   -1.6470   24.7520  -28.9890 C   0  0  0  0  0  0  0  0  0  0  0  0
   -1.2370   26.0330  -29.3370 O   0  0  0  0  0  0  0  0  0  0  0  0
   -0.4310   21.9250  -26.7280 C   0  0  0  0  0  0  0  0  0  0  0  0
   -0.2380   20.4610  -27.1690 C   0  0  0  0  0  0  0  0  0  0  0  0
   -1.4570   19.8290  -27.8910 C   0  0  0  0  0  0  0  0  0  0  0  0
   -2.7100   20.7190  -27.9180 C   0  0  0  0  0  0  0  0  0  0  0  0
   -6.1160   23.4430  -30.8820 C   0  0  0  0  0  0  0  0  0  0  0  0
   -7.3280   22.9880  -30.3420 C   0  0  0  0  0  0  0  0  0  0  0  0
   -7.8640   21.7640  -30.7530 C   0  0  0  0  0  0  0  0  0  0  0  0
   -7.2010   20.9900  -31.7130 C   0  0  0  0  0  0  0  0  0  0  0  0
   -7.8600   19.4280  -32.1890 S   0  0  0  0  0  0  0  0  0  0  0  0
   -8.9950   19.6270  -33.1580 O   0  0  0  0  0  0  0  0  0  0  0  0
   -8.3920   18.7340  -30.9650 O   0  0  0  0  0  0  0  0  0  0  0  0
   -6.6070   18.4570  -32.9190 N   0  0  0  0  0  0  0  0  0  0  0  0
   -6.2180   19.0270  -34.2210 C   0  0  0  0  0  0  0  0  0  0  0  0
   -5.2290   18.0930  -34.9480 C   0  0  0  0  0  0  0  0  0  0  0  0
   -4.8780   16.9800  -34.1480 O   0  0  0  0  0  0  0  0  0  0  0  0
   -6.0370   16.2290  -33.8410 C   0  0  0  0  0  0  0  0  0  0  0  0
   -7.0850   17.0740  -33.0890 C   0  0  0  0  0  0  0  0  0  0  0  0
   -5.9910   21.4460  -32.2570 C   0  0  0  0  0  0  0  0  0  0  0  0
   -5.4560   22.6700  -31.8470 C   0  0  0  0  0  0  0  0  0  0  0  0
   -4.0163   22.3776  -29.6817 H   0  0  0  0  0  0  0  0  0  0  0  0
    0.0064   24.4966  -27.6100 H   0  0  0  0  0  0  0  0  0  0  0  0
    0.5563   22.3929  -26.6002 H   0  0  0  0  0  0  0  0  0  0  0  0
   -0.9918   21.9293  -25.7817 H   0  0  0  0  0  0  0  0  0  0  0  0
    0.6225   20.4210  -27.8531 H   0  0  0  0  0  0  0  0  0  0  0  0
   -0.0899   19.8787  -26.2476 H   0  0  0  0  0  0  0  0  0  0  0  0
   -1.1670   19.6114  -28.9295 H   0  0  0  0  0  0  0  0  0  0  0  0
   -1.7252   18.9261  -27.3228 H   0  0  0  0  0  0  0  0  0  0  0  0
   -3.4320   20.3076  -28.6388 H   0  0  0  0  0  0  0  0  0  0  0  0
   -3.1541   20.7427  -26.9119 H   0  0  0  0  0  0  0  0  0  0  0  0
   -7.8578   23.5956  -29.5936 H   0  0  0  0  0  0  0  0  0  0  0  0
   -8.8105   21.4076  -30.3204 H   0  0  0  0  0  0  0  0  0  0  0  0
   -7.1166   19.1562  -34.8422 H   0  0  0  0  0  0  0  0  0  0  0  0
   -5.7300   19.9982  -34.0517 H   0  0  0  0  0  0  0  0  0  0  0  0
   -5.6959   17.7320  -35.8763 H   0  0  0  0  0  0  0  0  0  0  0  0
   -4.3135   18.6632  -35.1640 H   0  0  0  0  0  0  0  0  0  0  0  0
   -6.4816   15.8616  -34.7777 H   0  0  0  0  0  0  0  0  0  0  0  0
   -5.7403   15.3937  -33.1896 H   0  0  0  0  0  0  0  0  0  0  0  0
   -8.0228   17.0832  -33.6639 H   0  0  0  0  0  0  0  0  0  0  0  0
   -7.2532   16.6311  -32.0962 H   0  0  0  0  0  0  0  0  0  0  0  0
   -5.4627   20.8393  -33.0072 H   0  0  0  0  0  0  0  0  0  0  0  0
   -4.5123   23.0286  -32.2837 H   0  0  0  0  0  0  0  0  0  0  0  0
  1  2  2  0
  2  3  2  0
  2  4  1  0
  4  5  1  0
  5  6  2  0
  6  7  1  0
  7  8  2  0
  8  9  1  0
  9 10  2  0
 10 11  1  0
  8 12  1  0
 12 13  1  0
 13 14  1  0
 14 15  1  0
  2 16  1  0
 16 17  2  0
 17 18  1  0
 18 19  2  0
 19 20  1  0
 20 21  2  0
 20 22  2  0
 20 23  1  0
 23 24  1  0
 24 25  1  0
 25 26  1  0
 26 27  1  0
 27 28  1  0
 19 29  1  0
 29 30  2  0
 10  5  1  0
 30 16  1  0
 15  7  1  0
 28 23  1  0
  6 31  1  0
  9 32  1  0
 12 33  1  0
 12 34  1  0
 13 35  1  0
 13 36  1  0
 14 37  1  0
 14 38  1  0
 15 39  1  0
 15 40  1  0
 17 41  1  0
 18 42  1  0
 24 43  1  0
 24 44  1  0
 25 45  1  0
 25 46  1  0
 27 47  1  0
 27 48  1  0
 28 49  1  0
 28 50  1  0
 29 51  1  0
 30 52  1  0
M  CHG  2   4  -1  11  -1
M  END
>  <UniqueID>  (47) 
45

>  <SMILES>  (47) 
O=S(=O)([N-]c1cc2c(cc1[O-])CCCC2)c1ccc(S(=O)(=O)N2CCOCC2)cc1

>  <Energy>  (47) 
71.9337488820297

>  <Genealogy>  (47) 
O=S(=O)([N-]c1cc2c(cc1[O-])CCCC2)c1ccc(S(=O)(=O)N2CCOCC2)cc1 (protonated)
O=S(=O)([N-]c1cc2c(cc1[O-])CCCC2)c1ccc(S(=O)(=O)N2CCOCC2)cc1 (3D coordinates assigned)
O=S(=O)([N-]c1cc2c(cc1[O-])CCCC2)c1ccc(S(=O)(=O)N2CCOCC2)cc1 (nonaromatic ring conformer: 71.9337488820297 kcal/mol)

>  <smiles>  (47) 
O=S(=O)(Nc1cc2c(cc1O)CCCC2)c1ccc(S(=O)(=O)N2CCOCC2)cc1

>  <score_type>  (47) 
oracle

>  <origin>  (47) 
adgpu

>  <m_score__min__energy>  (47) 
-15.470000000000001

>  <m_primary>  (47) 
energy

$$$$
47:0
     RDKit          3D

 51 55  0  0  1  0  0  0  0  0999 V2000
   -1.0410   18.4500  -33.3150 C   0  0  0  0  0  0  0  0  0  0  0  0
   -2.3810   18.1820  -33.9430 C   0  0  0  0  0  0  0  0  0  0  0  0
   -3.5500   18.8200  -33.5630 C   0  0  0  0  0  0  0  0  0  0  0  0
   -4.5320   18.2950  -34.3750 C   0  0  0  0  0  0  0  0  0  0  0  0
   -5.7950   18.5530  -34.4240 N   0  0  0  0  0  0  0  0  0  0  0  0
   -6.3340   19.5110  -33.5410 C   0  0  0  0  0  0  0  0  0  0  0  0
   -5.8640   20.7890  -33.4590 N   0  0  0  0  0  0  0  0  0  0  0  0
   -6.4080   21.6730  -32.6020 C   0  0  0  0  0  0  0  0  0  0  0  0
   -5.8340   23.3570  -32.4510 S   0  0  0  0  0  0  0  0  0  0  0  0
   -4.8790   23.5540  -30.9580 C   0  0  0  0  0  0  0  0  0  0  0  0
   -5.4030   24.3520  -29.9630 C   0  0  0  0  0  0  0  0  0  0  0  0
   -4.7460   24.5720  -28.7660 C   0  0  0  0  0  0  0  0  0  0  0  0
   -3.5080   23.9650  -28.5610 C   0  0  0  0  0  0  0  0  0  0  0  0
   -2.8140   24.1870  -27.3160 N   0  0  0  0  0  0  0  0  0  0  0  0
   -1.8210   25.1900  -27.2540 C   0  0  0  0  0  0  0  0  0  0  0  0
   -1.5790   25.8560  -28.2930 O   0  0  0  0  0  0  0  0  0  0  0  0
   -1.0590   25.4980  -26.0490 C   0  0  0  0  0  0  0  0  0  0  0  0
   -1.6090   26.4330  -25.1810 C   0  0  0  0  0  0  0  0  0  0  0  0
   -0.9090   26.7570  -24.0130 C   0  0  0  0  0  0  0  0  0  0  0  0
    0.3110   26.1390  -23.7570 C   0  0  0  0  0  0  0  0  0  0  0  0
    0.8660   25.2100  -24.6110 C   0  0  0  0  0  0  0  0  0  0  0  0
    0.1510   24.9050  -25.7660 C   0  0  0  0  0  0  0  0  0  0  0  0
   -2.9640   23.1570  -29.5520 C   0  0  0  0  0  0  0  0  0  0  0  0
   -3.6660   22.9650  -30.7450 C   0  0  0  0  0  0  0  0  0  0  0  0
   -3.0000   21.9440  -32.0260 Cl  0  0  0  0  0  0  0  0  0  0  0  0
   -7.4340   21.3030  -31.8080 N   0  0  0  0  0  0  0  0  0  0  0  0
   -7.9300   20.0510  -31.8570 C   0  0  0  0  0  0  0  0  0  0  0  0
   -8.9340   19.4720  -31.1680 N   0  0  0  0  0  0  0  0  0  0  0  0
   -9.0730   18.1770  -31.5610 C   0  0  0  0  0  0  0  0  0  0  0  0
   -8.1080   17.9650  -32.5350 C   0  0  0  0  0  0  0  0  0  0  0  0
   -7.3850   19.1240  -32.7320 C   0  0  0  0  0  0  0  0  0  0  0  0
   -3.9530   17.3800  -35.2010 N   0  0  0  0  0  0  0  0  0  0  0  0
   -2.6470   17.3130  -34.9370 N   0  0  0  0  0  0  0  0  0  0  0  0
   -1.1390   18.4304  -32.2195 H   0  0  0  0  0  0  0  0  0  0  0  0
   -0.3258   17.6771  -33.6331 H   0  0  0  0  0  0  0  0  0  0  0  0
   -0.6781   19.4385  -33.6331 H   0  0  0  0  0  0  0  0  0  0  0  0
   -3.6693   19.5832  -32.7799 H   0  0  0  0  0  0  0  0  0  0  0  0
   -6.3794   24.8312  -30.1273 H   0  0  0  0  0  0  0  0  0  0  0  0
   -5.1915   25.2132  -27.9912 H   0  0  0  0  0  0  0  0  0  0  0  0
   -3.0330   23.6200  -26.4650 H   0  0  0  0  0  0  0  0  0  0  0  0
   -2.5747   26.9089  -25.4070 H   0  0  0  0  0  0  0  0  0  0  0  0
   -1.3190   27.4923  -23.3051 H   0  0  0  0  0  0  0  0  0  0  0  0
    0.8539   26.4020  -22.8372 H   0  0  0  0  0  0  0  0  0  0  0  0
    1.8311   24.7309  -24.3897 H   0  0  0  0  0  0  0  0  0  0  0  0
    0.5643   24.1698  -26.4722 H   0  0  0  0  0  0  0  0  0  0  0  0
   -1.9885   22.6723  -29.3986 H   0  0  0  0  0  0  0  0  0  0  0  0
   -9.5430   19.9000  -30.4340 H   0  0  0  0  0  0  0  0  0  0  0  0
   -9.8028   17.4459  -31.1830 H   0  0  0  0  0  0  0  0  0  0  0  0
   -7.9441   17.0174  -33.0690 H   0  0  0  0  0  0  0  0  0  0  0  0
   -4.3890   16.7950  -35.9360 H   0  0  0  0  0  0  0  0  0  0  0  0
   -1.9500   16.6990  -35.4140 H   0  0  0  0  0  0  0  0  0  0  0  0
  1  2  1  0
  2  3  2  0
  3  4  1  0
  4  5  2  0
  5  6  1  0
  6  7  2  0
  7  8  1  0
  8  9  1  0
  9 10  1  0
 10 11  2  0
 11 12  1  0
 12 13  2  0
 13 14  1  0
 14 15  1  0
 15 16  2  0
 15 17  1  0
 17 18  2  0
 18 19  1  0
 19 20  2  0
 20 21  1  0
 21 22  2  0
 13 23  1  0
 23 24  2  0
 24 25  1  0
  8 26  2  0
 26 27  1  0
 27 28  1  0
 28 29  1  0
 29 30  2  0
 30 31  1  0
  4 32  1  0
 32 33  1  0
 33  2  1  0
 31  6  1  0
 24 10  1  0
 31 27  2  0
 22 17  1  0
  1 34  1  0
  1 35  1  0
  1 36  1  0
  3 37  1  0
 11 38  1  0
 12 39  1  0
 14 40  1  0
 18 41  1  0
 19 42  1  0
 20 43  1  0
 21 44  1  0
 22 45  1  0
 23 46  1  0
 28 47  1  0
 29 48  1  0
 30 49  1  0
 32 50  1  0
 33 51  1  0
M  END
>  <smiles>  (48) 
Cc1cc(=Nc2nc(Sc3ccc(NC(=O)c4ccccc4)cc3Cl)nc3[nH]ccc23)[nH][nH]1

>  <score_type>  (48) 
oracle

>  <origin>  (48) 
adgpu

>  <m_score__min__energy>  (48) 
-10.9

>  <m_primary>  (48) 
energy

$$$$
48:0
     RDKit          3D

 33 34  0  0  0  0  0  0  0  0999 V2000
   -7.0740   18.7920  -31.8890 O   0  0  0  0  0  0  0  0  0  0  0  0
   -6.0040   19.0700  -32.4950 C   0  0  0  0  0  0  0  0  0  0  0  0
   -5.2660   17.9840  -33.2100 C   0  0  0  0  0  0  0  0  0  0  0  0
   -5.6210   18.0660  -34.9510 Cl  0  0  0  0  0  0  0  0  0  0  0  0
   -5.4450   20.3910  -32.4260 N   0  0  0  0  0  0  0  0  0  0  0  0
   -6.1520   21.5420  -31.9350 C   0  0  0  0  0  0  0  0  0  0  0  0
   -7.5310   21.7060  -32.1560 C   0  0  0  0  0  0  0  0  0  0  0  0
   -8.1840   22.8570  -31.7080 C   0  0  0  0  0  0  0  0  0  0  0  0
   -7.4670   23.8630  -31.0560 C   0  0  0  0  0  0  0  0  0  0  0  0
   -6.0880   23.7220  -30.8500 C   0  0  0  0  0  0  0  0  0  0  0  0
   -5.1510   25.0160  -30.1080 S   0  0  0  0  0  0  0  0  0  0  0  0
   -5.7220   26.3570  -30.4800 O   0  0  0  0  0  0  0  0  0  0  0  0
   -5.2180   24.8660  -28.6140 O   0  0  0  0  0  0  0  0  0  0  0  0
   -3.4870   24.9330  -30.6140 N   0  0  0  0  0  0  0  0  0  0  0  0
   -2.7030   24.0850  -29.7140 C   0  0  0  0  0  0  0  0  0  0  0  0
   -1.9940   24.9200  -28.6940 C   0  0  0  0  0  0  0  0  0  0  0  0
   -1.9010   24.6430  -27.3460 C   0  0  0  0  0  0  0  0  0  0  0  0
   -1.1760   25.6830  -26.8040 C   0  0  0  0  0  0  0  0  0  0  0  0
   -0.8650   26.5220  -27.8540 C   0  0  0  0  0  0  0  0  0  0  0  0
   -1.3640   26.0390  -28.9690 O   0  0  0  0  0  0  0  0  0  0  0  0
   -5.4370   22.5620  -31.2890 C   0  0  0  0  0  0  0  0  0  0  0  0
   -4.1849   18.1100  -33.0507 H   0  0  0  0  0  0  0  0  0  0  0  0
   -5.5850   17.0069  -32.8182 H   0  0  0  0  0  0  0  0  0  0  0  0
   -4.4370   20.5050  -32.6810 H   0  0  0  0  0  0  0  0  0  0  0  0
   -8.0979   20.9249  -32.6837 H   0  0  0  0  0  0  0  0  0  0  0  0
   -9.2661   22.9714  -31.8692 H   0  0  0  0  0  0  0  0  0  0  0  0
   -7.9854   24.7670  -30.7038 H   0  0  0  0  0  0  0  0  0  0  0  0
   -3.3757   23.3813  -29.2019 H   0  0  0  0  0  0  0  0  0  0  0  0
   -1.9564   23.5336  -30.3043 H   0  0  0  0  0  0  0  0  0  0  0  0
   -2.3178   23.7746  -26.8148 H   0  0  0  0  0  0  0  0  0  0  0  0
   -0.9010   25.8168  -25.7474 H   0  0  0  0  0  0  0  0  0  0  0  0
   -0.2869   27.4541  -27.7702 H   0  0  0  0  0  0  0  0  0  0  0  0
   -4.3550   22.4496  -31.1258 H   0  0  0  0  0  0  0  0  0  0  0  0
  1  2  2  0
  2  3  1  0
  3  4  1  0
  2  5  1  0
  5  6  1  0
  6  7  2  0
  7  8  1  0
  8  9  2  0
  9 10  1  0
 10 11  1  0
 11 12  2  0
 11 13  2  0
 11 14  1  0
 14 15  1  0
 15 16  1  0
 16 17  2  0
 17 18  1  0
 18 19  2  0
 19 20  1  0
 10 21  2  0
 21  6  1  0
 20 16  1  0
  3 22  1  0
  3 23  1  0
  5 24  1  0
  7 25  1  0
  8 26  1  0
  9 27  1  0
 15 28  1  0
 15 29  1  0
 17 30  1  0
 18 31  1  0
 19 32  1  0
 21 33  1  0
M  CHG  1  14  -1
M  END
>  <UniqueID>  (49) 
46

>  <SMILES>  (49) 
O=C(CCl)Nc1cccc(S(=O)(=O)[N-]Cc2ccco2)c1

>  <Energy>  (49) 
55.73200600722718

>  <Genealogy>  (49) 
O=C(CCl)Nc1cccc(S(=O)(=O)[N-]Cc2ccco2)c1 (protonated)
O=C(CCl)Nc1cccc(S(=O)(=O)[N-]Cc2ccco2)c1 (3D coordinates assigned)
O=C(CCl)Nc1cccc(S(=O)(=O)[N-]Cc2ccco2)c1 (optimized conformer: 55.73200600722718 kcal/mol)

>  <smiles>  (49) 
O=C(CCl)Nc1cccc(S(=O)(=O)NCc2ccco2)c1

>  <score_type>  (49) 
oracle

>  <origin>  (49) 
adgpu

>  <m_score__min__energy>  (49) 
-9.6300000000000008

>  <m_primary>  (49) 
energy

$$$$
