0:0
     RDKit          3D

 53 56  0  0  0  0  0  0  0  0999 V2000
   -9.0310   19.0520  -32.3630 C   0  0  0  0  0  0  0  0  0  0  0  0
   -7.7400   18.3460  -31.9580 C   0  0  0  0  0  0  0  0  0  0  0  0
   -6.6940   18.4570  -33.0300 C   0  0  0  0  0  0  0  0  0  0  0  0
   -6.7730   17.7040  -34.0370 O   0  0  0  0  0  0  0  0  0  0  0  0
   -5.6760   19.4700  -32.9860 N   0  0  0  0  0  0  0  0  0  0  0  0
   -4.2920   19.2390  -33.4030 C   0  0  0  0  0  0  0  0  0  0  0  0
   -3.5500   20.5790  -33.1990 C   0  0  0  0  0  0  0  0  0  0  0  0
   -4.5730   21.4400  -32.5420 C   0  0  0  0  0  0  0  0  0  0  0  0
   -4.3760   22.6890  -31.9500 C   0  0  0  0  0  0  0  0  0  0  0  0
   -5.4350   23.2630  -31.2220 C   0  0  0  0  0  0  0  0  0  0  0  0
   -5.1660   24.7030  -30.2400 S   0  0  0  0  0  0  0  0  0  0  0  0
   -4.2090   25.6430  -30.9220 O   0  0  0  0  0  0  0  0  0  0  0  0
   -6.4800   25.3990  -30.0250 O   0  0  0  0  0  0  0  0  0  0  0  0
   -4.5080   24.2280  -28.7080 N   0  0  0  0  0  0  0  0  0  0  0  0
   -3.3630   23.3730  -28.5740 C   0  0  0  0  0  0  0  0  0  0  0  0
   -3.4990   22.0550  -28.1080 C   0  0  0  0  0  0  0  0  0  0  0  0
   -2.3720   21.2740  -27.8210 C   0  0  0  0  0  0  0  0  0  0  0  0
   -1.0870   21.7870  -28.0790 C   0  0  0  0  0  0  0  0  0  0  0  0
   -0.9520   23.0880  -28.5870 C   0  0  0  0  0  0  0  0  0  0  0  0
   -2.0790   23.8800  -28.8410 C   0  0  0  0  0  0  0  0  0  0  0  0
   -1.8980   25.1760  -29.3310 O   0  0  0  0  0  0  0  0  0  0  0  0
    0.1530   21.0000  -27.7180 C   0  0  0  0  0  0  0  0  0  0  0  0
   -0.1000   19.5520  -27.5960 N   0  0  0  0  0  0  0  0  0  0  0  0
   -0.2000   18.9020  -28.9140 C   0  0  0  0  0  0  0  0  0  0  0  0
   -1.2660   19.2790  -26.7320 C   0  0  0  0  0  0  0  0  0  0  0  0
   -2.5660   19.8740  -27.2950 C   0  0  0  0  0  0  0  0  0  0  0  0
   -6.6670   22.5850  -31.1230 C   0  0  0  0  0  0  0  0  0  0  0  0
   -6.8350   21.3280  -31.7180 C   0  0  0  0  0  0  0  0  0  0  0  0
   -5.7690   20.7790  -32.4390 C   0  0  0  0  0  0  0  0  0  0  0  0
   -9.5826   19.3537  -31.4604 H   0  0  0  0  0  0  0  0  0  0  0  0
   -8.7895   19.9436  -32.9603 H   0  0  0  0  0  0  0  0  0  0  0  0
   -9.6514   18.3676  -32.9603 H   0  0  0  0  0  0  0  0  0  0  0  0
   -7.3561   18.8045  -31.0348 H   0  0  0  0  0  0  0  0  0  0  0  0
   -7.9631   17.2803  -31.8017 H   0  0  0  0  0  0  0  0  0  0  0  0
   -3.8342   18.4520  -32.7857 H   0  0  0  0  0  0  0  0  0  0  0  0
   -4.2394   18.9075  -34.4505 H   0  0  0  0  0  0  0  0  0  0  0  0
   -2.6705   20.4479  -32.5515 H   0  0  0  0  0  0  0  0  0  0  0  0
   -3.1661   21.0059  -34.1373 H   0  0  0  0  0  0  0  0  0  0  0  0
   -3.4141   23.2130  -32.0504 H   0  0  0  0  0  0  0  0  0  0  0  0
   -4.5038   21.6304  -27.9665 H   0  0  0  0  0  0  0  0  0  0  0  0
    0.0515   23.4910  -28.7883 H   0  0  0  0  0  0  0  0  0  0  0  0
   -2.6240   25.6730  -29.8340 H   0  0  0  0  0  0  0  0  0  0  0  0
    0.9096   21.1592  -28.5004 H   0  0  0  0  0  0  0  0  0  0  0  0
    0.4966   21.3584  -26.7364 H   0  0  0  0  0  0  0  0  0  0  0  0
   -0.3660   17.8230  -28.7790 H   0  0  0  0  0  0  0  0  0  0  0  0
   -1.0420   19.3354  -29.4736 H   0  0  0  0  0  0  0  0  0  0  0  0
    0.7334   19.0622  -29.4736 H   0  0  0  0  0  0  0  0  0  0  0  0
   -1.3881   18.1899  -26.6376 H   0  0  0  0  0  0  0  0  0  0  0  0
   -1.0772   19.7502  -25.7561 H   0  0  0  0  0  0  0  0  0  0  0  0
   -2.9222   19.2337  -28.1155 H   0  0  0  0  0  0  0  0  0  0  0  0
   -3.2984   19.9201  -26.4755 H   0  0  0  0  0  0  0  0  0  0  0  0
   -7.5019   23.0461  -30.5749 H   0  0  0  0  0  0  0  0  0  0  0  0
   -7.7858   20.7836  -31.6204 H   0  0  0  0  0  0  0  0  0  0  0  0
  1  2  1  0
  2  3  1  0
  3  4  2  0
  3  5  1  0
  5  6  1  0
  6  7  1  0
  7  8  1  0
  8  9  2  0
  9 10  1  0
 10 11  1  0
 11 12  2  0
 11 13  2  0
 11 14  1  0
 14 15  1  0
 15 16  2  0
 16 17  1  0
 17 18  2  0
 18 19  1  0
 19 20  2  0
 20 21  1  0
 18 22  1  0
 22 23  1  0
 23 24  1  0
 23 25  1  0
 25 26  1  0
 10 27  2  0
 27 28  1  0
 28 29  2  0
 29  5  1  0
 29  8  1  0
 20 15  1  0
 26 17  1  0
  1 30  1  0
  1 31  1  0
  1 32  1  0
  2 33  1  0
  2 34  1  0
  6 35  1  0
  6 36  1  0
  7 37  1  0
  7 38  1  0
  9 39  1  0
 16 40  1  0
 19 41  1  0
 21 42  1  0
 22 43  1  0
 22 44  1  0
 24 45  1  0
 24 46  1  0
 24 47  1  0
 25 48  1  0
 25 49  1  0
 26 50  1  0
 26 51  1  0
 27 52  1  0
 28 53  1  0
M  CHG  1  14  -1
M  END
>  <UniqueID>  (1) 
1

>  <SMILES>  (1) 
CCC(=O)N1CCc2cc(S(=O)(=O)[N-]c3cc4c(cc3O)CN(C)CC4)ccc21

>  <Energy>  (1) 
80.56987941064291

>  <Genealogy>  (1) 
CCC(=O)N1CCc2cc(S(=O)(=O)[N-]c3cc4c(cc3O)CN(C)CC4)ccc21 (protonated)
CCC(=O)N1CCc2cc(S(=O)(=O)[N-]c3cc4c(cc3O)CN(C)CC4)ccc21 (3D coordinates assigned)
CCC(=O)N1CCc2cc(S(=O)(=O)[N-]c3cc4c(cc3O)CN(C)CC4)ccc21 (nonaromatic ring conformer: 80.56987941064291 kcal/mol)

>  <smiles>  (1) 
CCC(=O)N1CCc2cc(S(=O)(=O)Nc3cc4c(cc3O)CN(C)CC4)ccc21

>  <score_type>  (1) 
oracle

>  <origin>  (1) 
adgpu

>  <m_score__min__energy>  (1) 
-12.84

>  <m_primary>  (1) 
energy

$$$$
1:0
     RDKit          3D

 63 67  0  0  0  0  0  0  0  0999 V2000
   -6.7870   15.6810  -34.1470 C   0  0  0  0  0  0  0  0  0  0  0  0
   -6.4900   17.0780  -33.6730 C   0  0  0  0  0  0  0  0  0  0  0  0
   -6.1120   18.0780  -34.5850 C   0  0  0  0  0  0  0  0  0  0  0  0
   -5.7970   19.3670  -34.1330 C   0  0  0  0  0  0  0  0  0  0  0  0
   -5.8170   19.6670  -32.7640 C   0  0  0  0  0  0  0  0  0  0  0  0
   -5.5420   21.0090  -32.3420 N   0  0  0  0  0  0  0  0  0  0  0  0
   -4.2480   21.6300  -32.2690 C   0  0  0  0  0  0  0  0  0  0  0  0
   -4.1510   22.8560  -31.9680 O   0  0  0  0  0  0  0  0  0  0  0  0
   -3.0230   20.8330  -32.5410 C   0  0  0  0  0  0  0  0  0  0  0  0
   -2.7180   20.3960  -33.8430 C   0  0  0  0  0  0  0  0  0  0  0  0
   -1.5290   19.7030  -34.0890 C   0  0  0  0  0  0  0  0  0  0  0  0
   -0.6460   19.4540  -33.0350 C   0  0  0  0  0  0  0  0  0  0  0  0
    0.8690   18.5500  -33.3240 S   0  0  0  0  0  0  0  0  0  0  0  0
    1.4610   19.7750  -34.4910 C   0  0  0  0  0  0  0  0  0  0  0  0
    2.2240   19.5310  -35.6170 C   0  0  0  0  0  0  0  0  0  0  0  0
    2.3980   20.7600  -36.2210 C   0  0  0  0  0  0  0  0  0  0  0  0
    3.0970   20.9790  -37.4070 O   0  0  0  0  0  0  0  0  0  0  0  0
    1.7770   21.7350  -35.5230 N   0  0  0  0  0  0  0  0  0  0  0  0
    1.8100   23.1480  -35.7960 C   0  0  0  0  0  0  0  0  0  0  0  0
    0.6360   23.8290  -36.1620 C   0  0  0  0  0  0  0  0  0  0  0  0
    0.6680   25.2040  -36.4260 C   0  0  0  0  0  0  0  0  0  0  0  0
    1.8720   25.9160  -36.3280 C   0  0  0  0  0  0  0  0  0  0  0  0
    1.9260   27.6420  -36.7150 S   0  0  0  0  0  0  0  0  0  0  0  0
    3.1100   28.2700  -36.0230 O   0  0  0  0  0  0  0  0  0  0  0  0
    2.1130   27.8140  -38.2010 O   0  0  0  0  0  0  0  0  0  0  0  0
    0.4570   28.4590  -36.2200 N   0  0  0  0  0  0  0  0  0  0  0  0
    0.3090   28.4750  -34.7440 C   0  0  0  0  0  0  0  0  0  0  0  0
   -1.0770   27.9970  -34.2880 C   0  0  0  0  0  0  0  0  0  0  0  0
   -2.1050   28.6690  -34.9950 O   0  0  0  0  0  0  0  0  0  0  0  0
   -2.0130   28.4860  -36.4010 C   0  0  0  0  0  0  0  0  0  0  0  0
   -0.6970   27.8630  -36.9080 C   0  0  0  0  0  0  0  0  0  0  0  0
    3.0430   25.2420  -35.9480 C   0  0  0  0  0  0  0  0  0  0  0  0
    3.0120   23.8660  -35.6870 C   0  0  0  0  0  0  0  0  0  0  0  0
    1.2070   21.1260  -34.4640 C   0  0  0  0  0  0  0  0  0  0  0  0
    0.4990   21.7900  -33.4670 O   0  0  0  0  0  0  0  0  0  0  0  0
   -0.9490   19.8770  -31.7770 N   0  0  0  0  0  0  0  0  0  0  0  0
   -2.1030   20.5490  -31.5100 C   0  0  0  0  0  0  0  0  0  0  0  0
   -6.2100   18.6700  -31.8520 C   0  0  0  0  0  0  0  0  0  0  0  0
   -6.5350   17.3810  -32.3050 C   0  0  0  0  0  0  0  0  0  0  0  0
   -6.9273   15.0211  -33.2782 H   0  0  0  0  0  0  0  0  0  0  0  0
   -7.7039   15.6871  -34.7546 H   0  0  0  0  0  0  0  0  0  0  0  0
   -5.9469   15.3136  -34.7546 H   0  0  0  0  0  0  0  0  0  0  0  0
   -6.0630   17.8480  -35.6596 H   0  0  0  0  0  0  0  0  0  0  0  0
   -5.5318   20.1498  -34.8589 H   0  0  0  0  0  0  0  0  0  0  0  0
   -3.4159   20.5998  -34.6685 H   0  0  0  0  0  0  0  0  0  0  0  0
   -1.2902   19.3562  -35.1052 H   0  0  0  0  0  0  0  0  0  0  0  0
    2.6116   18.5605  -35.9602 H   0  0  0  0  0  0  0  0  0  0  0  0
    3.9380   20.4560  -37.6120 H   0  0  0  0  0  0  0  0  0  0  0  0
   -0.3132   23.2788  -36.2415 H   0  0  0  0  0  0  0  0  0  0  0  0
   -0.2560   25.7281  -36.7117 H   0  0  0  0  0  0  0  0  0  0  0  0
    1.0719   27.8149  -34.3056 H   0  0  0  0  0  0  0  0  0  0  0  0
    0.4323   29.5147  -34.4065 H   0  0  0  0  0  0  0  0  0  0  0  0
   -1.1625   26.9157  -34.4708 H   0  0  0  0  0  0  0  0  0  0  0  0
   -1.1879   28.2171  -33.2160 H   0  0  0  0  0  0  0  0  0  0  0  0
   -2.8395   27.8299  -36.7115 H   0  0  0  0  0  0  0  0  0  0  0  0
   -2.0563   29.4942  -36.8387 H   0  0  0  0  0  0  0  0  0  0  0  0
   -0.7124   26.7800  -36.7161 H   0  0  0  0  0  0  0  0  0  0  0  0
   -0.6055   28.0573  -37.9868 H   0  0  0  0  0  0  0  0  0  0  0  0
    3.9886   25.7963  -35.8548 H   0  0  0  0  0  0  0  0  0  0  0  0
    3.9353   23.3444  -35.3947 H   0  0  0  0  0  0  0  0  0  0  0  0
   -2.3196   20.8732  -30.4814 H   0  0  0  0  0  0  0  0  0  0  0  0
   -6.2630   18.9016  -30.7780 H   0  0  0  0  0  0  0  0  0  0  0  0
   -6.8265   16.6047  -31.5823 H   0  0  0  0  0  0  0  0  0  0  0  0
  1  2  1  0
  2  3  2  0
  3  4  1  0
  4  5  2  0
  5  6  1  0
  6  7  1  0
  7  8  2  0
  7  9  1  0
  9 10  2  0
 10 11  1  0
 11 12  2  0
 12 13  1  0
 13 14  1  0
 14 15  1  0
 15 16  2  0
 16 17  1  0
 16 18  1  0
 18 19  1  0
 19 20  2  0
 20 21  1  0
 21 22  2  0
 22 23  1  0
 23 24  2  0
 23 25  2  0
 23 26  1  0
 26 27  1  0
 27 28  1  0
 28 29  1  0
 29 30  1  0
 30 31  1  0
 22 32  1  0
 32 33  2  0
 18 34  1  0
 34 35  1  0
 12 36  1  0
 36 37  2  0
  5 38  1  0
 38 39  2  0
 39  2  1  0
 37  9  1  0
 34 14  2  0
 33 19  1  0
 31 26  1  0
  1 40  1  0
  1 41  1  0
  1 42  1  0
  3 43  1  0
  4 44  1  0
 10 45  1  0
 11 46  1  0
 15 47  1  0
 17 48  1  0
 20 49  1  0
 21 50  1  0
 27 51  1  0
 27 52  1  0
 28 53  1  0
 28 54  1  0
 30 55  1  0
 30 56  1  0
 31 57  1  0
 31 58  1  0
 32 59  1  0
 33 60  1  0
 37 61  1  0
 38 62  1  0
 39 63  1  0
M  CHG  2   6  -1  35  -1
M  END
>  <UniqueID>  (2) 
2

>  <SMILES>  (2) 
Cc1ccc([N-]C(=O)c2ccc(Sc3cc(O)n(-c4ccc(S(=O)(=O)N5CCOCC5)cc4)c3[O-])nc2)cc1

>  <Energy>  (2) 
113.94034614696582

>  <Genealogy>  (2) 
Cc1ccc([N-]C(=O)c2ccc(Sc3cc(O)n(-c4ccc(S(=O)(=O)N5CCOCC5)cc4)c3[O-])nc2)cc1 (protonated)
Cc1ccc([N-]C(=O)c2ccc(Sc3cc(O)n(-c4ccc(S(=O)(=O)N5CCOCC5)cc4)c3[O-])nc2)cc1 (3D coordinates assigned)
Cc1ccc([N-]C(=O)c2ccc(Sc3cc(O)n(-c4ccc(S(=O)(=O)N5CCOCC5)cc4)c3[O-])nc2)cc1 (nonaromatic ring conformer: 113.94034614696582 kcal/mol)

>  <smiles>  (2) 
Cc1ccc(NC(=O)c2ccc(Sc3cc(O)n(-c4ccc(S(=O)(=O)N5CCOCC5)cc4)c3O)nc2)cc1

>  <score_type>  (2) 
oracle

>  <origin>  (2) 
adgpu

>  <m_score__min__energy>  (2) 
-11.76

>  <m_primary>  (2) 
energy

$$$$
2:0
     RDKit          3D

 68 72  0  0  0  0  0  0  0  0999 V2000
   -8.2252   16.5062  -33.1743 H   0  0  0  0  0  0  0  0  0  0  0  0
   -7.2200   16.9520  -33.2050 C   0  0  0  0  0  0  0  0  0  0  0  0
   -7.0760   18.3100  -32.6410 C   0  0  0  0  0  0  0  0  0  0  0  0
   -7.5480   18.5370  -31.4940 O   0  0  0  0  0  0  0  0  0  0  0  0
   -6.4260   19.3650  -33.3620 N   0  0  0  0  0  0  0  0  0  0  0  0
   -5.6720   20.3870  -32.7020 C   0  0  0  0  0  0  0  0  0  0  0  0
   -4.2830   20.2610  -32.6400 C   0  0  0  0  0  0  0  0  0  0  0  0
   -3.7893   19.4006  -33.1153 H   0  0  0  0  0  0  0  0  0  0  0  0
   -3.5200   21.2200  -31.9790 C   0  0  0  0  0  0  0  0  0  0  0  0
   -2.4272   21.1067  -31.9251 H   0  0  0  0  0  0  0  0  0  0  0  0
   -4.1320   22.3230  -31.3850 C   0  0  0  0  0  0  0  0  0  0  0  0
   -3.5173   23.0665  -30.8564 H   0  0  0  0  0  0  0  0  0  0  0  0
   -5.5320   22.4970  -31.4540 C   0  0  0  0  0  0  0  0  0  0  0  0
   -6.1820   23.6210  -30.8750 C   0  0  0  0  0  0  0  0  0  0  0  0
   -5.2930   24.9050  -30.0350 S   0  0  0  0  0  0  0  0  0  0  0  0
   -6.2600   25.9900  -29.6490 O   0  0  0  0  0  0  0  0  0  0  0  0
   -4.2350   25.4850  -30.9310 O   0  0  0  0  0  0  0  0  0  0  0  0
   -4.5290   24.2440  -28.6240 N   0  0  0  0  0  0  0  0  0  0  0  0
   -3.2770   24.4190  -28.3360 C   0  0  0  0  0  0  0  0  0  0  0  0
   -2.4850   25.1200  -29.1480 O   0  0  0  0  0  0  0  0  0  0  0  0
   -1.2000   25.3370  -28.8840 C   0  0  0  0  0  0  0  0  0  0  0  0
   -0.5901   25.9258  -29.5850 H   0  0  0  0  0  0  0  0  0  0  0  0
   -0.6200   24.8230  -27.7240 C   0  0  0  0  0  0  0  0  0  0  0  0
    0.4409   25.0085  -27.5003 H   0  0  0  0  0  0  0  0  0  0  0  0
   -1.4090   24.0680  -26.8500 C   0  0  0  0  0  0  0  0  0  0  0  0
   -0.8200   23.5320  -25.5800 C   0  0  0  0  0  0  0  0  0  0  0  0
   -1.3258   23.9923  -24.7184 H   0  0  0  0  0  0  0  0  0  0  0  0
   -0.9555   22.4409  -25.5448 H   0  0  0  0  0  0  0  0  0  0  0  0
    0.2535   23.7695  -25.5448 H   0  0  0  0  0  0  0  0  0  0  0  0
   -2.7600   23.8700  -27.1570 C   0  0  0  0  0  0  0  0  0  0  0  0
   -3.4065   23.2910  -26.4811 H   0  0  0  0  0  0  0  0  0  0  0  0
   -7.5770   23.7330  -30.9690 C   0  0  0  0  0  0  0  0  0  0  0  0
   -8.0836   24.6008  -30.5215 H   0  0  0  0  0  0  0  0  0  0  0  0
   -8.3290   22.7590  -31.6220 C   0  0  0  0  0  0  0  0  0  0  0  0
   -9.4222   22.8635  -31.6849 H   0  0  0  0  0  0  0  0  0  0  0  0
   -7.7060   21.6550  -32.1950 C   0  0  0  0  0  0  0  0  0  0  0  0
   -8.3097   20.8934  -32.7102 H   0  0  0  0  0  0  0  0  0  0  0  0
   -6.3090   21.5060  -32.1200 C   0  0  0  0  0  0  0  0  0  0  0  0
   -6.2450   16.2090  -33.7510 C   0  0  0  0  0  0  0  0  0  0  0  0
   -6.5297   15.2350  -34.1756 H   0  0  0  0  0  0  0  0  0  0  0  0
   -4.8260   16.5910  -33.8280 C   0  0  0  0  0  0  0  0  0  0  0  0
   -4.4050   17.4930  -34.8150 C   0  0  0  0  0  0  0  0  0  0  0  0
   -5.1428   17.9468  -35.4930 H   0  0  0  0  0  0  0  0  0  0  0  0
   -3.0520   17.8180  -34.9410 C   0  0  0  0  0  0  0  0  0  0  0  0
   -2.7308   18.5404  -35.7059 H   0  0  0  0  0  0  0  0  0  0  0  0
   -2.1010   17.2260  -34.0950 C   0  0  0  0  0  0  0  0  0  0  0  0
   -0.3860   17.5980  -34.2910 S   0  0  0  0  0  0  0  0  0  0  0  0
    0.4300   16.5260  -33.6280 O   0  0  0  0  0  0  0  0  0  0  0  0
   -0.0430   17.6010  -35.7540 O   0  0  0  0  0  0  0  0  0  0  0  0
    0.0220   19.1520  -33.6000 N   0  0  0  0  0  0  0  0  0  0  0  0
   -1.1050   20.0990  -33.7420 C   0  0  0  0  0  0  0  0  0  0  0  0
   -1.5659   19.9642  -34.7316 H   0  0  0  0  0  0  0  0  0  0  0  0
   -1.8364   19.8959  -32.9459 H   0  0  0  0  0  0  0  0  0  0  0  0
   -0.6240   21.5480  -33.6060 C   0  0  0  0  0  0  0  0  0  0  0  0
   -1.4934   22.2192  -33.6658 H   0  0  0  0  0  0  0  0  0  0  0  0
   -0.1128   21.6498  -32.6373 H   0  0  0  0  0  0  0  0  0  0  0  0
    0.3310   21.9080  -34.6690 N   0  0  0  0  0  0  0  0  0  0  0  0
    0.9940   22.6210  -34.2820 H   0  0  0  0  0  0  0  0  0  0  0  0
    1.1150   20.7690  -35.1830 C   0  0  0  0  0  0  0  0  0  0  0  0
    0.5897   20.3410  -36.0495 H   0  0  0  0  0  0  0  0  0  0  0  0
    2.1106   21.1453  -35.4607 H   0  0  0  0  0  0  0  0  0  0  0  0
    1.3080   19.6660  -34.1280 C   0  0  0  0  0  0  0  0  0  0  0  0
    1.8592   18.8319  -34.5869 H   0  0  0  0  0  0  0  0  0  0  0  0
    1.8633   20.1039  -33.2854 H   0  0  0  0  0  0  0  0  0  0  0  0
   -2.5230   16.3200  -33.1100 C   0  0  0  0  0  0  0  0  0  0  0  0
   -1.7849   15.8612  -32.4357 H   0  0  0  0  0  0  0  0  0  0  0  0
   -3.8770   15.9980  -32.9820 C   0  0  0  0  0  0  0  0  0  0  0  0
   -4.1994   15.2776  -32.2158 H   0  0  0  0  0  0  0  0  0  0  0  0
  1  2  1  0
  2  3  1  0
  3  4  2  0
  3  5  1  0
  5  6  1  0
  6  7  2  0
  7  8  1  0
  7  9  1  0
  9 10  1  0
  9 11  2  0
 11 12  1  0
 11 13  1  0
 13 14  2  0
 14 15  1  0
 15 16  2  0
 15 17  2  0
 15 18  1  0
 18 19  2  3
 19 20  1  0
 20 21  1  0
 21 22  1  0
 21 23  2  0
 23 24  1  0
 23 25  1  0
 25 26  1  0
 26 27  1  0
 26 28  1  0
 26 29  1  0
 25 30  2  0
 30 31  1  0
 14 32  1  0
 32 33  1  0
 32 34  2  0
 34 35  1  0
 34 36  1  0
 36 37  1  0
 36 38  2  0
  2 39  2  0
 39 40  1  0
 39 41  1  0
 41 42  2  0
 42 43  1  0
 42 44  1  0
 44 45  1  0
 44 46  2  0
 46 47  1  0
 47 48  2  0
 47 49  2  0
 47 50  1  0
 50 51  1  0
 51 52  1  0
 51 53  1  0
 51 54  1  0
 54 55  1  0
 54 56  1  0
 54 57  1  0
 57 58  1  0
 57 59  1  0
 59 60  1  0
 59 61  1  0
 59 62  1  0
 62 63  1  0
 62 64  1  0
 46 65  1  0
 65 66  1  0
 65 67  2  0
 67 68  1  0
 38  6  1  0
 67 41  1  0
 38 13  1  0
 62 50  1  0
 30 19  1  0
M  CHG  1   5  -1
M  END
>  <UniqueID>  (3) 
3

>  <SMILES>  (3) 
Cc1ccoc(=NS(=O)(=O)c2cccc3c([N-]C(=O)/C=C\c4ccc(S(=O)(=O)N5CCNCC5)cc4)cccc23)c1

>  <Energy>  (3) 
107.74248332370583

>  <Genealogy>  (3) 
Cc1ccoc(=NS(=O)(=O)c2cccc3c([N-]C(=O)C=Cc4ccc(S(=O)(=O)N5CCNCC5)cc4)cccc23)c1 (protonated)
Cc1ccoc(=NS(=O)(=O)c2cccc3c([N-]C(=O)/C=C\c4ccc(S(=O)(=O)N5CCNCC5)cc4)cccc23)c1 (cis-trans isomerization)
Cc1ccoc(=NS(=O)(=O)c2cccc3c([N-]C(=O)/C=C\c4ccc(S(=O)(=O)N5CCNCC5)cc4)cccc23)c1 (3D coordinates assigned)
Cc1ccoc(=NS(=O)(=O)c2cccc3c([N-]C(=O)/C=C\c4ccc(S(=O)(=O)N5CCNCC5)cc4)cccc23)c1 (nonaromatic ring conformer: 107.74248332370583 kcal/mol)

>  <smiles>  (3) 
Cc1ccoc(=NS(=O)(=O)c2cccc3c(NC(=O)C=Cc4ccc(S(=O)(=O)N5CCNCC5)cc4)cccc23)c1

>  <score_type>  (3) 
oracle

>  <origin>  (3) 
adgpu

>  <m_score__min__energy>  (3) 
-12.6

>  <m_primary>  (3) 
energy

$$$$
3:0
     RDKit          3D

 63 66  0  0  0  0  0  0  0  0999 V2000
   -2.2650   20.1450  -31.1430 C   0  0  0  0  0  0  0  0  0  0  0  0
   -3.4800   21.0110  -31.3860 C   0  0  0  0  0  0  0  0  0  0  0  0
   -3.5740   22.2650  -30.7570 C   0  0  0  0  0  0  0  0  0  0  0  0
   -4.6790   23.1020  -30.9870 C   0  0  0  0  0  0  0  0  0  0  0  0
   -4.7890   24.6550  -30.1530 S   0  0  0  0  0  0  0  0  0  0  0  0
   -6.2180   25.1240  -30.0830 O   0  0  0  0  0  0  0  0  0  0  0  0
   -3.9900   25.6780  -30.9150 O   0  0  0  0  0  0  0  0  0  0  0  0
   -4.1300   24.4930  -28.5570 N   0  0  0  0  0  0  0  0  0  0  0  0
   -2.8820   23.8490  -28.2570 C   0  0  0  0  0  0  0  0  0  0  0  0
   -2.8340   22.6340  -27.5490 C   0  0  0  0  0  0  0  0  0  0  0  0
   -1.6070   22.0010  -27.3150 C   0  0  0  0  0  0  0  0  0  0  0  0
   -0.4230   22.5890  -27.7560 C   0  0  0  0  0  0  0  0  0  0  0  0
   -0.4570   23.8240  -28.4200 C   0  0  0  0  0  0  0  0  0  0  0  0
   -1.6840   24.4510  -28.6700 C   0  0  0  0  0  0  0  0  0  0  0  0
   -1.7110   25.6670  -29.3440 O   0  0  0  0  0  0  0  0  0  0  0  0
    0.8550   21.8420  -27.5220 C   0  0  0  0  0  0  0  0  0  0  0  0
    0.6210   20.3600  -27.8700 C   0  0  0  0  0  0  0  0  0  0  0  0
   -0.5430   19.7550  -27.1540 N   0  0  0  0  0  0  0  0  0  0  0  0
   -1.2310   18.7670  -28.0030 C   0  0  0  0  0  0  0  0  0  0  0  0
   -1.5110   20.7070  -26.5460 C   0  0  0  0  0  0  0  0  0  0  0  0
   -5.7050   22.6790  -31.8400 C   0  0  0  0  0  0  0  0  0  0  0  0
   -5.6340   21.4290  -32.4580 C   0  0  0  0  0  0  0  0  0  0  0  0
   -4.5210   20.5940  -32.2540 C   0  0  0  0  0  0  0  0  0  0  0  0
   -4.4800   19.2840  -32.9450 C   0  0  0  0  0  0  0  0  0  0  0  0
   -3.3080   18.9500  -33.6290 C   0  0  0  0  0  0  0  0  0  0  0  0
   -3.1660   17.7130  -34.2630 C   0  0  0  0  0  0  0  0  0  0  0  0
   -1.8620   17.4200  -34.9750 C   0  0  0  0  0  0  0  0  0  0  0  0
   -4.2080   16.7590  -34.1750 C   0  0  0  0  0  0  0  0  0  0  0  0
   -4.0150   15.3740  -34.7640 C   0  0  0  0  0  0  0  0  0  0  0  0
   -5.4500   17.1280  -33.5770 C   0  0  0  0  0  0  0  0  0  0  0  0
   -6.6250   16.1670  -33.6110 C   0  0  0  0  0  0  0  0  0  0  0  0
   -5.5670   18.3780  -32.9080 C   0  0  0  0  0  0  0  0  0  0  0  0
   -6.8640   18.7530  -32.2080 C   0  0  0  0  0  0  0  0  0  0  0  0
   -2.1061   20.0317  -30.0605 H   0  0  0  0  0  0  0  0  0  0  0  0
   -2.4237   19.1552  -31.5959 H   0  0  0  0  0  0  0  0  0  0  0  0
   -1.3811   20.6179  -31.5959 H   0  0  0  0  0  0  0  0  0  0  0  0
   -2.7740   22.5943  -30.0776 H   0  0  0  0  0  0  0  0  0  0  0  0
   -3.7643   22.1794  -27.1777 H   0  0  0  0  0  0  0  0  0  0  0  0
    0.4801   24.3001  -28.7444 H   0  0  0  0  0  0  0  0  0  0  0  0
    1.6488   22.2535  -28.1628 H   0  0  0  0  0  0  0  0  0  0  0  0
    1.1635   21.9398  -26.4707 H   0  0  0  0  0  0  0  0  0  0  0  0
    0.4431   20.2807  -28.9526 H   0  0  0  0  0  0  0  0  0  0  0  0
    1.5180   19.8081  -27.5525 H   0  0  0  0  0  0  0  0  0  0  0  0
   -1.7438   18.0306  -27.3668 H   0  0  0  0  0  0  0  0  0  0  0  0
   -1.9685   19.2796  -28.6381 H   0  0  0  0  0  0  0  0  0  0  0  0
   -0.4944   18.2531  -28.6381 H   0  0  0  0  0  0  0  0  0  0  0  0
   -2.5042   20.2348  -26.5242 H   0  0  0  0  0  0  0  0  0  0  0  0
   -1.1549   20.9452  -25.5329 H   0  0  0  0  0  0  0  0  0  0  0  0
   -6.5699   23.3333  -32.0240 H   0  0  0  0  0  0  0  0  0  0  0  0
   -6.4549   21.0948  -33.1094 H   0  0  0  0  0  0  0  0  0  0  0  0
   -2.4815   19.6748  -33.6690 H   0  0  0  0  0  0  0  0  0  0  0  0
   -1.0705   17.2422  -34.2321 H   0  0  0  0  0  0  0  0  0  0  0  0
   -1.9810   16.5262  -35.6051 H   0  0  0  0  0  0  0  0  0  0  0  0
   -1.5872   18.2788  -35.6051 H   0  0  0  0  0  0  0  0  0  0  0  0
   -3.9128   14.6406  -33.9506 H   0  0  0  0  0  0  0  0  0  0  0  0
   -4.8857   15.1147  -35.3842 H   0  0  0  0  0  0  0  0  0  0  0  0
   -3.1066   15.3626  -35.3842 H   0  0  0  0  0  0  0  0  0  0  0  0
   -6.9267   15.9202  -32.5824 H   0  0  0  0  0  0  0  0  0  0  0  0
   -7.4684   16.6375  -34.1376 H   0  0  0  0  0  0  0  0  0  0  0  0
   -6.3312   15.2470  -34.1376 H   0  0  0  0  0  0  0  0  0  0  0  0
   -6.7181   18.7108  -31.1185 H   0  0  0  0  0  0  0  0  0  0  0  0
   -7.1565   19.7725  -32.4996 H   0  0  0  0  0  0  0  0  0  0  0  0
   -7.6555   18.0469  -32.4996 H   0  0  0  0  0  0  0  0  0  0  0  0
  1  2  1  0
  2  3  2  0
  3  4  1  0
  4  5  1  0
  5  6  2  0
  5  7  2  0
  5  8  1  0
  8  9  1  0
  9 10  2  0
 10 11  1  0
 11 12  2  0
 12 13  1  0
 13 14  2  0
 14 15  1  0
 12 16  1  0
 16 17  1  0
 17 18  1  0
 18 19  1  0
 18 20  1  0
  4 21  2  0
 21 22  1  0
 22 23  2  0
 23 24  1  0
 24 25  2  0
 25 26  1  0
 26 27  1  0
 26 28  2  0
 28 29  1  0
 28 30  1  0
 30 31  1  0
 30 32  2  0
 32 33  1  0
 23  2  1  0
 32 24  1  0
 14  9  1  0
 20 11  1  0
  1 34  1  0
  1 35  1  0
  1 36  1  0
  3 37  1  0
 10 38  1  0
 13 39  1  0
 16 40  1  0
 16 41  1  0
 17 42  1  0
 17 43  1  0
 19 44  1  0
 19 45  1  0
 19 46  1  0
 20 47  1  0
 20 48  1  0
 21 49  1  0
 22 50  1  0
 25 51  1  0
 27 52  1  0
 27 53  1  0
 27 54  1  0
 29 55  1  0
 29 56  1  0
 29 57  1  0
 31 58  1  0
 31 59  1  0
 31 60  1  0
 33 61  1  0
 33 62  1  0
 33 63  1  0
M  CHG  2   8  -1  15  -1
M  END
>  <UniqueID>  (4) 
4

>  <SMILES>  (4) 
Cc1cc(S(=O)(=O)[N-]c2cc3c(cc2[O-])CCN(C)C3)ccc1-c1cc(C)c(C)c(C)c1C

>  <Energy>  (4) 
95.93155656057357

>  <Genealogy>  (4) 
Cc1cc(S(=O)(=O)[N-]c2cc3c(cc2[O-])CCN(C)C3)ccc1-c1cc(C)c(C)c(C)c1C (protonated)
Cc1cc(S(=O)(=O)[N-]c2cc3c(cc2[O-])CCN(C)C3)ccc1-c1cc(C)c(C)c(C)c1C (3D coordinates assigned)
Cc1cc(S(=O)(=O)[N-]c2cc3c(cc2[O-])CCN(C)C3)ccc1-c1cc(C)c(C)c(C)c1C (nonaromatic ring conformer: 95.93155656057357 kcal/mol)

>  <smiles>  (4) 
Cc1cc(S(=O)(=O)Nc2cc3c(cc2O)CCN(C)C3)ccc1-c1cc(C)c(C)c(C)c1C

>  <score_type>  (4) 
oracle

>  <origin>  (4) 
adgpu

>  <m_score__min__energy>  (4) 
-15.15

>  <m_primary>  (4) 
energy

$$$$
4:0
     RDKit          3D

 63 67  0  0  0  0  0  0  0  0999 V2000
   -3.4400   24.0410  -30.8410 O   0  0  0  0  0  0  0  0  0  0  0  0
   -2.7880   24.0660  -29.7630 C   0  0  0  0  0  0  0  0  0  0  0  0
   -2.7110   22.8450  -28.8940 C   0  0  0  0  0  0  0  0  0  0  0  0
   -1.4600   22.8510  -28.1250 N   0  0  0  0  0  0  0  0  0  0  0  0
   -0.4580   21.4260  -28.1010 S   0  0  0  0  0  0  0  0  0  0  0  0
    0.9610   21.7860  -27.7580 O   0  0  0  0  0  0  0  0  0  0  0  0
   -0.9840   20.4730  -27.0640 O   0  0  0  0  0  0  0  0  0  0  0  0
   -0.4460   20.6720  -29.6920 C   0  0  0  0  0  0  0  0  0  0  0  0
    0.7770   20.4200  -30.3250 C   0  0  0  0  0  0  0  0  0  0  0  0
    0.8050   19.8540  -31.6010 C   0  0  0  0  0  0  0  0  0  0  0  0
   -0.3890   19.5290  -32.2490 C   0  0  0  0  0  0  0  0  0  0  0  0
   -1.6240   19.7590  -31.6230 C   0  0  0  0  0  0  0  0  0  0  0  0
   -2.8390   19.4340  -32.3190 N   0  0  0  0  0  0  0  0  0  0  0  0
   -3.1980   18.1010  -32.7210 C   0  0  0  0  0  0  0  0  0  0  0  0
   -2.3040   17.2180  -32.8280 O   0  0  0  0  0  0  0  0  0  0  0  0
   -4.5990   17.7660  -33.0720 C   0  0  0  0  0  0  0  0  0  0  0  0
   -4.8750   16.7020  -33.9490 C   0  0  0  0  0  0  0  0  0  0  0  0
   -6.1930   16.3920  -34.2960 C   0  0  0  0  0  0  0  0  0  0  0  0
   -7.2510   17.1340  -33.7670 C   0  0  0  0  0  0  0  0  0  0  0  0
   -6.9960   18.1810  -32.8740 C   0  0  0  0  0  0  0  0  0  0  0  0
   -8.3320   19.1300  -32.2230 S   0  0  0  0  0  0  0  0  0  0  0  0
   -9.5450   18.9180  -33.0870 O   0  0  0  0  0  0  0  0  0  0  0  0
   -8.6530   18.6620  -30.8290 O   0  0  0  0  0  0  0  0  0  0  0  0
   -7.9120   20.8240  -32.2100 N   0  0  0  0  0  0  0  0  0  0  0  0
   -6.7900   21.0550  -31.2730 C   0  0  0  0  0  0  0  0  0  0  0  0
   -6.5810   22.5530  -30.9550 C   0  0  0  0  0  0  0  0  0  0  0  0
   -7.2980   23.4500  -31.9660 C   0  0  0  0  0  0  0  0  0  0  0  0
   -8.8000   23.1270  -32.0230 C   0  0  0  0  0  0  0  0  0  0  0  0
   -9.0860   21.6250  -31.8290 C   0  0  0  0  0  0  0  0  0  0  0  0
   -5.6740   18.4950  -32.5280 C   0  0  0  0  0  0  0  0  0  0  0  0
   -1.6470   20.3520  -30.3470 C   0  0  0  0  0  0  0  0  0  0  0  0
   -1.0210   24.0870  -27.5250 C   0  0  0  0  0  0  0  0  0  0  0  0
   -0.2660   24.1110  -26.3400 C   0  0  0  0  0  0  0  0  0  0  0  0
    0.1670   25.3300  -25.8080 C   0  0  0  0  0  0  0  0  0  0  0  0
   -0.1540   26.5310  -26.4490 C   0  0  0  0  0  0  0  0  0  0  0  0
   -0.9240   26.5180  -27.6160 C   0  0  0  0  0  0  0  0  0  0  0  0
   -1.3690   25.3010  -28.1470 C   0  0  0  0  0  0  0  0  0  0  0  0
   -2.1780   25.2840  -29.3270 N   0  0  0  0  0  0  0  0  0  0  0  0
   -3.5645   22.8378  -28.2002 H   0  0  0  0  0  0  0  0  0  0  0  0
   -2.7383   21.9480  -29.5302 H   0  0  0  0  0  0  0  0  0  0  0  0
    1.7194   20.6689  -29.8152 H   0  0  0  0  0  0  0  0  0  0  0  0
    1.7684   19.6638  -32.0966 H   0  0  0  0  0  0  0  0  0  0  0  0
   -0.3612   19.0897  -33.2571 H   0  0  0  0  0  0  0  0  0  0  0  0
   -3.4340   20.2250  -32.6560 H   0  0  0  0  0  0  0  0  0  0  0  0
   -4.0472   16.1091  -34.3652 H   0  0  0  0  0  0  0  0  0  0  0  0
   -6.3973   15.5614  -34.9876 H   0  0  0  0  0  0  0  0  0  0  0  0
   -8.2861   16.8953  -34.0525 H   0  0  0  0  0  0  0  0  0  0  0  0
   -6.9992   20.5213  -30.3342 H   0  0  0  0  0  0  0  0  0  0  0  0
   -5.8724   20.6850  -31.7538 H   0  0  0  0  0  0  0  0  0  0  0  0
   -6.9751   22.7626  -29.9496 H   0  0  0  0  0  0  0  0  0  0  0  0
   -5.5036   22.7684  -31.0081 H   0  0  0  0  0  0  0  0  0  0  0  0
   -7.1674   24.5013  -31.6699 H   0  0  0  0  0  0  0  0  0  0  0  0
   -6.8639   23.2724  -32.9610 H   0  0  0  0  0  0  0  0  0  0  0  0
   -9.3127   23.6896  -31.2289 H   0  0  0  0  0  0  0  0  0  0  0  0
   -9.1666   23.4121  -33.0202 H   0  0  0  0  0  0  0  0  0  0  0  0
   -9.3261   21.4356  -30.7724 H   0  0  0  0  0  0  0  0  0  0  0  0
   -9.9347   21.3388  -32.4676 H   0  0  0  0  0  0  0  0  0  0  0  0
   -5.4749   19.3178  -31.8256 H   0  0  0  0  0  0  0  0  0  0  0  0
   -2.6099   20.5660  -29.8601 H   0  0  0  0  0  0  0  0  0  0  0  0
   -0.0151   23.1693  -25.8298 H   0  0  0  0  0  0  0  0  0  0  0  0
    0.7617   25.3442  -24.8828 H   0  0  0  0  0  0  0  0  0  0  0  0
    0.1997   27.4866  -26.0346 H   0  0  0  0  0  0  0  0  0  0  0  0
   -1.1801   27.4633  -28.1168 H   0  0  0  0  0  0  0  0  0  0  0  0
  1  2  2  0
  2  3  1  0
  3  4  1  0
  4  5  1  0
  5  6  2  0
  5  7  2  0
  5  8  1  0
  8  9  2  0
  9 10  1  0
 10 11  2  0
 11 12  1  0
 12 13  1  0
 13 14  1  0
 14 15  2  0
 14 16  1  0
 16 17  2  0
 17 18  1  0
 18 19  2  0
 19 20  1  0
 20 21  1  0
 21 22  2  0
 21 23  2  0
 21 24  1  0
 24 25  1  0
 25 26  1  0
 26 27  1  0
 27 28  1  0
 28 29  1  0
 20 30  2  0
 12 31  2  0
  4 32  1  0
 32 33  2  0
 33 34  1  0
 34 35  2  0
 35 36  1  0
 36 37  2  0
 37 38  1  0
 38  2  1  0
 31  8  1  0
 37 32  1  0
 30 16  1  0
 29 24  1  0
  3 39  1  0
  3 40  1  0
  9 41  1  0
 10 42  1  0
 11 43  1  0
 13 44  1  0
 17 45  1  0
 18 46  1  0
 19 47  1  0
 25 48  1  0
 25 49  1  0
 26 50  1  0
 26 51  1  0
 27 52  1  0
 27 53  1  0
 28 54  1  0
 28 55  1  0
 29 56  1  0
 29 57  1  0
 30 58  1  0
 31 59  1  0
 33 60  1  0
 34 61  1  0
 35 62  1  0
 36 63  1  0
M  CHG  1  38  -1
M  END
>  <UniqueID>  (5) 
5

>  <SMILES>  (5) 
O=C1CN(S(=O)(=O)c2cccc(NC(=O)c3cccc(S(=O)(=O)N4CCCCC4)c3)c2)c2ccccc2[N-]1

>  <Energy>  (5) 
81.79907208192832

>  <Genealogy>  (5) 
O=C1CN(S(=O)(=O)c2cccc(NC(=O)c3cccc(S(=O)(=O)N4CCCCC4)c3)c2)c2ccccc2[N-]1 (protonated)
O=C1CN(S(=O)(=O)c2cccc(NC(=O)c3cccc(S(=O)(=O)N4CCCCC4)c3)c2)c2ccccc2[N-]1 (3D coordinates assigned)
O=C1CN(S(=O)(=O)c2cccc(NC(=O)c3cccc(S(=O)(=O)N4CCCCC4)c3)c2)c2ccccc2[N-]1 (nonaromatic ring conformer: 81.79907208192832 kcal/mol)

>  <smiles>  (5) 
O=C1CN(S(=O)(=O)c2cccc(NC(=O)c3cccc(S(=O)(=O)N4CCCCC4)c3)c2)c2ccccc2N1

>  <score_type>  (5) 
oracle

>  <origin>  (5) 
adgpu

>  <m_score__min__energy>  (5) 
-12.51

>  <m_primary>  (5) 
energy

$$$$
5:0
     RDKit          3D

 73 77  0  0  0  0  0  0  0  0999 V2000
   -9.7910   21.5330  -31.5980 C   0  0  0  0  0  0  0  0  0  0  0  0
   -8.7880   20.4440  -31.7670 C   0  0  0  0  0  0  0  0  0  0  0  0
   -9.1010   19.1290  -31.7630 N   0  0  0  0  0  0  0  0  0  0  0  0
   -8.0370   18.3340  -31.8540 N   0  0  0  0  0  0  0  0  0  0  0  0
   -6.8700   19.0100  -31.9290 C   0  0  0  0  0  0  0  0  0  0  0  0
   -5.5320   18.3490  -31.9580 C   0  0  0  0  0  0  0  0  0  0  0  0
   -4.5210   19.0630  -33.2410 S   0  0  0  0  0  0  0  0  0  0  0  0
   -3.7860   17.9780  -33.9790 O   0  0  0  0  0  0  0  0  0  0  0  0
   -5.3910   19.8050  -34.2170 O   0  0  0  0  0  0  0  0  0  0  0  0
   -3.3590   20.1640  -32.5130 C   0  0  0  0  0  0  0  0  0  0  0  0
   -2.0130   20.1380  -32.9050 C   0  0  0  0  0  0  0  0  0  0  0  0
   -1.0940   21.0050  -32.3080 C   0  0  0  0  0  0  0  0  0  0  0  0
   -1.5140   21.9020  -31.3230 C   0  0  0  0  0  0  0  0  0  0  0  0
   -2.8580   21.9390  -30.9300 C   0  0  0  0  0  0  0  0  0  0  0  0
   -3.3780   23.1170  -29.7290 S   0  0  0  0  0  0  0  0  0  0  0  0
   -4.7330   22.7740  -29.1770 O   0  0  0  0  0  0  0  0  0  0  0  0
   -3.4970   24.4380  -30.4360 O   0  0  0  0  0  0  0  0  0  0  0  0
   -2.2060   23.2420  -28.4000 C   0  0  0  0  0  0  0  0  0  0  0  0
   -1.6620   24.5130  -28.1400 C   0  0  0  0  0  0  0  0  0  0  0  0
   -0.7220   24.7010  -27.1290 C   0  0  0  0  0  0  0  0  0  0  0  0
   -0.2960   23.6210  -26.3570 C   0  0  0  0  0  0  0  0  0  0  0  0
    0.8930   23.8770  -25.0820 S   0  0  0  0  0  0  0  0  0  0  0  0
    2.2670   23.8660  -25.6940 O   0  0  0  0  0  0  0  0  0  0  0  0
    0.8130   22.7650  -24.0710 O   0  0  0  0  0  0  0  0  0  0  0  0
    0.5970   25.4130  -24.3020 N   0  0  0  0  0  0  0  0  0  0  0  0
    1.4350   26.4860  -24.9050 C   0  0  0  0  0  0  0  0  0  0  0  0
    0.6130   27.6470  -25.4860 C   0  0  0  0  0  0  0  0  0  0  0  0
   -0.3240   28.1720  -24.4760 N   0  0  0  0  0  0  0  0  0  0  0  0
   -1.1750   29.2150  -25.0690 C   0  0  0  0  0  0  0  0  0  0  0  0
   -1.1380   27.1210  -23.8100 C   0  0  0  0  0  0  0  0  0  0  0  0
   -0.8510   25.7040  -24.3320 C   0  0  0  0  0  0  0  0  0  0  0  0
   -0.8320   22.3510  -26.5920 C   0  0  0  0  0  0  0  0  0  0  0  0
   -1.7930   22.1390  -27.5970 C   0  0  0  0  0  0  0  0  0  0  0  0
   -2.3810   20.4720  -27.7990 S   0  0  0  0  0  0  0  0  0  0  0  0
   -3.4630   20.4130  -28.8380 O   0  0  0  0  0  0  0  0  0  0  0  0
   -2.9710   20.0010  -26.5000 O   0  0  0  0  0  0  0  0  0  0  0  0
   -1.0730   19.3730  -28.2300 C   0  0  0  0  0  0  0  0  0  0  0  0
   -0.7650   18.2950  -27.3870 C   0  0  0  0  0  0  0  0  0  0  0  0
    0.2880   17.4310  -27.7050 C   0  0  0  0  0  0  0  0  0  0  0  0
    1.0440   17.6450  -28.8620 C   0  0  0  0  0  0  0  0  0  0  0  0
    0.7510   18.7260  -29.6970 C   0  0  0  0  0  0  0  0  0  0  0  0
   -0.3010   19.5930  -29.3830 C   0  0  0  0  0  0  0  0  0  0  0  0
   -3.7810   21.0770  -31.5370 C   0  0  0  0  0  0  0  0  0  0  0  0
   -7.1220   20.6750  -31.8510 S   0  0  0  0  0  0  0  0  0  0  0  0
   -9.9581   21.7144  -30.5260 H   0  0  0  0  0  0  0  0  0  0  0  0
   -9.4170   22.4527  -32.0716 H   0  0  0  0  0  0  0  0  0  0  0  0
  -10.7383   21.2358  -32.0716 H   0  0  0  0  0  0  0  0  0  0  0  0
   -5.0369   18.4878  -30.9856 H   0  0  0  0  0  0  0  0  0  0  0  0
   -5.6657   17.2762  -32.1613 H   0  0  0  0  0  0  0  0  0  0  0  0
   -1.6804   19.4348  -33.6828 H   0  0  0  0  0  0  0  0  0  0  0  0
   -0.0378   20.9811  -32.6143 H   0  0  0  0  0  0  0  0  0  0  0  0
   -0.7869   22.5816  -30.8544 H   0  0  0  0  0  0  0  0  0  0  0  0
   -1.9843   25.3731  -28.7453 H   0  0  0  0  0  0  0  0  0  0  0  0
   -0.3145   25.7050  -26.9392 H   0  0  0  0  0  0  0  0  0  0  0  0
    0.8770   25.2960  -23.3000 H   0  0  0  0  0  0  0  0  0  0  0  0
    2.1024   26.8859  -24.1274 H   0  0  0  0  0  0  0  0  0  0  0  0
    1.9926   26.0335  -25.7382 H   0  0  0  0  0  0  0  0  0  0  0  0
    1.2944   28.4513  -25.8004 H   0  0  0  0  0  0  0  0  0  0  0  0
    0.0375   27.2791  -26.3482 H   0  0  0  0  0  0  0  0  0  0  0  0
   -1.6514   29.7989  -24.2677 H   0  0  0  0  0  0  0  0  0  0  0  0
   -0.5591   29.8808  -25.6914 H   0  0  0  0  0  0  0  0  0  0  0  0
   -1.9509   28.7452  -25.6914 H   0  0  0  0  0  0  0  0  0  0  0  0
   -0.9236   27.1453  -22.7314 H   0  0  0  0  0  0  0  0  0  0  0  0
   -2.1934   27.3402  -24.0293 H   0  0  0  0  0  0  0  0  0  0  0  0
   -1.3780   24.9740  -23.7000 H   0  0  0  0  0  0  0  0  0  0  0  0
   -1.2011   25.6358  -25.3726 H   0  0  0  0  0  0  0  0  0  0  0  0
   -0.4957   21.5016  -25.9793 H   0  0  0  0  0  0  0  0  0  0  0  0
   -1.3536   18.1285  -26.4727 H   0  0  0  0  0  0  0  0  0  0  0  0
    0.5216   16.5828  -27.0447 H   0  0  0  0  0  0  0  0  0  0  0  0
    1.8689   16.9625  -29.1144 H   0  0  0  0  0  0  0  0  0  0  0  0
    1.3494   18.8960  -30.6042 H   0  0  0  0  0  0  0  0  0  0  0  0
   -0.5238   20.4473  -30.0391 H   0  0  0  0  0  0  0  0  0  0  0  0
   -4.8411   21.1171  -31.2463 H   0  0  0  0  0  0  0  0  0  0  0  0
  1  2  1  0
  2  3  2  0
  3  4  1  0
  4  5  2  0
  5  6  1  0
  6  7  1  0
  7  8  2  0
  7  9  2  0
  7 10  1  0
 10 11  2  0
 11 12  1  0
 12 13  2  0
 13 14  1  0
 14 15  1  0
 15 16  2  0
 15 17  2  0
 15 18  1  0
 18 19  2  0
 19 20  1  0
 20 21  2  0
 21 22  1  0
 22 23  2  0
 22 24  2  0
 22 25  1  0
 25 26  1  0
 26 27  1  0
 27 28  1  0
 28 29  1  0
 28 30  1  0
 30 31  1  0
 21 32  1  0
 32 33  2  0
 33 34  1  0
 34 35  2  0
 34 36  2  0
 34 37  1  0
 37 38  2  0
 38 39  1  0
 39 40  2  0
 40 41  1  0
 41 42  2  0
 14 43  2  0
  5 44  1  0
 44  2  1  0
 43 10  1  0
 33 18  1  0
 42 37  1  0
 31 25  1  0
  1 45  1  0
  1 46  1  0
  1 47  1  0
  6 48  1  0
  6 49  1  0
 11 50  1  0
 12 51  1  0
 13 52  1  0
 19 53  1  0
 20 54  1  0
 25 55  1  0
 26 56  1  0
 26 57  1  0
 27 58  1  0
 27 59  1  0
 29 60  1  0
 29 61  1  0
 29 62  1  0
 30 63  1  0
 30 64  1  0
 31 65  1  0
 31 66  1  0
 32 67  1  0
 38 68  1  0
 39 69  1  0
 40 70  1  0
 41 71  1  0
 42 72  1  0
 43 73  1  0
M  CHG  1  25   1
M  END
>  <UniqueID>  (6) 
6

>  <SMILES>  (6) 
Cc1nnc(CS(=O)(=O)c2cccc(S(=O)(=O)c3ccc(S(=O)(=O)[NH+]4CCN(C)CC4)cc3S(=O)(=O)c3ccccc3)c2)s1

>  <Energy>  (6) 
119.42263134599703

>  <Genealogy>  (6) 
Cc1nnc(CS(=O)(=O)c2cccc(S(=O)(=O)c3ccc(S(=O)(=O)[NH+]4CCN(C)CC4)cc3S(=O)(=O)c3ccccc3)c2)s1 (protonated)
Cc1nnc(CS(=O)(=O)c2cccc(S(=O)(=O)c3ccc(S(=O)(=O)[NH+]4CCN(C)CC4)cc3S(=O)(=O)c3ccccc3)c2)s1 (3D coordinates assigned)
Cc1nnc(CS(=O)(=O)c2cccc(S(=O)(=O)c3ccc(S(=O)(=O)[NH+]4CCN(C)CC4)cc3S(=O)(=O)c3ccccc3)c2)s1 (nonaromatic ring conformer: 119.42263134599703 kcal/mol)

>  <smiles>  (6) 
Cc1nnc(CS(=O)(=O)c2cccc(S(=O)(=O)c3ccc(S(=O)(=O)N4CCN(C)CC4)cc3S(=O)(=O)c3ccccc3)c2)s1

>  <score_type>  (6) 
oracle

>  <origin>  (6) 
adgpu

>  <m_score__min__energy>  (6) 
-12.609999999999999

>  <m_primary>  (6) 
energy

$$$$
6:0
     RDKit          3D

 44 46  0  0  0  0  0  0  0  0999 V2000
   -5.3320   22.5360  -30.1830 C   0  0  0  0  0  0  0  0  0  0  0  0
   -3.8340   22.4260  -30.0760 C   0  0  0  0  0  0  0  0  0  0  0  0
   -3.1310   23.4180  -29.3730 C   0  0  0  0  0  0  0  0  0  0  0  0
   -1.7420   23.3330  -29.2150 C   0  0  0  0  0  0  0  0  0  0  0  0
   -0.8790   24.5740  -28.3110 S   0  0  0  0  0  0  0  0  0  0  0  0
   -1.2380   26.1270  -28.9750 N   0  0  0  0  0  0  0  0  0  0  0  0
   -1.2960   24.5390  -26.8680 O   0  0  0  0  0  0  0  0  0  0  0  0
    0.6010   24.3220  -28.3910 O   0  0  0  0  0  0  0  0  0  0  0  0
   -1.0500   22.2420  -29.7500 C   0  0  0  0  0  0  0  0  0  0  0  0
   -1.7360   21.2590  -30.4660 C   0  0  0  0  0  0  0  0  0  0  0  0
   -3.1190   21.3570  -30.6660 C   0  0  0  0  0  0  0  0  0  0  0  0
   -3.7770   20.3460  -31.4420 N   0  0  0  0  0  0  0  0  0  0  0  0
   -3.6290   20.2560  -32.8660 C   0  0  0  0  0  0  0  0  0  0  0  0
   -2.9180   21.0900  -33.4890 O   0  0  0  0  0  0  0  0  0  0  0  0
   -4.2620   19.1240  -33.6190 C   0  0  0  0  0  0  0  0  0  0  0  0
   -5.6320   19.5100  -34.1970 C   0  0  0  0  0  0  0  0  0  0  0  0
   -6.7160   19.3310  -33.2000 N   0  0  0  0  0  0  0  0  0  0  0  0
   -7.0970   18.0440  -32.8850 C   0  0  0  0  0  0  0  0  0  0  0  0
   -6.5400   17.0520  -33.4340 O   0  0  0  0  0  0  0  0  0  0  0  0
   -8.1050   17.7990  -31.9520 C   0  0  0  0  0  0  0  0  0  0  0  0
   -8.7330   18.8580  -31.3160 C   0  0  0  0  0  0  0  0  0  0  0  0
   -8.3490   20.1610  -31.6070 C   0  0  0  0  0  0  0  0  0  0  0  0
   -8.9580   21.1940  -30.9630 N   0  0  0  0  0  0  0  0  0  0  0  0
   -8.6180   22.4860  -31.1960 C   0  0  0  0  0  0  0  0  0  0  0  0
   -7.6170   22.7860  -32.1150 C   0  0  0  0  0  0  0  0  0  0  0  0
   -6.9730   21.7530  -32.7960 C   0  0  0  0  0  0  0  0  0  0  0  0
   -7.3260   20.4020  -32.5600 C   0  0  0  0  0  0  0  0  0  0  0  0
   -5.7702   22.5682  -29.1746 H   0  0  0  0  0  0  0  0  0  0  0  0
   -5.5942   23.4558  -30.7263 H   0  0  0  0  0  0  0  0  0  0  0  0
   -5.7258   21.6644  -30.7263 H   0  0  0  0  0  0  0  0  0  0  0  0
   -3.6768   24.2703  -28.9421 H   0  0  0  0  0  0  0  0  0  0  0  0
   -1.1810   26.0350  -30.0150 H   0  0  0  0  0  0  0  0  0  0  0  0
    0.0374   22.1580  -29.6064 H   0  0  0  0  0  0  0  0  0  0  0  0
   -1.1854   20.3998  -30.8768 H   0  0  0  0  0  0  0  0  0  0  0  0
   -4.1820   19.5260  -30.9370 H   0  0  0  0  0  0  0  0  0  0  0  0
   -3.5975   18.8322  -34.4457 H   0  0  0  0  0  0  0  0  0  0  0  0
   -4.4129   18.2916  -32.9160 H   0  0  0  0  0  0  0  0  0  0  0  0
   -5.6038   20.5647  -34.5080 H   0  0  0  0  0  0  0  0  0  0  0  0
   -5.8411   18.8529  -35.0540 H   0  0  0  0  0  0  0  0  0  0  0  0
   -8.4013   16.7651  -31.7212 H   0  0  0  0  0  0  0  0  0  0  0  0
   -9.5319   18.6678  -30.5841 H   0  0  0  0  0  0  0  0  0  0  0  0
   -9.1330   23.2962  -30.6590 H   0  0  0  0  0  0  0  0  0  0  0  0
   -7.3351   23.8324  -32.3034 H   0  0  0  0  0  0  0  0  0  0  0  0
   -6.1829   21.9901  -33.5237 H   0  0  0  0  0  0  0  0  0  0  0  0
  1  2  1  0
  2  3  2  0
  3  4  1  0
  4  5  1  0
  5  6  1  0
  5  7  2  0
  5  8  2  0
  4  9  2  0
  9 10  1  0
 10 11  2  0
 11 12  1  0
 12 13  1  0
 13 14  2  0
 13 15  1  0
 15 16  1  0
 16 17  1  0
 17 18  1  0
 18 19  2  0
 18 20  1  0
 20 21  2  0
 21 22  1  0
 22 23  2  0
 23 24  1  0
 24 25  2  0
 25 26  1  0
 26 27  2  0
 11  2  1  0
 27 17  1  0
 27 22  1  0
  1 28  1  0
  1 29  1  0
  1 30  1  0
  3 31  1  0
  6 32  1  0
  9 33  1  0
 10 34  1  0
 12 35  1  0
 15 36  1  0
 15 37  1  0
 16 38  1  0
 16 39  1  0
 20 40  1  0
 21 41  1  0
 24 42  1  0
 25 43  1  0
 26 44  1  0
M  CHG  1   6  -1
M  END
>  <UniqueID>  (7) 
7

>  <SMILES>  (7) 
Cc1cc(S([NH-])(=O)=O)ccc1NC(=O)CCn1c(=O)ccc2ncccc21

>  <Energy>  (7) 
58.00799544512625

>  <Genealogy>  (7) 
Cc1cc(S([NH-])(=O)=O)ccc1NC(=O)CCn1c(=O)ccc2ncccc21 (protonated)
Cc1cc(S([NH-])(=O)=O)ccc1NC(=O)CCn1c(=O)ccc2ncccc21 (3D coordinates assigned)
Cc1cc(S([NH-])(=O)=O)ccc1NC(=O)CCn1c(=O)ccc2ncccc21 (optimized conformer: 58.00799544512625 kcal/mol)

>  <smiles>  (7) 
Cc1cc(S(N)(=O)=O)ccc1NC(=O)CCn1c(=O)ccc2ncccc21

>  <score_type>  (7) 
oracle

>  <origin>  (7) 
adgpu

>  <m_score__min__energy>  (7) 
-10.76

>  <m_primary>  (7) 
energy

$$$$
7:0
     RDKit          3D

 50 53  0  0  0  0  0  0  0  0999 V2000
   -6.7920   17.2990  -32.8450 C   0  0  0  0  0  0  0  0  0  0  0  0
   -6.7310   18.6740  -33.4370 C   0  0  0  0  0  0  0  0  0  0  0  0
   -6.0890   18.8430  -34.5090 O   0  0  0  0  0  0  0  0  0  0  0  0
   -7.3260   19.7960  -32.7540 N   0  0  0  0  0  0  0  0  0  0  0  0
   -8.7060   19.8090  -32.2490 C   0  0  0  0  0  0  0  0  0  0  0  0
   -8.8460   21.0920  -31.3980 C   0  0  0  0  0  0  0  0  0  0  0  0
   -7.5120   21.7360  -31.5220 C   0  0  0  0  0  0  0  0  0  0  0  0
   -7.0950   22.9440  -30.9640 C   0  0  0  0  0  0  0  0  0  0  0  0
   -5.7890   23.3940  -31.2200 C   0  0  0  0  0  0  0  0  0  0  0  0
   -5.2290   24.8900  -30.4830 S   0  0  0  0  0  0  0  0  0  0  0  0
   -5.7600   26.0890  -31.2180 O   0  0  0  0  0  0  0  0  0  0  0  0
   -5.7160   24.9420  -29.0610 O   0  0  0  0  0  0  0  0  0  0  0  0
   -3.4970   24.9250  -30.4920 N   0  0  0  0  0  0  0  0  0  0  0  0
   -2.6460   24.0680  -29.7160 C   0  0  0  0  0  0  0  0  0  0  0  0
   -2.7690   22.6660  -29.7550 C   0  0  0  0  0  0  0  0  0  0  0  0
   -1.9480   21.8500  -28.9630 C   0  0  0  0  0  0  0  0  0  0  0  0
   -0.9470   22.4400  -28.1630 C   0  0  0  0  0  0  0  0  0  0  0  0
   -0.8230   23.8360  -28.1260 C   0  0  0  0  0  0  0  0  0  0  0  0
   -1.6690   24.6470  -28.8950 C   0  0  0  0  0  0  0  0  0  0  0  0
   -1.5500   26.0370  -28.8360 O   0  0  0  0  0  0  0  0  0  0  0  0
   -0.0610   21.6020  -27.2770 C   0  0  0  0  0  0  0  0  0  0  0  0
   -0.1370   20.1050  -27.6170 C   0  0  0  0  0  0  0  0  0  0  0  0
   -1.5180   19.6490  -27.8760 N   0  0  0  0  0  0  0  0  0  0  0  0
   -2.3780   19.7310  -26.6810 C   0  0  0  0  0  0  0  0  0  0  0  0
   -2.1060   20.3490  -29.0350 C   0  0  0  0  0  0  0  0  0  0  0  0
   -4.9350   22.6290  -32.0410 C   0  0  0  0  0  0  0  0  0  0  0  0
   -5.3750   21.4140  -32.5900 C   0  0  0  0  0  0  0  0  0  0  0  0
   -6.6750   20.9770  -32.2980 C   0  0  0  0  0  0  0  0  0  0  0  0
   -6.7888   17.3719  -31.7474 H   0  0  0  0  0  0  0  0  0  0  0  0
   -7.7133   16.7976  -33.1765 H   0  0  0  0  0  0  0  0  0  0  0  0
   -5.9187   16.7180  -33.1765 H   0  0  0  0  0  0  0  0  0  0  0  0
   -9.4179   19.8287  -33.0873 H   0  0  0  0  0  0  0  0  0  0  0  0
   -8.9218   18.9095  -31.6537 H   0  0  0  0  0  0  0  0  0  0  0  0
   -9.6365   21.7445  -31.7971 H   0  0  0  0  0  0  0  0  0  0  0  0
   -9.1279   20.8863  -30.3548 H   0  0  0  0  0  0  0  0  0  0  0  0
   -7.7768   23.5344  -30.3343 H   0  0  0  0  0  0  0  0  0  0  0  0
   -3.5185   22.2048  -30.4150 H   0  0  0  0  0  0  0  0  0  0  0  0
   -0.0555   24.2987  -27.4882 H   0  0  0  0  0  0  0  0  0  0  0  0
   -2.3530   26.6440  -28.9570 H   0  0  0  0  0  0  0  0  0  0  0  0
    0.9791   21.9390  -27.3979 H   0  0  0  0  0  0  0  0  0  0  0  0
   -0.4086   21.7279  -26.2410 H   0  0  0  0  0  0  0  0  0  0  0  0
    0.4701   19.9167  -28.5148 H   0  0  0  0  0  0  0  0  0  0  0  0
    0.2397   19.5470  -26.7471 H   0  0  0  0  0  0  0  0  0  0  0  0
   -1.7552   19.6716  -25.7763 H   0  0  0  0  0  0  0  0  0  0  0  0
   -2.9249   20.6854  -26.6876 H   0  0  0  0  0  0  0  0  0  0  0  0
   -3.0954   18.8972  -26.6876 H   0  0  0  0  0  0  0  0  0  0  0  0
   -1.6121   19.9884  -29.9493 H   0  0  0  0  0  0  0  0  0  0  0  0
   -3.1844   20.1322  -29.0368 H   0  0  0  0  0  0  0  0  0  0  0  0
   -3.9166   22.9868  -32.2529 H   0  0  0  0  0  0  0  0  0  0  0  0
   -4.7138   20.8174  -33.2357 H   0  0  0  0  0  0  0  0  0  0  0  0
  1  2  1  0
  2  3  2  0
  2  4  1  0
  4  5  1  0
  5  6  1  0
  6  7  1  0
  7  8  2  0
  8  9  1  0
  9 10  1  0
 10 11  2  0
 10 12  2  0
 10 13  1  0
 13 14  1  0
 14 15  2  0
 15 16  1  0
 16 17  2  0
 17 18  1  0
 18 19  2  0
 19 20  1  0
 17 21  1  0
 21 22  1  0
 22 23  1  0
 23 24  1  0
 23 25  1  0
  9 26  2  0
 26 27  1  0
 27 28  2  0
 28  4  1  0
 28  7  1  0
 19 14  1  0
 25 16  1  0
  1 29  1  0
  1 30  1  0
  1 31  1  0
  5 32  1  0
  5 33  1  0
  6 34  1  0
  6 35  1  0
  8 36  1  0
 15 37  1  0
 18 38  1  0
 20 39  1  0
 21 40  1  0
 21 41  1  0
 22 42  1  0
 22 43  1  0
 24 44  1  0
 24 45  1  0
 24 46  1  0
 25 47  1  0
 25 48  1  0
 26 49  1  0
 27 50  1  0
M  CHG  1  13  -1
M  END
>  <UniqueID>  (8) 
8

>  <SMILES>  (8) 
CC(=O)N1CCc2cc(S(=O)(=O)[N-]c3cc4c(cc3O)CCN(C)C4)ccc21

>  <Energy>  (8) 
75.45323598696937

>  <Genealogy>  (8) 
CC(=O)N1CCc2cc(S(=O)(=O)[N-]c3cc4c(cc3O)CCN(C)C4)ccc21 (protonated)
CC(=O)N1CCc2cc(S(=O)(=O)[N-]c3cc4c(cc3O)CCN(C)C4)ccc21 (3D coordinates assigned)
CC(=O)N1CCc2cc(S(=O)(=O)[N-]c3cc4c(cc3O)CCN(C)C4)ccc21 (nonaromatic ring conformer: 75.45323598696937 kcal/mol)

>  <smiles>  (8) 
CC(=O)N1CCc2cc(S(=O)(=O)Nc3cc4c(cc3O)CCN(C)C4)ccc21

>  <score_type>  (8) 
oracle

>  <origin>  (8) 
adgpu

>  <m_score__min__energy>  (8) 
-13.029999999999999

>  <m_primary>  (8) 
energy

$$$$
8:0
     RDKit          3D

 58 61  0  0  0  0  0  0  0  0999 V2000
   -2.7580   18.8360  -34.2270 C   0  0  0  0  0  0  0  0  0  0  0  0
   -4.1480   19.1690  -33.7560 C   0  0  0  0  0  0  0  0  0  0  0  0
   -5.2110   18.3060  -34.0580 C   0  0  0  0  0  0  0  0  0  0  0  0
   -6.5100   18.6040  -33.6360 C   0  0  0  0  0  0  0  0  0  0  0  0
   -6.7650   19.7680  -32.8850 C   0  0  0  0  0  0  0  0  0  0  0  0
   -8.0510   20.1130  -32.4110 C   0  0  0  0  0  0  0  0  0  0  0  0
   -9.2670   19.2860  -32.7100 C   0  0  0  0  0  0  0  0  0  0  0  0
   -8.2050   21.2390  -31.6640 N   0  0  0  0  0  0  0  0  0  0  0  0
   -7.1540   22.0530  -31.3790 C   0  0  0  0  0  0  0  0  0  0  0  0
   -7.4140   23.5260  -30.3930 S   0  0  0  0  0  0  0  0  0  0  0  0
   -6.1190   24.5060  -31.2330 C   0  0  0  0  0  0  0  0  0  0  0  0
   -4.7680   24.2700  -30.6240 C   0  0  0  0  0  0  0  0  0  0  0  0
   -3.8490   25.1140  -30.8150 O   0  0  0  0  0  0  0  0  0  0  0  0
   -4.5270   23.0840  -29.8480 N   0  0  0  0  0  0  0  0  0  0  0  0
   -3.3210   22.8310  -29.1040 C   0  0  0  0  0  0  0  0  0  0  0  0
   -3.0580   21.5320  -28.6460 C   0  0  0  0  0  0  0  0  0  0  0  0
   -1.9020   21.2620  -27.9070 C   0  0  0  0  0  0  0  0  0  0  0  0
   -1.0050   22.2900  -27.6100 C   0  0  0  0  0  0  0  0  0  0  0  0
   -1.2640   23.5960  -28.0390 C   0  0  0  0  0  0  0  0  0  0  0  0
   -0.1310   24.8850  -27.6360 S   0  0  0  0  0  0  0  0  0  0  0  0
   -0.5820   26.1890  -28.2410 O   0  0  0  0  0  0  0  0  0  0  0  0
    1.2160   24.5310  -28.2010 O   0  0  0  0  0  0  0  0  0  0  0  0
   -0.0260   25.0460  -25.8980 N   0  0  0  0  0  0  0  0  0  0  0  0
   -1.3750   25.0310  -25.2770 C   0  0  0  0  0  0  0  0  0  0  0  0
   -1.8510   26.4230  -24.8270 C   0  0  0  0  0  0  0  0  0  0  0  0
   -0.8620   27.0530  -23.8290 C   0  0  0  0  0  0  0  0  0  0  0  0
    0.5980   26.6400  -24.0960 C   0  0  0  0  0  0  0  0  0  0  0  0
    0.7970   26.2280  -25.5570 C   0  0  0  0  0  0  0  0  0  0  0  0
   -2.4280   23.8690  -28.7740 C   0  0  0  0  0  0  0  0  0  0  0  0
   -5.9160   21.7520  -31.8360 N   0  0  0  0  0  0  0  0  0  0  0  0
   -5.6920   20.6330  -32.5750 C   0  0  0  0  0  0  0  0  0  0  0  0
   -4.3960   20.3350  -33.0150 C   0  0  0  0  0  0  0  0  0  0  0  0
   -2.1037   18.6792  -33.3568 H   0  0  0  0  0  0  0  0  0  0  0  0
   -2.7864   17.9192  -34.8343 H   0  0  0  0  0  0  0  0  0  0  0  0
   -2.3679   19.6661  -34.8343 H   0  0  0  0  0  0  0  0  0  0  0  0
   -5.0212   17.3869  -34.6317 H   0  0  0  0  0  0  0  0  0  0  0  0
   -7.3374   17.9258  -33.8918 H   0  0  0  0  0  0  0  0  0  0  0  0
   -9.7350   18.9677  -31.7668 H   0  0  0  0  0  0  0  0  0  0  0  0
   -9.9838   19.8847  -33.2912 H   0  0  0  0  0  0  0  0  0  0  0  0
   -8.9736   18.3994  -33.2912 H   0  0  0  0  0  0  0  0  0  0  0  0
   -6.0871   24.2204  -32.2948 H   0  0  0  0  0  0  0  0  0  0  0  0
   -6.3662   25.5720  -31.1211 H   0  0  0  0  0  0  0  0  0  0  0  0
   -5.2290   22.3120  -29.9090 H   0  0  0  0  0  0  0  0  0  0  0  0
   -3.7657   20.7201  -28.8695 H   0  0  0  0  0  0  0  0  0  0  0  0
   -1.6990   20.2384  -27.5592 H   0  0  0  0  0  0  0  0  0  0  0  0
   -0.0917   22.0722  -27.0368 H   0  0  0  0  0  0  0  0  0  0  0  0
   -2.0932   24.6363  -26.0108 H   0  0  0  0  0  0  0  0  0  0  0  0
   -1.3138   24.4002  -24.3779 H   0  0  0  0  0  0  0  0  0  0  0  0
   -1.9361   27.0756  -25.7084 H   0  0  0  0  0  0  0  0  0  0  0  0
   -2.8262   26.3142  -24.3299 H   0  0  0  0  0  0  0  0  0  0  0  0
   -0.9370   28.1479  -23.9033 H   0  0  0  0  0  0  0  0  0  0  0  0
   -1.1301   26.6935  -22.8246 H   0  0  0  0  0  0  0  0  0  0  0  0
    1.2587   27.4898  -23.8694 H   0  0  0  0  0  0  0  0  0  0  0  0
    0.8401   25.7796  -23.4548 H   0  0  0  0  0  0  0  0  0  0  0  0
    0.5082   27.0660  -26.2084 H   0  0  0  0  0  0  0  0  0  0  0  0
    1.8558   25.9686  -25.7040 H   0  0  0  0  0  0  0  0  0  0  0  0
   -2.6440   24.8990  -29.0940 H   0  0  0  0  0  0  0  0  0  0  0  0
   -3.5676   21.0189  -32.7784 H   0  0  0  0  0  0  0  0  0  0  0  0
  1  2  1  0
  2  3  2  0
  3  4  1  0
  4  5  2  0
  5  6  1  0
  6  7  1  0
  6  8  2  0
  8  9  1  0
  9 10  1  0
 10 11  1  0
 11 12  1  0
 12 13  2  0
 12 14  1  0
 14 15  1  0
 15 16  2  0
 16 17  1  0
 17 18  2  0
 18 19  1  0
 19 20  1  0
 20 21  2  0
 20 22  2  0
 20 23  1  0
 23 24  1  0
 24 25  1  0
 25 26  1  0
 26 27  1  0
 27 28  1  0
 19 29  2  0
  9 30  2  0
 30 31  1  0
 31 32  2  0
 32  2  1  0
 31  5  1  0
 29 15  1  0
 28 23  1  0
  1 33  1  0
  1 34  1  0
  1 35  1  0
  3 36  1  0
  4 37  1  0
  7 38  1  0
  7 39  1  0
  7 40  1  0
 11 41  1  0
 11 42  1  0
 14 43  1  0
 16 44  1  0
 17 45  1  0
 18 46  1  0
 24 47  1  0
 24 48  1  0
 25 49  1  0
 25 50  1  0
 26 51  1  0
 26 52  1  0
 27 53  1  0
 27 54  1  0
 28 55  1  0
 28 56  1  0
 29 57  1  0
 32 58  1  0
M  END
>  <UniqueID>  (9) 
9

>  <SMILES>  (9) 
Cc1ccc2c(C)nc(SCC(=O)Nc3cccc(S(=O)(=O)N4CCCCC4)c3)nc2c1

>  <Energy>  (9) 
67.6845590269795

>  <Genealogy>  (9) 
Cc1ccc2c(C)nc(SCC(=O)Nc3cccc(S(=O)(=O)N4CCCCC4)c3)nc2c1 (3D coordinates assigned)
Cc1ccc2c(C)nc(SCC(=O)Nc3cccc(S(=O)(=O)N4CCCCC4)c3)nc2c1 (nonaromatic ring conformer: 67.6845590269795 kcal/mol)

>  <smiles>  (9) 
Cc1ccc2c(C)nc(SCC(=O)Nc3cccc(S(=O)(=O)N4CCCCC4)c3)nc2c1

>  <score_type>  (9) 
oracle

>  <origin>  (9) 
adgpu

>  <m_score__min__energy>  (9) 
-11.720000000000001

>  <m_primary>  (9) 
energy

$$$$
9:0
     RDKit          3D

 47 50  0  0  0  0  0  0  0  0999 V2000
   -3.4870   25.2970  -30.4480 O   0  0  0  0  0  0  0  0  0  0  0  0
   -4.7320   25.2790  -30.6400 C   0  0  0  0  0  0  0  0  0  0  0  0
   -5.4910   26.3760  -30.2470 O   0  0  0  0  0  0  0  0  0  0  0  0
   -5.3790   24.1090  -31.2730 C   0  0  0  0  0  0  0  0  0  0  0  0
   -6.7660   24.1270  -31.5770 C   0  0  0  0  0  0  0  0  0  0  0  0
   -7.3870   23.0180  -32.1770 C   0  0  0  0  0  0  0  0  0  0  0  0
   -6.6030   21.9070  -32.4700 C   0  0  0  0  0  0  0  0  0  0  0  0
   -5.2580   21.8780  -32.1790 C   0  0  0  0  0  0  0  0  0  0  0  0
   -4.6150   22.9590  -31.5810 C   0  0  0  0  0  0  0  0  0  0  0  0
   -4.7430   20.5780  -32.5940 C   0  0  0  0  0  0  0  0  0  0  0  0
   -3.5470   20.1950  -32.4870 O   0  0  0  0  0  0  0  0  0  0  0  0
   -5.7930   19.7960  -33.1710 N   0  0  0  0  0  0  0  0  0  0  0  0
   -5.7510   18.4000  -33.5130 C   0  0  0  0  0  0  0  0  0  0  0  0
   -4.6040   17.8630  -34.1170 C   0  0  0  0  0  0  0  0  0  0  0  0
   -4.5490   16.5070  -34.4620 C   0  0  0  0  0  0  0  0  0  0  0  0
   -3.1030   15.8490  -35.2230 S   0  0  0  0  0  0  0  0  0  0  0  0
   -2.0540   16.9220  -35.3330 O   0  0  0  0  0  0  0  0  0  0  0  0
   -3.4620   15.3630  -36.5990 O   0  0  0  0  0  0  0  0  0  0  0  0
   -2.4810   14.5250  -34.2680 N   0  0  0  0  0  0  0  0  0  0  0  0
   -3.2150   13.2660  -34.5540 C   0  0  0  0  0  0  0  0  0  0  0  0
   -4.2280   12.8980  -33.4600 C   0  0  0  0  0  0  0  0  0  0  0  0
   -3.5390   12.7470  -32.0940 C   0  0  0  0  0  0  0  0  0  0  0  0
   -2.3240   13.6780  -31.9340 C   0  0  0  0  0  0  0  0  0  0  0  0
   -2.4480   14.9080  -32.8390 C   0  0  0  0  0  0  0  0  0  0  0  0
   -5.6430   15.6780  -34.1880 C   0  0  0  0  0  0  0  0  0  0  0  0
   -6.7890   16.2040  -33.5890 C   0  0  0  0  0  0  0  0  0  0  0  0
   -6.8530   17.5650  -33.2560 C   0  0  0  0  0  0  0  0  0  0  0  0
   -8.0160   18.0900  -32.6930 O   0  0  0  0  0  0  0  0  0  0  0  0
   -6.9560   20.6250  -33.0700 C   0  0  0  0  0  0  0  0  0  0  0  0
   -8.1190   20.2650  -33.3920 O   0  0  0  0  0  0  0  0  0  0  0  0
   -7.3622   25.0205  -31.3398 H   0  0  0  0  0  0  0  0  0  0  0  0
   -8.4624   23.0284  -32.4083 H   0  0  0  0  0  0  0  0  0  0  0  0
   -3.5395   22.9195  -31.3538 H   0  0  0  0  0  0  0  0  0  0  0  0
   -3.7404   18.5130  -34.3213 H   0  0  0  0  0  0  0  0  0  0  0  0
   -3.7544   13.3835  -35.5055 H   0  0  0  0  0  0  0  0  0  0  0  0
   -2.4721   12.4560  -34.5993 H   0  0  0  0  0  0  0  0  0  0  0  0
   -4.9879   13.6905  -33.3931 H   0  0  0  0  0  0  0  0  0  0  0  0
   -4.6930   11.9368  -33.7243 H   0  0  0  0  0  0  0  0  0  0  0  0
   -4.2682   12.9816  -31.3045 H   0  0  0  0  0  0  0  0  0  0  0  0
   -3.1756   11.7115  -32.0185 H   0  0  0  0  0  0  0  0  0  0  0  0
   -2.2597   14.0078  -30.8866 H   0  0  0  0  0  0  0  0  0  0  0  0
   -1.4187   13.1231  -32.2212 H   0  0  0  0  0  0  0  0  0  0  0  0
   -3.3762   15.4433  -32.5903 H   0  0  0  0  0  0  0  0  0  0  0  0
   -1.5707   15.5504  -32.6726 H   0  0  0  0  0  0  0  0  0  0  0  0
   -5.5996   14.6094  -34.4453 H   0  0  0  0  0  0  0  0  0  0  0  0
   -7.6461   15.5479  -33.3771 H   0  0  0  0  0  0  0  0  0  0  0  0
   -8.6270   18.7080  -33.2140 H   0  0  0  0  0  0  0  0  0  0  0  0
  1  2  2  0
  2  3  1  0
  2  4  1  0
  4  5  2  0
  5  6  1  0
  6  7  2  0
  7  8  1  0
  8  9  2  0
  8 10  1  0
 10 11  2  0
 10 12  1  0
 12 13  1  0
 13 14  2  0
 14 15  1  0
 15 16  1  0
 16 17  2  0
 16 18  2  0
 16 19  1  0
 19 20  1  0
 20 21  1  0
 21 22  1  0
 22 23  1  0
 23 24  1  0
 15 25  2  0
 25 26  1  0
 26 27  2  0
 27 28  1  0
 12 29  1  0
 29 30  2  0
  9  4  1  0
 27 13  1  0
 29  7  1  0
 24 19  1  0
  5 31  1  0
  6 32  1  0
  9 33  1  0
 14 34  1  0
 20 35  1  0
 20 36  1  0
 21 37  1  0
 21 38  1  0
 22 39  1  0
 22 40  1  0
 23 41  1  0
 23 42  1  0
 24 43  1  0
 24 44  1  0
 25 45  1  0
 26 46  1  0
 28 47  1  0
M  CHG  1   3  -1
M  END
>  <UniqueID>  (10) 
10

>  <SMILES>  (10) 
O=C([O-])c1ccc2c(c1)C(=O)N(c1cc(S(=O)(=O)N3CCCCC3)ccc1O)C2=O

>  <Energy>  (10) 
93.51582846202803

>  <Genealogy>  (10) 
O=C([O-])c1ccc2c(c1)C(=O)N(c1cc(S(=O)(=O)N3CCCCC3)ccc1O)C2=O (protonated)
O=C([O-])c1ccc2c(c1)C(=O)N(c1cc(S(=O)(=O)N3CCCCC3)ccc1O)C2=O (3D coordinates assigned)
O=C([O-])c1ccc2c(c1)C(=O)N(c1cc(S(=O)(=O)N3CCCCC3)ccc1O)C2=O (nonaromatic ring conformer: 93.51582846202803 kcal/mol)

>  <smiles>  (10) 
O=C(O)c1ccc2c(c1)C(=O)N(c1cc(S(=O)(=O)N3CCCCC3)ccc1O)C2=O

>  <score_type>  (10) 
oracle

>  <origin>  (10) 
adgpu

>  <m_score__min__energy>  (10) 
-10.65

>  <m_primary>  (10) 
energy

$$$$
10:0
     RDKit          3D

 57 60  0  0  0  0  0  0  0  0999 V2000
   -4.5430   20.4770  -32.9830 O   0  0  0  0  0  0  0  0  0  0  0  0
   -5.2560   21.2680  -32.3080 C   0  0  0  0  0  0  0  0  0  0  0  0
   -4.5780   22.3120  -31.5160 C   0  0  0  0  0  0  0  0  0  0  0  0
   -5.0840   23.6180  -31.4690 C   0  0  0  0  0  0  0  0  0  0  0  0
   -4.4170   24.6020  -30.7390 C   0  0  0  0  0  0  0  0  0  0  0  0
   -3.2330   24.2980  -30.0600 C   0  0  0  0  0  0  0  0  0  0  0  0
   -2.5870   25.3010  -29.3460 O   0  0  0  0  0  0  0  0  0  0  0  0
   -2.7030   22.9930  -30.1030 C   0  0  0  0  0  0  0  0  0  0  0  0
   -1.4770   22.6960  -29.4040 N   0  0  0  0  0  0  0  0  0  0  0  0
   -0.7440   21.1220  -29.3470 S   0  0  0  0  0  0  0  0  0  0  0  0
    0.7040   21.2720  -28.9750 O   0  0  0  0  0  0  0  0  0  0  0  0
   -0.8390   20.4830  -30.7030 O   0  0  0  0  0  0  0  0  0  0  0  0
   -1.5810   20.1020  -28.1800 C   0  0  0  0  0  0  0  0  0  0  0  0
   -0.9640   18.9460  -27.6800 C   0  0  0  0  0  0  0  0  0  0  0  0
   -1.6220   18.1530  -26.7330 C   0  0  0  0  0  0  0  0  0  0  0  0
   -2.8980   18.5100  -26.2870 C   0  0  0  0  0  0  0  0  0  0  0  0
   -3.5190   19.6580  -26.7880 C   0  0  0  0  0  0  0  0  0  0  0  0
   -2.8630   20.4520  -27.7330 C   0  0  0  0  0  0  0  0  0  0  0  0
   -3.3890   22.0070  -30.8370 C   0  0  0  0  0  0  0  0  0  0  0  0
   -6.6950   21.1270  -32.3270 N   0  0  0  0  0  0  0  0  0  0  0  0
   -7.5440   21.7260  -31.2880 C   0  0  0  0  0  0  0  0  0  0  0  0
   -8.5370   20.7050  -30.7100 C   0  0  0  0  0  0  0  0  0  0  0  0
   -8.9630   19.5900  -31.6970 C   0  0  0  0  0  0  0  0  0  0  0  0
   -8.4190   18.1830  -31.3270 C   0  0  0  0  0  0  0  0  0  0  0  0
   -7.2080   17.7130  -32.1030 C   0  0  0  0  0  0  0  0  0  0  0  0
   -7.3540   16.9740  -33.2920 C   0  0  0  0  0  0  0  0  0  0  0  0
   -6.2280   16.5800  -34.0230 C   0  0  0  0  0  0  0  0  0  0  0  0
   -4.9500   16.9330  -33.5840 C   0  0  0  0  0  0  0  0  0  0  0  0
   -4.7940   17.6830  -32.4170 C   0  0  0  0  0  0  0  0  0  0  0  0
   -5.9180   18.0810  -31.6850 C   0  0  0  0  0  0  0  0  0  0  0  0
   -8.7540   19.9910  -33.1740 C   0  0  0  0  0  0  0  0  0  0  0  0
   -7.3310   20.4840  -33.4860 C   0  0  0  0  0  0  0  0  0  0  0  0
   -6.0092   23.8678  -32.0090 H   0  0  0  0  0  0  0  0  0  0  0  0
   -4.8247   25.6228  -30.6973 H   0  0  0  0  0  0  0  0  0  0  0  0
   -0.9700   23.4620  -28.9050 H   0  0  0  0  0  0  0  0  0  0  0  0
    0.0385   18.6622  -28.0327 H   0  0  0  0  0  0  0  0  0  0  0  0
   -1.1351   17.2486  -26.3395 H   0  0  0  0  0  0  0  0  0  0  0  0
   -3.4138   17.8872  -25.5413 H   0  0  0  0  0  0  0  0  0  0  0  0
   -4.5241   19.9365  -26.4384 H   0  0  0  0  0  0  0  0  0  0  0  0
   -3.3539   21.3540  -28.1271 H   0  0  0  0  0  0  0  0  0  0  0  0
   -2.9874   20.9838  -30.8787 H   0  0  0  0  0  0  0  0  0  0  0  0
   -6.9036   22.1003  -30.4757 H   0  0  0  0  0  0  0  0  0  0  0  0
   -8.1194   22.5451  -31.7441 H   0  0  0  0  0  0  0  0  0  0  0  0
   -8.0695   20.2289  -29.8355 H   0  0  0  0  0  0  0  0  0  0  0  0
   -9.4499   21.2653  -30.4596 H   0  0  0  0  0  0  0  0  0  0  0  0
  -10.0518   19.4846  -31.5814 H   0  0  0  0  0  0  0  0  0  0  0  0
   -8.1505   18.1962  -30.2604 H   0  0  0  0  0  0  0  0  0  0  0  0
   -9.2246   17.4783  -31.5807 H   0  0  0  0  0  0  0  0  0  0  0  0
   -8.3592   16.7047  -33.6485 H   0  0  0  0  0  0  0  0  0  0  0  0
   -6.3494   15.9916  -34.9444 H   0  0  0  0  0  0  0  0  0  0  0  0
   -4.0656   16.6198  -34.1583 H   0  0  0  0  0  0  0  0  0  0  0  0
   -3.7870   17.9612  -32.0728 H   0  0  0  0  0  0  0  0  0  0  0  0
   -5.7908   18.6865  -30.7755 H   0  0  0  0  0  0  0  0  0  0  0  0
   -8.9638   19.1145  -33.8047 H   0  0  0  0  0  0  0  0  0  0  0  0
   -9.4364   20.8290  -33.3789 H   0  0  0  0  0  0  0  0  0  0  0  0
   -6.7183   19.6236  -33.7932 H   0  0  0  0  0  0  0  0  0  0  0  0
   -7.4035   21.2334  -34.2879 H   0  0  0  0  0  0  0  0  0  0  0  0
  1  2  2  0
  2  3  1  0
  3  4  2  0
  4  5  1  0
  5  6  2  0
  6  7  1  0
  6  8  1  0
  8  9  1  0
  9 10  1  0
 10 11  2  0
 10 12  2  0
 10 13  1  0
 13 14  2  0
 14 15  1  0
 15 16  2  0
 16 17  1  0
 17 18  2  0
  8 19  2  0
  2 20  1  0
 20 21  1  0
 21 22  1  0
 22 23  1  0
 23 24  1  0
 24 25  1  0
 25 26  2  0
 26 27  1  0
 27 28  2  0
 28 29  1  0
 29 30  2  0
 23 31  1  0
 31 32  1  0
 19  3  1  0
 32 20  1  0
 18 13  1  0
 30 25  1  0
  4 33  1  0
  5 34  1  0
  9 35  1  0
 14 36  1  0
 15 37  1  0
 16 38  1  0
 17 39  1  0
 18 40  1  0
 19 41  1  0
 21 42  1  0
 21 43  1  0
 22 44  1  0
 22 45  1  0
 23 46  1  0
 24 47  1  0
 24 48  1  0
 26 49  1  0
 27 50  1  0
 28 51  1  0
 29 52  1  0
 30 53  1  0
 31 54  1  0
 31 55  1  0
 32 56  1  0
 32 57  1  0
M  CHG  1   7  -1
M  END
>  <UniqueID>  (11) 
11

>  <SMILES>  (11) 
O=C(c1ccc([O-])c(NS(=O)(=O)c2ccccc2)c1)N1CCC(Cc2ccccc2)CC1

>  <Energy>  (11) 
71.35209878404298

>  <Genealogy>  (11) 
O=C(c1ccc([O-])c(NS(=O)(=O)c2ccccc2)c1)N1CCC(Cc2ccccc2)CC1 (protonated)
O=C(c1ccc([O-])c(NS(=O)(=O)c2ccccc2)c1)N1CCC(Cc2ccccc2)CC1 (3D coordinates assigned)
O=C(c1ccc([O-])c(NS(=O)(=O)c2ccccc2)c1)N1CCC(Cc2ccccc2)CC1 (nonaromatic ring conformer: 71.35209878404298 kcal/mol)

>  <smiles>  (11) 
O=C(c1ccc(O)c(NS(=O)(=O)c2ccccc2)c1)N1CCC(Cc2ccccc2)CC1

>  <score_type>  (11) 
oracle

>  <origin>  (11) 
adgpu

>  <m_score__min__energy>  (11) 
-12.56

>  <m_primary>  (11) 
energy

$$$$
11:0
     RDKit          3D

 35 37  0  0  0  0  0  0  0  0999 V2000
   -6.3840   25.9850  -28.8920 C   0  0  0  0  0  0  0  0  0  0  0  0
   -6.6260   25.6450  -30.2540 O   0  0  0  0  0  0  0  0  0  0  0  0
   -6.3290   24.4010  -30.8340 C   0  0  0  0  0  0  0  0  0  0  0  0
   -7.3310   23.4540  -31.1260 C   0  0  0  0  0  0  0  0  0  0  0  0
   -7.0130   22.2030  -31.7110 C   0  0  0  0  0  0  0  0  0  0  0  0
   -5.6550   21.9300  -31.9990 C   0  0  0  0  0  0  0  0  0  0  0  0
   -4.6610   22.8740  -31.7060 C   0  0  0  0  0  0  0  0  0  0  0  0
   -4.9910   24.0990  -31.1300 C   0  0  0  0  0  0  0  0  0  0  0  0
   -3.9700   25.0100  -30.8560 O   0  0  0  0  0  0  0  0  0  0  0  0
   -5.3050   20.7100  -32.5750 C   0  0  0  0  0  0  0  0  0  0  0  0
   -6.2830   19.7600  -32.8670 C   0  0  0  0  0  0  0  0  0  0  0  0
   -5.8830   18.4640  -33.4720 C   0  0  0  0  0  0  0  0  0  0  0  0
   -6.4070   17.2550  -32.9890 C   0  0  0  0  0  0  0  0  0  0  0  0
   -6.0060   16.0480  -33.5680 C   0  0  0  0  0  0  0  0  0  0  0  0
   -5.1100   16.0460  -34.5910 N   0  0  0  0  0  0  0  0  0  0  0  0
   -4.5810   17.2000  -35.0750 C   0  0  0  0  0  0  0  0  0  0  0  0
   -4.9540   18.4290  -34.5240 C   0  0  0  0  0  0  0  0  0  0  0  0
   -7.6310   20.0590  -32.5840 C   0  0  0  0  0  0  0  0  0  0  0  0
   -8.5180   19.2140  -32.8900 O   0  0  0  0  0  0  0  0  0  0  0  0
   -7.9820   21.2600  -32.0050 N   0  0  0  0  0  0  0  0  0  0  0  0
   -9.4040   21.5340  -31.7070 C   0  0  0  0  0  0  0  0  0  0  0  0
   -6.8967   25.2647  -28.2376 H   0  0  0  0  0  0  0  0  0  0  0  0
   -5.3025   25.9556  -28.6933 H   0  0  0  0  0  0  0  0  0  0  0  0
   -6.7659   26.9973  -28.6933 H   0  0  0  0  0  0  0  0  0  0  0  0
   -8.3802   23.6904  -30.8954 H   0  0  0  0  0  0  0  0  0  0  0  0
   -3.6093   22.6452  -31.9332 H   0  0  0  0  0  0  0  0  0  0  0  0
   -3.4950   25.5260  -31.5870 H   0  0  0  0  0  0  0  0  0  0  0  0
   -4.2501   20.4951  -32.8008 H   0  0  0  0  0  0  0  0  0  0  0  0
   -7.1293   17.2574  -32.1594 H   0  0  0  0  0  0  0  0  0  0  0  0
   -6.4159   15.0976  -33.1955 H   0  0  0  0  0  0  0  0  0  0  0  0
   -3.8572   17.1669  -35.9027 H   0  0  0  0  0  0  0  0  0  0  0  0
   -4.5223   19.3633  -34.9122 H   0  0  0  0  0  0  0  0  0  0  0  0
   -9.5514   21.5624  -30.6173 H   0  0  0  0  0  0  0  0  0  0  0  0
   -9.6894   22.5036  -32.1410 H   0  0  0  0  0  0  0  0  0  0  0  0
  -10.0292   20.7398  -32.1410 H   0  0  0  0  0  0  0  0  0  0  0  0
  1  2  1  0
  2  3  1  0
  3  4  2  0
  4  5  1  0
  5  6  2  0
  6  7  1  0
  7  8  2  0
  8  9  1  0
  6 10  1  0
 10 11  2  0
 11 12  1  0
 12 13  2  0
 13 14  1  0
 14 15  2  0
 15 16  1  0
 16 17  2  0
 11 18  1  0
 18 19  2  0
 18 20  1  0
 20 21  1  0
  8  3  1  0
 17 12  1  0
 20  5  1  0
  1 22  1  0
  1 23  1  0
  1 24  1  0
  4 25  1  0
  7 26  1  0
  9 27  1  0
 10 28  1  0
 13 29  1  0
 14 30  1  0
 16 31  1  0
 17 32  1  0
 21 33  1  0
 21 34  1  0
 21 35  1  0
M  END
>  <UniqueID>  (12) 
12

>  <SMILES>  (12) 
COc1cc2c(cc1O)cc(-c1ccncc1)c(=O)n2C

>  <Energy>  (12) 
55.27316948958677

>  <Genealogy>  (12) 
COc1cc2c(cc1O)cc(-c1ccncc1)c(=O)n2C (3D coordinates assigned)
COc1cc2c(cc1O)cc(-c1ccncc1)c(=O)n2C (optimized conformer: 55.27316948958677 kcal/mol)

>  <smiles>  (12) 
COc1cc2c(cc1O)cc(-c1ccncc1)c(=O)n2C

>  <score_type>  (12) 
oracle

>  <origin>  (12) 
adgpu

>  <m_score__min__energy>  (12) 
-8.4299999999999997

>  <m_primary>  (12) 
energy

$$$$
12:0
     RDKit          3D

 46 48  0  0  0  0  0  0  0  0999 V2000
   -4.2710   24.9140  -26.3650 C   0  0  0  0  0  0  0  0  0  0  0  0
   -2.7810   25.2380  -26.4050 C   0  0  0  0  0  0  0  0  0  0  0  0
   -2.0070   24.1170  -26.9760 N   0  0  0  0  0  0  0  0  0  0  0  0
   -0.7310   23.8880  -26.2660 C   0  0  0  0  0  0  0  0  0  0  0  0
   -0.5110   22.4330  -25.8290 C   0  0  0  0  0  0  0  0  0  0  0  0
   -1.7810   24.2700  -28.7100 S   0  0  0  0  0  0  0  0  0  0  0  0
   -0.7200   23.3200  -29.1940 O   0  0  0  0  0  0  0  0  0  0  0  0
   -1.3690   25.6740  -29.0600 O   0  0  0  0  0  0  0  0  0  0  0  0
   -3.2860   23.8620  -29.5240 C   0  0  0  0  0  0  0  0  0  0  0  0
   -3.9950   24.8290  -30.2510 C   0  0  0  0  0  0  0  0  0  0  0  0
   -5.1920   24.4890  -30.8900 C   0  0  0  0  0  0  0  0  0  0  0  0
   -5.6890   23.1820  -30.8080 C   0  0  0  0  0  0  0  0  0  0  0  0
   -7.1880   22.7700  -31.6310 S   0  0  0  0  0  0  0  0  0  0  0  0
   -7.4500   23.7860  -32.7060 O   0  0  0  0  0  0  0  0  0  0  0  0
   -8.3420   22.7750  -30.6690 O   0  0  0  0  0  0  0  0  0  0  0  0
   -7.0390   21.1860  -32.3230 N   0  0  0  0  0  0  0  0  0  0  0  0
   -8.0130   20.2630  -32.5250 C   0  0  0  0  0  0  0  0  0  0  0  0
   -9.2180   20.4410  -32.2100 O   0  0  0  0  0  0  0  0  0  0  0  0
   -7.5600   19.1270  -33.1070 N   0  0  0  0  0  0  0  0  0  0  0  0
   -6.2460   19.3580  -33.2790 C   0  0  0  0  0  0  0  0  0  0  0  0
   -5.2920   18.5190  -33.8490 C   0  0  0  0  0  0  0  0  0  0  0  0
   -3.9690   18.9930  -33.9270 C   0  0  0  0  0  0  0  0  0  0  0  0
   -3.6380   20.2800  -33.4430 C   0  0  0  0  0  0  0  0  0  0  0  0
   -4.6270   21.1050  -32.8720 C   0  0  0  0  0  0  0  0  0  0  0  0
   -5.9270   20.6030  -32.8060 C   0  0  0  0  0  0  0  0  0  0  0  0
   -4.9780   22.2150  -30.0850 C   0  0  0  0  0  0  0  0  0  0  0  0
   -3.7820   22.5540  -29.4480 C   0  0  0  0  0  0  0  0  0  0  0  0
   -4.6026   24.8419  -25.3186 H   0  0  0  0  0  0  0  0  0  0  0  0
   -4.8333   25.7109  -26.8738 H   0  0  0  0  0  0  0  0  0  0  0  0
   -4.4516   23.9556  -26.8738 H   0  0  0  0  0  0  0  0  0  0  0  0
   -2.6249   26.1340  -27.0237 H   0  0  0  0  0  0  0  0  0  0  0  0
   -2.4343   25.4129  -25.3758 H   0  0  0  0  0  0  0  0  0  0  0  0
    0.0934   24.1765  -26.9347 H   0  0  0  0  0  0  0  0  0  0  0  0
   -0.7646   24.4938  -25.3485 H   0  0  0  0  0  0  0  0  0  0  0  0
   -0.5026   22.3774  -24.7304 H   0  0  0  0  0  0  0  0  0  0  0  0
   -1.3244   21.8052  -26.2217 H   0  0  0  0  0  0  0  0  0  0  0  0
    0.4517   22.0738  -26.2217 H   0  0  0  0  0  0  0  0  0  0  0  0
   -3.6092   25.8569  -30.3189 H   0  0  0  0  0  0  0  0  0  0  0  0
   -5.7450   25.2509  -31.4590 H   0  0  0  0  0  0  0  0  0  0  0  0
   -8.1060   18.2760  -33.3680 H   0  0  0  0  0  0  0  0  0  0  0  0
   -5.5627   17.5213  -34.2249 H   0  0  0  0  0  0  0  0  0  0  0  0
   -3.1866   18.3577  -34.3677 H   0  0  0  0  0  0  0  0  0  0  0  0
   -2.6008   20.6395  -33.5129 H   0  0  0  0  0  0  0  0  0  0  0  0
   -4.3832   22.1081  -32.4922 H   0  0  0  0  0  0  0  0  0  0  0  0
   -5.3626   21.1865  -30.0189 H   0  0  0  0  0  0  0  0  0  0  0  0
   -3.2268   21.7901  -28.8839 H   0  0  0  0  0  0  0  0  0  0  0  0
  1  2  1  0
  2  3  1  0
  3  4  1  0
  4  5  1  0
  3  6  1  0
  6  7  2  0
  6  8  2  0
  6  9  1  0
  9 10  2  0
 10 11  1  0
 11 12  2  0
 12 13  1  0
 13 14  2  0
 13 15  2  0
 13 16  1  0
 16 17  1  0
 17 18  2  0
 17 19  1  0
 19 20  1  0
 20 21  2  0
 21 22  1  0
 22 23  2  0
 23 24  1  0
 24 25  2  0
 12 26  1  0
 26 27  2  0
 27  9  1  0
 25 16  1  0
 25 20  1  0
  1 28  1  0
  1 29  1  0
  1 30  1  0
  2 31  1  0
  2 32  1  0
  4 33  1  0
  4 34  1  0
  5 35  1  0
  5 36  1  0
  5 37  1  0
 10 38  1  0
 11 39  1  0
 19 40  1  0
 21 41  1  0
 22 42  1  0
 23 43  1  0
 24 44  1  0
 26 45  1  0
 27 46  1  0
M  END
>  <UniqueID>  (13) 
13

>  <SMILES>  (13) 
CCN(CC)S(=O)(=O)c1ccc(S(=O)(=O)n2c(=O)[nH]c3ccccc32)cc1

>  <Energy>  (13) 
89.23177799985855

>  <Genealogy>  (13) 
CCN(CC)S(=O)(=O)c1ccc(S(=O)(=O)n2c(=O)[nH]c3ccccc32)cc1 (3D coordinates assigned)
CCN(CC)S(=O)(=O)c1ccc(S(=O)(=O)n2c(=O)[nH]c3ccccc32)cc1 (optimized conformer: 89.23177799985855 kcal/mol)

>  <smiles>  (13) 
CCN(CC)S(=O)(=O)c1ccc(S(=O)(=O)n2c(=O)[nH]c3ccccc32)cc1

>  <score_type>  (13) 
oracle

>  <origin>  (13) 
adgpu

>  <m_score__min__energy>  (13) 
-9.3100000000000005

>  <m_primary>  (13) 
energy

$$$$
13:0
     RDKit          3D

 47 49  0  0  0  0  0  0  0  0999 V2000
    1.5443   19.9427  -35.1084 H   0  0  0  0  0  0  0  0  0  0  0  0
    1.3380   20.9900  -35.3740 C   0  0  0  0  0  0  0  0  0  0  0  0
    2.2240   21.9290  -36.4540 S   0  0  0  0  0  0  0  0  0  0  0  0
    1.2480   23.2760  -36.2400 C   0  0  0  0  0  0  0  0  0  0  0  0
    1.4630   24.4180  -36.8220 N   0  0  0  0  0  0  0  0  0  0  0  0
    0.6540   25.6020  -36.7120 C   0  0  0  0  0  0  0  0  0  0  0  0
    0.5380   26.3200  -35.5060 C   0  0  0  0  0  0  0  0  0  0  0  0
    1.1012   25.9960  -34.6184 H   0  0  0  0  0  0  0  0  0  0  0  0
   -0.2900   27.4420  -35.4340 C   0  0  0  0  0  0  0  0  0  0  0  0
   -0.3681   28.0058  -34.4927 H   0  0  0  0  0  0  0  0  0  0  0  0
   -1.0190   27.8510  -36.5520 C   0  0  0  0  0  0  0  0  0  0  0  0
   -1.6701   28.7354  -36.4885 H   0  0  0  0  0  0  0  0  0  0  0  0
   -0.9240   27.1380  -37.7560 C   0  0  0  0  0  0  0  0  0  0  0  0
   -1.7480   27.5430  -38.9420 C   0  0  0  0  0  0  0  0  0  0  0  0
   -2.6854   28.0037  -38.5971 H   0  0  0  0  0  0  0  0  0  0  0  0
   -1.1853   28.2672  -39.5494 H   0  0  0  0  0  0  0  0  0  0  0  0
   -1.9776   26.6551  -39.5494 H   0  0  0  0  0  0  0  0  0  0  0  0
   -0.1040   26.0000  -37.8210 C   0  0  0  0  0  0  0  0  0  0  0  0
   -0.0563   25.4154  -38.7516 H   0  0  0  0  0  0  0  0  0  0  0  0
    0.2590   23.0480  -35.3480 N   0  0  0  0  0  0  0  0  0  0  0  0
    0.2950   21.7730  -34.8740 C   0  0  0  0  0  0  0  0  0  0  0  0
   -0.6850   21.2950  -33.8780 C   0  0  0  0  0  0  0  0  0  0  0  0
   -0.7310   21.8480  -32.7480 O   0  0  0  0  0  0  0  0  0  0  0  0
   -1.5390   20.1720  -34.1340 N   0  0  0  0  0  0  0  0  0  0  0  0
   -2.7310   20.0000  -33.6430 C   0  0  0  0  0  0  0  0  0  0  0  0
   -3.7170   18.7150  -34.0420 S   0  0  0  0  0  0  0  0  0  0  0  0
   -4.9810   19.1770  -33.0080 C   0  0  0  0  0  0  0  0  0  0  0  0
   -6.3300   18.4500  -32.9240 C   0  0  0  0  0  0  0  0  0  0  0  0
   -7.4940   19.4600  -33.0680 C   0  0  0  0  0  0  0  0  0  0  0  0
   -7.8426   19.7625  -32.0695 H   0  0  0  0  0  0  0  0  0  0  0  0
   -7.1447   20.3460  -33.6184 H   0  0  0  0  0  0  0  0  0  0  0  0
   -8.3219   18.9893  -33.6184 H   0  0  0  0  0  0  0  0  0  0  0  0
   -6.4540   17.7660  -31.5500 C   0  0  0  0  0  0  0  0  0  0  0  0
   -6.3185   18.5137  -30.7546 H   0  0  0  0  0  0  0  0  0  0  0  0
   -7.4498   17.3081  -31.4569 H   0  0  0  0  0  0  0  0  0  0  0  0
   -5.6823   16.9876  -31.4569 H   0  0  0  0  0  0  0  0  0  0  0  0
   -6.4850   17.4040  -34.0500 C   0  0  0  0  0  0  0  0  0  0  0  0
   -6.6326   16.4079  -33.6073 H   0  0  0  0  0  0  0  0  0  0  0  0
   -7.3548   17.6613  -34.6723 H   0  0  0  0  0  0  0  0  0  0  0  0
   -5.5779   17.3980  -34.6723 H   0  0  0  0  0  0  0  0  0  0  0  0
   -4.5710   20.3830  -32.3860 C   0  0  0  0  0  0  0  0  0  0  0  0
   -5.3760   21.1630  -31.3880 C   0  0  0  0  0  0  0  0  0  0  0  0
   -5.0774   20.8737  -30.3696 H   0  0  0  0  0  0  0  0  0  0  0  0
   -5.1953   22.2385  -31.5315 H   0  0  0  0  0  0  0  0  0  0  0  0
   -6.4453   20.9485  -31.5315 H   0  0  0  0  0  0  0  0  0  0  0  0
   -3.3190   20.8050  -32.7300 N   0  0  0  0  0  0  0  0  0  0  0  0
   -2.8690   21.6480  -32.3110 H   0  0  0  0  0  0  0  0  0  0  0  0
  1  2  1  0
  2  3  1  0
  3  4  1  0
  4  5  2  0
  5  6  1  0
  6  7  2  0
  7  8  1  0
  7  9  1  0
  9 10  1  0
  9 11  2  0
 11 12  1  0
 11 13  1  0
 13 14  1  0
 14 15  1  0
 14 16  1  0
 14 17  1  0
 13 18  2  0
 18 19  1  0
  4 20  1  0
 20 21  1  0
 21 22  1  0
 22 23  2  0
 22 24  1  0
 24 25  2  0
 25 26  1  0
 26 27  1  0
 27 28  1  0
 28 29  1  0
 29 30  1  0
 29 31  1  0
 29 32  1  0
 28 33  1  0
 33 34  1  0
 33 35  1  0
 33 36  1  0
 28 37  1  0
 37 38  1  0
 37 39  1  0
 37 40  1  0
 27 41  2  0
 41 42  1  0
 42 43  1  0
 42 44  1  0
 42 45  1  0
 41 46  1  0
 46 47  1  0
 21  2  2  0
 46 25  1  0
 18  6  1  0
M  CHG  1  20  -1
M  END
>  <UniqueID>  (14) 
14

>  <SMILES>  (14) 
Cc1cccc(/N=c2\[n-]c(C(=O)/N=c3\[nH]c(C)c(C(C)(C)C)s3)cs2)c1

>  <Energy>  (14) 
119.73225451721378

>  <Genealogy>  (14) 
Cc1cccc(N=c2[n-]c(C(=O)N=c3[nH]c(C)c(C(C)(C)C)s3)cs2)c1 (protonated)
Cc1cccc(/N=c2\[n-]c(C(=O)/N=c3\[nH]c(C)c(C(C)(C)C)s3)cs2)c1 (cis-trans isomerization)
Cc1cccc(/N=c2\[n-]c(C(=O)/N=c3\[nH]c(C)c(C(C)(C)C)s3)cs2)c1 (3D coordinates assigned)
Cc1cccc(/N=c2\[n-]c(C(=O)/N=c3\[nH]c(C)c(C(C)(C)C)s3)cs2)c1 (optimized conformer: 119.73225451721378 kcal/mol)

>  <smiles>  (14) 
Cc1cccc(N=c2[nH]c(C(=O)N=c3[nH]c(C)c(C(C)(C)C)s3)cs2)c1

>  <score_type>  (14) 
oracle

>  <origin>  (14) 
adgpu

>  <m_score__min__energy>  (14) 
-10

>  <m_primary>  (14) 
energy

$$$$
14:0
     RDKit          3D

 32 34  0  0  0  0  0  0  0  0999 V2000
   -9.4720   18.2690  -31.8650 O   0  0  0  0  0  0  0  0  0  0  0  0
   -8.3260   18.5450  -32.3070 C   0  0  0  0  0  0  0  0  0  0  0  0
   -7.5850   17.5280  -32.9930 N   0  0  0  0  0  0  0  0  0  0  0  0
   -6.1760   17.5470  -33.2640 C   0  0  0  0  0  0  0  0  0  0  0  0
   -5.3230   16.5380  -32.7800 C   0  0  0  0  0  0  0  0  0  0  0  0
   -3.9560   16.5700  -33.0690 C   0  0  0  0  0  0  0  0  0  0  0  0
   -3.4330   17.5970  -33.8590 C   0  0  0  0  0  0  0  0  0  0  0  0
   -4.2770   18.5890  -34.3640 C   0  0  0  0  0  0  0  0  0  0  0  0
   -5.6480   18.5640  -34.0750 C   0  0  0  0  0  0  0  0  0  0  0  0
   -6.4910   19.5520  -34.5850 O   0  0  0  0  0  0  0  0  0  0  0  0
   -7.8150   19.9210  -32.1570 C   0  0  0  0  0  0  0  0  0  0  0  0
   -6.6860   20.3130  -31.4650 C   0  0  0  0  0  0  0  0  0  0  0  0
   -6.6390   21.6810  -31.6630 C   0  0  0  0  0  0  0  0  0  0  0  0
   -5.6360   22.6340  -31.1390 C   0  0  0  0  0  0  0  0  0  0  0  0
   -4.2800   22.2630  -31.0960 C   0  0  0  0  0  0  0  0  0  0  0  0
   -3.3170   23.1510  -30.6040 C   0  0  0  0  0  0  0  0  0  0  0  0
   -3.6970   24.4180  -30.1540 C   0  0  0  0  0  0  0  0  0  0  0  0
   -2.7380   25.2980  -29.6680 O   0  0  0  0  0  0  0  0  0  0  0  0
   -5.0410   24.7980  -30.1940 C   0  0  0  0  0  0  0  0  0  0  0  0
   -6.0070   23.9140  -30.6830 C   0  0  0  0  0  0  0  0  0  0  0  0
   -7.6580   22.0270  -32.4200 O   0  0  0  0  0  0  0  0  0  0  0  0
   -8.3830   20.9940  -32.7400 N   0  0  0  0  0  0  0  0  0  0  0  0
   -5.7343   15.7196  -32.1709 H   0  0  0  0  0  0  0  0  0  0  0  0
   -3.2919   15.7868  -32.6746 H   0  0  0  0  0  0  0  0  0  0  0  0
   -2.3565   17.6244  -34.0833 H   0  0  0  0  0  0  0  0  0  0  0  0
   -3.8638   19.3929  -34.9909 H   0  0  0  0  0  0  0  0  0  0  0  0
   -7.4430   19.6600  -34.2550 H   0  0  0  0  0  0  0  0  0  0  0  0
   -5.9884   19.6851  -30.8914 H   0  0  0  0  0  0  0  0  0  0  0  0
   -3.9744   21.2679  -31.4516 H   0  0  0  0  0  0  0  0  0  0  0  0
   -2.2592   22.8511  -30.5715 H   0  0  0  0  0  0  0  0  0  0  0  0
   -5.3397   25.7956  -29.8397 H   0  0  0  0  0  0  0  0  0  0  0  0
   -7.0633   24.2198  -30.7119 H   0  0  0  0  0  0  0  0  0  0  0  0
  1  2  2  0
  2  3  1  0
  3  4  1  0
  4  5  2  0
  5  6  1  0
  6  7  2  0
  7  8  1  0
  8  9  2  0
  9 10  1  0
  2 11  1  0
 11 12  1  0
 12 13  2  0
 13 14  1  0
 14 15  2  0
 15 16  1  0
 16 17  2  0
 17 18  1  0
 17 19  1  0
 19 20  2  0
 13 21  1  0
 21 22  1  0
  9  4  1  0
 22 11  2  0
 20 14  1  0
  5 23  1  0
  6 24  1  0
  7 25  1  0
  8 26  1  0
 10 27  1  0
 12 28  1  0
 15 29  1  0
 16 30  1  0
 19 31  1  0
 20 32  1  0
M  CHG  2   3  -1  18  -1
M  END
>  <UniqueID>  (15) 
15

>  <SMILES>  (15) 
O=C([N-]c1ccccc1O)c1cc(-c2ccc([O-])cc2)on1

>  <Energy>  (15) 
70.95506458066326

>  <Genealogy>  (15) 
O=C([N-]c1ccccc1O)c1cc(-c2ccc([O-])cc2)on1 (protonated)
O=C([N-]c1ccccc1O)c1cc(-c2ccc([O-])cc2)on1 (3D coordinates assigned)
O=C([N-]c1ccccc1O)c1cc(-c2ccc([O-])cc2)on1 (optimized conformer: 70.95506458066326 kcal/mol)

>  <smiles>  (15) 
O=C(Nc1ccccc1O)c1cc(-c2ccc(O)cc2)on1

>  <score_type>  (15) 
oracle

>  <origin>  (15) 
adgpu

>  <m_score__min__energy>  (15) 
-10.4

>  <m_primary>  (15) 
energy

$$$$
15:0
     RDKit          3D

 66 69  0  0  0  0  0  0  0  0999 V2000
   -4.2780   24.8990  -26.4040 C   0  0  0  0  0  0  0  0  0  0  0  0
   -3.0520   24.6000  -27.2230 C   0  0  0  0  0  0  0  0  0  0  0  0
   -1.7840   24.7730  -26.6410 C   0  0  0  0  0  0  0  0  0  0  0  0
   -0.6190   24.5700  -27.3940 C   0  0  0  0  0  0  0  0  0  0  0  0
    0.9650   24.8550  -26.6760 S   0  0  0  0  0  0  0  0  0  0  0  0
    1.3780   23.6630  -25.8590 O   0  0  0  0  0  0  0  0  0  0  0  0
    1.9690   25.0480  -27.7800 O   0  0  0  0  0  0  0  0  0  0  0  0
    0.9120   26.2850  -25.6740 N   0  0  0  0  0  0  0  0  0  0  0  0
    0.2250   27.3780  -26.3970 C   0  0  0  0  0  0  0  0  0  0  0  0
   -0.2020   28.5350  -25.4660 C   0  0  0  0  0  0  0  0  0  0  0  0
    0.5660   28.5050  -24.1440 C   0  0  0  0  0  0  0  0  0  0  0  0
    0.3720   27.1600  -23.4230 C   0  0  0  0  0  0  0  0  0  0  0  0
    0.2300   25.9800  -24.4050 C   0  0  0  0  0  0  0  0  0  0  0  0
   -0.7190   24.1930  -28.7360 C   0  0  0  0  0  0  0  0  0  0  0  0
   -1.9730   23.9920  -29.3180 C   0  0  0  0  0  0  0  0  0  0  0  0
   -3.1440   24.1670  -28.5680 C   0  0  0  0  0  0  0  0  0  0  0  0
   -4.4120   23.9630  -29.2090 N   0  0  0  0  0  0  0  0  0  0  0  0
   -4.8080   24.6720  -30.3890 C   0  0  0  0  0  0  0  0  0  0  0  0
   -4.0920   25.6070  -30.8390 O   0  0  0  0  0  0  0  0  0  0  0  0
   -6.0150   24.2880  -31.0600 N   0  0  0  0  0  0  0  0  0  0  0  0
   -6.4490   22.9520  -31.3510 C   0  0  0  0  0  0  0  0  0  0  0  0
   -5.5750   21.8520  -31.2960 C   0  0  0  0  0  0  0  0  0  0  0  0
   -6.0380   20.5690  -31.6050 C   0  0  0  0  0  0  0  0  0  0  0  0
   -7.3770   20.3690  -31.9710 C   0  0  0  0  0  0  0  0  0  0  0  0
   -7.9700   18.7470  -32.3330 S   0  0  0  0  0  0  0  0  0  0  0  0
   -7.7180   17.8610  -31.1420 O   0  0  0  0  0  0  0  0  0  0  0  0
   -9.4560   18.8010  -32.5590 O   0  0  0  0  0  0  0  0  0  0  0  0
   -7.1940   18.0520  -33.7390 N   0  0  0  0  0  0  0  0  0  0  0  0
   -6.8530   16.6180  -33.5640 C   0  0  0  0  0  0  0  0  0  0  0  0
   -5.3900   16.2870  -33.8840 C   0  0  0  0  0  0  0  0  0  0  0  0
   -4.4740   17.2800  -33.1810 C   0  0  0  0  0  0  0  0  0  0  0  0
   -4.7450   18.7170  -33.6440 C   0  0  0  0  0  0  0  0  0  0  0  0
   -6.1300   18.9160  -34.2970 C   0  0  0  0  0  0  0  0  0  0  0  0
   -8.2340   21.4730  -32.0760 C   0  0  0  0  0  0  0  0  0  0  0  0
   -7.7710   22.7550  -31.7700 C   0  0  0  0  0  0  0  0  0  0  0  0
   -4.0283   24.8381  -25.3344 H   0  0  0  0  0  0  0  0  0  0  0  0
   -4.6383   25.9113  -26.6394 H   0  0  0  0  0  0  0  0  0  0  0  0
   -5.0639   24.1662  -26.6394 H   0  0  0  0  0  0  0  0  0  0  0  0
   -1.7052   25.0704  -25.5849 H   0  0  0  0  0  0  0  0  0  0  0  0
    0.9071   27.7762  -27.1626 H   0  0  0  0  0  0  0  0  0  0  0  0
   -0.6881   26.9575  -26.8435 H   0  0  0  0  0  0  0  0  0  0  0  0
   -0.0051   29.4917  -25.9718 H   0  0  0  0  0  0  0  0  0  0  0  0
   -1.2735   28.4216  -25.2446 H   0  0  0  0  0  0  0  0  0  0  0  0
    1.6369   28.6530  -24.3469 H   0  0  0  0  0  0  0  0  0  0  0  0
    0.1813   29.3075  -23.4974 H   0  0  0  0  0  0  0  0  0  0  0  0
    1.2425   26.9777  -22.7757 H   0  0  0  0  0  0  0  0  0  0  0  0
   -0.5585   27.2240  -22.8399 H   0  0  0  0  0  0  0  0  0  0  0  0
    0.6795   25.0807  -23.9587 H   0  0  0  0  0  0  0  0  0  0  0  0
   -0.8379   25.8084  -24.6054 H   0  0  0  0  0  0  0  0  0  0  0  0
    0.1925   24.0541  -29.3359 H   0  0  0  0  0  0  0  0  0  0  0  0
   -2.0420   23.6937  -30.3745 H   0  0  0  0  0  0  0  0  0  0  0  0
   -5.1350   23.3990  -28.7100 H   0  0  0  0  0  0  0  0  0  0  0  0
   -4.5236   22.0010  -31.0090 H   0  0  0  0  0  0  0  0  0  0  0  0
   -5.3488   19.7128  -31.5608 H   0  0  0  0  0  0  0  0  0  0  0  0
   -7.0511   16.3393  -32.5185 H   0  0  0  0  0  0  0  0  0  0  0  0
   -7.4728   16.0518  -34.2748 H   0  0  0  0  0  0  0  0  0  0  0  0
   -5.1609   15.2688  -33.5365 H   0  0  0  0  0  0  0  0  0  0  0  0
   -5.2311   16.3507  -34.9706 H   0  0  0  0  0  0  0  0  0  0  0  0
   -4.6425   17.2159  -32.0959 H   0  0  0  0  0  0  0  0  0  0  0  0
   -3.4330   17.0267  -33.4303 H   0  0  0  0  0  0  0  0  0  0  0  0
   -4.6763   19.3809  -32.7696 H   0  0  0  0  0  0  0  0  0  0  0  0
   -3.9941   18.9504  -34.4132 H   0  0  0  0  0  0  0  0  0  0  0  0
   -6.4294   19.9653  -34.1578 H   0  0  0  0  0  0  0  0  0  0  0  0
   -6.0223   18.6402  -35.3564 H   0  0  0  0  0  0  0  0  0  0  0  0
   -9.2752   21.3295  -32.4006 H   0  0  0  0  0  0  0  0  0  0  0  0
   -8.4496   23.6162  -31.8588 H   0  0  0  0  0  0  0  0  0  0  0  0
  1  2  1  0
  2  3  2  0
  3  4  1  0
  4  5  1  0
  5  6  2  0
  5  7  2  0
  5  8  1  0
  8  9  1  0
  9 10  1  0
 10 11  1  0
 11 12  1  0
 12 13  1  0
  4 14  2  0
 14 15  1  0
 15 16  2  0
 16 17  1  0
 17 18  1  0
 18 19  2  0
 18 20  1  0
 20 21  1  0
 21 22  2  0
 22 23  1  0
 23 24  2  0
 24 25  1  0
 25 26  2  0
 25 27  2  0
 25 28  1  0
 28 29  1  0
 29 30  1  0
 30 31  1  0
 31 32  1  0
 32 33  1  0
 24 34  1  0
 34 35  2  0
 16  2  1  0
 35 21  1  0
 13  8  1  0
 33 28  1  0
  1 36  1  0
  1 37  1  0
  1 38  1  0
  3 39  1  0
  9 40  1  0
  9 41  1  0
 10 42  1  0
 10 43  1  0
 11 44  1  0
 11 45  1  0
 12 46  1  0
 12 47  1  0
 13 48  1  0
 13 49  1  0
 14 50  1  0
 15 51  1  0
 17 52  1  0
 22 53  1  0
 23 54  1  0
 29 55  1  0
 29 56  1  0
 30 57  1  0
 30 58  1  0
 31 59  1  0
 31 60  1  0
 32 61  1  0
 32 62  1  0
 33 63  1  0
 33 64  1  0
 34 65  1  0
 35 66  1  0
M  CHG  1  20  -1
M  END
>  <UniqueID>  (16) 
16

>  <SMILES>  (16) 
Cc1cc(S(=O)(=O)N2CCCCC2)ccc1NC(=O)[N-]c1ccc(S(=O)(=O)N2CCCCC2)cc1

>  <Energy>  (16) 
86.61293878351454

>  <Genealogy>  (16) 
Cc1cc(S(=O)(=O)N2CCCCC2)ccc1NC(=O)[N-]c1ccc(S(=O)(=O)N2CCCCC2)cc1 (protonated)
Cc1cc(S(=O)(=O)N2CCCCC2)ccc1NC(=O)[N-]c1ccc(S(=O)(=O)N2CCCCC2)cc1 (3D coordinates assigned)
Cc1cc(S(=O)(=O)N2CCCCC2)ccc1NC(=O)[N-]c1ccc(S(=O)(=O)N2CCCCC2)cc1 (nonaromatic ring conformer: 86.61293878351454 kcal/mol)

>  <smiles>  (16) 
Cc1cc(S(=O)(=O)N2CCCCC2)ccc1NC(=O)Nc1ccc(S(=O)(=O)N2CCCCC2)cc1

>  <score_type>  (16) 
oracle

>  <origin>  (16) 
adgpu

>  <m_score__min__energy>  (16) 
-12.779999999999999

>  <m_primary>  (16) 
energy

$$$$
16:0
     RDKit          3D

 50 52  0  0  0  0  0  0  0  0999 V2000
   -9.2140   21.3750  -31.9600 C   0  0  0  0  0  0  0  0  0  0  0  0
   -8.7760   22.8370  -31.9660 C   0  0  0  0  0  0  0  0  0  0  0  0
   -7.2960   22.9680  -32.3480 C   0  0  0  0  0  0  0  0  0  0  0  0
   -6.5670   21.6110  -32.4010 C   0  0  0  0  0  0  0  0  0  0  0  0
   -5.0320   21.6970  -32.3300 C   0  0  0  0  0  0  0  0  0  0  0  0
   -4.4750   21.3560  -30.9410 C   0  0  0  0  0  0  0  0  0  0  0  0
   -4.6370   22.5270  -30.0110 C   0  0  0  0  0  0  0  0  0  0  0  0
   -5.7910   22.8280  -29.6210 O   0  0  0  0  0  0  0  0  0  0  0  0
   -3.4660   23.2910  -29.5200 C   0  0  0  0  0  0  0  0  0  0  0  0
   -3.1000   24.5730  -29.8870 C   0  0  0  0  0  0  0  0  0  0  0  0
   -3.7890   25.4300  -30.7380 O   0  0  0  0  0  0  0  0  0  0  0  0
   -1.9260   24.8650  -29.2410 C   0  0  0  0  0  0  0  0  0  0  0  0
   -1.2330   26.0640  -29.3390 O   0  0  0  0  0  0  0  0  0  0  0  0
   -1.5300   23.8220  -28.4870 N   0  0  0  0  0  0  0  0  0  0  0  0
   -0.3260   23.7940  -27.6510 C   0  0  0  0  0  0  0  0  0  0  0  0
   -0.5210   24.6050  -26.4060 C   0  0  0  0  0  0  0  0  0  0  0  0
   -1.5770   25.4630  -26.1740 C   0  0  0  0  0  0  0  0  0  0  0  0
   -1.3500   26.0010  -24.9240 C   0  0  0  0  0  0  0  0  0  0  0  0
   -0.1770   25.4290  -24.4660 C   0  0  0  0  0  0  0  0  0  0  0  0
    0.2960   24.6050  -25.3740 O   0  0  0  0  0  0  0  0  0  0  0  0
   -2.4610   22.8470  -28.6530 C   0  0  0  0  0  0  0  0  0  0  0  0
   -2.3710   21.4960  -28.0630 C   0  0  0  0  0  0  0  0  0  0  0  0
   -1.2510   20.6860  -28.0540 C   0  0  0  0  0  0  0  0  0  0  0  0
   -1.6300   19.5250  -27.4120 C   0  0  0  0  0  0  0  0  0  0  0  0
   -2.9560   19.7020  -27.0720 C   0  0  0  0  0  0  0  0  0  0  0  0
   -3.8070   18.7120  -26.3500 C   0  0  0  0  0  0  0  0  0  0  0  0
   -3.3710   20.8810  -27.4720 O   0  0  0  0  0  0  0  0  0  0  0  0
   -9.3181   21.0277  -30.9215 H   0  0  0  0  0  0  0  0  0  0  0  0
  -10.1802   21.2796  -32.4771 H   0  0  0  0  0  0  0  0  0  0  0  0
   -8.4594   20.7640  -32.4771 H   0  0  0  0  0  0  0  0  0  0  0  0
   -9.3856   23.3918  -32.6944 H   0  0  0  0  0  0  0  0  0  0  0  0
   -8.9137   23.2474  -30.9548 H   0  0  0  0  0  0  0  0  0  0  0  0
   -7.2300   23.4407  -33.3391 H   0  0  0  0  0  0  0  0  0  0  0  0
   -6.8074   23.5747  -31.5713 H   0  0  0  0  0  0  0  0  0  0  0  0
   -6.9148   21.0029  -31.5529 H   0  0  0  0  0  0  0  0  0  0  0  0
   -6.8064   21.1701  -33.3799 H   0  0  0  0  0  0  0  0  0  0  0  0
   -4.6075   20.9925  -33.0604 H   0  0  0  0  0  0  0  0  0  0  0  0
   -4.7505   22.7372  -32.5507 H   0  0  0  0  0  0  0  0  0  0  0  0
   -5.0198   20.4914  -30.5339 H   0  0  0  0  0  0  0  0  0  0  0  0
   -3.4050   21.1182  -31.0334 H   0  0  0  0  0  0  0  0  0  0  0  0
   -0.1053   22.7531  -27.3720 H   0  0  0  0  0  0  0  0  0  0  0  0
    0.5095   24.2236  -28.2232 H   0  0  0  0  0  0  0  0  0  0  0  0
   -2.4226   25.6737  -26.8452 H   0  0  0  0  0  0  0  0  0  0  0  0
   -1.9759   26.7367  -24.3977 H   0  0  0  0  0  0  0  0  0  0  0  0
    0.2889   25.6327  -23.4906 H   0  0  0  0  0  0  0  0  0  0  0  0
   -0.2609   20.9191  -28.4727 H   0  0  0  0  0  0  0  0  0  0  0  0
   -1.0053   18.6419  -27.2126 H   0  0  0  0  0  0  0  0  0  0  0  0
   -3.6890   18.8493  -25.2650 H   0  0  0  0  0  0  0  0  0  0  0  0
   -4.8608   18.8638  -26.6263 H   0  0  0  0  0  0  0  0  0  0  0  0
   -3.4987   17.6929  -26.6263 H   0  0  0  0  0  0  0  0  0  0  0  0
  1  2  1  0
  2  3  1  0
  3  4  1  0
  4  5  1  0
  5  6  1  0
  6  7  1  0
  7  8  2  0
  7  9  1  0
  9 10  1  0
 10 11  1  0
 10 12  2  0
 12 13  1  0
 12 14  1  0
 14 15  1  0
 15 16  1  0
 16 17  2  0
 17 18  1  0
 18 19  2  0
 19 20  1  0
 14 21  1  0
 21 22  1  0
 22 23  2  0
 23 24  1  0
 24 25  2  0
 25 26  1  0
 25 27  1  0
 21  9  2  0
 27 22  1  0
 20 16  1  0
  1 28  1  0
  1 29  1  0
  1 30  1  0
  2 31  1  0
  2 32  1  0
  3 33  1  0
  3 34  1  0
  4 35  1  0
  4 36  1  0
  5 37  1  0
  5 38  1  0
  6 39  1  0
  6 40  1  0
 15 41  1  0
 15 42  1  0
 17 43  1  0
 18 44  1  0
 19 45  1  0
 23 46  1  0
 24 47  1  0
 26 48  1  0
 26 49  1  0
 26 50  1  0
M  CHG  2  11  -1  13  -1
M  END
>  <UniqueID>  (17) 
17

>  <SMILES>  (17) 
CCCCCCC(=O)c1c([O-])c([O-])n(Cc2ccco2)c1-c1ccc(C)o1

>  <Energy>  (17) 
127.66121175014024

>  <Genealogy>  (17) 
CCCCCCC(=O)c1c([O-])c([O-])n(Cc2ccco2)c1-c1ccc(C)o1 (protonated)
CCCCCCC(=O)c1c([O-])c([O-])n(Cc2ccco2)c1-c1ccc(C)o1 (3D coordinates assigned)
CCCCCCC(=O)c1c([O-])c([O-])n(Cc2ccco2)c1-c1ccc(C)o1 (optimized conformer: 127.66121175014024 kcal/mol)

>  <smiles>  (17) 
CCCCCCC(=O)c1c(O)c(O)n(Cc2ccco2)c1-c1ccc(C)o1

>  <score_type>  (17) 
oracle

>  <origin>  (17) 
adgpu

>  <m_score__min__energy>  (17) 
-13.18

>  <m_primary>  (17) 
energy

$$$$
17:0
     RDKit          3D

 54 57  0  0  0  0  0  0  0  0999 V2000
   -6.4920   19.0650  -33.9450 C   0  0  0  0  0  0  0  0  0  0  0  0
   -6.7140   20.3680  -33.2840 N   0  0  0  0  0  0  0  0  0  0  0  0
   -7.6990   20.2150  -32.1970 C   0  0  0  0  0  0  0  0  0  0  0  0
   -8.0800   21.5840  -31.6390 C   0  0  0  0  0  0  0  0  0  0  0  0
   -6.8650   22.4230  -31.3430 C   0  0  0  0  0  0  0  0  0  0  0  0
   -7.0000   23.5800  -30.5540 C   0  0  0  0  0  0  0  0  0  0  0  0
   -5.8930   24.3950  -30.2870 C   0  0  0  0  0  0  0  0  0  0  0  0
   -6.0270   25.5310  -29.4820 O   0  0  0  0  0  0  0  0  0  0  0  0
   -4.6370   24.0530  -30.8070 C   0  0  0  0  0  0  0  0  0  0  0  0
   -3.4940   24.8400  -30.4660 N   0  0  0  0  0  0  0  0  0  0  0  0
   -2.6760   24.5970  -28.9590 S   0  0  0  0  0  0  0  0  0  0  0  0
   -1.4630   25.4950  -28.8680 O   0  0  0  0  0  0  0  0  0  0  0  0
   -3.6110   24.9240  -27.8230 O   0  0  0  0  0  0  0  0  0  0  0  0
   -2.2200   22.8980  -28.8620 C   0  0  0  0  0  0  0  0  0  0  0  0
   -2.4090   22.1690  -27.6800 C   0  0  0  0  0  0  0  0  0  0  0  0
   -1.9710   20.8440  -27.5950 C   0  0  0  0  0  0  0  0  0  0  0  0
   -1.3360   20.2430  -28.6870 C   0  0  0  0  0  0  0  0  0  0  0  0
   -1.1380   20.9670  -29.8730 C   0  0  0  0  0  0  0  0  0  0  0  0
   -0.3410   20.2120  -31.2560 S   0  0  0  0  0  0  0  0  0  0  0  0
    1.1310   20.0940  -30.9710 O   0  0  0  0  0  0  0  0  0  0  0  0
   -0.8880   18.8230  -31.4430 O   0  0  0  0  0  0  0  0  0  0  0  0
   -0.5760   21.1270  -32.7310 N   0  0  0  0  0  0  0  0  0  0  0  0
   -1.9980   21.1970  -33.0950 C   0  0  0  0  0  0  0  0  0  0  0  0
   -2.2720   20.1700  -34.1880 C   0  0  0  0  0  0  0  0  0  0  0  0
   -0.9150   19.6290  -34.6020 C   0  0  0  0  0  0  0  0  0  0  0  0
    0.1040   20.4800  -33.8600 C   0  0  0  0  0  0  0  0  0  0  0  0
   -1.5750   22.2970  -29.9530 C   0  0  0  0  0  0  0  0  0  0  0  0
   -4.5020   22.9160  -31.6200 C   0  0  0  0  0  0  0  0  0  0  0  0
   -5.6150   22.1140  -31.9150 C   0  0  0  0  0  0  0  0  0  0  0  0
   -5.4320   20.8660  -32.7430 C   0  0  0  0  0  0  0  0  0  0  0  0
   -6.3590   18.2844  -33.1814 H   0  0  0  0  0  0  0  0  0  0  0  0
   -7.3613   18.8195  -34.5728 H   0  0  0  0  0  0  0  0  0  0  0  0
   -5.5905   19.1212  -34.5728 H   0  0  0  0  0  0  0  0  0  0  0  0
   -8.5989   19.7182  -32.5886 H   0  0  0  0  0  0  0  0  0  0  0  0
   -7.2570   19.6083  -31.3929 H   0  0  0  0  0  0  0  0  0  0  0  0
   -8.7042   22.1087  -32.3773 H   0  0  0  0  0  0  0  0  0  0  0  0
   -8.6279   21.4301  -30.6976 H   0  0  0  0  0  0  0  0  0  0  0  0
   -7.9847   23.8470  -30.1428 H   0  0  0  0  0  0  0  0  0  0  0  0
   -5.2570   25.8840  -28.9150 H   0  0  0  0  0  0  0  0  0  0  0  0
   -2.9029   22.6403  -26.8175 H   0  0  0  0  0  0  0  0  0  0  0  0
   -2.1260   20.2730  -26.6677 H   0  0  0  0  0  0  0  0  0  0  0  0
   -0.9911   19.2009  -28.6160 H   0  0  0  0  0  0  0  0  0  0  0  0
   -2.6174   20.9743  -32.2137 H   0  0  0  0  0  0  0  0  0  0  0  0
   -2.2436   22.2060  -33.4577 H   0  0  0  0  0  0  0  0  0  0  0  0
   -2.9051   19.3584  -33.8001 H   0  0  0  0  0  0  0  0  0  0  0  0
   -2.8040   20.6193  -35.0395 H   0  0  0  0  0  0  0  0  0  0  0  0
   -0.8175   18.5723  -34.3123 H   0  0  0  0  0  0  0  0  0  0  0  0
   -0.7712   19.6767  -35.6915 H   0  0  0  0  0  0  0  0  0  0  0  0
    0.9207   19.8438  -33.4881 H   0  0  0  0  0  0  0  0  0  0  0  0
    0.5291   21.2386  -34.5337 H   0  0  0  0  0  0  0  0  0  0  0  0
   -1.4111   22.8721  -30.8763 H   0  0  0  0  0  0  0  0  0  0  0  0
   -3.5156   22.6519  -32.0290 H   0  0  0  0  0  0  0  0  0  0  0  0
   -4.7565   21.0918  -33.5813 H   0  0  0  0  0  0  0  0  0  0  0  0
   -5.0113   20.0851  -32.0924 H   0  0  0  0  0  0  0  0  0  0  0  0
  1  2  1  0
  2  3  1  0
  3  4  1  0
  4  5  1  0
  5  6  2  0
  6  7  1  0
  7  8  1  0
  7  9  2  0
  9 10  1  0
 10 11  1  0
 11 12  2  0
 11 13  2  0
 11 14  1  0
 14 15  2  0
 15 16  1  0
 16 17  2  0
 17 18  1  0
 18 19  1  0
 19 20  2  0
 19 21  2  0
 19 22  1  0
 22 23  1  0
 23 24  1  0
 24 25  1  0
 25 26  1  0
 18 27  2  0
  9 28  1  0
 28 29  2  0
 29 30  1  0
 30  2  1  0
 29  5  1  0
 27 14  1  0
 26 22  1  0
  1 31  1  0
  1 32  1  0
  1 33  1  0
  3 34  1  0
  3 35  1  0
  4 36  1  0
  4 37  1  0
  6 38  1  0
  8 39  1  0
 15 40  1  0
 16 41  1  0
 17 42  1  0
 23 43  1  0
 23 44  1  0
 24 45  1  0
 24 46  1  0
 25 47  1  0
 25 48  1  0
 26 49  1  0
 26 50  1  0
 27 51  1  0
 28 52  1  0
 30 53  1  0
 30 54  1  0
M  CHG  1  10  -1
M  END
>  <UniqueID>  (18) 
18

>  <SMILES>  (18) 
CN1CCc2cc(O)c([N-]S(=O)(=O)c3cccc(S(=O)(=O)N4CCCC4)c3)cc2C1

>  <Energy>  (18) 
65.12471271472869

>  <Genealogy>  (18) 
CN1CCc2cc(O)c([N-]S(=O)(=O)c3cccc(S(=O)(=O)N4CCCC4)c3)cc2C1 (protonated)
CN1CCc2cc(O)c([N-]S(=O)(=O)c3cccc(S(=O)(=O)N4CCCC4)c3)cc2C1 (3D coordinates assigned)
CN1CCc2cc(O)c([N-]S(=O)(=O)c3cccc(S(=O)(=O)N4CCCC4)c3)cc2C1 (nonaromatic ring conformer: 65.12471271472869 kcal/mol)

>  <smiles>  (18) 
CN1CCc2cc(O)c(NS(=O)(=O)c3cccc(S(=O)(=O)N4CCCC4)c3)cc2C1

>  <score_type>  (18) 
oracle

>  <origin>  (18) 
adgpu

>  <m_score__min__energy>  (18) 
-13.109999999999999

>  <m_primary>  (18) 
energy

$$$$
18:0
     RDKit          3D

 47 50  0  0  0  0  0  0  0  0999 V2000
   -7.2880   20.2590  -33.8690 O   0  0  0  0  0  0  0  0  0  0  0  0
   -6.3690   19.7340  -33.1820 C   0  0  0  0  0  0  0  0  0  0  0  0
   -5.4470   20.6050  -32.4200 C   0  0  0  0  0  0  0  0  0  0  0  0
   -4.2350   20.0970  -31.9190 C   0  0  0  0  0  0  0  0  0  0  0  0
   -3.3590   20.9200  -31.2070 C   0  0  0  0  0  0  0  0  0  0  0  0
   -3.6760   22.2720  -30.9940 C   0  0  0  0  0  0  0  0  0  0  0  0
   -2.8320   23.1440  -30.2850 C   0  0  0  0  0  0  0  0  0  0  0  0
   -1.7410   22.7270  -29.8060 O   0  0  0  0  0  0  0  0  0  0  0  0
   -3.1920   24.4480  -30.1140 N   0  0  0  0  0  0  0  0  0  0  0  0
   -2.3590   25.2980  -29.4180 O   0  0  0  0  0  0  0  0  0  0  0  0
   -4.3640   24.9210  -30.6240 C   0  0  0  0  0  0  0  0  0  0  0  0
   -4.6870   26.1280  -30.4590 O   0  0  0  0  0  0  0  0  0  0  0  0
   -5.1940   24.0950  -31.3120 N   0  0  0  0  0  0  0  0  0  0  0  0
   -4.8820   22.7900  -31.5080 C   0  0  0  0  0  0  0  0  0  0  0  0
   -5.7560   21.9610  -32.2210 C   0  0  0  0  0  0  0  0  0  0  0  0
   -6.2310   18.3010  -33.1700 N   0  0  0  0  0  0  0  0  0  0  0  0
   -6.1060   17.5750  -31.8990 C   0  0  0  0  0  0  0  0  0  0  0  0
   -5.0900   16.4420  -32.0560 C   0  0  0  0  0  0  0  0  0  0  0  0
   -5.4100   15.4930  -33.2490 C   0  0  0  0  0  0  0  0  0  0  0  0
   -4.1400   15.1440  -34.0600 C   0  0  0  0  0  0  0  0  0  0  0  0
   -3.0520   16.1740  -33.8750 C   0  0  0  0  0  0  0  0  0  0  0  0
   -1.9340   15.8820  -33.0760 C   0  0  0  0  0  0  0  0  0  0  0  0
   -0.9330   16.8410  -32.8880 C   0  0  0  0  0  0  0  0  0  0  0  0
   -1.0420   18.0950  -33.4930 C   0  0  0  0  0  0  0  0  0  0  0  0
   -2.1510   18.3940  -34.2880 C   0  0  0  0  0  0  0  0  0  0  0  0
   -3.1540   17.4390  -34.4790 C   0  0  0  0  0  0  0  0  0  0  0  0
   -6.5190   16.0480  -34.1790 C   0  0  0  0  0  0  0  0  0  0  0  0
   -6.3790   17.5560  -34.4290 C   0  0  0  0  0  0  0  0  0  0  0  0
   -3.9744   19.0420  -32.0893 H   0  0  0  0  0  0  0  0  0  0  0  0
   -2.4185   20.5083  -30.8121 H   0  0  0  0  0  0  0  0  0  0  0  0
   -6.6908   22.3739  -32.6281 H   0  0  0  0  0  0  0  0  0  0  0  0
   -5.7658   18.2663  -31.1139 H   0  0  0  0  0  0  0  0  0  0  0  0
   -7.0833   17.1547  -31.6195 H   0  0  0  0  0  0  0  0  0  0  0  0
   -4.0956   16.8838  -32.2175 H   0  0  0  0  0  0  0  0  0  0  0  0
   -5.1290   15.8378  -31.1376 H   0  0  0  0  0  0  0  0  0  0  0  0
   -5.7986   14.5664  -32.8013 H   0  0  0  0  0  0  0  0  0  0  0  0
   -3.7634   14.1655  -33.7271 H   0  0  0  0  0  0  0  0  0  0  0  0
   -4.4116   15.1233  -35.1257 H   0  0  0  0  0  0  0  0  0  0  0  0
   -1.8454   14.8959  -32.5966 H   0  0  0  0  0  0  0  0  0  0  0  0
   -0.0588   16.6070  -32.2627 H   0  0  0  0  0  0  0  0  0  0  0  0
   -0.2540   18.8478  -33.3434 H   0  0  0  0  0  0  0  0  0  0  0  0
   -2.2352   19.3820  -34.7643 H   0  0  0  0  0  0  0  0  0  0  0  0
   -4.0265   17.6786  -35.1045 H   0  0  0  0  0  0  0  0  0  0  0  0
   -6.4640   15.5241  -35.1447 H   0  0  0  0  0  0  0  0  0  0  0  0
   -7.4858   15.8809  -33.6816 H   0  0  0  0  0  0  0  0  0  0  0  0
   -5.4923   17.7334  -35.0553 H   0  0  0  0  0  0  0  0  0  0  0  0
   -7.2916   17.9079  -34.9323 H   0  0  0  0  0  0  0  0  0  0  0  0
  1  2  2  0
  2  3  1  0
  3  4  2  0
  4  5  1  0
  5  6  2  0
  6  7  1  0
  7  8  2  0
  7  9  1  0
  9 10  1  0
  9 11  1  0
 11 12  2  0
 11 13  1  0
 13 14  1  0
 14 15  2  0
  2 16  1  0
 16 17  1  0
 17 18  1  0
 18 19  1  0
 19 20  1  0
 20 21  1  0
 21 22  2  0
 22 23  1  0
 23 24  2  0
 24 25  1  0
 25 26  2  0
 19 27  1  0
 27 28  1  0
 15  3  1  0
 28 16  1  0
 14  6  1  0
 26 21  1  0
  4 29  1  0
  5 30  1  0
 15 31  1  0
 17 32  1  0
 17 33  1  0
 18 34  1  0
 18 35  1  0
 19 36  1  0
 20 37  1  0
 20 38  1  0
 22 39  1  0
 23 40  1  0
 24 41  1  0
 25 42  1  0
 26 43  1  0
 27 44  1  0
 27 45  1  0
 28 46  1  0
 28 47  1  0
M  CHG  2  10  -1  13  -1
M  END
>  <UniqueID>  (19) 
19

>  <SMILES>  (19) 
O=C(c1ccc2c(=O)n([O-])c(=O)[n-]c2c1)N1CCC(Cc2ccccc2)CC1

>  <Energy>  (19) 
62.052827541571446

>  <Genealogy>  (19) 
O=C(c1ccc2c(=O)n([O-])c(=O)[n-]c2c1)N1CCC(Cc2ccccc2)CC1 (protonated)
O=C(c1ccc2c(=O)n([O-])c(=O)[n-]c2c1)N1CCC(Cc2ccccc2)CC1 (3D coordinates assigned)
O=C(c1ccc2c(=O)n([O-])c(=O)[n-]c2c1)N1CCC(Cc2ccccc2)CC1 (nonaromatic ring conformer: 62.052827541571446 kcal/mol)

>  <smiles>  (19) 
O=C(c1ccc2c(=O)n(O)c(=O)[nH]c2c1)N1CCC(Cc2ccccc2)CC1

>  <score_type>  (19) 
oracle

>  <origin>  (19) 
adgpu

>  <m_score__min__energy>  (19) 
-13.890000000000001

>  <m_primary>  (19) 
energy

$$$$
19:0
     RDKit          3D

 53 57  0  0  0  0  0  0  0  0999 V2000
   -3.4590   18.5660  -26.3860 C   0  0  0  0  0  0  0  0  0  0  0  0
   -2.2530   19.4490  -26.3120 C   0  0  0  0  0  0  0  0  0  0  0  0
   -1.9540   19.9810  -25.2090 O   0  0  0  0  0  0  0  0  0  0  0  0
   -1.4070   19.6700  -27.4530 N   0  0  0  0  0  0  0  0  0  0  0  0
   -0.4380   18.6820  -27.9240 C   0  0  0  0  0  0  0  0  0  0  0  0
    0.0260   19.1680  -29.3180 C   0  0  0  0  0  0  0  0  0  0  0  0
   -0.6920   20.4600  -29.4940 C   0  0  0  0  0  0  0  0  0  0  0  0
   -0.5650   21.3730  -30.5420 C   0  0  0  0  0  0  0  0  0  0  0  0
   -1.2570   22.5920  -30.4610 C   0  0  0  0  0  0  0  0  0  0  0  0
   -2.0400   22.8900  -29.3220 C   0  0  0  0  0  0  0  0  0  0  0  0
   -2.7380   24.4970  -29.0980 S   0  0  0  0  0  0  0  0  0  0  0  0
   -1.6240   25.5020  -29.0240 O   0  0  0  0  0  0  0  0  0  0  0  0
   -3.5540   24.5610  -27.8320 O   0  0  0  0  0  0  0  0  0  0  0  0
   -3.7500   24.8580  -30.4650 N   0  0  0  0  0  0  0  0  0  0  0  0
   -4.7600   23.9520  -30.9240 C   0  0  0  0  0  0  0  0  0  0  0  0
   -4.4980   22.5580  -30.8940 C   0  0  0  0  0  0  0  0  0  0  0  0
   -5.5250   21.6320  -31.1620 C   0  0  0  0  0  0  0  0  0  0  0  0
   -6.7880   22.1410  -31.4890 C   0  0  0  0  0  0  0  0  0  0  0  0
   -7.0260   23.4820  -31.5870 C   0  0  0  0  0  0  0  0  0  0  0  0
   -6.0380   24.4230  -31.3140 C   0  0  0  0  0  0  0  0  0  0  0  0
   -8.3230   23.7180  -31.8660 N   0  0  0  0  0  0  0  0  0  0  0  0
   -8.8550   22.4680  -31.9230 C   0  0  0  0  0  0  0  0  0  0  0  0
   -7.9440   21.4850  -31.6970 N   0  0  0  0  0  0  0  0  0  0  0  0
   -8.2370   20.0760  -31.4280 C   0  0  0  0  0  0  0  0  0  0  0  0
   -7.4550   19.2030  -32.3780 C   0  0  0  0  0  0  0  0  0  0  0  0
   -6.8580   19.7520  -33.5280 C   0  0  0  0  0  0  0  0  0  0  0  0
   -6.0760   18.9490  -34.3700 C   0  0  0  0  0  0  0  0  0  0  0  0
   -5.8810   17.5960  -34.0660 C   0  0  0  0  0  0  0  0  0  0  0  0
   -6.4640   17.0450  -32.9200 C   0  0  0  0  0  0  0  0  0  0  0  0
   -7.2490   17.8440  -32.0770 C   0  0  0  0  0  0  0  0  0  0  0  0
   -2.1510   21.9450  -28.2820 C   0  0  0  0  0  0  0  0  0  0  0  0
   -1.4900   20.7170  -28.4130 C   0  0  0  0  0  0  0  0  0  0  0  0
   -3.7959   18.3194  -25.3683 H   0  0  0  0  0  0  0  0  0  0  0  0
   -4.2644   19.0895  -26.9220 H   0  0  0  0  0  0  0  0  0  0  0  0
   -3.2032   17.6401  -26.9220 H   0  0  0  0  0  0  0  0  0  0  0  0
    0.4173   18.6271  -27.2345 H   0  0  0  0  0  0  0  0  0  0  0  0
   -0.8814   17.6766  -27.9756 H   0  0  0  0  0  0  0  0  0  0  0  0
    1.1155   19.3179  -29.3393 H   0  0  0  0  0  0  0  0  0  0  0  0
   -0.1922   18.4449  -30.1177 H   0  0  0  0  0  0  0  0  0  0  0  0
    0.0646   21.1422  -31.4139 H   0  0  0  0  0  0  0  0  0  0  0  0
   -1.1898   23.3169  -31.2856 H   0  0  0  0  0  0  0  0  0  0  0  0
   -3.4854   22.1977  -30.6597 H   0  0  0  0  0  0  0  0  0  0  0  0
   -5.3416   20.5484  -31.1161 H   0  0  0  0  0  0  0  0  0  0  0  0
   -6.2431   25.5004  -31.3985 H   0  0  0  0  0  0  0  0  0  0  0  0
   -9.9171   22.2718  -32.1313 H   0  0  0  0  0  0  0  0  0  0  0  0
   -7.9538   19.8349  -30.3928 H   0  0  0  0  0  0  0  0  0  0  0  0
   -9.3128   19.8946  -31.5687 H   0  0  0  0  0  0  0  0  0  0  0  0
   -7.0055   20.8155  -33.7672 H   0  0  0  0  0  0  0  0  0  0  0  0
   -5.6152   19.3820  -35.2701 H   0  0  0  0  0  0  0  0  0  0  0  0
   -5.2692   16.9663  -34.7286 H   0  0  0  0  0  0  0  0  0  0  0  0
   -6.3062   15.9832  -32.6799 H   0  0  0  0  0  0  0  0  0  0  0  0
   -7.7057   17.4069  -31.1768 H   0  0  0  0  0  0  0  0  0  0  0  0
   -2.7458   22.1678  -27.3839 H   0  0  0  0  0  0  0  0  0  0  0  0
  1  2  1  0
  2  3  2  0
  2  4  1  0
  4  5  1  0
  5  6  1  0
  6  7  1  0
  7  8  2  0
  8  9  1  0
  9 10  2  0
 10 11  1  0
 11 12  2  0
 11 13  2  0
 11 14  1  0
 14 15  1  0
 15 16  2  0
 16 17  1  0
 17 18  2  0
 18 19  1  0
 19 20  2  0
 19 21  1  0
 21 22  2  0
 22 23  1  0
 23 24  1  0
 24 25  1  0
 25 26  2  0
 26 27  1  0
 27 28  2  0
 28 29  1  0
 29 30  2  0
 10 31  1  0
 31 32  2  0
 32  4  1  0
 32  7  1  0
 20 15  1  0
 30 25  1  0
 23 18  1  0
  1 33  1  0
  1 34  1  0
  1 35  1  0
  5 36  1  0
  5 37  1  0
  6 38  1  0
  6 39  1  0
  8 40  1  0
  9 41  1  0
 16 42  1  0
 17 43  1  0
 20 44  1  0
 22 45  1  0
 24 46  1  0
 24 47  1  0
 26 48  1  0
 27 49  1  0
 28 50  1  0
 29 51  1  0
 30 52  1  0
 31 53  1  0
M  CHG  1  14  -1
M  END
>  <UniqueID>  (20) 
20

>  <SMILES>  (20) 
CC(=O)N1CCc2ccc(S(=O)(=O)[N-]c3ccc4c(c3)ncn4Cc3ccccc3)cc21

>  <Energy>  (20) 
114.5136545592301

>  <Genealogy>  (20) 
CC(=O)N1CCc2ccc(S(=O)(=O)[N-]c3ccc4c(c3)ncn4Cc3ccccc3)cc21 (protonated)
CC(=O)N1CCc2ccc(S(=O)(=O)[N-]c3ccc4c(c3)ncn4Cc3ccccc3)cc21 (3D coordinates assigned)
CC(=O)N1CCc2ccc(S(=O)(=O)[N-]c3ccc4c(c3)ncn4Cc3ccccc3)cc21 (nonaromatic ring conformer: 114.5136545592301 kcal/mol)

>  <smiles>  (20) 
CC(=O)N1CCc2ccc(S(=O)(=O)Nc3ccc4c(c3)ncn4Cc3ccccc3)cc21

>  <score_type>  (20) 
oracle

>  <origin>  (20) 
adgpu

>  <m_score__min__energy>  (20) 
-12.470000000000001

>  <m_primary>  (20) 
energy

$$$$
20:0
     RDKit          3D

 42 44  0  0  0  0  0  0  0  0999 V2000
   -4.9600   25.6770  -31.2120 O   0  0  0  0  0  0  0  0  0  0  0  0
   -5.6600   24.9770  -30.0820 S   0  0  0  0  0  0  0  0  0  0  0  0
   -6.7860   25.8440  -29.5930 O   0  0  0  0  0  0  0  0  0  0  0  0
   -4.5320   24.7210  -28.7870 N   0  0  0  0  0  0  0  0  0  0  0  0
   -3.4190   23.8100  -28.8620 C   0  0  0  0  0  0  0  0  0  0  0  0
   -3.5890   22.4230  -28.6740 C   0  0  0  0  0  0  0  0  0  0  0  0
   -2.4940   21.5570  -28.7460 C   0  0  0  0  0  0  0  0  0  0  0  0
   -2.6710   20.2260  -28.5620 F   0  0  0  0  0  0  0  0  0  0  0  0
   -1.2190   22.0600  -29.0110 C   0  0  0  0  0  0  0  0  0  0  0  0
   -1.0370   23.4310  -29.2080 C   0  0  0  0  0  0  0  0  0  0  0  0
   -2.1270   24.3050  -29.1350 C   0  0  0  0  0  0  0  0  0  0  0  0
   -1.9170   25.6650  -29.3300 O   0  0  0  0  0  0  0  0  0  0  0  0
   -6.3250   23.4370  -30.6170 C   0  0  0  0  0  0  0  0  0  0  0  0
   -7.5640   22.9920  -30.1360 C   0  0  0  0  0  0  0  0  0  0  0  0
   -8.0920   21.7760  -30.5760 C   0  0  0  0  0  0  0  0  0  0  0  0
   -7.3880   20.9950  -31.5020 C   0  0  0  0  0  0  0  0  0  0  0  0
   -8.0380   19.4510  -32.0450 S   0  0  0  0  0  0  0  0  0  0  0  0
   -8.6890   18.7390  -30.8910 O   0  0  0  0  0  0  0  0  0  0  0  0
   -9.0770   19.6980  -33.1020 O   0  0  0  0  0  0  0  0  0  0  0  0
   -6.7460   18.4850  -32.7130 N   0  0  0  0  0  0  0  0  0  0  0  0
   -7.2050   17.1360  -33.0370 C   0  0  0  0  0  0  0  0  0  0  0  0
   -6.3120   16.6330  -34.1600 C   0  0  0  0  0  0  0  0  0  0  0  0
   -5.7030   17.8820  -34.7780 C   0  0  0  0  0  0  0  0  0  0  0  0
   -6.2600   19.0450  -33.9730 C   0  0  0  0  0  0  0  0  0  0  0  0
   -6.1440   21.4330  -31.9730 C   0  0  0  0  0  0  0  0  0  0  0  0
   -5.6140   22.6500  -31.5320 C   0  0  0  0  0  0  0  0  0  0  0  0
   -4.7390   25.2070  -27.8870 H   0  0  0  0  0  0  0  0  0  0  0  0
   -4.5914   22.0191  -28.4690 H   0  0  0  0  0  0  0  0  0  0  0  0
   -0.3582   21.3772  -29.0647 H   0  0  0  0  0  0  0  0  0  0  0  0
   -0.0324   23.8250  -29.4214 H   0  0  0  0  0  0  0  0  0  0  0  0
   -8.1219   23.6019  -29.4102 H   0  0  0  0  0  0  0  0  0  0  0  0
   -9.0640   21.4303  -30.1942 H   0  0  0  0  0  0  0  0  0  0  0  0
   -7.1135   16.4821  -32.1572 H   0  0  0  0  0  0  0  0  0  0  0  0
   -8.2622   17.1383  -33.3408 H   0  0  0  0  0  0  0  0  0  0  0  0
   -5.5242   15.9769  -33.7614 H   0  0  0  0  0  0  0  0  0  0  0  0
   -6.8745   16.0425  -34.8982 H   0  0  0  0  0  0  0  0  0  0  0  0
   -4.6060   17.8526  -34.7028 H   0  0  0  0  0  0  0  0  0  0  0  0
   -5.9482   17.9702  -35.8467 H   0  0  0  0  0  0  0  0  0  0  0  0
   -5.4701   19.7858  -33.7797 H   0  0  0  0  0  0  0  0  0  0  0  0
   -7.0677   19.5548  -34.5186 H   0  0  0  0  0  0  0  0  0  0  0  0
   -5.5822   20.8183  -32.6917 H   0  0  0  0  0  0  0  0  0  0  0  0
   -4.6364   22.9899  -31.9046 H   0  0  0  0  0  0  0  0  0  0  0  0
  1  2  2  0
  2  3  2  0
  2  4  1  0
  4  5  1  0
  5  6  2  0
  6  7  1  0
  7  8  1  0
  7  9  2  0
  9 10  1  0
 10 11  2  0
 11 12  1  0
  2 13  1  0
 13 14  2  0
 14 15  1  0
 15 16  2  0
 16 17  1  0
 17 18  2  0
 17 19  2  0
 17 20  1  0
 20 21  1  0
 21 22  1  0
 22 23  1  0
 23 24  1  0
 16 25  1  0
 25 26  2  0
 11  5  1  0
 26 13  1  0
 24 20  1  0
  4 27  1  0
  6 28  1  0
  9 29  1  0
 10 30  1  0
 14 31  1  0
 15 32  1  0
 21 33  1  0
 21 34  1  0
 22 35  1  0
 22 36  1  0
 23 37  1  0
 23 38  1  0
 24 39  1  0
 24 40  1  0
 25 41  1  0
 26 42  1  0
M  CHG  1  12  -1
M  END
>  <UniqueID>  (21) 
21

>  <SMILES>  (21) 
O=S(=O)(Nc1cc(F)ccc1[O-])c1ccc(S(=O)(=O)N2CCCC2)cc1

>  <Energy>  (21) 
47.24433812810865

>  <Genealogy>  (21) 
O=S(=O)(Nc1cc(F)ccc1[O-])c1ccc(S(=O)(=O)N2CCCC2)cc1 (protonated)
O=S(=O)(Nc1cc(F)ccc1[O-])c1ccc(S(=O)(=O)N2CCCC2)cc1 (3D coordinates assigned)
O=S(=O)(Nc1cc(F)ccc1[O-])c1ccc(S(=O)(=O)N2CCCC2)cc1 (nonaromatic ring conformer: 47.24433812810865 kcal/mol)

>  <smiles>  (21) 
O=S(=O)(Nc1cc(F)ccc1O)c1ccc(S(=O)(=O)N2CCCC2)cc1

>  <score_type>  (21) 
oracle

>  <origin>  (21) 
adgpu

>  <m_score__min__energy>  (21) 
-13.56

>  <m_primary>  (21) 
energy

$$$$
21:0
     RDKit          3D

 54 57  0  0  0  0  0  0  0  0999 V2000
   -0.8470   16.9120  -32.6220 C   0  0  0  0  0  0  0  0  0  0  0  0
   -0.1780   17.7490  -31.6860 O   0  0  0  0  0  0  0  0  0  0  0  0
   -0.6600   19.0070  -31.3170 C   0  0  0  0  0  0  0  0  0  0  0  0
   -0.8870   19.9690  -32.2520 N   0  0  0  0  0  0  0  0  0  0  0  0
   -1.3540   21.1930  -31.8980 C   0  0  0  0  0  0  0  0  0  0  0  0
   -1.6070   21.4830  -30.5530 C   0  0  0  0  0  0  0  0  0  0  0  0
   -2.1150   22.8150  -30.1560 C   0  0  0  0  0  0  0  0  0  0  0  0
   -1.3270   23.6600  -29.3330 C   0  0  0  0  0  0  0  0  0  0  0  0
    0.0320   23.2220  -28.8300 C   0  0  0  0  0  0  0  0  0  0  0  0
    0.8150   24.3530  -28.5690 O   0  0  0  0  0  0  0  0  0  0  0  0
   -1.8580   24.9030  -28.9320 C   0  0  0  0  0  0  0  0  0  0  0  0
   -1.2030   25.6660  -28.1730 O   0  0  0  0  0  0  0  0  0  0  0  0
   -3.0830   25.2940  -29.3580 N   0  0  0  0  0  0  0  0  0  0  0  0
   -3.8540   24.5210  -30.1630 C   0  0  0  0  0  0  0  0  0  0  0  0
   -5.1080   24.9860  -30.5700 C   0  0  0  0  0  0  0  0  0  0  0  0
   -5.9190   24.1970  -31.3880 C   0  0  0  0  0  0  0  0  0  0  0  0
   -5.4880   22.9250  -31.7970 C   0  0  0  0  0  0  0  0  0  0  0  0
   -6.2710   22.1120  -32.6310 O   0  0  0  0  0  0  0  0  0  0  0  0
   -6.0860   20.7360  -32.8300 C   0  0  0  0  0  0  0  0  0  0  0  0
   -4.9340   20.2220  -33.4520 C   0  0  0  0  0  0  0  0  0  0  0  0
   -4.7930   18.8450  -33.6460 C   0  0  0  0  0  0  0  0  0  0  0  0
   -5.8060   17.9690  -33.2370 C   0  0  0  0  0  0  0  0  0  0  0  0
   -5.6170   16.2330  -33.4630 S   0  0  0  0  0  0  0  0  0  0  0  0
   -4.2730   15.9280  -34.5880 C   0  0  0  0  0  0  0  0  0  0  0  0
   -5.3250   15.5740  -32.1440 O   0  0  0  0  0  0  0  0  0  0  0  0
   -6.8850   15.6520  -34.0230 O   0  0  0  0  0  0  0  0  0  0  0  0
   -6.9610   18.4800  -32.6290 C   0  0  0  0  0  0  0  0  0  0  0  0
   -7.1020   19.8580  -32.4370 C   0  0  0  0  0  0  0  0  0  0  0  0
   -4.2250   22.4660  -31.4070 C   0  0  0  0  0  0  0  0  0  0  0  0
   -3.3920   23.2530  -30.5830 C   0  0  0  0  0  0  0  0  0  0  0  0
   -1.3720   20.4820  -29.6020 C   0  0  0  0  0  0  0  0  0  0  0  0
   -1.6220   20.7330  -28.2480 O   0  0  0  0  0  0  0  0  0  0  0  0
   -2.6820   20.1110  -27.5320 C   0  0  0  0  0  0  0  0  0  0  0  0
   -0.9030   19.2690  -30.0060 N   0  0  0  0  0  0  0  0  0  0  0  0
   -1.4454   16.1633  -32.0822 H   0  0  0  0  0  0  0  0  0  0  0  0
   -1.5080   17.5235  -33.2538 H   0  0  0  0  0  0  0  0  0  0  0  0
   -0.1048   16.4020  -33.2538 H   0  0  0  0  0  0  0  0  0  0  0  0
   -1.5336   21.9571  -32.6686 H   0  0  0  0  0  0  0  0  0  0  0  0
   -0.0890   22.6376  -27.9060 H   0  0  0  0  0  0  0  0  0  0  0  0
    0.5245   22.6006  -29.5924 H   0  0  0  0  0  0  0  0  0  0  0  0
    0.2660   24.9420  -27.9900 H   0  0  0  0  0  0  0  0  0  0  0  0
   -5.4570   25.9771  -30.2446 H   0  0  0  0  0  0  0  0  0  0  0  0
   -6.8999   24.5737  -31.7134 H   0  0  0  0  0  0  0  0  0  0  0  0
   -4.1408   20.9065  -33.7871 H   0  0  0  0  0  0  0  0  0  0  0  0
   -3.8837   18.4483  -34.1213 H   0  0  0  0  0  0  0  0  0  0  0  0
   -3.3564   15.7200  -34.0165 H   0  0  0  0  0  0  0  0  0  0  0  0
   -4.5145   15.0618  -35.2216 H   0  0  0  0  0  0  0  0  0  0  0  0
   -4.1170   16.8136  -35.2216 H   0  0  0  0  0  0  0  0  0  0  0  0
   -7.7580   17.7958  -32.3023 H   0  0  0  0  0  0  0  0  0  0  0  0
   -8.0177   20.2543  -31.9739 H   0  0  0  0  0  0  0  0  0  0  0  0
   -3.8769   21.4794  -31.7469 H   0  0  0  0  0  0  0  0  0  0  0  0
   -2.5050   20.2149  -26.4513 H   0  0  0  0  0  0  0  0  0  0  0  0
   -3.6349   20.5932  -27.7955 H   0  0  0  0  0  0  0  0  0  0  0  0
   -2.7258   19.0439  -27.7955 H   0  0  0  0  0  0  0  0  0  0  0  0
  1  2  1  0
  2  3  1  0
  3  4  2  0
  4  5  1  0
  5  6  2  0
  6  7  1  0
  7  8  2  0
  8  9  1  0
  9 10  1  0
  8 11  1  0
 11 12  2  0
 11 13  1  0
 13 14  1  0
 14 15  2  0
 15 16  1  0
 16 17  2  0
 17 18  1  0
 18 19  1  0
 19 20  2  0
 20 21  1  0
 21 22  2  0
 22 23  1  0
 23 24  1  0
 23 25  2  0
 23 26  2  0
 22 27  1  0
 27 28  2  0
 17 29  1  0
 29 30  2  0
  6 31  1  0
 31 32  1  0
 32 33  1  0
 31 34  2  0
 34  3  1  0
 30  7  1  0
 30 14  1  0
 28 19  1  0
  1 35  1  0
  1 36  1  0
  1 37  1  0
  5 38  1  0
  9 39  1  0
  9 40  1  0
 10 41  1  0
 15 42  1  0
 16 43  1  0
 20 44  1  0
 21 45  1  0
 24 46  1  0
 24 47  1  0
 24 48  1  0
 27 49  1  0
 28 50  1  0
 29 51  1  0
 33 52  1  0
 33 53  1  0
 33 54  1  0
M  CHG  1  13  -1
M  END
>  <UniqueID>  (22) 
22

>  <SMILES>  (22) 
COc1ncc(-c2c(CO)c(=O)[n-]c3ccc(Oc4ccc(S(C)(=O)=O)cc4)cc23)c(OC)n1

>  <Energy>  (22) 
72.85351232602225

>  <Genealogy>  (22) 
COc1ncc(-c2c(CO)c(=O)[n-]c3ccc(Oc4ccc(S(C)(=O)=O)cc4)cc23)c(OC)n1 (protonated)
COc1ncc(-c2c(CO)c(=O)[n-]c3ccc(Oc4ccc(S(C)(=O)=O)cc4)cc23)c(OC)n1 (3D coordinates assigned)
COc1ncc(-c2c(CO)c(=O)[n-]c3ccc(Oc4ccc(S(C)(=O)=O)cc4)cc23)c(OC)n1 (optimized conformer: 72.85351232602225 kcal/mol)

>  <smiles>  (22) 
COc1ncc(-c2c(CO)c(=O)[nH]c3ccc(Oc4ccc(S(C)(=O)=O)cc4)cc23)c(OC)n1

>  <score_type>  (22) 
oracle

>  <origin>  (22) 
adgpu

>  <m_score__min__energy>  (22) 
-9.9900000000000002

>  <m_primary>  (22) 
energy

$$$$
22:0
     RDKit          3D

 50 53  0  0  0  0  0  0  0  0999 V2000
   -3.5760   16.2870  -34.2450 C   0  0  0  0  0  0  0  0  0  0  0  0
   -4.1960   17.3450  -33.4290 N   0  0  0  0  0  0  0  0  0  0  0  0
   -5.5260   16.9280  -32.9200 C   0  0  0  0  0  0  0  0  0  0  0  0
   -6.6860   17.5140  -33.7430 C   0  0  0  0  0  0  0  0  0  0  0  0
   -6.6400   18.9940  -33.8260 N   0  0  0  0  0  0  0  0  0  0  0  0
   -7.7810   19.7270  -32.7220 S   0  0  0  0  0  0  0  0  0  0  0  0
   -8.0820   18.7760  -31.5960 O   0  0  0  0  0  0  0  0  0  0  0  0
   -9.0560   20.0480  -33.4550 O   0  0  0  0  0  0  0  0  0  0  0  0
   -7.0940   21.2010  -32.0480 C   0  0  0  0  0  0  0  0  0  0  0  0
   -7.2950   22.4260  -32.7000 C   0  0  0  0  0  0  0  0  0  0  0  0
   -6.7500   23.6000  -32.1740 C   0  0  0  0  0  0  0  0  0  0  0  0
   -5.9900   23.5580  -30.9950 C   0  0  0  0  0  0  0  0  0  0  0  0
   -5.2550   25.0260  -30.3580 S   0  0  0  0  0  0  0  0  0  0  0  0
   -5.7310   26.2240  -31.1300 O   0  0  0  0  0  0  0  0  0  0  0  0
   -5.6770   25.1900  -28.9240 O   0  0  0  0  0  0  0  0  0  0  0  0
   -3.5230   24.9620  -30.4270 N   0  0  0  0  0  0  0  0  0  0  0  0
   -2.7150   24.2610  -29.4750 C   0  0  0  0  0  0  0  0  0  0  0  0
   -3.0680   22.9670  -29.0320 C   0  0  0  0  0  0  0  0  0  0  0  0
   -2.2490   22.3470  -28.0920 C   0  0  0  0  0  0  0  0  0  0  0  0
   -1.1310   22.9580  -27.5790 C   0  0  0  0  0  0  0  0  0  0  0  0
   -0.7720   24.2460  -27.9810 C   0  0  0  0  0  0  0  0  0  0  0  0
   -1.5750   24.9040  -28.9320 C   0  0  0  0  0  0  0  0  0  0  0  0
   -1.2360   26.1900  -29.3430 O   0  0  0  0  0  0  0  0  0  0  0  0
   -0.4650   22.0690  -26.5690 C   0  0  0  0  0  0  0  0  0  0  0  0
   -1.3060   20.9070  -26.5500 O   0  0  0  0  0  0  0  0  0  0  0  0
   -2.3580   21.0660  -27.4440 C   0  0  0  0  0  0  0  0  0  0  0  0
   -3.2580   20.2070  -27.6420 O   0  0  0  0  0  0  0  0  0  0  0  0
   -5.7820   22.3330  -30.3480 C   0  0  0  0  0  0  0  0  0  0  0  0
   -6.3330   21.1590  -30.8720 C   0  0  0  0  0  0  0  0  0  0  0  0
   -5.2940   19.5640  -33.6180 C   0  0  0  0  0  0  0  0  0  0  0  0
   -4.2150   18.6280  -34.1710 C   0  0  0  0  0  0  0  0  0  0  0  0
   -3.1312   15.5279  -33.5847 H   0  0  0  0  0  0  0  0  0  0  0  0
   -4.3418   15.8174  -34.8798 H   0  0  0  0  0  0  0  0  0  0  0  0
   -2.7920   16.7256  -34.8798 H   0  0  0  0  0  0  0  0  0  0  0  0
   -5.5883   15.8303  -32.9557 H   0  0  0  0  0  0  0  0  0  0  0  0
   -5.6226   17.3073  -31.8920 H   0  0  0  0  0  0  0  0  0  0  0  0
   -6.6370   17.1029  -34.7621 H   0  0  0  0  0  0  0  0  0  0  0  0
   -7.6235   17.2391  -33.2374 H   0  0  0  0  0  0  0  0  0  0  0  0
   -7.8836   22.4628  -33.6285 H   0  0  0  0  0  0  0  0  0  0  0  0
   -6.9170   24.5596  -32.6852 H   0  0  0  0  0  0  0  0  0  0  0  0
   -3.9657   22.4627  -29.4192 H   0  0  0  0  0  0  0  0  0  0  0  0
    0.1197   24.7364  -27.5634 H   0  0  0  0  0  0  0  0  0  0  0  0
    0.5570   21.8111  -26.8836 H   0  0  0  0  0  0  0  0  0  0  0  0
   -0.3597   22.5415  -25.5813 H   0  0  0  0  0  0  0  0  0  0  0  0
   -5.1839   22.2943  -29.4256 H   0  0  0  0  0  0  0  0  0  0  0  0
   -6.1685   20.1998  -30.3594 H   0  0  0  0  0  0  0  0  0  0  0  0
   -5.2293   20.5334  -34.1339 H   0  0  0  0  0  0  0  0  0  0  0  0
   -5.1289   19.6929  -32.5381 H   0  0  0  0  0  0  0  0  0  0  0  0
   -4.4223   18.4270  -35.2324 H   0  0  0  0  0  0  0  0  0  0  0  0
   -3.2353   19.1147  -34.0560 H   0  0  0  0  0  0  0  0  0  0  0  0
  1  2  1  0
  2  3  1  0
  3  4  1  0
  4  5  1  0
  5  6  1  0
  6  7  2  0
  6  8  2  0
  6  9  1  0
  9 10  2  0
 10 11  1  0
 11 12  2  0
 12 13  1  0
 13 14  2  0
 13 15  2  0
 13 16  1  0
 16 17  1  0
 17 18  2  0
 18 19  1  0
 19 20  2  0
 20 21  1  0
 21 22  2  0
 22 23  1  0
 20 24  1  0
 24 25  1  0
 25 26  1  0
 26 27  2  0
 12 28  1  0
 28 29  2  0
  5 30  1  0
 30 31  1  0
 31  2  1  0
 29  9  1  0
 22 17  1  0
 26 19  1  0
  1 32  1  0
  1 33  1  0
  1 34  1  0
  3 35  1  0
  3 36  1  0
  4 37  1  0
  4 38  1  0
 10 39  1  0
 11 40  1  0
 18 41  1  0
 21 42  1  0
 24 43  1  0
 24 44  1  0
 28 45  1  0
 29 46  1  0
 30 47  1  0
 30 48  1  0
 31 49  1  0
 31 50  1  0
M  CHG  2  16  -1  23  -1
M  END
>  <UniqueID>  (23) 
23

>  <SMILES>  (23) 
CN1CCN(S(=O)(=O)c2ccc(S(=O)(=O)[N-]c3cc4c(cc3[O-])COC4=O)cc2)CC1

>  <Energy>  (23) 
95.07778612505523

>  <Genealogy>  (23) 
CN1CCN(S(=O)(=O)c2ccc(S(=O)(=O)[N-]c3cc4c(cc3[O-])COC4=O)cc2)CC1 (protonated)
CN1CCN(S(=O)(=O)c2ccc(S(=O)(=O)[N-]c3cc4c(cc3[O-])COC4=O)cc2)CC1 (3D coordinates assigned)
CN1CCN(S(=O)(=O)c2ccc(S(=O)(=O)[N-]c3cc4c(cc3[O-])COC4=O)cc2)CC1 (nonaromatic ring conformer: 95.07778612505523 kcal/mol)

>  <smiles>  (23) 
CN1CCN(S(=O)(=O)c2ccc(S(=O)(=O)Nc3cc4c(cc3O)COC4=O)cc2)CC1

>  <score_type>  (23) 
oracle

>  <origin>  (23) 
adgpu

>  <m_score__min__energy>  (23) 
-15.08

>  <m_primary>  (23) 
energy

$$$$
23:0
     RDKit          3D

 43 45  0  0  0  0  0  0  0  0999 V2000
   -6.1760   13.6060  -34.0340 C   0  0  0  0  0  0  0  0  0  0  0  0
   -4.7740   13.7120  -33.5940 N   0  0  0  0  0  0  0  0  0  0  0  0
   -4.6530   14.4530  -32.3210 C   0  0  0  0  0  0  0  0  0  0  0  0
   -5.0000   15.9430  -32.4910 C   0  0  0  0  0  0  0  0  0  0  0  0
   -4.4910   16.4540  -33.7700 N   0  0  0  0  0  0  0  0  0  0  0  0
   -5.1630   17.5400  -34.4390 C   0  0  0  0  0  0  0  0  0  0  0  0
   -5.3100   17.5010  -35.6920 O   0  0  0  0  0  0  0  0  0  0  0  0
   -5.7090   18.6910  -33.6870 C   0  0  0  0  0  0  0  0  0  0  0  0
   -7.0300   18.6570  -33.2080 C   0  0  0  0  0  0  0  0  0  0  0  0
   -7.5530   19.7450  -32.5030 C   0  0  0  0  0  0  0  0  0  0  0  0
   -6.7710   20.8860  -32.2830 C   0  0  0  0  0  0  0  0  0  0  0  0
   -7.4300   22.2410  -31.3730 S   0  0  0  0  0  0  0  0  0  0  0  0
   -8.0860   23.2240  -32.3010 O   0  0  0  0  0  0  0  0  0  0  0  0
   -8.4710   21.7300  -30.4150 O   0  0  0  0  0  0  0  0  0  0  0  0
   -6.1260   23.0370  -30.5030 C   0  0  0  0  0  0  0  0  0  0  0  0
   -5.8080   22.6740  -29.1870 C   0  0  0  0  0  0  0  0  0  0  0  0
   -4.7880   23.2970  -28.5360 N   0  0  0  0  0  0  0  0  0  0  0  0
   -4.0500   24.2740  -29.1280 C   0  0  0  0  0  0  0  0  0  0  0  0
   -3.1140   24.8230  -28.4890 O   0  0  0  0  0  0  0  0  0  0  0  0
   -4.3330   24.6630  -30.4430 C   0  0  0  0  0  0  0  0  0  0  0  0
   -3.5870   25.6590  -31.0640 O   0  0  0  0  0  0  0  0  0  0  0  0
   -5.3770   24.0390  -31.1300 C   0  0  0  0  0  0  0  0  0  0  0  0
   -5.4570   20.9290  -32.7690 C   0  0  0  0  0  0  0  0  0  0  0  0
   -4.9320   19.8410  -33.4740 C   0  0  0  0  0  0  0  0  0  0  0  0
   -3.4430   15.6940  -34.4540 C   0  0  0  0  0  0  0  0  0  0  0  0
   -3.8930   14.2370  -34.6710 C   0  0  0  0  0  0  0  0  0  0  0  0
   -6.8338   13.5563  -33.1538 H   0  0  0  0  0  0  0  0  0  0  0  0
   -6.4382   14.4869  -34.6384 H   0  0  0  0  0  0  0  0  0  0  0  0
   -6.3028   12.6957  -34.6384 H   0  0  0  0  0  0  0  0  0  0  0  0
   -5.3391   14.0095  -31.5844 H   0  0  0  0  0  0  0  0  0  0  0  0
   -3.6089   14.3818  -31.9822 H   0  0  0  0  0  0  0  0  0  0  0  0
   -6.0930   16.0642  -32.4635 H   0  0  0  0  0  0  0  0  0  0  0  0
   -4.5313   16.5098  -31.6731 H   0  0  0  0  0  0  0  0  0  0  0  0
   -7.6552   17.7702  -33.3887 H   0  0  0  0  0  0  0  0  0  0  0  0
   -8.5832   19.7048  -32.1194 H   0  0  0  0  0  0  0  0  0  0  0  0
   -6.3832   21.8852  -28.6801 H   0  0  0  0  0  0  0  0  0  0  0  0
   -5.6102   24.3351  -32.1634 H   0  0  0  0  0  0  0  0  0  0  0  0
   -4.8369   21.8209  -32.5955 H   0  0  0  0  0  0  0  0  0  0  0  0
   -3.9044   19.8865  -33.8639 H   0  0  0  0  0  0  0  0  0  0  0  0
   -3.2358   16.1587  -35.4293 H   0  0  0  0  0  0  0  0  0  0  0  0
   -2.5349   15.6989  -33.8332 H   0  0  0  0  0  0  0  0  0  0  0  0
   -4.4400   14.1816  -35.6238 H   0  0  0  0  0  0  0  0  0  0  0  0
   -2.9835   13.6182  -34.6698 H   0  0  0  0  0  0  0  0  0  0  0  0
  1  2  1  0
  2  3  1  0
  3  4  1  0
  4  5  1  0
  5  6  1  0
  6  7  2  0
  6  8  1  0
  8  9  2  0
  9 10  1  0
 10 11  2  0
 11 12  1  0
 12 13  2  0
 12 14  2  0
 12 15  1  0
 15 16  2  0
 16 17  1  0
 17 18  1  0
 18 19  2  0
 18 20  1  0
 20 21  1  0
 20 22  2  0
 11 23  1  0
 23 24  2  0
  5 25  1  0
 25 26  1  0
 26  2  1  0
 24  8  1  0
 22 15  1  0
  1 27  1  0
  1 28  1  0
  1 29  1  0
  3 30  1  0
  3 31  1  0
  4 32  1  0
  4 33  1  0
  9 34  1  0
 10 35  1  0
 16 36  1  0
 22 37  1  0
 23 38  1  0
 24 39  1  0
 25 40  1  0
 25 41  1  0
 26 42  1  0
 26 43  1  0
M  CHG  2  17  -1  21  -1
M  END
>  <UniqueID>  (24) 
24

>  <SMILES>  (24) 
CN1CCN(C(=O)c2ccc(S(=O)(=O)c3c[n-]c(=O)c([O-])c3)cc2)CC1

>  <Energy>  (24) 
60.70210934713229

>  <Genealogy>  (24) 
CN1CCN(C(=O)c2ccc(S(=O)(=O)c3c[n-]c(=O)c([O-])c3)cc2)CC1 (protonated)
CN1CCN(C(=O)c2ccc(S(=O)(=O)c3c[n-]c(=O)c([O-])c3)cc2)CC1 (3D coordinates assigned)
CN1CCN(C(=O)c2ccc(S(=O)(=O)c3c[n-]c(=O)c([O-])c3)cc2)CC1 (nonaromatic ring conformer: 60.70210934713229 kcal/mol)

>  <smiles>  (24) 
CN1CCN(C(=O)c2ccc(S(=O)(=O)c3c[nH]c(=O)c(O)c3)cc2)CC1

>  <score_type>  (24) 
oracle

>  <origin>  (24) 
adgpu

>  <m_score__min__energy>  (24) 
-11.5

>  <m_primary>  (24) 
energy

$$$$
24:0
     RDKit          3D

 67 71  0  0  0  0  0  0  0  0999 V2000
    0.3310   20.8170  -33.0550 C   0  0  0  0  0  0  0  0  0  0  0  0
   -1.0750   20.4390  -33.1790 N   0  0  0  0  0  0  0  0  0  0  0  0
   -1.6020   19.4150  -33.8950 C   0  0  0  0  0  0  0  0  0  0  0  0
   -0.9050   18.5870  -34.5440 O   0  0  0  0  0  0  0  0  0  0  0  0
   -2.9580   19.3840  -33.8560 N   0  0  0  0  0  0  0  0  0  0  0  0
   -3.8460   18.4820  -34.5830 C   0  0  0  0  0  0  0  0  0  0  0  0
   -3.2900   20.4620  -33.1160 C   0  0  0  0  0  0  0  0  0  0  0  0
   -4.5570   20.9520  -32.8060 C   0  0  0  0  0  0  0  0  0  0  0  0
   -4.6460   22.1240  -32.0220 C   0  0  0  0  0  0  0  0  0  0  0  0
   -6.2350   22.7270  -31.5350 S   0  0  0  0  0  0  0  0  0  0  0  0
   -6.5400   23.9920  -32.2890 O   0  0  0  0  0  0  0  0  0  0  0  0
   -6.2380   23.0270  -30.0610 O   0  0  0  0  0  0  0  0  0  0  0  0
   -7.4810   21.5210  -31.8470 C   0  0  0  0  0  0  0  0  0  0  0  0
   -8.8280   21.9100  -31.8980 C   0  0  0  0  0  0  0  0  0  0  0  0
   -9.8280   20.9560  -32.1060 C   0  0  0  0  0  0  0  0  0  0  0  0
   -9.4880   19.6080  -32.2620 C   0  0  0  0  0  0  0  0  0  0  0  0
   -8.1460   19.2140  -32.2090 C   0  0  0  0  0  0  0  0  0  0  0  0
   -7.7200   17.5210  -32.3970 Cl  0  0  0  0  0  0  0  0  0  0  0  0
   -7.1440   20.1690  -31.9990 C   0  0  0  0  0  0  0  0  0  0  0  0
   -3.4590   22.7890  -31.6010 C   0  0  0  0  0  0  0  0  0  0  0  0
   -3.5540   24.0020  -30.8460 N   0  0  0  0  0  0  0  0  0  0  0  0
   -2.9290   24.1600  -29.2390 S   0  0  0  0  0  0  0  0  0  0  0  0
   -4.0710   24.4300  -28.3000 O   0  0  0  0  0  0  0  0  0  0  0  0
   -1.9630   25.3090  -29.1520 O   0  0  0  0  0  0  0  0  0  0  0  0
   -2.1380   22.6520  -28.7940 C   0  0  0  0  0  0  0  0  0  0  0  0
   -0.7760   22.4710  -29.0720 C   0  0  0  0  0  0  0  0  0  0  0  0
   -0.1580   21.2480  -28.7950 C   0  0  0  0  0  0  0  0  0  0  0  0
   -0.8940   20.1980  -28.2280 C   0  0  0  0  0  0  0  0  0  0  0  0
   -0.1170   18.6500  -27.8850 S   0  0  0  0  0  0  0  0  0  0  0  0
   -0.8520   17.9640  -26.7670 O   0  0  0  0  0  0  0  0  0  0  0  0
    1.2960   18.8950  -27.4290 O   0  0  0  0  0  0  0  0  0  0  0  0
   -0.0970   17.6130  -29.2920 N   0  0  0  0  0  0  0  0  0  0  0  0
    0.9710   16.5980  -29.1640 C   0  0  0  0  0  0  0  0  0  0  0  0
    1.2600   15.9270  -30.5100 C   0  0  0  0  0  0  0  0  0  0  0  0
    1.7800   16.9520  -31.5360 C   0  0  0  0  0  0  0  0  0  0  0  0
    1.3210   18.3870  -31.2300 C   0  0  0  0  0  0  0  0  0  0  0  0
   -0.0590   18.4000  -30.5530 C   0  0  0  0  0  0  0  0  0  0  0  0
   -2.2550   20.3820  -27.9480 C   0  0  0  0  0  0  0  0  0  0  0  0
   -2.8750   21.6010  -28.2330 C   0  0  0  0  0  0  0  0  0  0  0  0
   -2.1920   22.2690  -31.9540 C   0  0  0  0  0  0  0  0  0  0  0  0
   -2.1510   21.0970  -32.7030 C   0  0  0  0  0  0  0  0  0  0  0  0
    0.5988   20.8890  -31.9905 H   0  0  0  0  0  0  0  0  0  0  0  0
    0.9595   20.0559  -33.5406 H   0  0  0  0  0  0  0  0  0  0  0  0
    0.4931   21.7906  -33.5406 H   0  0  0  0  0  0  0  0  0  0  0  0
   -4.4314   17.8873  -33.8663 H   0  0  0  0  0  0  0  0  0  0  0  0
   -4.5279   19.0696  -35.2153 H   0  0  0  0  0  0  0  0  0  0  0  0
   -3.2478   17.8094  -35.2153 H   0  0  0  0  0  0  0  0  0  0  0  0
   -5.4633   20.4403  -33.1620 H   0  0  0  0  0  0  0  0  0  0  0  0
   -9.0979   22.9691  -31.7739 H   0  0  0  0  0  0  0  0  0  0  0  0
  -10.8828   21.2652  -32.1471 H   0  0  0  0  0  0  0  0  0  0  0  0
  -10.2754   18.8577  -32.4263 H   0  0  0  0  0  0  0  0  0  0  0  0
   -6.0900   19.8576  -31.9532 H   0  0  0  0  0  0  0  0  0  0  0  0
   -0.1917   23.2939  -29.5095 H   0  0  0  0  0  0  0  0  0  0  0  0
    0.9092   21.1090  -29.0226 H   0  0  0  0  0  0  0  0  0  0  0  0
    1.8881   17.0855  -28.8017 H   0  0  0  0  0  0  0  0  0  0  0  0
    0.6361   15.8269  -28.4546 H   0  0  0  0  0  0  0  0  0  0  0  0
    2.0195   15.1444  -30.3664 H   0  0  0  0  0  0  0  0  0  0  0  0
    0.3255   15.4906  -30.8925 H   0  0  0  0  0  0  0  0  0  0  0  0
    2.8797   16.9264  -31.5319 H   0  0  0  0  0  0  0  0  0  0  0  0
    1.3689   16.6752  -32.5180 H   0  0  0  0  0  0  0  0  0  0  0  0
    2.0530   18.8622  -30.5604 H   0  0  0  0  0  0  0  0  0  0  0  0
    1.2470   18.9376  -32.1794 H   0  0  0  0  0  0  0  0  0  0  0  0
   -0.3267   19.4420  -30.3237 H   0  0  0  0  0  0  0  0  0  0  0  0
   -0.7714   17.9360  -31.2510 H   0  0  0  0  0  0  0  0  0  0  0  0
   -2.8377   19.5627  -27.5017 H   0  0  0  0  0  0  0  0  0  0  0  0
   -3.9450   21.7360  -28.0163 H   0  0  0  0  0  0  0  0  0  0  0  0
   -1.2660   22.7763  -31.6455 H   0  0  0  0  0  0  0  0  0  0  0  0
  1  2  1  0
  2  3  1  0
  3  4  2  0
  3  5  1  0
  5  6  1  0
  5  7  1  0
  7  8  2  0
  8  9  1  0
  9 10  1  0
 10 11  2  0
 10 12  2  0
 10 13  1  0
 13 14  2  0
 14 15  1  0
 15 16  2  0
 16 17  1  0
 17 18  1  0
 17 19  2  0
  9 20  2  0
 20 21  1  0
 21 22  1  0
 22 23  2  0
 22 24  2  0
 22 25  1  0
 25 26  2  0
 26 27  1  0
 27 28  2  0
 28 29  1  0
 29 30  2  0
 29 31  2  0
 29 32  1  0
 32 33  1  0
 33 34  1  0
 34 35  1  0
 35 36  1  0
 36 37  1  0
 28 38  1  0
 38 39  2  0
 20 40  1  0
 40 41  2  0
 41  2  1  0
 41  7  1  0
 19 13  1  0
 39 25  1  0
 37 32  1  0
  1 42  1  0
  1 43  1  0
  1 44  1  0
  6 45  1  0
  6 46  1  0
  6 47  1  0
  8 48  1  0
 14 49  1  0
 15 50  1  0
 16 51  1  0
 19 52  1  0
 26 53  1  0
 27 54  1  0
 33 55  1  0
 33 56  1  0
 34 57  1  0
 34 58  1  0
 35 59  1  0
 35 60  1  0
 36 61  1  0
 36 62  1  0
 37 63  1  0
 37 64  1  0
 38 65  1  0
 39 66  1  0
 40 67  1  0
M  CHG  1  21  -1
M  END
>  <UniqueID>  (25) 
25

>  <SMILES>  (25) 
Cn1c(=O)n(C)c2cc(S(=O)(=O)c3cccc(Cl)c3)c([N-]S(=O)(=O)c3ccc(S(=O)(=O)N4CCCCC4)cc3)cc21

>  <Energy>  (25) 
125.23831118956267

>  <Genealogy>  (25) 
Cn1c(=O)n(C)c2cc(S(=O)(=O)c3cccc(Cl)c3)c([N-]S(=O)(=O)c3ccc(S(=O)(=O)N4CCCCC4)cc3)cc21 (protonated)
Cn1c(=O)n(C)c2cc(S(=O)(=O)c3cccc(Cl)c3)c([N-]S(=O)(=O)c3ccc(S(=O)(=O)N4CCCCC4)cc3)cc21 (3D coordinates assigned)
Cn1c(=O)n(C)c2cc(S(=O)(=O)c3cccc(Cl)c3)c([N-]S(=O)(=O)c3ccc(S(=O)(=O)N4CCCCC4)cc3)cc21 (nonaromatic ring conformer: 125.23831118956267 kcal/mol)

>  <smiles>  (25) 
Cn1c(=O)n(C)c2cc(S(=O)(=O)c3cccc(Cl)c3)c(NS(=O)(=O)c3ccc(S(=O)(=O)N4CCCCC4)cc3)cc21

>  <score_type>  (25) 
oracle

>  <origin>  (25) 
adgpu

>  <m_score__min__energy>  (25) 
-13.07

>  <m_primary>  (25) 
energy

$$$$
25:0
     RDKit          3D

 49 52  0  0  0  0  0  0  0  0999 V2000
   -6.6590   24.3820  -30.4480 C   0  0  0  0  0  0  0  0  0  0  0  0
   -5.3400   23.8900  -29.9520 C   0  0  0  0  0  0  0  0  0  0  0  0
   -5.1860   22.8020  -29.1710 N   0  0  0  0  0  0  0  0  0  0  0  0
   -3.8600   22.7590  -28.9170 C   0  0  0  0  0  0  0  0  0  0  0  0
   -3.1320   21.5100  -27.8490 S   0  0  0  0  0  0  0  0  0  0  0  0
   -2.1230   20.7980  -29.1580 C   0  0  0  0  0  0  0  0  0  0  0  0
   -2.3490   21.2100  -30.4790 C   0  0  0  0  0  0  0  0  0  0  0  0
   -1.5910   20.6850  -31.5370 C   0  0  0  0  0  0  0  0  0  0  0  0
   -0.6210   19.6980  -31.2750 C   0  0  0  0  0  0  0  0  0  0  0  0
   -0.4030   19.2800  -29.9540 C   0  0  0  0  0  0  0  0  0  0  0  0
   -1.1580   19.8090  -28.8990 C   0  0  0  0  0  0  0  0  0  0  0  0
   -0.9080   19.0770  -27.1530 Br  0  0  0  0  0  0  0  0  0  0  0  0
    0.2290   19.1300  -32.3900 C   0  0  0  0  0  0  0  0  0  0  0  0
   -0.4180   19.2420  -33.7150 N   0  0  1  0  0  0  0  0  0  0  0  0
   -1.5020   18.2550  -33.8840 C   0  0  0  0  0  0  0  0  0  0  0  0
   -0.8710   20.6260  -33.9680 C   0  0  0  0  0  0  0  0  0  0  0  0
   -1.9120   21.1110  -32.9470 C   0  0  0  0  0  0  0  0  0  0  0  0
   -3.1810   23.7910  -29.4760 N   0  0  0  0  0  0  0  0  0  0  0  0
   -1.7760   24.1620  -29.3000 C   0  0  0  0  0  0  0  0  0  0  0  0
   -1.3980   24.3450  -27.8490 C   0  0  0  0  0  0  0  0  0  0  0  0
   -0.3690   23.5410  -27.3130 C   0  0  0  0  0  0  0  0  0  0  0  0
   -0.0320   23.6300  -25.9590 C   0  0  0  0  0  0  0  0  0  0  0  0
   -0.7280   24.5070  -25.1190 C   0  0  0  0  0  0  0  0  0  0  0  0
   -1.7660   25.2910  -25.6320 C   0  0  0  0  0  0  0  0  0  0  0  0
   -2.1080   25.2080  -26.9870 C   0  0  0  0  0  0  0  0  0  0  0  0
   -4.1220   24.5020  -30.1180 C   0  0  0  0  0  0  0  0  0  0  0  0
   -3.8840   25.6780  -30.8190 O   0  0  0  0  0  0  0  0  0  0  0  0
   -7.3059   24.6233  -29.5917 H   0  0  0  0  0  0  0  0  0  0  0  0
   -6.5077   25.2841  -31.0589 H   0  0  0  0  0  0  0  0  0  0  0  0
   -7.1355   23.6011  -31.0589 H   0  0  0  0  0  0  0  0  0  0  0  0
   -3.1309   21.9547  -30.6889 H   0  0  0  0  0  0  0  0  0  0  0  0
    0.3708   18.5270  -29.7436 H   0  0  0  0  0  0  0  0  0  0  0  0
    1.1838   19.6756  -32.4174 H   0  0  0  0  0  0  0  0  0  0  0  0
    0.3775   18.0600  -32.1823 H   0  0  0  0  0  0  0  0  0  0  0  0
    0.3100   19.0180  -34.4370 H   0  0  0  0  0  0  0  0  0  0  0  0
   -1.8591   17.9298  -32.8957 H   0  0  0  0  0  0  0  0  0  0  0  0
   -2.3321   18.7138  -34.4411 H   0  0  0  0  0  0  0  0  0  0  0  0
   -1.1228   17.3856  -34.4411 H   0  0  0  0  0  0  0  0  0  0  0  0
    0.0015   21.2944  -33.9240 H   0  0  0  0  0  0  0  0  0  0  0  0
   -1.3488   20.6408  -34.9587 H   0  0  0  0  0  0  0  0  0  0  0  0
   -1.9525   22.2097  -32.9814 H   0  0  0  0  0  0  0  0  0  0  0  0
   -2.8771   20.6580  -33.2179 H   0  0  0  0  0  0  0  0  0  0  0  0
   -1.1463   23.3693  -29.7303 H   0  0  0  0  0  0  0  0  0  0  0  0
   -1.6211   25.1256  -29.8074 H   0  0  0  0  0  0  0  0  0  0  0  0
    0.1716   22.8394  -27.9653 H   0  0  0  0  0  0  0  0  0  0  0  0
    0.7811   23.0100  -25.5534 H   0  0  0  0  0  0  0  0  0  0  0  0
   -0.4584   24.5795  -24.0550 H   0  0  0  0  0  0  0  0  0  0  0  0
   -2.3156   25.9752  -24.9688 H   0  0  0  0  0  0  0  0  0  0  0  0
   -2.9338   25.8182  -27.3816 H   0  0  0  0  0  0  0  0  0  0  0  0
  1  2  1  0
  2  3  1  0
  3  4  2  0
  4  5  1  0
  5  6  1  0
  6  7  2  0
  7  8  1  0
  8  9  2  0
  9 10  1  0
 10 11  2  0
 11 12  1  0
  9 13  1  0
 13 14  1  0
 14 15  1  0
 14 16  1  0
 16 17  1  0
  4 18  1  0
 18 19  1  0
 19 20  1  0
 20 21  2  0
 21 22  1  0
 22 23  2  0
 23 24  1  0
 24 25  2  0
 18 26  1  0
 26 27  1  0
 26  2  2  0
 11  6  1  0
 25 20  1  0
 17  8  1  0
  1 28  1  0
  1 29  1  0
  1 30  1  0
  7 31  1  0
 10 32  1  0
 13 33  1  0
 13 34  1  0
 14 35  1  6
 15 36  1  0
 15 37  1  0
 15 38  1  0
 16 39  1  0
 16 40  1  0
 17 41  1  0
 17 42  1  0
 19 43  1  0
 19 44  1  0
 21 45  1  0
 22 46  1  0
 23 47  1  0
 24 48  1  0
 25 49  1  0
M  CHG  2  14   1  27  -1
M  END
>  <UniqueID>  (26) 
26

>  <SMILES>  (26) 
Cc1nc(Sc2cc3c(cc2Br)C[N@@H+](C)CC3)n(Cc2ccccc2)c1[O-]

>  <Energy>  (26) 
85.87752371291141

>  <Genealogy>  (26) 
Cc1nc(Sc2cc3c(cc2Br)C[NH+](C)CC3)n(Cc2ccccc2)c1[O-] (protonated)
Cc1nc(Sc2cc3c(cc2Br)C[N@@H+](C)CC3)n(Cc2ccccc2)c1[O-] (chirality)
Cc1nc(Sc2cc3c(cc2Br)C[N@@H+](C)CC3)n(Cc2ccccc2)c1[O-] (3D coordinates assigned)
Cc1nc(Sc2cc3c(cc2Br)C[N@@H+](C)CC3)n(Cc2ccccc2)c1[O-] (nonaromatic ring conformer: 85.87752371291141 kcal/mol)

>  <smiles>  (26) 
Cc1nc(Sc2cc3c(cc2Br)CN(C)CC3)n(Cc2ccccc2)c1O

>  <score_type>  (26) 
oracle

>  <origin>  (26) 
adgpu

>  <m_score__min__energy>  (26) 
-10.69

>  <m_primary>  (26) 
energy

$$$$
26:0
     RDKit          3D

 55 58  0  0  0  0  0  0  0  0999 V2000
   -5.1800   15.7890  -32.5410 C   0  0  0  0  0  0  0  0  0  0  0  0
   -6.1110   16.4880  -33.8930 S   0  0  0  0  0  0  0  0  0  0  0  0
   -5.1630   16.8120  -35.0130 O   0  0  0  0  0  0  0  0  0  0  0  0
   -7.0960   15.4610  -34.3810 O   0  0  0  0  0  0  0  0  0  0  0  0
   -6.9710   17.9370  -33.4290 N   0  0  0  0  0  0  0  0  0  0  0  0
   -6.1540   19.1270  -33.7190 C   0  0  0  0  0  0  0  0  0  0  0  0
   -6.9520   20.3940  -33.4080 C   0  0  0  0  0  0  0  0  0  0  0  0
   -7.4660   20.3330  -32.0350 N   0  0  0  0  0  0  0  0  0  0  0  0
   -7.6900   21.5520  -31.3050 C   0  0  0  0  0  0  0  0  0  0  0  0
   -8.8340   21.7870  -30.8290 O   0  0  0  0  0  0  0  0  0  0  0  0
   -6.5920   22.5230  -31.0820 C   0  0  0  0  0  0  0  0  0  0  0  0
   -6.8730   23.8350  -30.6690 C   0  0  0  0  0  0  0  0  0  0  0  0
   -5.8370   24.7460  -30.4590 C   0  0  0  0  0  0  0  0  0  0  0  0
   -4.5100   24.3660  -30.6730 C   0  0  0  0  0  0  0  0  0  0  0  0
   -3.4930   25.2910  -30.4600 O   0  0  0  0  0  0  0  0  0  0  0  0
   -4.2080   23.0660  -31.1140 C   0  0  0  0  0  0  0  0  0  0  0  0
   -2.8380   22.6830  -31.3190 N   0  0  0  0  0  0  0  0  0  0  0  0
   -2.3600   21.1050  -31.8700 S   0  0  0  0  0  0  0  0  0  0  0  0
   -1.6780   21.2200  -33.2050 O   0  0  0  0  0  0  0  0  0  0  0  0
   -3.6000   20.2660  -32.0010 O   0  0  0  0  0  0  0  0  0  0  0  0
   -1.2220   20.3410  -30.7390 C   0  0  0  0  0  0  0  0  0  0  0  0
    0.0320   19.9290  -31.2200 C   0  0  0  0  0  0  0  0  0  0  0  0
    0.9760   19.3590  -30.3660 C   0  0  0  0  0  0  0  0  0  0  0  0
    0.6840   19.1760  -29.0180 C   0  0  0  0  0  0  0  0  0  0  0  0
   -0.5700   19.5400  -28.5120 C   0  0  0  0  0  0  0  0  0  0  0  0
   -0.8640   19.3240  -27.1560 C   0  0  0  0  0  0  0  0  0  0  0  0
   -2.1190   19.6560  -26.6470 C   0  0  0  0  0  0  0  0  0  0  0  0
   -3.0920   20.1990  -27.4840 C   0  0  0  0  0  0  0  0  0  0  0  0
   -2.8160   20.4240  -28.8340 C   0  0  0  0  0  0  0  0  0  0  0  0
   -1.5460   20.1150  -29.3720 C   0  0  0  0  0  0  0  0  0  0  0  0
   -5.2570   22.1470  -31.3070 C   0  0  0  0  0  0  0  0  0  0  0  0
   -8.1560   19.1080  -31.6180 C   0  0  0  0  0  0  0  0  0  0  0  0
   -7.3170   17.8860  -31.9980 C   0  0  0  0  0  0  0  0  0  0  0  0
   -5.6171   16.1172  -31.5864 H   0  0  0  0  0  0  0  0  0  0  0  0
   -5.2137   14.6912  -32.6015 H   0  0  0  0  0  0  0  0  0  0  0  0
   -4.1352   16.1277  -32.6015 H   0  0  0  0  0  0  0  0  0  0  0  0
   -5.2460   19.1062  -33.0984 H   0  0  0  0  0  0  0  0  0  0  0  0
   -5.8767   19.1255  -34.7835 H   0  0  0  0  0  0  0  0  0  0  0  0
   -6.2987   21.2725  -33.5147 H   0  0  0  0  0  0  0  0  0  0  0  0
   -7.7962   20.4728  -34.1088 H   0  0  0  0  0  0  0  0  0  0  0  0
   -7.9159   24.1467  -30.5100 H   0  0  0  0  0  0  0  0  0  0  0  0
   -6.0664   25.7681  -30.1234 H   0  0  0  0  0  0  0  0  0  0  0  0
   -2.0860   23.3780  -31.1170 H   0  0  0  0  0  0  0  0  0  0  0  0
    0.2729   20.0578  -32.2855 H   0  0  0  0  0  0  0  0  0  0  0  0
    1.9562   19.0526  -30.7602 H   0  0  0  0  0  0  0  0  0  0  0  0
    1.4411   18.7437  -28.3472 H   0  0  0  0  0  0  0  0  0  0  0  0
   -0.1010   18.8910  -26.4924 H   0  0  0  0  0  0  0  0  0  0  0  0
   -2.3415   19.4890  -25.5828 H   0  0  0  0  0  0  0  0  0  0  0  0
   -4.0829   20.4517  -27.0788 H   0  0  0  0  0  0  0  0  0  0  0  0
   -3.5951   20.8462  -29.4858 H   0  0  0  0  0  0  0  0  0  0  0  0
   -5.0288   21.1230  -31.6377 H   0  0  0  0  0  0  0  0  0  0  0  0
   -8.3038   19.1250  -30.5281 H   0  0  0  0  0  0  0  0  0  0  0  0
   -9.1314   19.0504  -32.1232 H   0  0  0  0  0  0  0  0  0  0  0  0
   -6.3937   17.8780  -31.4001 H   0  0  0  0  0  0  0  0  0  0  0  0
   -7.8982   16.9734  -31.7996 H   0  0  0  0  0  0  0  0  0  0  0  0
  1  2  1  0
  2  3  2  0
  2  4  2  0
  2  5  1  0
  5  6  1  0
  6  7  1  0
  7  8  1  0
  8  9  1  0
  9 10  2  0
  9 11  1  0
 11 12  2  0
 12 13  1  0
 13 14  2  0
 14 15  1  0
 14 16  1  0
 16 17  1  0
 17 18  1  0
 18 19  2  0
 18 20  2  0
 18 21  1  0
 21 22  2  0
 22 23  1  0
 23 24  2  0
 24 25  1  0
 25 26  2  0
 26 27  1  0
 27 28  2  0
 28 29  1  0
 29 30  2  0
 16 31  2  0
  8 32  1  0
 32 33  1  0
 33  5  1  0
 31 11  1  0
 30 21  1  0
 30 25  1  0
  1 34  1  0
  1 35  1  0
  1 36  1  0
  6 37  1  0
  6 38  1  0
  7 39  1  0
  7 40  1  0
 12 41  1  0
 13 42  1  0
 17 43  1  0
 22 44  1  0
 23 45  1  0
 24 46  1  0
 26 47  1  0
 27 48  1  0
 28 49  1  0
 29 50  1  0
 31 51  1  0
 32 52  1  0
 32 53  1  0
 33 54  1  0
 33 55  1  0
M  CHG  1  15  -1
M  END
>  <UniqueID>  (27) 
27

>  <SMILES>  (27) 
CS(=O)(=O)N1CCN(C(=O)c2ccc([O-])c(NS(=O)(=O)c3cccc4ccccc34)c2)CC1

>  <Energy>  (27) 
68.90707416258361

>  <Genealogy>  (27) 
CS(=O)(=O)N1CCN(C(=O)c2ccc([O-])c(NS(=O)(=O)c3cccc4ccccc34)c2)CC1 (protonated)
CS(=O)(=O)N1CCN(C(=O)c2ccc([O-])c(NS(=O)(=O)c3cccc4ccccc34)c2)CC1 (3D coordinates assigned)
CS(=O)(=O)N1CCN(C(=O)c2ccc([O-])c(NS(=O)(=O)c3cccc4ccccc34)c2)CC1 (nonaromatic ring conformer: 68.90707416258361 kcal/mol)

>  <smiles>  (27) 
CS(=O)(=O)N1CCN(C(=O)c2ccc(O)c(NS(=O)(=O)c3cccc4ccccc34)c2)CC1

>  <score_type>  (27) 
oracle

>  <origin>  (27) 
adgpu

>  <m_score__min__energy>  (27) 
-14.16

>  <m_primary>  (27) 
energy

$$$$
27:0
     RDKit          3D

 42 44  0  0  0  0  0  0  0  0999 V2000
   -4.2120   21.1070  -30.9460 C   0  0  0  0  0  0  0  0  0  0  0  0
   -5.4950   21.9000  -31.0530 C   0  0  0  0  0  0  0  0  0  0  0  0
   -5.5460   23.2900  -30.7480 C   0  0  0  0  0  0  0  0  0  0  0  0
   -4.1060   24.2220  -30.2980 S   0  0  0  0  0  0  0  0  0  0  0  0
   -4.2300   25.6140  -30.8520 O   0  0  0  0  0  0  0  0  0  0  0  0
   -2.8700   23.5960  -30.8840 O   0  0  0  0  0  0  0  0  0  0  0  0
   -3.9380   24.3040  -28.5670 N   0  0  0  0  0  0  0  0  0  0  0  0
   -4.2330   23.0130  -27.9370 C   0  0  0  0  0  0  0  0  0  0  0  0
   -2.9720   22.2070  -27.7250 C   0  0  0  0  0  0  0  0  0  0  0  0
   -3.0450   20.8060  -27.8470 C   0  0  0  0  0  0  0  0  0  0  0  0
   -1.9460   20.0040  -27.5390 C   0  0  0  0  0  0  0  0  0  0  0  0
   -0.7560   20.5860  -27.1080 C   0  0  0  0  0  0  0  0  0  0  0  0
   -0.6530   21.9740  -27.0140 C   0  0  0  0  0  0  0  0  0  0  0  0
   -1.7350   22.7990  -27.3460 C   0  0  0  0  0  0  0  0  0  0  0  0
   -1.5370   24.1840  -27.2470 O   0  0  0  0  0  0  0  0  0  0  0  0
   -0.7650   24.9600  -28.1610 C   0  0  0  0  0  0  0  0  0  0  0  0
   -0.0390   24.1070  -28.9690 F   0  0  0  0  0  0  0  0  0  0  0  0
   -1.5930   25.7330  -28.9560 F   0  0  0  0  0  0  0  0  0  0  0  0
   -6.7680   23.9740  -30.8450 C   0  0  0  0  0  0  0  0  0  0  0  0
   -7.9230   23.3190  -31.2610 C   0  0  0  0  0  0  0  0  0  0  0  0
   -7.8820   21.9660  -31.5830 C   0  0  0  0  0  0  0  0  0  0  0  0
   -6.6870   21.2400  -31.4510 C   0  0  0  0  0  0  0  0  0  0  0  0
   -6.7260   19.8220  -31.7000 N   0  0  0  0  0  0  0  0  0  0  0  0
   -7.9030   19.2180  -32.2420 C   0  0  0  0  0  0  0  0  0  0  0  0
   -7.9670   17.9670  -32.3750 O   0  0  0  0  0  0  0  0  0  0  0  0
   -9.0300   20.0830  -32.7200 C   0  0  0  0  0  0  0  0  0  0  0  0
   -9.0480   21.3290  -32.0230 O   0  0  0  0  0  0  0  0  0  0  0  0
   -3.9633   20.9533  -29.8856 H   0  0  0  0  0  0  0  0  0  0  0  0
   -4.3419   20.1314  -31.4373 H   0  0  0  0  0  0  0  0  0  0  0  0
   -3.3975   21.6594  -31.4373 H   0  0  0  0  0  0  0  0  0  0  0  0
   -4.7133   23.1903  -26.9634 H   0  0  0  0  0  0  0  0  0  0  0  0
   -4.9011   22.4458  -28.6017 H   0  0  0  0  0  0  0  0  0  0  0  0
   -3.9800   20.3384  -28.1893 H   0  0  0  0  0  0  0  0  0  0  0  0
   -2.0191   18.9108  -27.6366 H   0  0  0  0  0  0  0  0  0  0  0  0
    0.1021   19.9513  -26.8419 H   0  0  0  0  0  0  0  0  0  0  0  0
    0.2904   22.4265  -26.6747 H   0  0  0  0  0  0  0  0  0  0  0  0
   -0.0928   25.6203  -27.5934 H   0  0  0  0  0  0  0  0  0  0  0  0
   -6.8131   25.0427  -30.5886 H   0  0  0  0  0  0  0  0  0  0  0  0
   -8.8708   23.8722  -31.3355 H   0  0  0  0  0  0  0  0  0  0  0  0
   -5.9320   19.2000  -31.4340 H   0  0  0  0  0  0  0  0  0  0  0  0
   -8.9056   20.2742  -33.7961 H   0  0  0  0  0  0  0  0  0  0  0  0
   -9.9789   19.5603  -32.5294 H   0  0  0  0  0  0  0  0  0  0  0  0
  1  2  1  0
  2  3  2  0
  3  4  1  0
  4  5  2  0
  4  6  2  0
  4  7  1  0
  7  8  1  0
  8  9  1  0
  9 10  2  0
 10 11  1  0
 11 12  2  0
 12 13  1  0
 13 14  2  0
 14 15  1  0
 15 16  1  0
 16 17  1  0
 16 18  1  0
  3 19  1  0
 19 20  2  0
 20 21  1  0
 21 22  2  0
 22 23  1  0
 23 24  1  0
 24 25  2  0
 24 26  1  0
 26 27  1  0
 22  2  1  0
 14  9  1  0
 27 21  1  0
  1 28  1  0
  1 29  1  0
  1 30  1  0
  8 31  1  0
  8 32  1  0
 10 33  1  0
 11 34  1  0
 12 35  1  0
 13 36  1  0
 16 37  1  0
 19 38  1  0
 20 39  1  0
 23 40  1  0
 26 41  1  0
 26 42  1  0
M  CHG  1   7  -1
M  END
>  <UniqueID>  (28) 
28

>  <SMILES>  (28) 
Cc1c(S(=O)(=O)[N-]Cc2ccccc2OC(F)F)ccc2c1NC(=O)CO2

>  <Energy>  (28) 
51.7744189131195

>  <Genealogy>  (28) 
Cc1c(S(=O)(=O)[N-]Cc2ccccc2OC(F)F)ccc2c1NC(=O)CO2 (protonated)
Cc1c(S(=O)(=O)[N-]Cc2ccccc2OC(F)F)ccc2c1NC(=O)CO2 (3D coordinates assigned)
Cc1c(S(=O)(=O)[N-]Cc2ccccc2OC(F)F)ccc2c1NC(=O)CO2 (nonaromatic ring conformer: 51.7744189131195 kcal/mol)

>  <smiles>  (28) 
Cc1c(S(=O)(=O)NCc2ccccc2OC(F)F)ccc2c1NC(=O)CO2

>  <score_type>  (28) 
oracle

>  <origin>  (28) 
adgpu

>  <m_score__min__energy>  (28) 
-9.2400000000000002

>  <m_primary>  (28) 
energy

$$$$
28:0
     RDKit          3D

 52 54  0  0  0  0  0  0  0  0999 V2000
   -8.3142   19.6527  -31.6418 H   0  0  0  0  0  0  0  0  0  0  0  0
   -7.6020   20.4130  -31.9950 C   0  0  0  0  0  0  0  0  0  0  0  0
   -7.8840   21.8370  -31.7130 C   0  0  0  0  0  0  0  0  0  0  0  0
   -9.0800   22.2310  -31.7860 O   0  0  0  0  0  0  0  0  0  0  0  0
   -6.8230   22.8170  -31.3760 C   0  0  0  0  0  0  0  0  0  0  0  0
   -7.1730   24.1100  -30.9540 C   0  0  0  0  0  0  0  0  0  0  0  0
   -8.2336   24.3885  -30.8664 H   0  0  0  0  0  0  0  0  0  0  0  0
   -6.1820   25.0440  -30.6450 C   0  0  0  0  0  0  0  0  0  0  0  0
   -6.4651   26.0522  -30.3082 H   0  0  0  0  0  0  0  0  0  0  0  0
   -4.8330   24.7030  -30.7620 C   0  0  0  0  0  0  0  0  0  0  0  0
   -3.8580   25.6430  -30.4440 O   0  0  0  0  0  0  0  0  0  0  0  0
   -4.4600   23.4240  -31.1970 C   0  0  0  0  0  0  0  0  0  0  0  0
   -3.0940   23.1230  -31.3020 O   0  0  0  0  0  0  0  0  0  0  0  0
   -2.4840   21.9510  -30.7730 C   0  0  0  0  0  0  0  0  0  0  0  0
   -2.5048   21.9910  -29.6739 H   0  0  0  0  0  0  0  0  0  0  0  0
   -3.0345   21.0634  -31.1181 H   0  0  0  0  0  0  0  0  0  0  0  0
   -1.4412   21.8927  -31.1181 H   0  0  0  0  0  0  0  0  0  0  0  0
   -5.4620   22.4860  -31.5130 C   0  0  0  0  0  0  0  0  0  0  0  0
   -5.1781   21.4851  -31.8703 H   0  0  0  0  0  0  0  0  0  0  0  0
   -6.5110   20.0130  -32.6650 C   0  0  0  0  0  0  0  0  0  0  0  0
   -5.7997   20.7835  -32.9971 H   0  0  0  0  0  0  0  0  0  0  0  0
   -6.2020   18.5980  -32.9870 C   0  0  0  0  0  0  0  0  0  0  0  0
   -6.1060   18.1180  -34.3080 C   0  0  0  0  0  0  0  0  0  0  0  0
   -6.2818   18.8019  -35.1514 H   0  0  0  0  0  0  0  0  0  0  0  0
   -5.7890   16.7790  -34.5550 C   0  0  0  0  0  0  0  0  0  0  0  0
   -5.7161   16.4162  -35.5909 H   0  0  0  0  0  0  0  0  0  0  0  0
   -5.5630   15.8940  -33.4870 C   0  0  0  0  0  0  0  0  0  0  0  0
   -5.1800   14.5560  -33.6820 O   0  0  0  0  0  0  0  0  0  0  0  0
   -3.8400   14.0650  -33.6110 C   0  0  0  0  0  0  0  0  0  0  0  0
   -3.7425   13.1936  -34.2753 H   0  0  0  0  0  0  0  0  0  0  0  0
   -3.6283   13.7867  -32.5681 H   0  0  0  0  0  0  0  0  0  0  0  0
   -2.8440   15.1180  -34.0330 C   0  0  0  0  0  0  0  0  0  0  0  0
   -2.2390   15.0460  -35.2980 C   0  0  0  0  0  0  0  0  0  0  0  0
   -2.4783   14.2116  -35.9737 H   0  0  0  0  0  0  0  0  0  0  0  0
   -1.3340   16.0310  -35.7010 C   0  0  0  0  0  0  0  0  0  0  0  0
   -0.8555   15.9645  -36.6892 H   0  0  0  0  0  0  0  0  0  0  0  0
   -1.0350   17.0990  -34.8540 C   0  0  0  0  0  0  0  0  0  0  0  0
   -0.3265   17.8748  -35.1797 H   0  0  0  0  0  0  0  0  0  0  0  0
   -1.6350   17.1870  -33.5880 C   0  0  0  0  0  0  0  0  0  0  0  0
   -1.3350   18.3350  -32.7090 C   0  0  0  0  0  0  0  0  0  0  0  0
   -0.1970   18.4170  -32.1760 O   0  0  0  0  0  0  0  0  0  0  0  0
   -2.2830   19.3850  -32.4760 N   0  0  0  0  0  0  0  0  0  0  0  0
   -3.0940   20.0190  -33.5070 C   0  0  0  0  0  0  0  0  0  0  0  0
   -3.8763   20.6306  -33.0337 H   0  0  0  0  0  0  0  0  0  0  0  0
   -2.4559   20.6601  -34.1329 H   0  0  0  0  0  0  0  0  0  0  0  0
   -3.5622   19.2450  -34.1329 H   0  0  0  0  0  0  0  0  0  0  0  0
   -2.5020   16.1700  -33.1660 C   0  0  0  0  0  0  0  0  0  0  0  0
   -2.9182   16.1953  -32.1481 H   0  0  0  0  0  0  0  0  0  0  0  0
   -5.7020   16.3590  -32.1760 C   0  0  0  0  0  0  0  0  0  0  0  0
   -5.5629   15.6654  -31.3336 H   0  0  0  0  0  0  0  0  0  0  0  0
   -6.0160   17.6970  -31.9270 C   0  0  0  0  0  0  0  0  0  0  0  0
   -6.1186   18.0482  -30.8896 H   0  0  0  0  0  0  0  0  0  0  0  0
  1  2  1  0
  2  3  1  0
  3  4  2  0
  3  5  1  0
  5  6  2  0
  6  7  1  0
  6  8  1  0
  8  9  1  0
  8 10  2  0
 10 11  1  0
 10 12  1  0
 12 13  1  0
 13 14  1  0
 14 15  1  0
 14 16  1  0
 14 17  1  0
 12 18  2  0
 18 19  1  0
  2 20  2  0
 20 21  1  0
 20 22  1  0
 22 23  2  0
 23 24  1  0
 23 25  1  0
 25 26  1  0
 25 27  2  0
 27 28  1  0
 28 29  1  0
 29 30  1  0
 29 31  1  0
 29 32  1  0
 32 33  2  0
 33 34  1  0
 33 35  1  0
 35 36  1  0
 35 37  2  0
 37 38  1  0
 37 39  1  0
 39 40  1  0
 40 41  2  0
 40 42  1  0
 42 43  1  0
 43 44  1  0
 43 45  1  0
 43 46  1  0
 39 47  2  0
 47 48  1  0
 27 49  1  0
 49 50  1  0
 49 51  2  0
 51 52  1  0
 18  5  1  0
 51 22  1  0
 47 32  1  0
M  CHG  2  11  -1  42  -1
M  END
>  <UniqueID>  (29) 
29

>  <SMILES>  (29) 
C[N-]C(=O)c1cccc(COc2ccc(/C=C/C(=O)c3ccc([O-])c(OC)c3)cc2)c1

>  <Energy>  (29) 
62.99700759820887

>  <Genealogy>  (29) 
C[N-]C(=O)c1cccc(COc2ccc(C=CC(=O)c3ccc([O-])c(OC)c3)cc2)c1 (protonated)
C[N-]C(=O)c1cccc(COc2ccc(/C=C/C(=O)c3ccc([O-])c(OC)c3)cc2)c1 (cis-trans isomerization)
C[N-]C(=O)c1cccc(COc2ccc(/C=C/C(=O)c3ccc([O-])c(OC)c3)cc2)c1 (3D coordinates assigned)
C[N-]C(=O)c1cccc(COc2ccc(/C=C/C(=O)c3ccc([O-])c(OC)c3)cc2)c1 (optimized conformer: 62.99700759820887 kcal/mol)

>  <smiles>  (29) 
CNC(=O)c1cccc(COc2ccc(C=CC(=O)c3ccc(O)c(OC)c3)cc2)c1

>  <score_type>  (29) 
oracle

>  <origin>  (29) 
adgpu

>  <m_score__min__energy>  (29) 
-11.1

>  <m_primary>  (29) 
energy

$$$$
29:0
     RDKit          3D

 57 60  0  0  0  0  0  0  0  0999 V2000
   -7.8800   23.0630  -31.5760 C   0  0  0  0  0  0  0  0  0  0  0  0
   -6.5580   22.4400  -31.9440 C   0  0  0  0  0  0  0  0  0  0  0  0
   -6.5630   21.2240  -32.6500 C   0  0  0  0  0  0  0  0  0  0  0  0
   -5.3650   20.6050  -33.0070 C   0  0  0  0  0  0  0  0  0  0  0  0
   -4.1410   21.2070  -32.6980 C   0  0  0  0  0  0  0  0  0  0  0  0
   -2.6220   20.4150  -33.1250 S   0  0  0  0  0  0  0  0  0  0  0  0
   -2.4780   19.1540  -32.3150 O   0  0  0  0  0  0  0  0  0  0  0  0
   -2.6590   20.0270  -34.5790 O   0  0  0  0  0  0  0  0  0  0  0  0
   -1.2380   21.4480  -32.8380 N   0  0  0  0  0  0  0  0  0  0  0  0
   -0.8770   21.4630  -31.4140 C   0  0  0  0  0  0  0  0  0  0  0  0
    0.2670   20.4800  -31.1990 C   0  0  0  0  0  0  0  0  0  0  0  0
    0.7910   20.1470  -32.5850 C   0  0  0  0  0  0  0  0  0  0  0  0
   -0.0560   20.9580  -33.5560 C   0  0  0  0  0  0  0  0  0  0  0  0
   -4.1250   22.4250  -32.0110 C   0  0  0  0  0  0  0  0  0  0  0  0
   -5.3190   23.0210  -31.5690 C   0  0  0  0  0  0  0  0  0  0  0  0
   -5.2290   24.4600  -30.5260 S   0  0  0  0  0  0  0  0  0  0  0  0
   -5.8950   24.1970  -29.2030 O   0  0  0  0  0  0  0  0  0  0  0  0
   -5.9320   25.5940  -31.2190 O   0  0  0  0  0  0  0  0  0  0  0  0
   -3.5820   24.9270  -30.2130 N   0  0  0  0  0  0  0  0  0  0  0  0
   -2.7070   24.1920  -29.3380 C   0  0  0  0  0  0  0  0  0  0  0  0
   -3.0060   22.8730  -28.9550 C   0  0  0  0  0  0  0  0  0  0  0  0
   -2.0490   22.0930  -28.2920 C   0  0  0  0  0  0  0  0  0  0  0  0
   -0.8070   22.6430  -27.9460 C   0  0  0  0  0  0  0  0  0  0  0  0
   -0.5460   23.9890  -28.2400 C   0  0  0  0  0  0  0  0  0  0  0  0
   -1.4790   24.7550  -28.9460 C   0  0  0  0  0  0  0  0  0  0  0  0
   -1.1630   26.0670  -29.2830 O   0  0  0  0  0  0  0  0  0  0  0  0
    0.2260   21.8060  -27.2170 C   0  0  0  0  0  0  0  0  0  0  0  0
    0.1090   20.3290  -27.4380 N   0  0  0  0  0  0  0  0  0  0  0  0
    1.3880   19.7530  -27.8990 C   0  0  0  0  0  0  0  0  0  0  0  0
   -0.9890   19.8920  -28.3300 C   0  0  0  0  0  0  0  0  0  0  0  0
   -2.2830   20.6400  -28.0220 C   0  0  0  0  0  0  0  0  0  0  0  0
   -7.9726   23.1066  -30.4808 H   0  0  0  0  0  0  0  0  0  0  0  0
   -7.9333   24.0810  -31.9893 H   0  0  0  0  0  0  0  0  0  0  0  0
   -8.6991   22.4561  -31.9893 H   0  0  0  0  0  0  0  0  0  0  0  0
   -7.5205   20.7565  -32.9233 H   0  0  0  0  0  0  0  0  0  0  0  0
   -5.3830   19.6395  -33.5337 H   0  0  0  0  0  0  0  0  0  0  0  0
   -0.5579   22.4744  -31.1220 H   0  0  0  0  0  0  0  0  0  0  0  0
   -1.7437   21.1752  -30.8007 H   0  0  0  0  0  0  0  0  0  0  0  0
    1.0590   20.9408  -30.5904 H   0  0  0  0  0  0  0  0  0  0  0  0
   -0.0682   19.5786  -30.6651 H   0  0  0  0  0  0  0  0  0  0  0  0
    1.8503   20.4304  -32.6721 H   0  0  0  0  0  0  0  0  0  0  0  0
    0.7252   19.0690  -32.7939 H   0  0  0  0  0  0  0  0  0  0  0  0
    0.5272   21.8093  -33.9369 H   0  0  0  0  0  0  0  0  0  0  0  0
   -0.3621   20.3314  -34.4067 H   0  0  0  0  0  0  0  0  0  0  0  0
   -3.1646   22.9237  -31.8137 H   0  0  0  0  0  0  0  0  0  0  0  0
   -3.1840   25.6700  -30.8300 H   0  0  0  0  0  0  0  0  0  0  0  0
   -3.9971   22.4506  -29.1770 H   0  0  0  0  0  0  0  0  0  0  0  0
    0.3997   24.4458  -27.9129 H   0  0  0  0  0  0  0  0  0  0  0  0
    1.2236   22.1242  -27.5540 H   0  0  0  0  0  0  0  0  0  0  0  0
    0.0565   21.9722  -26.1429 H   0  0  0  0  0  0  0  0  0  0  0  0
    2.0009   19.4770  -27.0282 H   0  0  0  0  0  0  0  0  0  0  0  0
    1.1892   18.8575  -28.5061 H   0  0  0  0  0  0  0  0  0  0  0  0
    1.9268   20.4954  -28.5061 H   0  0  0  0  0  0  0  0  0  0  0  0
   -0.7020   20.0868  -29.3739 H   0  0  0  0  0  0  0  0  0  0  0  0
   -1.1615   18.8177  -28.1685 H   0  0  0  0  0  0  0  0  0  0  0  0
   -3.0932   20.2660  -28.6652 H   0  0  0  0  0  0  0  0  0  0  0  0
   -2.5737   20.4870  -26.9722 H   0  0  0  0  0  0  0  0  0  0  0  0
  1  2  1  0
  2  3  2  0
  3  4  1  0
  4  5  2  0
  5  6  1  0
  6  7  2  0
  6  8  2  0
  6  9  1  0
  9 10  1  0
 10 11  1  0
 11 12  1  0
 12 13  1  0
  5 14  1  0
 14 15  2  0
 15 16  1  0
 16 17  2  0
 16 18  2  0
 16 19  1  0
 19 20  1  0
 20 21  2  0
 21 22  1  0
 22 23  2  0
 23 24  1  0
 24 25  2  0
 25 26  1  0
 23 27  1  0
 27 28  1  0
 28 29  1  0
 28 30  1  0
 30 31  1  0
 15  2  1  0
 25 20  1  0
 13  9  1  0
 31 22  1  0
  1 32  1  0
  1 33  1  0
  1 34  1  0
  3 35  1  0
  4 36  1  0
 10 37  1  0
 10 38  1  0
 11 39  1  0
 11 40  1  0
 12 41  1  0
 12 42  1  0
 13 43  1  0
 13 44  1  0
 14 45  1  0
 19 46  1  0
 21 47  1  0
 24 48  1  0
 27 49  1  0
 27 50  1  0
 29 51  1  0
 29 52  1  0
 29 53  1  0
 30 54  1  0
 30 55  1  0
 31 56  1  0
 31 57  1  0
M  CHG  1  26  -1
M  END
>  <UniqueID>  (30) 
30

>  <SMILES>  (30) 
Cc1ccc(S(=O)(=O)N2CCCC2)cc1S(=O)(=O)Nc1cc2c(cc1[O-])CN(C)CC2

>  <Energy>  (30) 
72.61754806416428

>  <Genealogy>  (30) 
Cc1ccc(S(=O)(=O)N2CCCC2)cc1S(=O)(=O)Nc1cc2c(cc1[O-])CN(C)CC2 (protonated)
Cc1ccc(S(=O)(=O)N2CCCC2)cc1S(=O)(=O)Nc1cc2c(cc1[O-])CN(C)CC2 (3D coordinates assigned)
Cc1ccc(S(=O)(=O)N2CCCC2)cc1S(=O)(=O)Nc1cc2c(cc1[O-])CN(C)CC2 (nonaromatic ring conformer: 72.61754806416428 kcal/mol)

>  <smiles>  (30) 
Cc1ccc(S(=O)(=O)N2CCCC2)cc1S(=O)(=O)Nc1cc2c(cc1O)CN(C)CC2

>  <score_type>  (30) 
oracle

>  <origin>  (30) 
adgpu

>  <m_score__min__energy>  (30) 
-13.630000000000001

>  <m_primary>  (30) 
energy

$$$$
30:0
     RDKit          3D

 39 41  0  0  0  0  0  0  0  0999 V2000
   -7.5020   18.5190  -31.6190 C   0  0  0  0  0  0  0  0  0  0  0  0
   -6.7210   17.7450  -32.6460 C   0  0  0  0  0  0  0  0  0  0  0  0
   -7.2250   16.5160  -33.1020 C   0  0  0  0  0  0  0  0  0  0  0  0
   -6.5040   15.7500  -34.0240 C   0  0  0  0  0  0  0  0  0  0  0  0
   -7.1390   14.2110  -34.5730 Cl  0  0  0  0  0  0  0  0  0  0  0  0
   -5.2730   16.2070  -34.5000 C   0  0  0  0  0  0  0  0  0  0  0  0
   -4.7700   17.4370  -34.0710 C   0  0  0  0  0  0  0  0  0  0  0  0
   -5.4950   18.2280  -33.1680 C   0  0  0  0  0  0  0  0  0  0  0  0
   -4.9510   19.4940  -32.7670 N   0  0  0  0  0  0  0  0  0  0  0  0
   -5.7310   20.6990  -32.7700 C   0  0  0  0  0  0  0  0  0  0  0  0
   -6.8290   20.7290  -33.3920 O   0  0  0  0  0  0  0  0  0  0  0  0
   -5.2500   21.9180  -32.0770 C   0  0  0  0  0  0  0  0  0  0  0  0
   -5.9160   23.1540  -32.2680 C   0  0  0  0  0  0  0  0  0  0  0  0
   -5.4790   24.3150  -31.6110 C   0  0  0  0  0  0  0  0  0  0  0  0
   -4.3790   24.2250  -30.7640 C   0  0  0  0  0  0  0  0  0  0  0  0
   -3.7250   23.0280  -30.5590 C   0  0  0  0  0  0  0  0  0  0  0  0
   -4.1420   21.8600  -31.2020 C   0  0  0  0  0  0  0  0  0  0  0  0
   -2.5910   23.2100  -29.5950 C   0  0  0  0  0  0  0  0  0  0  0  0
   -1.2390   22.9020  -30.2550 C   0  0  0  0  0  0  0  0  0  0  0  0
   -2.8040   22.3860  -28.3170 C   0  0  0  0  0  0  0  0  0  0  0  0
   -2.7380   24.6850  -29.3200 C   0  0  0  0  0  0  0  0  0  0  0  0
   -1.9900   25.3360  -28.5440 O   0  0  0  0  0  0  0  0  0  0  0  0
   -3.8180   25.2970  -30.0250 N   0  0  0  0  0  0  0  0  0  0  0  0
   -7.1895   18.2093  -30.6108 H   0  0  0  0  0  0  0  0  0  0  0  0
   -7.3115   19.5947  -31.7477 H   0  0  0  0  0  0  0  0  0  0  0  0
   -8.5760   18.3188  -31.7477 H   0  0  0  0  0  0  0  0  0  0  0  0
   -8.1948   16.1528  -32.7310 H   0  0  0  0  0  0  0  0  0  0  0  0
   -4.6992   15.5974  -35.2135 H   0  0  0  0  0  0  0  0  0  0  0  0
   -3.7969   17.7884  -34.4445 H   0  0  0  0  0  0  0  0  0  0  0  0
   -3.9120   19.5740  -32.6880 H   0  0  0  0  0  0  0  0  0  0  0  0
   -6.7860   23.2044  -32.9392 H   0  0  0  0  0  0  0  0  0  0  0  0
   -5.9949   25.2747  -31.7625 H   0  0  0  0  0  0  0  0  0  0  0  0
   -3.6158   20.9095  -31.0297 H   0  0  0  0  0  0  0  0  0  0  0  0
   -0.4816   22.7295  -29.4762 H   0  0  0  0  0  0  0  0  0  0  0  0
   -1.3330   22.0023  -30.8808 H   0  0  0  0  0  0  0  0  0  0  0  0
   -0.9340   23.7537  -30.8808 H   0  0  0  0  0  0  0  0  0  0  0  0
   -2.6388   23.0250  -27.4370 H   0  0  0  0  0  0  0  0  0  0  0  0
   -3.8324   21.9961  -28.2992 H   0  0  0  0  0  0  0  0  0  0  0  0
   -2.0933   21.5466  -28.2992 H   0  0  0  0  0  0  0  0  0  0  0  0
  1  2  1  0
  2  3  2  0
  3  4  1  0
  4  5  1  0
  4  6  2  0
  6  7  1  0
  7  8  2  0
  8  9  1  0
  9 10  1  0
 10 11  2  0
 10 12  1  0
 12 13  2  0
 13 14  1  0
 14 15  2  0
 15 16  1  0
 16 17  2  0
 16 18  1  0
 18 19  1  0
 18 20  1  0
 18 21  1  0
 21 22  2  0
 21 23  1  0
  8  2  1  0
 17 12  1  0
 23 15  1  0
  1 24  1  0
  1 25  1  0
  1 26  1  0
  3 27  1  0
  6 28  1  0
  7 29  1  0
  9 30  1  0
 13 31  1  0
 14 32  1  0
 17 33  1  0
 19 34  1  0
 19 35  1  0
 19 36  1  0
 20 37  1  0
 20 38  1  0
 20 39  1  0
M  CHG  1  23  -1
M  END
>  <UniqueID>  (31) 
31

>  <SMILES>  (31) 
Cc1cc(Cl)ccc1NC(=O)c1ccc2c(c1)C(C)(C)C(=O)[N-]2

>  <Energy>  (31) 
63.39403663620754

>  <Genealogy>  (31) 
Cc1cc(Cl)ccc1NC(=O)c1ccc2c(c1)C(C)(C)C(=O)[N-]2 (protonated)
Cc1cc(Cl)ccc1NC(=O)c1ccc2c(c1)C(C)(C)C(=O)[N-]2 (3D coordinates assigned)
Cc1cc(Cl)ccc1NC(=O)c1ccc2c(c1)C(C)(C)C(=O)[N-]2 (nonaromatic ring conformer: 63.39403663620754 kcal/mol)

>  <smiles>  (31) 
Cc1cc(Cl)ccc1NC(=O)c1ccc2c(c1)C(C)(C)C(=O)N2

>  <score_type>  (31) 
oracle

>  <origin>  (31) 
adgpu

>  <m_score__min__energy>  (31) 
-9.6300000000000008

>  <m_primary>  (31) 
energy

$$$$
31:0
     RDKit          3D

 50 53  0  0  0  0  0  0  0  0999 V2000
   -5.8350   17.6330  -32.6220 C   0  0  0  0  0  0  0  0  0  0  0  0
   -6.3250   18.7740  -33.4570 C   0  0  0  0  0  0  0  0  0  0  0  0
   -5.8640   18.9190  -34.6230 O   0  0  0  0  0  0  0  0  0  0  0  0
   -7.2480   19.7450  -32.9200 N   0  0  0  0  0  0  0  0  0  0  0  0
   -8.6410   19.3060  -32.7070 C   0  0  0  0  0  0  0  0  0  0  0  0
   -9.5640   20.4720  -32.3470 C   0  0  0  0  0  0  0  0  0  0  0  0
   -8.9880   21.2560  -31.1700 C   0  0  0  0  0  0  0  0  0  0  0  0
   -7.6070   21.7490  -31.5000 C   0  0  0  0  0  0  0  0  0  0  0  0
   -7.1400   22.9420  -30.9290 C   0  0  0  0  0  0  0  0  0  0  0  0
   -5.8600   23.4180  -31.2270 C   0  0  0  0  0  0  0  0  0  0  0  0
   -5.3070   24.9300  -30.5110 S   0  0  0  0  0  0  0  0  0  0  0  0
   -5.8430   25.0940  -29.1150 O   0  0  0  0  0  0  0  0  0  0  0  0
   -5.8020   26.0730  -31.3500 O   0  0  0  0  0  0  0  0  0  0  0  0
   -3.5730   24.9600  -30.4740 N   0  0  0  0  0  0  0  0  0  0  0  0
   -2.7440   24.1100  -29.6670 C   0  0  0  0  0  0  0  0  0  0  0  0
   -3.0650   22.7620  -29.4330 C   0  0  0  0  0  0  0  0  0  0  0  0
   -2.2350   21.9650  -28.6310 C   0  0  0  0  0  0  0  0  0  0  0  0
   -1.0730   22.5100  -28.0640 C   0  0  0  0  0  0  0  0  0  0  0  0
   -0.7460   23.8510  -28.3050 C   0  0  0  0  0  0  0  0  0  0  0  0
   -1.5810   24.6500  -29.0950 C   0  0  0  0  0  0  0  0  0  0  0  0
   -1.2420   25.9800  -29.3190 O   0  0  0  0  0  0  0  0  0  0  0  0
   -0.1350   21.6120  -27.2950 C   0  0  0  0  0  0  0  0  0  0  0  0
   -0.8660   20.5490  -26.4380 C   0  0  0  0  0  0  0  0  0  0  0  0
   -2.3100   20.2170  -26.8840 C   0  0  0  0  0  0  0  0  0  0  0  0
   -2.5570   20.5210  -28.3650 C   0  0  0  0  0  0  0  0  0  0  0  0
   -5.0420   22.7000  -32.1070 C   0  0  0  0  0  0  0  0  0  0  0  0
   -5.4950   21.5050  -32.6720 C   0  0  0  0  0  0  0  0  0  0  0  0
   -6.7690   20.9930  -32.3490 C   0  0  0  0  0  0  0  0  0  0  0  0
   -5.9433   17.8852  -31.5568 H   0  0  0  0  0  0  0  0  0  0  0  0
   -6.4260   16.7331  -32.8477 H   0  0  0  0  0  0  0  0  0  0  0  0
   -4.7755   17.4420  -32.8477 H   0  0  0  0  0  0  0  0  0  0  0  0
   -9.0092   18.8343  -33.6300 H   0  0  0  0  0  0  0  0  0  0  0  0
   -8.6476   18.5970  -31.8660 H   0  0  0  0  0  0  0  0  0  0  0  0
   -9.6616   21.1398  -33.2156 H   0  0  0  0  0  0  0  0  0  0  0  0
  -10.5507   20.0753  -32.0658 H   0  0  0  0  0  0  0  0  0  0  0  0
   -9.6386   22.1161  -30.9533 H   0  0  0  0  0  0  0  0  0  0  0  0
   -8.9328   20.5958  -30.2919 H   0  0  0  0  0  0  0  0  0  0  0  0
   -7.7861   23.5074  -30.2413 H   0  0  0  0  0  0  0  0  0  0  0  0
   -3.9718   22.3297  -29.8811 H   0  0  0  0  0  0  0  0  0  0  0  0
    0.1706   24.2777  -27.8717 H   0  0  0  0  0  0  0  0  0  0  0  0
    0.5174   21.0929  -28.0126 H   0  0  0  0  0  0  0  0  0  0  0  0
    0.4334   22.2517  -26.6038 H   0  0  0  0  0  0  0  0  0  0  0  0
   -0.2775   19.6204  -26.4741 H   0  0  0  0  0  0  0  0  0  0  0  0
   -0.9512   20.9787  -25.4290 H   0  0  0  0  0  0  0  0  0  0  0  0
   -2.4949   19.1469  -26.7090 H   0  0  0  0  0  0  0  0  0  0  0  0
   -2.9923   20.8495  -26.2971 H   0  0  0  0  0  0  0  0  0  0  0  0
   -1.9132   19.8798  -28.9850 H   0  0  0  0  0  0  0  0  0  0  0  0
   -3.6105   20.3244  -28.6130 H   0  0  0  0  0  0  0  0  0  0  0  0
   -4.0390   23.0778  -32.3547 H   0  0  0  0  0  0  0  0  0  0  0  0
   -4.8512   20.9577  -33.3762 H   0  0  0  0  0  0  0  0  0  0  0  0
  1  2  1  0
  2  3  2  0
  2  4  1  0
  4  5  1  0
  5  6  1  0
  6  7  1  0
  7  8  1  0
  8  9  2  0
  9 10  1  0
 10 11  1  0
 11 12  2  0
 11 13  2  0
 11 14  1  0
 14 15  1  0
 15 16  2  0
 16 17  1  0
 17 18  2  0
 18 19  1  0
 19 20  2  0
 20 21  1  0
 18 22  1  0
 22 23  1  0
 23 24  1  0
 24 25  1  0
 10 26  2  0
 26 27  1  0
 27 28  2  0
 28  4  1  0
 28  8  1  0
 20 15  1  0
 25 17  1  0
  1 29  1  0
  1 30  1  0
  1 31  1  0
  5 32  1  0
  5 33  1  0
  6 34  1  0
  6 35  1  0
  7 36  1  0
  7 37  1  0
  9 38  1  0
 16 39  1  0
 19 40  1  0
 22 41  1  0
 22 42  1  0
 23 43  1  0
 23 44  1  0
 24 45  1  0
 24 46  1  0
 25 47  1  0
 25 48  1  0
 26 49  1  0
 27 50  1  0
M  CHG  2  14  -1  21  -1
M  END
>  <UniqueID>  (32) 
32

>  <SMILES>  (32) 
CC(=O)N1CCCc2cc(S(=O)(=O)[N-]c3cc4c(cc3[O-])CCCC4)ccc21

>  <Energy>  (32) 
65.06335861544261

>  <Genealogy>  (32) 
CC(=O)N1CCCc2cc(S(=O)(=O)[N-]c3cc4c(cc3[O-])CCCC4)ccc21 (protonated)
CC(=O)N1CCCc2cc(S(=O)(=O)[N-]c3cc4c(cc3[O-])CCCC4)ccc21 (3D coordinates assigned)
CC(=O)N1CCCc2cc(S(=O)(=O)[N-]c3cc4c(cc3[O-])CCCC4)ccc21 (nonaromatic ring conformer: 65.06335861544261 kcal/mol)

>  <smiles>  (32) 
CC(=O)N1CCCc2cc(S(=O)(=O)Nc3cc4c(cc3O)CCCC4)ccc21

>  <score_type>  (32) 
oracle

>  <origin>  (32) 
adgpu

>  <m_score__min__energy>  (32) 
-15.5

>  <m_primary>  (32) 
energy

$$$$
32:0
     RDKit          3D

 65 68  0  0  0  0  0  0  0  0999 V2000
   -0.0840   18.8040  -28.7060 C   0  0  0  0  0  0  0  0  0  0  0  0
    0.1600   20.2050  -28.7770 O   0  0  0  0  0  0  0  0  0  0  0  0
   -0.8200   21.1900  -28.5810 C   0  0  0  0  0  0  0  0  0  0  0  0
   -0.5380   22.5660  -28.6780 C   0  0  0  0  0  0  0  0  0  0  0  0
   -1.5490   23.5090  -28.4690 C   0  0  0  0  0  0  0  0  0  0  0  0
   -2.8570   23.0940  -28.1760 C   0  0  0  0  0  0  0  0  0  0  0  0
   -3.9340   24.1090  -27.9010 C   0  0  0  0  0  0  0  0  0  0  0  0
   -4.9930   24.0790  -29.0090 C   0  0  0  0  0  0  0  0  0  0  0  0
   -4.3890   24.3640  -30.3600 C   0  0  0  0  0  0  0  0  0  0  0  0
   -3.5380   25.2840  -30.4780 O   0  0  0  0  0  0  0  0  0  0  0  0
   -4.7770   23.6270  -31.5260 N   0  0  0  0  0  0  0  0  0  0  0  0
   -4.1830   22.4050  -31.9870 C   0  0  0  0  0  0  0  0  0  0  0  0
   -2.7850   22.2610  -32.0510 C   0  0  0  0  0  0  0  0  0  0  0  0
   -2.2140   21.0610  -32.4920 C   0  0  0  0  0  0  0  0  0  0  0  0
   -0.4630   20.8780  -32.5750 S   0  0  0  0  0  0  0  0  0  0  0  0
   -0.1320   19.4140  -32.4830 O   0  0  0  0  0  0  0  0  0  0  0  0
    0.1850   21.5890  -31.4170 O   0  0  0  0  0  0  0  0  0  0  0  0
    0.1260   21.5240  -34.0910 N   0  0  0  0  0  0  0  0  0  0  0  0
    1.5720   21.3120  -34.2170 C   0  0  0  0  0  0  0  0  0  0  0  0
    1.7980   20.0130  -34.9760 C   0  0  0  0  0  0  0  0  0  0  0  0
    0.4650   19.6770  -35.6160 C   0  0  0  0  0  0  0  0  0  0  0  0
   -0.4740   20.8070  -35.2210 C   0  0  0  0  0  0  0  0  0  0  0  0
   -3.0420   20.0070  -32.8930 C   0  0  0  0  0  0  0  0  0  0  0  0
   -4.4300   20.1500  -32.8580 C   0  0  0  0  0  0  0  0  0  0  0  0
   -5.0080   21.3490  -32.4180 C   0  0  0  0  0  0  0  0  0  0  0  0
   -6.4380   21.4810  -32.3810 N   0  0  0  0  0  0  0  0  0  0  0  0
   -7.2630   20.2950  -32.1200 C   0  0  0  0  0  0  0  0  0  0  0  0
   -8.7450   20.6650  -31.9760 C   0  0  0  0  0  0  0  0  0  0  0  0
   -8.8960   21.9000  -31.0810 C   0  0  0  0  0  0  0  0  0  0  0  0
   -8.1240   23.1250  -31.6190 C   0  0  0  0  0  0  0  0  0  0  0  0
   -7.0650   22.7740  -32.6780 C   0  0  0  0  0  0  0  0  0  0  0  0
   -3.1350   21.7220  -28.0700 C   0  0  0  0  0  0  0  0  0  0  0  0
   -2.1230   20.7800  -28.2770 C   0  0  0  0  0  0  0  0  0  0  0  0
   -0.1380   18.4942  -27.6519 H   0  0  0  0  0  0  0  0  0  0  0  0
   -1.0361   18.5718  -29.2056 H   0  0  0  0  0  0  0  0  0  0  0  0
    0.7336   18.2636  -29.2056 H   0  0  0  0  0  0  0  0  0  0  0  0
    0.4818   22.9005  -28.9192 H   0  0  0  0  0  0  0  0  0  0  0  0
   -1.3176   24.5824  -28.5346 H   0  0  0  0  0  0  0  0  0  0  0  0
   -4.4114   23.8786  -26.9372 H   0  0  0  0  0  0  0  0  0  0  0  0
   -3.4802   25.1105  -27.8686 H   0  0  0  0  0  0  0  0  0  0  0  0
   -5.4604   23.0834  -29.0295 H   0  0  0  0  0  0  0  0  0  0  0  0
   -5.7390   24.8582  -28.7938 H   0  0  0  0  0  0  0  0  0  0  0  0
   -2.1358   23.0973  -31.7524 H   0  0  0  0  0  0  0  0  0  0  0  0
    2.0243   22.1492  -34.7688 H   0  0  0  0  0  0  0  0  0  0  0  0
    2.0358   21.2557  -33.2212 H   0  0  0  0  0  0  0  0  0  0  0  0
    2.5708   20.1483  -35.7470 H   0  0  0  0  0  0  0  0  0  0  0  0
    2.1444   19.2082  -34.3110 H   0  0  0  0  0  0  0  0  0  0  0  0
    0.5661   19.6264  -36.7102 H   0  0  0  0  0  0  0  0  0  0  0  0
    0.0881   18.6988  -35.2826 H   0  0  0  0  0  0  0  0  0  0  0  0
   -0.6083   21.4940  -36.0695 H   0  0  0  0  0  0  0  0  0  0  0  0
   -1.4574   20.4038  -34.9376 H   0  0  0  0  0  0  0  0  0  0  0  0
   -2.5973   19.0616  -33.2373 H   0  0  0  0  0  0  0  0  0  0  0  0
   -5.0739   19.3173  -33.1774 H   0  0  0  0  0  0  0  0  0  0  0  0
   -7.1499   19.5892  -32.9561 H   0  0  0  0  0  0  0  0  0  0  0  0
   -6.9265   19.8398  -31.1769 H   0  0  0  0  0  0  0  0  0  0  0  0
   -9.1637   20.8826  -32.9697 H   0  0  0  0  0  0  0  0  0  0  0  0
   -9.2834   19.8217  -31.5190 H   0  0  0  0  0  0  0  0  0  0  0  0
   -9.9632   22.1581  -31.0148 H   0  0  0  0  0  0  0  0  0  0  0  0
   -8.4758   21.6493  -30.0958 H   0  0  0  0  0  0  0  0  0  0  0  0
   -8.8474   23.8208  -32.0690 H   0  0  0  0  0  0  0  0  0  0  0  0
   -7.5897   23.5678  -30.7655 H   0  0  0  0  0  0  0  0  0  0  0  0
   -7.5463   22.7227  -33.6658 H   0  0  0  0  0  0  0  0  0  0  0  0
   -6.2877   23.5523  -32.6701 H   0  0  0  0  0  0  0  0  0  0  0  0
   -4.1532   21.3869  -27.8231 H   0  0  0  0  0  0  0  0  0  0  0  0
   -2.3530   19.7070  -28.2002 H   0  0  0  0  0  0  0  0  0  0  0  0
  1  2  1  0
  2  3  1  0
  3  4  2  0
  4  5  1  0
  5  6  2  0
  6  7  1  0
  7  8  1  0
  8  9  1  0
  9 10  2  0
  9 11  1  0
 11 12  1  0
 12 13  2  0
 13 14  1  0
 14 15  1  0
 15 16  2  0
 15 17  2  0
 15 18  1  0
 18 19  1  0
 19 20  1  0
 20 21  1  0
 21 22  1  0
 14 23  2  0
 23 24  1  0
 24 25  2  0
 25 26  1  0
 26 27  1  0
 27 28  1  0
 28 29  1  0
 29 30  1  0
 30 31  1  0
  6 32  1  0
 32 33  2  0
 33  3  1  0
 25 12  1  0
 31 26  1  0
 22 18  1  0
  1 34  1  0
  1 35  1  0
  1 36  1  0
  4 37  1  0
  5 38  1  0
  7 39  1  0
  7 40  1  0
  8 41  1  0
  8 42  1  0
 13 43  1  0
 19 44  1  0
 19 45  1  0
 20 46  1  0
 20 47  1  0
 21 48  1  0
 21 49  1  0
 22 50  1  0
 22 51  1  0
 23 52  1  0
 24 53  1  0
 27 54  1  0
 27 55  1  0
 28 56  1  0
 28 57  1  0
 29 58  1  0
 29 59  1  0
 30 60  1  0
 30 61  1  0
 31 62  1  0
 31 63  1  0
 32 64  1  0
 33 65  1  0
M  CHG  1  11  -1
M  END
>  <UniqueID>  (33) 
33

>  <SMILES>  (33) 
COc1ccc(CCC(=O)[N-]c2cc(S(=O)(=O)N3CCCC3)ccc2N2CCCCC2)cc1

>  <Energy>  (33) 
73.61453320858588

>  <Genealogy>  (33) 
COc1ccc(CCC(=O)[N-]c2cc(S(=O)(=O)N3CCCC3)ccc2N2CCCCC2)cc1 (protonated)
COc1ccc(CCC(=O)[N-]c2cc(S(=O)(=O)N3CCCC3)ccc2N2CCCCC2)cc1 (3D coordinates assigned)
COc1ccc(CCC(=O)[N-]c2cc(S(=O)(=O)N3CCCC3)ccc2N2CCCCC2)cc1 (nonaromatic ring conformer: 73.61453320858588 kcal/mol)

>  <smiles>  (33) 
COc1ccc(CCC(=O)Nc2cc(S(=O)(=O)N3CCCC3)ccc2N2CCCCC2)cc1

>  <score_type>  (33) 
oracle

>  <origin>  (33) 
adgpu

>  <m_score__min__energy>  (33) 
-11.41

>  <m_primary>  (33) 
energy

$$$$
33:0
     RDKit          3D

 42 44  0  0  0  0  0  0  0  0999 V2000
   -5.7410   26.2030  -30.3020 O   0  0  0  0  0  0  0  0  0  0  0  0
   -5.0560   25.1780  -30.5590 C   0  0  0  0  0  0  0  0  0  0  0  0
   -3.6360   25.2310  -30.3570 N   0  0  0  0  0  0  0  0  0  0  0  0
   -2.8870   24.4630  -29.4020 C   0  0  0  0  0  0  0  0  0  0  0  0
   -3.3350   23.1990  -28.9740 C   0  0  0  0  0  0  0  0  0  0  0  0
   -2.5900   22.4620  -28.0500 C   0  0  0  0  0  0  0  0  0  0  0  0
   -1.3840   22.9660  -27.5610 C   0  0  0  0  0  0  0  0  0  0  0  0
   -0.9170   24.2080  -28.0000 C   0  0  0  0  0  0  0  0  0  0  0  0
   -1.6580   24.9570  -28.9220 C   0  0  0  0  0  0  0  0  0  0  0  0
   -1.1600   26.1920  -29.3380 O   0  0  0  0  0  0  0  0  0  0  0  0
   -5.7360   23.9450  -31.0150 C   0  0  0  0  0  0  0  0  0  0  0  0
   -5.0260   22.9720  -31.7370 C   0  0  0  0  0  0  0  0  0  0  0  0
   -5.6560   21.7920  -32.1450 C   0  0  0  0  0  0  0  0  0  0  0  0
   -7.0070   21.5750  -31.8450 C   0  0  0  0  0  0  0  0  0  0  0  0
   -7.7940   20.0670  -32.3200 S   0  0  0  0  0  0  0  0  0  0  0  0
   -8.5600   19.5200  -31.1480 O   0  0  0  0  0  0  0  0  0  0  0  0
   -8.7740   20.3460  -33.4260 O   0  0  0  0  0  0  0  0  0  0  0  0
   -6.6360   18.8760  -32.8590 N   0  0  0  0  0  0  0  0  0  0  0  0
   -6.1680   19.1900  -34.2170 C   0  0  0  0  0  0  0  0  0  0  0  0
   -5.1240   18.1450  -34.6650 C   0  0  0  0  0  0  0  0  0  0  0  0
   -5.0260   17.0570  -33.7610 O   0  0  0  0  0  0  0  0  0  0  0  0
   -6.3100   16.5090  -33.5290 C   0  0  0  0  0  0  0  0  0  0  0  0
   -7.2280   17.5280  -32.8250 C   0  0  0  0  0  0  0  0  0  0  0  0
   -7.7280   22.5560  -31.1530 C   0  0  0  0  0  0  0  0  0  0  0  0
   -7.1000   23.7340  -30.7440 C   0  0  0  0  0  0  0  0  0  0  0  0
   -4.2764   22.7895  -29.3690 H   0  0  0  0  0  0  0  0  0  0  0  0
   -2.9548   21.4825  -27.7072 H   0  0  0  0  0  0  0  0  0  0  0  0
   -0.8012   22.3860  -26.8303 H   0  0  0  0  0  0  0  0  0  0  0  0
    0.0379   24.5992  -27.6190 H   0  0  0  0  0  0  0  0  0  0  0  0
   -1.2380   26.5140  -30.2950 H   0  0  0  0  0  0  0  0  0  0  0  0
   -3.9670   23.1391  -31.9833 H   0  0  0  0  0  0  0  0  0  0  0  0
   -5.0891   21.0322  -32.7030 H   0  0  0  0  0  0  0  0  0  0  0  0
   -7.0218   19.1737  -34.9104 H   0  0  0  0  0  0  0  0  0  0  0  0
   -5.7068   20.1886  -34.2204 H   0  0  0  0  0  0  0  0  0  0  0  0
   -5.4130   17.7582  -35.6533 H   0  0  0  0  0  0  0  0  0  0  0  0
   -4.1437   18.6430  -34.6980 H   0  0  0  0  0  0  0  0  0  0  0  0
   -6.7594   16.2258  -34.4922 H   0  0  0  0  0  0  0  0  0  0  0  0
   -6.2022   15.6279  -32.8794 H   0  0  0  0  0  0  0  0  0  0  0  0
   -8.2020   17.5489  -33.3357 H   0  0  0  0  0  0  0  0  0  0  0  0
   -7.3525   17.2240  -31.7752 H   0  0  0  0  0  0  0  0  0  0  0  0
   -8.7936   22.3978  -30.9307 H   0  0  0  0  0  0  0  0  0  0  0  0
   -7.6756   24.5019  -30.2064 H   0  0  0  0  0  0  0  0  0  0  0  0
  1  2  2  0
  2  3  1  0
  3  4  1  0
  4  5  2  0
  5  6  1  0
  6  7  2  0
  7  8  1  0
  8  9  2  0
  9 10  1  0
  2 11  1  0
 11 12  2  0
 12 13  1  0
 13 14  2  0
 14 15  1  0
 15 16  2  0
 15 17  2  0
 15 18  1  0
 18 19  1  0
 19 20  1  0
 20 21  1  0
 21 22  1  0
 22 23  1  0
 14 24  1  0
 24 25  2  0
  9  4  1  0
 25 11  1  0
 23 18  1  0
  5 26  1  0
  6 27  1  0
  7 28  1  0
  8 29  1  0
 10 30  1  0
 12 31  1  0
 13 32  1  0
 19 33  1  0
 19 34  1  0
 20 35  1  0
 20 36  1  0
 22 37  1  0
 22 38  1  0
 23 39  1  0
 23 40  1  0
 24 41  1  0
 25 42  1  0
M  CHG  1   3  -1
M  END
>  <UniqueID>  (34) 
34

>  <SMILES>  (34) 
O=C([N-]c1ccccc1O)c1ccc(S(=O)(=O)N2CCOCC2)cc1

>  <Energy>  (34) 
57.49650742642521

>  <Genealogy>  (34) 
O=C([N-]c1ccccc1O)c1ccc(S(=O)(=O)N2CCOCC2)cc1 (protonated)
O=C([N-]c1ccccc1O)c1ccc(S(=O)(=O)N2CCOCC2)cc1 (3D coordinates assigned)
O=C([N-]c1ccccc1O)c1ccc(S(=O)(=O)N2CCOCC2)cc1 (nonaromatic ring conformer: 57.49650742642521 kcal/mol)

>  <smiles>  (34) 
O=C(Nc1ccccc1O)c1ccc(S(=O)(=O)N2CCOCC2)cc1

>  <score_type>  (34) 
oracle

>  <origin>  (34) 
adgpu

>  <m_score__min__energy>  (34) 
-12.41

>  <m_primary>  (34) 
energy

$$$$
34:0
     RDKit          3D

 51 53  0  0  0  0  0  0  0  0999 V2000
   -2.6020   20.6840  -27.5240 C   0  0  0  0  0  0  0  0  0  0  0  0
   -2.0720   22.0090  -27.9720 C   0  0  0  0  0  0  0  0  0  0  0  0
   -0.7650   22.4070  -27.6350 C   0  0  0  0  0  0  0  0  0  0  0  0
   -0.2530   23.6310  -28.0880 C   0  0  0  0  0  0  0  0  0  0  0  0
    1.1310   24.0610  -27.6940 C   0  0  0  0  0  0  0  0  0  0  0  0
   -1.0640   24.4670  -28.8710 C   0  0  0  0  0  0  0  0  0  0  0  0
   -2.3540   24.0570  -29.2530 C   0  0  0  0  0  0  0  0  0  0  0  0
   -3.1370   24.9180  -30.0880 N   0  0  0  0  0  0  0  0  0  0  0  0
   -4.7990   24.6200  -30.4900 S   0  0  0  0  0  0  0  0  0  0  0  0
   -5.5880   24.4580  -29.2190 O   0  0  0  0  0  0  0  0  0  0  0  0
   -5.3380   25.8220  -31.2190 O   0  0  0  0  0  0  0  0  0  0  0  0
   -4.9880   23.1630  -31.4850 C   0  0  0  0  0  0  0  0  0  0  0  0
   -3.8330   22.4710  -31.8870 C   0  0  0  0  0  0  0  0  0  0  0  0
   -3.9230   21.3100  -32.6630 C   0  0  0  0  0  0  0  0  0  0  0  0
   -2.4540   20.4560  -33.1370 S   0  0  0  0  0  0  0  0  0  0  0  0
   -2.8230   19.2960  -34.0230 O   0  0  0  0  0  0  0  0  0  0  0  0
   -1.5580   21.3820  -33.9130 O   0  0  0  0  0  0  0  0  0  0  0  0
   -1.6170   19.8940  -31.7120 N   0  0  0  0  0  0  0  0  0  0  0  0
   -0.5890   18.9000  -32.0370 C   0  0  0  0  0  0  0  0  0  0  0  0
    0.4970   19.0190  -30.9740 C   0  0  0  0  0  0  0  0  0  0  0  0
    0.2300   20.3400  -30.2630 C   0  0  0  0  0  0  0  0  0  0  0  0
   -0.9120   20.9820  -31.0340 C   0  0  0  0  0  0  0  0  0  0  0  0
   -5.1770   20.8480  -33.0710 C   0  0  0  0  0  0  0  0  0  0  0  0
   -6.3360   21.5220  -32.6780 C   0  0  0  0  0  0  0  0  0  0  0  0
   -6.2600   22.6700  -31.8670 C   0  0  0  0  0  0  0  0  0  0  0  0
   -7.5350   23.3660  -31.4620 C   0  0  0  0  0  0  0  0  0  0  0  0
   -2.8560   22.8360  -28.7910 C   0  0  0  0  0  0  0  0  0  0  0  0
   -2.6166   20.6476  -26.4247 H   0  0  0  0  0  0  0  0  0  0  0  0
   -3.6235   20.5485  -27.9089 H   0  0  0  0  0  0  0  0  0  0  0  0
   -1.9557   19.8814  -27.9089 H   0  0  0  0  0  0  0  0  0  0  0  0
   -0.1396   21.7520  -27.0107 H   0  0  0  0  0  0  0  0  0  0  0  0
    1.2091   24.0853  -26.5970 H   0  0  0  0  0  0  0  0  0  0  0  0
    1.8653   23.3486  -28.0982 H   0  0  0  0  0  0  0  0  0  0  0  0
    1.3323   25.0640  -28.0982 H   0  0  0  0  0  0  0  0  0  0  0  0
   -0.6877   25.4507  -29.1884 H   0  0  0  0  0  0  0  0  0  0  0  0
   -2.8438   22.8474  -31.5874 H   0  0  0  0  0  0  0  0  0  0  0  0
   -2.3150   19.4730  -31.0540 H   0  0  0  0  0  0  0  0  0  0  0  0
   -1.0227   17.8892  -32.0226 H   0  0  0  0  0  0  0  0  0  0  0  0
   -0.1764   19.0756  -33.0414 H   0  0  0  0  0  0  0  0  0  0  0  0
    0.4333   18.1810  -30.2643 H   0  0  0  0  0  0  0  0  0  0  0  0
    1.5041   18.9902  -31.4154 H   0  0  0  0  0  0  0  0  0  0  0  0
   -0.0615   20.1634  -29.2171 H   0  0  0  0  0  0  0  0  0  0  0  0
    1.1227   20.9823  -30.2386 H   0  0  0  0  0  0  0  0  0  0  0  0
   -1.5913   21.5032  -30.3435 H   0  0  0  0  0  0  0  0  0  0  0  0
   -0.5384   21.7246  -31.7544 H   0  0  0  0  0  0  0  0  0  0  0  0
   -5.2519   19.9511  -33.7034 H   0  0  0  0  0  0  0  0  0  0  0  0
   -7.3185   21.1515  -33.0059 H   0  0  0  0  0  0  0  0  0  0  0  0
   -7.6005   23.4018  -30.3645 H   0  0  0  0  0  0  0  0  0  0  0  0
   -7.5369   24.3903  -31.8630 H   0  0  0  0  0  0  0  0  0  0  0  0
   -8.3976   22.8136  -31.8630 H   0  0  0  0  0  0  0  0  0  0  0  0
   -3.8722   22.5219  -29.0715 H   0  0  0  0  0  0  0  0  0  0  0  0
  1  2  1  0
  2  3  2  0
  3  4  1  0
  4  5  1  0
  4  6  2  0
  6  7  1  0
  7  8  1  0
  8  9  1  0
  9 10  2  0
  9 11  2  0
  9 12  1  0
 12 13  2  0
 13 14  1  0
 14 15  1  0
 15 16  2  0
 15 17  2  0
 15 18  1  0
 18 19  1  0
 19 20  1  0
 20 21  1  0
 21 22  1  0
 14 23  2  0
 23 24  1  0
 24 25  2  0
 25 26  1  0
  7 27  2  0
 27  2  1  0
 25 12  1  0
 22 18  1  0
  1 28  1  0
  1 29  1  0
  1 30  1  0
  3 31  1  0
  5 32  1  0
  5 33  1  0
  5 34  1  0
  6 35  1  0
 13 36  1  0
 18 37  1  0
 19 38  1  0
 19 39  1  0
 20 40  1  0
 20 41  1  0
 21 42  1  0
 21 43  1  0
 22 44  1  0
 22 45  1  0
 23 46  1  0
 24 47  1  0
 26 48  1  0
 26 49  1  0
 26 50  1  0
 27 51  1  0
M  CHG  2   8  -1  18   1
M  END
>  <UniqueID>  (35) 
35

>  <SMILES>  (35) 
Cc1cc(C)cc([N-]S(=O)(=O)c2cc(S(=O)(=O)[NH+]3CCCC3)ccc2C)c1

>  <Energy>  (35) 
58.248218200250484

>  <Genealogy>  (35) 
Cc1cc(C)cc([N-]S(=O)(=O)c2cc(S(=O)(=O)[NH+]3CCCC3)ccc2C)c1 (protonated)
Cc1cc(C)cc([N-]S(=O)(=O)c2cc(S(=O)(=O)[NH+]3CCCC3)ccc2C)c1 (3D coordinates assigned)
Cc1cc(C)cc([N-]S(=O)(=O)c2cc(S(=O)(=O)[NH+]3CCCC3)ccc2C)c1 (nonaromatic ring conformer: 58.248218200250484 kcal/mol)

>  <smiles>  (35) 
Cc1cc(C)cc(NS(=O)(=O)c2cc(S(=O)(=O)N3CCCC3)ccc2C)c1

>  <score_type>  (35) 
oracle

>  <origin>  (35) 
adgpu

>  <m_score__min__energy>  (35) 
-10.07

>  <m_primary>  (35) 
energy

$$$$
35:0
     RDKit          3D

 58 62  0  0  0  0  0  0  0  0999 V2000
   -5.6680   18.9500  -35.1860 O   0  0  0  0  0  0  0  0  0  0  0  0
   -5.6760   18.4340  -34.0380 C   0  0  0  0  0  0  0  0  0  0  0  0
   -4.7200   17.4060  -33.7410 N   0  0  0  0  0  0  0  0  0  0  0  0
   -3.3890   17.6050  -33.2440 C   0  0  0  0  0  0  0  0  0  0  0  0
   -2.5640   16.5230  -32.8860 C   0  0  0  0  0  0  0  0  0  0  0  0
   -1.2800   16.7560  -32.3840 C   0  0  0  0  0  0  0  0  0  0  0  0
   -0.8170   18.0630  -32.2210 C   0  0  0  0  0  0  0  0  0  0  0  0
   -1.6360   19.1470  -32.5560 C   0  0  0  0  0  0  0  0  0  0  0  0
   -1.0550   20.7920  -32.3100 S   0  0  0  0  0  0  0  0  0  0  0  0
    0.4250   20.8240  -32.5710 O   0  0  0  0  0  0  0  0  0  0  0  0
   -1.7320   21.7250  -33.2760 O   0  0  0  0  0  0  0  0  0  0  0  0
   -1.3760   21.2930  -30.6680 N   0  0  0  0  0  0  0  0  0  0  0  0
   -2.4150   20.4220  -30.0690 C   0  0  0  0  0  0  0  0  0  0  0  0
   -2.4520   20.4900  -28.5250 C   0  0  0  0  0  0  0  0  0  0  0  0
   -1.7950   21.7660  -27.9970 C   0  0  0  0  0  0  0  0  0  0  0  0
   -0.3400   21.8810  -28.4790 C   0  0  0  0  0  0  0  0  0  0  0  0
   -0.1280   21.2720  -29.8810 C   0  0  0  0  0  0  0  0  0  0  0  0
   -2.9260   18.9130  -33.0550 C   0  0  0  0  0  0  0  0  0  0  0  0
   -6.7140   18.8410  -33.0620 C   0  0  0  0  0  0  0  0  0  0  0  0
   -7.5730   17.8650  -32.5270 C   0  0  0  0  0  0  0  0  0  0  0  0
   -8.5810   18.2220  -31.6280 C   0  0  0  0  0  0  0  0  0  0  0  0
   -8.7440   19.5530  -31.2530 C   0  0  0  0  0  0  0  0  0  0  0  0
   -7.9000   20.5360  -31.7750 C   0  0  0  0  0  0  0  0  0  0  0  0
   -6.8870   20.1960  -32.6900 C   0  0  0  0  0  0  0  0  0  0  0  0
   -5.9780   21.2070  -33.1590 N   0  0  0  0  0  0  0  0  0  0  0  0
   -5.5080   22.3020  -32.3550 C   0  0  0  0  0  0  0  0  0  0  0  0
   -6.3690   23.4040  -32.1120 C   0  0  0  0  0  0  0  0  0  0  0  0
   -5.9520   24.4810  -31.3090 C   0  0  0  0  0  0  0  0  0  0  0  0
   -4.6760   24.4210  -30.7570 C   0  0  0  0  0  0  0  0  0  0  0  0
   -4.0830   25.3230  -29.9630 N   0  0  0  0  0  0  0  0  0  0  0  0
   -2.8790   24.7440  -29.7250 C   0  0  0  0  0  0  0  0  0  0  0  0
   -2.0020   25.2860  -29.0040 O   0  0  0  0  0  0  0  0  0  0  0  0
   -2.6890   23.5400  -30.3210 N   0  0  0  0  0  0  0  0  0  0  0  0
   -3.8480   23.3610  -30.9700 C   0  0  0  0  0  0  0  0  0  0  0  0
   -4.2250   22.2770  -31.7570 C   0  0  0  0  0  0  0  0  0  0  0  0
   -2.9298   15.4920  -33.0012 H   0  0  0  0  0  0  0  0  0  0  0  0
   -0.6330   15.9074  -32.1168 H   0  0  0  0  0  0  0  0  0  0  0  0
    0.1948   18.2412  -31.8280 H   0  0  0  0  0  0  0  0  0  0  0  0
   -1.7340   22.2760  -30.7150 H   0  0  0  0  0  0  0  0  0  0  0  0
   -3.3968   20.7323  -30.4561 H   0  0  0  0  0  0  0  0  0  0  0  0
   -2.1706   19.3855  -30.3444 H   0  0  0  0  0  0  0  0  0  0  0  0
   -3.5003   20.4654  -28.1925 H   0  0  0  0  0  0  0  0  0  0  0  0
   -1.8921   19.6289  -28.1312 H   0  0  0  0  0  0  0  0  0  0  0  0
   -2.3623   22.6372  -28.3566 H   0  0  0  0  0  0  0  0  0  0  0  0
   -1.7965   21.7299  -26.8976 H   0  0  0  0  0  0  0  0  0  0  0  0
   -0.0631   22.9451  -28.5118 H   0  0  0  0  0  0  0  0  0  0  0  0
    0.2895   21.3188  -27.7735 H   0  0  0  0  0  0  0  0  0  0  0  0
    0.6404   21.8532  -30.4119 H   0  0  0  0  0  0  0  0  0  0  0  0
    0.1897   20.2257  -29.7611 H   0  0  0  0  0  0  0  0  0  0  0  0
   -3.5790   19.7637  -33.2998 H   0  0  0  0  0  0  0  0  0  0  0  0
   -7.4504   16.8115  -32.8187 H   0  0  0  0  0  0  0  0  0  0  0  0
   -9.2473   17.4500  -31.2156 H   0  0  0  0  0  0  0  0  0  0  0  0
   -9.5385   19.8308  -30.5447 H   0  0  0  0  0  0  0  0  0  0  0  0
   -8.0285   21.5845  -31.4681 H   0  0  0  0  0  0  0  0  0  0  0  0
   -5.6160   21.1220  -34.1360 H   0  0  0  0  0  0  0  0  0  0  0  0
   -7.3748   23.4159  -32.5572 H   0  0  0  0  0  0  0  0  0  0  0  0
   -6.6120   25.3413  -31.1237 H   0  0  0  0  0  0  0  0  0  0  0  0
   -3.5458   21.4254  -31.9100 H   0  0  0  0  0  0  0  0  0  0  0  0
  1  2  2  0
  2  3  1  0
  3  4  1  0
  4  5  2  0
  5  6  1  0
  6  7  2  0
  7  8  1  0
  8  9  1  0
  9 10  2  0
  9 11  2  0
  9 12  1  0
 12 13  1  0
 13 14  1  0
 14 15  1  0
 15 16  1  0
 16 17  1  0
  8 18  2  0
  2 19  1  0
 19 20  2  0
 20 21  1  0
 21 22  2  0
 22 23  1  0
 23 24  2  0
 24 25  1  0
 25 26  1  0
 26 27  2  0
 27 28  1  0
 28 29  2  0
 29 30  1  0
 30 31  1  0
 31 32  2  0
 31 33  1  0
 33 34  1  0
 34 35  2  0
 18  4  1  0
 24 19  1  0
 35 26  1  0
 17 12  1  0
 34 29  1  0
  5 36  1  0
  6 37  1  0
  7 38  1  0
 12 39  1  0
 13 40  1  0
 13 41  1  0
 14 42  1  0
 14 43  1  0
 15 44  1  0
 15 45  1  0
 16 46  1  0
 16 47  1  0
 17 48  1  0
 17 49  1  0
 18 50  1  0
 20 51  1  0
 21 52  1  0
 22 53  1  0
 23 54  1  0
 25 55  1  0
 27 56  1  0
 28 57  1  0
 35 58  1  0
M  CHG  4   3  -1  12   1  30  -1  33  -1
M  END
>  <UniqueID>  (36) 
36

>  <SMILES>  (36) 
O=C([N-]c1cccc(S(=O)(=O)[NH+]2CCCCC2)c1)c1ccccc1Nc1ccc2[n-]c(=O)[n-]c2c1

>  <Energy>  (36) 
115.49216031647201

>  <Genealogy>  (36) 
O=C([N-]c1cccc(S(=O)(=O)[NH+]2CCCCC2)c1)c1ccccc1Nc1ccc2[n-]c(=O)[n-]c2c1 (protonated)
O=C([N-]c1cccc(S(=O)(=O)[NH+]2CCCCC2)c1)c1ccccc1Nc1ccc2[n-]c(=O)[n-]c2c1 (3D coordinates assigned)
O=C([N-]c1cccc(S(=O)(=O)[NH+]2CCCCC2)c1)c1ccccc1Nc1ccc2[n-]c(=O)[n-]c2c1 (nonaromatic ring conformer: 115.49216031647201 kcal/mol)

>  <smiles>  (36) 
O=C(Nc1cccc(S(=O)(=O)N2CCCCC2)c1)c1ccccc1Nc1ccc2[nH]c(=O)[nH]c2c1

>  <score_type>  (36) 
oracle

>  <origin>  (36) 
adgpu

>  <m_score__min__energy>  (36) 
-12.140000000000001

>  <m_primary>  (36) 
energy

$$$$
36:0
     RDKit          3D

 70 74  0  0  0  0  0  0  0  0999 V2000
    1.0130   20.3040  -29.4700 O   0  0  0  0  0  0  0  0  0  0  0  0
   -0.1390   20.2410  -29.9830 C   0  0  0  0  0  0  0  0  0  0  0  0
   -1.2610   20.9230  -29.3170 C   0  0  0  0  0  0  0  0  0  0  0  0
   -2.0130   20.2490  -28.3440 C   0  0  0  0  0  0  0  0  0  0  0  0
   -3.0980   20.8790  -27.7330 C   0  0  0  0  0  0  0  0  0  0  0  0
   -3.4790   22.1670  -28.1250 C   0  0  0  0  0  0  0  0  0  0  0  0
   -4.6020   22.7480  -27.5360 O   0  0  0  0  0  0  0  0  0  0  0  0
   -2.7340   22.8440  -29.1080 C   0  0  0  0  0  0  0  0  0  0  0  0
   -3.1620   24.1120  -29.5980 N   0  0  0  0  0  0  0  0  0  0  0  0
   -4.6990   24.2600  -30.3790 S   0  0  0  0  0  0  0  0  0  0  0  0
   -4.7200   25.5160  -31.2070 O   0  0  0  0  0  0  0  0  0  0  0  0
   -5.7840   24.3400  -29.3400 O   0  0  0  0  0  0  0  0  0  0  0  0
   -4.9630   22.8710  -31.4300 C   0  0  0  0  0  0  0  0  0  0  0  0
   -3.9580   22.4760  -32.3220 C   0  0  0  0  0  0  0  0  0  0  0  0
   -4.1270   21.3330  -33.1060 C   0  0  0  0  0  0  0  0  0  0  0  0
   -5.2970   20.5780  -33.0050 C   0  0  0  0  0  0  0  0  0  0  0  0
   -6.3100   20.9540  -32.1100 C   0  0  0  0  0  0  0  0  0  0  0  0
   -7.8000   19.9960  -32.0450 S   0  0  0  0  0  0  0  0  0  0  0  0
   -8.6360   20.3390  -33.2450 O   0  0  0  0  0  0  0  0  0  0  0  0
   -8.5610   20.3930  -30.8110 O   0  0  0  0  0  0  0  0  0  0  0  0
   -7.5770   18.2600  -32.0470 N   0  0  0  0  0  0  0  0  0  0  0  0
   -7.2320   17.7230  -33.3630 C   0  0  0  0  0  0  0  0  0  0  0  0
   -6.4410   16.4610  -33.1020 C   0  0  0  0  0  0  0  0  0  0  0  0
   -5.7060   16.7510  -31.8110 C   0  0  0  0  0  0  0  0  0  0  0  0
   -6.5480   17.8060  -31.1030 C   0  0  0  0  0  0  0  0  0  0  0  0
   -6.1380   22.1110  -31.3300 C   0  0  0  0  0  0  0  0  0  0  0  0
   -1.6100   22.2290  -29.6780 C   0  0  0  0  0  0  0  0  0  0  0  0
   -0.3530   19.4670  -31.1750 N   0  0  0  0  0  0  0  0  0  0  0  0
    0.3450   18.1870  -31.3450 C   0  0  0  0  0  0  0  0  0  0  0  0
    0.2990   17.7020  -32.8070 C   0  0  0  0  0  0  0  0  0  0  0  0
   -1.1300   17.7190  -33.4570 C   0  0  0  0  0  0  0  0  0  0  0  0
   -0.9440   17.9800  -34.8310 O   0  0  0  0  0  0  0  0  0  0  0  0
   -1.8810   16.3740  -33.3440 C   0  0  0  0  0  0  0  0  0  0  0  0
   -1.4060   15.3260  -32.5180 C   0  0  0  0  0  0  0  0  0  0  0  0
   -2.1070   14.1240  -32.3970 C   0  0  0  0  0  0  0  0  0  0  0  0
   -3.3090   13.9400  -33.0730 C   0  0  0  0  0  0  0  0  0  0  0  0
   -3.8220   14.9630  -33.8660 C   0  0  0  0  0  0  0  0  0  0  0  0
   -3.1330   16.1760  -34.0000 C   0  0  0  0  0  0  0  0  0  0  0  0
   -3.9210   17.4160  -34.9800 Cl  0  0  0  0  0  0  0  0  0  0  0  0
   -2.0310   18.8300  -32.8300 C   0  0  0  0  0  0  0  0  0  0  0  0
   -1.2140   19.9800  -32.2460 C   0  0  0  0  0  0  0  0  0  0  0  0
   -1.7466   19.2199  -28.0613 H   0  0  0  0  0  0  0  0  0  0  0  0
   -3.6563   20.3606  -26.9395 H   0  0  0  0  0  0  0  0  0  0  0  0
   -5.0560   23.5670  -27.9230 H   0  0  0  0  0  0  0  0  0  0  0  0
   -3.0341   23.0672  -32.4051 H   0  0  0  0  0  0  0  0  0  0  0  0
   -3.3355   21.0263  -33.8057 H   0  0  0  0  0  0  0  0  0  0  0  0
   -5.4255   19.6827  -33.6311 H   0  0  0  0  0  0  0  0  0  0  0  0
   -8.1440   17.4918  -33.9329 H   0  0  0  0  0  0  0  0  0  0  0  0
   -6.6531   18.4470  -33.9552 H   0  0  0  0  0  0  0  0  0  0  0  0
   -7.1111   15.5965  -32.9849 H   0  0  0  0  0  0  0  0  0  0  0  0
   -5.7612   16.2084  -33.9291 H   0  0  0  0  0  0  0  0  0  0  0  0
   -5.6303   15.8414  -31.1970 H   0  0  0  0  0  0  0  0  0  0  0  0
   -4.6776   17.0972  -31.9911 H   0  0  0  0  0  0  0  0  0  0  0  0
   -7.0229   17.3706  -30.2114 H   0  0  0  0  0  0  0  0  0  0  0  0
   -5.9197   18.6497  -30.7814 H   0  0  0  0  0  0  0  0  0  0  0  0
   -6.9317   22.4231  -30.6352 H   0  0  0  0  0  0  0  0  0  0  0  0
   -1.0000   22.7757  -30.4122 H   0  0  0  0  0  0  0  0  0  0  0  0
    1.3956   18.3112  -31.0436 H   0  0  0  0  0  0  0  0  0  0  0  0
   -0.1589   17.4360  -30.7188 H   0  0  0  0  0  0  0  0  0  0  0  0
    0.9555   18.3515  -33.4047 H   0  0  0  0  0  0  0  0  0  0  0  0
    0.6243   16.6512  -32.7971 H   0  0  0  0  0  0  0  0  0  0  0  0
   -1.2330   17.1830  -35.3470 H   0  0  0  0  0  0  0  0  0  0  0  0
   -0.4671   15.4613  -31.9612 H   0  0  0  0  0  0  0  0  0  0  0  0
   -1.7066   13.3185  -31.7638 H   0  0  0  0  0  0  0  0  0  0  0  0
   -3.8529   12.9883  -32.9812 H   0  0  0  0  0  0  0  0  0  0  0  0
   -4.7770   14.8178  -34.3922 H   0  0  0  0  0  0  0  0  0  0  0  0
   -2.6950   19.2291  -33.6110 H   0  0  0  0  0  0  0  0  0  0  0  0
   -2.6037   18.3741  -32.0089 H   0  0  0  0  0  0  0  0  0  0  0  0
   -0.5919   20.4270  -33.0354 H   0  0  0  0  0  0  0  0  0  0  0  0
   -1.8920   20.7450  -31.8397 H   0  0  0  0  0  0  0  0  0  0  0  0
  1  2  2  0
  2  3  1  0
  3  4  2  0
  4  5  1  0
  5  6  2  0
  6  7  1  0
  6  8  1  0
  8  9  1  0
  9 10  1  0
 10 11  2  0
 10 12  2  0
 10 13  1  0
 13 14  2  0
 14 15  1  0
 15 16  2  0
 16 17  1  0
 17 18  1  0
 18 19  2  0
 18 20  2  0
 18 21  1  0
 21 22  1  0
 22 23  1  0
 23 24  1  0
 24 25  1  0
 17 26  2  0
  8 27  2  0
  2 28  1  0
 28 29  1  0
 29 30  1  0
 30 31  1  0
 31 32  1  0
 31 33  1  0
 33 34  2  0
 34 35  1  0
 35 36  2  0
 36 37  1  0
 37 38  2  0
 38 39  1  0
 31 40  1  0
 40 41  1  0
 27  3  1  0
 41 28  1  0
 26 13  1  0
 38 33  1  0
 25 21  1  0
  4 42  1  0
  5 43  1  0
  7 44  1  0
 14 45  1  0
 15 46  1  0
 16 47  1  0
 22 48  1  0
 22 49  1  0
 23 50  1  0
 23 51  1  0
 24 52  1  0
 24 53  1  0
 25 54  1  0
 25 55  1  0
 26 56  1  0
 27 57  1  0
 29 58  1  0
 29 59  1  0
 30 60  1  0
 30 61  1  0
 32 62  1  0
 34 63  1  0
 35 64  1  0
 36 65  1  0
 37 66  1  0
 40 67  1  0
 40 68  1  0
 41 69  1  0
 41 70  1  0
M  CHG  1   9  -1
M  END
>  <UniqueID>  (37) 
37

>  <SMILES>  (37) 
O=C(c1ccc(O)c([N-]S(=O)(=O)c2cccc(S(=O)(=O)N3CCCC3)c2)c1)N1CCC(O)(c2ccccc2Cl)CC1

>  <Energy>  (37) 
100.18485215819017

>  <Genealogy>  (37) 
O=C(c1ccc(O)c([N-]S(=O)(=O)c2cccc(S(=O)(=O)N3CCCC3)c2)c1)N1CCC(O)(c2ccccc2Cl)CC1 (protonated)
O=C(c1ccc(O)c([N-]S(=O)(=O)c2cccc(S(=O)(=O)N3CCCC3)c2)c1)N1CCC(O)(c2ccccc2Cl)CC1 (3D coordinates assigned)
O=C(c1ccc(O)c([N-]S(=O)(=O)c2cccc(S(=O)(=O)N3CCCC3)c2)c1)N1CCC(O)(c2ccccc2Cl)CC1 (nonaromatic ring conformer: 100.18485215819017 kcal/mol)

>  <smiles>  (37) 
O=C(c1ccc(O)c(NS(=O)(=O)c2cccc(S(=O)(=O)N3CCCC3)c2)c1)N1CCC(O)(c2ccccc2Cl)CC1

>  <score_type>  (37) 
oracle

>  <origin>  (37) 
adgpu

>  <m_score__min__energy>  (37) 
-11.699999999999999

>  <m_primary>  (37) 
energy

$$$$
37:0
     RDKit          3D

 32 34  0  0  0  0  0  0  0  0999 V2000
   -8.5890   24.2930  -31.6740 H   0  0  0  0  0  0  0  0  0  0  0  0
   -7.9250   23.6380  -32.0680 O   0  0  0  0  0  0  0  0  0  0  0  0
   -6.6340   23.4770  -31.5650 C   0  0  0  0  0  0  0  0  0  0  0  0
   -5.8790   24.6190  -31.2820 C   0  0  0  0  0  0  0  0  0  0  0  0
   -6.3104   25.6148  -31.4616 H   0  0  0  0  0  0  0  0  0  0  0  0
   -4.5810   24.5090  -30.7730 C   0  0  0  0  0  0  0  0  0  0  0  0
   -3.8750   25.6740  -30.4900 O   0  0  0  0  0  0  0  0  0  0  0  0
   -4.0120   23.2380  -30.5410 C   0  0  0  0  0  0  0  0  0  0  0  0
   -2.6280   23.1000  -30.0160 C   0  0  0  0  0  0  0  0  0  0  0  0
   -1.9950   24.1270  -29.3840 N   0  0  0  0  0  0  0  0  0  0  0  0
   -0.7410   23.7970  -29.0050 C   0  0  0  0  0  0  0  0  0  0  0  0
    0.1180   24.6340  -28.2170 N   0  0  0  0  0  0  0  0  0  0  0  0
   -0.1520   25.2870  -27.1200 C   0  0  0  0  0  0  0  0  0  0  0  0
    0.8670   25.9420  -26.4980 N   0  0  0  0  0  0  0  0  0  0  0  0
    0.6910   26.6550  -25.3520 C   0  0  0  0  0  0  0  0  0  0  0  0
    1.8550   27.3500  -24.7210 C   0  0  0  0  0  0  0  0  0  0  0  0
    1.7647   27.2961  -23.6260 H   0  0  0  0  0  0  0  0  0  0  0  0
    2.7887   26.8614  -25.0364 H   0  0  0  0  0  0  0  0  0  0  0  0
    1.8679   28.4037  -25.0364 H   0  0  0  0  0  0  0  0  0  0  0  0
   -0.5800   26.7420  -24.7780 C   0  0  0  0  0  0  0  0  0  0  0  0
   -0.7329   27.3107  -23.8489 H   0  0  0  0  0  0  0  0  0  0  0  0
   -1.6520   26.1000  -25.3960 C   0  0  0  0  0  0  0  0  0  0  0  0
   -2.6585   26.1658  -24.9571 H   0  0  0  0  0  0  0  0  0  0  0  0
   -1.4500   25.3730  -26.5720 C   0  0  0  0  0  0  0  0  0  0  0  0
   -2.2952   24.8720  -27.0665 H   0  0  0  0  0  0  0  0  0  0  0  0
   -0.3830   22.2030  -29.3780 S   0  0  0  0  0  0  0  0  0  0  0  0
   -1.8730   21.9270  -30.1100 C   0  0  0  0  0  0  0  0  0  0  0  0
   -2.1967   20.9870  -30.5807 H   0  0  0  0  0  0  0  0  0  0  0  0
   -4.7780   22.0930  -30.8330 C   0  0  0  0  0  0  0  0  0  0  0  0
   -4.3483   21.0951  -30.6609 H   0  0  0  0  0  0  0  0  0  0  0  0
   -6.0780   22.2060  -31.3390 C   0  0  0  0  0  0  0  0  0  0  0  0
   -6.9770   20.7350  -31.6860 Cl  0  0  0  0  0  0  0  0  0  0  0  0
  1  2  1  0
  2  3  1  0
  3  4  2  0
  4  5  1  0
  4  6  1  0
  6  7  1  0
  6  8  2  0
  8  9  1  0
  9 10  1  0
 10 11  2  0
 11 12  1  0
 12 13  2  0
 13 14  1  0
 14 15  1  0
 15 16  1  0
 16 17  1  0
 16 18  1  0
 16 19  1  0
 15 20  2  0
 20 21  1  0
 20 22  1  0
 22 23  1  0
 22 24  2  0
 24 25  1  0
 11 26  1  0
 26 27  1  0
 27 28  1  0
  8 29  1  0
 29 30  1  0
 29 31  2  0
 31 32  1  0
 31  3  1  0
 27  9  2  0
 24 13  1  0
M  CHG  2   7  -1  14  -1
M  END
>  <UniqueID>  (38) 
38

>  <SMILES>  (38) 
Cc1ccc/c(=N\c2nc(-c3cc(Cl)c(O)cc3[O-])cs2)[n-]1

>  <Energy>  (38) 
75.93883592478291

>  <Genealogy>  (38) 
Cc1cccc(=Nc2nc(-c3cc(Cl)c(O)cc3[O-])cs2)[n-]1 (protonated)
Cc1ccc/c(=N\c2nc(-c3cc(Cl)c(O)cc3[O-])cs2)[n-]1 (cis-trans isomerization)
Cc1ccc/c(=N\c2nc(-c3cc(Cl)c(O)cc3[O-])cs2)[n-]1 (3D coordinates assigned)
Cc1ccc/c(=N\c2nc(-c3cc(Cl)c(O)cc3[O-])cs2)[n-]1 (optimized conformer: 75.93883592478291 kcal/mol)

>  <smiles>  (38) 
Cc1cccc(=Nc2nc(-c3cc(Cl)c(O)cc3O)cs2)[nH]1

>  <score_type>  (38) 
oracle

>  <origin>  (38) 
adgpu

>  <m_score__min__energy>  (38) 
-10.42

>  <m_primary>  (38) 
energy

$$$$
38:0
     RDKit          3D

 52 55  0  0  0  0  0  0  0  0999 V2000
   -5.0090   25.5780  -31.2120 O   0  0  0  0  0  0  0  0  0  0  0  0
   -5.7920   24.4840  -30.5420 S   0  0  0  0  0  0  0  0  0  0  0  0
   -7.2170   24.9260  -30.3760 O   0  0  0  0  0  0  0  0  0  0  0  0
   -5.1010   24.1740  -28.9790 N   0  0  0  0  0  0  0  0  0  0  0  0
   -3.8790   23.4380  -28.7890 C   0  0  0  0  0  0  0  0  0  0  0  0
   -3.8890   22.1430  -28.2400 C   0  0  0  0  0  0  0  0  0  0  0  0
   -2.6930   21.4480  -28.0110 C   0  0  0  0  0  0  0  0  0  0  0  0
   -1.4590   22.0630  -28.3230 C   0  0  0  0  0  0  0  0  0  0  0  0
   -1.4540   23.3350  -28.9100 C   0  0  0  0  0  0  0  0  0  0  0  0
   -2.6500   24.0220  -29.1370 C   0  0  0  0  0  0  0  0  0  0  0  0
   -2.6050   25.2930  -29.6970 O   0  0  0  0  0  0  0  0  0  0  0  0
   -0.1460   21.3390  -28.1400 C   0  0  0  0  0  0  0  0  0  0  0  0
   -0.2490   20.1780  -27.1460 C   0  0  0  0  0  0  0  0  0  0  0  0
   -1.4580   19.3030  -27.4760 C   0  0  0  0  0  0  0  0  0  0  0  0
   -2.7550   20.1030  -27.3240 C   0  0  0  0  0  0  0  0  0  0  0  0
   -5.7670   23.0190  -31.5230 C   0  0  0  0  0  0  0  0  0  0  0  0
   -4.6590   22.7250  -32.3280 C   0  0  0  0  0  0  0  0  0  0  0  0
   -4.6250   21.5400  -33.0680 C   0  0  0  0  0  0  0  0  0  0  0  0
   -5.6940   20.6430  -33.0040 C   0  0  0  0  0  0  0  0  0  0  0  0
   -6.8130   20.9340  -32.2100 C   0  0  0  0  0  0  0  0  0  0  0  0
   -8.1520   19.7860  -32.0990 S   0  0  0  0  0  0  0  0  0  0  0  0
   -9.0860   20.0130  -33.2550 O   0  0  0  0  0  0  0  0  0  0  0  0
   -8.9140   20.0450  -30.8290 O   0  0  0  0  0  0  0  0  0  0  0  0
   -7.6220   18.1210  -32.1130 N   0  0  0  0  0  0  0  0  0  0  0  0
   -7.1380   17.7080  -33.4300 C   0  0  0  0  0  0  0  0  0  0  0  0
   -6.1600   16.5680  -33.1910 C   0  0  0  0  0  0  0  0  0  0  0  0
   -5.7610   16.6790  -31.7270 C   0  0  0  0  0  0  0  0  0  0  0  0
   -6.5070   17.8930  -31.1970 C   0  0  0  0  0  0  0  0  0  0  0  0
   -6.8460   22.1250  -31.4740 C   0  0  0  0  0  0  0  0  0  0  0  0
   -5.6890   24.4180  -28.1510 H   0  0  0  0  0  0  0  0  0  0  0  0
   -4.8487   21.6688  -27.9867 H   0  0  0  0  0  0  0  0  0  0  0  0
   -0.4981   23.7984  -29.1955 H   0  0  0  0  0  0  0  0  0  0  0  0
    0.1764   20.9419  -29.1138 H   0  0  0  0  0  0  0  0  0  0  0  0
    0.5798   22.0605  -27.7366 H   0  0  0  0  0  0  0  0  0  0  0  0
    0.6656   19.5695  -27.2027 H   0  0  0  0  0  0  0  0  0  0  0  0
   -0.3683   20.5853  -26.1312 H   0  0  0  0  0  0  0  0  0  0  0  0
   -1.3732   18.9440  -28.5123 H   0  0  0  0  0  0  0  0  0  0  0  0
   -1.4815   18.4509  -26.7808 H   0  0  0  0  0  0  0  0  0  0  0  0
   -3.5804   19.5220  -27.7611 H   0  0  0  0  0  0  0  0  0  0  0  0
   -2.9103   20.2845  -26.2502 H   0  0  0  0  0  0  0  0  0  0  0  0
   -3.8144   23.4279  -32.3778 H   0  0  0  0  0  0  0  0  0  0  0  0
   -3.7551   21.3132  -33.7019 H   0  0  0  0  0  0  0  0  0  0  0  0
   -5.6581   19.7054  -33.5782 H   0  0  0  0  0  0  0  0  0  0  0  0
   -7.9771   17.3649  -34.0531 H   0  0  0  0  0  0  0  0  0  0  0  0
   -6.6545   18.5438  -33.9569 H   0  0  0  0  0  0  0  0  0  0  0  0
   -6.6430   15.5991  -33.3860 H   0  0  0  0  0  0  0  0  0  0  0  0
   -5.2880   16.6300  -33.8587 H   0  0  0  0  0  0  0  0  0  0  0  0
   -6.0586   15.7740  -31.1772 H   0  0  0  0  0  0  0  0  0  0  0  0
   -4.6726   16.7823  -31.6060 H   0  0  0  0  0  0  0  0  0  0  0  0
   -6.8821   17.6963  -30.1818 H   0  0  0  0  0  0  0  0  0  0  0  0
   -5.8495   18.7731  -31.1405 H   0  0  0  0  0  0  0  0  0  0  0  0
   -7.7235   22.3605  -30.8539 H   0  0  0  0  0  0  0  0  0  0  0  0
  1  2  2  0
  2  3  2  0
  2  4  1  0
  4  5  1  0
  5  6  2  0
  6  7  1  0
  7  8  2  0
  8  9  1  0
  9 10  2  0
 10 11  1  0
  8 12  1  0
 12 13  1  0
 13 14  1  0
 14 15  1  0
  2 16  1  0
 16 17  2  0
 17 18  1  0
 18 19  2  0
 19 20  1  0
 20 21  1  0
 21 22  2  0
 21 23  2  0
 21 24  1  0
 24 25  1  0
 25 26  1  0
 26 27  1  0
 27 28  1  0
 20 29  2  0
 10  5  1  0
 29 16  1  0
 15  7  1  0
 28 24  1  0
  4 30  1  0
  6 31  1  0
  9 32  1  0
 12 33  1  0
 12 34  1  0
 13 35  1  0
 13 36  1  0
 14 37  1  0
 14 38  1  0
 15 39  1  0
 15 40  1  0
 17 41  1  0
 18 42  1  0
 19 43  1  0
 25 44  1  0
 25 45  1  0
 26 46  1  0
 26 47  1  0
 27 48  1  0
 27 49  1  0
 28 50  1  0
 28 51  1  0
 29 52  1  0
M  CHG  1  11  -1
M  END
>  <UniqueID>  (39) 
39

>  <SMILES>  (39) 
O=S(=O)(Nc1cc2c(cc1[O-])CCCC2)c1cccc(S(=O)(=O)N2CCCC2)c1

>  <Energy>  (39) 
56.62979296750225

>  <Genealogy>  (39) 
O=S(=O)(Nc1cc2c(cc1[O-])CCCC2)c1cccc(S(=O)(=O)N2CCCC2)c1 (protonated)
O=S(=O)(Nc1cc2c(cc1[O-])CCCC2)c1cccc(S(=O)(=O)N2CCCC2)c1 (3D coordinates assigned)
O=S(=O)(Nc1cc2c(cc1[O-])CCCC2)c1cccc(S(=O)(=O)N2CCCC2)c1 (nonaromatic ring conformer: 56.62979296750225 kcal/mol)

>  <smiles>  (39) 
O=S(=O)(Nc1cc2c(cc1O)CCCC2)c1cccc(S(=O)(=O)N2CCCC2)c1

>  <score_type>  (39) 
oracle

>  <origin>  (39) 
adgpu

>  <m_score__min__energy>  (39) 
-14.449999999999999

>  <m_primary>  (39) 
energy

$$$$
39:0
     RDKit          3D

 30 31  0  0  0  0  0  0  0  0999 V2000
   -3.0910   21.2170  -27.9720 C   0  0  0  0  0  0  0  0  0  0  0  0
   -2.7050   22.5910  -28.4850 C   0  0  0  0  0  0  0  0  0  0  0  0
   -1.4490   23.1160  -28.1020 C   0  0  0  0  0  0  0  0  0  0  0  0
   -0.5470   22.4080  -27.3000 O   0  0  0  0  0  0  0  0  0  0  0  0
   -1.0890   24.3840  -28.5450 C   0  0  0  0  0  0  0  0  0  0  0  0
    0.0160   24.8870  -28.2140 O   0  0  0  0  0  0  0  0  0  0  0  0
   -1.9290   25.0850  -29.3380 N   0  0  0  0  0  0  0  0  0  0  0  0
   -3.1240   24.5830  -29.7290 C   0  0  0  0  0  0  0  0  0  0  0  0
   -3.8590   25.2920  -30.4680 O   0  0  0  0  0  0  0  0  0  0  0  0
   -3.5260   23.3290  -29.3220 N   0  0  0  0  0  0  0  0  0  0  0  0
   -4.8330   22.8070  -29.7850 C   0  0  0  0  0  0  0  0  0  0  0  0
   -4.6990   22.0300  -31.0760 C   0  0  0  0  0  0  0  0  0  0  0  0
   -5.7840   21.2790  -31.5580 C   0  0  0  0  0  0  0  0  0  0  0  0
   -5.6620   20.5350  -32.7340 C   0  0  0  0  0  0  0  0  0  0  0  0
   -4.4520   20.5190  -33.4310 C   0  0  0  0  0  0  0  0  0  0  0  0
   -3.3530   21.2440  -32.9510 C   0  0  0  0  0  0  0  0  0  0  0  0
   -2.1100   21.2190  -33.6580 N   0  0  0  0  0  0  0  0  0  0  0  0
   -3.4770   21.9910  -31.7700 C   0  0  0  0  0  0  0  0  0  0  0  0
   -3.0894   21.2225  -26.8720 H   0  0  0  0  0  0  0  0  0  0  0  0
   -4.0964   20.9589  -28.3359 H   0  0  0  0  0  0  0  0  0  0  0  0
   -2.3671   20.4730  -28.3359 H   0  0  0  0  0  0  0  0  0  0  0  0
    0.3510   22.7710  -27.0090 H   0  0  0  0  0  0  0  0  0  0  0  0
   -5.2465   22.1438  -29.0110 H   0  0  0  0  0  0  0  0  0  0  0  0
   -5.4993   23.6631  -29.9673 H   0  0  0  0  0  0  0  0  0  0  0  0
   -6.7355   21.2768  -31.0060 H   0  0  0  0  0  0  0  0  0  0  0  0
   -6.5207   19.9606  -33.1118 H   0  0  0  0  0  0  0  0  0  0  0  0
   -4.3613   19.9358  -34.3592 H   0  0  0  0  0  0  0  0  0  0  0  0
   -1.9890   21.7570  -34.5460 H   0  0  0  0  0  0  0  0  0  0  0  0
   -1.3010   20.6640  -33.3000 H   0  0  0  0  0  0  0  0  0  0  0  0
   -2.6119   22.5502  -31.3842 H   0  0  0  0  0  0  0  0  0  0  0  0
  1  2  1  0
  2  3  2  0
  3  4  1  0
  3  5  1  0
  5  6  2  0
  5  7  1  0
  7  8  1  0
  8  9  2  0
  8 10  1  0
 10 11  1  0
 11 12  1  0
 12 13  2  0
 13 14  1  0
 14 15  2  0
 15 16  1  0
 16 17  1  0
 16 18  2  0
 10  2  1  0
 18 12  1  0
  1 19  1  0
  1 20  1  0
  1 21  1  0
  4 22  1  0
 11 23  1  0
 11 24  1  0
 13 25  1  0
 14 26  1  0
 15 27  1  0
 17 28  1  0
 17 29  1  0
 18 30  1  0
M  CHG  1   7  -1
M  END
>  <UniqueID>  (40) 
40

>  <SMILES>  (40) 
Cc1c(O)c(=O)[n-]c(=O)n1Cc1cccc(N)c1

>  <Energy>  (40) 
38.60497523928721

>  <Genealogy>  (40) 
Cc1c(O)c(=O)[n-]c(=O)n1Cc1cccc(N)c1 (protonated)
Cc1c(O)c(=O)[n-]c(=O)n1Cc1cccc(N)c1 (3D coordinates assigned)
Cc1c(O)c(=O)[n-]c(=O)n1Cc1cccc(N)c1 (optimized conformer: 38.60497523928721 kcal/mol)

>  <smiles>  (40) 
Cc1c(O)c(=O)[nH]c(=O)n1Cc1cccc(N)c1

>  <score_type>  (40) 
oracle

>  <origin>  (40) 
adgpu

>  <m_score__min__energy>  (40) 
-6.8600000000000003

>  <m_primary>  (40) 
energy

$$$$
40:0
     RDKit          3D

 60 63  0  0  0  0  0  0  0  0999 V2000
   -9.3010   23.0180  -32.0010 O   0  0  0  0  0  0  0  0  0  0  0  0
   -8.3240   22.4480  -31.4400 C   0  0  0  0  0  0  0  0  0  0  0  0
   -8.4320   21.0770  -31.0420 N   0  0  0  0  0  0  0  0  0  0  0  0
   -8.8210   20.0110  -31.9580 C   0  0  0  0  0  0  0  0  0  0  0  0
   -7.9850   18.7570  -31.6930 C   0  0  0  0  0  0  0  0  0  0  0  0
   -6.6350   18.8340  -32.3660 C   0  0  0  0  0  0  0  0  0  0  0  0
   -6.5170   18.5420  -33.7350 C   0  0  0  0  0  0  0  0  0  0  0  0
   -5.2770   18.6480  -34.3700 C   0  0  0  0  0  0  0  0  0  0  0  0
   -4.1470   19.0500  -33.6510 C   0  0  0  0  0  0  0  0  0  0  0  0
   -2.9230   19.1600  -34.3030 O   0  0  0  0  0  0  0  0  0  0  0  0
   -4.2540   19.3430  -32.2800 C   0  0  0  0  0  0  0  0  0  0  0  0
   -3.1440   19.7450  -31.5360 O   0  0  0  0  0  0  0  0  0  0  0  0
   -5.4960   19.2380  -31.6450 C   0  0  0  0  0  0  0  0  0  0  0  0
   -7.0660   23.1910  -31.1930 C   0  0  0  0  0  0  0  0  0  0  0  0
   -7.0940   24.5060  -30.6970 C   0  0  0  0  0  0  0  0  0  0  0  0
   -5.9030   25.1970  -30.4550 C   0  0  0  0  0  0  0  0  0  0  0  0
   -4.6690   24.5930  -30.7150 C   0  0  0  0  0  0  0  0  0  0  0  0
   -3.4970   25.3060  -30.4760 O   0  0  0  0  0  0  0  0  0  0  0  0
   -4.6220   23.2830  -31.2250 C   0  0  0  0  0  0  0  0  0  0  0  0
   -3.3360   22.6110  -31.4970 C   0  0  0  0  0  0  0  0  0  0  0  0
   -3.0020   22.3490  -32.6800 O   0  0  0  0  0  0  0  0  0  0  0  0
   -2.4490   22.2670  -30.4280 N   0  0  0  0  0  0  0  0  0  0  0  0
   -2.4950   22.9340  -29.1640 C   0  0  0  0  0  0  0  0  0  0  0  0
   -3.6580   22.9080  -28.3830 C   0  0  0  0  0  0  0  0  0  0  0  0
   -3.7040   23.6070  -27.1750 C   0  0  0  0  0  0  0  0  0  0  0  0
   -2.6000   24.3490  -26.7520 C   0  0  0  0  0  0  0  0  0  0  0  0
   -1.4240   24.3870  -27.5270 C   0  0  0  0  0  0  0  0  0  0  0  0
   -0.2730   25.2230  -27.1090 C   0  0  0  0  0  0  0  0  0  0  0  0
    0.7720   25.2530  -27.8140 O   0  0  0  0  0  0  0  0  0  0  0  0
   -0.3090   25.9760  -25.8890 N   0  0  0  0  0  0  0  0  0  0  0  0
   -1.3160   27.0200  -25.6960 C   0  0  0  0  0  0  0  0  0  0  0  0
   -0.7480   28.1040  -24.7730 C   0  0  0  0  0  0  0  0  0  0  0  0
   -0.2270   27.5350  -23.5860 O   0  0  0  0  0  0  0  0  0  0  0  0
    0.8800   26.7080  -23.8900 C   0  0  0  0  0  0  0  0  0  0  0  0
    0.4380   25.5070  -24.7250 C   0  0  0  0  0  0  0  0  0  0  0  0
   -1.3840   23.6710  -28.7350 C   0  0  0  0  0  0  0  0  0  0  0  0
   -5.8220   22.5870  -31.4460 C   0  0  0  0  0  0  0  0  0  0  0  0
   -9.8855   19.7760  -31.8113 H   0  0  0  0  0  0  0  0  0  0  0  0
   -8.6499   20.3452  -32.9919 H   0  0  0  0  0  0  0  0  0  0  0  0
   -7.8371   18.6496  -30.6083 H   0  0  0  0  0  0  0  0  0  0  0  0
   -8.5248   17.8914  -32.1045 H   0  0  0  0  0  0  0  0  0  0  0  0
   -7.4024   18.2294  -34.3080 H   0  0  0  0  0  0  0  0  0  0  0  0
   -5.1892   18.4140  -35.4412 H   0  0  0  0  0  0  0  0  0  0  0  0
   -2.6190   20.5810  -31.7620 H   0  0  0  0  0  0  0  0  0  0  0  0
   -5.5830   19.4730  -30.5739 H   0  0  0  0  0  0  0  0  0  0  0  0
   -8.0593   24.9945  -30.4980 H   0  0  0  0  0  0  0  0  0  0  0  0
   -5.9369   26.2222  -30.0576 H   0  0  0  0  0  0  0  0  0  0  0  0
   -4.5350   22.3368  -28.7215 H   0  0  0  0  0  0  0  0  0  0  0  0
   -4.6123   23.5728  -26.5554 H   0  0  0  0  0  0  0  0  0  0  0  0
   -2.6485   24.9085  -25.8061 H   0  0  0  0  0  0  0  0  0  0  0  0
   -1.5765   27.4640  -26.6681 H   0  0  0  0  0  0  0  0  0  0  0  0
   -2.2181   26.5838  -25.2422 H   0  0  0  0  0  0  0  0  0  0  0  0
    0.0562   28.6395  -25.2988 H   0  0  0  0  0  0  0  0  0  0  0  0
   -1.5590   28.7967  -24.5040 H   0  0  0  0  0  0  0  0  0  0  0  0
    1.6215   27.2899  -24.4571 H   0  0  0  0  0  0  0  0  0  0  0  0
    1.3211   26.3446  -22.9501 H   0  0  0  0  0  0  0  0  0  0  0  0
    1.3233   24.9457  -25.0585 H   0  0  0  0  0  0  0  0  0  0  0  0
   -0.2021   24.8512  -24.1166 H   0  0  0  0  0  0  0  0  0  0  0  0
   -0.4718   23.6894  -29.3495 H   0  0  0  0  0  0  0  0  0  0  0  0
   -5.7878   21.5540  -31.8226 H   0  0  0  0  0  0  0  0  0  0  0  0
  1  2  2  0
  2  3  1  0
  3  4  1  0
  4  5  1  0
  5  6  1  0
  6  7  2  0
  7  8  1  0
  8  9  2  0
  9 10  1  0
  9 11  1  0
 11 12  1  0
 11 13  2  0
  2 14  1  0
 14 15  2  0
 15 16  1  0
 16 17  2  0
 17 18  1  0
 17 19  1  0
 19 20  1  0
 20 21  2  0
 20 22  1  0
 22 23  1  0
 23 24  2  0
 24 25  1  0
 25 26  2  0
 26 27  1  0
 27 28  1  0
 28 29  2  0
 28 30  1  0
 30 31  1  0
 31 32  1  0
 32 33  1  0
 33 34  1  0
 34 35  1  0
 27 36  2  0
 19 37  2  0
 13  6  1  0
 37 14  1  0
 36 23  1  0
 35 30  1  0
  4 38  1  0
  4 39  1  0
  5 40  1  0
  5 41  1  0
  7 42  1  0
  8 43  1  0
 12 44  1  0
 13 45  1  0
 15 46  1  0
 16 47  1  0
 24 48  1  0
 25 49  1  0
 26 50  1  0
 31 51  1  0
 31 52  1  0
 32 53  1  0
 32 54  1  0
 34 55  1  0
 34 56  1  0
 35 57  1  0
 35 58  1  0
 36 59  1  0
 37 60  1  0
M  CHG  4   3  -1  10  -1  18  -1  22  -1
M  END
>  <UniqueID>  (41) 
41

>  <SMILES>  (41) 
O=C([N-]CCc1ccc([O-])c(O)c1)c1ccc([O-])c(C(=O)[N-]c2cccc(C(=O)N3CCOCC3)c2)c1

>  <Energy>  (41) 
81.55637542938985

>  <Genealogy>  (41) 
O=C([N-]CCc1ccc([O-])c(O)c1)c1ccc([O-])c(C(=O)[N-]c2cccc(C(=O)N3CCOCC3)c2)c1 (protonated)
O=C([N-]CCc1ccc([O-])c(O)c1)c1ccc([O-])c(C(=O)[N-]c2cccc(C(=O)N3CCOCC3)c2)c1 (3D coordinates assigned)
O=C([N-]CCc1ccc([O-])c(O)c1)c1ccc([O-])c(C(=O)[N-]c2cccc(C(=O)N3CCOCC3)c2)c1 (nonaromatic ring conformer: 81.55637542938985 kcal/mol)

>  <smiles>  (41) 
O=C(NCCc1ccc(O)c(O)c1)c1ccc(O)c(C(=O)Nc2cccc(C(=O)N3CCOCC3)c2)c1

>  <score_type>  (41) 
oracle

>  <origin>  (41) 
adgpu

>  <m_score__min__energy>  (41) 
-15.279999999999999

>  <m_primary>  (41) 
energy

$$$$
41:0
     RDKit          3D

 56 59  0  0  0  0  0  0  0  0999 V2000
   -5.2690   25.2740  -30.3890 C   0  0  0  0  0  0  0  0  0  0  0  0
   -3.8980   24.9080  -30.5020 O   0  0  0  0  0  0  0  0  0  0  0  0
   -3.3930   23.6970  -30.0170 C   0  0  0  0  0  0  0  0  0  0  0  0
   -2.3680   23.0550  -30.7110 C   0  0  0  0  0  0  0  0  0  0  0  0
   -1.8720   21.8410  -30.2140 C   0  0  0  0  0  0  0  0  0  0  0  0
   -0.8040   21.1490  -30.8810 N   0  0  0  0  0  0  0  0  0  0  0  0
   -0.4290   21.5550  -32.2410 C   0  0  0  0  0  0  0  0  0  0  0  0
    0.5440   20.5520  -32.8850 C   0  0  0  0  0  0  0  0  0  0  0  0
    0.1650   19.0930  -32.5600 C   0  0  0  0  0  0  0  0  0  0  0  0
   -1.0850   18.6880  -33.3080 C   0  0  0  0  0  0  0  0  0  0  0  0
   -1.0070   18.3460  -34.5200 O   0  0  0  0  0  0  0  0  0  0  0  0
   -2.3400   18.6110  -32.6130 N   0  0  0  0  0  0  0  0  0  0  0  0
   -3.6180   18.4860  -33.2610 C   0  0  0  0  0  0  0  0  0  0  0  0
   -3.7830   17.7050  -34.4180 C   0  0  0  0  0  0  0  0  0  0  0  0
   -5.0290   17.6280  -35.0440 C   0  0  0  0  0  0  0  0  0  0  0  0
   -6.1180   18.3390  -34.5340 C   0  0  0  0  0  0  0  0  0  0  0  0
   -5.9700   19.1460  -33.3930 C   0  0  0  0  0  0  0  0  0  0  0  0
   -7.1180   19.9250  -32.8670 C   0  0  0  0  0  0  0  0  0  0  0  0
   -8.3770   19.3180  -32.7040 C   0  0  0  0  0  0  0  0  0  0  0  0
   -9.4520   20.0450  -32.1850 C   0  0  0  0  0  0  0  0  0  0  0  0
   -9.2880   21.3850  -31.8300 C   0  0  0  0  0  0  0  0  0  0  0  0
   -8.0460   22.0140  -32.0050 C   0  0  0  0  0  0  0  0  0  0  0  0
   -7.8580   23.4430  -31.5900 C   0  0  0  0  0  0  0  0  0  0  0  0
   -6.9620   21.2780  -32.5100 C   0  0  0  0  0  0  0  0  0  0  0  0
   -4.7120   19.2140  -32.7660 C   0  0  0  0  0  0  0  0  0  0  0  0
    0.0320   18.8320  -31.0310 C   0  0  0  0  0  0  0  0  0  0  0  0
   -0.0160   20.1170  -30.1940 C   0  0  0  0  0  0  0  0  0  0  0  0
   -2.3880   21.3350  -29.0610 N   0  0  0  0  0  0  0  0  0  0  0  0
   -3.3900   21.9710  -28.3990 C   0  0  0  0  0  0  0  0  0  0  0  0
   -3.8870   23.1400  -28.8770 N   0  0  0  0  0  0  0  0  0  0  0  0
   -5.5426   25.3470  -29.3261 H   0  0  0  0  0  0  0  0  0  0  0  0
   -5.4303   26.2466  -30.8768 H   0  0  0  0  0  0  0  0  0  0  0  0
   -5.8936   24.5111  -30.8768 H   0  0  0  0  0  0  0  0  0  0  0  0
   -1.9558   23.4930  -31.6320 H   0  0  0  0  0  0  0  0  0  0  0  0
   -1.3375   21.6171  -32.8580 H   0  0  0  0  0  0  0  0  0  0  0  0
    0.0738   22.5315  -32.1816 H   0  0  0  0  0  0  0  0  0  0  0  0
    0.5257   20.6895  -33.9762 H   0  0  0  0  0  0  0  0  0  0  0  0
    1.5481   20.7420  -32.4780 H   0  0  0  0  0  0  0  0  0  0  0  0
    0.9943   18.4576  -32.9043 H   0  0  0  0  0  0  0  0  0  0  0  0
   -2.3190   18.5960  -31.5680 H   0  0  0  0  0  0  0  0  0  0  0  0
   -2.9270   17.1521  -34.8321 H   0  0  0  0  0  0  0  0  0  0  0  0
   -5.1534   17.0051  -35.9421 H   0  0  0  0  0  0  0  0  0  0  0  0
   -7.0978   18.2667  -35.0288 H   0  0  0  0  0  0  0  0  0  0  0  0
   -8.5161   18.2642  -32.9870 H   0  0  0  0  0  0  0  0  0  0  0  0
  -10.4306   19.5596  -32.0559 H   0  0  0  0  0  0  0  0  0  0  0  0
  -10.1346   21.9493  -31.4120 H   0  0  0  0  0  0  0  0  0  0  0  0
   -7.8495   23.5078  -30.4919 H   0  0  0  0  0  0  0  0  0  0  0  0
   -6.9029   23.8174  -31.9868 H   0  0  0  0  0  0  0  0  0  0  0  0
   -8.6838   24.0517  -31.9868 H   0  0  0  0  0  0  0  0  0  0  0  0
   -5.9818   21.7630  -32.6278 H   0  0  0  0  0  0  0  0  0  0  0  0
   -4.5838   19.8466  -31.8753 H   0  0  0  0  0  0  0  0  0  0  0  0
   -0.8942   18.2658  -30.8535 H   0  0  0  0  0  0  0  0  0  0  0  0
    0.9273   18.2747  -30.7182 H   0  0  0  0  0  0  0  0  0  0  0  0
   -0.4776   19.8976  -29.2200 H   0  0  0  0  0  0  0  0  0  0  0  0
    1.0098   20.4880  -30.0524 H   0  0  0  0  0  0  0  0  0  0  0  0
   -3.7989   21.5377  -27.4743 H   0  0  0  0  0  0  0  0  0  0  0  0
  1  2  1  0
  2  3  1  0
  3  4  2  0
  4  5  1  0
  5  6  1  0
  6  7  1  0
  7  8  1  0
  8  9  1  0
  9 10  1  0
 10 11  2  0
 10 12  1  0
 12 13  1  0
 13 14  2  0
 14 15  1  0
 15 16  2  0
 16 17  1  0
 17 18  1  0
 18 19  2  0
 19 20  1  0
 20 21  2  0
 21 22  1  0
 22 23  1  0
 22 24  2  0
 17 25  2  0
  9 26  1  0
 26 27  1  0
  5 28  2  0
 28 29  1  0
 29 30  2  0
 30  3  1  0
 27  6  1  0
 25 13  1  0
 24 18  1  0
  1 31  1  0
  1 32  1  0
  1 33  1  0
  4 34  1  0
  7 35  1  0
  7 36  1  0
  8 37  1  0
  8 38  1  0
  9 39  1  0
 12 40  1  0
 14 41  1  0
 15 42  1  0
 16 43  1  0
 19 44  1  0
 20 45  1  0
 21 46  1  0
 23 47  1  0
 23 48  1  0
 23 49  1  0
 24 50  1  0
 25 51  1  0
 26 52  1  0
 26 53  1  0
 27 54  1  0
 27 55  1  0
 29 56  1  0
M  END
>  <UniqueID>  (42) 
42

>  <SMILES>  (42) 
COc1cc(N2CCC(C(=O)Nc3cccc(-c4cccc(C)c4)c3)CC2)ncn1

>  <Energy>  (42) 
71.93402972029239

>  <Genealogy>  (42) 
COc1cc(N2CCC(C(=O)Nc3cccc(-c4cccc(C)c4)c3)CC2)ncn1 (3D coordinates assigned)
COc1cc(N2CCC(C(=O)Nc3cccc(-c4cccc(C)c4)c3)CC2)ncn1 (nonaromatic ring conformer: 71.93402972029239 kcal/mol)

>  <smiles>  (42) 
COc1cc(N2CCC(C(=O)Nc3cccc(-c4cccc(C)c4)c3)CC2)ncn1

>  <score_type>  (42) 
oracle

>  <origin>  (42) 
adgpu

>  <m_score__min__energy>  (42) 
-9.3399999999999999

>  <m_primary>  (42) 
energy

$$$$
42:0
     RDKit          3D

 48 50  0  0  0  0  0  0  0  0999 V2000
   -3.9780   25.3400  -30.6770 N   0  0  0  0  0  0  0  0  0  0  0  0
   -4.0320   23.6100  -30.6810 S   0  0  0  0  0  0  0  0  0  0  0  0
   -3.7800   23.1150  -29.2830 O   0  0  0  0  0  0  0  0  0  0  0  0
   -2.9630   23.0810  -31.5970 O   0  0  0  0  0  0  0  0  0  0  0  0
   -5.6070   23.0550  -31.2400 C   0  0  0  0  0  0  0  0  0  0  0  0
   -6.7270   23.8850  -31.1180 C   0  0  0  0  0  0  0  0  0  0  0  0
   -7.9770   23.4430  -31.5560 C   0  0  0  0  0  0  0  0  0  0  0  0
   -8.1130   22.1750  -32.1280 C   0  0  0  0  0  0  0  0  0  0  0  0
   -6.9950   21.3420  -32.2810 C   0  0  0  0  0  0  0  0  0  0  0  0
   -7.1680   20.0320  -32.8460 N   0  0  0  0  0  0  0  0  0  0  0  0
   -6.9080   18.8140  -32.1350 C   0  0  0  0  0  0  0  0  0  0  0  0
   -6.0960   18.7990  -31.1710 O   0  0  0  0  0  0  0  0  0  0  0  0
   -7.5500   17.5380  -32.5770 C   0  0  0  0  0  0  0  0  0  0  0  0
   -7.1320   17.2440  -33.9050 O   0  0  0  0  0  0  0  0  0  0  0  0
   -6.0050   17.8160  -34.5000 C   0  0  0  0  0  0  0  0  0  0  0  0
   -6.1020   18.9270  -35.0990 O   0  0  0  0  0  0  0  0  0  0  0  0
   -4.6860   17.1480  -34.3830 C   0  0  0  0  0  0  0  0  0  0  0  0
   -4.5950   15.7590  -34.5950 C   0  0  0  0  0  0  0  0  0  0  0  0
   -3.3560   15.1140  -34.5760 C   0  0  0  0  0  0  0  0  0  0  0  0
   -2.1910   15.8420  -34.3490 C   0  0  0  0  0  0  0  0  0  0  0  0
   -2.2620   17.2180  -34.1220 C   0  0  0  0  0  0  0  0  0  0  0  0
   -3.4990   17.8800  -34.1300 C   0  0  0  0  0  0  0  0  0  0  0  0
   -3.5370   19.2790  -33.8200 N   0  0  0  0  0  0  0  0  0  0  0  0
   -2.4760   19.9550  -33.1250 C   0  0  0  0  0  0  0  0  0  0  0  0
   -2.5030   20.0300  -31.7220 C   0  0  0  0  0  0  0  0  0  0  0  0
   -1.4900   20.7100  -31.0300 C   0  0  0  0  0  0  0  0  0  0  0  0
   -0.4600   21.3380  -31.7350 C   0  0  0  0  0  0  0  0  0  0  0  0
   -0.4350   21.2810  -33.1320 C   0  0  0  0  0  0  0  0  0  0  0  0
   -1.4330   20.5890  -33.8260 C   0  0  0  0  0  0  0  0  0  0  0  0
   -5.7420   21.7840  -31.8170 C   0  0  0  0  0  0  0  0  0  0  0  0
   -3.1330   25.6210  -31.2210 H   0  0  0  0  0  0  0  0  0  0  0  0
   -6.6225   24.8870  -30.6764 H   0  0  0  0  0  0  0  0  0  0  0  0
   -8.8570   24.0945  -31.4506 H   0  0  0  0  0  0  0  0  0  0  0  0
   -9.1027   21.8283  -32.4601 H   0  0  0  0  0  0  0  0  0  0  0  0
   -7.5120   19.9600  -33.8310 H   0  0  0  0  0  0  0  0  0  0  0  0
   -7.2469   16.7210  -31.9057 H   0  0  0  0  0  0  0  0  0  0  0  0
   -8.6445   17.6432  -32.5470 H   0  0  0  0  0  0  0  0  0  0  0  0
   -5.5094   15.1754  -34.7776 H   0  0  0  0  0  0  0  0  0  0  0  0
   -3.3006   14.0278  -34.7408 H   0  0  0  0  0  0  0  0  0  0  0  0
   -1.2155   15.3336  -34.3485 H   0  0  0  0  0  0  0  0  0  0  0  0
   -1.3399   17.7880  -33.9353 H   0  0  0  0  0  0  0  0  0  0  0  0
   -4.3970   19.8160  -34.0780 H   0  0  0  0  0  0  0  0  0  0  0  0
   -3.3223   19.5533  -31.1639 H   0  0  0  0  0  0  0  0  0  0  0  0
   -1.5065   20.7489  -29.9308 H   0  0  0  0  0  0  0  0  0  0  0  0
    0.3304   21.8767  -31.1917 H   0  0  0  0  0  0  0  0  0  0  0  0
    0.3720   21.7819  -33.6868 H   0  0  0  0  0  0  0  0  0  0  0  0
   -1.4026   20.5401  -34.9245 H   0  0  0  0  0  0  0  0  0  0  0  0
   -4.8632   21.1286  -31.9075 H   0  0  0  0  0  0  0  0  0  0  0  0
  1  2  1  0
  2  3  2  0
  2  4  2  0
  2  5  1  0
  5  6  2  0
  6  7  1  0
  7  8  2  0
  8  9  1  0
  9 10  1  0
 10 11  1  0
 11 12  2  0
 11 13  1  0
 13 14  1  0
 14 15  1  0
 15 16  2  0
 15 17  1  0
 17 18  2  0
 18 19  1  0
 19 20  2  0
 20 21  1  0
 21 22  2  0
 22 23  1  0
 23 24  1  0
 24 25  2  0
 25 26  1  0
 26 27  2  0
 27 28  1  0
 28 29  2  0
  9 30  2  0
 30  5  1  0
 22 17  1  0
 29 24  1  0
  1 31  1  0
  6 32  1  0
  7 33  1  0
  8 34  1  0
 10 35  1  0
 13 36  1  0
 13 37  1  0
 18 38  1  0
 19 39  1  0
 20 40  1  0
 21 41  1  0
 23 42  1  0
 25 43  1  0
 26 44  1  0
 27 45  1  0
 28 46  1  0
 29 47  1  0
 30 48  1  0
M  CHG  1   1  -1
M  END
>  <UniqueID>  (43) 
43

>  <SMILES>  (43) 
[NH-]S(=O)(=O)c1cccc(NC(=O)COC(=O)c2ccccc2Nc2ccccc2)c1

>  <Energy>  (43) 
53.961038936613235

>  <Genealogy>  (43) 
[NH-]S(=O)(=O)c1cccc(NC(=O)COC(=O)c2ccccc2Nc2ccccc2)c1 (protonated)
[NH-]S(=O)(=O)c1cccc(NC(=O)COC(=O)c2ccccc2Nc2ccccc2)c1 (3D coordinates assigned)
[NH-]S(=O)(=O)c1cccc(NC(=O)COC(=O)c2ccccc2Nc2ccccc2)c1 (optimized conformer: 53.961038936613235 kcal/mol)

>  <smiles>  (43) 
NS(=O)(=O)c1cccc(NC(=O)COC(=O)c2ccccc2Nc2ccccc2)c1

>  <score_type>  (43) 
oracle

>  <origin>  (43) 
adgpu

>  <m_score__min__energy>  (43) 
-11.720000000000001

>  <m_primary>  (43) 
energy

$$$$
43:0
     RDKit          3D

 49 52  0  0  0  0  0  0  0  0999 V2000
    0.6790   20.4680  -30.1540 O   0  0  0  0  0  0  0  0  0  0  0  0
   -0.2730   20.7230  -30.9400 C   0  0  0  0  0  0  0  0  0  0  0  0
   -0.4430   19.9770  -32.1530 N   0  0  0  0  0  0  0  0  0  0  0  0
   -1.6690   19.4230  -32.6520 C   0  0  0  0  0  0  0  0  0  0  0  0
   -2.5700   20.2700  -33.3090 C   0  0  0  0  0  0  0  0  0  0  0  0
   -3.7680   19.7690  -33.8270 C   0  0  0  0  0  0  0  0  0  0  0  0
   -4.0690   18.4060  -33.7100 C   0  0  0  0  0  0  0  0  0  0  0  0
   -5.5940   17.7900  -34.3430 S   0  0  0  0  0  0  0  0  0  0  0  0
   -5.6250   16.2900  -34.2320 O   0  0  0  0  0  0  0  0  0  0  0  0
   -5.7010   18.1660  -35.7950 O   0  0  0  0  0  0  0  0  0  0  0  0
   -6.9270   18.4850  -33.4550 N   0  0  0  0  0  0  0  0  0  0  0  0
   -6.9050   18.0020  -32.0640 C   0  0  0  0  0  0  0  0  0  0  0  0
   -8.1920   18.4240  -31.3290 C   0  0  0  0  0  0  0  0  0  0  0  0
   -8.8380   19.6750  -31.9470 C   0  0  0  0  0  0  0  0  0  0  0  0
   -7.7720   20.6410  -32.4700 C   0  0  0  0  0  0  0  0  0  0  0  0
   -6.8470   19.9610  -33.5040 C   0  0  0  0  0  0  0  0  0  0  0  0
   -3.1640   17.5500  -33.0700 C   0  0  0  0  0  0  0  0  0  0  0  0
   -1.9660   18.0510  -32.5520 C   0  0  0  0  0  0  0  0  0  0  0  0
   -1.2510   21.7610  -30.5900 C   0  0  0  0  0  0  0  0  0  0  0  0
   -2.6110   21.7030  -30.8050 C   0  0  0  0  0  0  0  0  0  0  0  0
   -3.0810   22.9090  -30.3100 C   0  0  0  0  0  0  0  0  0  0  0  0
   -4.4940   23.3720  -30.2890 C   0  0  0  0  0  0  0  0  0  0  0  0
   -5.5370   22.4580  -30.0360 C   0  0  0  0  0  0  0  0  0  0  0  0
   -6.8680   22.8840  -30.0090 C   0  0  0  0  0  0  0  0  0  0  0  0
   -7.1790   24.2240  -30.2330 C   0  0  0  0  0  0  0  0  0  0  0  0
   -6.1610   25.1440  -30.4850 C   0  0  0  0  0  0  0  0  0  0  0  0
   -4.8250   24.7290  -30.5160 C   0  0  0  0  0  0  0  0  0  0  0  0
   -3.8400   25.6750  -30.7820 O   0  0  0  0  0  0  0  0  0  0  0  0
   -2.0420   23.6230  -29.8310 N   0  0  0  0  0  0  0  0  0  0  0  0
   -0.9300   22.9260  -30.0000 N   0  0  0  0  0  0  0  0  0  0  0  0
   -2.3332   21.3386  -33.4185 H   0  0  0  0  0  0  0  0  0  0  0  0
   -4.4756   20.4465  -34.3274 H   0  0  0  0  0  0  0  0  0  0  0  0
   -6.8298   16.9046  -32.0624 H   0  0  0  0  0  0  0  0  0  0  0  0
   -6.0386   18.4407  -31.5474 H   0  0  0  0  0  0  0  0  0  0  0  0
   -8.9132   17.5947  -31.3755 H   0  0  0  0  0  0  0  0  0  0  0  0
   -7.9208   18.6654  -30.2906 H   0  0  0  0  0  0  0  0  0  0  0  0
   -9.4873   19.3700  -32.7809 H   0  0  0  0  0  0  0  0  0  0  0  0
   -9.4242   20.1872  -31.1698 H   0  0  0  0  0  0  0  0  0  0  0  0
   -8.2700   21.4986  -32.9460 H   0  0  0  0  0  0  0  0  0  0  0  0
   -7.1559   20.9673  -31.6191 H   0  0  0  0  0  0  0  0  0  0  0  0
   -7.1373   20.2963  -34.5106 H   0  0  0  0  0  0  0  0  0  0  0  0
   -5.8122   20.2466  -33.2639 H   0  0  0  0  0  0  0  0  0  0  0  0
   -3.3967   16.4791  -32.9745 H   0  0  0  0  0  0  0  0  0  0  0  0
   -1.2528   17.3702  -32.0644 H   0  0  0  0  0  0  0  0  0  0  0  0
   -3.1898   20.8877  -31.2636 H   0  0  0  0  0  0  0  0  0  0  0  0
   -5.3009   21.3985  -29.8580 H   0  0  0  0  0  0  0  0  0  0  0  0
   -7.6719   22.1599  -29.8105 H   0  0  0  0  0  0  0  0  0  0  0  0
   -8.2274   24.5563  -30.2111 H   0  0  0  0  0  0  0  0  0  0  0  0
   -6.4098   26.2011  -30.6602 H   0  0  0  0  0  0  0  0  0  0  0  0
  1  2  2  0
  2  3  1  0
  3  4  1  0
  4  5  2  0
  5  6  1  0
  6  7  2  0
  7  8  1  0
  8  9  2  0
  8 10  2  0
  8 11  1  0
 11 12  1  0
 12 13  1  0
 13 14  1  0
 14 15  1  0
 15 16  1  0
  7 17  1  0
 17 18  2  0
  2 19  1  0
 19 20  1  0
 20 21  2  0
 21 22  1  0
 22 23  2  0
 23 24  1  0
 24 25  2  0
 25 26  1  0
 26 27  2  0
 27 28  1  0
 21 29  1  0
 29 30  1  0
 18  4  1  0
 30 19  2  0
 16 11  1  0
 27 22  1  0
  5 31  1  0
  6 32  1  0
 12 33  1  0
 12 34  1  0
 13 35  1  0
 13 36  1  0
 14 37  1  0
 14 38  1  0
 15 39  1  0
 15 40  1  0
 16 41  1  0
 16 42  1  0
 17 43  1  0
 18 44  1  0
 20 45  1  0
 23 46  1  0
 24 47  1  0
 25 48  1  0
 26 49  1  0
M  CHG  3   3  -1  28  -1  29  -1
M  END
>  <UniqueID>  (44) 
44

>  <SMILES>  (44) 
O=C([N-]c1ccc(S(=O)(=O)N2CCCCC2)cc1)c1cc(-c2ccccc2[O-])[n-]n1

>  <Energy>  (44) 
90.23469338620096

>  <Genealogy>  (44) 
O=C([N-]c1ccc(S(=O)(=O)N2CCCCC2)cc1)c1cc(-c2ccccc2[O-])[n-]n1 (protonated)
O=C([N-]c1ccc(S(=O)(=O)N2CCCCC2)cc1)c1cc(-c2ccccc2[O-])[n-]n1 (3D coordinates assigned)
O=C([N-]c1ccc(S(=O)(=O)N2CCCCC2)cc1)c1cc(-c2ccccc2[O-])[n-]n1 (nonaromatic ring conformer: 90.23469338620096 kcal/mol)

>  <smiles>  (44) 
O=C(Nc1ccc(S(=O)(=O)N2CCCCC2)cc1)c1cc(-c2ccccc2O)[nH]n1

>  <score_type>  (44) 
oracle

>  <origin>  (44) 
adgpu

>  <m_score__min__energy>  (44) 
-15.09

>  <m_primary>  (44) 
energy

$$$$
44:0
     RDKit          3D

 55 58  0  0  0  0  0  0  0  0999 V2000
    0.9670   19.2930  -29.4260 C   0  0  0  0  0  0  0  0  0  0  0  0
    0.1050   20.3050  -28.7960 N   0  0  0  0  0  0  0  0  0  0  0  0
    0.5680   20.7720  -27.4700 C   0  0  0  0  0  0  0  0  0  0  0  0
    0.3540   22.2820  -27.1850 C   0  0  0  0  0  0  0  0  0  0  0  0
   -0.7580   23.0080  -27.9320 C   0  0  0  0  0  0  0  0  0  0  0  0
   -0.5370   24.3590  -28.2630 C   0  0  0  0  0  0  0  0  0  0  0  0
   -1.4780   25.0880  -28.9910 C   0  0  0  0  0  0  0  0  0  0  0  0
   -1.2160   26.4170  -29.3190 O   0  0  0  0  0  0  0  0  0  0  0  0
   -2.6670   24.4830  -29.4110 C   0  0  0  0  0  0  0  0  0  0  0  0
   -3.5800   25.2320  -30.2250 N   0  0  0  0  0  0  0  0  0  0  0  0
   -5.2950   24.9360  -30.3190 S   0  0  0  0  0  0  0  0  0  0  0  0
   -5.9030   25.1200  -28.9500 O   0  0  0  0  0  0  0  0  0  0  0  0
   -5.9120   25.9320  -31.2670 O   0  0  0  0  0  0  0  0  0  0  0  0
   -5.6380   23.3130  -30.9200 C   0  0  0  0  0  0  0  0  0  0  0  0
   -4.5930   22.4910  -31.3970 C   0  0  0  0  0  0  0  0  0  0  0  0
   -4.8810   21.2510  -31.9870 C   0  0  0  0  0  0  0  0  0  0  0  0
   -6.2150   20.8470  -32.0900 C   0  0  0  0  0  0  0  0  0  0  0  0
   -7.2350   21.6430  -31.6060 C   0  0  0  0  0  0  0  0  0  0  0  0
   -6.9730   22.8730  -31.0020 C   0  0  0  0  0  0  0  0  0  0  0  0
   -8.5080   21.0550  -31.8280 N   0  0  0  0  0  0  0  0  0  0  0  0
   -9.8010   21.5390  -31.3520 C   0  0  0  0  0  0  0  0  0  0  0  0
   -8.2380   19.7950  -32.4380 C   0  0  0  0  0  0  0  0  0  0  0  0
   -9.1390   18.9700  -32.7410 O   0  0  0  0  0  0  0  0  0  0  0  0
   -6.7670   19.5840  -32.7020 C   0  0  0  0  0  0  0  0  0  0  0  0
   -6.4890   19.5340  -34.2130 C   0  0  0  0  0  0  0  0  0  0  0  0
   -6.2410   18.3350  -31.9830 C   0  0  0  0  0  0  0  0  0  0  0  0
   -2.9290   23.1550  -29.0430 C   0  0  0  0  0  0  0  0  0  0  0  0
   -1.9630   22.3940  -28.3550 C   0  0  0  0  0  0  0  0  0  0  0  0
   -2.2460   20.9460  -28.0720 C   0  0  0  0  0  0  0  0  0  0  0  0
   -1.3430   20.0180  -28.9050 C   0  0  0  0  0  0  0  0  0  0  0  0
    1.4698   18.7027  -28.6459 H   0  0  0  0  0  0  0  0  0  0  0  0
    0.3541   18.6274  -30.0516 H   0  0  0  0  0  0  0  0  0  0  0  0
    1.7216   19.7922  -30.0516 H   0  0  0  0  0  0  0  0  0  0  0  0
    0.0267   20.2013  -26.7010 H   0  0  0  0  0  0  0  0  0  0  0  0
    1.6561   20.6116  -27.4548 H   0  0  0  0  0  0  0  0  0  0  0  0
    0.1445   22.3839  -26.1100 H   0  0  0  0  0  0  0  0  0  0  0  0
    1.2780   22.7593  -27.5433 H   0  0  0  0  0  0  0  0  0  0  0  0
    0.3943   24.8483  -27.9418 H   0  0  0  0  0  0  0  0  0  0  0  0
   -3.5488   22.8245  -31.3055 H   0  0  0  0  0  0  0  0  0  0  0  0
   -4.0710   20.6081  -32.3619 H   0  0  0  0  0  0  0  0  0  0  0  0
   -7.7922   23.4862  -30.5983 H   0  0  0  0  0  0  0  0  0  0  0  0
   -9.8091   21.5420  -30.2520 H   0  0  0  0  0  0  0  0  0  0  0  0
   -9.9691   22.5609  -31.7227 H   0  0  0  0  0  0  0  0  0  0  0  0
  -10.5988   20.8786  -31.7227 H   0  0  0  0  0  0  0  0  0  0  0  0
   -5.4194   19.3416  -34.3829 H   0  0  0  0  0  0  0  0  0  0  0  0
   -7.0833   18.7283  -34.6687 H   0  0  0  0  0  0  0  0  0  0  0  0
   -6.7654   20.4963  -34.6687 H   0  0  0  0  0  0  0  0  0  0  0  0
   -6.3039   18.4844  -30.8950 H   0  0  0  0  0  0  0  0  0  0  0  0
   -6.8487   17.4639  -32.2692 H   0  0  0  0  0  0  0  0  0  0  0  0
   -5.1932   18.1611  -32.2692 H   0  0  0  0  0  0  0  0  0  0  0  0
   -3.8996   22.7025  -29.2944 H   0  0  0  0  0  0  0  0  0  0  0  0
   -2.0704   20.7502  -27.0039 H   0  0  0  0  0  0  0  0  0  0  0  0
   -3.2923   20.7410  -28.3425 H   0  0  0  0  0  0  0  0  0  0  0  0
   -1.5136   18.9838  -28.5715 H   0  0  0  0  0  0  0  0  0  0  0  0
   -1.6145   20.1828  -29.9582 H   0  0  0  0  0  0  0  0  0  0  0  0
  1  2  1  0
  2  3  1  0
  3  4  1  0
  4  5  1  0
  5  6  2  0
  6  7  1  0
  7  8  1  0
  7  9  2  0
  9 10  1  0
 10 11  1  0
 11 12  2  0
 11 13  2  0
 11 14  1  0
 14 15  2  0
 15 16  1  0
 16 17  2  0
 17 18  1  0
 18 19  2  0
 18 20  1  0
 20 21  1  0
 20 22  1  0
 22 23  2  0
 22 24  1  0
 24 25  1  0
 24 26  1  0
  9 27  1  0
 27 28  2  0
 28 29  1  0
 29 30  1  0
 30  2  1  0
 28  5  1  0
 19 14  1  0
 24 17  1  0
  1 31  1  0
  1 32  1  0
  1 33  1  0
  3 34  1  0
  3 35  1  0
  4 36  1  0
  4 37  1  0
  6 38  1  0
 15 39  1  0
 16 40  1  0
 19 41  1  0
 21 42  1  0
 21 43  1  0
 21 44  1  0
 25 45  1  0
 25 46  1  0
 25 47  1  0
 26 48  1  0
 26 49  1  0
 26 50  1  0
 27 51  1  0
 29 52  1  0
 29 53  1  0
 30 54  1  0
 30 55  1  0
M  CHG  2   8  -1  10  -1
M  END
>  <UniqueID>  (45) 
45

>  <SMILES>  (45) 
CN1CCc2cc([O-])c([N-]S(=O)(=O)c3ccc4c(c3)N(C)C(=O)C4(C)C)cc2CC1

>  <Energy>  (45) 
95.78706086643848

>  <Genealogy>  (45) 
CN1CCc2cc([O-])c([N-]S(=O)(=O)c3ccc4c(c3)N(C)C(=O)C4(C)C)cc2CC1 (protonated)
CN1CCc2cc([O-])c([N-]S(=O)(=O)c3ccc4c(c3)N(C)C(=O)C4(C)C)cc2CC1 (3D coordinates assigned)
CN1CCc2cc([O-])c([N-]S(=O)(=O)c3ccc4c(c3)N(C)C(=O)C4(C)C)cc2CC1 (nonaromatic ring conformer: 95.78706086643848 kcal/mol)

>  <smiles>  (45) 
CN1CCc2cc(O)c(NS(=O)(=O)c3ccc4c(c3)N(C)C(=O)C4(C)C)cc2CC1

>  <score_type>  (45) 
oracle

>  <origin>  (45) 
adgpu

>  <m_score__min__energy>  (45) 
-13.66

>  <m_primary>  (45) 
energy

$$$$
45:0
     RDKit          3D

 61 65  0  0  1  0  0  0  0  0999 V2000
   -3.3860   17.9110  -34.0600 C   0  0  0  0  0  0  0  0  0  0  0  0
   -2.5840   18.9090  -33.4670 O   0  0  0  0  0  0  0  0  0  0  0  0
   -3.1870   19.9560  -32.7730 C   0  0  0  0  0  0  0  0  0  0  0  0
   -4.2630   19.7210  -31.9180 C   0  0  0  0  0  0  0  0  0  0  0  0
   -4.8540   20.7640  -31.2340 C   0  0  0  0  0  0  0  0  0  0  0  0
   -4.3560   22.0290  -31.4180 C   0  0  0  0  0  0  0  0  0  0  0  0
   -5.0310   23.4350  -30.5970 S   0  0  0  0  0  0  0  0  0  0  0  0
   -4.7610   23.3780  -29.1280 O   0  0  0  0  0  0  0  0  0  0  0  0
   -4.3630   24.6750  -31.1200 O   0  0  0  0  0  0  0  0  0  0  0  0
   -6.7220   23.4190  -30.9310 N   0  0  0  0  0  0  0  0  0  0  0  0
   -7.3880   22.2940  -30.3570 C   0  0  0  0  0  0  0  0  0  0  0  0
   -8.7290   22.2780  -31.0920 C   0  0  0  0  0  0  0  0  0  0  0  0
   -8.5550   23.2340  -32.2740 C   0  0  0  0  0  0  0  0  0  0  0  0
   -7.0250   23.3050  -32.3410 C   0  0  0  0  0  0  0  0  0  0  0  0
   -3.2770   22.2550  -32.2770 C   0  0  0  0  0  0  0  0  0  0  0  0
   -2.6750   21.2230  -32.9680 C   0  0  0  0  0  0  0  0  0  0  0  0
   -1.5770   21.4720  -33.8380 N   0  0  0  0  0  0  0  0  0  0  0  0
   -0.4370   20.9330  -33.5810 C   0  0  0  0  0  0  0  0  0  0  0  0
   -0.2560   20.1390  -32.5140 N   0  0  0  0  0  0  0  0  0  0  0  0
    0.9510   19.5640  -32.2360 C   0  0  0  0  0  0  0  0  0  0  0  0
    1.0200   18.7770  -31.1250 O   0  0  0  0  0  0  0  0  0  0  0  0
    0.2780   18.8310  -29.9840 C   0  0  0  0  0  0  0  0  0  0  0  0
    0.5860   17.9080  -28.9790 C   0  0  0  0  0  0  0  0  0  0  0  0
   -0.1070   17.8820  -27.7870 C   0  0  0  0  0  0  0  0  0  0  0  0
   -1.1310   18.7640  -27.5380 C   0  0  0  0  0  0  0  0  0  0  0  0
   -1.4530   19.6770  -28.5060 C   0  0  0  0  0  0  0  0  0  0  0  0
   -0.7470   19.6980  -29.7090 C   0  0  0  0  0  0  0  0  0  0  0  0
   -2.5920   20.5390  -28.0330 C   0  0  0  0  0  0  0  0  0  0  0  0
   -3.1130   19.8220  -26.8270 C   0  0  0  0  0  0  0  0  0  0  0  0
   -2.0150   18.9300  -26.3460 C   0  0  0  0  0  0  0  0  0  0  0  0
    1.9390   19.8390  -33.0920 N   0  0  0  0  0  0  0  0  0  0  0  0
    1.8150   20.6250  -34.1750 C   0  0  0  0  0  0  0  0  0  0  0  0
    0.5950   21.2000  -34.4460 C   0  0  0  0  0  0  0  0  0  0  0  0
    0.4620   22.0300  -35.5890 N   0  0  0  0  0  0  0  0  0  0  0  0
    0.1670   21.5560  -36.7020 O   0  0  0  0  0  0  0  0  0  0  0  0
    0.6660   23.3770  -35.4430 O   0  0  0  0  0  0  0  0  0  0  0  0
   -3.8674   17.3119  -33.2730 H   0  0  0  0  0  0  0  0  0  0  0  0
   -4.1580   18.3841  -34.6846 H   0  0  0  0  0  0  0  0  0  0  0  0
   -2.7578   17.2589  -34.6846 H   0  0  0  0  0  0  0  0  0  0  0  0
   -4.6435   18.6972  -31.7877 H   0  0  0  0  0  0  0  0  0  0  0  0
   -5.7033   20.5854  -30.5581 H   0  0  0  0  0  0  0  0  0  0  0  0
   -6.8259   21.3662  -30.5393 H   0  0  0  0  0  0  0  0  0  0  0  0
   -7.4928   22.3628  -29.2642 H   0  0  0  0  0  0  0  0  0  0  0  0
   -8.9607   21.2634  -31.4483 H   0  0  0  0  0  0  0  0  0  0  0  0
   -9.5584   22.5833  -30.4372 H   0  0  0  0  0  0  0  0  0  0  0  0
   -8.9848   22.8213  -33.1987 H   0  0  0  0  0  0  0  0  0  0  0  0
   -9.0579   24.2057  -32.1600 H   0  0  0  0  0  0  0  0  0  0  0  0
   -6.5920   22.3941  -32.7802 H   0  0  0  0  0  0  0  0  0  0  0  0
   -6.6238   24.1133  -32.9700 H   0  0  0  0  0  0  0  0  0  0  0  0
   -2.8985   23.2798  -32.4054 H   0  0  0  0  0  0  0  0  0  0  0  0
   -1.0890   19.9670  -31.8780 H   0  0  0  0  0  0  0  0  0  0  0  0
    1.3997   17.1863  -29.1433 H   0  0  0  0  0  0  0  0  0  0  0  0
    0.1651   17.1411  -27.0208 H   0  0  0  0  0  0  0  0  0  0  0  0
   -1.0250   20.4425  -30.4695 H   0  0  0  0  0  0  0  0  0  0  0  0
   -2.2362   21.5451  -27.7662 H   0  0  0  0  0  0  0  0  0  0  0  0
   -3.3622   20.6834  -28.8050 H   0  0  0  0  0  0  0  0  0  0  0  0
   -3.3833   20.5456  -26.0438 H   0  0  0  0  0  0  0  0  0  0  0  0
   -4.0141   19.2409  -27.0725 H   0  0  0  0  0  0  0  0  0  0  0  0
   -1.4667   19.3988  -25.5156 H   0  0  0  0  0  0  0  0  0  0  0  0
   -2.3894   17.9698  -25.9614 H   0  0  0  0  0  0  0  0  0  0  0  0
    2.6762   20.8059  -34.8350 H   0  0  0  0  0  0  0  0  0  0  0  0
  1  2  1  0
  2  3  1  0
  3  4  2  0
  4  5  1  0
  5  6  2  0
  6  7  1  0
  7  8  2  0
  7  9  2  0
  7 10  1  0
 10 11  1  0
 11 12  1  0
 12 13  1  0
 13 14  1  0
  6 15  1  0
 15 16  2  0
 16 17  1  0
 17 18  2  0
 18 19  1  0
 19 20  1  0
 20 21  1  0
 21 22  1  0
 22 23  2  0
 23 24  1  0
 24 25  2  0
 25 26  1  0
 26 27  2  0
 26 28  1  0
 28 29  1  0
 29 30  1  0
 20 31  2  0
 31 32  1  0
 32 33  2  0
 33 34  1  0
 34 35  2  0
 34 36  1  0
 16  3  1  0
 33 18  1  0
 14 10  1  0
 27 22  1  0
 30 25  1  0
  1 37  1  0
  1 38  1  0
  1 39  1  0
  4 40  1  0
  5 41  1  0
 11 42  1  0
 11 43  1  0
 12 44  1  0
 12 45  1  0
 13 46  1  0
 13 47  1  0
 14 48  1  0
 14 49  1  0
 15 50  1  0
 19 51  1  0
 23 52  1  0
 24 53  1  0
 27 54  1  0
 28 55  1  0
 28 56  1  0
 29 57  1  0
 29 58  1  0
 30 59  1  0
 30 60  1  0
 32 61  1  0
M  CHG  2  34   1  36  -1
M  END
>  <smiles>  (46) 
COc1ccc(S(=O)(=O)N2CCCC2)cc1N=c1[nH]c(Oc2ccc3c(c2)CCC3)ncc1[N+](=O)[O-]

>  <score_type>  (46) 
oracle

>  <origin>  (46) 
adgpu

>  <m_score__min__energy>  (46) 
-10.93

>  <m_primary>  (46) 
energy

$$$$
46:0
     RDKit          3D

 32 34  0  0  0  0  0  0  0  0999 V2000
   -7.6990   22.8880  -30.8640 C   0  0  0  0  0  0  0  0  0  0  0  0
   -6.7640   23.3380  -32.3600 S   0  0  0  0  0  0  0  0  0  0  0  0
   -5.2440   23.7060  -31.4560 C   0  0  0  0  0  0  0  0  0  0  0  0
   -4.2610   22.7140  -31.2390 C   0  0  0  0  0  0  0  0  0  0  0  0
   -4.4740   21.3430  -31.7600 C   0  0  0  0  0  0  0  0  0  0  0  0
   -5.5240   20.5640  -31.2550 C   0  0  0  0  0  0  0  0  0  0  0  0
   -5.7360   19.2710  -31.7380 C   0  0  0  0  0  0  0  0  0  0  0  0
   -4.9020   18.7450  -32.7280 C   0  0  0  0  0  0  0  0  0  0  0  0
   -5.1220   17.4580  -33.2030 O   0  0  0  0  0  0  0  0  0  0  0  0
   -3.8470   19.5130  -33.2420 C   0  0  0  0  0  0  0  0  0  0  0  0
   -3.0260   18.9690  -34.2290 O   0  0  0  0  0  0  0  0  0  0  0  0
   -3.6310   20.8150  -32.7560 C   0  0  0  0  0  0  0  0  0  0  0  0
   -2.5860   21.5810  -33.2620 O   0  0  0  0  0  0  0  0  0  0  0  0
   -3.0860   23.0500  -30.5230 C   0  0  0  0  0  0  0  0  0  0  0  0
   -2.0710   22.1070  -30.2490 C   0  0  0  0  0  0  0  0  0  0  0  0
   -0.9270   22.4830  -29.5420 C   0  0  0  0  0  0  0  0  0  0  0  0
   -0.7780   23.7960  -29.0930 C   0  0  0  0  0  0  0  0  0  0  0  0
   -1.7740   24.7420  -29.3450 C   0  0  0  0  0  0  0  0  0  0  0  0
   -1.6140   26.0460  -28.8870 O   0  0  0  0  0  0  0  0  0  0  0  0
   -2.9270   24.3760  -30.0540 C   0  0  0  0  0  0  0  0  0  0  0  0
   -3.8980   25.2980  -30.2830 N   0  0  0  0  0  0  0  0  0  0  0  0
   -5.0360   25.0010  -30.9570 C   0  0  0  0  0  0  0  0  0  0  0  0
   -5.9000   25.8990  -31.1340 O   0  0  0  0  0  0  0  0  0  0  0  0
   -7.1194   23.1669  -29.9716 H   0  0  0  0  0  0  0  0  0  0  0  0
   -8.6607   23.4219  -30.8583 H   0  0  0  0  0  0  0  0  0  0  0  0
   -7.8817   21.8033  -30.8583 H   0  0  0  0  0  0  0  0  0  0  0  0
   -6.1836   20.9726  -30.4753 H   0  0  0  0  0  0  0  0  0  0  0  0
   -6.5621   18.6648  -31.3379 H   0  0  0  0  0  0  0  0  0  0  0  0
   -3.1660   18.0330  -34.5910 H   0  0  0  0  0  0  0  0  0  0  0  0
   -2.1824   21.0688  -30.5950 H   0  0  0  0  0  0  0  0  0  0  0  0
   -0.1404   21.7416  -29.3382 H   0  0  0  0  0  0  0  0  0  0  0  0
    0.1267   24.0867  -28.5389 H   0  0  0  0  0  0  0  0  0  0  0  0
  1  2  1  0
  2  3  1  0
  3  4  2  0
  4  5  1  0
  5  6  2  0
  6  7  1  0
  7  8  2  0
  8  9  1  0
  8 10  1  0
 10 11  1  0
 10 12  2  0
 12 13  1  0
  4 14  1  0
 14 15  2  0
 15 16  1  0
 16 17  2  0
 17 18  1  0
 18 19  1  0
 18 20  2  0
 20 21  1  0
 21 22  1  0
 22 23  2  0
 22  3  1  0
 12  5  1  0
 20 14  1  0
  1 24  1  0
  1 25  1  0
  1 26  1  0
  6 27  1  0
  7 28  1  0
 11 29  1  0
 15 30  1  0
 16 31  1  0
 17 32  1  0
M  CHG  4   9  -1  13  -1  19  -1  21  -1
M  END
>  <UniqueID>  (47) 
46

>  <SMILES>  (47) 
CSc1c(-c2ccc([O-])c(O)c2[O-])c2cccc([O-])c2[n-]c1=O

>  <Energy>  (47) 
45.6830018459508

>  <Genealogy>  (47) 
CSc1c(-c2ccc([O-])c(O)c2[O-])c2cccc([O-])c2[n-]c1=O (protonated)
CSc1c(-c2ccc([O-])c(O)c2[O-])c2cccc([O-])c2[n-]c1=O (3D coordinates assigned)
CSc1c(-c2ccc([O-])c(O)c2[O-])c2cccc([O-])c2[n-]c1=O (optimized conformer: 45.6830018459508 kcal/mol)

>  <smiles>  (47) 
CSc1c(-c2ccc(O)c(O)c2O)c2cccc(O)c2[nH]c1=O

>  <score_type>  (47) 
oracle

>  <origin>  (47) 
adgpu

>  <m_score__min__energy>  (47) 
-10.98

>  <m_primary>  (47) 
energy

$$$$
47:0
     RDKit          3D

 69 73  0  0  0  0  0  0  0  0999 V2000
   -3.5870   20.2080  -31.4790 O   0  0  0  0  0  0  0  0  0  0  0  0
   -4.2390   19.8220  -32.4890 C   0  0  0  0  0  0  0  0  0  0  0  0
   -3.5580   19.5130  -33.7180 N   0  0  0  0  0  0  0  0  0  0  0  0
   -2.1640   19.7770  -33.9520 C   0  0  0  0  0  0  0  0  0  0  0  0
   -1.5810   21.0070  -33.5980 C   0  0  0  0  0  0  0  0  0  0  0  0
   -0.2290   21.2480  -33.8620 C   0  0  0  0  0  0  0  0  0  0  0  0
    0.5520   20.2720  -34.4930 C   0  0  0  0  0  0  0  0  0  0  0  0
    2.2630   20.5630  -34.7980 S   0  0  0  0  0  0  0  0  0  0  0  0
    2.6810   19.8490  -36.0550 O   0  0  0  0  0  0  0  0  0  0  0  0
    3.0700   20.0220  -33.6510 O   0  0  0  0  0  0  0  0  0  0  0  0
    2.5390   22.2810  -34.9430 N   0  0  0  0  0  0  0  0  0  0  0  0
    1.5330   22.9100  -35.7980 C   0  0  0  0  0  0  0  0  0  0  0  0
    2.1880   24.1420  -36.4040 C   0  0  0  0  0  0  0  0  0  0  0  0
    3.6840   23.9090  -36.2710 C   0  0  0  0  0  0  0  0  0  0  0  0
    3.8250   22.5600  -35.5820 C   0  0  0  0  0  0  0  0  0  0  0  0
   -0.0290   19.0500  -34.8570 C   0  0  0  0  0  0  0  0  0  0  0  0
   -1.3810   18.8100  -34.5990 C   0  0  0  0  0  0  0  0  0  0  0  0
   -5.7030   19.6500  -32.3790 C   0  0  0  0  0  0  0  0  0  0  0  0
   -6.4940   20.7230  -31.9400 C   0  0  0  0  0  0  0  0  0  0  0  0
   -7.8870   20.6000  -31.8530 C   0  0  0  0  0  0  0  0  0  0  0  0
   -8.8640   21.9560  -31.2750 S   0  0  0  0  0  0  0  0  0  0  0  0
   -9.8580   22.3320  -32.3390 O   0  0  0  0  0  0  0  0  0  0  0  0
   -9.6280   21.5260  -30.0540 O   0  0  0  0  0  0  0  0  0  0  0  0
   -7.9010   23.3590  -30.8770 N   0  0  0  0  0  0  0  0  0  0  0  0
   -7.0010   23.1070  -29.7540 C   0  0  0  0  0  0  0  0  0  0  0  0
   -5.8340   24.0710  -29.9120 C   0  0  0  0  0  0  0  0  0  0  0  0
   -5.8770   24.5240  -31.3640 C   0  0  0  0  0  0  0  0  0  0  0  0
   -7.0370   23.7640  -31.9840 C   0  0  0  0  0  0  0  0  0  0  0  0
   -8.5000   19.4040  -32.2440 C   0  0  0  0  0  0  0  0  0  0  0  0
   -7.7260   18.3320  -32.6930 C   0  0  0  0  0  0  0  0  0  0  0  0
   -6.3300   18.4390  -32.7550 C   0  0  0  0  0  0  0  0  0  0  0  0
   -5.5580   17.2940  -33.1520 N   0  0  0  0  0  0  0  0  0  0  0  0
   -5.3220   17.0160  -34.5660 C   0  0  0  0  0  0  0  0  0  0  0  0
   -4.0810   16.1200  -34.7000 C   0  0  0  0  0  0  0  0  0  0  0  0
   -4.1230   14.9120  -33.9470 O   0  0  0  0  0  0  0  0  0  0  0  0
   -5.0220   14.9240  -32.8440 C   0  0  0  0  0  0  0  0  0  0  0  0
   -5.1590   16.2930  -32.1620 C   0  0  0  0  0  0  0  0  0  0  0  0
   -4.0820   19.0090  -34.4670 H   0  0  0  0  0  0  0  0  0  0  0  0
   -2.1909   21.7825  -33.1116 H   0  0  0  0  0  0  0  0  0  0  0  0
    0.2228   22.2083  -33.5727 H   0  0  0  0  0  0  0  0  0  0  0  0
    1.2221   22.2156  -36.5925 H   0  0  0  0  0  0  0  0  0  0  0  0
    0.6354   23.1800  -35.2224 H   0  0  0  0  0  0  0  0  0  0  0  0
    1.9071   24.2462  -37.4624 H   0  0  0  0  0  0  0  0  0  0  0  0
    1.8707   25.0655  -35.8975 H   0  0  0  0  0  0  0  0  0  0  0  0
    4.1592   23.8858  -37.2628 H   0  0  0  0  0  0  0  0  0  0  0  0
    4.1732   24.7121  -35.7003 H   0  0  0  0  0  0  0  0  0  0  0  0
    4.0592   21.7792  -36.3206 H   0  0  0  0  0  0  0  0  0  0  0  0
    4.6401   22.5749  -34.8435 H   0  0  0  0  0  0  0  0  0  0  0  0
    0.5812   18.2772  -35.3474 H   0  0  0  0  0  0  0  0  0  0  0  0
   -1.8345   17.8558  -34.9055 H   0  0  0  0  0  0  0  0  0  0  0  0
   -6.0142   21.6726  -31.6607 H   0  0  0  0  0  0  0  0  0  0  0  0
   -7.5202   23.2914  -28.8019 H   0  0  0  0  0  0  0  0  0  0  0  0
   -6.6564   22.0624  -29.7466 H   0  0  0  0  0  0  0  0  0  0  0  0
   -5.9516   24.9314  -29.2369 H   0  0  0  0  0  0  0  0  0  0  0  0
   -4.8744   23.5959  -29.6602 H   0  0  0  0  0  0  0  0  0  0  0  0
   -6.0500   25.6086  -31.4248 H   0  0  0  0  0  0  0  0  0  0  0  0
   -4.9291   24.3244  -31.8853 H   0  0  0  0  0  0  0  0  0  0  0  0
   -7.5888   24.4129  -32.6800 H   0  0  0  0  0  0  0  0  0  0  0  0
   -6.6842   22.8926  -32.5551 H   0  0  0  0  0  0  0  0  0  0  0  0
   -9.5948   19.3082  -32.1974 H   0  0  0  0  0  0  0  0  0  0  0  0
   -8.2158   17.3963  -33.0004 H   0  0  0  0  0  0  0  0  0  0  0  0
   -6.1961   16.5012  -34.9914 H   0  0  0  0  0  0  0  0  0  0  0  0
   -5.1592   17.9594  -35.1078 H   0  0  0  0  0  0  0  0  0  0  0  0
   -3.9646   15.8558  -35.7615 H   0  0  0  0  0  0  0  0  0  0  0  0
   -3.2386   16.7020  -34.2980 H   0  0  0  0  0  0  0  0  0  0  0  0
   -6.0149   14.6165  -33.2042 H   0  0  0  0  0  0  0  0  0  0  0  0
   -4.6107   14.2346  -32.0920 H   0  0  0  0  0  0  0  0  0  0  0  0
   -5.9222   16.2342  -31.3720 H   0  0  0  0  0  0  0  0  0  0  0  0
   -4.1938   16.5800  -31.7192 H   0  0  0  0  0  0  0  0  0  0  0  0
  1  2  2  0
  2  3  1  0
  3  4  1  0
  4  5  2  0
  5  6  1  0
  6  7  2  0
  7  8  1  0
  8  9  2  0
  8 10  2  0
  8 11  1  0
 11 12  1  0
 12 13  1  0
 13 14  1  0
 14 15  1  0
  7 16  1  0
 16 17  2  0
  2 18  1  0
 18 19  2  0
 19 20  1  0
 20 21  1  0
 21 22  2  0
 21 23  2  0
 21 24  1  0
 24 25  1  0
 25 26  1  0
 26 27  1  0
 27 28  1  0
 20 29  2  0
 29 30  1  0
 30 31  2  0
 31 32  1  0
 32 33  1  0
 33 34  1  0
 34 35  1  0
 35 36  1  0
 36 37  1  0
 17  4  1  0
 31 18  1  0
 37 32  1  0
 15 11  1  0
 28 24  1  0
  3 38  1  0
  5 39  1  0
  6 40  1  0
 12 41  1  0
 12 42  1  0
 13 43  1  0
 13 44  1  0
 14 45  1  0
 14 46  1  0
 15 47  1  0
 15 48  1  0
 16 49  1  0
 17 50  1  0
 19 51  1  0
 25 52  1  0
 25 53  1  0
 26 54  1  0
 26 55  1  0
 27 56  1  0
 27 57  1  0
 28 58  1  0
 28 59  1  0
 29 60  1  0
 30 61  1  0
 33 62  1  0
 33 63  1  0
 34 64  1  0
 34 65  1  0
 36 66  1  0
 36 67  1  0
 37 68  1  0
 37 69  1  0
M  END
>  <UniqueID>  (48) 
47

>  <SMILES>  (48) 
O=C(Nc1ccc(S(=O)(=O)N2CCCC2)cc1)c1cc(S(=O)(=O)N2CCCC2)ccc1N1CCOCC1

>  <Energy>  (48) 
94.3914704981452

>  <Genealogy>  (48) 
O=C(Nc1ccc(S(=O)(=O)N2CCCC2)cc1)c1cc(S(=O)(=O)N2CCCC2)ccc1N1CCOCC1 (3D coordinates assigned)
O=C(Nc1ccc(S(=O)(=O)N2CCCC2)cc1)c1cc(S(=O)(=O)N2CCCC2)ccc1N1CCOCC1 (nonaromatic ring conformer: 94.3914704981452 kcal/mol)

>  <smiles>  (48) 
O=C(Nc1ccc(S(=O)(=O)N2CCCC2)cc1)c1cc(S(=O)(=O)N2CCCC2)ccc1N1CCOCC1

>  <score_type>  (48) 
oracle

>  <origin>  (48) 
adgpu

>  <m_score__min__energy>  (48) 
-10.24

>  <m_primary>  (48) 
energy

$$$$
48:0
     RDKit          3D

 63 68  0  0  0  0  0  0  0  0999 V2000
   -2.3660   14.4410  -33.7640 C   0  0  0  0  0  0  0  0  0  0  0  0
   -2.3750   15.8310  -34.2310 N   0  0  0  0  0  0  0  0  0  0  0  0
   -1.3790   16.2870  -35.2110 C   0  0  0  0  0  0  0  0  0  0  0  0
   -0.8390   17.6600  -34.8050 C   0  0  0  0  0  0  0  0  0  0  0  0
   -1.9210   18.5660  -34.5840 O   0  0  0  0  0  0  0  0  0  0  0  0
   -3.1030   18.1590  -33.9530 C   0  0  0  0  0  0  0  0  0  0  0  0
   -4.0400   19.1140  -33.5470 C   0  0  0  0  0  0  0  0  0  0  0  0
   -5.2180   18.7140  -32.9060 C   0  0  0  0  0  0  0  0  0  0  0  0
   -6.4310   19.8970  -32.4290 S   0  0  0  0  0  0  0  0  0  0  0  0
   -7.3350   20.1840  -33.5920 O   0  0  0  0  0  0  0  0  0  0  0  0
   -7.2620   19.3770  -31.2910 O   0  0  0  0  0  0  0  0  0  0  0  0
   -5.5990   21.3590  -31.9170 C   0  0  0  0  0  0  0  0  0  0  0  0
   -4.3840   21.2810  -31.2240 C   0  0  0  0  0  0  0  0  0  0  0  0
   -3.7880   22.4390  -30.7150 C   0  0  0  0  0  0  0  0  0  0  0  0
   -4.4050   23.6890  -30.8920 C   0  0  0  0  0  0  0  0  0  0  0  0
   -3.8600   24.9120  -30.2060 C   0  0  0  0  0  0  0  0  0  0  0  0
   -3.1110   24.5090  -29.0210 N   0  0  0  0  0  0  0  0  0  0  0  0
   -1.7640   24.9200  -28.7730 C   0  0  0  0  0  0  0  0  0  0  0  0
   -1.4270   26.1170  -28.9680 O   0  0  0  0  0  0  0  0  0  0  0  0
   -0.8220   23.9520  -28.2970 N   0  0  0  0  0  0  0  0  0  0  0  0
   -0.7870   22.5300  -28.5170 C   0  0  0  0  0  0  0  0  0  0  0  0
   -0.9600   21.5780  -27.4690 C   0  0  0  0  0  0  0  0  0  0  0  0
   -0.8860   20.1990  -27.7340 C   0  0  0  0  0  0  0  0  0  0  0  0
   -0.6280   19.8000  -29.0410 C   0  0  0  0  0  0  0  0  0  0  0  0
   -0.4510   18.5460  -29.4900 N   0  0  0  0  0  0  0  0  0  0  0  0
   -0.1660   18.6260  -30.7870 N   0  0  0  0  0  0  0  0  0  0  0  0
   -0.1690   19.9270  -31.1660 C   0  0  0  0  0  0  0  0  0  0  0  0
    0.1320   20.3730  -32.5440 C   0  0  0  0  0  0  0  0  0  0  0  0
    1.3460   20.0020  -33.1460 C   0  0  0  0  0  0  0  0  0  0  0  0
    1.6270   20.4140  -34.4500 C   0  0  0  0  0  0  0  0  0  0  0  0
    0.7200   21.1550  -35.1420 N   0  0  0  0  0  0  0  0  0  0  0  0
   -0.4730   21.5120  -34.5960 C   0  0  0  0  0  0  0  0  0  0  0  0
   -0.7920   21.1250  -33.2910 C   0  0  0  0  0  0  0  0  0  0  0  0
   -0.4570   20.7010  -30.0550 C   0  0  0  0  0  0  0  0  0  0  0  0
   -0.5110   22.0770  -29.8270 C   0  0  0  0  0  0  0  0  0  0  0  0
   -5.6130   23.7650  -31.6010 C   0  0  0  0  0  0  0  0  0  0  0  0
   -6.2040   22.6070  -32.1140 C   0  0  0  0  0  0  0  0  0  0  0  0
   -5.4530   17.3530  -32.6740 C   0  0  0  0  0  0  0  0  0  0  0  0
   -4.5260   16.3930  -33.0900 C   0  0  0  0  0  0  0  0  0  0  0  0
   -3.3440   16.7880  -33.7430 C   0  0  0  0  0  0  0  0  0  0  0  0
   -2.3659   14.4237  -32.6641 H   0  0  0  0  0  0  0  0  0  0  0  0
   -3.2608   13.9225  -34.1388 H   0  0  0  0  0  0  0  0  0  0  0  0
   -1.4646   13.9341  -34.1388 H   0  0  0  0  0  0  0  0  0  0  0  0
   -0.5493   15.5659  -35.2502 H   0  0  0  0  0  0  0  0  0  0  0  0
   -1.8532   16.3627  -36.2006 H   0  0  0  0  0  0  0  0  0  0  0  0
   -0.2521   17.5613  -33.8799 H   0  0  0  0  0  0  0  0  0  0  0  0
   -0.2015   18.0498  -35.6122 H   0  0  0  0  0  0  0  0  0  0  0  0
   -3.8509   20.1818  -33.7318 H   0  0  0  0  0  0  0  0  0  0  0  0
   -3.8971   20.3053  -31.0797 H   0  0  0  0  0  0  0  0  0  0  0  0
   -2.8326   22.3712  -30.1740 H   0  0  0  0  0  0  0  0  0  0  0  0
   -3.1944   25.4531  -30.8945 H   0  0  0  0  0  0  0  0  0  0  0  0
   -4.6914   25.5685  -29.9097 H   0  0  0  0  0  0  0  0  0  0  0  0
   -1.1532   21.9260  -26.4435 H   0  0  0  0  0  0  0  0  0  0  0  0
   -1.0278   19.4590  -26.9326 H   0  0  0  0  0  0  0  0  0  0  0  0
    2.0724   19.3892  -32.5920 H   0  0  0  0  0  0  0  0  0  0  0  0
    2.5834   20.1390  -34.9187 H   0  0  0  0  0  0  0  0  0  0  0  0
   -1.1888   22.1067  -35.1825 H   0  0  0  0  0  0  0  0  0  0  0  0
   -1.7600   21.4071  -32.8512 H   0  0  0  0  0  0  0  0  0  0  0  0
   -0.3429   22.7911  -30.6466 H   0  0  0  0  0  0  0  0  0  0  0  0
   -6.0975   24.7407  -31.7540 H   0  0  0  0  0  0  0  0  0  0  0  0
   -7.1479   22.6759  -32.6746 H   0  0  0  0  0  0  0  0  0  0  0  0
   -6.3734   17.0373  -32.1609 H   0  0  0  0  0  0  0  0  0  0  0  0
   -4.7211   15.3261  -32.9064 H   0  0  0  0  0  0  0  0  0  0  0  0
  1  2  1  0
  2  3  1  0
  3  4  1  0
  4  5  1  0
  5  6  1  0
  6  7  2  0
  7  8  1  0
  8  9  1  0
  9 10  2  0
  9 11  2  0
  9 12  1  0
 12 13  2  0
 13 14  1  0
 14 15  2  0
 15 16  1  0
 16 17  1  0
 17 18  1  0
 18 19  2  0
 18 20  1  0
 20 21  1  0
 21 22  2  0
 22 23  1  0
 23 24  2  0
 24 25  1  0
 25 26  1  0
 26 27  2  0
 27 28  1  0
 28 29  2  0
 29 30  1  0
 30 31  2  0
 31 32  1  0
 32 33  2  0
 27 34  1  0
 34 35  2  0
 15 36  1  0
 36 37  2  0
  8 38  2  0
 38 39  1  0
 39 40  2  0
 40  2  1  0
 40  6  1  0
 37 12  1  0
 35 21  1  0
 34 24  1  0
 33 28  1  0
  1 41  1  0
  1 42  1  0
  1 43  1  0
  3 44  1  0
  3 45  1  0
  4 46  1  0
  4 47  1  0
  7 48  1  0
 13 49  1  0
 14 50  1  0
 16 51  1  0
 16 52  1  0
 22 53  1  0
 23 54  1  0
 29 55  1  0
 30 56  1  0
 32 57  1  0
 33 58  1  0
 35 59  1  0
 36 60  1  0
 37 61  1  0
 38 62  1  0
 39 63  1  0
M  CHG  3  17  -1  20  -1  25  -1
M  END
>  <UniqueID>  (49) 
48

>  <SMILES>  (49) 
CN1CCOc2cc(S(=O)(=O)c3ccc(C[N-]C(=O)[N-]c4ccc5[n-]nc(-c6ccncc6)c5c4)cc3)ccc21

>  <Energy>  (49) 
118.95532668923242

>  <Genealogy>  (49) 
CN1CCOc2cc(S(=O)(=O)c3ccc(C[N-]C(=O)[N-]c4ccc5[n-]nc(-c6ccncc6)c5c4)cc3)ccc21 (protonated)
CN1CCOc2cc(S(=O)(=O)c3ccc(C[N-]C(=O)[N-]c4ccc5[n-]nc(-c6ccncc6)c5c4)cc3)ccc21 (3D coordinates assigned)
CN1CCOc2cc(S(=O)(=O)c3ccc(C[N-]C(=O)[N-]c4ccc5[n-]nc(-c6ccncc6)c5c4)cc3)ccc21 (nonaromatic ring conformer: 118.95532668923242 kcal/mol)

>  <smiles>  (49) 
CN1CCOc2cc(S(=O)(=O)c3ccc(CNC(=O)Nc4ccc5[nH]nc(-c6ccncc6)c5c4)cc3)ccc21

>  <score_type>  (49) 
oracle

>  <origin>  (49) 
adgpu

>  <m_score__min__energy>  (49) 
-14.16

>  <m_primary>  (49) 
energy

$$$$
