0:0
     RDKit          3D

 45 47  0  0  0  0  0  0  0  0999 V2000
   -3.7700   22.9870  -27.7350 C   0  0  0  0  0  0  0  0  0  0  0  0
   -3.3180   22.5940  -29.1100 C   0  0  0  0  0  0  0  0  0  0  0  0
   -3.7460   23.1150  -30.3280 C   0  0  0  0  0  0  0  0  0  0  0  0
   -4.9410   24.3810  -30.5790 S   0  0  0  0  0  0  0  0  0  0  0  0
   -5.8100   24.5640  -29.3660 O   0  0  0  0  0  0  0  0  0  0  0  0
   -4.2250   25.6710  -30.8640 O   0  0  0  0  0  0  0  0  0  0  0  0
   -5.9380   23.9670  -31.9370 N   0  0  0  0  0  0  0  0  0  0  0  0
   -6.7140   22.7660  -32.0520 C   0  0  0  0  0  0  0  0  0  0  0  0
   -8.0580   22.7950  -31.6570 C   0  0  0  0  0  0  0  0  0  0  0  0
   -8.8470   21.6450  -31.7460 C   0  0  0  0  0  0  0  0  0  0  0  0
   -8.2990   20.4550  -32.2380 C   0  0  0  0  0  0  0  0  0  0  0  0
   -6.9580   20.4130  -32.6420 C   0  0  0  0  0  0  0  0  0  0  0  0
   -6.2560   18.9090  -33.2350 S   0  0  0  0  0  0  0  0  0  0  0  0
   -6.1280   18.9770  -34.9590 N   0  0  0  0  0  0  0  0  0  0  0  0
   -7.1280   17.7470  -32.8370 O   0  0  0  0  0  0  0  0  0  0  0  0
   -4.8930   18.7130  -32.6360 O   0  0  0  0  0  0  0  0  0  0  0  0
   -6.1660   21.5650  -32.5400 C   0  0  0  0  0  0  0  0  0  0  0  0
   -3.1360   22.5060  -31.3250 O   0  0  0  0  0  0  0  0  0  0  0  0
   -2.3230   21.6080  -30.8240 C   0  0  0  0  0  0  0  0  0  0  0  0
   -1.4750   20.7240  -31.5180 C   0  0  0  0  0  0  0  0  0  0  0  0
   -1.3840   20.7170  -32.9650 N   0  0  0  0  0  0  0  0  0  0  0  0
   -0.1130   21.0360  -33.6310 C   0  0  0  0  0  0  0  0  0  0  0  0
   -2.5650   20.4510  -33.7950 C   0  0  0  0  0  0  0  0  0  0  0  0
   -0.7040   19.8350  -30.7270 C   0  0  0  0  0  0  0  0  0  0  0  0
   -0.7920   19.8500  -29.3200 C   0  0  0  0  0  0  0  0  0  0  0  0
   -1.6480   20.7490  -28.6650 C   0  0  0  0  0  0  0  0  0  0  0  0
   -2.4010   21.6180  -29.4510 C   0  0  0  0  0  0  0  0  0  0  0  0
   -3.1630   22.4592  -26.9847 H   0  0  0  0  0  0  0  0  0  0  0  0
   -3.6500   24.0728  -27.6059 H   0  0  0  0  0  0  0  0  0  0  0  0
   -4.8286   22.7172  -27.6059 H   0  0  0  0  0  0  0  0  0  0  0  0
   -8.4950   23.7291  -31.2743 H   0  0  0  0  0  0  0  0  0  0  0  0
   -9.8999   21.6752  -31.4290 H   0  0  0  0  0  0  0  0  0  0  0  0
   -8.9220   19.5511  -32.3077 H   0  0  0  0  0  0  0  0  0  0  0  0
   -6.8380   19.6700  -35.2900 H   0  0  0  0  0  0  0  0  0  0  0  0
   -6.4230   18.0440  -35.3270 H   0  0  0  0  0  0  0  0  0  0  0  0
   -5.1092   21.5302  -32.8434 H   0  0  0  0  0  0  0  0  0  0  0  0
    0.6598   21.2300  -32.8726 H   0  0  0  0  0  0  0  0  0  0  0  0
    0.1948   20.1873  -34.2594 H   0  0  0  0  0  0  0  0  0  0  0  0
   -0.2425   21.9295  -34.2594 H   0  0  0  0  0  0  0  0  0  0  0  0
   -3.4321   20.2557  -33.1470 H   0  0  0  0  0  0  0  0  0  0  0  0
   -2.7713   21.3252  -34.4300 H   0  0  0  0  0  0  0  0  0  0  0  0
   -2.3766   19.5728  -34.4300 H   0  0  0  0  0  0  0  0  0  0  0  0
   -0.0262   19.1220  -31.2191 H   0  0  0  0  0  0  0  0  0  0  0  0
   -0.1833   19.1497  -28.7292 H   0  0  0  0  0  0  0  0  0  0  0  0
   -1.7217   20.7667  -27.5676 H   0  0  0  0  0  0  0  0  0  0  0  0
  1  2  1  0
  2  3  2  0
  3  4  1  0
  4  5  2  0
  4  6  2  0
  4  7  1  0
  7  8  1  0
  8  9  2  0
  9 10  1  0
 10 11  2  0
 11 12  1  0
 12 13  1  0
 13 14  1  0
 13 15  2  0
 13 16  2  0
 12 17  2  0
  3 18  1  0
 18 19  1  0
 19 20  2  0
 20 21  1  0
 21 22  1  0
 21 23  1  0
 20 24  1  0
 24 25  2  0
 25 26  1  0
 26 27  2  0
 27  2  1  0
 17  8  1  0
 27 19  1  0
  1 28  1  0
  1 29  1  0
  1 30  1  0
  9 31  1  0
 10 32  1  0
 11 33  1  0
 14 34  1  0
 14 35  1  0
 17 36  1  0
 22 37  1  0
 22 38  1  0
 22 39  1  0
 23 40  1  0
 23 41  1  0
 23 42  1  0
 24 43  1  0
 25 44  1  0
 26 45  1  0
M  CHG  1   7  -1
M  END
>  <UniqueID>  (1) 
1

>  <SMILES>  (1) 
Cc1c(S(=O)(=O)[N-]c2cccc(S(N)(=O)=O)c2)oc2c(N(C)C)cccc12

>  <Energy>  (1) 
83.19381067112114

>  <Genealogy>  (1) 
Cc1c(S(=O)(=O)[N-]c2cccc(S(N)(=O)=O)c2)oc2c(N(C)C)cccc12 (protonated)
Cc1c(S(=O)(=O)[N-]c2cccc(S(N)(=O)=O)c2)oc2c(N(C)C)cccc12 (3D coordinates assigned)
Cc1c(S(=O)(=O)[N-]c2cccc(S(N)(=O)=O)c2)oc2c(N(C)C)cccc12 (optimized conformer: 83.19381067112114 kcal/mol)

>  <smiles>  (1) 
Cc1c(S(=O)(=O)Nc2cccc(S(N)(=O)=O)c2)oc2c(N(C)C)cccc12

>  <score_type>  (1) 
oracle

>  <origin>  (1) 
adgpu

>  <m_score__min__energy>  (1) 
-10.279999999999999

>  <m_primary>  (1) 
energy

$$$$
1:0
     RDKit          3D

 46 49  0  0  0  0  0  0  0  0999 V2000
   -2.7610   23.4920  -28.4890 C   0  0  0  0  0  0  0  0  0  0  0  0
   -2.6360   24.7190  -29.3370 C   0  0  0  0  0  0  0  0  0  0  0  0
   -1.7310   25.5540  -29.0690 O   0  0  0  0  0  0  0  0  0  0  0  0
   -3.4820   24.9520  -30.4720 N   0  0  0  0  0  0  0  0  0  0  0  0
   -4.7230   24.2960  -30.7680 C   0  0  0  0  0  0  0  0  0  0  0  0
   -5.9130   24.8430  -30.2720 C   0  0  0  0  0  0  0  0  0  0  0  0
   -7.1370   24.2150  -30.5190 C   0  0  0  0  0  0  0  0  0  0  0  0
   -7.1800   23.0200  -31.2500 C   0  0  0  0  0  0  0  0  0  0  0  0
   -8.7140   22.2210  -31.5800 S   0  0  0  0  0  0  0  0  0  0  0  0
   -9.7090   23.2470  -32.0450 O   0  0  0  0  0  0  0  0  0  0  0  0
   -9.2530   21.5620  -30.3410 O   0  0  0  0  0  0  0  0  0  0  0  0
   -8.5030   21.0300  -32.8220 N   0  0  0  0  0  0  0  0  0  0  0  0
   -7.6910   19.8510  -32.7130 C   0  0  0  0  0  0  0  0  0  0  0  0
   -6.6090   19.6130  -33.5760 C   0  0  0  0  0  0  0  0  0  0  0  0
   -5.8180   18.4640  -33.4270 C   0  0  0  0  0  0  0  0  0  0  0  0
   -6.1080   17.5380  -32.4080 C   0  0  0  0  0  0  0  0  0  0  0  0
   -7.1970   17.7710  -31.5570 C   0  0  0  0  0  0  0  0  0  0  0  0
   -7.9930   18.9130  -31.7140 C   0  0  0  0  0  0  0  0  0  0  0  0
   -9.0920   19.1190  -30.8840 O   0  0  0  0  0  0  0  0  0  0  0  0
   -5.2400   16.3260  -32.1780 C   0  0  0  0  0  0  0  0  0  0  0  0
   -4.2720   16.0350  -33.2990 C   0  0  0  0  0  0  0  0  0  0  0  0
   -3.5690   14.8190  -33.3010 C   0  0  0  0  0  0  0  0  0  0  0  0
   -2.6480   14.5370  -34.3120 C   0  0  0  0  0  0  0  0  0  0  0  0
   -2.4160   15.4670  -35.3280 C   0  0  0  0  0  0  0  0  0  0  0  0
   -3.0980   16.6850  -35.3290 C   0  0  0  0  0  0  0  0  0  0  0  0
   -4.0250   16.9770  -34.3180 C   0  0  0  0  0  0  0  0  0  0  0  0
   -4.7440   18.2150  -34.3410 N   0  0  0  0  0  0  0  0  0  0  0  0
   -5.9890   22.4550  -31.7200 C   0  0  0  0  0  0  0  0  0  0  0  0
   -4.7640   23.0820  -31.4740 C   0  0  0  0  0  0  0  0  0  0  0  0
   -2.7321   23.7760  -27.4267 H   0  0  0  0  0  0  0  0  0  0  0  0
   -3.7149   22.9902  -28.7086 H   0  0  0  0  0  0  0  0  0  0  0  0
   -1.9279   22.8081  -28.7086 H   0  0  0  0  0  0  0  0  0  0  0  0
   -5.8842   25.7725  -29.6845 H   0  0  0  0  0  0  0  0  0  0  0  0
   -8.0685   24.6596  -30.1388 H   0  0  0  0  0  0  0  0  0  0  0  0
   -6.3799   20.3333  -34.3752 H   0  0  0  0  0  0  0  0  0  0  0  0
   -7.4287   17.0506  -30.7586 H   0  0  0  0  0  0  0  0  0  0  0  0
   -9.5610   20.0140  -30.8380 H   0  0  0  0  0  0  0  0  0  0  0  0
   -4.6618   16.4860  -31.2560 H   0  0  0  0  0  0  0  0  0  0  0  0
   -5.9166   15.4611  -32.1128 H   0  0  0  0  0  0  0  0  0  0  0  0
   -3.7450   14.0844  -32.5014 H   0  0  0  0  0  0  0  0  0  0  0  0
   -2.1042   13.5808  -34.3083 H   0  0  0  0  0  0  0  0  0  0  0  0
   -1.6956   15.2395  -36.1276 H   0  0  0  0  0  0  0  0  0  0  0  0
   -2.9075   17.4188  -36.1261 H   0  0  0  0  0  0  0  0  0  0  0  0
   -4.5480   18.9070  -35.1030 H   0  0  0  0  0  0  0  0  0  0  0  0
   -6.0169   21.5123  -32.2861 H   0  0  0  0  0  0  0  0  0  0  0  0
   -3.8307   22.6242  -31.8337 H   0  0  0  0  0  0  0  0  0  0  0  0
  1  2  1  0
  2  3  2  0
  2  4  1  0
  4  5  1  0
  5  6  2  0
  6  7  1  0
  7  8  2  0
  8  9  1  0
  9 10  2  0
  9 11  2  0
  9 12  1  0
 12 13  1  0
 13 14  2  0
 14 15  1  0
 15 16  2  0
 16 17  1  0
 17 18  2  0
 18 19  1  0
 16 20  1  0
 20 21  1  0
 21 22  2  0
 22 23  1  0
 23 24  2  0
 24 25  1  0
 25 26  2  0
 26 27  1  0
  8 28  1  0
 28 29  2  0
 29  5  1  0
 18 13  1  0
 26 21  1  0
 27 15  1  0
  1 30  1  0
  1 31  1  0
  1 32  1  0
  6 33  1  0
  7 34  1  0
 14 35  1  0
 17 36  1  0
 19 37  1  0
 20 38  1  0
 20 39  1  0
 22 40  1  0
 23 41  1  0
 24 42  1  0
 25 43  1  0
 27 44  1  0
 28 45  1  0
 29 46  1  0
M  CHG  2   4  -1  12  -1
M  END
>  <UniqueID>  (2) 
2

>  <SMILES>  (2) 
CC(=O)[N-]c1ccc(S(=O)(=O)[N-]c2cc3c(cc2O)Cc2ccccc2N3)cc1

>  <Energy>  (2) 
59.692475058642444

>  <Genealogy>  (2) 
CC(=O)[N-]c1ccc(S(=O)(=O)[N-]c2cc3c(cc2O)Cc2ccccc2N3)cc1 (protonated)
CC(=O)[N-]c1ccc(S(=O)(=O)[N-]c2cc3c(cc2O)Cc2ccccc2N3)cc1 (3D coordinates assigned)
CC(=O)[N-]c1ccc(S(=O)(=O)[N-]c2cc3c(cc2O)Cc2ccccc2N3)cc1 (nonaromatic ring conformer: 59.692475058642444 kcal/mol)

>  <smiles>  (2) 
CC(=O)Nc1ccc(S(=O)(=O)Nc2cc3c(cc2O)Cc2ccccc2N3)cc1

>  <score_type>  (2) 
oracle

>  <origin>  (2) 
adgpu

>  <m_score__min__energy>  (2) 
-10.91

>  <m_primary>  (2) 
energy

$$$$
2:0
     RDKit          3D

 47 49  0  0  0  0  0  0  0  0999 V2000
   -4.2930   14.7120  -35.2500 C   0  0  0  0  0  0  0  0  0  0  0  0
   -5.6650   14.9870  -34.1500 S   0  0  0  0  0  0  0  0  0  0  0  0
   -6.9580   14.8250  -34.8980 O   0  0  0  0  0  0  0  0  0  0  0  0
   -5.6160   13.9750  -33.0410 O   0  0  0  0  0  0  0  0  0  0  0  0
   -5.5670   16.6180  -33.4920 C   0  0  0  0  0  0  0  0  0  0  0  0
   -4.8430   17.6030  -34.1770 C   0  0  0  0  0  0  0  0  0  0  0  0
   -4.7410   18.8950  -33.6530 C   0  0  0  0  0  0  0  0  0  0  0  0
   -5.3640   19.2210  -32.4350 C   0  0  0  0  0  0  0  0  0  0  0  0
   -5.2330   20.5840  -31.8660 C   0  0  0  0  0  0  0  0  0  0  0  0
   -3.9770   21.2200  -31.8580 C   0  0  0  0  0  0  0  0  0  0  0  0
   -3.8280   22.4860  -31.2860 C   0  0  0  0  0  0  0  0  0  0  0  0
   -4.9330   23.1420  -30.7280 C   0  0  0  0  0  0  0  0  0  0  0  0
   -4.7190   24.6900  -29.9180 S   0  0  0  0  0  0  0  0  0  0  0  0
   -6.0470   25.2720  -29.5160 O   0  0  0  0  0  0  0  0  0  0  0  0
   -4.0480   25.6550  -30.8560 O   0  0  0  0  0  0  0  0  0  0  0  0
   -3.7060   24.4500  -28.5320 N   0  0  0  0  0  0  0  0  0  0  0  0
   -3.0120   23.2300  -28.2360 C   0  0  0  0  0  0  0  0  0  0  0  0
   -3.6900   21.9960  -28.2170 C   0  0  0  0  0  0  0  0  0  0  0  0
   -3.0110   20.8140  -27.9120 C   0  0  0  0  0  0  0  0  0  0  0  0
   -1.6460   20.8490  -27.6200 C   0  0  0  0  0  0  0  0  0  0  0  0
   -0.9440   19.6280  -27.3170 C   0  0  0  0  0  0  0  0  0  0  0  0
   -0.3800   18.6450  -27.0770 N   0  0  0  0  0  0  0  0  0  0  0  0
   -0.9600   22.0710  -27.6310 C   0  0  0  0  0  0  0  0  0  0  0  0
   -1.6340   23.2640  -27.9410 C   0  0  0  0  0  0  0  0  0  0  0  0
   -0.7280   24.7790  -28.0230 S   0  0  0  0  0  0  0  0  0  0  0  0
   -1.3060   25.7510  -29.3350 N   0  0  0  0  0  0  0  0  0  0  0  0
   -0.8930   25.5490  -26.7400 O   0  0  0  0  0  0  0  0  0  0  0  0
    0.7350   24.4900  -28.2180 O   0  0  0  0  0  0  0  0  0  0  0  0
   -6.1900   22.5210  -30.7450 C   0  0  0  0  0  0  0  0  0  0  0  0
   -6.3430   21.2510  -31.3110 C   0  0  0  0  0  0  0  0  0  0  0  0
   -7.5780   20.6840  -31.3270 F   0  0  0  0  0  0  0  0  0  0  0  0
   -6.0840   18.2250  -31.7480 C   0  0  0  0  0  0  0  0  0  0  0  0
   -6.1850   16.9340  -32.2730 C   0  0  0  0  0  0  0  0  0  0  0  0
   -3.3819   14.5294  -34.6613 H   0  0  0  0  0  0  0  0  0  0  0  0
   -4.5011   13.8377  -35.8843 H   0  0  0  0  0  0  0  0  0  0  0  0
   -4.1481   15.5990  -35.8843 H   0  0  0  0  0  0  0  0  0  0  0  0
   -4.3529   17.3586  -35.1310 H   0  0  0  0  0  0  0  0  0  0  0  0
   -4.1697   19.6617  -34.1969 H   0  0  0  0  0  0  0  0  0  0  0  0
   -3.1070   20.7168  -32.3051 H   0  0  0  0  0  0  0  0  0  0  0  0
   -2.8399   22.9692  -31.2738 H   0  0  0  0  0  0  0  0  0  0  0  0
   -4.7656   21.9625  -28.4447 H   0  0  0  0  0  0  0  0  0  0  0  0
   -3.5514   19.8560  -27.9019 H   0  0  0  0  0  0  0  0  0  0  0  0
    0.1141   22.0962  -27.3952 H   0  0  0  0  0  0  0  0  0  0  0  0
   -2.3480   25.6740  -29.3500 H   0  0  0  0  0  0  0  0  0  0  0  0
   -7.0603   23.0351  -30.3110 H   0  0  0  0  0  0  0  0  0  0  0  0
   -6.5705   18.4649  -30.7911 H   0  0  0  0  0  0  0  0  0  0  0  0
   -6.7507   16.1633  -31.7289 H   0  0  0  0  0  0  0  0  0  0  0  0
  1  2  1  0
  2  3  2  0
  2  4  2  0
  2  5  1  0
  5  6  2  0
  6  7  1  0
  7  8  2  0
  8  9  1  0
  9 10  2  0
 10 11  1  0
 11 12  2  0
 12 13  1  0
 13 14  2  0
 13 15  2  0
 13 16  1  0
 16 17  1  0
 17 18  2  0
 18 19  1  0
 19 20  2  0
 20 21  1  0
 21 22  3  0
 20 23  1  0
 23 24  2  0
 24 25  1  0
 25 26  1  0
 25 27  2  0
 25 28  2  0
 12 29  1  0
 29 30  2  0
 30 31  1  0
  8 32  1  0
 32 33  2  0
 33  5  1  0
 30  9  1  0
 24 17  1  0
  1 34  1  0
  1 35  1  0
  1 36  1  0
  6 37  1  0
  7 38  1  0
 10 39  1  0
 11 40  1  0
 18 41  1  0
 19 42  1  0
 23 43  1  0
 26 44  1  0
 29 45  1  0
 32 46  1  0
 33 47  1  0
M  CHG  2  16  -1  26  -1
M  END
>  <UniqueID>  (3) 
3

>  <SMILES>  (3) 
CS(=O)(=O)c1ccc(-c2ccc(S(=O)(=O)[N-]c3ccc(C#N)cc3S([NH-])(=O)=O)cc2F)cc1

>  <Energy>  (3) 
58.561082886562204

>  <Genealogy>  (3) 
CS(=O)(=O)c1ccc(-c2ccc(S(=O)(=O)[N-]c3ccc(C#N)cc3S([NH-])(=O)=O)cc2F)cc1 (protonated)
CS(=O)(=O)c1ccc(-c2ccc(S(=O)(=O)[N-]c3ccc(C#N)cc3S([NH-])(=O)=O)cc2F)cc1 (3D coordinates assigned)
CS(=O)(=O)c1ccc(-c2ccc(S(=O)(=O)[N-]c3ccc(C#N)cc3S([NH-])(=O)=O)cc2F)cc1 (optimized conformer: 58.561082886562204 kcal/mol)

>  <smiles>  (3) 
CS(=O)(=O)c1ccc(-c2ccc(S(=O)(=O)Nc3ccc(C#N)cc3S(N)(=O)=O)cc2F)cc1

>  <score_type>  (3) 
oracle

>  <origin>  (3) 
adgpu

>  <m_score__min__energy>  (3) 
-12.619999999999999

>  <m_primary>  (3) 
energy

$$$$
3:0
     RDKit          3D

 63 67  0  0  0  0  0  0  0  0999 V2000
   -3.8780   24.7470  -30.6510 O   0  0  0  0  0  0  0  0  0  0  0  0
   -3.3520   24.0320  -29.7550 C   0  0  0  0  0  0  0  0  0  0  0  0
   -3.2760   22.6080  -29.9350 N   0  0  0  0  0  0  0  0  0  0  0  0
   -4.1730   21.8580  -30.7730 C   0  0  0  0  0  0  0  0  0  0  0  0
   -3.6560   20.8780  -31.6330 C   0  0  0  0  0  0  0  0  0  0  0  0
   -4.5090   20.1220  -32.4400 C   0  0  0  0  0  0  0  0  0  0  0  0
   -5.8940   20.3290  -32.3900 C   0  0  0  0  0  0  0  0  0  0  0  0
   -6.9850   19.4010  -33.4150 S   0  0  0  0  0  0  0  0  0  0  0  0
   -6.4070   19.3520  -34.8020 O   0  0  0  0  0  0  0  0  0  0  0  0
   -8.3340   20.0640  -33.4750 O   0  0  0  0  0  0  0  0  0  0  0  0
   -7.1410   17.7760  -32.7830 N   0  0  0  0  0  0  0  0  0  0  0  0
   -6.9080   16.7860  -33.8390 C   0  0  0  0  0  0  0  0  0  0  0  0
   -5.4370   16.4010  -33.8090 C   0  0  0  0  0  0  0  0  0  0  0  0
   -4.9330   16.8370  -32.4470 C   0  0  0  0  0  0  0  0  0  0  0  0
   -6.1140   17.5180  -31.7680 C   0  0  0  0  0  0  0  0  0  0  0  0
   -6.4170   21.2930  -31.5200 C   0  0  0  0  0  0  0  0  0  0  0  0
   -5.5650   22.0480  -30.7110 C   0  0  0  0  0  0  0  0  0  0  0  0
   -2.7820   24.6770  -28.5470 C   0  0  0  0  0  0  0  0  0  0  0  0
   -1.5740   25.3930  -28.6100 C   0  0  0  0  0  0  0  0  0  0  0  0
   -1.0280   25.9680  -27.4600 C   0  0  0  0  0  0  0  0  0  0  0  0
   -1.6640   25.8170  -26.2190 C   0  0  0  0  0  0  0  0  0  0  0  0
   -1.0460   26.3980  -24.9680 C   0  0  0  0  0  0  0  0  0  0  0  0
   -0.1280   25.4750  -24.2610 N   0  0  0  0  0  0  0  0  0  0  0  0
    1.3090   25.6150  -24.5630 C   0  0  0  0  0  0  0  0  0  0  0  0
    1.7590   24.8410  -25.8180 C   0  0  0  0  0  0  0  0  0  0  0  0
    0.9620   23.5930  -26.0970 C   0  0  0  0  0  0  0  0  0  0  0  0
    1.3200   22.7960  -27.1950 C   0  0  0  0  0  0  0  0  0  0  0  0
    0.5840   21.6500  -27.5070 C   0  0  0  0  0  0  0  0  0  0  0  0
   -0.5150   21.2900  -26.7270 C   0  0  0  0  0  0  0  0  0  0  0  0
   -0.8830   22.0790  -25.6350 C   0  0  0  0  0  0  0  0  0  0  0  0
   -0.1630   23.2430  -25.3250 C   0  0  0  0  0  0  0  0  0  0  0  0
   -0.5750   24.0780  -24.1430 C   0  0  0  0  0  0  0  0  0  0  0  0
   -2.8900   25.1360  -26.1590 C   0  0  0  0  0  0  0  0  0  0  0  0
   -3.4350   24.5580  -27.3070 C   0  0  0  0  0  0  0  0  0  0  0  0
   -2.4690   22.1020  -29.5070 H   0  0  0  0  0  0  0  0  0  0  0  0
   -2.5706   20.7036  -31.6721 H   0  0  0  0  0  0  0  0  0  0  0  0
   -4.0923   19.3617  -33.1170 H   0  0  0  0  0  0  0  0  0  0  0  0
   -7.5300   15.8965  -33.6601 H   0  0  0  0  0  0  0  0  0  0  0  0
   -7.1721   17.2063  -34.8206 H   0  0  0  0  0  0  0  0  0  0  0  0
   -5.3213   15.3140  -33.9321 H   0  0  0  0  0  0  0  0  0  0  0  0
   -4.8734   16.8772  -34.6248 H   0  0  0  0  0  0  0  0  0  0  0  0
   -4.6054   15.9648  -31.8622 H   0  0  0  0  0  0  0  0  0  0  0  0
   -4.0690   17.5125  -32.5315 H   0  0  0  0  0  0  0  0  0  0  0  0
   -6.5216   16.8623  -30.9844 H   0  0  0  0  0  0  0  0  0  0  0  0
   -5.7925   18.4625  -31.3047 H   0  0  0  0  0  0  0  0  0  0  0  0
   -7.5038   21.4565  -31.4734 H   0  0  0  0  0  0  0  0  0  0  0  0
   -5.9850   22.7953  -30.0216 H   0  0  0  0  0  0  0  0  0  0  0  0
   -1.0541   25.5015  -29.5733 H   0  0  0  0  0  0  0  0  0  0  0  0
   -0.0928   26.5432  -27.5281 H   0  0  0  0  0  0  0  0  0  0  0  0
   -0.4810   27.2992  -25.2485 H   0  0  0  0  0  0  0  0  0  0  0  0
   -1.8738   26.6130  -24.2762 H   0  0  0  0  0  0  0  0  0  0  0  0
    1.5290   26.6819  -24.7160 H   0  0  0  0  0  0  0  0  0  0  0  0
    1.8586   25.1901  -23.7102 H   0  0  0  0  0  0  0  0  0  0  0  0
    1.6668   25.5098  -26.6865 H   0  0  0  0  0  0  0  0  0  0  0  0
    2.7945   24.5184  -25.6342 H   0  0  0  0  0  0  0  0  0  0  0  0
    2.1854   23.0751  -27.8140 H   0  0  0  0  0  0  0  0  0  0  0  0
    0.8717   21.0306  -28.3693 H   0  0  0  0  0  0  0  0  0  0  0  0
   -1.0912   20.3855  -26.9718 H   0  0  0  0  0  0  0  0  0  0  0  0
   -1.7425   21.7863  -25.0141 H   0  0  0  0  0  0  0  0  0  0  0  0
   -1.6721   24.0634  -24.0652 H   0  0  0  0  0  0  0  0  0  0  0  0
   -0.1021   23.6487  -23.2474 H   0  0  0  0  0  0  0  0  0  0  0  0
   -3.4249   25.0572  -25.2010 H   0  0  0  0  0  0  0  0  0  0  0  0
   -4.3834   24.0047  -27.2412 H   0  0  0  0  0  0  0  0  0  0  0  0
  1  2  2  0
  2  3  1  0
  3  4  1  0
  4  5  2  0
  5  6  1  0
  6  7  2  0
  7  8  1  0
  8  9  2  0
  8 10  2  0
  8 11  1  0
 11 12  1  0
 12 13  1  0
 13 14  1  0
 14 15  1  0
  7 16  1  0
 16 17  2  0
  2 18  1  0
 18 19  2  0
 19 20  1  0
 20 21  2  0
 21 22  1  0
 22 23  1  0
 23 24  1  0
 24 25  1  0
 25 26  1  0
 26 27  2  0
 27 28  1  0
 28 29  2  0
 29 30  1  0
 30 31  2  0
 31 32  1  0
 21 33  1  0
 33 34  2  0
 17  4  1  0
 34 18  1  0
 15 11  1  0
 32 23  1  0
 31 26  1  0
  3 35  1  0
  5 36  1  0
  6 37  1  0
 12 38  1  0
 12 39  1  0
 13 40  1  0
 13 41  1  0
 14 42  1  0
 14 43  1  0
 15 44  1  0
 15 45  1  0
 16 46  1  0
 17 47  1  0
 19 48  1  0
 20 49  1  0
 22 50  1  0
 22 51  1  0
 24 52  1  0
 24 53  1  0
 25 54  1  0
 25 55  1  0
 27 56  1  0
 28 57  1  0
 29 58  1  0
 30 59  1  0
 32 60  1  0
 32 61  1  0
 33 62  1  0
 34 63  1  0
M  END
>  <UniqueID>  (4) 
4

>  <SMILES>  (4) 
O=C(Nc1ccc(S(=O)(=O)N2CCCC2)cc1)c1ccc(CN2CCc3ccccc3C2)cc1

>  <Energy>  (4) 
83.22501599882827

>  <Genealogy>  (4) 
O=C(Nc1ccc(S(=O)(=O)N2CCCC2)cc1)c1ccc(CN2CCc3ccccc3C2)cc1 (3D coordinates assigned)
O=C(Nc1ccc(S(=O)(=O)N2CCCC2)cc1)c1ccc(CN2CCc3ccccc3C2)cc1 (nonaromatic ring conformer: 83.22501599882827 kcal/mol)

>  <smiles>  (4) 
O=C(Nc1ccc(S(=O)(=O)N2CCCC2)cc1)c1ccc(CN2CCc3ccccc3C2)cc1

>  <score_type>  (4) 
oracle

>  <origin>  (4) 
adgpu

>  <m_score__min__energy>  (4) 
-10.58

>  <m_primary>  (4) 
energy

$$$$
4:0
     RDKit          3D

 56 60  0  0  0  0  0  0  0  0999 V2000
   -0.0900   21.3580  -31.1210 O   0  0  0  0  0  0  0  0  0  0  0  0
   -1.3720   21.5200  -30.3530 S   0  0  0  0  0  0  0  0  0  0  0  0
   -2.1870   20.2620  -30.4500 O   0  0  0  0  0  0  0  0  0  0  0  0
   -2.2610   22.8530  -31.0120 N   0  0  0  0  0  0  0  0  0  0  0  0
   -3.6900   22.9560  -31.0450 C   0  0  0  0  0  0  0  0  0  0  0  0
   -4.5080   21.8480  -31.3640 C   0  0  0  0  0  0  0  0  0  0  0  0
   -5.8900   22.0320  -31.4100 C   0  0  0  0  0  0  0  0  0  0  0  0
   -6.4690   23.2580  -31.1580 C   0  0  0  0  0  0  0  0  0  0  0  0
   -5.6860   24.3620  -30.8290 C   0  0  0  0  0  0  0  0  0  0  0  0
   -4.2890   24.2080  -30.7730 C   0  0  0  0  0  0  0  0  0  0  0  0
   -3.4970   25.3050  -30.4580 O   0  0  0  0  0  0  0  0  0  0  0  0
   -7.9590   23.2090  -31.3170 C   0  0  0  0  0  0  0  0  0  0  0  0
   -8.1470   21.7710  -31.6990 C   0  0  0  0  0  0  0  0  0  0  0  0
   -9.3410   21.1180  -31.9990 C   0  0  0  0  0  0  0  0  0  0  0  0
   -9.2950   19.7560  -32.3400 C   0  0  0  0  0  0  0  0  0  0  0  0
   -8.0620   19.0710  -32.3790 C   0  0  0  0  0  0  0  0  0  0  0  0
   -6.8680   19.7430  -32.0770 C   0  0  0  0  0  0  0  0  0  0  0  0
   -6.9420   21.0960  -31.7420 C   0  0  0  0  0  0  0  0  0  0  0  0
   -1.0040   21.8410  -28.6630 C   0  0  0  0  0  0  0  0  0  0  0  0
   -1.5580   21.0370  -27.6590 C   0  0  0  0  0  0  0  0  0  0  0  0
   -1.2540   21.2780  -26.3200 C   0  0  0  0  0  0  0  0  0  0  0  0
   -0.4030   22.3340  -25.9680 C   0  0  0  0  0  0  0  0  0  0  0  0
   -0.0850   22.5540  -24.6260 O   0  0  0  0  0  0  0  0  0  0  0  0
    0.1320   23.1650  -26.9690 C   0  0  0  0  0  0  0  0  0  0  0  0
    1.1880   24.5060  -26.5250 S   0  0  0  0  0  0  0  0  0  0  0  0
    2.4990   23.9380  -26.0530 O   0  0  0  0  0  0  0  0  0  0  0  0
    1.4450   25.3840  -27.7210 O   0  0  0  0  0  0  0  0  0  0  0  0
    0.3970   25.4120  -25.2540 N   0  0  0  0  0  0  0  0  0  0  0  0
    1.2490   26.5110  -24.7650 C   0  0  0  0  0  0  0  0  0  0  0  0
    0.6170   27.1930  -23.5310 C   0  0  0  0  0  0  0  0  0  0  0  0
   -0.8400   26.7610  -23.3010 C   0  0  0  0  0  0  0  0  0  0  0  0
   -1.6230   26.7480  -24.6160 C   0  0  0  0  0  0  0  0  0  0  0  0
   -0.9060   25.9300  -25.7140 C   0  0  0  0  0  0  0  0  0  0  0  0
   -0.1680   22.9100  -28.3150 C   0  0  0  0  0  0  0  0  0  0  0  0
   -4.0646   20.8629  -31.5713 H   0  0  0  0  0  0  0  0  0  0  0  0
   -6.1514   25.3359  -30.6170 H   0  0  0  0  0  0  0  0  0  0  0  0
   -8.4758   23.4500  -30.3763 H   0  0  0  0  0  0  0  0  0  0  0  0
   -8.3665   23.9318  -32.0392 H   0  0  0  0  0  0  0  0  0  0  0  0
  -10.2991   21.6576  -31.9694 H   0  0  0  0  0  0  0  0  0  0  0  0
  -10.2258   19.2203  -32.5780 H   0  0  0  0  0  0  0  0  0  0  0  0
   -8.0368   18.0046  -32.6476 H   0  0  0  0  0  0  0  0  0  0  0  0
   -5.9014   19.2187  -32.1035 H   0  0  0  0  0  0  0  0  0  0  0  0
   -2.2351   20.2128  -27.9278 H   0  0  0  0  0  0  0  0  0  0  0  0
   -1.6840   20.6365  -25.5366 H   0  0  0  0  0  0  0  0  0  0  0  0
    0.3040   23.4370  -24.3080 H   0  0  0  0  0  0  0  0  0  0  0  0
    2.2339   26.1070  -24.4879 H   0  0  0  0  0  0  0  0  0  0  0  0
    1.3511   27.2587  -25.5653 H   0  0  0  0  0  0  0  0  0  0  0  0
    1.2077   26.9295  -22.6412 H   0  0  0  0  0  0  0  0  0  0  0  0
    0.6192   28.2781  -23.7113 H   0  0  0  0  0  0  0  0  0  0  0  0
   -0.8511   25.7508  -22.8659 H   0  0  0  0  0  0  0  0  0  0  0  0
   -1.3149   27.4805  -22.6178 H   0  0  0  0  0  0  0  0  0  0  0  0
   -2.6134   26.3053  -24.4342 H   0  0  0  0  0  0  0  0  0  0  0  0
   -1.7075   27.7863  -24.9692 H   0  0  0  0  0  0  0  0  0  0  0  0
   -1.5451   25.0814  -25.9993 H   0  0  0  0  0  0  0  0  0  0  0  0
   -0.7242   26.5960  -26.5704 H   0  0  0  0  0  0  0  0  0  0  0  0
    0.2551   23.5524  -29.1013 H   0  0  0  0  0  0  0  0  0  0  0  0
  1  2  2  0
  2  3  2  0
  2  4  1  0
  4  5  1  0
  5  6  2  0
  6  7  1  0
  7  8  2  0
  8  9  1  0
  9 10  2  0
 10 11  1  0
  8 12  1  0
 12 13  1  0
 13 14  2  0
 14 15  1  0
 15 16  2  0
 16 17  1  0
 17 18  2  0
  2 19  1  0
 19 20  2  0
 20 21  1  0
 21 22  2  0
 22 23  1  0
 22 24  1  0
 24 25  1  0
 25 26  2  0
 25 27  2  0
 25 28  1  0
 28 29  1  0
 29 30  1  0
 30 31  1  0
 31 32  1  0
 32 33  1  0
 24 34  2  0
 10  5  1  0
 18 13  1  0
 34 19  1  0
 18  7  1  0
 33 28  1  0
  6 35  1  0
  9 36  1  0
 12 37  1  0
 12 38  1  0
 14 39  1  0
 15 40  1  0
 16 41  1  0
 17 42  1  0
 20 43  1  0
 21 44  1  0
 23 45  1  0
 29 46  1  0
 29 47  1  0
 30 48  1  0
 30 49  1  0
 31 50  1  0
 31 51  1  0
 32 52  1  0
 32 53  1  0
 33 54  1  0
 33 55  1  0
 34 56  1  0
M  CHG  2   4  -1  11  -1
M  END
>  <UniqueID>  (5) 
5

>  <SMILES>  (5) 
O=S(=O)([N-]c1cc2c(cc1[O-])Cc1ccccc1-2)c1ccc(O)c(S(=O)(=O)N2CCCCC2)c1

>  <Energy>  (5) 
92.89583394262206

>  <Genealogy>  (5) 
O=S(=O)([N-]c1cc2c(cc1[O-])Cc1ccccc1-2)c1ccc(O)c(S(=O)(=O)N2CCCCC2)c1 (protonated)
O=S(=O)([N-]c1cc2c(cc1[O-])Cc1ccccc1-2)c1ccc(O)c(S(=O)(=O)N2CCCCC2)c1 (3D coordinates assigned)
O=S(=O)([N-]c1cc2c(cc1[O-])Cc1ccccc1-2)c1ccc(O)c(S(=O)(=O)N2CCCCC2)c1 (nonaromatic ring conformer: 92.89583394262206 kcal/mol)

>  <smiles>  (5) 
O=S(=O)(Nc1cc2c(cc1O)Cc1ccccc1-2)c1ccc(O)c(S(=O)(=O)N2CCCCC2)c1

>  <score_type>  (5) 
oracle

>  <origin>  (5) 
adgpu

>  <m_score__min__energy>  (5) 
-14.199999999999999

>  <m_primary>  (5) 
energy

$$$$
5:0
     RDKit          3D

 46 49  0  0  0  0  0  0  0  0999 V2000
   -2.1000   22.7610  -30.6830 O   0  0  0  0  0  0  0  0  0  0  0  0
   -2.0850   23.6780  -29.8170 C   0  0  0  0  0  0  0  0  0  0  0  0
   -3.0900   24.6970  -29.8180 N   0  0  0  0  0  0  0  0  0  0  0  0
   -4.4860   24.5040  -30.0910 C   0  0  0  0  0  0  0  0  0  0  0  0
   -5.3810   25.5370  -29.7860 C   0  0  0  0  0  0  0  0  0  0  0  0
   -6.7470   25.3880  -30.0420 C   0  0  0  0  0  0  0  0  0  0  0  0
   -7.2270   24.2110  -30.6220 C   0  0  0  0  0  0  0  0  0  0  0  0
   -6.3380   23.1840  -30.9660 C   0  0  0  0  0  0  0  0  0  0  0  0
   -6.9300   21.6930  -31.6960 S   0  0  0  0  0  0  0  0  0  0  0  0
   -8.0270   22.0240  -32.6680 O   0  0  0  0  0  0  0  0  0  0  0  0
   -7.4780   20.7890  -30.6260 O   0  0  0  0  0  0  0  0  0  0  0  0
   -5.6360   20.8910  -32.5230 N   0  0  0  0  0  0  0  0  0  0  0  0
   -4.3230   21.4740  -32.7830 C   0  0  0  0  0  0  0  0  0  0  0  0
   -3.5170   20.3830  -33.5320 C   0  0  0  0  0  0  0  0  0  0  0  0
   -4.4820   19.2500  -33.6350 C   0  0  0  0  0  0  0  0  0  0  0  0
   -4.2850   18.0000  -34.2230 C   0  0  0  0  0  0  0  0  0  0  0  0
   -5.3430   17.0750  -34.2030 C   0  0  0  0  0  0  0  0  0  0  0  0
   -6.5690   17.4150  -33.5990 C   0  0  0  0  0  0  0  0  0  0  0  0
   -6.7430   18.6800  -33.0130 C   0  0  0  0  0  0  0  0  0  0  0  0
   -5.6740   19.5780  -33.0490 C   0  0  0  0  0  0  0  0  0  0  0  0
   -4.9690   23.3330  -30.7040 C   0  0  0  0  0  0  0  0  0  0  0  0
   -1.1200   23.6580  -28.7620 N   0  0  0  0  0  0  0  0  0  0  0  0
   -1.1330   24.5110  -27.6080 C   0  0  0  0  0  0  0  0  0  0  0  0
   -1.1650   23.9180  -26.3390 C   0  0  0  0  0  0  0  0  0  0  0  0
   -1.1830   24.7090  -25.1870 C   0  0  0  0  0  0  0  0  0  0  0  0
   -1.1850   26.1010  -25.2940 C   0  0  0  0  0  0  0  0  0  0  0  0
   -1.1850   26.7040  -26.5550 C   0  0  0  0  0  0  0  0  0  0  0  0
   -1.1760   25.9180  -27.7170 C   0  0  0  0  0  0  0  0  0  0  0  0
   -1.2420   26.5310  -28.9680 O   0  0  0  0  0  0  0  0  0  0  0  0
   -5.0067   26.4713  -29.3423 H   0  0  0  0  0  0  0  0  0  0  0  0
   -7.4452   26.1987  -29.7864 H   0  0  0  0  0  0  0  0  0  0  0  0
   -8.3043   24.0904  -30.8088 H   0  0  0  0  0  0  0  0  0  0  0  0
   -4.4206   22.3744  -33.4073 H   0  0  0  0  0  0  0  0  0  0  0  0
   -3.8235   21.7781  -31.8513 H   0  0  0  0  0  0  0  0  0  0  0  0
   -3.2132   20.7332  -34.5295 H   0  0  0  0  0  0  0  0  0  0  0  0
   -2.5849   20.1078  -33.0167 H   0  0  0  0  0  0  0  0  0  0  0  0
   -3.3232   17.7443  -34.6917 H   0  0  0  0  0  0  0  0  0  0  0  0
   -5.2132   16.0830  -34.6602 H   0  0  0  0  0  0  0  0  0  0  0  0
   -7.3937   16.6872  -33.5860 H   0  0  0  0  0  0  0  0  0  0  0  0
   -7.6962   18.9559  -32.5383 H   0  0  0  0  0  0  0  0  0  0  0  0
   -4.2687   22.5305  -30.9790 H   0  0  0  0  0  0  0  0  0  0  0  0
   -1.1760   22.8218  -26.2488 H   0  0  0  0  0  0  0  0  0  0  0  0
   -1.1956   24.2343  -24.1948 H   0  0  0  0  0  0  0  0  0  0  0  0
   -1.1866   26.7228  -24.3866 H   0  0  0  0  0  0  0  0  0  0  0  0
   -1.1921   27.8009  -26.6367 H   0  0  0  0  0  0  0  0  0  0  0  0
   -1.6180   26.0500  -29.7770 H   0  0  0  0  0  0  0  0  0  0  0  0
  1  2  2  0
  2  3  1  0
  3  4  1  0
  4  5  2  0
  5  6  1  0
  6  7  2  0
  7  8  1  0
  8  9  1  0
  9 10  2  0
  9 11  2  0
  9 12  1  0
 12 13  1  0
 13 14  1  0
 14 15  1  0
 15 16  2  0
 16 17  1  0
 17 18  2  0
 18 19  1  0
 19 20  2  0
  8 21  2  0
  2 22  1  0
 22 23  1  0
 23 24  2  0
 24 25  1  0
 25 26  2  0
 26 27  1  0
 27 28  2  0
 28 29  1  0
 21  4  1  0
 28 23  1  0
 20 12  1  0
 20 15  1  0
  5 30  1  0
  6 31  1  0
  7 32  1  0
 13 33  1  0
 13 34  1  0
 14 35  1  0
 14 36  1  0
 16 37  1  0
 17 38  1  0
 18 39  1  0
 19 40  1  0
 21 41  1  0
 24 42  1  0
 25 43  1  0
 26 44  1  0
 27 45  1  0
 29 46  1  0
M  CHG  2   3  -1  22  -1
M  END
>  <UniqueID>  (6) 
6

>  <SMILES>  (6) 
O=C([N-]c1cccc(S(=O)(=O)N2CCc3ccccc32)c1)[N-]c1ccccc1O

>  <Energy>  (6) 
74.2987881016859

>  <Genealogy>  (6) 
O=C([N-]c1cccc(S(=O)(=O)N2CCc3ccccc32)c1)[N-]c1ccccc1O (protonated)
O=C([N-]c1cccc(S(=O)(=O)N2CCc3ccccc32)c1)[N-]c1ccccc1O (3D coordinates assigned)
O=C([N-]c1cccc(S(=O)(=O)N2CCc3ccccc32)c1)[N-]c1ccccc1O (nonaromatic ring conformer: 74.2987881016859 kcal/mol)

>  <smiles>  (6) 
O=C(Nc1cccc(S(=O)(=O)N2CCc3ccccc32)c1)Nc1ccccc1O

>  <score_type>  (6) 
oracle

>  <origin>  (6) 
adgpu

>  <m_score__min__energy>  (6) 
-12.279999999999999

>  <m_primary>  (6) 
energy

$$$$
6:0
     RDKit          3D

 56 58  0  0  0  0  0  0  0  0999 V2000
   -3.5510   15.8060  -34.4780 C   0  0  0  0  0  0  0  0  0  0  0  0
   -4.6340   16.6960  -33.9260 C   0  0  0  0  0  0  0  0  0  0  0  0
   -5.9190   16.1670  -33.7220 C   0  0  0  0  0  0  0  0  0  0  0  0
   -6.9440   16.9660  -33.2130 C   0  0  0  0  0  0  0  0  0  0  0  0
   -6.7070   18.3130  -32.9160 C   0  0  0  0  0  0  0  0  0  0  0  0
   -8.0120   19.3230  -32.2900 S   0  0  0  0  0  0  0  0  0  0  0  0
   -8.3170   18.9200  -30.8730 O   0  0  0  0  0  0  0  0  0  0  0  0
   -9.2490   19.0970  -33.1140 O   0  0  0  0  0  0  0  0  0  0  0  0
   -7.5920   21.0180  -32.3340 N   0  0  0  0  0  0  0  0  0  0  0  0
   -8.7360   21.8380  -31.8870 C   0  0  0  0  0  0  0  0  0  0  0  0
   -8.3430   23.3100  -31.6310 C   0  0  0  0  0  0  0  0  0  0  0  0
   -6.9840   23.6500  -32.2500 C   0  0  0  0  0  0  0  0  0  0  0  0
   -5.8870   22.7040  -31.7330 C   0  0  0  0  0  0  0  0  0  0  0  0
   -6.4060   21.2730  -31.5010 C   0  0  0  0  0  0  0  0  0  0  0  0
   -5.4330   18.8540  -33.1290 C   0  0  0  0  0  0  0  0  0  0  0  0
   -4.3910   18.0580  -33.6260 C   0  0  0  0  0  0  0  0  0  0  0  0
   -3.0620   18.6700  -33.8440 C   0  0  0  0  0  0  0  0  0  0  0  0
   -2.3580   18.2510  -34.8020 O   0  0  0  0  0  0  0  0  0  0  0  0
   -2.5520   19.7110  -32.9790 N   0  0  0  0  0  0  0  0  0  0  0  0
   -2.7260   21.1100  -33.3870 C   0  0  0  0  0  0  0  0  0  0  0  0
   -1.8110   19.3960  -31.7450 C   0  0  0  0  0  0  0  0  0  0  0  0
   -1.0200   20.5800  -31.2840 C   0  0  0  0  0  0  0  0  0  0  0  0
   -0.2780   21.1890  -32.1000 O   0  0  0  0  0  0  0  0  0  0  0  0
   -1.1550   21.0360  -29.9320 N   0  0  0  0  0  0  0  0  0  0  0  0
   -2.0530   22.0490  -29.4610 C   0  0  0  0  0  0  0  0  0  0  0  0
   -2.6020   21.9170  -28.1780 C   0  0  0  0  0  0  0  0  0  0  0  0
   -3.4720   22.8900  -27.6770 C   0  0  0  0  0  0  0  0  0  0  0  0
   -3.7870   24.0110  -28.4480 C   0  0  0  0  0  0  0  0  0  0  0  0
   -3.2230   24.1670  -29.7180 C   0  0  0  0  0  0  0  0  0  0  0  0
   -3.5180   25.2940  -30.4750 O   0  0  0  0  0  0  0  0  0  0  0  0
   -2.3550   23.1920  -30.2240 C   0  0  0  0  0  0  0  0  0  0  0  0
   -2.9938   15.3481  -33.6474 H   0  0  0  0  0  0  0  0  0  0  0  0
   -4.0044   15.0161  -35.0948 H   0  0  0  0  0  0  0  0  0  0  0  0
   -2.8640   16.4039  -35.0948 H   0  0  0  0  0  0  0  0  0  0  0  0
   -6.1194   15.1132  -33.9656 H   0  0  0  0  0  0  0  0  0  0  0  0
   -7.9421   16.5353  -33.0446 H   0  0  0  0  0  0  0  0  0  0  0  0
   -9.5148   21.8105  -32.6634 H   0  0  0  0  0  0  0  0  0  0  0  0
   -9.0979   21.4181  -30.9369 H   0  0  0  0  0  0  0  0  0  0  0  0
   -9.1091   23.9651  -32.0714 H   0  0  0  0  0  0  0  0  0  0  0  0
   -8.2719   23.4615  -30.5438 H   0  0  0  0  0  0  0  0  0  0  0  0
   -7.0537   23.5553  -33.3437 H   0  0  0  0  0  0  0  0  0  0  0  0
   -6.7192   24.6794  -31.9668 H   0  0  0  0  0  0  0  0  0  0  0  0
   -5.0736   22.6690  -32.4727 H   0  0  0  0  0  0  0  0  0  0  0  0
   -5.5367   23.0941  -30.7660 H   0  0  0  0  0  0  0  0  0  0  0  0
   -5.6165   20.5537  -31.7640 H   0  0  0  0  0  0  0  0  0  0  0  0
   -6.6817   21.1599  -30.4421 H   0  0  0  0  0  0  0  0  0  0  0  0
   -5.2477   19.9147  -32.9040 H   0  0  0  0  0  0  0  0  0  0  0  0
   -2.8051   21.7456  -32.4927 H   0  0  0  0  0  0  0  0  0  0  0  0
   -1.8604   21.4273  -33.9870 H   0  0  0  0  0  0  0  0  0  0  0  0
   -3.6430   21.2056  -33.9870 H   0  0  0  0  0  0  0  0  0  0  0  0
   -2.5250   19.1107  -30.9583 H   0  0  0  0  0  0  0  0  0  0  0  0
   -1.1178   18.5672  -31.9514 H   0  0  0  0  0  0  0  0  0  0  0  0
   -2.3467   21.0425  -27.5616 H   0  0  0  0  0  0  0  0  0  0  0  0
   -3.9089   22.7724  -26.6744 H   0  0  0  0  0  0  0  0  0  0  0  0
   -4.4788   24.7712  -28.0562 H   0  0  0  0  0  0  0  0  0  0  0  0
   -1.9079   23.3199  -31.2209 H   0  0  0  0  0  0  0  0  0  0  0  0
  1  2  1  0
  2  3  2  0
  3  4  1  0
  4  5  2  0
  5  6  1  0
  6  7  2  0
  6  8  2  0
  6  9  1  0
  9 10  1  0
 10 11  1  0
 11 12  1  0
 12 13  1  0
 13 14  1  0
  5 15  1  0
 15 16  2  0
 16 17  1  0
 17 18  2  0
 17 19  1  0
 19 20  1  0
 19 21  1  0
 21 22  1  0
 22 23  2  0
 22 24  1  0
 24 25  1  0
 25 26  2  0
 26 27  1  0
 27 28  2  0
 28 29  1  0
 29 30  1  0
 29 31  2  0
 16  2  1  0
 31 25  1  0
 14  9  1  0
  1 32  1  0
  1 33  1  0
  1 34  1  0
  3 35  1  0
  4 36  1  0
 10 37  1  0
 10 38  1  0
 11 39  1  0
 11 40  1  0
 12 41  1  0
 12 42  1  0
 13 43  1  0
 13 44  1  0
 14 45  1  0
 14 46  1  0
 15 47  1  0
 20 48  1  0
 20 49  1  0
 20 50  1  0
 21 51  1  0
 21 52  1  0
 26 53  1  0
 27 54  1  0
 28 55  1  0
 31 56  1  0
M  CHG  2  24  -1  30  -1
M  END
>  <UniqueID>  (7) 
7

>  <SMILES>  (7) 
Cc1ccc(S(=O)(=O)N2CCCCC2)cc1C(=O)N(C)CC(=O)[N-]c1cccc([O-])c1

>  <Energy>  (7) 
64.89451828210113

>  <Genealogy>  (7) 
Cc1ccc(S(=O)(=O)N2CCCCC2)cc1C(=O)N(C)CC(=O)[N-]c1cccc([O-])c1 (protonated)
Cc1ccc(S(=O)(=O)N2CCCCC2)cc1C(=O)N(C)CC(=O)[N-]c1cccc([O-])c1 (3D coordinates assigned)
Cc1ccc(S(=O)(=O)N2CCCCC2)cc1C(=O)N(C)CC(=O)[N-]c1cccc([O-])c1 (nonaromatic ring conformer: 64.89451828210113 kcal/mol)

>  <smiles>  (7) 
Cc1ccc(S(=O)(=O)N2CCCCC2)cc1C(=O)N(C)CC(=O)Nc1cccc(O)c1

>  <score_type>  (7) 
oracle

>  <origin>  (7) 
adgpu

>  <m_score__min__energy>  (7) 
-12.65

>  <m_primary>  (7) 
energy

$$$$
7:0
     RDKit          3D

 48 50  0  0  0  0  0  0  0  0999 V2000
   -1.5120   21.3700  -26.6440 C   0  0  0  0  0  0  0  0  0  0  0  0
   -1.8370   22.3730  -27.6700 N   0  0  0  0  0  0  0  0  0  0  0  0
   -2.1320   23.6810  -27.0410 C   0  0  0  0  0  0  0  0  0  0  0  0
   -2.9990   24.5530  -27.9550 C   0  0  0  0  0  0  0  0  0  0  0  0
   -4.3250   23.9330  -28.1830 N   0  0  0  0  0  0  0  0  0  0  0  0
   -5.0300   24.5580  -29.6550 S   0  0  0  0  0  0  0  0  0  0  0  0
   -3.9680   25.2280  -30.4830 O   0  0  0  0  0  0  0  0  0  0  0  0
   -6.0920   25.5720  -29.3280 O   0  0  0  0  0  0  0  0  0  0  0  0
   -5.7290   23.2400  -30.5920 C   0  0  0  0  0  0  0  0  0  0  0  0
   -4.9790   22.6340  -31.6100 C   0  0  0  0  0  0  0  0  0  0  0  0
   -5.5170   21.5730  -32.3440 C   0  0  0  0  0  0  0  0  0  0  0  0
   -6.8060   21.1030  -32.0630 C   0  0  0  0  0  0  0  0  0  0  0  0
   -7.4730   19.7760  -33.0090 S   0  0  0  0  0  0  0  0  0  0  0  0
   -8.9550   19.9880  -33.1480 O   0  0  0  0  0  0  0  0  0  0  0  0
   -6.8580   19.7570  -34.3820 O   0  0  0  0  0  0  0  0  0  0  0  0
   -7.1670   18.2600  -32.1890 N   0  0  0  0  0  0  0  0  0  0  0  0
   -5.8030   18.2330  -31.6480 C   0  0  0  0  0  0  0  0  0  0  0  0
   -4.8970   17.5740  -32.6780 C   0  0  0  0  0  0  0  0  0  0  0  0
   -5.8260   16.8670  -33.6450 C   0  0  0  0  0  0  0  0  0  0  0  0
   -7.2330   17.1410  -33.1360 C   0  0  0  0  0  0  0  0  0  0  0  0
   -7.5560   21.7060  -31.0420 C   0  0  0  0  0  0  0  0  0  0  0  0
   -7.0180   22.7670  -30.3080 C   0  0  0  0  0  0  0  0  0  0  0  0
   -4.2920   22.4470  -28.1990 C   0  0  0  0  0  0  0  0  0  0  0  0
   -2.9080   21.8920  -28.5790 C   0  0  0  0  0  0  0  0  0  0  0  0
   -1.6539   21.8081  -25.6450 H   0  0  0  0  0  0  0  0  0  0  0  0
   -2.1739   20.4991  -26.7599 H   0  0  0  0  0  0  0  0  0  0  0  0
   -0.4651   21.0528  -26.7599 H   0  0  0  0  0  0  0  0  0  0  0  0
   -2.6663   23.5115  -26.0946 H   0  0  0  0  0  0  0  0  0  0  0  0
   -1.1807   24.2034  -26.8615 H   0  0  0  0  0  0  0  0  0  0  0  0
   -3.1389   25.5377  -27.4851 H   0  0  0  0  0  0  0  0  0  0  0  0
   -2.4902   24.6561  -28.9248 H   0  0  0  0  0  0  0  0  0  0  0  0
   -4.9580   24.2310  -27.4030 H   0  0  0  0  0  0  0  0  0  0  0  0
   -3.9638   22.9948  -31.8318 H   0  0  0  0  0  0  0  0  0  0  0  0
   -4.9258   21.1055  -33.1452 H   0  0  0  0  0  0  0  0  0  0  0  0
   -5.4595   19.2595  -31.4522 H   0  0  0  0  0  0  0  0  0  0  0  0
   -5.7793   17.6687  -30.7041 H   0  0  0  0  0  0  0  0  0  0  0  0
   -4.2992   18.3324  -33.2048 H   0  0  0  0  0  0  0  0  0  0  0  0
   -4.1888   16.8750  -32.2092 H   0  0  0  0  0  0  0  0  0  0  0  0
   -5.7004   17.2689  -34.6612 H   0  0  0  0  0  0  0  0  0  0  0  0
   -5.6150   15.7887  -33.6969 H   0  0  0  0  0  0  0  0  0  0  0  0
   -7.8893   17.4042  -33.9786 H   0  0  0  0  0  0  0  0  0  0  0  0
   -7.6392   16.2468  -32.6406 H   0  0  0  0  0  0  0  0  0  0  0  0
   -8.5700   21.3429  -30.8186 H   0  0  0  0  0  0  0  0  0  0  0  0
   -7.6080   23.2325  -29.5047 H   0  0  0  0  0  0  0  0  0  0  0  0
   -4.5573   22.0775  -27.1975 H   0  0  0  0  0  0  0  0  0  0  0  0
   -5.0094   22.1051  -28.9596 H   0  0  0  0  0  0  0  0  0  0  0  0
   -2.9431   20.7935  -28.5336 H   0  0  0  0  0  0  0  0  0  0  0  0
   -2.6714   22.2457  -29.5933 H   0  0  0  0  0  0  0  0  0  0  0  0
  1  2  1  0
  2  3  1  0
  3  4  1  0
  4  5  1  0
  5  6  1  0
  6  7  2  0
  6  8  2  0
  6  9  1  0
  9 10  2  0
 10 11  1  0
 11 12  2  0
 12 13  1  0
 13 14  2  0
 13 15  2  0
 13 16  1  0
 16 17  1  0
 17 18  1  0
 18 19  1  0
 19 20  1  0
 12 21  1  0
 21 22  2  0
  5 23  1  0
 23 24  1  0
 24  2  1  0
 22  9  1  0
 20 16  1  0
  1 25  1  0
  1 26  1  0
  1 27  1  0
  3 28  1  0
  3 29  1  0
  4 30  1  0
  4 31  1  0
  5 32  1  0
 10 33  1  0
 11 34  1  0
 17 35  1  0
 17 36  1  0
 18 37  1  0
 18 38  1  0
 19 39  1  0
 19 40  1  0
 20 41  1  0
 20 42  1  0
 21 43  1  0
 22 44  1  0
 23 45  1  0
 23 46  1  0
 24 47  1  0
 24 48  1  0
M  CHG  1   5   1
M  END
>  <UniqueID>  (8) 
8

>  <SMILES>  (8) 
CN1CC[NH+](S(=O)(=O)c2ccc(S(=O)(=O)N3CCCC3)cc2)CC1

>  <Energy>  (8) 
58.633815942745706

>  <Genealogy>  (8) 
CN1CC[NH+](S(=O)(=O)c2ccc(S(=O)(=O)N3CCCC3)cc2)CC1 (protonated)
CN1CC[NH+](S(=O)(=O)c2ccc(S(=O)(=O)N3CCCC3)cc2)CC1 (3D coordinates assigned)
CN1CC[NH+](S(=O)(=O)c2ccc(S(=O)(=O)N3CCCC3)cc2)CC1 (nonaromatic ring conformer: 58.633815942745706 kcal/mol)

>  <smiles>  (8) 
CN1CCN(S(=O)(=O)c2ccc(S(=O)(=O)N3CCCC3)cc2)CC1

>  <score_type>  (8) 
oracle

>  <origin>  (8) 
adgpu

>  <m_score__min__energy>  (8) 
-8.4600000000000009

>  <m_primary>  (8) 
energy

$$$$
8:0
     RDKit          3D

 73 77  0  0  0  0  0  0  0  0999 V2000
    0.8680   16.6810  -34.1200 C   0  0  0  0  0  0  0  0  0  0  0  0
    0.8040   17.5790  -32.9560 N   0  0  0  0  0  0  0  0  0  0  0  0
   -0.2120   17.1060  -31.9860 C   0  0  0  0  0  0  0  0  0  0  0  0
   -0.0100   17.6920  -30.5710 C   0  0  0  0  0  0  0  0  0  0  0  0
    0.8090   18.9080  -30.6170 N   0  0  0  0  0  0  0  0  0  0  0  0
    0.2760   20.1690  -30.1730 C   0  0  0  0  0  0  0  0  0  0  0  0
   -0.1250   20.3000  -28.8380 C   0  0  0  0  0  0  0  0  0  0  0  0
   -0.8230   21.4330  -28.4160 C   0  0  0  0  0  0  0  0  0  0  0  0
   -1.1420   22.4490  -29.3300 C   0  0  0  0  0  0  0  0  0  0  0  0
   -1.9450   23.6090  -28.8970 C   0  0  0  0  0  0  0  0  0  0  0  0
   -1.5990   24.7660  -29.2550 O   0  0  0  0  0  0  0  0  0  0  0  0
   -3.1310   23.4560  -28.1070 N   0  0  0  0  0  0  0  0  0  0  0  0
   -4.2970   24.3330  -28.1750 C   0  0  0  0  0  0  0  0  0  0  0  0
   -5.0960   24.0280  -29.4170 C   0  0  0  0  0  0  0  0  0  0  0  0
   -6.0760   23.0200  -29.3680 C   0  0  0  0  0  0  0  0  0  0  0  0
   -6.8090   22.6920  -30.5110 C   0  0  0  0  0  0  0  0  0  0  0  0
   -6.5610   23.3520  -31.7150 C   0  0  0  0  0  0  0  0  0  0  0  0
   -5.5800   24.3440  -31.7810 C   0  0  0  0  0  0  0  0  0  0  0  0
   -4.8420   24.6830  -30.6390 C   0  0  0  0  0  0  0  0  0  0  0  0
   -3.8630   25.6660  -30.7340 O   0  0  0  0  0  0  0  0  0  0  0  0
   -0.7380   22.3250  -30.6670 C   0  0  0  0  0  0  0  0  0  0  0  0
    0.0020   21.2120  -31.0880 C   0  0  0  0  0  0  0  0  0  0  0  0
    0.4290   21.1490  -32.4560 N   0  0  0  0  0  0  0  0  0  0  0  0
   -0.4510   21.2330  -33.5850 C   0  0  0  0  0  0  0  0  0  0  0  0
   -0.1100   21.9150  -34.5910 O   0  0  0  0  0  0  0  0  0  0  0  0
   -1.7510   20.5200  -33.5730 C   0  0  0  0  0  0  0  0  0  0  0  0
   -2.9130   21.1530  -33.0950 C   0  0  0  0  0  0  0  0  0  0  0  0
   -4.1330   20.4700  -33.0730 C   0  0  0  0  0  0  0  0  0  0  0  0
   -4.2120   19.1440  -33.5160 C   0  0  0  0  0  0  0  0  0  0  0  0
   -5.7480   18.2790  -33.4750 S   0  0  0  0  0  0  0  0  0  0  0  0
   -5.5070   16.8590  -33.0390 O   0  0  0  0  0  0  0  0  0  0  0  0
   -6.3480   18.2530  -34.8540 O   0  0  0  0  0  0  0  0  0  0  0  0
   -6.8330   19.0620  -32.3480 N   0  0  0  0  0  0  0  0  0  0  0  0
   -7.5770   20.1650  -32.9740 C   0  0  0  0  0  0  0  0  0  0  0  0
   -9.0420   20.0350  -32.5740 C   0  0  0  0  0  0  0  0  0  0  0  0
   -9.0800   18.9170  -31.5580 C   0  0  0  0  0  0  0  0  0  0  0  0
   -7.8310   18.1150  -31.8430 C   0  0  0  0  0  0  0  0  0  0  0  0
   -3.0560   18.5070  -33.9850 C   0  0  0  0  0  0  0  0  0  0  0  0
   -1.8350   19.1880  -34.0190 C   0  0  0  0  0  0  0  0  0  0  0  0
    2.0900   18.8850  -31.3360 C   0  0  0  0  0  0  0  0  0  0  0  0
    2.1320   17.7170  -32.3290 C   0  0  0  0  0  0  0  0  0  0  0  0
    0.9423   15.6390  -33.7755 H   0  0  0  0  0  0  0  0  0  0  0  0
   -0.0411   16.8025  -34.7273 H   0  0  0  0  0  0  0  0  0  0  0  0
    1.7507   16.9302  -34.7273 H   0  0  0  0  0  0  0  0  0  0  0  0
   -1.2078   17.4003  -32.3490 H   0  0  0  0  0  0  0  0  0  0  0  0
   -0.1113   16.0134  -31.9085 H   0  0  0  0  0  0  0  0  0  0  0  0
   -0.9919   17.9359  -30.1392 H   0  0  0  0  0  0  0  0  0  0  0  0
    0.5081   16.9440  -29.9529 H   0  0  0  0  0  0  0  0  0  0  0  0
    0.1117   19.5043  -28.1163 H   0  0  0  0  0  0  0  0  0  0  0  0
   -1.1242   21.5298  -27.3625 H   0  0  0  0  0  0  0  0  0  0  0  0
   -4.9267   24.1723  -27.2875 H   0  0  0  0  0  0  0  0  0  0  0  0
   -3.9615   25.3801  -28.2079 H   0  0  0  0  0  0  0  0  0  0  0  0
   -6.2661   22.4872  -28.4246 H   0  0  0  0  0  0  0  0  0  0  0  0
   -7.5831   21.9120  -30.4618 H   0  0  0  0  0  0  0  0  0  0  0  0
   -7.1390   23.0907  -32.6137 H   0  0  0  0  0  0  0  0  0  0  0  0
   -5.3861   24.8608  -32.7325 H   0  0  0  0  0  0  0  0  0  0  0  0
   -1.0043   23.1084  -31.3918 H   0  0  0  0  0  0  0  0  0  0  0  0
   -2.8615   22.1916  -32.7364 H   0  0  0  0  0  0  0  0  0  0  0  0
   -5.0368   20.9778  -32.7052 H   0  0  0  0  0  0  0  0  0  0  0  0
   -7.1791   21.1290  -32.6241 H   0  0  0  0  0  0  0  0  0  0  0  0
   -7.4754   20.1205  -34.0684 H   0  0  0  0  0  0  0  0  0  0  0  0
   -9.4045   20.9731  -32.1284 H   0  0  0  0  0  0  0  0  0  0  0  0
   -9.6865   19.8243  -33.4401 H   0  0  0  0  0  0  0  0  0  0  0  0
   -9.0604   19.3192  -30.5343 H   0  0  0  0  0  0  0  0  0  0  0  0
   -9.9955   18.3117  -31.6314 H   0  0  0  0  0  0  0  0  0  0  0  0
   -7.4683   17.6366  -30.9213 H   0  0  0  0  0  0  0  0  0  0  0  0
   -8.0289   17.3184  -32.5753 H   0  0  0  0  0  0  0  0  0  0  0  0
   -3.1090   17.4635  -34.3291 H   0  0  0  0  0  0  0  0  0  0  0  0
   -0.9354   18.6797  -34.3964 H   0  0  0  0  0  0  0  0  0  0  0  0
    2.2134   19.8304  -31.8847 H   0  0  0  0  0  0  0  0  0  0  0  0
    2.9035   18.7590  -30.6064 H   0  0  0  0  0  0  0  0  0  0  0  0
    2.8875   17.9167  -33.1031 H   0  0  0  0  0  0  0  0  0  0  0  0
    2.3954   16.7878  -31.8025 H   0  0  0  0  0  0  0  0  0  0  0  0
  1  2  1  0
  2  3  1  0
  3  4  1  0
  4  5  1  0
  5  6  1  0
  6  7  2  0
  7  8  1  0
  8  9  2  0
  9 10  1  0
 10 11  2  0
 10 12  1  0
 12 13  1  0
 13 14  1  0
 14 15  2  0
 15 16  1  0
 16 17  2  0
 17 18  1  0
 18 19  2  0
 19 20  1  0
  9 21  1  0
 21 22  2  0
 22 23  1  0
 23 24  1  0
 24 25  2  0
 24 26  1  0
 26 27  2  0
 27 28  1  0
 28 29  2  0
 29 30  1  0
 30 31  2  0
 30 32  2  0
 30 33  1  0
 33 34  1  0
 34 35  1  0
 35 36  1  0
 36 37  1  0
 29 38  1  0
 38 39  2  0
  5 40  1  0
 40 41  1  0
 41  2  1  0
 22  6  1  0
 39 26  1  0
 19 14  1  0
 37 33  1  0
  1 42  1  0
  1 43  1  0
  1 44  1  0
  3 45  1  0
  3 46  1  0
  4 47  1  0
  4 48  1  0
  7 49  1  0
  8 50  1  0
 13 51  1  0
 13 52  1  0
 15 53  1  0
 16 54  1  0
 17 55  1  0
 18 56  1  0
 21 57  1  0
 27 58  1  0
 28 59  1  0
 34 60  1  0
 34 61  1  0
 35 62  1  0
 35 63  1  0
 36 64  1  0
 36 65  1  0
 37 66  1  0
 37 67  1  0
 38 68  1  0
 39 69  1  0
 40 70  1  0
 40 71  1  0
 41 72  1  0
 41 73  1  0
M  CHG  3  12  -1  20  -1  23  -1
M  END
>  <UniqueID>  (9) 
9

>  <SMILES>  (9) 
CN1CCN(c2ccc(C(=O)[N-]Cc3ccccc3[O-])cc2[N-]C(=O)c2ccc(S(=O)(=O)N3CCCC3)cc2)CC1

>  <Energy>  (9) 
98.44058755523955

>  <Genealogy>  (9) 
CN1CCN(c2ccc(C(=O)[N-]Cc3ccccc3[O-])cc2[N-]C(=O)c2ccc(S(=O)(=O)N3CCCC3)cc2)CC1 (protonated)
CN1CCN(c2ccc(C(=O)[N-]Cc3ccccc3[O-])cc2[N-]C(=O)c2ccc(S(=O)(=O)N3CCCC3)cc2)CC1 (3D coordinates assigned)
CN1CCN(c2ccc(C(=O)[N-]Cc3ccccc3[O-])cc2[N-]C(=O)c2ccc(S(=O)(=O)N3CCCC3)cc2)CC1 (nonaromatic ring conformer: 98.44058755523955 kcal/mol)

>  <smiles>  (9) 
CN1CCN(c2ccc(C(=O)NCc3ccccc3O)cc2NC(=O)c2ccc(S(=O)(=O)N3CCCC3)cc2)CC1

>  <score_type>  (9) 
oracle

>  <origin>  (9) 
adgpu

>  <m_score__min__energy>  (9) 
-16.27

>  <m_primary>  (9) 
energy

$$$$
9:0
     RDKit          3D

 56 58  0  0  0  0  0  0  0  0999 V2000
   -0.1650   27.4150  -26.8830 C   0  0  0  0  0  0  0  0  0  0  0  0
   -0.1830   25.9140  -26.7640 C   0  0  0  0  0  0  0  0  0  0  0  0
    0.8230   25.1590  -27.3900 C   0  0  0  0  0  0  0  0  0  0  0  0
    0.8320   23.7680  -27.2940 C   0  0  0  0  0  0  0  0  0  0  0  0
   -0.1720   23.0980  -26.5720 C   0  0  0  0  0  0  0  0  0  0  0  0
   -0.2260   21.6970  -26.4730 O   0  0  0  0  0  0  0  0  0  0  0  0
   -0.9550   20.8370  -27.3500 C   0  0  0  0  0  0  0  0  0  0  0  0
   -2.1220   21.5670  -27.9360 C   0  0  0  0  0  0  0  0  0  0  0  0
   -3.2150   21.6040  -27.3090 O   0  0  0  0  0  0  0  0  0  0  0  0
   -1.9920   22.2200  -29.2020 N   0  0  0  0  0  0  0  0  0  0  0  0
   -3.0130   23.0380  -29.7940 C   0  0  0  0  0  0  0  0  0  0  0  0
   -4.2020   22.4740  -30.2820 C   0  0  0  0  0  0  0  0  0  0  0  0
   -5.2110   23.2950  -30.7920 C   0  0  0  0  0  0  0  0  0  0  0  0
   -6.7310   22.5820  -31.3230 S   0  0  0  0  0  0  0  0  0  0  0  0
   -7.6390   23.6920  -31.7760 O   0  0  0  0  0  0  0  0  0  0  0  0
   -7.3870   21.8640  -30.1750 O   0  0  0  0  0  0  0  0  0  0  0  0
   -6.4300   21.4690  -32.6420 N   0  0  0  0  0  0  0  0  0  0  0  0
   -5.2080   20.6880  -32.3460 C   0  0  0  0  0  0  0  0  0  0  0  0
   -4.9490   19.5410  -33.3430 C   0  0  0  0  0  0  0  0  0  0  0  0
   -5.9120   18.3380  -33.2620 C   0  0  0  0  0  0  0  0  0  0  0  0
   -6.8320   18.3390  -32.0300 C   0  0  0  0  0  0  0  0  0  0  0  0
   -7.8920   19.4700  -31.9900 C   0  0  0  0  0  0  0  0  0  0  0  0
   -7.6460   20.6650  -32.9390 C   0  0  0  0  0  0  0  0  0  0  0  0
   -5.0170   24.6800  -30.8040 C   0  0  0  0  0  0  0  0  0  0  0  0
   -3.8640   25.2110  -30.3160 N   0  0  0  0  0  0  0  0  0  0  0  0
   -2.8720   24.4320  -29.8090 C   0  0  0  0  0  0  0  0  0  0  0  0
   -1.8280   24.9720  -29.3560 O   0  0  0  0  0  0  0  0  0  0  0  0
   -1.1630   23.8460  -25.9310 C   0  0  0  0  0  0  0  0  0  0  0  0
   -1.1830   25.2490  -26.0160 C   0  0  0  0  0  0  0  0  0  0  0  0
   -2.2820   26.0150  -25.3260 C   0  0  0  0  0  0  0  0  0  0  0  0
   -0.1596   27.8624  -25.8781 H   0  0  0  0  0  0  0  0  0  0  0  0
    0.7370   27.7288  -27.4289 H   0  0  0  0  0  0  0  0  0  0  0  0
   -1.0592   27.7503  -27.4289 H   0  0  0  0  0  0  0  0  0  0  0  0
    1.6115   25.6704  -27.9616 H   0  0  0  0  0  0  0  0  0  0  0  0
    1.6291   23.1912  -27.7859 H   0  0  0  0  0  0  0  0  0  0  0  0
   -0.2931   20.4992  -28.1610 H   0  0  0  0  0  0  0  0  0  0  0  0
   -1.3224   19.9708  -26.7802 H   0  0  0  0  0  0  0  0  0  0  0  0
   -4.3398   21.3828  -30.2629 H   0  0  0  0  0  0  0  0  0  0  0  0
   -6.2330   22.0630  -33.4810 H   0  0  0  0  0  0  0  0  0  0  0  0
   -4.3455   21.3703  -32.3699 H   0  0  0  0  0  0  0  0  0  0  0  0
   -5.3520   20.2281  -31.3572 H   0  0  0  0  0  0  0  0  0  0  0  0
   -5.0168   19.9575  -34.3588 H   0  0  0  0  0  0  0  0  0  0  0  0
   -3.9573   19.1426  -33.0825 H   0  0  0  0  0  0  0  0  0  0  0  0
   -6.5438   18.3425  -34.1625 H   0  0  0  0  0  0  0  0  0  0  0  0
   -5.2832   17.4390  -33.1819 H   0  0  0  0  0  0  0  0  0  0  0  0
   -7.3627   17.3759  -32.0024 H   0  0  0  0  0  0  0  0  0  0  0  0
   -6.1762   18.5086  -31.1633 H   0  0  0  0  0  0  0  0  0  0  0  0
   -8.8651   19.0283  -32.2508 H   0  0  0  0  0  0  0  0  0  0  0  0
   -7.8434   19.8852  -30.9725 H   0  0  0  0  0  0  0  0  0  0  0  0
   -7.5535   20.2733  -33.9627 H   0  0  0  0  0  0  0  0  0  0  0  0
   -8.5013   21.3434  -32.8041 H   0  0  0  0  0  0  0  0  0  0  0  0
   -5.7979   25.3406  -31.2086 H   0  0  0  0  0  0  0  0  0  0  0  0
   -1.9405   23.3283  -25.3501 H   0  0  0  0  0  0  0  0  0  0  0  0
   -2.1598   25.9298  -24.2361 H   0  0  0  0  0  0  0  0  0  0  0  0
   -2.2307   27.0740  -25.6191 H   0  0  0  0  0  0  0  0  0  0  0  0
   -3.2578   25.6003  -25.6191 H   0  0  0  0  0  0  0  0  0  0  0  0
  1  2  1  0
  2  3  2  0
  3  4  1  0
  4  5  2  0
  5  6  1  0
  6  7  1  0
  7  8  1  0
  8  9  2  0
  8 10  1  0
 10 11  1  0
 11 12  2  0
 12 13  1  0
 13 14  1  0
 14 15  2  0
 14 16  2  0
 14 17  1  0
 17 18  1  0
 18 19  1  0
 19 20  1  0
 20 21  1  0
 21 22  1  0
 22 23  1  0
 13 24  2  0
 24 25  1  0
 25 26  1  0
 26 27  2  0
  5 28  1  0
 28 29  2  0
 29 30  1  0
 29  2  1  0
 26 11  1  0
 23 17  1  0
  1 31  1  0
  1 32  1  0
  1 33  1  0
  3 34  1  0
  4 35  1  0
  7 36  1  0
  7 37  1  0
 12 38  1  0
 17 39  1  0
 18 40  1  0
 18 41  1  0
 19 42  1  0
 19 43  1  0
 20 44  1  0
 20 45  1  0
 21 46  1  0
 21 47  1  0
 22 48  1  0
 22 49  1  0
 23 50  1  0
 23 51  1  0
 24 52  1  0
 28 53  1  0
 30 54  1  0
 30 55  1  0
 30 56  1  0
M  CHG  3  10  -1  17   1  25  -1
M  END
>  <UniqueID>  (10) 
10

>  <SMILES>  (10) 
Cc1ccc(OCC(=O)[N-]c2cc(S(=O)(=O)[NH+]3CCCCCC3)c[n-]c2=O)cc1C

>  <Energy>  (10) 
69.57186017161936

>  <Genealogy>  (10) 
Cc1ccc(OCC(=O)[N-]c2cc(S(=O)(=O)[NH+]3CCCCCC3)c[n-]c2=O)cc1C (protonated)
Cc1ccc(OCC(=O)[N-]c2cc(S(=O)(=O)[NH+]3CCCCCC3)c[n-]c2=O)cc1C (3D coordinates assigned)
Cc1ccc(OCC(=O)[N-]c2cc(S(=O)(=O)[NH+]3CCCCCC3)c[n-]c2=O)cc1C (nonaromatic ring conformer: 69.57186017161936 kcal/mol)

>  <smiles>  (10) 
Cc1ccc(OCC(=O)Nc2cc(S(=O)(=O)N3CCCCCC3)c[nH]c2=O)cc1C

>  <score_type>  (10) 
oracle

>  <origin>  (10) 
adgpu

>  <m_score__min__energy>  (10) 
-9.25

>  <m_primary>  (10) 
energy

$$$$
10:0
     RDKit          3D

 46 49  0  0  0  0  0  0  0  0999 V2000
   -0.7730   17.8130  -26.7890 N   0  0  0  0  0  0  0  0  0  0  0  0
   -1.0690   19.1220  -27.2820 C   0  0  0  0  0  0  0  0  0  0  0  0
   -2.2940   19.7310  -26.9780 C   0  0  0  0  0  0  0  0  0  0  0  0
   -2.5840   21.0110  -27.4590 C   0  0  0  0  0  0  0  0  0  0  0  0
   -1.6510   21.6930  -28.2530 C   0  0  0  0  0  0  0  0  0  0  0  0
   -2.0130   23.3020  -28.8690 S   0  0  0  0  0  0  0  0  0  0  0  0
   -0.7370   23.9300  -29.3570 O   0  0  0  0  0  0  0  0  0  0  0  0
   -2.6000   24.1680  -27.7900 O   0  0  0  0  0  0  0  0  0  0  0  0
   -3.1340   23.2000  -30.1920 N   0  0  0  0  0  0  0  0  0  0  0  0
   -4.3000   23.7780  -30.2650 C   0  0  0  0  0  0  0  0  0  0  0  0
   -4.7760   24.5760  -29.2570 N   0  0  0  0  0  0  0  0  0  0  0  0
   -5.9980   25.1700  -29.3350 C   0  0  0  0  0  0  0  0  0  0  0  0
   -6.8050   24.9760  -30.4540 C   0  0  0  0  0  0  0  0  0  0  0  0
   -6.3470   24.1730  -31.4940 C   0  0  0  0  0  0  0  0  0  0  0  0
   -5.0790   23.5760  -31.4170 C   0  0  0  0  0  0  0  0  0  0  0  0
   -4.5960   22.7430  -32.4390 O   0  0  0  0  0  0  0  0  0  0  0  0
   -5.0520   21.4450  -32.7120 C   0  0  0  0  0  0  0  0  0  0  0  0
   -4.1280   20.4860  -33.1360 C   0  0  0  0  0  0  0  0  0  0  0  0
   -4.5450   19.1860  -33.4280 C   0  0  0  0  0  0  0  0  0  0  0  0
   -5.8930   18.8370  -33.3120 C   0  0  0  0  0  0  0  0  0  0  0  0
   -6.8480   19.7950  -32.9060 C   0  0  0  0  0  0  0  0  0  0  0  0
   -8.3340   19.5020  -32.7710 C   0  0  0  0  0  0  0  0  0  0  0  0
   -8.7780   18.6810  -31.5680 C   0  0  0  0  0  0  0  0  0  0  0  0
   -9.0740   20.1750  -31.6240 C   0  0  0  0  0  0  0  0  0  0  0  0
   -6.4120   21.0980  -32.6150 C   0  0  0  0  0  0  0  0  0  0  0  0
   -0.4240   21.0860  -28.5540 C   0  0  0  0  0  0  0  0  0  0  0  0
   -0.1350   19.8070  -28.0730 C   0  0  0  0  0  0  0  0  0  0  0  0
   -0.0160   17.2380  -27.2210 H   0  0  0  0  0  0  0  0  0  0  0  0
   -1.3070   17.4090  -25.9870 H   0  0  0  0  0  0  0  0  0  0  0  0
   -3.0308   19.1993  -26.3580 H   0  0  0  0  0  0  0  0  0  0  0  0
   -3.5463   21.4843  -27.2141 H   0  0  0  0  0  0  0  0  0  0  0  0
   -4.2200   24.7550  -28.3940 H   0  0  0  0  0  0  0  0  0  0  0  0
   -6.3504   25.8067  -28.5101 H   0  0  0  0  0  0  0  0  0  0  0  0
   -7.7944   25.4529  -30.5147 H   0  0  0  0  0  0  0  0  0  0  0  0
   -6.9798   24.0058  -32.3781 H   0  0  0  0  0  0  0  0  0  0  0  0
   -3.0670   20.7568  -33.2402 H   0  0  0  0  0  0  0  0  0  0  0  0
   -3.8099   18.4339  -33.7505 H   0  0  0  0  0  0  0  0  0  0  0  0
   -6.2126   17.8091  -33.5384 H   0  0  0  0  0  0  0  0  0  0  0  0
   -8.4830   19.4305  -33.8585 H   0  0  0  0  0  0  0  0  0  0  0  0
   -9.5969   17.9537  -31.6702 H   0  0  0  0  0  0  0  0  0  0  0  0
   -8.2749   18.0136  -30.8528 H   0  0  0  0  0  0  0  0  0  0  0  0
  -10.1067   20.5262  -31.7665 H   0  0  0  0  0  0  0  0  0  0  0  0
   -8.8731   21.0330  -30.9657 H   0  0  0  0  0  0  0  0  0  0  0  0
   -7.1446   21.8584  -32.3067 H   0  0  0  0  0  0  0  0  0  0  0  0
    0.3141   21.6189  -29.1714 H   0  0  0  0  0  0  0  0  0  0  0  0
    0.8286   19.3352  -28.3154 H   0  0  0  0  0  0  0  0  0  0  0  0
  1  2  1  0
  2  3  2  0
  3  4  1  0
  4  5  2  0
  5  6  1  0
  6  7  2  0
  6  8  2  0
  6  9  1  0
  9 10  2  3
 10 11  1  0
 11 12  1  0
 12 13  2  0
 13 14  1  0
 14 15  2  0
 15 16  1  0
 16 17  1  0
 17 18  2  0
 18 19  1  0
 19 20  2  0
 20 21  1  0
 21 22  1  0
 22 23  1  0
 23 24  1  0
 21 25  2  0
  5 26  1  0
 26 27  2  0
 27  2  1  0
 15 10  1  0
 25 17  1  0
 24 22  1  0
  1 28  1  0
  1 29  1  0
  3 30  1  0
  4 31  1  0
 11 32  1  0
 12 33  1  0
 13 34  1  0
 14 35  1  0
 18 36  1  0
 19 37  1  0
 20 38  1  0
 22 39  1  0
 23 40  1  0
 23 41  1  0
 24 42  1  0
 24 43  1  0
 25 44  1  0
 26 45  1  0
 27 46  1  0
M  END
>  <UniqueID>  (11) 
11

>  <SMILES>  (11) 
Nc1ccc(S(=O)(=O)N=c2[nH]cccc2Oc2cccc(C3CC3)c2)cc1

>  <Energy>  (11) 
328.02591790288164

>  <Genealogy>  (11) 
Nc1ccc(S(=O)(=O)N=c2[nH]cccc2Oc2cccc(C3CC3)c2)cc1 (3D coordinates assigned)
Nc1ccc(S(=O)(=O)N=c2[nH]cccc2Oc2cccc(C3CC3)c2)cc1 (nonaromatic ring conformer: 328.02591790288164 kcal/mol)

>  <smiles>  (11) 
Nc1ccc(S(=O)(=O)N=c2[nH]cccc2Oc2cccc(C3CC3)c2)cc1

>  <score_type>  (11) 
oracle

>  <origin>  (11) 
adgpu

>  <m_score__min__energy>  (11) 
-9.1699999999999999

>  <m_primary>  (11) 
energy

$$$$
11:0
     RDKit          3D

 36 38  0  0  0  0  0  0  0  0999 V2000
   -5.0820   14.7440  -33.1870 C   0  0  0  0  0  0  0  0  0  0  0  0
   -5.5350   16.1730  -33.2480 C   0  0  0  0  0  0  0  0  0  0  0  0
   -5.5320   16.8630  -34.4690 C   0  0  0  0  0  0  0  0  0  0  0  0
   -5.9890   18.1830  -34.5340 C   0  0  0  0  0  0  0  0  0  0  0  0
   -6.4590   18.8310  -33.3810 C   0  0  0  0  0  0  0  0  0  0  0  0
   -6.9420   20.1830  -33.4770 N   0  0  0  0  0  0  0  0  0  0  0  0
   -6.4300   21.2720  -32.6880 C   0  0  0  0  0  0  0  0  0  0  0  0
   -7.3280   22.1650  -32.0930 C   0  0  0  0  0  0  0  0  0  0  0  0
   -6.8720   23.2010  -31.2830 C   0  0  0  0  0  0  0  0  0  0  0  0
   -5.5050   23.3710  -31.0320 C   0  0  0  0  0  0  0  0  0  0  0  0
   -5.0030   24.7150  -29.9880 S   0  0  0  0  0  0  0  0  0  0  0  0
   -4.9050   24.2400  -28.5670 O   0  0  0  0  0  0  0  0  0  0  0  0
   -6.0020   25.8360  -30.0560 O   0  0  0  0  0  0  0  0  0  0  0  0
   -3.5120   25.2980  -30.4980 O   0  0  0  0  0  0  0  0  0  0  0  0
   -4.5720   22.4740  -31.6170 C   0  0  0  0  0  0  0  0  0  0  0  0
   -3.1830   22.5980  -31.3970 C   0  0  0  0  0  0  0  0  0  0  0  0
   -2.2840   21.7130  -31.9940 C   0  0  0  0  0  0  0  0  0  0  0  0
   -2.7460   20.6950  -32.8210 C   0  0  0  0  0  0  0  0  0  0  0  0
   -4.1120   20.5460  -33.0550 C   0  0  0  0  0  0  0  0  0  0  0  0
   -5.0440   21.4180  -32.4530 C   0  0  0  0  0  0  0  0  0  0  0  0
   -6.4940   18.1250  -32.1650 C   0  0  0  0  0  0  0  0  0  0  0  0
   -6.0360   16.8050  -32.1010 C   0  0  0  0  0  0  0  0  0  0  0  0
   -4.9840   14.4350  -32.1359 H   0  0  0  0  0  0  0  0  0  0  0  0
   -5.8211   14.1033  -33.6902 H   0  0  0  0  0  0  0  0  0  0  0  0
   -4.1088   14.6461  -33.6902 H   0  0  0  0  0  0  0  0  0  0  0  0
   -5.1686   16.3638  -35.3793 H   0  0  0  0  0  0  0  0  0  0  0  0
   -5.9801   18.7173  -35.4955 H   0  0  0  0  0  0  0  0  0  0  0  0
   -7.6610   20.4030  -34.2040 H   0  0  0  0  0  0  0  0  0  0  0  0
   -8.4076   22.0468  -32.2675 H   0  0  0  0  0  0  0  0  0  0  0  0
   -7.5961   23.8964  -30.8335 H   0  0  0  0  0  0  0  0  0  0  0  0
   -2.8050   23.4014  -30.7476 H   0  0  0  0  0  0  0  0  0  0  0  0
   -1.2050   21.8213  -31.8095 H   0  0  0  0  0  0  0  0  0  0  0  0
   -2.0308   20.0048  -33.2923 H   0  0  0  0  0  0  0  0  0  0  0  0
   -4.4669   19.7410  -33.7153 H   0  0  0  0  0  0  0  0  0  0  0  0
   -6.8836   18.6135  -31.2597 H   0  0  0  0  0  0  0  0  0  0  0  0
   -6.0690   16.2600  -31.1461 H   0  0  0  0  0  0  0  0  0  0  0  0
  1  2  1  0
  2  3  2  0
  3  4  1  0
  4  5  2  0
  5  6  1  0
  6  7  1  0
  7  8  2  0
  8  9  1  0
  9 10  2  0
 10 11  1  0
 11 12  2  0
 11 13  2  0
 11 14  1  0
 10 15  1  0
 15 16  2  0
 16 17  1  0
 17 18  2  0
 18 19  1  0
 19 20  2  0
  5 21  1  0
 21 22  2  0
 22  2  1  0
 20  7  1  0
 20 15  1  0
  1 23  1  0
  1 24  1  0
  1 25  1  0
  3 26  1  0
  4 27  1  0
  6 28  1  0
  8 29  1  0
  9 30  1  0
 16 31  1  0
 17 32  1  0
 18 33  1  0
 19 34  1  0
 21 35  1  0
 22 36  1  0
M  CHG  1  14  -1
M  END
>  <UniqueID>  (12) 
12

>  <SMILES>  (12) 
Cc1ccc(Nc2ccc(S(=O)(=O)[O-])c3ccccc23)cc1

>  <Energy>  (12) 
52.5434408329573

>  <Genealogy>  (12) 
Cc1ccc(Nc2ccc(S(=O)(=O)[O-])c3ccccc23)cc1 (protonated)
Cc1ccc(Nc2ccc(S(=O)(=O)[O-])c3ccccc23)cc1 (3D coordinates assigned)
Cc1ccc(Nc2ccc(S(=O)(=O)[O-])c3ccccc23)cc1 (optimized conformer: 52.5434408329573 kcal/mol)

>  <smiles>  (12) 
Cc1ccc(Nc2ccc(S(=O)(=O)O)c3ccccc23)cc1

>  <score_type>  (12) 
oracle

>  <origin>  (12) 
adgpu

>  <m_score__min__energy>  (12) 
-11.630000000000001

>  <m_primary>  (12) 
energy

$$$$
12:0
     RDKit          3D

 51 54  0  0  0  0  0  0  0  0999 V2000
   -4.1090   25.1550  -30.2010 O   0  0  0  0  0  0  0  0  0  0  0  0
   -3.0520   24.4970  -29.9990 C   0  0  0  0  0  0  0  0  0  0  0  0
   -1.9540   25.1540  -29.3580 N   0  0  0  0  0  0  0  0  0  0  0  0
   -1.8010   25.3990  -27.9510 C   0  0  0  0  0  0  0  0  0  0  0  0
   -0.9200   26.4150  -27.5590 C   0  0  0  0  0  0  0  0  0  0  0  0
   -0.8480   26.8230  -26.2260 C   0  0  0  0  0  0  0  0  0  0  0  0
   -1.7050   26.2640  -25.2800 C   0  0  0  0  0  0  0  0  0  0  0  0
   -2.6140   25.2740  -25.6600 C   0  0  0  0  0  0  0  0  0  0  0  0
   -2.6490   24.8030  -26.9840 C   0  0  0  0  0  0  0  0  0  0  0  0
   -3.8420   23.5250  -27.4350 S   0  0  0  0  0  0  0  0  0  0  0  0
   -2.6670   22.1620  -27.3730 C   0  0  0  0  0  0  0  0  0  0  0  0
   -1.3090   22.3880  -27.1120 C   0  0  0  0  0  0  0  0  0  0  0  0
   -0.4240   21.3100  -27.0200 C   0  0  0  0  0  0  0  0  0  0  0  0
   -0.8850   20.0060  -27.2210 C   0  0  0  0  0  0  0  0  0  0  0  0
   -2.2370   19.7770  -27.4960 C   0  0  0  0  0  0  0  0  0  0  0  0
   -3.1270   20.8520  -27.5650 C   0  0  0  0  0  0  0  0  0  0  0  0
   -2.9570   23.1030  -30.4910 C   0  0  0  0  0  0  0  0  0  0  0  0
   -1.7380   22.4050  -30.4800 C   0  0  0  0  0  0  0  0  0  0  0  0
   -1.6720   21.1360  -30.9620 N   0  0  0  0  0  0  0  0  0  0  0  0
   -2.7610   20.5040  -31.4740 C   0  0  0  0  0  0  0  0  0  0  0  0
   -3.9950   21.1600  -31.5240 C   0  0  0  0  0  0  0  0  0  0  0  0
   -5.4110   20.3580  -32.2090 S   0  0  0  0  0  0  0  0  0  0  0  0
   -5.4440   18.9320  -31.7340 O   0  0  0  0  0  0  0  0  0  0  0  0
   -5.2960   20.3460  -33.7070 O   0  0  0  0  0  0  0  0  0  0  0  0
   -6.8980   21.1520  -31.7530 N   0  0  0  0  0  0  0  0  0  0  0  0
   -6.9590   22.4970  -32.3430 C   0  0  0  0  0  0  0  0  0  0  0  0
   -8.2820   23.1870  -31.9470 C   0  0  0  0  0  0  0  0  0  0  0  0
   -9.1380   22.3200  -31.2200 O   0  0  0  0  0  0  0  0  0  0  0  0
   -9.3690   21.1410  -31.9650 C   0  0  0  0  0  0  0  0  0  0  0  0
   -8.0610   20.3560  -32.1850 C   0  0  0  0  0  0  0  0  0  0  0  0
   -4.0860   22.4670  -31.0320 C   0  0  0  0  0  0  0  0  0  0  0  0
   -0.2773   26.8970  -28.3104 H   0  0  0  0  0  0  0  0  0  0  0  0
   -0.1153   27.5852  -25.9225 H   0  0  0  0  0  0  0  0  0  0  0  0
   -1.6656   26.6024  -24.2341 H   0  0  0  0  0  0  0  0  0  0  0  0
   -3.3095   24.8587  -24.9158 H   0  0  0  0  0  0  0  0  0  0  0  0
   -0.9388   23.4153  -26.9793 H   0  0  0  0  0  0  0  0  0  0  0  0
    0.6366   21.4882  -26.7891 H   0  0  0  0  0  0  0  0  0  0  0  0
   -0.1845   19.1599  -27.1629 H   0  0  0  0  0  0  0  0  0  0  0  0
   -2.5996   18.7512  -27.6579 H   0  0  0  0  0  0  0  0  0  0  0  0
   -4.1921   20.6696  -27.7707 H   0  0  0  0  0  0  0  0  0  0  0  0
   -0.8338   22.8871  -30.0799 H   0  0  0  0  0  0  0  0  0  0  0  0
   -2.6714   19.4741  -31.8499 H   0  0  0  0  0  0  0  0  0  0  0  0
   -6.1120   23.0949  -31.9755 H   0  0  0  0  0  0  0  0  0  0  0  0
   -6.9088   22.4136  -33.4387 H   0  0  0  0  0  0  0  0  0  0  0  0
   -8.0523   24.0637  -31.3236 H   0  0  0  0  0  0  0  0  0  0  0  0
   -8.8016   23.4802  -32.8712 H   0  0  0  0  0  0  0  0  0  0  0  0
  -10.0816   20.5053  -31.4190 H   0  0  0  0  0  0  0  0  0  0  0  0
   -9.7754   21.4235  -32.9474 H   0  0  0  0  0  0  0  0  0  0  0  0
   -8.0970   19.4235  -31.6027 H   0  0  0  0  0  0  0  0  0  0  0  0
   -7.9584   20.1321  -33.2571 H   0  0  0  0  0  0  0  0  0  0  0  0
   -5.0479   22.9994  -31.0693 H   0  0  0  0  0  0  0  0  0  0  0  0
  1  2  2  0
  2  3  1  0
  3  4  1  0
  4  5  2  0
  5  6  1  0
  6  7  2  0
  7  8  1  0
  8  9  2  0
  9 10  1  0
 10 11  1  0
 11 12  2  0
 12 13  1  0
 13 14  2  0
 14 15  1  0
 15 16  2  0
  2 17  1  0
 17 18  2  0
 18 19  1  0
 19 20  2  0
 20 21  1  0
 21 22  1  0
 22 23  2  0
 22 24  2  0
 22 25  1  0
 25 26  1  0
 26 27  1  0
 27 28  1  0
 28 29  1  0
 29 30  1  0
 21 31  2  0
  9  4  1  0
 16 11  1  0
 31 17  1  0
 30 25  1  0
  5 32  1  0
  6 33  1  0
  7 34  1  0
  8 35  1  0
 12 36  1  0
 13 37  1  0
 14 38  1  0
 15 39  1  0
 16 40  1  0
 18 41  1  0
 20 42  1  0
 26 43  1  0
 26 44  1  0
 27 45  1  0
 27 46  1  0
 29 47  1  0
 29 48  1  0
 30 49  1  0
 30 50  1  0
 31 51  1  0
M  CHG  1   3  -1
M  END
>  <UniqueID>  (13) 
13

>  <SMILES>  (13) 
O=C([N-]c1ccccc1Sc1ccccc1)c1cncc(S(=O)(=O)N2CCOCC2)c1

>  <Energy>  (13) 
70.16912119840629

>  <Genealogy>  (13) 
O=C([N-]c1ccccc1Sc1ccccc1)c1cncc(S(=O)(=O)N2CCOCC2)c1 (protonated)
O=C([N-]c1ccccc1Sc1ccccc1)c1cncc(S(=O)(=O)N2CCOCC2)c1 (3D coordinates assigned)
O=C([N-]c1ccccc1Sc1ccccc1)c1cncc(S(=O)(=O)N2CCOCC2)c1 (nonaromatic ring conformer: 70.16912119840629 kcal/mol)

>  <smiles>  (13) 
O=C(Nc1ccccc1Sc1ccccc1)c1cncc(S(=O)(=O)N2CCOCC2)c1

>  <score_type>  (13) 
oracle

>  <origin>  (13) 
adgpu

>  <m_score__min__energy>  (13) 
-11.07

>  <m_primary>  (13) 
energy

$$$$
13:0
     RDKit          3D

 39 41  0  0  0  0  0  0  0  0999 V2000
   -6.2510   25.3480  -29.7700 C   0  0  0  0  0  0  0  0  0  0  0  0
   -5.7160   24.1720  -30.4860 N   0  0  0  0  0  0  0  0  0  0  0  0
   -6.5380   23.4570  -31.3300 C   0  0  0  0  0  0  0  0  0  0  0  0
   -7.7430   23.7930  -31.5010 O   0  0  0  0  0  0  0  0  0  0  0  0
   -6.0610   22.3420  -32.0180 C   0  0  0  0  0  0  0  0  0  0  0  0
   -4.7430   21.9390  -31.8570 C   0  0  0  0  0  0  0  0  0  0  0  0
   -3.8980   22.6520  -31.0070 C   0  0  0  0  0  0  0  0  0  0  0  0
   -2.5670   22.2460  -30.8400 C   0  0  0  0  0  0  0  0  0  0  0  0
   -1.7170   22.9510  -29.9910 C   0  0  0  0  0  0  0  0  0  0  0  0
   -2.1820   24.0740  -29.3030 C   0  0  0  0  0  0  0  0  0  0  0  0
   -1.0920   24.9370  -28.2200 S   0  0  0  0  0  0  0  0  0  0  0  0
   -1.2240   26.4220  -28.4210 O   0  0  0  0  0  0  0  0  0  0  0  0
    0.3200   24.5330  -28.5390 O   0  0  0  0  0  0  0  0  0  0  0  0
   -1.4680   24.5240  -26.5650 N   0  0  0  0  0  0  0  0  0  0  0  0
   -1.6350   25.7420  -25.7330 C   0  0  0  0  0  0  0  0  0  0  0  0
   -0.4110   26.0230  -24.8470 C   0  0  0  0  0  0  0  0  0  0  0  0
   -0.1150   24.8900  -23.9460 N   0  0  0  0  0  0  0  0  0  0  0  0
   -0.4600   23.5670  -24.5090 C   0  0  0  0  0  0  0  0  0  0  0  0
   -0.4590   23.5800  -26.0420 C   0  0  0  0  0  0  0  0  0  0  0  0
   -3.5130   24.4870  -29.4590 C   0  0  0  0  0  0  0  0  0  0  0  0
   -4.3980   23.7860  -30.3140 C   0  0  0  0  0  0  0  0  0  0  0  0
   -6.1756   25.1823  -28.6852 H   0  0  0  0  0  0  0  0  0  0  0  0
   -5.6704   26.2406  -30.0458 H   0  0  0  0  0  0  0  0  0  0  0  0
   -7.3054   25.4968  -30.0458 H   0  0  0  0  0  0  0  0  0  0  0  0
   -6.7295   21.7819  -32.6884 H   0  0  0  0  0  0  0  0  0  0  0  0
   -4.3655   21.0591  -32.3986 H   0  0  0  0  0  0  0  0  0  0  0  0
   -2.1915   21.3658  -31.3824 H   0  0  0  0  0  0  0  0  0  0  0  0
   -0.6753   22.6219  -29.8619 H   0  0  0  0  0  0  0  0  0  0  0  0
   -1.7945   26.6039  -26.3976 H   0  0  0  0  0  0  0  0  0  0  0  0
   -2.4968   25.5775  -25.0694 H   0  0  0  0  0  0  0  0  0  0  0  0
    0.4618   26.2027  -25.4919 H   0  0  0  0  0  0  0  0  0  0  0  0
   -0.6323   26.9044  -24.2272 H   0  0  0  0  0  0  0  0  0  0  0  0
   -0.6410   25.0200  -23.0510 H   0  0  0  0  0  0  0  0  0  0  0  0
    0.9060   24.9080  -23.7170 H   0  0  0  0  0  0  0  0  0  0  0  0
    0.2765   22.8287  -24.1592 H   0  0  0  0  0  0  0  0  0  0  0  0
   -1.4739   23.3067  -24.1710 H   0  0  0  0  0  0  0  0  0  0  0  0
    0.5364   23.8838  -26.3983 H   0  0  0  0  0  0  0  0  0  0  0  0
   -0.7055   22.5698  -26.4008 H   0  0  0  0  0  0  0  0  0  0  0  0
   -3.8750   25.3683  -28.9092 H   0  0  0  0  0  0  0  0  0  0  0  0
  1  2  1  0
  2  3  1  0
  3  4  2  0
  3  5  1  0
  5  6  2  0
  6  7  1  0
  7  8  2  0
  8  9  1  0
  9 10  2  0
 10 11  1  0
 11 12  2  0
 11 13  2  0
 11 14  1  0
 14 15  1  0
 15 16  1  0
 16 17  1  0
 17 18  1  0
 18 19  1  0
 10 20  1  0
 20 21  2  0
 21  2  1  0
 21  7  1  0
 19 14  1  0
  1 22  1  0
  1 23  1  0
  1 24  1  0
  5 25  1  0
  6 26  1  0
  8 27  1  0
  9 28  1  0
 15 29  1  0
 15 30  1  0
 16 31  1  0
 16 32  1  0
 17 33  1  0
 17 34  1  0
 18 35  1  0
 18 36  1  0
 19 37  1  0
 19 38  1  0
 20 39  1  0
M  CHG  1  17   1
M  END
>  <UniqueID>  (14) 
14

>  <SMILES>  (14) 
Cn1c(=O)ccc2ccc(S(=O)(=O)N3CC[NH2+]CC3)cc21

>  <Energy>  (14) 
58.36118995480498

>  <Genealogy>  (14) 
Cn1c(=O)ccc2ccc(S(=O)(=O)N3CC[NH2+]CC3)cc21 (protonated)
Cn1c(=O)ccc2ccc(S(=O)(=O)N3CC[NH2+]CC3)cc21 (3D coordinates assigned)
Cn1c(=O)ccc2ccc(S(=O)(=O)N3CC[NH2+]CC3)cc21 (nonaromatic ring conformer: 58.36118995480498 kcal/mol)

>  <smiles>  (14) 
Cn1c(=O)ccc2ccc(S(=O)(=O)N3CCNCC3)cc21

>  <score_type>  (14) 
oracle

>  <origin>  (14) 
adgpu

>  <m_score__min__energy>  (14) 
-8.1999999999999993

>  <m_primary>  (14) 
energy

$$$$
14:0
     RDKit          3D

 55 57  0  0  0  0  0  0  0  0999 V2000
   -2.4580   17.4120  -34.4130 C   0  0  0  0  0  0  0  0  0  0  0  0
   -3.4730   16.6000  -35.1010 N   0  0  0  0  0  0  0  0  0  0  0  0
   -2.8480   15.4540  -35.7760 C   0  0  0  0  0  0  0  0  0  0  0  0
   -4.6660   16.0350  -33.9580 S   0  0  0  0  0  0  0  0  0  0  0  0
   -3.9860   15.5130  -32.7210 O   0  0  0  0  0  0  0  0  0  0  0  0
   -5.4720   14.9210  -34.5680 O   0  0  0  0  0  0  0  0  0  0  0  0
   -5.7590   17.3490  -33.5320 C   0  0  0  0  0  0  0  0  0  0  0  0
   -5.6120   18.6190  -34.1080 C   0  0  0  0  0  0  0  0  0  0  0  0
   -6.5070   19.6440  -33.7920 C   0  0  0  0  0  0  0  0  0  0  0  0
   -7.5580   19.4150  -32.8830 C   0  0  0  0  0  0  0  0  0  0  0  0
   -8.5100   20.4450  -32.5700 N   0  0  0  0  0  0  0  0  0  0  0  0
   -8.1550   21.6850  -31.9400 C   0  0  0  0  0  0  0  0  0  0  0  0
   -9.2100   22.9380  -32.0200 S   0  0  0  0  0  0  0  0  0  0  0  0
   -7.0650   21.7220  -31.0040 N   0  0  0  0  0  0  0  0  0  0  0  0
   -6.2710   22.8880  -30.7280 C   0  0  0  0  0  0  0  0  0  0  0  0
   -6.8590   24.1570  -30.8300 C   0  0  0  0  0  0  0  0  0  0  0  0
   -6.1250   25.3030  -30.5160 C   0  0  0  0  0  0  0  0  0  0  0  0
   -4.8020   25.1920  -30.0850 C   0  0  0  0  0  0  0  0  0  0  0  0
   -4.2030   23.9300  -29.9670 C   0  0  0  0  0  0  0  0  0  0  0  0
   -2.5330   23.7910  -29.4060 S   0  0  0  0  0  0  0  0  0  0  0  0
   -1.7480   22.9770  -30.4000 O   0  0  0  0  0  0  0  0  0  0  0  0
   -1.9180   25.1620  -29.3420 O   0  0  0  0  0  0  0  0  0  0  0  0
   -2.4290   23.0330  -27.8310 N   0  0  0  0  0  0  0  0  0  0  0  0
   -1.0340   22.7720  -27.4590 C   0  0  0  0  0  0  0  0  0  0  0  0
   -0.7170   21.3250  -27.8020 C   0  0  0  0  0  0  0  0  0  0  0  0
   -2.0600   20.6310  -27.9030 C   0  0  0  0  0  0  0  0  0  0  0  0
   -3.1110   21.7320  -27.8220 C   0  0  0  0  0  0  0  0  0  0  0  0
   -4.9410   22.7810  -30.2830 C   0  0  0  0  0  0  0  0  0  0  0  0
   -7.7100   18.1390  -32.3230 C   0  0  0  0  0  0  0  0  0  0  0  0
   -6.8140   17.1140  -32.6420 C   0  0  0  0  0  0  0  0  0  0  0  0
   -2.5838   17.3114  -33.3249 H   0  0  0  0  0  0  0  0  0  0  0  0
   -1.4545   17.0647  -34.6998 H   0  0  0  0  0  0  0  0  0  0  0  0
   -2.5766   18.4673  -34.6998 H   0  0  0  0  0  0  0  0  0  0  0  0
   -3.9550   17.1930  -35.8170 H   0  0  0  0  0  0  0  0  0  0  0  0
   -2.4640   14.7499  -35.0232 H   0  0  0  0  0  0  0  0  0  0  0  0
   -3.5946   14.9471  -36.4050 H   0  0  0  0  0  0  0  0  0  0  0  0
   -2.0176   15.8072  -36.4050 H   0  0  0  0  0  0  0  0  0  0  0  0
   -4.7883   18.8090  -34.8118 H   0  0  0  0  0  0  0  0  0  0  0  0
   -6.3903   20.6348  -34.2554 H   0  0  0  0  0  0  0  0  0  0  0  0
   -9.5160   20.2760  -32.8010 H   0  0  0  0  0  0  0  0  0  0  0  0
   -6.8390   20.8400  -30.4910 H   0  0  0  0  0  0  0  0  0  0  0  0
   -7.9044   24.2504  -31.1592 H   0  0  0  0  0  0  0  0  0  0  0  0
   -6.5906   26.2953  -30.6086 H   0  0  0  0  0  0  0  0  0  0  0  0
   -4.2280   26.0970  -29.8373 H   0  0  0  0  0  0  0  0  0  0  0  0
   -0.3667   23.4430  -28.0198 H   0  0  0  0  0  0  0  0  0  0  0  0
   -0.8864   22.9501  -26.3836 H   0  0  0  0  0  0  0  0  0  0  0  0
   -0.1802   21.2655  -28.7603 H   0  0  0  0  0  0  0  0  0  0  0  0
   -0.0713   20.8574  -27.0442 H   0  0  0  0  0  0  0  0  0  0  0  0
   -2.1417   20.0947  -28.8599 H   0  0  0  0  0  0  0  0  0  0  0  0
   -2.1911   19.8900  -27.1007 H   0  0  0  0  0  0  0  0  0  0  0  0
   -3.7878   21.6625  -28.6864 H   0  0  0  0  0  0  0  0  0  0  0  0
   -3.6992   21.6226  -26.8990 H   0  0  0  0  0  0  0  0  0  0  0  0
   -4.4768   21.7888  -30.1823 H   0  0  0  0  0  0  0  0  0  0  0  0
   -8.5397   17.9427  -31.6280 H   0  0  0  0  0  0  0  0  0  0  0  0
   -6.9386   16.1182  -32.1915 H   0  0  0  0  0  0  0  0  0  0  0  0
  1  2  1  0
  2  3  1  0
  2  4  1  0
  4  5  2  0
  4  6  2  0
  4  7  1  0
  7  8  2  0
  8  9  1  0
  9 10  2  0
 10 11  1  0
 11 12  1  0
 12 13  2  0
 12 14  1  0
 14 15  1  0
 15 16  2  0
 16 17  1  0
 17 18  2  0
 18 19  1  0
 19 20  1  0
 20 21  2  0
 20 22  2  0
 20 23  1  0
 23 24  1  0
 24 25  1  0
 25 26  1  0
 26 27  1  0
 19 28  2  0
 10 29  1  0
 29 30  2  0
 30  7  1  0
 28 15  1  0
 27 23  1  0
  1 31  1  0
  1 32  1  0
  1 33  1  0
  2 34  1  0
  3 35  1  0
  3 36  1  0
  3 37  1  0
  8 38  1  0
  9 39  1  0
 11 40  1  0
 14 41  1  0
 16 42  1  0
 17 43  1  0
 18 44  1  0
 24 45  1  0
 24 46  1  0
 25 47  1  0
 25 48  1  0
 26 49  1  0
 26 50  1  0
 27 51  1  0
 27 52  1  0
 28 53  1  0
 29 54  1  0
 30 55  1  0
M  CHG  1   2   1
M  END
>  <UniqueID>  (15) 
15

>  <SMILES>  (15) 
C[NH+](C)S(=O)(=O)c1ccc(NC(=S)Nc2cccc(S(=O)(=O)N3CCCC3)c2)cc1

>  <Energy>  (15) 
59.91094441068245

>  <Genealogy>  (15) 
C[NH+](C)S(=O)(=O)c1ccc(NC(=S)Nc2cccc(S(=O)(=O)N3CCCC3)c2)cc1 (protonated)
C[NH+](C)S(=O)(=O)c1ccc(NC(=S)Nc2cccc(S(=O)(=O)N3CCCC3)c2)cc1 (3D coordinates assigned)
C[NH+](C)S(=O)(=O)c1ccc(NC(=S)Nc2cccc(S(=O)(=O)N3CCCC3)c2)cc1 (nonaromatic ring conformer: 59.91094441068245 kcal/mol)

>  <smiles>  (15) 
CN(C)S(=O)(=O)c1ccc(NC(=S)Nc2cccc(S(=O)(=O)N3CCCC3)c2)cc1

>  <score_type>  (15) 
oracle

>  <origin>  (15) 
adgpu

>  <m_score__min__energy>  (15) 
-10.050000000000001

>  <m_primary>  (15) 
energy

$$$$
15:0
     RDKit          3D

 30 31  0  0  0  0  0  0  0  0999 V2000
   -3.8630   26.5040  -29.9600 H   0  0  0  0  0  0  0  0  0  0  0  0
   -3.9840   25.6000  -30.3990 O   0  0  0  0  0  0  0  0  0  0  0  0
   -3.1570   24.5220  -30.0880 C   0  0  0  0  0  0  0  0  0  0  0  0
   -3.4880   23.2260  -30.5090 C   0  0  0  0  0  0  0  0  0  0  0  0
   -4.4048   23.0583  -31.0933 H   0  0  0  0  0  0  0  0  0  0  0  0
   -2.6560   22.1410  -30.1890 C   0  0  0  0  0  0  0  0  0  0  0  0
   -2.9930   20.7580  -30.6770 C   0  0  0  0  0  0  0  0  0  0  0  0
   -3.8510   20.3701  -30.1084 H   0  0  0  0  0  0  0  0  0  0  0  0
   -2.1221   20.1019  -30.5322 H   0  0  0  0  0  0  0  0  0  0  0  0
   -3.3400   20.7990  -32.1300 C   0  0  0  0  0  0  0  0  0  0  0  0
   -2.8960   21.7380  -32.8460 O   0  0  0  0  0  0  0  0  0  0  0  0
   -4.2120   19.7920  -32.6700 N   0  0  0  0  0  0  0  0  0  0  0  0
   -5.5130   19.7680  -32.6360 C   0  0  0  0  0  0  0  0  0  0  0  0
   -6.2230   18.7580  -33.1820 N   0  0  0  0  0  0  0  0  0  0  0  0
   -7.5390   18.9080  -33.0480 N   0  0  0  0  0  0  0  0  0  0  0  0
   -7.8870   20.0340  -32.3840 C   0  0  0  0  0  0  0  0  0  0  0  0
   -9.3020   20.4570  -32.1560 C   0  0  0  0  0  0  0  0  0  0  0  0
   -9.6991   19.9309  -31.2754 H   0  0  0  0  0  0  0  0  0  0  0  0
   -9.8950   20.2070  -33.0481 H   0  0  0  0  0  0  0  0  0  0  0  0
   -9.3810   21.9610  -31.9190 C   0  0  0  0  0  0  0  0  0  0  0  0
   -9.3915   22.1617  -30.8375 H   0  0  0  0  0  0  0  0  0  0  0  0
   -8.5073   22.4503  -32.3742 H   0  0  0  0  0  0  0  0  0  0  0  0
  -10.3011   22.3561  -32.3742 H   0  0  0  0  0  0  0  0  0  0  0  0
   -6.5290   20.9290  -31.9420 S   0  0  0  0  0  0  0  0  0  0  0  0
   -1.4780   22.3670  -29.4610 C   0  0  0  0  0  0  0  0  0  0  0  0
   -0.8118   21.5251  -29.2215 H   0  0  0  0  0  0  0  0  0  0  0  0
   -1.1480   23.6580  -29.0390 C   0  0  0  0  0  0  0  0  0  0  0  0
   -0.2273   23.8276  -28.4614 H   0  0  0  0  0  0  0  0  0  0  0  0
   -1.9850   24.7350  -29.3490 C   0  0  0  0  0  0  0  0  0  0  0  0
   -1.6500   26.0150  -28.9270 O   0  0  0  0  0  0  0  0  0  0  0  0
  1  2  1  0
  2  3  1  0
  3  4  2  0
  4  5  1  0
  4  6  1  0
  6  7  1  0
  7  8  1  0
  7  9  1  0
  7 10  1  0
 10 11  2  0
 10 12  1  0
 12 13  2  0
 13 14  1  0
 14 15  1  0
 15 16  2  0
 16 17  1  0
 17 18  1  0
 17 19  1  0
 17 20  1  0
 20 21  1  0
 20 22  1  0
 20 23  1  0
 16 24  1  0
  6 25  2  0
 25 26  1  0
 25 27  1  0
 27 28  1  0
 27 29  2  0
 29 30  1  0
 29  3  1  0
 24 13  1  0
M  CHG  2  14  -1  30  -1
M  END
>  <UniqueID>  (16) 
16

>  <SMILES>  (16) 
CCc1n[n-]/c(=N/C(=O)Cc2ccc([O-])c(O)c2)s1

>  <Energy>  (16) 
61.47968592294582

>  <Genealogy>  (16) 
CCc1n[n-]c(=NC(=O)Cc2ccc([O-])c(O)c2)s1 (protonated)
CCc1n[n-]/c(=N/C(=O)Cc2ccc([O-])c(O)c2)s1 (cis-trans isomerization)
CCc1n[n-]/c(=N/C(=O)Cc2ccc([O-])c(O)c2)s1 (3D coordinates assigned)
CCc1n[n-]/c(=N/C(=O)Cc2ccc([O-])c(O)c2)s1 (optimized conformer: 61.47968592294582 kcal/mol)

>  <smiles>  (16) 
CCc1n[nH]c(=NC(=O)Cc2ccc(O)c(O)c2)s1

>  <score_type>  (16) 
oracle

>  <origin>  (16) 
adgpu

>  <m_score__min__energy>  (16) 
-10.109999999999999

>  <m_primary>  (16) 
energy

$$$$
16:0
     RDKit          3D

 55 57  0  0  0  0  0  0  0  0999 V2000
   -5.7860   16.7390  -33.5150 C   0  0  0  0  0  0  0  0  0  0  0  0
   -5.0440   18.0390  -33.5400 C   0  0  0  0  0  0  0  0  0  0  0  0
   -5.6200   19.2970  -33.5460 C   0  0  0  0  0  0  0  0  0  0  0  0
   -7.0210   19.5830  -33.5850 N   0  0  0  0  0  0  0  0  0  0  0  0
   -7.9250   20.3180  -32.2980 S   0  0  0  0  0  0  0  0  0  0  0  0
   -8.0490   19.3770  -31.1270 O   0  0  0  0  0  0  0  0  0  0  0  0
   -9.3050   20.6830  -32.7800 O   0  0  0  0  0  0  0  0  0  0  0  0
   -7.0750   21.7580  -31.7510 C   0  0  0  0  0  0  0  0  0  0  0  0
   -7.5410   23.0230  -32.1300 C   0  0  0  0  0  0  0  0  0  0  0  0
   -6.8510   24.1700  -31.7450 C   0  0  0  0  0  0  0  0  0  0  0  0
   -5.6870   24.0730  -30.9630 C   0  0  0  0  0  0  0  0  0  0  0  0
   -4.9430   25.2920  -30.5870 C   0  0  0  0  0  0  0  0  0  0  0  0
   -5.5550   26.3850  -30.4300 O   0  0  0  0  0  0  0  0  0  0  0  0
   -3.5240   25.2320  -30.3930 N   0  0  0  0  0  0  0  0  0  0  0  0
   -2.8630   24.6070  -29.2440 C   0  0  0  0  0  0  0  0  0  0  0  0
   -1.8670   23.5050  -29.6700 C   0  0  0  0  0  0  0  0  0  0  0  0
   -0.4650   23.7340  -29.0900 C   0  0  0  0  0  0  0  0  0  0  0  0
   -2.3800   22.1000  -29.3150 C   0  0  0  0  0  0  0  0  0  0  0  0
   -5.2380   22.8020  -30.5600 C   0  0  0  0  0  0  0  0  0  0  0  0
   -5.9270   21.6550  -30.9510 C   0  0  0  0  0  0  0  0  0  0  0  0
   -4.5530   20.1760  -33.4850 C   0  0  0  0  0  0  0  0  0  0  0  0
   -4.6190   21.4310  -33.4130 O   0  0  0  0  0  0  0  0  0  0  0  0
   -3.4000   19.4770  -33.4700 N   0  0  0  0  0  0  0  0  0  0  0  0
   -2.0800   20.0410  -33.4640 C   0  0  0  0  0  0  0  0  0  0  0  0
   -1.5730   20.6370  -32.3000 C   0  0  0  0  0  0  0  0  0  0  0  0
   -0.2710   21.1460  -32.2790 C   0  0  0  0  0  0  0  0  0  0  0  0
    0.5310   21.0730  -33.4240 C   0  0  0  0  0  0  0  0  0  0  0  0
    0.0330   20.4800  -34.5880 C   0  0  0  0  0  0  0  0  0  0  0  0
   -1.2680   19.9630  -34.6100 C   0  0  0  0  0  0  0  0  0  0  0  0
   -3.6990   18.1780  -33.4770 N   0  0  0  0  0  0  0  0  0  0  0  0
   -2.7180   17.0890  -33.4610 C   0  0  0  0  0  0  0  0  0  0  0  0
   -5.9591   16.4356  -32.4719 H   0  0  0  0  0  0  0  0  0  0  0  0
   -6.7521   16.8583  -34.0273 H   0  0  0  0  0  0  0  0  0  0  0  0
   -5.1920   15.9679  -34.0273 H   0  0  0  0  0  0  0  0  0  0  0  0
   -8.4559   23.1112  -32.7343 H   0  0  0  0  0  0  0  0  0  0  0  0
   -7.2196   25.1589  -32.0551 H   0  0  0  0  0  0  0  0  0  0  0  0
   -2.3166   25.3814  -28.6856 H   0  0  0  0  0  0  0  0  0  0  0  0
   -3.6398   24.1374  -28.6227 H   0  0  0  0  0  0  0  0  0  0  0  0
   -1.7871   23.5689  -30.7652 H   0  0  0  0  0  0  0  0  0  0  0  0
   -0.5169   23.7255  -27.9913 H   0  0  0  0  0  0  0  0  0  0  0  0
    0.2083   22.9339  -29.4315 H   0  0  0  0  0  0  0  0  0  0  0  0
   -0.0813   24.7067  -29.4315 H   0  0  0  0  0  0  0  0  0  0  0  0
   -2.4202   21.9899  -28.2213 H   0  0  0  0  0  0  0  0  0  0  0  0
   -3.3871   21.9604  -29.7349 H   0  0  0  0  0  0  0  0  0  0  0  0
   -1.6998   21.3444  -29.7349 H   0  0  0  0  0  0  0  0  0  0  0  0
   -4.3385   22.7129  -29.9331 H   0  0  0  0  0  0  0  0  0  0  0  0
   -5.5692   20.6652  -30.6311 H   0  0  0  0  0  0  0  0  0  0  0  0
   -2.2021   20.7042  -31.4002 H   0  0  0  0  0  0  0  0  0  0  0  0
    0.1241   21.6049  -31.3607 H   0  0  0  0  0  0  0  0  0  0  0  0
    1.5521   21.4818  -33.4079 H   0  0  0  0  0  0  0  0  0  0  0  0
    0.6637   20.4196  -35.4872 H   0  0  0  0  0  0  0  0  0  0  0  0
   -1.6564   19.4944  -35.5263 H   0  0  0  0  0  0  0  0  0  0  0  0
   -2.4802   16.8250  -32.4200 H   0  0  0  0  0  0  0  0  0  0  0  0
   -3.1361   16.2112  -33.9755 H   0  0  0  0  0  0  0  0  0  0  0  0
   -1.8015   17.4135  -33.9755 H   0  0  0  0  0  0  0  0  0  0  0  0
  1  2  1  0
  2  3  2  0
  3  4  1  0
  4  5  1  0
  5  6  2  0
  5  7  2  0
  5  8  1  0
  8  9  2  0
  9 10  1  0
 10 11  2  0
 11 12  1  0
 12 13  2  0
 12 14  1  0
 14 15  1  0
 15 16  1  0
 16 17  1  0
 16 18  1  0
 11 19  1  0
 19 20  2  0
  3 21  1  0
 21 22  2  0
 21 23  1  0
 23 24  1  0
 24 25  2  0
 25 26  1  0
 26 27  2  0
 27 28  1  0
 28 29  2  0
 23 30  1  0
 30 31  1  0
 30  2  1  0
 20  8  1  0
 29 24  1  0
  1 32  1  0
  1 33  1  0
  1 34  1  0
  9 35  1  0
 10 36  1  0
 15 37  1  0
 15 38  1  0
 16 39  1  0
 17 40  1  0
 17 41  1  0
 17 42  1  0
 18 43  1  0
 18 44  1  0
 18 45  1  0
 19 46  1  0
 20 47  1  0
 25 48  1  0
 26 49  1  0
 27 50  1  0
 28 51  1  0
 29 52  1  0
 31 53  1  0
 31 54  1  0
 31 55  1  0
M  CHG  2   4  -1  14  -1
M  END
>  <UniqueID>  (17) 
17

>  <SMILES>  (17) 
Cc1c([N-]S(=O)(=O)c2ccc(C(=O)[N-]CC(C)C)cc2)c(=O)n(-c2ccccc2)n1C

>  <Energy>  (17) 
98.67417514672354

>  <Genealogy>  (17) 
Cc1c([N-]S(=O)(=O)c2ccc(C(=O)[N-]CC(C)C)cc2)c(=O)n(-c2ccccc2)n1C (protonated)
Cc1c([N-]S(=O)(=O)c2ccc(C(=O)[N-]CC(C)C)cc2)c(=O)n(-c2ccccc2)n1C (3D coordinates assigned)
Cc1c([N-]S(=O)(=O)c2ccc(C(=O)[N-]CC(C)C)cc2)c(=O)n(-c2ccccc2)n1C (optimized conformer: 98.67417514672354 kcal/mol)

>  <smiles>  (17) 
Cc1c(NS(=O)(=O)c2ccc(C(=O)NCC(C)C)cc2)c(=O)n(-c2ccccc2)n1C

>  <score_type>  (17) 
oracle

>  <origin>  (17) 
adgpu

>  <m_score__min__energy>  (17) 
-11.1

>  <m_primary>  (17) 
energy

$$$$
17:0
     RDKit          3D

 47 49  0  0  0  0  0  0  0  0999 V2000
   -2.9690   19.1750  -32.6450 C   0  0  0  0  0  0  0  0  0  0  0  0
   -4.1420   18.5700  -33.2970 N   0  0  0  0  0  0  0  0  0  0  0  0
   -5.0260   19.6260  -33.8440 C   0  0  0  0  0  0  0  0  0  0  0  0
   -6.4500   19.0970  -34.0740 C   0  0  0  0  0  0  0  0  0  0  0  0
   -7.0750   18.6010  -32.8260 N   0  0  0  0  0  0  0  0  0  0  0  0
   -8.2430   19.7400  -32.1940 S   0  0  0  0  0  0  0  0  0  0  0  0
   -9.2330   20.0850  -33.2710 O   0  0  0  0  0  0  0  0  0  0  0  0
   -8.9940   19.1080  -31.0550 O   0  0  0  0  0  0  0  0  0  0  0  0
   -7.4640   21.2190  -31.6250 C   0  0  0  0  0  0  0  0  0  0  0  0
   -7.8540   21.8030  -30.4110 C   0  0  0  0  0  0  0  0  0  0  0  0
   -7.2210   22.9590  -29.9500 C   0  0  0  0  0  0  0  0  0  0  0  0
   -6.1970   23.5500  -30.7010 C   0  0  0  0  0  0  0  0  0  0  0  0
   -5.4140   25.0170  -30.1200 S   0  0  0  0  0  0  0  0  0  0  0  0
   -6.4350   26.0530  -29.7440 O   0  0  0  0  0  0  0  0  0  0  0  0
   -4.5430   25.5630  -31.2150 O   0  0  0  0  0  0  0  0  0  0  0  0
   -4.4330   24.6560  -28.7340 N   0  0  0  0  0  0  0  0  0  0  0  0
   -3.2850   23.7870  -28.7710 C   0  0  0  0  0  0  0  0  0  0  0  0
   -3.3980   22.4070  -28.5060 C   0  0  0  0  0  0  0  0  0  0  0  0
   -2.2730   21.5800  -28.5540 C   0  0  0  0  0  0  0  0  0  0  0  0
   -1.0210   22.1170  -28.8590 C   0  0  0  0  0  0  0  0  0  0  0  0
   -0.8920   23.4830  -29.1150 C   0  0  0  0  0  0  0  0  0  0  0  0
   -2.0150   24.3180  -29.0720 C   0  0  0  0  0  0  0  0  0  0  0  0
   -1.8590   25.6740  -29.3370 O   0  0  0  0  0  0  0  0  0  0  0  0
   -5.8080   22.9720  -31.9170 C   0  0  0  0  0  0  0  0  0  0  0  0
   -6.4410   21.8140  -32.3780 C   0  0  0  0  0  0  0  0  0  0  0  0
   -6.1050   18.2250  -31.7770 C   0  0  0  0  0  0  0  0  0  0  0  0
   -4.8350   17.6200  -32.3910 C   0  0  0  0  0  0  0  0  0  0  0  0
   -3.0851   19.1151  -31.5528 H   0  0  0  0  0  0  0  0  0  0  0  0
   -2.0610   18.6327  -32.9475 H   0  0  0  0  0  0  0  0  0  0  0  0
   -2.8844   20.2292  -32.9475 H   0  0  0  0  0  0  0  0  0  0  0  0
   -5.0655   20.4643  -33.1329 H   0  0  0  0  0  0  0  0  0  0  0  0
   -4.6172   19.9552  -34.8107 H   0  0  0  0  0  0  0  0  0  0  0  0
   -7.0684   19.9112  -34.4797 H   0  0  0  0  0  0  0  0  0  0  0  0
   -6.3855   18.2527  -34.7761 H   0  0  0  0  0  0  0  0  0  0  0  0
   -8.6622   21.3483  -29.8194 H   0  0  0  0  0  0  0  0  0  0  0  0
   -7.5277   23.4073  -28.9934 H   0  0  0  0  0  0  0  0  0  0  0  0
   -4.6570   25.1750  -27.8570 H   0  0  0  0  0  0  0  0  0  0  0  0
   -4.3803   21.9777  -28.2593 H   0  0  0  0  0  0  0  0  0  0  0  0
   -2.3739   20.5036  -28.3511 H   0  0  0  0  0  0  0  0  0  0  0  0
   -0.1367   21.4640  -28.8975 H   0  0  0  0  0  0  0  0  0  0  0  0
    0.0959   23.9052  -29.3515 H   0  0  0  0  0  0  0  0  0  0  0  0
   -5.0029   23.4305  -32.5099 H   0  0  0  0  0  0  0  0  0  0  0  0
   -6.1355   21.3673  -33.3357 H   0  0  0  0  0  0  0  0  0  0  0  0
   -5.8335   19.1216  -31.2005 H   0  0  0  0  0  0  0  0  0  0  0  0
   -6.5705   17.4722  -31.1239 H   0  0  0  0  0  0  0  0  0  0  0  0
   -4.1479   17.3398  -31.5790 H   0  0  0  0  0  0  0  0  0  0  0  0
   -5.1321   16.7431  -32.9849 H   0  0  0  0  0  0  0  0  0  0  0  0
  1  2  1  0
  2  3  1  0
  3  4  1  0
  4  5  1  0
  5  6  1  0
  6  7  2  0
  6  8  2  0
  6  9  1  0
  9 10  2  0
 10 11  1  0
 11 12  2  0
 12 13  1  0
 13 14  2  0
 13 15  2  0
 13 16  1  0
 16 17  1  0
 17 18  2  0
 18 19  1  0
 19 20  2  0
 20 21  1  0
 21 22  2  0
 22 23  1  0
 12 24  1  0
 24 25  2  0
  5 26  1  0
 26 27  1  0
 27  2  1  0
 25  9  1  0
 22 17  1  0
  1 28  1  0
  1 29  1  0
  1 30  1  0
  3 31  1  0
  3 32  1  0
  4 33  1  0
  4 34  1  0
 10 35  1  0
 11 36  1  0
 16 37  1  0
 18 38  1  0
 19 39  1  0
 20 40  1  0
 21 41  1  0
 24 42  1  0
 25 43  1  0
 26 44  1  0
 26 45  1  0
 27 46  1  0
 27 47  1  0
M  CHG  1  23  -1
M  END
>  <UniqueID>  (18) 
18

>  <SMILES>  (18) 
CN1CCN(S(=O)(=O)c2ccc(S(=O)(=O)Nc3ccccc3[O-])cc2)CC1

>  <Energy>  (18) 
60.91527013371014

>  <Genealogy>  (18) 
CN1CCN(S(=O)(=O)c2ccc(S(=O)(=O)Nc3ccccc3[O-])cc2)CC1 (protonated)
CN1CCN(S(=O)(=O)c2ccc(S(=O)(=O)Nc3ccccc3[O-])cc2)CC1 (3D coordinates assigned)
CN1CCN(S(=O)(=O)c2ccc(S(=O)(=O)Nc3ccccc3[O-])cc2)CC1 (nonaromatic ring conformer: 60.91527013371014 kcal/mol)

>  <smiles>  (18) 
CN1CCN(S(=O)(=O)c2ccc(S(=O)(=O)Nc3ccccc3O)cc2)CC1

>  <score_type>  (18) 
oracle

>  <origin>  (18) 
adgpu

>  <m_score__min__energy>  (18) 
-13.76

>  <m_primary>  (18) 
energy

$$$$
18:0
     RDKit          3D

 41 43  0  0  0  0  0  0  0  0999 V2000
   -1.0930   23.1100  -30.3490 O   0  0  0  0  0  0  0  0  0  0  0  0
   -1.8120   23.6320  -29.4560 C   0  0  0  0  0  0  0  0  0  0  0  0
   -3.1270   23.1030  -29.2350 N   0  0  0  0  0  0  0  0  0  0  0  0
   -4.2330   23.2210  -30.1380 C   0  0  0  0  0  0  0  0  0  0  0  0
   -4.9360   22.0620  -30.4910 C   0  0  0  0  0  0  0  0  0  0  0  0
   -6.0460   22.1340  -31.3440 C   0  0  0  0  0  0  0  0  0  0  0  0
   -6.9320   20.6770  -31.7850 S   0  0  0  0  0  0  0  0  0  0  0  0
   -7.4730   20.8540  -33.1760 O   0  0  0  0  0  0  0  0  0  0  0  0
   -8.0920   20.4910  -30.8470 O   0  0  0  0  0  0  0  0  0  0  0  0
   -5.8570   19.2950  -31.7460 N   0  0  0  0  0  0  0  0  0  0  0  0
   -4.9420   19.2460  -32.9040 C   0  0  0  0  0  0  0  0  0  0  0  0
   -5.6130   18.7190  -34.1810 C   0  0  0  0  0  0  0  0  0  0  0  0
   -6.2900   17.3730  -33.9260 C   0  0  0  0  0  0  0  0  0  0  0  0
   -7.2630   17.4720  -32.7520 C   0  0  0  0  0  0  0  0  0  0  0  0
   -6.5560   18.0170  -31.5030 C   0  0  0  0  0  0  0  0  0  0  0  0
   -6.4380   23.3730  -31.8650 C   0  0  0  0  0  0  0  0  0  0  0  0
   -5.7240   24.5280  -31.5440 C   0  0  0  0  0  0  0  0  0  0  0  0
   -4.6100   24.4630  -30.6990 C   0  0  0  0  0  0  0  0  0  0  0  0
   -3.8900   25.6330  -30.4580 O   0  0  0  0  0  0  0  0  0  0  0  0
   -1.2680   24.7390  -28.6470 C   0  0  0  0  0  0  0  0  0  0  0  0
   -0.5840   24.6040  -27.4540 C   0  0  0  0  0  0  0  0  0  0  0  0
   -0.2760   25.8860  -27.0540 C   0  0  0  0  0  0  0  0  0  0  0  0
   -0.7920   26.7240  -28.0210 C   0  0  0  0  0  0  0  0  0  0  0  0
   -1.3790   26.0110  -28.9550 O   0  0  0  0  0  0  0  0  0  0  0  0
   -4.6143   21.0872  -30.0955 H   0  0  0  0  0  0  0  0  0  0  0  0
   -4.5690   20.2624  -33.0986 H   0  0  0  0  0  0  0  0  0  0  0  0
   -4.1289   18.5501  -32.6499 H   0  0  0  0  0  0  0  0  0  0  0  0
   -6.3689   19.4444  -34.5163 H   0  0  0  0  0  0  0  0  0  0  0  0
   -4.8413   18.5834  -34.9530 H   0  0  0  0  0  0  0  0  0  0  0  0
   -6.8419   17.0697  -34.8279 H   0  0  0  0  0  0  0  0  0  0  0  0
   -5.5173   16.6287  -33.6833 H   0  0  0  0  0  0  0  0  0  0  0  0
   -8.0879   18.1473  -33.0231 H   0  0  0  0  0  0  0  0  0  0  0  0
   -7.6493   16.4667  -32.5282 H   0  0  0  0  0  0  0  0  0  0  0  0
   -7.3075   18.1730  -30.7150 H   0  0  0  0  0  0  0  0  0  0  0  0
   -5.7967   17.2783  -31.2065 H   0  0  0  0  0  0  0  0  0  0  0  0
   -7.3121   23.4361  -32.5298 H   0  0  0  0  0  0  0  0  0  0  0  0
   -6.0390   25.4971  -31.9582 H   0  0  0  0  0  0  0  0  0  0  0  0
   -3.1060   25.6730  -29.8200 H   0  0  0  0  0  0  0  0  0  0  0  0
   -0.3368   23.6677  -26.9322 H   0  0  0  0  0  0  0  0  0  0  0  0
    0.2710   26.1818  -26.1466 H   0  0  0  0  0  0  0  0  0  0  0  0
   -0.7224   27.8218  -28.0113 H   0  0  0  0  0  0  0  0  0  0  0  0
  1  2  2  0
  2  3  1  0
  3  4  1  0
  4  5  2  0
  5  6  1  0
  6  7  1  0
  7  8  2  0
  7  9  2  0
  7 10  1  0
 10 11  1  0
 11 12  1  0
 12 13  1  0
 13 14  1  0
 14 15  1  0
  6 16  2  0
 16 17  1  0
 17 18  2  0
 18 19  1  0
  2 20  1  0
 20 21  2  0
 21 22  1  0
 22 23  2  0
 23 24  1  0
 18  4  1  0
 24 20  1  0
 15 10  1  0
  5 25  1  0
 11 26  1  0
 11 27  1  0
 12 28  1  0
 12 29  1  0
 13 30  1  0
 13 31  1  0
 14 32  1  0
 14 33  1  0
 15 34  1  0
 15 35  1  0
 16 36  1  0
 17 37  1  0
 19 38  1  0
 21 39  1  0
 22 40  1  0
 23 41  1  0
M  CHG  1   3  -1
M  END
>  <UniqueID>  (19) 
19

>  <SMILES>  (19) 
O=C([N-]c1cc(S(=O)(=O)N2CCCCC2)ccc1O)c1ccco1

>  <Energy>  (19) 
74.36451127675305

>  <Genealogy>  (19) 
O=C([N-]c1cc(S(=O)(=O)N2CCCCC2)ccc1O)c1ccco1 (protonated)
O=C([N-]c1cc(S(=O)(=O)N2CCCCC2)ccc1O)c1ccco1 (3D coordinates assigned)
O=C([N-]c1cc(S(=O)(=O)N2CCCCC2)ccc1O)c1ccco1 (nonaromatic ring conformer: 74.36451127675305 kcal/mol)

>  <smiles>  (19) 
O=C(Nc1cc(S(=O)(=O)N2CCCCC2)ccc1O)c1ccco1

>  <score_type>  (19) 
oracle

>  <origin>  (19) 
adgpu

>  <m_score__min__energy>  (19) 
-10.140000000000001

>  <m_primary>  (19) 
energy

$$$$
19:0
     RDKit          3D

 46 48  0  0  0  0  0  0  0  0999 V2000
   -3.7933   21.4529  -30.1933 H   0  0  0  0  0  0  0  0  0  0  0  0
   -4.7580   21.7190  -30.6500 C   0  0  0  0  0  0  0  0  0  0  0  0
   -5.5580   20.7200  -31.2130 C   0  0  0  0  0  0  0  0  0  0  0  0
   -5.2225   19.6727  -31.1893 H   0  0  0  0  0  0  0  0  0  0  0  0
   -6.7840   21.0450  -31.8070 C   0  0  0  0  0  0  0  0  0  0  0  0
   -7.7690   19.7900  -32.5650 S   0  0  0  0  0  0  0  0  0  0  0  0
   -8.2180   18.8070  -31.5170 O   0  0  0  0  0  0  0  0  0  0  0  0
   -8.9920   20.4210  -33.1720 O   0  0  0  0  0  0  0  0  0  0  0  0
   -6.8830   18.9510  -33.8190 N   0  0  0  0  0  0  0  0  0  0  0  0
   -6.7290   17.5220  -33.4710 C   0  0  0  0  0  0  0  0  0  0  0  0
   -6.4609   17.4394  -32.4074 H   0  0  0  0  0  0  0  0  0  0  0  0
   -7.6819   17.0113  -33.6737 H   0  0  0  0  0  0  0  0  0  0  0  0
   -5.6360   16.8570  -34.3140 C   0  0  0  0  0  0  0  0  0  0  0  0
   -5.5860   15.7880  -34.0595 H   0  0  0  0  0  0  0  0  0  0  0  0
   -5.8848   16.9890  -35.3773 H   0  0  0  0  0  0  0  0  0  0  0  0
   -4.2650   17.5020  -34.0480 C   0  0  0  0  0  0  0  0  0  0  0  0
   -3.7432   16.9141  -33.2785 H   0  0  0  0  0  0  0  0  0  0  0  0
   -3.7124   17.5104  -34.9991 H   0  0  0  0  0  0  0  0  0  0  0  0
   -4.3760   18.9590  -33.5630 C   0  0  0  0  0  0  0  0  0  0  0  0
   -4.4501   18.9672  -32.4655 H   0  0  0  0  0  0  0  0  0  0  0  0
   -3.4814   19.5060  -33.8954 H   0  0  0  0  0  0  0  0  0  0  0  0
   -5.6150   19.6480  -34.1540 C   0  0  0  0  0  0  0  0  0  0  0  0
   -5.6654   20.6746  -33.7621 H   0  0  0  0  0  0  0  0  0  0  0  0
   -5.5098   19.6306  -35.2488 H   0  0  0  0  0  0  0  0  0  0  0  0
   -7.2140   22.3770  -31.8110 C   0  0  0  0  0  0  0  0  0  0  0  0
   -8.1831   22.6377  -32.2614 H   0  0  0  0  0  0  0  0  0  0  0  0
   -6.4190   23.3770  -31.2460 C   0  0  0  0  0  0  0  0  0  0  0  0
   -6.7664   24.4206  -31.2567 H   0  0  0  0  0  0  0  0  0  0  0  0
   -5.1770   23.0610  -30.6630 C   0  0  0  0  0  0  0  0  0  0  0  0
   -4.3210   24.1290  -30.0940 C   0  0  0  0  0  0  0  0  0  0  0  0
   -4.1650   25.2060  -30.7320 O   0  0  0  0  0  0  0  0  0  0  0  0
   -3.7450   23.9610  -28.7870 N   0  0  0  0  0  0  0  0  0  0  0  0
   -2.7300   24.5760  -28.2440 C   0  0  0  0  0  0  0  0  0  0  0  0
   -2.4250   24.2860  -26.9070 C   0  0  0  0  0  0  0  0  0  0  0  0
   -3.0363   23.5622  -26.3481 H   0  0  0  0  0  0  0  0  0  0  0  0
   -1.3430   24.9170  -26.2830 C   0  0  0  0  0  0  0  0  0  0  0  0
   -1.0350   24.6280  -24.8410 C   0  0  0  0  0  0  0  0  0  0  0  0
   -1.6856   25.2385  -24.1976 H   0  0  0  0  0  0  0  0  0  0  0  0
   -1.2115   23.5620  -24.6349 H   0  0  0  0  0  0  0  0  0  0  0  0
    0.0176   24.8719  -24.6349 H   0  0  0  0  0  0  0  0  0  0  0  0
   -0.5850   25.8470  -27.0010 C   0  0  0  0  0  0  0  0  0  0  0  0
    0.2497   26.3754  -26.5172 H   0  0  0  0  0  0  0  0  0  0  0  0
   -0.8980   26.0980  -28.3370 C   0  0  0  0  0  0  0  0  0  0  0  0
   -0.2966   26.8170  -28.9126 H   0  0  0  0  0  0  0  0  0  0  0  0
   -1.9420   25.4600  -28.9340 N   0  0  0  0  0  0  0  0  0  0  0  0
   -2.0780   25.6490  -29.9490 H   0  0  0  0  0  0  0  0  0  0  0  0
  1  2  1  0
  2  3  2  0
  3  4  1  0
  3  5  1  0
  5  6  1  0
  6  7  2  0
  6  8  2  0
  6  9  1  0
  9 10  1  0
 10 11  1  0
 10 12  1  0
 10 13  1  0
 13 14  1  0
 13 15  1  0
 13 16  1  0
 16 17  1  0
 16 18  1  0
 16 19  1  0
 19 20  1  0
 19 21  1  0
 19 22  1  0
 22 23  1  0
 22 24  1  0
  5 25  2  0
 25 26  1  0
 25 27  1  0
 27 28  1  0
 27 29  2  0
 29 30  1  0
 30 31  2  0
 30 32  1  0
 32 33  2  0
 33 34  1  0
 34 35  1  0
 34 36  2  0
 36 37  1  0
 37 38  1  0
 37 39  1  0
 37 40  1  0
 36 41  1  0
 41 42  1  0
 41 43  2  0
 43 44  1  0
 43 45  1  0
 45 46  1  0
 29  2  1  0
 45 33  1  0
 22  9  1  0
M  END
>  <UniqueID>  (20) 
20

>  <SMILES>  (20) 
Cc1cc[nH]/c(=N\C(=O)c2ccc(S(=O)(=O)N3CCCCC3)cc2)c1

>  <Energy>  (20) 
59.40015006106223

>  <Genealogy>  (20) 
Cc1cc[nH]/c(=N\C(=O)c2ccc(S(=O)(=O)N3CCCCC3)cc2)c1 (cis-trans isomerization)
Cc1cc[nH]/c(=N\C(=O)c2ccc(S(=O)(=O)N3CCCCC3)cc2)c1 (3D coordinates assigned)
Cc1cc[nH]/c(=N\C(=O)c2ccc(S(=O)(=O)N3CCCCC3)cc2)c1 (nonaromatic ring conformer: 59.40015006106223 kcal/mol)

>  <smiles>  (20) 
Cc1cc[nH]c(=NC(=O)c2ccc(S(=O)(=O)N3CCCCC3)cc2)c1

>  <score_type>  (20) 
oracle

>  <origin>  (20) 
adgpu

>  <m_score__min__energy>  (20) 
-10.35

>  <m_primary>  (20) 
energy

$$$$
20:0
     RDKit          3D

 37 40  0  0  0  0  0  0  0  0999 V2000
   -2.1720   24.7090  -28.4640 O   0  0  0  0  0  0  0  0  0  0  0  0
   -1.6070   23.4990  -29.1540 S   0  0  0  0  0  0  0  0  0  0  0  0
   -0.1280   23.6880  -29.3420 O   0  0  0  0  0  0  0  0  0  0  0  0
   -2.3560   23.3310  -30.7090 N   0  0  0  0  0  0  0  0  0  0  0  0
   -3.7710   23.2950  -30.9420 C   0  0  0  0  0  0  0  0  0  0  0  0
   -4.4370   22.0990  -31.2890 C   0  0  0  0  0  0  0  0  0  0  0  0
   -5.8170   22.1370  -31.4780 C   0  0  0  0  0  0  0  0  0  0  0  0
   -6.5390   23.3070  -31.3460 C   0  0  0  0  0  0  0  0  0  0  0  0
   -5.9040   24.5010  -31.0130 C   0  0  0  0  0  0  0  0  0  0  0  0
   -4.5130   24.4930  -30.8090 C   0  0  0  0  0  0  0  0  0  0  0  0
   -3.8680   25.6770  -30.4700 O   0  0  0  0  0  0  0  0  0  0  0  0
   -8.0030   23.0840  -31.5980 C   0  0  0  0  0  0  0  0  0  0  0  0
   -8.0100   21.6110  -31.8870 C   0  0  0  0  0  0  0  0  0  0  0  0
   -9.1080   20.8050  -32.1920 C   0  0  0  0  0  0  0  0  0  0  0  0
   -8.8940   19.4350  -32.4230 C   0  0  0  0  0  0  0  0  0  0  0  0
   -7.5950   18.8930  -32.3450 C   0  0  0  0  0  0  0  0  0  0  0  0
   -6.5000   19.7160  -32.0370 C   0  0  0  0  0  0  0  0  0  0  0  0
   -6.7380   21.0730  -31.8160 C   0  0  0  0  0  0  0  0  0  0  0  0
   -1.9340   22.0760  -28.1700 C   0  0  0  0  0  0  0  0  0  0  0  0
   -1.2680   21.8870  -26.9510 C   0  0  0  0  0  0  0  0  0  0  0  0
   -1.5160   20.7420  -26.1870 C   0  0  0  0  0  0  0  0  0  0  0  0
   -2.4300   19.7840  -26.6350 C   0  0  0  0  0  0  0  0  0  0  0  0
   -2.7380   18.3470  -25.6770 Cl  0  0  0  0  0  0  0  0  0  0  0  0
   -3.1010   19.9720  -27.8480 C   0  0  0  0  0  0  0  0  0  0  0  0
   -2.8550   21.1160  -28.6140 C   0  0  0  0  0  0  0  0  0  0  0  0
   -3.8789   21.1585  -31.4074 H   0  0  0  0  0  0  0  0  0  0  0  0
   -6.4799   25.4327  -30.9115 H   0  0  0  0  0  0  0  0  0  0  0  0
   -8.6090   23.3270  -30.7127 H   0  0  0  0  0  0  0  0  0  0  0  0
   -8.4312   23.7094  -32.3952 H   0  0  0  0  0  0  0  0  0  0  0  0
  -10.1197   21.2329  -32.2504 H   0  0  0  0  0  0  0  0  0  0  0  0
   -9.7452   18.7820  -32.6661 H   0  0  0  0  0  0  0  0  0  0  0  0
   -7.4384   17.8194  -32.5264 H   0  0  0  0  0  0  0  0  0  0  0  0
   -5.4828   19.3025  -31.9717 H   0  0  0  0  0  0  0  0  0  0  0  0
   -0.5496   22.6400  -26.5950 H   0  0  0  0  0  0  0  0  0  0  0  0
   -0.9908   20.5951  -25.2317 H   0  0  0  0  0  0  0  0  0  0  0  0
   -3.8224   19.2197  -28.1995 H   0  0  0  0  0  0  0  0  0  0  0  0
   -3.3849   21.2631  -29.5666 H   0  0  0  0  0  0  0  0  0  0  0  0
  1  2  2  0
  2  3  2  0
  2  4  1  0
  4  5  1  0
  5  6  2  0
  6  7  1  0
  7  8  2  0
  8  9  1  0
  9 10  2  0
 10 11  1  0
  8 12  1  0
 12 13  1  0
 13 14  2  0
 14 15  1  0
 15 16  2  0
 16 17  1  0
 17 18  2  0
  2 19  1  0
 19 20  2  0
 20 21  1  0
 21 22  2  0
 22 23  1  0
 22 24  1  0
 24 25  2  0
 10  5  1  0
 18 13  1  0
 25 19  1  0
 18  7  1  0
  6 26  1  0
  9 27  1  0
 12 28  1  0
 12 29  1  0
 14 30  1  0
 15 31  1  0
 16 32  1  0
 17 33  1  0
 20 34  1  0
 21 35  1  0
 24 36  1  0
 25 37  1  0
M  CHG  2   4  -1  11  -1
M  END
>  <UniqueID>  (21) 
21

>  <SMILES>  (21) 
O=S(=O)([N-]c1cc2c(cc1[O-])Cc1ccccc1-2)c1ccc(Cl)cc1

>  <Energy>  (21) 
66.5054234016257

>  <Genealogy>  (21) 
O=S(=O)([N-]c1cc2c(cc1[O-])Cc1ccccc1-2)c1ccc(Cl)cc1 (protonated)
O=S(=O)([N-]c1cc2c(cc1[O-])Cc1ccccc1-2)c1ccc(Cl)cc1 (3D coordinates assigned)
O=S(=O)([N-]c1cc2c(cc1[O-])Cc1ccccc1-2)c1ccc(Cl)cc1 (nonaromatic ring conformer: 66.5054234016257 kcal/mol)

>  <smiles>  (21) 
O=S(=O)(Nc1cc2c(cc1O)Cc1ccccc1-2)c1ccc(Cl)cc1

>  <score_type>  (21) 
oracle

>  <origin>  (21) 
adgpu

>  <m_score__min__energy>  (21) 
-13.52

>  <m_primary>  (21) 
energy

$$$$
21:0
     RDKit          3D

 54 58  0  0  0  0  0  0  0  0999 V2000
   -5.3400   26.3060  -30.4730 O   0  0  0  0  0  0  0  0  0  0  0  0
   -4.8930   25.1350  -30.5960 C   0  0  0  0  0  0  0  0  0  0  0  0
   -3.4820   24.9180  -30.4430 N   0  0  0  0  0  0  0  0  0  0  0  0
   -2.8370   24.2470  -29.3490 C   0  0  0  0  0  0  0  0  0  0  0  0
   -2.5630   24.9590  -28.1790 C   0  0  0  0  0  0  0  0  0  0  0  0
   -1.9170   24.3560  -27.1460 N   0  0  0  0  0  0  0  0  0  0  0  0
   -1.5110   23.0600  -27.2120 C   0  0  0  0  0  0  0  0  0  0  0  0
   -1.7500   22.3000  -28.3630 C   0  0  0  0  0  0  0  0  0  0  0  0
   -1.3060   20.9290  -28.4180 N   0  0  0  0  0  0  0  0  0  0  0  0
   -0.2280   20.4510  -29.2880 C   0  0  0  0  0  0  0  0  0  0  0  0
   -0.7020   20.2710  -30.6990 C   0  0  0  0  0  0  0  0  0  0  0  0
   -1.9610   19.9040  -31.0220 N   0  0  0  0  0  0  0  0  0  0  0  0
   -1.9460   19.8340  -32.3660 C   0  0  0  0  0  0  0  0  0  0  0  0
   -3.0980   19.3390  -33.1500 C   0  0  0  0  0  0  0  0  0  0  0  0
   -3.0050   18.1580  -33.9080 C   0  0  0  0  0  0  0  0  0  0  0  0
   -4.1090   17.6920  -34.6260 C   0  0  0  0  0  0  0  0  0  0  0  0
   -5.3200   18.3880  -34.5790 C   0  0  0  0  0  0  0  0  0  0  0  0
   -6.3910   17.9340  -35.2750 F   0  0  0  0  0  0  0  0  0  0  0  0
   -5.4300   19.5480  -33.8060 C   0  0  0  0  0  0  0  0  0  0  0  0
   -4.3260   20.0190  -33.0880 C   0  0  0  0  0  0  0  0  0  0  0  0
   -0.6820   20.1860  -32.8230 C   0  0  0  0  0  0  0  0  0  0  0  0
   -0.2220   20.3350  -34.2190 C   0  0  0  0  0  0  0  0  0  0  0  0
   -0.0790   21.6030  -34.8060 C   0  0  0  0  0  0  0  0  0  0  0  0
    0.3720   21.7050  -36.1240 C   0  0  0  0  0  0  0  0  0  0  0  0
    0.6890   20.5850  -36.8260 N   0  0  0  0  0  0  0  0  0  0  0  0
    0.5810   19.3460  -36.2770 C   0  0  0  0  0  0  0  0  0  0  0  0
    0.1330   19.2000  -34.9630 C   0  0  0  0  0  0  0  0  0  0  0  0
    0.1040   20.4570  -31.7650 N   0  0  0  0  0  0  0  0  0  0  0  0
   -2.4090   22.9140  -29.4420 C   0  0  0  0  0  0  0  0  0  0  0  0
   -5.8360   24.0210  -30.8500 C   0  0  0  0  0  0  0  0  0  0  0  0
   -5.8470   23.3770  -32.0980 C   0  0  0  0  0  0  0  0  0  0  0  0
   -6.7180   22.3090  -32.3340 C   0  0  0  0  0  0  0  0  0  0  0  0
   -7.5900   21.8770  -31.3280 C   0  0  0  0  0  0  0  0  0  0  0  0
   -8.6810   20.5340  -31.6240 Cl  0  0  0  0  0  0  0  0  0  0  0  0
   -7.5950   22.5210  -30.0860 C   0  0  0  0  0  0  0  0  0  0  0  0
   -6.7270   23.5930  -29.8490 C   0  0  0  0  0  0  0  0  0  0  0  0
   -2.8711   26.0115  -28.0931 H   0  0  0  0  0  0  0  0  0  0  0  0
   -0.9914   22.6058  -26.3554 H   0  0  0  0  0  0  0  0  0  0  0  0
   -1.8560   20.2060  -27.8970 H   0  0  0  0  0  0  0  0  0  0  0  0
    0.5923   21.1838  -29.2769 H   0  0  0  0  0  0  0  0  0  0  0  0
    0.1141   19.4759  -28.9110 H   0  0  0  0  0  0  0  0  0  0  0  0
   -2.0583   17.5985  -33.9356 H   0  0  0  0  0  0  0  0  0  0  0  0
   -4.0250   16.7760  -35.2292 H   0  0  0  0  0  0  0  0  0  0  0  0
   -6.3858   20.0907  -33.7625 H   0  0  0  0  0  0  0  0  0  0  0  0
   -4.4195   20.9256  -32.4722 H   0  0  0  0  0  0  0  0  0  0  0  0
   -0.3205   22.5095  -34.2317 H   0  0  0  0  0  0  0  0  0  0  0  0
    0.4709   22.6941  -36.5950 H   0  0  0  0  0  0  0  0  0  0  0  0
    0.8469   18.4577  -36.8688 H   0  0  0  0  0  0  0  0  0  0  0  0
    0.0587   18.1991  -34.5128 H   0  0  0  0  0  0  0  0  0  0  0  0
   -2.5905   22.3454  -30.3660 H   0  0  0  0  0  0  0  0  0  0  0  0
   -5.1669   23.7146  -32.8939 H   0  0  0  0  0  0  0  0  0  0  0  0
   -6.7179   21.8070  -33.3128 H   0  0  0  0  0  0  0  0  0  0  0  0
   -8.2816   22.1846  -29.2952 H   0  0  0  0  0  0  0  0  0  0  0  0
   -6.7416   24.1036  -28.8748 H   0  0  0  0  0  0  0  0  0  0  0  0
  1  2  2  0
  2  3  1  0
  3  4  1  0
  4  5  2  0
  5  6  1  0
  6  7  2  0
  7  8  1  0
  8  9  1  0
  9 10  1  0
 10 11  1  0
 11 12  2  0
 12 13  1  0
 13 14  1  0
 14 15  2  0
 15 16  1  0
 16 17  2  0
 17 18  1  0
 17 19  1  0
 19 20  2  0
 13 21  2  0
 21 22  1  0
 22 23  2  0
 23 24  1  0
 24 25  2  0
 25 26  1  0
 26 27  2  0
 21 28  1  0
  8 29  2  0
  2 30  1  0
 30 31  2  0
 31 32  1  0
 32 33  2  0
 33 34  1  0
 33 35  1  0
 35 36  2  0
 29  4  1  0
 36 30  1  0
 28 11  1  0
 20 14  1  0
 27 22  1  0
  5 37  1  0
  7 38  1  0
  9 39  1  0
 10 40  1  0
 10 41  1  0
 15 42  1  0
 16 43  1  0
 19 44  1  0
 20 45  1  0
 23 46  1  0
 24 47  1  0
 26 48  1  0
 27 49  1  0
 29 50  1  0
 31 51  1  0
 32 52  1  0
 35 53  1  0
 36 54  1  0
M  CHG  2   3  -1  28  -1
M  END
>  <UniqueID>  (22) 
22

>  <SMILES>  (22) 
O=C([N-]c1cncc(NCc2nc(-c3ccc(F)cc3)c(-c3ccncc3)[n-]2)c1)c1ccc(Cl)cc1

>  <Energy>  (22) 
101.11747402747832

>  <Genealogy>  (22) 
O=C([N-]c1cncc(NCc2nc(-c3ccc(F)cc3)c(-c3ccncc3)[n-]2)c1)c1ccc(Cl)cc1 (protonated)
O=C([N-]c1cncc(NCc2nc(-c3ccc(F)cc3)c(-c3ccncc3)[n-]2)c1)c1ccc(Cl)cc1 (3D coordinates assigned)
O=C([N-]c1cncc(NCc2nc(-c3ccc(F)cc3)c(-c3ccncc3)[n-]2)c1)c1ccc(Cl)cc1 (optimized conformer: 101.11747402747832 kcal/mol)

>  <smiles>  (22) 
O=C(Nc1cncc(NCc2nc(-c3ccc(F)cc3)c(-c3ccncc3)[nH]2)c1)c1ccc(Cl)cc1

>  <score_type>  (22) 
oracle

>  <origin>  (22) 
adgpu

>  <m_score__min__energy>  (22) 
-11.359999999999999

>  <m_primary>  (22) 
energy

$$$$
22:0
     RDKit          3D

 56 59  0  0  0  0  0  0  0  0999 V2000
   -5.8750   23.9240  -29.4320 O   0  0  0  0  0  0  0  0  0  0  0  0
   -5.1680   24.1940  -30.7320 S   0  0  0  0  0  0  0  0  0  0  0  0
   -6.0470   25.0790  -31.5730 O   0  0  0  0  0  0  0  0  0  0  0  0
   -3.6580   24.9680  -30.3800 N   0  0  0  0  0  0  0  0  0  0  0  0
   -2.5480   24.3080  -29.7630 C   0  0  0  0  0  0  0  0  0  0  0  0
   -2.4910   22.9080  -29.8010 C   0  0  0  0  0  0  0  0  0  0  0  0
   -1.4430   22.2260  -29.1660 C   0  0  0  0  0  0  0  0  0  0  0  0
   -0.4500   22.9450  -28.4790 C   0  0  0  0  0  0  0  0  0  0  0  0
   -0.4950   24.3470  -28.4520 C   0  0  0  0  0  0  0  0  0  0  0  0
   -1.5500   25.0270  -29.0730 C   0  0  0  0  0  0  0  0  0  0  0  0
   -1.6090   26.4120  -28.9670 O   0  0  0  0  0  0  0  0  0  0  0  0
    0.6760   22.1850  -27.8230 C   0  0  0  0  0  0  0  0  0  0  0  0
    0.1620   20.9210  -27.0940 C   0  0  0  0  0  0  0  0  0  0  0  0
   -1.0510   20.2120  -27.7710 C   0  0  0  0  0  0  0  0  0  0  0  0
   -1.3500   20.7250  -29.1870 C   0  0  0  0  0  0  0  0  0  0  0  0
   -4.8700   22.6660  -31.5610 C   0  0  0  0  0  0  0  0  0  0  0  0
   -4.2540   22.6620  -32.8200 C   0  0  0  0  0  0  0  0  0  0  0  0
   -3.9720   21.4530  -33.4620 C   0  0  0  0  0  0  0  0  0  0  0  0
   -4.3160   20.2360  -32.8550 C   0  0  0  0  0  0  0  0  0  0  0  0
   -3.8910   18.7020  -33.6140 S   0  0  0  0  0  0  0  0  0  0  0  0
   -2.7350   18.9360  -34.5460 O   0  0  0  0  0  0  0  0  0  0  0  0
   -3.4560   17.7140  -32.5690 O   0  0  0  0  0  0  0  0  0  0  0  0
   -5.2150   18.0260  -34.5280 N   0  0  0  0  0  0  0  0  0  0  0  0
   -6.5040   18.1300  -33.8320 C   0  0  0  0  0  0  0  0  0  0  0  0
   -6.9680   19.5960  -33.7320 C   0  0  0  0  0  0  0  0  0  0  0  0
   -8.3500   19.7150  -33.0520 C   0  0  0  0  0  0  0  0  0  0  0  0
   -8.6560   18.5620  -32.0740 C   0  0  0  0  0  0  0  0  0  0  0  0
   -7.3820   18.0430  -31.3980 C   0  0  0  0  0  0  0  0  0  0  0  0
   -6.3580   17.5090  -32.4230 C   0  0  0  0  0  0  0  0  0  0  0  0
   -4.9450   20.2380  -31.6030 C   0  0  0  0  0  0  0  0  0  0  0  0
   -5.2170   21.4480  -30.9560 C   0  0  0  0  0  0  0  0  0  0  0  0
   -3.2713   22.3421  -30.3310 H   0  0  0  0  0  0  0  0  0  0  0  0
    0.2991   24.9126  -27.9426 H   0  0  0  0  0  0  0  0  0  0  0  0
    1.3995   21.8826  -28.5945 H   0  0  0  0  0  0  0  0  0  0  0  0
    1.1473   22.8435  -27.0785 H   0  0  0  0  0  0  0  0  0  0  0  0
    0.9904   20.1995  -27.0384 H   0  0  0  0  0  0  0  0  0  0  0  0
   -0.1924   21.2592  -26.1091 H   0  0  0  0  0  0  0  0  0  0  0  0
   -0.8361   19.1348  -27.8294 H   0  0  0  0  0  0  0  0  0  0  0  0
   -1.9364   20.4288  -27.1554 H   0  0  0  0  0  0  0  0  0  0  0  0
   -0.5421   20.4170  -29.8670 H   0  0  0  0  0  0  0  0  0  0  0  0
   -2.3037   20.3029  -29.5366 H   0  0  0  0  0  0  0  0  0  0  0  0
   -3.9915   23.6140  -33.3046 H   0  0  0  0  0  0  0  0  0  0  0  0
   -3.4792   21.4558  -34.4454 H   0  0  0  0  0  0  0  0  0  0  0  0
   -7.2687   17.5841  -34.4040 H   0  0  0  0  0  0  0  0  0  0  0  0
   -6.2317   20.1632  -33.1437 H   0  0  0  0  0  0  0  0  0  0  0  0
   -7.0531   19.9981  -34.7523 H   0  0  0  0  0  0  0  0  0  0  0  0
   -8.3832   20.6626  -32.4944 H   0  0  0  0  0  0  0  0  0  0  0  0
   -9.1073   19.6730  -33.8487 H   0  0  0  0  0  0  0  0  0  0  0  0
   -9.3485   18.9246  -31.3001 H   0  0  0  0  0  0  0  0  0  0  0  0
   -9.1036   17.7355  -32.6455 H   0  0  0  0  0  0  0  0  0  0  0  0
   -6.9209   18.8652  -30.8311 H   0  0  0  0  0  0  0  0  0  0  0  0
   -7.6642   17.2113  -30.7357 H   0  0  0  0  0  0  0  0  0  0  0  0
   -5.3468   17.7290  -32.0500 H   0  0  0  0  0  0  0  0  0  0  0  0
   -6.5423   16.4296  -32.5277 H   0  0  0  0  0  0  0  0  0  0  0  0
   -5.2254   19.2863  -31.1280 H   0  0  0  0  0  0  0  0  0  0  0  0
   -5.7044   21.4449  -29.9699 H   0  0  0  0  0  0  0  0  0  0  0  0
  1  2  2  0
  2  3  2  0
  2  4  1  0
  4  5  1  0
  5  6  2  0
  6  7  1  0
  7  8  2  0
  8  9  1  0
  9 10  2  0
 10 11  1  0
  8 12  1  0
 12 13  1  0
 13 14  1  0
 14 15  1  0
  2 16  1  0
 16 17  2  0
 17 18  1  0
 18 19  2  0
 19 20  1  0
 20 21  2  0
 20 22  2  0
 20 23  1  0
 23 24  1  0
 24 25  1  0
 25 26  1  0
 26 27  1  0
 27 28  1  0
 28 29  1  0
 19 30  1  0
 30 31  2  0
 10  5  1  0
 31 16  1  0
 15  7  1  0
 29 24  1  0
  6 32  1  0
  9 33  1  0
 12 34  1  0
 12 35  1  0
 13 36  1  0
 13 37  1  0
 14 38  1  0
 14 39  1  0
 15 40  1  0
 15 41  1  0
 17 42  1  0
 18 43  1  0
 24 44  1  0
 25 45  1  0
 25 46  1  0
 26 47  1  0
 26 48  1  0
 27 49  1  0
 27 50  1  0
 28 51  1  0
 28 52  1  0
 29 53  1  0
 29 54  1  0
 30 55  1  0
 31 56  1  0
M  CHG  3   4  -1  11  -1  23  -1
M  END
>  <UniqueID>  (23) 
23

>  <SMILES>  (23) 
O=S(=O)([N-]c1cc2c(cc1[O-])CCCC2)c1ccc(S(=O)(=O)[N-]C2CCCCC2)cc1

>  <Energy>  (23) 
71.00823753625183

>  <Genealogy>  (23) 
O=S(=O)([N-]c1cc2c(cc1[O-])CCCC2)c1ccc(S(=O)(=O)[N-]C2CCCCC2)cc1 (protonated)
O=S(=O)([N-]c1cc2c(cc1[O-])CCCC2)c1ccc(S(=O)(=O)[N-]C2CCCCC2)cc1 (3D coordinates assigned)
O=S(=O)([N-]c1cc2c(cc1[O-])CCCC2)c1ccc(S(=O)(=O)[N-]C2CCCCC2)cc1 (nonaromatic ring conformer: 71.00823753625183 kcal/mol)

>  <smiles>  (23) 
O=S(=O)(Nc1cc2c(cc1O)CCCC2)c1ccc(S(=O)(=O)NC2CCCCC2)cc1

>  <score_type>  (23) 
oracle

>  <origin>  (23) 
adgpu

>  <m_score__min__energy>  (23) 
-15.4

>  <m_primary>  (23) 
energy

$$$$
23:0
     RDKit          3D

 54 57  0  0  0  0  0  0  0  0999 V2000
   -6.5130   17.5380  -32.3720 C   0  0  0  0  0  0  0  0  0  0  0  0
   -6.6950   18.8380  -33.0910 C   0  0  0  0  0  0  0  0  0  0  0  0
   -6.1480   18.9880  -34.2160 O   0  0  0  0  0  0  0  0  0  0  0  0
   -7.4400   19.9260  -32.5190 N   0  0  0  0  0  0  0  0  0  0  0  0
   -8.8980   19.9050  -32.3820 C   0  0  0  0  0  0  0  0  0  0  0  0
   -9.3110   21.3340  -31.9580 C   0  0  0  0  0  0  0  0  0  0  0  0
   -8.0080   22.0370  -31.8040 C   0  0  0  0  0  0  0  0  0  0  0  0
   -7.7910   23.3430  -31.3650 C   0  0  0  0  0  0  0  0  0  0  0  0
   -6.4710   23.7970  -31.2320 C   0  0  0  0  0  0  0  0  0  0  0  0
   -5.3860   22.9300  -31.5040 C   0  0  0  0  0  0  0  0  0  0  0  0
   -4.0220   23.3560  -31.3730 N   0  0  0  0  0  0  0  0  0  0  0  0
   -3.5060   24.3020  -30.4260 C   0  0  0  0  0  0  0  0  0  0  0  0
   -3.8900   25.5020  -30.4710 O   0  0  0  0  0  0  0  0  0  0  0  0
   -2.5690   23.8690  -29.3540 C   0  0  0  0  0  0  0  0  0  0  0  0
   -2.6920   22.5760  -28.8090 C   0  0  0  0  0  0  0  0  0  0  0  0
   -1.8270   22.1340  -27.8010 C   0  0  0  0  0  0  0  0  0  0  0  0
   -2.0270   20.5180  -27.1240 S   0  0  0  0  0  0  0  0  0  0  0  0
   -3.4850   20.1520  -27.0900 O   0  0  0  0  0  0  0  0  0  0  0  0
   -1.5010   20.5190  -25.7150 O   0  0  0  0  0  0  0  0  0  0  0  0
   -1.1420   19.3560  -28.0830 N   0  0  0  0  0  0  0  0  0  0  0  0
   -0.6830   18.2410  -27.2230 C   0  0  0  0  0  0  0  0  0  0  0  0
    0.4530   17.4540  -27.8840 C   0  0  0  0  0  0  0  0  0  0  0  0
    1.6860   18.3460  -28.1090 C   0  0  0  0  0  0  0  0  0  0  0  0
    1.3240   19.8370  -28.2390 C   0  0  0  0  0  0  0  0  0  0  0  0
   -0.0670   20.0180  -28.8620 C   0  0  0  0  0  0  0  0  0  0  0  0
   -0.8320   22.9890  -27.3150 C   0  0  0  0  0  0  0  0  0  0  0  0
   -0.6980   24.2740  -27.8420 C   0  0  0  0  0  0  0  0  0  0  0  0
   -1.5550   24.7210  -28.8530 C   0  0  0  0  0  0  0  0  0  0  0  0
   -1.3870   26.0130  -29.3390 O   0  0  0  0  0  0  0  0  0  0  0  0
   -5.6400   21.6240  -31.9620 C   0  0  0  0  0  0  0  0  0  0  0  0
   -6.9680   21.2090  -32.1260 C   0  0  0  0  0  0  0  0  0  0  0  0
   -6.5375   17.7129  -31.2863 H   0  0  0  0  0  0  0  0  0  0  0  0
   -7.3233   16.8483  -32.6506 H   0  0  0  0  0  0  0  0  0  0  0  0
   -5.5444   17.0973  -32.6506 H   0  0  0  0  0  0  0  0  0  0  0  0
   -9.3676   19.6409  -33.3410 H   0  0  0  0  0  0  0  0  0  0  0  0
   -9.2208   19.1578  -31.6421 H   0  0  0  0  0  0  0  0  0  0  0  0
   -9.9273   21.8123  -32.7335 H   0  0  0  0  0  0  0  0  0  0  0  0
   -9.9199   21.3516  -31.0421 H   0  0  0  0  0  0  0  0  0  0  0  0
   -8.6382   24.0034  -31.1279 H   0  0  0  0  0  0  0  0  0  0  0  0
   -6.2778   24.8324  -30.9146 H   0  0  0  0  0  0  0  0  0  0  0  0
   -3.4793   21.9037  -29.1809 H   0  0  0  0  0  0  0  0  0  0  0  0
   -0.3250   18.6508  -26.2670 H   0  0  0  0  0  0  0  0  0  0  0  0
   -1.5295   17.5571  -27.0630 H   0  0  0  0  0  0  0  0  0  0  0  0
    0.7325   16.6119  -27.2339 H   0  0  0  0  0  0  0  0  0  0  0  0
    0.1030   17.0884  -28.8607 H   0  0  0  0  0  0  0  0  0  0  0  0
    2.3700   18.2228  -27.2564 H   0  0  0  0  0  0  0  0  0  0  0  0
    2.1544   18.0338  -29.0541 H   0  0  0  0  0  0  0  0  0  0  0  0
    1.3322   20.2967  -27.2397 H   0  0  0  0  0  0  0  0  0  0  0  0
    2.0645   20.3195  -28.8939 H   0  0  0  0  0  0  0  0  0  0  0  0
   -0.2878   21.0941  -28.9197 H   0  0  0  0  0  0  0  0  0  0  0  0
   -0.0453   19.5491  -29.8568 H   0  0  0  0  0  0  0  0  0  0  0  0
   -0.1554   22.6483  -26.5175 H   0  0  0  0  0  0  0  0  0  0  0  0
    0.0883   24.9412  -27.4591 H   0  0  0  0  0  0  0  0  0  0  0  0
   -4.8089   20.9396  -32.1877 H   0  0  0  0  0  0  0  0  0  0  0  0
  1  2  1  0
  2  3  2  0
  2  4  1  0
  4  5  1  0
  5  6  1  0
  6  7  1  0
  7  8  2  0
  8  9  1  0
  9 10  2  0
 10 11  1  0
 11 12  1  0
 12 13  2  0
 12 14  1  0
 14 15  2  0
 15 16  1  0
 16 17  1  0
 17 18  2  0
 17 19  2  0
 17 20  1  0
 20 21  1  0
 21 22  1  0
 22 23  1  0
 23 24  1  0
 24 25  1  0
 16 26  2  0
 26 27  1  0
 27 28  2  0
 28 29  1  0
 10 30  1  0
 30 31  2  0
 31  4  1  0
 31  7  1  0
 28 14  1  0
 25 20  1  0
  1 32  1  0
  1 33  1  0
  1 34  1  0
  5 35  1  0
  5 36  1  0
  6 37  1  0
  6 38  1  0
  8 39  1  0
  9 40  1  0
 15 41  1  0
 21 42  1  0
 21 43  1  0
 22 44  1  0
 22 45  1  0
 23 46  1  0
 23 47  1  0
 24 48  1  0
 24 49  1  0
 25 50  1  0
 25 51  1  0
 26 52  1  0
 27 53  1  0
 30 54  1  0
M  CHG  2  11  -1  29  -1
M  END
>  <UniqueID>  (24) 
24

>  <SMILES>  (24) 
CC(=O)N1CCc2ccc([N-]C(=O)c3cc(S(=O)(=O)N4CCCCC4)ccc3[O-])cc21

>  <Energy>  (24) 
84.90553460599942

>  <Genealogy>  (24) 
CC(=O)N1CCc2ccc([N-]C(=O)c3cc(S(=O)(=O)N4CCCCC4)ccc3[O-])cc21 (protonated)
CC(=O)N1CCc2ccc([N-]C(=O)c3cc(S(=O)(=O)N4CCCCC4)ccc3[O-])cc21 (3D coordinates assigned)
CC(=O)N1CCc2ccc([N-]C(=O)c3cc(S(=O)(=O)N4CCCCC4)ccc3[O-])cc21 (nonaromatic ring conformer: 84.90553460599942 kcal/mol)

>  <smiles>  (24) 
CC(=O)N1CCc2ccc(NC(=O)c3cc(S(=O)(=O)N4CCCCC4)ccc3O)cc21

>  <score_type>  (24) 
oracle

>  <origin>  (24) 
adgpu

>  <m_score__min__energy>  (24) 
-14.81

>  <m_primary>  (24) 
energy

$$$$
24:0
     RDKit          3D

 46 49  0  0  0  0  0  0  0  0999 V2000
   -4.2630   19.6380  -31.9650 C   0  0  0  0  0  0  0  0  0  0  0  0
   -5.3580   20.6150  -32.1430 N   0  0  0  0  0  0  0  0  0  0  0  0
   -6.7270   20.0970  -32.1450 C   0  0  0  0  0  0  0  0  0  0  0  0
   -6.9870   18.7300  -32.4050 C   0  0  0  0  0  0  0  0  0  0  0  0
   -8.2840   18.2160  -32.3210 C   0  0  0  0  0  0  0  0  0  0  0  0
   -9.3480   19.0490  -31.9860 C   0  0  0  0  0  0  0  0  0  0  0  0
   -9.1210   20.4050  -31.7560 C   0  0  0  0  0  0  0  0  0  0  0  0
   -7.8240   20.9250  -31.8450 C   0  0  0  0  0  0  0  0  0  0  0  0
   -7.5680   22.6310  -31.7110 S   0  0  0  0  0  0  0  0  0  0  0  0
   -7.4320   23.0520  -30.2750 O   0  0  0  0  0  0  0  0  0  0  0  0
   -8.6980   23.3830  -32.3590 O   0  0  0  0  0  0  0  0  0  0  0  0
   -6.1170   22.9250  -32.5970 N   0  0  0  0  0  0  0  0  0  0  0  0
   -5.0050   22.0740  -32.1430 C   0  0  2  0  0  0  0  0  0  0  0  0
   -3.8710   22.3010  -33.1730 C   0  0  0  0  0  0  0  0  0  0  0  0
   -4.5450   22.5490  -30.7540 C   0  0  0  0  0  0  0  0  0  0  0  0
   -3.8260   21.6740  -29.9130 C   0  0  0  0  0  0  0  0  0  0  0  0
   -3.3680   22.0940  -28.6630 C   0  0  0  0  0  0  0  0  0  0  0  0
   -3.6080   23.4060  -28.2240 C   0  0  0  0  0  0  0  0  0  0  0  0
   -3.1510   23.8670  -26.9800 O   0  0  0  0  0  0  0  0  0  0  0  0
   -2.3190   24.9780  -26.7790 C   0  0  0  0  0  0  0  0  0  0  0  0
   -1.3640   25.3770  -27.7340 C   0  0  0  0  0  0  0  0  0  0  0  0
   -0.5420   26.4810  -27.4890 C   0  0  0  0  0  0  0  0  0  0  0  0
   -0.6570   27.1850  -26.2870 C   0  0  0  0  0  0  0  0  0  0  0  0
   -1.5890   26.7830  -25.3280 C   0  0  0  0  0  0  0  0  0  0  0  0
   -2.4120   25.6790  -25.5700 C   0  0  0  0  0  0  0  0  0  0  0  0
   -4.2700   24.2960  -29.0690 C   0  0  0  0  0  0  0  0  0  0  0  0
   -4.7300   23.8810  -30.3210 C   0  0  0  0  0  0  0  0  0  0  0  0
   -4.0846   19.4788  -30.8913 H   0  0  0  0  0  0  0  0  0  0  0  0
   -4.5428   18.6839  -32.4356 H   0  0  0  0  0  0  0  0  0  0  0  0
   -3.3469   20.0243  -32.4356 H   0  0  0  0  0  0  0  0  0  0  0  0
   -6.1561   18.0625  -32.6771 H   0  0  0  0  0  0  0  0  0  0  0  0
   -8.4647   17.1494  -32.5203 H   0  0  0  0  0  0  0  0  0  0  0  0
  -10.3651   18.6382  -31.9030 H   0  0  0  0  0  0  0  0  0  0  0  0
   -9.9622   21.0676  -31.5042 H   0  0  0  0  0  0  0  0  0  0  0  0
   -2.9262   22.4901  -32.6424 H   0  0  0  0  0  0  0  0  0  0  0  0
   -3.7644   21.4064  -33.8041 H   0  0  0  0  0  0  0  0  0  0  0  0
   -4.1170   23.1677  -33.8041 H   0  0  0  0  0  0  0  0  0  0  0  0
   -3.6233   20.6457  -30.2471 H   0  0  0  0  0  0  0  0  0  0  0  0
   -2.8163   21.3936  -28.0187 H   0  0  0  0  0  0  0  0  0  0  0  0
   -1.2645   24.8180  -28.6761 H   0  0  0  0  0  0  0  0  0  0  0  0
    0.1953   26.7956  -28.2422 H   0  0  0  0  0  0  0  0  0  0  0  0
   -0.0130   28.0562  -26.0964 H   0  0  0  0  0  0  0  0  0  0  0  0
   -1.6758   27.3357  -24.3809 H   0  0  0  0  0  0  0  0  0  0  0  0
   -3.1366   25.3592  -24.8067 H   0  0  0  0  0  0  0  0  0  0  0  0
   -4.4316   25.3352  -28.7465 H   0  0  0  0  0  0  0  0  0  0  0  0
   -5.2423   24.5998  -30.9775 H   0  0  0  0  0  0  0  0  0  0  0  0
  1  2  1  0
  2  3  1  0
  3  4  2  0
  4  5  1  0
  5  6  2  0
  6  7  1  0
  7  8  2  0
  8  9  1  0
  9 10  2  0
  9 11  2  0
  9 12  1  0
 12 13  1  0
 13 14  1  6
 13 15  1  0
 15 16  2  0
 16 17  1  0
 17 18  2  0
 18 19  1  0
 19 20  1  0
 20 21  2  0
 21 22  1  0
 22 23  2  0
 23 24  1  0
 24 25  2  0
 18 26  1  0
 26 27  2  0
 13  2  1  0
 27 15  1  0
  8  3  1  0
 25 20  1  0
  1 28  1  0
  1 29  1  0
  1 30  1  0
  4 31  1  0
  5 32  1  0
  6 33  1  0
  7 34  1  0
 14 35  1  0
 14 36  1  0
 14 37  1  0
 16 38  1  0
 17 39  1  0
 21 40  1  0
 22 41  1  0
 23 42  1  0
 24 43  1  0
 25 44  1  0
 26 45  1  0
 27 46  1  0
M  CHG  1  12  -1
M  END
>  <UniqueID>  (25) 
25

>  <SMILES>  (25) 
CN1c2ccccc2S(=O)(=O)[N-][C@@]1(C)c1ccc(Oc2ccccc2)cc1

>  <Energy>  (25) 
71.29363025999076

>  <Genealogy>  (25) 
CN1c2ccccc2S(=O)(=O)[N-]C1(C)c1ccc(Oc2ccccc2)cc1 (protonated)
CN1c2ccccc2S(=O)(=O)[N-][C@@]1(C)c1ccc(Oc2ccccc2)cc1 (chirality)
CN1c2ccccc2S(=O)(=O)[N-][C@@]1(C)c1ccc(Oc2ccccc2)cc1 (3D coordinates assigned)
CN1c2ccccc2S(=O)(=O)[N-][C@@]1(C)c1ccc(Oc2ccccc2)cc1 (nonaromatic ring conformer: 71.29363025999076 kcal/mol)

>  <smiles>  (25) 
CN1c2ccccc2S(=O)(=O)NC1(C)c1ccc(Oc2ccccc2)cc1

>  <score_type>  (25) 
oracle

>  <origin>  (25) 
adgpu

>  <m_score__min__energy>  (25) 
-8.6899999999999995

>  <m_primary>  (25) 
energy

$$$$
25:0
     RDKit          3D

 48 51  0  0  0  0  0  0  0  0999 V2000
    1.0020   24.2950  -24.8760 C   0  0  0  0  0  0  0  0  0  0  0  0
   -0.3230   23.8190  -25.0940 O   0  0  0  0  0  0  0  0  0  0  0  0
   -0.8980   23.6240  -26.3600 C   0  0  0  0  0  0  0  0  0  0  0  0
   -1.3830   22.3720  -26.7760 C   0  0  0  0  0  0  0  0  0  0  0  0
   -1.9460   22.2200  -28.0440 C   0  0  0  0  0  0  0  0  0  0  0  0
   -2.0250   23.3070  -28.9290 C   0  0  0  0  0  0  0  0  0  0  0  0
   -2.6360   23.1100  -30.3050 C   0  0  0  0  0  0  0  0  0  0  0  0
   -4.0970   23.3470  -30.3600 N   0  0  0  0  0  0  0  0  0  0  0  0
   -4.4600   24.7620  -30.5560 C   0  0  0  0  0  0  0  0  0  0  0  0
   -5.9870   24.9760  -30.4790 C   0  0  0  0  0  0  0  0  0  0  0  0
   -6.7550   23.7220  -30.5780 N   0  0  0  0  0  0  0  0  0  0  0  0
   -6.7740   23.0490  -32.1980 S   0  0  0  0  0  0  0  0  0  0  0  0
   -7.6100   23.8960  -33.1180 O   0  0  0  0  0  0  0  0  0  0  0  0
   -5.3680   23.0410  -32.7300 O   0  0  0  0  0  0  0  0  0  0  0  0
   -7.3640   21.3800  -32.1920 C   0  0  0  0  0  0  0  0  0  0  0  0
   -8.6040   21.0970  -31.5940 C   0  0  0  0  0  0  0  0  0  0  0  0
   -9.1200   19.7920  -31.5900 C   0  0  0  0  0  0  0  0  0  0  0  0
   -8.4120   18.7430  -32.1880 C   0  0  0  0  0  0  0  0  0  0  0  0
   -7.1830   19.0080  -32.7900 C   0  0  0  0  0  0  0  0  0  0  0  0
   -6.4450   18.0450  -33.3970 N   0  0  0  0  0  0  0  0  0  0  0  0
   -5.1530   18.9440  -33.9050 S   0  0  0  0  0  0  0  0  0  0  0  0
   -5.4520   20.4910  -33.4100 N   0  0  0  0  0  0  0  0  0  0  0  0
   -6.6510   20.3290  -32.7950 C   0  0  0  0  0  0  0  0  0  0  0  0
   -6.3500   22.7210  -29.5660 C   0  0  0  0  0  0  0  0  0  0  0  0
   -4.8410   22.7500  -29.2430 C   0  0  0  0  0  0  0  0  0  0  0  0
   -1.5620   24.5690  -28.5050 C   0  0  0  0  0  0  0  0  0  0  0  0
   -1.6760   25.6760  -29.3400 O   0  0  0  0  0  0  0  0  0  0  0  0
   -0.9930   24.7220  -27.2270 C   0  0  0  0  0  0  0  0  0  0  0  0
   -0.5190   25.9630  -26.8010 O   0  0  0  0  0  0  0  0  0  0  0  0
    1.1937   24.3639  -23.7950 H   0  0  0  0  0  0  0  0  0  0  0  0
    1.7213   23.5991  -25.3323 H   0  0  0  0  0  0  0  0  0  0  0  0
    1.1140   25.2896  -25.3323 H   0  0  0  0  0  0  0  0  0  0  0  0
   -1.3185   21.5076  -26.0987 H   0  0  0  0  0  0  0  0  0  0  0  0
   -2.3321   21.2376  -28.3534 H   0  0  0  0  0  0  0  0  0  0  0  0
   -2.1471   23.8061  -31.0024 H   0  0  0  0  0  0  0  0  0  0  0  0
   -2.4765   22.0553  -30.5737 H   0  0  0  0  0  0  0  0  0  0  0  0
   -3.9756   25.3658  -29.7745 H   0  0  0  0  0  0  0  0  0  0  0  0
   -4.1211   25.0673  -31.5570 H   0  0  0  0  0  0  0  0  0  0  0  0
   -6.2246   25.4565  -29.5185 H   0  0  0  0  0  0  0  0  0  0  0  0
   -6.2728   25.6028  -31.3366 H   0  0  0  0  0  0  0  0  0  0  0  0
   -9.1775   21.9090  -31.1230 H   0  0  0  0  0  0  0  0  0  0  0  0
  -10.0903   19.5915  -31.1123 H   0  0  0  0  0  0  0  0  0  0  0  0
   -8.8206   17.7217  -32.1829 H   0  0  0  0  0  0  0  0  0  0  0  0
   -6.9086   22.9171  -28.6389 H   0  0  0  0  0  0  0  0  0  0  0  0
   -6.5729   21.7284  -29.9845 H   0  0  0  0  0  0  0  0  0  0  0  0
   -4.6748   23.3476  -28.3345 H   0  0  0  0  0  0  0  0  0  0  0  0
   -4.4871   21.7207  -29.0840 H   0  0  0  0  0  0  0  0  0  0  0  0
   -0.6200   26.8010  -27.3610 H   0  0  0  0  0  0  0  0  0  0  0  0
  1  2  1  0
  2  3  1  0
  3  4  2  0
  4  5  1  0
  5  6  2  0
  6  7  1  0
  7  8  1  0
  8  9  1  0
  9 10  1  0
 10 11  1  0
 11 12  1  0
 12 13  2  0
 12 14  2  0
 12 15  1  0
 15 16  2  0
 16 17  1  0
 17 18  2  0
 18 19  1  0
 19 20  2  0
 20 21  1  0
 21 22  1  0
 22 23  2  0
 11 24  1  0
 24 25  1  0
  6 26  1  0
 26 27  1  0
 26 28  2  0
 28 29  1  0
 28  3  1  0
 25  8  1  0
 23 15  1  0
 23 19  1  0
  1 30  1  0
  1 31  1  0
  1 32  1  0
  4 33  1  0
  5 34  1  0
  7 35  1  0
  7 36  1  0
  9 37  1  0
  9 38  1  0
 10 39  1  0
 10 40  1  0
 16 41  1  0
 17 42  1  0
 18 43  1  0
 24 44  1  0
 24 45  1  0
 25 46  1  0
 25 47  1  0
 29 48  1  0
M  CHG  1  27  -1
M  END
>  <UniqueID>  (26) 
26

>  <SMILES>  (26) 
COc1ccc(CN2CCN(S(=O)(=O)c3cccc4nsnc34)CC2)c([O-])c1O

>  <Energy>  (26) 
104.00546512437593

>  <Genealogy>  (26) 
COc1ccc(CN2CCN(S(=O)(=O)c3cccc4nsnc34)CC2)c([O-])c1O (protonated)
COc1ccc(CN2CCN(S(=O)(=O)c3cccc4nsnc34)CC2)c([O-])c1O (3D coordinates assigned)
COc1ccc(CN2CCN(S(=O)(=O)c3cccc4nsnc34)CC2)c([O-])c1O (nonaromatic ring conformer: 104.00546512437593 kcal/mol)

>  <smiles>  (26) 
COc1ccc(CN2CCN(S(=O)(=O)c3cccc4nsnc34)CC2)c(O)c1O

>  <score_type>  (26) 
oracle

>  <origin>  (26) 
adgpu

>  <m_score__min__energy>  (26) 
-11.84

>  <m_primary>  (26) 
energy

$$$$
26:0
     RDKit          3D

 40 42  0  0  0  0  0  0  0  0999 V2000
   -1.6420   20.6740  -29.5140 O   0  0  0  0  0  0  0  0  0  0  0  0
   -1.2410   21.5050  -30.3720 C   0  0  0  0  0  0  0  0  0  0  0  0
   -0.9500   22.8530  -29.9820 N   0  0  0  0  0  0  0  0  0  0  0  0
   -1.4690   23.5120  -28.8180 C   0  0  0  0  0  0  0  0  0  0  0  0
   -0.6140   24.3360  -28.0700 C   0  0  0  0  0  0  0  0  0  0  0  0
    0.7050   24.5210  -28.4700 O   0  0  0  0  0  0  0  0  0  0  0  0
   -1.0840   24.9850  -26.9240 C   0  0  0  0  0  0  0  0  0  0  0  0
   -2.4050   24.8060  -26.5080 C   0  0  0  0  0  0  0  0  0  0  0  0
   -3.2550   23.9640  -27.2270 C   0  0  0  0  0  0  0  0  0  0  0  0
   -2.7920   23.2990  -28.3730 C   0  0  0  0  0  0  0  0  0  0  0  0
   -3.6300   22.4100  -29.0440 O   0  0  0  0  0  0  0  0  0  0  0  0
   -1.0650   21.1000  -31.7860 C   0  0  0  0  0  0  0  0  0  0  0  0
    0.2410   20.8380  -32.2380 C   0  0  0  0  0  0  0  0  0  0  0  0
    0.4730   20.4090  -33.5460 C   0  0  0  0  0  0  0  0  0  0  0  0
   -0.5960   20.2340  -34.4220 C   0  0  0  0  0  0  0  0  0  0  0  0
   -1.8970   20.5050  -34.0000 C   0  0  0  0  0  0  0  0  0  0  0  0
   -2.1520   20.9510  -32.6920 C   0  0  0  0  0  0  0  0  0  0  0  0
   -3.8190   21.3650  -32.2590 S   0  0  0  0  0  0  0  0  0  0  0  0
   -4.7060   21.1660  -33.4560 O   0  0  0  0  0  0  0  0  0  0  0  0
   -4.2740   20.4940  -31.1210 O   0  0  0  0  0  0  0  0  0  0  0  0
   -3.9030   23.0230  -31.7520 N   0  0  0  0  0  0  0  0  0  0  0  0
   -5.0150   23.6290  -31.0790 C   0  0  0  0  0  0  0  0  0  0  0  0
   -6.2200   22.9350  -30.8570 C   0  0  0  0  0  0  0  0  0  0  0  0
   -7.2810   23.5620  -30.1940 C   0  0  0  0  0  0  0  0  0  0  0  0
   -7.1510   24.8780  -29.7510 C   0  0  0  0  0  0  0  0  0  0  0  0
   -5.9590   25.5740  -29.9680 C   0  0  0  0  0  0  0  0  0  0  0  0
   -4.8940   24.9530  -30.6280 C   0  0  0  0  0  0  0  0  0  0  0  0
   -3.7130   25.6580  -30.8370 O   0  0  0  0  0  0  0  0  0  0  0  0
   -0.4114   25.6382  -26.3487 H   0  0  0  0  0  0  0  0  0  0  0  0
   -2.7757   25.3285  -25.6138 H   0  0  0  0  0  0  0  0  0  0  0  0
   -4.2934   23.8209  -26.8936 H   0  0  0  0  0  0  0  0  0  0  0  0
   -3.3580   21.9790  -29.9200 H   0  0  0  0  0  0  0  0  0  0  0  0
    1.0903   20.9729  -31.5521 H   0  0  0  0  0  0  0  0  0  0  0  0
    1.5002   20.2091  -33.8851 H   0  0  0  0  0  0  0  0  0  0  0  0
   -0.4135   19.8816  -35.4479 H   0  0  0  0  0  0  0  0  0  0  0  0
   -2.7345   20.3679  -34.6999 H   0  0  0  0  0  0  0  0  0  0  0  0
   -6.3276   21.8973  -31.2056 H   0  0  0  0  0  0  0  0  0  0  0  0
   -8.2200   23.0154  -30.0218 H   0  0  0  0  0  0  0  0  0  0  0  0
   -7.9870   25.3682  -29.2306 H   0  0  0  0  0  0  0  0  0  0  0  0
   -5.8582   26.6123  -29.6190 H   0  0  0  0  0  0  0  0  0  0  0  0
  1  2  2  0
  2  3  1  0
  3  4  1  0
  4  5  2  0
  5  6  1  0
  5  7  1  0
  7  8  2  0
  8  9  1  0
  9 10  2  0
 10 11  1  0
  2 12  1  0
 12 13  2  0
 13 14  1  0
 14 15  2  0
 15 16  1  0
 16 17  2  0
 17 18  1  0
 18 19  2  0
 18 20  2  0
 18 21  1  0
 21 22  1  0
 22 23  2  0
 23 24  1  0
 24 25  2  0
 25 26  1  0
 26 27  2  0
 27 28  1  0
 10  4  1  0
 17 12  1  0
 27 22  1  0
  7 29  1  0
  8 30  1  0
  9 31  1  0
 11 32  1  0
 13 33  1  0
 14 34  1  0
 15 35  1  0
 16 36  1  0
 23 37  1  0
 24 38  1  0
 25 39  1  0
 26 40  1  0
M  CHG  4   3  -1   6  -1  21  -1  28  -1
M  END
>  <UniqueID>  (27) 
27

>  <SMILES>  (27) 
O=C([N-]c1c([O-])cccc1O)c1ccccc1S(=O)(=O)[N-]c1ccccc1[O-]

>  <Energy>  (27) 
59.55586912492666

>  <Genealogy>  (27) 
O=C([N-]c1c([O-])cccc1O)c1ccccc1S(=O)(=O)[N-]c1ccccc1[O-] (protonated)
O=C([N-]c1c([O-])cccc1O)c1ccccc1S(=O)(=O)[N-]c1ccccc1[O-] (3D coordinates assigned)
O=C([N-]c1c([O-])cccc1O)c1ccccc1S(=O)(=O)[N-]c1ccccc1[O-] (optimized conformer: 59.55586912492666 kcal/mol)

>  <smiles>  (27) 
O=C(Nc1c(O)cccc1O)c1ccccc1S(=O)(=O)Nc1ccccc1O

>  <score_type>  (27) 
oracle

>  <origin>  (27) 
adgpu

>  <m_score__min__energy>  (27) 
-14.06

>  <m_primary>  (27) 
energy

$$$$
27:0
     RDKit          3D

 48 51  0  0  0  0  0  0  0  0999 V2000
   -9.9490   20.8870  -32.2500 C   0  0  0  0  0  0  0  0  0  0  0  0
   -8.7040   20.0740  -32.1390 C   0  0  0  0  0  0  0  0  0  0  0  0
   -8.5940   18.8410  -31.5080 C   0  0  0  0  0  0  0  0  0  0  0  0
   -7.3180   18.2750  -31.6210 C   0  0  0  0  0  0  0  0  0  0  0  0
   -6.4330   19.0530  -32.3650 C   0  0  0  0  0  0  0  0  0  0  0  0
   -5.0170   18.7500  -32.6430 C   0  0  0  0  0  0  0  0  0  0  0  0
   -4.6590   17.5440  -32.7330 O   0  0  0  0  0  0  0  0  0  0  0  0
   -4.0440   19.7950  -32.8240 N   0  0  0  0  0  0  0  0  0  0  0  0
   -2.6160   19.4800  -32.8480 C   0  0  0  0  0  0  0  0  0  0  0  0
   -1.9780   19.9560  -31.5460 C   0  0  0  0  0  0  0  0  0  0  0  0
   -2.3720   21.3780  -31.2230 C   0  0  0  0  0  0  0  0  0  0  0  0
   -1.5870   22.1120  -30.3210 C   0  0  0  0  0  0  0  0  0  0  0  0
   -1.9330   23.4290  -29.9670 C   0  0  0  0  0  0  0  0  0  0  0  0
   -1.1130   24.2000  -29.0680 N   0  0  0  0  0  0  0  0  0  0  0  0
   -0.6950   23.6760  -27.4660 S   0  0  0  0  0  0  0  0  0  0  0  0
   -1.7980   24.0640  -26.5210 O   0  0  0  0  0  0  0  0  0  0  0  0
    0.5770   24.3510  -27.0380 O   0  0  0  0  0  0  0  0  0  0  0  0
   -0.4430   21.9330  -27.4530 C   0  0  0  0  0  0  0  0  0  0  0  0
    0.7920   21.4060  -27.8570 C   0  0  0  0  0  0  0  0  0  0  0  0
    0.9920   20.0220  -27.8790 C   0  0  0  0  0  0  0  0  0  0  0  0
   -0.0400   19.1590  -27.4950 C   0  0  0  0  0  0  0  0  0  0  0  0
    0.2100   17.4230  -27.5260 Cl  0  0  0  0  0  0  0  0  0  0  0  0
   -1.2710   19.6820  -27.0860 C   0  0  0  0  0  0  0  0  0  0  0  0
   -1.4730   21.0660  -27.0650 C   0  0  0  0  0  0  0  0  0  0  0  0
   -3.1050   23.9920  -30.5010 C   0  0  0  0  0  0  0  0  0  0  0  0
   -3.4790   25.2900  -30.1700 O   0  0  0  0  0  0  0  0  0  0  0  0
   -3.9050   23.2580  -31.3800 C   0  0  0  0  0  0  0  0  0  0  0  0
   -3.5570   21.9500  -31.7410 C   0  0  0  0  0  0  0  0  0  0  0  0
   -4.4240   21.2100  -32.7330 C   0  0  0  0  0  0  0  0  0  0  0  0
   -7.2330   20.4490  -32.8620 S   0  0  0  0  0  0  0  0  0  0  0  0
  -10.3198   21.1291  -31.2431 H   0  0  0  0  0  0  0  0  0  0  0  0
   -9.7318   21.8178  -32.7944 H   0  0  0  0  0  0  0  0  0  0  0  0
  -10.7139   20.3138  -32.7944 H   0  0  0  0  0  0  0  0  0  0  0  0
   -9.4254   18.3581  -30.9736 H   0  0  0  0  0  0  0  0  0  0  0  0
   -7.0417   17.3117  -31.1674 H   0  0  0  0  0  0  0  0  0  0  0  0
   -2.4801   18.3931  -32.9490 H   0  0  0  0  0  0  0  0  0  0  0  0
   -2.1392   19.9853  -33.7009 H   0  0  0  0  0  0  0  0  0  0  0  0
   -2.3059   19.2995  -30.7266 H   0  0  0  0  0  0  0  0  0  0  0  0
   -0.8850   19.9195  -31.6641 H   0  0  0  0  0  0  0  0  0  0  0  0
   -0.6885   21.6514  -29.8845 H   0  0  0  0  0  0  0  0  0  0  0  0
   -0.6410   25.0640  -29.4150 H   0  0  0  0  0  0  0  0  0  0  0  0
    1.6055   22.0828  -28.1574 H   0  0  0  0  0  0  0  0  0  0  0  0
    1.9614   19.6117  -28.1984 H   0  0  0  0  0  0  0  0  0  0  0  0
   -2.0815   19.0040  -26.7804 H   0  0  0  0  0  0  0  0  0  0  0  0
   -2.4424   21.4745  -26.7433 H   0  0  0  0  0  0  0  0  0  0  0  0
   -4.8179   23.7119  -31.7931 H   0  0  0  0  0  0  0  0  0  0  0  0
   -5.4739   21.2789  -32.4122 H   0  0  0  0  0  0  0  0  0  0  0  0
   -4.2879   21.6698  -33.7230 H   0  0  0  0  0  0  0  0  0  0  0  0
  1  2  1  0
  2  3  2  0
  3  4  1  0
  4  5  2  0
  5  6  1  0
  6  7  2  0
  6  8  1  0
  8  9  1  0
  9 10  1  0
 10 11  1  0
 11 12  2  0
 12 13  1  0
 13 14  1  0
 14 15  1  0
 15 16  2  0
 15 17  2  0
 15 18  1  0
 18 19  2  0
 19 20  1  0
 20 21  2  0
 21 22  1  0
 21 23  1  0
 23 24  2  0
 13 25  2  0
 25 26  1  0
 25 27  1  0
 27 28  2  0
 28 29  1  0
  5 30  1  0
 30  2  1  0
 29  8  1  0
 28 11  1  0
 24 18  1  0
  1 31  1  0
  1 32  1  0
  1 33  1  0
  3 34  1  0
  4 35  1  0
  9 36  1  0
  9 37  1  0
 10 38  1  0
 10 39  1  0
 12 40  1  0
 14 41  1  0
 19 42  1  0
 20 43  1  0
 23 44  1  0
 24 45  1  0
 27 46  1  0
 29 47  1  0
 29 48  1  0
M  CHG  1  26  -1
M  END
>  <UniqueID>  (28) 
28

>  <SMILES>  (28) 
Cc1ccc(C(=O)N2CCc3cc(NS(=O)(=O)c4ccc(Cl)cc4)c([O-])cc3C2)s1

>  <Energy>  (28) 
84.59411365012726

>  <Genealogy>  (28) 
Cc1ccc(C(=O)N2CCc3cc(NS(=O)(=O)c4ccc(Cl)cc4)c([O-])cc3C2)s1 (protonated)
Cc1ccc(C(=O)N2CCc3cc(NS(=O)(=O)c4ccc(Cl)cc4)c([O-])cc3C2)s1 (3D coordinates assigned)
Cc1ccc(C(=O)N2CCc3cc(NS(=O)(=O)c4ccc(Cl)cc4)c([O-])cc3C2)s1 (nonaromatic ring conformer: 84.59411365012726 kcal/mol)

>  <smiles>  (28) 
Cc1ccc(C(=O)N2CCc3cc(NS(=O)(=O)c4ccc(Cl)cc4)c(O)cc3C2)s1

>  <score_type>  (28) 
oracle

>  <origin>  (28) 
adgpu

>  <m_score__min__energy>  (28) 
-13.640000000000001

>  <m_primary>  (28) 
energy

$$$$
28:0
     RDKit          3D

 55 58  0  0  0  0  0  0  0  0999 V2000
   -4.4520   26.2380  -30.0560 H   0  0  0  0  0  0  0  0  0  0  0  0
   -4.2410   25.3010  -30.4660 N   0  0  0  0  0  0  0  0  0  0  0  0
   -3.3140   24.5440  -29.9770 C   0  0  0  0  0  0  0  0  0  0  0  0
   -3.0680   23.3320  -30.5360 N   0  0  0  0  0  0  0  0  0  0  0  0
   -2.0960   22.5200  -30.0450 C   0  0  0  0  0  0  0  0  0  0  0  0
   -1.8570   21.2830  -30.6340 O   0  0  0  0  0  0  0  0  0  0  0  0
   -1.0800   21.1680  -31.8190 C   0  0  0  0  0  0  0  0  0  0  0  0
   -0.2170   21.8472  -31.7566 H   0  0  0  0  0  0  0  0  0  0  0  0
   -0.7300   20.1304  -31.9231 H   0  0  0  0  0  0  0  0  0  0  0  0
   -1.9280   21.5370  -33.0350 C   0  0  0  0  0  0  0  0  0  0  0  0
   -2.0356   22.6308  -33.0808 H   0  0  0  0  0  0  0  0  0  0  0  0
   -1.4273   21.1627  -33.9401 H   0  0  0  0  0  0  0  0  0  0  0  0
   -3.2900   20.9120  -32.9460 C   0  0  0  0  0  0  0  0  0  0  0  0
   -4.3950   21.5820  -32.5680 N   0  0  0  0  0  0  0  0  0  0  0  0
   -5.3800   20.6650  -32.7090 C   0  0  0  0  0  0  0  0  0  0  0  0
   -6.8000   20.9340  -32.4060 C   0  0  0  0  0  0  0  0  0  0  0  0
   -7.7630   19.9250  -32.5810 C   0  0  0  0  0  0  0  0  0  0  0  0
   -7.4565   18.9331  -32.9447 H   0  0  0  0  0  0  0  0  0  0  0  0
   -9.1090   20.1760  -32.2950 C   0  0  0  0  0  0  0  0  0  0  0  0
   -9.8577   19.3828  -32.4373 H   0  0  0  0  0  0  0  0  0  0  0  0
   -9.5040   21.4320  -31.8290 C   0  0  0  0  0  0  0  0  0  0  0  0
  -10.5625   21.6267  -31.6015 H   0  0  0  0  0  0  0  0  0  0  0  0
   -8.5540   22.4410  -31.6520 C   0  0  0  0  0  0  0  0  0  0  0  0
   -8.8659   23.4307  -31.2871 H   0  0  0  0  0  0  0  0  0  0  0  0
   -7.2070   22.1950  -31.9380 C   0  0  0  0  0  0  0  0  0  0  0  0
   -6.4628   22.9924  -31.7959 H   0  0  0  0  0  0  0  0  0  0  0  0
   -4.9360   19.5070  -33.1540 O   0  0  0  0  0  0  0  0  0  0  0  0
   -3.6440   19.6300  -33.3160 C   0  0  0  0  0  0  0  0  0  0  0  0
   -2.7470   18.5450  -33.8170 C   0  0  0  0  0  0  0  0  0  0  0  0
   -2.3053   18.0108  -32.9629 H   0  0  0  0  0  0  0  0  0  0  0  0
   -3.3299   17.8405  -34.4285 H   0  0  0  0  0  0  0  0  0  0  0  0
   -1.9455   18.9850  -34.4285 H   0  0  0  0  0  0  0  0  0  0  0  0
   -1.3390   22.9270  -28.9440 C   0  0  0  0  0  0  0  0  0  0  0  0
   -0.5467   22.2807  -28.5383 H   0  0  0  0  0  0  0  0  0  0  0  0
   -1.6090   24.1760  -28.3660 C   0  0  0  0  0  0  0  0  0  0  0  0
   -0.8360   24.6660  -27.2550 N   0  0  0  0  0  0  0  0  0  0  0  0
    0.5360   24.1870  -27.0650 C   0  0  0  0  0  0  0  0  0  0  0  0
    0.5618   23.0977  -27.2159 H   0  0  0  0  0  0  0  0  0  0  0  0
    1.1891   24.6900  -27.7933 H   0  0  0  0  0  0  0  0  0  0  0  0
    1.0370   24.5120  -25.6460 C   0  0  0  0  0  0  0  0  0  0  0  0
    1.8577   23.8247  -25.3927 H   0  0  0  0  0  0  0  0  0  0  0  0
    1.3777   25.5579  -25.6365 H   0  0  0  0  0  0  0  0  0  0  0  0
   -0.0360   24.3700  -24.6340 N   0  0  0  0  0  0  0  0  0  0  0  0
    0.3810   24.6430  -23.7110 H   0  0  0  0  0  0  0  0  0  0  0  0
   -0.4650   22.9640  -24.4950 C   0  0  0  0  0  0  0  0  0  0  0  0
   -0.5430   22.7082  -23.4280 H   0  0  0  0  0  0  0  0  0  0  0  0
   -1.4448   22.8303  -24.9767 H   0  0  0  0  0  0  0  0  0  0  0  0
    0.2733   22.3060  -24.9767 H   0  0  0  0  0  0  0  0  0  0  0  0
   -1.1980   25.2700  -24.8880 C   0  0  0  0  0  0  0  0  0  0  0  0
   -2.1167   24.7395  -24.5972 H   0  0  0  0  0  0  0  0  0  0  0  0
   -1.0303   26.1817  -24.2958 H   0  0  0  0  0  0  0  0  0  0  0  0
   -1.3380   25.7120  -26.3580 C   0  0  0  0  0  0  0  0  0  0  0  0
   -2.3984   25.9021  -26.5802 H   0  0  0  0  0  0  0  0  0  0  0  0
   -0.7498   26.6285  -26.5132 H   0  0  0  0  0  0  0  0  0  0  0  0
   -2.5830   24.9590  -28.9070 N   0  0  0  0  0  0  0  0  0  0  0  0
  1  2  1  0
  2  3  2  0
  3  4  1  0
  4  5  2  0
  5  6  1  0
  6  7  1  0
  7  8  1  0
  7  9  1  0
  7 10  1  0
 10 11  1  0
 10 12  1  0
 10 13  1  0
 13 14  1  0
 14 15  2  0
 15 16  1  0
 16 17  2  0
 17 18  1  0
 17 19  1  0
 19 20  1  0
 19 21  2  0
 21 22  1  0
 21 23  1  0
 23 24  1  0
 23 25  2  0
 25 26  1  0
 15 27  1  0
 27 28  1  0
 28 29  1  0
 29 30  1  0
 29 31  1  0
 29 32  1  0
  5 33  1  0
 33 34  1  0
 33 35  2  0
 35 36  1  0
 36 37  1  0
 37 38  1  0
 37 39  1  0
 37 40  1  0
 40 41  1  0
 40 42  1  0
 40 43  1  0
 43 44  1  0
 43 45  1  0
 45 46  1  0
 45 47  1  0
 45 48  1  0
 43 49  1  0
 49 50  1  0
 49 51  1  0
 49 52  1  0
 52 53  1  0
 52 54  1  0
 35 55  1  0
 55  3  1  0
 28 13  2  0
 52 36  1  0
 25 16  1  0
M  CHG  2  43   1  55  -1
M  END
>  <UniqueID>  (29) 
29

>  <SMILES>  (29) 
[H]/N=c1/nc(OCCc2nc(-c3ccccc3)oc2C)cc(N2CC[NH+](C)CC2)[n-]1

>  <Energy>  (29) 
100.14420631985423

>  <Genealogy>  (29) 
Cc1oc(-c2ccccc2)nc1CCOc1cc(N2CC[NH+](C)CC2)[n-]c(=N)n1 (protonated)
[H]/N=c1/nc(OCCc2nc(-c3ccccc3)oc2C)cc(N2CC[NH+](C)CC2)[n-]1 (cis-trans isomerization)
[H]/N=c1/nc(OCCc2nc(-c3ccccc3)oc2C)cc(N2CC[NH+](C)CC2)[n-]1 (3D coordinates assigned)
[H]/N=c1/nc(OCCc2nc(-c3ccccc3)oc2C)cc(N2CC[NH+](C)CC2)[n-]1 (nonaromatic ring conformer: 100.14420631985423 kcal/mol)

>  <smiles>  (29) 
Cc1oc(-c2ccccc2)nc1CCOc1cc(N2CCN(C)CC2)[nH]c(=N)n1

>  <score_type>  (29) 
oracle

>  <origin>  (29) 
adgpu

>  <m_score__min__energy>  (29) 
-10

>  <m_primary>  (29) 
energy

$$$$
29:0
     RDKit          3D

 55 58  0  0  0  0  0  0  0  0999 V2000
   -8.7385   21.6079  -29.6223 H   0  0  0  0  0  0  0  0  0  0  0  0
   -8.0840   22.1470  -30.3230 C   0  0  0  0  0  0  0  0  0  0  0  0
   -7.2370   23.1520  -29.8470 C   0  0  0  0  0  0  0  0  0  0  0  0
   -7.2192   23.3914  -28.7735 H   0  0  0  0  0  0  0  0  0  0  0  0
   -6.4110   23.8550  -30.7330 C   0  0  0  0  0  0  0  0  0  0  0  0
   -5.3480   25.1270  -30.1370 S   0  0  0  0  0  0  0  0  0  0  0  0
   -5.6440   26.4270  -30.8330 O   0  0  0  0  0  0  0  0  0  0  0  0
   -5.5750   25.2990  -28.6620 O   0  0  0  0  0  0  0  0  0  0  0  0
   -3.6870   24.7060  -30.4090 N   0  0  0  0  0  0  0  0  0  0  0  0
   -3.0870   23.6950  -29.8570 C   0  0  0  0  0  0  0  0  0  0  0  0
   -1.7960   23.3970  -30.0910 N   0  0  0  0  0  0  0  0  0  0  0  0
   -1.5270   22.3410  -29.3810 O   0  0  0  0  0  0  0  0  0  0  0  0
   -2.5800   21.9470  -28.7000 C   0  0  0  0  0  0  0  0  0  0  0  0
   -2.6080   20.7650  -27.7920 C   0  0  0  0  0  0  0  0  0  0  0  0
   -2.5999   21.1058  -26.7461 H   0  0  0  0  0  0  0  0  0  0  0  0
   -3.5203   20.1798  -27.9799 H   0  0  0  0  0  0  0  0  0  0  0  0
   -1.7245   20.1373  -27.9799 H   0  0  0  0  0  0  0  0  0  0  0  0
   -3.6370   22.7900  -28.9680 C   0  0  0  0  0  0  0  0  0  0  0  0
   -4.6629   22.7522  -28.5729 H   0  0  0  0  0  0  0  0  0  0  0  0
   -6.4410   23.5450  -32.0990 C   0  0  0  0  0  0  0  0  0  0  0  0
   -5.7936   24.0933  -32.7993 H   0  0  0  0  0  0  0  0  0  0  0  0
   -7.2900   22.5420  -32.5760 C   0  0  0  0  0  0  0  0  0  0  0  0
   -7.3202   22.3156  -33.6520 H   0  0  0  0  0  0  0  0  0  0  0  0
   -8.1060   21.8210  -31.6850 C   0  0  0  0  0  0  0  0  0  0  0  0
   -9.0100   20.8000  -32.1320 N   0  0  0  0  0  0  0  0  0  0  0  0
   -8.7050   19.4160  -32.3530 C   0  0  0  0  0  0  0  0  0  0  0  0
   -9.6260   18.5540  -32.3440 O   0  0  0  0  0  0  0  0  0  0  0  0
   -7.3130   19.0020  -32.6480 C   0  0  0  0  0  0  0  0  0  0  0  0
   -6.5870   19.6200  -33.6840 C   0  0  0  0  0  0  0  0  0  0  0  0
   -7.0561   20.4179  -34.2783 H   0  0  0  0  0  0  0  0  0  0  0  0
   -5.2760   19.2280  -33.9630 C   0  0  0  0  0  0  0  0  0  0  0  0
   -4.7191   19.7199  -34.7741 H   0  0  0  0  0  0  0  0  0  0  0  0
   -4.6660   18.2120  -33.2160 C   0  0  0  0  0  0  0  0  0  0  0  0
   -3.0110   17.7140  -33.5720 S   0  0  0  0  0  0  0  0  0  0  0  0
   -2.8950   17.4120  -35.0410 O   0  0  0  0  0  0  0  0  0  0  0  0
   -2.6980   16.4550  -32.8120 O   0  0  0  0  0  0  0  0  0  0  0  0
   -1.8530   18.9510  -33.1430 N   0  0  0  0  0  0  0  0  0  0  0  0
   -1.1330   18.4980  -32.5310 H   0  0  0  0  0  0  0  0  0  0  0  0
   -2.5060   20.0380  -32.3850 C   0  0  0  0  0  0  0  0  0  0  0  0
   -3.4441   20.3130  -32.8894 H   0  0  0  0  0  0  0  0  0  0  0  0
   -2.7033   19.6790  -31.3641 H   0  0  0  0  0  0  0  0  0  0  0  0
   -1.6000   21.2830  -32.2960 C   0  0  0  0  0  0  0  0  0  0  0  0
   -1.9556   22.0388  -33.0118 H   0  0  0  0  0  0  0  0  0  0  0  0
   -1.6426   21.6752  -31.2692 H   0  0  0  0  0  0  0  0  0  0  0  0
   -0.2590   20.9550  -32.5980 O   0  0  0  0  0  0  0  0  0  0  0  0
   -0.1520   20.5620  -33.9570 C   0  0  0  0  0  0  0  0  0  0  0  0
   -0.3093   21.4456  -34.5930 H   0  0  0  0  0  0  0  0  0  0  0  0
    0.8499   20.1318  -34.1023 H   0  0  0  0  0  0  0  0  0  0  0  0
   -1.1880   19.4810  -34.3450 C   0  0  0  0  0  0  0  0  0  0  0  0
   -1.9429   19.9250  -35.0106 H   0  0  0  0  0  0  0  0  0  0  0  0
   -0.6690   18.6576  -34.8574 H   0  0  0  0  0  0  0  0  0  0  0  0
   -5.3810   17.5970  -32.1800 C   0  0  0  0  0  0  0  0  0  0  0  0
   -4.9062   16.8036  -31.5842 H   0  0  0  0  0  0  0  0  0  0  0  0
   -6.6930   17.9850  -31.8990 C   0  0  0  0  0  0  0  0  0  0  0  0
   -7.2458   17.4917  -31.0859 H   0  0  0  0  0  0  0  0  0  0  0  0
  1  2  1  0
  2  3  2  0
  3  4  1  0
  3  5  1  0
  5  6  1  0
  6  7  2  0
  6  8  2  0
  6  9  1  0
  9 10  2  0
 10 11  1  0
 11 12  1  0
 12 13  1  0
 13 14  1  0
 14 15  1  0
 14 16  1  0
 14 17  1  0
 13 18  2  0
 18 19  1  0
  5 20  2  0
 20 21  1  0
 20 22  1  0
 22 23  1  0
 22 24  2  0
 24 25  1  0
 25 26  1  0
 26 27  2  0
 26 28  1  0
 28 29  2  0
 29 30  1  0
 29 31  1  0
 31 32  1  0
 31 33  2  0
 33 34  1  0
 34 35  2  0
 34 36  2  0
 34 37  1  0
 37 38  1  0
 37 39  1  0
 39 40  1  0
 39 41  1  0
 39 42  1  0
 42 43  1  0
 42 44  1  0
 42 45  1  0
 45 46  1  0
 46 47  1  0
 46 48  1  0
 46 49  1  0
 49 50  1  0
 49 51  1  0
 33 52  1  0
 52 53  1  0
 52 54  2  0
 54 55  1  0
 24  2  1  0
 54 28  1  0
 18 10  1  0
 49 37  1  0
M  CHG  3  11  -1  25  -1  37   1
M  END
>  <UniqueID>  (30) 
30

>  <SMILES>  (30) 
Cc1c/c(=N\S(=O)(=O)c2ccc([N-]C(=O)c3ccc(S(=O)(=O)[NH+]4CCOCC4)cc3)cc2)[n-]o1

>  <Energy>  (30) 
102.96481150209635

>  <Genealogy>  (30) 
Cc1cc(=NS(=O)(=O)c2ccc([N-]C(=O)c3ccc(S(=O)(=O)[NH+]4CCOCC4)cc3)cc2)[n-]o1 (protonated)
Cc1c/c(=N\S(=O)(=O)c2ccc([N-]C(=O)c3ccc(S(=O)(=O)[NH+]4CCOCC4)cc3)cc2)[n-]o1 (cis-trans isomerization)
Cc1c/c(=N\S(=O)(=O)c2ccc([N-]C(=O)c3ccc(S(=O)(=O)[NH+]4CCOCC4)cc3)cc2)[n-]o1 (3D coordinates assigned)
Cc1c/c(=N\S(=O)(=O)c2ccc([N-]C(=O)c3ccc(S(=O)(=O)[NH+]4CCOCC4)cc3)cc2)[n-]o1 (nonaromatic ring conformer: 102.96481150209635 kcal/mol)

>  <smiles>  (30) 
Cc1cc(=NS(=O)(=O)c2ccc(NC(=O)c3ccc(S(=O)(=O)N4CCOCC4)cc3)cc2)[nH]o1

>  <score_type>  (30) 
oracle

>  <origin>  (30) 
adgpu

>  <m_score__min__energy>  (30) 
-12.99

>  <m_primary>  (30) 
energy

$$$$
30:0
     RDKit          3D

 36 38  0  0  0  0  0  0  0  0999 V2000
   -1.4710   21.4180  -26.5720 C   0  0  0  0  0  0  0  0  0  0  0  0
   -1.4010   22.7200  -27.3130 C   0  0  0  0  0  0  0  0  0  0  0  0
   -0.4520   23.6880  -26.9520 C   0  0  0  0  0  0  0  0  0  0  0  0
   -0.4000   24.9080  -27.6300 C   0  0  0  0  0  0  0  0  0  0  0  0
   -1.3080   25.1830  -28.6570 C   0  0  0  0  0  0  0  0  0  0  0  0
   -1.2370   26.4040  -29.3190 O   0  0  0  0  0  0  0  0  0  0  0  0
   -2.2900   24.2380  -29.0070 C   0  0  0  0  0  0  0  0  0  0  0  0
   -3.2070   24.5220  -30.0780 N   0  0  0  0  0  0  0  0  0  0  0  0
   -4.6310   24.3640  -29.9720 C   0  0  0  0  0  0  0  0  0  0  0  0
   -5.1860   24.3650  -28.8410 O   0  0  0  0  0  0  0  0  0  0  0  0
   -5.4520   24.3050  -31.1440 N   0  0  0  0  0  0  0  0  0  0  0  0
   -6.3870   23.2650  -31.4620 C   0  0  0  0  0  0  0  0  0  0  0  0
   -7.7350   23.6010  -31.6410 C   0  0  0  0  0  0  0  0  0  0  0  0
   -8.6810   22.6160  -31.9310 C   0  0  0  0  0  0  0  0  0  0  0  0
   -8.2930   21.2720  -32.0300 C   0  0  0  0  0  0  0  0  0  0  0  0
   -9.2360   20.2740  -32.3210 C   0  0  0  0  0  0  0  0  0  0  0  0
   -8.8380   18.9370  -32.4070 C   0  0  0  0  0  0  0  0  0  0  0  0
   -7.5000   18.5870  -32.2030 C   0  0  0  0  0  0  0  0  0  0  0  0
   -6.5520   19.5720  -31.9110 C   0  0  0  0  0  0  0  0  0  0  0  0
   -6.9380   20.9190  -31.8240 C   0  0  0  0  0  0  0  0  0  0  0  0
   -5.9950   21.9150  -31.5320 C   0  0  0  0  0  0  0  0  0  0  0  0
   -2.3230   23.0030  -28.3320 C   0  0  0  0  0  0  0  0  0  0  0  0
   -1.4606   21.6114  -25.4892 H   0  0  0  0  0  0  0  0  0  0  0  0
   -2.3987   20.8921  -26.8417 H   0  0  0  0  0  0  0  0  0  0  0  0
   -0.6050   20.7956  -26.8417 H   0  0  0  0  0  0  0  0  0  0  0  0
    0.2533   23.4856  -26.1325 H   0  0  0  0  0  0  0  0  0  0  0  0
    0.3585   25.6556  -27.3548 H   0  0  0  0  0  0  0  0  0  0  0  0
   -2.8300   24.9320  -30.9610 H   0  0  0  0  0  0  0  0  0  0  0  0
   -8.0512   24.6508  -31.5523 H   0  0  0  0  0  0  0  0  0  0  0  0
   -9.7342   22.8951  -32.0823 H   0  0  0  0  0  0  0  0  0  0  0  0
  -10.2900   20.5446  -32.4816 H   0  0  0  0  0  0  0  0  0  0  0  0
   -9.5798   18.1577  -32.6359 H   0  0  0  0  0  0  0  0  0  0  0  0
   -7.1922   17.5332  -32.2725 H   0  0  0  0  0  0  0  0  0  0  0  0
   -5.5009   19.2910  -31.7490 H   0  0  0  0  0  0  0  0  0  0  0  0
   -4.9444   21.6400  -31.3569 H   0  0  0  0  0  0  0  0  0  0  0  0
   -3.0791   22.2525  -28.6062 H   0  0  0  0  0  0  0  0  0  0  0  0
  1  2  1  0
  2  3  2  0
  3  4  1  0
  4  5  2  0
  5  6  1  0
  5  7  1  0
  7  8  1  0
  8  9  1  0
  9 10  2  0
  9 11  1  0
 11 12  1  0
 12 13  2  0
 13 14  1  0
 14 15  2  0
 15 16  1  0
 16 17  2  0
 17 18  1  0
 18 19  2  0
 19 20  1  0
 20 21  2  0
  7 22  2  0
 22  2  1  0
 21 12  1  0
 20 15  1  0
  1 23  1  0
  1 24  1  0
  1 25  1  0
  3 26  1  0
  4 27  1  0
  8 28  1  0
 13 29  1  0
 14 30  1  0
 16 31  1  0
 17 32  1  0
 18 33  1  0
 19 34  1  0
 21 35  1  0
 22 36  1  0
M  CHG  2   6  -1  11  -1
M  END
>  <UniqueID>  (31) 
31

>  <SMILES>  (31) 
Cc1ccc([O-])c(NC(=O)[N-]c2ccc3ccccc3c2)c1

>  <Energy>  (31) 
48.271477142406084

>  <Genealogy>  (31) 
Cc1ccc([O-])c(NC(=O)[N-]c2ccc3ccccc3c2)c1 (protonated)
Cc1ccc([O-])c(NC(=O)[N-]c2ccc3ccccc3c2)c1 (3D coordinates assigned)
Cc1ccc([O-])c(NC(=O)[N-]c2ccc3ccccc3c2)c1 (optimized conformer: 48.271477142406084 kcal/mol)

>  <smiles>  (31) 
Cc1ccc(O)c(NC(=O)Nc2ccc3ccccc3c2)c1

>  <score_type>  (31) 
oracle

>  <origin>  (31) 
adgpu

>  <m_score__min__energy>  (31) 
-13.08

>  <m_primary>  (31) 
energy

$$$$
31:0
     RDKit          3D

 53 56  0  0  0  0  0  0  0  0999 V2000
   -1.1380   20.8440  -26.8430 C   0  0  0  0  0  0  0  0  0  0  0  0
   -1.0830   22.0620  -27.5760 O   0  0  0  0  0  0  0  0  0  0  0  0
   -2.2040   22.7180  -28.1080 C   0  0  0  0  0  0  0  0  0  0  0  0
   -3.5230   22.3020  -27.8330 C   0  0  0  0  0  0  0  0  0  0  0  0
   -4.6080   22.9850  -28.3930 C   0  0  0  0  0  0  0  0  0  0  0  0
   -4.3920   24.0910  -29.2250 C   0  0  0  0  0  0  0  0  0  0  0  0
   -5.7480   24.9790  -29.9150 S   0  0  0  0  0  0  0  0  0  0  0  0
   -6.1690   26.0450  -28.9450 O   0  0  0  0  0  0  0  0  0  0  0  0
   -5.3570   25.6360  -31.2090 O   0  0  0  0  0  0  0  0  0  0  0  0
   -7.0810   23.9030  -30.1920 N   0  0  0  0  0  0  0  0  0  0  0  0
   -6.9940   22.7780  -30.8330 C   0  0  0  0  0  0  0  0  0  0  0  0
   -8.0650   21.9680  -31.0070 N   0  0  0  0  0  0  0  0  0  0  0  0
   -7.7180   20.8500  -31.6960 C   0  0  0  0  0  0  0  0  0  0  0  0
   -8.6010   19.8210  -32.0230 C   0  0  0  0  0  0  0  0  0  0  0  0
   -8.1090   18.7050  -32.7210 C   0  0  0  0  0  0  0  0  0  0  0  0
   -6.7420   18.6240  -33.0810 C   0  0  0  0  0  0  0  0  0  0  0  0
   -6.1300   17.2030  -33.9250 S   0  0  0  0  0  0  0  0  0  0  0  0
   -7.1920   16.1390  -33.9170 O   0  0  0  0  0  0  0  0  0  0  0  0
   -5.8530   17.5650  -35.3580 O   0  0  0  0  0  0  0  0  0  0  0  0
   -4.6740   16.5610  -33.1940 N   0  0  0  0  0  0  0  0  0  0  0  0
   -3.4750   17.3900  -33.4470 C   0  0  0  0  0  0  0  0  0  0  0  0
   -2.3490   16.6290  -34.1630 C   0  0  0  0  0  0  0  0  0  0  0  0
   -2.9040   15.8150  -35.2560 N   0  0  0  0  0  0  0  0  0  0  0  0
   -1.8180   15.2320  -36.0650 C   0  0  0  0  0  0  0  0  0  0  0  0
   -3.7980   14.7500  -34.7380 C   0  0  0  0  0  0  0  0  0  0  0  0
   -4.5020   15.1130  -33.4100 C   0  0  0  0  0  0  0  0  0  0  0  0
   -5.8720   19.6830  -32.7650 C   0  0  0  0  0  0  0  0  0  0  0  0
   -6.3850   20.7730  -32.0680 C   0  0  0  0  0  0  0  0  0  0  0  0
   -5.5780   22.1410  -31.5290 S   0  0  0  0  0  0  0  0  0  0  0  0
   -3.0810   24.5090  -29.4960 C   0  0  0  0  0  0  0  0  0  0  0  0
   -1.9950   23.8220  -28.9430 C   0  0  0  0  0  0  0  0  0  0  0  0
   -1.1281   21.0639  -25.7652 H   0  0  0  0  0  0  0  0  0  0  0  0
   -2.0615   20.3037  -27.0985 H   0  0  0  0  0  0  0  0  0  0  0  0
   -0.2670   20.2226  -27.0985 H   0  0  0  0  0  0  0  0  0  0  0  0
   -3.6994   21.4376  -27.1760 H   0  0  0  0  0  0  0  0  0  0  0  0
   -5.6344   22.6523  -28.1792 H   0  0  0  0  0  0  0  0  0  0  0  0
   -9.6622   19.8819  -31.7399 H   0  0  0  0  0  0  0  0  0  0  0  0
   -8.7926   17.8863  -32.9903 H   0  0  0  0  0  0  0  0  0  0  0  0
   -3.7686   18.2470  -34.0710 H   0  0  0  0  0  0  0  0  0  0  0  0
   -3.0841   17.7041  -32.4680 H   0  0  0  0  0  0  0  0  0  0  0  0
   -1.6282   17.3499  -34.5762 H   0  0  0  0  0  0  0  0  0  0  0  0
   -1.8460   15.9682  -33.4417 H   0  0  0  0  0  0  0  0  0  0  0  0
   -3.4530   16.4400  -35.8920 H   0  0  0  0  0  0  0  0  0  0  0  0
   -1.0465   14.8179  -35.3992 H   0  0  0  0  0  0  0  0  0  0  0  0
   -2.2234   14.4303  -36.6997 H   0  0  0  0  0  0  0  0  0  0  0  0
   -1.3738   16.0129  -36.6997 H   0  0  0  0  0  0  0  0  0  0  0  0
   -4.5700   14.5475  -35.4950 H   0  0  0  0  0  0  0  0  0  0  0  0
   -3.1653   13.8735  -34.5344 H   0  0  0  0  0  0  0  0  0  0  0  0
   -5.4966   14.6431  -33.4070 H   0  0  0  0  0  0  0  0  0  0  0  0
   -3.8555   14.7468  -32.5989 H   0  0  0  0  0  0  0  0  0  0  0  0
   -4.8131   19.6506  -33.0612 H   0  0  0  0  0  0  0  0  0  0  0  0
   -2.9061   25.3796  -30.1453 H   0  0  0  0  0  0  0  0  0  0  0  0
   -0.9695   24.1517  -29.1659 H   0  0  0  0  0  0  0  0  0  0  0  0
  1  2  1  0
  2  3  1  0
  3  4  2  0
  4  5  1  0
  5  6  2  0
  6  7  1  0
  7  8  2  0
  7  9  2  0
  7 10  1  0
 10 11  2  3
 11 12  1  0
 12 13  1  0
 13 14  2  0
 14 15  1  0
 15 16  2  0
 16 17  1  0
 17 18  2  0
 17 19  2  0
 17 20  1  0
 20 21  1  0
 21 22  1  0
 22 23  1  0
 23 24  1  0
 23 25  1  0
 25 26  1  0
 16 27  1  0
 27 28  2  0
 28 29  1  0
  6 30  1  0
 30 31  2  0
 31  3  1  0
 29 11  1  0
 28 13  1  0
 26 20  1  0
  1 32  1  0
  1 33  1  0
  1 34  1  0
  4 35  1  0
  5 36  1  0
 14 37  1  0
 15 38  1  0
 21 39  1  0
 21 40  1  0
 22 41  1  0
 22 42  1  0
 23 43  1  0
 24 44  1  0
 24 45  1  0
 24 46  1  0
 25 47  1  0
 25 48  1  0
 26 49  1  0
 26 50  1  0
 27 51  1  0
 30 52  1  0
 31 53  1  0
M  CHG  2  12  -1  23   1
M  END
>  <UniqueID>  (32) 
32

>  <SMILES>  (32) 
COc1ccc(S(=O)(=O)N=c2[n-]c3ccc(S(=O)(=O)N4CC[NH+](C)CC4)cc3s2)cc1

>  <Energy>  (32) 
104.299001264054

>  <Genealogy>  (32) 
COc1ccc(S(=O)(=O)N=c2[n-]c3ccc(S(=O)(=O)N4CC[NH+](C)CC4)cc3s2)cc1 (protonated)
COc1ccc(S(=O)(=O)N=c2[n-]c3ccc(S(=O)(=O)N4CC[NH+](C)CC4)cc3s2)cc1 (3D coordinates assigned)
COc1ccc(S(=O)(=O)N=c2[n-]c3ccc(S(=O)(=O)N4CC[NH+](C)CC4)cc3s2)cc1 (nonaromatic ring conformer: 104.299001264054 kcal/mol)

>  <smiles>  (32) 
COc1ccc(S(=O)(=O)N=c2[nH]c3ccc(S(=O)(=O)N4CCN(C)CC4)cc3s2)cc1

>  <score_type>  (32) 
oracle

>  <origin>  (32) 
adgpu

>  <m_score__min__energy>  (32) 
-10.98

>  <m_primary>  (32) 
energy

$$$$
32:0
     RDKit          3D

 42 45  0  0  0  0  0  0  0  0999 V2000
   -9.4860   19.4500  -32.4230 C   0  0  0  0  0  0  0  0  0  0  0  0
   -8.4820   20.4860  -31.9920 C   0  0  0  0  0  0  0  0  0  0  0  0
   -8.8600   21.8370  -31.9650 C   0  0  0  0  0  0  0  0  0  0  0  0
   -7.9410   22.8230  -31.6100 C   0  0  0  0  0  0  0  0  0  0  0  0
   -6.6220   22.4840  -31.2820 C   0  0  0  0  0  0  0  0  0  0  0  0
   -5.6770   23.5240  -30.9770 N   0  0  0  0  0  0  0  0  0  0  0  0
   -5.8990   24.8100  -31.1820 N   0  0  0  0  0  0  0  0  0  0  0  0
   -4.8120   25.4930  -30.8570 N   0  0  0  0  0  0  0  0  0  0  0  0
   -3.8600   24.6640  -30.4510 N   0  0  0  0  0  0  0  0  0  0  0  0
   -4.4040   23.4380  -30.5330 C   0  0  0  0  0  0  0  0  0  0  0  0
   -3.4850   21.9310  -30.1820 S   0  0  0  0  0  0  0  0  0  0  0  0
   -2.5860   21.9070  -31.7730 C   0  0  0  0  0  0  0  0  0  0  0  0
   -2.8030   20.6040  -32.4800 C   0  0  0  0  0  0  0  0  0  0  0  0
   -1.8110   19.6210  -32.4840 C   0  0  0  0  0  0  0  0  0  0  0  0
   -2.0640   18.4060  -33.1230 C   0  0  0  0  0  0  0  0  0  0  0  0
   -1.1660   17.5180  -33.1160 O   0  0  0  0  0  0  0  0  0  0  0  0
   -3.2730   18.1860  -33.7370 N   0  0  0  0  0  0  0  0  0  0  0  0
   -3.5420   16.9860  -34.3470 C   0  0  0  0  0  0  0  0  0  0  0  0
   -4.7770   16.7560  -34.9570 C   0  0  0  0  0  0  0  0  0  0  0  0
   -5.7420   17.7590  -34.9540 C   0  0  0  0  0  0  0  0  0  0  0  0
   -5.4680   18.9790  -34.3420 C   0  0  0  0  0  0  0  0  0  0  0  0
   -4.2270   19.1820  -33.7310 C   0  0  0  0  0  0  0  0  0  0  0  0
   -3.9820   20.3630  -33.1050 N   0  0  0  0  0  0  0  0  0  0  0  0
   -6.2560   21.1300  -31.2430 C   0  0  0  0  0  0  0  0  0  0  0  0
   -7.1740   20.1240  -31.5910 C   0  0  0  0  0  0  0  0  0  0  0  0
   -6.7260   18.6870  -31.5820 C   0  0  0  0  0  0  0  0  0  0  0  0
   -9.9371   18.9845  -31.5343 H   0  0  0  0  0  0  0  0  0  0  0  0
  -10.2722   19.9293  -33.0248 H   0  0  0  0  0  0  0  0  0  0  0  0
   -8.9822   18.6793  -33.0248 H   0  0  0  0  0  0  0  0  0  0  0  0
   -9.8903   22.1204  -32.2262 H   0  0  0  0  0  0  0  0  0  0  0  0
   -8.2544   23.8772  -31.5872 H   0  0  0  0  0  0  0  0  0  0  0  0
   -2.9513   22.7280  -32.4074 H   0  0  0  0  0  0  0  0  0  0  0  0
   -1.5108   22.0292  -31.5754 H   0  0  0  0  0  0  0  0  0  0  0  0
   -0.8445   19.8015  -31.9908 H   0  0  0  0  0  0  0  0  0  0  0  0
   -2.7760   16.1966  -34.3554 H   0  0  0  0  0  0  0  0  0  0  0  0
   -4.9858   15.7884  -35.4368 H   0  0  0  0  0  0  0  0  0  0  0  0
   -6.7173   17.5884  -35.4333 H   0  0  0  0  0  0  0  0  0  0  0  0
   -6.2235   19.7786  -34.3392 H   0  0  0  0  0  0  0  0  0  0  0  0
   -5.2370   20.8520  -30.9360 H   0  0  0  0  0  0  0  0  0  0  0  0
   -6.6187   18.3429  -30.5427 H   0  0  0  0  0  0  0  0  0  0  0  0
   -7.4734   18.0667  -32.0983 H   0  0  0  0  0  0  0  0  0  0  0  0
   -5.7585   18.6013  -32.0983 H   0  0  0  0  0  0  0  0  0  0  0  0
  1  2  1  0
  2  3  2  0
  3  4  1  0
  4  5  2  0
  5  6  1  0
  6  7  1  0
  7  8  2  0
  8  9  1  0
  9 10  2  0
 10 11  1  0
 11 12  1  0
 12 13  1  0
 13 14  2  0
 14 15  1  0
 15 16  2  0
 15 17  1  0
 17 18  1  0
 18 19  2  0
 19 20  1  0
 20 21  2  0
 21 22  1  0
 22 23  2  0
  5 24  1  0
 24 25  2  0
 25 26  1  0
 25  2  1  0
 10  6  1  0
 23 13  1  0
 22 17  1  0
  1 27  1  0
  1 28  1  0
  1 29  1  0
  3 30  1  0
  4 31  1  0
 12 32  1  0
 12 33  1  0
 14 34  1  0
 18 35  1  0
 19 36  1  0
 20 37  1  0
 21 38  1  0
 24 39  1  0
 26 40  1  0
 26 41  1  0
 26 42  1  0
M  END
>  <UniqueID>  (33) 
33

>  <SMILES>  (33) 
Cc1ccc(-n2nnnc2SCc2cc(=O)n3ccccc3n2)cc1C

>  <Energy>  (33) 
85.5155724374968

>  <Genealogy>  (33) 
Cc1ccc(-n2nnnc2SCc2cc(=O)n3ccccc3n2)cc1C (3D coordinates assigned)
Cc1ccc(-n2nnnc2SCc2cc(=O)n3ccccc3n2)cc1C (optimized conformer: 85.5155724374968 kcal/mol)

>  <smiles>  (33) 
Cc1ccc(-n2nnnc2SCc2cc(=O)n3ccccc3n2)cc1C

>  <score_type>  (33) 
oracle

>  <origin>  (33) 
adgpu

>  <m_score__min__energy>  (33) 
-10.25

>  <m_primary>  (33) 
energy

$$$$
33:0
     RDKit          3D

 62 65  0  0  0  0  0  0  0  0999 V2000
   -4.1450   15.6680  -33.9150 C   0  0  0  0  0  0  0  0  0  0  0  0
   -4.3000   17.0270  -34.4580 N   0  0  0  0  0  0  0  0  0  0  0  0
   -3.5160   18.0190  -33.6730 C   0  0  0  0  0  0  0  0  0  0  0  0
   -4.3880   18.8510  -32.7220 C   0  0  0  0  0  0  0  0  0  0  0  0
   -5.4620   19.6370  -33.5040 C   0  0  0  0  0  0  0  0  0  0  0  0
   -6.8300   20.0620  -32.4170 S   0  0  0  0  0  0  0  0  0  0  0  0
   -8.1280   19.9080  -33.1610 O   0  0  0  0  0  0  0  0  0  0  0  0
   -6.8600   19.1190  -31.2460 O   0  0  0  0  0  0  0  0  0  0  0  0
   -6.6300   21.7290  -31.8270 C   0  0  0  0  0  0  0  0  0  0  0  0
   -7.7580   22.5020  -31.4690 C   0  0  0  0  0  0  0  0  0  0  0  0
   -9.3980   21.8610  -31.5230 Cl  0  0  0  0  0  0  0  0  0  0  0  0
   -7.5940   23.8220  -31.0370 C   0  0  0  0  0  0  0  0  0  0  0  0
   -6.3220   24.3760  -30.9250 C   0  0  0  0  0  0  0  0  0  0  0  0
   -5.1900   23.6100  -31.2130 C   0  0  0  0  0  0  0  0  0  0  0  0
   -3.8990   24.2160  -31.0610 N   0  0  0  0  0  0  0  0  0  0  0  0
   -3.0540   24.0700  -29.9150 C   0  0  0  0  0  0  0  0  0  0  0  0
   -2.8330   22.9310  -29.4270 O   0  0  0  0  0  0  0  0  0  0  0  0
   -2.4680   25.2420  -29.3350 N   0  0  0  0  0  0  0  0  0  0  0  0
   -1.8880   25.3610  -28.0270 C   0  0  0  0  0  0  0  0  0  0  0  0
   -2.7230   25.2270  -26.9100 C   0  0  0  0  0  0  0  0  0  0  0  0
   -2.1960   25.2960  -25.6190 C   0  0  0  0  0  0  0  0  0  0  0  0
   -0.8260   25.4820  -25.4300 C   0  0  0  0  0  0  0  0  0  0  0  0
    0.0290   25.5900  -26.5370 C   0  0  0  0  0  0  0  0  0  0  0  0
    1.7710   25.7570  -26.2980 S   0  0  0  0  0  0  0  0  0  0  0  0
    2.4620   25.6840  -27.6320 O   0  0  0  0  0  0  0  0  0  0  0  0
    2.2670   24.6130  -25.4580 O   0  0  0  0  0  0  0  0  0  0  0  0
    2.1860   27.2740  -25.5260 N   0  0  0  0  0  0  0  0  0  0  0  0
    1.9780   27.2080  -24.0760 C   0  0  0  0  0  0  0  0  0  0  0  0
    0.6440   27.8680  -23.7480 C   0  0  0  0  0  0  0  0  0  0  0  0
    0.2000   28.5620  -25.0190 C   0  0  0  0  0  0  0  0  0  0  0  0
    1.3340   28.3630  -26.0120 C   0  0  0  0  0  0  0  0  0  0  0  0
   -0.5040   25.5310  -27.8330 C   0  0  0  0  0  0  0  0  0  0  0  0
   -5.3420   22.2940  -31.6950 C   0  0  0  0  0  0  0  0  0  0  0  0
   -4.2150   21.5660  -32.0600 O   0  0  0  0  0  0  0  0  0  0  0  0
   -5.9520   18.8700  -34.7560 C   0  0  0  0  0  0  0  0  0  0  0  0
   -5.7380   17.3580  -34.6060 C   0  0  0  0  0  0  0  0  0  0  0  0
   -4.1497   15.7096  -32.8158 H   0  0  0  0  0  0  0  0  0  0  0  0
   -4.9771   15.0375  -34.2617 H   0  0  0  0  0  0  0  0  0  0  0  0
   -3.1923   15.2411  -34.2617 H   0  0  0  0  0  0  0  0  0  0  0  0
   -2.7633   17.4804  -33.0785 H   0  0  0  0  0  0  0  0  0  0  0  0
   -3.0517   18.7137  -34.3884 H   0  0  0  0  0  0  0  0  0  0  0  0
   -4.8837   18.1782  -32.0068 H   0  0  0  0  0  0  0  0  0  0  0  0
   -3.7440   19.5684  -32.1923 H   0  0  0  0  0  0  0  0  0  0  0  0
   -5.0006   20.5662  -33.8695 H   0  0  0  0  0  0  0  0  0  0  0  0
   -8.4770   24.4271  -30.7838 H   0  0  0  0  0  0  0  0  0  0  0  0
   -6.2076   25.4231  -30.6079 H   0  0  0  0  0  0  0  0  0  0  0  0
   -3.8020   25.0662  -27.0512 H   0  0  0  0  0  0  0  0  0  0  0  0
   -2.8624   25.2035  -24.7487 H   0  0  0  0  0  0  0  0  0  0  0  0
   -0.4157   25.5440  -24.4113 H   0  0  0  0  0  0  0  0  0  0  0  0
    1.9619   26.1572  -23.7510 H   0  0  0  0  0  0  0  0  0  0  0  0
    2.7944   27.7288  -23.5542 H   0  0  0  0  0  0  0  0  0  0  0  0
   -0.0944   27.1098  -23.4482 H   0  0  0  0  0  0  0  0  0  0  0  0
    0.7392   28.5775  -22.9128 H   0  0  0  0  0  0  0  0  0  0  0  0
   -0.7274   28.1092  -25.3997 H   0  0  0  0  0  0  0  0  0  0  0  0
   -0.0088   29.6285  -24.8484 H   0  0  0  0  0  0  0  0  0  0  0  0
    0.9230   28.1018  -26.9983 H   0  0  0  0  0  0  0  0  0  0  0  0
    1.9203   29.2887  -26.1079 H   0  0  0  0  0  0  0  0  0  0  0  0
    0.1634   25.6181  -28.7031 H   0  0  0  0  0  0  0  0  0  0  0  0
   -7.0247   19.0671  -34.8993 H   0  0  0  0  0  0  0  0  0  0  0  0
   -5.3718   19.2172  -35.6236 H   0  0  0  0  0  0  0  0  0  0  0  0
   -6.2796   17.0065  -33.7154 H   0  0  0  0  0  0  0  0  0  0  0  0
   -6.1155   16.8633  -35.5131 H   0  0  0  0  0  0  0  0  0  0  0  0
  1  2  1  0
  2  3  1  0
  3  4  1  0
  4  5  1  0
  5  6  1  0
  6  7  2  0
  6  8  2  0
  6  9  1  0
  9 10  2  0
 10 11  1  0
 10 12  1  0
 12 13  2  0
 13 14  1  0
 14 15  1  0
 15 16  1  0
 16 17  2  0
 16 18  1  0
 18 19  1  0
 19 20  2  0
 20 21  1  0
 21 22  2  0
 22 23  1  0
 23 24  1  0
 24 25  2  0
 24 26  2  0
 24 27  1  0
 27 28  1  0
 28 29  1  0
 29 30  1  0
 30 31  1  0
 23 32  2  0
 14 33  2  0
 33 34  1  0
  5 35  1  0
 35 36  1  0
 36  2  1  0
 33  9  1  0
 32 19  1  0
 31 27  1  0
  1 37  1  0
  1 38  1  0
  1 39  1  0
  3 40  1  0
  3 41  1  0
  4 42  1  0
  4 43  1  0
  5 44  1  0
 12 45  1  0
 13 46  1  0
 20 47  1  0
 21 48  1  0
 22 49  1  0
 28 50  1  0
 28 51  1  0
 29 52  1  0
 29 53  1  0
 30 54  1  0
 30 55  1  0
 31 56  1  0
 31 57  1  0
 32 58  1  0
 35 59  1  0
 35 60  1  0
 36 61  1  0
 36 62  1  0
M  CHG  3  15  -1  18  -1  34  -1
M  END
>  <UniqueID>  (34) 
34

>  <SMILES>  (34) 
CN1CCC(S(=O)(=O)c2c(Cl)ccc([N-]C(=O)[N-]c3cccc(S(=O)(=O)N4CCCC4)c3)c2[O-])CC1

>  <Energy>  (34) 
80.98195389814094

>  <Genealogy>  (34) 
CN1CCC(S(=O)(=O)c2c(Cl)ccc([N-]C(=O)[N-]c3cccc(S(=O)(=O)N4CCCC4)c3)c2[O-])CC1 (protonated)
CN1CCC(S(=O)(=O)c2c(Cl)ccc([N-]C(=O)[N-]c3cccc(S(=O)(=O)N4CCCC4)c3)c2[O-])CC1 (3D coordinates assigned)
CN1CCC(S(=O)(=O)c2c(Cl)ccc([N-]C(=O)[N-]c3cccc(S(=O)(=O)N4CCCC4)c3)c2[O-])CC1 (nonaromatic ring conformer: 80.98195389814094 kcal/mol)

>  <smiles>  (34) 
CN1CCC(S(=O)(=O)c2c(Cl)ccc(NC(=O)Nc3cccc(S(=O)(=O)N4CCCC4)c3)c2O)CC1

>  <score_type>  (34) 
oracle

>  <origin>  (34) 
adgpu

>  <m_score__min__energy>  (34) 
-17.300000000000001

>  <m_primary>  (34) 
energy

$$$$
34:0
     RDKit          3D

 42 43  0  0  0  0  0  0  0  0999 V2000
   -7.0340   23.8050  -30.0900 C   0  0  0  0  0  0  0  0  0  0  0  0
   -6.0140   24.8840  -29.7360 C   0  0  0  0  0  0  0  0  0  0  0  0
   -4.7130   24.6720  -30.4640 C   0  0  0  0  0  0  0  0  0  0  0  0
   -4.7190   24.0350  -31.5510 O   0  0  0  0  0  0  0  0  0  0  0  0
   -3.4880   25.2800  -30.0320 N   0  0  0  0  0  0  0  0  0  0  0  0
   -2.6750   24.8780  -28.9220 C   0  0  0  0  0  0  0  0  0  0  0  0
   -2.9210   23.6840  -28.2230 C   0  0  0  0  0  0  0  0  0  0  0  0
   -2.0920   23.3030  -27.1640 C   0  0  0  0  0  0  0  0  0  0  0  0
   -0.9930   24.0970  -26.8080 C   0  0  0  0  0  0  0  0  0  0  0  0
    0.0260   23.6230  -25.4510 S   0  0  0  0  0  0  0  0  0  0  0  0
    1.3880   23.2210  -25.9510 O   0  0  0  0  0  0  0  0  0  0  0  0
   -0.6010   22.4380  -24.7680 O   0  0  0  0  0  0  0  0  0  0  0  0
    0.1700   24.9490  -24.3220 N   0  0  0  0  0  0  0  0  0  0  0  0
   -1.0930   25.7230  -24.2950 C   0  0  0  0  0  0  0  0  0  0  0  0
   -0.8670   27.1370  -23.7420 C   0  0  0  0  0  0  0  0  0  0  0  0
    0.1000   27.9150  -24.5560 N   0  0  0  0  0  0  0  0  0  0  0  0
   -0.5850   28.8940  -25.4140 C   0  0  0  0  0  0  0  0  0  0  0  0
    1.0090   27.0710  -25.3650 C   0  0  0  0  0  0  0  0  0  0  0  0
    1.3680   25.7750  -24.6250 C   0  0  0  0  0  0  0  0  0  0  0  0
   -0.7320   25.2760  -27.5200 C   0  0  0  0  0  0  0  0  0  0  0  0
   -1.5620   25.6560  -28.5790 C   0  0  0  0  0  0  0  0  0  0  0  0
   -7.4442   23.3710  -29.1662 H   0  0  0  0  0  0  0  0  0  0  0  0
   -7.8491   24.2502  -30.6794 H   0  0  0  0  0  0  0  0  0  0  0  0
   -6.5437   23.0162  -30.6794 H   0  0  0  0  0  0  0  0  0  0  0  0
   -6.4226   25.8671  -30.0128 H   0  0  0  0  0  0  0  0  0  0  0  0
   -5.8175   24.8325  -28.6549 H   0  0  0  0  0  0  0  0  0  0  0  0
   -3.7699   23.0462  -28.5105 H   0  0  0  0  0  0  0  0  0  0  0  0
   -2.3027   22.3773  -26.6083 H   0  0  0  0  0  0  0  0  0  0  0  0
    0.3060   24.5190  -23.3760 H   0  0  0  0  0  0  0  0  0  0  0  0
   -1.4900   25.7973  -25.3182 H   0  0  0  0  0  0  0  0  0  0  0  0
   -1.8060   25.2026  -23.6386 H   0  0  0  0  0  0  0  0  0  0  0  0
   -1.8291   27.6701  -23.7313 H   0  0  0  0  0  0  0  0  0  0  0  0
   -0.4497   27.0382  -22.7290 H   0  0  0  0  0  0  0  0  0  0  0  0
   -1.1025   29.6337  -24.7855 H   0  0  0  0  0  0  0  0  0  0  0  0
    0.1535   29.4051  -26.0491 H   0  0  0  0  0  0  0  0  0  0  0  0
   -1.3182   28.3753  -26.0491 H   0  0  0  0  0  0  0  0  0  0  0  0
    0.5136   26.8171  -26.3137 H   0  0  0  0  0  0  0  0  0  0  0  0
    1.9353   27.6346  -25.5501 H   0  0  0  0  0  0  0  0  0  0  0  0
    2.0535   25.1871  -25.2531 H   0  0  0  0  0  0  0  0  0  0  0  0
    1.8369   26.0517  -23.6692 H   0  0  0  0  0  0  0  0  0  0  0  0
    0.1282   25.9039  -27.2448 H   0  0  0  0  0  0  0  0  0  0  0  0
   -1.3395   26.5717  -29.1464 H   0  0  0  0  0  0  0  0  0  0  0  0
  1  2  1  0
  2  3  1  0
  3  4  2  0
  3  5  1  0
  5  6  1  0
  6  7  2  0
  7  8  1  0
  8  9  2  0
  9 10  1  0
 10 11  2  0
 10 12  2  0
 10 13  1  0
 13 14  1  0
 14 15  1  0
 15 16  1  0
 16 17  1  0
 16 18  1  0
 18 19  1  0
  9 20  1  0
 20 21  2  0
 21  6  1  0
 19 13  1  0
  1 22  1  0
  1 23  1  0
  1 24  1  0
  2 25  1  0
  2 26  1  0
  7 27  1  0
  8 28  1  0
 13 29  1  0
 14 30  1  0
 14 31  1  0
 15 32  1  0
 15 33  1  0
 17 34  1  0
 17 35  1  0
 17 36  1  0
 18 37  1  0
 18 38  1  0
 19 39  1  0
 19 40  1  0
 20 41  1  0
 21 42  1  0
M  CHG  2   5  -1  13   1
M  END
>  <UniqueID>  (35) 
35

>  <SMILES>  (35) 
CCC(=O)[N-]c1ccc(S(=O)(=O)[NH+]2CCN(C)CC2)cc1

>  <Energy>  (35) 
52.42314370992998

>  <Genealogy>  (35) 
CCC(=O)[N-]c1ccc(S(=O)(=O)[NH+]2CCN(C)CC2)cc1 (protonated)
CCC(=O)[N-]c1ccc(S(=O)(=O)[NH+]2CCN(C)CC2)cc1 (3D coordinates assigned)
CCC(=O)[N-]c1ccc(S(=O)(=O)[NH+]2CCN(C)CC2)cc1 (nonaromatic ring conformer: 52.42314370992998 kcal/mol)

>  <smiles>  (35) 
CCC(=O)Nc1ccc(S(=O)(=O)N2CCN(C)CC2)cc1

>  <score_type>  (35) 
oracle

>  <origin>  (35) 
adgpu

>  <m_score__min__energy>  (35) 
-9.5099999999999998

>  <m_primary>  (35) 
energy

$$$$
35:0
     RDKit          3D

 26 27  0  0  0  0  0  0  0  0999 V2000
   -5.0590   20.0410  -31.7820 C   0  0  0  0  0  0  0  0  0  0  0  0
   -4.7560   21.4540  -31.3800 C   0  0  0  0  0  0  0  0  0  0  0  0
   -5.7340   22.4500  -31.5090 C   0  0  0  0  0  0  0  0  0  0  0  0
   -5.4400   23.7720  -31.1700 C   0  0  0  0  0  0  0  0  0  0  0  0
   -4.1610   24.1170  -30.7140 C   0  0  0  0  0  0  0  0  0  0  0  0
   -3.8690   25.4380  -30.3800 O   0  0  0  0  0  0  0  0  0  0  0  0
   -3.1660   23.1330  -30.5990 C   0  0  0  0  0  0  0  0  0  0  0  0
   -1.8610   23.5220  -30.1440 N   0  0  0  0  0  0  0  0  0  0  0  0
   -1.5380   24.5830  -28.8100 S   0  0  0  0  0  0  0  0  0  0  0  0
   -1.2200   25.9530  -29.3380 O   0  0  0  0  0  0  0  0  0  0  0  0
   -2.7550   24.6620  -27.9320 O   0  0  0  0  0  0  0  0  0  0  0  0
   -0.1670   23.9920  -27.8920 C   0  0  0  0  0  0  0  0  0  0  0  0
   -0.1810   22.9400  -27.0110 C   0  0  0  0  0  0  0  0  0  0  0  0
    1.0490   22.7970  -26.4910 N   0  0  0  0  0  0  0  0  0  0  0  0
    1.7730   23.7750  -27.0800 C   0  0  0  0  0  0  0  0  0  0  0  0
    1.0630   24.5300  -27.9450 N   0  0  0  0  0  0  0  0  0  0  0  0
   -3.4700   21.8010  -30.9370 C   0  0  0  0  0  0  0  0  0  0  0  0
   -5.1913   19.4238  -30.8811 H   0  0  0  0  0  0  0  0  0  0  0  0
   -5.9821   20.0198  -32.3798 H   0  0  0  0  0  0  0  0  0  0  0  0
   -4.2257   19.6432  -32.3798 H   0  0  0  0  0  0  0  0  0  0  0  0
   -6.7366   22.1890  -31.8786 H   0  0  0  0  0  0  0  0  0  0  0  0
   -6.2160   24.5462  -31.2613 H   0  0  0  0  0  0  0  0  0  0  0  0
   -3.0630   25.6770  -29.8130 H   0  0  0  0  0  0  0  0  0  0  0  0
   -1.0550   22.3169  -26.7705 H   0  0  0  0  0  0  0  0  0  0  0  0
    2.8408   23.9401  -26.8737 H   0  0  0  0  0  0  0  0  0  0  0  0
   -2.6939   21.0260  -30.8534 H   0  0  0  0  0  0  0  0  0  0  0  0
  1  2  1  0
  2  3  2  0
  3  4  1  0
  4  5  2  0
  5  6  1  0
  5  7  1  0
  7  8  1  0
  8  9  1  0
  9 10  2  0
  9 11  2  0
  9 12  1  0
 12 13  2  0
 13 14  1  0
 14 15  1  0
 15 16  2  0
  7 17  2  0
 17  2  1  0
 16 12  1  0
  1 18  1  0
  1 19  1  0
  1 20  1  0
  3 21  1  0
  4 22  1  0
  6 23  1  0
 13 24  1  0
 15 25  1  0
 17 26  1  0
M  CHG  2   8  -1  14  -1
M  END
>  <UniqueID>  (36) 
36

>  <SMILES>  (36) 
Cc1ccc(O)c([N-]S(=O)(=O)c2c[n-]cn2)c1

>  <Energy>  (36) 
56.04562638968283

>  <Genealogy>  (36) 
Cc1ccc(O)c([N-]S(=O)(=O)c2c[n-]cn2)c1 (protonated)
Cc1ccc(O)c([N-]S(=O)(=O)c2c[n-]cn2)c1 (3D coordinates assigned)
Cc1ccc(O)c([N-]S(=O)(=O)c2c[n-]cn2)c1 (optimized conformer: 56.04562638968283 kcal/mol)

>  <smiles>  (36) 
Cc1ccc(O)c(NS(=O)(=O)c2c[nH]cn2)c1

>  <score_type>  (36) 
oracle

>  <origin>  (36) 
adgpu

>  <m_score__min__energy>  (36) 
-9.0999999999999996

>  <m_primary>  (36) 
energy

$$$$
36:0
     RDKit          3D

 54 57  0  0  0  0  0  0  0  0999 V2000
   -2.4860   22.2530  -31.2870 C   0  0  0  0  0  0  0  0  0  0  0  0
   -3.9790   22.2150  -31.1980 C   0  0  0  0  0  0  0  0  0  0  0  0
   -4.7040   21.1360  -31.5470 N   0  0  0  0  0  0  0  0  0  0  0  0
   -5.9830   21.4260  -31.3650 N   0  0  0  0  0  0  0  0  0  0  0  0
   -7.0360   20.5040  -31.6960 C   0  0  0  0  0  0  0  0  0  0  0  0
   -8.3040   20.9920  -32.0540 C   0  0  0  0  0  0  0  0  0  0  0  0
   -9.3450   20.1040  -32.3440 C   0  0  0  0  0  0  0  0  0  0  0  0
   -9.1320   18.7240  -32.2600 C   0  0  0  0  0  0  0  0  0  0  0  0
   -7.8820   18.2310  -31.8770 C   0  0  0  0  0  0  0  0  0  0  0  0
   -6.8380   19.1160  -31.5900 C   0  0  0  0  0  0  0  0  0  0  0  0
   -6.0990   22.6860  -30.8770 C   0  0  0  0  0  0  0  0  0  0  0  0
   -7.3880   23.3510  -30.4770 C   0  0  0  0  0  0  0  0  0  0  0  0
   -4.8250   23.2370  -30.7780 C   0  0  0  0  0  0  0  0  0  0  0  0
   -4.4520   24.6030  -30.3440 C   0  0  0  0  0  0  0  0  0  0  0  0
   -5.3330   25.4980  -30.2560 O   0  0  0  0  0  0  0  0  0  0  0  0
   -3.0780   24.9230  -30.0920 N   0  0  0  0  0  0  0  0  0  0  0  0
   -2.3610   24.7010  -28.8700 C   0  0  0  0  0  0  0  0  0  0  0  0
   -0.9660   24.5930  -28.9200 C   0  0  0  0  0  0  0  0  0  0  0  0
   -0.2310   24.3570  -27.7560 C   0  0  0  0  0  0  0  0  0  0  0  0
   -0.8860   24.2120  -26.5240 C   0  0  0  0  0  0  0  0  0  0  0  0
    0.0450   23.9150  -25.0500 S   0  0  0  0  0  0  0  0  0  0  0  0
   -0.6410   22.8460  -24.2460 O   0  0  0  0  0  0  0  0  0  0  0  0
    1.4100   23.4110  -25.4300 O   0  0  0  0  0  0  0  0  0  0  0  0
    0.2210   25.3500  -24.0690 N   0  0  0  0  0  0  0  0  0  0  0  0
    1.4400   26.0970  -24.3850 C   0  0  0  0  0  0  0  0  0  0  0  0
    1.1770   27.5410  -23.9830 C   0  0  0  0  0  0  0  0  0  0  0  0
   -0.3390   27.6750  -23.9170 C   0  0  0  0  0  0  0  0  0  0  0  0
   -0.8840   26.2940  -24.2550 C   0  0  0  0  0  0  0  0  0  0  0  0
   -2.2860   24.2800  -26.4770 C   0  0  0  0  0  0  0  0  0  0  0  0
   -3.0200   24.5260  -27.6410 C   0  0  0  0  0  0  0  0  0  0  0  0
   -2.0584   22.2639  -30.2736 H   0  0  0  0  0  0  0  0  0  0  0  0
   -2.1281   21.3637  -31.8264 H   0  0  0  0  0  0  0  0  0  0  0  0
   -2.1738   23.1594  -31.8264 H   0  0  0  0  0  0  0  0  0  0  0  0
   -8.4787   22.0768  -32.1064 H   0  0  0  0  0  0  0  0  0  0  0  0
  -10.3317   20.4910  -32.6383 H   0  0  0  0  0  0  0  0  0  0  0  0
   -9.9492   18.0264  -32.4956 H   0  0  0  0  0  0  0  0  0  0  0  0
   -7.7190   17.1458  -31.8012 H   0  0  0  0  0  0  0  0  0  0  0  0
   -5.8578   18.7247  -31.2800 H   0  0  0  0  0  0  0  0  0  0  0  0
   -7.4571   23.3866  -29.3798 H   0  0  0  0  0  0  0  0  0  0  0  0
   -7.4129   24.3745  -30.8794 H   0  0  0  0  0  0  0  0  0  0  0  0
   -8.2364   22.7781  -30.8794 H   0  0  0  0  0  0  0  0  0  0  0  0
   -0.4449   24.6948  -29.8834 H   0  0  0  0  0  0  0  0  0  0  0  0
    0.8655   24.2846  -27.8055 H   0  0  0  0  0  0  0  0  0  0  0  0
    0.2520   25.0560  -23.0630 H   0  0  0  0  0  0  0  0  0  0  0  0
    2.2913   25.6933  -23.8172 H   0  0  0  0  0  0  0  0  0  0  0  0
    1.6884   26.0201  -25.4538 H   0  0  0  0  0  0  0  0  0  0  0  0
    1.6250   27.7545  -23.0013 H   0  0  0  0  0  0  0  0  0  0  0  0
    1.6188   28.2507  -24.6979 H   0  0  0  0  0  0  0  0  0  0  0  0
   -0.6548   27.9765  -22.9074 H   0  0  0  0  0  0  0  0  0  0  0  0
   -0.7117   28.4423  -24.6115 H   0  0  0  0  0  0  0  0  0  0  0  0
   -1.7171   26.0400  -23.5831 H   0  0  0  0  0  0  0  0  0  0  0  0
   -1.2652   26.2598  -25.2863 H   0  0  0  0  0  0  0  0  0  0  0  0
   -2.8090   24.1391  -25.5196 H   0  0  0  0  0  0  0  0  0  0  0  0
   -4.1176   24.5828  -27.5949 H   0  0  0  0  0  0  0  0  0  0  0  0
  1  2  1  0
  2  3  2  0
  3  4  1  0
  4  5  1  0
  5  6  2  0
  6  7  1  0
  7  8  2  0
  8  9  1  0
  9 10  2  0
  4 11  1  0
 11 12  1  0
 11 13  2  0
 13 14  1  0
 14 15  2  0
 14 16  1  0
 16 17  1  0
 17 18  2  0
 18 19  1  0
 19 20  2  0
 20 21  1  0
 21 22  2  0
 21 23  2  0
 21 24  1  0
 24 25  1  0
 25 26  1  0
 26 27  1  0
 27 28  1  0
 20 29  1  0
 29 30  2  0
 13  2  1  0
 30 17  1  0
 10  5  1  0
 28 24  1  0
  1 31  1  0
  1 32  1  0
  1 33  1  0
  6 34  1  0
  7 35  1  0
  8 36  1  0
  9 37  1  0
 10 38  1  0
 12 39  1  0
 12 40  1  0
 12 41  1  0
 18 42  1  0
 19 43  1  0
 24 44  1  0
 25 45  1  0
 25 46  1  0
 26 47  1  0
 26 48  1  0
 27 49  1  0
 27 50  1  0
 28 51  1  0
 28 52  1  0
 29 53  1  0
 30 54  1  0
M  CHG  2  16  -1  24   1
M  END
>  <UniqueID>  (37) 
37

>  <SMILES>  (37) 
Cc1nn(-c2ccccc2)c(C)c1C(=O)[N-]c1ccc(S(=O)(=O)[NH+]2CCCC2)cc1

>  <Energy>  (37) 
97.36179606353546

>  <Genealogy>  (37) 
Cc1nn(-c2ccccc2)c(C)c1C(=O)[N-]c1ccc(S(=O)(=O)[NH+]2CCCC2)cc1 (protonated)
Cc1nn(-c2ccccc2)c(C)c1C(=O)[N-]c1ccc(S(=O)(=O)[NH+]2CCCC2)cc1 (3D coordinates assigned)
Cc1nn(-c2ccccc2)c(C)c1C(=O)[N-]c1ccc(S(=O)(=O)[NH+]2CCCC2)cc1 (nonaromatic ring conformer: 97.36179606353546 kcal/mol)

>  <smiles>  (37) 
Cc1nn(-c2ccccc2)c(C)c1C(=O)Nc1ccc(S(=O)(=O)N2CCCC2)cc1

>  <score_type>  (37) 
oracle

>  <origin>  (37) 
adgpu

>  <m_score__min__energy>  (37) 
-12.140000000000001

>  <m_primary>  (37) 
energy

$$$$
37:0
     RDKit          3D

 35 37  0  0  0  0  0  0  0  0999 V2000
   -5.6970   25.2790  -29.8910 C   0  0  0  0  0  0  0  0  0  0  0  0
   -4.6900   24.1710  -30.0050 C   0  0  0  0  0  0  0  0  0  0  0  0
   -4.4570   23.6390  -31.2340 N   0  0  0  0  0  0  0  0  0  0  0  0
   -3.5580   22.6430  -31.4140 C   0  0  0  0  0  0  0  0  0  0  0  0
   -3.3300   21.9170  -33.0370 S   0  0  0  0  0  0  0  0  0  0  0  0
   -3.8900   20.2480  -32.5410 C   0  0  0  0  0  0  0  0  0  0  0  0
   -5.3870   20.1780  -32.4780 C   0  0  0  0  0  0  0  0  0  0  0  0
   -6.0490   18.9360  -32.5000 C   0  0  0  0  0  0  0  0  0  0  0  0
   -7.4410   18.9070  -32.3430 C   0  0  0  0  0  0  0  0  0  0  0  0
   -8.0580   17.8080  -32.3540 O   0  0  0  0  0  0  0  0  0  0  0  0
   -8.1080   20.0820  -32.1710 N   0  0  0  0  0  0  0  0  0  0  0  0
   -9.4470   20.2410  -31.9840 C   0  0  0  0  0  0  0  0  0  0  0  0
   -9.8440   21.5680  -31.8180 C   0  0  0  0  0  0  0  0  0  0  0  0
   -8.4750   22.5610  -31.9090 S   0  0  0  0  0  0  0  0  0  0  0  0
   -7.4480   21.2600  -32.1590 C   0  0  0  0  0  0  0  0  0  0  0  0
   -6.1030   21.3250  -32.3050 N   0  0  0  0  0  0  0  0  0  0  0  0
   -2.8530   22.1660  -30.3590 N   0  0  0  0  0  0  0  0  0  0  0  0
   -3.0410   22.6460  -29.1030 C   0  0  0  0  0  0  0  0  0  0  0  0
   -2.2330   22.0450  -27.9900 C   0  0  0  0  0  0  0  0  0  0  0  0
   -4.0070   23.6540  -28.8770 C   0  0  0  0  0  0  0  0  0  0  0  0
   -4.2420   24.2160  -27.4930 C   0  0  0  0  0  0  0  0  0  0  0  0
   -5.8899   25.4913  -28.8291 H   0  0  0  0  0  0  0  0  0  0  0  0
   -5.3047   26.1828  -30.3802 H   0  0  0  0  0  0  0  0  0  0  0  0
   -6.6340   24.9746  -30.3802 H   0  0  0  0  0  0  0  0  0  0  0  0
   -3.5265   19.5140  -33.2752 H   0  0  0  0  0  0  0  0  0  0  0  0
   -3.4872   20.0267  -31.5416 H   0  0  0  0  0  0  0  0  0  0  0  0
   -5.4826   18.0032  -32.6382 H   0  0  0  0  0  0  0  0  0  0  0  0
  -10.1533   19.3979  -31.9654 H   0  0  0  0  0  0  0  0  0  0  0  0
  -10.8758   21.9125  -31.6549 H   0  0  0  0  0  0  0  0  0  0  0  0
   -2.6527   22.3572  -27.0223 H   0  0  0  0  0  0  0  0  0  0  0  0
   -2.2631   20.9480  -28.0660 H   0  0  0  0  0  0  0  0  0  0  0  0
   -1.1911   22.3893  -28.0660 H   0  0  0  0  0  0  0  0  0  0  0  0
   -3.9328   23.4765  -26.7396 H   0  0  0  0  0  0  0  0  0  0  0  0
   -3.6535   25.1366  -27.3663 H   0  0  0  0  0  0  0  0  0  0  0  0
   -5.3107   24.4437  -27.3663 H   0  0  0  0  0  0  0  0  0  0  0  0
  1  2  1  0
  2  3  2  0
  3  4  1  0
  4  5  1  0
  5  6  1  0
  6  7  1  0
  7  8  2  0
  8  9  1  0
  9 10  2  0
  9 11  1  0
 11 12  1  0
 12 13  2  0
 13 14  1  0
 14 15  1  0
 15 16  2  0
  4 17  2  0
 17 18  1  0
 18 19  1  0
 18 20  2  0
 20 21  1  0
 20  2  1  0
 16  7  1  0
 15 11  1  0
  1 22  1  0
  1 23  1  0
  1 24  1  0
  6 25  1  0
  6 26  1  0
  8 27  1  0
 12 28  1  0
 13 29  1  0
 19 30  1  0
 19 31  1  0
 19 32  1  0
 21 33  1  0
 21 34  1  0
 21 35  1  0
M  END
>  <UniqueID>  (38) 
38

>  <SMILES>  (38) 
Cc1nc(SCc2cc(=O)n3ccsc3n2)nc(C)c1C

>  <Energy>  (38) 
66.97391759621524

>  <Genealogy>  (38) 
Cc1nc(SCc2cc(=O)n3ccsc3n2)nc(C)c1C (3D coordinates assigned)
Cc1nc(SCc2cc(=O)n3ccsc3n2)nc(C)c1C (optimized conformer: 66.97391759621524 kcal/mol)

>  <smiles>  (38) 
Cc1nc(SCc2cc(=O)n3ccsc3n2)nc(C)c1C

>  <score_type>  (38) 
oracle

>  <origin>  (38) 
adgpu

>  <m_score__min__energy>  (38) 
-7.6399999999999997

>  <m_primary>  (38) 
energy

$$$$
38:0
     RDKit          3D

 57 60  0  0  0  0  0  0  0  0999 V2000
   -0.7410   24.8720  -26.6730 C   0  0  0  0  0  0  0  0  0  0  0  0
   -0.0660   23.9310  -27.6230 C   0  0  0  0  0  0  0  0  0  0  0  0
    0.8630   24.3650  -28.3560 O   0  0  0  0  0  0  0  0  0  0  0  0
   -0.5120   22.5660  -27.7580 N   0  0  0  0  0  0  0  0  0  0  0  0
   -0.3620   21.6440  -26.6240 C   0  0  0  0  0  0  0  0  0  0  0  0
   -1.6520   20.8490  -26.4300 C   0  0  0  0  0  0  0  0  0  0  0  0
   -1.9840   20.0500  -27.6920 C   0  0  0  0  0  0  0  0  0  0  0  0
   -1.9050   20.8930  -28.9420 C   0  0  0  0  0  0  0  0  0  0  0  0
   -2.5160   20.4250  -30.1150 C   0  0  0  0  0  0  0  0  0  0  0  0
   -2.3880   21.1320  -31.3160 C   0  0  0  0  0  0  0  0  0  0  0  0
   -3.1710   20.5550  -32.7860 S   0  0  0  0  0  0  0  0  0  0  0  0
   -2.1590   19.8600  -33.6550 O   0  0  0  0  0  0  0  0  0  0  0  0
   -3.7160   21.7370  -33.5380 O   0  0  0  0  0  0  0  0  0  0  0  0
   -4.4640   19.4580  -32.3490 N   0  0  0  0  0  0  0  0  0  0  0  0
   -4.9250   18.6730  -33.5230 C   0  0  0  0  0  0  0  0  0  0  0  0
   -6.4530   18.6390  -33.6820 C   0  0  0  0  0  0  0  0  0  0  0  0
   -7.0240   20.0610  -33.6920 C   0  0  0  0  0  0  0  0  0  0  0  0
   -6.4960   20.9280  -32.5190 C   0  0  1  0  0  0  0  0  0  0  0  0
   -7.6410   21.5090  -31.7160 C   0  0  0  0  0  0  0  0  0  0  0  0
   -8.8150   21.1100  -31.9500 O   0  0  0  0  0  0  0  0  0  0  0  0
   -7.4580   22.6090  -30.8120 N   0  0  0  0  0  0  0  0  0  0  0  0
   -6.2200   23.2590  -30.4860 C   0  0  0  0  0  0  0  0  0  0  0  0
   -5.8830   24.4470  -31.1460 C   0  0  0  0  0  0  0  0  0  0  0  0
   -4.6970   25.1200  -30.8270 C   0  0  0  0  0  0  0  0  0  0  0  0
   -3.8520   24.6180  -29.8320 C   0  0  0  0  0  0  0  0  0  0  0  0
   -2.6770   25.2880  -29.5140 O   0  0  0  0  0  0  0  0  0  0  0  0
   -4.1950   23.4470  -29.1510 C   0  0  0  0  0  0  0  0  0  0  0  0
   -5.3800   22.7760  -29.4650 C   0  0  0  0  0  0  0  0  0  0  0  0
   -5.5360   20.1440  -31.5960 C   0  0  0  0  0  0  0  0  0  0  0  0
   -1.6360   22.3100  -31.3480 C   0  0  0  0  0  0  0  0  0  0  0  0
   -1.0130   22.7800  -30.1910 C   0  0  0  0  0  0  0  0  0  0  0  0
   -1.1490   22.0890  -28.9700 C   0  0  0  0  0  0  0  0  0  0  0  0
   -0.5228   24.5679  -25.6386 H   0  0  0  0  0  0  0  0  0  0  0  0
   -0.3681   25.8931  -26.8414 H   0  0  0  0  0  0  0  0  0  0  0  0
   -1.8277   24.8461  -26.8414 H   0  0  0  0  0  0  0  0  0  0  0  0
    0.4679   20.9504  -26.8245 H   0  0  0  0  0  0  0  0  0  0  0  0
   -0.1502   22.2212  -25.7119 H   0  0  0  0  0  0  0  0  0  0  0  0
   -1.5264   20.1558  -25.5852 H   0  0  0  0  0  0  0  0  0  0  0  0
   -2.4747   21.5501  -26.2261 H   0  0  0  0  0  0  0  0  0  0  0  0
   -1.2707   19.2174  -27.7813 H   0  0  0  0  0  0  0  0  0  0  0  0
   -3.0175   19.6855  -27.5970 H   0  0  0  0  0  0  0  0  0  0  0  0
   -3.1010   19.4938  -30.0905 H   0  0  0  0  0  0  0  0  0  0  0  0
   -4.4913   19.1183  -34.4305 H   0  0  0  0  0  0  0  0  0  0  0  0
   -4.5950   17.6355  -33.3656 H   0  0  0  0  0  0  0  0  0  0  0  0
   -6.7073   18.1403  -34.6289 H   0  0  0  0  0  0  0  0  0  0  0  0
   -6.8864   18.0879  -32.8344 H   0  0  0  0  0  0  0  0  0  0  0  0
   -6.7459   20.5449  -34.6399 H   0  0  0  0  0  0  0  0  0  0  0  0
   -8.1154   19.9809  -33.5801 H   0  0  0  0  0  0  0  0  0  0  0  0
   -5.9221   21.7523  -32.9675 H   0  0  0  0  0  0  0  0  0  0  0  0
   -6.5526   24.8534  -31.9183 H   0  0  0  0  0  0  0  0  0  0  0  0
   -4.4297   26.0446  -31.3597 H   0  0  0  0  0  0  0  0  0  0  0  0
   -3.5316   23.0530  -28.3670 H   0  0  0  0  0  0  0  0  0  0  0  0
   -5.6575   21.8665  -28.9119 H   0  0  0  0  0  0  0  0  0  0  0  0
   -5.0750   20.8473  -30.8868 H   0  0  0  0  0  0  0  0  0  0  0  0
   -6.1252   19.3746  -31.0756 H   0  0  0  0  0  0  0  0  0  0  0  0
   -1.5348   22.8693  -32.2898 H   0  0  0  0  0  0  0  0  0  0  0  0
   -0.4098   23.6989  -30.2323 H   0  0  0  0  0  0  0  0  0  0  0  0
  1  2  1  0
  2  3  2  0
  2  4  1  0
  4  5  1  0
  5  6  1  0
  6  7  1  0
  7  8  1  0
  8  9  2  0
  9 10  1  0
 10 11  1  0
 11 12  2  0
 11 13  2  0
 11 14  1  0
 14 15  1  0
 15 16  1  0
 16 17  1  0
 17 18  1  0
 18 19  1  0
 19 20  2  0
 19 21  1  0
 21 22  1  0
 22 23  2  0
 23 24  1  0
 24 25  2  0
 25 26  1  0
 25 27  1  0
 27 28  2  0
 18 29  1  0
 10 30  2  0
 30 31  1  0
 31 32  2  0
 32  4  1  0
 32  8  1  0
 29 14  1  0
 28 22  1  0
  1 33  1  0
  1 34  1  0
  1 35  1  0
  5 36  1  0
  5 37  1  0
  6 38  1  0
  6 39  1  0
  7 40  1  0
  7 41  1  0
  9 42  1  0
 15 43  1  0
 15 44  1  0
 16 45  1  0
 16 46  1  0
 17 47  1  0
 17 48  1  0
 18 49  1  6
 23 50  1  0
 24 51  1  0
 27 52  1  0
 28 53  1  0
 29 54  1  0
 29 55  1  0
 30 56  1  0
 31 57  1  0
M  CHG  2  21  -1  26  -1
M  END
>  <UniqueID>  (39) 
39

>  <SMILES>  (39) 
CC(=O)N1CCCc2cc(S(=O)(=O)N3CCC[C@@H](C(=O)[N-]c4ccc([O-])cc4)C3)ccc21

>  <Energy>  (39) 
77.04446929327555

>  <Genealogy>  (39) 
CC(=O)N1CCCc2cc(S(=O)(=O)N3CCCC(C(=O)[N-]c4ccc([O-])cc4)C3)ccc21 (protonated)
CC(=O)N1CCCc2cc(S(=O)(=O)N3CCC[C@@H](C(=O)[N-]c4ccc([O-])cc4)C3)ccc21 (chirality)
CC(=O)N1CCCc2cc(S(=O)(=O)N3CCC[C@@H](C(=O)[N-]c4ccc([O-])cc4)C3)ccc21 (3D coordinates assigned)
CC(=O)N1CCCc2cc(S(=O)(=O)N3CCC[C@@H](C(=O)[N-]c4ccc([O-])cc4)C3)ccc21 (nonaromatic ring conformer: 77.04446929327555 kcal/mol)

>  <smiles>  (39) 
CC(=O)N1CCCc2cc(S(=O)(=O)N3CCCC(C(=O)Nc4ccc(O)cc4)C3)ccc21

>  <score_type>  (39) 
oracle

>  <origin>  (39) 
adgpu

>  <m_score__min__energy>  (39) 
-13.539999999999999

>  <m_primary>  (39) 
energy

$$$$
39:0
     RDKit          3D

 52 54  0  0  0  0  0  0  0  0999 V2000
   -0.6830   21.0950  -28.8630 C   0  0  0  0  0  0  0  0  0  0  0  0
   -1.7460   21.6970  -29.7490 C   0  0  0  0  0  0  0  0  0  0  0  0
   -2.3090   20.8830  -30.7470 C   0  0  0  0  0  0  0  0  0  0  0  0
   -3.2940   21.3790  -31.5980 C   0  0  0  0  0  0  0  0  0  0  0  0
   -3.7320   22.6940  -31.4720 C   0  0  0  0  0  0  0  0  0  0  0  0
   -3.1870   23.5300  -30.4890 C   0  0  0  0  0  0  0  0  0  0  0  0
   -3.7040   24.8570  -30.3630 N   0  0  0  0  0  0  0  0  0  0  0  0
   -5.4100   25.1420  -30.2860 S   0  0  0  0  0  0  0  0  0  0  0  0
   -5.8010   25.5290  -28.8840 O   0  0  0  0  0  0  0  0  0  0  0  0
   -5.7660   26.2730  -31.2160 O   0  0  0  0  0  0  0  0  0  0  0  0
   -6.2820   23.6890  -30.7740 C   0  0  0  0  0  0  0  0  0  0  0  0
   -6.7750   22.8020  -29.8070 C   0  0  0  0  0  0  0  0  0  0  0  0
   -7.5030   21.6730  -30.1950 C   0  0  0  0  0  0  0  0  0  0  0  0
   -7.7510   21.4250  -31.5550 C   0  0  0  0  0  0  0  0  0  0  0  0
   -8.6570   19.9910  -32.0460 S   0  0  0  0  0  0  0  0  0  0  0  0
   -9.0790   19.2250  -30.8240 O   0  0  0  0  0  0  0  0  0  0  0  0
   -9.8990   20.4210  -32.7790 O   0  0  0  0  0  0  0  0  0  0  0  0
   -7.7030   18.9520  -33.0780 N   0  0  0  0  0  0  0  0  0  0  0  0
   -7.3990   17.6820  -32.3820 C   0  0  0  0  0  0  0  0  0  0  0  0
   -6.3010   16.8640  -33.0960 C   0  0  0  0  0  0  0  0  0  0  0  0
   -6.0990   17.3300  -34.5390 C   0  0  0  0  0  0  0  0  0  0  0  0
   -5.7580   18.8300  -34.5940 C   0  0  0  0  0  0  0  0  0  0  0  0
   -6.4700   19.6380  -33.4930 C   0  0  0  0  0  0  0  0  0  0  0  0
   -7.2680   22.3210  -32.5200 C   0  0  0  0  0  0  0  0  0  0  0  0
   -6.5360   23.4480  -32.1320 C   0  0  0  0  0  0  0  0  0  0  0  0
   -2.1610   23.0540  -29.6320 C   0  0  0  0  0  0  0  0  0  0  0  0
   -1.4590   24.1400  -28.4040 S   0  0  0  0  0  0  0  0  0  0  0  0
   -1.3160   25.7300  -29.0570 N   0  0  0  0  0  0  0  0  0  0  0  0
   -0.0960   23.6620  -27.9870 O   0  0  0  0  0  0  0  0  0  0  0  0
   -2.3200   24.1810  -27.1750 O   0  0  0  0  0  0  0  0  0  0  0  0
   -0.9545   21.2488  -27.8082 H   0  0  0  0  0  0  0  0  0  0  0  0
   -0.6024   20.0172  -29.0675 H   0  0  0  0  0  0  0  0  0  0  0  0
    0.2828   21.5802  -29.0675 H   0  0  0  0  0  0  0  0  0  0  0  0
   -1.9681   19.8430  -30.8572 H   0  0  0  0  0  0  0  0  0  0  0  0
   -3.7272   20.7289  -32.3724 H   0  0  0  0  0  0  0  0  0  0  0  0
   -4.5100   23.0788  -32.1477 H   0  0  0  0  0  0  0  0  0  0  0  0
   -3.0560   25.6710  -30.4530 H   0  0  0  0  0  0  0  0  0  0  0  0
   -6.5887   22.9946  -28.7401 H   0  0  0  0  0  0  0  0  0  0  0  0
   -7.8827   20.9768  -29.4326 H   0  0  0  0  0  0  0  0  0  0  0  0
   -7.0600   17.9117  -31.3611 H   0  0  0  0  0  0  0  0  0  0  0  0
   -8.3169   17.0759  -32.3768 H   0  0  0  0  0  0  0  0  0  0  0  0
   -5.3549   16.9815  -32.5473 H   0  0  0  0  0  0  0  0  0  0  0  0
   -6.6158   15.8102  -33.1160 H   0  0  0  0  0  0  0  0  0  0  0  0
   -5.2748   16.7574  -34.9895 H   0  0  0  0  0  0  0  0  0  0  0  0
   -7.0339   17.1635  -35.0942 H   0  0  0  0  0  0  0  0  0  0  0  0
   -4.6713   18.9493  -34.4721 H   0  0  0  0  0  0  0  0  0  0  0  0
   -6.1010   19.2151  -35.5656 H   0  0  0  0  0  0  0  0  0  0  0  0
   -5.8008   19.7392  -32.6259 H   0  0  0  0  0  0  0  0  0  0  0  0
   -6.7270   20.6326  -33.8863 H   0  0  0  0  0  0  0  0  0  0  0  0
   -7.4657   22.1366  -33.5863 H   0  0  0  0  0  0  0  0  0  0  0  0
   -6.1589   24.1466  -32.8934 H   0  0  0  0  0  0  0  0  0  0  0  0
   -1.6010   25.6770  -30.0590 H   0  0  0  0  0  0  0  0  0  0  0  0
  1  2  1  0
  2  3  2  0
  3  4  1  0
  4  5  2  0
  5  6  1  0
  6  7  1  0
  7  8  1  0
  8  9  2  0
  8 10  2  0
  8 11  1  0
 11 12  2  0
 12 13  1  0
 13 14  2  0
 14 15  1  0
 15 16  2  0
 15 17  2  0
 15 18  1  0
 18 19  1  0
 19 20  1  0
 20 21  1  0
 21 22  1  0
 22 23  1  0
 14 24  1  0
 24 25  2  0
  6 26  2  0
 26 27  1  0
 27 28  1  0
 27 29  2  0
 27 30  2  0
 26  2  1  0
 25 11  1  0
 23 18  1  0
  1 31  1  0
  1 32  1  0
  1 33  1  0
  3 34  1  0
  4 35  1  0
  5 36  1  0
  7 37  1  0
 12 38  1  0
 13 39  1  0
 19 40  1  0
 19 41  1  0
 20 42  1  0
 20 43  1  0
 21 44  1  0
 21 45  1  0
 22 46  1  0
 22 47  1  0
 23 48  1  0
 23 49  1  0
 24 50  1  0
 25 51  1  0
 28 52  1  0
M  CHG  1  28  -1
M  END
>  <UniqueID>  (40) 
40

>  <SMILES>  (40) 
Cc1cccc(NS(=O)(=O)c2ccc(S(=O)(=O)N3CCCCC3)cc2)c1S([NH-])(=O)=O

>  <Energy>  (40) 
66.3798206255646

>  <Genealogy>  (40) 
Cc1cccc(NS(=O)(=O)c2ccc(S(=O)(=O)N3CCCCC3)cc2)c1S([NH-])(=O)=O (protonated)
Cc1cccc(NS(=O)(=O)c2ccc(S(=O)(=O)N3CCCCC3)cc2)c1S([NH-])(=O)=O (3D coordinates assigned)
Cc1cccc(NS(=O)(=O)c2ccc(S(=O)(=O)N3CCCCC3)cc2)c1S([NH-])(=O)=O (nonaromatic ring conformer: 66.3798206255646 kcal/mol)

>  <smiles>  (40) 
Cc1cccc(NS(=O)(=O)c2ccc(S(=O)(=O)N3CCCCC3)cc2)c1S(N)(=O)=O

>  <score_type>  (40) 
oracle

>  <origin>  (40) 
adgpu

>  <m_score__min__energy>  (40) 
-13.82

>  <m_primary>  (40) 
energy

$$$$
40:0
     RDKit          3D

 48 52  0  0  0  0  0  0  0  0999 V2000
   -3.5700   26.0110  -30.1620 H   0  0  0  0  0  0  0  0  0  0  0  0
   -3.9120   25.1540  -30.6490 N   0  0  0  0  0  0  0  0  0  0  0  0
   -5.1530   24.7980  -30.5820 C   0  0  0  0  0  0  0  0  0  0  0  0
   -6.1050   25.4740  -29.9010 N   0  0  0  0  0  0  0  0  0  0  0  0
   -7.2230   24.8160  -30.0680 O   0  0  0  0  0  0  0  0  0  0  0  0
   -7.0220   23.7560  -30.8180 C   0  0  0  0  0  0  0  0  0  0  0  0
   -7.9380   22.7930  -31.2240 C   0  0  0  0  0  0  0  0  0  0  0  0
   -8.9964   22.8537  -30.9306 H   0  0  0  0  0  0  0  0  0  0  0  0
   -7.4620   21.7360  -32.0250 C   0  0  0  0  0  0  0  0  0  0  0  0
   -8.1559   20.9491  -32.3554 H   0  0  0  0  0  0  0  0  0  0  0  0
   -6.0950   21.6750  -32.4110 C   0  0  0  0  0  0  0  0  0  0  0  0
   -5.6280   20.5710  -33.1980 N   0  0  0  0  0  0  0  0  0  0  0  0
   -6.4250   19.8310  -33.9520 N   0  0  0  0  0  0  0  0  0  0  0  0
   -5.7470   18.8400  -34.5150 N   0  0  0  0  0  0  0  0  0  0  0  0
   -4.4680   18.9500  -34.1050 C   0  0  0  0  0  0  0  0  0  0  0  0
   -3.6385   18.2833  -34.3831 H   0  0  0  0  0  0  0  0  0  0  0  0
   -4.3850   20.0470  -33.2750 C   0  0  0  0  0  0  0  0  0  0  0  0
   -3.1430   20.6050  -32.7060 C   0  0  0  0  0  0  0  0  0  0  0  0
   -2.6220   21.6370  -33.2060 O   0  0  0  0  0  0  0  0  0  0  0  0
   -2.5450   19.9690  -31.5690 N   0  0  0  0  0  0  0  0  0  0  0  0
   -2.1630   20.6060  -30.3400 C   0  0  0  0  0  0  0  0  0  0  0  0
   -3.1140   21.1200  -29.4400 C   0  0  0  0  0  0  0  0  0  0  0  0
   -4.1870   21.0252  -29.6629 H   0  0  0  0  0  0  0  0  0  0  0  0
   -2.7000   21.7510  -28.2630 C   0  0  0  0  0  0  0  0  0  0  0  0
   -3.4485   22.1467  -27.5607 H   0  0  0  0  0  0  0  0  0  0  0  0
   -1.3350   21.8810  -27.9750 C   0  0  0  0  0  0  0  0  0  0  0  0
   -0.8990   22.5670  -26.7460 C   0  0  0  0  0  0  0  0  0  0  0  0
   -0.8960   21.8440  -25.5430 C   0  0  0  0  0  0  0  0  0  0  0  0
   -1.2224   20.7936  -25.5365 H   0  0  0  0  0  0  0  0  0  0  0  0
   -0.4820   22.4480  -24.3550 C   0  0  0  0  0  0  0  0  0  0  0  0
   -0.4812   21.8734  -23.4170 H   0  0  0  0  0  0  0  0  0  0  0  0
   -0.0690   23.7810  -24.3570 C   0  0  0  0  0  0  0  0  0  0  0  0
    0.2589   24.2553  -23.4202 H   0  0  0  0  0  0  0  0  0  0  0  0
   -0.0710   24.5150  -25.5470 C   0  0  0  0  0  0  0  0  0  0  0  0
    0.2558   25.5653  -25.5406 H   0  0  0  0  0  0  0  0  0  0  0  0
   -0.4870   23.9220  -26.7510 C   0  0  0  0  0  0  0  0  0  0  0  0
   -0.5090   24.8920  -28.2300 S   0  0  0  0  0  0  0  0  0  0  0  0
    0.2560   24.1880  -29.3160 O   0  0  0  0  0  0  0  0  0  0  0  0
    0.1280   26.2310  -27.9810 O   0  0  0  0  0  0  0  0  0  0  0  0
   -2.1440   25.1440  -28.7350 N   0  0  0  0  0  0  0  0  0  0  0  0
   -2.1200   25.2900  -29.7690 H   0  0  0  0  0  0  0  0  0  0  0  0
   -0.3860   21.4030  -28.8910 C   0  0  0  0  0  0  0  0  0  0  0  0
    0.6872   21.5247  -28.6826 H   0  0  0  0  0  0  0  0  0  0  0  0
   -0.8000   20.7730  -30.0670 C   0  0  0  0  0  0  0  0  0  0  0  0
   -0.0503   20.4057  -30.7832 H   0  0  0  0  0  0  0  0  0  0  0  0
   -5.1940   22.6660  -31.9610 C   0  0  0  0  0  0  0  0  0  0  0  0
   -4.1258   22.6259  -32.2206 H   0  0  0  0  0  0  0  0  0  0  0  0
   -5.7080   23.6950  -31.1770 C   0  0  0  0  0  0  0  0  0  0  0  0
  1  2  1  0
  2  3  2  0
  3  4  1  0
  4  5  1  0
  5  6  1  0
  6  7  2  0
  7  8  1  0
  7  9  1  0
  9 10  1  0
  9 11  2  0
 11 12  1  0
 12 13  1  0
 13 14  2  0
 14 15  1  0
 15 16  1  0
 15 17  2  0
 17 18  1  0
 18 19  2  0
 18 20  1  0
 20 21  1  0
 21 22  2  0
 22 23  1  0
 22 24  1  0
 24 25  1  0
 24 26  2  0
 26 27  1  0
 27 28  2  0
 28 29  1  0
 28 30  1  0
 30 31  1  0
 30 32  2  0
 32 33  1  0
 32 34  1  0
 34 35  1  0
 34 36  2  0
 36 37  1  0
 37 38  2  0
 37 39  2  0
 37 40  1  0
 40 41  1  0
 26 42  1  0
 42 43  1  0
 42 44  2  0
 44 45  1  0
 11 46  1  0
 46 47  1  0
 46 48  2  0
 48  3  1  0
 48  6  1  0
 17 12  1  0
 44 21  1  0
 36 27  1  0
M  CHG  3   4  -1  20  -1  40  -1
M  END
>  <UniqueID>  (41) 
41

>  <SMILES>  (41) 
[H]/N=c1\[n-]oc2ccc(-n3nncc3C(=O)[N-]c3ccc(-c4ccccc4S([NH-])(=O)=O)cc3)cc12

>  <Energy>  (41) 
149.52584942753086

>  <Genealogy>  (41) 
N=c1[n-]oc2ccc(-n3nncc3C(=O)[N-]c3ccc(-c4ccccc4S([NH-])(=O)=O)cc3)cc12 (protonated)
[H]/N=c1\[n-]oc2ccc(-n3nncc3C(=O)[N-]c3ccc(-c4ccccc4S([NH-])(=O)=O)cc3)cc12 (cis-trans isomerization)
[H]/N=c1\[n-]oc2ccc(-n3nncc3C(=O)[N-]c3ccc(-c4ccccc4S([NH-])(=O)=O)cc3)cc12 (3D coordinates assigned)
[H]/N=c1\[n-]oc2ccc(-n3nncc3C(=O)[N-]c3ccc(-c4ccccc4S([NH-])(=O)=O)cc3)cc12 (optimized conformer: 149.52584942753086 kcal/mol)

>  <smiles>  (41) 
N=c1[nH]oc2ccc(-n3nncc3C(=O)Nc3ccc(-c4ccccc4S(N)(=O)=O)cc3)cc12

>  <score_type>  (41) 
oracle

>  <origin>  (41) 
adgpu

>  <m_score__min__energy>  (41) 
-13.77

>  <m_primary>  (41) 
energy

$$$$
41:0
     RDKit          3D

 65 69  0  0  0  0  0  0  0  0999 V2000
    0.6740   22.5820  -35.8120 C   0  0  0  0  0  0  0  0  0  0  0  0
    0.7140   21.4630  -34.7720 C   0  0  0  0  0  0  0  0  0  0  0  0
   -0.6860   20.9620  -34.3710 C   0  0  0  0  0  0  0  0  0  0  0  0
   -1.0750   21.1820  -32.8880 C   0  0  0  0  0  0  0  0  0  0  0  0
   -1.4680   19.9450  -32.1560 N   0  0  1  0  0  0  0  0  0  0  0  0
   -0.6110   18.7940  -32.5500 C   0  0  0  0  0  0  0  0  0  0  0  0
   -1.4280   17.5840  -33.0530 C   0  0  0  0  0  0  0  0  0  0  0  0
   -2.1120   17.8750  -34.3960 C   0  0  0  0  0  0  0  0  0  0  0  0
   -3.2940   18.7270  -34.2250 N   0  0  0  0  0  0  0  0  0  0  0  0
   -4.5560   18.2190  -33.7460 C   0  0  0  0  0  0  0  0  0  0  0  0
   -4.8340   16.8490  -33.9220 C   0  0  0  0  0  0  0  0  0  0  0  0
   -6.0960   16.3320  -33.6550 C   0  0  0  0  0  0  0  0  0  0  0  0
   -7.1100   17.1700  -33.2150 C   0  0  0  0  0  0  0  0  0  0  0  0
   -6.8560   18.5240  -33.0000 C   0  0  0  0  0  0  0  0  0  0  0  0
   -8.1180   19.5160  -32.4950 S   0  0  0  0  0  0  0  0  0  0  0  0
   -7.6380   21.1090  -32.2840 C   0  0  0  0  0  0  0  0  0  0  0  0
   -8.5700   22.0760  -31.8860 C   0  0  0  0  0  0  0  0  0  0  0  0
   -8.1620   23.3930  -31.6880 C   0  0  0  0  0  0  0  0  0  0  0  0
   -6.8300   23.7480  -31.8960 C   0  0  0  0  0  0  0  0  0  0  0  0
   -5.8950   22.7830  -32.2870 C   0  0  0  0  0  0  0  0  0  0  0  0
   -6.2780   21.4350  -32.4940 C   0  0  0  0  0  0  0  0  0  0  0  0
   -5.2970   20.4690  -32.8970 C   0  0  0  0  0  0  0  0  0  0  0  0
   -4.1000   20.8660  -32.9410 O   0  0  0  0  0  0  0  0  0  0  0  0
   -5.5710   19.0890  -33.2200 C   0  0  0  0  0  0  0  0  0  0  0  0
   -1.4780   20.1220  -30.6780 C   0  0  0  0  0  0  0  0  0  0  0  0
   -1.7210   21.5490  -30.2210 C   0  0  0  0  0  0  0  0  0  0  0  0
   -2.9730   22.1780  -30.4670 C   0  0  0  0  0  0  0  0  0  0  0  0
   -3.2030   23.5020  -30.0540 C   0  0  0  0  0  0  0  0  0  0  0  0
   -2.1650   24.1740  -29.4160 C   0  0  0  0  0  0  0  0  0  0  0  0
   -0.9620   23.5900  -29.1910 C   0  0  0  0  0  0  0  0  0  0  0  0
   -0.6930   22.2820  -29.5810 C   0  0  0  0  0  0  0  0  0  0  0  0
   -0.1240   24.4880  -28.5600 O   0  0  0  0  0  0  0  0  0  0  0  0
   -0.8420   25.7170  -28.3880 C   0  0  0  0  0  0  0  0  0  0  0  0
   -2.1450   25.4690  -28.9340 O   0  0  0  0  0  0  0  0  0  0  0  0
    0.6392   23.5558  -35.3016 H   0  0  0  0  0  0  0  0  0  0  0  0
    1.5746   22.5299  -36.4415 H   0  0  0  0  0  0  0  0  0  0  0  0
   -0.2206   22.4657  -36.4415 H   0  0  0  0  0  0  0  0  0  0  0  0
    1.2824   20.6182  -35.1881 H   0  0  0  0  0  0  0  0  0  0  0  0
    1.1880   21.8720  -33.8675 H   0  0  0  0  0  0  0  0  0  0  0  0
   -1.4247   21.4851  -34.9960 H   0  0  0  0  0  0  0  0  0  0  0  0
   -0.6702   19.8722  -34.5199 H   0  0  0  0  0  0  0  0  0  0  0  0
   -0.2125   21.6269  -32.3702 H   0  0  0  0  0  0  0  0  0  0  0  0
   -1.9610   21.8340  -32.8932 H   0  0  0  0  0  0  0  0  0  0  0  0
   -2.4480   19.6970  -32.4260 H   0  0  0  0  0  0  0  0  0  0  0  0
    0.0664   19.1191  -33.3534 H   0  0  0  0  0  0  0  0  0  0  0  0
   -0.0581   18.4714  -31.6555 H   0  0  0  0  0  0  0  0  0  0  0  0
   -0.7521   16.7250  -33.1767 H   0  0  0  0  0  0  0  0  0  0  0  0
   -2.2108   17.3684  -32.3109 H   0  0  0  0  0  0  0  0  0  0  0  0
   -1.3968   18.3850  -35.0581 H   0  0  0  0  0  0  0  0  0  0  0  0
   -2.4366   16.9186  -34.8319 H   0  0  0  0  0  0  0  0  0  0  0  0
   -3.2700   19.6940  -34.6220 H   0  0  0  0  0  0  0  0  0  0  0  0
   -4.0385   16.1772  -34.2768 H   0  0  0  0  0  0  0  0  0  0  0  0
   -6.2908   15.2582  -33.7926 H   0  0  0  0  0  0  0  0  0  0  0  0
   -8.1170   16.7654  -33.0353 H   0  0  0  0  0  0  0  0  0  0  0  0
   -9.6222   21.7958  -31.7301 H   0  0  0  0  0  0  0  0  0  0  0  0
   -8.8904   24.1525  -31.3677 H   0  0  0  0  0  0  0  0  0  0  0  0
   -6.5125   24.7913  -31.7521 H   0  0  0  0  0  0  0  0  0  0  0  0
   -4.8453   23.0761  -32.4361 H   0  0  0  0  0  0  0  0  0  0  0  0
   -2.2728   19.4865  -30.2604 H   0  0  0  0  0  0  0  0  0  0  0  0
   -0.4756   19.8434  -30.3208 H   0  0  0  0  0  0  0  0  0  0  0  0
   -3.7688   21.6231  -30.9854 H   0  0  0  0  0  0  0  0  0  0  0  0
   -4.1725   23.9910  -30.2296 H   0  0  0  0  0  0  0  0  0  0  0  0
    0.2925   21.8293  -29.3969 H   0  0  0  0  0  0  0  0  0  0  0  0
   -0.9134   25.9764  -27.3214 H   0  0  0  0  0  0  0  0  0  0  0  0
   -0.3405   26.5600  -28.8858 H   0  0  0  0  0  0  0  0  0  0  0  0
  1  2  1  0
  2  3  1  0
  3  4  1  0
  4  5  1  0
  5  6  1  0
  6  7  1  0
  7  8  1  0
  8  9  1  0
  9 10  1  0
 10 11  2  0
 11 12  1  0
 12 13  2  0
 13 14  1  0
 14 15  1  0
 15 16  1  0
 16 17  2  0
 17 18  1  0
 18 19  2  0
 19 20  1  0
 20 21  2  0
 21 22  1  0
 22 23  2  0
 22 24  1  0
  5 25  1  0
 25 26  1  0
 26 27  2  0
 27 28  1  0
 28 29  2  0
 29 30  1  0
 30 31  2  0
 30 32  1  0
 32 33  1  0
 33 34  1  0
 24 10  1  0
 31 26  1  0
 24 14  2  0
 34 29  1  0
 21 16  1  0
  1 35  1  0
  1 36  1  0
  1 37  1  0
  2 38  1  0
  2 39  1  0
  3 40  1  0
  3 41  1  0
  4 42  1  0
  4 43  1  0
  5 44  1  6
  6 45  1  0
  6 46  1  0
  7 47  1  0
  7 48  1  0
  8 49  1  0
  8 50  1  0
  9 51  1  0
 11 52  1  0
 12 53  1  0
 13 54  1  0
 17 55  1  0
 18 56  1  0
 19 57  1  0
 20 58  1  0
 25 59  1  0
 25 60  1  0
 27 61  1  0
 28 62  1  0
 31 63  1  0
 33 64  1  0
 33 65  1  0
M  CHG  1   5   1
M  END
>  <UniqueID>  (42) 
42

>  <SMILES>  (42) 
CCCC[N@@H+](CCCNc1cccc2sc3ccccc3c(=O)c12)Cc1ccc2c(c1)OCO2

>  <Energy>  (42) 
117.55006239195579

>  <Genealogy>  (42) 
CCCC[NH+](CCCNc1cccc2sc3ccccc3c(=O)c12)Cc1ccc2c(c1)OCO2 (protonated)
CCCC[N@@H+](CCCNc1cccc2sc3ccccc3c(=O)c12)Cc1ccc2c(c1)OCO2 (chirality)
CCCC[N@@H+](CCCNc1cccc2sc3ccccc3c(=O)c12)Cc1ccc2c(c1)OCO2 (3D coordinates assigned)
CCCC[N@@H+](CCCNc1cccc2sc3ccccc3c(=O)c12)Cc1ccc2c(c1)OCO2 (nonaromatic ring conformer: 117.55006239195579 kcal/mol)

>  <smiles>  (42) 
CCCCN(CCCNc1cccc2sc3ccccc3c(=O)c12)Cc1ccc2c(c1)OCO2

>  <score_type>  (42) 
oracle

>  <origin>  (42) 
adgpu

>  <m_score__min__energy>  (42) 
-10.210000000000001

>  <m_primary>  (42) 
energy

$$$$
42:0
     RDKit          3D

 33 34  0  0  0  0  0  0  0  0999 V2000
   -8.0120   19.4430  -33.8370 H   0  0  0  0  0  0  0  0  0  0  0  0
   -8.1990   20.0920  -33.0830 O   0  0  0  0  0  0  0  0  0  0  0  0
   -7.2310   20.9930  -32.6410 C   0  0  0  0  0  0  0  0  0  0  0  0
   -7.5830   22.0570  -31.7990 C   0  0  0  0  0  0  0  0  0  0  0  0
   -8.6256   22.1694  -31.4668 H   0  0  0  0  0  0  0  0  0  0  0  0
   -6.6150   22.9780  -31.3780 C   0  0  0  0  0  0  0  0  0  0  0  0
   -7.0170   24.1130  -30.5220 C   0  0  0  0  0  0  0  0  0  0  0  0
   -8.0940   24.3023  -30.4025 H   0  0  0  0  0  0  0  0  0  0  0  0
   -6.1680   24.9320  -29.8780 C   0  0  0  0  0  0  0  0  0  0  0  0
   -6.6060   25.6752  -29.1955 H   0  0  0  0  0  0  0  0  0  0  0  0
   -4.6930   24.9190  -30.0090 C   0  0  0  0  0  0  0  0  0  0  0  0
   -4.1710   25.6420  -30.8990 O   0  0  0  0  0  0  0  0  0  0  0  0
   -3.8120   24.0780  -29.1640 C   0  0  0  0  0  0  0  0  0  0  0  0
   -4.3090   22.8740  -28.6410 C   0  0  0  0  0  0  0  0  0  0  0  0
   -5.3595   22.5968  -28.8129 H   0  0  0  0  0  0  0  0  0  0  0  0
   -3.4800   22.0250  -27.9040 C   0  0  0  0  0  0  0  0  0  0  0  0
   -3.8797   21.0781  -27.5121 H   0  0  0  0  0  0  0  0  0  0  0  0
   -2.1470   22.3680  -27.6600 C   0  0  0  0  0  0  0  0  0  0  0  0
   -1.3520   21.4720  -26.9300 O   0  0  0  0  0  0  0  0  0  0  0  0
   -1.7270   20.1340  -26.6190 C   0  0  0  0  0  0  0  0  0  0  0  0
   -1.7624   20.0076  -25.5269 H   0  0  0  0  0  0  0  0  0  0  0  0
   -2.7189   19.9228  -27.0449 H   0  0  0  0  0  0  0  0  0  0  0  0
   -0.9893   19.4380  -27.0449 H   0  0  0  0  0  0  0  0  0  0  0  0
   -1.6530   23.5910  -28.1480 C   0  0  0  0  0  0  0  0  0  0  0  0
   -0.6099   23.8774  -27.9481 H   0  0  0  0  0  0  0  0  0  0  0  0
   -2.4790   24.4460  -28.8860 C   0  0  0  0  0  0  0  0  0  0  0  0
   -1.9680   25.6630  -29.3280 O   0  0  0  0  0  0  0  0  0  0  0  0
   -5.2740   22.7900  -31.7540 C   0  0  0  0  0  0  0  0  0  0  0  0
   -4.5001   23.4786  -31.3840 H   0  0  0  0  0  0  0  0  0  0  0  0
   -4.9190   21.7320  -32.5960 C   0  0  0  0  0  0  0  0  0  0  0  0
   -3.2450   21.5480  -33.0940 Cl  0  0  0  0  0  0  0  0  0  0  0  0
   -5.8980   20.8350  -33.0440 C   0  0  0  0  0  0  0  0  0  0  0  0
   -5.5520   19.7850  -33.8880 O   0  0  0  0  0  0  0  0  0  0  0  0
  1  2  1  0
  2  3  1  0
  3  4  2  0
  4  5  1  0
  4  6  1  0
  6  7  1  0
  7  8  1  0
  7  9  2  0
  9 10  1  0
  9 11  1  0
 11 12  2  0
 11 13  1  0
 13 14  2  0
 14 15  1  0
 14 16  1  0
 16 17  1  0
 16 18  2  0
 18 19  1  0
 19 20  1  0
 20 21  1  0
 20 22  1  0
 20 23  1  0
 18 24  1  0
 24 25  1  0
 24 26  2  0
 26 27  1  0
  6 28  2  0
 28 29  1  0
 28 30  1  0
 30 31  1  0
 30 32  2  0
 32 33  1  0
 32  3  1  0
 26 13  1  0
M  CHG  2  27  -1  33  -1
M  END
>  <UniqueID>  (43) 
43

>  <SMILES>  (43) 
COc1ccc(C(=O)/C=C\c2cc(O)c([O-])c(Cl)c2)c([O-])c1

>  <Energy>  (43) 
44.231024116905836

>  <Genealogy>  (43) 
COc1ccc(C(=O)C=Cc2cc(O)c([O-])c(Cl)c2)c([O-])c1 (protonated)
COc1ccc(C(=O)/C=C\c2cc(O)c([O-])c(Cl)c2)c([O-])c1 (cis-trans isomerization)
COc1ccc(C(=O)/C=C\c2cc(O)c([O-])c(Cl)c2)c([O-])c1 (3D coordinates assigned)
COc1ccc(C(=O)/C=C\c2cc(O)c([O-])c(Cl)c2)c([O-])c1 (optimized conformer: 44.231024116905836 kcal/mol)

>  <smiles>  (43) 
COc1ccc(C(=O)C=Cc2cc(O)c(O)c(Cl)c2)c(O)c1

>  <score_type>  (43) 
oracle

>  <origin>  (43) 
adgpu

>  <m_score__min__energy>  (43) 
-11.44

>  <m_primary>  (43) 
energy

$$$$
43:0
     RDKit          3D

 36 37  0  0  0  0  0  0  0  0999 V2000
   -9.0940   19.5250  -32.0260 C   0  0  0  0  0  0  0  0  0  0  0  0
   -8.0710   20.6210  -31.9960 C   0  0  0  0  0  0  0  0  0  0  0  0
   -6.7240   20.3400  -32.2730 C   0  0  0  0  0  0  0  0  0  0  0  0
   -5.7730   21.3650  -32.2620 C   0  0  0  0  0  0  0  0  0  0  0  0
   -6.1580   22.6830  -31.9650 C   0  0  0  0  0  0  0  0  0  0  0  0
   -5.2010   23.7490  -31.8940 N   0  0  0  0  0  0  0  0  0  0  0  0
   -5.1050   24.7340  -30.8550 C   0  0  0  0  0  0  0  0  0  0  0  0
   -6.1560   25.1120  -30.2770 O   0  0  0  0  0  0  0  0  0  0  0  0
   -3.8500   25.3040  -30.4570 N   0  0  0  0  0  0  0  0  0  0  0  0
   -2.9250   24.7210  -29.5320 C   0  0  0  0  0  0  0  0  0  0  0  0
   -1.9280   25.4280  -28.9640 N   0  0  0  0  0  0  0  0  0  0  0  0
   -1.2320   24.5390  -28.2200 C   0  0  0  0  0  0  0  0  0  0  0  0
   -0.0060   24.9150  -27.4540 C   0  0  0  0  0  0  0  0  0  0  0  0
   -1.7960   23.2730  -28.3000 C   0  0  0  0  0  0  0  0  0  0  0  0
   -1.2000   21.7760  -27.5840 S   0  0  0  0  0  0  0  0  0  0  0  0
   -2.3070   20.4510  -28.0050 C   0  0  0  0  0  0  0  0  0  0  0  0
    0.1730   21.4540  -28.1010 O   0  0  0  0  0  0  0  0  0  0  0  0
   -1.1270   21.9270  -26.0900 O   0  0  0  0  0  0  0  0  0  0  0  0
   -2.8830   23.4000  -29.1360 C   0  0  0  0  0  0  0  0  0  0  0  0
   -3.7740   22.3980  -29.5140 O   0  0  0  0  0  0  0  0  0  0  0  0
   -7.5100   22.9710  -31.7450 C   0  0  0  0  0  0  0  0  0  0  0  0
   -8.4620   21.9470  -31.7590 C   0  0  0  0  0  0  0  0  0  0  0  0
   -9.3583   19.2418  -30.9965 H   0  0  0  0  0  0  0  0  0  0  0  0
   -9.9936   19.8774  -32.5518 H   0  0  0  0  0  0  0  0  0  0  0  0
   -8.6805   18.6517  -32.5518 H   0  0  0  0  0  0  0  0  0  0  0  0
   -6.4151   19.3089  -32.4997 H   0  0  0  0  0  0  0  0  0  0  0  0
   -4.7202   21.1387  -32.4866 H   0  0  0  0  0  0  0  0  0  0  0  0
   -0.2135   24.8514  -26.3756 H   0  0  0  0  0  0  0  0  0  0  0  0
    0.8125   24.2266  -27.7111 H   0  0  0  0  0  0  0  0  0  0  0  0
    0.2858   25.9439  -27.7111 H   0  0  0  0  0  0  0  0  0  0  0  0
   -2.6929   19.9891  -27.0843 H   0  0  0  0  0  0  0  0  0  0  0  0
   -3.1459   20.8477  -28.5956 H   0  0  0  0  0  0  0  0  0  0  0  0
   -1.7674   19.6960  -28.5956 H   0  0  0  0  0  0  0  0  0  0  0  0
   -4.4940   22.5620  -30.2070 H   0  0  0  0  0  0  0  0  0  0  0  0
   -7.8252   24.0085  -31.5601 H   0  0  0  0  0  0  0  0  0  0  0  0
   -9.5221   22.1823  -31.5834 H   0  0  0  0  0  0  0  0  0  0  0  0
  1  2  1  0
  2  3  2  0
  3  4  1  0
  4  5  2  0
  5  6  1  0
  6  7  1  0
  7  8  2  0
  7  9  1  0
  9 10  1  0
 10 11  1  0
 11 12  1  0
 12 13  1  0
 12 14  2  0
 14 15  1  0
 15 16  1  0
 15 17  2  0
 15 18  2  0
 14 19  1  0
 19 20  1  0
  5 21  1  0
 21 22  2  0
 22  2  1  0
 19 10  2  0
  1 23  1  0
  1 24  1  0
  1 25  1  0
  3 26  1  0
  4 27  1  0
 13 28  1  0
 13 29  1  0
 13 30  1  0
 16 31  1  0
 16 32  1  0
 16 33  1  0
 20 34  1  0
 21 35  1  0
 22 36  1  0
M  CHG  3   6  -1   9  -1  11  -1
M  END
>  <UniqueID>  (44) 
44

>  <SMILES>  (44) 
Cc1ccc([N-]C(=O)[N-]c2[n-]c(C)c(S(C)(=O)=O)c2O)cc1

>  <Energy>  (44) 
64.13569403927497

>  <Genealogy>  (44) 
Cc1ccc([N-]C(=O)[N-]c2[n-]c(C)c(S(C)(=O)=O)c2O)cc1 (protonated)
Cc1ccc([N-]C(=O)[N-]c2[n-]c(C)c(S(C)(=O)=O)c2O)cc1 (3D coordinates assigned)
Cc1ccc([N-]C(=O)[N-]c2[n-]c(C)c(S(C)(=O)=O)c2O)cc1 (optimized conformer: 64.13569403927497 kcal/mol)

>  <smiles>  (44) 
Cc1ccc(NC(=O)Nc2[nH]c(C)c(S(C)(=O)=O)c2O)cc1

>  <score_type>  (44) 
oracle

>  <origin>  (44) 
adgpu

>  <m_score__min__energy>  (44) 
-11.07

>  <m_primary>  (44) 
energy

$$$$
44:0
     RDKit          3D

 62 66  0  0  0  0  0  0  0  0999 V2000
   -2.1210   20.8190  -33.8580 C   0  0  0  0  0  0  0  0  0  0  0  0
   -2.4250   19.3870  -33.5530 C   0  0  0  0  0  0  0  0  0  0  0  0
   -1.4210   18.5470  -33.0220 C   0  0  0  0  0  0  0  0  0  0  0  0
   -1.7340   17.2060  -32.7220 C   0  0  0  0  0  0  0  0  0  0  0  0
   -0.7430   16.3180  -32.1630 N   0  0  0  0  0  0  0  0  0  0  0  0
   -0.6230   14.9330  -32.6370 C   0  0  0  0  0  0  0  0  0  0  0  0
   -0.1520   14.0280  -31.4930 C   0  0  0  0  0  0  0  0  0  0  0  0
    1.1210   14.4790  -30.8890 N   0  0  0  0  0  0  0  0  0  0  0  0
    1.4000   15.9260  -31.0190 C   0  0  0  0  0  0  0  0  0  0  0  0
    0.1220   16.7700  -31.0660 C   0  0  0  0  0  0  0  0  0  0  0  0
   -3.0060   16.7900  -32.9750 N   0  0  0  0  0  0  0  0  0  0  0  0
   -3.5170   15.5830  -32.7890 N   0  0  0  0  0  0  0  0  0  0  0  0
   -4.8140   15.6360  -33.1800 C   0  0  0  0  0  0  0  0  0  0  0  0
   -5.1160   16.9120  -33.6410 C   0  0  0  0  0  0  0  0  0  0  0  0
   -6.4440   17.4350  -34.0940 C   0  0  0  0  0  0  0  0  0  0  0  0
   -6.7750   18.7040  -33.3570 C   0  0  0  0  0  0  0  0  0  0  0  0
   -6.1820   19.9180  -33.7400 C   0  0  0  0  0  0  0  0  0  0  0  0
   -6.5220   21.1050  -33.0860 C   0  0  0  0  0  0  0  0  0  0  0  0
   -7.4620   21.0950  -32.0470 C   0  0  0  0  0  0  0  0  0  0  0  0
   -7.8900   22.5930  -31.2170 S   0  0  0  0  0  0  0  0  0  0  0  0
   -8.3440   22.2700  -29.8200 O   0  0  0  0  0  0  0  0  0  0  0  0
   -9.0340   23.2500  -31.9370 O   0  0  0  0  0  0  0  0  0  0  0  0
   -6.5400   23.6980  -31.1410 N   0  0  0  0  0  0  0  0  0  0  0  0
   -6.7520   24.6960  -30.0830 C   0  0  0  0  0  0  0  0  0  0  0  0
   -5.6400   25.7650  -30.1340 C   0  0  0  0  0  0  0  0  0  0  0  0
   -4.4440   25.3060  -30.8630 N   0  0  0  0  0  0  0  0  0  0  0  0
   -4.1250   23.9100  -30.5370 C   0  0  0  0  0  0  0  0  0  0  0  0
   -5.2840   22.9600  -30.9100 C   0  0  0  0  0  0  0  0  0  0  0  0
   -8.0640   19.8860  -31.6720 C   0  0  0  0  0  0  0  0  0  0  0  0
   -7.7260   18.6980  -32.3250 C   0  0  0  0  0  0  0  0  0  0  0  0
   -3.9390   17.6020  -33.4850 C   0  0  0  0  0  0  0  0  0  0  0  0
   -3.6790   18.8990  -33.7770 N   0  0  0  0  0  0  0  0  0  0  0  0
   -2.0025   21.3770  -32.9175 H   0  0  0  0  0  0  0  0  0  0  0  0
   -1.1899   20.8802  -34.4404 H   0  0  0  0  0  0  0  0  0  0  0  0
   -2.9470   21.2532  -34.4404 H   0  0  0  0  0  0  0  0  0  0  0  0
   -0.4070   18.9349  -32.8448 H   0  0  0  0  0  0  0  0  0  0  0  0
   -1.6022   14.5850  -32.9976 H   0  0  0  0  0  0  0  0  0  0  0  0
    0.1109   14.8931  -33.4554 H   0  0  0  0  0  0  0  0  0  0  0  0
   -0.9267   14.0174  -30.7121 H   0  0  0  0  0  0  0  0  0  0  0  0
    0.0189   13.0261  -31.9136 H   0  0  0  0  0  0  0  0  0  0  0  0
    1.1130   14.2280  -29.8720 H   0  0  0  0  0  0  0  0  0  0  0  0
    1.9110   13.9520  -31.3300 H   0  0  0  0  0  0  0  0  0  0  0  0
    2.0031   16.2474  -30.1571 H   0  0  0  0  0  0  0  0  0  0  0  0
    1.9353   16.0784  -31.9678 H   0  0  0  0  0  0  0  0  0  0  0  0
   -0.4167   16.6674  -30.1124 H   0  0  0  0  0  0  0  0  0  0  0  0
    0.3928   17.8231  -31.2324 H   0  0  0  0  0  0  0  0  0  0  0  0
   -5.5216   14.7948  -33.1386 H   0  0  0  0  0  0  0  0  0  0  0  0
   -6.4057   17.6402  -35.1740 H   0  0  0  0  0  0  0  0  0  0  0  0
   -7.2190   16.6829  -33.8848 H   0  0  0  0  0  0  0  0  0  0  0  0
   -5.4469   19.9345  -34.5581 H   0  0  0  0  0  0  0  0  0  0  0  0
   -6.0497   22.0514  -33.3881 H   0  0  0  0  0  0  0  0  0  0  0  0
   -7.7291   25.1797  -30.2292 H   0  0  0  0  0  0  0  0  0  0  0  0
   -6.7260   24.1950  -29.1041 H   0  0  0  0  0  0  0  0  0  0  0  0
   -6.0355   26.6608  -30.6350 H   0  0  0  0  0  0  0  0  0  0  0  0
   -5.3367   25.9791  -29.0986 H   0  0  0  0  0  0  0  0  0  0  0  0
   -4.6250   25.3760  -31.8910 H   0  0  0  0  0  0  0  0  0  0  0  0
   -3.2246   23.6103  -31.0933 H   0  0  0  0  0  0  0  0  0  0  0  0
   -3.9580   23.8396  -29.4520 H   0  0  0  0  0  0  0  0  0  0  0  0
   -5.0170   22.4145  -31.8271 H   0  0  0  0  0  0  0  0  0  0  0  0
   -5.4427   22.2661  -30.0714 H   0  0  0  0  0  0  0  0  0  0  0  0
   -8.8059   19.8725  -30.8599 H   0  0  0  0  0  0  0  0  0  0  0  0
   -8.2072   17.7542  -32.0290 H   0  0  0  0  0  0  0  0  0  0  0  0
  1  2  1  0
  2  3  1  0
  3  4  2  0
  4  5  1  0
  5  6  1  0
  6  7  1  0
  7  8  1  0
  8  9  1  0
  9 10  1  0
  4 11  1  0
 11 12  1  0
 12 13  2  0
 13 14  1  0
 14 15  1  0
 15 16  1  0
 16 17  2  0
 17 18  1  0
 18 19  2  0
 19 20  1  0
 20 21  2  0
 20 22  2  0
 20 23  1  0
 23 24  1  0
 24 25  1  0
 25 26  1  0
 26 27  1  0
 27 28  1  0
 19 29  1  0
 29 30  2  0
 14 31  2  0
 31 32  1  0
 32  2  2  0
 10  5  1  0
 31 11  1  0
 30 16  1  0
 28 23  1  0
  1 33  1  0
  1 34  1  0
  1 35  1  0
  3 36  1  0
  6 37  1  0
  6 38  1  0
  7 39  1  0
  7 40  1  0
  8 41  1  0
  8 42  1  0
  9 43  1  0
  9 44  1  0
 10 45  1  0
 10 46  1  0
 13 47  1  0
 15 48  1  0
 15 49  1  0
 17 50  1  0
 18 51  1  0
 24 52  1  0
 24 53  1  0
 25 54  1  0
 25 55  1  0
 26 56  1  0
 27 57  1  0
 27 58  1  0
 28 59  1  0
 28 60  1  0
 29 61  1  0
 30 62  1  0
M  CHG  1   8   1
M  END
>  <UniqueID>  (45) 
45

>  <SMILES>  (45) 
Cc1cc(N2CC[NH2+]CC2)n2ncc(Cc3ccc(S(=O)(=O)N4CCNCC4)cc3)c2n1

>  <Energy>  (45) 
112.53871428334128

>  <Genealogy>  (45) 
Cc1cc(N2CC[NH2+]CC2)n2ncc(Cc3ccc(S(=O)(=O)N4CCNCC4)cc3)c2n1 (protonated)
Cc1cc(N2CC[NH2+]CC2)n2ncc(Cc3ccc(S(=O)(=O)N4CCNCC4)cc3)c2n1 (3D coordinates assigned)
Cc1cc(N2CC[NH2+]CC2)n2ncc(Cc3ccc(S(=O)(=O)N4CCNCC4)cc3)c2n1 (nonaromatic ring conformer: 112.53871428334128 kcal/mol)

>  <smiles>  (45) 
Cc1cc(N2CCNCC2)n2ncc(Cc3ccc(S(=O)(=O)N4CCNCC4)cc3)c2n1

>  <score_type>  (45) 
oracle

>  <origin>  (45) 
adgpu

>  <m_score__min__energy>  (45) 
-10.31

>  <m_primary>  (45) 
energy

$$$$
45:0
     RDKit          3D

 51 53  0  0  0  0  0  0  0  0999 V2000
   -6.6980   17.8230  -31.8720 C   0  0  0  0  0  0  0  0  0  0  0  0
   -7.7150   18.8320  -31.5470 N   0  0  0  0  0  0  0  0  0  0  0  0
   -9.0460   18.2130  -31.5040 C   0  0  0  0  0  0  0  0  0  0  0  0
   -7.6920   20.1040  -32.7440 S   0  0  0  0  0  0  0  0  0  0  0  0
   -9.1000   20.4230  -33.1610 O   0  0  0  0  0  0  0  0  0  0  0  0
   -6.9420   19.6340  -33.9590 O   0  0  0  0  0  0  0  0  0  0  0  0
   -6.9270   21.5690  -32.1220 C   0  0  0  0  0  0  0  0  0  0  0  0
   -7.6760   22.4980  -31.3880 C   0  0  0  0  0  0  0  0  0  0  0  0
   -7.0700   23.6540  -30.8900 C   0  0  0  0  0  0  0  0  0  0  0  0
   -5.7080   23.9060  -31.1290 C   0  0  0  0  0  0  0  0  0  0  0  0
   -5.0550   25.1320  -30.6090 C   0  0  0  0  0  0  0  0  0  0  0  0
   -5.7620   26.1370  -30.3320 O   0  0  0  0  0  0  0  0  0  0  0  0
   -3.6330   25.2300  -30.4530 N   0  0  0  0  0  0  0  0  0  0  0  0
   -2.8430   24.5580  -29.4600 C   0  0  0  0  0  0  0  0  0  0  0  0
   -3.2160   23.2650  -29.0710 C   0  0  0  0  0  0  0  0  0  0  0  0
   -2.4820   22.5780  -28.1000 C   0  0  0  0  0  0  0  0  0  0  0  0
   -1.3570   23.1730  -27.5160 C   0  0  0  0  0  0  0  0  0  0  0  0
   -0.4170   22.3050  -26.3070 S   0  0  0  0  0  0  0  0  0  0  0  0
    1.0340   22.6710  -26.4550 O   0  0  0  0  0  0  0  0  0  0  0  0
   -0.8720   22.7010  -24.9290 O   0  0  0  0  0  0  0  0  0  0  0  0
   -0.6120   20.5870  -26.5490 N   0  0  0  0  0  0  0  0  0  0  0  0
   -0.3820   20.2170  -27.9450 C   0  0  0  0  0  0  0  0  0  0  0  0
   -1.1920   18.9560  -28.1980 C   0  0  0  0  0  0  0  0  0  0  0  0
   -2.2400   18.9210  -27.0950 C   0  0  0  0  0  0  0  0  0  0  0  0
   -1.9790   20.1610  -26.2530 C   0  0  0  0  0  0  0  0  0  0  0  0
   -0.9550   24.4490  -27.9320 C   0  0  0  0  0  0  0  0  0  0  0  0
   -1.6830   25.1380  -28.9070 C   0  0  0  0  0  0  0  0  0  0  0  0
   -1.2290   26.3790  -29.3370 O   0  0  0  0  0  0  0  0  0  0  0  0
   -4.9580   22.9600  -31.8500 C   0  0  0  0  0  0  0  0  0  0  0  0
   -5.5650   21.8040  -32.3470 C   0  0  0  0  0  0  0  0  0  0  0  0
   -6.2813   17.4096  -30.9417 H   0  0  0  0  0  0  0  0  0  0  0  0
   -7.1582   17.0144  -32.4588 H   0  0  0  0  0  0  0  0  0  0  0  0
   -5.8930   18.2895  -32.4588 H   0  0  0  0  0  0  0  0  0  0  0  0
   -9.3508   18.0713  -30.4566 H   0  0  0  0  0  0  0  0  0  0  0  0
   -9.7708   18.8664  -32.0116 H   0  0  0  0  0  0  0  0  0  0  0  0
   -9.0134   17.2377  -32.0116 H   0  0  0  0  0  0  0  0  0  0  0  0
   -8.7451   22.3165  -31.2032 H   0  0  0  0  0  0  0  0  0  0  0  0
   -7.6635   24.3729  -30.3061 H   0  0  0  0  0  0  0  0  0  0  0  0
   -4.0925   22.7871  -29.5329 H   0  0  0  0  0  0  0  0  0  0  0  0
   -2.7890   21.5671  -27.7937 H   0  0  0  0  0  0  0  0  0  0  0  0
   -0.7181   21.0244  -28.6122 H   0  0  0  0  0  0  0  0  0  0  0  0
    0.6873   20.0480  -28.1400 H   0  0  0  0  0  0  0  0  0  0  0  0
   -1.6741   18.9999  -29.1857 H   0  0  0  0  0  0  0  0  0  0  0  0
   -0.5602   18.0556  -28.1908 H   0  0  0  0  0  0  0  0  0  0  0  0
   -3.2523   18.9529  -27.5243 H   0  0  0  0  0  0  0  0  0  0  0  0
   -2.1761   17.9993  -26.4980 H   0  0  0  0  0  0  0  0  0  0  0  0
   -2.6904   20.9568  -26.5187 H   0  0  0  0  0  0  0  0  0  0  0  0
   -2.1043   19.9464  -25.1814 H   0  0  0  0  0  0  0  0  0  0  0  0
   -0.0609   24.9118  -27.4888 H   0  0  0  0  0  0  0  0  0  0  0  0
   -3.8855   23.1314  -32.0240 H   0  0  0  0  0  0  0  0  0  0  0  0
   -4.9705   21.0753  -32.9175 H   0  0  0  0  0  0  0  0  0  0  0  0
  1  2  1  0
  2  3  1  0
  2  4  1  0
  4  5  2  0
  4  6  2  0
  4  7  1  0
  7  8  2  0
  8  9  1  0
  9 10  2  0
 10 11  1  0
 11 12  2  0
 11 13  1  0
 13 14  1  0
 14 15  2  0
 15 16  1  0
 16 17  2  0
 17 18  1  0
 18 19  2  0
 18 20  2  0
 18 21  1  0
 21 22  1  0
 22 23  1  0
 23 24  1  0
 24 25  1  0
 17 26  1  0
 26 27  2  0
 27 28  1  0
 10 29  1  0
 29 30  2  0
 30  7  1  0
 27 14  1  0
 25 21  1  0
  1 31  1  0
  1 32  1  0
  1 33  1  0
  3 34  1  0
  3 35  1  0
  3 36  1  0
  8 37  1  0
  9 38  1  0
 15 39  1  0
 16 40  1  0
 22 41  1  0
 22 42  1  0
 23 43  1  0
 23 44  1  0
 24 45  1  0
 24 46  1  0
 25 47  1  0
 25 48  1  0
 26 49  1  0
 29 50  1  0
 30 51  1  0
M  CHG  2  13  -1  28  -1
M  END
>  <UniqueID>  (46) 
46

>  <SMILES>  (46) 
CN(C)S(=O)(=O)c1ccc(C(=O)[N-]c2ccc(S(=O)(=O)N3CCCC3)cc2[O-])cc1

>  <Energy>  (46) 
58.55505946688313

>  <Genealogy>  (46) 
CN(C)S(=O)(=O)c1ccc(C(=O)[N-]c2ccc(S(=O)(=O)N3CCCC3)cc2[O-])cc1 (protonated)
CN(C)S(=O)(=O)c1ccc(C(=O)[N-]c2ccc(S(=O)(=O)N3CCCC3)cc2[O-])cc1 (3D coordinates assigned)
CN(C)S(=O)(=O)c1ccc(C(=O)[N-]c2ccc(S(=O)(=O)N3CCCC3)cc2[O-])cc1 (nonaromatic ring conformer: 58.55505946688313 kcal/mol)

>  <smiles>  (46) 
CN(C)S(=O)(=O)c1ccc(C(=O)Nc2ccc(S(=O)(=O)N3CCCC3)cc2O)cc1

>  <score_type>  (46) 
oracle

>  <origin>  (46) 
adgpu

>  <m_score__min__energy>  (46) 
-15.380000000000001

>  <m_primary>  (46) 
energy

$$$$
46:0
     RDKit          3D

 49 51  0  0  0  0  0  0  0  0999 V2000
   -0.8200   26.7120  -23.5750 C   0  0  0  0  0  0  0  0  0  0  0  0
   -1.4670   26.3540  -24.7760 O   0  0  0  0  0  0  0  0  0  0  0  0
   -0.5280   25.8500  -25.7060 C   0  0  0  0  0  0  0  0  0  0  0  0
   -1.1930   25.5640  -27.0180 C   0  0  0  0  0  0  0  0  0  0  0  0
   -2.3470   24.8330  -27.1990 C   0  0  0  0  0  0  0  0  0  0  0  0
   -2.5610   24.8980  -28.5640 C   0  0  0  0  0  0  0  0  0  0  0  0
   -3.6680   24.2840  -29.3340 C   0  0  0  0  0  0  0  0  0  0  0  0
   -5.0100   24.5370  -29.0100 C   0  0  0  0  0  0  0  0  0  0  0  0
   -6.0390   23.9570  -29.7540 C   0  0  0  0  0  0  0  0  0  0  0  0
   -5.7530   23.1110  -30.8350 C   0  0  0  0  0  0  0  0  0  0  0  0
   -7.0990   22.4240  -31.7610 S   0  0  0  0  0  0  0  0  0  0  0  0
   -7.2320   23.1290  -33.0830 O   0  0  0  0  0  0  0  0  0  0  0  0
   -8.3710   22.6200  -30.9810 O   0  0  0  0  0  0  0  0  0  0  0  0
   -6.8260   20.7220  -32.0360 N   0  0  0  0  0  0  0  0  0  0  0  0
   -6.5620   20.4780  -33.4620 C   0  0  0  0  0  0  0  0  0  0  0  0
   -6.1940   18.9970  -33.6940 C   0  0  0  0  0  0  0  0  0  0  0  0
   -6.5570   18.1420  -32.5400 N   0  0  0  0  0  0  0  0  0  0  0  0
   -6.4780   16.7200  -32.9120 C   0  0  0  0  0  0  0  0  0  0  0  0
   -7.9090   18.4720  -32.0450 C   0  0  0  0  0  0  0  0  0  0  0  0
   -7.9950   19.9450  -31.5860 C   0  0  0  0  0  0  0  0  0  0  0  0
   -4.4030   22.8310  -31.1590 C   0  0  0  0  0  0  0  0  0  0  0  0
   -4.0290   21.9500  -32.3230 C   0  0  0  0  0  0  0  0  0  0  0  0
   -3.3770   23.4350  -30.4120 C   0  0  0  0  0  0  0  0  0  0  0  0
   -1.6000   25.6150  -29.1020 O   0  0  0  0  0  0  0  0  0  0  0  0
   -0.7600   26.0360  -28.2010 N   0  0  0  0  0  0  0  0  0  0  0  0
   -1.4245   26.3775  -22.7190 H   0  0  0  0  0  0  0  0  0  0  0  0
    0.1694   26.2330  -23.5346 H   0  0  0  0  0  0  0  0  0  0  0  0
   -0.7003   27.8047  -23.5346 H   0  0  0  0  0  0  0  0  0  0  0  0
    0.2673   26.5947  -25.8576 H   0  0  0  0  0  0  0  0  0  0  0  0
   -0.1015   24.9160  -25.3114 H   0  0  0  0  0  0  0  0  0  0  0  0
   -2.9539   24.3197  -26.4386 H   0  0  0  0  0  0  0  0  0  0  0  0
   -5.2526   25.1969  -28.1640 H   0  0  0  0  0  0  0  0  0  0  0  0
   -7.0860   24.1660  -29.4892 H   0  0  0  0  0  0  0  0  0  0  0  0
   -7.4621   20.7236  -34.0447 H   0  0  0  0  0  0  0  0  0  0  0  0
   -5.7207   21.1098  -33.7829 H   0  0  0  0  0  0  0  0  0  0  0  0
   -6.7280   18.6348  -34.5849 H   0  0  0  0  0  0  0  0  0  0  0  0
   -5.1039   18.9373  -33.8284 H   0  0  0  0  0  0  0  0  0  0  0  0
   -5.8650   18.3040  -31.7680 H   0  0  0  0  0  0  0  0  0  0  0  0
   -6.4438   16.1041  -32.0012 H   0  0  0  0  0  0  0  0  0  0  0  0
   -7.3624   16.4468  -33.5064 H   0  0  0  0  0  0  0  0  0  0  0  0
   -5.5688   16.5464  -33.5064 H   0  0  0  0  0  0  0  0  0  0  0  0
   -8.6369   18.3053  -32.8527 H   0  0  0  0  0  0  0  0  0  0  0  0
   -8.1301   17.8262  -31.1824 H   0  0  0  0  0  0  0  0  0  0  0  0
   -8.9066   20.3967  -32.0043 H   0  0  0  0  0  0  0  0  0  0  0  0
   -8.0174   19.9623  -30.4864 H   0  0  0  0  0  0  0  0  0  0  0  0
   -3.6250   20.9983  -31.9475 H   0  0  0  0  0  0  0  0  0  0  0  0
   -4.9212   21.7534  -32.9356 H   0  0  0  0  0  0  0  0  0  0  0  0
   -3.2678   22.4553  -32.9356 H   0  0  0  0  0  0  0  0  0  0  0  0
   -2.3277   23.2385  -30.6773 H   0  0  0  0  0  0  0  0  0  0  0  0
  1  2  1  0
  2  3  1  0
  3  4  1  0
  4  5  1  0
  5  6  2  0
  6  7  1  0
  7  8  2  0
  8  9  1  0
  9 10  2  0
 10 11  1  0
 11 12  2  0
 11 13  2  0
 11 14  1  0
 14 15  1  0
 15 16  1  0
 16 17  1  0
 17 18  1  0
 17 19  1  0
 19 20  1  0
 10 21  1  0
 21 22  1  0
 21 23  2  0
  6 24  1  0
 24 25  1  0
 25  4  2  0
 23  7  1  0
 20 14  1  0
  1 26  1  0
  1 27  1  0
  1 28  1  0
  3 29  1  0
  3 30  1  0
  5 31  1  0
  8 32  1  0
  9 33  1  0
 15 34  1  0
 15 35  1  0
 16 36  1  0
 16 37  1  0
 17 38  1  0
 18 39  1  0
 18 40  1  0
 18 41  1  0
 19 42  1  0
 19 43  1  0
 20 44  1  0
 20 45  1  0
 22 46  1  0
 22 47  1  0
 22 48  1  0
 23 49  1  0
M  CHG  1  17   1
M  END
>  <UniqueID>  (47) 
47

>  <SMILES>  (47) 
COCc1cc(-c2ccc(S(=O)(=O)N3CC[NH+](C)CC3)c(C)c2)on1

>  <Energy>  (47) 
88.5578289076131

>  <Genealogy>  (47) 
COCc1cc(-c2ccc(S(=O)(=O)N3CC[NH+](C)CC3)c(C)c2)on1 (protonated)
COCc1cc(-c2ccc(S(=O)(=O)N3CC[NH+](C)CC3)c(C)c2)on1 (3D coordinates assigned)
COCc1cc(-c2ccc(S(=O)(=O)N3CC[NH+](C)CC3)c(C)c2)on1 (nonaromatic ring conformer: 88.5578289076131 kcal/mol)

>  <smiles>  (47) 
COCc1cc(-c2ccc(S(=O)(=O)N3CCN(C)CC3)c(C)c2)on1

>  <score_type>  (47) 
oracle

>  <origin>  (47) 
adgpu

>  <m_score__min__energy>  (47) 
-8.75

>  <m_primary>  (47) 
energy

$$$$
47:0
     RDKit          3D

 49 52  0  0  0  0  0  0  0  0999 V2000
   -7.1490   24.1820  -32.1620 O   0  0  0  0  0  0  0  0  0  0  0  0
   -6.5020   23.4230  -31.3930 C   0  0  0  0  0  0  0  0  0  0  0  0
   -6.9790   22.0890  -31.1770 N   0  0  0  0  0  0  0  0  0  0  0  0
   -6.6320   20.9330  -31.9520 C   0  0  0  0  0  0  0  0  0  0  0  0
   -7.4700   19.8120  -31.9110 C   0  0  0  0  0  0  0  0  0  0  0  0
   -7.1560   18.6680  -32.6510 C   0  0  0  0  0  0  0  0  0  0  0  0
   -5.9920   18.6290  -33.4300 C   0  0  0  0  0  0  0  0  0  0  0  0
   -5.5980   17.1730  -34.3410 S   0  0  0  0  0  0  0  0  0  0  0  0
   -5.1740   17.5440  -35.7350 O   0  0  0  0  0  0  0  0  0  0  0  0
   -6.8360   16.3260  -34.4350 O   0  0  0  0  0  0  0  0  0  0  0  0
   -4.3350   16.2640  -33.5400 N   0  0  0  0  0  0  0  0  0  0  0  0
   -3.6110   15.3760  -34.4700 C   0  0  0  0  0  0  0  0  0  0  0  0
   -4.4310   14.1390  -34.8790 C   0  0  0  0  0  0  0  0  0  0  0  0
   -5.2470   13.5440  -33.7180 C   0  0  0  0  0  0  0  0  0  0  0  0
   -4.7680   14.0570  -32.3610 C   0  0  0  0  0  0  0  0  0  0  0  0
   -4.8280   15.5950  -32.3090 C   0  0  0  0  0  0  0  0  0  0  0  0
   -5.1330   19.7360  -33.4460 C   0  0  0  0  0  0  0  0  0  0  0  0
   -5.4460   20.8800  -32.7060 C   0  0  0  0  0  0  0  0  0  0  0  0
   -5.2460   23.9150  -30.7950 C   0  0  0  0  0  0  0  0  0  0  0  0
   -4.4590   23.2570  -29.8700 C   0  0  0  0  0  0  0  0  0  0  0  0
   -3.3960   24.1170  -29.6610 C   0  0  0  0  0  0  0  0  0  0  0  0
   -2.2530   23.9020  -28.7360 C   0  0  0  0  0  0  0  0  0  0  0  0
   -2.1810   22.7260  -27.9620 C   0  0  0  0  0  0  0  0  0  0  0  0
   -1.1160   22.5160  -27.0840 C   0  0  0  0  0  0  0  0  0  0  0  0
   -0.1100   23.4740  -26.9610 C   0  0  0  0  0  0  0  0  0  0  0  0
   -0.1650   24.6460  -27.7160 C   0  0  0  0  0  0  0  0  0  0  0  0
   -1.2270   24.8650  -28.6010 C   0  0  0  0  0  0  0  0  0  0  0  0
   -1.2430   26.0410  -29.3460 O   0  0  0  0  0  0  0  0  0  0  0  0
   -3.5500   25.2100  -30.4360 N   0  0  0  0  0  0  0  0  0  0  0  0
   -4.6710   25.0850  -31.1280 N   0  0  0  0  0  0  0  0  0  0  0  0
   -8.3801   19.8315  -31.2934 H   0  0  0  0  0  0  0  0  0  0  0  0
   -7.8252   17.7955  -32.6215 H   0  0  0  0  0  0  0  0  0  0  0  0
   -3.3607   15.9465  -35.3766 H   0  0  0  0  0  0  0  0  0  0  0  0
   -2.7105   15.0175  -33.9499 H   0  0  0  0  0  0  0  0  0  0  0  0
   -5.1248   14.4289  -35.6819 H   0  0  0  0  0  0  0  0  0  0  0  0
   -3.7189   13.3679  -35.2080 H   0  0  0  0  0  0  0  0  0  0  0  0
   -6.3039   13.8192  -33.8489 H   0  0  0  0  0  0  0  0  0  0  0  0
   -5.1156   12.4520  -33.7345 H   0  0  0  0  0  0  0  0  0  0  0  0
   -5.4119   13.6435  -31.5708 H   0  0  0  0  0  0  0  0  0  0  0  0
   -3.7261   13.7382  -32.2098 H   0  0  0  0  0  0  0  0  0  0  0  0
   -5.8742   15.8945  -32.1487 H   0  0  0  0  0  0  0  0  0  0  0  0
   -4.1650   15.9104  -31.4899 H   0  0  0  0  0  0  0  0  0  0  0  0
   -4.2095   19.7047  -34.0427 H   0  0  0  0  0  0  0  0  0  0  0  0
   -4.7623   21.7417  -32.7135 H   0  0  0  0  0  0  0  0  0  0  0  0
   -4.6367   22.2754  -29.4065 H   0  0  0  0  0  0  0  0  0  0  0  0
   -2.9716   21.9664  -28.0507 H   0  0  0  0  0  0  0  0  0  0  0  0
   -1.0703   21.5927  -26.4878 H   0  0  0  0  0  0  0  0  0  0  0  0
    0.7276   23.3055  -26.2681 H   0  0  0  0  0  0  0  0  0  0  0  0
    0.6291   25.4005  -27.6154 H   0  0  0  0  0  0  0  0  0  0  0  0
  1  2  2  0
  2  3  1  0
  3  4  1  0
  4  5  2  0
  5  6  1  0
  6  7  2  0
  7  8  1  0
  8  9  2  0
  8 10  2  0
  8 11  1  0
 11 12  1  0
 12 13  1  0
 13 14  1  0
 14 15  1  0
 15 16  1  0
  7 17  1  0
 17 18  2  0
  2 19  1  0
 19 20  1  0
 20 21  2  0
 21 22  1  0
 22 23  2  0
 23 24  1  0
 24 25  2  0
 25 26  1  0
 26 27  2  0
 27 28  1  0
 21 29  1  0
 29 30  1  0
 18  4  1  0
 30 19  2  0
 16 11  1  0
 27 22  1  0
  5 31  1  0
  6 32  1  0
 12 33  1  0
 12 34  1  0
 13 35  1  0
 13 36  1  0
 14 37  1  0
 14 38  1  0
 15 39  1  0
 15 40  1  0
 16 41  1  0
 16 42  1  0
 17 43  1  0
 18 44  1  0
 20 45  1  0
 23 46  1  0
 24 47  1  0
 25 48  1  0
 26 49  1  0
M  CHG  3   3  -1  28  -1  29  -1
M  END
>  <UniqueID>  (48) 
48

>  <SMILES>  (48) 
O=C([N-]c1ccc(S(=O)(=O)N2CCCCC2)cc1)c1cc(-c2ccccc2[O-])[n-]n1

>  <Energy>  (48) 
96.61742376405311

>  <Genealogy>  (48) 
O=C([N-]c1ccc(S(=O)(=O)N2CCCCC2)cc1)c1cc(-c2ccccc2[O-])[n-]n1 (protonated)
O=C([N-]c1ccc(S(=O)(=O)N2CCCCC2)cc1)c1cc(-c2ccccc2[O-])[n-]n1 (3D coordinates assigned)
O=C([N-]c1ccc(S(=O)(=O)N2CCCCC2)cc1)c1cc(-c2ccccc2[O-])[n-]n1 (nonaromatic ring conformer: 96.61742376405311 kcal/mol)

>  <smiles>  (48) 
O=C(Nc1ccc(S(=O)(=O)N2CCCCC2)cc1)c1cc(-c2ccccc2O)[nH]n1

>  <score_type>  (48) 
oracle

>  <origin>  (48) 
adgpu

>  <m_score__min__energy>  (48) 
-15.460000000000001

>  <m_primary>  (48) 
energy

$$$$
48:0
     RDKit          3D

 40 42  0  0  0  0  0  0  0  0999 V2000
   -3.8290   23.3130  -27.4460 O   0  0  0  0  0  0  0  0  0  0  0  0
   -2.8130   23.4400  -28.1800 C   0  0  0  0  0  0  0  0  0  0  0  0
   -2.9360   23.1430  -29.5780 N   0  0  0  0  0  0  0  0  0  0  0  0
   -4.1330   23.2530  -30.3610 C   0  0  0  0  0  0  0  0  0  0  0  0
   -4.8300   22.0850  -30.6920 C   0  0  0  0  0  0  0  0  0  0  0  0
   -6.0220   22.1490  -31.4270 C   0  0  0  0  0  0  0  0  0  0  0  0
   -6.9270   20.6760  -31.7860 S   0  0  0  0  0  0  0  0  0  0  0  0
   -7.4880   20.7680  -33.1780 O   0  0  0  0  0  0  0  0  0  0  0  0
   -8.0830   20.5630  -30.8300 O   0  0  0  0  0  0  0  0  0  0  0  0
   -5.9330   19.2420  -31.6410 N   0  0  0  0  0  0  0  0  0  0  0  0
   -6.7500   18.0230  -31.5690 C   0  0  0  0  0  0  0  0  0  0  0  0
   -6.6830   17.3100  -32.9140 C   0  0  0  0  0  0  0  0  0  0  0  0
   -5.7210   18.1120  -33.7650 C   0  0  0  0  0  0  0  0  0  0  0  0
   -5.0590   19.0870  -32.8080 C   0  0  0  0  0  0  0  0  0  0  0  0
   -6.5020   23.3930  -31.8570 C   0  0  0  0  0  0  0  0  0  0  0  0
   -5.7920   24.5590  -31.5650 C   0  0  0  0  0  0  0  0  0  0  0  0
   -4.6040   24.4960  -30.8320 C   0  0  0  0  0  0  0  0  0  0  0  0
   -3.8880   25.6660  -30.6010 O   0  0  0  0  0  0  0  0  0  0  0  0
   -1.5460   23.9470  -27.5940 C   0  0  0  0  0  0  0  0  0  0  0  0
   -0.8650   23.1860  -26.6270 C   0  0  0  0  0  0  0  0  0  0  0  0
    0.3270   23.6520  -26.0670 C   0  0  0  0  0  0  0  0  0  0  0  0
    0.8600   24.8760  -26.4740 C   0  0  0  0  0  0  0  0  0  0  0  0
    0.2010   25.6360  -27.4420 C   0  0  0  0  0  0  0  0  0  0  0  0
   -0.9960   25.1800  -28.0040 C   0  0  0  0  0  0  0  0  0  0  0  0
   -1.6390   25.9660  -28.9560 O   0  0  0  0  0  0  0  0  0  0  0  0
   -4.4387   21.1079  -30.3724 H   0  0  0  0  0  0  0  0  0  0  0  0
   -6.3608   17.3626  -30.7801 H   0  0  0  0  0  0  0  0  0  0  0  0
   -7.7926   18.2838  -31.3345 H   0  0  0  0  0  0  0  0  0  0  0  0
   -6.3125   16.2825  -32.7837 H   0  0  0  0  0  0  0  0  0  0  0  0
   -7.6754   17.2421  -33.3835 H   0  0  0  0  0  0  0  0  0  0  0  0
   -4.9700   17.4522  -34.2239 H   0  0  0  0  0  0  0  0  0  0  0  0
   -6.2346   18.6296  -34.5885 H   0  0  0  0  0  0  0  0  0  0  0  0
   -4.0812   18.6942  -32.4923 H   0  0  0  0  0  0  0  0  0  0  0  0
   -4.9033   20.0585  -33.3000 H   0  0  0  0  0  0  0  0  0  0  0  0
   -7.4413   23.4512  -32.4265 H   0  0  0  0  0  0  0  0  0  0  0  0
   -6.1694   25.5317  -31.9135 H   0  0  0  0  0  0  0  0  0  0  0  0
   -1.2743   22.2158  -26.3090 H   0  0  0  0  0  0  0  0  0  0  0  0
    0.8463   23.0533  -25.3041 H   0  0  0  0  0  0  0  0  0  0  0  0
    1.7987   25.2416  -26.0323 H   0  0  0  0  0  0  0  0  0  0  0  0
    0.6252   26.5983  -27.7644 H   0  0  0  0  0  0  0  0  0  0  0  0
  1  2  2  0
  2  3  1  0
  3  4  1  0
  4  5  2  0
  5  6  1  0
  6  7  1  0
  7  8  2  0
  7  9  2  0
  7 10  1  0
 10 11  1  0
 11 12  1  0
 12 13  1  0
 13 14  1  0
  6 15  2  0
 15 16  1  0
 16 17  2  0
 17 18  1  0
  2 19  1  0
 19 20  2  0
 20 21  1  0
 21 22  2  0
 22 23  1  0
 23 24  2  0
 24 25  1  0
 17  4  1  0
 24 19  1  0
 14 10  1  0
  5 26  1  0
 11 27  1  0
 11 28  1  0
 12 29  1  0
 12 30  1  0
 13 31  1  0
 13 32  1  0
 14 33  1  0
 14 34  1  0
 15 35  1  0
 16 36  1  0
 20 37  1  0
 21 38  1  0
 22 39  1  0
 23 40  1  0
M  CHG  3   3  -1  18  -1  25  -1
M  END
>  <UniqueID>  (49) 
49

>  <SMILES>  (49) 
O=C([N-]c1cc(S(=O)(=O)N2CCCC2)ccc1[O-])c1ccccc1[O-]

>  <Energy>  (49) 
50.52241196982807

>  <Genealogy>  (49) 
O=C([N-]c1cc(S(=O)(=O)N2CCCC2)ccc1[O-])c1ccccc1[O-] (protonated)
O=C([N-]c1cc(S(=O)(=O)N2CCCC2)ccc1[O-])c1ccccc1[O-] (3D coordinates assigned)
O=C([N-]c1cc(S(=O)(=O)N2CCCC2)ccc1[O-])c1ccccc1[O-] (nonaromatic ring conformer: 50.52241196982807 kcal/mol)

>  <smiles>  (49) 
O=C(Nc1cc(S(=O)(=O)N2CCCC2)ccc1O)c1ccccc1O

>  <score_type>  (49) 
oracle

>  <origin>  (49) 
adgpu

>  <m_score__min__energy>  (49) 
-15.289999999999999

>  <m_primary>  (49) 
energy

$$$$
49:0
     RDKit          3D

 39 41  0  0  0  0  0  0  0  0999 V2000
   -3.8900   25.0600  -30.8300 O   0  0  0  0  0  0  0  0  0  0  0  0
   -5.1470   24.7780  -30.0540 S   0  0  0  0  0  0  0  0  0  0  0  0
   -6.0710   25.9570  -30.1780 O   0  0  0  0  0  0  0  0  0  0  0  0
   -4.7410   24.5430  -28.3830 N   0  0  0  0  0  0  0  0  0  0  0  0
   -3.6310   23.7470  -27.9300 C   0  0  0  0  0  0  0  0  0  0  0  0
   -3.6340   22.3650  -28.1670 C   0  0  0  0  0  0  0  0  0  0  0  0
   -2.5650   21.5750  -27.7410 C   0  0  0  0  0  0  0  0  0  0  0  0
   -1.4960   22.1740  -27.0760 C   0  0  0  0  0  0  0  0  0  0  0  0
   -1.5040   23.5140  -26.8450 N   0  0  0  0  0  0  0  0  0  0  0  0
   -2.5330   24.3050  -27.2480 C   0  0  0  0  0  0  0  0  0  0  0  0
   -5.9630   23.3510  -30.6830 C   0  0  0  0  0  0  0  0  0  0  0  0
   -5.2240   22.3550  -31.3370 C   0  0  0  0  0  0  0  0  0  0  0  0
   -5.8670   21.2250  -31.8500 C   0  0  0  0  0  0  0  0  0  0  0  0
   -7.2540   21.0820  -31.7160 C   0  0  0  0  0  0  0  0  0  0  0  0
   -8.0610   19.6510  -32.3430 S   0  0  0  0  0  0  0  0  0  0  0  0
   -8.7570   18.9250  -31.2260 O   0  0  0  0  0  0  0  0  0  0  0  0
   -9.0970   20.0490  -33.3570 O   0  0  0  0  0  0  0  0  0  0  0  0
   -6.8650   18.5980  -33.0890 C   0  0  0  0  0  0  0  0  0  0  0  0
   -6.6160   17.3240  -32.5550 C   0  0  0  0  0  0  0  0  0  0  0  0
   -5.6530   16.4940  -33.1380 C   0  0  0  0  0  0  0  0  0  0  0  0
   -4.9310   16.9350  -34.2510 C   0  0  0  0  0  0  0  0  0  0  0  0
   -5.1690   18.2060  -34.7810 C   0  0  0  0  0  0  0  0  0  0  0  0
   -6.1320   19.0390  -34.1990 C   0  0  0  0  0  0  0  0  0  0  0  0
   -7.9910   22.0700  -31.0490 C   0  0  0  0  0  0  0  0  0  0  0  0
   -7.3480   23.2000  -30.5350 C   0  0  0  0  0  0  0  0  0  0  0  0
   -5.3920   24.9520  -27.6760 H   0  0  0  0  0  0  0  0  0  0  0  0
   -4.4827   21.9013  -28.6911 H   0  0  0  0  0  0  0  0  0  0  0  0
   -2.5660   20.4910  -27.9280 H   0  0  0  0  0  0  0  0  0  0  0  0
   -0.6462   21.5627  -26.7382 H   0  0  0  0  0  0  0  0  0  0  0  0
   -2.5079   25.3850  -27.0406 H   0  0  0  0  0  0  0  0  0  0  0  0
   -4.1348   22.4633  -31.4467 H   0  0  0  0  0  0  0  0  0  0  0  0
   -5.2821   20.4457  -32.3605 H   0  0  0  0  0  0  0  0  0  0  0  0
   -7.1795   16.9776  -31.6761 H   0  0  0  0  0  0  0  0  0  0  0  0
   -5.4636   15.4940  -32.7207 H   0  0  0  0  0  0  0  0  0  0  0  0
   -4.1749   16.2810  -34.7099 H   0  0  0  0  0  0  0  0  0  0  0  0
   -4.5993   18.5522  -35.6560 H   0  0  0  0  0  0  0  0  0  0  0  0
   -6.3136   20.0415  -34.6138 H   0  0  0  0  0  0  0  0  0  0  0  0
   -9.0785   21.9560  -30.9296 H   0  0  0  0  0  0  0  0  0  0  0  0
   -7.9312   23.9728  -30.0128 H   0  0  0  0  0  0  0  0  0  0  0  0
  1  2  2  0
  2  3  2  0
  2  4  1  0
  4  5  1  0
  5  6  2  0
  6  7  1  0
  7  8  2  0
  8  9  1  0
  9 10  2  0
  2 11  1  0
 11 12  2  0
 12 13  1  0
 13 14  2  0
 14 15  1  0
 15 16  2  0
 15 17  2  0
 15 18  1  0
 18 19  2  0
 19 20  1  0
 20 21  2  0
 21 22  1  0
 22 23  2  0
 14 24  1  0
 24 25  2  0
 10  5  1  0
 25 11  1  0
 23 18  1  0
  4 26  1  0
  6 27  1  0
  7 28  1  0
  8 29  1  0
 10 30  1  0
 12 31  1  0
 13 32  1  0
 19 33  1  0
 20 34  1  0
 21 35  1  0
 22 36  1  0
 23 37  1  0
 24 38  1  0
 25 39  1  0
M  END
>  <UniqueID>  (50) 
50

>  <SMILES>  (50) 
O=S(=O)(Nc1cccnc1)c1ccc(S(=O)(=O)c2ccccc2)cc1

>  <Energy>  (50) 
47.22050991371117

>  <Genealogy>  (50) 
O=S(=O)(Nc1cccnc1)c1ccc(S(=O)(=O)c2ccccc2)cc1 (3D coordinates assigned)
O=S(=O)(Nc1cccnc1)c1ccc(S(=O)(=O)c2ccccc2)cc1 (optimized conformer: 47.22050991371117 kcal/mol)

>  <smiles>  (50) 
O=S(=O)(Nc1cccnc1)c1ccc(S(=O)(=O)c2ccccc2)cc1

>  <score_type>  (50) 
oracle

>  <origin>  (50) 
adgpu

>  <m_score__min__energy>  (50) 
-10.35

>  <m_primary>  (50) 
energy

$$$$
