0:0
     RDKit          3D

 60 62  0  0  0  0  0  0  0  0999 V2000
   -9.1640   19.1430  -33.8120 H   0  0  0  0  0  0  0  0  0  0  0  0
   -9.3650   19.5640  -32.9110 O   0  0  0  0  0  0  0  0  0  0  0  0
   -8.4430   20.3780  -32.2520 C   0  0  0  0  0  0  0  0  0  0  0  0
   -8.8620   21.1230  -31.1400 C   0  0  0  0  0  0  0  0  0  0  0  0
   -9.9077   21.0643  -30.8038 H   0  0  0  0  0  0  0  0  0  0  0  0
   -7.9560   21.9400  -30.4570 C   0  0  0  0  0  0  0  0  0  0  0  0
   -8.2907   22.5178  -29.5828 H   0  0  0  0  0  0  0  0  0  0  0  0
   -6.6190   22.0260  -30.8830 C   0  0  0  0  0  0  0  0  0  0  0  0
   -5.6250   22.8440  -30.1040 C   0  0  0  0  0  0  0  0  0  0  0  0
   -5.0093   22.1749  -29.4850 H   0  0  0  0  0  0  0  0  0  0  0  0
   -6.1681   23.5542  -29.4631 H   0  0  0  0  0  0  0  0  0  0  0  0
   -4.7330   23.6130  -31.0450 C   0  0  0  0  0  0  0  0  0  0  0  0
   -5.1822   24.0396  -31.9540 H   0  0  0  0  0  0  0  0  0  0  0  0
   -3.4230   23.8060  -30.8360 C   0  0  0  0  0  0  0  0  0  0  0  0
   -2.8390   24.2982  -31.6277 H   0  0  0  0  0  0  0  0  0  0  0  0
   -2.7180   23.3960  -29.6040 C   0  0  0  0  0  0  0  0  0  0  0  0
   -2.0330   24.3560  -28.8470 C   0  0  0  0  0  0  0  0  0  0  0  0
   -1.9820   25.6730  -29.3060 O   0  0  0  0  0  0  0  0  0  0  0  0
   -1.3920   23.9950  -27.6450 C   0  0  0  0  0  0  0  0  0  0  0  0
   -0.6160   25.0420  -26.8780 C   0  0  0  0  0  0  0  0  0  0  0  0
   -0.7411   24.8733  -25.7982 H   0  0  0  0  0  0  0  0  0  0  0  0
    0.4503   24.9724  -27.1389 H   0  0  0  0  0  0  0  0  0  0  0  0
   -0.9928   26.0420  -27.1389 H   0  0  0  0  0  0  0  0  0  0  0  0
   -1.5160   22.6650  -27.1540 C   0  0  0  0  0  0  0  0  0  0  0  0
   -0.9190   22.2820  -25.8110 C   0  0  0  0  0  0  0  0  0  0  0  0
   -1.5467   22.6847  -25.0024 H   0  0  0  0  0  0  0  0  0  0  0  0
   -0.8739   21.1860  -25.7289 H   0  0  0  0  0  0  0  0  0  0  0  0
    0.0960   22.6979  -25.7289 H   0  0  0  0  0  0  0  0  0  0  0  0
   -2.1580   21.6840  -27.9580 C   0  0  0  0  0  0  0  0  0  0  0  0
   -2.2040   20.2200  -27.5550 C   0  0  0  0  0  0  0  0  0  0  0  0
   -2.3778   20.1547  -26.4708 H   0  0  0  0  0  0  0  0  0  0  0  0
   -3.0174   19.7369  -28.1163 H   0  0  0  0  0  0  0  0  0  0  0  0
   -0.9170   19.5050  -27.8870 C   0  0  0  0  0  0  0  0  0  0  0  0
   -0.8220   18.2610  -27.7020 O   0  0  0  0  0  0  0  0  0  0  0  0
    0.1930   20.2060  -28.4720 N   0  0  0  0  0  0  0  0  0  0  0  0
    0.4770   20.3120  -29.7410 C   0  0  0  0  0  0  0  0  0  0  0  0
    1.4474   20.7494  -30.0185 H   0  0  0  0  0  0  0  0  0  0  0  0
   -0.4260   19.8800  -30.8280 C   0  0  0  0  0  0  0  0  0  0  0  0
   -1.1600   20.8190  -31.5720 C   0  0  0  0  0  0  0  0  0  0  0  0
   -1.0724   21.8906  -31.3396 H   0  0  0  0  0  0  0  0  0  0  0  0
   -2.0010   20.3980  -32.6060 C   0  0  0  0  0  0  0  0  0  0  0  0
   -2.5899   21.1390  -33.1665 H   0  0  0  0  0  0  0  0  0  0  0  0
   -2.1000   19.0350  -32.9350 C   0  0  0  0  0  0  0  0  0  0  0  0
   -3.0070   18.5950  -34.0260 C   0  0  0  0  0  0  0  0  0  0  0  0
   -4.3460   19.1050  -34.0830 N   0  0  0  0  0  0  0  0  0  0  0  0
   -4.7280   19.7050  -33.3140 H   0  0  0  0  0  0  0  0  0  0  0  0
   -4.9820   18.8450  -34.8680 H   0  0  0  0  0  0  0  0  0  0  0  0
   -2.5990   17.7640  -34.9380 N   0  0  0  0  0  0  0  0  0  0  0  0
   -1.6220   17.3920  -34.9480 H   0  0  0  0  0  0  0  0  0  0  0  0
   -3.2370   17.4550  -35.7080 H   0  0  0  0  0  0  0  0  0  0  0  0
   -1.3380   18.1000  -32.2080 C   0  0  0  0  0  0  0  0  0  0  0  0
   -1.4024   17.0306  -32.4575 H   0  0  0  0  0  0  0  0  0  0  0  0
   -0.5000   18.5220  -31.1710 C   0  0  0  0  0  0  0  0  0  0  0  0
    0.1042   17.7851  -30.6215 H   0  0  0  0  0  0  0  0  0  0  0  0
   -2.7920   22.0720  -29.1530 C   0  0  0  0  0  0  0  0  0  0  0  0
   -3.5170   21.1350  -29.8910 O   0  0  0  0  0  0  0  0  0  0  0  0
   -6.1990   21.2750  -31.9950 C   0  0  0  0  0  0  0  0  0  0  0  0
   -5.1524   21.3312  -32.3289 H   0  0  0  0  0  0  0  0  0  0  0  0
   -7.1050   20.4560  -32.6800 C   0  0  0  0  0  0  0  0  0  0  0  0
   -6.6670   19.7180  -33.7790 O   0  0  0  0  0  0  0  0  0  0  0  0
  1  2  1  0
  2  3  1  0
  3  4  2  0
  4  5  1  0
  4  6  1  0
  6  7  1  0
  6  8  2  0
  8  9  1  0
  9 10  1  0
  9 11  1  0
  9 12  1  0
 12 13  1  0
 12 14  2  3
 14 15  1  0
 14 16  1  0
 16 17  2  0
 17 18  1  0
 17 19  1  0
 19 20  1  0
 20 21  1  0
 20 22  1  0
 20 23  1  0
 19 24  2  0
 24 25  1  0
 25 26  1  0
 25 27  1  0
 25 28  1  0
 24 29  1  0
 29 30  1  0
 30 31  1  0
 30 32  1  0
 30 33  1  0
 33 34  2  0
 33 35  1  0
 35 36  2  0
 36 37  1  0
 36 38  1  0
 38 39  2  0
 39 40  1  0
 39 41  1  0
 41 42  1  0
 41 43  2  0
 43 44  1  0
 44 45  1  0
 45 46  1  0
 45 47  1  0
 44 48  2  0
 48 49  1  0
 48 50  1  0
 43 51  1  0
 51 52  1  0
 51 53  2  0
 53 54  1  0
 29 55  2  0
 55 56  1  0
  8 57  1  0
 57 58  1  0
 57 59  2  0
 59 60  1  0
 59  3  1  0
 55 16  1  0
 53 38  1  0
M  CHG  4  18  -1  48   1  56  -1  60  -1
M  END
>  <UniqueID>  (1) 
1

>  <SMILES>  (1) 
Cc1c(C)c(CC(=O)/N=C\c2ccc(C(N)=[NH2+])cc2)c([O-])c(C=CCc2ccc(O)c([O-])c2)c1[O-]

>  <Energy>  (1) 
87.9015364119213

>  <Genealogy>  (1) 
Cc1c(C)c(CC(=O)N=Cc2ccc(C(N)=[NH2+])cc2)c([O-])c(C=CCc2ccc(O)c([O-])c2)c1[O-] (protonated)
Cc1c(C)c(CC(=O)/N=C\c2ccc(C(N)=[NH2+])cc2)c([O-])c(C=CCc2ccc(O)c([O-])c2)c1[O-] (cis-trans isomerization)
Cc1c(C)c(CC(=O)/N=C\c2ccc(C(N)=[NH2+])cc2)c([O-])c(C=CCc2ccc(O)c([O-])c2)c1[O-] (3D coordinates assigned)
Cc1c(C)c(CC(=O)/N=C\c2ccc(C(N)=[NH2+])cc2)c([O-])c(C=CCc2ccc(O)c([O-])c2)c1[O-] (optimized conformer: 87.9015364119213 kcal/mol)

>  <smiles>  (1) 
Cc1c(C)c(CC(=O)N=Cc2ccc(C(=N)N)cc2)c(O)c(C=CCc2ccc(O)c(O)c2)c1O

>  <score_type>  (1) 
oracle

>  <origin>  (1) 
adgpu

>  <m_score__min__energy>  (1) 
-13.01

>  <m_primary>  (1) 
energy

$$$$
1:0
     RDKit          3D

 53 56  0  0  0  0  0  0  0  0999 V2000
   -6.1210   25.5900  -29.7040 C   0  0  0  0  0  0  0  0  0  0  0  0
   -5.2990   24.7870  -30.6630 C   0  0  0  0  0  0  0  0  0  0  0  0
   -4.0930   25.1100  -30.8410 O   0  0  0  0  0  0  0  0  0  0  0  0
   -5.8540   23.6930  -31.4140 N   0  0  0  0  0  0  0  0  0  0  0  0
   -7.2910   23.5470  -31.6600 C   0  0  0  0  0  0  0  0  0  0  0  0
   -7.4870   22.1340  -32.2540 C   0  0  0  0  0  0  0  0  0  0  0  0
   -6.0970   21.6150  -32.3710 C   0  0  0  0  0  0  0  0  0  0  0  0
   -5.6840   20.4040  -32.9260 C   0  0  0  0  0  0  0  0  0  0  0  0
   -4.3100   20.1350  -33.0060 C   0  0  0  0  0  0  0  0  0  0  0  0
   -3.3730   21.0880  -32.5570 C   0  0  0  0  0  0  0  0  0  0  0  0
   -1.6490   20.7660  -32.7080 S   0  0  0  0  0  0  0  0  0  0  0  0
   -0.9550   21.9160  -33.3830 O   0  0  0  0  0  0  0  0  0  0  0  0
   -1.4590   19.5260  -33.5340 O   0  0  0  0  0  0  0  0  0  0  0  0
   -0.9420   20.5200  -31.1410 N   0  0  0  0  0  0  0  0  0  0  0  0
   -1.4250   21.1350  -29.9330 C   0  0  0  0  0  0  0  0  0  0  0  0
   -2.2790   20.4580  -29.0400 C   0  0  0  0  0  0  0  0  0  0  0  0
   -2.7190   21.0850  -27.8720 C   0  0  0  0  0  0  0  0  0  0  0  0
   -2.3230   22.3920  -27.5840 C   0  0  0  0  0  0  0  0  0  0  0  0
   -1.4880   23.0870  -28.4680 C   0  0  0  0  0  0  0  0  0  0  0  0
   -0.9840   24.7410  -28.1040 S   0  0  0  0  0  0  0  0  0  0  0  0
   -1.5660   25.6680  -29.1350 O   0  0  0  0  0  0  0  0  0  0  0  0
    0.5160   24.8270  -28.1970 O   0  0  0  0  0  0  0  0  0  0  0  0
   -1.4850   25.2700  -26.5150 N   0  0  0  0  0  0  0  0  0  0  0  0
   -1.2540   26.6990  -26.3120 C   0  0  0  0  0  0  0  0  0  0  0  0
   -1.0920   26.9020  -24.8110 C   0  0  0  0  0  0  0  0  0  0  0  0
   -0.8010   25.5190  -24.2450 C   0  0  0  0  0  0  0  0  0  0  0  0
   -0.7390   24.5980  -25.4530 C   0  0  0  0  0  0  0  0  0  0  0  0
   -1.0350   22.4500  -29.6340 C   0  0  0  0  0  0  0  0  0  0  0  0
   -3.8180   22.3010  -31.9990 C   0  0  0  0  0  0  0  0  0  0  0  0
   -5.1950   22.5260  -31.8910 C   0  0  0  0  0  0  0  0  0  0  0  0
   -5.8470   25.3224  -28.6728 H   0  0  0  0  0  0  0  0  0  0  0  0
   -5.9324   26.6614  -29.8672 H   0  0  0  0  0  0  0  0  0  0  0  0
   -7.1877   25.3764  -29.8672 H   0  0  0  0  0  0  0  0  0  0  0  0
   -7.8507   23.6454  -30.7182 H   0  0  0  0  0  0  0  0  0  0  0  0
   -7.6607   24.3240  -32.3453 H   0  0  0  0  0  0  0  0  0  0  0  0
   -8.0875   21.5038  -31.5815 H   0  0  0  0  0  0  0  0  0  0  0  0
   -8.0255   22.1415  -33.2132 H   0  0  0  0  0  0  0  0  0  0  0  0
   -6.4210   19.6747  -33.2935 H   0  0  0  0  0  0  0  0  0  0  0  0
   -3.9621   19.1773  -33.4204 H   0  0  0  0  0  0  0  0  0  0  0  0
   -0.1560   19.8340  -31.0810 H   0  0  0  0  0  0  0  0  0  0  0  0
   -2.6009   19.4303  -29.2638 H   0  0  0  0  0  0  0  0  0  0  0  0
   -3.3800   20.5468  -27.1767 H   0  0  0  0  0  0  0  0  0  0  0  0
   -2.6679   22.8780  -26.6594 H   0  0  0  0  0  0  0  0  0  0  0  0
   -0.3416   27.0151  -26.8389 H   0  0  0  0  0  0  0  0  0  0  0  0
   -2.0888   27.2969  -26.7065 H   0  0  0  0  0  0  0  0  0  0  0  0
   -0.2564   27.5865  -24.6032 H   0  0  0  0  0  0  0  0  0  0  0  0
   -1.9903   27.3481  -24.3593 H   0  0  0  0  0  0  0  0  0  0  0  0
    0.1592   25.5162  -23.7083 H   0  0  0  0  0  0  0  0  0  0  0  0
   -1.5685   25.2002  -23.5243 H   0  0  0  0  0  0  0  0  0  0  0  0
    0.3055   24.4417  -25.7605 H   0  0  0  0  0  0  0  0  0  0  0  0
   -1.1653   23.6096  -25.2265 H   0  0  0  0  0  0  0  0  0  0  0  0
   -0.3661   22.9879  -30.3219 H   0  0  0  0  0  0  0  0  0  0  0  0
   -3.0975   23.0574  -31.6545 H   0  0  0  0  0  0  0  0  0  0  0  0
  1  2  1  0
  2  3  2  0
  2  4  1  0
  4  5  1  0
  5  6  1  0
  6  7  1  0
  7  8  2  0
  8  9  1  0
  9 10  2  0
 10 11  1  0
 11 12  2  0
 11 13  2  0
 11 14  1  0
 14 15  1  0
 15 16  2  0
 16 17  1  0
 17 18  2  0
 18 19  1  0
 19 20  1  0
 20 21  2  0
 20 22  2  0
 20 23  1  0
 23 24  1  0
 24 25  1  0
 25 26  1  0
 26 27  1  0
 19 28  2  0
 10 29  1  0
 29 30  2  0
 30  4  1  0
 30  7  1  0
 28 15  1  0
 27 23  1  0
  1 31  1  0
  1 32  1  0
  1 33  1  0
  5 34  1  0
  5 35  1  0
  6 36  1  0
  6 37  1  0
  8 38  1  0
  9 39  1  0
 14 40  1  0
 16 41  1  0
 17 42  1  0
 18 43  1  0
 24 44  1  0
 24 45  1  0
 25 46  1  0
 25 47  1  0
 26 48  1  0
 26 49  1  0
 27 50  1  0
 27 51  1  0
 28 52  1  0
 29 53  1  0
M  END
>  <UniqueID>  (2) 
2

>  <SMILES>  (2) 
CC(=O)N1CCc2ccc(S(=O)(=O)Nc3cccc(S(=O)(=O)N4CCCC4)c3)cc21

>  <Energy>  (2) 
75.13502909365198

>  <Genealogy>  (2) 
CC(=O)N1CCc2ccc(S(=O)(=O)Nc3cccc(S(=O)(=O)N4CCCC4)c3)cc21 (3D coordinates assigned)
CC(=O)N1CCc2ccc(S(=O)(=O)Nc3cccc(S(=O)(=O)N4CCCC4)c3)cc21 (nonaromatic ring conformer: 75.13502909365198 kcal/mol)

>  <smiles>  (2) 
CC(=O)N1CCc2ccc(S(=O)(=O)Nc3cccc(S(=O)(=O)N4CCCC4)c3)cc21

>  <score_type>  (2) 
oracle

>  <origin>  (2) 
adgpu

>  <m_score__min__energy>  (2) 
-11.58

>  <m_primary>  (2) 
energy

$$$$
2:0
     RDKit          3D

 46 48  0  0  0  0  0  0  0  0999 V2000
   -0.9550   21.0380  -29.8060 C   0  0  0  0  0  0  0  0  0  0  0  0
   -2.3210   21.3910  -29.1850 C   0  0  0  0  0  0  0  0  0  0  0  0
   -2.6760   20.3720  -28.0640 C   0  0  0  0  0  0  0  0  0  0  0  0
   -3.4140   21.4620  -30.2240 C   0  0  0  0  0  0  0  0  0  0  0  0
   -3.8450   20.6080  -31.3370 C   0  0  0  0  0  0  0  0  0  0  0  0
   -5.1730   20.1650  -31.4580 C   0  0  0  0  0  0  0  0  0  0  0  0
   -5.5300   19.2920  -32.4950 C   0  0  0  0  0  0  0  0  0  0  0  0
   -4.5540   18.8070  -33.3870 C   0  0  0  0  0  0  0  0  0  0  0  0
   -4.9270   17.6240  -34.6400 S   0  0  0  0  0  0  0  0  0  0  0  0
   -5.8200   16.2110  -34.0200 C   0  0  0  0  0  0  0  0  0  0  0  0
   -3.6270   17.1360  -35.2250 O   0  0  0  0  0  0  0  0  0  0  0  0
   -5.7480   18.2830  -35.7130 O   0  0  0  0  0  0  0  0  0  0  0  0
   -3.2270   19.2420  -33.2540 C   0  0  0  0  0  0  0  0  0  0  0  0
   -2.8750   20.1250  -32.2260 C   0  0  0  0  0  0  0  0  0  0  0  0
   -3.8180   22.7240  -29.7590 C   0  0  0  0  0  0  0  0  0  0  0  0
   -4.9330   23.6600  -30.0210 C   0  0  0  0  0  0  0  0  0  0  0  0
   -6.2770   23.3340  -29.9770 C   0  0  0  0  0  0  0  0  0  0  0  0
   -6.9780   24.4330  -30.4220 C   0  0  0  0  0  0  0  0  0  0  0  0
   -6.1250   25.4210  -30.7450 N   0  0  0  0  0  0  0  0  0  0  0  0
   -4.8860   24.9550  -30.5020 C   0  0  0  0  0  0  0  0  0  0  0  0
   -3.7390   25.6730  -30.7960 O   0  0  0  0  0  0  0  0  0  0  0  0
   -2.5980   22.8120  -28.8790 C   0  0  0  0  0  0  0  0  0  0  0  0
   -2.9560   23.1480  -27.4090 C   0  0  0  0  0  0  0  0  0  0  0  0
   -1.6150   23.8670  -29.4610 C   0  0  0  0  0  0  0  0  0  0  0  0
   -0.2256   20.8495  -29.0045 H   0  0  0  0  0  0  0  0  0  0  0  0
   -1.0570   20.1367  -30.4283 H   0  0  0  0  0  0  0  0  0  0  0  0
   -0.6076   21.8759  -30.4283 H   0  0  0  0  0  0  0  0  0  0  0  0
   -2.5138   20.8375  -27.0806 H   0  0  0  0  0  0  0  0  0  0  0  0
   -3.7307   20.0746  -28.1594 H   0  0  0  0  0  0  0  0  0  0  0  0
   -2.0344   19.4836  -28.1594 H   0  0  0  0  0  0  0  0  0  0  0  0
   -5.9330   20.5035  -30.7384 H   0  0  0  0  0  0  0  0  0  0  0  0
   -6.5793   18.9837  -32.6128 H   0  0  0  0  0  0  0  0  0  0  0  0
   -5.8110   16.2253  -32.9201 H   0  0  0  0  0  0  0  0  0  0  0  0
   -6.8592   16.2478  -34.3787 H   0  0  0  0  0  0  0  0  0  0  0  0
   -5.3408   15.2881  -34.3787 H   0  0  0  0  0  0  0  0  0  0  0  0
   -2.4607   18.8883  -33.9595 H   0  0  0  0  0  0  0  0  0  0  0  0
   -1.8277   20.4425  -32.1151 H   0  0  0  0  0  0  0  0  0  0  0  0
   -6.7057   22.3759  -29.6480 H   0  0  0  0  0  0  0  0  0  0  0  0
   -8.0735   24.4935  -30.5014 H   0  0  0  0  0  0  0  0  0  0  0  0
   -6.3690   26.3460  -31.1630 H   0  0  0  0  0  0  0  0  0  0  0  0
   -2.3234   22.5543  -26.7327 H   0  0  0  0  0  0  0  0  0  0  0  0
   -2.7847   24.2190  -27.2255 H   0  0  0  0  0  0  0  0  0  0  0  0
   -4.0140   22.9092  -27.2255 H   0  0  0  0  0  0  0  0  0  0  0  0
   -1.1186   24.3998  -28.6365 H   0  0  0  0  0  0  0  0  0  0  0  0
   -0.8584   23.3615  -30.0791 H   0  0  0  0  0  0  0  0  0  0  0  0
   -2.1726   24.5860  -30.0791 H   0  0  0  0  0  0  0  0  0  0  0  0
  1  2  1  0
  2  3  1  0
  2  4  1  0
  4  5  1  0
  5  6  2  0
  6  7  1  0
  7  8  2  0
  8  9  1  0
  9 10  1  0
  9 11  2  0
  9 12  2  0
  8 13  1  0
 13 14  2  0
  4 15  2  0
 15 16  1  0
 16 17  1  0
 17 18  2  0
 18 19  1  0
 19 20  1  0
 20 21  1  0
 15 22  1  0
 22 23  1  0
 22 24  1  0
 22  2  1  0
 14  5  1  0
 20 16  2  0
  1 25  1  0
  1 26  1  0
  1 27  1  0
  3 28  1  0
  3 29  1  0
  3 30  1  0
  6 31  1  0
  7 32  1  0
 10 33  1  0
 10 34  1  0
 10 35  1  0
 13 36  1  0
 14 37  1  0
 17 38  1  0
 18 39  1  0
 19 40  1  0
 23 41  1  0
 23 42  1  0
 23 43  1  0
 24 44  1  0
 24 45  1  0
 24 46  1  0
M  CHG  1  21  -1
M  END
>  <UniqueID>  (3) 
3

>  <SMILES>  (3) 
CC1(C)C(c2ccc(S(C)(=O)=O)cc2)=C(c2cc[nH]c2[O-])C1(C)C

>  <Energy>  (3) 
117.41373910245521

>  <Genealogy>  (3) 
CC1(C)C(c2ccc(S(C)(=O)=O)cc2)=C(c2cc[nH]c2[O-])C1(C)C (protonated)
CC1(C)C(c2ccc(S(C)(=O)=O)cc2)=C(c2cc[nH]c2[O-])C1(C)C (3D coordinates assigned)
CC1(C)C(c2ccc(S(C)(=O)=O)cc2)=C(c2cc[nH]c2[O-])C1(C)C (nonaromatic ring conformer: 117.41373910245521 kcal/mol)

>  <smiles>  (3) 
CC1(C)C(c2ccc(S(C)(=O)=O)cc2)=C(c2cc[nH]c2O)C1(C)C

>  <score_type>  (3) 
oracle

>  <origin>  (3) 
adgpu

>  <m_score__min__energy>  (3) 
-10.94

>  <m_primary>  (3) 
energy

$$$$
3:0
     RDKit          3D

 78 83  0  0  0  0  0  0  0  0999 V2000
   -4.0020   24.2040  -28.4140 C   0  0  0  0  0  0  0  0  0  0  0  0
   -4.0880   23.8540  -29.9070 C   0  0  0  0  0  0  0  0  0  0  0  0
   -4.9420   24.8900  -30.6810 C   0  0  0  0  0  0  0  0  0  0  0  0
   -6.3730   24.3820  -30.8890 C   0  0  0  0  0  0  0  0  0  0  0  0
   -6.4010   23.1430  -31.7040 N   0  0  0  0  0  0  0  0  0  0  0  0
   -7.9300   22.3210  -31.4860 S   0  0  0  0  0  0  0  0  0  0  0  0
   -8.3250   22.3540  -30.0340 O   0  0  0  0  0  0  0  0  0  0  0  0
   -9.0050   23.0000  -32.2890 O   0  0  0  0  0  0  0  0  0  0  0  0
   -7.7720   20.6420  -31.9990 C   0  0  0  0  0  0  0  0  0  0  0  0
   -8.3110   19.6140  -31.2100 C   0  0  0  0  0  0  0  0  0  0  0  0
   -8.1330   18.2770  -31.5790 C   0  0  0  0  0  0  0  0  0  0  0  0
   -7.4030   17.9600  -32.7290 C   0  0  0  0  0  0  0  0  0  0  0  0
   -6.8590   18.9800  -33.5190 C   0  0  0  0  0  0  0  0  0  0  0  0
   -5.8810   18.5710  -34.9650 S   0  0  0  0  0  0  0  0  0  0  0  0
   -4.3340   18.6690  -34.0710 C   0  0  0  0  0  0  0  0  0  0  0  0
   -3.5440   17.5280  -33.8900 C   0  0  0  0  0  0  0  0  0  0  0  0
   -2.3610   17.6290  -33.2270 N   0  0  0  0  0  0  0  0  0  0  0  0
   -1.9330   18.8210  -32.7330 C   0  0  0  0  0  0  0  0  0  0  0  0
   -0.7090   18.9170  -32.0600 C   0  0  0  0  0  0  0  0  0  0  0  0
   -0.2850   20.1550  -31.5350 C   0  0  0  0  0  0  0  0  0  0  0  0
    0.9820   20.3150  -30.8720 N   0  0  0  0  0  0  0  0  0  0  0  0
    1.8400   19.2740  -30.3890 C   0  0  0  0  0  0  0  0  0  0  0  0
    2.9900   19.1040  -30.8750 O   0  0  0  0  0  0  0  0  0  0  0  0
    1.3510   18.3630  -29.3420 C   0  0  0  0  0  0  0  0  0  0  0  0
    1.8170   17.0400  -29.3190 C   0  0  0  0  0  0  0  0  0  0  0  0
    1.3720   16.1490  -28.3310 C   0  0  0  0  0  0  0  0  0  0  0  0
    2.0340   14.5170  -28.2580 S   0  0  0  0  0  0  0  0  0  0  0  0
    3.3800   14.4810  -28.9320 O   0  0  0  0  0  0  0  0  0  0  0  0
    1.0990   13.5930  -28.9870 O   0  0  0  0  0  0  0  0  0  0  0  0
    2.2010   13.9990  -26.5960 N   0  0  0  0  0  0  0  0  0  0  0  0
    3.1390   12.8600  -26.5080 C   0  0  0  0  0  0  0  0  0  0  0  0
    2.8760   12.0340  -25.2380 C   0  0  0  0  0  0  0  0  0  0  0  0
    1.5720   11.4680  -25.1830 O   0  0  0  0  0  0  0  0  0  0  0  0
    0.6020   12.1910  -25.9250 C   0  0  0  0  0  0  0  0  0  0  0  0
    0.8800   13.7030  -25.9960 C   0  0  0  0  0  0  0  0  0  0  0  0
    0.4510   16.5850  -27.3670 C   0  0  0  0  0  0  0  0  0  0  0  0
   -0.0280   17.8960  -27.3930 C   0  0  0  0  0  0  0  0  0  0  0  0
    0.4190   18.7930  -28.3710 C   0  0  0  0  0  0  0  0  0  0  0  0
   -0.0970   20.0920  -28.3660 O   0  0  0  0  0  0  0  0  0  0  0  0
   -1.0840   21.2900  -31.7310 C   0  0  0  0  0  0  0  0  0  0  0  0
   -2.3020   21.1990  -32.4130 C   0  0  0  0  0  0  0  0  0  0  0  0
   -2.7320   19.9680  -32.9130 C   0  0  0  0  0  0  0  0  0  0  0  0
   -3.9100   19.8640  -33.5800 N   0  0  0  0  0  0  0  0  0  0  0  0
   -7.0480   20.3190  -33.1570 C   0  0  0  0  0  0  0  0  0  0  0  0
   -5.2550   22.2250  -31.4710 C   0  0  0  0  0  0  0  0  0  0  0  0
   -4.6140   22.4090  -30.0890 C   0  0  0  0  0  0  0  0  0  0  0  0
   -4.2220   23.3085  -27.8142 H   0  0  0  0  0  0  0  0  0  0  0  0
   -2.9890   24.5628  -28.1793 H   0  0  0  0  0  0  0  0  0  0  0  0
   -4.7334   24.9914  -28.1793 H   0  0  0  0  0  0  0  0  0  0  0  0
   -3.0766   23.8986  -30.3372 H   0  0  0  0  0  0  0  0  0  0  0  0
   -4.9739   25.8287  -30.1084 H   0  0  0  0  0  0  0  0  0  0  0  0
   -4.4830   25.0535  -31.6672 H   0  0  0  0  0  0  0  0  0  0  0  0
   -6.8237   24.1736  -29.9075 H   0  0  0  0  0  0  0  0  0  0  0  0
   -6.9386   25.1585  -31.4249 H   0  0  0  0  0  0  0  0  0  0  0  0
   -8.8752   19.8608  -30.2985 H   0  0  0  0  0  0  0  0  0  0  0  0
   -8.5672   17.4745  -30.9647 H   0  0  0  0  0  0  0  0  0  0  0  0
   -7.2560   16.9076  -33.0133 H   0  0  0  0  0  0  0  0  0  0  0  0
   -3.8779   16.5558  -34.2815 H   0  0  0  0  0  0  0  0  0  0  0  0
   -0.0768   18.0247  -31.9406 H   0  0  0  0  0  0  0  0  0  0  0  0
    2.5350   16.6995  -30.0796 H   0  0  0  0  0  0  0  0  0  0  0  0
    3.0087   12.2163  -27.3904 H   0  0  0  0  0  0  0  0  0  0  0  0
    4.1663   13.2511  -26.4682 H   0  0  0  0  0  0  0  0  0  0  0  0
    3.6112   11.2168  -25.1970 H   0  0  0  0  0  0  0  0  0  0  0  0
    2.9640   12.7215  -24.3838 H   0  0  0  0  0  0  0  0  0  0  0  0
    0.5811   11.7930  -26.9503 H   0  0  0  0  0  0  0  0  0  0  0  0
   -0.3600   12.0644  -25.4067 H   0  0  0  0  0  0  0  0  0  0  0  0
    0.0985   14.1790  -26.6065 H   0  0  0  0  0  0  0  0  0  0  0  0
    0.8789   14.0962  -24.9687 H   0  0  0  0  0  0  0  0  0  0  0  0
    0.1047   15.8908  -26.5871 H   0  0  0  0  0  0  0  0  0  0  0  0
   -0.7603   18.2261  -26.6414 H   0  0  0  0  0  0  0  0  0  0  0  0
    0.0510   20.7400  -29.1280 H   0  0  0  0  0  0  0  0  0  0  0  0
   -0.7493   22.2637  -31.3439 H   0  0  0  0  0  0  0  0  0  0  0  0
   -2.9210   22.0971  -32.5554 H   0  0  0  0  0  0  0  0  0  0  0  0
   -6.6277   21.1205  -33.7822 H   0  0  0  0  0  0  0  0  0  0  0  0
   -5.6126   21.1883  -31.5568 H   0  0  0  0  0  0  0  0  0  0  0  0
   -4.4877   22.4570  -32.2243 H   0  0  0  0  0  0  0  0  0  0  0  0
   -5.3656   22.1998  -29.3135 H   0  0  0  0  0  0  0  0  0  0  0  0
   -3.7654   21.7145  -30.0019 H   0  0  0  0  0  0  0  0  0  0  0  0
  1  2  1  0
  2  3  1  0
  3  4  1  0
  4  5  1  0
  5  6  1  0
  6  7  2  0
  6  8  2  0
  6  9  1  0
  9 10  2  0
 10 11  1  0
 11 12  2  0
 12 13  1  0
 13 14  1  0
 14 15  1  0
 15 16  2  0
 16 17  1  0
 17 18  2  0
 18 19  1  0
 19 20  2  0
 20 21  1  0
 21 22  1  0
 22 23  2  0
 22 24  1  0
 24 25  2  0
 25 26  1  0
 26 27  1  0
 27 28  2  0
 27 29  2  0
 27 30  1  0
 30 31  1  0
 31 32  1  0
 32 33  1  0
 33 34  1  0
 34 35  1  0
 26 36  2  0
 36 37  1  0
 37 38  2  0
 38 39  1  0
 20 40  1  0
 40 41  2  0
 41 42  1  0
 42 43  2  0
 13 44  2  0
  5 45  1  0
 45 46  1  0
 46  2  1  0
 44  9  1  0
 43 15  1  0
 42 18  1  0
 38 24  1  0
 35 30  1  0
  1 47  1  0
  1 48  1  0
  1 49  1  0
  2 50  1  0
  3 51  1  0
  3 52  1  0
  4 53  1  0
  4 54  1  0
 10 55  1  0
 11 56  1  0
 12 57  1  0
 16 58  1  0
 19 59  1  0
 25 60  1  0
 31 61  1  0
 31 62  1  0
 32 63  1  0
 32 64  1  0
 34 65  1  0
 34 66  1  0
 35 67  1  0
 35 68  1  0
 36 69  1  0
 37 70  1  0
 39 71  1  0
 40 72  1  0
 41 73  1  0
 44 74  1  0
 45 75  1  0
 45 76  1  0
 46 77  1  0
 46 78  1  0
M  CHG  1  21  -1
M  END
>  <UniqueID>  (4) 
4

>  <SMILES>  (4) 
CC1CCN(S(=O)(=O)c2cccc(Sc3cnc4cc([N-]C(=O)c5cc(S(=O)(=O)N6CCOCC6)ccc5O)ccc4n3)c2)CC1

>  <Energy>  (4) 
111.12655886073064

>  <Genealogy>  (4) 
CC1CCN(S(=O)(=O)c2cccc(Sc3cnc4cc([N-]C(=O)c5cc(S(=O)(=O)N6CCOCC6)ccc5O)ccc4n3)c2)CC1 (protonated)
CC1CCN(S(=O)(=O)c2cccc(Sc3cnc4cc([N-]C(=O)c5cc(S(=O)(=O)N6CCOCC6)ccc5O)ccc4n3)c2)CC1 (3D coordinates assigned)
CC1CCN(S(=O)(=O)c2cccc(Sc3cnc4cc([N-]C(=O)c5cc(S(=O)(=O)N6CCOCC6)ccc5O)ccc4n3)c2)CC1 (nonaromatic ring conformer: 111.12655886073064 kcal/mol)

>  <smiles>  (4) 
CC1CCN(S(=O)(=O)c2cccc(Sc3cnc4cc(NC(=O)c5cc(S(=O)(=O)N6CCOCC6)ccc5O)ccc4n3)c2)CC1

>  <score_type>  (4) 
oracle

>  <origin>  (4) 
adgpu

>  <m_score__min__energy>  (4) 
-11.82

>  <m_primary>  (4) 
energy

$$$$
4:0
     RDKit          3D

 60 63  0  0  0  0  0  0  0  0999 V2000
   -6.8520   16.5500  -34.0660 C   0  0  0  0  0  0  0  0  0  0  0  0
   -5.5180   17.3020  -34.1190 C   0  0  0  0  0  0  0  0  0  0  0  0
   -4.5170   16.7250  -33.1040 C   0  0  0  0  0  0  0  0  0  0  0  0
   -3.1580   17.4580  -33.1660 C   0  0  0  0  0  0  0  0  0  0  0  0
   -3.2450   18.7550  -33.8730 N   0  0  0  0  0  0  0  0  0  0  0  0
   -1.7960   19.6840  -33.5810 S   0  0  0  0  0  0  0  0  0  0  0  0
   -0.6270   18.7570  -33.3920 O   0  0  0  0  0  0  0  0  0  0  0  0
   -1.5090   20.5830  -34.7530 O   0  0  0  0  0  0  0  0  0  0  0  0
   -1.9930   20.6520  -32.1220 C   0  0  0  0  0  0  0  0  0  0  0  0
   -1.6710   20.1060  -30.8730 C   0  0  0  0  0  0  0  0  0  0  0  0
   -1.8430   20.8600  -29.7100 C   0  0  0  0  0  0  0  0  0  0  0  0
   -2.3390   22.1680  -29.7860 C   0  0  0  0  0  0  0  0  0  0  0  0
   -2.5040   23.1300  -28.3180 S   0  0  0  0  0  0  0  0  0  0  0  0
   -1.2920   24.0060  -28.1780 O   0  0  0  0  0  0  0  0  0  0  0  0
   -2.6110   22.2400  -27.1110 O   0  0  0  0  0  0  0  0  0  0  0  0
   -3.9250   24.1240  -28.4160 N   0  0  0  0  0  0  0  0  0  0  0  0
   -4.9340   23.9650  -29.4320 C   0  0  0  0  0  0  0  0  0  0  0  0
   -5.9870   23.0480  -29.2740 C   0  0  0  0  0  0  0  0  0  0  0  0
   -6.9340   22.8580  -30.2920 C   0  0  0  0  0  0  0  0  0  0  0  0
   -6.8690   23.6430  -31.4600 C   0  0  0  0  0  0  0  0  0  0  0  0
   -5.8300   24.5710  -31.6100 C   0  0  0  0  0  0  0  0  0  0  0  0
   -4.8710   24.7340  -30.6070 C   0  0  0  0  0  0  0  0  0  0  0  0
   -3.8470   25.6550  -30.7960 O   0  0  0  0  0  0  0  0  0  0  0  0
   -7.8330   23.4300  -32.5970 C   0  0  0  0  0  0  0  0  0  0  0  0
   -9.0540   22.5920  -32.1860 C   0  0  0  0  0  0  0  0  0  0  0  0
   -8.6920   21.4400  -31.3380 N   0  0  0  0  0  0  0  0  0  0  0  0
   -7.8640   20.4490  -32.0490 C   0  0  0  0  0  0  0  0  0  0  0  0
   -8.0660   21.8800  -30.0770 C   0  0  0  0  0  0  0  0  0  0  0  0
   -2.6780   22.7100  -31.0340 C   0  0  0  0  0  0  0  0  0  0  0  0
   -2.5070   21.9540  -32.1980 C   0  0  0  0  0  0  0  0  0  0  0  0
   -4.4240   19.5180  -33.4300 C   0  0  0  0  0  0  0  0  0  0  0  0
   -5.7220   18.8140  -33.8710 C   0  0  0  0  0  0  0  0  0  0  0  0
   -7.1400   16.3877  -33.0168 H   0  0  0  0  0  0  0  0  0  0  0  0
   -7.6279   17.1436  -34.5716 H   0  0  0  0  0  0  0  0  0  0  0  0
   -6.7458   15.5788  -34.5716 H   0  0  0  0  0  0  0  0  0  0  0  0
   -5.1026   17.1695  -35.1289 H   0  0  0  0  0  0  0  0  0  0  0  0
   -4.9339   16.8310  -32.0916 H   0  0  0  0  0  0  0  0  0  0  0  0
   -4.3486   15.6663  -33.3505 H   0  0  0  0  0  0  0  0  0  0  0  0
   -2.8077   17.6389  -32.1391 H   0  0  0  0  0  0  0  0  0  0  0  0
   -2.4590   16.8189  -33.7253 H   0  0  0  0  0  0  0  0  0  0  0  0
   -1.2812   19.0795  -30.8078 H   0  0  0  0  0  0  0  0  0  0  0  0
   -1.5884   20.4258  -28.7319 H   0  0  0  0  0  0  0  0  0  0  0  0
   -3.9700   24.9400  -27.7670 H   0  0  0  0  0  0  0  0  0  0  0  0
   -6.0700   22.4719  -28.3406 H   0  0  0  0  0  0  0  0  0  0  0  0
   -5.7687   25.1769  -32.5260 H   0  0  0  0  0  0  0  0  0  0  0  0
   -8.1820   24.4110  -32.9517 H   0  0  0  0  0  0  0  0  0  0  0  0
   -7.3010   22.8794  -33.3868 H   0  0  0  0  0  0  0  0  0  0  0  0
   -9.7509   23.2348  -31.6283 H   0  0  0  0  0  0  0  0  0  0  0  0
   -9.5125   22.1982  -33.1051 H   0  0  0  0  0  0  0  0  0  0  0  0
   -7.3373   19.8187  -31.3173 H   0  0  0  0  0  0  0  0  0  0  0  0
   -8.5076   19.8186  -32.6801 H   0  0  0  0  0  0  0  0  0  0  0  0
   -7.1292   20.9703  -32.6801 H   0  0  0  0  0  0  0  0  0  0  0  0
   -8.8333   22.3628  -29.4540 H   0  0  0  0  0  0  0  0  0  0  0  0
   -7.6440   20.9888  -29.5895 H   0  0  0  0  0  0  0  0  0  0  0  0
   -3.0794   23.7322  -31.0976 H   0  0  0  0  0  0  0  0  0  0  0  0
   -2.7763   22.3818  -33.1750 H   0  0  0  0  0  0  0  0  0  0  0  0
   -4.4112   19.5988  -32.3330 H   0  0  0  0  0  0  0  0  0  0  0  0
   -4.3907   20.5188  -33.8854 H   0  0  0  0  0  0  0  0  0  0  0  0
   -6.4791   18.9437  -33.0836 H   0  0  0  0  0  0  0  0  0  0  0  0
   -6.0443   19.2687  -34.8194 H   0  0  0  0  0  0  0  0  0  0  0  0
  1  2  1  0
  2  3  1  0
  3  4  1  0
  4  5  1  0
  5  6  1  0
  6  7  2  0
  6  8  2  0
  6  9  1  0
  9 10  2  0
 10 11  1  0
 11 12  2  0
 12 13  1  0
 13 14  2  0
 13 15  2  0
 13 16  1  0
 16 17  1  0
 17 18  2  0
 18 19  1  0
 19 20  2  0
 20 21  1  0
 21 22  2  0
 22 23  1  0
 20 24  1  0
 24 25  1  0
 25 26  1  0
 26 27  1  0
 26 28  1  0
 12 29  1  0
 29 30  2  0
  5 31  1  0
 31 32  1  0
 32  2  1  0
 30  9  1  0
 22 17  1  0
 28 19  1  0
  1 33  1  0
  1 34  1  0
  1 35  1  0
  2 36  1  0
  3 37  1  0
  3 38  1  0
  4 39  1  0
  4 40  1  0
 10 41  1  0
 11 42  1  0
 16 43  1  0
 18 44  1  0
 21 45  1  0
 24 46  1  0
 24 47  1  0
 25 48  1  0
 25 49  1  0
 27 50  1  0
 27 51  1  0
 27 52  1  0
 28 53  1  0
 28 54  1  0
 29 55  1  0
 30 56  1  0
 31 57  1  0
 31 58  1  0
 32 59  1  0
 32 60  1  0
M  CHG  1  23  -1
M  END
>  <UniqueID>  (5) 
5

>  <SMILES>  (5) 
CC1CCN(S(=O)(=O)c2ccc(S(=O)(=O)Nc3cc4c(cc3[O-])CCN(C)C4)cc2)CC1

>  <Energy>  (5) 
70.8902517293004

>  <Genealogy>  (5) 
CC1CCN(S(=O)(=O)c2ccc(S(=O)(=O)Nc3cc4c(cc3[O-])CCN(C)C4)cc2)CC1 (protonated)
CC1CCN(S(=O)(=O)c2ccc(S(=O)(=O)Nc3cc4c(cc3[O-])CCN(C)C4)cc2)CC1 (3D coordinates assigned)
CC1CCN(S(=O)(=O)c2ccc(S(=O)(=O)Nc3cc4c(cc3[O-])CCN(C)C4)cc2)CC1 (nonaromatic ring conformer: 70.8902517293004 kcal/mol)

>  <smiles>  (5) 
CC1CCN(S(=O)(=O)c2ccc(S(=O)(=O)Nc3cc4c(cc3O)CCN(C)C4)cc2)CC1

>  <score_type>  (5) 
oracle

>  <origin>  (5) 
adgpu

>  <m_score__min__energy>  (5) 
-15.220000000000001

>  <m_primary>  (5) 
energy

$$$$
5:0
     RDKit          3D

 50 53  0  0  0  0  0  0  0  0999 V2000
   -3.9990   18.4840  -32.8610 C   0  0  0  0  0  0  0  0  0  0  0  0
   -5.3460   18.1010  -32.3950 N   0  0  2  0  0  0  0  0  0  0  0  0
   -5.4100   16.6610  -32.0930 C   0  0  0  0  0  0  0  0  0  0  0  0
   -5.9560   15.9460  -33.3240 C   0  0  0  0  0  0  0  0  0  0  0  0
   -6.4900   17.0370  -34.2370 C   0  0  0  0  0  0  0  0  0  0  0  0
   -6.3600   18.3410  -33.4450 C   0  0  1  0  0  0  0  0  0  0  0  0
   -7.7200   18.7490  -32.8310 C   0  0  0  0  0  0  0  0  0  0  0  0
   -7.5380   19.5280  -31.6490 O   0  0  0  0  0  0  0  0  0  0  0  0
   -7.5820   20.9300  -31.5770 C   0  0  0  0  0  0  0  0  0  0  0  0
   -8.6970   21.6800  -32.0000 C   0  0  0  0  0  0  0  0  0  0  0  0
   -8.6840   23.0740  -31.9000 C   0  0  0  0  0  0  0  0  0  0  0  0
   -7.5680   23.7320  -31.3800 C   0  0  0  0  0  0  0  0  0  0  0  0
   -6.4530   22.9960  -30.9580 C   0  0  0  0  0  0  0  0  0  0  0  0
   -5.0520   23.8220  -30.2730 S   0  0  0  0  0  0  0  0  0  0  0  0
   -5.4530   24.4400  -28.9620 O   0  0  0  0  0  0  0  0  0  0  0  0
   -4.6350   24.9140  -31.2180 O   0  0  0  0  0  0  0  0  0  0  0  0
   -3.6900   22.7140  -30.0120 C   0  0  0  0  0  0  0  0  0  0  0  0
   -3.2130   22.5220  -28.7040 C   0  0  0  0  0  0  0  0  0  0  0  0
   -2.1460   21.6610  -28.4490 C   0  0  0  0  0  0  0  0  0  0  0  0
   -1.5320   20.9750  -29.4930 C   0  0  0  0  0  0  0  0  0  0  0  0
   -1.9820   21.1460  -30.8080 C   0  0  0  0  0  0  0  0  0  0  0  0
   -1.3640   20.4560  -31.8600 C   0  0  0  0  0  0  0  0  0  0  0  0
   -1.8010   20.6220  -33.1350 N   0  0  0  0  0  0  0  0  0  0  0  0
   -2.8350   21.4480  -33.4340 C   0  0  0  0  0  0  0  0  0  0  0  0
   -3.4850   22.1590  -32.4230 C   0  0  0  0  0  0  0  0  0  0  0  0
   -3.0670   22.0180  -31.0840 C   0  0  0  0  0  0  0  0  0  0  0  0
   -6.4700   21.5970  -31.0520 C   0  0  0  0  0  0  0  0  0  0  0  0
   -3.3494   18.6687  -31.9927 H   0  0  0  0  0  0  0  0  0  0  0  0
   -3.5762   17.6705  -33.4688 H   0  0  0  0  0  0  0  0  0  0  0  0
   -4.0675   19.3983  -33.4688 H   0  0  0  0  0  0  0  0  0  0  0  0
   -5.5480   18.6500  -31.5260 H   0  0  0  0  0  0  0  0  0  0  0  0
   -4.4039   16.2837  -31.8576 H   0  0  0  0  0  0  0  0  0  0  0  0
   -6.0619   16.4808  -31.2255 H   0  0  0  0  0  0  0  0  0  0  0  0
   -5.1550   15.3844  -33.8269 H   0  0  0  0  0  0  0  0  0  0  0  0
   -6.7410   15.2235  -33.0562 H   0  0  0  0  0  0  0  0  0  0  0  0
   -5.8956   17.0887  -35.1611 H   0  0  0  0  0  0  0  0  0  0  0  0
   -7.5316   16.8443  -34.5335 H   0  0  0  0  0  0  0  0  0  0  0  0
   -6.0517   19.1712  -34.0974 H   0  0  0  0  0  0  0  0  0  0  0  0
   -8.2836   19.3404  -33.5676 H   0  0  0  0  0  0  0  0  0  0  0  0
   -8.2712   17.8349  -32.5652 H   0  0  0  0  0  0  0  0  0  0  0  0
   -9.5797   21.1674  -32.4099 H   0  0  0  0  0  0  0  0  0  0  0  0
   -9.5568   23.6551  -32.2324 H   0  0  0  0  0  0  0  0  0  0  0  0
   -7.5640   24.8292  -31.3015 H   0  0  0  0  0  0  0  0  0  0  0  0
   -3.6881   23.0585  -27.8695 H   0  0  0  0  0  0  0  0  0  0  0  0
   -1.7879   21.5233  -27.4181 H   0  0  0  0  0  0  0  0  0  0  0  0
   -0.6913   20.2969  -29.2846 H   0  0  0  0  0  0  0  0  0  0  0  0
   -0.5228   19.7783  -31.6523 H   0  0  0  0  0  0  0  0  0  0  0  0
   -3.1630   21.5582  -34.4782 H   0  0  0  0  0  0  0  0  0  0  0  0
   -4.3220   22.8282  -32.6711 H   0  0  0  0  0  0  0  0  0  0  0  0
   -5.5998   21.0179  -30.7093 H   0  0  0  0  0  0  0  0  0  0  0  0
  1  2  1  0
  2  3  1  0
  3  4  1  0
  4  5  1  0
  5  6  1  0
  6  7  1  0
  7  8  1  0
  8  9  1  0
  9 10  2  0
 10 11  1  0
 11 12  2  0
 12 13  1  0
 13 14  1  0
 14 15  2  0
 14 16  2  0
 14 17  1  0
 17 18  2  0
 18 19  1  0
 19 20  2  0
 20 21  1  0
 21 22  2  0
 22 23  1  0
 23 24  2  0
 24 25  1  0
 25 26  2  0
 13 27  2  0
  6  2  1  0
 27  9  1  0
 26 17  1  0
 26 21  1  0
  1 28  1  0
  1 29  1  0
  1 30  1  0
  2 31  1  1
  3 32  1  0
  3 33  1  0
  4 34  1  0
  4 35  1  0
  5 36  1  0
  5 37  1  0
  6 38  1  6
  7 39  1  0
  7 40  1  0
 10 41  1  0
 11 42  1  0
 12 43  1  0
 18 44  1  0
 19 45  1  0
 20 46  1  0
 22 47  1  0
 24 48  1  0
 25 49  1  0
 27 50  1  0
M  CHG  1   2   1
M  END
>  <UniqueID>  (6) 
6

>  <SMILES>  (6) 
C[N@@H+]1CCC[C@H]1COc1cccc(S(=O)(=O)c2cccc3cnccc23)c1

>  <Energy>  (6) 
66.16733051519367

>  <Genealogy>  (6) 
C[NH+]1CCCC1COc1cccc(S(=O)(=O)c2cccc3cnccc23)c1 (protonated)
C[N@@H+]1CCC[C@H]1COc1cccc(S(=O)(=O)c2cccc3cnccc23)c1 (chirality)
C[N@@H+]1CCC[C@H]1COc1cccc(S(=O)(=O)c2cccc3cnccc23)c1 (3D coordinates assigned)
C[N@@H+]1CCC[C@H]1COc1cccc(S(=O)(=O)c2cccc3cnccc23)c1 (nonaromatic ring conformer: 66.16733051519367 kcal/mol)

>  <smiles>  (6) 
CN1CCCC1COc1cccc(S(=O)(=O)c2cccc3cnccc23)c1

>  <score_type>  (6) 
oracle

>  <origin>  (6) 
adgpu

>  <m_score__min__energy>  (6) 
-8.6799999999999997

>  <m_primary>  (6) 
energy

$$$$
6:0
     RDKit          3D

 67 72  0  0  0  0  0  0  0  0999 V2000
   -7.7670   22.2950  -29.6910 O   0  0  0  0  0  0  0  0  0  0  0  0
   -7.1740   22.6170  -31.0350 S   0  0  0  0  0  0  0  0  0  0  0  0
   -8.2540   23.1950  -31.9080 O   0  0  0  0  0  0  0  0  0  0  0  0
   -5.9220   23.8070  -30.8320 N   0  0  0  0  0  0  0  0  0  0  0  0
   -4.7980   23.6640  -29.9540 C   0  0  0  0  0  0  0  0  0  0  0  0
   -4.6430   22.5300  -29.1460 C   0  0  0  0  0  0  0  0  0  0  0  0
   -3.5700   22.4350  -28.2480 C   0  0  0  0  0  0  0  0  0  0  0  0
   -2.6490   23.4990  -28.1340 C   0  0  0  0  0  0  0  0  0  0  0  0
   -2.7140   24.5400  -29.0790 C   0  0  0  0  0  0  0  0  0  0  0  0
   -3.7940   24.6370  -29.9610 C   0  0  0  0  0  0  0  0  0  0  0  0
   -3.8710   25.7140  -30.8370 O   0  0  0  0  0  0  0  0  0  0  0  0
   -1.4600   23.4160  -27.1700 C   0  0  1  0  0  0  0  0  0  0  0  0
   -1.3160   24.5750  -26.1860 C   0  0  0  0  0  0  0  0  0  0  0  0
   -2.0400   25.7870  -26.2750 C   0  0  0  0  0  0  0  0  0  0  0  0
   -1.7810   26.8370  -25.3920 C   0  0  0  0  0  0  0  0  0  0  0  0
   -0.8150   26.6980  -24.3980 C   0  0  0  0  0  0  0  0  0  0  0  0
   -0.1290   25.4920  -24.2580 C   0  0  0  0  0  0  0  0  0  0  0  0
   -0.3810   24.4210  -25.1300 C   0  0  0  0  0  0  0  0  0  0  0  0
    0.2680   23.0860  -24.8260 C   0  0  0  0  0  0  0  0  0  0  0  0
   -0.1050   21.9590  -25.8080 C   0  0  0  0  0  0  0  0  0  0  0  0
   -1.4560   22.1730  -26.3580 N   0  0  0  0  0  0  0  0  0  0  0  0
   -1.9130   20.9960  -27.1080 C   0  0  0  0  0  0  0  0  0  0  0  0
   -3.3870   21.1790  -27.4480 C   0  0  0  0  0  0  0  0  0  0  0  0
   -6.5730   21.1280  -31.7620 C   0  0  0  0  0  0  0  0  0  0  0  0
   -7.3910   19.9920  -31.8390 C   0  0  0  0  0  0  0  0  0  0  0  0
   -6.9460   18.8500  -32.5080 C   0  0  0  0  0  0  0  0  0  0  0  0
   -5.6780   18.8280  -33.1060 C   0  0  0  0  0  0  0  0  0  0  0  0
   -5.1300   17.3910  -33.9740 S   0  0  0  0  0  0  0  0  0  0  0  0
   -3.6330   17.4440  -34.1240 O   0  0  0  0  0  0  0  0  0  0  0  0
   -5.7340   17.3850  -35.3510 O   0  0  0  0  0  0  0  0  0  0  0  0
   -5.5790   15.9220  -33.1350 N   0  0  0  0  0  0  0  0  0  0  0  0
   -6.1490   14.9150  -34.0640 C   0  0  0  0  0  0  0  0  0  0  0  0
   -5.1530   13.8050  -34.4310 C   0  0  0  0  0  0  0  0  0  0  0  0
   -4.6520   13.0670  -33.1760 C   0  0  0  0  0  0  0  0  0  0  0  0
   -4.6290   13.9650  -31.9260 C   0  0  0  0  0  0  0  0  0  0  0  0
   -4.4490   15.4360  -32.3110 C   0  0  0  0  0  0  0  0  0  0  0  0
   -4.8550   19.9580  -33.0190 C   0  0  0  0  0  0  0  0  0  0  0  0
   -5.2970   21.1000  -32.3430 C   0  0  0  0  0  0  0  0  0  0  0  0
   -5.3693   21.7069  -29.2166 H   0  0  0  0  0  0  0  0  0  0  0  0
   -1.9062   25.2853  -29.1239 H   0  0  0  0  0  0  0  0  0  0  0  0
   -0.6133   23.4461  -27.8716 H   0  0  0  0  0  0  0  0  0  0  0  0
   -2.8145   25.9033  -27.0474 H   0  0  0  0  0  0  0  0  0  0  0  0
   -2.3425   27.7786  -25.4817 H   0  0  0  0  0  0  0  0  0  0  0  0
   -0.5935   27.5388  -23.7242 H   0  0  0  0  0  0  0  0  0  0  0  0
    0.6164   25.3788  -23.4570 H   0  0  0  0  0  0  0  0  0  0  0  0
    1.3595   23.2197  -24.8542 H   0  0  0  0  0  0  0  0  0  0  0  0
   -0.1005   22.7756  -23.8371 H   0  0  0  0  0  0  0  0  0  0  0  0
    0.6224   21.9435  -26.6330 H   0  0  0  0  0  0  0  0  0  0  0  0
   -0.0906   21.0006  -25.2684 H   0  0  0  0  0  0  0  0  0  0  0  0
   -1.3284   20.8969  -28.0345 H   0  0  0  0  0  0  0  0  0  0  0  0
   -1.7768   20.0880  -26.5022 H   0  0  0  0  0  0  0  0  0  0  0  0
   -3.7363   20.3172  -28.0356 H   0  0  0  0  0  0  0  0  0  0  0  0
   -3.9688   21.2522  -26.5174 H   0  0  0  0  0  0  0  0  0  0  0  0
   -8.3864   20.0004  -31.3710 H   0  0  0  0  0  0  0  0  0  0  0  0
   -7.5937   17.9628  -32.5662 H   0  0  0  0  0  0  0  0  0  0  0  0
   -7.0265   14.4546  -33.5864 H   0  0  0  0  0  0  0  0  0  0  0  0
   -6.4150   15.4388  -34.9940 H   0  0  0  0  0  0  0  0  0  0  0  0
   -5.6494   13.0837  -35.0968 H   0  0  0  0  0  0  0  0  0  0  0  0
   -4.2886   14.2653  -34.9319 H   0  0  0  0  0  0  0  0  0  0  0  0
   -5.3163   12.2119  -32.9824 H   0  0  0  0  0  0  0  0  0  0  0  0
   -3.6187   12.7446  -33.3715 H   0  0  0  0  0  0  0  0  0  0  0  0
   -5.5780   13.8490  -31.3821 H   0  0  0  0  0  0  0  0  0  0  0  0
   -3.7824   13.6623  -31.2923 H   0  0  0  0  0  0  0  0  0  0  0  0
   -4.3887   16.0409  -31.3942 H   0  0  0  0  0  0  0  0  0  0  0  0
   -3.5256   15.5283  -32.9016 H   0  0  0  0  0  0  0  0  0  0  0  0
   -3.8580   19.9473  -33.4837 H   0  0  0  0  0  0  0  0  0  0  0  0
   -4.6410   21.9797  -32.2668 H   0  0  0  0  0  0  0  0  0  0  0  0
  1  2  2  0
  2  3  2  0
  2  4  1  0
  4  5  1  0
  5  6  2  0
  6  7  1  0
  7  8  2  0
  8  9  1  0
  9 10  2  0
 10 11  1  0
  8 12  1  0
 12 13  1  0
 13 14  2  0
 14 15  1  0
 15 16  2  0
 16 17  1  0
 17 18  2  0
 18 19  1  0
 19 20  1  0
 20 21  1  0
 21 22  1  0
 22 23  1  0
  2 24  1  0
 24 25  2  0
 25 26  1  0
 26 27  2  0
 27 28  1  0
 28 29  2  0
 28 30  2  0
 28 31  1  0
 31 32  1  0
 32 33  1  0
 33 34  1  0
 34 35  1  0
 35 36  1  0
 27 37  1  0
 37 38  2  0
 10  5  1  0
 21 12  1  0
 38 24  1  0
 23  7  1  0
 36 31  1  0
 18 13  1  0
  6 39  1  0
  9 40  1  0
 12 41  1  6
 14 42  1  0
 15 43  1  0
 16 44  1  0
 17 45  1  0
 19 46  1  0
 19 47  1  0
 20 48  1  0
 20 49  1  0
 22 50  1  0
 22 51  1  0
 23 52  1  0
 23 53  1  0
 25 54  1  0
 26 55  1  0
 32 56  1  0
 32 57  1  0
 33 58  1  0
 33 59  1  0
 34 60  1  0
 34 61  1  0
 35 62  1  0
 35 63  1  0
 36 64  1  0
 36 65  1  0
 37 66  1  0
 38 67  1  0
M  CHG  2   4  -1  11  -1
M  END
>  <UniqueID>  (7) 
7

>  <SMILES>  (7) 
O=S(=O)([N-]c1cc2c(cc1[O-])[C@H]1c3ccccc3CCN1CC2)c1ccc(S(=O)(=O)N2CCCCC2)cc1

>  <Energy>  (7) 
103.2068819182454

>  <Genealogy>  (7) 
O=S(=O)([N-]c1cc2c(cc1[O-])C1c3ccccc3CCN1CC2)c1ccc(S(=O)(=O)N2CCCCC2)cc1 (protonated)
O=S(=O)([N-]c1cc2c(cc1[O-])[C@H]1c3ccccc3CCN1CC2)c1ccc(S(=O)(=O)N2CCCCC2)cc1 (chirality)
O=S(=O)([N-]c1cc2c(cc1[O-])[C@H]1c3ccccc3CCN1CC2)c1ccc(S(=O)(=O)N2CCCCC2)cc1 (3D coordinates assigned)
O=S(=O)([N-]c1cc2c(cc1[O-])[C@H]1c3ccccc3CCN1CC2)c1ccc(S(=O)(=O)N2CCCCC2)cc1 (nonaromatic ring conformer: 103.2068819182454 kcal/mol)

>  <smiles>  (7) 
O=S(=O)(Nc1cc2c(cc1O)C1c3ccccc3CCN1CC2)c1ccc(S(=O)(=O)N2CCCCC2)cc1

>  <score_type>  (7) 
oracle

>  <origin>  (7) 
adgpu

>  <m_score__min__energy>  (7) 
-14.880000000000001

>  <m_primary>  (7) 
energy

$$$$
7:0
     RDKit          3D

 46 48  0  0  0  0  0  0  0  0999 V2000
   -1.2460   20.5400  -27.5210 C   0  0  0  0  0  0  0  0  0  0  0  0
   -2.1800   21.5770  -28.0590 C   0  0  0  0  0  0  0  0  0  0  0  0
   -2.7090   22.5560  -27.2220 C   0  0  0  0  0  0  0  0  0  0  0  0
   -3.5870   23.5240  -27.7350 C   0  0  0  0  0  0  0  0  0  0  0  0
   -4.1610   24.5310  -26.7740 C   0  0  0  0  0  0  0  0  0  0  0  0
   -3.9060   23.5130  -29.1210 C   0  0  0  0  0  0  0  0  0  0  0  0
   -5.1180   24.6180  -29.8340 S   0  0  0  0  0  0  0  0  0  0  0  0
   -5.7720   25.5140  -28.8230 O   0  0  0  0  0  0  0  0  0  0  0  0
   -4.4520   25.4980  -30.8510 O   0  0  0  0  0  0  0  0  0  0  0  0
   -6.3700   23.6470  -30.6030 C   0  0  0  0  0  0  0  0  0  0  0  0
   -7.1150   22.7190  -29.8590 C   0  0  0  0  0  0  0  0  0  0  0  0
   -8.1130   21.9610  -30.4800 C   0  0  0  0  0  0  0  0  0  0  0  0
   -8.3700   22.1240  -31.8450 C   0  0  0  0  0  0  0  0  0  0  0  0
   -7.6280   23.0450  -32.5890 C   0  0  0  0  0  0  0  0  0  0  0  0
   -6.6300   23.8050  -31.9710 C   0  0  0  0  0  0  0  0  0  0  0  0
   -3.3130   22.5110  -29.9320 C   0  0  0  0  0  0  0  0  0  0  0  0
   -3.6170   22.3920  -31.7030 S   0  0  0  0  0  0  0  0  0  0  0  0
   -2.4400   21.0220  -31.9880 C   0  0  0  0  0  0  0  0  0  0  0  0
   -2.6170   20.4220  -33.3470 C   0  0  0  0  0  0  0  0  0  0  0  0
   -1.6010   20.2050  -34.0600 O   0  0  0  0  0  0  0  0  0  0  0  0
   -3.9360   20.0710  -33.7910 N   0  0  0  0  0  0  0  0  0  0  0  0
   -4.9630   19.7140  -33.0720 C   0  0  0  0  0  0  0  0  0  0  0  0
   -4.9620   19.5150  -31.7310 N   0  0  0  0  0  0  0  0  0  0  0  0
   -6.1430   19.1240  -31.2550 N   0  0  0  0  0  0  0  0  0  0  0  0
   -7.0850   18.9920  -32.2160 C   0  0  0  0  0  0  0  0  0  0  0  0
   -8.5030   18.6280  -31.9360 C   0  0  0  0  0  0  0  0  0  0  0  0
   -6.4730   19.3880  -33.7360 S   0  0  0  0  0  0  0  0  0  0  0  0
   -2.4920   21.5820  -29.3780 N   0  0  0  0  0  0  0  0  0  0  0  0
   -1.2667   20.5630  -26.4214 H   0  0  0  0  0  0  0  0  0  0  0  0
   -1.5596   19.5461  -27.8730 H   0  0  0  0  0  0  0  0  0  0  0  0
   -0.2248   20.7483  -27.8730 H   0  0  0  0  0  0  0  0  0  0  0  0
   -2.4383   22.5710  -26.1559 H   0  0  0  0  0  0  0  0  0  0  0  0
   -3.9730   24.2012  -25.7416 H   0  0  0  0  0  0  0  0  0  0  0  0
   -3.6844   25.5085  -26.9392 H   0  0  0  0  0  0  0  0  0  0  0  0
   -5.2450   24.6190  -26.9392 H   0  0  0  0  0  0  0  0  0  0  0  0
   -6.9137   22.5876  -28.7856 H   0  0  0  0  0  0  0  0  0  0  0  0
   -8.6965   21.2357  -29.8940 H   0  0  0  0  0  0  0  0  0  0  0  0
   -9.1555   21.5278  -32.3324 H   0  0  0  0  0  0  0  0  0  0  0  0
   -7.8293   23.1725  -33.6629 H   0  0  0  0  0  0  0  0  0  0  0  0
   -6.0476   24.5287  -32.5601 H   0  0  0  0  0  0  0  0  0  0  0  0
   -1.4138   21.4077  -31.8983 H   0  0  0  0  0  0  0  0  0  0  0  0
   -2.6311   20.2406  -31.2378 H   0  0  0  0  0  0  0  0  0  0  0  0
   -4.1420   19.6150  -31.0980 H   0  0  0  0  0  0  0  0  0  0  0  0
   -8.6631   18.5869  -30.8485 H   0  0  0  0  0  0  0  0  0  0  0  0
   -9.1695   19.3842  -32.3764 H   0  0  0  0  0  0  0  0  0  0  0  0
   -8.7229   17.6443  -32.3764 H   0  0  0  0  0  0  0  0  0  0  0  0
  1  2  1  0
  2  3  2  0
  3  4  1  0
  4  5  1  0
  4  6  2  0
  6  7  1  0
  7  8  2  0
  7  9  2  0
  7 10  1  0
 10 11  2  0
 11 12  1  0
 12 13  2  0
 13 14  1  0
 14 15  2  0
  6 16  1  0
 16 17  1  0
 17 18  1  0
 18 19  1  0
 19 20  2  0
 19 21  1  0
 21 22  2  3
 22 23  1  0
 23 24  1  0
 24 25  2  0
 25 26  1  0
 25 27  1  0
 16 28  2  0
 28  2  1  0
 15 10  1  0
 27 22  1  0
  1 29  1  0
  1 30  1  0
  1 31  1  0
  3 32  1  0
  5 33  1  0
  5 34  1  0
  5 35  1  0
 11 36  1  0
 12 37  1  0
 13 38  1  0
 14 39  1  0
 15 40  1  0
 18 41  1  0
 18 42  1  0
 23 43  1  0
 26 44  1  0
 26 45  1  0
 26 46  1  0
M  END
>  <UniqueID>  (8) 
8

>  <SMILES>  (8) 
Cc1cc(C)c(S(=O)(=O)c2ccccc2)c(SCC(=O)N=c2[nH]nc(C)s2)n1

>  <Energy>  (8) 
86.6776270183339

>  <Genealogy>  (8) 
Cc1cc(C)c(S(=O)(=O)c2ccccc2)c(SCC(=O)N=c2[nH]nc(C)s2)n1 (3D coordinates assigned)
Cc1cc(C)c(S(=O)(=O)c2ccccc2)c(SCC(=O)N=c2[nH]nc(C)s2)n1 (optimized conformer: 86.6776270183339 kcal/mol)

>  <smiles>  (8) 
Cc1cc(C)c(S(=O)(=O)c2ccccc2)c(SCC(=O)N=c2[nH]nc(C)s2)n1

>  <score_type>  (8) 
oracle

>  <origin>  (8) 
adgpu

>  <m_score__min__energy>  (8) 
-10.16

>  <m_primary>  (8) 
energy

$$$$
8:0
     RDKit          3D

 50 53  0  0  0  0  0  0  0  0999 V2000
   -6.4530   18.3360  -32.2470 C   0  0  0  0  0  0  0  0  0  0  0  0
   -7.0960   19.4170  -33.1360 C   0  0  2  0  0  0  0  0  0  0  0  0
   -6.6200   20.8410  -32.7770 C   0  0  0  0  0  0  0  0  0  0  0  0
   -7.5890   21.5350  -31.9210 N   0  0  0  0  0  0  0  0  0  0  0  0
   -7.4580   22.9570  -31.7350 C   0  0  0  0  0  0  0  0  0  0  0  0
   -8.4260   23.7100  -32.0320 O   0  0  0  0  0  0  0  0  0  0  0  0
   -6.2200   23.5550  -31.1800 C   0  0  0  0  0  0  0  0  0  0  0  0
   -6.1980   24.9090  -30.8010 C   0  0  0  0  0  0  0  0  0  0  0  0
   -5.0280   25.4810  -30.2960 C   0  0  0  0  0  0  0  0  0  0  0  0
   -3.8670   24.7130  -30.1650 C   0  0  0  0  0  0  0  0  0  0  0  0
   -2.7080   25.2990  -29.6700 O   0  0  0  0  0  0  0  0  0  0  0  0
   -3.8820   23.3590  -30.5280 C   0  0  0  0  0  0  0  0  0  0  0  0
   -2.6910   22.5750  -30.4620 N   0  0  0  0  0  0  0  0  0  0  0  0
   -2.1040   22.0020  -28.9380 S   0  0  0  0  0  0  0  0  0  0  0  0
   -0.7670   21.3440  -29.1420 O   0  0  0  0  0  0  0  0  0  0  0  0
   -3.0570   20.9930  -28.3640 O   0  0  0  0  0  0  0  0  0  0  0  0
   -1.9310   23.3670  -27.8370 C   0  0  0  0  0  0  0  0  0  0  0  0
   -3.0500   23.8440  -27.1410 C   0  0  0  0  0  0  0  0  0  0  0  0
   -2.9450   24.9690  -26.3190 C   0  0  0  0  0  0  0  0  0  0  0  0
   -1.7160   25.6300  -26.1860 C   0  0  0  0  0  0  0  0  0  0  0  0
   -1.5910   26.7720  -25.3840 C   0  0  0  0  0  0  0  0  0  0  0  0
   -0.3890   27.4020  -25.2800 N   0  0  0  0  0  0  0  0  0  0  0  0
    0.7150   26.9550  -25.9350 C   0  0  0  0  0  0  0  0  0  0  0  0
    0.6410   25.8200  -26.7450 C   0  0  0  0  0  0  0  0  0  0  0  0
   -0.5820   25.1490  -26.8780 C   0  0  0  0  0  0  0  0  0  0  0  0
   -0.6980   24.0210  -27.7040 C   0  0  0  0  0  0  0  0  0  0  0  0
   -5.0590   22.7800  -31.0130 C   0  0  0  0  0  0  0  0  0  0  0  0
   -8.4450   20.7440  -31.0280 C   0  0  0  0  0  0  0  0  0  0  0  0
   -9.1570   19.6160  -31.7980 C   0  0  0  0  0  0  0  0  0  0  0  0
   -8.5660   19.3530  -33.1220 N   0  0  0  0  0  0  0  0  0  0  0  0
   -6.6059   18.5931  -31.1885 H   0  0  0  0  0  0  0  0  0  0  0  0
   -6.9188   17.3623  -32.4588 H   0  0  0  0  0  0  0  0  0  0  0  0
   -5.3750   18.2806  -32.4588 H   0  0  0  0  0  0  0  0  0  0  0  0
   -6.7551   19.1960  -34.1582 H   0  0  0  0  0  0  0  0  0  0  0  0
   -5.6591   20.7729  -32.2459 H   0  0  0  0  0  0  0  0  0  0  0  0
   -6.5135   21.4135  -33.7102 H   0  0  0  0  0  0  0  0  0  0  0  0
   -7.1066   25.5207  -30.9027 H   0  0  0  0  0  0  0  0  0  0  0  0
   -5.0200   26.5404  -30.0000 H   0  0  0  0  0  0  0  0  0  0  0  0
   -4.0170   23.3295  -27.2425 H   0  0  0  0  0  0  0  0  0  0  0  0
   -3.8279   25.3365  -25.7755 H   0  0  0  0  0  0  0  0  0  0  0  0
   -2.4641   27.1594  -24.8385 H   0  0  0  0  0  0  0  0  0  0  0  0
    1.6703   27.4894  -25.8266 H   0  0  0  0  0  0  0  0  0  0  0  0
    1.5343   25.4560  -27.2737 H   0  0  0  0  0  0  0  0  0  0  0  0
    0.1816   23.6483  -28.2493 H   0  0  0  0  0  0  0  0  0  0  0  0
   -5.0765   21.7096  -31.2658 H   0  0  0  0  0  0  0  0  0  0  0  0
   -7.8247   20.3015  -30.2347 H   0  0  0  0  0  0  0  0  0  0  0  0
   -9.2082   21.4084  -30.5967 H   0  0  0  0  0  0  0  0  0  0  0  0
   -9.0993   18.6944  -31.2002 H   0  0  0  0  0  0  0  0  0  0  0  0
  -10.1959   19.9381  -31.9623 H   0  0  0  0  0  0  0  0  0  0  0  0
   -8.8750   18.4060  -33.4440 H   0  0  0  0  0  0  0  0  0  0  0  0
  1  2  1  0
  2  3  1  0
  3  4  1  0
  4  5  1  0
  5  6  2  0
  5  7  1  0
  7  8  2  0
  8  9  1  0
  9 10  2  0
 10 11  1  0
 10 12  1  0
 12 13  1  0
 13 14  1  0
 14 15  2  0
 14 16  2  0
 14 17  1  0
 17 18  2  0
 18 19  1  0
 19 20  2  0
 20 21  1  0
 21 22  2  0
 22 23  1  0
 23 24  2  0
 24 25  1  0
 25 26  2  0
 12 27  2  0
  4 28  1  0
 28 29  1  0
 29 30  1  0
 30  2  1  0
 27  7  1  0
 26 17  1  0
 25 20  1  0
  1 31  1  0
  1 32  1  0
  1 33  1  0
  2 34  1  6
  3 35  1  0
  3 36  1  0
  8 37  1  0
  9 38  1  0
 18 39  1  0
 19 40  1  0
 21 41  1  0
 23 42  1  0
 24 43  1  0
 26 44  1  0
 27 45  1  0
 28 46  1  0
 28 47  1  0
 29 48  1  0
 29 49  1  0
 30 50  1  0
M  CHG  2  11  -1  13  -1
M  END
>  <UniqueID>  (9) 
9

>  <SMILES>  (9) 
C[C@@H]1CN(C(=O)c2ccc([O-])c([N-]S(=O)(=O)c3ccc4cnccc4c3)c2)CCN1

>  <Energy>  (9) 
72.00345358433363

>  <Genealogy>  (9) 
CC1CN(C(=O)c2ccc([O-])c([N-]S(=O)(=O)c3ccc4cnccc4c3)c2)CCN1 (protonated)
C[C@@H]1CN(C(=O)c2ccc([O-])c([N-]S(=O)(=O)c3ccc4cnccc4c3)c2)CCN1 (chirality)
C[C@@H]1CN(C(=O)c2ccc([O-])c([N-]S(=O)(=O)c3ccc4cnccc4c3)c2)CCN1 (3D coordinates assigned)
C[C@@H]1CN(C(=O)c2ccc([O-])c([N-]S(=O)(=O)c3ccc4cnccc4c3)c2)CCN1 (nonaromatic ring conformer: 72.00345358433363 kcal/mol)

>  <smiles>  (9) 
CC1CN(C(=O)c2ccc(O)c(NS(=O)(=O)c3ccc4cnccc4c3)c2)CCN1

>  <score_type>  (9) 
oracle

>  <origin>  (9) 
adgpu

>  <m_score__min__energy>  (9) 
-14.52

>  <m_primary>  (9) 
energy

$$$$
9:0
     RDKit          3D

 50 52  0  0  0  0  0  0  0  0999 V2000
   -6.1130   25.7890  -29.7940 C   0  0  0  0  0  0  0  0  0  0  0  0
   -4.8770   24.9480  -29.7700 C   0  0  0  0  0  0  0  0  0  0  0  0
   -3.9000   25.2640  -30.5030 O   0  0  0  0  0  0  0  0  0  0  0  0
   -4.7750   23.8510  -28.8480 N   0  0  0  0  0  0  0  0  0  0  0  0
   -3.7080   22.8850  -28.8590 C   0  0  0  0  0  0  0  0  0  0  0  0
   -3.1500   22.4680  -27.6450 C   0  0  0  0  0  0  0  0  0  0  0  0
   -2.1160   21.5330  -27.6250 C   0  0  0  0  0  0  0  0  0  0  0  0
   -1.6350   20.9810  -28.8210 C   0  0  0  0  0  0  0  0  0  0  0  0
   -0.5770   20.0630  -28.7890 C   0  0  0  0  0  0  0  0  0  0  0  0
   -0.0860   19.5160  -29.9710 C   0  0  0  0  0  0  0  0  0  0  0  0
   -0.6590   19.8600  -31.1970 C   0  0  0  0  0  0  0  0  0  0  0  0
   -1.7370   20.7580  -31.2630 C   0  0  0  0  0  0  0  0  0  0  0  0
   -2.4650   21.0920  -32.8510 S   0  0  0  0  0  0  0  0  0  0  0  0
   -1.4190   21.5970  -33.8090 O   0  0  0  0  0  0  0  0  0  0  0  0
   -3.0630   19.8240  -33.3970 O   0  0  0  0  0  0  0  0  0  0  0  0
   -3.7200   22.2850  -32.7310 N   0  0  0  0  0  0  0  0  0  0  0  0
   -5.1060   21.9960  -32.4910 C   0  0  0  0  0  0  0  0  0  0  0  0
   -5.9670   23.0500  -32.1590 C   0  0  0  0  0  0  0  0  0  0  0  0
   -7.3250   22.8100  -31.9280 C   0  0  0  0  0  0  0  0  0  0  0  0
   -7.8350   21.5130  -32.0360 C   0  0  0  0  0  0  0  0  0  0  0  0
   -6.9890   20.4540  -32.3860 C   0  0  0  0  0  0  0  0  0  0  0  0
   -7.5150   19.1300  -32.5180 N   0  0  0  0  0  0  0  0  0  0  0  0
   -8.8070   18.8080  -31.9160 C   0  0  0  0  0  0  0  0  0  0  0  0
   -6.4620   17.8460  -33.0240 S   0  0  0  0  0  0  0  0  0  0  0  0
   -5.7200   18.2430  -34.5910 C   0  0  0  0  0  0  0  0  0  0  0  0
   -5.3840   17.6480  -31.9930 O   0  0  0  0  0  0  0  0  0  0  0  0
   -7.2490   16.5730  -33.1510 O   0  0  0  0  0  0  0  0  0  0  0  0
   -5.6260   20.6950  -32.6040 C   0  0  0  0  0  0  0  0  0  0  0  0
   -2.2190   21.3530  -30.0640 C   0  0  0  0  0  0  0  0  0  0  0  0
   -3.2550   22.3130  -30.0610 C   0  0  0  0  0  0  0  0  0  0  0  0
   -6.4299   26.0046  -28.7629 H   0  0  0  0  0  0  0  0  0  0  0  0
   -5.9040   26.7331  -30.3184 H   0  0  0  0  0  0  0  0  0  0  0  0
   -6.9145   25.2480  -30.3184 H   0  0  0  0  0  0  0  0  0  0  0  0
   -5.4770   23.8000  -28.0740 H   0  0  0  0  0  0  0  0  0  0  0  0
   -3.5303   22.8813  -26.6992 H   0  0  0  0  0  0  0  0  0  0  0  0
   -1.6748   21.2264  -26.6651 H   0  0  0  0  0  0  0  0  0  0  0  0
   -0.1324   19.7733  -27.8255 H   0  0  0  0  0  0  0  0  0  0  0  0
    0.7568   18.8099  -29.9392 H   0  0  0  0  0  0  0  0  0  0  0  0
   -0.2607   19.4217  -32.1239 H   0  0  0  0  0  0  0  0  0  0  0  0
   -5.5720   24.0735  -32.0795 H   0  0  0  0  0  0  0  0  0  0  0  0
   -7.9926   23.6425  -31.6611 H   0  0  0  0  0  0  0  0  0  0  0  0
   -8.9019   21.3244  -31.8458 H   0  0  0  0  0  0  0  0  0  0  0  0
   -8.7166   18.8305  -30.8200 H   0  0  0  0  0  0  0  0  0  0  0  0
   -9.5557   19.5470  -32.2374 H   0  0  0  0  0  0  0  0  0  0  0  0
   -9.1213   17.8041  -32.2374 H   0  0  0  0  0  0  0  0  0  0  0  0
   -4.7614   18.7559  -34.4234 H   0  0  0  0  0  0  0  0  0  0  0  0
   -5.5461   17.3174  -35.1594 H   0  0  0  0  0  0  0  0  0  0  0  0
   -6.3936   18.9012  -35.1594 H   0  0  0  0  0  0  0  0  0  0  0  0
   -4.9585   19.8606  -32.8653 H   0  0  0  0  0  0  0  0  0  0  0  0
   -3.7142   22.6177  -31.0130 H   0  0  0  0  0  0  0  0  0  0  0  0
  1  2  1  0
  2  3  2  0
  2  4  1  0
  4  5  1  0
  5  6  2  0
  6  7  1  0
  7  8  2  0
  8  9  1  0
  9 10  2  0
 10 11  1  0
 11 12  2  0
 12 13  1  0
 13 14  2  0
 13 15  2  0
 13 16  1  0
 16 17  1  0
 17 18  2  0
 18 19  1  0
 19 20  2  0
 20 21  1  0
 21 22  1  0
 22 23  1  0
 22 24  1  0
 24 25  1  0
 24 26  2  0
 24 27  2  0
 21 28  2  0
 12 29  1  0
 29 30  2  0
 30  5  1  0
 29  8  1  0
 28 17  1  0
  1 31  1  0
  1 32  1  0
  1 33  1  0
  4 34  1  0
  6 35  1  0
  7 36  1  0
  9 37  1  0
 10 38  1  0
 11 39  1  0
 18 40  1  0
 19 41  1  0
 20 42  1  0
 23 43  1  0
 23 44  1  0
 23 45  1  0
 25 46  1  0
 25 47  1  0
 25 48  1  0
 28 49  1  0
 30 50  1  0
M  CHG  1  16  -1
M  END
>  <UniqueID>  (10) 
10

>  <SMILES>  (10) 
CC(=O)Nc1ccc2cccc(S(=O)(=O)[N-]c3cccc(N(C)S(C)(=O)=O)c3)c2c1

>  <Energy>  (10) 
63.109457432466534

>  <Genealogy>  (10) 
CC(=O)Nc1ccc2cccc(S(=O)(=O)[N-]c3cccc(N(C)S(C)(=O)=O)c3)c2c1 (protonated)
CC(=O)Nc1ccc2cccc(S(=O)(=O)[N-]c3cccc(N(C)S(C)(=O)=O)c3)c2c1 (3D coordinates assigned)
CC(=O)Nc1ccc2cccc(S(=O)(=O)[N-]c3cccc(N(C)S(C)(=O)=O)c3)c2c1 (optimized conformer: 63.109457432466534 kcal/mol)

>  <smiles>  (10) 
CC(=O)Nc1ccc2cccc(S(=O)(=O)Nc3cccc(N(C)S(C)(=O)=O)c3)c2c1

>  <score_type>  (10) 
oracle

>  <origin>  (10) 
adgpu

>  <m_score__min__energy>  (10) 
-11.15

>  <m_primary>  (10) 
energy

$$$$
10:0
     RDKit          3D

 64 68  0  0  0  0  0  0  0  0999 V2000
   -9.4130   19.1600  -32.4310 C   0  0  0  0  0  0  0  0  0  0  0  0
   -8.5020   20.2370  -32.8460 N   0  0  0  0  0  0  0  0  0  0  0  0
   -8.9570   21.5580  -32.3450 C   0  0  0  0  0  0  0  0  0  0  0  0
   -7.7930   22.1420  -31.6500 C   0  0  0  0  0  0  0  0  0  0  0  0
   -7.6820   23.4070  -31.0730 C   0  0  0  0  0  0  0  0  0  0  0  0
   -6.4660   23.7650  -30.4710 C   0  0  0  0  0  0  0  0  0  0  0  0
   -5.3840   22.8560  -30.4440 C   0  0  0  0  0  0  0  0  0  0  0  0
   -4.1410   23.2640  -29.8490 N   0  0  0  0  0  0  0  0  0  0  0  0
   -3.5330   24.5520  -30.0540 C   0  0  0  0  0  0  0  0  0  0  0  0
   -4.0710   25.3990  -30.8130 O   0  0  0  0  0  0  0  0  0  0  0  0
   -2.3120   24.9000  -29.3910 N   0  0  0  0  0  0  0  0  0  0  0  0
   -1.3980   23.9610  -28.8100 C   0  0  0  0  0  0  0  0  0  0  0  0
   -0.6520   24.3270  -27.6750 C   0  0  0  0  0  0  0  0  0  0  0  0
   -0.8460   25.6060  -27.0450 N   0  0  0  0  0  0  0  0  0  0  0  0
   -0.1260   26.8060  -27.4380 C   0  0  0  0  0  0  0  0  0  0  0  0
   -0.6100   27.8960  -26.4940 C   0  0  0  0  0  0  0  0  0  0  0  0
   -1.2370   27.1670  -25.3070 C   0  0  0  0  0  0  0  0  0  0  0  0
   -1.6160   25.7860  -25.8260 C   0  0  0  0  0  0  0  0  0  0  0  0
    0.2620   23.4160  -27.1300 C   0  0  0  0  0  0  0  0  0  0  0  0
    0.4410   22.1570  -27.7050 C   0  0  0  0  0  0  0  0  0  0  0  0
   -0.2630   21.7930  -28.8640 C   0  0  0  0  0  0  0  0  0  0  0  0
   -0.0690   20.2010  -29.6360 S   0  0  0  0  0  0  0  0  0  0  0  0
    1.3820   19.8170  -29.5420 O   0  0  0  0  0  0  0  0  0  0  0  0
   -0.8770   19.2020  -28.8540 O   0  0  0  0  0  0  0  0  0  0  0  0
   -0.5570   20.0830  -31.3120 N   0  0  0  0  0  0  0  0  0  0  0  0
    0.0150   21.1700  -32.1310 C   0  0  0  0  0  0  0  0  0  0  0  0
   -0.8230   21.4250  -33.3890 C   0  0  0  0  0  0  0  0  0  0  0  0
   -1.3890   20.2110  -33.8350 O   0  0  0  0  0  0  0  0  0  0  0  0
   -2.4110   19.7980  -32.9450 C   0  0  0  0  0  0  0  0  0  0  0  0
   -2.0110   19.9050  -31.4540 C   0  0  0  0  0  0  0  0  0  0  0  0
   -1.1790   22.7080  -29.4170 C   0  0  0  0  0  0  0  0  0  0  0  0
   -1.8680   22.3800  -30.5810 O   0  0  0  0  0  0  0  0  0  0  0  0
   -5.5270   21.5920  -31.0570 C   0  0  0  0  0  0  0  0  0  0  0  0
   -6.7510   21.2670  -31.6460 C   0  0  0  0  0  0  0  0  0  0  0  0
   -7.1270   20.0160  -32.3360 C   0  0  0  0  0  0  0  0  0  0  0  0
   -9.4511   19.1149  -31.3326 H   0  0  0  0  0  0  0  0  0  0  0  0
  -10.4204   19.3597  -32.8250 H   0  0  0  0  0  0  0  0  0  0  0  0
   -9.0490   18.1997  -32.8250 H   0  0  0  0  0  0  0  0  0  0  0  0
   -9.2661   22.2005  -33.1826 H   0  0  0  0  0  0  0  0  0  0  0  0
   -9.8246   21.4623  -31.6756 H   0  0  0  0  0  0  0  0  0  0  0  0
   -8.5290   24.1086  -31.0895 H   0  0  0  0  0  0  0  0  0  0  0  0
   -6.3540   24.7605  -30.0167 H   0  0  0  0  0  0  0  0  0  0  0  0
   -3.6150   22.5440  -29.3060 H   0  0  0  0  0  0  0  0  0  0  0  0
    0.9584   26.6568  -27.3296 H   0  0  0  0  0  0  0  0  0  0  0  0
   -0.3093   27.0662  -28.4909 H   0  0  0  0  0  0  0  0  0  0  0  0
    0.2344   28.5169  -26.1601 H   0  0  0  0  0  0  0  0  0  0  0  0
   -1.3303   28.5672  -26.9845 H   0  0  0  0  0  0  0  0  0  0  0  0
   -0.5131   27.0819  -24.4831 H   0  0  0  0  0  0  0  0  0  0  0  0
   -2.1108   27.7072  -24.9139 H   0  0  0  0  0  0  0  0  0  0  0  0
   -1.3549   25.0129  -25.0884 H   0  0  0  0  0  0  0  0  0  0  0  0
   -2.6973   25.7010  -26.0094 H   0  0  0  0  0  0  0  0  0  0  0  0
    0.8445   23.6958  -26.2398 H   0  0  0  0  0  0  0  0  0  0  0  0
    1.1404   21.4429  -27.2457 H   0  0  0  0  0  0  0  0  0  0  0  0
    0.0477   22.0910  -31.5304 H   0  0  0  0  0  0  0  0  0  0  0  0
    1.0262   20.8711  -32.4442 H   0  0  0  0  0  0  0  0  0  0  0  0
   -1.6262   22.1393  -33.1553 H   0  0  0  0  0  0  0  0  0  0  0  0
   -0.1795   21.8400  -34.1787 H   0  0  0  0  0  0  0  0  0  0  0  0
   -3.2961   20.4289  -33.1142 H   0  0  0  0  0  0  0  0  0  0  0  0
   -2.6102   18.7360  -33.1513 H   0  0  0  0  0  0  0  0  0  0  0  0
   -2.5251   20.7672  -31.0042 H   0  0  0  0  0  0  0  0  0  0  0  0
   -2.3028   18.9750  -30.9442 H   0  0  0  0  0  0  0  0  0  0  0  0
   -4.6909   20.8774  -31.0704 H   0  0  0  0  0  0  0  0  0  0  0  0
   -6.4368   19.8148  -33.1685 H   0  0  0  0  0  0  0  0  0  0  0  0
   -7.0789   19.1493  -31.6604 H   0  0  0  0  0  0  0  0  0  0  0  0
  1  2  1  0
  2  3  1  0
  3  4  1  0
  4  5  2  0
  5  6  1  0
  6  7  2  0
  7  8  1  0
  8  9  1  0
  9 10  2  0
  9 11  1  0
 11 12  1  0
 12 13  1  0
 13 14  1  0
 14 15  1  0
 15 16  1  0
 16 17  1  0
 17 18  1  0
 13 19  2  0
 19 20  1  0
 20 21  2  0
 21 22  1  0
 22 23  2  0
 22 24  2  0
 22 25  1  0
 25 26  1  0
 26 27  1  0
 27 28  1  0
 28 29  1  0
 29 30  1  0
 21 31  1  0
 31 32  1  0
  7 33  1  0
 33 34  2  0
 34 35  1  0
 35  2  1  0
 34  4  1  0
 31 12  2  0
 18 14  1  0
 30 25  1  0
  1 36  1  0
  1 37  1  0
  1 38  1  0
  3 39  1  0
  3 40  1  0
  5 41  1  0
  6 42  1  0
  8 43  1  0
 15 44  1  0
 15 45  1  0
 16 46  1  0
 16 47  1  0
 17 48  1  0
 17 49  1  0
 18 50  1  0
 18 51  1  0
 19 52  1  0
 20 53  1  0
 26 54  1  0
 26 55  1  0
 27 56  1  0
 27 57  1  0
 29 58  1  0
 29 59  1  0
 30 60  1  0
 30 61  1  0
 33 62  1  0
 35 63  1  0
 35 64  1  0
M  CHG  2  11  -1  32  -1
M  END
>  <UniqueID>  (11) 
11

>  <SMILES>  (11) 
CN1Cc2ccc(NC(=O)[N-]c3c(N4CCCC4)ccc(S(=O)(=O)N4CCOCC4)c3[O-])cc2C1

>  <Energy>  (11) 
107.30462490905657

>  <Genealogy>  (11) 
CN1Cc2ccc(NC(=O)[N-]c3c(N4CCCC4)ccc(S(=O)(=O)N4CCOCC4)c3[O-])cc2C1 (protonated)
CN1Cc2ccc(NC(=O)[N-]c3c(N4CCCC4)ccc(S(=O)(=O)N4CCOCC4)c3[O-])cc2C1 (3D coordinates assigned)
CN1Cc2ccc(NC(=O)[N-]c3c(N4CCCC4)ccc(S(=O)(=O)N4CCOCC4)c3[O-])cc2C1 (nonaromatic ring conformer: 107.30462490905657 kcal/mol)

>  <smiles>  (11) 
CN1Cc2ccc(NC(=O)Nc3c(N4CCCC4)ccc(S(=O)(=O)N4CCOCC4)c3O)cc2C1

>  <score_type>  (11) 
oracle

>  <origin>  (11) 
adgpu

>  <m_score__min__energy>  (11) 
-14

>  <m_primary>  (11) 
energy

$$$$
11:0
     RDKit          3D

 33 35  0  0  0  0  0  0  0  0999 V2000
    0.8570   21.0620  -27.5930 N   0  0  0  0  0  0  0  0  0  0  0  0
   -0.1550   21.5770  -27.8190 C   0  0  0  0  0  0  0  0  0  0  0  0
   -1.4110   22.2190  -28.1000 C   0  0  0  0  0  0  0  0  0  0  0  0
   -2.6100   21.6170  -27.7050 C   0  0  0  0  0  0  0  0  0  0  0  0
   -3.8320   22.2370  -27.9780 C   0  0  0  0  0  0  0  0  0  0  0  0
   -3.8730   23.4740  -28.6520 C   0  0  0  0  0  0  0  0  0  0  0  0
   -5.1230   24.1290  -28.9530 N   0  0  0  0  0  0  0  0  0  0  0  0
   -5.7280   24.3880  -30.5600 S   0  0  0  0  0  0  0  0  0  0  0  0
   -4.8660   25.4090  -31.2480 O   0  0  0  0  0  0  0  0  0  0  0  0
   -7.1330   24.9160  -30.4670 O   0  0  0  0  0  0  0  0  0  0  0  0
   -5.6800   22.8860  -31.4920 C   0  0  0  0  0  0  0  0  0  0  0  0
   -4.4740   22.4830  -32.0870 C   0  0  0  0  0  0  0  0  0  0  0  0
   -4.4060   21.2980  -32.8240 C   0  0  0  0  0  0  0  0  0  0  0  0
   -5.5420   20.5020  -32.9830 C   0  0  0  0  0  0  0  0  0  0  0  0
   -6.7580   20.8940  -32.4090 C   0  0  0  0  0  0  0  0  0  0  0  0
   -7.9140   20.1170  -32.5650 C   0  0  0  0  0  0  0  0  0  0  0  0
   -9.1150   20.5340  -31.9900 C   0  0  0  0  0  0  0  0  0  0  0  0
   -9.1510   21.7250  -31.2640 C   0  0  0  0  0  0  0  0  0  0  0  0
   -8.0230   22.4710  -31.1180 N   0  0  0  0  0  0  0  0  0  0  0  0
   -6.8330   22.0940  -31.6620 C   0  0  0  0  0  0  0  0  0  0  0  0
   -2.6600   24.0730  -29.0460 C   0  0  0  0  0  0  0  0  0  0  0  0
   -2.6570   25.2920  -29.7140 O   0  0  0  0  0  0  0  0  0  0  0  0
   -1.4390   23.4470  -28.7690 C   0  0  0  0  0  0  0  0  0  0  0  0
   -2.5909   20.6519  -27.1775 H   0  0  0  0  0  0  0  0  0  0  0  0
   -4.7699   21.7555  -27.6642 H   0  0  0  0  0  0  0  0  0  0  0  0
   -5.7130   24.4920  -28.1710 H   0  0  0  0  0  0  0  0  0  0  0  0
   -3.5746   23.1057  -31.9719 H   0  0  0  0  0  0  0  0  0  0  0  0
   -3.4536   20.9909  -33.2808 H   0  0  0  0  0  0  0  0  0  0  0  0
   -5.4820   19.5669  -33.5591 H   0  0  0  0  0  0  0  0  0  0  0  0
   -7.8745   19.1800  -33.1398 H   0  0  0  0  0  0  0  0  0  0  0  0
  -10.0259   19.9288  -32.1081 H   0  0  0  0  0  0  0  0  0  0  0  0
  -10.0940   22.0615  -30.8085 H   0  0  0  0  0  0  0  0  0  0  0  0
   -0.4970   23.9231  -29.0789 H   0  0  0  0  0  0  0  0  0  0  0  0
  1  2  3  0
  2  3  1  0
  3  4  2  0
  4  5  1  0
  5  6  2  0
  6  7  1  0
  7  8  1  0
  8  9  2  0
  8 10  2  0
  8 11  1  0
 11 12  2  0
 12 13  1  0
 13 14  2  0
 14 15  1  0
 15 16  2  0
 16 17  1  0
 17 18  2  0
 18 19  1  0
 19 20  2  0
  6 21  1  0
 21 22  1  0
 21 23  2  0
 23  3  1  0
 20 11  1  0
 20 15  1  0
  4 24  1  0
  5 25  1  0
  7 26  1  0
 12 27  1  0
 13 28  1  0
 14 29  1  0
 16 30  1  0
 17 31  1  0
 18 32  1  0
 23 33  1  0
M  CHG  1  22  -1
M  END
>  <UniqueID>  (12) 
12

>  <SMILES>  (12) 
N#Cc1ccc(NS(=O)(=O)c2cccc3cccnc23)c([O-])c1

>  <Energy>  (12) 
43.10439304753486

>  <Genealogy>  (12) 
N#Cc1ccc(NS(=O)(=O)c2cccc3cccnc23)c([O-])c1 (protonated)
N#Cc1ccc(NS(=O)(=O)c2cccc3cccnc23)c([O-])c1 (3D coordinates assigned)
N#Cc1ccc(NS(=O)(=O)c2cccc3cccnc23)c([O-])c1 (optimized conformer: 43.10439304753486 kcal/mol)

>  <smiles>  (12) 
N#Cc1ccc(NS(=O)(=O)c2cccc3cccnc23)c(O)c1

>  <score_type>  (12) 
oracle

>  <origin>  (12) 
adgpu

>  <m_score__min__energy>  (12) 
-12.57

>  <m_primary>  (12) 
energy

$$$$
12:0
     RDKit          3D

 59 63  0  0  0  0  0  0  0  0999 V2000
   -0.8170   16.5490  -34.0600 H   0  0  0  0  0  0  0  0  0  0  0  0
   -1.3280   17.2120  -34.6250 O   0  0  0  0  0  0  0  0  0  0  0  0
   -2.2250   18.1690  -34.1330 C   0  0  0  0  0  0  0  0  0  0  0  0
   -1.6950   19.3950  -33.7580 C   0  0  0  0  0  0  0  0  0  0  0  0
   -0.6116   19.5673  -33.8391 H   0  0  0  0  0  0  0  0  0  0  0  0
   -2.4960   20.3800  -33.2940 N   0  0  0  0  0  0  0  0  0  0  0  0
   -3.8390   20.2540  -33.1410 C   0  0  0  0  0  0  0  0  0  0  0  0
   -4.4570   21.3450  -32.7700 N   0  0  0  0  0  0  0  0  0  0  0  0
   -5.8580   21.6970  -32.5690 C   0  0  0  0  0  0  0  0  0  0  0  0
   -6.4011   20.8354  -32.1535 H   0  0  0  0  0  0  0  0  0  0  0  0
   -6.3175   21.9774  -33.5283 H   0  0  0  0  0  0  0  0  0  0  0  0
   -5.9270   22.8560  -31.6040 C   0  0  0  0  0  0  0  0  0  0  0  0
   -4.7340   23.5050  -31.2380 C   0  0  0  0  0  0  0  0  0  0  0  0
   -3.7752   23.1319  -31.6273 H   0  0  0  0  0  0  0  0  0  0  0  0
   -4.7440   24.6150  -30.3890 C   0  0  0  0  0  0  0  0  0  0  0  0
   -3.4940   25.2530  -30.0860 N   0  0  0  0  0  0  0  0  0  0  0  0
   -2.3940   24.7130  -29.3390 C   0  0  0  0  0  0  0  0  0  0  0  0
   -1.4930   25.4760  -28.8960 O   0  0  0  0  0  0  0  0  0  0  0  0
   -2.3420   23.2600  -29.0490 C   0  0  0  0  0  0  0  0  0  0  0  0
   -3.2110   22.6880  -28.1070 C   0  0  0  0  0  0  0  0  0  0  0  0
   -3.9396   23.3165  -27.5740 H   0  0  0  0  0  0  0  0  0  0  0  0
   -3.1460   21.3180  -27.8500 C   0  0  0  0  0  0  0  0  0  0  0  0
   -3.8214   20.8666  -27.1084 H   0  0  0  0  0  0  0  0  0  0  0  0
   -2.2510   20.5400  -28.5130 N   0  0  0  0  0  0  0  0  0  0  0  0
   -1.3950   21.0500  -29.4420 C   0  0  0  0  0  0  0  0  0  0  0  0
   -0.4770   20.1690  -30.1160 N   0  0  0  0  0  0  0  0  0  0  0  0
    0.2180   20.5420  -31.3370 C   0  0  0  0  0  0  0  0  0  0  0  0
   -0.5033   20.8424  -32.1112 H   0  0  0  0  0  0  0  0  0  0  0  0
    0.8930   21.3949  -31.1728 H   0  0  0  0  0  0  0  0  0  0  0  0
    0.9820   19.3020  -31.7780 C   0  0  0  0  0  0  0  0  0  0  0  0
    0.4589   18.8051  -32.6084 H   0  0  0  0  0  0  0  0  0  0  0  0
    1.9913   19.5543  -32.1353 H   0  0  0  0  0  0  0  0  0  0  0  0
    1.0310   18.3860  -30.5560 C   0  0  0  0  0  0  0  0  0  0  0  0
    0.8791   17.3388  -30.8565 H   0  0  0  0  0  0  0  0  0  0  0  0
    2.0058   18.4408  -30.0492 H   0  0  0  0  0  0  0  0  0  0  0  0
   -0.1000   18.8450  -29.6440 C   0  0  0  0  0  0  0  0  0  0  0  0
   -0.9539   18.1552  -29.7157 H   0  0  0  0  0  0  0  0  0  0  0  0
    0.2127   18.8648  -28.5896 H   0  0  0  0  0  0  0  0  0  0  0  0
   -1.4230   22.4280  -29.7180 C   0  0  0  0  0  0  0  0  0  0  0  0
   -0.7281   22.8561  -30.4555 H   0  0  0  0  0  0  0  0  0  0  0  0
   -5.9730   25.1140  -29.9290 C   0  0  0  0  0  0  0  0  0  0  0  0
   -5.9954   26.0039  -29.2828 H   0  0  0  0  0  0  0  0  0  0  0  0
   -7.1660   24.4860  -30.2880 C   0  0  0  0  0  0  0  0  0  0  0  0
   -8.1210   24.8744  -29.9045 H   0  0  0  0  0  0  0  0  0  0  0  0
   -7.1630   23.3640  -31.1330 C   0  0  0  0  0  0  0  0  0  0  0  0
   -8.4760   22.7270  -31.5110 C   0  0  0  0  0  0  0  0  0  0  0  0
   -9.0293   22.4586  -30.5990 H   0  0  0  0  0  0  0  0  0  0  0  0
   -9.0704   23.4369  -32.1049 H   0  0  0  0  0  0  0  0  0  0  0  0
   -8.2863   21.8207  -32.1049 H   0  0  0  0  0  0  0  0  0  0  0  0
   -4.4500   18.9860  -33.4460 C   0  0  0  0  0  0  0  0  0  0  0  0
   -5.8160   18.6790  -33.2140 C   0  0  0  0  0  0  0  0  0  0  0  0
   -6.4646   19.4317  -32.7420 H   0  0  0  0  0  0  0  0  0  0  0  0
   -6.3530   17.4430  -33.5720 C   0  0  0  0  0  0  0  0  0  0  0  0
   -7.4180   17.2363  -33.3899 H   0  0  0  0  0  0  0  0  0  0  0  0
   -5.5530   16.4730  -34.1560 C   0  0  0  0  0  0  0  0  0  0  0  0
   -5.9918   15.5119  -34.4621 H   0  0  0  0  0  0  0  0  0  0  0  0
   -4.1980   16.7110  -34.3560 C   0  0  0  0  0  0  0  0  0  0  0  0
   -3.5698   15.9286  -34.8068 H   0  0  0  0  0  0  0  0  0  0  0  0
   -3.6170   17.9470  -33.9870 C   0  0  0  0  0  0  0  0  0  0  0  0
  1  2  1  0
  2  3  1  0
  3  4  2  0
  4  5  1  0
  4  6  1  0
  6  7  1  0
  7  8  2  0
  8  9  1  0
  9 10  1  0
  9 11  1  0
  9 12  1  0
 12 13  2  0
 13 14  1  0
 13 15  1  0
 15 16  1  0
 16 17  1  0
 17 18  2  0
 17 19  1  0
 19 20  2  0
 20 21  1  0
 20 22  1  0
 22 23  1  0
 22 24  2  0
 24 25  1  0
 25 26  1  0
 26 27  1  0
 27 28  1  0
 27 29  1  0
 27 30  1  0
 30 31  1  0
 30 32  1  0
 30 33  1  0
 33 34  1  0
 33 35  1  0
 33 36  1  0
 36 37  1  0
 36 38  1  0
 25 39  2  0
 39 40  1  0
 15 41  2  0
 41 42  1  0
 41 43  1  0
 43 44  1  0
 43 45  2  0
 45 46  1  0
 46 47  1  0
 46 48  1  0
 46 49  1  0
  7 50  1  0
 50 51  2  0
 51 52  1  0
 51 53  1  0
 53 54  1  0
 53 55  2  0
 55 56  1  0
 55 57  1  0
 57 58  1  0
 57 59  2  0
 59  3  1  0
 45 12  1  0
 59 50  1  0
 39 19  1  0
 36 26  1  0
M  CHG  2   6  -1  16  -1
M  END
>  <UniqueID>  (13) 
13

>  <SMILES>  (13) 
Cc1ccc([N-]C(=O)c2ccnc(N3CCCC3)c2)cc1C/N=c1/[n-]cc(O)c2ccccc12

>  <Energy>  (13) 
93.23090919441486

>  <Genealogy>  (13) 
Cc1ccc([N-]C(=O)c2ccnc(N3CCCC3)c2)cc1CN=c1[n-]cc(O)c2ccccc12 (protonated)
Cc1ccc([N-]C(=O)c2ccnc(N3CCCC3)c2)cc1C/N=c1/[n-]cc(O)c2ccccc12 (cis-trans isomerization)
Cc1ccc([N-]C(=O)c2ccnc(N3CCCC3)c2)cc1C/N=c1/[n-]cc(O)c2ccccc12 (3D coordinates assigned)
Cc1ccc([N-]C(=O)c2ccnc(N3CCCC3)c2)cc1C/N=c1/[n-]cc(O)c2ccccc12 (nonaromatic ring conformer: 93.23090919441486 kcal/mol)

>  <smiles>  (13) 
Cc1ccc(NC(=O)c2ccnc(N3CCCC3)c2)cc1CN=c1[nH]cc(O)c2ccccc12

>  <score_type>  (13) 
oracle

>  <origin>  (13) 
adgpu

>  <m_score__min__energy>  (13) 
-11.369999999999999

>  <m_primary>  (13) 
energy

$$$$
13:0
     RDKit          3D

 55 58  0  0  0  0  0  0  0  0999 V2000
   -9.3690   21.1770  -31.9410 C   0  0  0  0  0  0  0  0  0  0  0  0
   -8.5900   19.9100  -32.0980 C   0  0  0  0  0  0  0  0  0  0  0  0
   -9.1050   18.8290  -31.7060 O   0  0  0  0  0  0  0  0  0  0  0  0
   -7.2590   19.9000  -32.6420 N   0  0  0  0  0  0  0  0  0  0  0  0
   -6.7440   18.8000  -33.4600 C   0  0  0  0  0  0  0  0  0  0  0  0
   -5.2200   19.0320  -33.5820 C   0  0  0  0  0  0  0  0  0  0  0  0
   -5.0100   20.3210  -32.8710 C   0  0  0  0  0  0  0  0  0  0  0  0
   -3.8190   21.0350  -32.7340 C   0  0  0  0  0  0  0  0  0  0  0  0
   -3.8490   22.2680  -32.0660 C   0  0  0  0  0  0  0  0  0  0  0  0
   -5.0670   22.7810  -31.5720 C   0  0  0  0  0  0  0  0  0  0  0  0
   -5.1010   24.3260  -30.7280 S   0  0  0  0  0  0  0  0  0  0  0  0
   -5.8580   25.3230  -31.5590 O   0  0  0  0  0  0  0  0  0  0  0  0
   -5.8110   24.1690  -29.4120 O   0  0  0  0  0  0  0  0  0  0  0  0
   -3.5010   24.9300  -30.4460 N   0  0  0  0  0  0  0  0  0  0  0  0
   -2.7210   24.5350  -29.3160 C   0  0  0  0  0  0  0  0  0  0  0  0
   -3.1230   23.4310  -28.5550 C   0  0  0  0  0  0  0  0  0  0  0  0
   -2.3550   23.0090  -27.4660 C   0  0  0  0  0  0  0  0  0  0  0  0
   -1.1850   23.7010  -27.1210 C   0  0  0  0  0  0  0  0  0  0  0  0
   -0.1680   23.1270  -25.8010 S   0  0  0  0  0  0  0  0  0  0  0  0
   -0.8370   21.9500  -25.1500 O   0  0  0  0  0  0  0  0  0  0  0  0
    1.1640   22.6820  -26.3410 O   0  0  0  0  0  0  0  0  0  0  0  0
    0.0550   24.4040  -24.6300 N   0  0  0  0  0  0  0  0  0  0  0  0
   -1.1570   25.2510  -24.5720 C   0  0  0  0  0  0  0  0  0  0  0  0
   -0.8710   26.5940  -23.8960 C   0  0  0  0  0  0  0  0  0  0  0  0
    0.1680   27.4030  -24.6940 C   0  0  0  0  0  0  0  0  0  0  0  0
    1.0850   26.5130  -25.5500 C   0  0  0  0  0  0  0  0  0  0  0  0
    1.3150   25.1500  -24.8820 C   0  0  0  0  0  0  0  0  0  0  0  0
   -0.8020   24.8270  -27.8610 C   0  0  0  0  0  0  0  0  0  0  0  0
   -1.5730   25.2480  -28.9470 C   0  0  0  0  0  0  0  0  0  0  0  0
   -6.2550   22.0400  -31.7300 C   0  0  0  0  0  0  0  0  0  0  0  0
   -6.1870   20.7900  -32.3560 C   0  0  0  0  0  0  0  0  0  0  0  0
   -9.5030   21.3949  -30.8711 H   0  0  0  0  0  0  0  0  0  0  0  0
   -8.8234   22.0044  -32.4182 H   0  0  0  0  0  0  0  0  0  0  0  0
  -10.3536   21.0636  -32.4182 H   0  0  0  0  0  0  0  0  0  0  0  0
   -6.9452   17.8349  -32.9720 H   0  0  0  0  0  0  0  0  0  0  0  0
   -7.2266   18.7745  -34.4482 H   0  0  0  0  0  0  0  0  0  0  0  0
   -4.6581   18.2195  -33.0982 H   0  0  0  0  0  0  0  0  0  0  0  0
   -4.8711   19.0549  -34.6249 H   0  0  0  0  0  0  0  0  0  0  0  0
   -2.8768   20.6394  -33.1411 H   0  0  0  0  0  0  0  0  0  0  0  0
   -2.9184   22.8378  -31.9266 H   0  0  0  0  0  0  0  0  0  0  0  0
   -4.0468   22.8935  -28.8150 H   0  0  0  0  0  0  0  0  0  0  0  0
   -2.6687   22.1332  -26.8790 H   0  0  0  0  0  0  0  0  0  0  0  0
   -1.5137   25.4351  -25.5961 H   0  0  0  0  0  0  0  0  0  0  0  0
   -1.9194   24.7225  -23.9808 H   0  0  0  0  0  0  0  0  0  0  0  0
   -1.8052   27.1712  -23.8330 H   0  0  0  0  0  0  0  0  0  0  0  0
   -0.4685   26.4017  -22.8905 H   0  0  0  0  0  0  0  0  0  0  0  0
   -0.3638   28.1009  -25.3574 H   0  0  0  0  0  0  0  0  0  0  0  0
    0.8031   27.9336  -23.9693 H   0  0  0  0  0  0  0  0  0  0  0  0
    0.6174   26.3566  -26.5333 H   0  0  0  0  0  0  0  0  0  0  0  0
    2.0569   27.0165  -25.6590 H   0  0  0  0  0  0  0  0  0  0  0  0
    1.9562   24.5426  -25.5377 H   0  0  0  0  0  0  0  0  0  0  0  0
    1.7852   25.3386  -23.9056 H   0  0  0  0  0  0  0  0  0  0  0  0
    0.1078   25.3808  -27.5863 H   0  0  0  0  0  0  0  0  0  0  0  0
   -1.2776   26.1427  -29.5146 H   0  0  0  0  0  0  0  0  0  0  0  0
   -7.2158   22.4356  -31.3689 H   0  0  0  0  0  0  0  0  0  0  0  0
  1  2  1  0
  2  3  2  0
  2  4  1  0
  4  5  1  0
  5  6  1  0
  6  7  1  0
  7  8  2  0
  8  9  1  0
  9 10  2  0
 10 11  1  0
 11 12  2  0
 11 13  2  0
 11 14  1  0
 14 15  1  0
 15 16  2  0
 16 17  1  0
 17 18  2  0
 18 19  1  0
 19 20  2  0
 19 21  2  0
 19 22  1  0
 22 23  1  0
 23 24  1  0
 24 25  1  0
 25 26  1  0
 26 27  1  0
 18 28  1  0
 28 29  2  0
 10 30  1  0
 30 31  2  0
 31  4  1  0
 31  7  1  0
 29 15  1  0
 27 22  1  0
  1 32  1  0
  1 33  1  0
  1 34  1  0
  5 35  1  0
  5 36  1  0
  6 37  1  0
  6 38  1  0
  8 39  1  0
  9 40  1  0
 16 41  1  0
 17 42  1  0
 23 43  1  0
 23 44  1  0
 24 45  1  0
 24 46  1  0
 25 47  1  0
 25 48  1  0
 26 49  1  0
 26 50  1  0
 27 51  1  0
 27 52  1  0
 28 53  1  0
 29 54  1  0
 30 55  1  0
M  CHG  1  14  -1
M  END
>  <UniqueID>  (14) 
14

>  <SMILES>  (14) 
CC(=O)N1CCc2ccc(S(=O)(=O)[N-]c3ccc(S(=O)(=O)N4CCCCC4)cc3)cc21

>  <Energy>  (14) 
84.88898144273236

>  <Genealogy>  (14) 
CC(=O)N1CCc2ccc(S(=O)(=O)[N-]c3ccc(S(=O)(=O)N4CCCCC4)cc3)cc21 (protonated)
CC(=O)N1CCc2ccc(S(=O)(=O)[N-]c3ccc(S(=O)(=O)N4CCCCC4)cc3)cc21 (3D coordinates assigned)
CC(=O)N1CCc2ccc(S(=O)(=O)[N-]c3ccc(S(=O)(=O)N4CCCCC4)cc3)cc21 (nonaromatic ring conformer: 84.88898144273236 kcal/mol)

>  <smiles>  (14) 
CC(=O)N1CCc2ccc(S(=O)(=O)Nc3ccc(S(=O)(=O)N4CCCCC4)cc3)cc21

>  <score_type>  (14) 
oracle

>  <origin>  (14) 
adgpu

>  <m_score__min__energy>  (14) 
-12.52

>  <m_primary>  (14) 
energy

$$$$
14:0
     RDKit          3D

 46 49  0  0  0  0  0  0  0  0999 V2000
   -3.8540   15.1680  -35.6740 O   0  0  0  0  0  0  0  0  0  0  0  0
   -3.8290   16.3110  -35.1450 C   0  0  0  0  0  0  0  0  0  0  0  0
   -5.0140   17.0450  -34.9890 C   0  0  0  0  0  0  0  0  0  0  0  0
   -4.9700   18.3100  -34.3950 C   0  0  0  0  0  0  0  0  0  0  0  0
   -3.7460   18.8310  -33.9570 C   0  0  0  0  0  0  0  0  0  0  0  0
   -3.6670   20.0970  -33.3500 C   0  0  0  0  0  0  0  0  0  0  0  0
   -2.4160   20.6160  -32.9540 C   0  0  0  0  0  0  0  0  0  0  0  0
   -2.2870   21.9090  -32.3380 N   0  0  0  0  0  0  0  0  0  0  0  0
   -2.8470   22.3140  -30.7460 S   0  0  0  0  0  0  0  0  0  0  0  0
   -1.8710   23.2680  -30.1090 O   0  0  0  0  0  0  0  0  0  0  0  0
   -2.9150   21.0530  -29.9250 O   0  0  0  0  0  0  0  0  0  0  0  0
   -4.4260   23.0950  -30.8560 C   0  0  0  0  0  0  0  0  0  0  0  0
   -5.5570   22.3080  -31.1190 C   0  0  0  0  0  0  0  0  0  0  0  0
   -6.8330   22.8830  -31.1650 C   0  0  0  0  0  0  0  0  0  0  0  0
   -8.2520   21.8760  -31.4890 S   0  0  0  0  0  0  0  0  0  0  0  0
   -9.2100   22.6460  -32.3540 O   0  0  0  0  0  0  0  0  0  0  0  0
   -8.9430   21.5710  -30.1890 O   0  0  0  0  0  0  0  0  0  0  0  0
   -7.8460   20.3680  -32.2830 N   0  0  0  0  0  0  0  0  0  0  0  0
   -8.9670   19.4350  -32.2970 C   0  0  0  0  0  0  0  0  0  0  0  0
   -8.3730   18.0310  -32.3210 C   0  0  0  0  0  0  0  0  0  0  0  0
   -6.9100   18.2000  -31.9480 C   0  0  0  0  0  0  0  0  0  0  0  0
   -6.7550   19.6710  -31.6090 C   0  0  0  0  0  0  0  0  0  0  0  0
   -6.9780   24.2550  -30.9290 C   0  0  0  0  0  0  0  0  0  0  0  0
   -5.8540   25.0520  -30.6950 C   0  0  0  0  0  0  0  0  0  0  0  0
   -4.5770   24.4810  -30.6650 C   0  0  0  0  0  0  0  0  0  0  0  0
   -3.4740   25.2980  -30.4470 O   0  0  0  0  0  0  0  0  0  0  0  0
   -1.2530   19.8540  -33.1730 C   0  0  0  0  0  0  0  0  0  0  0  0
   -0.0070   20.3630  -32.8180 O   0  0  0  0  0  0  0  0  0  0  0  0
   -1.3360   18.5790  -33.7500 C   0  0  0  0  0  0  0  0  0  0  0  0
   -2.5730   18.0640  -34.1450 C   0  0  0  0  0  0  0  0  0  0  0  0
   -2.6470   16.8320  -34.7220 N   0  0  0  0  0  0  0  0  0  0  0  0
   -5.9723   16.6279  -35.3320 H   0  0  0  0  0  0  0  0  0  0  0  0
   -5.8939   18.8942  -34.2721 H   0  0  0  0  0  0  0  0  0  0  0  0
   -4.5823   20.6840  -33.1835 H   0  0  0  0  0  0  0  0  0  0  0  0
   -5.4403   21.2278  -31.2909 H   0  0  0  0  0  0  0  0  0  0  0  0
   -9.5830   19.5700  -31.3957 H   0  0  0  0  0  0  0  0  0  0  0  0
   -9.6109   19.6056  -33.1724 H   0  0  0  0  0  0  0  0  0  0  0  0
   -8.8833   17.3856  -31.5909 H   0  0  0  0  0  0  0  0  0  0  0  0
   -8.4896   17.5565  -33.3065 H   0  0  0  0  0  0  0  0  0  0  0  0
   -6.6586   17.5749  -31.0785 H   0  0  0  0  0  0  0  0  0  0  0  0
   -6.2389   17.8924  -32.7635 H   0  0  0  0  0  0  0  0  0  0  0  0
   -6.8234   19.8197  -30.5212 H   0  0  0  0  0  0  0  0  0  0  0  0
   -5.7766   20.0537  -31.9349 H   0  0  0  0  0  0  0  0  0  0  0  0
   -7.9805   24.7077  -30.9277 H   0  0  0  0  0  0  0  0  0  0  0  0
   -5.9739   26.1335  -30.5336 H   0  0  0  0  0  0  0  0  0  0  0  0
   -0.4233   17.9817  -33.8923 H   0  0  0  0  0  0  0  0  0  0  0  0
  1  2  2  0
  2  3  1  0
  3  4  2  0
  4  5  1  0
  5  6  2  0
  6  7  1  0
  7  8  1  0
  8  9  1  0
  9 10  2  0
  9 11  2  0
  9 12  1  0
 12 13  2  0
 13 14  1  0
 14 15  1  0
 15 16  2  0
 15 17  2  0
 15 18  1  0
 18 19  1  0
 19 20  1  0
 20 21  1  0
 21 22  1  0
 14 23  2  0
 23 24  1  0
 24 25  2  0
 25 26  1  0
  7 27  2  0
 27 28  1  0
 27 29  1  0
 29 30  2  0
 30 31  1  0
 31  2  1  0
 30  5  1  0
 25 12  1  0
 22 18  1  0
  3 32  1  0
  4 33  1  0
  6 34  1  0
 13 35  1  0
 19 36  1  0
 19 37  1  0
 20 38  1  0
 20 39  1  0
 21 40  1  0
 21 41  1  0
 22 42  1  0
 22 43  1  0
 23 44  1  0
 24 45  1  0
 29 46  1  0
M  CHG  4   8  -1  26  -1  28  -1  31  -1
M  END
>  <UniqueID>  (15) 
15

>  <SMILES>  (15) 
O=c1ccc2cc([N-]S(=O)(=O)c3cc(S(=O)(=O)N4CCCC4)ccc3[O-])c([O-])cc2[n-]1

>  <Energy>  (15) 
58.272378007324065

>  <Genealogy>  (15) 
O=c1ccc2cc([N-]S(=O)(=O)c3cc(S(=O)(=O)N4CCCC4)ccc3[O-])c([O-])cc2[n-]1 (protonated)
O=c1ccc2cc([N-]S(=O)(=O)c3cc(S(=O)(=O)N4CCCC4)ccc3[O-])c([O-])cc2[n-]1 (3D coordinates assigned)
O=c1ccc2cc([N-]S(=O)(=O)c3cc(S(=O)(=O)N4CCCC4)ccc3[O-])c([O-])cc2[n-]1 (nonaromatic ring conformer: 58.272378007324065 kcal/mol)

>  <smiles>  (15) 
O=c1ccc2cc(NS(=O)(=O)c3cc(S(=O)(=O)N4CCCC4)ccc3O)c(O)cc2[nH]1

>  <score_type>  (15) 
oracle

>  <origin>  (15) 
adgpu

>  <m_score__min__energy>  (15) 
-15.369999999999999

>  <m_primary>  (15) 
energy

$$$$
15:0
     RDKit          3D

 41 44  0  0  0  0  0  0  0  0999 V2000
   -0.7750   25.2040  -28.4720 O   0  0  0  0  0  0  0  0  0  0  0  0
   -1.7360   24.4490  -28.7870 C   0  0  0  0  0  0  0  0  0  0  0  0
   -2.7720   24.9320  -29.5970 O   0  0  0  0  0  0  0  0  0  0  0  0
   -3.5640   24.1440  -30.4400 C   0  0  0  0  0  0  0  0  0  0  0  0
   -3.1000   23.2230  -31.3160 N   0  0  0  0  0  0  0  0  0  0  0  0
   -4.1570   22.6900  -31.9250 N   0  0  0  0  0  0  0  0  0  0  0  0
   -5.2400   23.3020  -31.4050 C   0  0  0  0  0  0  0  0  0  0  0  0
   -6.5750   23.0660  -31.7280 C   0  0  0  0  0  0  0  0  0  0  0  0
   -6.9020   22.1210  -32.7130 O   0  0  0  0  0  0  0  0  0  0  0  0
   -7.2560   20.7870  -32.4700 C   0  0  0  0  0  0  0  0  0  0  0  0
   -8.3440   20.5230  -31.6340 C   0  0  0  0  0  0  0  0  0  0  0  0
   -8.7440   19.2070  -31.3890 C   0  0  0  0  0  0  0  0  0  0  0  0
   -8.0590   18.1430  -31.9800 C   0  0  0  0  0  0  0  0  0  0  0  0
   -6.9570   18.3860  -32.8180 C   0  0  0  0  0  0  0  0  0  0  0  0
   -6.2530   17.2470  -33.5100 C   0  0  0  0  0  0  0  0  0  0  0  0
   -5.6470   17.6870  -34.6740 F   0  0  0  0  0  0  0  0  0  0  0  0
   -7.1740   16.2650  -33.8240 F   0  0  0  0  0  0  0  0  0  0  0  0
   -5.2760   16.7030  -32.6940 F   0  0  0  0  0  0  0  0  0  0  0  0
   -6.5790   19.7160  -33.0830 C   0  0  0  0  0  0  0  0  0  0  0  0
   -7.5450   23.8480  -31.0600 C   0  0  0  0  0  0  0  0  0  0  0  0
   -7.1540   24.7960  -30.0900 C   0  0  0  0  0  0  0  0  0  0  0  0
   -5.7940   24.9690  -29.8000 C   0  0  0  0  0  0  0  0  0  0  0  0
   -4.9020   24.2090  -30.4800 N   0  0  0  0  0  0  0  0  0  0  0  0
   -1.7710   23.0440  -28.2990 C   0  0  0  0  0  0  0  0  0  0  0  0
   -0.5850   22.2780  -28.2250 C   0  0  0  0  0  0  0  0  0  0  0  0
    0.6140   22.7930  -28.5970 F   0  0  0  0  0  0  0  0  0  0  0  0
   -0.6220   20.9580  -27.7650 C   0  0  0  0  0  0  0  0  0  0  0  0
   -1.8300   20.3820  -27.3730 C   0  0  0  0  0  0  0  0  0  0  0  0
   -3.0100   21.1240  -27.4390 C   0  0  0  0  0  0  0  0  0  0  0  0
   -2.9880   22.4440  -27.8970 C   0  0  0  0  0  0  0  0  0  0  0  0
   -4.1590   23.1290  -27.9410 F   0  0  0  0  0  0  0  0  0  0  0  0
   -8.8888   21.3562  -31.1660 H   0  0  0  0  0  0  0  0  0  0  0  0
   -9.6010   19.0083  -30.7287 H   0  0  0  0  0  0  0  0  0  0  0  0
   -8.3836   17.1095  -31.7887 H   0  0  0  0  0  0  0  0  0  0  0  0
   -5.7481   19.9198  -33.7745 H   0  0  0  0  0  0  0  0  0  0  0  0
   -8.6110   23.7169  -31.2976 H   0  0  0  0  0  0  0  0  0  0  0  0
   -7.9123   25.3954  -29.5649 H   0  0  0  0  0  0  0  0  0  0  0  0
   -5.4618   25.6974  -29.0456 H   0  0  0  0  0  0  0  0  0  0  0  0
    0.3067   20.3709  -27.7121 H   0  0  0  0  0  0  0  0  0  0  0  0
   -1.8527   19.3432  -27.0119 H   0  0  0  0  0  0  0  0  0  0  0  0
   -3.9617   20.6678  -27.1291 H   0  0  0  0  0  0  0  0  0  0  0  0
  1  2  2  0
  2  3  1  0
  3  4  1  0
  4  5  2  0
  5  6  1  0
  6  7  2  0
  7  8  1  0
  8  9  1  0
  9 10  1  0
 10 11  2  0
 11 12  1  0
 12 13  2  0
 13 14  1  0
 14 15  1  0
 15 16  1  0
 15 17  1  0
 15 18  1  0
 14 19  2  0
  8 20  2  0
 20 21  1  0
 21 22  2  0
 22 23  1  0
  2 24  1  0
 24 25  2  0
 25 26  1  0
 25 27  1  0
 27 28  2  0
 28 29  1  0
 29 30  2  0
 30 31  1  0
 23  4  1  0
 30 24  1  0
 23  7  1  0
 19 10  1  0
 11 32  1  0
 12 33  1  0
 13 34  1  0
 19 35  1  0
 20 36  1  0
 21 37  1  0
 22 38  1  0
 27 39  1  0
 28 40  1  0
 29 41  1  0
M  END
>  <UniqueID>  (16) 
16

>  <SMILES>  (16) 
O=C(Oc1nnc2c(Oc3cccc(C(F)(F)F)c3)cccn12)c1c(F)cccc1F

>  <Energy>  (16) 
97.97461723973174

>  <Genealogy>  (16) 
O=C(Oc1nnc2c(Oc3cccc(C(F)(F)F)c3)cccn12)c1c(F)cccc1F (3D coordinates assigned)
O=C(Oc1nnc2c(Oc3cccc(C(F)(F)F)c3)cccn12)c1c(F)cccc1F (optimized conformer: 97.97461723973174 kcal/mol)

>  <smiles>  (16) 
O=C(Oc1nnc2c(Oc3cccc(C(F)(F)F)c3)cccn12)c1c(F)cccc1F

>  <score_type>  (16) 
oracle

>  <origin>  (16) 
adgpu

>  <m_score__min__energy>  (16) 
-8.9299999999999997

>  <m_primary>  (16) 
energy

$$$$
16:0
     RDKit          3D

 67 71  0  0  0  0  0  0  0  0999 V2000
    2.8580   17.0560  -29.6990 C   0  0  0  0  0  0  0  0  0  0  0  0
    1.7440   18.0270  -29.2590 C   0  0  0  0  0  0  0  0  0  0  0  0
    0.8010   18.2540  -30.4660 C   0  0  0  0  0  0  0  0  0  0  0  0
    0.1860   17.1860  -31.1620 C   0  0  0  0  0  0  0  0  0  0  0  0
   -0.6200   17.4260  -32.2770 C   0  0  0  0  0  0  0  0  0  0  0  0
   -0.8590   18.7280  -32.7050 C   0  0  0  0  0  0  0  0  0  0  0  0
   -0.3080   19.8070  -32.0110 C   0  0  0  0  0  0  0  0  0  0  0  0
   -0.6080   21.2140  -32.4490 C   0  0  0  0  0  0  0  0  0  0  0  0
   -1.6570   21.7430  -31.6870 O   0  0  0  0  0  0  0  0  0  0  0  0
    0.4890   19.5710  -30.8800 C   0  0  0  0  0  0  0  0  0  0  0  0
    2.4090   19.3340  -28.7230 C   0  0  0  0  0  0  0  0  0  0  0  0
    1.3890   20.3300  -28.1210 C   0  0  0  0  0  0  0  0  0  0  0  0
    0.0440   19.7350  -28.0170 N   0  0  0  0  0  0  0  0  0  0  0  0
   -1.1110   20.3860  -28.5920 C   0  0  0  0  0  0  0  0  0  0  0  0
   -2.0470   19.6830  -29.0630 O   0  0  0  0  0  0  0  0  0  0  0  0
   -1.2350   21.8610  -28.6620 C   0  0  0  0  0  0  0  0  0  0  0  0
   -0.0980   22.6800  -28.7830 C   0  0  0  0  0  0  0  0  0  0  0  0
   -0.2340   24.0680  -28.8810 C   0  0  0  0  0  0  0  0  0  0  0  0
   -1.5020   24.6600  -28.8380 C   0  0  0  0  0  0  0  0  0  0  0  0
   -1.6380   26.0440  -28.9420 O   0  0  0  0  0  0  0  0  0  0  0  0
   -2.6410   23.8570  -28.6690 C   0  0  0  0  0  0  0  0  0  0  0  0
   -3.9330   24.4680  -28.6230 N   0  0  0  0  0  0  0  0  0  0  0  0
   -4.8120   24.9070  -30.0510 S   0  0  0  0  0  0  0  0  0  0  0  0
   -3.9390   25.6740  -31.0020 O   0  0  0  0  0  0  0  0  0  0  0  0
   -5.9690   25.7810  -29.6610 O   0  0  0  0  0  0  0  0  0  0  0  0
   -5.3960   23.4370  -30.8270 C   0  0  0  0  0  0  0  0  0  0  0  0
   -4.5280   22.6390  -31.5930 C   0  0  0  0  0  0  0  0  0  0  0  0
   -5.0110   21.4980  -32.2420 C   0  0  0  0  0  0  0  0  0  0  0  0
   -6.3580   21.1490  -32.1290 C   0  0  0  0  0  0  0  0  0  0  0  0
   -7.2320   21.9540  -31.3880 C   0  0  0  0  0  0  0  0  0  0  0  0
   -6.7510   23.0880  -30.7260 C   0  0  0  0  0  0  0  0  0  0  0  0
   -8.5870   21.6140  -31.3310 O   0  0  0  0  0  0  0  0  0  0  0  0
   -9.1420   20.6510  -32.2320 C   0  0  0  0  0  0  0  0  0  0  0  0
   -8.1550   19.4930  -32.4490 C   0  0  0  0  0  0  0  0  0  0  0  0
   -6.8550   20.0010  -32.7570 O   0  0  0  0  0  0  0  0  0  0  0  0
   -2.5030   22.4610  -28.5890 C   0  0  0  0  0  0  0  0  0  0  0  0
   -0.0740   18.3820  -27.4520 C   0  0  0  0  0  0  0  0  0  0  0  0
    0.9790   17.4180  -28.0420 C   0  0  0  0  0  0  0  0  0  0  0  0
    3.3460   16.6306  -28.8097 H   0  0  0  0  0  0  0  0  0  0  0  0
    2.4212   16.2453  -30.3006 H   0  0  0  0  0  0  0  0  0  0  0  0
    3.6015   17.5994  -30.3006 H   0  0  0  0  0  0  0  0  0  0  0  0
    0.3451   16.1527  -30.8200 H   0  0  0  0  0  0  0  0  0  0  0  0
   -1.0684   16.5808  -32.8198 H   0  0  0  0  0  0  0  0  0  0  0  0
   -1.4836   18.9078  -33.5924 H   0  0  0  0  0  0  0  0  0  0  0  0
    0.2892   21.8360  -32.3139 H   0  0  0  0  0  0  0  0  0  0  0  0
   -0.9022   21.2056  -33.5089 H   0  0  0  0  0  0  0  0  0  0  0  0
   -1.7350   21.1660  -30.8830 H   0  0  0  0  0  0  0  0  0  0  0  0
    0.8779   20.4245  -30.3053 H   0  0  0  0  0  0  0  0  0  0  0  0
    3.1359   19.0628  -27.9432 H   0  0  0  0  0  0  0  0  0  0  0  0
    2.8895   19.8324  -29.5778 H   0  0  0  0  0  0  0  0  0  0  0  0
    1.7277   20.6240  -27.1166 H   0  0  0  0  0  0  0  0  0  0  0  0
    1.3277   21.2034  -28.7869 H   0  0  0  0  0  0  0  0  0  0  0  0
    0.9038   22.2260  -28.8006 H   0  0  0  0  0  0  0  0  0  0  0  0
    0.6604   24.6986  -28.9925 H   0  0  0  0  0  0  0  0  0  0  0  0
   -2.5500   26.4890  -28.9660 H   0  0  0  0  0  0  0  0  0  0  0  0
   -3.4663   22.9127  -31.6821 H   0  0  0  0  0  0  0  0  0  0  0  0
   -4.3298   20.8759  -32.8412 H   0  0  0  0  0  0  0  0  0  0  0  0
   -7.4350   23.7063  -30.1261 H   0  0  0  0  0  0  0  0  0  0  0  0
  -10.0777   20.2560  -31.8097 H   0  0  0  0  0  0  0  0  0  0  0  0
   -9.3407   21.1378  -33.1982 H   0  0  0  0  0  0  0  0  0  0  0  0
   -8.1000   18.8865  -31.5330 H   0  0  0  0  0  0  0  0  0  0  0  0
   -8.5064   18.8757  -33.2889 H   0  0  0  0  0  0  0  0  0  0  0  0
   -3.3970   21.8316  -28.4680 H   0  0  0  0  0  0  0  0  0  0  0  0
    0.0660   18.4381  -26.3624 H   0  0  0  0  0  0  0  0  0  0  0  0
   -1.0716   17.9930  -27.7039 H   0  0  0  0  0  0  0  0  0  0  0  0
    1.7084   17.1712  -27.2565 H   0  0  0  0  0  0  0  0  0  0  0  0
    0.4459   16.5249  -28.3999 H   0  0  0  0  0  0  0  0  0  0  0  0
  1  2  1  0
  2  3  1  0
  3  4  2  0
  4  5  1  0
  5  6  2  0
  6  7  1  0
  7  8  1  0
  8  9  1  0
  7 10  2  0
  2 11  1  0
 11 12  1  0
 12 13  1  0
 13 14  1  0
 14 15  2  0
 14 16  1  0
 16 17  2  0
 17 18  1  0
 18 19  2  0
 19 20  1  0
 19 21  1  0
 21 22  1  0
 22 23  1  0
 23 24  2  0
 23 25  2  0
 23 26  1  0
 26 27  2  0
 27 28  1  0
 28 29  2  0
 29 30  1  0
 30 31  2  0
 30 32  1  0
 32 33  1  0
 33 34  1  0
 34 35  1  0
 21 36  2  0
 13 37  1  0
 37 38  1  0
 38  2  1  0
 10  3  1  0
 36 16  1  0
 31 26  1  0
 35 29  1  0
  1 39  1  0
  1 40  1  0
  1 41  1  0
  4 42  1  0
  5 43  1  0
  6 44  1  0
  8 45  1  0
  8 46  1  0
  9 47  1  0
 10 48  1  0
 11 49  1  0
 11 50  1  0
 12 51  1  0
 12 52  1  0
 17 53  1  0
 18 54  1  0
 20 55  1  0
 27 56  1  0
 28 57  1  0
 31 58  1  0
 33 59  1  0
 33 60  1  0
 34 61  1  0
 34 62  1  0
 36 63  1  0
 37 64  1  0
 37 65  1  0
 38 66  1  0
 38 67  1  0
M  CHG  1  22  -1
M  END
>  <UniqueID>  (17) 
17

>  <SMILES>  (17) 
CC1(c2cccc(CO)c2)CCN(C(=O)c2ccc(O)c([N-]S(=O)(=O)c3ccc4c(c3)OCCO4)c2)CC1

>  <Energy>  (17) 
95.37464863882285

>  <Genealogy>  (17) 
CC1(c2cccc(CO)c2)CCN(C(=O)c2ccc(O)c([N-]S(=O)(=O)c3ccc4c(c3)OCCO4)c2)CC1 (protonated)
CC1(c2cccc(CO)c2)CCN(C(=O)c2ccc(O)c([N-]S(=O)(=O)c3ccc4c(c3)OCCO4)c2)CC1 (3D coordinates assigned)
CC1(c2cccc(CO)c2)CCN(C(=O)c2ccc(O)c([N-]S(=O)(=O)c3ccc4c(c3)OCCO4)c2)CC1 (nonaromatic ring conformer: 95.37464863882285 kcal/mol)

>  <smiles>  (17) 
CC1(c2cccc(CO)c2)CCN(C(=O)c2ccc(O)c(NS(=O)(=O)c3ccc4c(c3)OCCO4)c2)CC1

>  <score_type>  (17) 
oracle

>  <origin>  (17) 
adgpu

>  <m_score__min__energy>  (17) 
-11.039999999999999

>  <m_primary>  (17) 
energy

$$$$
17:0
     RDKit          3D

 44 47  0  0  0  0  0  0  0  0999 V2000
    0.7860   18.8220  -37.6810 O   0  0  0  0  0  0  0  0  0  0  0  0
    0.6280   19.3540  -36.5490 C   0  0  0  0  0  0  0  0  0  0  0  0
    1.1530   20.7410  -36.3130 C   0  0  0  0  0  0  0  0  0  0  0  0
    0.5420   21.4060  -35.1100 C   0  0  0  0  0  0  0  0  0  0  0  0
    0.5910   22.6630  -35.0290 O   0  0  0  0  0  0  0  0  0  0  0  0
   -0.0480   20.6140  -34.0030 C   0  0  0  0  0  0  0  0  0  0  0  0
   -0.3710   21.2310  -32.7820 C   0  0  0  0  0  0  0  0  0  0  0  0
   -0.9400   20.4930  -31.7370 C   0  0  0  0  0  0  0  0  0  0  0  0
   -1.3810   21.2980  -30.2330 S   0  0  0  0  0  0  0  0  0  0  0  0
   -0.1310   21.5460  -29.4360 O   0  0  0  0  0  0  0  0  0  0  0  0
   -2.3160   20.4400  -29.4270 O   0  0  0  0  0  0  0  0  0  0  0  0
   -2.1560   22.8140  -30.5740 N   0  0  0  0  0  0  0  0  0  0  0  0
   -3.5480   22.9300  -30.9240 C   0  0  0  0  0  0  0  0  0  0  0  0
   -4.2830   21.8170  -31.3740 C   0  0  0  0  0  0  0  0  0  0  0  0
   -5.6320   21.9520  -31.7310 C   0  0  0  0  0  0  0  0  0  0  0  0
   -6.2580   23.2020  -31.6410 C   0  0  0  0  0  0  0  0  0  0  0  0
   -5.5360   24.3130  -31.1870 C   0  0  0  0  0  0  0  0  0  0  0  0
   -4.1910   24.1790  -30.8250 C   0  0  0  0  0  0  0  0  0  0  0  0
   -3.4960   25.2980  -30.3820 O   0  0  0  0  0  0  0  0  0  0  0  0
   -7.6920   23.3200  -32.0750 C   0  0  0  0  0  0  0  0  0  0  0  0
   -8.5130   22.1430  -31.5260 C   0  0  0  0  0  0  0  0  0  0  0  0
   -7.8460   20.7540  -31.7150 C   0  0  0  0  0  0  0  0  0  0  0  0
   -6.4140   20.7920  -32.2860 C   0  0  0  0  0  0  0  0  0  0  0  0
   -1.1780   19.1260  -31.9060 C   0  0  0  0  0  0  0  0  0  0  0  0
   -0.8630   18.5010  -33.1130 C   0  0  0  0  0  0  0  0  0  0  0  0
   -0.3010   19.2370  -34.1720 C   0  0  0  0  0  0  0  0  0  0  0  0
   -0.0050   18.5850  -35.4650 C   0  0  0  0  0  0  0  0  0  0  0  0
   -0.3040   17.3750  -35.6560 O   0  0  0  0  0  0  0  0  0  0  0  0
    2.2416   20.6830  -36.1659 H   0  0  0  0  0  0  0  0  0  0  0  0
    0.8881   21.3462  -37.1925 H   0  0  0  0  0  0  0  0  0  0  0  0
   -0.1747   22.3048  -32.6461 H   0  0  0  0  0  0  0  0  0  0  0  0
   -1.5360   23.6510  -30.6410 H   0  0  0  0  0  0  0  0  0  0  0  0
   -3.7951   20.8337  -31.4461 H   0  0  0  0  0  0  0  0  0  0  0  0
   -6.0279   25.2942  -31.1148 H   0  0  0  0  0  0  0  0  0  0  0  0
   -8.1102   24.2633  -31.6939 H   0  0  0  0  0  0  0  0  0  0  0  0
   -7.7359   23.3056  -33.1740 H   0  0  0  0  0  0  0  0  0  0  0  0
   -8.6706   22.3056  -30.4496 H   0  0  0  0  0  0  0  0  0  0  0  0
   -9.4525   22.1211  -32.0978 H   0  0  0  0  0  0  0  0  0  0  0  0
   -7.8095   20.2565  -30.7346 H   0  0  0  0  0  0  0  0  0  0  0  0
   -8.4581   20.2166  -32.4544 H   0  0  0  0  0  0  0  0  0  0  0  0
   -5.8994   19.8556  -32.0244 H   0  0  0  0  0  0  0  0  0  0  0  0
   -6.4797   20.9095  -33.3777 H   0  0  0  0  0  0  0  0  0  0  0  0
   -1.6155   18.5405  -31.0839 H   0  0  0  0  0  0  0  0  0  0  0  0
   -1.0555   17.4251  -33.2374 H   0  0  0  0  0  0  0  0  0  0  0  0
  1  2  2  0
  2  3  1  0
  3  4  1  0
  4  5  2  0
  4  6  1  0
  6  7  2  0
  7  8  1  0
  8  9  1  0
  9 10  2  0
  9 11  2  0
  9 12  1  0
 12 13  1  0
 13 14  2  0
 14 15  1  0
 15 16  2  0
 16 17  1  0
 17 18  2  0
 18 19  1  0
 16 20  1  0
 20 21  1  0
 21 22  1  0
 22 23  1  0
  8 24  2  0
 24 25  1  0
 25 26  2  0
 26 27  1  0
 27 28  2  0
 27  2  1  0
 26  6  1  0
 18 13  1  0
 23 15  1  0
  3 29  1  0
  3 30  1  0
  7 31  1  0
 12 32  1  0
 14 33  1  0
 17 34  1  0
 20 35  1  0
 20 36  1  0
 21 37  1  0
 21 38  1  0
 22 39  1  0
 22 40  1  0
 23 41  1  0
 23 42  1  0
 24 43  1  0
 25 44  1  0
M  CHG  1  19  -1
M  END
>  <UniqueID>  (18) 
18

>  <SMILES>  (18) 
O=C1CC(=O)c2cc(S(=O)(=O)Nc3cc4c(cc3[O-])CCCC4)ccc2C1=O

>  <Energy>  (18) 
57.06987275201263

>  <Genealogy>  (18) 
O=C1CC(=O)c2cc(S(=O)(=O)Nc3cc4c(cc3[O-])CCCC4)ccc2C1=O (protonated)
O=C1CC(=O)c2cc(S(=O)(=O)Nc3cc4c(cc3[O-])CCCC4)ccc2C1=O (3D coordinates assigned)
O=C1CC(=O)c2cc(S(=O)(=O)Nc3cc4c(cc3[O-])CCCC4)ccc2C1=O (nonaromatic ring conformer: 57.06987275201263 kcal/mol)

>  <smiles>  (18) 
O=C1CC(=O)c2cc(S(=O)(=O)Nc3cc4c(cc3O)CCCC4)ccc2C1=O

>  <score_type>  (18) 
oracle

>  <origin>  (18) 
adgpu

>  <m_score__min__energy>  (18) 
-14.56

>  <m_primary>  (18) 
energy

$$$$
18:0
     RDKit          3D

 54 58  0  0  0  0  0  0  0  0999 V2000
   -3.0230   18.2640  -25.4830 N   0  0  0  0  0  0  0  0  0  0  0  0
   -2.2920   19.0170  -26.2430 C   0  0  0  0  0  0  0  0  0  0  0  0
   -2.5440   19.2250  -27.6160 N   0  0  0  0  0  0  0  0  0  0  0  0
   -1.5100   20.1260  -28.1220 C   0  0  1  0  0  0  0  0  0  0  0  0
   -0.6100   20.4360  -26.8740 C   0  0  0  0  0  0  0  0  0  0  0  0
   -1.1830   19.7000  -25.7980 O   0  0  0  0  0  0  0  0  0  0  0  0
   -0.6980   19.4070  -29.1960 C   0  0  0  0  0  0  0  0  0  0  0  0
   -0.2010   18.1090  -28.9610 C   0  0  0  0  0  0  0  0  0  0  0  0
    0.5800   17.4500  -29.9180 C   0  0  0  0  0  0  0  0  0  0  0  0
    1.0270   16.1500  -29.6220 O   0  0  0  0  0  0  0  0  0  0  0  0
    2.2160   15.8150  -28.9050 C   0  0  0  0  0  0  0  0  0  0  0  0
    2.0040   15.9460  -27.3970 C   0  0  0  0  0  0  0  0  0  0  0  0
    3.1540   15.5630  -26.7360 F   0  0  0  0  0  0  0  0  0  0  0  0
    1.7180   17.2620  -27.0790 F   0  0  0  0  0  0  0  0  0  0  0  0
    0.9580   15.1450  -26.9800 F   0  0  0  0  0  0  0  0  0  0  0  0
    0.8960   18.1110  -31.1180 C   0  0  0  0  0  0  0  0  0  0  0  0
    0.4200   19.4020  -31.3550 C   0  0  0  0  0  0  0  0  0  0  0  0
   -0.3780   20.0480  -30.4070 C   0  0  0  0  0  0  0  0  0  0  0  0
   -0.8640   21.3240  -30.6890 O   0  0  0  0  0  0  0  0  0  0  0  0
   -1.7750   21.9760  -29.8580 C   0  0  0  0  0  0  0  0  0  0  0  0
   -2.3190   23.1930  -30.2770 C   0  0  0  0  0  0  0  0  0  0  0  0
   -3.2710   23.8590  -29.4920 C   0  0  0  0  0  0  0  0  0  0  0  0
   -3.8560   25.0880  -29.9370 N   0  0  0  0  0  0  0  0  0  0  0  0
   -5.5500   25.2760  -30.2640 S   0  0  0  0  0  0  0  0  0  0  0  0
   -5.7440   26.4470  -31.1900 O   0  0  0  0  0  0  0  0  0  0  0  0
   -6.2610   25.5740  -28.9730 O   0  0  0  0  0  0  0  0  0  0  0  0
   -6.2410   23.8140  -30.9660 C   0  0  0  0  0  0  0  0  0  0  0  0
   -7.6040   23.5180  -30.7950 C   0  0  0  0  0  0  0  0  0  0  0  0
   -8.1550   22.3760  -31.3880 C   0  0  0  0  0  0  0  0  0  0  0  0
   -7.3490   21.5260  -32.1530 C   0  0  0  0  0  0  0  0  0  0  0  0
   -5.9880   21.8130  -32.3210 C   0  0  0  0  0  0  0  0  0  0  0  0
   -5.4350   22.9560  -31.7300 C   0  0  0  0  0  0  0  0  0  0  0  0
   -3.6920   23.2810  -28.2800 C   0  0  0  0  0  0  0  0  0  0  0  0
   -4.6540   23.8970  -27.4780 O   0  0  0  0  0  0  0  0  0  0  0  0
   -3.1290   22.0750  -27.8500 C   0  0  0  0  0  0  0  0  0  0  0  0
   -2.1650   21.4080  -28.6320 C   0  0  0  0  0  0  0  0  0  0  0  0
   -2.7860   18.1500  -24.4730 H   0  0  0  0  0  0  0  0  0  0  0  0
   -3.8550   17.7650  -25.8700 H   0  0  0  0  0  0  0  0  0  0  0  0
   -3.3310   18.8110  -28.1680 H   0  0  0  0  0  0  0  0  0  0  0  0
    0.4244   20.1088  -27.0555 H   0  0  0  0  0  0  0  0  0  0  0  0
   -0.5723   21.5136  -26.6563 H   0  0  0  0  0  0  0  0  0  0  0  0
   -0.4305   17.6057  -28.0102 H   0  0  0  0  0  0  0  0  0  0  0  0
    2.4969   14.7777  -29.1396 H   0  0  0  0  0  0  0  0  0  0  0  0
    3.0139   16.5092  -29.2074 H   0  0  0  0  0  0  0  0  0  0  0  0
    1.5201   17.6096  -31.8724 H   0  0  0  0  0  0  0  0  0  0  0  0
    0.6749   19.9142  -32.2945 H   0  0  0  0  0  0  0  0  0  0  0  0
   -1.9971   23.6330  -31.2324 H   0  0  0  0  0  0  0  0  0  0  0  0
   -8.2393   24.1851  -30.1939 H   0  0  0  0  0  0  0  0  0  0  0  0
   -9.2223   22.1468  -31.2525 H   0  0  0  0  0  0  0  0  0  0  0  0
   -7.7842   20.6317  -32.6229 H   0  0  0  0  0  0  0  0  0  0  0  0
   -5.3537   21.1405  -32.9172 H   0  0  0  0  0  0  0  0  0  0  0  0
   -4.3669   23.1816  -31.8649 H   0  0  0  0  0  0  0  0  0  0  0  0
   -5.3790   24.4910  -27.8610 H   0  0  0  0  0  0  0  0  0  0  0  0
   -3.4428   21.6416  -26.8889 H   0  0  0  0  0  0  0  0  0  0  0  0
  1  2  2  0
  2  3  1  0
  4  3  1  1
  4  5  1  0
  5  6  1  0
  4  7  1  0
  7  8  2  0
  8  9  1  0
  9 10  1  0
 10 11  1  0
 11 12  1  0
 12 13  1  0
 12 14  1  0
 12 15  1  0
  9 16  2  0
 16 17  1  0
 17 18  2  0
 18 19  1  0
 19 20  1  0
 20 21  2  0
 21 22  1  0
 22 23  1  0
 23 24  1  0
 24 25  2  0
 24 26  2  0
 24 27  1  0
 27 28  2  0
 28 29  1  0
 29 30  2  0
 30 31  1  0
 31 32  2  0
 22 33  2  0
 33 34  1  0
 33 35  1  0
 35 36  2  0
  6  2  1  0
 18  7  1  0
 36 20  1  0
 36  4  1  0
 32 27  1  0
  1 37  1  0
  1 38  1  0
  3 39  1  0
  5 40  1  0
  5 41  1  0
  8 42  1  0
 11 43  1  0
 11 44  1  0
 16 45  1  0
 17 46  1  0
 21 47  1  0
 28 48  1  0
 29 49  1  0
 30 50  1  0
 31 51  1  0
 32 52  1  0
 34 53  1  0
 35 54  1  0
M  CHG  2   1   1  23  -1
M  END
>  <UniqueID>  (19) 
19

>  <SMILES>  (19) 
[NH2+]=C1N[C@@]2(CO1)c1cc(OCC(F)(F)F)ccc1Oc1cc([N-]S(=O)(=O)c3ccccc3)c(O)cc12

>  <Energy>  (19) 
85.68999899957703

>  <Genealogy>  (19) 
[NH2+]=C1NC2(CO1)c1cc(OCC(F)(F)F)ccc1Oc1cc([N-]S(=O)(=O)c3ccccc3)c(O)cc12 (protonated)
[NH2+]=C1N[C@@]2(CO1)c1cc(OCC(F)(F)F)ccc1Oc1cc([N-]S(=O)(=O)c3ccccc3)c(O)cc12 (chirality)
[NH2+]=C1N[C@@]2(CO1)c1cc(OCC(F)(F)F)ccc1Oc1cc([N-]S(=O)(=O)c3ccccc3)c(O)cc12 (3D coordinates assigned)
[NH2+]=C1N[C@@]2(CO1)c1cc(OCC(F)(F)F)ccc1Oc1cc([N-]S(=O)(=O)c3ccccc3)c(O)cc12 (nonaromatic ring conformer: 85.68999899957703 kcal/mol)

>  <smiles>  (19) 
N=C1NC2(CO1)c1cc(OCC(F)(F)F)ccc1Oc1cc(NS(=O)(=O)c3ccccc3)c(O)cc12

>  <score_type>  (19) 
oracle

>  <origin>  (19) 
adgpu

>  <m_score__min__energy>  (19) 
-8.5800000000000001

>  <m_primary>  (19) 
energy

$$$$
19:0
     RDKit          3D

 55 58  0  0  0  0  0  0  0  0999 V2000
   -3.1790   21.9060  -32.8320 C   0  0  0  0  0  0  0  0  0  0  0  0
   -3.3150   20.4710  -33.2310 C   0  0  0  0  0  0  0  0  0  0  0  0
   -2.1790   19.7140  -33.5460 C   0  0  0  0  0  0  0  0  0  0  0  0
   -2.3270   18.3790  -33.9220 C   0  0  0  0  0  0  0  0  0  0  0  0
   -3.6040   17.8070  -33.9880 C   0  0  0  0  0  0  0  0  0  0  0  0
   -3.7770   16.4610  -34.3330 C   0  0  0  0  0  0  0  0  0  0  0  0
   -5.0580   15.9060  -34.3630 C   0  0  0  0  0  0  0  0  0  0  0  0
   -6.1730   16.6930  -34.0630 C   0  0  0  0  0  0  0  0  0  0  0  0
   -6.0250   18.0520  -33.7460 C   0  0  0  0  0  0  0  0  0  0  0  0
   -7.1950   18.8280  -33.4400 N   0  0  0  0  0  0  0  0  0  0  0  0
   -7.9330   18.6780  -32.2160 C   0  0  0  0  0  0  0  0  0  0  0  0
   -7.4490   18.0120  -31.2620 O   0  0  0  0  0  0  0  0  0  0  0  0
   -9.2140   19.2930  -32.0460 N   0  0  0  0  0  0  0  0  0  0  0  0
   -9.4840   20.6990  -32.3140 C   0  0  0  0  0  0  0  0  0  0  0  0
   -8.4070   21.5390  -31.6930 C   0  0  0  0  0  0  0  0  0  0  0  0
   -8.4950   21.9210  -30.3450 C   0  0  0  0  0  0  0  0  0  0  0  0
   -7.5090   22.7330  -29.7770 C   0  0  0  0  0  0  0  0  0  0  0  0
   -6.4320   23.1820  -30.5520 C   0  0  0  0  0  0  0  0  0  0  0  0
   -5.1710   24.1870  -29.8400 S   0  0  0  0  0  0  0  0  0  0  0  0
   -5.7930   25.3410  -29.1050 O   0  0  0  0  0  0  0  0  0  0  0  0
   -4.3200   24.7370  -30.9510 O   0  0  0  0  0  0  0  0  0  0  0  0
   -4.1690   23.2410  -28.7590 N   0  0  0  0  0  0  0  0  0  0  0  0
   -3.5360   24.0720  -27.7200 C   0  0  0  0  0  0  0  0  0  0  0  0
   -2.3530   24.9020  -28.2620 C   0  0  0  0  0  0  0  0  0  0  0  0
   -1.5530   24.2020  -29.2850 N   0  0  0  0  0  0  0  0  0  0  0  0
   -1.7390   22.7500  -29.2530 C   0  0  0  0  0  0  0  0  0  0  0  0
   -3.2140   22.3810  -29.4990 C   0  0  0  0  0  0  0  0  0  0  0  0
   -6.3460   22.8100  -31.8990 C   0  0  0  0  0  0  0  0  0  0  0  0
   -7.3310   21.9990  -32.4690 C   0  0  0  0  0  0  0  0  0  0  0  0
   -4.7300   18.6090  -33.6840 C   0  0  0  0  0  0  0  0  0  0  0  0
   -4.5480   19.9040  -33.3090 N   0  0  0  0  0  0  0  0  0  0  0  0
   -3.1718   21.9824  -31.7347 H   0  0  0  0  0  0  0  0  0  0  0  0
   -2.2385   22.3108  -33.2339 H   0  0  0  0  0  0  0  0  0  0  0  0
   -4.0267   22.4803  -33.2339 H   0  0  0  0  0  0  0  0  0  0  0  0
   -1.1786   20.1687  -33.4972 H   0  0  0  0  0  0  0  0  0  0  0  0
   -1.4407   17.7752  -34.1668 H   0  0  0  0  0  0  0  0  0  0  0  0
   -2.9032   15.8404  -34.5806 H   0  0  0  0  0  0  0  0  0  0  0  0
   -5.1898   14.8455  -34.6237 H   0  0  0  0  0  0  0  0  0  0  0  0
   -7.1766   16.2428  -34.0754 H   0  0  0  0  0  0  0  0  0  0  0  0
   -7.4150   19.6370  -34.0620 H   0  0  0  0  0  0  0  0  0  0  0  0
   -9.5016   20.8689  -33.4006 H   0  0  0  0  0  0  0  0  0  0  0  0
  -10.4589   20.9747  -31.8855 H   0  0  0  0  0  0  0  0  0  0  0  0
   -9.3432   21.5800  -29.7333 H   0  0  0  0  0  0  0  0  0  0  0  0
   -7.5791   23.0204  -28.7175 H   0  0  0  0  0  0  0  0  0  0  0  0
   -4.2907   24.7599  -27.3110 H   0  0  0  0  0  0  0  0  0  0  0  0
   -3.1417   23.3957  -26.9472 H   0  0  0  0  0  0  0  0  0  0  0  0
   -2.7523   25.8257  -28.7063 H   0  0  0  0  0  0  0  0  0  0  0  0
   -1.6837   25.0987  -27.4115 H   0  0  0  0  0  0  0  0  0  0  0  0
   -1.8250   24.5500  -30.2350 H   0  0  0  0  0  0  0  0  0  0  0  0
   -1.1170   22.2896  -30.0348 H   0  0  0  0  0  0  0  0  0  0  0  0
   -1.4440   22.3790  -28.2604 H   0  0  0  0  0  0  0  0  0  0  0  0
   -3.4219   22.4752  -30.5751 H   0  0  0  0  0  0  0  0  0  0  0  0
   -3.3557   21.3524  -29.1359 H   0  0  0  0  0  0  0  0  0  0  0  0
   -5.5003   23.1573  -32.5107 H   0  0  0  0  0  0  0  0  0  0  0  0
   -7.2631   21.7196  -33.5308 H   0  0  0  0  0  0  0  0  0  0  0  0
  1  2  1  0
  2  3  2  0
  3  4  1  0
  4  5  2  0
  5  6  1  0
  6  7  2  0
  7  8  1  0
  8  9  2  0
  9 10  1  0
 10 11  1  0
 11 12  2  0
 11 13  1  0
 13 14  1  0
 14 15  1  0
 15 16  2  0
 16 17  1  0
 17 18  2  0
 18 19  1  0
 19 20  2  0
 19 21  2  0
 19 22  1  0
 22 23  1  0
 23 24  1  0
 24 25  1  0
 25 26  1  0
 26 27  1  0
 18 28  1  0
 28 29  2  0
  9 30  1  0
 30 31  2  0
 31  2  1  0
 30  5  1  0
 29 15  1  0
 27 22  1  0
  1 32  1  0
  1 33  1  0
  1 34  1  0
  3 35  1  0
  4 36  1  0
  6 37  1  0
  7 38  1  0
  8 39  1  0
 10 40  1  0
 14 41  1  0
 14 42  1  0
 16 43  1  0
 17 44  1  0
 23 45  1  0
 23 46  1  0
 24 47  1  0
 24 48  1  0
 25 49  1  0
 26 50  1  0
 26 51  1  0
 27 52  1  0
 27 53  1  0
 28 54  1  0
 29 55  1  0
M  CHG  1  13  -1
M  END
>  <UniqueID>  (20) 
20

>  <SMILES>  (20) 
Cc1ccc2cccc(NC(=O)[N-]Cc3ccc(S(=O)(=O)N4CCNCC4)cc3)c2n1

>  <Energy>  (20) 
72.35137851168841

>  <Genealogy>  (20) 
Cc1ccc2cccc(NC(=O)[N-]Cc3ccc(S(=O)(=O)N4CCNCC4)cc3)c2n1 (protonated)
Cc1ccc2cccc(NC(=O)[N-]Cc3ccc(S(=O)(=O)N4CCNCC4)cc3)c2n1 (3D coordinates assigned)
Cc1ccc2cccc(NC(=O)[N-]Cc3ccc(S(=O)(=O)N4CCNCC4)cc3)c2n1 (nonaromatic ring conformer: 72.35137851168841 kcal/mol)

>  <smiles>  (20) 
Cc1ccc2cccc(NC(=O)NCc3ccc(S(=O)(=O)N4CCNCC4)cc3)c2n1

>  <score_type>  (20) 
oracle

>  <origin>  (20) 
adgpu

>  <m_score__min__energy>  (20) 
-12.800000000000001

>  <m_primary>  (20) 
energy

$$$$
20:0
     RDKit          3D

 48 50  0  0  0  0  0  0  0  0999 V2000
   -1.0520   21.5480  -32.0000 C   0  0  0  0  0  0  0  0  0  0  0  0
   -1.9950   20.5850  -32.6670 C   0  0  0  0  0  0  0  0  0  0  0  0
   -1.5250   19.3140  -33.0380 C   0  0  0  0  0  0  0  0  0  0  0  0
   -2.3850   18.3830  -33.6260 C   0  0  0  0  0  0  0  0  0  0  0  0
   -3.7230   18.7130  -33.8510 C   0  0  0  0  0  0  0  0  0  0  0  0
   -4.1980   19.9800  -33.5060 C   0  0  0  0  0  0  0  0  0  0  0  0
   -3.3400   20.9300  -32.9400 C   0  0  0  0  0  0  0  0  0  0  0  0
   -3.8530   22.1960  -32.6380 O   0  0  0  0  0  0  0  0  0  0  0  0
   -5.0100   22.3990  -31.8730 C   0  0  0  0  0  0  0  0  0  0  0  0
   -6.1260   21.6630  -32.1330 N   0  0  0  0  0  0  0  0  0  0  0  0
   -7.2770   21.8130  -31.4280 C   0  0  0  0  0  0  0  0  0  0  0  0
   -8.6760   20.8330  -31.8300 S   0  0  0  0  0  0  0  0  0  0  0  0
   -8.2470   19.6730  -33.1070 C   0  0  0  0  0  0  0  0  0  0  0  0
   -9.7860   21.7210  -32.3190 O   0  0  0  0  0  0  0  0  0  0  0  0
   -9.1450   20.0970  -30.6060 O   0  0  0  0  0  0  0  0  0  0  0  0
   -7.3370   22.7400  -30.3890 C   0  0  0  0  0  0  0  0  0  0  0  0
   -6.2110   23.5060  -30.0890 C   0  0  0  0  0  0  0  0  0  0  0  0
   -5.0220   23.3480  -30.8260 C   0  0  0  0  0  0  0  0  0  0  0  0
   -3.8320   24.1750  -30.4950 C   0  0  0  0  0  0  0  0  0  0  0  0
   -3.8830   25.4310  -30.5840 O   0  0  0  0  0  0  0  0  0  0  0  0
   -2.6030   23.5370  -30.1230 N   0  0  0  0  0  0  0  0  0  0  0  0
   -2.3920   22.6560  -29.0080 C   0  0  0  0  0  0  0  0  0  0  0  0
   -2.9770   21.3770  -28.9680 C   0  0  0  0  0  0  0  0  0  0  0  0
   -2.7320   20.5220  -27.8910 C   0  0  0  0  0  0  0  0  0  0  0  0
   -1.8900   20.9250  -26.8550 C   0  0  0  0  0  0  0  0  0  0  0  0
   -1.2830   22.1810  -26.8950 C   0  0  0  0  0  0  0  0  0  0  0  0
   -1.5250   23.0530  -27.9680 C   0  0  0  0  0  0  0  0  0  0  0  0
   -0.7430   24.6370  -28.0070 S   0  0  0  0  0  0  0  0  0  0  0  0
   -1.6510   25.7500  -28.9700 N   0  0  0  0  0  0  0  0  0  0  0  0
    0.6340   24.5040  -28.5940 O   0  0  0  0  0  0  0  0  0  0  0  0
   -0.6400   25.1750  -26.6070 O   0  0  0  0  0  0  0  0  0  0  0  0
   -1.1439   21.4541  -30.9079 H   0  0  0  0  0  0  0  0  0  0  0  0
   -0.0194   21.3187  -32.3021 H   0  0  0  0  0  0  0  0  0  0  0  0
   -1.3029   22.5755  -32.3021 H   0  0  0  0  0  0  0  0  0  0  0  0
   -0.4715   19.0497  -32.8641 H   0  0  0  0  0  0  0  0  0  0  0  0
   -2.0080   17.3899  -33.9117 H   0  0  0  0  0  0  0  0  0  0  0  0
   -4.4033   17.9745  -34.3003 H   0  0  0  0  0  0  0  0  0  0  0  0
   -5.2542   20.2333  -33.6803 H   0  0  0  0  0  0  0  0  0  0  0  0
   -7.9001   18.7350  -32.6489 H   0  0  0  0  0  0  0  0  0  0  0  0
   -9.1301   19.4716  -33.7311 H   0  0  0  0  0  0  0  0  0  0  0  0
   -7.4453   20.0946  -33.7311 H   0  0  0  0  0  0  0  0  0  0  0  0
   -8.2642   22.8663  -29.8108 H   0  0  0  0  0  0  0  0  0  0  0  0
   -6.2522   24.2394  -29.2702 H   0  0  0  0  0  0  0  0  0  0  0  0
   -3.6309   21.0486  -29.7894 H   0  0  0  0  0  0  0  0  0  0  0  0
   -3.2041   19.5289  -27.8600 H   0  0  0  0  0  0  0  0  0  0  0  0
   -1.7040   20.2519  -26.0051 H   0  0  0  0  0  0  0  0  0  0  0  0
   -0.6108   22.4895  -26.0807 H   0  0  0  0  0  0  0  0  0  0  0  0
   -1.8000   25.3000  -29.9000 H   0  0  0  0  0  0  0  0  0  0  0  0
  1  2  1  0
  2  3  2  0
  3  4  1  0
  4  5  2  0
  5  6  1  0
  6  7  2  0
  7  8  1  0
  8  9  1  0
  9 10  2  0
 10 11  1  0
 11 12  1  0
 12 13  1  0
 12 14  2  0
 12 15  2  0
 11 16  2  0
 16 17  1  0
 17 18  2  0
 18 19  1  0
 19 20  2  0
 19 21  1  0
 21 22  1  0
 22 23  2  0
 23 24  1  0
 24 25  2  0
 25 26  1  0
 26 27  2  0
 27 28  1  0
 28 29  1  0
 28 30  2  0
 28 31  2  0
  7  2  1  0
 18  9  1  0
 27 22  1  0
  1 32  1  0
  1 33  1  0
  1 34  1  0
  3 35  1  0
  4 36  1  0
  5 37  1  0
  6 38  1  0
 13 39  1  0
 13 40  1  0
 13 41  1  0
 16 42  1  0
 17 43  1  0
 23 44  1  0
 24 45  1  0
 25 46  1  0
 26 47  1  0
 29 48  1  0
M  CHG  2  21  -1  29  -1
M  END
>  <UniqueID>  (21) 
21

>  <SMILES>  (21) 
Cc1ccccc1Oc1nc(S(C)(=O)=O)ccc1C(=O)[N-]c1ccccc1S([NH-])(=O)=O

>  <Energy>  (21) 
60.52758738225941

>  <Genealogy>  (21) 
Cc1ccccc1Oc1nc(S(C)(=O)=O)ccc1C(=O)[N-]c1ccccc1S([NH-])(=O)=O (protonated)
Cc1ccccc1Oc1nc(S(C)(=O)=O)ccc1C(=O)[N-]c1ccccc1S([NH-])(=O)=O (3D coordinates assigned)
Cc1ccccc1Oc1nc(S(C)(=O)=O)ccc1C(=O)[N-]c1ccccc1S([NH-])(=O)=O (optimized conformer: 60.52758738225941 kcal/mol)

>  <smiles>  (21) 
Cc1ccccc1Oc1nc(S(C)(=O)=O)ccc1C(=O)Nc1ccccc1S(N)(=O)=O

>  <score_type>  (21) 
oracle

>  <origin>  (21) 
adgpu

>  <m_score__min__energy>  (21) 
-12.98

>  <m_primary>  (21) 
energy

$$$$
21:0
     RDKit          3D

 49 51  0  0  0  0  0  0  0  0999 V2000
   -3.0850   22.1010  -27.4950 C   0  0  0  0  0  0  0  0  0  0  0  0
   -3.7100   23.0500  -28.4660 C   0  0  0  0  0  0  0  0  0  0  0  0
   -5.0120   22.9750  -28.8140 N   0  0  0  0  0  0  0  0  0  0  0  0
   -5.2100   23.9580  -29.7160 C   0  0  0  0  0  0  0  0  0  0  0  0
   -6.5080   24.1660  -30.4340 C   0  0  0  0  0  0  0  0  0  0  0  0
   -6.9510   22.8770  -31.0660 C   0  0  0  0  0  0  0  0  0  0  0  0
   -8.2540   22.3980  -30.8660 C   0  0  0  0  0  0  0  0  0  0  0  0
   -8.6790   21.2260  -31.4990 C   0  0  0  0  0  0  0  0  0  0  0  0
   -7.8200   20.5340  -32.3620 C   0  0  0  0  0  0  0  0  0  0  0  0
   -8.2450   19.3460  -32.9590 O   0  0  0  0  0  0  0  0  0  0  0  0
   -6.5240   21.0360  -32.6040 C   0  0  0  0  0  0  0  0  0  0  0  0
   -5.6230   20.4040  -33.5200 N   0  0  0  0  0  0  0  0  0  0  0  0
   -5.4760   18.6870  -33.7340 S   0  0  0  0  0  0  0  0  0  0  0  0
   -3.7510   18.2650  -33.8360 C   0  0  0  0  0  0  0  0  0  0  0  0
   -6.1370   18.2680  -35.0140 O   0  0  0  0  0  0  0  0  0  0  0  0
   -6.1130   17.9740  -32.5740 O   0  0  0  0  0  0  0  0  0  0  0  0
   -6.0900   22.1850  -31.9310 C   0  0  0  0  0  0  0  0  0  0  0  0
   -4.0330   24.6310  -29.9600 C   0  0  0  0  0  0  0  0  0  0  0  0
   -3.8580   25.6700  -30.8670 O   0  0  0  0  0  0  0  0  0  0  0  0
   -3.0630   24.0660  -29.1590 C   0  0  0  0  0  0  0  0  0  0  0  0
   -1.6400   24.4460  -29.1000 C   0  0  0  0  0  0  0  0  0  0  0  0
   -1.3150   25.6360  -28.8420 O   0  0  0  0  0  0  0  0  0  0  0  0
   -0.6260   23.4630  -29.3440 N   0  0  0  0  0  0  0  0  0  0  0  0
   -0.8990   22.0340  -29.4440 C   0  0  0  0  0  0  0  0  0  0  0  0
   -1.1580   21.6580  -30.8790 C   0  0  0  0  0  0  0  0  0  0  0  0
   -2.4530   21.7740  -31.4140 C   0  0  0  0  0  0  0  0  0  0  0  0
   -2.7050   21.3970  -32.7380 C   0  0  0  0  0  0  0  0  0  0  0  0
   -1.6720   20.8840  -33.5310 C   0  0  0  0  0  0  0  0  0  0  0  0
   -1.9150   20.5210  -34.8120 F   0  0  0  0  0  0  0  0  0  0  0  0
   -0.3860   20.7490  -32.9980 C   0  0  0  0  0  0  0  0  0  0  0  0
   -0.1260   21.1350  -31.6790 C   0  0  0  0  0  0  0  0  0  0  0  0
   -3.3022   22.4309  -26.4684 H   0  0  0  0  0  0  0  0  0  0  0  0
   -3.4965   21.0929  -27.6510 H   0  0  0  0  0  0  0  0  0  0  0  0
   -1.9963   22.0809  -27.6510 H   0  0  0  0  0  0  0  0  0  0  0  0
   -7.2718   24.5032  -29.7178 H   0  0  0  0  0  0  0  0  0  0  0  0
   -6.3728   24.9271  -31.2166 H   0  0  0  0  0  0  0  0  0  0  0  0
   -8.9444   22.9466  -30.2084 H   0  0  0  0  0  0  0  0  0  0  0  0
   -9.6949   20.8449  -31.3180 H   0  0  0  0  0  0  0  0  0  0  0  0
   -7.7190   18.9040  -33.7040 H   0  0  0  0  0  0  0  0  0  0  0  0
   -3.3377   18.1639  -32.8216 H   0  0  0  0  0  0  0  0  0  0  0  0
   -3.6377   17.3127  -34.3747 H   0  0  0  0  0  0  0  0  0  0  0  0
   -3.2109   19.0575  -34.3747 H   0  0  0  0  0  0  0  0  0  0  0  0
   -5.0630   22.5488  -32.0822 H   0  0  0  0  0  0  0  0  0  0  0  0
   -0.0312   21.4704  -29.0707 H   0  0  0  0  0  0  0  0  0  0  0  0
   -1.7875   21.7933  -28.8418 H   0  0  0  0  0  0  0  0  0  0  0  0
   -3.2711   22.1625  -30.7897 H   0  0  0  0  0  0  0  0  0  0  0  0
   -3.7168   21.5040  -33.1562 H   0  0  0  0  0  0  0  0  0  0  0  0
    0.4239   20.3377  -33.6184 H   0  0  0  0  0  0  0  0  0  0  0  0
    0.8881   21.0293  -31.2662 H   0  0  0  0  0  0  0  0  0  0  0  0
  1  2  1  0
  2  3  1  0
  3  4  1  0
  4  5  1  0
  5  6  1  0
  6  7  2  0
  7  8  1  0
  8  9  2  0
  9 10  1  0
  9 11  1  0
 11 12  1  0
 12 13  1  0
 13 14  1  0
 13 15  2  0
 13 16  2  0
 11 17  2  0
  4 18  2  0
 18 19  1  0
 18 20  1  0
 20 21  1  0
 21 22  2  0
 21 23  1  0
 23 24  1  0
 24 25  1  0
 25 26  2  0
 26 27  1  0
 27 28  2  0
 28 29  1  0
 28 30  1  0
 30 31  2  0
 20  2  2  0
 31 25  1  0
 17  6  1  0
  1 32  1  0
  1 33  1  0
  1 34  1  0
  5 35  1  0
  5 36  1  0
  7 37  1  0
  8 38  1  0
 10 39  1  0
 14 40  1  0
 14 41  1  0
 14 42  1  0
 17 43  1  0
 24 44  1  0
 24 45  1  0
 26 46  1  0
 27 47  1  0
 30 48  1  0
 31 49  1  0
M  CHG  4   3  -1  12  -1  19  -1  23  -1
M  END
>  <UniqueID>  (22) 
22

>  <SMILES>  (22) 
Cc1[n-]c(Cc2ccc(O)c([N-]S(C)(=O)=O)c2)c([O-])c1C(=O)[N-]Cc1ccc(F)cc1

>  <Energy>  (22) 
76.05309903826316

>  <Genealogy>  (22) 
Cc1[n-]c(Cc2ccc(O)c([N-]S(C)(=O)=O)c2)c([O-])c1C(=O)[N-]Cc1ccc(F)cc1 (protonated)
Cc1[n-]c(Cc2ccc(O)c([N-]S(C)(=O)=O)c2)c([O-])c1C(=O)[N-]Cc1ccc(F)cc1 (3D coordinates assigned)
Cc1[n-]c(Cc2ccc(O)c([N-]S(C)(=O)=O)c2)c([O-])c1C(=O)[N-]Cc1ccc(F)cc1 (optimized conformer: 76.05309903826316 kcal/mol)

>  <smiles>  (22) 
Cc1[nH]c(Cc2ccc(O)c(NS(C)(=O)=O)c2)c(O)c1C(=O)NCc1ccc(F)cc1

>  <score_type>  (22) 
oracle

>  <origin>  (22) 
adgpu

>  <m_score__min__energy>  (22) 
-13.34

>  <m_primary>  (22) 
energy

$$$$
22:0
     RDKit          3D

 49 51  0  0  0  0  0  0  0  0999 V2000
   -0.8970   22.9810  -30.0750 C   0  0  0  0  0  0  0  0  0  0  0  0
   -1.8040   23.5450  -29.0590 N   0  0  0  0  0  0  0  0  0  0  0  0
   -3.0790   23.0560  -28.9310 C   0  0  0  0  0  0  0  0  0  0  0  0
   -3.5480   22.0280  -29.8220 N   0  0  0  0  0  0  0  0  0  0  0  0
   -4.1370   22.2160  -31.1160 C   0  0  0  0  0  0  0  0  0  0  0  0
   -3.3990   22.4580  -32.1090 O   0  0  0  0  0  0  0  0  0  0  0  0
   -5.6160   22.1970  -31.2620 C   0  0  0  0  0  0  0  0  0  0  0  0
   -6.2540   20.9750  -31.5530 C   0  0  0  0  0  0  0  0  0  0  0  0
   -7.6460   20.9060  -31.6980 C   0  0  0  0  0  0  0  0  0  0  0  0
   -8.4340   19.3820  -32.1020 S   0  0  0  0  0  0  0  0  0  0  0  0
   -9.5980   19.6690  -33.0090 O   0  0  0  0  0  0  0  0  0  0  0  0
   -8.9470   18.7160  -30.8550 O   0  0  0  0  0  0  0  0  0  0  0  0
   -7.2930   18.3390  -32.9120 N   0  0  0  0  0  0  0  0  0  0  0  0
   -6.4710   19.1220  -33.8500 C   0  0  0  0  0  0  0  0  0  0  0  0
   -5.6160   18.1870  -34.7260 C   0  0  0  0  0  0  0  0  0  0  0  0
   -5.3740   16.8200  -34.0660 C   0  0  0  0  0  0  0  0  0  0  0  0
   -5.2210   16.9620  -32.5500 C   0  0  0  0  0  0  0  0  0  0  0  0
   -6.4450   17.6570  -31.9110 C   0  0  0  0  0  0  0  0  0  0  0  0
   -8.4150   22.0630  -31.5590 C   0  0  0  0  0  0  0  0  0  0  0  0
   -7.8010   23.2830  -31.2770 C   0  0  0  0  0  0  0  0  0  0  0  0
   -6.4120   23.3650  -31.1300 C   0  0  0  0  0  0  0  0  0  0  0  0
   -5.7290   24.9640  -30.8460 Cl  0  0  0  0  0  0  0  0  0  0  0  0
   -3.9310   23.5980  -27.9660 C   0  0  0  0  0  0  0  0  0  0  0  0
   -3.4560   24.5900  -27.1180 C   0  0  0  0  0  0  0  0  0  0  0  0
   -4.2280   25.0610  -26.2370 O   0  0  0  0  0  0  0  0  0  0  0  0
   -2.1700   25.0410  -27.2360 N   0  0  0  0  0  0  0  0  0  0  0  0
   -1.6640   26.0580  -26.2950 C   0  0  0  0  0  0  0  0  0  0  0  0
   -1.3380   24.4960  -28.1840 C   0  0  0  0  0  0  0  0  0  0  0  0
   -0.1310   24.8690  -28.2470 O   0  0  0  0  0  0  0  0  0  0  0  0
   -0.0644   22.4633  -29.5763 H   0  0  0  0  0  0  0  0  0  0  0  0
   -1.4492   22.2667  -30.7034 H   0  0  0  0  0  0  0  0  0  0  0  0
   -0.5006   23.7922  -30.7034 H   0  0  0  0  0  0  0  0  0  0  0  0
   -5.6509   20.0623  -31.6680 H   0  0  0  0  0  0  0  0  0  0  0  0
   -7.1297   19.7213  -34.4957 H   0  0  0  0  0  0  0  0  0  0  0  0
   -5.8035   19.7805  -33.2748 H   0  0  0  0  0  0  0  0  0  0  0  0
   -6.1338   18.0296  -35.6837 H   0  0  0  0  0  0  0  0  0  0  0  0
   -4.6366   18.6667  -34.8698 H   0  0  0  0  0  0  0  0  0  0  0  0
   -6.2277   16.1606  -34.2811 H   0  0  0  0  0  0  0  0  0  0  0  0
   -4.4454   16.3938  -34.4734 H   0  0  0  0  0  0  0  0  0  0  0  0
   -5.1095   15.9608  -32.1083 H   0  0  0  0  0  0  0  0  0  0  0  0
   -4.3345   17.5827  -32.3529 H   0  0  0  0  0  0  0  0  0  0  0  0
   -7.0507   16.8991  -31.3926 H   0  0  0  0  0  0  0  0  0  0  0  0
   -6.0704   18.4204  -31.2132 H   0  0  0  0  0  0  0  0  0  0  0  0
   -9.5080   22.0121  -31.6722 H   0  0  0  0  0  0  0  0  0  0  0  0
   -8.4146   24.1895  -31.1691 H   0  0  0  0  0  0  0  0  0  0  0  0
   -4.9683   23.2425  -27.8785 H   0  0  0  0  0  0  0  0  0  0  0  0
   -1.8329   25.7185  -25.2624 H   0  0  0  0  0  0  0  0  0  0  0  0
   -0.5867   26.2069  -26.4604 H   0  0  0  0  0  0  0  0  0  0  0  0
   -2.1950   27.0071  -26.4604 H   0  0  0  0  0  0  0  0  0  0  0  0
  1  2  1  0
  2  3  1  0
  3  4  1  0
  4  5  1  0
  5  6  2  0
  5  7  1  0
  7  8  2  0
  8  9  1  0
  9 10  1  0
 10 11  2  0
 10 12  2  0
 10 13  1  0
 13 14  1  0
 14 15  1  0
 15 16  1  0
 16 17  1  0
 17 18  1  0
  9 19  2  0
 19 20  1  0
 20 21  2  0
 21 22  1  0
  3 23  2  0
 23 24  1  0
 24 25  2  0
 24 26  1  0
 26 27  1  0
 26 28  1  0
 28 29  2  0
 28  2  1  0
 21  7  1  0
 18 13  1  0
  1 30  1  0
  1 31  1  0
  1 32  1  0
  8 33  1  0
 14 34  1  0
 14 35  1  0
 15 36  1  0
 15 37  1  0
 16 38  1  0
 16 39  1  0
 17 40  1  0
 17 41  1  0
 18 42  1  0
 18 43  1  0
 19 44  1  0
 20 45  1  0
 23 46  1  0
 27 47  1  0
 27 48  1  0
 27 49  1  0
M  CHG  1   4  -1
M  END
>  <UniqueID>  (23) 
23

>  <SMILES>  (23) 
Cn1c([N-]C(=O)c2cc(S(=O)(=O)N3CCCCC3)ccc2Cl)cc(=O)n(C)c1=O

>  <Energy>  (23) 
68.14453005640837

>  <Genealogy>  (23) 
Cn1c([N-]C(=O)c2cc(S(=O)(=O)N3CCCCC3)ccc2Cl)cc(=O)n(C)c1=O (protonated)
Cn1c([N-]C(=O)c2cc(S(=O)(=O)N3CCCCC3)ccc2Cl)cc(=O)n(C)c1=O (3D coordinates assigned)
Cn1c([N-]C(=O)c2cc(S(=O)(=O)N3CCCCC3)ccc2Cl)cc(=O)n(C)c1=O (nonaromatic ring conformer: 68.14453005640837 kcal/mol)

>  <smiles>  (23) 
Cn1c(NC(=O)c2cc(S(=O)(=O)N3CCCCC3)ccc2Cl)cc(=O)n(C)c1=O

>  <score_type>  (23) 
oracle

>  <origin>  (23) 
adgpu

>  <m_score__min__energy>  (23) 
-10.720000000000001

>  <m_primary>  (23) 
energy

$$$$
23:0
     RDKit          3D

 44 47  0  0  0  0  0  0  0  0999 V2000
   -6.7520   19.2150  -33.4710 C   0  0  0  0  0  0  0  0  0  0  0  0
   -7.6030   20.1890  -32.7570 N   0  0  0  0  0  0  0  0  0  0  0  0
   -8.9530   19.9480  -32.6280 C   0  0  0  0  0  0  0  0  0  0  0  0
   -9.4760   18.9060  -33.1100 O   0  0  0  0  0  0  0  0  0  0  0  0
   -9.7800   20.8530  -31.9600 C   0  0  0  0  0  0  0  0  0  0  0  0
   -9.2430   22.0100  -31.4140 C   0  0  0  0  0  0  0  0  0  0  0  0
   -7.8770   22.2660  -31.5330 C   0  0  0  0  0  0  0  0  0  0  0  0
   -7.3310   23.4330  -30.9770 C   0  0  0  0  0  0  0  0  0  0  0  0
   -5.9640   23.6960  -31.0850 C   0  0  0  0  0  0  0  0  0  0  0  0
   -5.3040   25.1720  -30.3880 S   0  0  0  0  0  0  0  0  0  0  0  0
   -5.7520   26.3420  -31.2180 O   0  0  0  0  0  0  0  0  0  0  0  0
   -5.7880   25.3680  -28.9780 O   0  0  0  0  0  0  0  0  0  0  0  0
   -3.5710   25.0990  -30.3940 N   0  0  0  0  0  0  0  0  0  0  0  0
   -2.7710   24.3130  -29.5000 C   0  0  0  0  0  0  0  0  0  0  0  0
   -3.1310   23.0040  -29.1330 C   0  0  0  0  0  0  0  0  0  0  0  0
   -2.3300   22.2630  -28.2500 C   0  0  0  0  0  0  0  0  0  0  0  0
   -1.1380   22.8240  -27.7510 C   0  0  0  0  0  0  0  0  0  0  0  0
   -0.7880   24.1350  -28.1090 C   0  0  0  0  0  0  0  0  0  0  0  0
   -1.5940   24.8700  -28.9810 C   0  0  0  0  0  0  0  0  0  0  0  0
   -1.2170   26.1610  -29.3360 O   0  0  0  0  0  0  0  0  0  0  0  0
   -0.2900   22.0740  -26.7510 C   0  0  0  0  0  0  0  0  0  0  0  0
   -0.5160   20.6220  -26.8030 N   0  0  0  0  0  0  0  0  0  0  0  0
   -1.9480   20.3150  -26.7030 C   0  0  0  0  0  0  0  0  0  0  0  0
   -2.7070   20.8400  -27.9280 C   0  0  0  0  0  0  0  0  0  0  0  0
   -5.1350   22.7890  -31.7540 C   0  0  0  0  0  0  0  0  0  0  0  0
   -5.6670   21.6260  -32.3150 C   0  0  0  0  0  0  0  0  0  0  0  0
   -7.0500   21.3360  -32.2160 C   0  0  0  0  0  0  0  0  0  0  0  0
   -6.2110   18.5958  -32.7403 H   0  0  0  0  0  0  0  0  0  0  0  0
   -7.3820   18.5710  -34.1022 H   0  0  0  0  0  0  0  0  0  0  0  0
   -6.0293   19.7529  -34.1022 H   0  0  0  0  0  0  0  0  0  0  0  0
  -10.8568   20.6489  -31.8666 H   0  0  0  0  0  0  0  0  0  0  0  0
   -9.8935   22.7243  -30.8881 H   0  0  0  0  0  0  0  0  0  0  0  0
   -7.9845   24.1456  -30.4524 H   0  0  0  0  0  0  0  0  0  0  0  0
   -4.0490   22.5566  -29.5418 H   0  0  0  0  0  0  0  0  0  0  0  0
    0.1277   24.5869  -27.6999 H   0  0  0  0  0  0  0  0  0  0  0  0
    0.7700   22.2746  -26.9656 H   0  0  0  0  0  0  0  0  0  0  0  0
   -0.5700   22.4216  -25.7456 H   0  0  0  0  0  0  0  0  0  0  0  0
   -0.1490   20.2540  -27.7140 H   0  0  0  0  0  0  0  0  0  0  0  0
   -2.0789   19.2247  -26.6382 H   0  0  0  0  0  0  0  0  0  0  0  0
   -2.3505   20.8044  -25.8038 H   0  0  0  0  0  0  0  0  0  0  0  0
   -2.4701   20.2039  -28.7936 H   0  0  0  0  0  0  0  0  0  0  0  0
   -3.7832   20.8134  -27.7018 H   0  0  0  0  0  0  0  0  0  0  0  0
   -4.0574   22.9932  -31.8386 H   0  0  0  0  0  0  0  0  0  0  0  0
   -5.0025   20.9250  -32.8414 H   0  0  0  0  0  0  0  0  0  0  0  0
  1  2  1  0
  2  3  1  0
  3  4  2  0
  3  5  1  0
  5  6  2  0
  6  7  1  0
  7  8  2  0
  8  9  1  0
  9 10  1  0
 10 11  2  0
 10 12  2  0
 10 13  1  0
 13 14  1  0
 14 15  2  0
 15 16  1  0
 16 17  2  0
 17 18  1  0
 18 19  2  0
 19 20  1  0
 17 21  1  0
 21 22  1  0
 22 23  1  0
 23 24  1  0
  9 25  2  0
 25 26  1  0
 26 27  2  0
 27  2  1  0
 27  7  1  0
 19 14  1  0
 24 16  1  0
  1 28  1  0
  1 29  1  0
  1 30  1  0
  5 31  1  0
  6 32  1  0
  8 33  1  0
 15 34  1  0
 18 35  1  0
 21 36  1  0
 21 37  1  0
 22 38  1  0
 23 39  1  0
 23 40  1  0
 24 41  1  0
 24 42  1  0
 25 43  1  0
 26 44  1  0
M  CHG  2  13  -1  20  -1
M  END
>  <UniqueID>  (24) 
24

>  <SMILES>  (24) 
Cn1c(=O)ccc2cc(S(=O)(=O)[N-]c3cc4c(cc3[O-])CNCC4)ccc21

>  <Energy>  (24) 
62.43240889137468

>  <Genealogy>  (24) 
Cn1c(=O)ccc2cc(S(=O)(=O)[N-]c3cc4c(cc3[O-])CNCC4)ccc21 (protonated)
Cn1c(=O)ccc2cc(S(=O)(=O)[N-]c3cc4c(cc3[O-])CNCC4)ccc21 (3D coordinates assigned)
Cn1c(=O)ccc2cc(S(=O)(=O)[N-]c3cc4c(cc3[O-])CNCC4)ccc21 (nonaromatic ring conformer: 62.43240889137468 kcal/mol)

>  <smiles>  (24) 
Cn1c(=O)ccc2cc(S(=O)(=O)Nc3cc4c(cc3O)CNCC4)ccc21

>  <score_type>  (24) 
oracle

>  <origin>  (24) 
adgpu

>  <m_score__min__energy>  (24) 
-14.9

>  <m_primary>  (24) 
energy

$$$$
24:0
     RDKit          3D

 57 60  0  0  0  0  0  0  0  0999 V2000
   -8.7560   21.3840  -30.3790 O   0  0  0  0  0  0  0  0  0  0  0  0
   -7.7360   21.3950  -31.1220 C   0  0  0  0  0  0  0  0  0  0  0  0
   -6.7620   22.5040  -31.0020 C   0  0  0  0  0  0  0  0  0  0  0  0
   -7.2080   23.8130  -30.7550 C   0  0  0  0  0  0  0  0  0  0  0  0
   -6.2920   24.8570  -30.6060 C   0  0  0  0  0  0  0  0  0  0  0  0
   -4.9180   24.6120  -30.6920 C   0  0  0  0  0  0  0  0  0  0  0  0
   -4.0340   25.6720  -30.4920 O   0  0  0  0  0  0  0  0  0  0  0  0
   -4.4600   23.3100  -30.9570 C   0  0  0  0  0  0  0  0  0  0  0  0
   -3.0660   23.0300  -31.0860 N   0  0  0  0  0  0  0  0  0  0  0  0
   -1.9770   23.2910  -29.7660 S   0  0  0  0  0  0  0  0  0  0  0  0
   -2.3030   24.6090  -29.1210 O   0  0  0  0  0  0  0  0  0  0  0  0
   -0.5610   23.3410  -30.2650 O   0  0  0  0  0  0  0  0  0  0  0  0
   -2.1430   21.9970  -28.5820 C   0  0  0  0  0  0  0  0  0  0  0  0
   -1.4300   22.0610  -27.3760 C   0  0  0  0  0  0  0  0  0  0  0  0
   -1.5630   21.0450  -26.4250 C   0  0  0  0  0  0  0  0  0  0  0  0
   -2.4060   19.9580  -26.6760 C   0  0  0  0  0  0  0  0  0  0  0  0
   -3.1160   19.8880  -27.8780 C   0  0  0  0  0  0  0  0  0  0  0  0
   -2.9830   20.9020  -28.8310 C   0  0  0  0  0  0  0  0  0  0  0  0
   -5.3800   22.2620  -31.0920 C   0  0  0  0  0  0  0  0  0  0  0  0
   -7.5340   20.3170  -32.0540 N   0  0  0  0  0  0  0  0  0  0  0  0
   -7.8940   18.9520  -31.6500 C   0  0  0  0  0  0  0  0  0  0  0  0
   -7.4880   17.9220  -32.7150 C   0  0  0  0  0  0  0  0  0  0  0  0
   -6.1190   18.2620  -33.3470 C   0  0  0  0  0  0  0  0  0  0  0  0
   -4.9480   18.1300  -32.3400 C   0  0  0  0  0  0  0  0  0  0  0  0
   -3.6960   18.8240  -32.8200 C   0  0  0  0  0  0  0  0  0  0  0  0
   -3.3280   20.0750  -32.2950 C   0  0  0  0  0  0  0  0  0  0  0  0
   -2.1570   20.7040  -32.7310 C   0  0  0  0  0  0  0  0  0  0  0  0
   -1.3470   20.0900  -33.6900 C   0  0  0  0  0  0  0  0  0  0  0  0
   -1.7070   18.8460  -34.2170 C   0  0  0  0  0  0  0  0  0  0  0  0
   -2.8770   18.2150  -33.7840 C   0  0  0  0  0  0  0  0  0  0  0  0
   -6.1360   19.6730  -33.9980 C   0  0  0  0  0  0  0  0  0  0  0  0
   -7.2420   20.5990  -33.4640 C   0  0  0  0  0  0  0  0  0  0  0  0
   -8.2861   24.0173  -30.6784 H   0  0  0  0  0  0  0  0  0  0  0  0
   -6.6540   25.8789  -30.4197 H   0  0  0  0  0  0  0  0  0  0  0  0
   -3.0810   25.6550  -30.8360 H   0  0  0  0  0  0  0  0  0  0  0  0
   -0.7638   22.9136  -27.1777 H   0  0  0  0  0  0  0  0  0  0  0  0
   -1.0044   21.1007  -25.4790 H   0  0  0  0  0  0  0  0  0  0  0  0
   -2.5104   19.1584  -25.9279 H   0  0  0  0  0  0  0  0  0  0  0  0
   -3.7805   19.0336  -28.0743 H   0  0  0  0  0  0  0  0  0  0  0  0
   -3.5385   20.8409  -29.7784 H   0  0  0  0  0  0  0  0  0  0  0  0
   -5.0172   21.2390  -31.2703 H   0  0  0  0  0  0  0  0  0  0  0  0
   -7.3811   18.7117  -30.7070 H   0  0  0  0  0  0  0  0  0  0  0  0
   -8.9860   18.9065  -31.5256 H   0  0  0  0  0  0  0  0  0  0  0  0
   -7.4271   16.9290  -32.2456 H   0  0  0  0  0  0  0  0  0  0  0  0
   -8.2463   17.9357  -33.5118 H   0  0  0  0  0  0  0  0  0  0  0  0
   -5.9446   17.5171  -34.1374 H   0  0  0  0  0  0  0  0  0  0  0  0
   -5.2539   18.5756  -31.3819 H   0  0  0  0  0  0  0  0  0  0  0  0
   -4.7179   17.0599  -32.2312 H   0  0  0  0  0  0  0  0  0  0  0  0
   -3.9626   20.5607  -31.5392 H   0  0  0  0  0  0  0  0  0  0  0  0
   -1.8734   21.6834  -32.3183 H   0  0  0  0  0  0  0  0  0  0  0  0
   -0.4258   20.5856  -34.0304 H   0  0  0  0  0  0  0  0  0  0  0  0
   -1.0695   18.3636  -34.9725 H   0  0  0  0  0  0  0  0  0  0  0  0
   -3.1573   17.2364  -34.2008 H   0  0  0  0  0  0  0  0  0  0  0  0
   -5.1639   20.1519  -33.8094 H   0  0  0  0  0  0  0  0  0  0  0  0
   -6.3367   19.5251  -35.0694 H   0  0  0  0  0  0  0  0  0  0  0  0
   -6.9127   21.6441  -33.5603 H   0  0  0  0  0  0  0  0  0  0  0  0
   -8.1559   20.4251  -34.0509 H   0  0  0  0  0  0  0  0  0  0  0  0
  1  2  2  0
  2  3  1  0
  3  4  2  0
  4  5  1  0
  5  6  2  0
  6  7  1  0
  6  8  1  0
  8  9  1  0
  9 10  1  0
 10 11  2  0
 10 12  2  0
 10 13  1  0
 13 14  2  0
 14 15  1  0
 15 16  2  0
 16 17  1  0
 17 18  2  0
  8 19  2  0
  2 20  1  0
 20 21  1  0
 21 22  1  0
 22 23  1  0
 23 24  1  0
 24 25  1  0
 25 26  2  0
 26 27  1  0
 27 28  2  0
 28 29  1  0
 29 30  2  0
 23 31  1  0
 31 32  1  0
 19  3  1  0
 32 20  1  0
 18 13  1  0
 30 25  1  0
  4 33  1  0
  5 34  1  0
  7 35  1  0
 14 36  1  0
 15 37  1  0
 16 38  1  0
 17 39  1  0
 18 40  1  0
 19 41  1  0
 21 42  1  0
 21 43  1  0
 22 44  1  0
 22 45  1  0
 23 46  1  0
 24 47  1  0
 24 48  1  0
 26 49  1  0
 27 50  1  0
 28 51  1  0
 29 52  1  0
 30 53  1  0
 31 54  1  0
 31 55  1  0
 32 56  1  0
 32 57  1  0
M  CHG  1   9  -1
M  END
>  <UniqueID>  (25) 
25

>  <SMILES>  (25) 
O=C(c1ccc(O)c([N-]S(=O)(=O)c2ccccc2)c1)N1CCC(Cc2ccccc2)CC1

>  <Energy>  (25) 
72.24631115410507

>  <Genealogy>  (25) 
O=C(c1ccc(O)c([N-]S(=O)(=O)c2ccccc2)c1)N1CCC(Cc2ccccc2)CC1 (protonated)
O=C(c1ccc(O)c([N-]S(=O)(=O)c2ccccc2)c1)N1CCC(Cc2ccccc2)CC1 (3D coordinates assigned)
O=C(c1ccc(O)c([N-]S(=O)(=O)c2ccccc2)c1)N1CCC(Cc2ccccc2)CC1 (nonaromatic ring conformer: 72.24631115410507 kcal/mol)

>  <smiles>  (25) 
O=C(c1ccc(O)c(NS(=O)(=O)c2ccccc2)c1)N1CCC(Cc2ccccc2)CC1

>  <score_type>  (25) 
oracle

>  <origin>  (25) 
adgpu

>  <m_score__min__energy>  (25) 
-11.890000000000001

>  <m_primary>  (25) 
energy

$$$$
25:0
     RDKit          3D

 49 52  0  0  0  0  0  0  0  0999 V2000
   -1.3030   21.9330  -31.9160 N   0  0  0  0  0  0  0  0  0  0  0  0
   -2.7200   21.7690  -32.0680 C   0  0  0  0  0  0  0  0  0  0  0  0
   -3.6560   22.6310  -31.4820 C   0  0  0  0  0  0  0  0  0  0  0  0
   -3.3980   23.7040  -30.4980 C   0  0  0  0  0  0  0  0  0  0  0  0
   -3.8260   24.8660  -30.7270 O   0  0  0  0  0  0  0  0  0  0  0  0
   -2.6130   23.4480  -29.2650 C   0  0  0  0  0  0  0  0  0  0  0  0
   -2.7250   22.2110  -28.6010 C   0  0  0  0  0  0  0  0  0  0  0  0
   -2.0010   21.9650  -27.4320 C   0  0  0  0  0  0  0  0  0  0  0  0
   -1.1640   22.9500  -26.9050 C   0  0  0  0  0  0  0  0  0  0  0  0
   -1.0500   24.1840  -27.5480 C   0  0  0  0  0  0  0  0  0  0  0  0
   -1.7680   24.4390  -28.7210 C   0  0  0  0  0  0  0  0  0  0  0  0
   -1.6220   25.6740  -29.3470 O   0  0  0  0  0  0  0  0  0  0  0  0
   -5.1910   22.1900  -32.0120 S   0  0  0  0  0  0  0  0  0  0  0  0
   -4.6920   20.9300  -33.0070 C   0  0  0  0  0  0  0  0  0  0  0  0
   -5.5750   20.0150  -33.6770 N   0  0  0  0  0  0  0  0  0  0  0  0
   -6.7920   19.5170  -33.1000 C   0  0  0  0  0  0  0  0  0  0  0  0
   -6.8760   18.2120  -32.5810 C   0  0  0  0  0  0  0  0  0  0  0  0
   -8.0640   17.7580  -32.0020 C   0  0  0  0  0  0  0  0  0  0  0  0
   -9.1730   18.6050  -31.9230 C   0  0  0  0  0  0  0  0  0  0  0  0
   -9.0920   19.9100  -32.4150 C   0  0  0  0  0  0  0  0  0  0  0  0
   -7.9040   20.3680  -32.9940 C   0  0  0  0  0  0  0  0  0  0  0  0
   -3.3050   20.7950  -32.9160 C   0  0  0  0  0  0  0  0  0  0  0  0
   -2.5540   19.7520  -33.6400 C   0  0  0  0  0  0  0  0  0  0  0  0
   -3.1680   18.8930  -34.3300 O   0  0  0  0  0  0  0  0  0  0  0  0
   -1.1260   19.7050  -33.5370 N   0  0  0  0  0  0  0  0  0  0  0  0
   -0.2110   19.7510  -34.6400 C   0  0  0  0  0  0  0  0  0  0  0  0
    0.3410   18.5510  -35.1030 C   0  0  0  0  0  0  0  0  0  0  0  0
    1.2450   18.5520  -36.1690 C   0  0  0  0  0  0  0  0  0  0  0  0
    1.6170   19.7560  -36.7690 C   0  0  0  0  0  0  0  0  0  0  0  0
    1.0990   20.9630  -36.2940 C   0  0  0  0  0  0  0  0  0  0  0  0
    0.1980   20.9720  -35.2190 C   0  0  0  0  0  0  0  0  0  0  0  0
   -0.2620   22.1870  -34.7110 O   0  0  0  0  0  0  0  0  0  0  0  0
   -0.8840   22.2540  -31.0170 H   0  0  0  0  0  0  0  0  0  0  0  0
   -0.6370   21.6210  -32.6540 H   0  0  0  0  0  0  0  0  0  0  0  0
   -3.3879   21.4323  -29.0062 H   0  0  0  0  0  0  0  0  0  0  0  0
   -2.0907   20.9927  -26.9255 H   0  0  0  0  0  0  0  0  0  0  0  0
   -0.5949   22.7542  -25.9842 H   0  0  0  0  0  0  0  0  0  0  0  0
   -0.3919   24.9600  -27.1299 H   0  0  0  0  0  0  0  0  0  0  0  0
   -5.2710   19.6250  -34.5970 H   0  0  0  0  0  0  0  0  0  0  0  0
   -6.0022   17.5458  -32.6313 H   0  0  0  0  0  0  0  0  0  0  0  0
   -8.1264   16.7329  -31.6080 H   0  0  0  0  0  0  0  0  0  0  0  0
  -10.1097   18.2440  -31.4734 H   0  0  0  0  0  0  0  0  0  0  0  0
   -9.9633   20.5780  -32.3470 H   0  0  0  0  0  0  0  0  0  0  0  0
   -7.8404   21.4004  -33.3683 H   0  0  0  0  0  0  0  0  0  0  0  0
    0.0615   17.6007  -34.6247 H   0  0  0  0  0  0  0  0  0  0  0  0
    1.6636   17.6031  -36.5354 H   0  0  0  0  0  0  0  0  0  0  0  0
    2.3184   19.7543  -37.6163 H   0  0  0  0  0  0  0  0  0  0  0  0
    1.3989   21.9107  -36.7650 H   0  0  0  0  0  0  0  0  0  0  0  0
   -1.2520   22.3890  -34.6290 H   0  0  0  0  0  0  0  0  0  0  0  0
  1  2  1  0
  2  3  2  0
  3  4  1  0
  4  5  2  0
  4  6  1  0
  6  7  2  0
  7  8  1  0
  8  9  2  0
  9 10  1  0
 10 11  2  0
 11 12  1  0
  3 13  1  0
 13 14  1  0
 14 15  1  0
 15 16  1  0
 16 17  2  0
 17 18  1  0
 18 19  2  0
 19 20  1  0
 20 21  2  0
 14 22  2  0
 22 23  1  0
 23 24  2  0
 23 25  1  0
 25 26  1  0
 26 27  2  0
 27 28  1  0
 28 29  2  0
 29 30  1  0
 30 31  2  0
 31 32  1  0
 22  2  1  0
 31 26  1  0
 11  6  1  0
 21 16  1  0
  1 33  1  0
  1 34  1  0
  7 35  1  0
  8 36  1  0
  9 37  1  0
 10 38  1  0
 15 39  1  0
 17 40  1  0
 18 41  1  0
 19 42  1  0
 20 43  1  0
 21 44  1  0
 27 45  1  0
 28 46  1  0
 29 47  1  0
 30 48  1  0
 32 49  1  0
M  CHG  2  12  -1  25  -1
M  END
>  <UniqueID>  (26) 
26

>  <SMILES>  (26) 
Nc1c(C(=O)c2ccccc2[O-])sc(Nc2ccccc2)c1C(=O)[N-]c1ccccc1O

>  <Energy>  (26) 
101.23515717375255

>  <Genealogy>  (26) 
Nc1c(C(=O)c2ccccc2[O-])sc(Nc2ccccc2)c1C(=O)[N-]c1ccccc1O (protonated)
Nc1c(C(=O)c2ccccc2[O-])sc(Nc2ccccc2)c1C(=O)[N-]c1ccccc1O (3D coordinates assigned)
Nc1c(C(=O)c2ccccc2[O-])sc(Nc2ccccc2)c1C(=O)[N-]c1ccccc1O (optimized conformer: 101.23515717375255 kcal/mol)

>  <smiles>  (26) 
Nc1c(C(=O)c2ccccc2O)sc(Nc2ccccc2)c1C(=O)Nc1ccccc1O

>  <score_type>  (26) 
oracle

>  <origin>  (26) 
adgpu

>  <m_score__min__energy>  (26) 
-12.69

>  <m_primary>  (26) 
energy

$$$$
26:0
     RDKit          3D

 34 37  0  0  0  0  0  0  0  0999 V2000
    0.3410   25.9350  -27.4380 O   0  0  0  0  0  0  0  0  0  0  0  0
   -0.4990   25.2820  -28.1090 C   0  0  0  0  0  0  0  0  0  0  0  0
   -1.5620   25.8540  -28.7120 N   0  0  0  0  0  0  0  0  0  0  0  0
   -2.3100   24.9290  -29.3700 C   0  0  0  0  0  0  0  0  0  0  0  0
   -3.4400   25.2930  -30.0920 O   0  0  0  0  0  0  0  0  0  0  0  0
   -1.8380   23.6180  -29.2820 C   0  0  0  0  0  0  0  0  0  0  0  0
   -2.4350   22.4480  -29.8700 N   0  0  0  0  0  0  0  0  0  0  0  0
   -3.8370   22.1260  -29.5890 C   0  0  0  0  0  0  0  0  0  0  0  0
   -4.5230   21.6000  -30.8500 C   0  0  0  0  0  0  0  0  0  0  0  0
   -3.7020   20.5560  -31.4770 N   0  0  0  0  0  0  0  0  0  0  0  0
   -4.3310   19.4210  -32.1100 C   0  0  0  0  0  0  0  0  0  0  0  0
   -3.6260   18.4560  -32.7620 N   0  0  0  0  0  0  0  0  0  0  0  0
   -4.5900   17.6250  -33.1820 C   0  0  0  0  0  0  0  0  0  0  0  0
   -4.4430   16.4490  -33.9140 C   0  0  0  0  0  0  0  0  0  0  0  0
   -5.6100   15.7350  -34.2440 C   0  0  0  0  0  0  0  0  0  0  0  0
   -6.8780   16.2120  -33.8390 C   0  0  0  0  0  0  0  0  0  0  0  0
   -6.9870   17.4060  -33.1010 C   0  0  0  0  0  0  0  0  0  0  0  0
   -5.8100   18.0840  -32.7920 C   0  0  0  0  0  0  0  0  0  0  0  0
   -5.6780   19.2280  -32.1060 N   0  0  0  0  0  0  0  0  0  0  0  0
   -2.2940   20.8690  -31.7520 C   0  0  0  0  0  0  0  0  0  0  0  0
   -1.6070   21.4120  -30.4970 C   0  0  0  0  0  0  0  0  0  0  0  0
   -0.4280   23.6190  -28.3550 S   0  0  0  0  0  0  0  0  0  0  0  0
   -3.8825   21.3573  -28.8035 H   0  0  0  0  0  0  0  0  0  0  0  0
   -4.3536   23.0376  -29.2541 H   0  0  0  0  0  0  0  0  0  0  0  0
   -5.5031   21.1790  -30.5815 H   0  0  0  0  0  0  0  0  0  0  0  0
   -4.6521   22.4297  -31.5606 H   0  0  0  0  0  0  0  0  0  0  0  0
   -3.4499   16.0911  -34.2232 H   0  0  0  0  0  0  0  0  0  0  0  0
   -5.5353   14.8009  -34.8201 H   0  0  0  0  0  0  0  0  0  0  0  0
   -7.7844   15.6470  -34.1020 H   0  0  0  0  0  0  0  0  0  0  0  0
   -7.9666   17.7898  -32.7799 H   0  0  0  0  0  0  0  0  0  0  0  0
   -1.7778   19.9545  -32.0795 H   0  0  0  0  0  0  0  0  0  0  0  0
   -2.2488   21.6350  -32.5402 H   0  0  0  0  0  0  0  0  0  0  0  0
   -1.4531   20.5894  -29.7831 H   0  0  0  0  0  0  0  0  0  0  0  0
   -0.6393   21.8512  -30.7810 H   0  0  0  0  0  0  0  0  0  0  0  0
  1  2  2  0
  2  3  1  0
  3  4  1  0
  4  5  1  0
  4  6  2  0
  6  7  1  0
  7  8  1  0
  8  9  1  0
  9 10  1  0
 10 11  1  0
 11 12  2  0
 12 13  1  0
 13 14  2  0
 14 15  1  0
 15 16  2  0
 16 17  1  0
 17 18  2  0
 18 19  1  0
 10 20  1  0
 20 21  1  0
  6 22  1  0
 22  2  1  0
 21  7  1  0
 19 11  1  0
 18 13  1  0
  8 23  1  0
  8 24  1  0
  9 25  1  0
  9 26  1  0
 14 27  1  0
 15 28  1  0
 16 29  1  0
 17 30  1  0
 20 31  1  0
 20 32  1  0
 21 33  1  0
 21 34  1  0
M  CHG  3   3  -1   5  -1  19  -1
M  END
>  <UniqueID>  (27) 
27

>  <SMILES>  (27) 
O=c1[n-]c([O-])c(N2CCN(c3nc4ccccc4[n-]3)CC2)s1

>  <Energy>  (27) 
107.02306260768684

>  <Genealogy>  (27) 
O=c1[n-]c([O-])c(N2CCN(c3nc4ccccc4[n-]3)CC2)s1 (protonated)
O=c1[n-]c([O-])c(N2CCN(c3nc4ccccc4[n-]3)CC2)s1 (3D coordinates assigned)
O=c1[n-]c([O-])c(N2CCN(c3nc4ccccc4[n-]3)CC2)s1 (nonaromatic ring conformer: 107.02306260768684 kcal/mol)

>  <smiles>  (27) 
O=c1[nH]c(O)c(N2CCN(c3nc4ccccc4[nH]3)CC2)s1

>  <score_type>  (27) 
oracle

>  <origin>  (27) 
adgpu

>  <m_score__min__energy>  (27) 
-11.01

>  <m_primary>  (27) 
energy

$$$$
27:0
     RDKit          3D

 42 44  0  0  0  0  0  0  0  0999 V2000
   -1.3790   22.6700  -28.4060 C   0  0  0  0  0  0  0  0  0  0  0  0
   -2.5210   23.1950  -29.1440 N   0  0  0  0  0  0  0  0  0  0  0  0
   -3.5440   22.4730  -29.6460 C   0  0  0  0  0  0  0  0  0  0  0  0
   -4.4030   23.2990  -30.3610 C   0  0  0  0  0  0  0  0  0  0  0  0
   -5.6150   22.8730  -31.0930 C   0  0  0  0  0  0  0  0  0  0  0  0
   -6.7050   23.4680  -30.8890 O   0  0  0  0  0  0  0  0  0  0  0  0
   -5.5670   21.8510  -32.0960 N   0  0  0  0  0  0  0  0  0  0  0  0
   -6.4020   20.6870  -32.1580 C   0  0  0  0  0  0  0  0  0  0  0  0
   -7.6870   20.6700  -31.5860 C   0  0  0  0  0  0  0  0  0  0  0  0
   -8.4810   19.5240  -31.6790 C   0  0  0  0  0  0  0  0  0  0  0  0
   -8.0120   18.3970  -32.3560 C   0  0  0  0  0  0  0  0  0  0  0  0
   -6.7460   18.4140  -32.9590 C   0  0  0  0  0  0  0  0  0  0  0  0
   -6.1660   17.0040  -33.8470 S   0  0  0  0  0  0  0  0  0  0  0  0
   -7.2320   15.9440  -33.8410 O   0  0  0  0  0  0  0  0  0  0  0  0
   -5.9090   17.3910  -35.2770 O   0  0  0  0  0  0  0  0  0  0  0  0
   -4.6970   16.3490  -33.1540 N   0  0  0  0  0  0  0  0  0  0  0  0
   -4.1970   15.2170  -33.9420 C   0  0  0  0  0  0  0  0  0  0  0  0
   -3.1000   15.7240  -34.8670 C   0  0  0  0  0  0  0  0  0  0  0  0
   -2.7260   17.0980  -34.3500 C   0  0  0  0  0  0  0  0  0  0  0  0
   -3.6230   17.3480  -33.1460 C   0  0  0  0  0  0  0  0  0  0  0  0
   -5.9470   19.5620  -32.8580 C   0  0  0  0  0  0  0  0  0  0  0  0
   -3.8470   24.5700  -30.3010 C   0  0  0  0  0  0  0  0  0  0  0  0
   -4.3390   25.7460  -30.8620 O   0  0  0  0  0  0  0  0  0  0  0  0
   -2.6960   24.4650  -29.5560 C   0  0  0  0  0  0  0  0  0  0  0  0
   -1.8260   25.5090  -29.2660 O   0  0  0  0  0  0  0  0  0  0  0  0
   -1.5688   22.7573  -27.3260 H   0  0  0  0  0  0  0  0  0  0  0  0
   -1.2283   21.6122  -28.6675 H   0  0  0  0  0  0  0  0  0  0  0  0
   -0.4780   23.2443  -28.6675 H   0  0  0  0  0  0  0  0  0  0  0  0
   -3.6785   21.3898  -29.5095 H   0  0  0  0  0  0  0  0  0  0  0  0
   -8.0675   21.5606  -31.0645 H   0  0  0  0  0  0  0  0  0  0  0  0
   -9.4792   19.5099  -31.2171 H   0  0  0  0  0  0  0  0  0  0  0  0
   -8.6367   17.4937  -32.4166 H   0  0  0  0  0  0  0  0  0  0  0  0
   -3.7901   14.4472  -33.2699 H   0  0  0  0  0  0  0  0  0  0  0  0
   -5.0145   14.7756  -34.5310 H   0  0  0  0  0  0  0  0  0  0  0  0
   -2.2297   15.0521  -34.8332 H   0  0  0  0  0  0  0  0  0  0  0  0
   -3.4386   15.7635  -35.9128 H   0  0  0  0  0  0  0  0  0  0  0  0
   -1.6679   17.1192  -34.0500 H   0  0  0  0  0  0  0  0  0  0  0  0
   -2.8602   17.8705  -35.1215 H   0  0  0  0  0  0  0  0  0  0  0  0
   -3.0364   17.2556  -32.2200 H   0  0  0  0  0  0  0  0  0  0  0  0
   -4.0486   18.3611  -33.1954 H   0  0  0  0  0  0  0  0  0  0  0  0
   -4.9547   19.5793  -33.3324 H   0  0  0  0  0  0  0  0  0  0  0  0
   -3.8620   26.6310  -30.7550 H   0  0  0  0  0  0  0  0  0  0  0  0
  1  2  1  0
  2  3  1  0
  3  4  2  0
  4  5  1  0
  5  6  2  0
  5  7  1  0
  7  8  1  0
  8  9  2  0
  9 10  1  0
 10 11  2  0
 11 12  1  0
 12 13  1  0
 13 14  2  0
 13 15  2  0
 13 16  1  0
 16 17  1  0
 17 18  1  0
 18 19  1  0
 19 20  1  0
 12 21  2  0
  4 22  1  0
 22 23  1  0
 22 24  2  0
 24 25  1  0
 24  2  1  0
 21  8  1  0
 20 16  1  0
  1 26  1  0
  1 27  1  0
  1 28  1  0
  3 29  1  0
  9 30  1  0
 10 31  1  0
 11 32  1  0
 17 33  1  0
 17 34  1  0
 18 35  1  0
 18 36  1  0
 19 37  1  0
 19 38  1  0
 20 39  1  0
 20 40  1  0
 21 41  1  0
 23 42  1  0
M  CHG  2   7  -1  25  -1
M  END
>  <UniqueID>  (28) 
28

>  <SMILES>  (28) 
Cn1cc(C(=O)[N-]c2cccc(S(=O)(=O)N3CCCC3)c2)c(O)c1[O-]

>  <Energy>  (28) 
76.70992364009523

>  <Genealogy>  (28) 
Cn1cc(C(=O)[N-]c2cccc(S(=O)(=O)N3CCCC3)c2)c(O)c1[O-] (protonated)
Cn1cc(C(=O)[N-]c2cccc(S(=O)(=O)N3CCCC3)c2)c(O)c1[O-] (3D coordinates assigned)
Cn1cc(C(=O)[N-]c2cccc(S(=O)(=O)N3CCCC3)c2)c(O)c1[O-] (nonaromatic ring conformer: 76.70992364009523 kcal/mol)

>  <smiles>  (28) 
Cn1cc(C(=O)Nc2cccc(S(=O)(=O)N3CCCC3)c2)c(O)c1O

>  <score_type>  (28) 
oracle

>  <origin>  (28) 
adgpu

>  <m_score__min__energy>  (28) 
-12.369999999999999

>  <m_primary>  (28) 
energy

$$$$
28:0
     RDKit          3D

 60 64  0  0  0  0  0  0  0  0999 V2000
   -1.6010   19.7920  -31.4550 C   0  0  0  0  0  0  0  0  0  0  0  0
   -1.3020   19.2840  -32.7870 N   0  0  0  0  0  0  0  0  0  0  0  0
   -0.0360   19.3730  -33.4410 C   0  0  0  0  0  0  0  0  0  0  0  0
    0.8830   20.1480  -33.0530 O   0  0  0  0  0  0  0  0  0  0  0  0
    0.0870   18.4320  -34.6170 C   0  0  0  0  0  0  0  0  0  0  0  0
    1.2420   17.4380  -34.4040 C   0  0  0  0  0  0  0  0  0  0  0  0
    0.2340   19.2080  -35.9330 C   0  0  0  0  0  0  0  0  0  0  0  0
   -1.2540   17.7480  -34.5330 C   0  0  0  0  0  0  0  0  0  0  0  0
   -1.7610   16.7310  -35.3500 C   0  0  0  0  0  0  0  0  0  0  0  0
   -3.0390   16.2190  -35.0710 C   0  0  0  0  0  0  0  0  0  0  0  0
   -3.7920   16.7200  -33.9800 C   0  0  0  0  0  0  0  0  0  0  0  0
   -5.3560   16.0100  -33.5780 S   0  0  0  0  0  0  0  0  0  0  0  0
   -5.5900   14.8000  -34.4380 O   0  0  0  0  0  0  0  0  0  0  0  0
   -5.3920   15.5840  -32.1370 O   0  0  0  0  0  0  0  0  0  0  0  0
   -6.5930   17.1800  -33.8990 N   0  0  0  0  0  0  0  0  0  0  0  0
   -6.6120   18.4700  -33.2810 C   0  0  0  0  0  0  0  0  0  0  0  0
   -7.6320   18.8390  -32.3900 C   0  0  0  0  0  0  0  0  0  0  0  0
   -7.5970   20.0770  -31.7440 C   0  0  0  0  0  0  0  0  0  0  0  0
   -6.5310   20.9610  -31.9760 C   0  0  0  0  0  0  0  0  0  0  0  0
   -6.4540   22.1830  -31.2980 C   0  0  0  0  0  0  0  0  0  0  0  0
   -5.3600   23.0360  -31.4950 C   0  0  0  0  0  0  0  0  0  0  0  0
   -5.2120   24.5160  -30.5500 S   0  0  0  0  0  0  0  0  0  0  0  0
   -5.9460   25.6300  -31.2530 O   0  0  0  0  0  0  0  0  0  0  0  0
   -5.8380   24.3020  -29.1940 O   0  0  0  0  0  0  0  0  0  0  0  0
   -3.5450   24.9710  -30.3490 N   0  0  0  0  0  0  0  0  0  0  0  0
   -2.6460   24.2560  -29.4940 C   0  0  0  0  0  0  0  0  0  0  0  0
   -2.9150   22.9290  -29.1180 C   0  0  0  0  0  0  0  0  0  0  0  0
   -2.0310   22.2450  -28.2780 C   0  0  0  0  0  0  0  0  0  0  0  0
   -0.8840   22.8880  -27.7930 C   0  0  0  0  0  0  0  0  0  0  0  0
   -0.6220   24.2160  -28.1460 C   0  0  0  0  0  0  0  0  0  0  0  0
   -1.5040   24.9030  -28.9890 C   0  0  0  0  0  0  0  0  0  0  0  0
   -1.2360   26.2230  -29.3350 O   0  0  0  0  0  0  0  0  0  0  0  0
   -4.3510   22.6780  -32.4020 C   0  0  0  0  0  0  0  0  0  0  0  0
   -4.4280   21.4730  -33.1030 C   0  0  0  0  0  0  0  0  0  0  0  0
   -5.5090   20.6040  -32.8950 C   0  0  0  0  0  0  0  0  0  0  0  0
   -5.5720   19.3680  -33.5570 C   0  0  0  0  0  0  0  0  0  0  0  0
   -3.2610   17.7420  -33.1690 C   0  0  0  0  0  0  0  0  0  0  0  0
   -1.9940   18.2480  -33.4740 C   0  0  0  0  0  0  0  0  0  0  0  0
   -1.1952   19.1026  -30.7000 H   0  0  0  0  0  0  0  0  0  0  0  0
   -1.1428   20.7841  -31.3295 H   0  0  0  0  0  0  0  0  0  0  0  0
   -2.6908   19.8730  -31.3295 H   0  0  0  0  0  0  0  0  0  0  0  0
    1.4084   17.2948  -33.3261 H   0  0  0  0  0  0  0  0  0  0  0  0
    0.9858   16.4735  -34.8668 H   0  0  0  0  0  0  0  0  0  0  0  0
    2.1575   17.8351  -34.8668 H   0  0  0  0  0  0  0  0  0  0  0  0
    0.4346   20.2671  -35.7137 H   0  0  0  0  0  0  0  0  0  0  0  0
    1.0688   18.7894  -36.5142 H   0  0  0  0  0  0  0  0  0  0  0  0
   -0.6961   19.1237  -36.5142 H   0  0  0  0  0  0  0  0  0  0  0  0
   -1.1713   16.3409  -36.1927 H   0  0  0  0  0  0  0  0  0  0  0  0
   -3.4584   15.4232  -35.7041 H   0  0  0  0  0  0  0  0  0  0  0  0
   -8.4658   18.1475  -32.1989 H   0  0  0  0  0  0  0  0  0  0  0  0
   -8.4050   20.3596  -31.0531 H   0  0  0  0  0  0  0  0  0  0  0  0
   -7.2575   22.4756  -30.6061 H   0  0  0  0  0  0  0  0  0  0  0  0
   -3.8226   22.4275  -29.4852 H   0  0  0  0  0  0  0  0  0  0  0  0
   -2.2359   21.2013  -27.9975 H   0  0  0  0  0  0  0  0  0  0  0  0
   -0.1888   22.3476  -27.1338 H   0  0  0  0  0  0  0  0  0  0  0  0
    0.2767   24.7204  -27.7614 H   0  0  0  0  0  0  0  0  0  0  0  0
   -3.4950   23.3501  -32.5616 H   0  0  0  0  0  0  0  0  0  0  0  0
   -3.6386   21.2044  -33.8204 H   0  0  0  0  0  0  0  0  0  0  0  0
   -4.8015   19.1029  -34.2959 H   0  0  0  0  0  0  0  0  0  0  0  0
   -3.8312   18.1337  -32.3138 H   0  0  0  0  0  0  0  0  0  0  0  0
  1  2  1  0
  2  3  1  0
  3  4  2  0
  3  5  1  0
  5  6  1  0
  5  7  1  0
  5  8  1  0
  8  9  2  0
  9 10  1  0
 10 11  2  0
 11 12  1  0
 12 13  2  0
 12 14  2  0
 12 15  1  0
 15 16  1  0
 16 17  2  0
 17 18  1  0
 18 19  2  0
 19 20  1  0
 20 21  2  0
 21 22  1  0
 22 23  2  0
 22 24  2  0
 22 25  1  0
 25 26  1  0
 26 27  2  0
 27 28  1  0
 28 29  2  0
 29 30  1  0
 30 31  2  0
 31 32  1  0
 21 33  1  0
 33 34  2  0
 34 35  1  0
 35 36  2  0
 11 37  1  0
 37 38  2  0
 38  2  1  0
 38  8  1  0
 36 16  1  0
 35 19  1  0
 31 26  1  0
  1 39  1  0
  1 40  1  0
  1 41  1  0
  6 42  1  0
  6 43  1  0
  6 44  1  0
  7 45  1  0
  7 46  1  0
  7 47  1  0
  9 48  1  0
 10 49  1  0
 17 50  1  0
 18 51  1  0
 20 52  1  0
 27 53  1  0
 28 54  1  0
 29 55  1  0
 30 56  1  0
 33 57  1  0
 34 58  1  0
 36 59  1  0
 37 60  1  0
M  CHG  3  15  -1  25  -1  32  -1
M  END
>  <UniqueID>  (29) 
29

>  <SMILES>  (29) 
CN1C(=O)C(C)(C)c2ccc(S(=O)(=O)[N-]c3ccc4cc(S(=O)(=O)[N-]c5ccccc5[O-])ccc4c3)cc21

>  <Energy>  (29) 
98.29676230555022

>  <Genealogy>  (29) 
CN1C(=O)C(C)(C)c2ccc(S(=O)(=O)[N-]c3ccc4cc(S(=O)(=O)[N-]c5ccccc5[O-])ccc4c3)cc21 (protonated)
CN1C(=O)C(C)(C)c2ccc(S(=O)(=O)[N-]c3ccc4cc(S(=O)(=O)[N-]c5ccccc5[O-])ccc4c3)cc21 (3D coordinates assigned)
CN1C(=O)C(C)(C)c2ccc(S(=O)(=O)[N-]c3ccc4cc(S(=O)(=O)[N-]c5ccccc5[O-])ccc4c3)cc21 (nonaromatic ring conformer: 98.29676230555022 kcal/mol)

>  <smiles>  (29) 
CN1C(=O)C(C)(C)c2ccc(S(=O)(=O)Nc3ccc4cc(S(=O)(=O)Nc5ccccc5O)ccc4c3)cc21

>  <score_type>  (29) 
oracle

>  <origin>  (29) 
adgpu

>  <m_score__min__energy>  (29) 
-15.140000000000001

>  <m_primary>  (29) 
energy

$$$$
29:0
     RDKit          3D

 54 57  0  0  0  0  0  0  0  0999 V2000
    0.5096   28.9973  -23.4033 H   0  0  0  0  0  0  0  0  0  0  0  0
    0.1750   28.2830  -24.1700 C   0  0  0  0  0  0  0  0  0  0  0  0
   -0.0470   28.7170  -25.4770 C   0  0  0  0  0  0  0  0  0  0  0  0
    0.1097   29.7737  -25.7392 H   0  0  0  0  0  0  0  0  0  0  0  0
   -0.4680   27.8110  -26.4530 C   0  0  0  0  0  0  0  0  0  0  0  0
   -0.6346   28.1582  -27.4834 H   0  0  0  0  0  0  0  0  0  0  0  0
   -0.6810   26.4580  -26.1300 C   0  0  0  0  0  0  0  0  0  0  0  0
   -1.0530   25.5280  -27.1620 N   0  0  0  0  0  0  0  0  0  0  0  0
   -0.3410   25.2570  -27.8750 H   0  0  0  0  0  0  0  0  0  0  0  0
   -2.3450   24.9040  -27.2170 C   0  0  0  0  0  0  0  0  0  0  0  0
   -3.0410   24.8110  -26.1710 O   0  0  0  0  0  0  0  0  0  0  0  0
   -2.8490   24.3040  -28.4670 C   0  0  0  0  0  0  0  0  0  0  0  0
   -4.4080   24.5540  -29.0600 S   0  0  0  0  0  0  0  0  0  0  0  0
   -4.1460   23.6070  -30.4180 C   0  0  0  0  0  0  0  0  0  0  0  0
   -5.0400   23.4010  -31.3380 N   0  0  0  0  0  0  0  0  0  0  0  0
   -4.8090   22.5900  -32.5360 C   0  0  0  0  0  0  0  0  0  0  0  0
   -3.7841   22.1922  -32.4990 H   0  0  0  0  0  0  0  0  0  0  0  0
   -4.9630   23.2391  -33.4106 H   0  0  0  0  0  0  0  0  0  0  0  0
   -5.7810   21.4220  -32.6540 C   0  0  0  0  0  0  0  0  0  0  0  0
   -7.1150   21.5850  -32.2290 C   0  0  0  0  0  0  0  0  0  0  0  0
   -7.4288   22.5452  -31.7937 H   0  0  0  0  0  0  0  0  0  0  0  0
   -8.0470   20.5500  -32.3500 C   0  0  0  0  0  0  0  0  0  0  0  0
   -9.4780   20.7780  -31.9570 C   0  0  0  0  0  0  0  0  0  0  0  0
   -9.5594   20.7910  -30.8601 H   0  0  0  0  0  0  0  0  0  0  0  0
   -9.8202   21.7420  -32.3615 H   0  0  0  0  0  0  0  0  0  0  0  0
  -10.1028   19.9681  -32.3615 H   0  0  0  0  0  0  0  0  0  0  0  0
   -7.6590   19.3300  -32.9060 C   0  0  0  0  0  0  0  0  0  0  0  0
   -8.4067   18.5364  -33.0515 H   0  0  0  0  0  0  0  0  0  0  0  0
   -6.3240   19.1040  -33.2820 C   0  0  0  0  0  0  0  0  0  0  0  0
   -5.9360   17.8430  -33.7940 C   0  0  0  0  0  0  0  0  0  0  0  0
   -6.9040   16.8370  -33.9520 O   0  0  0  0  0  0  0  0  0  0  0  0
   -6.6140   15.4640  -34.1990 C   0  0  0  0  0  0  0  0  0  0  0  0
   -6.5022   14.9348  -33.2412 H   0  0  0  0  0  0  0  0  0  0  0  0
   -7.4367   15.0130  -34.7733 H   0  0  0  0  0  0  0  0  0  0  0  0
   -5.6792   15.3842  -34.7733 H   0  0  0  0  0  0  0  0  0  0  0  0
   -4.5890   17.6220  -34.1290 C   0  0  0  0  0  0  0  0  0  0  0  0
   -4.2808   16.6476  -34.5359 H   0  0  0  0  0  0  0  0  0  0  0  0
   -3.6420   18.6260  -33.9500 C   0  0  0  0  0  0  0  0  0  0  0  0
   -2.5886   18.4341  -34.2021 H   0  0  0  0  0  0  0  0  0  0  0  0
   -4.0180   19.8720  -33.4540 C   0  0  0  0  0  0  0  0  0  0  0  0
   -3.2559   20.6523  -33.3115 H   0  0  0  0  0  0  0  0  0  0  0  0
   -5.3640   20.1460  -33.1320 C   0  0  0  0  0  0  0  0  0  0  0  0
   -2.8920   23.1060  -30.4590 N   0  0  0  0  0  0  0  0  0  0  0  0
   -2.1570   23.4970  -29.3840 C   0  0  0  0  0  0  0  0  0  0  0  0
   -0.7210   23.0930  -29.2570 C   0  0  0  0  0  0  0  0  0  0  0  0
   -0.4540   23.0179  -28.1925 H   0  0  0  0  0  0  0  0  0  0  0  0
   -0.5702   22.1176  -29.7426 H   0  0  0  0  0  0  0  0  0  0  0  0
   -0.0837   23.8467  -29.7426 H   0  0  0  0  0  0  0  0  0  0  0  0
   -0.4580   26.0210  -24.8030 C   0  0  0  0  0  0  0  0  0  0  0  0
   -0.6990   24.6630  -24.4120 N   0  0  0  0  0  0  0  0  0  0  0  0
   -1.4390   24.1000  -24.8870 H   0  0  0  0  0  0  0  0  0  0  0  0
   -0.1070   24.1760  -23.7050 H   0  0  0  0  0  0  0  0  0  0  0  0
   -0.0270   26.9430  -23.8340 C   0  0  0  0  0  0  0  0  0  0  0  0
    0.1527   26.6062  -22.8024 H   0  0  0  0  0  0  0  0  0  0  0  0
  1  2  1  0
  2  3  2  0
  3  4  1  0
  3  5  1  0
  5  6  1  0
  5  7  2  0
  7  8  1  0
  8  9  1  0
  8 10  1  0
 10 11  2  0
 10 12  1  0
 12 13  1  0
 13 14  1  0
 14 15  2  0
 15 16  1  0
 16 17  1  0
 16 18  1  0
 16 19  1  0
 19 20  2  0
 20 21  1  0
 20 22  1  0
 22 23  1  0
 23 24  1  0
 23 25  1  0
 23 26  1  0
 22 27  2  0
 27 28  1  0
 27 29  1  0
 29 30  2  0
 30 31  1  0
 31 32  1  0
 32 33  1  0
 32 34  1  0
 32 35  1  0
 30 36  1  0
 36 37  1  0
 36 38  2  0
 38 39  1  0
 38 40  1  0
 40 41  1  0
 40 42  2  0
 14 43  1  0
 43 44  1  0
 44 45  1  0
 45 46  1  0
 45 47  1  0
 45 48  1  0
  7 49  1  0
 49 50  1  0
 50 51  1  0
 50 52  1  0
 49 53  2  0
 53 54  1  0
 53  2  1  0
 44 12  2  0
 42 19  1  0
 42 29  1  0
M  CHG  1  43  -1
M  END
>  <UniqueID>  (30) 
30

>  <SMILES>  (30) 
COc1cccc2c(C/N=c3\[n-]c(C)c(C(=O)Nc4ccccc4N)s3)cc(C)cc12

>  <Energy>  (30) 
101.113963677502

>  <Genealogy>  (30) 
COc1cccc2c(CN=c3[n-]c(C)c(C(=O)Nc4ccccc4N)s3)cc(C)cc12 (protonated)
COc1cccc2c(C/N=c3\[n-]c(C)c(C(=O)Nc4ccccc4N)s3)cc(C)cc12 (cis-trans isomerization)
COc1cccc2c(C/N=c3\[n-]c(C)c(C(=O)Nc4ccccc4N)s3)cc(C)cc12 (3D coordinates assigned)
COc1cccc2c(C/N=c3\[n-]c(C)c(C(=O)Nc4ccccc4N)s3)cc(C)cc12 (optimized conformer: 101.113963677502 kcal/mol)

>  <smiles>  (30) 
COc1cccc2c(CN=c3[nH]c(C)c(C(=O)Nc4ccccc4N)s3)cc(C)cc12

>  <score_type>  (30) 
oracle

>  <origin>  (30) 
adgpu

>  <m_score__min__energy>  (30) 
-10.15

>  <m_primary>  (30) 
energy

$$$$
30:0
     RDKit          3D

 39 41  0  0  0  0  0  0  0  0999 V2000
   -2.6350   24.4770  -29.3590 C   0  0  0  0  0  0  0  0  0  0  0  0
   -3.5140   24.8290  -30.4230 O   0  0  0  0  0  0  0  0  0  0  0  0
   -4.6700   24.1110  -30.7640 C   0  0  0  0  0  0  0  0  0  0  0  0
   -4.5230   22.8040  -31.2440 C   0  0  0  0  0  0  0  0  0  0  0  0
   -5.6430   22.0470  -31.5980 C   0  0  0  0  0  0  0  0  0  0  0  0
   -6.9320   22.5940  -31.4900 C   0  0  0  0  0  0  0  0  0  0  0  0
   -8.1250   21.7960  -31.8520 C   0  0  0  0  0  0  0  0  0  0  0  0
   -9.4390   22.2000  -31.7180 C   0  0  0  0  0  0  0  0  0  0  0  0
  -10.2380   21.1690  -32.0400 N   0  0  0  0  0  0  0  0  0  0  0  0
   -9.5050   20.1220  -32.3840 N   0  0  0  0  0  0  0  0  0  0  0  0
   -8.2060   20.4750  -32.2860 C   0  0  0  0  0  0  0  0  0  0  0  0
   -7.1000   19.5710  -32.6650 C   0  0  0  0  0  0  0  0  0  0  0  0
   -6.8090   18.4530  -31.8670 C   0  0  0  0  0  0  0  0  0  0  0  0
   -5.7750   17.5820  -32.2200 C   0  0  0  0  0  0  0  0  0  0  0  0
   -5.0240   17.8120  -33.3800 C   0  0  0  0  0  0  0  0  0  0  0  0
   -3.7330   16.7060  -33.8340 S   0  0  0  0  0  0  0  0  0  0  0  0
   -3.9320   15.1730  -32.9570 C   0  0  0  0  0  0  0  0  0  0  0  0
   -2.4000   17.3120  -33.4930 O   0  0  0  0  0  0  0  0  0  0  0  0
   -3.7790   16.4490  -35.3150 O   0  0  0  0  0  0  0  0  0  0  0  0
   -5.3310   18.9090  -34.1960 C   0  0  0  0  0  0  0  0  0  0  0  0
   -6.3660   19.7810  -33.8430 C   0  0  0  0  0  0  0  0  0  0  0  0
   -7.0830   23.8970  -30.9920 C   0  0  0  0  0  0  0  0  0  0  0  0
   -5.9620   24.6530  -30.6370 C   0  0  0  0  0  0  0  0  0  0  0  0
   -3.1279   24.6744  -28.3956 H   0  0  0  0  0  0  0  0  0  0  0  0
   -2.3830   23.4086  -29.4298 H   0  0  0  0  0  0  0  0  0  0  0  0
   -1.7152   25.0761  -29.4298 H   0  0  0  0  0  0  0  0  0  0  0  0
   -3.5174   22.3694  -31.3433 H   0  0  0  0  0  0  0  0  0  0  0  0
   -5.5144   21.0174  -31.9631 H   0  0  0  0  0  0  0  0  0  0  0  0
   -9.7749   23.1983  -31.4009 H   0  0  0  0  0  0  0  0  0  0  0  0
  -11.2820   21.1720  -32.0210 H   0  0  0  0  0  0  0  0  0  0  0  0
   -7.3987   18.2616  -30.9583 H   0  0  0  0  0  0  0  0  0  0  0  0
   -5.5499   16.7126  -31.5848 H   0  0  0  0  0  0  0  0  0  0  0  0
   -3.9072   15.3642  -31.8740 H   0  0  0  0  0  0  0  0  0  0  0  0
   -4.8967   14.7186  -33.2271 H   0  0  0  0  0  0  0  0  0  0  0  0
   -3.1153   14.4874  -33.2271 H   0  0  0  0  0  0  0  0  0  0  0  0
   -4.7561   19.0849  -35.1172 H   0  0  0  0  0  0  0  0  0  0  0  0
   -6.6061   20.6360  -34.4920 H   0  0  0  0  0  0  0  0  0  0  0  0
   -8.0896   24.3263  -30.8802 H   0  0  0  0  0  0  0  0  0  0  0  0
   -6.0908   25.6770  -30.2564 H   0  0  0  0  0  0  0  0  0  0  0  0
  1  2  1  0
  2  3  1  0
  3  4  2  0
  4  5  1  0
  5  6  2  0
  6  7  1  0
  7  8  2  0
  8  9  1  0
  9 10  1  0
 10 11  2  0
 11 12  1  0
 12 13  2  0
 13 14  1  0
 14 15  2  0
 15 16  1  0
 16 17  1  0
 16 18  2  0
 16 19  2  0
 15 20  1  0
 20 21  2  0
  6 22  1  0
 22 23  2  0
 23  3  1  0
 11  7  1  0
 21 12  1  0
  1 24  1  0
  1 25  1  0
  1 26  1  0
  4 27  1  0
  5 28  1  0
  8 29  1  0
  9 30  1  0
 13 31  1  0
 14 32  1  0
 17 33  1  0
 17 34  1  0
 17 35  1  0
 20 36  1  0
 21 37  1  0
 22 38  1  0
 23 39  1  0
M  END
>  <UniqueID>  (31) 
31

>  <SMILES>  (31) 
COc1ccc(-c2c[nH]nc2-c2ccc(S(C)(=O)=O)cc2)cc1

>  <Energy>  (31) 
75.63179362648096

>  <Genealogy>  (31) 
COc1ccc(-c2c[nH]nc2-c2ccc(S(C)(=O)=O)cc2)cc1 (3D coordinates assigned)
COc1ccc(-c2c[nH]nc2-c2ccc(S(C)(=O)=O)cc2)cc1 (optimized conformer: 75.63179362648096 kcal/mol)

>  <smiles>  (31) 
COc1ccc(-c2c[nH]nc2-c2ccc(S(C)(=O)=O)cc2)cc1

>  <score_type>  (31) 
oracle

>  <origin>  (31) 
adgpu

>  <m_score__min__energy>  (31) 
-8.6899999999999995

>  <m_primary>  (31) 
energy

$$$$
31:0
     RDKit          3D

 48 51  0  0  0  0  0  0  0  0999 V2000
   -9.1540   22.2540  -31.6410 C   0  0  0  0  0  0  0  0  0  0  0  0
   -7.6820   22.5400  -31.7130 C   0  0  0  0  0  0  0  0  0  0  0  0
   -6.8160   21.6300  -32.3310 C   0  0  0  0  0  0  0  0  0  0  0  0
   -5.4440   21.8810  -32.3720 C   0  0  0  0  0  0  0  0  0  0  0  0
   -4.9150   23.0360  -31.7790 C   0  0  0  0  0  0  0  0  0  0  0  0
   -3.5480   23.2950  -31.8680 O   0  0  0  0  0  0  0  0  0  0  0  0
   -5.7730   23.9360  -31.1130 C   0  0  0  0  0  0  0  0  0  0  0  0
   -5.2490   25.1460  -30.4360 C   0  0  0  0  0  0  0  0  0  0  0  0
   -6.0430   26.0800  -30.1430 O   0  0  0  0  0  0  0  0  0  0  0  0
   -3.8570   25.3030  -30.1240 N   0  0  0  0  0  0  0  0  0  0  0  0
   -3.0490   24.3760  -29.3840 C   0  0  0  0  0  0  0  0  0  0  0  0
   -3.5400   23.1120  -29.0090 C   0  0  0  0  0  0  0  0  0  0  0  0
   -2.7250   22.2210  -28.3070 C   0  0  0  0  0  0  0  0  0  0  0  0
   -1.4210   22.5860  -27.9520 C   0  0  0  0  0  0  0  0  0  0  0  0
   -0.3760   21.4320  -27.1250 S   0  0  0  0  0  0  0  0  0  0  0  0
   -1.0150   21.0640  -25.8150 O   0  0  0  0  0  0  0  0  0  0  0  0
    0.9490   22.0900  -26.8540 O   0  0  0  0  0  0  0  0  0  0  0  0
   -0.1190   19.9640  -28.0930 C   0  0  0  0  0  0  0  0  0  0  0  0
    0.0750   18.7400  -27.4280 C   0  0  0  0  0  0  0  0  0  0  0  0
    0.2840   17.5630  -28.1430 C   0  0  0  0  0  0  0  0  0  0  0  0
    0.3010   17.5780  -29.5340 C   0  0  0  0  0  0  0  0  0  0  0  0
    0.1090   18.7780  -30.2300 C   0  0  0  0  0  0  0  0  0  0  0  0
    0.1260   18.7820  -31.6330 C   0  0  0  0  0  0  0  0  0  0  0  0
   -0.0650   19.9710  -32.3370 C   0  0  0  0  0  0  0  0  0  0  0  0
   -0.2760   21.1640  -31.6480 C   0  0  0  0  0  0  0  0  0  0  0  0
   -0.2970   21.1790  -30.2510 C   0  0  0  0  0  0  0  0  0  0  0  0
   -0.1050   19.9900  -29.5140 C   0  0  0  0  0  0  0  0  0  0  0  0
   -0.9390   23.8550  -28.3000 C   0  0  0  0  0  0  0  0  0  0  0  0
   -1.7520   24.7490  -29.0050 C   0  0  0  0  0  0  0  0  0  0  0  0
   -1.2570   26.0040  -29.3440 O   0  0  0  0  0  0  0  0  0  0  0  0
   -7.1560   23.6860  -31.0970 C   0  0  0  0  0  0  0  0  0  0  0  0
   -9.4647   22.1936  -30.5875 H   0  0  0  0  0  0  0  0  0  0  0  0
   -9.7092   23.0611  -32.1414 H   0  0  0  0  0  0  0  0  0  0  0  0
   -9.3666   21.2977  -32.1414 H   0  0  0  0  0  0  0  0  0  0  0  0
   -7.2189   20.7132  -32.7862 H   0  0  0  0  0  0  0  0  0  0  0  0
   -4.7729   21.1678  -32.8730 H   0  0  0  0  0  0  0  0  0  0  0  0
   -3.1530   24.1800  -31.5710 H   0  0  0  0  0  0  0  0  0  0  0  0
   -4.5693   22.8244  -29.2696 H   0  0  0  0  0  0  0  0  0  0  0  0
   -3.1096   21.2279  -28.0318 H   0  0  0  0  0  0  0  0  0  0  0  0
    0.0615   18.7118  -26.3284 H   0  0  0  0  0  0  0  0  0  0  0  0
    0.4365   16.6160  -27.6046 H   0  0  0  0  0  0  0  0  0  0  0  0
    0.4660   16.6431  -30.0897 H   0  0  0  0  0  0  0  0  0  0  0  0
    0.2908   17.8424  -32.1807 H   0  0  0  0  0  0  0  0  0  0  0  0
   -0.0491   19.9670  -33.4369 H   0  0  0  0  0  0  0  0  0  0  0  0
   -0.4269   22.0991  -32.2072 H   0  0  0  0  0  0  0  0  0  0  0  0
   -0.4649   22.1274  -29.7196 H   0  0  0  0  0  0  0  0  0  0  0  0
    0.0826   24.1493  -28.0177 H   0  0  0  0  0  0  0  0  0  0  0  0
   -7.8323   24.3951  -30.5971 H   0  0  0  0  0  0  0  0  0  0  0  0
  1  2  1  0
  2  3  2  0
  3  4  1  0
  4  5  2  0
  5  6  1  0
  5  7  1  0
  7  8  1  0
  8  9  2  0
  8 10  1  0
 10 11  1  0
 11 12  2  0
 12 13  1  0
 13 14  2  0
 14 15  1  0
 15 16  2  0
 15 17  2  0
 15 18  1  0
 18 19  2  0
 19 20  1  0
 20 21  2  0
 21 22  1  0
 22 23  2  0
 23 24  1  0
 24 25  2  0
 25 26  1  0
 26 27  2  0
 14 28  1  0
 28 29  2  0
 29 30  1  0
  7 31  2  0
 31  2  1  0
 29 11  1  0
 27 18  1  0
 27 22  1  0
  1 32  1  0
  1 33  1  0
  1 34  1  0
  3 35  1  0
  4 36  1  0
  6 37  1  0
 12 38  1  0
 13 39  1  0
 19 40  1  0
 20 41  1  0
 21 42  1  0
 23 43  1  0
 24 44  1  0
 25 45  1  0
 26 46  1  0
 28 47  1  0
 31 48  1  0
M  CHG  2  10  -1  30  -1
M  END
>  <UniqueID>  (32) 
32

>  <SMILES>  (32) 
Cc1ccc(O)c(C(=O)[N-]c2ccc(S(=O)(=O)c3cccc4ccccc34)cc2[O-])c1

>  <Energy>  (32) 
68.61279018115572

>  <Genealogy>  (32) 
Cc1ccc(O)c(C(=O)[N-]c2ccc(S(=O)(=O)c3cccc4ccccc34)cc2[O-])c1 (protonated)
Cc1ccc(O)c(C(=O)[N-]c2ccc(S(=O)(=O)c3cccc4ccccc34)cc2[O-])c1 (3D coordinates assigned)
Cc1ccc(O)c(C(=O)[N-]c2ccc(S(=O)(=O)c3cccc4ccccc34)cc2[O-])c1 (optimized conformer: 68.61279018115572 kcal/mol)

>  <smiles>  (32) 
Cc1ccc(O)c(C(=O)Nc2ccc(S(=O)(=O)c3cccc4ccccc34)cc2O)c1

>  <score_type>  (32) 
oracle

>  <origin>  (32) 
adgpu

>  <m_score__min__energy>  (32) 
-14.9

>  <m_primary>  (32) 
energy

$$$$
32:0
     RDKit          3D

 51 54  0  0  0  0  0  0  0  0999 V2000
   -3.1840   21.3340  -33.4440 C   0  0  0  0  0  0  0  0  0  0  0  0
   -4.0200   20.1130  -33.2340 C   0  0  0  0  0  0  0  0  0  0  0  0
   -3.4970   18.9810  -33.4100 O   0  0  0  0  0  0  0  0  0  0  0  0
   -5.3910   20.2050  -32.8030 N   0  0  0  0  0  0  0  0  0  0  0  0
   -5.9720   21.2640  -32.0510 C   0  0  0  0  0  0  0  0  0  0  0  0
   -5.3180   22.3580  -31.4740 C   0  0  0  0  0  0  0  0  0  0  0  0
   -6.0900   23.4000  -30.9250 C   0  0  0  0  0  0  0  0  0  0  0  0
   -5.2990   24.8890  -30.4000 S   0  0  0  0  0  0  0  0  0  0  0  0
   -5.6150   25.1200  -28.9500 O   0  0  0  0  0  0  0  0  0  0  0  0
   -5.7910   26.0540  -31.2140 O   0  0  0  0  0  0  0  0  0  0  0  0
   -3.5760   24.7540  -30.5980 N   0  0  0  0  0  0  0  0  0  0  0  0
   -2.7320   23.9780  -29.7350 C   0  0  0  0  0  0  0  0  0  0  0  0
   -2.8810   22.5840  -29.6430 C   0  0  0  0  0  0  0  0  0  0  0  0
   -2.1880   21.8620  -28.6630 C   0  0  0  0  0  0  0  0  0  0  0  0
   -1.2990   22.5220  -27.8040 C   0  0  0  0  0  0  0  0  0  0  0  0
   -1.0820   23.8990  -27.9500 C   0  0  0  0  0  0  0  0  0  0  0  0
   -1.8020   24.6300  -28.9020 C   0  0  0  0  0  0  0  0  0  0  0  0
   -1.6020   26.0080  -28.9800 O   0  0  0  0  0  0  0  0  0  0  0  0
   -0.5670   21.7140  -26.7650 C   0  0  0  0  0  0  0  0  0  0  0  0
   -1.5100   20.7100  -26.0670 C   0  0  0  0  0  0  0  0  0  0  0  0
   -2.5800   20.0670  -26.9910 C   0  0  0  0  0  0  0  0  0  0  0  0
   -2.3930   20.3840  -28.4810 C   0  0  0  0  0  0  0  0  0  0  0  0
   -7.4970   23.2980  -30.9110 C   0  0  0  0  0  0  0  0  0  0  0  0
   -8.1300   22.1850  -31.4840 C   0  0  0  0  0  0  0  0  0  0  0  0
   -7.3400   21.1900  -32.0630 C   0  0  0  0  0  0  0  0  0  0  0  0
   -7.8000   20.0090  -32.8410 C   0  0  0  0  0  0  0  0  0  0  0  0
   -6.4750   19.4030  -33.3840 C   0  0  2  0  0  0  0  0  0  0  0  0
   -6.3210   17.9310  -32.9960 C   0  0  0  0  0  0  0  0  0  0  0  0
   -2.8966   21.7538  -32.4687 H   0  0  0  0  0  0  0  0  0  0  0  0
   -2.2790   21.0660  -34.0089 H   0  0  0  0  0  0  0  0  0  0  0  0
   -3.7611   22.0808  -34.0089 H   0  0  0  0  0  0  0  0  0  0  0  0
   -4.2192   22.4034  -31.4496 H   0  0  0  0  0  0  0  0  0  0  0  0
   -3.5451   22.0571  -30.3440 H   0  0  0  0  0  0  0  0  0  0  0  0
   -0.3427   24.4074  -27.3137 H   0  0  0  0  0  0  0  0  0  0  0  0
   -2.3660   26.6690  -28.9410 H   0  0  0  0  0  0  0  0  0  0  0  0
    0.2492   21.1599  -27.2517 H   0  0  0  0  0  0  0  0  0  0  0  0
   -0.1708   22.4036  -26.0051 H   0  0  0  0  0  0  0  0  0  0  0  0
   -0.8955   19.9025  -25.6423 H   0  0  0  0  0  0  0  0  0  0  0  0
   -2.0623   21.2824  -25.3072 H   0  0  0  0  0  0  0  0  0  0  0  0
   -2.5370   18.9754  -26.8620 H   0  0  0  0  0  0  0  0  0  0  0  0
   -3.5508   20.4916  -26.6957 H   0  0  0  0  0  0  0  0  0  0  0  0
   -1.5142   19.8433  -28.8623 H   0  0  0  0  0  0  0  0  0  0  0  0
   -3.2895   20.0697  -29.0355 H   0  0  0  0  0  0  0  0  0  0  0  0
   -8.0997   24.0939  -30.4492 H   0  0  0  0  0  0  0  0  0  0  0  0
   -9.2265   22.0979  -31.4773 H   0  0  0  0  0  0  0  0  0  0  0  0
   -8.3261   19.2913  -32.1944 H   0  0  0  0  0  0  0  0  0  0  0  0
   -8.5138   20.2682  -33.6369 H   0  0  0  0  0  0  0  0  0  0  0  0
   -6.4605   19.4317  -34.4835 H   0  0  0  0  0  0  0  0  0  0  0  0
   -6.3115   17.8398  -31.8998 H   0  0  0  0  0  0  0  0  0  0  0  0
   -7.1637   17.3540  -33.4046 H   0  0  0  0  0  0  0  0  0  0  0  0
   -5.3771   17.5409  -33.4046 H   0  0  0  0  0  0  0  0  0  0  0  0
  1  2  1  0
  2  3  2  0
  2  4  1  0
  4  5  1  0
  5  6  2  0
  6  7  1  0
  7  8  1  0
  8  9  2  0
  8 10  2  0
  8 11  1  0
 11 12  1  0
 12 13  2  0
 13 14  1  0
 14 15  2  0
 15 16  1  0
 16 17  2  0
 17 18  1  0
 15 19  1  0
 19 20  1  0
 20 21  1  0
 21 22  1  0
  7 23  2  0
 23 24  1  0
 24 25  2  0
 25 26  1  0
 26 27  1  0
 27 28  1  0
 27  4  1  0
 25  5  1  0
 17 12  1  0
 22 14  1  0
  1 29  1  0
  1 30  1  0
  1 31  1  0
  6 32  1  0
 13 33  1  0
 16 34  1  0
 18 35  1  0
 19 36  1  0
 19 37  1  0
 20 38  1  0
 20 39  1  0
 21 40  1  0
 21 41  1  0
 22 42  1  0
 22 43  1  0
 23 44  1  0
 24 45  1  0
 26 46  1  0
 26 47  1  0
 27 48  1  6
 28 49  1  0
 28 50  1  0
 28 51  1  0
M  CHG  1  11  -1
M  END
>  <UniqueID>  (33) 
33

>  <SMILES>  (33) 
CC(=O)N1c2cc(S(=O)(=O)[N-]c3cc4c(cc3O)CCCC4)ccc2C[C@@H]1C

>  <Energy>  (33) 
75.30833628938854

>  <Genealogy>  (33) 
CC(=O)N1c2cc(S(=O)(=O)[N-]c3cc4c(cc3O)CCCC4)ccc2CC1C (protonated)
CC(=O)N1c2cc(S(=O)(=O)[N-]c3cc4c(cc3O)CCCC4)ccc2C[C@@H]1C (chirality)
CC(=O)N1c2cc(S(=O)(=O)[N-]c3cc4c(cc3O)CCCC4)ccc2C[C@@H]1C (3D coordinates assigned)
CC(=O)N1c2cc(S(=O)(=O)[N-]c3cc4c(cc3O)CCCC4)ccc2C[C@@H]1C (nonaromatic ring conformer: 75.30833628938854 kcal/mol)

>  <smiles>  (33) 
CC(=O)N1c2cc(S(=O)(=O)Nc3cc4c(cc3O)CCCC4)ccc2CC1C

>  <score_type>  (33) 
oracle

>  <origin>  (33) 
adgpu

>  <m_score__min__energy>  (33) 
-12.93

>  <m_primary>  (33) 
energy

$$$$
33:0
     RDKit          3D

 70 74  0  0  0  0  0  0  0  0999 V2000
   -1.6140   25.8070  -28.9310 O   0  0  0  0  0  0  0  0  0  0  0  0
   -2.2160   24.7790  -29.3390 C   0  0  0  0  0  0  0  0  0  0  0  0
   -3.3020   24.9340  -30.2610 N   0  0  0  0  0  0  0  0  0  0  0  0
   -4.4130   24.0360  -30.3940 C   0  0  0  0  0  0  0  0  0  0  0  0
   -5.6590   24.3130  -29.8040 C   0  0  0  0  0  0  0  0  0  0  0  0
   -6.7380   23.4510  -30.0050 C   0  0  0  0  0  0  0  0  0  0  0  0
   -6.5840   22.3050  -30.7870 C   0  0  0  0  0  0  0  0  0  0  0  0
   -5.3500   22.0230  -31.3870 C   0  0  0  0  0  0  0  0  0  0  0  0
   -5.1580   20.5810  -32.3880 S   0  0  0  0  0  0  0  0  0  0  0  0
   -4.1700   20.8700  -33.4840 O   0  0  0  0  0  0  0  0  0  0  0  0
   -4.6010   19.4670  -31.5460 O   0  0  0  0  0  0  0  0  0  0  0  0
   -6.6750   20.0680  -33.0980 N   0  0  0  0  0  0  0  0  0  0  0  0
   -6.4860   18.9020  -33.9670 C   0  0  0  0  0  0  0  0  0  0  0  0
   -6.8570   17.6520  -33.1810 C   0  0  0  0  0  0  0  0  0  0  0  0
   -7.5900   18.1410  -31.9480 C   0  0  0  0  0  0  0  0  0  0  0  0
   -7.6320   19.6590  -32.0650 C   0  0  0  0  0  0  0  0  0  0  0  0
   -4.2700   22.8960  -31.1930 C   0  0  0  0  0  0  0  0  0  0  0  0
   -1.7370   23.4400  -28.9300 C   0  0  0  0  0  0  0  0  0  0  0  0
   -1.5450   22.4550  -29.9150 C   0  0  0  0  0  0  0  0  0  0  0  0
   -1.0070   21.2040  -29.5840 C   0  0  0  0  0  0  0  0  0  0  0  0
   -0.6370   20.0260  -30.8520 S   0  0  0  0  0  0  0  0  0  0  0  0
   -0.8070   18.6460  -30.2800 O   0  0  0  0  0  0  0  0  0  0  0  0
    0.8050   20.1760  -31.2530 O   0  0  0  0  0  0  0  0  0  0  0  0
   -1.6570   20.1700  -32.2700 N   0  0  0  0  0  0  0  0  0  0  0  0
   -1.2280   21.2430  -33.1980 C   0  0  0  0  0  0  0  0  0  0  0  0
   -0.8800   20.7420  -34.6100 C   0  0  0  0  0  0  0  0  0  0  0  0
   -0.0780   19.4470  -34.5370 C   0  0  0  0  0  0  0  0  0  0  0  0
   -0.8500   18.3410  -33.8000 C   0  0  0  0  0  0  0  0  0  0  0  0
   -1.9770   18.8740  -32.8990 C   0  0  0  0  0  0  0  0  0  0  0  0
   -0.6610   20.9360  -28.2550 C   0  0  0  0  0  0  0  0  0  0  0  0
   -0.8570   21.9000  -27.2660 C   0  0  0  0  0  0  0  0  0  0  0  0
   -1.3840   23.1580  -27.5900 C   0  0  0  0  0  0  0  0  0  0  0  0
   -1.5550   24.1360  -26.5520 N   0  0  0  0  0  0  0  0  0  0  0  0
   -0.4710   24.5930  -25.6990 C   0  0  0  0  0  0  0  0  0  0  0  0
   -1.1000   25.6130  -24.7600 C   0  0  0  0  0  0  0  0  0  0  0  0
   -2.4240   26.0180  -25.4060 C   0  0  0  0  0  0  0  0  0  0  0  0
   -2.7770   24.9000  -26.3780 C   0  0  0  0  0  0  0  0  0  0  0  0
   -5.7836   25.2118  -29.1822 H   0  0  0  0  0  0  0  0  0  0  0  0
   -7.7122   23.6752  -29.5461 H   0  0  0  0  0  0  0  0  0  0  0  0
   -7.4337   21.6217  -30.9324 H   0  0  0  0  0  0  0  0  0  0  0  0
   -7.1328   18.9898  -34.8524 H   0  0  0  0  0  0  0  0  0  0  0  0
   -5.4387   18.8433  -34.2984 H   0  0  0  0  0  0  0  0  0  0  0  0
   -7.5098   17.0016  -33.7818 H   0  0  0  0  0  0  0  0  0  0  0  0
   -5.9673   17.0622  -32.9154 H   0  0  0  0  0  0  0  0  0  0  0  0
   -8.6102   17.7305  -31.9209 H   0  0  0  0  0  0  0  0  0  0  0  0
   -7.0869   17.8199  -31.0240 H   0  0  0  0  0  0  0  0  0  0  0  0
   -8.6448   19.9824  -32.3473 H   0  0  0  0  0  0  0  0  0  0  0  0
   -7.3700   20.1207  -31.1016 H   0  0  0  0  0  0  0  0  0  0  0  0
   -3.3031   22.6832  -31.6724 H   0  0  0  0  0  0  0  0  0  0  0  0
   -1.8205   22.6690  -30.9582 H   0  0  0  0  0  0  0  0  0  0  0  0
   -2.0442   21.9757  -33.2816 H   0  0  0  0  0  0  0  0  0  0  0  0
   -0.3100   21.6804  -32.7786 H   0  0  0  0  0  0  0  0  0  0  0  0
   -1.8100   20.5604  -35.1687 H   0  0  0  0  0  0  0  0  0  0  0  0
   -0.2741   21.5064  -35.1184 H   0  0  0  0  0  0  0  0  0  0  0  0
    0.1433   19.1067  -35.5593 H   0  0  0  0  0  0  0  0  0  0  0  0
    0.8485   19.6484  -33.9793 H   0  0  0  0  0  0  0  0  0  0  0  0
   -1.2922   17.6672  -34.5486 H   0  0  0  0  0  0  0  0  0  0  0  0
   -0.1308   17.8252  -33.1468 H   0  0  0  0  0  0  0  0  0  0  0  0
   -2.8838   18.9965  -33.5095 H   0  0  0  0  0  0  0  0  0  0  0  0
   -2.1190   18.1443  -32.0882 H   0  0  0  0  0  0  0  0  0  0  0  0
   -0.2317   19.9589  -27.9884 H   0  0  0  0  0  0  0  0  0  0  0  0
   -0.5957   21.6710  -26.2223 H   0  0  0  0  0  0  0  0  0  0  0  0
   -0.0496   23.7525  -25.1281 H   0  0  0  0  0  0  0  0  0  0  0  0
    0.3541   25.0275  -26.2824 H   0  0  0  0  0  0  0  0  0  0  0  0
   -1.2782   25.1641  -23.7717 H   0  0  0  0  0  0  0  0  0  0  0  0
   -0.4424   26.4818  -24.6092 H   0  0  0  0  0  0  0  0  0  0  0  0
   -3.2072   26.1201  -24.6404 H   0  0  0  0  0  0  0  0  0  0  0  0
   -2.3414   26.9871  -25.9198 H   0  0  0  0  0  0  0  0  0  0  0  0
   -3.5715   24.2642  -25.9603 H   0  0  0  0  0  0  0  0  0  0  0  0
   -3.1511   25.2942  -27.3344 H   0  0  0  0  0  0  0  0  0  0  0  0
  1  2  2  0
  2  3  1  0
  3  4  1  0
  4  5  2  0
  5  6  1  0
  6  7  2  0
  7  8  1  0
  8  9  1  0
  9 10  2  0
  9 11  2  0
  9 12  1  0
 12 13  1  0
 13 14  1  0
 14 15  1  0
 15 16  1  0
  8 17  2  0
  2 18  1  0
 18 19  2  0
 19 20  1  0
 20 21  1  0
 21 22  2  0
 21 23  2  0
 21 24  1  0
 24 25  1  0
 25 26  1  0
 26 27  1  0
 27 28  1  0
 28 29  1  0
 20 30  2  0
 30 31  1  0
 31 32  2  0
 32 33  1  0
 33 34  1  0
 34 35  1  0
 35 36  1  0
 36 37  1  0
 17  4  1  0
 32 18  1  0
 37 33  1  0
 16 12  1  0
 29 24  1  0
  5 38  1  0
  6 39  1  0
  7 40  1  0
 13 41  1  0
 13 42  1  0
 14 43  1  0
 14 44  1  0
 15 45  1  0
 15 46  1  0
 16 47  1  0
 16 48  1  0
 17 49  1  0
 19 50  1  0
 25 51  1  0
 25 52  1  0
 26 53  1  0
 26 54  1  0
 27 55  1  0
 27 56  1  0
 28 57  1  0
 28 58  1  0
 29 59  1  0
 29 60  1  0
 30 61  1  0
 31 62  1  0
 34 63  1  0
 34 64  1  0
 35 65  1  0
 35 66  1  0
 36 67  1  0
 36 68  1  0
 37 69  1  0
 37 70  1  0
M  CHG  1   3  -1
M  END
>  <UniqueID>  (34) 
34

>  <SMILES>  (34) 
O=C([N-]c1cccc(S(=O)(=O)N2CCCC2)c1)c1cc(S(=O)(=O)N2CCCCC2)ccc1N1CCCC1

>  <Energy>  (34) 
89.2563737354109

>  <Genealogy>  (34) 
O=C([N-]c1cccc(S(=O)(=O)N2CCCC2)c1)c1cc(S(=O)(=O)N2CCCCC2)ccc1N1CCCC1 (protonated)
O=C([N-]c1cccc(S(=O)(=O)N2CCCC2)c1)c1cc(S(=O)(=O)N2CCCCC2)ccc1N1CCCC1 (3D coordinates assigned)
O=C([N-]c1cccc(S(=O)(=O)N2CCCC2)c1)c1cc(S(=O)(=O)N2CCCCC2)ccc1N1CCCC1 (nonaromatic ring conformer: 89.2563737354109 kcal/mol)

>  <smiles>  (34) 
O=C(Nc1cccc(S(=O)(=O)N2CCCC2)c1)c1cc(S(=O)(=O)N2CCCCC2)ccc1N1CCCC1

>  <score_type>  (34) 
oracle

>  <origin>  (34) 
adgpu

>  <m_score__min__energy>  (34) 
-12.15

>  <m_primary>  (34) 
energy

$$$$
34:0
     RDKit          3D

 55 58  0  0  0  0  0  0  0  0999 V2000
   -1.8810   24.7770  -26.8160 C   0  0  0  0  0  0  0  0  0  0  0  0
   -1.0610   24.8630  -28.3920 S   0  0  0  0  0  0  0  0  0  0  0  0
    0.4070   24.6060  -28.2100 O   0  0  0  0  0  0  0  0  0  0  0  0
   -1.2420   26.2360  -28.9770 O   0  0  0  0  0  0  0  0  0  0  0  0
   -1.7500   23.6580  -29.4750 C   0  0  0  0  0  0  0  0  0  0  0  0
   -3.0880   23.7560  -29.8780 C   0  0  0  0  0  0  0  0  0  0  0  0
   -3.6320   22.8070  -30.7470 C   0  0  0  0  0  0  0  0  0  0  0  0
   -2.8440   21.7490  -31.2350 C   0  0  0  0  0  0  0  0  0  0  0  0
   -3.4220   20.7400  -32.1600 C   0  0  0  0  0  0  0  0  0  0  0  0
   -4.5370   21.0570  -32.9550 C   0  0  0  0  0  0  0  0  0  0  0  0
   -5.0820   20.1070  -33.8230 C   0  0  0  0  0  0  0  0  0  0  0  0
   -4.5190   18.8250  -33.9190 C   0  0  0  0  0  0  0  0  0  0  0  0
   -5.1320   17.7950  -34.8360 C   0  0  0  0  0  0  0  0  0  0  0  0
   -6.2780   17.0290  -34.1510 C   0  0  1  0  0  0  0  0  0  0  0  0
   -5.7440   16.0390  -33.1980 C   0  0  0  0  0  0  0  0  0  0  0  0
   -5.3240   15.2610  -32.4510 N   0  0  0  0  0  0  0  0  0  0  0  0
   -7.1560   17.9690  -33.4480 N   0  0  0  0  0  0  0  0  0  0  0  0
   -6.9270   18.3470  -32.0790 C   0  0  0  0  0  0  0  0  0  0  0  0
   -5.9280   17.8870  -31.4610 O   0  0  0  0  0  0  0  0  0  0  0  0
   -7.8310   19.3190  -31.3590 C   0  0  2  0  0  0  0  0  0  0  0  0
   -9.1580   19.4060  -31.9970 N   0  0  0  0  0  0  0  0  0  0  0  0
   -9.2850   20.8400  -32.3170 C   0  0  1  0  0  0  0  0  0  0  0  0
   -9.4780   21.6460  -31.0160 C   0  0  0  0  0  0  0  0  0  0  0  0
   -8.0720   21.5980  -30.3960 C   0  0  0  0  0  0  0  0  0  0  0  0
   -7.2890   20.7620  -31.4230 C   0  0  2  0  0  0  0  0  0  0  0  0
   -7.8890   21.2420  -32.7190 C   0  0  0  0  0  0  0  0  0  0  0  0
   -3.4090   18.5020  -33.1210 C   0  0  0  0  0  0  0  0  0  0  0  0
   -2.8510   17.2660  -33.1840 F   0  0  0  0  0  0  0  0  0  0  0  0
   -2.8640   19.4530  -32.2520 C   0  0  0  0  0  0  0  0  0  0  0  0
   -1.4980   21.6630  -30.8320 C   0  0  0  0  0  0  0  0  0  0  0  0
   -0.9560   22.6120  -29.9620 C   0  0  0  0  0  0  0  0  0  0  0  0
   -1.1361   24.8551  -26.0104 H   0  0  0  0  0  0  0  0  0  0  0  0
   -2.6007   25.6046  -26.7315 H   0  0  0  0  0  0  0  0  0  0  0  0
   -2.4133   23.8181  -26.7315 H   0  0  0  0  0  0  0  0  0  0  0  0
   -3.7125   24.5830  -29.5090 H   0  0  0  0  0  0  0  0  0  0  0  0
   -4.6857   22.8879  -31.0522 H   0  0  0  0  0  0  0  0  0  0  0  0
   -4.9839   22.0602  -32.8935 H   0  0  0  0  0  0  0  0  0  0  0  0
   -5.9584   20.3658  -34.4353 H   0  0  0  0  0  0  0  0  0  0  0  0
   -5.5267   18.3028  -35.7284 H   0  0  0  0  0  0  0  0  0  0  0  0
   -4.3502   17.0700  -35.1067 H   0  0  0  0  0  0  0  0  0  0  0  0
   -6.8541   16.4987  -34.9236 H   0  0  0  0  0  0  0  0  0  0  0  0
   -7.9660   18.3830  -33.9630 H   0  0  0  0  0  0  0  0  0  0  0  0
   -7.8855   18.9389  -30.3282 H   0  0  0  0  0  0  0  0  0  0  0  0
   -9.9040   19.1150  -31.3210 H   0  0  0  0  0  0  0  0  0  0  0  0
  -10.0953   21.0073  -33.0419 H   0  0  0  0  0  0  0  0  0  0  0  0
   -9.7853   22.6805  -31.2290 H   0  0  0  0  0  0  0  0  0  0  0  0
  -10.2650   21.2457  -30.3599 H   0  0  0  0  0  0  0  0  0  0  0  0
   -7.6460   22.6072  -30.2961 H   0  0  0  0  0  0  0  0  0  0  0  0
   -8.0530   21.1777  -29.3796 H   0  0  0  0  0  0  0  0  0  0  0  0
   -6.1987   20.8255  -31.2921 H   0  0  0  0  0  0  0  0  0  0  0  0
   -7.7751   22.3244  -32.8785 H   0  0  0  0  0  0  0  0  0  0  0  0
   -7.4801   20.8578  -33.6651 H   0  0  0  0  0  0  0  0  0  0  0  0
   -1.9914   19.1916  -31.6354 H   0  0  0  0  0  0  0  0  0  0  0  0
   -0.8681   20.8420  -31.2051 H   0  0  0  0  0  0  0  0  0  0  0  0
    0.0986   22.5375  -29.6582 H   0  0  0  0  0  0  0  0  0  0  0  0
  1  2  1  0
  2  3  2  0
  2  4  2  0
  2  5  1  0
  5  6  2  0
  6  7  1  0
  7  8  2  0
  8  9  1  0
  9 10  2  0
 10 11  1  0
 11 12  2  0
 12 13  1  0
 13 14  1  0
 14 15  1  0
 15 16  3  0
 14 17  1  0
 17 18  1  0
 18 19  2  0
 18 20  1  0
 20 21  1  0
 21 22  1  0
 22 23  1  0
 23 24  1  0
 24 25  1  0
 25 26  1  0
 12 27  1  0
 27 28  1  0
 27 29  2  0
  8 30  1  0
 30 31  2  0
 31  5  1  0
 29  9  1  0
 25 20  1  0
 26 22  1  0
  1 32  1  0
  1 33  1  0
  1 34  1  0
  6 35  1  0
  7 36  1  0
 10 37  1  0
 11 38  1  0
 13 39  1  0
 13 40  1  0
 14 41  1  6
 17 42  1  0
 20 43  1  1
 21 44  1  0
 22 45  1  6
 23 46  1  0
 23 47  1  0
 24 48  1  0
 24 49  1  0
 25 50  1  6
 26 51  1  0
 26 52  1  0
 29 53  1  0
 30 54  1  0
 31 55  1  0
M  END
>  <UniqueID>  (35) 
35

>  <SMILES>  (35) 
CS(=O)(=O)c1ccc(-c2ccc(C[C@@H](C#N)NC(=O)[C@@H]3NC4CCC3C4)c(F)c2)cc1

>  <Energy>  (35) 
82.11281300450047

>  <Genealogy>  (35) 
CS(=O)(=O)c1ccc(-c2ccc(C[C@@H](C#N)NC(=O)[C@@H]3NC4CCC3C4)c(F)c2)cc1 (chirality)
CS(=O)(=O)c1ccc(-c2ccc(C[C@@H](C#N)NC(=O)[C@@H]3NC4CCC3C4)c(F)c2)cc1 (3D coordinates assigned)
CS(=O)(=O)c1ccc(-c2ccc(C[C@@H](C#N)NC(=O)[C@@H]3NC4CCC3C4)c(F)c2)cc1 (nonaromatic ring conformer: 82.11281300450047 kcal/mol)

>  <smiles>  (35) 
CS(=O)(=O)c1ccc(-c2ccc(CC(C#N)NC(=O)C3NC4CCC3C4)c(F)c2)cc1

>  <score_type>  (35) 
oracle

>  <origin>  (35) 
adgpu

>  <m_score__min__energy>  (35) 
-10.06

>  <m_primary>  (35) 
energy

$$$$
35:0
     RDKit          3D

 40 41  0  0  0  0  0  0  0  0999 V2000
   -7.8510   19.9410  -31.7100 C   0  0  0  0  0  0  0  0  0  0  0  0
   -8.3240   21.3960  -31.8370 C   0  0  0  0  0  0  0  0  0  0  0  0
   -9.8510   21.4640  -31.9710 C   0  0  0  0  0  0  0  0  0  0  0  0
   -7.8010   22.2830  -30.6840 C   0  0  0  0  0  0  0  0  0  0  0  0
   -6.4030   22.7970  -30.9090 C   0  0  0  0  0  0  0  0  0  0  0  0
   -6.0480   24.1010  -30.5470 C   0  0  0  0  0  0  0  0  0  0  0  0
   -4.7340   24.5170  -30.7600 C   0  0  0  0  0  0  0  0  0  0  0  0
   -4.3800   25.6830  -30.4460 O   0  0  0  0  0  0  0  0  0  0  0  0
   -3.8320   23.6600  -31.3060 N   0  0  0  0  0  0  0  0  0  0  0  0
   -4.1840   22.3910  -31.6560 C   0  0  0  0  0  0  0  0  0  0  0  0
   -3.2050   21.4960  -32.2260 N   0  0  0  0  0  0  0  0  0  0  0  0
   -3.6180   20.1950  -32.7750 C   0  0  0  0  0  0  0  0  0  0  0  0
   -2.7440   19.7460  -33.9710 C   0  0  0  0  0  0  0  0  0  0  0  0
   -1.4650   20.4870  -34.0900 N   0  0  0  0  0  0  0  0  0  0  0  0
   -0.5050   19.7240  -34.9050 C   0  0  0  0  0  0  0  0  0  0  0  0
   -0.8930   20.7800  -32.7640 C   0  0  0  0  0  0  0  0  0  0  0  0
   -1.7790   21.7930  -32.0340 C   0  0  0  0  0  0  0  0  0  0  0  0
   -5.4650   21.9760  -31.4530 N   0  0  0  0  0  0  0  0  0  0  0  0
   -7.7646   19.6751  -30.6461 H   0  0  0  0  0  0  0  0  0  0  0  0
   -8.5789   19.2750  -32.1964 H   0  0  0  0  0  0  0  0  0  0  0  0
   -6.8706   19.8304  -32.1964 H   0  0  0  0  0  0  0  0  0  0  0  0
   -7.8895   21.8066  -32.7604 H   0  0  0  0  0  0  0  0  0  0  0  0
  -10.3064   21.4843  -30.9699 H   0  0  0  0  0  0  0  0  0  0  0  0
  -10.1307   22.3755  -32.5196 H   0  0  0  0  0  0  0  0  0  0  0  0
  -10.2106   20.5810  -32.5196 H   0  0  0  0  0  0  0  0  0  0  0  0
   -8.4755   23.1449  -30.5741 H   0  0  0  0  0  0  0  0  0  0  0  0
   -7.7743   21.6568  -29.7801 H   0  0  0  0  0  0  0  0  0  0  0  0
   -6.7888   24.7830  -30.1042 H   0  0  0  0  0  0  0  0  0  0  0  0
   -3.5427   19.4380  -31.9805 H   0  0  0  0  0  0  0  0  0  0  0  0
   -4.6504   20.3012  -33.1396 H   0  0  0  0  0  0  0  0  0  0  0  0
   -2.5153   18.6767  -33.8511 H   0  0  0  0  0  0  0  0  0  0  0  0
   -3.3205   19.9538  -34.8845 H   0  0  0  0  0  0  0  0  0  0  0  0
   -1.6480   21.3910  -34.5890 H   0  0  0  0  0  0  0  0  0  0  0  0
    0.1835   19.1768  -34.2442 H   0  0  0  0  0  0  0  0  0  0  0  0
   -1.0495   19.0095  -35.5398 H   0  0  0  0  0  0  0  0  0  0  0  0
    0.0682   20.4157  -35.5398 H   0  0  0  0  0  0  0  0  0  0  0  0
   -0.8375   19.8519  -32.1762 H   0  0  0  0  0  0  0  0  0  0  0  0
    0.1164   21.1996  -32.8866 H   0  0  0  0  0  0  0  0  0  0  0  0
   -1.5485   21.7605  -30.9589 H   0  0  0  0  0  0  0  0  0  0  0  0
   -1.5752   22.7917  -32.4475 H   0  0  0  0  0  0  0  0  0  0  0  0
  1  2  1  0
  2  3  1  0
  2  4  1  0
  4  5  1  0
  5  6  2  0
  6  7  1  0
  7  8  2  0
  7  9  1  0
  9 10  2  0
 10 11  1  0
 11 12  1  0
 12 13  1  0
 13 14  1  0
 14 15  1  0
 14 16  1  0
 16 17  1  0
 10 18  1  0
 18  5  1  0
 17 11  1  0
  1 19  1  0
  1 20  1  0
  1 21  1  0
  2 22  1  0
  3 23  1  0
  3 24  1  0
  3 25  1  0
  4 26  1  0
  4 27  1  0
  6 28  1  0
 12 29  1  0
 12 30  1  0
 13 31  1  0
 13 32  1  0
 14 33  1  0
 15 34  1  0
 15 35  1  0
 15 36  1  0
 16 37  1  0
 16 38  1  0
 17 39  1  0
 17 40  1  0
M  CHG  2  14   1  18  -1
M  END
>  <UniqueID>  (36) 
36

>  <SMILES>  (36) 
CC(C)Cc1cc(=O)nc(N2CC[NH+](C)CC2)[n-]1

>  <Energy>  (36) 
39.3707150711127

>  <Genealogy>  (36) 
CC(C)Cc1cc(=O)nc(N2CC[NH+](C)CC2)[n-]1 (protonated)
CC(C)Cc1cc(=O)nc(N2CC[NH+](C)CC2)[n-]1 (3D coordinates assigned)
CC(C)Cc1cc(=O)nc(N2CC[NH+](C)CC2)[n-]1 (nonaromatic ring conformer: 39.3707150711127 kcal/mol)

>  <smiles>  (36) 
CC(C)Cc1cc(=O)nc(N2CCN(C)CC2)[nH]1

>  <score_type>  (36) 
oracle

>  <origin>  (36) 
adgpu

>  <m_score__min__energy>  (36) 
-6.9000000000000004

>  <m_primary>  (36) 
energy

$$$$
36:0
     RDKit          3D

 57 59  0  0  0  0  0  0  0  0999 V2000
    0.6010   23.6680  -36.0580 C   0  0  0  0  0  0  0  0  0  0  0  0
    1.4970   22.7490  -35.6860 C   0  0  0  0  0  0  0  0  0  0  0  0
    1.2480   21.2770  -35.8620 C   0  0  0  0  0  0  0  0  0  0  0  0
   -0.0920   20.9380  -35.3930 N   0  0  0  0  0  0  0  0  0  0  0  0
   -0.3150   20.2190  -34.1680 C   0  0  0  0  0  0  0  0  0  0  0  0
    0.6600   19.9680  -33.4080 O   0  0  0  0  0  0  0  0  0  0  0  0
   -1.6750   19.7780  -33.7730 C   0  0  0  0  0  0  0  0  0  0  0  0
   -2.6950   20.7290  -33.5880 C   0  0  0  0  0  0  0  0  0  0  0  0
   -3.9770   20.3290  -33.2040 C   0  0  0  0  0  0  0  0  0  0  0  0
   -4.2620   18.9750  -32.9850 C   0  0  0  0  0  0  0  0  0  0  0  0
   -5.5760   18.5660  -32.5830 N   0  0  0  0  0  0  0  0  0  0  0  0
   -5.7420   17.4130  -31.7010 C   0  0  0  0  0  0  0  0  0  0  0  0
   -6.9690   19.4750  -33.0990 S   0  0  0  0  0  0  0  0  0  0  0  0
   -8.2000   18.6260  -32.9470 O   0  0  0  0  0  0  0  0  0  0  0  0
   -6.8190   19.8530  -34.5460 O   0  0  0  0  0  0  0  0  0  0  0  0
   -7.1470   20.9470  -32.1470 C   0  0  0  0  0  0  0  0  0  0  0  0
   -8.2380   21.1210  -31.2840 C   0  0  0  0  0  0  0  0  0  0  0  0
   -8.3660   22.3000  -30.5460 C   0  0  0  0  0  0  0  0  0  0  0  0
   -7.4020   23.3050  -30.6560 C   0  0  0  0  0  0  0  0  0  0  0  0
   -6.2930   23.1350  -31.4940 C   0  0  0  0  0  0  0  0  0  0  0  0
   -5.3330   24.1960  -31.5870 N   0  0  0  0  0  0  0  0  0  0  0  0
   -4.2740   24.4710  -30.6600 C   0  0  0  0  0  0  0  0  0  0  0  0
   -3.8820   25.6560  -30.4830 O   0  0  0  0  0  0  0  0  0  0  0  0
   -3.5620   23.3590  -29.9840 C   0  0  0  0  0  0  0  0  0  0  0  0
   -2.8670   22.4280  -30.7780 C   0  0  0  0  0  0  0  0  0  0  0  0
   -2.2090   21.3420  -30.1980 C   0  0  0  0  0  0  0  0  0  0  0  0
   -2.2300   21.1690  -28.8160 C   0  0  0  0  0  0  0  0  0  0  0  0
   -2.8980   22.0900  -28.0070 C   0  0  0  0  0  0  0  0  0  0  0  0
   -3.5530   23.1990  -28.5700 C   0  0  0  0  0  0  0  0  0  0  0  0
   -4.2190   24.1850  -27.6450 C   0  0  0  0  0  0  0  0  0  0  0  0
   -6.1820   21.9580  -32.2560 C   0  0  0  0  0  0  0  0  0  0  0  0
   -3.2480   18.0230  -33.1650 C   0  0  0  0  0  0  0  0  0  0  0  0
   -1.9650   18.4200  -33.5500 C   0  0  0  0  0  0  0  0  0  0  0  0
    0.8172   24.7369  -35.9140 H   0  0  0  0  0  0  0  0  0  0  0  0
   -0.3528   23.3556  -36.5082 H   0  0  0  0  0  0  0  0  0  0  0  0
    2.4454   23.0796  -35.2374 H   0  0  0  0  0  0  0  0  0  0  0  0
    1.3378   21.0171  -36.9271 H   0  0  0  0  0  0  0  0  0  0  0  0
    1.9890   20.7128  -35.2767 H   0  0  0  0  0  0  0  0  0  0  0  0
   -0.9040   21.2840  -35.9510 H   0  0  0  0  0  0  0  0  0  0  0  0
   -2.4812   21.7962  -33.7470 H   0  0  0  0  0  0  0  0  0  0  0  0
   -4.7680   21.0821  -33.0727 H   0  0  0  0  0  0  0  0  0  0  0  0
   -5.6944   17.7433  -30.6528 H   0  0  0  0  0  0  0  0  0  0  0  0
   -6.7172   16.9418  -31.8931 H   0  0  0  0  0  0  0  0  0  0  0  0
   -4.9393   16.6858  -31.8931 H   0  0  0  0  0  0  0  0  0  0  0  0
   -8.9943   20.3280  -31.1879 H   0  0  0  0  0  0  0  0  0  0  0  0
   -9.2280   22.4374  -29.8766 H   0  0  0  0  0  0  0  0  0  0  0  0
   -7.5147   24.2358  -30.0807 H   0  0  0  0  0  0  0  0  0  0  0  0
   -2.8419   22.5577  -31.8700 H   0  0  0  0  0  0  0  0  0  0  0  0
   -1.6730   20.6216  -30.8334 H   0  0  0  0  0  0  0  0  0  0  0  0
   -1.7201   20.3065  -28.3620 H   0  0  0  0  0  0  0  0  0  0  0  0
   -2.9119   21.9462  -26.9165 H   0  0  0  0  0  0  0  0  0  0  0  0
   -4.0247   23.8974  -26.6012 H   0  0  0  0  0  0  0  0  0  0  0  0
   -3.8149   25.1913  -27.8293 H   0  0  0  0  0  0  0  0  0  0  0  0
   -5.3034   24.1859  -27.8293 H   0  0  0  0  0  0  0  0  0  0  0  0
   -5.3320   21.8299  -32.9423 H   0  0  0  0  0  0  0  0  0  0  0  0
   -3.4642   16.9569  -33.0020 H   0  0  0  0  0  0  0  0  0  0  0  0
   -1.1758   17.6648  -33.6797 H   0  0  0  0  0  0  0  0  0  0  0  0
  1  2  2  0
  2  3  1  0
  3  4  1  0
  4  5  1  0
  5  6  2  0
  5  7  1  0
  7  8  2  0
  8  9  1  0
  9 10  2  0
 10 11  1  0
 11 12  1  0
 11 13  1  0
 13 14  2  0
 13 15  2  0
 13 16  1  0
 16 17  2  0
 17 18  1  0
 18 19  2  0
 19 20  1  0
 20 21  1  0
 21 22  1  0
 22 23  2  0
 22 24  1  0
 24 25  2  0
 25 26  1  0
 26 27  2  0
 27 28  1  0
 28 29  2  0
 29 30  1  0
 20 31  2  0
 10 32  1  0
 32 33  2  0
 33  7  1  0
 31 16  1  0
 29 24  1  0
  1 34  1  0
  1 35  1  0
  2 36  1  0
  3 37  1  0
  3 38  1  0
  4 39  1  0
  8 40  1  0
  9 41  1  0
 12 42  1  0
 12 43  1  0
 12 44  1  0
 17 45  1  0
 18 46  1  0
 19 47  1  0
 25 48  1  0
 26 49  1  0
 27 50  1  0
 28 51  1  0
 30 52  1  0
 30 53  1  0
 30 54  1  0
 31 55  1  0
 32 56  1  0
 33 57  1  0
M  CHG  1  21  -1
M  END
>  <UniqueID>  (37) 
37

>  <SMILES>  (37) 
C=CCNC(=O)c1ccc(N(C)S(=O)(=O)c2cccc([N-]C(=O)c3ccccc3C)c2)cc1

>  <Energy>  (37) 
71.68678938076957

>  <Genealogy>  (37) 
C=CCNC(=O)c1ccc(N(C)S(=O)(=O)c2cccc([N-]C(=O)c3ccccc3C)c2)cc1 (protonated)
C=CCNC(=O)c1ccc(N(C)S(=O)(=O)c2cccc([N-]C(=O)c3ccccc3C)c2)cc1 (3D coordinates assigned)
C=CCNC(=O)c1ccc(N(C)S(=O)(=O)c2cccc([N-]C(=O)c3ccccc3C)c2)cc1 (optimized conformer: 71.68678938076957 kcal/mol)

>  <smiles>  (37) 
C=CCNC(=O)c1ccc(N(C)S(=O)(=O)c2cccc(NC(=O)c3ccccc3C)c2)cc1

>  <score_type>  (37) 
oracle

>  <origin>  (37) 
adgpu

>  <m_score__min__energy>  (37) 
-11.529999999999999

>  <m_primary>  (37) 
energy

$$$$
37:0
     RDKit          3D

 53 56  0  0  0  0  0  0  0  0999 V2000
   -3.7720   20.6450  -31.8640 O   0  0  0  0  0  0  0  0  0  0  0  0
   -2.9140   21.3060  -31.2190 C   0  0  0  0  0  0  0  0  0  0  0  0
   -3.3110   22.4720  -30.4760 N   0  0  0  0  0  0  0  0  0  0  0  0
   -4.5630   23.1530  -30.6750 C   0  0  0  0  0  0  0  0  0  0  0  0
   -5.7370   22.4360  -30.9640 C   0  0  0  0  0  0  0  0  0  0  0  0
   -6.9520   23.1060  -31.1610 C   0  0  0  0  0  0  0  0  0  0  0  0
   -8.4280   22.1910  -31.4820 S   0  0  0  0  0  0  0  0  0  0  0  0
   -9.4850   23.1250  -32.0040 O   0  0  0  0  0  0  0  0  0  0  0  0
   -8.9310   21.5980  -30.1950 O   0  0  0  0  0  0  0  0  0  0  0  0
   -8.1640   20.9080  -32.6430 N   0  0  0  0  0  0  0  0  0  0  0  0
   -9.2990   19.9800  -32.6750 C   0  0  0  0  0  0  0  0  0  0  0  0
   -8.9590   18.7750  -31.8100 C   0  0  0  0  0  0  0  0  0  0  0  0
   -7.4620   18.8450  -31.5770 C   0  0  0  0  0  0  0  0  0  0  0  0
   -6.9880   20.1040  -32.2880 C   0  0  0  0  0  0  0  0  0  0  0  0
   -6.9880   24.5050  -31.1020 C   0  0  0  0  0  0  0  0  0  0  0  0
   -5.8220   25.2260  -30.8410 C   0  0  0  0  0  0  0  0  0  0  0  0
   -4.6120   24.5570  -30.6310 C   0  0  0  0  0  0  0  0  0  0  0  0
   -3.4630   25.2960  -30.3680 O   0  0  0  0  0  0  0  0  0  0  0  0
   -1.5160   20.8440  -31.2120 C   0  0  0  0  0  0  0  0  0  0  0  0
   -1.0260   19.7010  -30.6080 C   0  0  0  0  0  0  0  0  0  0  0  0
    0.3220   19.7450  -30.8820 C   0  0  0  0  0  0  0  0  0  0  0  0
    1.5130   18.5630  -30.3770 S   0  0  0  0  0  0  0  0  0  0  0  0
    2.8210   18.8450  -31.0600 O   0  0  0  0  0  0  0  0  0  0  0  0
    1.0420   17.1880  -30.7580 O   0  0  0  0  0  0  0  0  0  0  0  0
    1.7360   18.6720  -28.6090 C   0  0  0  0  0  0  0  0  0  0  0  0
    0.6080   19.4450  -27.9840 C   0  0  0  0  0  0  0  0  0  0  0  0
    0.7030   20.8380  -27.8330 C   0  0  0  0  0  0  0  0  0  0  0  0
   -0.3330   21.5520  -27.2220 C   0  0  0  0  0  0  0  0  0  0  0  0
   -1.4650   20.8800  -26.7520 C   0  0  0  0  0  0  0  0  0  0  0  0
   -1.5620   19.4910  -26.8890 C   0  0  0  0  0  0  0  0  0  0  0  0
   -2.9780   18.6480  -26.2880 Cl  0  0  0  0  0  0  0  0  0  0  0  0
   -0.5260   18.7740  -27.4990 C   0  0  0  0  0  0  0  0  0  0  0  0
    0.6170   20.8440  -31.5990 N   0  0  0  0  0  0  0  0  0  0  0  0
   -0.5070   21.5160  -31.7990 N   0  0  0  0  0  0  0  0  0  0  0  0
   -2.7000   22.7890  -29.6920 H   0  0  0  0  0  0  0  0  0  0  0  0
   -5.7017   21.3389  -31.0362 H   0  0  0  0  0  0  0  0  0  0  0  0
  -10.1973   20.4781  -32.2815 H   0  0  0  0  0  0  0  0  0  0  0  0
   -9.4961   19.6596  -33.7087 H   0  0  0  0  0  0  0  0  0  0  0  0
   -9.4987   18.8257  -30.8529 H   0  0  0  0  0  0  0  0  0  0  0  0
   -9.2502   17.8320  -32.2957 H   0  0  0  0  0  0  0  0  0  0  0  0
   -7.2448   18.9087  -30.5005 H   0  0  0  0  0  0  0  0  0  0  0  0
   -6.9513   17.9487  -31.9591 H   0  0  0  0  0  0  0  0  0  0  0  0
   -6.3308   20.6817  -31.6214 H   0  0  0  0  0  0  0  0  0  0  0  0
   -6.4261   19.8363  -33.1950 H   0  0  0  0  0  0  0  0  0  0  0  0
   -7.9376   25.0366  -31.2618 H   0  0  0  0  0  0  0  0  0  0  0  0
   -5.8548   26.3248  -30.8003 H   0  0  0  0  0  0  0  0  0  0  0  0
   -1.5814   18.9380  -30.0429 H   0  0  0  0  0  0  0  0  0  0  0  0
    1.7595   17.6578  -28.1836 H   0  0  0  0  0  0  0  0  0  0  0  0
    2.6827   19.1919  -28.4006 H   0  0  0  0  0  0  0  0  0  0  0  0
    1.5950   21.3693  -28.1964 H   0  0  0  0  0  0  0  0  0  0  0  0
   -0.2568   22.6438  -27.1112 H   0  0  0  0  0  0  0  0  0  0  0  0
   -2.2800   21.4435  -26.2742 H   0  0  0  0  0  0  0  0  0  0  0  0
   -0.6006   17.6811  -27.5987 H   0  0  0  0  0  0  0  0  0  0  0  0
  1  2  2  0
  2  3  1  0
  3  4  1  0
  4  5  2  0
  5  6  1  0
  6  7  1  0
  7  8  2  0
  7  9  2  0
  7 10  1  0
 10 11  1  0
 11 12  1  0
 12 13  1  0
 13 14  1  0
  6 15  2  0
 15 16  1  0
 16 17  2  0
 17 18  1  0
  2 19  1  0
 19 20  1  0
 20 21  2  0
 21 22  1  0
 22 23  2  0
 22 24  2  0
 22 25  1  0
 25 26  1  0
 26 27  2  0
 27 28  1  0
 28 29  2  0
 29 30  1  0
 30 31  1  0
 30 32  2  0
 21 33  1  0
 33 34  1  0
 17  4  1  0
 34 19  2  0
 14 10  1  0
 32 26  1  0
  3 35  1  0
  5 36  1  0
 11 37  1  0
 11 38  1  0
 12 39  1  0
 12 40  1  0
 13 41  1  0
 13 42  1  0
 14 43  1  0
 14 44  1  0
 15 45  1  0
 16 46  1  0
 20 47  1  0
 25 48  1  0
 25 49  1  0
 27 50  1  0
 28 51  1  0
 29 52  1  0
 32 53  1  0
M  CHG  2  18  -1  33  -1
M  END
>  <UniqueID>  (38) 
38

>  <SMILES>  (38) 
O=C(Nc1cc(S(=O)(=O)N2CCCC2)ccc1[O-])c1cc(S(=O)(=O)Cc2cccc(Cl)c2)[n-]n1

>  <Energy>  (38) 
85.52434773940341

>  <Genealogy>  (38) 
O=C(Nc1cc(S(=O)(=O)N2CCCC2)ccc1[O-])c1cc(S(=O)(=O)Cc2cccc(Cl)c2)[n-]n1 (protonated)
O=C(Nc1cc(S(=O)(=O)N2CCCC2)ccc1[O-])c1cc(S(=O)(=O)Cc2cccc(Cl)c2)[n-]n1 (3D coordinates assigned)
O=C(Nc1cc(S(=O)(=O)N2CCCC2)ccc1[O-])c1cc(S(=O)(=O)Cc2cccc(Cl)c2)[n-]n1 (nonaromatic ring conformer: 85.52434773940341 kcal/mol)

>  <smiles>  (38) 
O=C(Nc1cc(S(=O)(=O)N2CCCC2)ccc1O)c1cc(S(=O)(=O)Cc2cccc(Cl)c2)[nH]n1

>  <score_type>  (38) 
oracle

>  <origin>  (38) 
adgpu

>  <m_score__min__energy>  (38) 
-13.699999999999999

>  <m_primary>  (38) 
energy

$$$$
38:0
     RDKit          3D

 64 67  0  0  0  0  0  0  0  0999 V2000
   -0.8580   29.0830  -24.8900 C   0  0  0  0  0  0  0  0  0  0  0  0
   -1.0870   27.6360  -25.3560 C   0  0  0  0  0  0  0  0  0  0  0  0
   -0.2550   27.2940  -26.6040 C   0  0  0  0  0  0  0  0  0  0  0  0
    1.2310   27.0820  -26.2730 C   0  0  0  0  0  0  0  0  0  0  0  0
    1.4510   26.1150  -25.1810 N   0  0  0  0  0  0  0  0  0  0  0  0
    1.2840   24.4470  -25.6880 S   0  0  0  0  0  0  0  0  0  0  0  0
    2.5300   24.0120  -26.4090 O   0  0  0  0  0  0  0  0  0  0  0  0
    1.0780   23.5360  -24.5120 O   0  0  0  0  0  0  0  0  0  0  0  0
   -0.0780   24.2960  -26.7960 C   0  0  0  0  0  0  0  0  0  0  0  0
    0.1480   24.2600  -28.1770 C   0  0  0  0  0  0  0  0  0  0  0  0
   -0.9270   24.1580  -29.0650 C   0  0  0  0  0  0  0  0  0  0  0  0
   -2.2470   24.1020  -28.5840 C   0  0  0  0  0  0  0  0  0  0  0  0
   -3.3950   23.9900  -29.5160 C   0  0  0  0  0  0  0  0  0  0  0  0
   -3.5640   24.8730  -30.4020 O   0  0  0  0  0  0  0  0  0  0  0  0
   -4.3040   22.8800  -29.4400 N   0  0  0  0  0  0  0  0  0  0  0  0
   -5.5140   22.8280  -30.2120 C   0  0  0  0  0  0  0  0  0  0  0  0
   -5.8060   21.6610  -30.9320 C   0  0  0  0  0  0  0  0  0  0  0  0
   -6.9500   21.5830  -31.7360 C   0  0  0  0  0  0  0  0  0  0  0  0
   -7.2980   20.1110  -32.6510 S   0  0  0  0  0  0  0  0  0  0  0  0
   -8.7020   19.6690  -32.3500 O   0  0  0  0  0  0  0  0  0  0  0  0
   -7.2110   20.4170  -34.1210 O   0  0  0  0  0  0  0  0  0  0  0  0
   -6.1980   18.8040  -32.2770 N   0  0  0  0  0  0  0  0  0  0  0  0
   -5.0910   18.7280  -33.2270 C   0  0  0  0  0  0  0  0  0  0  0  0
   -4.6090   17.2860  -33.2100 C   0  0  0  0  0  0  0  0  0  0  0  0
   -5.7590   16.4840  -32.6170 C   0  0  0  0  0  0  0  0  0  0  0  0
   -6.8540   17.5000  -32.3360 C   0  0  0  0  0  0  0  0  0  0  0  0
   -7.8260   22.6740  -31.7940 C   0  0  0  0  0  0  0  0  0  0  0  0
   -7.5600   23.8300  -31.0590 C   0  0  0  0  0  0  0  0  0  0  0  0
   -6.4160   23.9160  -30.2530 C   0  0  0  0  0  0  0  0  0  0  0  0
   -6.2140   25.0840  -29.4470 N   0  0  0  0  0  0  0  0  0  0  0  0
   -2.4660   24.1350  -27.1950 C   0  0  0  0  0  0  0  0  0  0  0  0
   -1.3890   24.2360  -26.3090 C   0  0  0  0  0  0  0  0  0  0  0  0
    0.6780   26.4240  -23.9630 C   0  0  0  0  0  0  0  0  0  0  0  0
   -0.8220   26.6210  -24.2320 C   0  0  0  0  0  0  0  0  0  0  0  0
   -0.8525   29.1176  -23.7906 H   0  0  0  0  0  0  0  0  0  0  0  0
    0.1083   29.4430  -25.2730 H   0  0  0  0  0  0  0  0  0  0  0  0
   -1.6659   29.7238  -25.2730 H   0  0  0  0  0  0  0  0  0  0  0  0
   -2.1497   27.5636  -25.6308 H   0  0  0  0  0  0  0  0  0  0  0  0
   -0.6527   26.3718  -27.0527 H   0  0  0  0  0  0  0  0  0  0  0  0
   -0.3274   28.1425  -27.3002 H   0  0  0  0  0  0  0  0  0  0  0  0
    1.7408   26.7126  -27.1750 H   0  0  0  0  0  0  0  0  0  0  0  0
    1.6326   28.0498  -25.9384 H   0  0  0  0  0  0  0  0  0  0  0  0
    1.1759   24.3122  -28.5652 H   0  0  0  0  0  0  0  0  0  0  0  0
   -0.7387   24.1213  -30.1481 H   0  0  0  0  0  0  0  0  0  0  0  0
   -3.9640   21.9880  -29.0150 H   0  0  0  0  0  0  0  0  0  0  0  0
   -5.1288   20.7968  -30.8646 H   0  0  0  0  0  0  0  0  0  0  0  0
   -5.4353   19.0022  -34.2351 H   0  0  0  0  0  0  0  0  0  0  0  0
   -4.2825   19.4220  -32.9536 H   0  0  0  0  0  0  0  0  0  0  0  0
   -4.3860   16.9424  -34.2309 H   0  0  0  0  0  0  0  0  0  0  0  0
   -3.6844   17.1699  -32.6256 H   0  0  0  0  0  0  0  0  0  0  0  0
   -6.1105   15.7270  -33.3335 H   0  0  0  0  0  0  0  0  0  0  0  0
   -5.4566   15.9450  -31.7071 H   0  0  0  0  0  0  0  0  0  0  0  0
   -7.6023   17.4862  -33.1421 H   0  0  0  0  0  0  0  0  0  0  0  0
   -7.3782   17.2732  -31.3959 H   0  0  0  0  0  0  0  0  0  0  0  0
   -8.7277   22.6195  -32.4217 H   0  0  0  0  0  0  0  0  0  0  0  0
   -8.2542   24.6816  -31.1125 H   0  0  0  0  0  0  0  0  0  0  0  0
   -5.3940   25.7140  -29.5890 H   0  0  0  0  0  0  0  0  0  0  0  0
   -6.8480   25.2890  -28.6430 H   0  0  0  0  0  0  0  0  0  0  0  0
   -3.4923   24.0809  -26.8028 H   0  0  0  0  0  0  0  0  0  0  0  0
   -1.5727   24.2684  -25.2249 H   0  0  0  0  0  0  0  0  0  0  0  0
    0.7996   25.5938  -23.2517 H   0  0  0  0  0  0  0  0  0  0  0  0
    1.0655   27.3720  -23.5615 H   0  0  0  0  0  0  0  0  0  0  0  0
   -1.2595   25.6535  -24.5192 H   0  0  0  0  0  0  0  0  0  0  0  0
   -1.2795   27.0126  -23.3115 H   0  0  0  0  0  0  0  0  0  0  0  0
  1  2  1  0
  2  3  1  0
  3  4  1  0
  4  5  1  0
  5  6  1  0
  6  7  2  0
  6  8  2  0
  6  9  1  0
  9 10  2  0
 10 11  1  0
 11 12  2  0
 12 13  1  0
 13 14  2  0
 13 15  1  0
 15 16  1  0
 16 17  2  0
 17 18  1  0
 18 19  1  0
 19 20  2  0
 19 21  2  0
 19 22  1  0
 22 23  1  0
 23 24  1  0
 24 25  1  0
 25 26  1  0
 18 27  2  0
 27 28  1  0
 28 29  2  0
 29 30  1  0
 12 31  1  0
 31 32  2  0
  5 33  1  0
 33 34  1  0
 34  2  1  0
 32  9  1  0
 29 16  1  0
 26 22  1  0
  1 35  1  0
  1 36  1  0
  1 37  1  0
  2 38  1  0
  3 39  1  0
  3 40  1  0
  4 41  1  0
  4 42  1  0
 10 43  1  0
 11 44  1  0
 15 45  1  0
 17 46  1  0
 23 47  1  0
 23 48  1  0
 24 49  1  0
 24 50  1  0
 25 51  1  0
 25 52  1  0
 26 53  1  0
 26 54  1  0
 27 55  1  0
 28 56  1  0
 30 57  1  0
 30 58  1  0
 31 59  1  0
 32 60  1  0
 33 61  1  0
 33 62  1  0
 34 63  1  0
 34 64  1  0
M  END
>  <UniqueID>  (39) 
39

>  <SMILES>  (39) 
CC1CCN(S(=O)(=O)c2ccc(C(=O)Nc3cc(S(=O)(=O)N4CCCC4)ccc3N)cc2)CC1

>  <Energy>  (39) 
74.0533453951579

>  <Genealogy>  (39) 
CC1CCN(S(=O)(=O)c2ccc(C(=O)Nc3cc(S(=O)(=O)N4CCCC4)ccc3N)cc2)CC1 (3D coordinates assigned)
CC1CCN(S(=O)(=O)c2ccc(C(=O)Nc3cc(S(=O)(=O)N4CCCC4)ccc3N)cc2)CC1 (nonaromatic ring conformer: 74.0533453951579 kcal/mol)

>  <smiles>  (39) 
CC1CCN(S(=O)(=O)c2ccc(C(=O)Nc3cc(S(=O)(=O)N4CCCC4)ccc3N)cc2)CC1

>  <score_type>  (39) 
oracle

>  <origin>  (39) 
adgpu

>  <m_score__min__energy>  (39) 
-10.789999999999999

>  <m_primary>  (39) 
energy

$$$$
39:0
     RDKit          3D

 44 46  0  0  1  0  0  0  0  0999 V2000
   -0.2330   22.6890  -24.8880 C   0  0  0  0  0  0  0  0  0  0  0  0
   -0.7730   23.2430  -26.1100 N   0  0  0  0  0  0  0  0  0  0  0  0
   -1.4620   22.4900  -26.8950 C   0  0  0  0  0  0  0  0  0  0  0  0
   -1.6370   21.2120  -26.5160 N   0  0  0  0  0  0  0  0  0  0  0  0
   -2.3350   20.4140  -27.3160 C   0  0  0  0  0  0  0  0  0  0  0  0
   -2.8610   20.8420  -28.4740 N   0  0  0  0  0  0  0  0  0  0  0  0
   -2.7220   22.1320  -28.9230 C   0  0  0  0  0  0  0  0  0  0  0  0
   -3.3190   22.4620  -30.1270 N   0  0  0  0  0  0  0  0  0  0  0  0
   -4.5140   23.1590  -30.3980 C   0  0  0  0  0  0  0  0  0  0  0  0
   -5.6650   22.3870  -30.5440 C   0  0  0  0  0  0  0  0  0  0  0  0
   -6.8870   22.9240  -30.8600 C   0  0  0  0  0  0  0  0  0  0  0  0
   -8.2370   21.8220  -31.0020 S   0  0  0  0  0  0  0  0  0  0  0  0
   -9.1240   22.3640  -32.0950 O   0  0  0  0  0  0  0  0  0  0  0  0
   -9.0540   21.9090  -29.7160 O   0  0  0  0  0  0  0  0  0  0  0  0
   -7.8460   20.2270  -31.3200 N   0  0  0  0  0  0  0  0  0  0  0  0
   -8.8780   19.2880  -31.5120 C   0  0  0  0  0  0  0  0  0  0  0  0
   -8.1920   18.1100  -32.1640 C   0  0  0  0  0  0  0  0  0  0  0  0
   -7.1280   18.7570  -33.0170 C   0  0  0  0  0  0  0  0  0  0  0  0
   -6.7380   19.9640  -32.1670 C   0  0  0  0  0  0  0  0  0  0  0  0
   -6.9870   24.2840  -31.0400 C   0  0  0  0  0  0  0  0  0  0  0  0
   -5.8530   25.0760  -30.8990 C   0  0  0  0  0  0  0  0  0  0  0  0
   -4.6130   24.5200  -30.5780 C   0  0  0  0  0  0  0  0  0  0  0  0
   -3.4730   25.3060  -30.4360 O   0  0  0  0  0  0  0  0  0  0  0  0
   -2.0040   22.9500  -28.0930 C   0  0  0  0  0  0  0  0  0  0  0  0
   -1.8290   24.3070  -28.4280 C   0  0  0  0  0  0  0  0  0  0  0  0
   -1.6770   25.4020  -28.6860 N   0  0  0  0  0  0  0  0  0  0  0  0
   -0.7077   23.1760  -24.0235 H   0  0  0  0  0  0  0  0  0  0  0  0
   -0.4334   21.6079  -24.8556 H   0  0  0  0  0  0  0  0  0  0  0  0
    0.8529   22.8617  -24.8556 H   0  0  0  0  0  0  0  0  0  0  0  0
   -1.2530   20.8260  -25.6390 H   0  0  0  0  0  0  0  0  0  0  0  0
   -2.4872   19.3658  -27.0190 H   0  0  0  0  0  0  0  0  0  0  0  0
   -2.8090   22.1380  -31.0210 H   0  0  0  0  0  0  0  0  0  0  0  0
   -5.5903   21.2991  -30.3995 H   0  0  0  0  0  0  0  0  0  0  0  0
   -9.3236   18.9961  -30.5496 H   0  0  0  0  0  0  0  0  0  0  0  0
   -9.7015   19.6865  -32.1228 H   0  0  0  0  0  0  0  0  0  0  0  0
   -7.7432   17.4479  -31.4089 H   0  0  0  0  0  0  0  0  0  0  0  0
   -8.8808   17.4763  -32.7418 H   0  0  0  0  0  0  0  0  0  0  0  0
   -6.2729   18.0824  -33.1709 H   0  0  0  0  0  0  0  0  0  0  0  0
   -7.4666   19.0167  -34.0309 H   0  0  0  0  0  0  0  0  0  0  0  0
   -5.8451   19.7350  -31.5667 H   0  0  0  0  0  0  0  0  0  0  0  0
   -6.4977   20.8350  -32.7944 H   0  0  0  0  0  0  0  0  0  0  0  0
   -7.9551   24.7408  -31.2931 H   0  0  0  0  0  0  0  0  0  0  0  0
   -5.9344   26.1634  -31.0434 H   0  0  0  0  0  0  0  0  0  0  0  0
   -3.5030   26.0300  -29.7310 H   0  0  0  0  0  0  0  0  0  0  0  0
  1  2  1  0
  2  3  2  0
  3  4  1  0
  4  5  1  0
  5  6  2  0
  6  7  1  0
  7  8  1  0
  8  9  1  0
  9 10  2  0
 10 11  1  0
 11 12  1  0
 12 13  2  0
 12 14  2  0
 12 15  1  0
 15 16  1  0
 16 17  1  0
 17 18  1  0
 18 19  1  0
 11 20  2  0
 20 21  1  0
 21 22  2  0
 22 23  1  0
  7 24  2  0
 24 25  1  0
 25 26  3  0
 24  3  1  0
 22  9  1  0
 19 15  1  0
  1 27  1  0
  1 28  1  0
  1 29  1  0
  4 30  1  0
  5 31  1  0
  8 32  1  0
 10 33  1  0
 16 34  1  0
 16 35  1  0
 17 36  1  0
 17 37  1  0
 18 38  1  0
 18 39  1  0
 19 40  1  0
 19 41  1  0
 20 42  1  0
 21 43  1  0
 23 44  1  0
M  END
>  <smiles>  (40) 
CN=c1[nH]cnc(Nc2cc(S(=O)(=O)N3CCCC3)ccc2O)c1C#N

>  <score_type>  (40) 
oracle

>  <origin>  (40) 
adgpu

>  <m_score__min__energy>  (40) 
-9.6799999999999997

>  <m_primary>  (40) 
energy

$$$$
40:0
     RDKit          3D

 36 38  0  0  0  0  0  0  0  0999 V2000
   -7.9200   16.1197  -32.8292 H   0  0  0  0  0  0  0  0  0  0  0  0
   -7.2320   16.9290  -33.1150 C   0  0  0  0  0  0  0  0  0  0  0  0
   -6.0340   16.6570  -33.7930 C   0  0  0  0  0  0  0  0  0  0  0  0
   -5.6270   14.9920  -34.1920 Cl  0  0  0  0  0  0  0  0  0  0  0  0
   -5.1840   17.7420  -34.1370 C   0  0  0  0  0  0  0  0  0  0  0  0
   -3.8920   17.5110  -34.8610 C   0  0  0  0  0  0  0  0  0  0  0  0
   -3.0829   17.3663  -34.1300 H   0  0  0  0  0  0  0  0  0  0  0  0
   -3.9806   16.6144  -35.4922 H   0  0  0  0  0  0  0  0  0  0  0  0
   -3.6644   18.3827  -35.4922 H   0  0  0  0  0  0  0  0  0  0  0  0
   -5.5400   19.0200  -33.8070 N   0  0  0  0  0  0  0  0  0  0  0  0
   -6.7070   19.2290  -33.1520 C   0  0  0  0  0  0  0  0  0  0  0  0
   -7.1880   20.4220  -32.7640 N   0  0  0  0  0  0  0  0  0  0  0  0
   -8.3540   20.0360  -32.1750 C   0  0  0  0  0  0  0  0  0  0  0  0
   -9.1950   20.8630  -31.6330 N   0  0  0  0  0  0  0  0  0  0  0  0
   -8.9900   22.3090  -31.5920 C   0  0  0  0  0  0  0  0  0  0  0  0
   -8.8001   22.6764  -32.6113 H   0  0  0  0  0  0  0  0  0  0  0  0
   -9.8921   22.7838  -31.1786 H   0  0  0  0  0  0  0  0  0  0  0  0
   -7.7920   22.6590  -30.6980 C   0  0  0  0  0  0  0  0  0  0  0  0
   -8.1620   22.9376  -29.7003 H   0  0  0  0  0  0  0  0  0  0  0  0
   -7.1364   21.7773  -30.6454 H   0  0  0  0  0  0  0  0  0  0  0  0
   -7.0040   23.7850  -31.2480 N   0  0  0  0  0  0  0  0  0  0  0  0
   -5.8370   23.3040  -32.0300 C   0  0  0  0  0  0  0  0  0  0  0  0
   -6.0024   22.2519  -32.3051 H   0  0  0  0  0  0  0  0  0  0  0  0
   -5.7414   23.9372  -32.9244 H   0  0  0  0  0  0  0  0  0  0  0  0
   -4.5260   23.4090  -31.2280 C   0  0  0  0  0  0  0  0  0  0  0  0
   -4.6145   22.7762  -30.3326 H   0  0  0  0  0  0  0  0  0  0  0  0
   -3.7137   23.0813  -31.8934 H   0  0  0  0  0  0  0  0  0  0  0  0
   -4.2170   24.7320  -30.8140 O   0  0  0  0  0  0  0  0  0  0  0  0
   -5.3620   25.5470  -30.6040 C   0  0  0  0  0  0  0  0  0  0  0  0
   -5.1331   26.2693  -29.8066 H   0  0  0  0  0  0  0  0  0  0  0  0
   -5.5879   26.0384  -31.5619 H   0  0  0  0  0  0  0  0  0  0  0  0
   -6.6160   24.7550  -30.1970 C   0  0  0  0  0  0  0  0  0  0  0  0
   -6.4084   24.2094  -29.2647 H   0  0  0  0  0  0  0  0  0  0  0  0
   -7.4446   25.4646  -30.0560 H   0  0  0  0  0  0  0  0  0  0  0  0
   -8.5690   18.6980  -32.2010 N   0  0  0  0  0  0  0  0  0  0  0  0
   -7.5120   18.2190  -32.8250 N   0  0  0  0  0  0  0  0  0  0  0  0
  1  2  1  0
  2  3  2  0
  3  4  1  0
  3  5  1  0
  5  6  1  0
  6  7  1  0
  6  8  1  0
  6  9  1  0
  5 10  2  0
 10 11  1  0
 11 12  2  0
 12 13  1  0
 13 14  2  0
 14 15  1  0
 15 16  1  0
 15 17  1  0
 15 18  1  0
 18 19  1  0
 18 20  1  0
 18 21  1  0
 21 22  1  0
 22 23  1  0
 22 24  1  0
 22 25  1  0
 25 26  1  0
 25 27  1  0
 25 28  1  0
 28 29  1  0
 29 30  1  0
 29 31  1  0
 29 32  1  0
 32 33  1  0
 32 34  1  0
 13 35  1  0
 35 36  1  0
 36  2  1  0
 36 11  1  0
 32 21  1  0
M  CHG  1  35  -1
M  END
>  <UniqueID>  (41) 
40

>  <SMILES>  (41) 
Cc1nc2n/c(=N\CCN3CCOCC3)[n-]n2cc1Cl

>  <Energy>  (41) 
89.82245860845151

>  <Genealogy>  (41) 
Cc1nc2nc(=NCCN3CCOCC3)[n-]n2cc1Cl (protonated)
Cc1nc2n/c(=N\CCN3CCOCC3)[n-]n2cc1Cl (cis-trans isomerization)
Cc1nc2n/c(=N\CCN3CCOCC3)[n-]n2cc1Cl (3D coordinates assigned)
Cc1nc2n/c(=N\CCN3CCOCC3)[n-]n2cc1Cl (nonaromatic ring conformer: 89.82245860845151 kcal/mol)

>  <smiles>  (41) 
Cc1nc2nc(=NCCN3CCOCC3)[nH]n2cc1Cl

>  <score_type>  (41) 
oracle

>  <origin>  (41) 
adgpu

>  <m_score__min__energy>  (41) 
-7.8300000000000001

>  <m_primary>  (41) 
energy

$$$$
41:0
     RDKit          3D

 73 77  0  0  0  0  0  0  0  0999 V2000
   -3.8890   25.3920  -30.6570 O   0  0  0  0  0  0  0  0  0  0  0  0
   -4.1650   24.1750  -30.4830 C   0  0  0  0  0  0  0  0  0  0  0  0
   -5.4930   23.7840  -30.1100 N   0  0  0  0  0  0  0  0  0  0  0  0
   -6.3540   22.9040  -30.8480 C   0  0  0  0  0  0  0  0  0  0  0  0
   -7.5210   23.4250  -31.4210 C   0  0  0  0  0  0  0  0  0  0  0  0
   -8.3880   22.5940  -32.1360 C   0  0  0  0  0  0  0  0  0  0  0  0
   -8.1020   21.2340  -32.2740 C   0  0  0  0  0  0  0  0  0  0  0  0
   -6.9500   20.6950  -31.6850 C   0  0  0  0  0  0  0  0  0  0  0  0
   -6.5760   18.9810  -31.8370 S   0  0  0  0  0  0  0  0  0  0  0  0
   -5.1270   18.7440  -31.5090 O   0  0  0  0  0  0  0  0  0  0  0  0
   -7.4320   18.2210  -30.8610 O   0  0  0  0  0  0  0  0  0  0  0  0
   -6.9150   18.4660  -33.4760 N   0  0  0  0  0  0  0  0  0  0  0  0
   -5.9330   19.0140  -34.4460 C   0  0  0  0  0  0  0  0  0  0  0  0
   -5.0830   17.9420  -35.1540 C   0  0  0  0  0  0  0  0  0  0  0  0
   -4.6150   16.8790  -34.1600 C   0  0  0  0  0  0  0  0  0  0  0  0
   -5.7960   16.2160  -33.4260 C   0  0  0  0  0  0  0  0  0  0  0  0
   -7.1120   17.0050  -33.5630 C   0  0  0  0  0  0  0  0  0  0  0  0
   -6.0830   21.5280  -30.9660 C   0  0  0  0  0  0  0  0  0  0  0  0
   -3.1000   23.1520  -30.5950 C   0  0  0  0  0  0  0  0  0  0  0  0
   -3.1330   22.2410  -31.6640 C   0  0  0  0  0  0  0  0  0  0  0  0
   -2.1900   21.2080  -31.7560 C   0  0  0  0  0  0  0  0  0  0  0  0
   -2.2700   20.0550  -33.0900 S   0  0  0  0  0  0  0  0  0  0  0  0
   -3.4900   20.3370  -33.9210 O   0  0  0  0  0  0  0  0  0  0  0  0
   -2.4010   18.6660  -32.5290 O   0  0  0  0  0  0  0  0  0  0  0  0
   -0.8500   20.1410  -34.1030 N   0  0  0  0  0  0  0  0  0  0  0  0
    0.2880   19.4710  -33.4530 C   0  0  0  0  0  0  0  0  0  0  0  0
    1.4640   19.3310  -34.4390 C   0  0  0  0  0  0  0  0  0  0  0  0
    1.3990   20.3610  -35.5790 C   0  0  0  0  0  0  0  0  0  0  0  0
    0.8570   21.7040  -35.0810 C   0  0  0  0  0  0  0  0  0  0  0  0
   -0.5260   21.5500  -34.4090 C   0  0  0  0  0  0  0  0  0  0  0  0
   -1.1980   21.0890  -30.7760 C   0  0  0  0  0  0  0  0  0  0  0  0
   -1.1360   22.0040  -29.7240 C   0  0  0  0  0  0  0  0  0  0  0  0
   -2.0700   23.0450  -29.6300 C   0  0  0  0  0  0  0  0  0  0  0  0
   -1.9240   24.0180  -28.5860 N   0  0  0  0  0  0  0  0  0  0  0  0
   -2.9120   24.2090  -27.5400 C   0  0  0  0  0  0  0  0  0  0  0  0
   -2.3310   25.2830  -26.6300 C   0  0  0  0  0  0  0  0  0  0  0  0
   -1.2440   25.9800  -27.4490 C   0  0  0  0  0  0  0  0  0  0  0  0
   -0.8620   25.0060  -28.5580 C   0  0  0  0  0  0  0  0  0  0  0  0
   -7.7564   24.4935  -31.3077 H   0  0  0  0  0  0  0  0  0  0  0  0
   -9.2979   23.0122  -32.5912 H   0  0  0  0  0  0  0  0  0  0  0  0
   -8.7817   20.5850  -32.8457 H   0  0  0  0  0  0  0  0  0  0  0  0
   -6.4832   19.5801  -35.2121 H   0  0  0  0  0  0  0  0  0  0  0  0
   -5.2366   19.6426  -33.8716 H   0  0  0  0  0  0  0  0  0  0  0  0
   -5.6872   17.4620  -35.9380 H   0  0  0  0  0  0  0  0  0  0  0  0
   -4.1995   18.4263  -35.5954 H   0  0  0  0  0  0  0  0  0  0  0  0
   -4.0558   16.1045  -34.7053 H   0  0  0  0  0  0  0  0  0  0  0  0
   -3.9812   17.3721  -33.4082 H   0  0  0  0  0  0  0  0  0  0  0  0
   -5.9464   15.2091  -33.8427 H   0  0  0  0  0  0  0  0  0  0  0  0
   -5.5418   16.1852  -32.3562 H   0  0  0  0  0  0  0  0  0  0  0  0
   -7.5636   16.7687  -34.5378 H   0  0  0  0  0  0  0  0  0  0  0  0
   -7.7643   16.7085  -32.7284 H   0  0  0  0  0  0  0  0  0  0  0  0
   -5.1857   21.1044  -30.4912 H   0  0  0  0  0  0  0  0  0  0  0  0
   -3.9082   22.3396  -32.4381 H   0  0  0  0  0  0  0  0  0  0  0  0
    0.6111   20.0653  -32.5856 H   0  0  0  0  0  0  0  0  0  0  0  0
   -0.0265   18.4682  -33.1283 H   0  0  0  0  0  0  0  0  0  0  0  0
    2.4056   19.4726  -33.8882 H   0  0  0  0  0  0  0  0  0  0  0  0
    1.4070   18.3288  -34.8888 H   0  0  0  0  0  0  0  0  0  0  0  0
    2.4101   20.5106  -35.9856 H   0  0  0  0  0  0  0  0  0  0  0  0
    0.7213   19.9783  -36.3563 H   0  0  0  0  0  0  0  0  0  0  0  0
    1.5634   22.1243  -34.3500 H   0  0  0  0  0  0  0  0  0  0  0  0
    0.7436   22.3704  -35.9488 H   0  0  0  0  0  0  0  0  0  0  0  0
   -0.5290   22.1249  -33.4712 H   0  0  0  0  0  0  0  0  0  0  0  0
   -1.2843   21.9232  -35.1130 H   0  0  0  0  0  0  0  0  0  0  0  0
   -0.4645   20.2714  -30.8351 H   0  0  0  0  0  0  0  0  0  0  0  0
   -0.3480   21.9075  -28.9626 H   0  0  0  0  0  0  0  0  0  0  0  0
   -3.8679   24.5435  -27.9693 H   0  0  0  0  0  0  0  0  0  0  0  0
   -3.1173   23.2762  -26.9944 H   0  0  0  0  0  0  0  0  0  0  0  0
   -3.1113   26.0016  -26.3390 H   0  0  0  0  0  0  0  0  0  0  0  0
   -1.9254   24.8519  -25.7028 H   0  0  0  0  0  0  0  0  0  0  0  0
   -1.6306   26.9158  -27.8789 H   0  0  0  0  0  0  0  0  0  0  0  0
   -0.3758   26.2409  -26.8259 H   0  0  0  0  0  0  0  0  0  0  0  0
   -0.7971   25.5287  -29.5237 H   0  0  0  0  0  0  0  0  0  0  0  0
    0.1205   24.5454  -28.3773 H   0  0  0  0  0  0  0  0  0  0  0  0
  1  2  2  0
  2  3  1  0
  3  4  1  0
  4  5  2  0
  5  6  1  0
  6  7  2  0
  7  8  1  0
  8  9  1  0
  9 10  2  0
  9 11  2  0
  9 12  1  0
 12 13  1  0
 13 14  1  0
 14 15  1  0
 15 16  1  0
 16 17  1  0
  8 18  2  0
  2 19  1  0
 19 20  2  0
 20 21  1  0
 21 22  1  0
 22 23  2  0
 22 24  2  0
 22 25  1  0
 25 26  1  0
 26 27  1  0
 27 28  1  0
 28 29  1  0
 29 30  1  0
 21 31  2  0
 31 32  1  0
 32 33  2  0
 33 34  1  0
 34 35  1  0
 35 36  1  0
 36 37  1  0
 37 38  1  0
 18  4  1  0
 33 19  1  0
 38 34  1  0
 17 12  1  0
 30 25  1  0
  5 39  1  0
  6 40  1  0
  7 41  1  0
 13 42  1  0
 13 43  1  0
 14 44  1  0
 14 45  1  0
 15 46  1  0
 15 47  1  0
 16 48  1  0
 16 49  1  0
 17 50  1  0
 17 51  1  0
 18 52  1  0
 20 53  1  0
 26 54  1  0
 26 55  1  0
 27 56  1  0
 27 57  1  0
 28 58  1  0
 28 59  1  0
 29 60  1  0
 29 61  1  0
 30 62  1  0
 30 63  1  0
 31 64  1  0
 32 65  1  0
 35 66  1  0
 35 67  1  0
 36 68  1  0
 36 69  1  0
 37 70  1  0
 37 71  1  0
 38 72  1  0
 38 73  1  0
M  CHG  1   3  -1
M  END
>  <UniqueID>  (42) 
41

>  <SMILES>  (42) 
O=C([N-]c1cccc(S(=O)(=O)N2CCCCC2)c1)c1cc(S(=O)(=O)N2CCCCC2)ccc1N1CCCC1

>  <Energy>  (42) 
95.60592006891204

>  <Genealogy>  (42) 
O=C([N-]c1cccc(S(=O)(=O)N2CCCCC2)c1)c1cc(S(=O)(=O)N2CCCCC2)ccc1N1CCCC1 (protonated)
O=C([N-]c1cccc(S(=O)(=O)N2CCCCC2)c1)c1cc(S(=O)(=O)N2CCCCC2)ccc1N1CCCC1 (3D coordinates assigned)
O=C([N-]c1cccc(S(=O)(=O)N2CCCCC2)c1)c1cc(S(=O)(=O)N2CCCCC2)ccc1N1CCCC1 (nonaromatic ring conformer: 95.60592006891204 kcal/mol)

>  <smiles>  (42) 
O=C(Nc1cccc(S(=O)(=O)N2CCCCC2)c1)c1cc(S(=O)(=O)N2CCCCC2)ccc1N1CCCC1

>  <score_type>  (42) 
oracle

>  <origin>  (42) 
adgpu

>  <m_score__min__energy>  (42) 
-12.140000000000001

>  <m_primary>  (42) 
energy

$$$$
42:0
     RDKit          3D

 59 62  0  0  0  0  0  0  0  0999 V2000
   -1.1230   18.5580  -26.9190 C   0  0  0  0  0  0  0  0  0  0  0  0
   -1.8280   19.7430  -26.4070 N   0  0  0  0  0  0  0  0  0  0  0  0
   -0.9460   20.8670  -26.0270 C   0  0  0  0  0  0  0  0  0  0  0  0
   -0.2990   21.6210  -27.2180 C   0  0  0  0  0  0  0  0  0  0  0  0
   -1.2010   22.4500  -28.1230 C   0  0  0  0  0  0  0  0  0  0  0  0
   -0.8780   23.8110  -28.2860 C   0  0  0  0  0  0  0  0  0  0  0  0
   -1.6680   24.6480  -29.0760 C   0  0  0  0  0  0  0  0  0  0  0  0
   -1.3140   25.9820  -29.2280 O   0  0  0  0  0  0  0  0  0  0  0  0
   -2.8180   24.1540  -29.6950 C   0  0  0  0  0  0  0  0  0  0  0  0
   -3.6330   25.0420  -30.4690 N   0  0  0  0  0  0  0  0  0  0  0  0
   -5.3740   25.1200  -30.3590 S   0  0  0  0  0  0  0  0  0  0  0  0
   -5.8730   26.2430  -31.2370 O   0  0  0  0  0  0  0  0  0  0  0  0
   -5.7590   25.4120  -28.9290 O   0  0  0  0  0  0  0  0  0  0  0  0
   -6.1480   23.6060  -30.8320 C   0  0  0  0  0  0  0  0  0  0  0  0
   -7.2640   23.1420  -30.1220 C   0  0  0  0  0  0  0  0  0  0  0  0
   -7.8920   21.9500  -30.4950 C   0  0  0  0  0  0  0  0  0  0  0  0
   -7.4190   21.2170  -31.5910 C   0  0  0  0  0  0  0  0  0  0  0  0
   -8.2400   19.7350  -32.0950 S   0  0  0  0  0  0  0  0  0  0  0  0
   -8.8910   19.0980  -30.8980 O   0  0  0  0  0  0  0  0  0  0  0  0
   -9.3230   20.0850  -33.0790 O   0  0  0  0  0  0  0  0  0  0  0  0
   -7.1360   18.5950  -32.8230 N   0  0  0  0  0  0  0  0  0  0  0  0
   -6.4680   19.2100  -33.9840 C   0  0  0  0  0  0  0  0  0  0  0  0
   -5.5890   18.1710  -34.6850 C   0  0  0  0  0  0  0  0  0  0  0  0
   -4.5490   17.6080  -33.7110 C   0  0  0  0  0  0  0  0  0  0  0  0
   -5.2180   17.0910  -32.4330 C   0  0  0  0  0  0  0  0  0  0  0  0
   -6.1420   18.1560  -31.8270 C   0  0  0  0  0  0  0  0  0  0  0  0
   -6.3000   21.6750  -32.2990 C   0  0  0  0  0  0  0  0  0  0  0  0
   -5.6650   22.8630  -31.9190 C   0  0  0  0  0  0  0  0  0  0  0  0
   -3.1370   22.7970  -29.5700 C   0  0  0  0  0  0  0  0  0  0  0  0
   -2.3570   21.9440  -28.7700 C   0  0  0  0  0  0  0  0  0  0  0  0
   -2.7570   20.5010  -28.6490 C   0  0  0  0  0  0  0  0  0  0  0  0
   -3.0330   20.1090  -27.1870 C   0  0  0  0  0  0  0  0  0  0  0  0
   -0.7627   17.9523  -26.0744 H   0  0  0  0  0  0  0  0  0  0  0  0
   -1.8114   17.9585  -27.5328 H   0  0  0  0  0  0  0  0  0  0  0  0
   -0.2677   18.8769  -27.5328 H   0  0  0  0  0  0  0  0  0  0  0  0
   -1.5419   21.5886  -25.4489 H   0  0  0  0  0  0  0  0  0  0  0  0
   -0.1168   20.4280  -25.4528 H   0  0  0  0  0  0  0  0  0  0  0  0
    0.4575   22.3016  -26.8004 H   0  0  0  0  0  0  0  0  0  0  0  0
    0.0807   20.8217  -27.8714 H   0  0  0  0  0  0  0  0  0  0  0  0
    0.0104   24.2208  -27.7831 H   0  0  0  0  0  0  0  0  0  0  0  0
   -7.6475   23.7185  -29.2673 H   0  0  0  0  0  0  0  0  0  0  0  0
   -8.7604   21.5865  -29.9260 H   0  0  0  0  0  0  0  0  0  0  0  0
   -7.2272   19.5812  -34.6881 H   0  0  0  0  0  0  0  0  0  0  0  0
   -5.8405   20.0462  -33.6419 H   0  0  0  0  0  0  0  0  0  0  0  0
   -6.2218   17.3504  -35.0540 H   0  0  0  0  0  0  0  0  0  0  0  0
   -5.0675   18.6528  -35.5252 H   0  0  0  0  0  0  0  0  0  0  0  0
   -4.0124   16.7796  -34.1967 H   0  0  0  0  0  0  0  0  0  0  0  0
   -3.8501   18.4131  -33.4401 H   0  0  0  0  0  0  0  0  0  0  0  0
   -5.8101   16.1958  -32.6737 H   0  0  0  0  0  0  0  0  0  0  0  0
   -4.4342   16.8488  -31.7002 H   0  0  0  0  0  0  0  0  0  0  0  0
   -6.6633   17.7316  -30.9563 H   0  0  0  0  0  0  0  0  0  0  0  0
   -5.5374   19.0215  -31.5182 H   0  0  0  0  0  0  0  0  0  0  0  0
   -5.9196   21.0994  -33.1557 H   0  0  0  0  0  0  0  0  0  0  0  0
   -4.7837   23.2153  -32.4751 H   0  0  0  0  0  0  0  0  0  0  0  0
   -4.0092   22.3928  -30.1046 H   0  0  0  0  0  0  0  0  0  0  0  0
   -3.6683   20.3325  -29.2416 H   0  0  0  0  0  0  0  0  0  0  0  0
   -1.9265   19.8821  -29.0196 H   0  0  0  0  0  0  0  0  0  0  0  0
   -3.5177   20.9618  -26.6891 H   0  0  0  0  0  0  0  0  0  0  0  0
   -3.6667   19.2105  -27.2202 H   0  0  0  0  0  0  0  0  0  0  0  0
  1  2  1  0
  2  3  1  0
  3  4  1  0
  4  5  1  0
  5  6  2  0
  6  7  1  0
  7  8  1  0
  7  9  2  0
  9 10  1  0
 10 11  1  0
 11 12  2  0
 11 13  2  0
 11 14  1  0
 14 15  2  0
 15 16  1  0
 16 17  2  0
 17 18  1  0
 18 19  2  0
 18 20  2  0
 18 21  1  0
 21 22  1  0
 22 23  1  0
 23 24  1  0
 24 25  1  0
 25 26  1  0
 17 27  1  0
 27 28  2  0
  9 29  1  0
 29 30  2  0
 30 31  1  0
 31 32  1  0
 32  2  1  0
 30  5  1  0
 28 14  1  0
 26 21  1  0
  1 33  1  0
  1 34  1  0
  1 35  1  0
  3 36  1  0
  3 37  1  0
  4 38  1  0
  4 39  1  0
  6 40  1  0
 15 41  1  0
 16 42  1  0
 22 43  1  0
 22 44  1  0
 23 45  1  0
 23 46  1  0
 24 47  1  0
 24 48  1  0
 25 49  1  0
 25 50  1  0
 26 51  1  0
 26 52  1  0
 27 53  1  0
 28 54  1  0
 29 55  1  0
 31 56  1  0
 31 57  1  0
 32 58  1  0
 32 59  1  0
M  CHG  2   8  -1  10  -1
M  END
>  <UniqueID>  (43) 
42

>  <SMILES>  (43) 
CN1CCc2cc([O-])c([N-]S(=O)(=O)c3ccc(S(=O)(=O)N4CCCCC4)cc3)cc2CC1

>  <Energy>  (43) 
76.33747396094303

>  <Genealogy>  (43) 
CN1CCc2cc([O-])c([N-]S(=O)(=O)c3ccc(S(=O)(=O)N4CCCCC4)cc3)cc2CC1 (protonated)
CN1CCc2cc([O-])c([N-]S(=O)(=O)c3ccc(S(=O)(=O)N4CCCCC4)cc3)cc2CC1 (3D coordinates assigned)
CN1CCc2cc([O-])c([N-]S(=O)(=O)c3ccc(S(=O)(=O)N4CCCCC4)cc3)cc2CC1 (nonaromatic ring conformer: 76.33747396094303 kcal/mol)

>  <smiles>  (43) 
CN1CCc2cc(O)c(NS(=O)(=O)c3ccc(S(=O)(=O)N4CCCCC4)cc3)cc2CC1

>  <score_type>  (43) 
oracle

>  <origin>  (43) 
adgpu

>  <m_score__min__energy>  (43) 
-14.44

>  <m_primary>  (43) 
energy

$$$$
43:0
     RDKit          3D

 37 39  0  0  0  0  0  0  0  0999 V2000
   -7.4714   16.3507  -32.7773 H   0  0  0  0  0  0  0  0  0  0  0  0
   -6.5150   16.4050  -33.3180 C   0  0  0  0  0  0  0  0  0  0  0  0
   -5.8980   17.5460  -33.4220 N   0  0  0  0  0  0  0  0  0  0  0  0
   -6.3320   18.8140  -32.8990 C   0  0  0  0  0  0  0  0  0  0  0  0
   -5.4120   19.5710  -32.1620 C   0  0  0  0  0  0  0  0  0  0  0  0
   -4.3962   19.1826  -31.9969 H   0  0  0  0  0  0  0  0  0  0  0  0
   -5.7710   20.8150  -31.6340 C   0  0  0  0  0  0  0  0  0  0  0  0
   -5.0409   21.3943  -31.0497 H   0  0  0  0  0  0  0  0  0  0  0  0
   -7.0570   21.3250  -31.8470 C   0  0  0  0  0  0  0  0  0  0  0  0
   -7.5140   22.8970  -31.2000 S   0  0  0  0  0  0  0  0  0  0  0  0
   -7.8470   22.7900  -29.7370 O   0  0  0  0  0  0  0  0  0  0  0  0
   -8.7210   23.3970  -31.9410 O   0  0  0  0  0  0  0  0  0  0  0  0
   -6.2130   24.0260  -31.4030 N   0  0  0  0  0  0  0  0  0  0  0  0
   -5.1870   24.1080  -30.6100 C   0  0  0  0  0  0  0  0  0  0  0  0
   -4.9030   23.1550  -29.2440 S   0  0  0  0  0  0  0  0  0  0  0  0
   -3.4560   23.9710  -28.9510 C   0  0  0  0  0  0  0  0  0  0  0  0
   -2.4970   23.6360  -27.8610 C   0  0  0  0  0  0  0  0  0  0  0  0
   -2.9773   23.8038  -26.8857 H   0  0  0  0  0  0  0  0  0  0  0  0
   -2.1991   22.5806  -27.9463 H   0  0  0  0  0  0  0  0  0  0  0  0
   -1.6067   24.2764  -27.9463 H   0  0  0  0  0  0  0  0  0  0  0  0
   -3.2190   24.9140  -29.8920 N   0  0  0  0  0  0  0  0  0  0  0  0
   -4.1870   24.9930  -30.8040 N   0  0  0  0  0  0  0  0  0  0  0  0
   -4.1530   25.6740  -31.5940 H   0  0  0  0  0  0  0  0  0  0  0  0
   -7.9830   20.5770  -32.5860 C   0  0  0  0  0  0  0  0  0  0  0  0
   -8.9969   20.9704  -32.7509 H   0  0  0  0  0  0  0  0  0  0  0  0
   -7.6250   19.3330  -33.1150 C   0  0  0  0  0  0  0  0  0  0  0  0
   -8.3553   18.7569  -33.7022 H   0  0  0  0  0  0  0  0  0  0  0  0
   -5.9450   15.1830  -33.9180 C   0  0  0  0  0  0  0  0  0  0  0  0
   -4.5550   14.9910  -34.0170 C   0  0  0  0  0  0  0  0  0  0  0  0
   -3.8622   15.7597  -33.6440 H   0  0  0  0  0  0  0  0  0  0  0  0
   -4.0600   13.8180  -34.5920 C   0  0  0  0  0  0  0  0  0  0  0  0
   -2.9741   13.6620  -34.6719 H   0  0  0  0  0  0  0  0  0  0  0  0
   -4.9170   12.8690  -35.0530 N   0  0  0  0  0  0  0  0  0  0  0  0
   -6.2660   13.0270  -34.9710 C   0  0  0  0  0  0  0  0  0  0  0  0
   -6.9350   12.2416  -35.3526 H   0  0  0  0  0  0  0  0  0  0  0  0
   -6.8030   14.1850  -34.4030 C   0  0  0  0  0  0  0  0  0  0  0  0
   -7.8934   14.3134  -34.3365 H   0  0  0  0  0  0  0  0  0  0  0  0
  1  2  1  0
  2  3  2  0
  3  4  1  0
  4  5  2  0
  5  6  1  0
  5  7  1  0
  7  8  1  0
  7  9  2  0
  9 10  1  0
 10 11  2  0
 10 12  2  0
 10 13  1  0
 13 14  2  0
 14 15  1  0
 15 16  1  0
 16 17  1  0
 17 18  1  0
 17 19  1  0
 17 20  1  0
 16 21  2  0
 21 22  1  0
 22 23  1  0
  9 24  1  0
 24 25  1  0
 24 26  2  0
 26 27  1  0
  2 28  1  0
 28 29  2  0
 29 30  1  0
 29 31  1  0
 31 32  1  0
 31 33  2  0
 33 34  1  0
 34 35  1  0
 34 36  2  0
 36 37  1  0
 26  4  1  0
 36 28  1  0
 22 14  1  0
M  END
>  <UniqueID>  (44) 
43

>  <SMILES>  (44) 
Cc1n[nH]/c(=N/S(=O)(=O)c2ccc(/N=C/c3ccncc3)cc2)s1

>  <Energy>  (44) 
78.6313469347174

>  <Genealogy>  (44) 
Cc1n[nH]/c(=N/S(=O)(=O)c2ccc(/N=C/c3ccncc3)cc2)s1 (cis-trans isomerization)
Cc1n[nH]/c(=N/S(=O)(=O)c2ccc(/N=C/c3ccncc3)cc2)s1 (3D coordinates assigned)
Cc1n[nH]/c(=N/S(=O)(=O)c2ccc(/N=C/c3ccncc3)cc2)s1 (optimized conformer: 78.6313469347174 kcal/mol)

>  <smiles>  (44) 
Cc1n[nH]c(=NS(=O)(=O)c2ccc(N=Cc3ccncc3)cc2)s1

>  <score_type>  (44) 
oracle

>  <origin>  (44) 
adgpu

>  <m_score__min__energy>  (44) 
-8.5199999999999996

>  <m_primary>  (44) 
energy

$$$$
44:0
     RDKit          3D

 46 48  0  0  0  0  0  0  0  0999 V2000
   -1.1760   26.8490  -24.3490 C   0  0  0  0  0  0  0  0  0  0  0  0
   -1.4160   26.9050  -25.7530 O   0  0  0  0  0  0  0  0  0  0  0  0
   -1.5150   25.7800  -26.5870 C   0  0  0  0  0  0  0  0  0  0  0  0
   -2.6500   24.9460  -26.5850 C   0  0  0  0  0  0  0  0  0  0  0  0
   -2.7150   23.8420  -27.4360 C   0  0  0  0  0  0  0  0  0  0  0  0
   -1.6520   23.5520  -28.2970 C   0  0  0  0  0  0  0  0  0  0  0  0
   -1.7570   22.1960  -29.4170 S   0  0  0  0  0  0  0  0  0  0  0  0
   -2.6220   21.1060  -28.8480 O   0  0  0  0  0  0  0  0  0  0  0  0
   -0.3750   21.6560  -29.6510 O   0  0  0  0  0  0  0  0  0  0  0  0
   -2.4320   22.7190  -30.9300 N   0  0  0  0  0  0  0  0  0  0  0  0
   -3.8330   22.9930  -31.1280 C   0  0  0  0  0  0  0  0  0  0  0  0
   -4.7190   21.9920  -31.5890 C   0  0  0  0  0  0  0  0  0  0  0  0
   -6.0740   22.3000  -31.7470 C   0  0  0  0  0  0  0  0  0  0  0  0
   -6.5550   23.5410  -31.4300 C   0  0  0  0  0  0  0  0  0  0  0  0
   -5.7120   24.5570  -30.9860 C   0  0  0  0  0  0  0  0  0  0  0  0
   -4.3430   24.2840  -30.8400 C   0  0  0  0  0  0  0  0  0  0  0  0
   -3.4980   25.2930  -30.3920 O   0  0  0  0  0  0  0  0  0  0  0  0
   -8.0350   23.5880  -31.5750 C   0  0  0  0  0  0  0  0  0  0  0  0
   -8.4010   22.1410  -31.9760 C   0  0  0  0  0  0  0  0  0  0  0  0
   -7.1320   21.4240  -32.1200 N   0  0  0  0  0  0  0  0  0  0  0  0
   -7.0490   20.0640  -32.5820 C   0  0  0  0  0  0  0  0  0  0  0  0
   -7.8550   18.9660  -31.9630 C   0  0  0  0  0  0  0  0  0  0  0  0
   -6.2490   19.7770  -33.5110 O   0  0  0  0  0  0  0  0  0  0  0  0
   -0.5170   24.3700  -28.2960 C   0  0  0  0  0  0  0  0  0  0  0  0
   -0.4450   25.4920  -27.4480 C   0  0  0  0  0  0  0  0  0  0  0  0
    0.6700   26.3450  -27.4360 O   0  0  0  0  0  0  0  0  0  0  0  0
    1.6840   26.3330  -26.4350 C   0  0  0  0  0  0  0  0  0  0  0  0
   -2.1090   27.0667  -23.8086 H   0  0  0  0  0  0  0  0  0  0  0  0
   -0.8210   25.8439  -24.0775 H   0  0  0  0  0  0  0  0  0  0  0  0
   -0.4128   27.5932  -24.0775 H   0  0  0  0  0  0  0  0  0  0  0  0
   -3.4895   25.1661  -25.9091 H   0  0  0  0  0  0  0  0  0  0  0  0
   -3.6062   23.1972  -27.4295 H   0  0  0  0  0  0  0  0  0  0  0  0
   -1.7550   22.9200  -31.6970 H   0  0  0  0  0  0  0  0  0  0  0  0
   -4.3469   20.9831  -31.8206 H   0  0  0  0  0  0  0  0  0  0  0  0
   -6.1119   25.5551  -30.7540 H   0  0  0  0  0  0  0  0  0  0  0  0
   -8.5150   23.8668  -30.6253 H   0  0  0  0  0  0  0  0  0  0  0  0
   -8.3714   24.3354  -32.3087 H   0  0  0  0  0  0  0  0  0  0  0  0
   -9.0170   21.6728  -31.1942 H   0  0  0  0  0  0  0  0  0  0  0  0
   -8.9825   22.1184  -32.9094 H   0  0  0  0  0  0  0  0  0  0  0  0
   -7.7986   19.0428  -30.8671 H   0  0  0  0  0  0  0  0  0  0  0  0
   -8.9035   19.0554  -32.2834 H   0  0  0  0  0  0  0  0  0  0  0  0
   -7.4555   17.9925  -32.2834 H   0  0  0  0  0  0  0  0  0  0  0  0
    0.3257   24.1349  -28.9628 H   0  0  0  0  0  0  0  0  0  0  0  0
    1.2164   26.3385  -25.4393 H   0  0  0  0  0  0  0  0  0  0  0  0
    2.2986   25.4275  -26.5465 H   0  0  0  0  0  0  0  0  0  0  0  0
    2.3198   27.2237  -26.5465 H   0  0  0  0  0  0  0  0  0  0  0  0
  1  2  1  0
  2  3  1  0
  3  4  2  0
  4  5  1  0
  5  6  2  0
  6  7  1  0
  7  8  2  0
  7  9  2  0
  7 10  1  0
 10 11  1  0
 11 12  2  0
 12 13  1  0
 13 14  2  0
 14 15  1  0
 15 16  2  0
 16 17  1  0
 14 18  1  0
 18 19  1  0
 19 20  1  0
 20 21  1  0
 21 22  1  0
 21 23  2  0
  6 24  1  0
 24 25  2  0
 25 26  1  0
 26 27  1  0
 25  3  1  0
 16 11  1  0
 20 13  1  0
  1 28  1  0
  1 29  1  0
  1 30  1  0
  4 31  1  0
  5 32  1  0
 10 33  1  0
 12 34  1  0
 15 35  1  0
 18 36  1  0
 18 37  1  0
 19 38  1  0
 19 39  1  0
 22 40  1  0
 22 41  1  0
 22 42  1  0
 24 43  1  0
 27 44  1  0
 27 45  1  0
 27 46  1  0
M  CHG  1  17  -1
M  END
>  <UniqueID>  (45) 
44

>  <SMILES>  (45) 
COc1ccc(S(=O)(=O)Nc2cc3c(cc2[O-])CCN3C(C)=O)cc1OC

>  <Energy>  (45) 
65.17858010346293

>  <Genealogy>  (45) 
COc1ccc(S(=O)(=O)Nc2cc3c(cc2[O-])CCN3C(C)=O)cc1OC (protonated)
COc1ccc(S(=O)(=O)Nc2cc3c(cc2[O-])CCN3C(C)=O)cc1OC (3D coordinates assigned)
COc1ccc(S(=O)(=O)Nc2cc3c(cc2[O-])CCN3C(C)=O)cc1OC (nonaromatic ring conformer: 65.17858010346293 kcal/mol)

>  <smiles>  (45) 
COc1ccc(S(=O)(=O)Nc2cc3c(cc2O)CCN3C(C)=O)cc1OC

>  <score_type>  (45) 
oracle

>  <origin>  (45) 
adgpu

>  <m_score__min__energy>  (45) 
-11.710000000000001

>  <m_primary>  (45) 
energy

$$$$
45:0
     RDKit          3D

 52 55  0  0  0  0  0  0  0  0999 V2000
   -9.3750   22.5520  -31.8720 O   0  0  0  0  0  0  0  0  0  0  0  0
   -8.1220   21.7500  -31.6550 S   0  0  0  0  0  0  0  0  0  0  0  0
   -8.3480   20.7910  -30.5210 O   0  0  0  0  0  0  0  0  0  0  0  0
   -7.7630   20.8550  -33.0940 N   0  0  0  0  0  0  0  0  0  0  0  0
   -7.1420   19.5620  -33.1330 C   0  0  0  0  0  0  0  0  0  0  0  0
   -5.9310   19.3410  -33.8120 C   0  0  0  0  0  0  0  0  0  0  0  0
   -5.3400   18.0690  -33.8320 C   0  0  0  0  0  0  0  0  0  0  0  0
   -5.9600   17.0020  -33.1430 C   0  0  0  0  0  0  0  0  0  0  0  0
   -7.1780   17.2230  -32.4840 C   0  0  0  0  0  0  0  0  0  0  0  0
   -7.7620   18.4940  -32.4700 C   0  0  0  0  0  0  0  0  0  0  0  0
   -8.9630   18.7060  -31.7940 O   0  0  0  0  0  0  0  0  0  0  0  0
   -5.4030   15.5990  -33.2020 C   0  0  0  0  0  0  0  0  0  0  0  0
   -3.9160   15.5730  -33.5670 C   0  0  0  0  0  0  0  0  0  0  0  0
   -3.6540   16.4390  -34.7960 C   0  0  0  0  0  0  0  0  0  0  0  0
   -3.9960   17.9030  -34.5060 C   0  0  0  0  0  0  0  0  0  0  0  0
   -6.7640   22.7960  -31.2530 C   0  0  0  0  0  0  0  0  0  0  0  0
   -6.9380   24.1800  -31.1290 C   0  0  0  0  0  0  0  0  0  0  0  0
   -5.8420   25.0030  -30.8610 C   0  0  0  0  0  0  0  0  0  0  0  0
   -4.5670   24.4520  -30.7020 C   0  0  0  0  0  0  0  0  0  0  0  0
   -3.4920   25.2980  -30.4550 O   0  0  0  0  0  0  0  0  0  0  0  0
   -4.3870   23.0600  -30.8000 C   0  0  0  0  0  0  0  0  0  0  0  0
   -2.8010   22.3120  -30.5910 S   0  0  0  0  0  0  0  0  0  0  0  0
   -2.9220   21.0240  -29.8230 O   0  0  0  0  0  0  0  0  0  0  0  0
   -1.9160   23.2580  -29.8280 O   0  0  0  0  0  0  0  0  0  0  0  0
   -2.0970   21.9950  -32.1580 N   0  0  0  0  0  0  0  0  0  0  0  0
   -3.0130   21.2330  -33.0090 C   0  0  0  0  0  0  0  0  0  0  0  0
   -2.1550   20.4150  -33.9600 C   0  0  0  0  0  0  0  0  0  0  0  0
   -0.7710   20.3820  -33.3320 C   0  0  0  0  0  0  0  0  0  0  0  0
   -0.8880   21.1790  -32.0420 C   0  0  0  0  0  0  0  0  0  0  0  0
   -5.4890   22.2420  -31.0880 C   0  0  0  0  0  0  0  0  0  0  0  0
   -5.4408   20.1759  -34.3341 H   0  0  0  0  0  0  0  0  0  0  0  0
   -7.6794   16.3880  -31.9727 H   0  0  0  0  0  0  0  0  0  0  0  0
   -9.3470   19.6360  -31.6740 H   0  0  0  0  0  0  0  0  0  0  0  0
   -5.5328   15.1263  -32.2173 H   0  0  0  0  0  0  0  0  0  0  0  0
   -5.9493   15.0554  -33.9869 H   0  0  0  0  0  0  0  0  0  0  0  0
   -3.3284   15.9580  -32.7205 H   0  0  0  0  0  0  0  0  0  0  0  0
   -3.6221   14.5371  -33.7916 H   0  0  0  0  0  0  0  0  0  0  0  0
   -2.5918   16.3636  -35.0717 H   0  0  0  0  0  0  0  0  0  0  0  0
   -4.2875   16.0836  -35.6221 H   0  0  0  0  0  0  0  0  0  0  0  0
   -3.2194   18.3218  -33.8491 H   0  0  0  0  0  0  0  0  0  0  0  0
   -4.0422   18.4295  -35.4707 H   0  0  0  0  0  0  0  0  0  0  0  0
   -7.9398   24.6197  -31.2429 H   0  0  0  0  0  0  0  0  0  0  0  0
   -5.9827   26.0905  -30.7746 H   0  0  0  0  0  0  0  0  0  0  0  0
   -3.6355   20.5671  -32.3934 H   0  0  0  0  0  0  0  0  0  0  0  0
   -3.6852   21.9041  -33.5637 H   0  0  0  0  0  0  0  0  0  0  0  0
   -2.5563   19.3957  -34.0597 H   0  0  0  0  0  0  0  0  0  0  0  0
   -2.1348   20.8516  -34.9694 H   0  0  0  0  0  0  0  0  0  0  0  0
   -0.4715   19.3456  -33.1172 H   0  0  0  0  0  0  0  0  0  0  0  0
   -0.0091   20.8044  -34.0037 H   0  0  0  0  0  0  0  0  0  0  0  0
   -0.9717   20.4979  -31.1823 H   0  0  0  0  0  0  0  0  0  0  0  0
    0.0000   21.8089  -31.8850 H   0  0  0  0  0  0  0  0  0  0  0  0
   -5.3503   21.1551  -31.1851 H   0  0  0  0  0  0  0  0  0  0  0  0
  1  2  2  0
  2  3  2  0
  2  4  1  0
  4  5  1  0
  5  6  2  0
  6  7  1  0
  7  8  2  0
  8  9  1  0
  9 10  2  0
 10 11  1  0
  8 12  1  0
 12 13  1  0
 13 14  1  0
 14 15  1  0
  2 16  1  0
 16 17  2  0
 17 18  1  0
 18 19  2  0
 19 20  1  0
 19 21  1  0
 21 22  1  0
 22 23  2  0
 22 24  2  0
 22 25  1  0
 25 26  1  0
 26 27  1  0
 27 28  1  0
 28 29  1  0
 21 30  2  0
 10  5  1  0
 30 16  1  0
 15  7  1  0
 29 25  1  0
  6 31  1  0
  9 32  1  0
 11 33  1  0
 12 34  1  0
 12 35  1  0
 13 36  1  0
 13 37  1  0
 14 38  1  0
 14 39  1  0
 15 40  1  0
 15 41  1  0
 17 42  1  0
 18 43  1  0
 26 44  1  0
 26 45  1  0
 27 46  1  0
 27 47  1  0
 28 48  1  0
 28 49  1  0
 29 50  1  0
 29 51  1  0
 30 52  1  0
M  CHG  2   4  -1  20  -1
M  END
>  <UniqueID>  (46) 
45

>  <SMILES>  (46) 
O=S(=O)([N-]c1cc2c(cc1O)CCCC2)c1ccc([O-])c(S(=O)(=O)N2CCCC2)c1

>  <Energy>  (46) 
57.63108744714486

>  <Genealogy>  (46) 
O=S(=O)([N-]c1cc2c(cc1O)CCCC2)c1ccc([O-])c(S(=O)(=O)N2CCCC2)c1 (protonated)
O=S(=O)([N-]c1cc2c(cc1O)CCCC2)c1ccc([O-])c(S(=O)(=O)N2CCCC2)c1 (3D coordinates assigned)
O=S(=O)([N-]c1cc2c(cc1O)CCCC2)c1ccc([O-])c(S(=O)(=O)N2CCCC2)c1 (nonaromatic ring conformer: 57.63108744714486 kcal/mol)

>  <smiles>  (46) 
O=S(=O)(Nc1cc2c(cc1O)CCCC2)c1ccc(O)c(S(=O)(=O)N2CCCC2)c1

>  <score_type>  (46) 
oracle

>  <origin>  (46) 
adgpu

>  <m_score__min__energy>  (46) 
-12.449999999999999

>  <m_primary>  (46) 
energy

$$$$
46:0
     RDKit          3D

 43 45  0  0  0  0  0  0  0  0999 V2000
   -8.1000   22.0520  -31.0550 C   0  0  0  0  0  0  0  0  0  0  0  0
   -6.8510   21.6320  -31.8030 C   0  0  0  0  0  0  0  0  0  0  0  0
   -6.8240   20.4150  -32.5430 C   0  0  0  0  0  0  0  0  0  0  0  0
   -8.0160   19.4850  -32.6210 C   0  0  0  0  0  0  0  0  0  0  0  0
   -9.1130   20.1390  -33.1990 O   0  0  0  0  0  0  0  0  0  0  0  0
   -5.6500   20.0430  -33.2180 C   0  0  0  0  0  0  0  0  0  0  0  0
   -4.5140   20.8420  -33.1620 C   0  0  0  0  0  0  0  0  0  0  0  0
   -4.5200   22.0150  -32.4160 C   0  0  0  0  0  0  0  0  0  0  0  0
   -5.6660   22.4150  -31.7140 C   0  0  0  0  0  0  0  0  0  0  0  0
   -5.5780   23.8910  -30.7300 S   0  0  0  0  0  0  0  0  0  0  0  0
   -6.3030   25.0080  -31.4280 O   0  0  0  0  0  0  0  0  0  0  0  0
   -6.2270   23.6370  -29.3980 O   0  0  0  0  0  0  0  0  0  0  0  0
   -3.9300   24.3740  -30.4810 N   0  0  0  0  0  0  0  0  0  0  0  0
   -3.1010   23.7220  -29.5130 C   0  0  0  0  0  0  0  0  0  0  0  0
   -3.3670   22.3930  -29.1600 C   0  0  0  0  0  0  0  0  0  0  0  0
   -2.5700   21.7320  -28.2160 C   0  0  0  0  0  0  0  0  0  0  0  0
   -1.5010   22.4190  -27.6020 C   0  0  0  0  0  0  0  0  0  0  0  0
   -1.2110   23.7340  -27.9900 C   0  0  0  0  0  0  0  0  0  0  0  0
   -2.0010   24.3830  -28.9440 C   0  0  0  0  0  0  0  0  0  0  0  0
   -1.6670   25.6730  -29.3430 O   0  0  0  0  0  0  0  0  0  0  0  0
   -0.5970   21.7160  -26.6160 C   0  0  0  0  0  0  0  0  0  0  0  0
   -1.2390   20.5440  -26.0060 N   0  0  0  0  0  0  0  0  0  0  0  0
   -1.7810   19.6510  -27.0380 C   0  0  0  0  0  0  0  0  0  0  0  0
   -2.9270   20.3280  -27.8010 C   0  0  0  0  0  0  0  0  0  0  0  0
   -7.9170   21.9905  -29.9721 H   0  0  0  0  0  0  0  0  0  0  0  0
   -8.3586   23.0865  -31.3249 H   0  0  0  0  0  0  0  0  0  0  0  0
   -8.9311   21.3839  -31.3249 H   0  0  0  0  0  0  0  0  0  0  0  0
   -7.7527   18.6099  -33.2333 H   0  0  0  0  0  0  0  0  0  0  0  0
   -8.2870   19.1684  -31.6030 H   0  0  0  0  0  0  0  0  0  0  0  0
   -9.1210   19.8840  -34.1590 H   0  0  0  0  0  0  0  0  0  0  0  0
   -5.6292   19.1084  -33.7978 H   0  0  0  0  0  0  0  0  0  0  0  0
   -3.6074   20.5452  -33.7097 H   0  0  0  0  0  0  0  0  0  0  0  0
   -3.6140   22.6375  -32.3759 H   0  0  0  0  0  0  0  0  0  0  0  0
   -3.4690   24.9150  -31.2470 H   0  0  0  0  0  0  0  0  0  0  0  0
   -4.2096   21.8631  -29.6283 H   0  0  0  0  0  0  0  0  0  0  0  0
   -0.3555   24.2596  -27.5407 H   0  0  0  0  0  0  0  0  0  0  0  0
    0.3117   21.3876  -27.1417 H   0  0  0  0  0  0  0  0  0  0  0  0
   -0.3614   22.4270  -25.8104 H   0  0  0  0  0  0  0  0  0  0  0  0
   -2.0200   20.8680  -25.3880 H   0  0  0  0  0  0  0  0  0  0  0  0
   -0.9805   19.3916  -27.7464 H   0  0  0  0  0  0  0  0  0  0  0  0
   -2.1705   18.7454  -26.5499 H   0  0  0  0  0  0  0  0  0  0  0  0
   -3.1535   19.7374  -28.7009 H   0  0  0  0  0  0  0  0  0  0  0  0
   -3.7991   20.3802  -27.1327 H   0  0  0  0  0  0  0  0  0  0  0  0
  1  2  1  0
  2  3  2  0
  3  4  1  0
  4  5  1  0
  3  6  1  0
  6  7  2  0
  7  8  1  0
  8  9  2  0
  9 10  1  0
 10 11  2  0
 10 12  2  0
 10 13  1  0
 13 14  1  0
 14 15  2  0
 15 16  1  0
 16 17  2  0
 17 18  1  0
 18 19  2  0
 19 20  1  0
 17 21  1  0
 21 22  1  0
 22 23  1  0
 23 24  1  0
  9  2  1  0
 19 14  1  0
 24 16  1  0
  1 25  1  0
  1 26  1  0
  1 27  1  0
  4 28  1  0
  4 29  1  0
  5 30  1  0
  6 31  1  0
  7 32  1  0
  8 33  1  0
 13 34  1  0
 15 35  1  0
 18 36  1  0
 21 37  1  0
 21 38  1  0
 22 39  1  0
 23 40  1  0
 23 41  1  0
 24 42  1  0
 24 43  1  0
M  CHG  1  20  -1
M  END
>  <UniqueID>  (47) 
46

>  <SMILES>  (47) 
Cc1c(CO)cccc1S(=O)(=O)Nc1cc2c(cc1[O-])CNCC2

>  <Energy>  (47) 
59.02585827278396

>  <Genealogy>  (47) 
Cc1c(CO)cccc1S(=O)(=O)Nc1cc2c(cc1[O-])CNCC2 (protonated)
Cc1c(CO)cccc1S(=O)(=O)Nc1cc2c(cc1[O-])CNCC2 (3D coordinates assigned)
Cc1c(CO)cccc1S(=O)(=O)Nc1cc2c(cc1[O-])CNCC2 (nonaromatic ring conformer: 59.02585827278396 kcal/mol)

>  <smiles>  (47) 
Cc1c(CO)cccc1S(=O)(=O)Nc1cc2c(cc1O)CNCC2

>  <score_type>  (47) 
oracle

>  <origin>  (47) 
adgpu

>  <m_score__min__energy>  (47) 
-12.52

>  <m_primary>  (47) 
energy

$$$$
47:0
     RDKit          3D

 56 59  0  0  0  0  0  0  0  0999 V2000
   -8.2100   23.7830  -32.7420 O   0  0  0  0  0  0  0  0  0  0  0  0
   -7.6000   23.2220  -31.7930 C   0  0  0  0  0  0  0  0  0  0  0  0
   -8.1960   22.0890  -31.1540 N   0  0  0  0  0  0  0  0  0  0  0  0
   -8.0590   20.7480  -31.6370 C   0  0  0  0  0  0  0  0  0  0  0  0
   -9.1250   19.8550  -31.4890 C   0  0  0  0  0  0  0  0  0  0  0  0
   -9.0330   18.5580  -31.9980 C   0  0  0  0  0  0  0  0  0  0  0  0
   -7.8850   18.1550  -32.6890 C   0  0  0  0  0  0  0  0  0  0  0  0
   -6.8180   19.0470  -32.8630 C   0  0  0  0  0  0  0  0  0  0  0  0
   -5.4030   18.5700  -33.8060 S   0  0  0  0  0  0  0  0  0  0  0  0
   -4.6100   19.8030  -34.1410 O   0  0  0  0  0  0  0  0  0  0  0  0
   -5.8590   17.9570  -35.1020 O   0  0  0  0  0  0  0  0  0  0  0  0
   -4.3690   17.4330  -32.9660 N   0  0  0  0  0  0  0  0  0  0  0  0
   -3.2160   17.0120  -33.7820 C   0  0  0  0  0  0  0  0  0  0  0  0
   -3.5720   15.9040  -34.8000 C   0  0  0  0  0  0  0  0  0  0  0  0
   -4.8540   15.3450  -34.5890 O   0  0  0  0  0  0  0  0  0  0  0  0
   -5.0120   15.0210  -33.2270 C   0  0  0  0  0  0  0  0  0  0  0  0
   -5.1200   16.3000  -32.3840 C   0  0  0  0  0  0  0  0  0  0  0  0
   -6.9040   20.3400  -32.3260 C   0  0  0  0  0  0  0  0  0  0  0  0
   -6.3130   23.7730  -31.3130 C   0  0  0  0  0  0  0  0  0  0  0  0
   -6.2130   25.1240  -30.9460 C   0  0  0  0  0  0  0  0  0  0  0  0
   -5.0150   25.6260  -30.4310 C   0  0  0  0  0  0  0  0  0  0  0  0
   -3.9150   24.7830  -30.2520 C   0  0  0  0  0  0  0  0  0  0  0  0
   -2.7380   25.2980  -29.7210 O   0  0  0  0  0  0  0  0  0  0  0  0
   -4.0060   23.4250  -30.6000 C   0  0  0  0  0  0  0  0  0  0  0  0
   -2.6560   22.3300  -30.2750 S   0  0  0  0  0  0  0  0  0  0  0  0
   -2.7220   21.8300  -28.8560 O   0  0  0  0  0  0  0  0  0  0  0  0
   -1.3720   23.0880  -30.4610 O   0  0  0  0  0  0  0  0  0  0  0  0
   -2.7040   20.9740  -31.3790 N   0  0  0  0  0  0  0  0  0  0  0  0
   -2.7530   21.4380  -32.7730 C   0  0  0  0  0  0  0  0  0  0  0  0
   -1.3970   21.1710  -33.3970 C   0  0  0  0  0  0  0  0  0  0  0  0
   -0.8550   20.0070  -32.6100 C   0  0  0  0  0  0  0  0  0  0  0  0
   -1.4980   20.1440  -31.2400 C   0  0  0  0  0  0  0  0  0  0  0  0
   -5.2000   22.9310  -31.1490 C   0  0  0  0  0  0  0  0  0  0  0  0
  -10.0399   20.1757  -30.9694 H   0  0  0  0  0  0  0  0  0  0  0  0
   -9.8644   17.8519  -31.8555 H   0  0  0  0  0  0  0  0  0  0  0  0
   -7.8197   17.1354  -33.0967 H   0  0  0  0  0  0  0  0  0  0  0  0
   -2.8377   17.8860  -34.3325 H   0  0  0  0  0  0  0  0  0  0  0  0
   -2.4596   16.6007  -33.0974 H   0  0  0  0  0  0  0  0  0  0  0  0
   -3.5407   16.3353  -35.8114 H   0  0  0  0  0  0  0  0  0  0  0  0
   -2.8375   15.0950  -34.6731 H   0  0  0  0  0  0  0  0  0  0  0  0
   -5.9272   14.4242  -33.0998 H   0  0  0  0  0  0  0  0  0  0  0  0
   -4.1368   14.4447  -32.8924 H   0  0  0  0  0  0  0  0  0  0  0  0
   -6.1803   16.5828  -32.3080 H   0  0  0  0  0  0  0  0  0  0  0  0
   -4.6843   16.0849  -31.3972 H   0  0  0  0  0  0  0  0  0  0  0  0
   -6.0627   21.0386  -32.4448 H   0  0  0  0  0  0  0  0  0  0  0  0
   -7.0806   25.7898  -31.0642 H   0  0  0  0  0  0  0  0  0  0  0  0
   -4.9374   26.6905  -30.1650 H   0  0  0  0  0  0  0  0  0  0  0  0
   -3.5326   20.8902  -33.3228 H   0  0  0  0  0  0  0  0  0  0  0  0
   -2.9904   22.5113  -32.8131 H   0  0  0  0  0  0  0  0  0  0  0  0
   -1.5009   20.9092  -34.4603 H   0  0  0  0  0  0  0  0  0  0  0  0
   -0.7355   22.0492  -33.3627 H   0  0  0  0  0  0  0  0  0  0  0  0
   -1.1391   19.0537  -33.0796 H   0  0  0  0  0  0  0  0  0  0  0  0
    0.2438   20.0107  -32.5594 H   0  0  0  0  0  0  0  0  0  0  0  0
   -1.7722   19.1502  -30.8564 H   0  0  0  0  0  0  0  0  0  0  0  0
   -0.7945   20.6113  -30.5352 H   0  0  0  0  0  0  0  0  0  0  0  0
   -5.2648   21.8759  -31.4533 H   0  0  0  0  0  0  0  0  0  0  0  0
  1  2  2  0
  2  3  1  0
  3  4  1  0
  4  5  2  0
  5  6  1  0
  6  7  2  0
  7  8  1  0
  8  9  1  0
  9 10  2  0
  9 11  2  0
  9 12  1  0
 12 13  1  0
 13 14  1  0
 14 15  1  0
 15 16  1  0
 16 17  1  0
  8 18  2  0
  2 19  1  0
 19 20  2  0
 20 21  1  0
 21 22  2  0
 22 23  1  0
 22 24  1  0
 24 25  1  0
 25 26  2  0
 25 27  2  0
 25 28  1  0
 28 29  1  0
 29 30  1  0
 30 31  1  0
 31 32  1  0
 24 33  2  0
 18  4  1  0
 33 19  1  0
 17 12  1  0
 32 28  1  0
  5 34  1  0
  6 35  1  0
  7 36  1  0
 13 37  1  0
 13 38  1  0
 14 39  1  0
 14 40  1  0
 16 41  1  0
 16 42  1  0
 17 43  1  0
 17 44  1  0
 18 45  1  0
 20 46  1  0
 21 47  1  0
 29 48  1  0
 29 49  1  0
 30 50  1  0
 30 51  1  0
 31 52  1  0
 31 53  1  0
 32 54  1  0
 32 55  1  0
 33 56  1  0
M  CHG  2   3  -1  23  -1
M  END
>  <UniqueID>  (48) 
47

>  <SMILES>  (48) 
O=C([N-]c1cccc(S(=O)(=O)N2CCOCC2)c1)c1ccc([O-])c(S(=O)(=O)N2CCCC2)c1

>  <Energy>  (48) 
74.84617639090422

>  <Genealogy>  (48) 
O=C([N-]c1cccc(S(=O)(=O)N2CCOCC2)c1)c1ccc([O-])c(S(=O)(=O)N2CCCC2)c1 (protonated)
O=C([N-]c1cccc(S(=O)(=O)N2CCOCC2)c1)c1ccc([O-])c(S(=O)(=O)N2CCCC2)c1 (3D coordinates assigned)
O=C([N-]c1cccc(S(=O)(=O)N2CCOCC2)c1)c1ccc([O-])c(S(=O)(=O)N2CCCC2)c1 (nonaromatic ring conformer: 74.84617639090422 kcal/mol)

>  <smiles>  (48) 
O=C(Nc1cccc(S(=O)(=O)N2CCOCC2)c1)c1ccc(O)c(S(=O)(=O)N2CCCC2)c1

>  <score_type>  (48) 
oracle

>  <origin>  (48) 
adgpu

>  <m_score__min__energy>  (48) 
-12.93

>  <m_primary>  (48) 
energy

$$$$
48:0
     RDKit          3D

 58 61  0  0  0  0  0  0  0  0999 V2000
   -2.5890   21.3130  -33.4020 N   0  0  0  0  0  0  0  0  0  0  0  0
   -1.2240   20.8850  -33.4640 C   0  0  0  0  0  0  0  0  0  0  0  0
   -0.4520   21.2040  -34.5920 C   0  0  0  0  0  0  0  0  0  0  0  0
    0.8770   20.7810  -34.6810 C   0  0  0  0  0  0  0  0  0  0  0  0
    1.4470   20.0420  -33.6430 C   0  0  0  0  0  0  0  0  0  0  0  0
    0.6870   19.7150  -32.5180 C   0  0  0  0  0  0  0  0  0  0  0  0
   -0.6560   20.1200  -32.4240 C   0  0  0  0  0  0  0  0  0  0  0  0
   -1.4540   19.7570  -31.2870 N   0  0  0  0  0  0  0  0  0  0  0  0
   -1.3280   20.2990  -29.9640 C   0  0  0  0  0  0  0  0  0  0  0  0
   -1.0000   19.5200  -29.0300 O   0  0  0  0  0  0  0  0  0  0  0  0
   -1.4870   21.7510  -29.6860 C   0  0  0  0  0  0  0  0  0  0  0  0
   -2.5520   22.4650  -30.2620 C   0  0  0  0  0  0  0  0  0  0  0  0
   -2.7240   23.8400  -30.0310 C   0  0  0  0  0  0  0  0  0  0  0  0
   -3.8970   24.5480  -30.6100 C   0  0  0  0  0  0  0  0  0  0  0  0
   -4.2310   25.6760  -30.1600 O   0  0  0  0  0  0  0  0  0  0  0  0
   -4.7220   23.9440  -31.6160 N   0  0  0  0  0  0  0  0  0  0  0  0
   -5.7700   22.9970  -31.3640 C   0  0  0  0  0  0  0  0  0  0  0  0
   -6.6690   23.1980  -30.3060 C   0  0  0  0  0  0  0  0  0  0  0  0
   -7.6880   22.2790  -30.0630 C   0  0  0  0  0  0  0  0  0  0  0  0
   -7.8250   21.1540  -30.8770 C   0  0  0  0  0  0  0  0  0  0  0  0
   -6.9480   20.9410  -31.9530 C   0  0  0  0  0  0  0  0  0  0  0  0
   -7.1200   19.7490  -32.8180 C   0  0  0  0  0  0  0  0  0  0  0  0
   -8.2860   19.3550  -33.0910 O   0  0  0  0  0  0  0  0  0  0  0  0
   -5.9880   19.0410  -33.3670 N   0  0  0  0  0  0  0  0  0  0  0  0
   -6.1610   18.2840  -34.6160 C   0  0  0  0  0  0  0  0  0  0  0  0
   -4.8140   17.8120  -35.1740 C   0  0  0  0  0  0  0  0  0  0  0  0
   -4.0060   17.0220  -34.1300 C   0  0  0  0  0  0  0  0  0  0  0  0
   -4.1220   17.5850  -32.6980 C   0  0  0  0  0  0  0  0  0  0  0  0
   -4.6940   19.0060  -32.6640 C   0  0  0  0  0  0  0  0  0  0  0  0
   -5.9030   21.8610  -32.1880 C   0  0  0  0  0  0  0  0  0  0  0  0
   -5.0310   21.6560  -33.2600 O   0  0  0  0  0  0  0  0  0  0  0  0
   -1.7950   24.5140  -29.2140 C   0  0  0  0  0  0  0  0  0  0  0  0
   -1.9140   25.8770  -28.9690 O   0  0  0  0  0  0  0  0  0  0  0  0
   -0.7250   23.8160  -28.6480 C   0  0  0  0  0  0  0  0  0  0  0  0
   -0.5670   22.4460  -28.8750 C   0  0  0  0  0  0  0  0  0  0  0  0
    0.5010   21.7850  -28.2780 O   0  0  0  0  0  0  0  0  0  0  0  0
   -3.1380   21.2470  -32.5170 H   0  0  0  0  0  0  0  0  0  0  0  0
   -3.0670   21.7000  -34.2450 H   0  0  0  0  0  0  0  0  0  0  0  0
   -0.8955   21.7901  -35.4104 H   0  0  0  0  0  0  0  0  0  0  0  0
    1.4746   21.0307  -35.5701 H   0  0  0  0  0  0  0  0  0  0  0  0
    2.4957   19.7170  -33.7112 H   0  0  0  0  0  0  0  0  0  0  0  0
    1.1420   19.1369  -31.7002 H   0  0  0  0  0  0  0  0  0  0  0  0
   -3.2671   21.9350  -30.9084 H   0  0  0  0  0  0  0  0  0  0  0  0
   -6.5690   24.0860  -29.6646 H   0  0  0  0  0  0  0  0  0  0  0  0
   -8.3856   22.4407  -29.2280 H   0  0  0  0  0  0  0  0  0  0  0  0
   -8.6263   20.4282  -30.6743 H   0  0  0  0  0  0  0  0  0  0  0  0
   -6.7939   17.4063  -34.4180 H   0  0  0  0  0  0  0  0  0  0  0  0
   -6.6317   18.9445  -35.3591 H   0  0  0  0  0  0  0  0  0  0  0  0
   -4.9967   17.1661  -36.0455 H   0  0  0  0  0  0  0  0  0  0  0  0
   -4.2308   18.7013  -35.4550 H   0  0  0  0  0  0  0  0  0  0  0  0
   -4.3677   15.9832  -34.1248 H   0  0  0  0  0  0  0  0  0  0  0  0
   -2.9475   17.0972  -34.4195 H   0  0  0  0  0  0  0  0  0  0  0  0
   -4.7815   16.9265  -32.1137 H   0  0  0  0  0  0  0  0  0  0  0  0
   -3.1076   17.6258  -32.2746 H   0  0  0  0  0  0  0  0  0  0  0  0
   -4.8380   19.3166  -31.6186 H   0  0  0  0  0  0  0  0  0  0  0  0
   -3.9922   19.6916  -33.1615 H   0  0  0  0  0  0  0  0  0  0  0  0
   -4.6000   22.4180  -33.7670 H   0  0  0  0  0  0  0  0  0  0  0  0
    0.0006   24.3504  -28.0172 H   0  0  0  0  0  0  0  0  0  0  0  0
  1  2  1  0
  2  3  2  0
  3  4  1  0
  4  5  2  0
  5  6  1  0
  6  7  2  0
  7  8  1  0
  8  9  1  0
  9 10  2  0
  9 11  1  0
 11 12  2  0
 12 13  1  0
 13 14  1  0
 14 15  2  0
 14 16  1  0
 16 17  1  0
 17 18  2  0
 18 19  1  0
 19 20  2  0
 20 21  1  0
 21 22  1  0
 22 23  2  0
 22 24  1  0
 24 25  1  0
 25 26  1  0
 26 27  1  0
 27 28  1  0
 28 29  1  0
 21 30  2  0
 30 31  1  0
 13 32  2  0
 32 33  1  0
 32 34  1  0
 34 35  2  0
 35 36  1  0
  7  2  1  0
 35 11  1  0
 30 17  1  0
 29 24  1  0
  1 37  1  0
  1 38  1  0
  3 39  1  0
  4 40  1  0
  5 41  1  0
  6 42  1  0
 12 43  1  0
 18 44  1  0
 19 45  1  0
 20 46  1  0
 25 47  1  0
 25 48  1  0
 26 49  1  0
 26 50  1  0
 27 51  1  0
 27 52  1  0
 28 53  1  0
 28 54  1  0
 29 55  1  0
 29 56  1  0
 31 57  1  0
 34 58  1  0
M  CHG  4   8  -1  16  -1  33  -1  36  -1
M  END
>  <UniqueID>  (49) 
48

>  <SMILES>  (49) 
Nc1ccccc1[N-]C(=O)c1cc(C(=O)[N-]c2cccc(C(=O)N3CCCCC3)c2O)c([O-])cc1[O-]

>  <Energy>  (49) 
81.90423717437571

>  <Genealogy>  (49) 
Nc1ccccc1[N-]C(=O)c1cc(C(=O)[N-]c2cccc(C(=O)N3CCCCC3)c2O)c([O-])cc1[O-] (protonated)
Nc1ccccc1[N-]C(=O)c1cc(C(=O)[N-]c2cccc(C(=O)N3CCCCC3)c2O)c([O-])cc1[O-] (3D coordinates assigned)
Nc1ccccc1[N-]C(=O)c1cc(C(=O)[N-]c2cccc(C(=O)N3CCCCC3)c2O)c([O-])cc1[O-] (nonaromatic ring conformer: 81.90423717437571 kcal/mol)

>  <smiles>  (49) 
Nc1ccccc1NC(=O)c1cc(C(=O)Nc2cccc(C(=O)N3CCCCC3)c2O)c(O)cc1O

>  <score_type>  (49) 
oracle

>  <origin>  (49) 
adgpu

>  <m_score__min__energy>  (49) 
-13.4

>  <m_primary>  (49) 
energy

$$$$
