0:0
     RDKit          3D

 26 27  0  0  0  0  0  0  0  0999 V2000
   -3.0130   19.1662  -27.6280 H   0  0  0  0  0  0  0  0  0  0  0  0
   -2.4740   20.0830  -27.9090 C   0  0  0  0  0  0  0  0  0  0  0  0
   -3.0900   21.2550  -27.6820 C   0  0  0  0  0  0  0  0  0  0  0  0
   -4.0273   21.2300  -27.1068 H   0  0  0  0  0  0  0  0  0  0  0  0
   -2.6100   22.5780  -28.1430 C   0  0  0  0  0  0  0  0  0  0  0  0
   -1.4670   23.1350  -27.5490 C   0  0  0  0  0  0  0  0  0  0  0  0
   -0.9311   22.5785  -26.7660 H   0  0  0  0  0  0  0  0  0  0  0  0
   -1.0060   24.3930  -27.9470 C   0  0  0  0  0  0  0  0  0  0  0  0
   -0.1008   24.8166  -27.4874 H   0  0  0  0  0  0  0  0  0  0  0  0
   -1.6930   25.1140  -28.9280 C   0  0  0  0  0  0  0  0  0  0  0  0
   -1.2270   26.3620  -29.3220 O   0  0  0  0  0  0  0  0  0  0  0  0
   -2.8510   24.5790  -29.5050 C   0  0  0  0  0  0  0  0  0  0  0  0
   -3.5460   25.2980  -30.4720 O   0  0  0  0  0  0  0  0  0  0  0  0
   -3.3150   23.3210  -29.1080 C   0  0  0  0  0  0  0  0  0  0  0  0
   -4.2342   22.9108  -29.5516 H   0  0  0  0  0  0  0  0  0  0  0  0
   -1.1300   19.9250  -28.5060 C   0  0  0  0  0  0  0  0  0  0  0  0
   -0.9850   20.0150  -29.8990 C   0  0  0  0  0  0  0  0  0  0  0  0
   -1.8637   20.2205  -30.5281 H   0  0  0  0  0  0  0  0  0  0  0  0
    0.2700   19.8450  -30.4920 C   0  0  0  0  0  0  0  0  0  0  0  0
    0.4080   19.9540  -31.8690 O   0  0  0  0  0  0  0  0  0  0  0  0
    1.3870   19.5650  -29.6990 C   0  0  0  0  0  0  0  0  0  0  0  0
    2.3756   19.4415  -30.1652 H   0  0  0  0  0  0  0  0  0  0  0  0
    1.2470   19.4420  -28.3130 C   0  0  0  0  0  0  0  0  0  0  0  0
    2.3550   19.1480  -27.5270 O   0  0  0  0  0  0  0  0  0  0  0  0
   -0.0070   19.6110  -27.7170 C   0  0  0  0  0  0  0  0  0  0  0  0
   -0.1162   19.4982  -26.6283 H   0  0  0  0  0  0  0  0  0  0  0  0
  1  2  1  0
  2  3  2  0
  3  4  1  0
  3  5  1  0
  5  6  2  0
  6  7  1  0
  6  8  1  0
  8  9  1  0
  8 10  2  0
 10 11  1  0
 10 12  1  0
 12 13  1  0
 12 14  2  0
 14 15  1  0
  2 16  1  0
 16 17  2  0
 17 18  1  0
 17 19  1  0
 19 20  1  0
 19 21  2  0
 21 22  1  0
 21 23  1  0
 23 24  1  0
 23 25  2  0
 25 26  1  0
 14  5  1  0
 25 16  1  0
M  CHG  4  11  -1  13  -1  20  -1  24  -1
M  END
>  <UniqueID>  (1) 
1

>  <SMILES>  (1) 
[O-]c1cc([O-])cc(/C=C\c2ccc([O-])c([O-])c2)c1

>  <Energy>  (1) 
36.90813319285313

>  <Genealogy>  (1) 
[O-]c1cc([O-])cc(C=Cc2ccc([O-])c([O-])c2)c1 (protonated)
[O-]c1cc([O-])cc(/C=C\c2ccc([O-])c([O-])c2)c1 (cis-trans isomerization)
[O-]c1cc([O-])cc(/C=C\c2ccc([O-])c([O-])c2)c1 (3D coordinates assigned)
[O-]c1cc([O-])cc(/C=C\c2ccc([O-])c([O-])c2)c1 (optimized conformer: 36.90813319285313 kcal/mol)

>  <smiles>  (1) 
Oc1cc(O)cc(C=Cc2ccc(O)c(O)c2)c1

>  <score_type>  (1) 
oracle

>  <origin>  (1) 
adgpu

>  <m_score__min__energy>  (1) 
-12.050000000000001

>  <m_primary>  (1) 
energy

$$$$
1:0
     RDKit          3D

 42 44  0  0  0  0  0  0  0  0999 V2000
   -6.4580   15.9510  -33.9740 C   0  0  0  0  0  0  0  0  0  0  0  0
   -7.2760   16.6930  -33.0690 O   0  0  0  0  0  0  0  0  0  0  0  0
   -6.8770   18.0010  -32.7690 C   0  0  0  0  0  0  0  0  0  0  0  0
   -5.5400   18.3090  -32.6090 C   0  0  0  0  0  0  0  0  0  0  0  0
   -5.1450   19.6040  -32.3120 C   0  0  0  0  0  0  0  0  0  0  0  0
   -6.1520   20.5350  -32.1920 C   0  0  0  0  0  0  0  0  0  0  0  0
   -5.8840   21.9260  -31.9050 N   0  0  0  0  0  0  0  0  0  0  0  0
   -5.2940   22.4340  -30.7880 C   0  0  0  0  0  0  0  0  0  0  0  0
   -5.2540   23.8040  -30.8960 C   0  0  0  0  0  0  0  0  0  0  0  0
   -4.6720   24.7580  -29.8750 C   0  0  2  0  0  0  0  0  0  0  0  0
   -4.2370   25.8720  -30.6190 O   0  0  0  0  0  0  0  0  0  0  0  0
   -3.6890   24.1300  -29.1420 N   0  0  0  0  0  0  0  0  0  0  0  0
   -2.7160   23.5100  -28.4180 C   0  0  0  0  0  0  0  0  0  0  0  0
   -2.7060   22.3360  -27.7010 C   0  0  0  0  0  0  0  0  0  0  0  0
   -1.5980   21.8820  -27.0120 C   0  0  0  0  0  0  0  0  0  0  0  0
   -0.4730   22.6470  -27.0580 C   0  0  0  0  0  0  0  0  0  0  0  0
   -0.3990   23.8120  -27.7390 N   0  0  0  0  0  0  0  0  0  0  0  0
   -1.4780   24.2110  -28.3830 C   0  0  0  0  0  0  0  0  0  0  0  0
   -1.3750   25.3190  -29.0220 O   0  0  0  0  0  0  0  0  0  0  0  0
   -5.8200   24.1060  -32.0740 N   0  0  0  0  0  0  0  0  0  0  0  0
   -6.1970   22.9670  -32.6790 N   0  0  0  0  0  0  0  0  0  0  0  0
   -7.4890   20.2280  -32.3510 C   0  0  0  0  0  0  0  0  0  0  0  0
   -8.4910   21.1930  -32.2210 O   0  0  0  0  0  0  0  0  0  0  0  0
   -9.1110   21.4860  -30.9740 C   0  0  0  0  0  0  0  0  0  0  0  0
   -7.8850   18.9430  -32.6460 C   0  0  0  0  0  0  0  0  0  0  0  0
   -5.7611   15.3188  -33.4042 H   0  0  0  0  0  0  0  0  0  0  0  0
   -7.0948   15.3160  -34.6075 H   0  0  0  0  0  0  0  0  0  0  0  0
   -5.8879   16.6465  -34.6075 H   0  0  0  0  0  0  0  0  0  0  0  0
   -4.7819   17.5195  -32.7183 H   0  0  0  0  0  0  0  0  0  0  0  0
   -4.0866   19.8727  -32.1796 H   0  0  0  0  0  0  0  0  0  0  0  0
   -4.9127   21.8460  -29.9401 H   0  0  0  0  0  0  0  0  0  0  0  0
   -5.3943   25.0922  -29.1156 H   0  0  0  0  0  0  0  0  0  0  0  0
   -4.2550   25.6770  -31.5960 H   0  0  0  0  0  0  0  0  0  0  0  0
   -3.3090   25.3350  -28.6800 H   0  0  0  0  0  0  0  0  0  0  0  0
   -3.6237   21.7301  -27.6751 H   0  0  0  0  0  0  0  0  0  0  0  0
   -1.6239   20.9382  -26.4476 H   0  0  0  0  0  0  0  0  0  0  0  0
    0.4186   22.3004  -26.5149 H   0  0  0  0  0  0  0  0  0  0  0  0
    0.4950   24.3460  -27.7310 H   0  0  0  0  0  0  0  0  0  0  0  0
   -8.4491   21.1732  -30.1530 H   0  0  0  0  0  0  0  0  0  0  0  0
   -9.2978   22.5677  -30.9026 H   0  0  0  0  0  0  0  0  0  0  0  0
  -10.0653   20.9436  -30.9026 H   0  0  0  0  0  0  0  0  0  0  0  0
   -8.9447   18.6786  -32.7770 H   0  0  0  0  0  0  0  0  0  0  0  0
  1  2  1  0
  2  3  1  0
  3  4  2  0
  4  5  1  0
  5  6  2  0
  6  7  1  0
  7  8  1  0
  8  9  2  0
  9 10  1  0
 10 11  1  0
 10 12  1  0
 12 13  1  0
 13 14  2  0
 14 15  1  0
 15 16  2  0
 16 17  1  0
 17 18  1  0
 18 19  2  0
  9 20  1  0
 20 21  2  0
  6 22  1  0
 22 23  1  0
 23 24  1  0
 22 25  2  0
 25  3  1  0
 21  7  1  0
 18 13  1  0
  1 26  1  0
  1 27  1  0
  1 28  1  0
  4 29  1  0
  5 30  1  0
  8 31  1  0
 10 32  1  1
 11 33  1  0
 12 34  1  0
 14 35  1  0
 15 36  1  0
 16 37  1  0
 17 38  1  0
 24 39  1  0
 24 40  1  0
 24 41  1  0
 25 42  1  0
M  END
>  <UniqueID>  (2) 
2

>  <SMILES>  (2) 
COc1ccc(-n2cc([C@H](O)Nc3ccc[nH]c3=O)nn2)c(OC)c1

>  <Energy>  (2) 
259.3543052598579

>  <Genealogy>  (2) 
COc1ccc(-n2cc([C@H](O)Nc3ccc[nH]c3=O)nn2)c(OC)c1 (chirality)
COc1ccc(-n2cc([C@H](O)Nc3ccc[nH]c3=O)nn2)c(OC)c1 (3D coordinates assigned)
COc1ccc(-n2cc([C@H](O)Nc3ccc[nH]c3=O)nn2)c(OC)c1 (optimized conformer: 259.3543052598579 kcal/mol)

>  <smiles>  (2) 
COc1ccc(-n2cc(C(O)Nc3ccc[nH]c3=O)nn2)c(OC)c1

>  <score_type>  (2) 
oracle

>  <origin>  (2) 
adgpu

>  <m_score__min__energy>  (2) 
-8

>  <m_primary>  (2) 
energy

$$$$
2:0
     RDKit          3D

 51 53  0  0  0  0  0  0  0  0999 V2000
   -5.9770   24.5480  -31.0240 C   0  0  0  0  0  0  0  0  0  0  0  0
   -4.5620   24.5280  -30.8710 O   0  0  0  0  0  0  0  0  0  0  0  0
   -3.8600   23.6120  -30.0710 C   0  0  0  0  0  0  0  0  0  0  0  0
   -3.7420   23.7800  -28.6770 C   0  0  0  0  0  0  0  0  0  0  0  0
   -3.0280   22.8580  -27.9100 C   0  0  0  0  0  0  0  0  0  0  0  0
   -2.4390   21.7450  -28.5150 C   0  0  0  0  0  0  0  0  0  0  0  0
   -1.5280   20.5930  -27.5400 S   0  0  0  0  0  0  0  0  0  0  0  0
   -1.0860   19.4210  -28.3700 O   0  0  0  0  0  0  0  0  0  0  0  0
   -2.4120   20.0820  -26.4380 O   0  0  0  0  0  0  0  0  0  0  0  0
   -0.1490   21.3830  -26.8430 N   0  0  0  0  0  0  0  0  0  0  0  0
   -0.2290   22.6490  -26.1690 C   0  0  0  0  0  0  0  0  0  0  0  0
   -0.4020   22.6800  -24.7770 C   0  0  0  0  0  0  0  0  0  0  0  0
   -0.4980   23.9000  -24.1000 C   0  0  0  0  0  0  0  0  0  0  0  0
   -0.4110   25.1010  -24.8090 C   0  0  0  0  0  0  0  0  0  0  0  0
   -0.5330   26.6320  -23.9610 Cl  0  0  0  0  0  0  0  0  0  0  0  0
   -0.2180   25.0820  -26.1930 C   0  0  0  0  0  0  0  0  0  0  0  0
   -0.1190   23.8630  -26.8700 C   0  0  0  0  0  0  0  0  0  0  0  0
   -2.5550   21.5690  -29.8980 C   0  0  0  0  0  0  0  0  0  0  0  0
   -3.2450   22.5050  -30.6870 C   0  0  0  0  0  0  0  0  0  0  0  0
   -3.3500   22.3260  -32.1110 N   0  0  0  0  0  0  0  0  0  0  0  0
   -2.7350   21.2090  -32.8290 C   0  0  0  0  0  0  0  0  0  0  0  0
   -3.7910   20.1670  -33.2050 C   0  0  0  0  0  0  0  0  0  0  0  0
   -5.0820   20.8000  -33.4770 N   0  0  0  0  0  0  0  0  0  0  0  0
   -6.3410   20.3680  -32.9220 C   0  0  0  0  0  0  0  0  0  0  0  0
   -7.1850   21.3180  -32.3230 C   0  0  0  0  0  0  0  0  0  0  0  0
   -8.4040   20.9300  -31.7590 C   0  0  0  0  0  0  0  0  0  0  0  0
   -8.7940   19.5900  -31.7890 C   0  0  0  0  0  0  0  0  0  0  0  0
   -7.9700   18.6360  -32.3880 C   0  0  0  0  0  0  0  0  0  0  0  0
   -6.7480   19.0180  -32.9520 C   0  0  0  0  0  0  0  0  0  0  0  0
   -6.4530   24.5547  -30.0323 H   0  0  0  0  0  0  0  0  0  0  0  0
   -6.2731   25.4504  -31.5790 H   0  0  0  0  0  0  0  0  0  0  0  0
   -6.2985   23.6543  -31.5790 H   0  0  0  0  0  0  0  0  0  0  0  0
   -4.2163   24.6445  -28.1894 H   0  0  0  0  0  0  0  0  0  0  0  0
   -2.9287   23.0083  -26.8249 H   0  0  0  0  0  0  0  0  0  0  0  0
    0.7190   20.8100  -26.7380 H   0  0  0  0  0  0  0  0  0  0  0  0
   -0.4626   21.7372  -24.2136 H   0  0  0  0  0  0  0  0  0  0  0  0
   -0.6420   23.9141  -23.0096 H   0  0  0  0  0  0  0  0  0  0  0  0
   -0.1439   26.0275  -26.7503 H   0  0  0  0  0  0  0  0  0  0  0  0
    0.0459   23.8534  -27.9575 H   0  0  0  0  0  0  0  0  0  0  0  0
   -2.1006   20.6873  -30.3736 H   0  0  0  0  0  0  0  0  0  0  0  0
   -3.7420   23.1050  -32.6870 H   0  0  0  0  0  0  0  0  0  0  0  0
   -2.2570   21.5867  -33.7449 H   0  0  0  0  0  0  0  0  0  0  0  0
   -1.9854   20.7366  -32.1771 H   0  0  0  0  0  0  0  0  0  0  0  0
   -3.4590   19.6272  -34.1041 H   0  0  0  0  0  0  0  0  0  0  0  0
   -3.9132   19.4728  -32.3605 H   0  0  0  0  0  0  0  0  0  0  0  0
   -5.0810   21.6170  -34.1280 H   0  0  0  0  0  0  0  0  0  0  0  0
   -6.8843   22.3758  -32.2975 H   0  0  0  0  0  0  0  0  0  0  0  0
   -9.0567   21.6817  -31.2910 H   0  0  0  0  0  0  0  0  0  0  0  0
   -9.7512   19.2858  -31.3403 H   0  0  0  0  0  0  0  0  0  0  0  0
   -8.2820   17.5816  -32.4167 H   0  0  0  0  0  0  0  0  0  0  0  0
   -6.1015   18.2617  -33.4211 H   0  0  0  0  0  0  0  0  0  0  0  0
  1  2  1  0
  2  3  1  0
  3  4  2  0
  4  5  1  0
  5  6  2  0
  6  7  1  0
  7  8  2  0
  7  9  2  0
  7 10  1  0
 10 11  1  0
 11 12  2  0
 12 13  1  0
 13 14  2  0
 14 15  1  0
 14 16  1  0
 16 17  2  0
  6 18  1  0
 18 19  2  0
 19 20  1  0
 20 21  1  0
 21 22  1  0
 22 23  1  0
 23 24  1  0
 24 25  2  0
 25 26  1  0
 26 27  2  0
 27 28  1  0
 28 29  2  0
 19  3  1  0
 29 24  1  0
 17 11  1  0
  1 30  1  0
  1 31  1  0
  1 32  1  0
  4 33  1  0
  5 34  1  0
 10 35  1  0
 12 36  1  0
 13 37  1  0
 16 38  1  0
 17 39  1  0
 18 40  1  0
 20 41  1  0
 21 42  1  0
 21 43  1  0
 22 44  1  0
 22 45  1  0
 23 46  1  0
 25 47  1  0
 26 48  1  0
 27 49  1  0
 28 50  1  0
 29 51  1  0
M  END
>  <UniqueID>  (3) 
3

>  <SMILES>  (3) 
COc1ccc(S(=O)(=O)Nc2ccc(Cl)cc2)cc1NCCNc1ccccc1

>  <Energy>  (3) 
51.5538831125378

>  <Genealogy>  (3) 
COc1ccc(S(=O)(=O)Nc2ccc(Cl)cc2)cc1NCCNc1ccccc1 (3D coordinates assigned)
COc1ccc(S(=O)(=O)Nc2ccc(Cl)cc2)cc1NCCNc1ccccc1 (optimized conformer: 51.5538831125378 kcal/mol)

>  <smiles>  (3) 
COc1ccc(S(=O)(=O)Nc2ccc(Cl)cc2)cc1NCCNc1ccccc1

>  <score_type>  (3) 
oracle

>  <origin>  (3) 
adgpu

>  <m_score__min__energy>  (3) 
-9.2400000000000002

>  <m_primary>  (3) 
energy

$$$$
3:0
     RDKit          3D

 28 29  0  0  0  0  0  0  0  0999 V2000
   -6.1050   20.0830  -33.3980 C   0  0  0  0  0  0  0  0  0  0  0  0
   -6.7440   21.0060  -32.4030 C   0  0  0  0  0  0  0  0  0  0  0  0
   -8.1400   21.1050  -32.3290 C   0  0  0  0  0  0  0  0  0  0  0  0
   -8.7370   21.9220  -31.3650 C   0  0  0  0  0  0  0  0  0  0  0  0
   -7.9450   22.6420  -30.4680 C   0  0  0  0  0  0  0  0  0  0  0  0
   -6.5460   22.5600  -30.5300 C   0  0  0  0  0  0  0  0  0  0  0  0
   -5.7530   23.2860  -29.5750 N   0  0  0  0  0  0  0  0  0  0  0  0
   -4.5570   24.0110  -29.9110 C   0  0  0  0  0  0  0  0  0  0  0  0
   -4.3010   24.2790  -31.1170 O   0  0  0  0  0  0  0  0  0  0  0  0
   -3.6440   24.4800  -28.8460 C   0  0  0  0  0  0  0  0  0  0  0  0
   -4.0370   24.4690  -27.4970 C   0  0  0  0  0  0  0  0  0  0  0  0
   -3.1500   24.9240  -26.5190 C   0  0  0  0  0  0  0  0  0  0  0  0
   -1.8850   25.3850  -26.8880 C   0  0  0  0  0  0  0  0  0  0  0  0
   -1.5260   25.3850  -28.2360 C   0  0  0  0  0  0  0  0  0  0  0  0
   -2.4040   24.9380  -29.1740 N   0  0  0  0  0  0  0  0  0  0  0  0
   -5.9500   21.7170  -31.4880 C   0  0  0  0  0  0  0  0  0  0  0  0
   -5.5573   19.2918  -32.8651 H   0  0  0  0  0  0  0  0  0  0  0  0
   -6.8830   19.6289  -34.0293 H   0  0  0  0  0  0  0  0  0  0  0  0
   -5.4061   20.6514  -34.0293 H   0  0  0  0  0  0  0  0  0  0  0  0
   -8.7679   20.5378  -33.0319 H   0  0  0  0  0  0  0  0  0  0  0  0
   -9.8331   21.9981  -31.3127 H   0  0  0  0  0  0  0  0  0  0  0  0
   -8.4216   23.2779  -29.7074 H   0  0  0  0  0  0  0  0  0  0  0  0
   -6.1210   23.3650  -28.6000 H   0  0  0  0  0  0  0  0  0  0  0  0
   -5.0355   24.1048  -27.2135 H   0  0  0  0  0  0  0  0  0  0  0  0
   -3.4475   24.9192  -25.4600 H   0  0  0  0  0  0  0  0  0  0  0  0
   -1.1793   25.7442  -26.1244 H   0  0  0  0  0  0  0  0  0  0  0  0
   -0.5327   25.7465  -28.5405 H   0  0  0  0  0  0  0  0  0  0  0  0
   -4.8552   21.6147  -31.5199 H   0  0  0  0  0  0  0  0  0  0  0  0
  1  2  1  0
  2  3  2  0
  3  4  1  0
  4  5  2  0
  5  6  1  0
  6  7  1  0
  7  8  1  0
  8  9  2  0
  8 10  1  0
 10 11  2  0
 11 12  1  0
 12 13  2  0
 13 14  1  0
 14 15  2  0
  6 16  2  0
 16  2  1  0
 15 10  1  0
  1 17  1  0
  1 18  1  0
  1 19  1  0
  3 20  1  0
  4 21  1  0
  5 22  1  0
  7 23  1  0
 11 24  1  0
 12 25  1  0
 13 26  1  0
 14 27  1  0
 16 28  1  0
M  END
>  <UniqueID>  (4) 
4

>  <SMILES>  (4) 
Cc1cccc(NC(=O)c2ccccn2)c1

>  <Energy>  (4) 
32.267562625845564

>  <Genealogy>  (4) 
Cc1cccc(NC(=O)c2ccccn2)c1 (3D coordinates assigned)
Cc1cccc(NC(=O)c2ccccn2)c1 (optimized conformer: 32.267562625845564 kcal/mol)

>  <smiles>  (4) 
Cc1cccc(NC(=O)c2ccccn2)c1

>  <score_type>  (4) 
oracle

>  <origin>  (4) 
adgpu

>  <m_score__min__energy>  (4) 
-6.79

>  <m_primary>  (4) 
energy

$$$$
4:0
     RDKit          3D

 40 41  0  0  1  0  0  0  0  0999 V2000
   -1.5110   24.9970  -27.0420 C   0  0  0  0  0  0  0  0  0  0  0  0
   -2.4170   24.8580  -28.1920 C   0  0  0  0  0  0  0  0  0  0  0  0
   -2.0590   25.2930  -29.3370 O   0  0  0  0  0  0  0  0  0  0  0  0
   -3.6700   24.2400  -27.9960 N   0  0  0  0  0  0  0  0  0  0  0  0
   -4.5770   24.0870  -29.0850 C   0  0  0  0  0  0  0  0  0  0  0  0
   -5.6260   24.9590  -29.3150 C   0  0  0  0  0  0  0  0  0  0  0  0
   -6.4490   24.7220  -30.4000 C   0  0  0  0  0  0  0  0  0  0  0  0
   -6.2580   23.6540  -31.2540 C   0  0  0  0  0  0  0  0  0  0  0  0
   -7.1690   23.4140  -32.4330 C   0  0  0  0  0  0  0  0  0  0  0  0
   -8.2010   22.5290  -31.9230 N   0  0  0  0  0  0  0  0  0  0  0  0
   -8.0720   21.2710  -32.1010 C   0  0  0  0  0  0  0  0  0  0  0  0
   -7.0120   20.6750  -32.7530 C   0  0  0  0  0  0  0  0  0  0  0  0
   -6.9630   19.3000  -32.8960 C   0  0  0  0  0  0  0  0  0  0  0  0
   -5.8940   18.6640  -33.5540 N   0  0  0  0  0  0  0  0  0  0  0  0
   -6.1090   17.3970  -34.2260 C   0  0  0  0  0  0  0  0  0  0  0  0
   -4.5980   19.2690  -33.5630 C   0  0  0  0  0  0  0  0  0  0  0  0
   -7.9850   18.6030  -32.3740 N   0  0  0  0  0  0  0  0  0  0  0  0
   -9.0330   19.1460  -31.7340 C   0  0  0  0  0  0  0  0  0  0  0  0
   -9.0710   20.4850  -31.6010 N   0  0  0  0  0  0  0  0  0  0  0  0
   -5.1920   22.7870  -31.0030 C   0  0  0  0  0  0  0  0  0  0  0  0
   -4.3660   23.0150  -29.9220 C   0  0  0  0  0  0  0  0  0  0  0  0
   -2.0867   24.9087  -26.1089 H   0  0  0  0  0  0  0  0  0  0  0  0
   -0.7481   24.2054  -27.0785 H   0  0  0  0  0  0  0  0  0  0  0  0
   -1.0205   25.9809  -27.0785 H   0  0  0  0  0  0  0  0  0  0  0  0
   -3.9670   23.8830  -27.0620 H   0  0  0  0  0  0  0  0  0  0  0  0
   -5.8007   25.8188  -28.6516 H   0  0  0  0  0  0  0  0  0  0  0  0
   -7.2866   25.4093  -30.5900 H   0  0  0  0  0  0  0  0  0  0  0  0
   -7.6071   24.3599  -32.7843 H   0  0  0  0  0  0  0  0  0  0  0  0
   -6.6351   22.9815  -33.2920 H   0  0  0  0  0  0  0  0  0  0  0  0
   -6.2015   21.2967  -33.1613 H   0  0  0  0  0  0  0  0  0  0  0  0
   -6.2438   16.6029  -33.4769 H   0  0  0  0  0  0  0  0  0  0  0  0
   -7.0086   17.4638  -34.8554 H   0  0  0  0  0  0  0  0  0  0  0  0
   -5.2377   17.1633  -34.8554 H   0  0  0  0  0  0  0  0  0  0  0  0
   -4.2599   19.4269  -32.5282 H   0  0  0  0  0  0  0  0  0  0  0  0
   -3.8888   18.6089  -34.0838 H   0  0  0  0  0  0  0  0  0  0  0  0
   -4.6486   20.2366  -34.0838 H   0  0  0  0  0  0  0  0  0  0  0  0
   -9.8378   18.5145  -31.3297 H   0  0  0  0  0  0  0  0  0  0  0  0
   -9.8730   20.9120  -31.1100 H   0  0  0  0  0  0  0  0  0  0  0  0
   -5.0120   21.9265  -31.6642 H   0  0  0  0  0  0  0  0  0  0  0  0
   -3.5273   22.3307  -29.7263 H   0  0  0  0  0  0  0  0  0  0  0  0
  1  2  1  0
  2  3  2  0
  2  4  1  0
  4  5  1  0
  5  6  2  0
  6  7  1  0
  7  8  2  0
  8  9  1  0
  9 10  1  0
 10 11  2  0
 11 12  1  0
 12 13  2  0
 13 14  1  0
 14 15  1  0
 14 16  1  0
 13 17  1  0
 17 18  2  0
 18 19  1  0
  8 20  1  0
 20 21  2  0
 21  5  1  0
 19 11  1  0
  1 22  1  0
  1 23  1  0
  1 24  1  0
  4 25  1  0
  6 26  1  0
  7 27  1  0
  9 28  1  0
  9 29  1  0
 12 30  1  0
 15 31  1  0
 15 32  1  0
 15 33  1  0
 16 34  1  0
 16 35  1  0
 16 36  1  0
 18 37  1  0
 19 38  1  0
 20 39  1  0
 21 40  1  0
M  END
>  <smiles>  (5) 
CC(=O)Nc1ccc(CN=c2cc(N(C)C)nc[nH]2)cc1

>  <score_type>  (5) 
oracle

>  <origin>  (5) 
adgpu

>  <m_score__min__energy>  (5) 
-7.25

>  <m_primary>  (5) 
energy

$$$$
5:0
     RDKit          3D

 32 33  0  0  0  0  0  0  0  0999 V2000
   -1.3150   21.1590  -33.6290 C   0  0  0  0  0  0  0  0  0  0  0  0
   -2.4340   20.1870  -33.2650 C   0  0  0  0  0  0  0  0  0  0  0  0
   -3.3740   20.7940  -32.3070 N   0  0  0  0  0  0  0  0  0  0  0  0
   -4.7230   20.2890  -32.2290 C   0  0  0  0  0  0  0  0  0  0  0  0
   -4.9720   18.9150  -32.3810 C   0  0  0  0  0  0  0  0  0  0  0  0
   -6.2770   18.4210  -32.3070 C   0  0  0  0  0  0  0  0  0  0  0  0
   -7.3500   19.2880  -32.0800 C   0  0  0  0  0  0  0  0  0  0  0  0
   -9.1180   18.5560  -31.9890 Br  0  0  0  0  0  0  0  0  0  0  0  0
   -7.1120   20.6650  -31.9260 C   0  0  0  0  0  0  0  0  0  0  0  0
   -8.5410   21.9040  -31.6180 Br  0  0  0  0  0  0  0  0  0  0  0  0
   -5.8040   21.1580  -32.0010 C   0  0  0  0  0  0  0  0  0  0  0  0
   -2.9650   21.8540  -31.4090 C   0  0  0  0  0  0  0  0  0  0  0  0
   -3.6440   23.0840  -31.3510 C   0  0  0  0  0  0  0  0  0  0  0  0
   -3.1950   24.0630  -30.4640 C   0  0  0  0  0  0  0  0  0  0  0  0
   -3.8620   25.2900  -30.3980 O   0  0  0  0  0  0  0  0  0  0  0  0
   -5.2810   25.3960  -30.4010 C   0  0  0  0  0  0  0  0  0  0  0  0
   -2.1150   23.8140  -29.6730 N   0  0  0  0  0  0  0  0  0  0  0  0
   -1.4680   22.6240  -29.7340 C   0  0  0  0  0  0  0  0  0  0  0  0
   -1.8920   21.6610  -30.5920 N   0  0  0  0  0  0  0  0  0  0  0  0
   -0.8594   21.5547  -32.7093 H   0  0  0  0  0  0  0  0  0  0  0  0
   -0.5506   20.6334  -34.2200 H   0  0  0  0  0  0  0  0  0  0  0  0
   -1.7285   21.9895  -34.2200 H   0  0  0  0  0  0  0  0  0  0  0  0
   -2.9808   19.9105  -34.1785 H   0  0  0  0  0  0  0  0  0  0  0  0
   -1.9856   19.2976  -32.7982 H   0  0  0  0  0  0  0  0  0  0  0  0
   -4.1349   18.2240  -32.5593 H   0  0  0  0  0  0  0  0  0  0  0  0
   -6.4612   17.3433  -32.4281 H   0  0  0  0  0  0  0  0  0  0  0  0
   -5.6204   22.2358  -31.8803 H   0  0  0  0  0  0  0  0  0  0  0  0
   -4.5158   23.2715  -31.9951 H   0  0  0  0  0  0  0  0  0  0  0  0
   -5.6488   25.4235  -29.3647 H   0  0  0  0  0  0  0  0  0  0  0  0
   -5.5787   26.3189  -30.9203 H   0  0  0  0  0  0  0  0  0  0  0  0
   -5.7125   24.5276  -30.9203 H   0  0  0  0  0  0  0  0  0  0  0  0
   -0.5979   22.4384  -29.0871 H   0  0  0  0  0  0  0  0  0  0  0  0
  1  2  1  0
  2  3  1  0
  3  4  1  0
  4  5  2  0
  5  6  1  0
  6  7  2  0
  7  8  1  0
  7  9  1  0
  9 10  1  0
  9 11  2  0
  3 12  1  0
 12 13  2  0
 13 14  1  0
 14 15  1  0
 15 16  1  0
 14 17  2  0
 17 18  1  0
 18 19  2  0
 11  4  1  0
 19 12  1  0
  1 20  1  0
  1 21  1  0
  1 22  1  0
  2 23  1  0
  2 24  1  0
  5 25  1  0
  6 26  1  0
 11 27  1  0
 13 28  1  0
 16 29  1  0
 16 30  1  0
 16 31  1  0
 18 32  1  0
M  END
>  <UniqueID>  (6) 
5

>  <SMILES>  (6) 
CCN(c1ccc(Br)c(Br)c1)c1cc(OC)ncn1

>  <Energy>  (6) 
37.74275097384462

>  <Genealogy>  (6) 
CCN(c1ccc(Br)c(Br)c1)c1cc(OC)ncn1 (3D coordinates assigned)
CCN(c1ccc(Br)c(Br)c1)c1cc(OC)ncn1 (optimized conformer: 37.74275097384462 kcal/mol)

>  <smiles>  (6) 
CCN(c1ccc(Br)c(Br)c1)c1cc(OC)ncn1

>  <score_type>  (6) 
oracle

>  <origin>  (6) 
adgpu

>  <m_score__min__energy>  (6) 
-7.5

>  <m_primary>  (6) 
energy

$$$$
6:0
     RDKit          3D

 31 32  0  0  0  0  0  0  0  0999 V2000
   -2.3530   25.0540  -29.3220 O   0  0  0  0  0  0  0  0  0  0  0  0
   -3.2040   24.5420  -30.0970 C   0  0  0  0  0  0  0  0  0  0  0  0
   -4.1600   25.3810  -30.7550 N   0  0  0  0  0  0  0  0  0  0  0  0
   -5.5910   25.3600  -30.4760 C   0  0  0  0  0  0  0  0  0  0  0  0
   -6.3110   24.2850  -31.3040 C   0  0  0  0  0  0  0  0  0  0  0  0
   -6.9530   23.1840  -30.4430 C   0  0  0  0  0  0  0  0  0  0  0  0
   -7.4740   22.0920  -31.2640 N   0  0  0  0  0  0  0  0  0  0  0  0
   -6.7720   21.2760  -32.0680 C   0  0  0  0  0  0  0  0  0  0  0  0
   -7.6560   20.3970  -32.6520 C   0  0  0  0  0  0  0  0  0  0  0  0
   -8.9060   20.6550  -32.2160 N   0  0  0  0  0  0  0  0  0  0  0  0
   -8.7570   21.6940  -31.3680 C   0  0  0  0  0  0  0  0  0  0  0  0
   -3.2300   23.0790  -30.3320 C   0  0  0  0  0  0  0  0  0  0  0  0
   -3.3580   22.6050  -31.6510 C   0  0  0  0  0  0  0  0  0  0  0  0
   -3.3700   21.2340  -31.9200 C   0  0  0  0  0  0  0  0  0  0  0  0
   -3.2480   20.3160  -30.8770 C   0  0  0  0  0  0  0  0  0  0  0  0
   -3.1100   20.7670  -29.5640 C   0  0  0  0  0  0  0  0  0  0  0  0
   -3.0960   22.1390  -29.2800 C   0  0  0  0  0  0  0  0  0  0  0  0
   -2.8350   22.6160  -27.6050 Cl  0  0  0  0  0  0  0  0  0  0  0  0
   -5.7436   25.1495  -29.4072 H   0  0  0  0  0  0  0  0  0  0  0  0
   -6.0094   26.3409  -30.7459 H   0  0  0  0  0  0  0  0  0  0  0  0
   -7.1008   24.7707  -31.8959 H   0  0  0  0  0  0  0  0  0  0  0  0
   -5.5546   23.8022  -31.9402 H   0  0  0  0  0  0  0  0  0  0  0  0
   -6.1951   22.7823  -29.7543 H   0  0  0  0  0  0  0  0  0  0  0  0
   -7.7930   23.6277  -29.8884 H   0  0  0  0  0  0  0  0  0  0  0  0
   -5.6845   21.3051  -32.2307 H   0  0  0  0  0  0  0  0  0  0  0  0
   -7.3843   19.6050  -33.3654 H   0  0  0  0  0  0  0  0  0  0  0  0
   -9.5893   22.1632  -30.8230 H   0  0  0  0  0  0  0  0  0  0  0  0
   -3.4497   23.3223  -32.4799 H   0  0  0  0  0  0  0  0  0  0  0  0
   -3.4758   20.8782  -32.9555 H   0  0  0  0  0  0  0  0  0  0  0  0
   -3.2606   19.2368  -31.0896 H   0  0  0  0  0  0  0  0  0  0  0  0
   -3.0114   20.0394  -28.7449 H   0  0  0  0  0  0  0  0  0  0  0  0
  1  2  2  0
  2  3  1  0
  3  4  1  0
  4  5  1  0
  5  6  1  0
  6  7  1  0
  7  8  1  0
  8  9  2  0
  9 10  1  0
 10 11  2  0
  2 12  1  0
 12 13  2  0
 13 14  1  0
 14 15  2  0
 15 16  1  0
 16 17  2  0
 17 18  1  0
 11  7  1  0
 17 12  1  0
  4 19  1  0
  4 20  1  0
  5 21  1  0
  5 22  1  0
  6 23  1  0
  6 24  1  0
  8 25  1  0
  9 26  1  0
 11 27  1  0
 13 28  1  0
 14 29  1  0
 15 30  1  0
 16 31  1  0
M  CHG  1   3  -1
M  END
>  <UniqueID>  (7) 
6

>  <SMILES>  (7) 
O=C([N-]CCCn1ccnc1)c1ccccc1Cl

>  <Energy>  (7) 
56.11860725505346

>  <Genealogy>  (7) 
O=C([N-]CCCn1ccnc1)c1ccccc1Cl (protonated)
O=C([N-]CCCn1ccnc1)c1ccccc1Cl (3D coordinates assigned)
O=C([N-]CCCn1ccnc1)c1ccccc1Cl (optimized conformer: 56.11860725505346 kcal/mol)

>  <smiles>  (7) 
O=C(NCCCn1ccnc1)c1ccccc1Cl

>  <score_type>  (7) 
oracle

>  <origin>  (7) 
adgpu

>  <m_score__min__energy>  (7) 
-7.5599999999999996

>  <m_primary>  (7) 
energy

$$$$
7:0
     RDKit          3D

 35 36  0  0  0  0  0  0  0  0999 V2000
   -3.6520   24.5010  -27.1380 C   0  0  0  0  0  0  0  0  0  0  0  0
   -3.4940   23.3960  -28.1780 C   0  0  0  0  0  0  0  0  0  0  0  0
   -4.1450   23.7930  -29.4630 C   0  0  0  0  0  0  0  0  0  0  0  0
   -3.8050   24.8940  -30.1620 N   0  0  0  0  0  0  0  0  0  0  0  0
   -4.6440   24.9300  -31.1520 O   0  0  0  0  0  0  0  0  0  0  0  0
   -5.4670   23.9130  -31.0680 C   0  0  0  0  0  0  0  0  0  0  0  0
   -6.5980   23.6600  -32.0250 C   0  0  0  0  0  0  0  0  0  0  0  0
   -7.2600   22.3480  -31.8110 N   0  0  0  0  0  0  0  0  0  0  0  0
   -6.6320   21.2970  -32.6550 C   0  0  0  0  0  0  0  0  0  0  0  0
   -6.5910   19.9120  -31.9840 C   0  0  0  0  0  0  0  0  0  0  0  0
   -7.9120   19.1230  -32.0050 C   0  0  0  0  0  0  0  0  0  0  0  0
   -9.1210   19.9290  -32.5090 C   0  0  0  0  0  0  0  0  0  0  0  0
   -9.5300   21.1460  -31.6390 C   0  0  0  0  0  0  0  0  0  0  0  0
   -8.7500   22.4550  -31.9030 C   0  0  0  0  0  0  0  0  0  0  0  0
   -5.2010   23.1440  -29.9950 N   0  0  0  0  0  0  0  0  0  0  0  0
   -3.5899   24.0667  -26.1293 H   0  0  0  0  0  0  0  0  0  0  0  0
   -2.8509   25.2436  -27.2674 H   0  0  0  0  0  0  0  0  0  0  0  0
   -4.6291   24.9894  -27.2674 H   0  0  0  0  0  0  0  0  0  0  0  0
   -2.4235   23.2151  -28.3548 H   0  0  0  0  0  0  0  0  0  0  0  0
   -3.9750   22.4809  -27.8022 H   0  0  0  0  0  0  0  0  0  0  0  0
   -7.3477   24.4550  -31.8990 H   0  0  0  0  0  0  0  0  0  0  0  0
   -6.1733   23.6514  -33.0397 H   0  0  0  0  0  0  0  0  0  0  0  0
   -7.0420   22.0940  -30.8170 H   0  0  0  0  0  0  0  0  0  0  0  0
   -7.2048   21.2136  -33.5904 H   0  0  0  0  0  0  0  0  0  0  0  0
   -5.5897   21.6026  -32.8291 H   0  0  0  0  0  0  0  0  0  0  0  0
   -5.8286   19.3090  -32.4989 H   0  0  0  0  0  0  0  0  0  0  0  0
   -6.3690   20.0985  -30.9229 H   0  0  0  0  0  0  0  0  0  0  0  0
   -7.7818   18.2500  -32.6614 H   0  0  0  0  0  0  0  0  0  0  0  0
   -8.1301   18.8449  -30.9633 H   0  0  0  0  0  0  0  0  0  0  0  0
   -8.8834   20.2993  -33.5172 H   0  0  0  0  0  0  0  0  0  0  0  0
   -9.9759   19.2375  -32.4768 H   0  0  0  0  0  0  0  0  0  0  0  0
  -10.5964   21.3465  -31.8193 H   0  0  0  0  0  0  0  0  0  0  0  0
   -9.2967   20.8634  -30.6018 H   0  0  0  0  0  0  0  0  0  0  0  0
   -9.0028   22.8015  -32.9159 H   0  0  0  0  0  0  0  0  0  0  0  0
   -9.0520   23.1517  -31.1072 H   0  0  0  0  0  0  0  0  0  0  0  0
  1  2  1  0
  2  3  1  0
  3  4  2  0
  4  5  1  0
  5  6  1  0
  6  7  1  0
  7  8  1  0
  8  9  1  0
  9 10  1  0
 10 11  1  0
 11 12  1  0
 12 13  1  0
 13 14  1  0
  6 15  2  0
 15  3  1  0
 14  8  1  0
  1 16  1  0
  1 17  1  0
  1 18  1  0
  2 19  1  0
  2 20  1  0
  7 21  1  0
  7 22  1  0
  8 23  1  0
  9 24  1  0
  9 25  1  0
 10 26  1  0
 10 27  1  0
 11 28  1  0
 11 29  1  0
 12 30  1  0
 12 31  1  0
 13 32  1  0
 13 33  1  0
 14 34  1  0
 14 35  1  0
M  CHG  1   8   1
M  END
>  <UniqueID>  (8) 
7

>  <SMILES>  (8) 
CCc1noc(C[NH+]2CCCCCC2)n1

>  <Energy>  (8) 
77.29778021870911

>  <Genealogy>  (8) 
CCc1noc(C[NH+]2CCCCCC2)n1 (protonated)
CCc1noc(C[NH+]2CCCCCC2)n1 (3D coordinates assigned)
CCc1noc(C[NH+]2CCCCCC2)n1 (nonaromatic ring conformer: 77.29778021870911 kcal/mol)

>  <smiles>  (8) 
CCc1noc(CN2CCCCCC2)n1

>  <score_type>  (8) 
oracle

>  <origin>  (8) 
adgpu

>  <m_score__min__energy>  (8) 
-4.2999999999999998

>  <m_primary>  (8) 
energy

$$$$
8:0
     RDKit          3D

 47 49  0  0  0  0  0  0  0  0999 V2000
   -4.1770   25.1380  -30.5890 O   0  0  0  0  0  0  0  0  0  0  0  0
   -3.2120   24.5490  -30.0310 C   0  0  0  0  0  0  0  0  0  0  0  0
   -2.3470   25.2660  -29.1440 N   0  0  0  0  0  0  0  0  0  0  0  0
   -2.0520   24.8430  -27.7780 C   0  0  0  0  0  0  0  0  0  0  0  0
   -0.6650   24.1820  -27.6990 C   0  0  1  0  0  0  0  0  0  0  0  0
   -0.6380   23.0600  -26.6670 C   0  0  0  0  0  0  0  0  0  0  0  0
   -0.7850   21.8270  -27.5010 C   0  0  0  0  0  0  0  0  0  0  0  0
   -0.2180   22.2540  -28.8370 C   0  0  0  0  0  0  0  0  0  0  0  0
   -0.3100   23.6540  -28.9600 O   0  0  0  0  0  0  0  0  0  0  0  0
   -2.9360   23.1700  -30.3150 N   0  0  0  0  0  0  0  0  0  0  0  0
   -3.8390   22.2920  -31.0080 C   0  0  0  0  0  0  0  0  0  0  0  0
   -5.1810   22.2270  -30.6060 C   0  0  0  0  0  0  0  0  0  0  0  0
   -6.0830   21.3960  -31.2750 C   0  0  0  0  0  0  0  0  0  0  0  0
   -5.6590   20.6330  -32.3700 C   0  0  0  0  0  0  0  0  0  0  0  0
   -6.8000   19.5700  -33.1910 S   0  0  0  0  0  0  0  0  0  0  0  0
   -6.4860   19.5250  -34.6610 O   0  0  0  0  0  0  0  0  0  0  0  0
   -8.1830   20.1380  -33.0230 O   0  0  0  0  0  0  0  0  0  0  0  0
   -6.7500   17.9600  -32.5000 N   0  0  0  0  0  0  0  0  0  0  0  0
   -5.4190   17.6340  -31.9580 C   0  0  0  0  0  0  0  0  0  0  0  0
   -4.3840   17.3530  -33.0730 C   0  0  0  0  0  0  0  0  0  0  0  0
   -4.9700   17.0550  -34.3290 O   0  0  0  0  0  0  0  0  0  0  0  0
   -6.0760   16.1970  -34.1610 C   0  0  0  0  0  0  0  0  0  0  0  0
   -7.2270   16.9390  -33.4580 C   0  0  0  0  0  0  0  0  0  0  0  0
   -4.3250   20.7070  -32.7890 C   0  0  0  0  0  0  0  0  0  0  0  0
   -3.4220   21.5370  -32.1190 C   0  0  0  0  0  0  0  0  0  0  0  0
   -2.0712   25.7215  -27.1162 H   0  0  0  0  0  0  0  0  0  0  0  0
   -2.8103   24.1107  -27.4638 H   0  0  0  0  0  0  0  0  0  0  0  0
    0.0549   24.9561  -27.3948 H   0  0  0  0  0  0  0  0  0  0  0  0
    0.3143   23.0529  -26.1165 H   0  0  0  0  0  0  0  0  0  0  0  0
   -1.4209   23.1590  -25.9006 H   0  0  0  0  0  0  0  0  0  0  0  0
   -0.2103   20.9908  -27.0761 H   0  0  0  0  0  0  0  0  0  0  0  0
   -1.8222   21.4661  -27.5643 H   0  0  0  0  0  0  0  0  0  0  0  0
    0.8368   21.9487  -28.9022 H   0  0  0  0  0  0  0  0  0  0  0  0
   -0.7886   21.7764  -29.6471 H   0  0  0  0  0  0  0  0  0  0  0  0
   -1.9880   22.8080  -30.0660 H   0  0  0  0  0  0  0  0  0  0  0  0
   -5.5262   22.8353  -29.7570 H   0  0  0  0  0  0  0  0  0  0  0  0
   -7.1295   21.3409  -30.9406 H   0  0  0  0  0  0  0  0  0  0  0  0
   -5.0659   18.4822  -31.3531 H   0  0  0  0  0  0  0  0  0  0  0  0
   -5.5167   16.7214  -31.3517 H   0  0  0  0  0  0  0  0  0  0  0  0
   -3.7472   18.2424  -33.1886 H   0  0  0  0  0  0  0  0  0  0  0  0
   -3.8113   16.4656  -32.7655 H   0  0  0  0  0  0  0  0  0  0  0  0
   -6.4177   15.8485  -35.1468 H   0  0  0  0  0  0  0  0  0  0  0  0
   -5.7726   15.3398  -33.5421 H   0  0  0  0  0  0  0  0  0  0  0  0
   -7.8440   17.4348  -34.2219 H   0  0  0  0  0  0  0  0  0  0  0  0
   -7.8027   16.1941  -32.8890 H   0  0  0  0  0  0  0  0  0  0  0  0
   -3.9866   20.1098  -33.6485 H   0  0  0  0  0  0  0  0  0  0  0  0
   -2.3789   21.6002  -32.4626 H   0  0  0  0  0  0  0  0  0  0  0  0
  1  2  2  0
  2  3  1  0
  3  4  1  0
  4  5  1  0
  5  6  1  0
  6  7  1  0
  7  8  1  0
  8  9  1  0
  2 10  1  0
 10 11  1  0
 11 12  2  0
 12 13  1  0
 13 14  2  0
 14 15  1  0
 15 16  2  0
 15 17  2  0
 15 18  1  0
 18 19  1  0
 19 20  1  0
 20 21  1  0
 21 22  1  0
 22 23  1  0
 14 24  1  0
 24 25  2  0
  9  5  1  0
 25 11  1  0
 23 18  1  0
  4 26  1  0
  4 27  1  0
  5 28  1  1
  6 29  1  0
  6 30  1  0
  7 31  1  0
  7 32  1  0
  8 33  1  0
  8 34  1  0
 10 35  1  0
 12 36  1  0
 13 37  1  0
 19 38  1  0
 19 39  1  0
 20 40  1  0
 20 41  1  0
 22 42  1  0
 22 43  1  0
 23 44  1  0
 23 45  1  0
 24 46  1  0
 25 47  1  0
M  CHG  1   3  -1
M  END
>  <UniqueID>  (9) 
8

>  <SMILES>  (9) 
O=C([N-]C[C@H]1CCCO1)Nc1ccc(S(=O)(=O)N2CCOCC2)cc1

>  <Energy>  (9) 
57.69715081079668

>  <Genealogy>  (9) 
O=C([N-]CC1CCCO1)Nc1ccc(S(=O)(=O)N2CCOCC2)cc1 (protonated)
O=C([N-]C[C@H]1CCCO1)Nc1ccc(S(=O)(=O)N2CCOCC2)cc1 (chirality)
O=C([N-]C[C@H]1CCCO1)Nc1ccc(S(=O)(=O)N2CCOCC2)cc1 (3D coordinates assigned)
O=C([N-]C[C@H]1CCCO1)Nc1ccc(S(=O)(=O)N2CCOCC2)cc1 (nonaromatic ring conformer: 57.69715081079668 kcal/mol)

>  <smiles>  (9) 
O=C(NCC1CCCO1)Nc1ccc(S(=O)(=O)N2CCOCC2)cc1

>  <score_type>  (9) 
oracle

>  <origin>  (9) 
adgpu

>  <m_score__min__energy>  (9) 
-10.31

>  <m_primary>  (9) 
energy

$$$$
9:0
     RDKit          3D

 58 60  0  0  0  0  0  0  0  0999 V2000
   -1.2130   21.5510  -31.8360 C   0  0  0  0  0  0  0  0  0  0  0  0
   -2.0810   21.5200  -32.9630 O   0  0  0  0  0  0  0  0  0  0  0  0
   -3.0050   20.4970  -33.2280 C   0  0  0  0  0  0  0  0  0  0  0  0
   -4.3760   20.7590  -33.4180 C   0  0  0  0  0  0  0  0  0  0  0  0
   -5.2670   19.7130  -33.6630 C   0  0  0  0  0  0  0  0  0  0  0  0
   -4.8080   18.3910  -33.7330 C   0  0  0  0  0  0  0  0  0  0  0  0
   -5.7870   17.2570  -33.9280 C   0  0  0  0  0  0  0  0  0  0  0  0
   -6.5430   16.9440  -32.6290 C   0  0  0  0  0  0  0  0  0  0  0  0
   -6.8450   18.1690  -31.8880 N   0  0  0  0  0  0  0  0  0  0  0  0
   -8.1070   18.8340  -32.0130 C   0  0  0  0  0  0  0  0  0  0  0  0
   -9.1430   18.1660  -32.2820 O   0  0  0  0  0  0  0  0  0  0  0  0
   -8.1970   20.2980  -31.8340 C   0  0  0  0  0  0  0  0  0  0  0  0
   -9.3780   20.9880  -32.1570 C   0  0  0  0  0  0  0  0  0  0  0  0
   -9.4570   22.3710  -31.9760 C   0  0  0  0  0  0  0  0  0  0  0  0
   -8.3590   23.0810  -31.4850 C   0  0  0  0  0  0  0  0  0  0  0  0
   -7.1610   22.4130  -31.1790 C   0  0  0  0  0  0  0  0  0  0  0  0
   -5.9840   23.1610  -30.6790 C   0  0  0  0  0  0  0  0  0  0  0  0
   -5.9960   24.5640  -30.6520 C   0  0  0  0  0  0  0  0  0  0  0  0
   -4.8800   25.2720  -30.2050 C   0  0  0  0  0  0  0  0  0  0  0  0
   -3.7240   24.5900  -29.7860 C   0  0  0  0  0  0  0  0  0  0  0  0
   -2.5750   25.2690  -29.3490 O   0  0  0  0  0  0  0  0  0  0  0  0
   -1.9790   25.1020  -28.0670 C   0  0  0  0  0  0  0  0  0  0  0  0
   -3.7030   23.1870  -29.8020 C   0  0  0  0  0  0  0  0  0  0  0  0
   -2.5370   22.5320  -29.3730 O   0  0  0  0  0  0  0  0  0  0  0  0
   -2.5180   21.4000  -28.5100 C   0  0  0  0  0  0  0  0  0  0  0  0
   -4.8380   22.4780  -30.2450 C   0  0  0  0  0  0  0  0  0  0  0  0
   -7.0910   21.0210  -31.3560 C   0  0  0  0  0  0  0  0  0  0  0  0
   -3.4410   18.1280  -33.5500 C   0  0  0  0  0  0  0  0  0  0  0  0
   -2.5370   19.1760  -33.2910 C   0  0  0  0  0  0  0  0  0  0  0  0
   -1.1700   18.9450  -33.0750 O   0  0  0  0  0  0  0  0  0  0  0  0
   -0.6280   17.7450  -32.5330 C   0  0  0  0  0  0  0  0  0  0  0  0
   -1.8102   21.5297  -30.9125 H   0  0  0  0  0  0  0  0  0  0  0  0
   -0.5468   20.6761  -31.8621 H   0  0  0  0  0  0  0  0  0  0  0  0
   -0.6109   22.4712  -31.8621 H   0  0  0  0  0  0  0  0  0  0  0  0
   -4.7464   21.7938  -33.3730 H   0  0  0  0  0  0  0  0  0  0  0  0
   -6.3368   19.9279  -33.8021 H   0  0  0  0  0  0  0  0  0  0  0  0
   -6.5121   17.5391  -34.7056 H   0  0  0  0  0  0  0  0  0  0  0  0
   -5.2248   16.3602  -34.2275 H   0  0  0  0  0  0  0  0  0  0  0  0
   -7.4847   16.4318  -32.8757 H   0  0  0  0  0  0  0  0  0  0  0  0
   -5.9077   16.3027  -32.0005 H   0  0  0  0  0  0  0  0  0  0  0  0
   -6.1070   18.6100  -31.2940 H   0  0  0  0  0  0  0  0  0  0  0  0
  -10.2434   20.4370  -32.5538 H   0  0  0  0  0  0  0  0  0  0  0  0
  -10.3880   22.9031  -32.2212 H   0  0  0  0  0  0  0  0  0  0  0  0
   -8.4323   24.1685  -31.3371 H   0  0  0  0  0  0  0  0  0  0  0  0
   -6.8913   25.1092  -30.9855 H   0  0  0  0  0  0  0  0  0  0  0  0
   -4.9047   26.3714  -30.1802 H   0  0  0  0  0  0  0  0  0  0  0  0
   -2.7248   25.3110  -27.2859 H   0  0  0  0  0  0  0  0  0  0  0  0
   -1.6182   24.0682  -27.9623 H   0  0  0  0  0  0  0  0  0  0  0  0
   -1.1335   25.7978  -27.9623 H   0  0  0  0  0  0  0  0  0  0  0  0
   -2.5237   21.7371  -27.4629 H   0  0  0  0  0  0  0  0  0  0  0  0
   -3.4058   20.7790  -28.7001 H   0  0  0  0  0  0  0  0  0  0  0  0
   -1.6098   20.8092  -28.7001 H   0  0  0  0  0  0  0  0  0  0  0  0
   -4.8250   21.3781  -30.2504 H   0  0  0  0  0  0  0  0  0  0  0  0
   -6.1578   20.4899  -31.1172 H   0  0  0  0  0  0  0  0  0  0  0  0
   -3.0727   17.0932  -33.6095 H   0  0  0  0  0  0  0  0  0  0  0  0
   -0.6509   17.7958  -31.4344 H   0  0  0  0  0  0  0  0  0  0  0  0
   -1.2257   16.8864  -32.8729 H   0  0  0  0  0  0  0  0  0  0  0  0
    0.4113   17.6258  -32.8729 H   0  0  0  0  0  0  0  0  0  0  0  0
  1  2  1  0
  2  3  1  0
  3  4  2  0
  4  5  1  0
  5  6  2  0
  6  7  1  0
  7  8  1  0
  8  9  1  0
  9 10  1  0
 10 11  2  0
 10 12  1  0
 12 13  2  0
 13 14  1  0
 14 15  2  0
 15 16  1  0
 16 17  1  0
 17 18  2  0
 18 19  1  0
 19 20  2  0
 20 21  1  0
 21 22  1  0
 20 23  1  0
 23 24  1  0
 24 25  1  0
 23 26  2  0
 16 27  2  0
  6 28  1  0
 28 29  2  0
 29 30  1  0
 30 31  1  0
 29  3  1  0
 27 12  1  0
 26 17  1  0
  1 32  1  0
  1 33  1  0
  1 34  1  0
  4 35  1  0
  5 36  1  0
  7 37  1  0
  7 38  1  0
  8 39  1  0
  8 40  1  0
  9 41  1  0
 13 42  1  0
 14 43  1  0
 15 44  1  0
 18 45  1  0
 19 46  1  0
 22 47  1  0
 22 48  1  0
 22 49  1  0
 25 50  1  0
 25 51  1  0
 25 52  1  0
 26 53  1  0
 27 54  1  0
 28 55  1  0
 31 56  1  0
 31 57  1  0
 31 58  1  0
M  END
>  <UniqueID>  (10) 
9

>  <SMILES>  (10) 
COc1ccc(CCNC(=O)c2cccc(-c3ccc(OC)c(OC)c3)c2)cc1OC

>  <Energy>  (10) 
56.71081110492661

>  <Genealogy>  (10) 
COc1ccc(CCNC(=O)c2cccc(-c3ccc(OC)c(OC)c3)c2)cc1OC (3D coordinates assigned)
COc1ccc(CCNC(=O)c2cccc(-c3ccc(OC)c(OC)c3)c2)cc1OC (optimized conformer: 56.71081110492661 kcal/mol)

>  <smiles>  (10) 
COc1ccc(CCNC(=O)c2cccc(-c3ccc(OC)c(OC)c3)c2)cc1OC

>  <score_type>  (10) 
oracle

>  <origin>  (10) 
adgpu

>  <m_score__min__energy>  (10) 
-8.9800000000000004

>  <m_primary>  (10) 
energy

$$$$
10:0
     RDKit          3D

 33 35  0  0  0  0  0  0  0  0999 V2000
   -9.4690   23.3880  -32.3400 C   0  0  0  0  0  0  0  0  0  0  0  0
   -9.6990   21.9600  -31.2390 S   0  0  0  0  0  0  0  0  0  0  0  0
   -8.1510   21.1920  -31.7270 C   0  0  0  0  0  0  0  0  0  0  0  0
   -7.9640   19.8950  -32.1970 C   0  0  0  0  0  0  0  0  0  0  0  0
   -9.0530   18.8820  -32.3920 C   0  0  0  0  0  0  0  0  0  0  0  0
   -6.6510   19.6900  -32.4940 N   0  0  0  0  0  0  0  0  0  0  0  0
   -6.0610   18.4920  -33.0290 C   0  0  0  0  0  0  0  0  0  0  0  0
   -5.5980   18.4630  -34.3530 C   0  0  0  0  0  0  0  0  0  0  0  0
   -5.0230   17.3010  -34.8730 C   0  0  0  0  0  0  0  0  0  0  0  0
   -4.9050   16.1590  -34.0740 C   0  0  0  0  0  0  0  0  0  0  0  0
   -4.1830   14.7000  -34.7270 Cl  0  0  0  0  0  0  0  0  0  0  0  0
   -5.3650   16.1820  -32.7530 C   0  0  0  0  0  0  0  0  0  0  0  0
   -5.9420   17.3430  -32.2310 C   0  0  0  0  0  0  0  0  0  0  0  0
   -6.0140   20.8440  -32.1960 C   0  0  0  0  0  0  0  0  0  0  0  0
   -4.6600   21.1510  -32.3580 C   0  0  0  0  0  0  0  0  0  0  0  0
   -4.2260   22.4410  -32.0030 C   0  0  0  0  0  0  0  0  0  0  0  0
   -5.1440   23.3950  -31.5100 C   0  0  0  0  0  0  0  0  0  0  0  0
   -4.7120   24.6350  -31.1780 F   0  0  0  0  0  0  0  0  0  0  0  0
   -6.5040   23.0670  -31.3710 C   0  0  0  0  0  0  0  0  0  0  0  0
   -6.9040   21.7800  -31.7250 C   0  0  0  0  0  0  0  0  0  0  0  0
   -9.3227   24.2962  -31.7369 H   0  0  0  0  0  0  0  0  0  0  0  0
   -8.5858   23.2231  -32.9747 H   0  0  0  0  0  0  0  0  0  0  0  0
  -10.3593   23.5088  -32.9747 H   0  0  0  0  0  0  0  0  0  0  0  0
   -9.4179   18.5426  -31.4114 H   0  0  0  0  0  0  0  0  0  0  0  0
   -9.8816   19.3379  -32.9538 H   0  0  0  0  0  0  0  0  0  0  0  0
   -8.6581   18.0227  -32.9538 H   0  0  0  0  0  0  0  0  0  0  0  0
   -5.6882   19.3592  -34.9844 H   0  0  0  0  0  0  0  0  0  0  0  0
   -4.6626   17.2840  -35.9121 H   0  0  0  0  0  0  0  0  0  0  0  0
   -5.2724   15.2844  -32.1239 H   0  0  0  0  0  0  0  0  0  0  0  0
   -6.3038   17.3566  -31.1923 H   0  0  0  0  0  0  0  0  0  0  0  0
   -3.9540   20.4051  -32.7519 H   0  0  0  0  0  0  0  0  0  0  0  0
   -3.1645   22.7089  -32.1100 H   0  0  0  0  0  0  0  0  0  0  0  0
   -7.2295   23.8032  -30.9946 H   0  0  0  0  0  0  0  0  0  0  0  0
  1  2  1  0
  2  3  1  0
  3  4  2  0
  4  5  1  0
  4  6  1  0
  6  7  1  0
  7  8  2  0
  8  9  1  0
  9 10  2  0
 10 11  1  0
 10 12  1  0
 12 13  2  0
  6 14  1  0
 14 15  2  0
 15 16  1  0
 16 17  2  0
 17 18  1  0
 17 19  1  0
 19 20  2  0
 20  3  1  0
 13  7  1  0
 20 14  1  0
  1 21  1  0
  1 22  1  0
  1 23  1  0
  5 24  1  0
  5 25  1  0
  5 26  1  0
  8 27  1  0
  9 28  1  0
 12 29  1  0
 13 30  1  0
 15 31  1  0
 16 32  1  0
 19 33  1  0
M  END
>  <UniqueID>  (11) 
10

>  <SMILES>  (11) 
CSc1c(C)n(-c2ccc(Cl)cc2)c2ccc(F)cc12

>  <Energy>  (11) 
70.78670859043898

>  <Genealogy>  (11) 
CSc1c(C)n(-c2ccc(Cl)cc2)c2ccc(F)cc12 (3D coordinates assigned)
CSc1c(C)n(-c2ccc(Cl)cc2)c2ccc(F)cc12 (optimized conformer: 70.78670859043898 kcal/mol)

>  <smiles>  (11) 
CSc1c(C)n(-c2ccc(Cl)cc2)c2ccc(F)cc12

>  <score_type>  (11) 
oracle

>  <origin>  (11) 
adgpu

>  <m_score__min__energy>  (11) 
-7.5499999999999998

>  <m_primary>  (11) 
energy

$$$$
11:0
     RDKit          3D

 35 37  0  0  0  0  0  0  0  0999 V2000
   -9.6830   19.3280  -33.0800 N   0  0  0  0  0  0  0  0  0  0  0  0
   -8.6680   20.1800  -32.5440 C   0  0  0  0  0  0  0  0  0  0  0  0
   -8.9800   21.1010  -31.5360 C   0  0  0  0  0  0  0  0  0  0  0  0
   -7.9890   21.9340  -31.0090 C   0  0  0  0  0  0  0  0  0  0  0  0
   -6.6660   21.8610  -31.4860 C   0  0  0  0  0  0  0  0  0  0  0  0
   -5.6120   22.7460  -30.9290 C   0  0  0  0  0  0  0  0  0  0  0  0
   -4.2720   22.3200  -30.8810 C   0  0  0  0  0  0  0  0  0  0  0  0
   -3.2810   23.1540  -30.3570 C   0  0  0  0  0  0  0  0  0  0  0  0
   -3.6140   24.4240  -29.8560 C   0  0  0  0  0  0  0  0  0  0  0  0
   -2.6450   25.2950  -29.3350 O   0  0  0  0  0  0  0  0  0  0  0  0
   -1.7430   24.9850  -28.3070 C   0  0  0  0  0  0  0  0  0  0  0  0
   -0.5430   24.2900  -28.5530 C   0  0  0  0  0  0  0  0  0  0  0  0
    0.3220   23.9850  -27.4980 C   0  0  0  0  0  0  0  0  0  0  0  0
   -0.0070   24.3590  -26.1910 C   0  0  0  0  0  0  0  0  0  0  0  0
    0.8330   24.0620  -25.1690 F   0  0  0  0  0  0  0  0  0  0  0  0
   -1.2050   25.0320  -25.9380 C   0  0  0  0  0  0  0  0  0  0  0  0
   -2.0730   25.3370  -26.9920 C   0  0  0  0  0  0  0  0  0  0  0  0
   -4.9420   24.8580  -29.9190 C   0  0  0  0  0  0  0  0  0  0  0  0
   -5.9350   24.0270  -30.4450 C   0  0  0  0  0  0  0  0  0  0  0  0
   -6.3600   20.9330  -32.5000 C   0  0  0  0  0  0  0  0  0  0  0  0
   -7.3540   20.1000  -33.0220 C   0  0  0  0  0  0  0  0  0  0  0  0
  -10.2520   18.7150  -32.4550 H   0  0  0  0  0  0  0  0  0  0  0  0
   -9.8720   19.3020  -34.1070 H   0  0  0  0  0  0  0  0  0  0  0  0
  -10.0104   21.1691  -31.1571 H   0  0  0  0  0  0  0  0  0  0  0  0
   -8.2444   22.6520  -30.2157 H   0  0  0  0  0  0  0  0  0  0  0  0
   -4.0024   21.3227  -31.2589 H   0  0  0  0  0  0  0  0  0  0  0  0
   -2.2348   22.8148  -30.3365 H   0  0  0  0  0  0  0  0  0  0  0  0
   -0.2856   23.9862  -29.5784 H   0  0  0  0  0  0  0  0  0  0  0  0
    1.2626   23.4502  -27.6960 H   0  0  0  0  0  0  0  0  0  0  0  0
   -1.4659   25.3222  -24.9095 H   0  0  0  0  0  0  0  0  0  0  0  0
   -3.0206   25.8565  -26.7867 H   0  0  0  0  0  0  0  0  0  0  0  0
   -5.2069   25.8606  -29.5519 H   0  0  0  0  0  0  0  0  0  0  0  0
   -6.9772   24.3772  -30.4809 H   0  0  0  0  0  0  0  0  0  0  0  0
   -5.3316   20.8630  -32.8841 H   0  0  0  0  0  0  0  0  0  0  0  0
   -7.1027   19.3777  -33.8126 H   0  0  0  0  0  0  0  0  0  0  0  0
  1  2  1  0
  2  3  2  0
  3  4  1  0
  4  5  2  0
  5  6  1  0
  6  7  2  0
  7  8  1  0
  8  9  2  0
  9 10  1  0
 10 11  1  0
 11 12  2  0
 12 13  1  0
 13 14  2  0
 14 15  1  0
 14 16  1  0
 16 17  2  0
  9 18  1  0
 18 19  2  0
  5 20  1  0
 20 21  2  0
 21  2  1  0
 19  6  1  0
 17 11  1  0
  1 22  1  0
  1 23  1  0
  3 24  1  0
  4 25  1  0
  7 26  1  0
  8 27  1  0
 12 28  1  0
 13 29  1  0
 16 30  1  0
 17 31  1  0
 18 32  1  0
 19 33  1  0
 20 34  1  0
 21 35  1  0
M  END
>  <UniqueID>  (12) 
11

>  <SMILES>  (12) 
Nc1ccc(-c2ccc(Oc3ccc(F)cc3)cc2)cc1

>  <Energy>  (12) 
48.74341963866864

>  <Genealogy>  (12) 
Nc1ccc(-c2ccc(Oc3ccc(F)cc3)cc2)cc1 (3D coordinates assigned)
Nc1ccc(-c2ccc(Oc3ccc(F)cc3)cc2)cc1 (optimized conformer: 48.74341963866864 kcal/mol)

>  <smiles>  (12) 
Nc1ccc(-c2ccc(Oc3ccc(F)cc3)cc2)cc1

>  <score_type>  (12) 
oracle

>  <origin>  (12) 
adgpu

>  <m_score__min__energy>  (12) 
-7.8300000000000001

>  <m_primary>  (12) 
energy

$$$$
12:0
     RDKit          3D

 36 39  0  0  0  0  0  0  0  0999 V2000
   -5.8050   18.1440  -33.9000 C   0  0  0  0  0  0  0  0  0  0  0  0
   -6.7840   18.7810  -32.9500 C   0  0  0  0  0  0  0  0  0  0  0  0
   -7.7590   17.9660  -32.3470 C   0  0  0  0  0  0  0  0  0  0  0  0
   -8.7370   18.5230  -31.5220 C   0  0  0  0  0  0  0  0  0  0  0  0
   -8.7610   19.8970  -31.2930 C   0  0  0  0  0  0  0  0  0  0  0  0
   -7.7870   20.7170  -31.8660 C   0  0  0  0  0  0  0  0  0  0  0  0
   -6.7660   20.1700  -32.6590 C   0  0  0  0  0  0  0  0  0  0  0  0
   -5.7610   21.0570  -33.1800 N   0  0  0  0  0  0  0  0  0  0  0  0
   -4.8600   21.8290  -32.3700 C   0  0  0  0  0  0  0  0  0  0  0  0
   -3.4760   21.7020  -32.2540 C   0  0  0  0  0  0  0  0  0  0  0  0
   -2.6160   20.6360  -32.7910 C   0  0  0  0  0  0  0  0  0  0  0  0
   -2.8890   19.2750  -32.7180 C   0  0  0  0  0  0  0  0  0  0  0  0
   -1.9440   18.4840  -33.3830 C   0  0  0  0  0  0  0  0  0  0  0  0
   -0.9410   19.2160  -34.0020 C   0  0  0  0  0  0  0  0  0  0  0  0
   -1.2310   20.8470  -33.7230 S   0  0  0  0  0  0  0  0  0  0  0  0
   -2.9880   22.7180  -31.4980 N   0  0  0  0  0  0  0  0  0  0  0  0
   -4.0930   23.4190  -31.1690 C   0  0  0  0  0  0  0  0  0  0  0  0
   -4.1000   24.5510  -30.4220 N   0  0  0  0  0  0  0  0  0  0  0  0
   -5.2890   25.1780  -30.1860 C   0  0  0  0  0  0  0  0  0  0  0  0
   -6.4870   24.6630  -30.7150 C   0  0  0  0  0  0  0  0  0  0  0  0
   -6.4380   23.4940  -31.4860 C   0  0  0  0  0  0  0  0  0  0  0  0
   -5.2280   22.9110  -31.6690 N   0  0  0  0  0  0  0  0  0  0  0  0
   -5.0181   17.6320  -33.3268 H   0  0  0  0  0  0  0  0  0  0  0  0
   -6.3307   17.4145  -34.5336 H   0  0  0  0  0  0  0  0  0  0  0  0
   -5.3510   18.9201  -34.5336 H   0  0  0  0  0  0  0  0  0  0  0  0
   -7.7505   16.8809  -32.5272 H   0  0  0  0  0  0  0  0  0  0  0  0
   -9.4912   17.8753  -31.0511 H   0  0  0  0  0  0  0  0  0  0  0  0
   -9.5471   20.3357  -30.6609 H   0  0  0  0  0  0  0  0  0  0  0  0
   -7.8201   21.8030  -31.6942 H   0  0  0  0  0  0  0  0  0  0  0  0
   -5.6920   21.1650  -34.2170 H   0  0  0  0  0  0  0  0  0  0  0  0
   -3.7607   18.8605  -32.1903 H   0  0  0  0  0  0  0  0  0  0  0  0
   -1.9923   17.3854  -33.4119 H   0  0  0  0  0  0  0  0  0  0  0  0
   -0.1004   18.7999  -34.5767 H   0  0  0  0  0  0  0  0  0  0  0  0
   -5.3111   26.0938  -29.5770 H   0  0  0  0  0  0  0  0  0  0  0  0
   -7.4452   25.1693  -30.5265 H   0  0  0  0  0  0  0  0  0  0  0  0
   -7.3495   23.0645  -31.9273 H   0  0  0  0  0  0  0  0  0  0  0  0
  1  2  1  0
  2  3  2  0
  3  4  1  0
  4  5  2  0
  5  6  1  0
  6  7  2  0
  7  8  1  0
  8  9  1  0
  9 10  2  0
 10 11  1  0
 11 12  2  0
 12 13  1  0
 13 14  2  0
 14 15  1  0
 10 16  1  0
 16 17  2  0
 17 18  1  0
 18 19  2  0
 19 20  1  0
 20 21  2  0
 21 22  1  0
  7  2  1  0
 22  9  1  0
 15 11  1  0
 22 17  1  0
  1 23  1  0
  1 24  1  0
  1 25  1  0
  3 26  1  0
  4 27  1  0
  5 28  1  0
  6 29  1  0
  8 30  1  0
 12 31  1  0
 13 32  1  0
 14 33  1  0
 19 34  1  0
 20 35  1  0
 21 36  1  0
M  END
>  <UniqueID>  (13) 
12

>  <SMILES>  (13) 
Cc1ccccc1Nc1c(-c2cccs2)nc2ncccn12

>  <Energy>  (13) 
113.49993237486149

>  <Genealogy>  (13) 
Cc1ccccc1Nc1c(-c2cccs2)nc2ncccn12 (3D coordinates assigned)
Cc1ccccc1Nc1c(-c2cccs2)nc2ncccn12 (optimized conformer: 113.49993237486149 kcal/mol)

>  <smiles>  (13) 
Cc1ccccc1Nc1c(-c2cccs2)nc2ncccn12

>  <score_type>  (13) 
oracle

>  <origin>  (13) 
adgpu

>  <m_score__min__energy>  (13) 
-8.2200000000000006

>  <m_primary>  (13) 
energy

$$$$
13:0
     RDKit          3D

 39 42  0  0  1  0  0  0  0  0999 V2000
   -8.8500   19.1310  -33.0160 N   0  0  0  0  0  0  0  0  0  0  0  0
   -8.5960   20.2680  -32.4870 C   0  0  0  0  0  0  0  0  0  0  0  0
   -9.5910   21.1610  -32.3570 N   0  0  0  0  0  0  0  0  0  0  0  0
   -9.3600   22.3710  -31.8040 C   0  0  0  0  0  0  0  0  0  0  0  0
   -8.1130   22.6640  -31.3870 N   0  0  0  0  0  0  0  0  0  0  0  0
   -7.0720   21.8290  -31.4840 C   0  0  0  0  0  0  0  0  0  0  0  0
   -7.3290   20.5870  -32.0550 C   0  0  0  0  0  0  0  0  0  0  0  0
   -6.1250   19.9330  -32.0390 C   0  0  0  0  0  0  0  0  0  0  0  0
   -5.8500   18.5860  -32.5300 C   0  0  0  0  0  0  0  0  0  0  0  0
   -5.6940   18.2360  -33.8780 C   0  0  0  0  0  0  0  0  0  0  0  0
   -5.4470   16.8780  -33.9420 C   0  0  0  0  0  0  0  0  0  0  0  0
   -5.4640   16.4520  -32.6330 C   0  0  0  0  0  0  0  0  0  0  0  0
   -5.7020   17.4910  -31.8760 O   0  0  0  0  0  0  0  0  0  0  0  0
   -5.2100   20.7240  -31.4960 N   0  0  0  0  0  0  0  0  0  0  0  0
   -5.7690   21.8990  -31.1450 N   0  0  0  0  0  0  0  0  0  0  0  0
   -5.0590   22.9440  -30.5510 C   0  0  2  0  0  0  0  0  0  0  0  0
   -4.2670   22.5790  -29.4430 O   0  0  0  0  0  0  0  0  0  0  0  0
   -3.6960   23.7600  -28.9960 C   0  0  1  0  0  0  0  0  0  0  0  0
   -2.2100   23.8110  -29.0580 C   0  0  0  0  0  0  0  0  0  0  0  0
   -1.8090   25.1500  -28.9930 O   0  0  0  0  0  0  0  0  0  0  0  0
   -4.3750   24.9120  -29.7120 C   0  0  1  0  0  0  0  0  0  0  0  0
   -3.7080   25.3220  -30.8390 O   0  0  0  0  0  0  0  0  0  0  0  0
   -5.6880   24.1570  -30.0850 C   0  0  1  0  0  0  0  0  0  0  0  0
   -6.2810   24.9980  -30.9960 O   0  0  0  0  0  0  0  0  0  0  0  0
   -9.8350   18.9320  -33.3330 H   0  0  0  0  0  0  0  0  0  0  0  0
  -10.1740   23.1030  -31.6961 H   0  0  0  0  0  0  0  0  0  0  0  0
   -7.9600   23.5860  -30.9730 H   0  0  0  0  0  0  0  0  0  0  0  0
   -5.7571   18.9224  -34.7353 H   0  0  0  0  0  0  0  0  0  0  0  0
   -5.2745   16.2700  -34.8423 H   0  0  0  0  0  0  0  0  0  0  0  0
   -5.3055   15.4204  -32.2856 H   0  0  0  0  0  0  0  0  0  0  0  0
   -4.5333   23.1737  -31.4896 H   0  0  0  0  0  0  0  0  0  0  0  0
   -3.8758   23.8356  -27.9134 H   0  0  0  0  0  0  0  0  0  0  0  0
   -1.7839   23.2544  -28.2103 H   0  0  0  0  0  0  0  0  0  0  0  0
   -1.8559   23.3564  -29.9950 H   0  0  0  0  0  0  0  0  0  0  0  0
   -1.9880   25.6670  -29.7960 H   0  0  0  0  0  0  0  0  0  0  0  0
   -4.4656   25.8426  -29.1325 H   0  0  0  0  0  0  0  0  0  0  0  0
   -4.2440   25.6490  -31.5750 H   0  0  0  0  0  0  0  0  0  0  0  0
   -6.4924   23.9138  -29.3752 H   0  0  0  0  0  0  0  0  0  0  0  0
   -5.6720   25.1980  -31.7480 H   0  0  0  0  0  0  0  0  0  0  0  0
  1  2  2  3
  2  3  1  0
  3  4  2  0
  4  5  1  0
  5  6  1  0
  6  7  2  0
  7  8  1  0
  8  9  1  0
  9 10  2  0
 10 11  1  0
 11 12  2  0
 12 13  1  0
  8 14  2  0
 14 15  1  0
 15 16  1  0
 16 17  1  0
 17 18  1  0
 18 19  1  0
 19 20  1  0
 18 21  1  0
 21 22  1  0
 21 23  1  0
 23 24  1  0
  7  2  1  0
 13  9  1  0
 23 16  1  0
 15  6  1  0
  1 25  1  0
  4 26  1  0
  5 27  1  0
 10 28  1  0
 11 29  1  0
 12 30  1  0
 16 31  1  6
 18 32  1  1
 19 33  1  0
 19 34  1  0
 20 35  1  0
 21 36  1  1
 22 37  1  0
 23 38  1  1
 24 39  1  0
M  END
>  <smiles>  (14) 
N=c1nc[nH]c2c1c(-c1ccco1)nn2C1OC(CO)C(O)C1O

>  <score_type>  (14) 
oracle

>  <origin>  (14) 
adgpu

>  <m_score__min__energy>  (14) 
-8.3900000000000006

>  <m_primary>  (14) 
energy

$$$$
14:0
     RDKit          3D

 24 26  0  0  0  0  0  0  0  0999 V2000
   -5.7320   17.8100  -34.9450 Cl  0  0  0  0  0  0  0  0  0  0  0  0
   -5.5840   19.2240  -33.9200 C   0  0  0  0  0  0  0  0  0  0  0  0
   -4.3280   19.6550  -33.4920 C   0  0  0  0  0  0  0  0  0  0  0  0
   -4.2330   20.7830  -32.6760 C   0  0  0  0  0  0  0  0  0  0  0  0
   -5.3920   21.4770  -32.2900 C   0  0  0  0  0  0  0  0  0  0  0  0
   -5.2970   22.6730  -31.4250 C   0  0  0  0  0  0  0  0  0  0  0  0
   -4.2430   22.9280  -30.6160 N   0  0  0  0  0  0  0  0  0  0  0  0
   -4.3900   24.0880  -29.9210 C   0  0  0  0  0  0  0  0  0  0  0  0
   -3.3540   24.5490  -28.9840 C   0  0  0  0  0  0  0  0  0  0  0  0
   -3.2880   24.2840  -27.6280 C   0  0  0  0  0  0  0  0  0  0  0  0
   -2.1510   24.9200  -27.1790 C   0  0  0  0  0  0  0  0  0  0  0  0
   -1.5930   25.5330  -28.2830 C   0  0  0  0  0  0  0  0  0  0  0  0
   -2.3320   25.2940  -29.3420 O   0  0  0  0  0  0  0  0  0  0  0  0
   -5.5740   24.7810  -30.1720 C   0  0  0  0  0  0  0  0  0  0  0  0
   -6.4510   23.8960  -31.2990 S   0  0  0  0  0  0  0  0  0  0  0  0
   -6.6350   21.0020  -32.7470 C   0  0  0  0  0  0  0  0  0  0  0  0
   -6.7000   19.9010  -33.5410 N   0  0  0  0  0  0  0  0  0  0  0  0
   -3.4213   19.1108  -33.7949 H   0  0  0  0  0  0  0  0  0  0  0  0
   -3.2469   21.1301  -32.3337 H   0  0  0  0  0  0  0  0  0  0  0  0
   -3.9959   23.6893  -27.0320 H   0  0  0  0  0  0  0  0  0  0  0  0
   -1.7657   24.9360  -26.1488 H   0  0  0  0  0  0  0  0  0  0  0  0
   -0.6697   26.1308  -28.2766 H   0  0  0  0  0  0  0  0  0  0  0  0
   -5.8784   25.7341  -29.7150 H   0  0  0  0  0  0  0  0  0  0  0  0
   -7.5593   21.5247  -32.4600 H   0  0  0  0  0  0  0  0  0  0  0  0
  1  2  1  0
  2  3  2  0
  3  4  1  0
  4  5  2  0
  5  6  1  0
  6  7  2  0
  7  8  1  0
  8  9  1  0
  9 10  2  0
 10 11  1  0
 11 12  2  0
 12 13  1  0
  8 14  2  0
 14 15  1  0
  5 16  1  0
 16 17  2  0
 17  2  1  0
 15  6  1  0
 13  9  1  0
  3 18  1  0
  4 19  1  0
 10 20  1  0
 11 21  1  0
 12 22  1  0
 14 23  1  0
 16 24  1  0
M  END
>  <UniqueID>  (15) 
13

>  <SMILES>  (15) 
Clc1ccc(-c2nc(-c3ccco3)cs2)cn1

>  <Energy>  (15) 
83.2137368530049

>  <Genealogy>  (15) 
Clc1ccc(-c2nc(-c3ccco3)cs2)cn1 (3D coordinates assigned)
Clc1ccc(-c2nc(-c3ccco3)cs2)cn1 (optimized conformer: 83.2137368530049 kcal/mol)

>  <smiles>  (15) 
Clc1ccc(-c2nc(-c3ccco3)cs2)cn1

>  <score_type>  (15) 
oracle

>  <origin>  (15) 
adgpu

>  <m_score__min__energy>  (15) 
-7.1299999999999999

>  <m_primary>  (15) 
energy

$$$$
15:0
     RDKit          3D

 40 42  0  0  0  0  0  0  0  0999 V2000
   -6.6870   23.8460  -29.7440 O   0  0  0  0  0  0  0  0  0  0  0  0
   -6.1800   24.2610  -30.8210 C   0  0  0  0  0  0  0  0  0  0  0  0
   -5.4110   25.5490  -30.8170 C   0  0  0  0  0  0  0  0  0  0  0  0
   -4.0210   25.3060  -30.6060 O   0  0  0  0  0  0  0  0  0  0  0  0
   -3.4790   24.1530  -30.0120 C   0  0  0  0  0  0  0  0  0  0  0  0
   -3.1560   23.0720  -30.8390 C   0  0  0  0  0  0  0  0  0  0  0  0
   -2.6100   21.9030  -30.3020 C   0  0  0  0  0  0  0  0  0  0  0  0
   -2.3790   21.7920  -28.9200 C   0  0  0  0  0  0  0  0  0  0  0  0
   -1.7990   20.5500  -28.3480 C   0  0  0  0  0  0  0  0  0  0  0  0
   -2.4120   19.9140  -27.2510 C   0  0  0  0  0  0  0  0  0  0  0  0
   -1.8650   18.7430  -26.7150 C   0  0  0  0  0  0  0  0  0  0  0  0
   -0.7040   18.1960  -27.2640 C   0  0  0  0  0  0  0  0  0  0  0  0
   -0.1760   17.0610  -26.7420 F   0  0  0  0  0  0  0  0  0  0  0  0
   -0.0870   18.8170  -28.3520 C   0  0  0  0  0  0  0  0  0  0  0  0
   -0.6300   19.9880  -28.8940 C   0  0  0  0  0  0  0  0  0  0  0  0
   -2.7090   22.8760  -28.0880 C   0  0  0  0  0  0  0  0  0  0  0  0
   -3.2540   24.0450  -28.6260 C   0  0  0  0  0  0  0  0  0  0  0  0
   -6.3200   23.5050  -32.0350 N   0  0  0  0  0  0  0  0  0  0  0  0
   -7.1450   22.3360  -32.1640 C   0  0  0  0  0  0  0  0  0  0  0  0
   -8.4780   22.3800  -31.7260 C   0  0  0  0  0  0  0  0  0  0  0  0
   -9.2930   21.2490  -31.8210 C   0  0  0  0  0  0  0  0  0  0  0  0
   -8.7800   20.0570  -32.3420 C   0  0  0  0  0  0  0  0  0  0  0  0
   -9.5710   18.9600  -32.4320 F   0  0  0  0  0  0  0  0  0  0  0  0
   -7.4480   19.9960  -32.7600 C   0  0  0  0  0  0  0  0  0  0  0  0
   -6.6300   21.1260  -32.6670 C   0  0  0  0  0  0  0  0  0  0  0  0
   -5.5465   26.0534  -31.7851 H   0  0  0  0  0  0  0  0  0  0  0  0
   -5.7871   26.1828  -30.0004 H   0  0  0  0  0  0  0  0  0  0  0  0
   -3.3335   23.1428  -31.9223 H   0  0  0  0  0  0  0  0  0  0  0  0
   -2.3590   21.0629  -30.9663 H   0  0  0  0  0  0  0  0  0  0  0  0
   -3.3264   20.3405  -26.8129 H   0  0  0  0  0  0  0  0  0  0  0  0
   -2.3511   18.2522  -25.8589 H   0  0  0  0  0  0  0  0  0  0  0  0
    0.8277   18.3851  -28.7841 H   0  0  0  0  0  0  0  0  0  0  0  0
   -0.1400   20.4718  -29.7518 H   0  0  0  0  0  0  0  0  0  0  0  0
   -2.5367   22.8034  -27.0040 H   0  0  0  0  0  0  0  0  0  0  0  0
   -3.5086   24.8853  -27.9633 H   0  0  0  0  0  0  0  0  0  0  0  0
   -5.7070   23.7590  -32.8430 H   0  0  0  0  0  0  0  0  0  0  0  0
   -8.8839   23.3116  -31.3049 H   0  0  0  0  0  0  0  0  0  0  0  0
  -10.3395   21.2964  -31.4855 H   0  0  0  0  0  0  0  0  0  0  0  0
   -7.0420   19.0565  -33.1632 H   0  0  0  0  0  0  0  0  0  0  0  0
   -5.5795   21.0695  -32.9882 H   0  0  0  0  0  0  0  0  0  0  0  0
  1  2  2  0
  2  3  1  0
  3  4  1  0
  4  5  1  0
  5  6  2  0
  6  7  1  0
  7  8  2  0
  8  9  1  0
  9 10  2  0
 10 11  1  0
 11 12  2  0
 12 13  1  0
 12 14  1  0
 14 15  2  0
  8 16  1  0
 16 17  2  0
  2 18  1  0
 18 19  1  0
 19 20  2  0
 20 21  1  0
 21 22  2  0
 22 23  1  0
 22 24  1  0
 24 25  2  0
 17  5  1  0
 25 19  1  0
 15  9  1  0
  3 26  1  0
  3 27  1  0
  6 28  1  0
  7 29  1  0
 10 30  1  0
 11 31  1  0
 14 32  1  0
 15 33  1  0
 16 34  1  0
 17 35  1  0
 18 36  1  0
 20 37  1  0
 21 38  1  0
 24 39  1  0
 25 40  1  0
M  END
>  <UniqueID>  (16) 
14

>  <SMILES>  (16) 
O=C(COc1ccc(-c2ccc(F)cc2)cc1)Nc1ccc(F)cc1

>  <Energy>  (16) 
50.78674384919178

>  <Genealogy>  (16) 
O=C(COc1ccc(-c2ccc(F)cc2)cc1)Nc1ccc(F)cc1 (3D coordinates assigned)
O=C(COc1ccc(-c2ccc(F)cc2)cc1)Nc1ccc(F)cc1 (optimized conformer: 50.78674384919178 kcal/mol)

>  <smiles>  (16) 
O=C(COc1ccc(-c2ccc(F)cc2)cc1)Nc1ccc(F)cc1

>  <score_type>  (16) 
oracle

>  <origin>  (16) 
adgpu

>  <m_score__min__energy>  (16) 
-8.8699999999999992

>  <m_primary>  (16) 
energy

$$$$
16:0
     RDKit          3D

 35 37  0  0  0  0  0  0  0  0999 V2000
   -9.6194   19.6234  -31.4819 H   0  0  0  0  0  0  0  0  0  0  0  0
   -8.8790   20.4120  -31.6820 C   0  0  0  0  0  0  0  0  0  0  0  0
   -7.7550   20.1340  -32.4650 C   0  0  0  0  0  0  0  0  0  0  0  0
   -7.6148   19.1275  -32.8861 H   0  0  0  0  0  0  0  0  0  0  0  0
   -6.8090   21.1320  -32.7140 C   0  0  0  0  0  0  0  0  0  0  0  0
   -5.9324   20.9110  -33.3407 H   0  0  0  0  0  0  0  0  0  0  0  0
   -6.9720   22.4160  -32.1680 C   0  0  0  0  0  0  0  0  0  0  0  0
   -6.0030   23.4350  -32.4590 N   0  0  0  0  0  0  0  0  0  0  0  0
   -5.9940   23.8480  -33.4180 H   0  0  0  0  0  0  0  0  0  0  0  0
   -5.0040   23.8770  -31.5270 C   0  0  0  0  0  0  0  0  0  0  0  0
   -4.2000   23.0580  -30.7610 C   0  0  0  0  0  0  0  0  0  0  0  0
   -4.1690   21.5610  -30.7340 C   0  0  0  0  0  0  0  0  0  0  0  0
   -4.1618   21.2132  -29.6905 H   0  0  0  0  0  0  0  0  0  0  0  0
   -5.0592   21.1665  -31.2458 H   0  0  0  0  0  0  0  0  0  0  0  0
   -3.2633   21.2037  -31.2458 H   0  0  0  0  0  0  0  0  0  0  0  0
   -3.5130   23.9400  -29.9500 C   0  0  0  0  0  0  0  0  0  0  0  0
   -2.6180   23.5940  -29.0700 N   0  0  0  0  0  0  0  0  0  0  0  0
   -1.9080   24.4720  -28.1790 C   0  0  0  0  0  0  0  0  0  0  0  0
   -0.5850   24.8810  -28.4410 C   0  0  0  0  0  0  0  0  0  0  0  0
   -0.0628   24.5060  -29.3336 H   0  0  0  0  0  0  0  0  0  0  0  0
    0.0670   25.7610  -27.5720 C   0  0  0  0  0  0  0  0  0  0  0  0
    1.1040   26.0660  -27.7758 H   0  0  0  0  0  0  0  0  0  0  0  0
   -0.5950   26.2530  -26.4470 C   0  0  0  0  0  0  0  0  0  0  0  0
   -0.0764   26.9374  -25.7595 H   0  0  0  0  0  0  0  0  0  0  0  0
   -1.9160   25.8770  -26.1930 C   0  0  0  0  0  0  0  0  0  0  0  0
   -2.4386   26.2729  -25.3097 H   0  0  0  0  0  0  0  0  0  0  0  0
   -2.5770   24.9980  -27.0590 C   0  0  0  0  0  0  0  0  0  0  0  0
   -4.2410   24.5500  -26.7150 Cl  0  0  0  0  0  0  0  0  0  0  0  0
   -3.8710   25.2110  -30.2280 N   0  0  0  0  0  0  0  0  0  0  0  0
   -4.7870   25.1640  -31.1830 N   0  0  0  0  0  0  0  0  0  0  0  0
   -5.2780   26.0040  -31.5590 H   0  0  0  0  0  0  0  0  0  0  0  0
   -8.1180   22.6940  -31.4000 C   0  0  0  0  0  0  0  0  0  0  0  0
   -8.2723   23.7037  -30.9917 H   0  0  0  0  0  0  0  0  0  0  0  0
   -9.0610   21.6920  -31.1540 C   0  0  0  0  0  0  0  0  0  0  0  0
   -9.9488   21.9122  -30.5429 H   0  0  0  0  0  0  0  0  0  0  0  0
  1  2  1  0
  2  3  2  0
  3  4  1  0
  3  5  1  0
  5  6  1  0
  5  7  2  0
  7  8  1  0
  8  9  1  0
  8 10  1  0
 10 11  2  0
 11 12  1  0
 12 13  1  0
 12 14  1  0
 12 15  1  0
 11 16  1  0
 16 17  2  0
 17 18  1  0
 18 19  2  0
 19 20  1  0
 19 21  1  0
 21 22  1  0
 21 23  2  0
 23 24  1  0
 23 25  1  0
 25 26  1  0
 25 27  2  0
 27 28  1  0
 16 29  1  0
 29 30  1  0
 30 31  1  0
  7 32  1  0
 32 33  1  0
 32 34  2  0
 34 35  1  0
 34  2  1  0
 30 10  1  0
 27 18  1  0
M  CHG  1  29  -1
M  END
>  <UniqueID>  (17) 
15

>  <SMILES>  (17) 
Cc1c(Nc2ccccc2)[nH][n-]/c1=N\c1ccccc1Cl

>  <Energy>  (17) 
78.65680977886721

>  <Genealogy>  (17) 
Cc1c(Nc2ccccc2)[nH][n-]c1=Nc1ccccc1Cl (protonated)
Cc1c(Nc2ccccc2)[nH][n-]/c1=N\c1ccccc1Cl (cis-trans isomerization)
Cc1c(Nc2ccccc2)[nH][n-]/c1=N\c1ccccc1Cl (3D coordinates assigned)
Cc1c(Nc2ccccc2)[nH][n-]/c1=N\c1ccccc1Cl (optimized conformer: 78.65680977886721 kcal/mol)

>  <smiles>  (17) 
Cc1c(Nc2ccccc2)[nH][nH]c1=Nc1ccccc1Cl

>  <score_type>  (17) 
oracle

>  <origin>  (17) 
adgpu

>  <m_score__min__energy>  (17) 
-9.25

>  <m_primary>  (17) 
energy

$$$$
17:0
     RDKit          3D

 42 43  0  0  0  0  0  0  0  0999 V2000
   -6.3930   16.8920  -33.7270 C   0  0  0  0  0  0  0  0  0  0  0  0
   -6.9340   18.1470  -33.1070 C   0  0  0  0  0  0  0  0  0  0  0  0
   -6.4220   19.4020  -33.4730 C   0  0  0  0  0  0  0  0  0  0  0  0
   -6.9520   20.5710  -32.9140 C   0  0  0  0  0  0  0  0  0  0  0  0
   -8.0070   20.4950  -31.9920 C   0  0  0  0  0  0  0  0  0  0  0  0
   -8.6750   21.9530  -31.2650 S   0  0  0  0  0  0  0  0  0  0  0  0
   -9.2520   22.8520  -32.3240 O   0  0  0  0  0  0  0  0  0  0  0  0
   -9.7770   21.5530  -30.3250 O   0  0  0  0  0  0  0  0  0  0  0  0
   -7.4450   22.7970  -30.3650 N   0  0  0  0  0  0  0  0  0  0  0  0
   -7.3010   24.1880  -30.8000 C   0  0  0  0  0  0  0  0  0  0  0  0
   -5.8560   24.4840  -31.2230 C   0  0  0  0  0  0  0  0  0  0  0  0
   -5.0900   25.2530  -30.1450 C   0  0  0  0  0  0  0  0  0  0  0  0
   -3.6650   25.2900  -30.4720 N   0  0  0  0  0  0  0  0  0  0  0  0
   -2.8500   23.9620  -29.7060 S   0  0  0  0  0  0  0  0  0  0  0  0
   -3.6250   23.5240  -28.4930 O   0  0  0  0  0  0  0  0  0  0  0  0
   -1.4850   24.4080  -29.2640 O   0  0  0  0  0  0  0  0  0  0  0  0
   -2.6770   22.6220  -30.8370 C   0  0  0  0  0  0  0  0  0  0  0  0
   -1.4730   21.9040  -30.8850 C   0  0  0  0  0  0  0  0  0  0  0  0
   -1.3170   20.8510  -31.7930 C   0  0  0  0  0  0  0  0  0  0  0  0
   -2.3620   20.5140  -32.6590 C   0  0  0  0  0  0  0  0  0  0  0  0
   -3.5610   21.2320  -32.6200 C   0  0  0  0  0  0  0  0  0  0  0  0
   -3.7200   22.2850  -31.7120 C   0  0  0  0  0  0  0  0  0  0  0  0
   -8.5310   19.2440  -31.6430 C   0  0  0  0  0  0  0  0  0  0  0  0
   -8.0000   18.0770  -32.1980 C   0  0  0  0  0  0  0  0  0  0  0  0
   -6.0912   16.1919  -32.9340 H   0  0  0  0  0  0  0  0  0  0  0  0
   -7.1704   16.4266  -34.3507 H   0  0  0  0  0  0  0  0  0  0  0  0
   -5.5208   17.1376  -34.3507 H   0  0  0  0  0  0  0  0  0  0  0  0
   -5.6009   19.4670  -34.2021 H   0  0  0  0  0  0  0  0  0  0  0  0
   -6.5406   21.5508  -33.1981 H   0  0  0  0  0  0  0  0  0  0  0  0
   -7.9703   24.3692  -31.6540 H   0  0  0  0  0  0  0  0  0  0  0  0
   -7.5626   24.8474  -29.9593 H   0  0  0  0  0  0  0  0  0  0  0  0
   -5.3398   23.5317  -31.4146 H   0  0  0  0  0  0  0  0  0  0  0  0
   -5.8878   25.1082  -32.1282 H   0  0  0  0  0  0  0  0  0  0  0  0
   -5.4769   26.2811  -30.0869 H   0  0  0  0  0  0  0  0  0  0  0  0
   -5.2247   24.7476  -29.1773 H   0  0  0  0  0  0  0  0  0  0  0  0
   -0.6488   22.1696  -30.2066 H   0  0  0  0  0  0  0  0  0  0  0  0
   -0.3724   20.2883  -31.8257 H   0  0  0  0  0  0  0  0  0  0  0  0
   -2.2407   19.6841  -33.3708 H   0  0  0  0  0  0  0  0  0  0  0  0
   -4.3810   20.9687  -33.3043 H   0  0  0  0  0  0  0  0  0  0  0  0
   -4.6640   22.8490  -31.6845 H   0  0  0  0  0  0  0  0  0  0  0  0
   -9.3648   19.1799  -30.9284 H   0  0  0  0  0  0  0  0  0  0  0  0
   -8.4198   17.0988  -31.9209 H   0  0  0  0  0  0  0  0  0  0  0  0
  1  2  1  0
  2  3  2  0
  3  4  1  0
  4  5  2  0
  5  6  1  0
  6  7  2  0
  6  8  2  0
  6  9  1  0
  9 10  1  0
 10 11  1  0
 11 12  1  0
 12 13  1  0
 13 14  1  0
 14 15  2  0
 14 16  2  0
 14 17  1  0
 17 18  2  0
 18 19  1  0
 19 20  2  0
 20 21  1  0
 21 22  2  0
  5 23  1  0
 23 24  2  0
 24  2  1  0
 22 17  1  0
  1 25  1  0
  1 26  1  0
  1 27  1  0
  3 28  1  0
  4 29  1  0
 10 30  1  0
 10 31  1  0
 11 32  1  0
 11 33  1  0
 12 34  1  0
 12 35  1  0
 18 36  1  0
 19 37  1  0
 20 38  1  0
 21 39  1  0
 22 40  1  0
 23 41  1  0
 24 42  1  0
M  CHG  2   9  -1  13  -1
M  END
>  <UniqueID>  (18) 
16

>  <SMILES>  (18) 
Cc1ccc(S(=O)(=O)[N-]CCC[N-]S(=O)(=O)c2ccccc2)cc1

>  <Energy>  (18) 
35.39134346312874

>  <Genealogy>  (18) 
Cc1ccc(S(=O)(=O)[N-]CCC[N-]S(=O)(=O)c2ccccc2)cc1 (protonated)
Cc1ccc(S(=O)(=O)[N-]CCC[N-]S(=O)(=O)c2ccccc2)cc1 (3D coordinates assigned)
Cc1ccc(S(=O)(=O)[N-]CCC[N-]S(=O)(=O)c2ccccc2)cc1 (optimized conformer: 35.39134346312874 kcal/mol)

>  <smiles>  (18) 
Cc1ccc(S(=O)(=O)NCCCNS(=O)(=O)c2ccccc2)cc1

>  <score_type>  (18) 
oracle

>  <origin>  (18) 
adgpu

>  <m_score__min__energy>  (18) 
-10.44

>  <m_primary>  (18) 
energy

$$$$
18:0
     RDKit          3D

 33 35  0  0  0  0  0  0  0  0999 V2000
   -6.8220   15.9380  -34.1400 C   0  0  0  0  0  0  0  0  0  0  0  0
   -6.1110   17.1800  -33.7090 C   0  0  0  0  0  0  0  0  0  0  0  0
   -5.7550   18.1600  -34.6420 C   0  0  0  0  0  0  0  0  0  0  0  0
   -5.1180   19.2820  -34.2200 N   0  0  0  0  0  0  0  0  0  0  0  0
   -4.8170   19.4790  -32.9070 C   0  0  0  0  0  0  0  0  0  0  0  0
   -4.1590   20.6370  -32.4800 O   0  0  0  0  0  0  0  0  0  0  0  0
   -4.0190   21.0010  -31.1080 C   0  0  0  0  0  0  0  0  0  0  0  0
   -4.2820   22.4700  -30.9340 C   0  0  0  0  0  0  0  0  0  0  0  0
   -3.3160   23.4400  -30.7660 C   0  0  0  0  0  0  0  0  0  0  0  0
   -3.8930   24.6150  -30.8430 O   0  0  0  0  0  0  0  0  0  0  0  0
   -5.1710   24.5060  -31.0660 N   0  0  0  0  0  0  0  0  0  0  0  0
   -5.4530   23.1900  -31.1280 C   0  0  0  0  0  0  0  0  0  0  0  0
   -6.8050   22.6700  -31.4090 C   0  0  0  0  0  0  0  0  0  0  0  0
   -7.8510   23.5660  -31.6850 C   0  0  0  0  0  0  0  0  0  0  0  0
   -9.1330   23.0880  -31.9650 C   0  0  0  0  0  0  0  0  0  0  0  0
   -9.3870   21.7140  -31.9560 C   0  0  0  0  0  0  0  0  0  0  0  0
   -8.3590   20.8160  -31.6540 C   0  0  0  0  0  0  0  0  0  0  0  0
   -8.7110   18.9390  -31.6170 Br  0  0  0  0  0  0  0  0  0  0  0  0
   -7.0730   21.2920  -31.3730 C   0  0  0  0  0  0  0  0  0  0  0  0
   -5.1830   18.5050  -31.9750 C   0  0  0  0  0  0  0  0  0  0  0  0
   -5.8200   17.3800  -32.3940 N   0  0  0  0  0  0  0  0  0  0  0  0
   -7.1450   15.3738  -33.2527 H   0  0  0  0  0  0  0  0  0  0  0  0
   -7.7016   16.2093  -34.7423 H   0  0  0  0  0  0  0  0  0  0  0  0
   -6.1427   15.3169  -34.7423 H   0  0  0  0  0  0  0  0  0  0  0  0
   -5.9892   18.0225  -35.7079 H   0  0  0  0  0  0  0  0  0  0  0  0
   -4.7388   20.4286  -30.5045 H   0  0  0  0  0  0  0  0  0  0  0  0
   -2.9934   20.7775  -30.7791 H   0  0  0  0  0  0  0  0  0  0  0  0
   -2.2444   23.2589  -30.5964 H   0  0  0  0  0  0  0  0  0  0  0  0
   -7.6595   24.6492  -31.6806 H   0  0  0  0  0  0  0  0  0  0  0  0
   -9.9445   23.7947  -32.1931 H   0  0  0  0  0  0  0  0  0  0  0  0
  -10.3952   21.3392  -32.1864 H   0  0  0  0  0  0  0  0  0  0  0  0
   -6.2692   20.5839  -31.1230 H   0  0  0  0  0  0  0  0  0  0  0  0
   -4.9569   18.6478  -30.9080 H   0  0  0  0  0  0  0  0  0  0  0  0
  1  2  1  0
  2  3  2  0
  3  4  1  0
  4  5  2  0
  5  6  1  0
  6  7  1  0
  7  8  1  0
  8  9  2  0
  9 10  1  0
 10 11  1  0
 11 12  2  0
 12 13  1  0
 13 14  2  0
 14 15  1  0
 15 16  2  0
 16 17  1  0
 17 18  1  0
 17 19  2  0
  5 20  1  0
 20 21  2  0
 21  2  1  0
 12  8  1  0
 19 13  1  0
  1 22  1  0
  1 23  1  0
  1 24  1  0
  3 25  1  0
  7 26  1  0
  7 27  1  0
  9 28  1  0
 14 29  1  0
 15 30  1  0
 16 31  1  0
 19 32  1  0
 20 33  1  0
M  END
>  <UniqueID>  (19) 
17

>  <SMILES>  (19) 
Cc1cnc(OCc2conc2-c2cccc(Br)c2)cn1

>  <Energy>  (19) 
68.12468274497903

>  <Genealogy>  (19) 
Cc1cnc(OCc2conc2-c2cccc(Br)c2)cn1 (3D coordinates assigned)
Cc1cnc(OCc2conc2-c2cccc(Br)c2)cn1 (optimized conformer: 68.12468274497903 kcal/mol)

>  <smiles>  (19) 
Cc1cnc(OCc2conc2-c2cccc(Br)c2)cn1

>  <score_type>  (19) 
oracle

>  <origin>  (19) 
adgpu

>  <m_score__min__energy>  (19) 
-8.4000000000000004

>  <m_primary>  (19) 
energy

$$$$
19:0
     RDKit          3D

 27 29  0  0  0  0  0  0  0  0999 V2000
   -2.2340   24.5780  -28.8800 C   0  0  0  0  0  0  0  0  0  0  0  0
   -3.1180   25.2960  -29.7320 O   0  0  0  0  0  0  0  0  0  0  0  0
   -4.3240   24.7590  -30.1920 C   0  0  0  0  0  0  0  0  0  0  0  0
   -5.5110   25.4690  -29.9970 C   0  0  0  0  0  0  0  0  0  0  0  0
   -6.7150   24.9330  -30.4570 C   0  0  0  0  0  0  0  0  0  0  0  0
   -6.7230   23.6960  -31.1050 C   0  0  0  0  0  0  0  0  0  0  0  0
   -5.5150   23.0070  -31.2860 C   0  0  0  0  0  0  0  0  0  0  0  0
   -5.4850   21.7020  -31.9630 C   0  0  0  0  0  0  0  0  0  0  0  0
   -6.5300   20.8310  -31.9410 N   0  0  0  0  0  0  0  0  0  0  0  0
   -6.0560   19.8080  -32.6720 C   0  0  0  0  0  0  0  0  0  0  0  0
   -6.6980   18.6140  -32.9930 C   0  0  0  0  0  0  0  0  0  0  0  0
   -5.9910   17.6830  -33.7810 C   0  0  0  0  0  0  0  0  0  0  0  0
   -6.7450   16.1620  -34.2180 Cl  0  0  0  0  0  0  0  0  0  0  0  0
   -4.6760   17.9700  -34.2190 C   0  0  0  0  0  0  0  0  0  0  0  0
   -4.0600   19.1890  -33.8750 C   0  0  0  0  0  0  0  0  0  0  0  0
   -4.7910   20.0800  -33.0960 C   0  0  0  0  0  0  0  0  0  0  0  0
   -4.4450   21.2570  -32.6510 O   0  0  0  0  0  0  0  0  0  0  0  0
   -4.3550   23.5530  -30.8270 N   0  0  0  0  0  0  0  0  0  0  0  0
   -2.4883   24.7846  -27.8299 H   0  0  0  0  0  0  0  0  0  0  0  0
   -2.3312   23.4999  -29.0756 H   0  0  0  0  0  0  0  0  0  0  0  0
   -1.1987   24.8942  -29.0756 H   0  0  0  0  0  0  0  0  0  0  0  0
   -5.4971   26.4425  -29.4851 H   0  0  0  0  0  0  0  0  0  0  0  0
   -7.6556   25.4839  -30.3094 H   0  0  0  0  0  0  0  0  0  0  0  0
   -7.6676   23.2663  -31.4699 H   0  0  0  0  0  0  0  0  0  0  0  0
   -7.7201   18.4051  -32.6441 H   0  0  0  0  0  0  0  0  0  0  0  0
   -4.1317   17.2364  -34.8319 H   0  0  0  0  0  0  0  0  0  0  0  0
   -3.0396   19.4274  -34.2096 H   0  0  0  0  0  0  0  0  0  0  0  0
  1  2  1  0
  2  3  1  0
  3  4  2  0
  4  5  1  0
  5  6  2  0
  6  7  1  0
  7  8  1  0
  8  9  2  0
  9 10  1  0
 10 11  2  0
 11 12  1  0
 12 13  1  0
 12 14  2  0
 14 15  1  0
 15 16  2  0
 16 17  1  0
  7 18  2  0
 18  3  1  0
 17  8  1  0
 16 10  1  0
  1 19  1  0
  1 20  1  0
  1 21  1  0
  4 22  1  0
  5 23  1  0
  6 24  1  0
 11 25  1  0
 14 26  1  0
 15 27  1  0
M  END
>  <UniqueID>  (20) 
18

>  <SMILES>  (20) 
COc1cccc(-c2nc3cc(Cl)ccc3o2)n1

>  <Energy>  (20) 
64.72961685030953

>  <Genealogy>  (20) 
COc1cccc(-c2nc3cc(Cl)ccc3o2)n1 (3D coordinates assigned)
COc1cccc(-c2nc3cc(Cl)ccc3o2)n1 (optimized conformer: 64.72961685030953 kcal/mol)

>  <smiles>  (20) 
COc1cccc(-c2nc3cc(Cl)ccc3o2)n1

>  <score_type>  (20) 
oracle

>  <origin>  (20) 
adgpu

>  <m_score__min__energy>  (20) 
-7.2300000000000004

>  <m_primary>  (20) 
energy

$$$$
20:0
     RDKit          3D

 38 40  0  0  0  0  0  0  0  0999 V2000
   -1.2260   26.0200  -29.9820 H   0  0  0  0  0  0  0  0  0  0  0  0
   -1.4550   26.0290  -28.9630 N   0  0  0  0  0  0  0  0  0  0  0  0
   -0.8850   24.5360  -28.3050 S   0  0  0  0  0  0  0  0  0  0  0  0
   -1.5960   24.2560  -27.0110 O   0  0  0  0  0  0  0  0  0  0  0  0
    0.5900   24.6370  -28.0330 O   0  0  0  0  0  0  0  0  0  0  0  0
   -1.1910   23.2340  -29.4500 C   0  0  0  0  0  0  0  0  0  0  0  0
   -0.2220   22.2470  -29.6700 C   0  0  0  0  0  0  0  0  0  0  0  0
    0.7289   22.2812  -29.1181 H   0  0  0  0  0  0  0  0  0  0  0  0
   -0.4570   21.2190  -30.5870 C   0  0  0  0  0  0  0  0  0  0  0  0
    0.3071   20.4437  -30.7455 H   0  0  0  0  0  0  0  0  0  0  0  0
   -1.6650   21.1680  -31.3100 C   0  0  0  0  0  0  0  0  0  0  0  0
   -1.9410   20.0780  -32.2810 C   0  0  0  0  0  0  0  0  0  0  0  0
   -3.2310   19.7780  -32.5950 N   0  0  0  0  0  0  0  0  0  0  0  0
   -3.5450   18.7990  -33.4870 C   0  0  0  0  0  0  0  0  0  0  0  0
   -4.7830   18.5050  -33.7590 N   0  0  0  0  0  0  0  0  0  0  0  0
   -5.9540   19.1860  -33.2750 C   0  0  0  0  0  0  0  0  0  0  0  0
   -7.0910   18.4860  -32.8260 C   0  0  0  0  0  0  0  0  0  0  0  0
   -7.1077   17.3867  -32.8619 H   0  0  0  0  0  0  0  0  0  0  0  0
   -8.1980   19.1840  -32.3350 C   0  0  0  0  0  0  0  0  0  0  0  0
   -9.0895   18.6333  -32.0004 H   0  0  0  0  0  0  0  0  0  0  0  0
   -8.1750   20.5810  -32.2680 C   0  0  0  0  0  0  0  0  0  0  0  0
   -9.6880   21.5320  -31.5940 Br  0  0  0  0  0  0  0  0  0  0  0  0
   -7.0360   21.2790  -32.6800 C   0  0  0  0  0  0  0  0  0  0  0  0
   -7.0122   22.3770  -32.6174 H   0  0  0  0  0  0  0  0  0  0  0  0
   -5.9260   20.5830  -33.1720 C   0  0  0  0  0  0  0  0  0  0  0  0
   -5.0263   21.1360  -33.4797 H   0  0  0  0  0  0  0  0  0  0  0  0
   -2.5510   18.0840  -34.0730 N   0  0  0  0  0  0  0  0  0  0  0  0
   -1.2440   18.3390  -33.8010 C   0  0  0  0  0  0  0  0  0  0  0  0
   -0.1740   17.5540  -34.4890 C   0  0  0  0  0  0  0  0  0  0  0  0
    0.4733   17.0791  -33.7370 H   0  0  0  0  0  0  0  0  0  0  0  0
   -0.6352   16.7785  -35.1181 H   0  0  0  0  0  0  0  0  0  0  0  0
    0.4273   18.2268  -35.1181 H   0  0  0  0  0  0  0  0  0  0  0  0
   -0.9100   19.3570  -32.9020 C   0  0  0  0  0  0  0  0  0  0  0  0
    0.1433   19.5885  -32.6855 H   0  0  0  0  0  0  0  0  0  0  0  0
   -2.6350   22.1610  -31.0780 C   0  0  0  0  0  0  0  0  0  0  0  0
   -3.5899   22.1280  -31.6231 H   0  0  0  0  0  0  0  0  0  0  0  0
   -2.3960   23.1890  -30.1610 C   0  0  0  0  0  0  0  0  0  0  0  0
   -3.1578   23.9655  -29.9976 H   0  0  0  0  0  0  0  0  0  0  0  0
  1  2  1  0
  2  3  1  0
  3  4  2  0
  3  5  2  0
  3  6  1  0
  6  7  2  0
  7  8  1  0
  7  9  1  0
  9 10  1  0
  9 11  2  0
 11 12  1  0
 12 13  1  0
 13 14  1  0
 14 15  2  0
 15 16  1  0
 16 17  2  0
 17 18  1  0
 17 19  1  0
 19 20  1  0
 19 21  2  0
 21 22  1  0
 21 23  1  0
 23 24  1  0
 23 25  2  0
 25 26  1  0
 14 27  1  0
 27 28  2  0
 28 29  1  0
 29 30  1  0
 29 31  1  0
 29 32  1  0
 28 33  1  0
 33 34  1  0
 11 35  1  0
 35 36  1  0
 35 37  2  0
 37 38  1  0
 37  6  1  0
 33 12  2  0
 25 16  1  0
M  CHG  2   2  -1  13  -1
M  END
>  <UniqueID>  (21) 
19

>  <SMILES>  (21) 
Cc1cc(-c2ccc(S([NH-])(=O)=O)cc2)[n-]/c(=N\c2ccc(Br)cc2)n1

>  <Energy>  (21) 
49.42170409732257

>  <Genealogy>  (21) 
Cc1cc(-c2ccc(S([NH-])(=O)=O)cc2)[n-]c(=Nc2ccc(Br)cc2)n1 (protonated)
Cc1cc(-c2ccc(S([NH-])(=O)=O)cc2)[n-]/c(=N\c2ccc(Br)cc2)n1 (cis-trans isomerization)
Cc1cc(-c2ccc(S([NH-])(=O)=O)cc2)[n-]/c(=N\c2ccc(Br)cc2)n1 (3D coordinates assigned)
Cc1cc(-c2ccc(S([NH-])(=O)=O)cc2)[n-]/c(=N\c2ccc(Br)cc2)n1 (optimized conformer: 49.42170409732257 kcal/mol)

>  <smiles>  (21) 
Cc1cc(-c2ccc(S(N)(=O)=O)cc2)[nH]c(=Nc2ccc(Br)cc2)n1

>  <score_type>  (21) 
oracle

>  <origin>  (21) 
adgpu

>  <m_score__min__energy>  (21) 
-10.73

>  <m_primary>  (21) 
energy

$$$$
21:0
     RDKit          3D

 34 36  0  0  0  0  0  0  0  0999 V2000
   -3.7310   21.9210  -33.4700 C   0  0  0  0  0  0  0  0  0  0  0  0
   -4.7800   21.7880  -32.4560 N   0  0  0  0  0  0  0  0  0  0  0  0
   -4.7250   22.5350  -31.2180 C   0  0  0  0  0  0  0  0  0  0  0  0
   -5.1970   23.8620  -31.1430 C   0  0  0  0  0  0  0  0  0  0  0  0
   -5.1400   24.5690  -29.9390 C   0  0  0  0  0  0  0  0  0  0  0  0
   -4.6150   23.9650  -28.7940 C   0  0  0  0  0  0  0  0  0  0  0  0
   -4.5620   24.6550  -27.6280 F   0  0  0  0  0  0  0  0  0  0  0  0
   -4.1470   22.6520  -28.8510 C   0  0  0  0  0  0  0  0  0  0  0  0
   -4.2010   21.9390  -30.0520 C   0  0  0  0  0  0  0  0  0  0  0  0
   -5.7290   20.7200  -32.5980 C   0  0  0  0  0  0  0  0  0  0  0  0
   -5.2830   19.4840  -32.9480 N   0  0  0  0  0  0  0  0  0  0  0  0
   -6.1340   18.4330  -33.0950 C   0  0  0  0  0  0  0  0  0  0  0  0
   -5.6100   17.1010  -33.5310 C   0  0  0  0  0  0  0  0  0  0  0  0
   -6.6040   16.3850  -34.1720 F   0  0  0  0  0  0  0  0  0  0  0  0
   -5.1760   16.3790  -32.4330 F   0  0  0  0  0  0  0  0  0  0  0  0
   -4.5520   17.2880  -34.4000 F   0  0  0  0  0  0  0  0  0  0  0  0
   -7.4690   18.6140  -32.9150 N   0  0  0  0  0  0  0  0  0  0  0  0
   -7.9720   19.8220  -32.5520 C   0  0  0  0  0  0  0  0  0  0  0  0
   -9.3480   19.9740  -32.3490 C   0  0  0  0  0  0  0  0  0  0  0  0
   -9.8660   21.2110  -31.9550 C   0  0  0  0  0  0  0  0  0  0  0  0
   -9.0100   22.2990  -31.7580 C   0  0  0  0  0  0  0  0  0  0  0  0
   -7.6330   22.1580  -31.9620 C   0  0  0  0  0  0  0  0  0  0  0  0
   -7.1040   20.9210  -32.3720 C   0  0  0  0  0  0  0  0  0  0  0  0
   -2.7563   22.0446  -32.9752 H   0  0  0  0  0  0  0  0  0  0  0  0
   -3.7115   21.0181  -34.0981 H   0  0  0  0  0  0  0  0  0  0  0  0
   -3.9375   22.8002  -34.0981 H   0  0  0  0  0  0  0  0  0  0  0  0
   -5.6134   24.3444  -32.0396 H   0  0  0  0  0  0  0  0  0  0  0  0
   -5.5096   25.6040  -29.8927 H   0  0  0  0  0  0  0  0  0  0  0  0
   -3.7346   22.1768  -27.9488 H   0  0  0  0  0  0  0  0  0  0  0  0
   -3.8314   20.9036  -30.0881 H   0  0  0  0  0  0  0  0  0  0  0  0
  -10.0231   19.1187  -32.4997 H   0  0  0  0  0  0  0  0  0  0  0  0
  -10.9486   21.3288  -31.7997 H   0  0  0  0  0  0  0  0  0  0  0  0
   -9.4207   23.2692  -31.4415 H   0  0  0  0  0  0  0  0  0  0  0  0
   -6.9633   23.0157  -31.8015 H   0  0  0  0  0  0  0  0  0  0  0  0
  1  2  1  0
  2  3  1  0
  3  4  2  0
  4  5  1  0
  5  6  2  0
  6  7  1  0
  6  8  1  0
  8  9  2  0
  2 10  1  0
 10 11  2  0
 11 12  1  0
 12 13  1  0
 13 14  1  0
 13 15  1  0
 13 16  1  0
 12 17  2  0
 17 18  1  0
 18 19  2  0
 19 20  1  0
 20 21  2  0
 21 22  1  0
 22 23  2  0
  9  3  1  0
 23 10  1  0
 23 18  1  0
  1 24  1  0
  1 25  1  0
  1 26  1  0
  4 27  1  0
  5 28  1  0
  8 29  1  0
  9 30  1  0
 19 31  1  0
 20 32  1  0
 21 33  1  0
 22 34  1  0
M  END
>  <UniqueID>  (22) 
20

>  <SMILES>  (22) 
CN(c1ccc(F)cc1)c1nc(C(F)(F)F)nc2ccccc12

>  <Energy>  (22) 
48.789949320001774

>  <Genealogy>  (22) 
CN(c1ccc(F)cc1)c1nc(C(F)(F)F)nc2ccccc12 (3D coordinates assigned)
CN(c1ccc(F)cc1)c1nc(C(F)(F)F)nc2ccccc12 (optimized conformer: 48.789949320001774 kcal/mol)

>  <smiles>  (22) 
CN(c1ccc(F)cc1)c1nc(C(F)(F)F)nc2ccccc12

>  <score_type>  (22) 
oracle

>  <origin>  (22) 
adgpu

>  <m_score__min__energy>  (22) 
-7.3700000000000001

>  <m_primary>  (22) 
energy

$$$$
22:0
     RDKit          3D

 42 42  0  0  0  0  0  0  0  0999 V2000
   -3.9240   24.9480  -26.4850 C   0  0  0  0  0  0  0  0  0  0  0  0
   -4.0780   23.8040  -27.4880 C   0  0  0  0  0  0  0  0  0  0  0  0
   -2.8260   23.6110  -28.3540 C   0  0  0  0  0  0  0  0  0  0  0  0
   -2.6180   24.7590  -29.2930 C   0  0  0  0  0  0  0  0  0  0  0  0
   -1.7330   25.6200  -29.0370 O   0  0  0  0  0  0  0  0  0  0  0  0
   -3.4910   24.9170  -30.4170 N   0  0  0  0  0  0  0  0  0  0  0  0
   -4.5200   24.0060  -30.8300 C   0  0  0  0  0  0  0  0  0  0  0  0
   -4.2140   22.7980  -31.4840 C   0  0  0  0  0  0  0  0  0  0  0  0
   -5.2350   21.9250  -31.8820 C   0  0  0  0  0  0  0  0  0  0  0  0
   -4.8340   20.4190  -32.7140 S   0  0  0  0  0  0  0  0  0  0  0  0
   -4.2360   19.4520  -31.7300 O   0  0  0  0  0  0  0  0  0  0  0  0
   -3.7850   20.7220  -33.7480 O   0  0  0  0  0  0  0  0  0  0  0  0
   -6.2130   19.6740  -33.5030 N   0  0  0  0  0  0  0  0  0  0  0  0
   -5.8040   18.7150  -34.5630 C   0  0  0  0  0  0  0  0  0  0  0  0
   -6.0550   17.2340  -34.2450 C   0  0  0  0  0  0  0  0  0  0  0  0
   -7.1600   19.1350  -32.5010 C   0  0  0  0  0  0  0  0  0  0  0  0
   -8.5730   19.7050  -32.6640 C   0  0  0  0  0  0  0  0  0  0  0  0
   -6.5680   22.2380  -31.5840 C   0  0  0  0  0  0  0  0  0  0  0  0
   -6.8770   23.4200  -30.9080 C   0  0  0  0  0  0  0  0  0  0  0  0
   -5.8600   24.3010  -30.5270 C   0  0  0  0  0  0  0  0  0  0  0  0
   -6.2840   25.7840  -29.6840 Cl  0  0  0  0  0  0  0  0  0  0  0  0
   -3.9778   24.5482  -25.4617 H   0  0  0  0  0  0  0  0  0  0  0  0
   -2.9516   25.4396  -26.6359 H   0  0  0  0  0  0  0  0  0  0  0  0
   -4.7318   25.6792  -26.6359 H   0  0  0  0  0  0  0  0  0  0  0  0
   -4.2715   22.8731  -26.9348 H   0  0  0  0  0  0  0  0  0  0  0  0
   -4.9130   24.0564  -28.1581 H   0  0  0  0  0  0  0  0  0  0  0  0
   -1.9481   23.5248  -27.6968 H   0  0  0  0  0  0  0  0  0  0  0  0
   -2.9617   22.6987  -28.9534 H   0  0  0  0  0  0  0  0  0  0  0  0
   -3.1644   22.5370  -31.6844 H   0  0  0  0  0  0  0  0  0  0  0  0
   -6.6960   20.4660  -33.9900 H   0  0  0  0  0  0  0  0  0  0  0  0
   -6.3600   18.9642  -35.4788 H   0  0  0  0  0  0  0  0  0  0  0  0
   -4.7139   18.8223  -34.6640 H   0  0  0  0  0  0  0  0  0  0  0  0
   -6.0790   17.0921  -33.1545 H   0  0  0  0  0  0  0  0  0  0  0  0
   -7.0184   16.9245  -34.6764 H   0  0  0  0  0  0  0  0  0  0  0  0
   -5.2474   16.6244  -34.6764 H   0  0  0  0  0  0  0  0  0  0  0  0
   -7.2057   18.0415  -32.6111 H   0  0  0  0  0  0  0  0  0  0  0  0
   -6.7947   19.4259  -31.5050 H   0  0  0  0  0  0  0  0  0  0  0  0
   -9.0134   19.8827  -31.6718 H   0  0  0  0  0  0  0  0  0  0  0  0
   -8.5240   20.6537  -33.2186 H   0  0  0  0  0  0  0  0  0  0  0  0
   -9.1960   18.9878  -33.2186 H   0  0  0  0  0  0  0  0  0  0  0  0
   -7.3730   21.5507  -31.8834 H   0  0  0  0  0  0  0  0  0  0  0  0
   -7.9249   23.6592  -30.6741 H   0  0  0  0  0  0  0  0  0  0  0  0
  1  2  1  0
  2  3  1  0
  3  4  1  0
  4  5  2  0
  4  6  1  0
  6  7  1  0
  7  8  2  0
  8  9  1  0
  9 10  1  0
 10 11  2  0
 10 12  2  0
 10 13  1  0
 13 14  1  0
 14 15  1  0
 13 16  1  0
 16 17  1  0
  9 18  2  0
 18 19  1  0
 19 20  2  0
 20 21  1  0
 20  7  1  0
  1 22  1  0
  1 23  1  0
  1 24  1  0
  2 25  1  0
  2 26  1  0
  3 27  1  0
  3 28  1  0
  8 29  1  0
 13 30  1  0
 14 31  1  0
 14 32  1  0
 15 33  1  0
 15 34  1  0
 15 35  1  0
 16 36  1  0
 16 37  1  0
 17 38  1  0
 17 39  1  0
 17 40  1  0
 18 41  1  0
 19 42  1  0
M  CHG  2   6  -1  13   1
M  END
>  <UniqueID>  (23) 
21

>  <SMILES>  (23) 
CCCC(=O)[N-]c1cc(S(=O)(=O)[NH+](CC)CC)ccc1Cl

>  <Energy>  (23) 
38.1109160217084

>  <Genealogy>  (23) 
CCCC(=O)[N-]c1cc(S(=O)(=O)[NH+](CC)CC)ccc1Cl (protonated)
CCCC(=O)[N-]c1cc(S(=O)(=O)[NH+](CC)CC)ccc1Cl (3D coordinates assigned)
CCCC(=O)[N-]c1cc(S(=O)(=O)[NH+](CC)CC)ccc1Cl (optimized conformer: 38.1109160217084 kcal/mol)

>  <smiles>  (23) 
CCCC(=O)Nc1cc(S(=O)(=O)N(CC)CC)ccc1Cl

>  <score_type>  (23) 
oracle

>  <origin>  (23) 
adgpu

>  <m_score__min__energy>  (23) 
-9.0299999999999994

>  <m_primary>  (23) 
energy

$$$$
23:0
     RDKit          3D

 27 28  0  0  0  0  0  0  0  0999 V2000
   -2.7640   25.2990  -29.5140 O   0  0  0  0  0  0  0  0  0  0  0  0
   -3.7910   24.6950  -30.2300 C   0  0  0  0  0  0  0  0  0  0  0  0
   -3.5950   23.4380  -30.8080 C   0  0  0  0  0  0  0  0  0  0  0  0
   -4.6280   22.8300  -31.5280 C   0  0  0  0  0  0  0  0  0  0  0  0
   -5.8670   23.4740  -31.6830 C   0  0  0  0  0  0  0  0  0  0  0  0
   -6.9080   22.8220  -32.4350 N   0  0  0  0  0  0  0  0  0  0  0  0
   -8.0430   22.1150  -31.8380 C   0  0  0  0  0  0  0  0  0  0  0  0
   -7.9060   20.6230  -32.0230 C   0  0  0  0  0  0  0  0  0  0  0  0
   -8.8450   19.7610  -31.4280 C   0  0  0  0  0  0  0  0  0  0  0  0
   -8.7440   18.3770  -31.5990 C   0  0  0  0  0  0  0  0  0  0  0  0
   -7.7140   17.8400  -32.3740 C   0  0  0  0  0  0  0  0  0  0  0  0
   -6.7860   18.6860  -32.9860 C   0  0  0  0  0  0  0  0  0  0  0  0
   -6.8800   20.0730  -32.8210 C   0  0  0  0  0  0  0  0  0  0  0  0
   -5.9520   20.8920  -33.4550 O   0  0  0  0  0  0  0  0  0  0  0  0
   -6.0540   24.7400  -31.0920 C   0  0  0  0  0  0  0  0  0  0  0  0
   -5.0190   25.3450  -30.3720 C   0  0  0  0  0  0  0  0  0  0  0  0
   -2.6276   22.9265  -30.6965 H   0  0  0  0  0  0  0  0  0  0  0  0
   -4.4691   21.8385  -31.9771 H   0  0  0  0  0  0  0  0  0  0  0  0
   -6.8780   22.8780  -33.4790 H   0  0  0  0  0  0  0  0  0  0  0  0
   -8.0836   22.3423  -30.7625 H   0  0  0  0  0  0  0  0  0  0  0  0
   -8.9656   22.4476  -32.3361 H   0  0  0  0  0  0  0  0  0  0  0  0
   -9.6642   20.1786  -30.8242 H   0  0  0  0  0  0  0  0  0  0  0  0
   -9.4773   17.7100  -31.1222 H   0  0  0  0  0  0  0  0  0  0  0  0
   -7.6333   16.7505  -32.5026 H   0  0  0  0  0  0  0  0  0  0  0  0
   -5.9783   18.2607  -33.5999 H   0  0  0  0  0  0  0  0  0  0  0  0
   -7.0201   25.2553  -31.1978 H   0  0  0  0  0  0  0  0  0  0  0  0
   -5.1723   26.3345  -29.9167 H   0  0  0  0  0  0  0  0  0  0  0  0
  1  2  1  0
  2  3  2  0
  3  4  1  0
  4  5  2  0
  5  6  1  0
  6  7  1  0
  7  8  1  0
  8  9  2  0
  9 10  1  0
 10 11  2  0
 11 12  1  0
 12 13  2  0
 13 14  1  0
  5 15  1  0
 15 16  2  0
 16  2  1  0
 13  8  1  0
  3 17  1  0
  4 18  1  0
  6 19  1  0
  7 20  1  0
  7 21  1  0
  9 22  1  0
 10 23  1  0
 11 24  1  0
 12 25  1  0
 15 26  1  0
 16 27  1  0
M  CHG  2   1  -1  14  -1
M  END
>  <UniqueID>  (24) 
22

>  <SMILES>  (24) 
[O-]c1ccc(NCc2ccccc2[O-])cc1

>  <Energy>  (24) 
28.100603979397825

>  <Genealogy>  (24) 
[O-]c1ccc(NCc2ccccc2[O-])cc1 (protonated)
[O-]c1ccc(NCc2ccccc2[O-])cc1 (3D coordinates assigned)
[O-]c1ccc(NCc2ccccc2[O-])cc1 (optimized conformer: 28.100603979397825 kcal/mol)

>  <smiles>  (24) 
Oc1ccc(NCc2ccccc2O)cc1

>  <score_type>  (24) 
oracle

>  <origin>  (24) 
adgpu

>  <m_score__min__energy>  (24) 
-9.4399999999999995

>  <m_primary>  (24) 
energy

$$$$
24:0
     RDKit          3D

 23 23  0  0  0  0  0  0  0  0999 V2000
   -1.5550   25.6940  -26.8070 C   0  0  0  0  0  0  0  0  0  0  0  0
   -0.8900   25.1750  -28.0770 C   0  0  0  0  0  0  0  0  0  0  0  0
   -1.7860   25.3000  -29.2260 N   0  0  0  0  0  0  0  0  0  0  0  0
   -2.9720   24.5080  -29.3420 C   0  0  0  0  0  0  0  0  0  0  0  0
   -3.2840   23.6990  -28.4270 O   0  0  0  0  0  0  0  0  0  0  0  0
   -3.8230   24.6840  -30.4810 N   0  0  0  0  0  0  0  0  0  0  0  0
   -4.9620   23.8820  -30.8310 C   0  0  0  0  0  0  0  0  0  0  0  0
   -4.8430   22.7580  -31.6710 C   0  0  0  0  0  0  0  0  0  0  0  0
   -5.9730   22.0100  -32.0130 C   0  0  0  0  0  0  0  0  0  0  0  0
   -7.2320   22.3810  -31.5350 C   0  0  0  0  0  0  0  0  0  0  0  0
   -8.6480   21.4410  -31.9690 Cl  0  0  0  0  0  0  0  0  0  0  0  0
   -7.3640   23.5090  -30.7200 C   0  0  0  0  0  0  0  0  0  0  0  0
   -6.2360   24.2640  -30.3750 C   0  0  0  0  0  0  0  0  0  0  0  0
   -6.4380   25.6790  -29.3510 Cl  0  0  0  0  0  0  0  0  0  0  0  0
   -1.0339   25.2873  -25.9278 H   0  0  0  0  0  0  0  0  0  0  0  0
   -1.5029   26.7926  -26.7885 H   0  0  0  0  0  0  0  0  0  0  0  0
   -2.6080   25.3765  -26.7885 H   0  0  0  0  0  0  0  0  0  0  0  0
    0.0237   25.7569  -28.2683 H   0  0  0  0  0  0  0  0  0  0  0  0
   -0.6469   24.1115  -27.9360 H   0  0  0  0  0  0  0  0  0  0  0  0
   -1.5670   25.9780  -29.9930 H   0  0  0  0  0  0  0  0  0  0  0  0
   -3.8559   22.4673  -32.0598 H   0  0  0  0  0  0  0  0  0  0  0  0
   -5.8706   21.1266  -32.6604 H   0  0  0  0  0  0  0  0  0  0  0  0
   -8.3564   23.8044  -30.3487 H   0  0  0  0  0  0  0  0  0  0  0  0
  1  2  1  0
  2  3  1  0
  3  4  1  0
  4  5  2  0
  4  6  1  0
  6  7  1  0
  7  8  2  0
  8  9  1  0
  9 10  2  0
 10 11  1  0
 10 12  1  0
 12 13  2  0
 13 14  1  0
 13  7  1  0
  1 15  1  0
  1 16  1  0
  1 17  1  0
  2 18  1  0
  2 19  1  0
  3 20  1  0
  8 21  1  0
  9 22  1  0
 12 23  1  0
M  CHG  1   6  -1
M  END
>  <UniqueID>  (25) 
23

>  <SMILES>  (25) 
CCNC(=O)[N-]c1ccc(Cl)cc1Cl

>  <Energy>  (25) 
19.693935064052297

>  <Genealogy>  (25) 
CCNC(=O)[N-]c1ccc(Cl)cc1Cl (protonated)
CCNC(=O)[N-]c1ccc(Cl)cc1Cl (3D coordinates assigned)
CCNC(=O)[N-]c1ccc(Cl)cc1Cl (optimized conformer: 19.693935064052297 kcal/mol)

>  <smiles>  (25) 
CCNC(=O)Nc1ccc(Cl)cc1Cl

>  <score_type>  (25) 
oracle

>  <origin>  (25) 
adgpu

>  <m_score__min__energy>  (25) 
-8.0999999999999996

>  <m_primary>  (25) 
energy

$$$$
25:0
     RDKit          3D

 34 36  0  0  0  0  0  0  0  0999 V2000
   -2.3910   24.6080  -28.5640 C   0  0  0  0  0  0  0  0  0  0  0  0
   -3.5150   24.4370  -29.5260 C   0  0  0  0  0  0  0  0  0  0  0  0
   -4.3320   23.3660  -29.5470 N   0  0  0  0  0  0  0  0  0  0  0  0
   -5.1400   23.6680  -30.5870 C   0  0  0  0  0  0  0  0  0  0  0  0
   -6.2480   22.8020  -31.0470 C   0  0  0  0  0  0  0  0  0  0  0  0
   -7.5410   23.3240  -31.2010 C   0  0  0  0  0  0  0  0  0  0  0  0
   -8.5840   22.5120  -31.6460 C   0  0  0  0  0  0  0  0  0  0  0  0
   -8.3610   21.1560  -31.9350 C   0  0  0  0  0  0  0  0  0  0  0  0
   -9.5040   20.3040  -32.4150 C   0  0  0  0  0  0  0  0  0  0  0  0
   -7.0640   20.6160  -31.7800 C   0  0  0  0  0  0  0  0  0  0  0  0
   -6.8000   19.2410  -32.1160 N   0  0  0  0  0  0  0  0  0  0  0  0
   -6.2460   18.8300  -33.3770 C   0  0  0  0  0  0  0  0  0  0  0  0
   -5.7870   19.6850  -34.1810 O   0  0  0  0  0  0  0  0  0  0  0  0
   -6.1790   17.4020  -33.7210 C   0  0  0  0  0  0  0  0  0  0  0  0
   -5.0250   16.6680  -33.9160 C   0  0  0  0  0  0  0  0  0  0  0  0
   -5.4440   15.3900  -34.2190 C   0  0  0  0  0  0  0  0  0  0  0  0
   -6.8230   15.4230  -34.1900 C   0  0  0  0  0  0  0  0  0  0  0  0
   -7.2310   16.6350  -33.8910 O   0  0  0  0  0  0  0  0  0  0  0  0
   -6.0170   21.4500  -31.3460 C   0  0  0  0  0  0  0  0  0  0  0  0
   -4.8220   24.8480  -31.1570 N   0  0  0  0  0  0  0  0  0  0  0  0
   -3.8110   25.2900  -30.4740 O   0  0  0  0  0  0  0  0  0  0  0  0
   -2.7765   24.5493  -27.5355 H   0  0  0  0  0  0  0  0  0  0  0  0
   -1.6481   23.8125  -28.7230 H   0  0  0  0  0  0  0  0  0  0  0  0
   -1.9182   25.5884  -28.7230 H   0  0  0  0  0  0  0  0  0  0  0  0
   -7.7337   24.3818  -30.9690 H   0  0  0  0  0  0  0  0  0  0  0  0
   -9.5905   22.9377  -31.7717 H   0  0  0  0  0  0  0  0  0  0  0  0
  -10.0479   19.8985  -31.5491 H   0  0  0  0  0  0  0  0  0  0  0  0
  -10.1867   20.9153  -33.0234 H   0  0  0  0  0  0  0  0  0  0  0  0
   -9.1132   19.4751  -33.0234 H   0  0  0  0  0  0  0  0  0  0  0  0
   -6.9620   18.5100  -31.3880 H   0  0  0  0  0  0  0  0  0  0  0  0
   -3.9881   17.0281  -33.8444 H   0  0  0  0  0  0  0  0  0  0  0  0
   -4.8077   14.5202  -34.4393 H   0  0  0  0  0  0  0  0  0  0  0  0
   -7.4812   14.5640  -34.3875 H   0  0  0  0  0  0  0  0  0  0  0  0
   -5.0032   21.0367  -31.2395 H   0  0  0  0  0  0  0  0  0  0  0  0
  1  2  1  0
  2  3  2  0
  3  4  1  0
  4  5  1  0
  5  6  2  0
  6  7  1  0
  7  8  2  0
  8  9  1  0
  8 10  1  0
 10 11  1  0
 11 12  1  0
 12 13  2  0
 12 14  1  0
 14 15  2  0
 15 16  1  0
 16 17  2  0
 17 18  1  0
 10 19  2  0
  4 20  2  0
 20 21  1  0
 21  2  1  0
 19  5  1  0
 18 14  1  0
  1 22  1  0
  1 23  1  0
  1 24  1  0
  6 25  1  0
  7 26  1  0
  9 27  1  0
  9 28  1  0
  9 29  1  0
 11 30  1  0
 15 31  1  0
 16 32  1  0
 17 33  1  0
 19 34  1  0
M  END
>  <UniqueID>  (26) 
24

>  <SMILES>  (26) 
Cc1nc(-c2ccc(C)c(NC(=O)c3ccco3)c2)no1

>  <Energy>  (26) 
97.17756483866893

>  <Genealogy>  (26) 
Cc1nc(-c2ccc(C)c(NC(=O)c3ccco3)c2)no1 (3D coordinates assigned)
Cc1nc(-c2ccc(C)c(NC(=O)c3ccco3)c2)no1 (optimized conformer: 97.17756483866893 kcal/mol)

>  <smiles>  (26) 
Cc1nc(-c2ccc(C)c(NC(=O)c3ccco3)c2)no1

>  <score_type>  (26) 
oracle

>  <origin>  (26) 
adgpu

>  <m_score__min__energy>  (26) 
-8.5600000000000005

>  <m_primary>  (26) 
energy

$$$$
26:0
     RDKit          3D

 45 47  0  0  0  0  0  0  0  0999 V2000
   -9.3190   21.7180  -31.8870 C   0  0  0  0  0  0  0  0  0  0  0  0
   -8.3560   20.6160  -31.4450 C   0  0  0  0  0  0  0  0  0  0  0  0
   -6.9540   20.9920  -31.6780 N   0  0  0  0  0  0  0  0  0  0  0  0
   -6.3200   22.1180  -31.2830 C   0  0  0  0  0  0  0  0  0  0  0  0
   -7.0660   23.4710  -30.3600 S   0  0  0  0  0  0  0  0  0  0  0  0
   -6.0970   24.7800  -31.1890 C   0  0  0  0  0  0  0  0  0  0  0  0
   -5.2390   25.5430  -30.1800 C   0  0  0  0  0  0  0  0  0  0  0  0
   -3.8510   25.3070  -30.4160 O   0  0  0  0  0  0  0  0  0  0  0  0
   -3.0630   24.3600  -29.7390 C   0  0  0  0  0  0  0  0  0  0  0  0
   -2.7180   23.1140  -30.2990 C   0  0  0  0  0  0  0  0  0  0  0  0
   -1.9440   22.2050  -29.5740 C   0  0  0  0  0  0  0  0  0  0  0  0
   -1.5040   22.5270  -28.2900 C   0  0  0  0  0  0  0  0  0  0  0  0
   -1.8220   23.7700  -27.7250 C   0  0  0  0  0  0  0  0  0  0  0  0
   -1.3820   24.1020  -26.3310 C   0  0  0  0  0  0  0  0  0  0  0  0
   -2.6160   24.6750  -28.4490 C   0  0  0  0  0  0  0  0  0  0  0  0
   -5.0370   22.1330  -31.6860 N   0  0  0  0  0  0  0  0  0  0  0  0
   -4.8250   21.0070  -32.3470 N   0  0  0  0  0  0  0  0  0  0  0  0
   -5.9880   20.3270  -32.3550 C   0  0  0  0  0  0  0  0  0  0  0  0
   -6.1390   19.0250  -33.0270 C   0  0  0  0  0  0  0  0  0  0  0  0
   -6.7750   17.9680  -32.3590 C   0  0  0  0  0  0  0  0  0  0  0  0
   -6.9180   16.7240  -32.9820 C   0  0  0  0  0  0  0  0  0  0  0  0
   -6.4110   16.5240  -34.2690 C   0  0  0  0  0  0  0  0  0  0  0  0
   -5.7560   17.5650  -34.9320 C   0  0  0  0  0  0  0  0  0  0  0  0
   -5.6140   18.8110  -34.3130 C   0  0  0  0  0  0  0  0  0  0  0  0
   -9.7473   22.2081  -31.0002 H   0  0  0  0  0  0  0  0  0  0  0  0
   -8.7750   22.4604  -32.4894 H   0  0  0  0  0  0  0  0  0  0  0  0
  -10.1276   21.2784  -32.4894 H   0  0  0  0  0  0  0  0  0  0  0  0
   -8.5003   20.4264  -30.3711 H   0  0  0  0  0  0  0  0  0  0  0  0
   -8.5718   19.7147  -32.0375 H   0  0  0  0  0  0  0  0  0  0  0  0
   -5.4424   24.3204  -31.9442 H   0  0  0  0  0  0  0  0  0  0  0  0
   -6.7936   25.4863  -31.6643 H   0  0  0  0  0  0  0  0  0  0  0  0
   -5.4431   26.6198  -30.2740 H   0  0  0  0  0  0  0  0  0  0  0  0
   -5.4896   25.1935  -29.1675 H   0  0  0  0  0  0  0  0  0  0  0  0
   -3.0599   22.8558  -31.3121 H   0  0  0  0  0  0  0  0  0  0  0  0
   -1.6808   21.2330  -30.0166 H   0  0  0  0  0  0  0  0  0  0  0  0
   -0.9051   21.8027  -27.7185 H   0  0  0  0  0  0  0  0  0  0  0  0
   -2.0442   23.6023  -25.6087 H   0  0  0  0  0  0  0  0  0  0  0  0
   -0.3485   23.7567  -26.1807 H   0  0  0  0  0  0  0  0  0  0  0  0
   -1.4304   25.1906  -26.1807 H   0  0  0  0  0  0  0  0  0  0  0  0
   -2.8895   25.6406  -27.9986 H   0  0  0  0  0  0  0  0  0  0  0  0
   -7.1630   18.1182  -31.3407 H   0  0  0  0  0  0  0  0  0  0  0  0
   -7.4297   15.9027  -32.4589 H   0  0  0  0  0  0  0  0  0  0  0  0
   -6.5277   15.5467  -34.7601 H   0  0  0  0  0  0  0  0  0  0  0  0
   -5.3515   17.4043  -35.9422 H   0  0  0  0  0  0  0  0  0  0  0  0
   -5.0900   19.6258  -34.8341 H   0  0  0  0  0  0  0  0  0  0  0  0
  1  2  1  0
  2  3  1  0
  3  4  1  0
  4  5  1  0
  5  6  1  0
  6  7  1  0
  7  8  1  0
  8  9  1  0
  9 10  2  0
 10 11  1  0
 11 12  2  0
 12 13  1  0
 13 14  1  0
 13 15  2  0
  4 16  2  0
 16 17  1  0
 17 18  2  0
 18 19  1  0
 19 20  2  0
 20 21  1  0
 21 22  2  0
 22 23  1  0
 23 24  2  0
 18  3  1  0
 24 19  1  0
 15  9  1  0
  1 25  1  0
  1 26  1  0
  1 27  1  0
  2 28  1  0
  2 29  1  0
  6 30  1  0
  6 31  1  0
  7 32  1  0
  7 33  1  0
 10 34  1  0
 11 35  1  0
 12 36  1  0
 14 37  1  0
 14 38  1  0
 14 39  1  0
 15 40  1  0
 20 41  1  0
 21 42  1  0
 22 43  1  0
 23 44  1  0
 24 45  1  0
M  END
>  <UniqueID>  (27) 
25

>  <SMILES>  (27) 
CCn1c(SCCOc2cccc(C)c2)nnc1-c1ccccc1

>  <Energy>  (27) 
78.46526384460944

>  <Genealogy>  (27) 
CCn1c(SCCOc2cccc(C)c2)nnc1-c1ccccc1 (3D coordinates assigned)
CCn1c(SCCOc2cccc(C)c2)nnc1-c1ccccc1 (optimized conformer: 78.46526384460944 kcal/mol)

>  <smiles>  (27) 
CCn1c(SCCOc2cccc(C)c2)nnc1-c1ccccc1

>  <score_type>  (27) 
oracle

>  <origin>  (27) 
adgpu

>  <m_score__min__energy>  (27) 
-8.9299999999999997

>  <m_primary>  (27) 
energy

$$$$
27:0
     RDKit          3D

 27 28  0  0  0  0  0  0  0  0999 V2000
   -3.5030   23.8220  -30.8500 O   0  0  0  0  0  0  0  0  0  0  0  0
   -4.8940   24.2990  -30.5360 S   0  0  0  0  0  0  0  0  0  0  0  0
   -5.1150   25.6360  -31.1890 O   0  0  0  0  0  0  0  0  0  0  0  0
   -5.0690   24.4600  -28.8140 N   0  0  0  0  0  0  0  0  0  0  0  0
   -4.0540   23.6540  -28.1350 C   0  0  0  0  0  0  0  0  0  0  0  0
   -2.9480   24.5400  -27.6600 C   0  0  0  0  0  0  0  0  0  0  0  0
   -2.7740   24.9920  -26.3600 C   0  0  0  0  0  0  0  0  0  0  0  0
   -1.6040   25.7430  -26.1910 C   0  0  0  0  0  0  0  0  0  0  0  0
   -0.8510   25.8690  -27.3510 C   0  0  0  0  0  0  0  0  0  0  0  0
   -1.6380   25.0420  -28.5870 S   0  0  0  0  0  0  0  0  0  0  0  0
   -6.0530   23.1240  -31.1520 C   0  0  0  0  0  0  0  0  0  0  0  0
   -5.6170   22.0740  -31.9720 C   0  0  0  0  0  0  0  0  0  0  0  0
   -6.5330   21.1390  -32.4630 C   0  0  0  0  0  0  0  0  0  0  0  0
   -7.8880   21.2510  -32.1410 C   0  0  0  0  0  0  0  0  0  0  0  0
   -8.7760   20.3450  -32.6190 F   0  0  0  0  0  0  0  0  0  0  0  0
   -8.3300   22.3010  -31.3290 C   0  0  0  0  0  0  0  0  0  0  0  0
   -7.4150   23.2360  -30.8360 C   0  0  0  0  0  0  0  0  0  0  0  0
   -6.0100   24.0740  -28.5670 H   0  0  0  0  0  0  0  0  0  0  0  0
   -4.5085   23.1417  -27.2742 H   0  0  0  0  0  0  0  0  0  0  0  0
   -3.6503   22.9079  -28.8353 H   0  0  0  0  0  0  0  0  0  0  0  0
   -3.4826   24.7820  -25.5452 H   0  0  0  0  0  0  0  0  0  0  0  0
   -1.3094   26.1907  -25.2304 H   0  0  0  0  0  0  0  0  0  0  0  0
    0.0984   26.4163  -27.4457 H   0  0  0  0  0  0  0  0  0  0  0  0
   -4.5513   21.9855  -32.2298 H   0  0  0  0  0  0  0  0  0  0  0  0
   -6.1867   20.3144  -33.1034 H   0  0  0  0  0  0  0  0  0  0  0  0
   -9.3973   22.3909  -31.0785 H   0  0  0  0  0  0  0  0  0  0  0  0
   -7.7641   24.0617  -30.1986 H   0  0  0  0  0  0  0  0  0  0  0  0
  1  2  2  0
  2  3  2  0
  2  4  1  0
  4  5  1  0
  5  6  1  0
  6  7  2  0
  7  8  1  0
  8  9  2  0
  9 10  1  0
  2 11  1  0
 11 12  2  0
 12 13  1  0
 13 14  2  0
 14 15  1  0
 14 16  1  0
 16 17  2  0
 10  6  1  0
 17 11  1  0
  4 18  1  0
  5 19  1  0
  5 20  1  0
  7 21  1  0
  8 22  1  0
  9 23  1  0
 12 24  1  0
 13 25  1  0
 16 26  1  0
 17 27  1  0
M  END
>  <UniqueID>  (28) 
26

>  <SMILES>  (28) 
O=S(=O)(NCc1cccs1)c1ccc(F)cc1

>  <Energy>  (28) 
49.56916491088762

>  <Genealogy>  (28) 
O=S(=O)(NCc1cccs1)c1ccc(F)cc1 (3D coordinates assigned)
O=S(=O)(NCc1cccs1)c1ccc(F)cc1 (optimized conformer: 49.56916491088762 kcal/mol)

>  <smiles>  (28) 
O=S(=O)(NCc1cccs1)c1ccc(F)cc1

>  <score_type>  (28) 
oracle

>  <origin>  (28) 
adgpu

>  <m_score__min__energy>  (28) 
-7.3799999999999999

>  <m_primary>  (28) 
energy

$$$$
28:0
     RDKit          3D

 35 36  0  0  0  0  0  0  0  0999 V2000
   -3.1760   23.7100  -30.5590 O   0  0  0  0  0  0  0  0  0  0  0  0
   -4.2540   24.2780  -30.8320 N   0  0  0  0  0  0  0  0  0  0  0  0
   -4.3010   25.6530  -30.8190 O   0  0  0  0  0  0  0  0  0  0  0  0
   -5.4270   23.5090  -31.1540 C   0  0  0  0  0  0  0  0  0  0  0  0
   -6.5280   23.4920  -30.2800 C   0  0  0  0  0  0  0  0  0  0  0  0
   -7.6680   22.7430  -30.5880 C   0  0  0  0  0  0  0  0  0  0  0  0
   -7.7270   22.0000  -31.7770 C   0  0  0  0  0  0  0  0  0  0  0  0
   -8.9290   21.1450  -32.0840 C   0  0  0  0  0  0  0  0  0  0  0  0
   -8.5470   19.9660  -32.8770 N   0  0  0  0  0  0  0  0  0  0  0  0
   -8.9550   18.7000  -32.2400 C   0  0  0  0  0  0  0  0  0  0  0  0
   -7.7210   17.9660  -31.7060 C   0  0  0  0  0  0  0  0  0  0  0  0
   -6.5040   18.3130  -32.5170 C   0  0  0  0  0  0  0  0  0  0  0  0
   -5.4600   19.0590  -31.9430 C   0  0  0  0  0  0  0  0  0  0  0  0
   -4.3130   19.3540  -32.6870 C   0  0  0  0  0  0  0  0  0  0  0  0
   -4.1970   18.8990  -34.0030 C   0  0  0  0  0  0  0  0  0  0  0  0
   -5.2240   18.1460  -34.5770 C   0  0  0  0  0  0  0  0  0  0  0  0
   -6.3720   17.8480  -33.8360 C   0  0  0  0  0  0  0  0  0  0  0  0
   -6.6320   22.0120  -32.6500 C   0  0  0  0  0  0  0  0  0  0  0  0
   -5.4920   22.7610  -32.3440 C   0  0  0  0  0  0  0  0  0  0  0  0
   -6.4924   24.0725  -29.3464 H   0  0  0  0  0  0  0  0  0  0  0  0
   -8.5223   22.7362  -29.8951 H   0  0  0  0  0  0  0  0  0  0  0  0
   -9.3843   20.8116  -31.1398 H   0  0  0  0  0  0  0  0  0  0  0  0
   -9.6455   21.7428  -32.6665 H   0  0  0  0  0  0  0  0  0  0  0  0
   -9.0390   20.0420  -33.7980 H   0  0  0  0  0  0  0  0  0  0  0  0
   -9.6409   18.9147  -31.4073 H   0  0  0  0  0  0  0  0  0  0  0  0
   -9.4610   18.0663  -32.9832 H   0  0  0  0  0  0  0  0  0  0  0  0
   -7.5524   18.2578  -30.6589 H   0  0  0  0  0  0  0  0  0  0  0  0
   -7.8960   16.8823  -31.7769 H   0  0  0  0  0  0  0  0  0  0  0  0
   -5.5454   19.4121  -30.9047 H   0  0  0  0  0  0  0  0  0  0  0  0
   -3.5019   19.9445  -32.2359 H   0  0  0  0  0  0  0  0  0  0  0  0
   -3.2956   19.1341  -34.5879 H   0  0  0  0  0  0  0  0  0  0  0  0
   -5.1297   17.7872  -35.6125 H   0  0  0  0  0  0  0  0  0  0  0  0
   -7.1749   17.2470  -34.2878 H   0  0  0  0  0  0  0  0  0  0  0  0
   -6.6692   21.4287  -33.5819 H   0  0  0  0  0  0  0  0  0  0  0  0
   -4.6393   22.7656  -33.0388 H   0  0  0  0  0  0  0  0  0  0  0  0
  1  2  2  0
  2  3  1  0
  2  4  1  0
  4  5  2  0
  5  6  1  0
  6  7  2  0
  7  8  1  0
  8  9  1  0
  9 10  1  0
 10 11  1  0
 11 12  1  0
 12 13  2  0
 13 14  1  0
 14 15  2  0
 15 16  1  0
 16 17  2  0
  7 18  1  0
 18 19  2  0
 19  4  1  0
 17 12  1  0
  5 20  1  0
  6 21  1  0
  8 22  1  0
  8 23  1  0
  9 24  1  0
 10 25  1  0
 10 26  1  0
 11 27  1  0
 11 28  1  0
 13 29  1  0
 14 30  1  0
 15 31  1  0
 16 32  1  0
 17 33  1  0
 18 34  1  0
 19 35  1  0
M  CHG  2   2   1   3  -1
M  END
>  <UniqueID>  (29) 
27

>  <SMILES>  (29) 
O=[N+]([O-])c1ccc(CNCCc2ccccc2)cc1

>  <Energy>  (29) 
33.17679274737913

>  <Genealogy>  (29) 
O=[N+]([O-])c1ccc(CNCCc2ccccc2)cc1 (3D coordinates assigned)
O=[N+]([O-])c1ccc(CNCCc2ccccc2)cc1 (optimized conformer: 33.17679274737913 kcal/mol)

>  <smiles>  (29) 
O=[N+]([O-])c1ccc(CNCCc2ccccc2)cc1

>  <score_type>  (29) 
oracle

>  <origin>  (29) 
adgpu

>  <m_score__min__energy>  (29) 
-8.3499999999999996

>  <m_primary>  (29) 
energy

$$$$
29:0
     RDKit          3D

 25 25  0  0  0  0  0  0  0  0999 V2000
   -3.9620   24.3350  -28.1810 C   0  0  0  0  0  0  0  0  0  0  0  0
   -4.5560   24.4710  -29.5450 C   0  0  0  0  0  0  0  0  0  0  0  0
   -3.8630   24.9550  -30.4810 O   0  0  0  0  0  0  0  0  0  0  0  0
   -5.9180   24.0860  -29.7720 N   0  0  0  0  0  0  0  0  0  0  0  0
   -6.5480   24.1690  -31.0880 C   0  0  0  0  0  0  0  0  0  0  0  0
   -7.1900   22.8550  -31.4420 C   0  0  0  0  0  0  0  0  0  0  0  0
   -8.5830   22.7740  -31.5960 C   0  0  0  0  0  0  0  0  0  0  0  0
   -9.1890   21.5520  -31.9040 C   0  0  0  0  0  0  0  0  0  0  0  0
   -8.4090   20.3970  -32.0690 C   0  0  0  0  0  0  0  0  0  0  0  0
   -9.0630   19.0790  -32.3600 C   0  0  0  0  0  0  0  0  0  0  0  0
   -7.0190   20.4720  -31.8920 C   0  0  0  0  0  0  0  0  0  0  0  0
   -6.4130   21.6940  -31.5850 C   0  0  0  0  0  0  0  0  0  0  0  0
   -4.7392   24.5130  -27.4232 H   0  0  0  0  0  0  0  0  0  0  0  0
   -3.5552   23.3205  -28.0577 H   0  0  0  0  0  0  0  0  0  0  0  0
   -3.1543   25.0714  -28.0577 H   0  0  0  0  0  0  0  0  0  0  0  0
   -6.4880   23.7390  -28.9680 H   0  0  0  0  0  0  0  0  0  0  0  0
   -7.3161   24.9563  -31.0739 H   0  0  0  0  0  0  0  0  0  0  0  0
   -5.7798   24.4063  -31.8387 H   0  0  0  0  0  0  0  0  0  0  0  0
   -9.2007   23.6760  -31.4738 H   0  0  0  0  0  0  0  0  0  0  0  0
  -10.2817   21.4958  -32.0174 H   0  0  0  0  0  0  0  0  0  0  0  0
   -9.3123   18.5765  -31.4138 H   0  0  0  0  0  0  0  0  0  0  0  0
   -9.9827   19.2461  -32.9398 H   0  0  0  0  0  0  0  0  0  0  0  0
   -8.3736   18.4477  -32.9398 H   0  0  0  0  0  0  0  0  0  0  0  0
   -6.4038   19.5660  -31.9952 H   0  0  0  0  0  0  0  0  0  0  0  0
   -5.3220   21.7463  -31.4548 H   0  0  0  0  0  0  0  0  0  0  0  0
  1  2  1  0
  2  3  2  0
  2  4  1  0
  4  5  1  0
  5  6  1  0
  6  7  2  0
  7  8  1  0
  8  9  2  0
  9 10  1  0
  9 11  1  0
 11 12  2  0
 12  6  1  0
  1 13  1  0
  1 14  1  0
  1 15  1  0
  4 16  1  0
  5 17  1  0
  5 18  1  0
  7 19  1  0
  8 20  1  0
 10 21  1  0
 10 22  1  0
 10 23  1  0
 11 24  1  0
 12 25  1  0
M  END
>  <UniqueID>  (30) 
28

>  <SMILES>  (30) 
CC(=O)NCc1ccc(C)cc1

>  <Energy>  (30) 
17.70587926510365

>  <Genealogy>  (30) 
CC(=O)NCc1ccc(C)cc1 (3D coordinates assigned)
CC(=O)NCc1ccc(C)cc1 (optimized conformer: 17.70587926510365 kcal/mol)

>  <smiles>  (30) 
CC(=O)NCc1ccc(C)cc1

>  <score_type>  (30) 
oracle

>  <origin>  (30) 
adgpu

>  <m_score__min__energy>  (30) 
-6.2999999999999998

>  <m_primary>  (30) 
energy

$$$$
30:0
     RDKit          3D

 32 35  0  0  0  0  0  0  0  0999 V2000
   -4.7300   17.7280  -34.8170 C   0  0  0  0  0  0  0  0  0  0  0  0
   -5.7470   18.5670  -34.3550 C   0  0  0  0  0  0  0  0  0  0  0  0
   -5.4450   19.6320  -33.5000 C   0  0  0  0  0  0  0  0  0  0  0  0
   -4.1160   19.8680  -33.0990 C   0  0  0  0  0  0  0  0  0  0  0  0
   -3.7820   20.9920  -32.1940 C   0  0  0  0  0  0  0  0  0  0  0  0
   -4.6630   21.9580  -31.8500 N   0  0  0  0  0  0  0  0  0  0  0  0
   -4.1320   22.8890  -31.0090 C   0  0  0  0  0  0  0  0  0  0  0  0
   -4.9400   24.0490  -30.5870 C   0  0  0  0  0  0  0  0  0  0  0  0
   -6.1330   23.9800  -29.8920 C   0  0  0  0  0  0  0  0  0  0  0  0
   -6.5530   25.2830  -29.7380 C   0  0  0  0  0  0  0  0  0  0  0  0
   -5.5980   26.0660  -30.3520 C   0  0  0  0  0  0  0  0  0  0  0  0
   -4.6540   25.3030  -30.8510 O   0  0  0  0  0  0  0  0  0  0  0  0
   -2.7900   22.6580  -30.6640 C   0  0  0  0  0  0  0  0  0  0  0  0
   -1.9400   23.4020  -29.7140 C   0  0  0  0  0  0  0  0  0  0  0  0
   -0.8960   22.8670  -28.9830 C   0  0  0  0  0  0  0  0  0  0  0  0
   -0.4060   23.9010  -28.2170 C   0  0  0  0  0  0  0  0  0  0  0  0
   -1.1820   25.0010  -28.5180 C   0  0  0  0  0  0  0  0  0  0  0  0
   -2.0870   24.6710  -29.4100 O   0  0  0  0  0  0  0  0  0  0  0  0
   -2.2930   21.2600  -31.4590 S   0  0  0  0  0  0  0  0  0  0  0  0
   -3.1010   19.0160  -33.5720 C   0  0  0  0  0  0  0  0  0  0  0  0
   -3.4090   17.9520  -34.4260 C   0  0  0  0  0  0  0  0  0  0  0  0
   -4.9703   16.8909  -35.4889 H   0  0  0  0  0  0  0  0  0  0  0  0
   -6.7876   18.3897  -34.6643 H   0  0  0  0  0  0  0  0  0  0  0  0
   -6.2501   20.2888  -33.1389 H   0  0  0  0  0  0  0  0  0  0  0  0
   -6.6418   23.0722  -29.5356 H   0  0  0  0  0  0  0  0  0  0  0  0
   -7.4647   25.6286  -29.2288 H   0  0  0  0  0  0  0  0  0  0  0  0
   -5.6237   27.1639  -30.4141 H   0  0  0  0  0  0  0  0  0  0  0  0
   -0.5318   21.8294  -29.0080 H   0  0  0  0  0  0  0  0  0  0  0  0
    0.4343   23.8584  -27.5084 H   0  0  0  0  0  0  0  0  0  0  0  0
   -1.0610   26.0018  -28.0779 H   0  0  0  0  0  0  0  0  0  0  0  0
   -2.0579   19.1879  -33.2680 H   0  0  0  0  0  0  0  0  0  0  0  0
   -2.6089   17.2907  -34.7900 H   0  0  0  0  0  0  0  0  0  0  0  0
  1  2  2  0
  2  3  1  0
  3  4  2  0
  4  5  1  0
  5  6  2  0
  6  7  1  0
  7  8  1  0
  8  9  2  0
  9 10  1  0
 10 11  2  0
 11 12  1  0
  7 13  2  0
 13 14  1  0
 14 15  2  0
 15 16  1  0
 16 17  2  0
 17 18  1  0
 13 19  1  0
  4 20  1  0
 20 21  2  0
 21  1  1  0
 19  5  1  0
 12  8  1  0
 18 14  1  0
  1 22  1  0
  2 23  1  0
  3 24  1  0
  9 25  1  0
 10 26  1  0
 11 27  1  0
 15 28  1  0
 16 29  1  0
 17 30  1  0
 20 31  1  0
 21 32  1  0
M  END
>  <UniqueID>  (31) 
29

>  <SMILES>  (31) 
c1ccc(-c2nc(-c3ccco3)c(-c3ccco3)s2)cc1

>  <Energy>  (31) 
121.9044456402061

>  <Genealogy>  (31) 
c1ccc(-c2nc(-c3ccco3)c(-c3ccco3)s2)cc1 (3D coordinates assigned)
c1ccc(-c2nc(-c3ccco3)c(-c3ccco3)s2)cc1 (optimized conformer: 121.9044456402061 kcal/mol)

>  <smiles>  (31) 
c1ccc(-c2nc(-c3ccco3)c(-c3ccco3)s2)cc1

>  <score_type>  (31) 
oracle

>  <origin>  (31) 
adgpu

>  <m_score__min__energy>  (31) 
-7.7300000000000004

>  <m_primary>  (31) 
energy

$$$$
31:0
     RDKit          3D

 34 36  0  0  0  0  0  0  0  0999 V2000
   -3.8690   25.3360  -30.4550 O   0  0  0  0  0  0  0  0  0  0  0  0
   -3.3490   24.1950  -30.3230 C   0  0  0  0  0  0  0  0  0  0  0  0
   -3.7870   23.1030  -31.1380 N   0  0  0  0  0  0  0  0  0  0  0  0
   -5.1510   22.7430  -31.3990 C   0  0  0  0  0  0  0  0  0  0  0  0
   -6.1460   23.7210  -31.2550 C   0  0  0  0  0  0  0  0  0  0  0  0
   -7.4840   23.4130  -31.5230 C   0  0  0  0  0  0  0  0  0  0  0  0
   -7.8350   22.1310  -31.9520 C   0  0  0  0  0  0  0  0  0  0  0  0
   -6.8480   21.1570  -32.1220 C   0  0  0  0  0  0  0  0  0  0  0  0
   -5.5090   21.4600  -31.8540 C   0  0  0  0  0  0  0  0  0  0  0  0
   -2.2420   23.9980  -29.3700 C   0  0  0  0  0  0  0  0  0  0  0  0
   -1.4940   24.9810  -28.7580 C   0  0  0  0  0  0  0  0  0  0  0  0
   -1.5960   26.3510  -28.9660 O   0  0  0  0  0  0  0  0  0  0  0  0
   -0.6410   24.3620  -27.8710 C   0  0  0  0  0  0  0  0  0  0  0  0
   -0.8360   23.0630  -27.9270 O   0  0  0  0  0  0  0  0  0  0  0  0
   -1.7700   22.8120  -28.8190 C   0  0  0  0  0  0  0  0  0  0  0  0
   -2.2030   21.4820  -29.1350 N   0  0  0  0  0  0  0  0  0  0  0  0
   -1.8860   20.3220  -28.3470 C   0  0  0  0  0  0  0  0  0  0  0  0
   -2.7450   19.9450  -27.3020 C   0  0  0  0  0  0  0  0  0  0  0  0
   -2.4590   18.8170  -26.5250 C   0  0  0  0  0  0  0  0  0  0  0  0
   -1.3090   18.0650  -26.7760 C   0  0  0  0  0  0  0  0  0  0  0  0
   -0.4370   18.4450  -27.8000 C   0  0  0  0  0  0  0  0  0  0  0  0
   -0.7170   19.5720  -28.5790 C   0  0  0  0  0  0  0  0  0  0  0  0
   -5.8728   24.7356  -30.9296 H   0  0  0  0  0  0  0  0  0  0  0  0
   -8.2607   24.1815  -31.3957 H   0  0  0  0  0  0  0  0  0  0  0  0
   -8.8883   21.8883  -32.1560 H   0  0  0  0  0  0  0  0  0  0  0  0
   -7.1244   20.1498  -32.4673 H   0  0  0  0  0  0  0  0  0  0  0  0
   -4.7336   20.6934  -31.9992 H   0  0  0  0  0  0  0  0  0  0  0  0
    0.0855   24.8719  -27.2212 H   0  0  0  0  0  0  0  0  0  0  0  0
   -2.8730   21.3740  -29.9300 H   0  0  0  0  0  0  0  0  0  0  0  0
   -3.6469   20.5392  -27.0933 H   0  0  0  0  0  0  0  0  0  0  0  0
   -3.1415   18.5217  -25.7145 H   0  0  0  0  0  0  0  0  0  0  0  0
   -1.0899   17.1746  -26.1684 H   0  0  0  0  0  0  0  0  0  0  0  0
    0.4717   17.8561  -27.9936 H   0  0  0  0  0  0  0  0  0  0  0  0
   -0.0215   19.8738  -29.3760 H   0  0  0  0  0  0  0  0  0  0  0  0
  1  2  2  0
  2  3  1  0
  3  4  1  0
  4  5  2  0
  5  6  1  0
  6  7  2  0
  7  8  1  0
  8  9  2  0
  2 10  1  0
 10 11  1  0
 11 12  1  0
 11 13  2  0
 13 14  1  0
 14 15  1  0
 15 16  1  0
 16 17  1  0
 17 18  2  0
 18 19  1  0
 19 20  2  0
 20 21  1  0
 21 22  2  0
  9  4  1  0
 15 10  2  0
 22 17  1  0
  5 23  1  0
  6 24  1  0
  7 25  1  0
  8 26  1  0
  9 27  1  0
 13 28  1  0
 16 29  1  0
 18 30  1  0
 19 31  1  0
 20 32  1  0
 21 33  1  0
 22 34  1  0
M  CHG  2   3  -1  12  -1
M  END
>  <UniqueID>  (32) 
30

>  <SMILES>  (32) 
O=C([N-]c1ccccc1)c1c([O-])coc1Nc1ccccc1

>  <Energy>  (32) 
75.21217454727369

>  <Genealogy>  (32) 
O=C([N-]c1ccccc1)c1c([O-])coc1Nc1ccccc1 (protonated)
O=C([N-]c1ccccc1)c1c([O-])coc1Nc1ccccc1 (3D coordinates assigned)
O=C([N-]c1ccccc1)c1c([O-])coc1Nc1ccccc1 (optimized conformer: 75.21217454727369 kcal/mol)

>  <smiles>  (32) 
O=C(Nc1ccccc1)c1c(O)coc1Nc1ccccc1

>  <score_type>  (32) 
oracle

>  <origin>  (32) 
adgpu

>  <m_score__min__energy>  (32) 
-10.82

>  <m_primary>  (32) 
energy

$$$$
32:0
     RDKit          3D

 32 34  0  0  0  0  0  0  0  0999 V2000
    3.5881   14.0963  -28.6493 H   0  0  0  0  0  0  0  0  0  0  0  0
    2.8360   14.8500  -28.3730 C   0  0  0  0  0  0  0  0  0  0  0  0
    1.9460   15.3350  -29.3350 C   0  0  0  0  0  0  0  0  0  0  0  0
    2.0039   14.9700  -30.3710 H   0  0  0  0  0  0  0  0  0  0  0  0
    0.9810   16.2850  -28.9810 C   0  0  0  0  0  0  0  0  0  0  0  0
    0.2926   16.6754  -29.7450 H   0  0  0  0  0  0  0  0  0  0  0  0
    0.8860   16.7420  -27.6600 C   0  0  0  0  0  0  0  0  0  0  0  0
   -0.1000   17.7400  -27.3480 N   0  0  0  0  0  0  0  0  0  0  0  0
   -0.4030   18.7820  -28.0650 C   0  0  0  0  0  0  0  0  0  0  0  0
    0.2380   19.1460  -29.1970 N   0  0  0  0  0  0  0  0  0  0  0  0
   -0.2350   20.2760  -29.7210 N   0  0  0  0  0  0  0  0  0  0  0  0
   -1.2480   20.8250  -29.0080 C   0  0  0  0  0  0  0  0  0  0  0  0
   -1.9310   22.0830  -29.3920 C   0  0  0  0  0  0  0  0  0  0  0  0
   -3.0980   22.0590  -30.1740 C   0  0  0  0  0  0  0  0  0  0  0  0
   -3.5134   21.0965  -30.5071 H   0  0  0  0  0  0  0  0  0  0  0  0
   -3.7340   23.2510  -30.5310 C   0  0  0  0  0  0  0  0  0  0  0  0
   -4.6468   23.2223  -31.1441 H   0  0  0  0  0  0  0  0  0  0  0  0
   -3.2160   24.4780  -30.1130 C   0  0  0  0  0  0  0  0  0  0  0  0
   -3.8610   25.6550  -30.4770 O   0  0  0  0  0  0  0  0  0  0  0  0
   -2.0540   24.5270  -29.3330 C   0  0  0  0  0  0  0  0  0  0  0  0
   -1.5680   25.7820  -28.9350 O   0  0  0  0  0  0  0  0  0  0  0  0
   -0.8810   26.0310  -27.7120 C   0  0  0  0  0  0  0  0  0  0  0  0
   -1.5412   25.7917  -26.8653 H   0  0  0  0  0  0  0  0  0  0  0  0
    0.0204   25.4024  -27.6632 H   0  0  0  0  0  0  0  0  0  0  0  0
   -0.5917   27.0912  -27.6632 H   0  0  0  0  0  0  0  0  0  0  0  0
   -1.4140   23.3240  -28.9750 C   0  0  0  0  0  0  0  0  0  0  0  0
   -0.5005   23.3549  -28.3630 H   0  0  0  0  0  0  0  0  0  0  0  0
   -1.5980   19.8840  -27.6460 S   0  0  0  0  0  0  0  0  0  0  0  0
    1.8070   16.2710  -26.7020 C   0  0  0  0  0  0  0  0  0  0  0  0
    1.7677   16.6504  -25.6703 H   0  0  0  0  0  0  0  0  0  0  0  0
    2.7700   15.3230  -27.0600 C   0  0  0  0  0  0  0  0  0  0  0  0
    3.4778   14.9484  -26.3059 H   0  0  0  0  0  0  0  0  0  0  0  0
  1  2  1  0
  2  3  2  0
  3  4  1  0
  3  5  1  0
  5  6  1  0
  5  7  2  0
  7  8  1  0
  8  9  2  0
  9 10  1  0
 10 11  1  0
 11 12  2  0
 12 13  1  0
 13 14  2  0
 14 15  1  0
 14 16  1  0
 16 17  1  0
 16 18  2  0
 18 19  1  0
 18 20  1  0
 20 21  1  0
 21 22  1  0
 22 23  1  0
 22 24  1  0
 22 25  1  0
 20 26  2  0
 26 27  1  0
 12 28  1  0
  7 29  1  0
 29 30  1  0
 29 31  2  0
 31 32  1  0
 31  2  1  0
 28  9  1  0
 26 13  1  0
M  CHG  2  10  -1  19  -1
M  END
>  <UniqueID>  (33) 
31

>  <SMILES>  (33) 
COc1cc(-c2n[n-]/c(=N\c3ccccc3)s2)ccc1[O-]

>  <Energy>  (33) 
75.66367176185062

>  <Genealogy>  (33) 
COc1cc(-c2n[n-]c(=Nc3ccccc3)s2)ccc1[O-] (protonated)
COc1cc(-c2n[n-]/c(=N\c3ccccc3)s2)ccc1[O-] (cis-trans isomerization)
COc1cc(-c2n[n-]/c(=N\c3ccccc3)s2)ccc1[O-] (3D coordinates assigned)
COc1cc(-c2n[n-]/c(=N\c3ccccc3)s2)ccc1[O-] (optimized conformer: 75.66367176185062 kcal/mol)

>  <smiles>  (33) 
COc1cc(-c2n[nH]c(=Nc3ccccc3)s2)ccc1O

>  <score_type>  (33) 
oracle

>  <origin>  (33) 
adgpu

>  <m_score__min__energy>  (33) 
-9.4100000000000001

>  <m_primary>  (33) 
energy

$$$$
33:0
     RDKit          3D

 19 20  0  0  0  0  0  0  0  0999 V2000
   -1.8680   25.6680  -29.2850 O   0  0  0  0  0  0  0  0  0  0  0  0
   -2.5950   24.4870  -29.3710 C   0  0  0  0  0  0  0  0  0  0  0  0
   -2.1480   23.3450  -28.6990 C   0  0  0  0  0  0  0  0  0  0  0  0
   -2.8720   22.1420  -28.7760 C   0  0  0  0  0  0  0  0  0  0  0  0
   -2.3800   20.9460  -28.0550 C   0  0  0  0  0  0  0  0  0  0  0  0
   -1.1410   20.3430  -28.1510 C   0  0  0  0  0  0  0  0  0  0  0  0
   -1.1070   19.2820  -27.3230 N   0  0  0  0  0  0  0  0  0  0  0  0
   -2.3300   19.2810  -26.7540 C   0  0  0  0  0  0  0  0  0  0  0  0
   -3.0860   20.2650  -27.1850 O   0  0  0  0  0  0  0  0  0  0  0  0
   -4.0520   22.1040  -29.5400 C   0  0  0  0  0  0  0  0  0  0  0  0
   -4.4970   23.2460  -30.2120 C   0  0  0  0  0  0  0  0  0  0  0  0
   -3.7710   24.4400  -30.1310 C   0  0  0  0  0  0  0  0  0  0  0  0
   -4.2090   25.5830  -30.7980 O   0  0  0  0  0  0  0  0  0  0  0  0
   -1.2228   23.3881  -28.1055 H   0  0  0  0  0  0  0  0  0  0  0  0
   -0.3163   20.6756  -28.7986 H   0  0  0  0  0  0  0  0  0  0  0  0
   -2.6579   18.5386  -26.0115 H   0  0  0  0  0  0  0  0  0  0  0  0
   -4.6284   21.1697  -29.6092 H   0  0  0  0  0  0  0  0  0  0  0  0
   -5.4214   23.2062  -30.8069 H   0  0  0  0  0  0  0  0  0  0  0  0
   -3.8600   26.5030  -30.5580 H   0  0  0  0  0  0  0  0  0  0  0  0
  1  2  1  0
  2  3  2  0
  3  4  1  0
  4  5  1  0
  5  6  2  0
  6  7  1  0
  7  8  2  0
  8  9  1  0
  4 10  2  0
 10 11  1  0
 11 12  2  0
 12 13  1  0
 12  2  1  0
  9  5  1  0
  3 14  1  0
  6 15  1  0
  8 16  1  0
 10 17  1  0
 11 18  1  0
 13 19  1  0
M  CHG  1   1  -1
M  END
>  <UniqueID>  (34) 
32

>  <SMILES>  (34) 
[O-]c1cc(-c2cnco2)ccc1O

>  <Energy>  (34) 
50.14737061955842

>  <Genealogy>  (34) 
[O-]c1cc(-c2cnco2)ccc1O (protonated)
[O-]c1cc(-c2cnco2)ccc1O (3D coordinates assigned)
[O-]c1cc(-c2cnco2)ccc1O (optimized conformer: 50.14737061955842 kcal/mol)

>  <smiles>  (34) 
Oc1ccc(-c2cnco2)cc1O

>  <score_type>  (34) 
oracle

>  <origin>  (34) 
adgpu

>  <m_score__min__energy>  (34) 
-8.8300000000000001

>  <m_primary>  (34) 
energy

$$$$
34:0
     RDKit          3D

 30 31  0  0  0  0  0  0  0  0999 V2000
   -3.1660   24.5580  -27.3410 C   0  0  0  0  0  0  0  0  0  0  0  0
   -3.7930   24.3800  -28.6850 C   0  0  0  0  0  0  0  0  0  0  0  0
   -3.2170   24.8510  -29.7020 O   0  0  0  0  0  0  0  0  0  0  0  0
   -4.9890   23.5970  -28.8160 N   0  0  0  0  0  0  0  0  0  0  0  0
   -5.7680   23.5100  -30.0210 C   0  0  0  0  0  0  0  0  0  0  0  0
   -5.4330   24.2520  -31.1700 C   0  0  0  0  0  0  0  0  0  0  0  0
   -6.2210   24.1650  -32.3210 C   0  0  0  0  0  0  0  0  0  0  0  0
   -7.3540   23.3480  -32.3360 C   0  0  0  0  0  0  0  0  0  0  0  0
   -7.7070   22.6200  -31.1940 C   0  0  0  0  0  0  0  0  0  0  0  0
   -9.1640   21.5750  -31.2120 S   0  0  0  0  0  0  0  0  0  0  0  0
   -8.2750   20.1930  -31.9280 C   0  0  0  0  0  0  0  0  0  0  0  0
   -7.2380   20.4220  -32.8410 C   0  0  0  0  0  0  0  0  0  0  0  0
   -6.5480   19.3430  -33.4040 C   0  0  0  0  0  0  0  0  0  0  0  0
   -6.8920   18.0330  -33.0540 C   0  0  0  0  0  0  0  0  0  0  0  0
   -6.0290   16.6800  -33.7620 Cl  0  0  0  0  0  0  0  0  0  0  0  0
   -7.9260   17.8020  -32.1380 C   0  0  0  0  0  0  0  0  0  0  0  0
   -8.6150   18.8810  -31.5750 C   0  0  0  0  0  0  0  0  0  0  0  0
   -6.9220   22.7110  -30.0380 C   0  0  0  0  0  0  0  0  0  0  0  0
   -3.9098   24.3468  -26.5586 H   0  0  0  0  0  0  0  0  0  0  0  0
   -2.3180   23.8651  -27.2373 H   0  0  0  0  0  0  0  0  0  0  0  0
   -2.8085   25.5931  -27.2373 H   0  0  0  0  0  0  0  0  0  0  0  0
   -5.2620   22.9880  -28.0110 H   0  0  0  0  0  0  0  0  0  0  0  0
   -4.5466   24.9034  -31.1616 H   0  0  0  0  0  0  0  0  0  0  0  0
   -5.9483   24.7413  -33.2174 H   0  0  0  0  0  0  0  0  0  0  0  0
   -7.9687   23.2768  -33.2454 H   0  0  0  0  0  0  0  0  0  0  0  0
   -6.9656   21.4517  -33.1158 H   0  0  0  0  0  0  0  0  0  0  0  0
   -5.7348   19.5248  -34.1221 H   0  0  0  0  0  0  0  0  0  0  0  0
   -8.1961   16.7722  -31.8615 H   0  0  0  0  0  0  0  0  0  0  0  0
   -9.4253   18.6989  -30.8537 H   0  0  0  0  0  0  0  0  0  0  0  0
   -7.2120   22.1519  -29.1361 H   0  0  0  0  0  0  0  0  0  0  0  0
  1  2  1  0
  2  3  2  0
  2  4  1  0
  4  5  1  0
  5  6  2  0
  6  7  1  0
  7  8  2  0
  8  9  1  0
  9 10  1  0
 10 11  1  0
 11 12  2  0
 12 13  1  0
 13 14  2  0
 14 15  1  0
 14 16  1  0
 16 17  2  0
  9 18  2  0
 18  5  1  0
 17 11  1  0
  1 19  1  0
  1 20  1  0
  1 21  1  0
  4 22  1  0
  6 23  1  0
  7 24  1  0
  8 25  1  0
 12 26  1  0
 13 27  1  0
 16 28  1  0
 17 29  1  0
 18 30  1  0
M  END
>  <UniqueID>  (35) 
33

>  <SMILES>  (35) 
CC(=O)Nc1cccc(Sc2ccc(Cl)cc2)c1

>  <Energy>  (35) 
27.16515104808674

>  <Genealogy>  (35) 
CC(=O)Nc1cccc(Sc2ccc(Cl)cc2)c1 (3D coordinates assigned)
CC(=O)Nc1cccc(Sc2ccc(Cl)cc2)c1 (optimized conformer: 27.16515104808674 kcal/mol)

>  <smiles>  (35) 
CC(=O)Nc1cccc(Sc2ccc(Cl)cc2)c1

>  <score_type>  (35) 
oracle

>  <origin>  (35) 
adgpu

>  <m_score__min__energy>  (35) 
-8.1199999999999992

>  <m_primary>  (35) 
energy

$$$$
35:0
     RDKit          3D

 51 54  0  0  0  0  0  0  0  0999 V2000
   -2.9670   24.1860  -29.6850 C   0  0  0  0  0  0  0  0  0  0  0  0
   -3.8700   24.4490  -30.7550 O   0  0  0  0  0  0  0  0  0  0  0  0
   -5.0310   23.7040  -31.0110 C   0  0  0  0  0  0  0  0  0  0  0  0
   -4.8970   22.3380  -31.2810 C   0  0  0  0  0  0  0  0  0  0  0  0
   -6.0230   21.5520  -31.5400 C   0  0  0  0  0  0  0  0  0  0  0  0
   -7.3000   22.1250  -31.5300 C   0  0  0  0  0  0  0  0  0  0  0  0
   -8.7150   21.1260  -31.8450 S   0  0  0  0  0  0  0  0  0  0  0  0
   -9.8510   22.0160  -32.2620 O   0  0  0  0  0  0  0  0  0  0  0  0
   -9.1170   20.3660  -30.6110 O   0  0  0  0  0  0  0  0  0  0  0  0
   -8.3730   19.9980  -33.1190 N   0  0  0  0  0  0  0  0  0  0  0  0
   -7.2650   19.0790  -33.1030 C   0  0  0  0  0  0  0  0  0  0  0  0
   -7.2850   17.8930  -32.3180 C   0  0  0  0  0  0  0  0  0  0  0  0
   -6.1890   17.0130  -32.3150 C   0  0  0  0  0  0  0  0  0  0  0  0
   -5.0890   17.3430  -33.1060 C   0  0  0  0  0  0  0  0  0  0  0  0
   -5.0660   18.4700  -33.8710 C   0  0  0  0  0  0  0  0  0  0  0  0
   -6.1320   19.3640  -33.8990 C   0  0  0  0  0  0  0  0  0  0  0  0
   -3.9160   18.5490  -34.5640 N   0  0  0  0  0  0  0  0  0  0  0  0
   -3.2550   17.4210  -34.1920 C   0  0  0  0  0  0  0  0  0  0  0  0
   -1.8940   17.0700  -34.7220 C   0  0  0  0  0  0  0  0  0  0  0  0
   -0.9330   18.0630  -34.3640 O   0  0  0  0  0  0  0  0  0  0  0  0
   -1.1630   19.1230  -33.4710 C   0  0  0  0  0  0  0  0  0  0  0  0
   -1.5040   20.3750  -34.0010 C   0  0  0  0  0  0  0  0  0  0  0  0
   -1.7410   21.4640  -33.1570 C   0  0  0  0  0  0  0  0  0  0  0  0
   -1.6380   21.3090  -31.7720 C   0  0  0  0  0  0  0  0  0  0  0  0
   -1.3000   20.0670  -31.2300 C   0  0  0  0  0  0  0  0  0  0  0  0
   -1.0640   18.9750  -32.0720 C   0  0  0  0  0  0  0  0  0  0  0  0
   -3.9340   16.6760  -33.2780 N   0  0  0  0  0  0  0  0  0  0  0  0
   -3.5510   15.3850  -32.7090 C   0  0  0  0  0  0  0  0  0  0  0  0
   -7.4420   23.4940  -31.2660 C   0  0  0  0  0  0  0  0  0  0  0  0
   -6.3160   24.2810  -31.0060 C   0  0  0  0  0  0  0  0  0  0  0  0
   -3.4825   24.3361  -28.7249 H   0  0  0  0  0  0  0  0  0  0  0  0
   -2.6118   23.1471  -29.7519 H   0  0  0  0  0  0  0  0  0  0  0  0
   -2.1095   24.8717  -29.7519 H   0  0  0  0  0  0  0  0  0  0  0  0
   -3.8974   21.8789  -31.2895 H   0  0  0  0  0  0  0  0  0  0  0  0
   -5.9054   20.4791  -31.7525 H   0  0  0  0  0  0  0  0  0  0  0  0
   -8.9740   20.0520  -33.9720 H   0  0  0  0  0  0  0  0  0  0  0  0
   -8.1691   17.6617  -31.7057 H   0  0  0  0  0  0  0  0  0  0  0  0
   -6.1986   16.0950  -31.7091 H   0  0  0  0  0  0  0  0  0  0  0  0
   -6.0941   20.2685  -34.5239 H   0  0  0  0  0  0  0  0  0  0  0  0
   -1.5836   16.1016  -34.3027 H   0  0  0  0  0  0  0  0  0  0  0  0
   -1.9490   17.0155  -35.8193 H   0  0  0  0  0  0  0  0  0  0  0  0
   -1.5858   20.5018  -35.0906 H   0  0  0  0  0  0  0  0  0  0  0  0
   -2.0084   22.4423  -33.5829 H   0  0  0  0  0  0  0  0  0  0  0  0
   -1.8233   22.1661  -31.1080 H   0  0  0  0  0  0  0  0  0  0  0  0
   -1.2192   19.9472  -30.1395 H   0  0  0  0  0  0  0  0  0  0  0  0
   -0.8003   17.9977  -31.6414 H   0  0  0  0  0  0  0  0  0  0  0  0
   -3.5697   15.4482  -31.6110 H   0  0  0  0  0  0  0  0  0  0  0  0
   -4.2586   14.6123  -33.0439 H   0  0  0  0  0  0  0  0  0  0  0  0
   -2.5365   15.1231  -33.0439 H   0  0  0  0  0  0  0  0  0  0  0  0
   -8.4426   23.9509  -31.2633 H   0  0  0  0  0  0  0  0  0  0  0  0
   -6.4340   25.3545  -30.7968 H   0  0  0  0  0  0  0  0  0  0  0  0
  1  2  1  0
  2  3  1  0
  3  4  2  0
  4  5  1  0
  5  6  2  0
  6  7  1  0
  7  8  2  0
  7  9  2  0
  7 10  1  0
 10 11  1  0
 11 12  2  0
 12 13  1  0
 13 14  2  0
 14 15  1  0
 15 16  2  0
 15 17  1  0
 17 18  2  0
 18 19  1  0
 19 20  1  0
 20 21  1  0
 21 22  2  0
 22 23  1  0
 23 24  2  0
 24 25  1  0
 25 26  2  0
 18 27  1  0
 27 28  1  0
  6 29  1  0
 29 30  2  0
 30  3  1  0
 16 11  1  0
 26 21  1  0
 27 14  1  0
  1 31  1  0
  1 32  1  0
  1 33  1  0
  4 34  1  0
  5 35  1  0
 10 36  1  0
 12 37  1  0
 13 38  1  0
 16 39  1  0
 19 40  1  0
 19 41  1  0
 22 42  1  0
 23 43  1  0
 24 44  1  0
 25 45  1  0
 26 46  1  0
 28 47  1  0
 28 48  1  0
 28 49  1  0
 29 50  1  0
 30 51  1  0
M  END
>  <UniqueID>  (36) 
34

>  <SMILES>  (36) 
COc1ccc(S(=O)(=O)Nc2ccc3c(c2)nc(COc2ccccc2)n3C)cc1

>  <Energy>  (36) 
93.84523340239387

>  <Genealogy>  (36) 
COc1ccc(S(=O)(=O)Nc2ccc3c(c2)nc(COc2ccccc2)n3C)cc1 (3D coordinates assigned)
COc1ccc(S(=O)(=O)Nc2ccc3c(c2)nc(COc2ccccc2)n3C)cc1 (optimized conformer: 93.84523340239387 kcal/mol)

>  <smiles>  (36) 
COc1ccc(S(=O)(=O)Nc2ccc3c(c2)nc(COc2ccccc2)n3C)cc1

>  <score_type>  (36) 
oracle

>  <origin>  (36) 
adgpu

>  <m_score__min__energy>  (36) 
-9.0600000000000005

>  <m_primary>  (36) 
energy

$$$$
36:0
     RDKit          3D

 28 30  0  0  0  0  0  0  0  0999 V2000
   -9.1130   20.2270  -30.6850 O   0  0  0  0  0  0  0  0  0  0  0  0
   -8.5460   20.7650  -31.9680 S   0  0  0  0  0  0  0  0  0  0  0  0
   -9.5640   21.6160  -32.6730 O   0  0  0  0  0  0  0  0  0  0  0  0
   -8.0770   19.4640  -32.9960 N   0  0  0  0  0  0  0  0  0  0  0  0
   -6.8280   19.1470  -33.1950 C   0  0  0  0  0  0  0  0  0  0  0  0
   -6.4870   17.9840  -34.0870 C   0  0  0  0  0  0  0  0  0  0  0  0
   -5.1770   18.2810  -34.8250 C   0  0  0  0  0  0  0  0  0  0  0  0
   -4.0120   18.6410  -33.8770 C   0  0  0  0  0  0  0  0  0  0  0  0
   -4.4560   19.1100  -32.4790 C   0  0  0  0  0  0  0  0  0  0  0  0
   -5.7350   19.8360  -32.5380 N   0  0  0  0  0  0  0  0  0  0  0  0
   -5.8600   21.1560  -31.9540 C   0  0  0  0  0  0  0  0  0  0  0  0
   -4.7430   21.8930  -31.6890 N   0  0  0  0  0  0  0  0  0  0  0  0
   -4.8040   23.1360  -31.1390 C   0  0  0  0  0  0  0  0  0  0  0  0
   -6.0410   23.6990  -30.8210 C   0  0  0  0  0  0  0  0  0  0  0  0
   -6.1320   25.2980  -30.1080 Cl  0  0  0  0  0  0  0  0  0  0  0  0
   -7.2040   22.9720  -31.0770 C   0  0  0  0  0  0  0  0  0  0  0  0
   -7.1150   21.6980  -31.6480 C   0  0  0  0  0  0  0  0  0  0  0  0
   -8.8400   18.9240  -33.4630 H   0  0  0  0  0  0  0  0  0  0  0  0
   -6.3682   17.0758  -33.4779 H   0  0  0  0  0  0  0  0  0  0  0  0
   -7.2951   17.8292  -34.8170 H   0  0  0  0  0  0  0  0  0  0  0  0
   -4.8931   17.3906  -35.4052 H   0  0  0  0  0  0  0  0  0  0  0  0
   -5.3558   19.1546  -35.4691 H   0  0  0  0  0  0  0  0  0  0  0  0
   -3.3778   17.7504  -33.7565 H   0  0  0  0  0  0  0  0  0  0  0  0
   -3.4790   19.4853  -34.3386 H   0  0  0  0  0  0  0  0  0  0  0  0
   -4.5726   18.2318  -31.8270 H   0  0  0  0  0  0  0  0  0  0  0  0
   -3.6889   19.7912  -32.0822 H   0  0  0  0  0  0  0  0  0  0  0  0
   -3.8782   23.6974  -30.9449 H   0  0  0  0  0  0  0  0  0  0  0  0
   -8.1874   23.3990  -30.8307 H   0  0  0  0  0  0  0  0  0  0  0  0
  1  2  2  0
  2  3  2  0
  2  4  1  0
  4  5  2  0
  5  6  1  0
  6  7  1  0
  7  8  1  0
  8  9  1  0
  9 10  1  0
 10 11  1  0
 11 12  2  0
 12 13  1  0
 13 14  2  0
 14 15  1  0
 14 16  1  0
 16 17  2  0
 17  2  1  0
 10  5  1  0
 17 11  1  0
  4 18  1  0
  6 19  1  0
  6 20  1  0
  7 21  1  0
  7 22  1  0
  8 23  1  0
  8 24  1  0
  9 25  1  0
  9 26  1  0
 13 27  1  0
 16 28  1  0
M  CHG  1   4   1
M  END
>  <UniqueID>  (37) 
35

>  <SMILES>  (37) 
O=S1(=O)[NH+]=C2CCCCN2c2ncc(Cl)cc21

>  <Energy>  (37) 
40.232447252355094

>  <Genealogy>  (37) 
O=S1(=O)[NH+]=C2CCCCN2c2ncc(Cl)cc21 (protonated)
O=S1(=O)[NH+]=C2CCCCN2c2ncc(Cl)cc21 (3D coordinates assigned)
O=S1(=O)[NH+]=C2CCCCN2c2ncc(Cl)cc21 (nonaromatic ring conformer: 40.232447252355094 kcal/mol)

>  <smiles>  (37) 
O=S1(=O)N=C2CCCCN2c2ncc(Cl)cc21

>  <score_type>  (37) 
oracle

>  <origin>  (37) 
adgpu

>  <m_score__min__energy>  (37) 
-6.8499999999999996

>  <m_primary>  (37) 
energy

$$$$
37:0
     RDKit          3D

 34 35  0  0  0  0  0  0  0  0999 V2000
   -4.2530   20.7750  -31.6510 C   0  0  0  0  0  0  0  0  0  0  0  0
   -5.2970   21.8520  -31.5280 C   0  0  0  0  0  0  0  0  0  0  0  0
   -6.3740   21.8810  -32.4280 C   0  0  0  0  0  0  0  0  0  0  0  0
   -7.3550   22.8670  -32.3230 C   0  0  0  0  0  0  0  0  0  0  0  0
   -7.2640   23.8440  -31.3320 C   0  0  0  0  0  0  0  0  0  0  0  0
   -6.1830   23.8530  -30.4370 C   0  0  0  0  0  0  0  0  0  0  0  0
   -6.1040   24.9390  -29.3980 C   0  0  0  0  0  0  0  0  0  0  0  0
   -5.2050   22.8330  -30.5170 C   0  0  0  0  0  0  0  0  0  0  0  0
   -4.1040   22.8060  -29.5970 N   0  0  0  0  0  0  0  0  0  0  0  0
   -3.1130   23.8440  -29.5630 C   0  0  0  0  0  0  0  0  0  0  0  0
   -3.2460   24.8650  -30.2920 O   0  0  0  0  0  0  0  0  0  0  0  0
   -1.9210   23.7060  -28.6990 C   0  0  0  0  0  0  0  0  0  0  0  0
   -1.6060   22.4340  -28.1860 C   0  0  0  0  0  0  0  0  0  0  0  0
   -0.4550   22.2410  -27.4200 C   0  0  0  0  0  0  0  0  0  0  0  0
    0.3970   23.3120  -27.1550 C   0  0  0  0  0  0  0  0  0  0  0  0
    0.0940   24.5840  -27.6450 C   0  0  0  0  0  0  0  0  0  0  0  0
   -1.0650   24.8000  -28.4080 C   0  0  0  0  0  0  0  0  0  0  0  0
   -1.3780   26.1360  -28.8240 N   0  0  0  0  0  0  0  0  0  0  0  0
   -3.9397   20.4517  -30.6473 H   0  0  0  0  0  0  0  0  0  0  0  0
   -4.6730   19.9179  -32.1978 H   0  0  0  0  0  0  0  0  0  0  0  0
   -3.3833   21.1682  -32.1978 H   0  0  0  0  0  0  0  0  0  0  0  0
   -6.4447   21.1216  -33.2207 H   0  0  0  0  0  0  0  0  0  0  0  0
   -8.2028   22.8740  -33.0238 H   0  0  0  0  0  0  0  0  0  0  0  0
   -8.0457   24.6137  -31.2512 H   0  0  0  0  0  0  0  0  0  0  0  0
   -6.1367   24.4895  -28.3946 H   0  0  0  0  0  0  0  0  0  0  0  0
   -5.1630   25.4954  -29.5200 H   0  0  0  0  0  0  0  0  0  0  0  0
   -6.9546   25.6258  -29.5200 H   0  0  0  0  0  0  0  0  0  0  0  0
   -4.1180   22.0990  -28.8280 H   0  0  0  0  0  0  0  0  0  0  0  0
   -2.2731   21.5836  -28.3906 H   0  0  0  0  0  0  0  0  0  0  0  0
   -0.2199   21.2418  -27.0247 H   0  0  0  0  0  0  0  0  0  0  0  0
    1.3085   23.1550  -26.5596 H   0  0  0  0  0  0  0  0  0  0  0  0
    0.7698   25.4251  -27.4312 H   0  0  0  0  0  0  0  0  0  0  0  0
   -2.3720   26.4260  -28.9680 H   0  0  0  0  0  0  0  0  0  0  0  0
   -0.6390   26.8190  -29.0960 H   0  0  0  0  0  0  0  0  0  0  0  0
  1  2  1  0
  2  3  2  0
  3  4  1  0
  4  5  2  0
  5  6  1  0
  6  7  1  0
  6  8  2  0
  8  9  1  0
  9 10  1  0
 10 11  2  0
 10 12  1  0
 12 13  2  0
 13 14  1  0
 14 15  2  0
 15 16  1  0
 16 17  2  0
 17 18  1  0
  8  2  1  0
 17 12  1  0
  1 19  1  0
  1 20  1  0
  1 21  1  0
  3 22  1  0
  4 23  1  0
  5 24  1  0
  7 25  1  0
  7 26  1  0
  7 27  1  0
  9 28  1  0
 13 29  1  0
 14 30  1  0
 15 31  1  0
 16 32  1  0
 18 33  1  0
 18 34  1  0
M  END
>  <UniqueID>  (38) 
36

>  <SMILES>  (38) 
Cc1cccc(C)c1NC(=O)c1ccccc1N

>  <Energy>  (38) 
45.30841908681778

>  <Genealogy>  (38) 
Cc1cccc(C)c1NC(=O)c1ccccc1N (3D coordinates assigned)
Cc1cccc(C)c1NC(=O)c1ccccc1N (optimized conformer: 45.30841908681778 kcal/mol)

>  <smiles>  (38) 
Cc1cccc(C)c1NC(=O)c1ccccc1N

>  <score_type>  (38) 
oracle

>  <origin>  (38) 
adgpu

>  <m_score__min__energy>  (38) 
-7.0099999999999998

>  <m_primary>  (38) 
energy

$$$$
38:0
     RDKit          3D

 41 43  0  0  1  0  0  0  0  0999 V2000
   -0.5170   28.5840  -26.0490 C   0  0  0  0  0  0  0  0  0  0  0  0
   -0.7540   27.0020  -25.2430 S   0  0  0  0  0  0  0  0  0  0  0  0
   -0.8630   27.2650  -23.7910 O   0  0  0  0  0  0  0  0  0  0  0  0
   -2.0090   26.3500  -25.7470 O   0  0  0  0  0  0  0  0  0  0  0  0
    0.6540   26.0350  -25.5620 C   0  0  0  0  0  0  0  0  0  0  0  0
    1.6460   25.8590  -24.6080 C   0  0  0  0  0  0  0  0  0  0  0  0
    2.7790   25.1090  -24.8350 C   0  0  0  0  0  0  0  0  0  0  0  0
    2.9730   24.4900  -26.0510 C   0  0  0  0  0  0  0  0  0  0  0  0
    2.0060   24.6430  -27.0230 C   0  0  0  0  0  0  0  0  0  0  0  0
    0.8480   25.4060  -26.8020 C   0  0  0  0  0  0  0  0  0  0  0  0
   -0.0870   25.5730  -27.8490 N   0  0  0  0  0  0  0  0  0  0  0  0
   -1.1100   24.8880  -28.1140 C   0  0  0  0  0  0  0  0  0  0  0  0
   -1.8900   25.2230  -29.1840 N   0  0  0  0  0  0  0  0  0  0  0  0
   -2.9860   24.4770  -29.4560 C   0  0  0  0  0  0  0  0  0  0  0  0
   -3.7230   24.8010  -30.4760 N   0  0  0  0  0  0  0  0  0  0  0  0
   -4.8940   24.0660  -30.8290 C   0  0  0  0  0  0  0  0  0  0  0  0
   -4.8310   23.0270  -31.7350 C   0  0  0  0  0  0  0  0  0  0  0  0
   -5.9650   22.3120  -32.0790 C   0  0  0  0  0  0  0  0  0  0  0  0
   -5.8810   21.2620  -32.9990 O   0  0  0  0  0  0  0  0  0  0  0  0
   -7.2020   22.6340  -31.5110 C   0  0  0  0  0  0  0  0  0  0  0  0
   -8.6330   21.7480  -31.9310 Cl  0  0  0  0  0  0  0  0  0  0  0  0
   -7.2500   23.6590  -30.6200 C   0  0  0  0  0  0  0  0  0  0  0  0
   -6.1250   24.3920  -30.2580 C   0  0  0  0  0  0  0  0  0  0  0  0
   -6.2350   25.4070  -29.3620 F   0  0  0  0  0  0  0  0  0  0  0  0
   -3.3220   23.4170  -28.6980 N   0  0  0  0  0  0  0  0  0  0  0  0
   -2.5440   23.0900  -27.6370 C   0  0  0  0  0  0  0  0  0  0  0  0
   -1.4210   23.8170  -27.3200 C   0  0  0  0  0  0  0  0  0  0  0  0
   -0.4060   23.2750  -25.8120 Br  0  0  0  0  0  0  0  0  0  0  0  0
   -0.3993   29.3693  -25.2878 H   0  0  0  0  0  0  0  0  0  0  0  0
    0.3852   28.5440  -26.6771 H   0  0  0  0  0  0  0  0  0  0  0  0
   -1.3913   28.8101  -26.6771 H   0  0  0  0  0  0  0  0  0  0  0  0
    1.5222   26.3399  -23.6265 H   0  0  0  0  0  0  0  0  0  0  0  0
    3.5332   25.0036  -24.0412 H   0  0  0  0  0  0  0  0  0  0  0  0
    3.8750   23.8899  -26.2415 H   0  0  0  0  0  0  0  0  0  0  0  0
    2.1460   24.1537  -27.9982 H   0  0  0  0  0  0  0  0  0  0  0  0
   -1.6140   26.0490  -29.7620 H   0  0  0  0  0  0  0  0  0  0  0  0
   -3.8652   22.7631  -32.1905 H   0  0  0  0  0  0  0  0  0  0  0  0
   -5.4260   21.4680  -33.8720 H   0  0  0  0  0  0  0  0  0  0  0  0
   -8.2179   23.9194  -30.1668 H   0  0  0  0  0  0  0  0  0  0  0  0
   -4.1850   22.8340  -28.9170 H   0  0  0  0  0  0  0  0  0  0  0  0
   -2.8172   22.2240  -27.0162 H   0  0  0  0  0  0  0  0  0  0  0  0
  1  2  1  0
  2  3  2  0
  2  4  2  0
  2  5  1  0
  5  6  2  0
  6  7  1  0
  7  8  2  0
  8  9  1  0
  9 10  2  0
 10 11  1  0
 11 12  2  0
 12 13  1  0
 13 14  1  0
 14 15  2  0
 15 16  1  0
 16 17  2  0
 17 18  1  0
 18 19  1  0
 18 20  2  0
 20 21  1  0
 20 22  1  0
 22 23  2  0
 23 24  1  0
 14 25  1  0
 25 26  1  0
 26 27  2  0
 27 28  1  0
 10  5  1  0
 27 12  1  0
 23 16  1  0
  1 29  1  0
  1 30  1  0
  1 31  1  0
  6 32  1  0
  7 33  1  0
  8 34  1  0
  9 35  1  0
 13 36  1  0
 17 37  1  0
 19 38  1  0
 22 39  1  0
 25 40  1  0
 26 41  1  0
M  END
>  <smiles>  (39) 
CS(=O)(=O)c1ccccc1N=c1[nH]c(=Nc2cc(O)c(Cl)cc2F)[nH]cc1Br

>  <score_type>  (39) 
oracle

>  <origin>  (39) 
adgpu

>  <m_score__min__energy>  (39) 
-9.3599999999999994

>  <m_primary>  (39) 
energy

$$$$
39:0
     RDKit          3D

 38 41  0  0  0  0  0  0  0  0999 V2000
   -3.6807   22.0463  -32.4691 H   0  0  0  0  0  0  0  0  0  0  0  0
   -4.4460   21.5670  -31.8410 C   0  0  0  0  0  0  0  0  0  0  0  0
   -4.3510   21.6430  -30.5500 N   0  0  0  0  0  0  0  0  0  0  0  0
   -3.2860   22.3060  -29.8590 C   0  0  0  0  0  0  0  0  0  0  0  0
   -1.8850   21.5130  -29.3820 S   0  0  0  0  0  0  0  0  0  0  0  0
   -1.1820   22.8510  -28.6570 C   0  0  0  0  0  0  0  0  0  0  0  0
   -2.0420   23.9450  -28.7490 C   0  0  0  0  0  0  0  0  0  0  0  0
   -3.2240   23.6560  -29.4730 C   0  0  0  0  0  0  0  0  0  0  0  0
   -4.1990   24.6830  -29.9030 C   0  0  0  0  0  0  0  0  0  0  0  0
   -5.3730   24.6720  -29.4480 O   0  0  0  0  0  0  0  0  0  0  0  0
   -3.8440   25.6630  -30.8220 O   0  0  0  0  0  0  0  0  0  0  0  0
   -1.6170   25.3140  -28.2710 C   0  0  0  0  0  0  0  0  0  0  0  0
   -1.3455   25.9256  -29.1441 H   0  0  0  0  0  0  0  0  0  0  0  0
   -2.4598   25.7559  -27.7193 H   0  0  0  0  0  0  0  0  0  0  0  0
   -0.4100   25.2480  -27.3170 C   0  0  0  0  0  0  0  0  0  0  0  0
    0.0170   26.2562  -27.2116 H   0  0  0  0  0  0  0  0  0  0  0  0
   -0.7595   24.8654  -26.3467 H   0  0  0  0  0  0  0  0  0  0  0  0
    0.6760   24.3000  -27.8430 C   0  0  0  0  0  0  0  0  0  0  0  0
    1.0027   24.6421  -28.8361 H   0  0  0  0  0  0  0  0  0  0  0  0
    1.5203   24.3065  -27.1379 H   0  0  0  0  0  0  0  0  0  0  0  0
    0.1420   22.8660  -27.9560 C   0  0  0  0  0  0  0  0  0  0  0  0
    0.8595   22.2567  -28.5251 H   0  0  0  0  0  0  0  0  0  0  0  0
    0.0126   22.4546  -26.9441 H   0  0  0  0  0  0  0  0  0  0  0  0
   -5.5610   20.8500  -32.4790 C   0  0  0  0  0  0  0  0  0  0  0  0
   -5.4280   19.9160  -33.5010 C   0  0  0  0  0  0  0  0  0  0  0  0
   -4.4713   19.6093  -33.9489 H   0  0  0  0  0  0  0  0  0  0  0  0
   -6.6370   19.4380  -33.8670 N   0  0  0  0  0  0  0  0  0  0  0  0
   -6.8310   18.7270  -34.6080 H   0  0  0  0  0  0  0  0  0  0  0  0
   -7.5370   20.0590  -33.0860 C   0  0  0  0  0  0  0  0  0  0  0  0
   -8.9200   19.8890  -33.0970 C   0  0  0  0  0  0  0  0  0  0  0  0
   -9.3992   19.1868  -33.7951 H   0  0  0  0  0  0  0  0  0  0  0  0
   -9.6840   20.6420  -32.1890 C   0  0  0  0  0  0  0  0  0  0  0  0
  -10.7783   20.5316  -32.1725 H   0  0  0  0  0  0  0  0  0  0  0  0
   -9.0570   21.5380  -31.2990 C   0  0  0  0  0  0  0  0  0  0  0  0
   -9.6660   22.1205  -30.5920 H   0  0  0  0  0  0  0  0  0  0  0  0
   -7.6580   21.6930  -31.3080 C   0  0  0  0  0  0  0  0  0  0  0  0
   -7.1599   22.3902  -30.6183 H   0  0  0  0  0  0  0  0  0  0  0  0
   -6.9220   20.9330  -32.2210 C   0  0  0  0  0  0  0  0  0  0  0  0
  1  2  1  0
  2  3  2  0
  3  4  1  0
  4  5  1  0
  5  6  1  0
  6  7  2  0
  7  8  1  0
  8  9  1  0
  9 10  2  0
  9 11  1  0
  7 12  1  0
 12 13  1  0
 12 14  1  0
 12 15  1  0
 15 16  1  0
 15 17  1  0
 15 18  1  0
 18 19  1  0
 18 20  1  0
 18 21  1  0
 21 22  1  0
 21 23  1  0
  2 24  1  0
 24 25  2  0
 25 26  1  0
 25 27  1  0
 27 28  1  0
 27 29  1  0
 29 30  2  0
 30 31  1  0
 30 32  1  0
 32 33  1  0
 32 34  2  0
 34 35  1  0
 34 36  1  0
 36 37  1  0
 36 38  2  0
  8  4  2  0
 38 24  1  0
 21  6  1  0
 38 29  1  0
M  CHG  1  11  -1
M  END
>  <UniqueID>  (40) 
37

>  <SMILES>  (40) 
O=C([O-])c1c(/N=C/c2c[nH]c3ccccc23)sc2c1CCCC2

>  <Energy>  (40) 
108.73302237501741

>  <Genealogy>  (40) 
O=C([O-])c1c(N=Cc2c[nH]c3ccccc23)sc2c1CCCC2 (protonated)
O=C([O-])c1c(/N=C/c2c[nH]c3ccccc23)sc2c1CCCC2 (cis-trans isomerization)
O=C([O-])c1c(/N=C/c2c[nH]c3ccccc23)sc2c1CCCC2 (3D coordinates assigned)
O=C([O-])c1c(/N=C/c2c[nH]c3ccccc23)sc2c1CCCC2 (nonaromatic ring conformer: 108.73302237501741 kcal/mol)

>  <smiles>  (40) 
O=C(O)c1c(N=Cc2c[nH]c3ccccc23)sc2c1CCCC2

>  <score_type>  (40) 
oracle

>  <origin>  (40) 
adgpu

>  <m_score__min__energy>  (40) 
-10.56

>  <m_primary>  (40) 
energy

$$$$
40:0
     RDKit          3D

 32 33  0  0  0  0  0  0  0  0999 V2000
   -2.4540   24.5560  -27.9780 C   0  0  0  0  0  0  0  0  0  0  0  0
   -2.7010   24.9840  -29.3510 N   0  0  0  0  0  0  0  0  0  0  0  0
   -3.8020   24.5070  -30.1470 C   0  0  0  0  0  0  0  0  0  0  0  0
   -3.7360   23.2910  -30.8510 C   0  0  0  0  0  0  0  0  0  0  0  0
   -4.8210   22.8550  -31.6170 C   0  0  0  0  0  0  0  0  0  0  0  0
   -5.9950   23.6280  -31.6980 C   0  0  0  0  0  0  0  0  0  0  0  0
   -7.1310   23.2100  -32.4810 N   0  0  0  0  0  0  0  0  0  0  0  0
   -8.2690   22.4560  -31.9540 C   0  0  0  0  0  0  0  0  0  0  0  0
   -8.0520   20.9750  -32.1250 C   0  0  0  0  0  0  0  0  0  0  0  0
   -6.9660   20.5040  -32.8830 C   0  0  0  0  0  0  0  0  0  0  0  0
   -6.7660   19.1300  -33.0490 C   0  0  0  0  0  0  0  0  0  0  0  0
   -7.6510   18.2180  -32.4670 C   0  0  0  0  0  0  0  0  0  0  0  0
   -8.7390   18.6780  -31.7210 C   0  0  0  0  0  0  0  0  0  0  0  0
   -8.9430   20.0510  -31.5530 C   0  0  0  0  0  0  0  0  0  0  0  0
   -6.0600   24.8360  -30.9890 C   0  0  0  0  0  0  0  0  0  0  0  0
   -4.9750   25.2730  -30.2240 C   0  0  0  0  0  0  0  0  0  0  0  0
   -2.8797   25.2936  -27.2818 H   0  0  0  0  0  0  0  0  0  0  0  0
   -2.9260   23.5769  -27.8086 H   0  0  0  0  0  0  0  0  0  0  0  0
   -1.3702   24.4748  -27.8086 H   0  0  0  0  0  0  0  0  0  0  0  0
   -2.0360   25.6730  -29.7700 H   0  0  0  0  0  0  0  0  0  0  0  0
   -2.8238   22.6786  -30.7984 H   0  0  0  0  0  0  0  0  0  0  0  0
   -4.7571   21.9008  -32.1606 H   0  0  0  0  0  0  0  0  0  0  0  0
   -7.1320   23.4200  -33.5050 H   0  0  0  0  0  0  0  0  0  0  0  0
   -8.3878   22.6823  -30.8841 H   0  0  0  0  0  0  0  0  0  0  0  0
   -9.1733   22.7472  -32.5085 H   0  0  0  0  0  0  0  0  0  0  0  0
   -6.2708   21.2189  -33.3474 H   0  0  0  0  0  0  0  0  0  0  0  0
   -5.9112   18.7665  -33.6383 H   0  0  0  0  0  0  0  0  0  0  0  0
   -7.4907   17.1375  -32.5964 H   0  0  0  0  0  0  0  0  0  0  0  0
   -9.4359   17.9592  -31.2653 H   0  0  0  0  0  0  0  0  0  0  0  0
   -9.8046   20.4094  -30.9706 H   0  0  0  0  0  0  0  0  0  0  0  0
   -6.9742   25.4459  -31.0354 H   0  0  0  0  0  0  0  0  0  0  0  0
   -5.0412   26.2255  -29.6777 H   0  0  0  0  0  0  0  0  0  0  0  0
  1  2  1  0
  2  3  1  0
  3  4  2  0
  4  5  1  0
  5  6  2  0
  6  7  1  0
  7  8  1  0
  8  9  1  0
  9 10  2  0
 10 11  1  0
 11 12  2  0
 12 13  1  0
 13 14  2  0
  6 15  1  0
 15 16  2  0
 16  3  1  0
 14  9  1  0
  1 17  1  0
  1 18  1  0
  1 19  1  0
  2 20  1  0
  4 21  1  0
  5 22  1  0
  7 23  1  0
  8 24  1  0
  8 25  1  0
 10 26  1  0
 11 27  1  0
 12 28  1  0
 13 29  1  0
 14 30  1  0
 15 31  1  0
 16 32  1  0
M  END
>  <UniqueID>  (41) 
38

>  <SMILES>  (41) 
CNc1ccc(NCc2ccccc2)cc1

>  <Energy>  (41) 
30.058865889732843

>  <Genealogy>  (41) 
CNc1ccc(NCc2ccccc2)cc1 (3D coordinates assigned)
CNc1ccc(NCc2ccccc2)cc1 (optimized conformer: 30.058865889732843 kcal/mol)

>  <smiles>  (41) 
CNc1ccc(NCc2ccccc2)cc1

>  <score_type>  (41) 
oracle

>  <origin>  (41) 
adgpu

>  <m_score__min__energy>  (41) 
-7.6799999999999997

>  <m_primary>  (41) 
energy

$$$$
41:0
     RDKit          3D

 44 45  0  0  0  0  0  0  0  0999 V2000
  -10.5300   19.7832  -31.9392 H   0  0  0  0  0  0  0  0  0  0  0  0
   -9.4570   19.9970  -32.0530 C   0  0  0  0  0  0  0  0  0  0  0  0
   -8.5710   18.9660  -32.3630 C   0  0  0  0  0  0  0  0  0  0  0  0
   -8.9469   17.9422  -32.5059 H   0  0  0  0  0  0  0  0  0  0  0  0
   -7.2070   19.2330  -32.4920 C   0  0  0  0  0  0  0  0  0  0  0  0
   -6.5143   18.4157  -32.7412 H   0  0  0  0  0  0  0  0  0  0  0  0
   -6.7080   20.5350  -32.3070 C   0  0  0  0  0  0  0  0  0  0  0  0
   -5.2880   20.7560  -32.3580 N   0  0  0  0  0  0  0  0  0  0  0  0
   -4.7570   21.1830  -33.4040 O   0  0  0  0  0  0  0  0  0  0  0  0
   -4.4800   20.3030  -31.3410 O   0  0  0  0  0  0  0  0  0  0  0  0
   -7.6140   21.5890  -32.0200 C   0  0  0  0  0  0  0  0  0  0  0  0
   -7.1730   23.0020  -31.9160 C   0  0  0  0  0  0  0  0  0  0  0  0
   -7.3120   23.7690  -32.9050 O   0  0  0  0  0  0  0  0  0  0  0  0
   -6.7230   23.5620  -30.6710 N   0  0  0  0  0  0  0  0  0  0  0  0
   -5.4960   23.6480  -30.2300 C   0  0  0  0  0  0  0  0  0  0  0  0
   -4.3810   23.3180  -31.0270 C   0  0  0  0  0  0  0  0  0  0  0  0
   -4.5226   22.9897  -32.0673 H   0  0  0  0  0  0  0  0  0  0  0  0
   -3.0990   23.4100  -30.4900 C   0  0  0  0  0  0  0  0  0  0  0  0
   -2.2255   23.1556  -31.1083 H   0  0  0  0  0  0  0  0  0  0  0  0
   -2.9200   23.8250  -29.1670 C   0  0  0  0  0  0  0  0  0  0  0  0
   -1.3000   23.9000  -28.4730 S   0  0  0  0  0  0  0  0  0  0  0  0
   -0.4040   22.9860  -29.2600 O   0  0  0  0  0  0  0  0  0  0  0  0
   -0.7590   25.2970  -28.6050 O   0  0  0  0  0  0  0  0  0  0  0  0
   -1.2700   23.4040  -26.7940 N   0  0  0  0  0  0  0  0  0  0  0  0
   -0.9000   24.4530  -25.8230 C   0  0  0  0  0  0  0  0  0  0  0  0
    0.0347   24.9232  -26.1625 H   0  0  0  0  0  0  0  0  0  0  0  0
   -0.7975   23.9577  -24.8462 H   0  0  0  0  0  0  0  0  0  0  0  0
   -1.9540   25.5490  -25.6520 C   0  0  0  0  0  0  0  0  0  0  0  0
   -2.1262   25.7281  -24.5804 H   0  0  0  0  0  0  0  0  0  0  0  0
   -1.5994   26.4760  -26.1263 H   0  0  0  0  0  0  0  0  0  0  0  0
   -2.8941   25.2308  -26.1263 H   0  0  0  0  0  0  0  0  0  0  0  0
   -0.8520   22.0170  -26.5030 C   0  0  0  0  0  0  0  0  0  0  0  0
    0.1495   21.8620  -26.9307 H   0  0  0  0  0  0  0  0  0  0  0  0
   -0.8714   21.9050  -25.4089 H   0  0  0  0  0  0  0  0  0  0  0  0
   -1.7880   20.9440  -27.0710 C   0  0  0  0  0  0  0  0  0  0  0  0
   -2.2645   20.3978  -26.2436 H   0  0  0  0  0  0  0  0  0  0  0  0
   -2.5624   21.4225  -27.6885 H   0  0  0  0  0  0  0  0  0  0  0  0
   -1.2088   20.2417  -27.6885 H   0  0  0  0  0  0  0  0  0  0  0  0
   -4.0430   24.1950  -28.4200 C   0  0  0  0  0  0  0  0  0  0  0  0
   -3.9189   24.5614  -27.3903 H   0  0  0  0  0  0  0  0  0  0  0  0
   -5.2890   24.1040  -28.9610 N   0  0  0  0  0  0  0  0  0  0  0  0
   -6.1070   24.3770  -28.3700 H   0  0  0  0  0  0  0  0  0  0  0  0
   -8.9850   21.2990  -31.8870 C   0  0  0  0  0  0  0  0  0  0  0  0
   -9.6917   22.1078  -31.6496 H   0  0  0  0  0  0  0  0  0  0  0  0
  1  2  1  0
  2  3  2  0
  3  4  1  0
  3  5  1  0
  5  6  1  0
  5  7  2  0
  7  8  1  0
  8  9  2  0
  8 10  1  0
  7 11  1  0
 11 12  1  0
 12 13  2  0
 12 14  1  0
 14 15  2  0
 15 16  1  0
 16 17  1  0
 16 18  2  0
 18 19  1  0
 18 20  1  0
 20 21  1  0
 21 22  2  0
 21 23  2  0
 21 24  1  0
 24 25  1  0
 25 26  1  0
 25 27  1  0
 25 28  1  0
 28 29  1  0
 28 30  1  0
 28 31  1  0
 24 32  1  0
 32 33  1  0
 32 34  1  0
 32 35  1  0
 35 36  1  0
 35 37  1  0
 35 38  1  0
 20 39  2  0
 39 40  1  0
 39 41  1  0
 41 42  1  0
 11 43  2  0
 43 44  1  0
 43  2  1  0
 41 15  1  0
M  CHG  2   8   1  10  -1
M  END
>  <UniqueID>  (42) 
39

>  <SMILES>  (42) 
CCN(CC)S(=O)(=O)c1cc/c(=N\C(=O)c2ccccc2[N+](=O)[O-])[nH]c1

>  <Energy>  (42) 
67.73525940054509

>  <Genealogy>  (42) 
CCN(CC)S(=O)(=O)c1cc/c(=N\C(=O)c2ccccc2[N+](=O)[O-])[nH]c1 (cis-trans isomerization)
CCN(CC)S(=O)(=O)c1cc/c(=N\C(=O)c2ccccc2[N+](=O)[O-])[nH]c1 (3D coordinates assigned)
CCN(CC)S(=O)(=O)c1cc/c(=N\C(=O)c2ccccc2[N+](=O)[O-])[nH]c1 (optimized conformer: 67.73525940054509 kcal/mol)

>  <smiles>  (42) 
CCN(CC)S(=O)(=O)c1ccc(=NC(=O)c2ccccc2[N+](=O)[O-])[nH]c1

>  <score_type>  (42) 
oracle

>  <origin>  (42) 
adgpu

>  <m_score__min__energy>  (42) 
-8.5299999999999994

>  <m_primary>  (42) 
energy

$$$$
42:0
     RDKit          3D

 26 27  0  0  0  0  0  0  0  0999 V2000
   -2.4790   23.4940  -28.8070 O   0  0  0  0  0  0  0  0  0  0  0  0
   -2.5160   24.6290  -29.3520 C   0  0  0  0  0  0  0  0  0  0  0  0
   -1.5460   25.6090  -28.9640 N   0  0  0  0  0  0  0  0  0  0  0  0
   -1.2660   26.0240  -27.6210 C   0  0  0  0  0  0  0  0  0  0  0  0
   -1.8840   25.3600  -26.5560 C   0  0  0  0  0  0  0  0  0  0  0  0
   -1.6470   25.7710  -25.2430 C   0  0  0  0  0  0  0  0  0  0  0  0
   -0.8060   26.8610  -25.0090 C   0  0  0  0  0  0  0  0  0  0  0  0
   -0.2360   27.5180  -26.0550 N   0  0  0  0  0  0  0  0  0  0  0  0
   -0.4480   27.1330  -27.3410 C   0  0  0  0  0  0  0  0  0  0  0  0
   -3.4920   24.9180  -30.3680 N   0  0  0  0  0  0  0  0  0  0  0  0
   -4.5210   23.9980  -30.7680 C   0  0  0  0  0  0  0  0  0  0  0  0
   -4.2090   22.8630  -31.5380 C   0  0  0  0  0  0  0  0  0  0  0  0
   -5.2170   21.9880  -31.9490 C   0  0  0  0  0  0  0  0  0  0  0  0
   -6.5480   22.2400  -31.6060 C   0  0  0  0  0  0  0  0  0  0  0  0
   -7.8120   21.1400  -32.1250 Cl  0  0  0  0  0  0  0  0  0  0  0  0
   -6.8720   23.3740  -30.8560 C   0  0  0  0  0  0  0  0  0  0  0  0
   -5.8670   24.2570  -30.4420 C   0  0  0  0  0  0  0  0  0  0  0  0
   -6.3190   25.6630  -29.4850 Cl  0  0  0  0  0  0  0  0  0  0  0  0
   -2.5575   24.5130  -26.7534 H   0  0  0  0  0  0  0  0  0  0  0  0
   -2.1179   25.2417  -24.4015 H   0  0  0  0  0  0  0  0  0  0  0  0
   -0.6044   27.1885  -23.9784 H   0  0  0  0  0  0  0  0  0  0  0  0
    0.0215   27.6903  -28.1650 H   0  0  0  0  0  0  0  0  0  0  0  0
   -3.4830   25.8610  -30.8160 H   0  0  0  0  0  0  0  0  0  0  0  0
   -3.1642   22.6632  -31.8183 H   0  0  0  0  0  0  0  0  0  0  0  0
   -4.9626   21.0985  -32.5440 H   0  0  0  0  0  0  0  0  0  0  0  0
   -7.9205   23.5737  -30.5899 H   0  0  0  0  0  0  0  0  0  0  0  0
  1  2  2  0
  2  3  1  0
  3  4  1  0
  4  5  2  0
  5  6  1  0
  6  7  2  0
  7  8  1  0
  8  9  2  0
  2 10  1  0
 10 11  1  0
 11 12  2  0
 12 13  1  0
 13 14  2  0
 14 15  1  0
 14 16  1  0
 16 17  2  0
 17 18  1  0
  9  4  1  0
 17 11  1  0
  5 19  1  0
  6 20  1  0
  7 21  1  0
  9 22  1  0
 10 23  1  0
 12 24  1  0
 13 25  1  0
 16 26  1  0
M  CHG  1   3  -1
M  END
>  <UniqueID>  (43) 
40

>  <SMILES>  (43) 
O=C([N-]c1cccnc1)Nc1ccc(Cl)cc1Cl

>  <Energy>  (43) 
36.50473467709344

>  <Genealogy>  (43) 
O=C([N-]c1cccnc1)Nc1ccc(Cl)cc1Cl (protonated)
O=C([N-]c1cccnc1)Nc1ccc(Cl)cc1Cl (3D coordinates assigned)
O=C([N-]c1cccnc1)Nc1ccc(Cl)cc1Cl (optimized conformer: 36.50473467709344 kcal/mol)

>  <smiles>  (43) 
O=C(Nc1cccnc1)Nc1ccc(Cl)cc1Cl

>  <score_type>  (43) 
oracle

>  <origin>  (43) 
adgpu

>  <m_score__min__energy>  (43) 
-8.4600000000000009

>  <m_primary>  (43) 
energy

$$$$
43:0
     RDKit          3D

 42 43  0  0  0  0  0  0  0  0999 V2000
   -2.3900   19.5390  -26.7520 C   0  0  0  0  0  0  0  0  0  0  0  0
   -1.5380   20.6800  -26.7050 O   0  0  0  0  0  0  0  0  0  0  0  0
   -1.8080   21.8980  -27.3450 C   0  0  0  0  0  0  0  0  0  0  0  0
   -3.0740   22.2090  -27.8730 C   0  0  0  0  0  0  0  0  0  0  0  0
   -3.3070   23.4480  -28.4870 C   0  0  0  0  0  0  0  0  0  0  0  0
   -4.6140   23.7370  -29.0130 N   0  0  0  0  0  0  0  0  0  0  0  0
   -4.8620   24.6620  -30.0850 C   0  0  0  0  0  0  0  0  0  0  0  0
   -3.9090   25.2540  -30.6580 O   0  0  0  0  0  0  0  0  0  0  0  0
   -6.2690   24.9550  -30.5150 C   0  0  0  0  0  0  0  0  0  0  0  0
   -7.1260   23.7660  -30.3930 N   0  0  0  0  0  0  0  0  0  0  0  0
   -7.8310   23.4420  -31.6450 C   0  0  0  0  0  0  0  0  0  0  0  0
   -7.8340   21.9480  -31.8780 C   0  0  0  0  0  0  0  0  0  0  0  0
   -9.0540   21.2570  -31.7710 C   0  0  0  0  0  0  0  0  0  0  0  0
   -9.1140   19.8800  -31.9960 C   0  0  0  0  0  0  0  0  0  0  0  0
   -7.9590   19.1770  -32.3400 C   0  0  0  0  0  0  0  0  0  0  0  0
   -6.7380   19.8470  -32.4430 C   0  0  0  0  0  0  0  0  0  0  0  0
   -6.6620   21.2260  -32.2060 C   0  0  0  0  0  0  0  0  0  0  0  0
   -5.0830   21.9940  -32.3270 Cl  0  0  0  0  0  0  0  0  0  0  0  0
   -2.2470   24.3610  -28.6190 C   0  0  0  0  0  0  0  0  0  0  0  0
   -0.9760   24.0590  -28.0960 C   0  0  0  0  0  0  0  0  0  0  0  0
    0.1070   24.9450  -28.1910 O   0  0  0  0  0  0  0  0  0  0  0  0
    0.7190   25.5920  -27.0790 C   0  0  0  0  0  0  0  0  0  0  0  0
   -0.7730   22.8320  -27.4560 C   0  0  0  0  0  0  0  0  0  0  0  0
   -2.6297   19.2180  -25.7276 H   0  0  0  0  0  0  0  0  0  0  0  0
   -3.3187   19.7964  -27.2824 H   0  0  0  0  0  0  0  0  0  0  0  0
   -1.8794   18.7217  -27.2824 H   0  0  0  0  0  0  0  0  0  0  0  0
   -3.8890   21.4734  -27.8036 H   0  0  0  0  0  0  0  0  0  0  0  0
   -5.4420   23.3770  -28.4830 H   0  0  0  0  0  0  0  0  0  0  0  0
   -6.6771   25.7568  -29.8820 H   0  0  0  0  0  0  0  0  0  0  0  0
   -6.2514   25.2622  -31.5711 H   0  0  0  0  0  0  0  0  0  0  0  0
   -6.4990   22.9600  -30.1660 H   0  0  0  0  0  0  0  0  0  0  0  0
   -8.8689   23.8005  -31.5795 H   0  0  0  0  0  0  0  0  0  0  0  0
   -7.3133   23.9323  -32.4826 H   0  0  0  0  0  0  0  0  0  0  0  0
   -9.9699   21.8063  -31.5075 H   0  0  0  0  0  0  0  0  0  0  0  0
  -10.0728   19.3491  -31.9019 H   0  0  0  0  0  0  0  0  0  0  0  0
   -8.0101   18.0948  -32.5301 H   0  0  0  0  0  0  0  0  0  0  0  0
   -5.8295   19.2883  -32.7121 H   0  0  0  0  0  0  0  0  0  0  0  0
   -2.4119   25.3185  -29.1348 H   0  0  0  0  0  0  0  0  0  0  0  0
    0.3202   25.1704  -26.1445 H   0  0  0  0  0  0  0  0  0  0  0  0
    1.8071   25.4354  -27.1170 H   0  0  0  0  0  0  0  0  0  0  0  0
    0.5022   26.6697  -27.1170 H   0  0  0  0  0  0  0  0  0  0  0  0
    0.2154   22.5982  -27.0337 H   0  0  0  0  0  0  0  0  0  0  0  0
  1  2  1  0
  2  3  1  0
  3  4  2  0
  4  5  1  0
  5  6  1  0
  6  7  1  0
  7  8  2  0
  7  9  1  0
  9 10  1  0
 10 11  1  0
 11 12  1  0
 12 13  2  0
 13 14  1  0
 14 15  2  0
 15 16  1  0
 16 17  2  0
 17 18  1  0
  5 19  2  0
 19 20  1  0
 20 21  1  0
 21 22  1  0
 20 23  2  0
 23  3  1  0
 17 12  1  0
  1 24  1  0
  1 25  1  0
  1 26  1  0
  4 27  1  0
  6 28  1  0
  9 29  1  0
  9 30  1  0
 10 31  1  0
 11 32  1  0
 11 33  1  0
 13 34  1  0
 14 35  1  0
 15 36  1  0
 16 37  1  0
 19 38  1  0
 22 39  1  0
 22 40  1  0
 22 41  1  0
 23 42  1  0
M  END
>  <UniqueID>  (44) 
41

>  <SMILES>  (44) 
COc1cc(NC(=O)CNCc2ccccc2Cl)cc(OC)c1

>  <Energy>  (44) 
41.14146515489189

>  <Genealogy>  (44) 
COc1cc(NC(=O)CNCc2ccccc2Cl)cc(OC)c1 (3D coordinates assigned)
COc1cc(NC(=O)CNCc2ccccc2Cl)cc(OC)c1 (optimized conformer: 41.14146515489189 kcal/mol)

>  <smiles>  (44) 
COc1cc(NC(=O)CNCc2ccccc2Cl)cc(OC)c1

>  <score_type>  (44) 
oracle

>  <origin>  (44) 
adgpu

>  <m_score__min__energy>  (44) 
-8.5899999999999999

>  <m_primary>  (44) 
energy

$$$$
44:0
     RDKit          3D

 39 41  0  0  0  0  0  0  0  0999 V2000
   -0.4760   25.3820  -28.5550 O   0  0  0  0  0  0  0  0  0  0  0  0
   -1.4890   24.6710  -28.7910 C   0  0  0  0  0  0  0  0  0  0  0  0
   -2.6560   25.3000  -29.3390 N   0  0  0  0  0  0  0  0  0  0  0  0
   -3.6970   24.6460  -30.0790 C   0  0  0  0  0  0  0  0  0  0  0  0
   -4.9430   25.2720  -30.1930 C   0  0  0  0  0  0  0  0  0  0  0  0
   -5.9710   24.6700  -30.9240 C   0  0  0  0  0  0  0  0  0  0  0  0
   -5.7570   23.4420  -31.5550 C   0  0  0  0  0  0  0  0  0  0  0  0
   -4.5070   22.8140  -31.4620 C   0  0  0  0  0  0  0  0  0  0  0  0
   -4.2190   21.2700  -32.2550 S   0  0  0  0  0  0  0  0  0  0  0  0
   -2.9640   21.3190  -33.0820 O   0  0  0  0  0  0  0  0  0  0  0  0
   -4.0650   20.2050  -31.2060 O   0  0  0  0  0  0  0  0  0  0  0  0
   -5.5640   20.8770  -33.2790 N   0  0  0  0  0  0  0  0  0  0  0  0
   -6.7610   20.2140  -32.8210 C   0  0  0  0  0  0  0  0  0  0  0  0
   -7.8540   20.9490  -32.3180 C   0  0  0  0  0  0  0  0  0  0  0  0
   -9.0090   20.2980  -31.8790 C   0  0  0  0  0  0  0  0  0  0  0  0
   -9.0940   18.9080  -31.9320 C   0  0  0  0  0  0  0  0  0  0  0  0
   -8.0200   18.1630  -32.4210 C   0  0  0  0  0  0  0  0  0  0  0  0
   -6.8540   18.8030  -32.8600 C   0  0  0  0  0  0  0  0  0  0  0  0
   -5.5380   17.7980  -33.4560 Cl  0  0  0  0  0  0  0  0  0  0  0  0
   -3.4770   23.4220  -30.7340 C   0  0  0  0  0  0  0  0  0  0  0  0
   -1.4610   23.2310  -28.4440 C   0  0  0  0  0  0  0  0  0  0  0  0
   -0.5630   22.3500  -29.0710 C   0  0  0  0  0  0  0  0  0  0  0  0
   -0.5760   20.9920  -28.7500 C   0  0  0  0  0  0  0  0  0  0  0  0
   -1.4870   20.5200  -27.8040 C   0  0  0  0  0  0  0  0  0  0  0  0
   -2.3520   21.3800  -27.2060 N   0  0  0  0  0  0  0  0  0  0  0  0
   -2.3630   22.7070  -27.5040 C   0  0  0  0  0  0  0  0  0  0  0  0
   -5.1145   26.2428  -29.7049 H   0  0  0  0  0  0  0  0  0  0  0  0
   -6.9506   25.1641  -31.0027 H   0  0  0  0  0  0  0  0  0  0  0  0
   -6.5695   22.9677  -32.1250 H   0  0  0  0  0  0  0  0  0  0  0  0
   -5.4770   21.1690  -34.2760 H   0  0  0  0  0  0  0  0  0  0  0  0
   -7.7965   22.0465  -32.2708 H   0  0  0  0  0  0  0  0  0  0  0  0
   -9.8545   20.8844  -31.4901 H   0  0  0  0  0  0  0  0  0  0  0  0
  -10.0066   18.3987  -31.5888 H   0  0  0  0  0  0  0  0  0  0  0  0
   -8.0896   17.0660  -32.4619 H   0  0  0  0  0  0  0  0  0  0  0  0
   -2.4904   22.9392  -30.6744 H   0  0  0  0  0  0  0  0  0  0  0  0
    0.1510   22.7315  -29.8157 H   0  0  0  0  0  0  0  0  0  0  0  0
    0.1256   20.2997  -29.2383 H   0  0  0  0  0  0  0  0  0  0  0  0
   -1.5046   19.4517  -27.5426 H   0  0  0  0  0  0  0  0  0  0  0  0
   -3.0825   23.3735  -27.0059 H   0  0  0  0  0  0  0  0  0  0  0  0
  1  2  2  0
  2  3  1  0
  3  4  1  0
  4  5  2  0
  5  6  1  0
  6  7  2  0
  7  8  1  0
  8  9  1  0
  9 10  2  0
  9 11  2  0
  9 12  1  0
 12 13  1  0
 13 14  2  0
 14 15  1  0
 15 16  2  0
 16 17  1  0
 17 18  2  0
 18 19  1  0
  8 20  2  0
  2 21  1  0
 21 22  2  0
 22 23  1  0
 23 24  2  0
 24 25  1  0
 25 26  2  0
 20  4  1  0
 26 21  1  0
 18 13  1  0
  5 27  1  0
  6 28  1  0
  7 29  1  0
 12 30  1  0
 14 31  1  0
 15 32  1  0
 16 33  1  0
 17 34  1  0
 20 35  1  0
 22 36  1  0
 23 37  1  0
 24 38  1  0
 26 39  1  0
M  CHG  1   3  -1
M  END
>  <UniqueID>  (45) 
42

>  <SMILES>  (45) 
O=C([N-]c1cccc(S(=O)(=O)Nc2ccccc2Cl)c1)c1cccnc1

>  <Energy>  (45) 
49.6385204950809

>  <Genealogy>  (45) 
O=C([N-]c1cccc(S(=O)(=O)Nc2ccccc2Cl)c1)c1cccnc1 (protonated)
O=C([N-]c1cccc(S(=O)(=O)Nc2ccccc2Cl)c1)c1cccnc1 (3D coordinates assigned)
O=C([N-]c1cccc(S(=O)(=O)Nc2ccccc2Cl)c1)c1cccnc1 (optimized conformer: 49.6385204950809 kcal/mol)

>  <smiles>  (45) 
O=C(Nc1cccc(S(=O)(=O)Nc2ccccc2Cl)c1)c1cccnc1

>  <score_type>  (45) 
oracle

>  <origin>  (45) 
adgpu

>  <m_score__min__energy>  (45) 
-11.16

>  <m_primary>  (45) 
energy

$$$$
45:0
     RDKit          3D

 31 33  0  0  0  0  0  0  0  0999 V2000
   -4.9750   17.4340  -35.0040 C   0  0  0  0  0  0  0  0  0  0  0  0
   -5.2090   17.4740  -33.6000 O   0  0  0  0  0  0  0  0  0  0  0  0
   -6.0710   18.3810  -32.9660 C   0  0  0  0  0  0  0  0  0  0  0  0
   -7.4230   18.0900  -32.7220 C   0  0  0  0  0  0  0  0  0  0  0  0
   -8.2410   19.0220  -32.0800 C   0  0  0  0  0  0  0  0  0  0  0  0
   -7.7260   20.2670  -31.6720 C   0  0  0  0  0  0  0  0  0  0  0  0
   -8.5190   21.2000  -30.9820 O   0  0  0  0  0  0  0  0  0  0  0  0
   -9.4800   22.0550  -31.5910 C   0  0  0  0  0  0  0  0  0  0  0  0
   -6.3740   20.5760  -31.9410 C   0  0  0  0  0  0  0  0  0  0  0  0
   -5.7800   21.8760  -31.5510 C   0  0  0  0  0  0  0  0  0  0  0  0
   -6.3660   23.1040  -31.9650 C   0  0  0  0  0  0  0  0  0  0  0  0
   -5.7730   24.3250  -31.5960 C   0  0  0  0  0  0  0  0  0  0  0  0
   -4.6100   24.2640  -30.8380 C   0  0  0  0  0  0  0  0  0  0  0  0
   -3.8630   25.2760  -30.3750 N   0  0  0  0  0  0  0  0  0  0  0  0
   -2.8680   24.6140  -29.7250 C   0  0  0  0  0  0  0  0  0  0  0  0
   -1.9340   25.2160  -29.1360 O   0  0  0  0  0  0  0  0  0  0  0  0
   -2.9510   23.2570  -29.7590 N   0  0  0  0  0  0  0  0  0  0  0  0
   -4.0690   23.0760  -30.4730 C   0  0  0  0  0  0  0  0  0  0  0  0
   -4.6240   21.8890  -30.8150 N   0  0  0  0  0  0  0  0  0  0  0  0
   -5.5570   19.6200  -32.5700 C   0  0  0  0  0  0  0  0  0  0  0  0
   -3.9068   17.2514  -35.1926 H   0  0  0  0  0  0  0  0  0  0  0  0
   -5.5701   16.6245  -35.4520 H   0  0  0  0  0  0  0  0  0  0  0  0
   -5.2674   18.3952  -35.4520 H   0  0  0  0  0  0  0  0  0  0  0  0
   -7.8400   17.1225  -33.0384 H   0  0  0  0  0  0  0  0  0  0  0  0
   -9.2976   18.7811  -31.8913 H   0  0  0  0  0  0  0  0  0  0  0  0
  -10.0591   22.5703  -30.8106 H   0  0  0  0  0  0  0  0  0  0  0  0
   -8.9648   22.7988  -32.2166 H   0  0  0  0  0  0  0  0  0  0  0  0
  -10.1588   21.4568  -32.2166 H   0  0  0  0  0  0  0  0  0  0  0  0
   -7.2824   23.0989  -32.5734 H   0  0  0  0  0  0  0  0  0  0  0  0
   -6.2118   25.2883  -31.8951 H   0  0  0  0  0  0  0  0  0  0  0  0
   -4.4971   19.8501  -32.7535 H   0  0  0  0  0  0  0  0  0  0  0  0
  1  2  1  0
  2  3  1  0
  3  4  2  0
  4  5  1  0
  5  6  2  0
  6  7  1  0
  7  8  1  0
  6  9  1  0
  9 10  1  0
 10 11  2  0
 11 12  1  0
 12 13  2  0
 13 14  1  0
 14 15  1  0
 15 16  2  0
 15 17  1  0
 17 18  1  0
 18 19  2  0
  9 20  2  0
 20  3  1  0
 19 10  1  0
 18 13  1  0
  1 21  1  0
  1 22  1  0
  1 23  1  0
  4 24  1  0
  5 25  1  0
  8 26  1  0
  8 27  1  0
  8 28  1  0
 11 29  1  0
 12 30  1  0
 20 31  1  0
M  CHG  2  14  -1  17  -1
M  END
>  <UniqueID>  (46) 
43

>  <SMILES>  (46) 
COc1ccc(OC)c(-c2ccc3[n-]c(=O)[n-]c3n2)c1

>  <Energy>  (46) 
75.59770287074315

>  <Genealogy>  (46) 
COc1ccc(OC)c(-c2ccc3[n-]c(=O)[n-]c3n2)c1 (protonated)
COc1ccc(OC)c(-c2ccc3[n-]c(=O)[n-]c3n2)c1 (3D coordinates assigned)
COc1ccc(OC)c(-c2ccc3[n-]c(=O)[n-]c3n2)c1 (optimized conformer: 75.59770287074315 kcal/mol)

>  <smiles>  (46) 
COc1ccc(OC)c(-c2ccc3[nH]c(=O)[nH]c3n2)c1

>  <score_type>  (46) 
oracle

>  <origin>  (46) 
adgpu

>  <m_score__min__energy>  (46) 
-9.5399999999999991

>  <m_primary>  (46) 
energy

$$$$
46:0
     RDKit          3D

 45 48  0  0  0  0  0  0  0  0999 V2000
    1.8664   22.7110  -28.1074 H   0  0  0  0  0  0  0  0  0  0  0  0
    1.1600   23.5120  -27.8440 C   0  0  0  0  0  0  0  0  0  0  0  0
    0.1900   23.8740  -28.7200 N   0  0  0  0  0  0  0  0  0  0  0  0
   -0.6840   24.8730  -28.4210 C   0  0  0  0  0  0  0  0  0  0  0  0
   -1.7230   25.2280  -29.3390 N   0  0  0  0  0  0  0  0  0  0  0  0
   -2.8930   24.6660  -29.4770 C   0  0  0  0  0  0  0  0  0  0  0  0
   -3.8650   25.2510  -30.2070 N   0  0  0  0  0  0  0  0  0  0  0  0
   -4.9240   24.4280  -30.0690 C   0  0  0  0  0  0  0  0  0  0  0  0
   -5.9144   24.5883  -30.5200 H   0  0  0  0  0  0  0  0  0  0  0  0
   -4.5770   23.3570  -29.2780 C   0  0  0  0  0  0  0  0  0  0  0  0
   -5.2402   22.5262  -28.9952 H   0  0  0  0  0  0  0  0  0  0  0  0
   -3.2900   23.4960  -28.9080 N   0  0  0  0  0  0  0  0  0  0  0  0
   -2.5060   22.4400  -28.3310 C   0  0  0  0  0  0  0  0  0  0  0  0
   -2.0840   22.5310  -27.0390 N   0  0  0  0  0  0  0  0  0  0  0  0
   -1.3380   21.5560  -26.4560 C   0  0  0  0  0  0  0  0  0  0  0  0
   -1.0207   21.6593  -25.4078 H   0  0  0  0  0  0  0  0  0  0  0  0
   -0.9740   20.4230  -27.1870 C   0  0  0  0  0  0  0  0  0  0  0  0
   -0.3779   19.6263  -26.7180 H   0  0  0  0  0  0  0  0  0  0  0  0
   -1.3750   20.3130  -28.5190 C   0  0  0  0  0  0  0  0  0  0  0  0
   -1.0896   19.4297  -29.1093 H   0  0  0  0  0  0  0  0  0  0  0  0
   -2.1390   21.3260  -29.1010 C   0  0  0  0  0  0  0  0  0  0  0  0
   -2.4504   21.2516  -30.1534 H   0  0  0  0  0  0  0  0  0  0  0  0
   -0.6160   25.5020  -27.1760 C   0  0  0  0  0  0  0  0  0  0  0  0
   -1.3440   26.2800  -26.9027 H   0  0  0  0  0  0  0  0  0  0  0  0
    0.3980   25.1250  -26.2770 C   0  0  0  0  0  0  0  0  0  0  0  0
    0.5340   25.7570  -24.9830 N   0  0  0  0  0  0  0  0  0  0  0  0
   -0.5660   25.7270  -24.0100 C   0  0  0  0  0  0  0  0  0  0  0  0
   -0.2854   25.0762  -23.1688 H   0  0  0  0  0  0  0  0  0  0  0  0
   -1.4672   25.3414  -24.5092 H   0  0  0  0  0  0  0  0  0  0  0  0
   -0.8650   27.1420  -23.4760 C   0  0  0  0  0  0  0  0  0  0  0  0
   -1.2985   27.0467  -22.4695 H   0  0  0  0  0  0  0  0  0  0  0  0
   -1.5539   27.6122  -24.1932 H   0  0  0  0  0  0  0  0  0  0  0  0
    0.3320   28.0260  -23.3880 N   0  0  0  0  0  0  0  0  0  0  0  0
    0.2630   28.5660  -22.4920 H   0  0  0  0  0  0  0  0  0  0  0  0
    0.3430   29.0260  -24.4740 C   0  0  0  0  0  0  0  0  0  0  0  0
    0.3541   30.0372  -24.0412 H   0  0  0  0  0  0  0  0  0  0  0  0
    1.2396   28.8831  -25.0950 H   0  0  0  0  0  0  0  0  0  0  0  0
   -0.5566   28.9028  -25.0950 H   0  0  0  0  0  0  0  0  0  0  0  0
    1.6040   27.2710  -23.3340 C   0  0  0  0  0  0  0  0  0  0  0  0
    1.5999   26.6303  -22.4399 H   0  0  0  0  0  0  0  0  0  0  0  0
    2.4304   27.9961  -23.2975 H   0  0  0  0  0  0  0  0  0  0  0  0
    1.7980   26.3880  -24.5780 C   0  0  0  0  0  0  0  0  0  0  0  0
    2.5341   25.6031  -24.3499 H   0  0  0  0  0  0  0  0  0  0  0  0
    2.1516   27.0223  -25.4042 H   0  0  0  0  0  0  0  0  0  0  0  0
    1.2610   24.1360  -26.6430 N   0  0  0  0  0  0  0  0  0  0  0  0
  1  2  1  0
  2  3  2  0
  3  4  1  0
  4  5  1  0
  5  6  2  0
  6  7  1  0
  7  8  1  0
  8  9  1  0
  8 10  2  0
 10 11  1  0
 10 12  1  0
 12 13  1  0
 13 14  2  0
 14 15  1  0
 15 16  1  0
 15 17  2  0
 17 18  1  0
 17 19  1  0
 19 20  1  0
 19 21  2  0
 21 22  1  0
  4 23  2  0
 23 24  1  0
 23 25  1  0
 25 26  1  0
 26 27  1  0
 27 28  1  0
 27 29  1  0
 27 30  1  0
 30 31  1  0
 30 32  1  0
 30 33  1  0
 33 34  1  0
 33 35  1  0
 35 36  1  0
 35 37  1  0
 35 38  1  0
 33 39  1  0
 39 40  1  0
 39 41  1  0
 39 42  1  0
 42 43  1  0
 42 44  1  0
 25 45  2  0
 45  2  1  0
 12  6  1  0
 21 13  1  0
 42 26  1  0
M  CHG  2   7  -1  33   1
M  END
>  <UniqueID>  (47) 
44

>  <SMILES>  (47) 
C[NH+]1CCN(c2cc(/N=c3/[n-]ccn3-c3ccccn3)ncn2)CC1

>  <Energy>  (47) 
104.57789714731354

>  <Genealogy>  (47) 
C[NH+]1CCN(c2cc(N=c3[n-]ccn3-c3ccccn3)ncn2)CC1 (protonated)
C[NH+]1CCN(c2cc(/N=c3/[n-]ccn3-c3ccccn3)ncn2)CC1 (cis-trans isomerization)
C[NH+]1CCN(c2cc(/N=c3/[n-]ccn3-c3ccccn3)ncn2)CC1 (3D coordinates assigned)
C[NH+]1CCN(c2cc(/N=c3/[n-]ccn3-c3ccccn3)ncn2)CC1 (nonaromatic ring conformer: 104.57789714731354 kcal/mol)

>  <smiles>  (47) 
CN1CCN(c2cc(N=c3[nH]ccn3-c3ccccn3)ncn2)CC1

>  <score_type>  (47) 
oracle

>  <origin>  (47) 
adgpu

>  <m_score__min__energy>  (47) 
-8.5199999999999996

>  <m_primary>  (47) 
energy

$$$$
47:0
     RDKit          3D

 26 28  0  0  0  0  0  0  0  0999 V2000
   -6.1691   25.8154  -31.7251 H   0  0  0  0  0  0  0  0  0  0  0  0
   -5.5800   25.2500  -30.9880 C   0  0  0  0  0  0  0  0  0  0  0  0
   -4.2850   25.3650  -30.8060 O   0  0  0  0  0  0  0  0  0  0  0  0
   -3.9210   24.5420  -29.8490 C   0  0  0  0  0  0  0  0  0  0  0  0
   -2.5410   24.3940  -29.3680 C   0  0  0  0  0  0  0  0  0  0  0  0
   -1.9730   25.2980  -28.5250 N   0  0  0  0  0  0  0  0  0  0  0  0
   -0.6980   24.9630  -28.2250 C   0  0  0  0  0  0  0  0  0  0  0  0
    0.0650   25.6310  -27.4120 N   0  0  0  0  0  0  0  0  0  0  0  0
   -0.2530   26.8760  -26.7660 C   0  0  0  0  0  0  0  0  0  0  0  0
   -0.5730   26.8600  -25.4010 C   0  0  0  0  0  0  0  0  0  0  0  0
   -0.5960   25.9044  -24.8566 H   0  0  0  0  0  0  0  0  0  0  0  0
   -0.8630   28.0500  -24.7270 C   0  0  0  0  0  0  0  0  0  0  0  0
   -1.1292   28.0264  -23.6599 H   0  0  0  0  0  0  0  0  0  0  0  0
   -0.8150   29.2700  -25.4080 C   0  0  0  0  0  0  0  0  0  0  0  0
   -1.0930   30.4240  -24.7530 F   0  0  0  0  0  0  0  0  0  0  0  0
   -0.4680   29.3010  -26.7610 C   0  0  0  0  0  0  0  0  0  0  0  0
   -0.4227   30.2618  -27.2947 H   0  0  0  0  0  0  0  0  0  0  0  0
   -0.1780   28.1110  -27.4380 C   0  0  0  0  0  0  0  0  0  0  0  0
    0.1097   28.1406  -28.4993 H   0  0  0  0  0  0  0  0  0  0  0  0
   -0.2340   23.5320  -28.9670 S   0  0  0  0  0  0  0  0  0  0  0  0
   -1.7190   23.3280  -29.7320 C   0  0  0  0  0  0  0  0  0  0  0  0
   -1.9931   22.4994  -30.4015 H   0  0  0  0  0  0  0  0  0  0  0  0
   -5.0200   23.8530  -29.3760 C   0  0  0  0  0  0  0  0  0  0  0  0
   -5.0375   23.0965  -28.5776 H   0  0  0  0  0  0  0  0  0  0  0  0
   -6.0900   24.3110  -30.1130 C   0  0  0  0  0  0  0  0  0  0  0  0
   -7.1391   23.9929  -30.0228 H   0  0  0  0  0  0  0  0  0  0  0  0
  1  2  1  0
  2  3  1  0
  3  4  1  0
  4  5  1  0
  5  6  1  0
  6  7  1  0
  7  8  2  0
  8  9  1  0
  9 10  2  0
 10 11  1  0
 10 12  1  0
 12 13  1  0
 12 14  2  0
 14 15  1  0
 14 16  1  0
 16 17  1  0
 16 18  2  0
 18 19  1  0
  7 20  1  0
 20 21  1  0
 21 22  1  0
  4 23  2  0
 23 24  1  0
 23 25  1  0
 25 26  1  0
 25  2  2  0
 21  5  2  0
 18  9  1  0
M  CHG  1   6  -1
M  END
>  <UniqueID>  (48) 
45

>  <SMILES>  (48) 
Fc1ccc(/N=c2\[n-]c(-c3ccco3)cs2)cc1

>  <Energy>  (48) 
89.16727298563669

>  <Genealogy>  (48) 
Fc1ccc(N=c2[n-]c(-c3ccco3)cs2)cc1 (protonated)
Fc1ccc(/N=c2\[n-]c(-c3ccco3)cs2)cc1 (cis-trans isomerization)
Fc1ccc(/N=c2\[n-]c(-c3ccco3)cs2)cc1 (3D coordinates assigned)
Fc1ccc(/N=c2\[n-]c(-c3ccco3)cs2)cc1 (optimized conformer: 89.16727298563669 kcal/mol)

>  <smiles>  (48) 
Fc1ccc(N=c2[nH]c(-c3ccco3)cs2)cc1

>  <score_type>  (48) 
oracle

>  <origin>  (48) 
adgpu

>  <m_score__min__energy>  (48) 
-7.2300000000000004

>  <m_primary>  (48) 
energy

$$$$
48:0
     RDKit          3D

 34 35  0  0  0  0  0  0  0  0999 V2000
   -3.1910   24.8960  -26.5340 C   0  0  0  0  0  0  0  0  0  0  0  0
   -1.9930   25.7570  -26.2260 C   0  0  0  0  0  0  0  0  0  0  0  0
   -1.9660   26.4540  -25.0040 C   0  0  0  0  0  0  0  0  0  0  0  0
   -0.8670   27.2370  -24.6540 C   0  0  0  0  0  0  0  0  0  0  0  0
    0.2210   27.3390  -25.5190 C   0  0  0  0  0  0  0  0  0  0  0  0
    0.2090   26.6680  -26.7420 C   0  0  0  0  0  0  0  0  0  0  0  0
   -0.8960   25.8810  -27.1230 C   0  0  0  0  0  0  0  0  0  0  0  0
   -0.8640   25.2120  -28.4500 C   0  0  0  0  0  0  0  0  0  0  0  0
    0.1290   24.5130  -28.7870 O   0  0  0  0  0  0  0  0  0  0  0  0
   -2.0060   25.2980  -29.3150 N   0  0  0  0  0  0  0  0  0  0  0  0
   -2.8570   24.2110  -29.7150 C   0  0  0  0  0  0  0  0  0  0  0  0
   -2.5550   22.8830  -29.4070 C   0  0  0  0  0  0  0  0  0  0  0  0
   -3.3690   21.8730  -29.8290 N   0  0  0  0  0  0  0  0  0  0  0  0
   -3.0120   20.4820  -29.5170 C   0  0  0  0  0  0  0  0  0  0  0  0
   -4.4760   22.1490  -30.5860 C   0  0  0  0  0  0  0  0  0  0  0  0
   -5.1970   21.2000  -31.0060 O   0  0  0  0  0  0  0  0  0  0  0  0
   -4.8010   23.4450  -30.8990 N   0  0  0  0  0  0  0  0  0  0  0  0
   -5.9790   23.7280  -31.7370 C   0  0  0  0  0  0  0  0  0  0  0  0
   -3.9850   24.4710  -30.4950 C   0  0  0  0  0  0  0  0  0  0  0  0
   -4.2420   25.6620  -30.8250 O   0  0  0  0  0  0  0  0  0  0  0  0
   -3.6546   24.5628  -25.5937 H   0  0  0  0  0  0  0  0  0  0  0  0
   -3.9206   25.4777  -27.1165 H   0  0  0  0  0  0  0  0  0  0  0  0
   -2.8722   24.0190  -27.1165 H   0  0  0  0  0  0  0  0  0  0  0  0
   -2.8219   26.3802  -24.3170 H   0  0  0  0  0  0  0  0  0  0  0  0
   -0.8585   27.7747  -23.6944 H   0  0  0  0  0  0  0  0  0  0  0  0
    1.0911   27.9499  -25.2367 H   0  0  0  0  0  0  0  0  0  0  0  0
    1.0730   26.7544  -27.4174 H   0  0  0  0  0  0  0  0  0  0  0  0
   -1.6545   22.6496  -28.8200 H   0  0  0  0  0  0  0  0  0  0  0  0
   -2.9777   20.3482  -28.4257 H   0  0  0  0  0  0  0  0  0  0  0  0
   -3.7655   19.8050  -29.9459 H   0  0  0  0  0  0  0  0  0  0  0  0
   -2.0256   20.2516  -29.9459 H   0  0  0  0  0  0  0  0  0  0  0  0
   -6.8459   23.9363  -31.0926 H   0  0  0  0  0  0  0  0  0  0  0  0
   -5.7756   24.6028  -32.3721 H   0  0  0  0  0  0  0  0  0  0  0  0
   -6.1952   22.8562  -32.3721 H   0  0  0  0  0  0  0  0  0  0  0  0
  1  2  1  0
  2  3  2  0
  3  4  1  0
  4  5  2  0
  5  6  1  0
  6  7  2  0
  7  8  1  0
  8  9  2  0
  8 10  1  0
 10 11  1  0
 11 12  2  0
 12 13  1  0
 13 14  1  0
 13 15  1  0
 15 16  2  0
 15 17  1  0
 17 18  1  0
 17 19  1  0
 19 20  2  0
  7  2  1  0
 19 11  1  0
  1 21  1  0
  1 22  1  0
  1 23  1  0
  3 24  1  0
  4 25  1  0
  5 26  1  0
  6 27  1  0
 12 28  1  0
 14 29  1  0
 14 30  1  0
 14 31  1  0
 18 32  1  0
 18 33  1  0
 18 34  1  0
M  CHG  1  10  -1
M  END
>  <UniqueID>  (49) 
46

>  <SMILES>  (49) 
Cc1ccccc1C(=O)[N-]c1cn(C)c(=O)n(C)c1=O

>  <Energy>  (49) 
48.09461771760357

>  <Genealogy>  (49) 
Cc1ccccc1C(=O)[N-]c1cn(C)c(=O)n(C)c1=O (protonated)
Cc1ccccc1C(=O)[N-]c1cn(C)c(=O)n(C)c1=O (3D coordinates assigned)
Cc1ccccc1C(=O)[N-]c1cn(C)c(=O)n(C)c1=O (optimized conformer: 48.09461771760357 kcal/mol)

>  <smiles>  (49) 
Cc1ccccc1C(=O)Nc1cn(C)c(=O)n(C)c1=O

>  <score_type>  (49) 
oracle

>  <origin>  (49) 
adgpu

>  <m_score__min__energy>  (49) 
-8.4499999999999993

>  <m_primary>  (49) 
energy

$$$$
