0:0
     RDKit          3D

 53 55  0  0  1  0  0  0  0  0999 V2000
   -3.4710   25.3030  -25.7470 C   0  0  0  0  0  0  0  0  0  0  0  0
   -3.2510   24.9090  -27.1010 N   0  0  0  0  0  0  0  0  0  0  0  0
   -1.6310   24.9200  -27.6190 S   0  0  0  0  0  0  0  0  0  0  0  0
   -1.4740   26.0350  -28.6180 O   0  0  0  0  0  0  0  0  0  0  0  0
   -0.7530   25.2300  -26.4350 O   0  0  0  0  0  0  0  0  0  0  0  0
   -1.0970   23.3940  -28.2900 C   0  0  0  0  0  0  0  0  0  0  0  0
   -0.5030   22.4150  -27.5310 C   0  0  0  0  0  0  0  0  0  0  0  0
   -0.1010   21.2400  -28.1490 C   0  0  0  0  0  0  0  0  0  0  0  0
   -0.3010   21.0670  -29.5240 C   0  0  0  0  0  0  0  0  0  0  0  0
   -0.8920   22.0350  -30.2990 C   0  0  0  0  0  0  0  0  0  0  0  0
   -1.1530   21.9320  -31.6730 N   0  0  0  0  0  0  0  0  0  0  0  0
   -2.3230   21.8090  -32.1320 C   0  0  0  0  0  0  0  0  0  0  0  0
   -2.5800   21.7030  -33.4610 N   0  0  0  0  0  0  0  0  0  0  0  0
   -3.8690   21.5500  -33.6180 N   0  0  0  0  0  0  0  0  0  0  0  0
   -4.5050   21.5530  -32.4170 C   0  0  0  0  0  0  0  0  0  0  0  0
   -5.9410   21.4000  -32.3050 C   0  0  0  0  0  0  0  0  0  0  0  0
   -6.7190   22.5350  -32.1250 C   0  0  0  0  0  0  0  0  0  0  0  0
   -8.1100   22.4570  -32.0160 C   0  0  0  0  0  0  0  0  0  0  0  0
   -8.7660   21.2490  -32.0860 C   0  0  0  0  0  0  0  0  0  0  0  0
  -10.2450   21.2390  -31.9620 C   0  0  0  0  0  0  0  0  0  0  0  0
   -8.0050   20.1160  -32.2640 C   0  0  0  0  0  0  0  0  0  0  0  0
   -8.6580   18.7970  -32.3400 C   0  0  0  0  0  0  0  0  0  0  0  0
   -6.6130   20.2060  -32.3710 C   0  0  0  0  0  0  0  0  0  0  0  0
   -3.5220   21.7220  -31.4610 C   0  0  0  0  0  0  0  0  0  0  0  0
   -3.8450   21.9300  -29.7200 S   0  0  0  0  0  0  0  0  0  0  0  0
   -4.8550   23.4090  -29.4980 C   0  0  0  0  0  0  0  0  0  0  0  0
   -4.5740   24.4720  -30.5130 C   0  0  0  0  0  0  0  0  0  0  0  0
   -3.5300   25.2810  -30.0150 O   0  0  0  0  0  0  0  0  0  0  0  0
   -1.2870   23.2050  -29.6430 C   0  0  0  0  0  0  0  0  0  0  0  0
   -3.0479   24.5452  -25.0712 H   0  0  0  0  0  0  0  0  0  0  0  0
   -2.9832   26.2716  -25.5631 H   0  0  0  0  0  0  0  0  0  0  0  0
   -4.5515   25.3959  -25.5631 H   0  0  0  0  0  0  0  0  0  0  0  0
   -3.9560   25.1810  -27.7880 H   0  0  0  0  0  0  0  0  0  0  0  0
   -0.3488   22.5604  -26.4516 H   0  0  0  0  0  0  0  0  0  0  0  0
    0.3753   20.4435  -27.5584 H   0  0  0  0  0  0  0  0  0  0  0  0
    0.0245   20.1289  -29.9972 H   0  0  0  0  0  0  0  0  0  0  0  0
   -1.8540   21.7380  -34.2370 H   0  0  0  0  0  0  0  0  0  0  0  0
   -4.2930   21.4450  -34.5830 H   0  0  0  0  0  0  0  0  0  0  0  0
   -6.2296   23.5184  -32.0668 H   0  0  0  0  0  0  0  0  0  0  0  0
   -8.6921   23.3791  -31.8714 H   0  0  0  0  0  0  0  0  0  0  0  0
  -10.5237   21.2371  -30.8979 H   0  0  0  0  0  0  0  0  0  0  0  0
  -10.6598   22.1344  -32.4481 H   0  0  0  0  0  0  0  0  0  0  0  0
  -10.6476   20.3381  -32.4481 H   0  0  0  0  0  0  0  0  0  0  0  0
   -8.8442   18.4209  -31.3232 H   0  0  0  0  0  0  0  0  0  0  0  0
   -9.6135   18.8913  -32.8768 H   0  0  0  0  0  0  0  0  0  0  0  0
   -8.0037   18.0943  -32.8768 H   0  0  0  0  0  0  0  0  0  0  0  0
   -6.0339   19.2818  -32.5139 H   0  0  0  0  0  0  0  0  0  0  0  0
   -5.9146   23.1236  -29.5747 H   0  0  0  0  0  0  0  0  0  0  0  0
   -4.6103   23.8269  -28.5104 H   0  0  0  0  0  0  0  0  0  0  0  0
   -4.2683   24.0101  -31.4634 H   0  0  0  0  0  0  0  0  0  0  0  0
   -5.4747   25.0768  -30.6944 H   0  0  0  0  0  0  0  0  0  0  0  0
   -3.5330   25.2970  -29.0270 H   0  0  0  0  0  0  0  0  0  0  0  0
   -1.7668   24.0039  -30.2274 H   0  0  0  0  0  0  0  0  0  0  0  0
  1  2  1  0
  2  3  1  0
  3  4  2  0
  3  5  2  0
  3  6  1  0
  6  7  2  0
  7  8  1  0
  8  9  2  0
  9 10  1  0
 10 11  1  0
 11 12  2  0
 12 13  1  0
 13 14  1  0
 14 15  1  0
 15 16  1  0
 16 17  2  0
 17 18  1  0
 18 19  2  0
 19 20  1  0
 19 21  1  0
 21 22  1  0
 21 23  2  0
 15 24  2  0
 24 25  1  0
 25 26  1  0
 26 27  1  0
 27 28  1  0
 10 29  2  0
 29  6  1  0
 24 12  1  0
 23 16  1  0
  1 30  1  0
  1 31  1  0
  1 32  1  0
  2 33  1  0
  7 34  1  0
  8 35  1  0
  9 36  1  0
 13 37  1  0
 14 38  1  0
 17 39  1  0
 18 40  1  0
 20 41  1  0
 20 42  1  0
 20 43  1  0
 22 44  1  0
 22 45  1  0
 22 46  1  0
 23 47  1  0
 26 48  1  0
 26 49  1  0
 27 50  1  0
 27 51  1  0
 28 52  1  0
 29 53  1  0
M  END
>  <smiles>  (1) 
CNS(=O)(=O)c1cccc(N=c2[nH][nH]c(-c3ccc(C)c(C)c3)c2SCCO)c1

>  <score_type>  (1) 
oracle

>  <origin>  (1) 
adgpu

>  <m_score__min__energy>  (1) 
-10.34

>  <m_primary>  (1) 
energy

$$$$
1:0
     RDKit          3D

 52 56  0  0  0  0  0  0  0  0999 V2000
   -1.6930   19.5560  -26.9940 C   0  0  0  0  0  0  0  0  0  0  0  0
   -0.2110   20.5170  -27.4330 S   0  0  0  0  0  0  0  0  0  0  0  0
   -0.6890   20.6920  -29.1590 C   0  0  0  0  0  0  0  0  0  0  0  0
   -0.7440   19.5450  -29.9630 C   0  0  0  0  0  0  0  0  0  0  0  0
   -1.0440   19.6530  -31.3230 C   0  0  0  0  0  0  0  0  0  0  0  0
   -1.2840   20.9060  -31.8900 C   0  0  0  0  0  0  0  0  0  0  0  0
   -1.2390   22.0540  -31.0950 C   0  0  0  0  0  0  0  0  0  0  0  0
   -0.9640   21.9560  -29.7230 C   0  0  0  0  0  0  0  0  0  0  0  0
   -0.9530   23.1460  -28.9250 N   0  0  0  0  0  0  0  0  0  0  0  0
   -0.1210   24.1580  -29.0930 N   0  0  0  0  0  0  0  0  0  0  0  0
   -0.4660   25.1320  -28.2630 N   0  0  0  0  0  0  0  0  0  0  0  0
   -1.5370   24.7780  -27.5630 N   0  0  0  0  0  0  0  0  0  0  0  0
   -1.8360   23.5390  -27.9910 C   0  0  0  0  0  0  0  0  0  0  0  0
   -3.2760   22.6120  -27.4600 S   0  0  0  0  0  0  0  0  0  0  0  0
   -4.2110   23.0720  -28.9100 C   0  0  0  0  0  0  0  0  0  0  0  0
   -4.9730   24.1910  -28.9000 N   0  0  0  0  0  0  0  0  0  0  0  0
   -5.7040   24.5540  -29.9840 C   0  0  0  0  0  0  0  0  0  0  0  0
   -6.4070   25.5970  -29.9240 O   0  0  0  0  0  0  0  0  0  0  0  0
   -5.6730   23.7660  -31.1540 C   0  0  0  0  0  0  0  0  0  0  0  0
   -6.5070   24.1380  -32.3540 C   0  0  0  0  0  0  0  0  0  0  0  0
   -4.8610   22.6060  -31.1440 C   0  0  0  0  0  0  0  0  0  0  0  0
   -4.7510   21.6620  -32.3200 C   0  0  0  0  0  0  0  0  0  0  0  0
   -5.8690   20.6350  -32.3100 C   0  0  0  0  0  0  0  0  0  0  0  0
   -7.0510   20.9930  -31.6330 C   0  0  0  0  0  0  0  0  0  0  0  0
   -8.1450   20.1330  -31.5850 C   0  0  0  0  0  0  0  0  0  0  0  0
   -8.0850   18.8900  -32.2030 C   0  0  0  0  0  0  0  0  0  0  0  0
   -6.9220   18.4850  -32.8690 C   0  0  0  0  0  0  0  0  0  0  0  0
   -6.8800   17.2190  -33.4750 C   0  0  0  0  0  0  0  0  0  0  0  0
   -5.7280   16.7900  -34.1300 C   0  0  0  0  0  0  0  0  0  0  0  0
   -4.6070   17.6140  -34.1810 C   0  0  0  0  0  0  0  0  0  0  0  0
   -4.6290   18.8770  -33.5840 C   0  0  0  0  0  0  0  0  0  0  0  0
   -5.7890   19.3480  -32.9250 C   0  0  0  0  0  0  0  0  0  0  0  0
   -4.1640   22.2950  -30.0180 N   0  0  0  0  0  0  0  0  0  0  0  0
   -1.7817   19.4985  -25.8991 H   0  0  0  0  0  0  0  0  0  0  0  0
   -2.5852   20.0479  -27.4088 H   0  0  0  0  0  0  0  0  0  0  0  0
   -1.6079   18.5408  -27.4088 H   0  0  0  0  0  0  0  0  0  0  0  0
   -0.5502   18.5564  -29.5214 H   0  0  0  0  0  0  0  0  0  0  0  0
   -1.0912   18.7492  -31.9483 H   0  0  0  0  0  0  0  0  0  0  0  0
   -1.5087   20.9895  -32.9636 H   0  0  0  0  0  0  0  0  0  0  0  0
   -1.4202   23.0401  -31.5475 H   0  0  0  0  0  0  0  0  0  0  0  0
   -7.4635   24.5646  -32.0177 H   0  0  0  0  0  0  0  0  0  0  0  0
   -5.9671   24.8806  -32.9598 H   0  0  0  0  0  0  0  0  0  0  0  0
   -6.6988   23.2401  -32.9598 H   0  0  0  0  0  0  0  0  0  0  0  0
   -4.8067   22.2431  -33.2523 H   0  0  0  0  0  0  0  0  0  0  0  0
   -3.7907   21.1302  -32.2494 H   0  0  0  0  0  0  0  0  0  0  0  0
   -7.1110   21.9707  -31.1326 H   0  0  0  0  0  0  0  0  0  0  0  0
   -9.0598   20.4387  -31.0561 H   0  0  0  0  0  0  0  0  0  0  0  0
   -8.9567   18.2200  -32.1688 H   0  0  0  0  0  0  0  0  0  0  0  0
   -7.7616   16.5625  -33.4322 H   0  0  0  0  0  0  0  0  0  0  0  0
   -5.7039   15.7993  -34.6074 H   0  0  0  0  0  0  0  0  0  0  0  0
   -3.6978   17.2684  -34.6948 H   0  0  0  0  0  0  0  0  0  0  0  0
   -3.7328   19.5134  -33.6269 H   0  0  0  0  0  0  0  0  0  0  0  0
  1  2  1  0
  2  3  1  0
  3  4  2  0
  4  5  1  0
  5  6  2  0
  6  7  1  0
  7  8  2  0
  8  9  1  0
  9 10  1  0
 10 11  2  0
 11 12  1  0
 12 13  2  0
 13 14  1  0
 14 15  1  0
 15 16  2  0
 16 17  1  0
 17 18  2  0
 17 19  1  0
 19 20  1  0
 19 21  2  0
 21 22  1  0
 22 23  1  0
 23 24  2  0
 24 25  1  0
 25 26  2  0
 26 27  1  0
 27 28  2  0
 28 29  1  0
 29 30  2  0
 30 31  1  0
 31 32  2  0
 21 33  1  0
  8  3  1  0
 13  9  1  0
 33 15  1  0
 32 23  1  0
 32 27  1  0
  1 34  1  0
  1 35  1  0
  1 36  1  0
  4 37  1  0
  5 38  1  0
  6 39  1  0
  7 40  1  0
 20 41  1  0
 20 42  1  0
 20 43  1  0
 22 44  1  0
 22 45  1  0
 24 46  1  0
 25 47  1  0
 26 48  1  0
 28 49  1  0
 29 50  1  0
 30 51  1  0
 31 52  1  0
M  CHG  1  33  -1
M  END
>  <UniqueID>  (2) 
1

>  <SMILES>  (2) 
CSc1ccccc1-n1nnnc1Sc1nc(=O)c(C)c(Cc2cccc3ccccc23)[n-]1

>  <Energy>  (2) 
105.3748917180996

>  <Genealogy>  (2) 
CSc1ccccc1-n1nnnc1Sc1nc(=O)c(C)c(Cc2cccc3ccccc23)[n-]1 (protonated)
CSc1ccccc1-n1nnnc1Sc1nc(=O)c(C)c(Cc2cccc3ccccc23)[n-]1 (3D coordinates assigned)
CSc1ccccc1-n1nnnc1Sc1nc(=O)c(C)c(Cc2cccc3ccccc23)[n-]1 (optimized conformer: 105.3748917180996 kcal/mol)

>  <smiles>  (2) 
CSc1ccccc1-n1nnnc1Sc1nc(=O)c(C)c(Cc2cccc3ccccc23)[nH]1

>  <score_type>  (2) 
oracle

>  <origin>  (2) 
adgpu

>  <m_score__min__energy>  (2) 
-12.029999999999999

>  <m_primary>  (2) 
energy

$$$$
2:0
     RDKit          3D

 31 33  0  0  0  0  0  0  0  0999 V2000
   -0.4660   24.3850  -29.3390 O   0  0  0  0  0  0  0  0  0  0  0  0
   -1.3750   24.9730  -28.6940 C   0  0  0  0  0  0  0  0  0  0  0  0
   -2.6160   25.2940  -29.3370 N   0  0  0  0  0  0  0  0  0  0  0  0
   -3.5100   24.3730  -29.9780 C   0  0  0  0  0  0  0  0  0  0  0  0
   -4.8400   24.7600  -30.1820 C   0  0  0  0  0  0  0  0  0  0  0  0
   -5.7390   23.9010  -30.8210 C   0  0  0  0  0  0  0  0  0  0  0  0
   -5.3150   22.6430  -31.2800 C   0  0  0  0  0  0  0  0  0  0  0  0
   -6.2580   21.7320  -31.9560 C   0  0  0  0  0  0  0  0  0  0  0  0
   -5.9890   21.0680  -33.1020 N   0  0  0  0  0  0  0  0  0  0  0  0
   -7.0780   20.3680  -33.3720 N   0  0  0  0  0  0  0  0  0  0  0  0
   -7.9650   20.6230  -32.3970 C   0  0  0  0  0  0  0  0  0  0  0  0
   -9.4620   19.9730  -32.3150 S   0  0  0  0  0  0  0  0  0  0  0  0
   -7.4710   21.4610  -31.5200 O   0  0  0  0  0  0  0  0  0  0  0  0
   -3.9750   22.2650  -31.0980 C   0  0  0  0  0  0  0  0  0  0  0  0
   -3.0770   23.1250  -30.4580 C   0  0  0  0  0  0  0  0  0  0  0  0
   -1.2030   25.2550  -27.2480 C   0  0  0  0  0  0  0  0  0  0  0  0
   -1.2090   26.5950  -26.8130 C   0  0  0  0  0  0  0  0  0  0  0  0
   -1.0670   26.9070  -25.4580 C   0  0  0  0  0  0  0  0  0  0  0  0
   -0.9130   25.8900  -24.5190 C   0  0  0  0  0  0  0  0  0  0  0  0
   -0.8930   24.5570  -24.9310 C   0  0  0  0  0  0  0  0  0  0  0  0
   -1.0330   24.2270  -26.2860 C   0  0  0  0  0  0  0  0  0  0  0  0
   -0.9060   22.3670  -26.7450 Br  0  0  0  0  0  0  0  0  0  0  0  0
   -5.1802   25.7475  -29.8368 H   0  0  0  0  0  0  0  0  0  0  0  0
   -6.7842   24.2120  -30.9651 H   0  0  0  0  0  0  0  0  0  0  0  0
   -7.2000   19.7410  -34.1970 H   0  0  0  0  0  0  0  0  0  0  0  0
   -3.6293   21.2859  -31.4612 H   0  0  0  0  0  0  0  0  0  0  0  0
   -2.0270   22.8234  -30.3297 H   0  0  0  0  0  0  0  0  0  0  0  0
   -1.3268   27.4048  -27.5481 H   0  0  0  0  0  0  0  0  0  0  0  0
   -1.0769   27.9577  -25.1326 H   0  0  0  0  0  0  0  0  0  0  0  0
   -0.8071   26.1376  -23.4525 H   0  0  0  0  0  0  0  0  0  0  0  0
   -0.7662   23.7580  -24.1857 H   0  0  0  0  0  0  0  0  0  0  0  0
  1  2  2  0
  2  3  1  0
  3  4  1  0
  4  5  2  0
  5  6  1  0
  6  7  2  0
  7  8  1  0
  8  9  2  0
  9 10  1  0
 10 11  1  0
 11 12  2  0
 11 13  1  0
  7 14  1  0
 14 15  2  0
  2 16  1  0
 16 17  2  0
 17 18  1  0
 18 19  2  0
 19 20  1  0
 20 21  2  0
 21 22  1  0
 15  4  1  0
 21 16  1  0
 13  8  1  0
  5 23  1  0
  6 24  1  0
 10 25  1  0
 14 26  1  0
 15 27  1  0
 17 28  1  0
 18 29  1  0
 19 30  1  0
 20 31  1  0
M  CHG  1   3  -1
M  END
>  <UniqueID>  (3) 
2

>  <SMILES>  (3) 
O=C([N-]c1ccc(-c2n[nH]c(=S)o2)cc1)c1ccccc1Br

>  <Energy>  (3) 
78.31689128767897

>  <Genealogy>  (3) 
O=C([N-]c1ccc(-c2n[nH]c(=S)o2)cc1)c1ccccc1Br (protonated)
O=C([N-]c1ccc(-c2n[nH]c(=S)o2)cc1)c1ccccc1Br (3D coordinates assigned)
O=C([N-]c1ccc(-c2n[nH]c(=S)o2)cc1)c1ccccc1Br (optimized conformer: 78.31689128767897 kcal/mol)

>  <smiles>  (3) 
O=C(Nc1ccc(-c2n[nH]c(=S)o2)cc1)c1ccccc1Br

>  <score_type>  (3) 
oracle

>  <origin>  (3) 
adgpu

>  <m_score__min__energy>  (3) 
-9.7200000000000006

>  <m_primary>  (3) 
energy

$$$$
3:0
     RDKit          3D

 40 41  0  0  0  0  0  0  0  0999 V2000
   -1.3660   22.7130  -28.8390 C   0  0  0  0  0  0  0  0  0  0  0  0
   -2.5140   23.6150  -28.4010 C   0  0  0  0  0  0  0  0  0  0  0  0
   -2.4590   24.9230  -29.1250 C   0  0  0  0  0  0  0  0  0  0  0  0
   -1.4610   25.6770  -28.9750 O   0  0  0  0  0  0  0  0  0  0  0  0
   -3.5390   25.2950  -29.9910 N   0  0  0  0  0  0  0  0  0  0  0  0
   -4.5080   24.4110  -30.5740 C   0  0  0  0  0  0  0  0  0  0  0  0
   -5.8880   24.6400  -30.4620 C   0  0  0  0  0  0  0  0  0  0  0  0
   -6.7980   23.7420  -31.0210 C   0  0  0  0  0  0  0  0  0  0  0  0
   -6.3520   22.5850  -31.6830 C   0  0  0  0  0  0  0  0  0  0  0  0
   -7.3010   21.7040  -32.3110 N   0  0  0  0  0  0  0  0  0  0  0  0
   -8.4900   21.2310  -31.6630 C   0  0  0  0  0  0  0  0  0  0  0  0
   -9.4930   20.4360  -32.4360 C   0  0  0  0  0  0  0  0  0  0  0  0
   -8.6670   21.4170  -30.4290 O   0  0  0  0  0  0  0  0  0  0  0  0
   -4.9630   22.3450  -31.7930 C   0  0  0  0  0  0  0  0  0  0  0  0
   -4.4420   21.1160  -32.4380 C   0  0  0  0  0  0  0  0  0  0  0  0
   -5.2640   20.2790  -32.9030 O   0  0  0  0  0  0  0  0  0  0  0  0
   -2.9870   20.8340  -32.5350 C   0  0  0  0  0  0  0  0  0  0  0  0
   -2.2140   20.6000  -31.3810 C   0  0  0  0  0  0  0  0  0  0  0  0
   -0.8440   20.3460  -31.4860 C   0  0  0  0  0  0  0  0  0  0  0  0
   -0.2280   20.3290  -32.7390 C   0  0  0  0  0  0  0  0  0  0  0  0
   -0.9810   20.5690  -33.8910 C   0  0  0  0  0  0  0  0  0  0  0  0
   -2.3520   20.8260  -33.7910 C   0  0  0  0  0  0  0  0  0  0  0  0
   -4.0570   23.2550  -31.2190 C   0  0  0  0  0  0  0  0  0  0  0  0
   -0.8555   22.3119  -27.9510 H   0  0  0  0  0  0  0  0  0  0  0  0
   -1.7619   21.8818  -29.4410 H   0  0  0  0  0  0  0  0  0  0  0  0
   -0.6521   23.2943  -29.4410 H   0  0  0  0  0  0  0  0  0  0  0  0
   -3.4698   23.1181  -28.6236 H   0  0  0  0  0  0  0  0  0  0  0  0
   -2.4263   23.8027  -27.3207 H   0  0  0  0  0  0  0  0  0  0  0  0
   -6.2539   25.5313  -29.9312 H   0  0  0  0  0  0  0  0  0  0  0  0
   -7.8769   23.9418  -30.9427 H   0  0  0  0  0  0  0  0  0  0  0  0
   -7.0900   21.3460  -33.2700 H   0  0  0  0  0  0  0  0  0  0  0  0
  -10.1592   19.9080  -31.7378 H   0  0  0  0  0  0  0  0  0  0  0  0
  -10.0868   21.1114  -33.0694 H   0  0  0  0  0  0  0  0  0  0  0  0
   -8.9710   19.7037  -33.0694 H   0  0  0  0  0  0  0  0  0  0  0  0
   -2.6921   20.6173  -30.3905 H   0  0  0  0  0  0  0  0  0  0  0  0
   -0.2495   20.1590  -30.5796 H   0  0  0  0  0  0  0  0  0  0  0  0
    0.8503   20.1266  -32.8190 H   0  0  0  0  0  0  0  0  0  0  0  0
   -0.4950   20.5558  -34.8777 H   0  0  0  0  0  0  0  0  0  0  0  0
   -2.9383   21.0233  -34.7006 H   0  0  0  0  0  0  0  0  0  0  0  0
   -2.9771   23.0543  -31.2784 H   0  0  0  0  0  0  0  0  0  0  0  0
  1  2  1  0
  2  3  1  0
  3  4  2  0
  3  5  1  0
  5  6  1  0
  6  7  2  0
  7  8  1  0
  8  9  2  0
  9 10  1  0
 10 11  1  0
 11 12  1  0
 11 13  2  0
  9 14  1  0
 14 15  1  0
 15 16  2  0
 15 17  1  0
 17 18  2  0
 18 19  1  0
 19 20  2  0
 20 21  1  0
 21 22  2  0
 14 23  2  0
 23  6  1  0
 22 17  1  0
  1 24  1  0
  1 25  1  0
  1 26  1  0
  2 27  1  0
  2 28  1  0
  7 29  1  0
  8 30  1  0
 10 31  1  0
 12 32  1  0
 12 33  1  0
 12 34  1  0
 18 35  1  0
 19 36  1  0
 20 37  1  0
 21 38  1  0
 22 39  1  0
 23 40  1  0
M  CHG  1   5  -1
M  END
>  <UniqueID>  (4) 
3

>  <SMILES>  (4) 
CCC(=O)[N-]c1ccc(NC(C)=O)c(C(=O)c2ccccc2)c1

>  <Energy>  (4) 
49.113061649898526

>  <Genealogy>  (4) 
CCC(=O)[N-]c1ccc(NC(C)=O)c(C(=O)c2ccccc2)c1 (protonated)
CCC(=O)[N-]c1ccc(NC(C)=O)c(C(=O)c2ccccc2)c1 (3D coordinates assigned)
CCC(=O)[N-]c1ccc(NC(C)=O)c(C(=O)c2ccccc2)c1 (optimized conformer: 49.113061649898526 kcal/mol)

>  <smiles>  (4) 
CCC(=O)Nc1ccc(NC(C)=O)c(C(=O)c2ccccc2)c1

>  <score_type>  (4) 
oracle

>  <origin>  (4) 
adgpu

>  <m_score__min__energy>  (4) 
-10.17

>  <m_primary>  (4) 
energy

$$$$
4:0
     RDKit          3D

 68 73  0  0  0  0  0  0  0  0999 V2000
    1.0390   15.9520  -26.7330 N   0  0  0  0  0  0  0  0  0  0  0  0
    0.9380   16.6830  -27.6240 C   0  0  0  0  0  0  0  0  0  0  0  0
    0.8110   17.5950  -28.7300 C   0  0  0  0  0  0  0  0  0  0  0  0
    0.5520   17.1070  -30.0160 C   0  0  0  0  0  0  0  0  0  0  0  0
    0.4020   17.9930  -31.0870 C   0  0  0  0  0  0  0  0  0  0  0  0
    0.4960   19.3800  -30.8790 C   0  0  0  0  0  0  0  0  0  0  0  0
    0.3040   20.3380  -32.0260 C   0  0  0  0  0  0  0  0  0  0  0  0
   -0.9690   20.0860  -32.7080 N   0  0  0  0  0  0  0  0  0  0  0  0
   -1.2090   19.0920  -33.5880 C   0  0  0  0  0  0  0  0  0  0  0  0
   -2.4850   19.0760  -34.0260 N   0  0  0  0  0  0  0  0  0  0  0  0
   -3.0720   20.1090  -33.3900 C   0  0  0  0  0  0  0  0  0  0  0  0
   -2.1460   20.7360  -32.5820 C   0  0  0  0  0  0  0  0  0  0  0  0
   -2.4380   21.9050  -31.6790 C   0  0  0  0  0  0  0  0  0  0  0  0
   -3.1510   21.4920  -30.4570 N   0  0  0  0  0  0  0  0  0  0  0  0
   -4.6000   21.2480  -30.4890 C   0  0  0  0  0  0  0  0  0  0  0  0
   -5.3240   22.4280  -31.0730 C   0  0  0  0  0  0  0  0  0  0  0  0
   -4.8700   23.7280  -31.0710 C   0  0  0  0  0  0  0  0  0  0  0  0
   -5.8050   24.5310  -31.6160 N   0  0  0  0  0  0  0  0  0  0  0  0
   -6.8220   23.7000  -31.9260 C   0  0  0  0  0  0  0  0  0  0  0  0
   -6.5660   22.4180  -31.5970 N   0  0  0  0  0  0  0  0  0  0  0  0
   -7.4990   21.2960  -31.7110 C   0  0  0  0  0  0  0  0  0  0  0  0
   -6.8350   20.0920  -32.3250 C   0  0  0  0  0  0  0  0  0  0  0  0
   -6.5010   20.0840  -33.6900 C   0  0  0  0  0  0  0  0  0  0  0  0
   -5.9590   18.9350  -34.2760 C   0  0  0  0  0  0  0  0  0  0  0  0
   -5.7610   17.7820  -33.5080 C   0  0  0  0  0  0  0  0  0  0  0  0
   -5.2070   16.5980  -34.1120 C   0  0  0  0  0  0  0  0  0  0  0  0
   -4.7630   15.6470  -34.5980 N   0  0  0  0  0  0  0  0  0  0  0  0
   -6.0930   17.7830  -32.1480 C   0  0  0  0  0  0  0  0  0  0  0  0
   -6.6280   18.9330  -31.5590 C   0  0  0  0  0  0  0  0  0  0  0  0
   -2.4600   21.4290  -29.1930 C   0  0  0  0  0  0  0  0  0  0  0  0
   -2.4300   20.2050  -28.5100 C   0  0  0  0  0  0  0  0  0  0  0  0
   -1.8640   20.1070  -27.2410 C   0  0  0  0  0  0  0  0  0  0  0  0
   -1.2840   21.2240  -26.6430 C   0  0  0  0  0  0  0  0  0  0  0  0
   -1.2710   22.4550  -27.3140 C   0  0  0  0  0  0  0  0  0  0  0  0
   -0.6680   23.5730  -26.7170 C   0  0  0  0  0  0  0  0  0  0  0  0
   -0.6570   24.8030  -27.3780 C   0  0  0  0  0  0  0  0  0  0  0  0
   -1.2480   24.9250  -28.6350 C   0  0  0  0  0  0  0  0  0  0  0  0
   -1.8520   23.8220  -29.2420 C   0  0  0  0  0  0  0  0  0  0  0  0
   -1.8710   22.5710  -28.5970 C   0  0  0  0  0  0  0  0  0  0  0  0
    0.7990   19.8600  -29.5940 C   0  0  0  0  0  0  0  0  0  0  0  0
    0.9440   18.9720  -28.5240 C   0  0  0  0  0  0  0  0  0  0  0  0
    0.4662   16.0234  -30.1845 H   0  0  0  0  0  0  0  0  0  0  0  0
    0.2095   17.6028  -32.0973 H   0  0  0  0  0  0  0  0  0  0  0  0
    0.3085   21.3680  -31.6400 H   0  0  0  0  0  0  0  0  0  0  0  0
    1.1236   20.1948  -32.7456 H   0  0  0  0  0  0  0  0  0  0  0  0
   -0.4451   18.3708  -33.9140 H   0  0  0  0  0  0  0  0  0  0  0  0
   -4.1256   20.4061  -33.4983 H   0  0  0  0  0  0  0  0  0  0  0  0
   -1.4876   22.3792  -31.3929 H   0  0  0  0  0  0  0  0  0  0  0  0
   -3.0824   22.6070  -32.2284 H   0  0  0  0  0  0  0  0  0  0  0  0
   -4.8031   20.3590  -31.1042 H   0  0  0  0  0  0  0  0  0  0  0  0
   -4.9549   21.0889  -29.4600 H   0  0  0  0  0  0  0  0  0  0  0  0
   -3.8951   24.0597  -30.6844 H   0  0  0  0  0  0  0  0  0  0  0  0
   -7.7590   24.0328  -32.3965 H   0  0  0  0  0  0  0  0  0  0  0  0
   -7.8647   21.0309  -30.7080 H   0  0  0  0  0  0  0  0  0  0  0  0
   -8.3320   21.6020  -32.3609 H   0  0  0  0  0  0  0  0  0  0  0  0
   -6.6663   20.9844  -34.2999 H   0  0  0  0  0  0  0  0  0  0  0  0
   -5.6881   18.9379  -35.3421 H   0  0  0  0  0  0  0  0  0  0  0  0
   -5.9330   16.8788  -31.5424 H   0  0  0  0  0  0  0  0  0  0  0  0
   -6.8881   18.9299  -30.4902 H   0  0  0  0  0  0  0  0  0  0  0  0
   -2.8595   19.3095  -28.9829 H   0  0  0  0  0  0  0  0  0  0  0  0
   -1.8749   19.1443  -26.7090 H   0  0  0  0  0  0  0  0  0  0  0  0
   -0.8353   21.1398  -25.6422 H   0  0  0  0  0  0  0  0  0  0  0  0
   -0.2024   23.4799  -25.7248 H   0  0  0  0  0  0  0  0  0  0  0  0
   -0.1819   25.6761  -26.9068 H   0  0  0  0  0  0  0  0  0  0  0  0
   -1.2384   25.8961  -29.1516 H   0  0  0  0  0  0  0  0  0  0  0  0
   -2.3170   23.9317  -30.2328 H   0  0  0  0  0  0  0  0  0  0  0  0
    0.9228   20.9405  -29.4288 H   0  0  0  0  0  0  0  0  0  0  0  0
    1.1633   19.3573  -27.5173 H   0  0  0  0  0  0  0  0  0  0  0  0
  1  2  3  0
  2  3  1  0
  3  4  2  0
  4  5  1  0
  5  6  2  0
  6  7  1  0
  7  8  1  0
  8  9  1  0
  9 10  2  0
 10 11  1  0
 11 12  2  0
 12 13  1  0
 13 14  1  0
 14 15  1  0
 15 16  1  0
 16 17  2  0
 17 18  1  0
 18 19  2  0
 19 20  1  0
 20 21  1  0
 21 22  1  0
 22 23  2  0
 23 24  1  0
 24 25  2  0
 25 26  1  0
 26 27  3  0
 25 28  1  0
 28 29  2  0
 14 30  1  0
 30 31  2  0
 31 32  1  0
 32 33  2  0
 33 34  1  0
 34 35  2  0
 35 36  1  0
 36 37  2  0
 37 38  1  0
 38 39  2  0
  6 40  1  0
 40 41  2  0
 41  3  1  0
 12  8  1  0
 20 16  1  0
 29 22  1  0
 39 30  1  0
 39 34  1  0
  4 42  1  0
  5 43  1  0
  7 44  1  0
  7 45  1  0
  9 46  1  0
 11 47  1  0
 13 48  1  0
 13 49  1  0
 15 50  1  0
 15 51  1  0
 17 52  1  0
 19 53  1  0
 21 54  1  0
 21 55  1  0
 23 56  1  0
 24 57  1  0
 28 58  1  0
 29 59  1  0
 31 60  1  0
 32 61  1  0
 33 62  1  0
 35 63  1  0
 36 64  1  0
 37 65  1  0
 38 66  1  0
 40 67  1  0
 41 68  1  0
M  END
>  <UniqueID>  (5) 
4

>  <SMILES>  (5) 
N#Cc1ccc(Cn2cncc2CN(Cc2cncn2Cc2ccc(C#N)cc2)c2cccc3ccccc23)cc1

>  <Energy>  (5) 
127.77795536228379

>  <Genealogy>  (5) 
N#Cc1ccc(Cn2cncc2CN(Cc2cncn2Cc2ccc(C#N)cc2)c2cccc3ccccc23)cc1 (3D coordinates assigned)
N#Cc1ccc(Cn2cncc2CN(Cc2cncn2Cc2ccc(C#N)cc2)c2cccc3ccccc23)cc1 (optimized conformer: 127.77795536228379 kcal/mol)

>  <smiles>  (5) 
N#Cc1ccc(Cn2cncc2CN(Cc2cncn2Cc2ccc(C#N)cc2)c2cccc3ccccc23)cc1

>  <score_type>  (5) 
oracle

>  <origin>  (5) 
adgpu

>  <m_score__min__energy>  (5) 
-11.279999999999999

>  <m_primary>  (5) 
energy

$$$$
5:0
     RDKit          3D

 52 54  0  0  0  0  0  0  0  0999 V2000
   -1.6740   19.7790  -29.4310 C   0  0  0  0  0  0  0  0  0  0  0  0
   -1.7130   19.4600  -27.9980 N   0  0  0  0  0  0  0  0  0  0  0  0
   -3.0990   19.4830  -27.5140 C   0  0  0  0  0  0  0  0  0  0  0  0
   -0.7530   20.6150  -27.1070 S   0  0  0  0  0  0  0  0  0  0  0  0
    0.6900   20.1960  -27.1370 O   0  0  0  0  0  0  0  0  0  0  0  0
   -1.2010   20.6350  -25.6710 O   0  0  0  0  0  0  0  0  0  0  0  0
   -0.9010   22.2380  -27.7840 C   0  0  0  0  0  0  0  0  0  0  0  0
    0.2390   23.0230  -27.9930 C   0  0  0  0  0  0  0  0  0  0  0  0
    0.1170   24.3160  -28.5040 C   0  0  0  0  0  0  0  0  0  0  0  0
   -1.1450   24.8410  -28.7990 C   0  0  0  0  0  0  0  0  0  0  0  0
   -1.2380   26.1180  -29.3420 O   0  0  0  0  0  0  0  0  0  0  0  0
   -2.3000   24.0680  -28.5640 C   0  0  0  0  0  0  0  0  0  0  0  0
   -3.6170   24.5830  -28.8100 N   0  0  0  0  0  0  0  0  0  0  0  0
   -4.2540   24.6550  -30.0930 C   0  0  0  0  0  0  0  0  0  0  0  0
   -3.9180   25.5760  -30.8830 O   0  0  0  0  0  0  0  0  0  0  0  0
   -5.2640   23.6580  -30.5220 C   0  0  0  0  0  0  0  0  0  0  0  0
   -5.0910   22.9230  -31.7090 C   0  0  0  0  0  0  0  0  0  0  0  0
   -6.0320   21.9630  -32.0880 C   0  0  0  0  0  0  0  0  0  0  0  0
   -7.1630   21.7320  -31.2980 C   0  0  0  0  0  0  0  0  0  0  0  0
   -8.3080   20.4790  -31.7670 S   0  0  0  0  0  0  0  0  0  0  0  0
   -9.0500   19.9750  -30.5590 O   0  0  0  0  0  0  0  0  0  0  0  0
   -9.2970   21.0690  -32.7340 O   0  0  0  0  0  0  0  0  0  0  0  0
   -7.4500   19.1650  -32.5310 N   0  0  0  0  0  0  0  0  0  0  0  0
   -6.8250   19.6300  -33.7830 C   0  0  0  0  0  0  0  0  0  0  0  0
   -5.8280   18.5850  -34.3220 C   0  0  0  0  0  0  0  0  0  0  0  0
   -5.9910   17.3440  -33.6670 O   0  0  0  0  0  0  0  0  0  0  0  0
   -5.6590   17.4800  -32.2950 C   0  0  0  0  0  0  0  0  0  0  0  0
   -6.4280   18.6340  -31.6180 C   0  0  0  0  0  0  0  0  0  0  0  0
   -7.3540   22.4810  -30.1280 C   0  0  0  0  0  0  0  0  0  0  0  0
   -6.4150   23.4420  -29.7470 C   0  0  0  0  0  0  0  0  0  0  0  0
   -2.1660   22.7600  -28.0870 C   0  0  0  0  0  0  0  0  0  0  0  0
   -1.5415   20.8631  -29.5618 H   0  0  0  0  0  0  0  0  0  0  0  0
   -0.8342   19.2474  -29.9023 H   0  0  0  0  0  0  0  0  0  0  0  0
   -2.6172   19.4654  -29.9023 H   0  0  0  0  0  0  0  0  0  0  0  0
   -3.1033   19.4831  -26.4140 H   0  0  0  0  0  0  0  0  0  0  0  0
   -3.6011   20.3896  -27.8827 H   0  0  0  0  0  0  0  0  0  0  0  0
   -3.6309   18.5936  -27.8827 H   0  0  0  0  0  0  0  0  0  0  0  0
    1.2340   22.6196  -27.7538 H   0  0  0  0  0  0  0  0  0  0  0  0
    1.0172   24.9245  -28.6754 H   0  0  0  0  0  0  0  0  0  0  0  0
   -4.2100   23.1053  -32.3419 H   0  0  0  0  0  0  0  0  0  0  0  0
   -5.8830   21.3857  -33.0124 H   0  0  0  0  0  0  0  0  0  0  0  0
   -7.6093   19.8008  -34.5351 H   0  0  0  0  0  0  0  0  0  0  0  0
   -6.2794   20.5628  -33.5778 H   0  0  0  0  0  0  0  0  0  0  0  0
   -5.9986   18.4478  -35.4000 H   0  0  0  0  0  0  0  0  0  0  0  0
   -4.8062   18.9475  -34.1363 H   0  0  0  0  0  0  0  0  0  0  0  0
   -5.9029   16.5406  -31.7772 H   0  0  0  0  0  0  0  0  0  0  0  0
   -4.5848   17.7075  -32.2296 H   0  0  0  0  0  0  0  0  0  0  0  0
   -6.9147   18.2604  -30.7050 H   0  0  0  0  0  0  0  0  0  0  0  0
   -5.7207   19.4371  -31.3637 H   0  0  0  0  0  0  0  0  0  0  0  0
   -8.2466   22.3110  -29.5081 H   0  0  0  0  0  0  0  0  0  0  0  0
   -6.5780   24.0335  -28.8340 H   0  0  0  0  0  0  0  0  0  0  0  0
   -3.0610   22.1357  -27.9485 H   0  0  0  0  0  0  0  0  0  0  0  0
  1  2  1  0
  2  3  1  0
  2  4  1  0
  4  5  2  0
  4  6  2  0
  4  7  1  0
  7  8  2  0
  8  9  1  0
  9 10  2  0
 10 11  1  0
 10 12  1  0
 12 13  1  0
 13 14  1  0
 14 15  2  0
 14 16  1  0
 16 17  2  0
 17 18  1  0
 18 19  2  0
 19 20  1  0
 20 21  2  0
 20 22  2  0
 20 23  1  0
 23 24  1  0
 24 25  1  0
 25 26  1  0
 26 27  1  0
 27 28  1  0
 19 29  1  0
 29 30  2  0
 12 31  2  0
 31  7  1  0
 30 16  1  0
 28 23  1  0
  1 32  1  0
  1 33  1  0
  1 34  1  0
  3 35  1  0
  3 36  1  0
  3 37  1  0
  8 38  1  0
  9 39  1  0
 17 40  1  0
 18 41  1  0
 24 42  1  0
 24 43  1  0
 25 44  1  0
 25 45  1  0
 27 46  1  0
 27 47  1  0
 28 48  1  0
 28 49  1  0
 29 50  1  0
 30 51  1  0
 31 52  1  0
M  CHG  2  11  -1  13  -1
M  END
>  <UniqueID>  (6) 
5

>  <SMILES>  (6) 
CN(C)S(=O)(=O)c1ccc([O-])c([N-]C(=O)c2ccc(S(=O)(=O)N3CCOCC3)cc2)c1

>  <Energy>  (6) 
65.68315194629892

>  <Genealogy>  (6) 
CN(C)S(=O)(=O)c1ccc([O-])c([N-]C(=O)c2ccc(S(=O)(=O)N3CCOCC3)cc2)c1 (protonated)
CN(C)S(=O)(=O)c1ccc([O-])c([N-]C(=O)c2ccc(S(=O)(=O)N3CCOCC3)cc2)c1 (3D coordinates assigned)
CN(C)S(=O)(=O)c1ccc([O-])c([N-]C(=O)c2ccc(S(=O)(=O)N3CCOCC3)cc2)c1 (nonaromatic ring conformer: 65.68315194629892 kcal/mol)

>  <smiles>  (6) 
CN(C)S(=O)(=O)c1ccc(O)c(NC(=O)c2ccc(S(=O)(=O)N3CCOCC3)cc2)c1

>  <score_type>  (6) 
oracle

>  <origin>  (6) 
adgpu

>  <m_score__min__energy>  (6) 
-15

>  <m_primary>  (6) 
energy

$$$$
6:0
     RDKit          3D

 48 51  0  0  0  0  0  0  0  0999 V2000
   -8.2050   21.7950  -30.3230 O   0  0  0  0  0  0  0  0  0  0  0  0
   -7.6850   22.5580  -31.5090 S   0  0  0  0  0  0  0  0  0  0  0  0
   -8.7430   23.5340  -31.9390 O   0  0  0  0  0  0  0  0  0  0  0  0
   -7.3250   21.4290  -32.7760 N   0  0  0  0  0  0  0  0  0  0  0  0
   -6.8360   20.0960  -32.5820 C   0  0  0  0  0  0  0  0  0  0  0  0
   -7.6190   19.0670  -32.0100 C   0  0  0  0  0  0  0  0  0  0  0  0
   -7.0900   17.7670  -31.8460 C   0  0  0  0  0  0  0  0  0  0  0  0
   -5.7740   17.4770  -32.2440 C   0  0  0  0  0  0  0  0  0  0  0  0
   -5.0210   18.5100  -32.7940 C   0  0  0  0  0  0  0  0  0  0  0  0
   -3.7320   18.5150  -33.2790 C   0  0  0  0  0  0  0  0  0  0  0  0
   -3.5160   19.8150  -33.7210 C   0  0  0  0  0  0  0  0  0  0  0  0
   -4.6140   20.5800  -33.5210 N   0  0  0  0  0  0  0  0  0  0  0  0
   -5.5270   19.7740  -32.9520 C   0  0  0  0  0  0  0  0  0  0  0  0
   -6.2050   23.4050  -31.0610 C   0  0  0  0  0  0  0  0  0  0  0  0
   -6.2570   24.7020  -30.5340 C   0  0  0  0  0  0  0  0  0  0  0  0
   -5.0880   25.3300  -30.0980 C   0  0  0  0  0  0  0  0  0  0  0  0
   -3.8620   24.6590  -30.1590 C   0  0  0  0  0  0  0  0  0  0  0  0
   -2.7190   25.2950  -29.6890 O   0  0  0  0  0  0  0  0  0  0  0  0
   -3.8010   23.3540  -30.6810 C   0  0  0  0  0  0  0  0  0  0  0  0
   -2.2890   22.4320  -30.6940 S   0  0  0  0  0  0  0  0  0  0  0  0
   -1.1260   23.3600  -30.4740 O   0  0  0  0  0  0  0  0  0  0  0  0
   -2.1160   21.7900  -32.0420 O   0  0  0  0  0  0  0  0  0  0  0  0
   -2.2860   21.1940  -29.4610 N   0  0  0  0  0  0  0  0  0  0  0  0
   -0.9350   21.0320  -28.9000 C   0  0  0  0  0  0  0  0  0  0  0  0
   -0.8740   19.7900  -27.9900 C   0  0  0  0  0  0  0  0  0  0  0  0
   -2.2570   19.3800  -27.4600 C   0  0  0  0  0  0  0  0  0  0  0  0
   -3.1180   20.6090  -27.1620 C   0  0  0  0  0  0  0  0  0  0  0  0
   -3.2590   21.5260  -28.3990 C   0  0  0  0  0  0  0  0  0  0  0  0
   -4.9730   22.7460  -31.1510 C   0  0  0  0  0  0  0  0  0  0  0  0
   -8.6495   19.2804  -31.6897 H   0  0  0  0  0  0  0  0  0  0  0  0
   -7.7132   16.9760  -31.4034 H   0  0  0  0  0  0  0  0  0  0  0  0
   -5.3532   16.4677  -32.1249 H   0  0  0  0  0  0  0  0  0  0  0  0
   -3.0259   17.6721  -33.3099 H   0  0  0  0  0  0  0  0  0  0  0  0
   -2.5791   20.1734  -34.1724 H   0  0  0  0  0  0  0  0  0  0  0  0
   -4.7250   21.5890  -33.7670 H   0  0  0  0  0  0  0  0  0  0  0  0
   -7.2209   25.2272  -30.4634 H   0  0  0  0  0  0  0  0  0  0  0  0
   -5.1316   26.3565  -29.7050 H   0  0  0  0  0  0  0  0  0  0  0  0
   -0.2134   20.9144  -29.7219 H   0  0  0  0  0  0  0  0  0  0  0  0
   -0.6883   21.9226  -28.3034 H   0  0  0  0  0  0  0  0  0  0  0  0
   -0.4539   18.9517  -28.5651 H   0  0  0  0  0  0  0  0  0  0  0  0
   -0.2451   20.0414  -27.1233 H   0  0  0  0  0  0  0  0  0  0  0  0
   -2.7628   18.7615  -28.2161 H   0  0  0  0  0  0  0  0  0  0  0  0
   -2.1203   18.8140  -26.5267 H   0  0  0  0  0  0  0  0  0  0  0  0
   -4.1188   20.2754  -26.8504 H   0  0  0  0  0  0  0  0  0  0  0  0
   -2.6265   21.1850  -26.3641 H   0  0  0  0  0  0  0  0  0  0  0  0
   -4.2756   21.4176  -28.8050 H   0  0  0  0  0  0  0  0  0  0  0  0
   -3.0621   22.5586  -28.0749 H   0  0  0  0  0  0  0  0  0  0  0  0
   -4.9244   21.7408  -31.5951 H   0  0  0  0  0  0  0  0  0  0  0  0
  1  2  2  0
  2  3  2  0
  2  4  1  0
  4  5  1  0
  5  6  2  0
  6  7  1  0
  7  8  2  0
  8  9  1  0
  9 10  1  0
 10 11  2  0
 11 12  1  0
 12 13  1  0
  2 14  1  0
 14 15  2  0
 15 16  1  0
 16 17  2  0
 17 18  1  0
 17 19  1  0
 19 20  1  0
 20 21  2  0
 20 22  2  0
 20 23  1  0
 23 24  1  0
 24 25  1  0
 25 26  1  0
 26 27  1  0
 27 28  1  0
 19 29  2  0
 13  5  1  0
 29 14  1  0
 13  9  2  0
 28 23  1  0
  6 30  1  0
  7 31  1  0
  8 32  1  0
 10 33  1  0
 11 34  1  0
 12 35  1  0
 15 36  1  0
 16 37  1  0
 24 38  1  0
 24 39  1  0
 25 40  1  0
 25 41  1  0
 26 42  1  0
 26 43  1  0
 27 44  1  0
 27 45  1  0
 28 46  1  0
 28 47  1  0
 29 48  1  0
M  CHG  2   4  -1  18  -1
M  END
>  <UniqueID>  (7) 
6

>  <SMILES>  (7) 
O=S(=O)([N-]c1cccc2cc[nH]c12)c1ccc([O-])c(S(=O)(=O)N2CCCCC2)c1

>  <Energy>  (7) 
88.77545443440788

>  <Genealogy>  (7) 
O=S(=O)([N-]c1cccc2cc[nH]c12)c1ccc([O-])c(S(=O)(=O)N2CCCCC2)c1 (protonated)
O=S(=O)([N-]c1cccc2cc[nH]c12)c1ccc([O-])c(S(=O)(=O)N2CCCCC2)c1 (3D coordinates assigned)
O=S(=O)([N-]c1cccc2cc[nH]c12)c1ccc([O-])c(S(=O)(=O)N2CCCCC2)c1 (nonaromatic ring conformer: 88.77545443440788 kcal/mol)

>  <smiles>  (7) 
O=S(=O)(Nc1cccc2cc[nH]c12)c1ccc(O)c(S(=O)(=O)N2CCCCC2)c1

>  <score_type>  (7) 
oracle

>  <origin>  (7) 
adgpu

>  <m_score__min__energy>  (7) 
-12.880000000000001

>  <m_primary>  (7) 
energy

$$$$
7:0
     RDKit          3D

 48 51  0  0  0  0  0  0  0  0999 V2000
   -6.2660   18.0050  -31.2350 C   0  0  0  0  0  0  0  0  0  0  0  0
   -6.8910   18.4300  -32.5000 N   0  0  0  0  0  0  0  0  0  0  0  0
   -8.3590   18.5480  -32.3980 C   0  0  0  0  0  0  0  0  0  0  0  0
   -8.7930   19.6630  -31.4340 C   0  0  0  0  0  0  0  0  0  0  0  0
   -7.9880   20.9220  -31.6130 C   0  0  0  0  0  0  0  0  0  0  0  0
   -8.4300   22.1090  -31.0110 C   0  0  0  0  0  0  0  0  0  0  0  0
   -7.6740   23.2790  -31.1130 C   0  0  0  0  0  0  0  0  0  0  0  0
   -6.4540   23.2780  -31.7950 C   0  0  0  0  0  0  0  0  0  0  0  0
   -5.7250   24.5090  -31.8970 N   0  0  0  0  0  0  0  0  0  0  0  0
   -5.2350   25.3090  -30.8120 C   0  0  0  0  0  0  0  0  0  0  0  0
   -6.0200   26.0310  -30.1430 O   0  0  0  0  0  0  0  0  0  0  0  0
   -3.8460   25.2950  -30.4680 N   0  0  0  0  0  0  0  0  0  0  0  0
   -3.1920   24.3380  -29.6210 C   0  0  0  0  0  0  0  0  0  0  0  0
   -3.5970   22.9960  -29.5830 C   0  0  0  0  0  0  0  0  0  0  0  0
   -2.9200   22.0790  -28.7820 C   0  0  0  0  0  0  0  0  0  0  0  0
   -1.8270   22.4810  -28.0090 C   0  0  0  0  0  0  0  0  0  0  0  0
   -0.9950   21.2450  -27.0710 Cl  0  0  0  0  0  0  0  0  0  0  0  0
   -1.3980   23.8290  -28.0370 C   0  0  0  0  0  0  0  0  0  0  0  0
   -0.0000   24.3550  -27.0680 S   0  0  0  0  0  0  0  0  0  0  0  0
    0.4160   23.2650  -26.1210 O   0  0  0  0  0  0  0  0  0  0  0  0
    1.1610   24.6210  -27.9830 O   0  0  0  0  0  0  0  0  0  0  0  0
   -0.3240   25.8370  -26.1100 C   0  0  0  0  0  0  0  0  0  0  0  0
   -0.8520   25.5530  -24.7120 C   0  0  0  0  0  0  0  0  0  0  0  0
   -1.7740   26.1430  -25.7650 C   0  0  0  0  0  0  0  0  0  0  0  0
   -2.0770   24.7440  -28.8710 C   0  0  0  0  0  0  0  0  0  0  0  0
   -1.6530   26.0660  -28.9650 O   0  0  0  0  0  0  0  0  0  0  0  0
   -6.0120   22.0950  -32.4130 C   0  0  0  0  0  0  0  0  0  0  0  0
   -6.7580   20.9100  -32.3030 C   0  0  0  0  0  0  0  0  0  0  0  0
   -6.2860   19.6690  -33.0260 C   0  0  0  0  0  0  0  0  0  0  0  0
   -6.8467   18.3999  -30.3883 H   0  0  0  0  0  0  0  0  0  0  0  0
   -6.2474   16.9062  -31.1862 H   0  0  0  0  0  0  0  0  0  0  0  0
   -5.2373   18.3916  -31.1862 H   0  0  0  0  0  0  0  0  0  0  0  0
   -8.7658   18.7665  -33.3964 H   0  0  0  0  0  0  0  0  0  0  0  0
   -8.7447   17.5961  -32.0042 H   0  0  0  0  0  0  0  0  0  0  0  0
   -9.8534   19.8931  -31.6146 H   0  0  0  0  0  0  0  0  0  0  0  0
   -8.6277   19.3024  -30.4080 H   0  0  0  0  0  0  0  0  0  0  0  0
   -9.3788   22.1187  -30.4545 H   0  0  0  0  0  0  0  0  0  0  0  0
   -8.0415   24.2082  -30.6531 H   0  0  0  0  0  0  0  0  0  0  0  0
   -4.4537   22.6656  -30.1888 H   0  0  0  0  0  0  0  0  0  0  0  0
   -3.2485   21.0295  -28.7577 H   0  0  0  0  0  0  0  0  0  0  0  0
    0.4904   26.4274  -26.5551 H   0  0  0  0  0  0  0  0  0  0  0  0
   -0.9925   24.5145  -24.3778 H   0  0  0  0  0  0  0  0  0  0  0  0
   -0.5504   25.8401  -23.6939 H   0  0  0  0  0  0  0  0  0  0  0  0
   -2.5820   25.5316  -26.1933 H   0  0  0  0  0  0  0  0  0  0  0  0
   -2.4162   27.0340  -25.8250 H   0  0  0  0  0  0  0  0  0  0  0  0
   -5.0740   22.0975  -32.9875 H   0  0  0  0  0  0  0  0  0  0  0  0
   -6.5478   19.7625  -34.0903 H   0  0  0  0  0  0  0  0  0  0  0  0
   -5.1989   19.5940  -32.8755 H   0  0  0  0  0  0  0  0  0  0  0  0
  1  2  1  0
  2  3  1  0
  3  4  1  0
  4  5  1  0
  5  6  2  0
  6  7  1  0
  7  8  2  0
  8  9  1  0
  9 10  1  0
 10 11  2  0
 10 12  1  0
 12 13  1  0
 13 14  2  0
 14 15  1  0
 15 16  2  0
 16 17  1  0
 16 18  1  0
 18 19  1  0
 19 20  2  0
 19 21  2  0
 19 22  1  0
 22 23  1  0
 23 24  1  0
 18 25  2  0
 25 26  1  0
  8 27  1  0
 27 28  2  0
 28 29  1  0
 29  2  1  0
 28  5  1  0
 25 13  1  0
 24 22  1  0
  1 30  1  0
  1 31  1  0
  1 32  1  0
  3 33  1  0
  3 34  1  0
  4 35  1  0
  4 36  1  0
  6 37  1  0
  7 38  1  0
 14 39  1  0
 15 40  1  0
 22 41  1  0
 23 42  1  0
 23 43  1  0
 24 44  1  0
 24 45  1  0
 27 46  1  0
 29 47  1  0
 29 48  1  0
M  CHG  3   9  -1  12  -1  26  -1
M  END
>  <UniqueID>  (8) 
7

>  <SMILES>  (8) 
CN1CCc2ccc([N-]C(=O)[N-]c3ccc(Cl)c(S(=O)(=O)C4CC4)c3[O-])cc2C1

>  <Energy>  (8) 
329.68537501750615

>  <Genealogy>  (8) 
CN1CCc2ccc([N-]C(=O)[N-]c3ccc(Cl)c(S(=O)(=O)C4CC4)c3[O-])cc2C1 (protonated)
CN1CCc2ccc([N-]C(=O)[N-]c3ccc(Cl)c(S(=O)(=O)C4CC4)c3[O-])cc2C1 (3D coordinates assigned)
CN1CCc2ccc([N-]C(=O)[N-]c3ccc(Cl)c(S(=O)(=O)C4CC4)c3[O-])cc2C1 (nonaromatic ring conformer: 329.68537501750615 kcal/mol)

>  <smiles>  (8) 
CN1CCc2ccc(NC(=O)Nc3ccc(Cl)c(S(=O)(=O)C4CC4)c3O)cc2C1

>  <score_type>  (8) 
oracle

>  <origin>  (8) 
adgpu

>  <m_score__min__energy>  (8) 
-16.359999999999999

>  <m_primary>  (8) 
energy

$$$$
8:0
     RDKit          3D

 48 50  0  0  0  0  0  0  0  0999 V2000
   -8.7360   18.6200  -31.5780 C   0  0  0  0  0  0  0  0  0  0  0  0
   -7.6950   19.4470  -32.8200 S   0  0  0  0  0  0  0  0  0  0  0  0
   -6.1820   18.5250  -32.9310 C   0  0  0  0  0  0  0  0  0  0  0  0
   -6.0830   17.2100  -32.6800 N   0  0  0  0  0  0  0  0  0  0  0  0
   -4.9100   16.5420  -32.7760 C   0  0  0  0  0  0  0  0  0  0  0  0
   -4.9210   15.1370  -32.4850 C   0  0  0  0  0  0  0  0  0  0  0  0
   -4.9280   13.9930  -32.2680 N   0  0  0  0  0  0  0  0  0  0  0  0
   -3.7650   17.1800  -33.1350 N   0  0  0  0  0  0  0  0  0  0  0  0
   -3.8400   18.4990  -33.3920 C   0  0  0  0  0  0  0  0  0  0  0  0
   -2.7460   19.1180  -33.7370 N   0  0  0  0  0  0  0  0  0  0  0  0
   -5.0280   19.1950  -33.2990 C   0  0  0  0  0  0  0  0  0  0  0  0
   -5.0950   20.5940  -33.5730 N   0  0  0  0  0  0  0  0  0  0  0  0
   -5.2610   21.4430  -32.4230 C   0  0  0  0  0  0  0  0  0  0  0  0
   -5.3300   20.8780  -31.2970 O   0  0  0  0  0  0  0  0  0  0  0  0
   -5.3430   22.8530  -32.5390 N   0  0  0  0  0  0  0  0  0  0  0  0
   -5.5070   23.6030  -31.3360 C   0  0  0  0  0  0  0  0  0  0  0  0
   -6.6910   24.2310  -31.0100 C   0  0  0  0  0  0  0  0  0  0  0  0
   -6.7170   24.9260  -29.8120 C   0  0  0  0  0  0  0  0  0  0  0  0
   -5.6260   25.0010  -28.9670 C   0  0  0  0  0  0  0  0  0  0  0  0
   -4.4500   24.3720  -29.3000 C   0  0  0  0  0  0  0  0  0  0  0  0
   -3.0150   24.3970  -28.3210 S   0  0  0  0  0  0  0  0  0  0  0  0
   -1.9960   25.2970  -28.9670 O   0  0  0  0  0  0  0  0  0  0  0  0
   -3.3760   24.9270  -26.9630 O   0  0  0  0  0  0  0  0  0  0  0  0
   -2.3440   22.8220  -28.2150 N   0  0  0  0  0  0  0  0  0  0  0  0
   -1.7140   22.3930  -29.4220 C   0  0  0  0  0  0  0  0  0  0  0  0
   -2.1150   20.9430  -29.6570 C   0  0  0  0  0  0  0  0  0  0  0  0
   -2.6070   20.5440  -28.2780 C   0  0  0  0  0  0  0  0  0  0  0  0
   -3.3300   21.8230  -27.8760 C   0  0  0  0  0  0  0  0  0  0  0  0
   -4.3980   23.6690  -30.4940 C   0  0  0  0  0  0  0  0  0  0  0  0
   -8.3915   18.8937  -30.5698 H   0  0  0  0  0  0  0  0  0  0  0  0
   -9.7816   18.9364  -31.7066 H   0  0  0  0  0  0  0  0  0  0  0  0
   -8.6643   17.5299  -31.7066 H   0  0  0  0  0  0  0  0  0  0  0  0
   -2.8860   16.6500  -33.2010 H   0  0  0  0  0  0  0  0  0  0  0  0
   -1.8680   18.5820  -33.8010 H   0  0  0  0  0  0  0  0  0  0  0  0
   -5.0330   21.0090  -34.5130 H   0  0  0  0  0  0  0  0  0  0  0  0
   -5.2840   23.3140  -33.4870 H   0  0  0  0  0  0  0  0  0  0  0  0
   -7.5708   24.1824  -31.6685 H   0  0  0  0  0  0  0  0  0  0  0  0
   -7.6451   25.4398  -29.5210 H   0  0  0  0  0  0  0  0  0  0  0  0
   -5.6989   25.5654  -28.0257 H   0  0  0  0  0  0  0  0  0  0  0  0
   -2.0502   23.0168  -30.2634 H   0  0  0  0  0  0  0  0  0  0  0  0
   -0.6207   22.4847  -29.3422 H   0  0  0  0  0  0  0  0  0  0  0  0
   -2.9142   20.8629  -30.4086 H   0  0  0  0  0  0  0  0  0  0  0  0
   -1.3053   20.3091  -30.0475 H   0  0  0  0  0  0  0  0  0  0  0  0
   -3.2918   19.6842  -28.3216 H   0  0  0  0  0  0  0  0  0  0  0  0
   -1.8206   20.2174  -27.5816 H   0  0  0  0  0  0  0  0  0  0  0  0
   -4.2570   21.9600  -28.4521 H   0  0  0  0  0  0  0  0  0  0  0  0
   -3.6536   21.8470  -26.8249 H   0  0  0  0  0  0  0  0  0  0  0  0
   -3.4682   23.1560  -30.7809 H   0  0  0  0  0  0  0  0  0  0  0  0
  1  2  1  0
  2  3  1  0
  3  4  1  0
  4  5  2  0
  5  6  1  0
  6  7  3  0
  5  8  1  0
  8  9  1  0
  9 10  2  3
  9 11  1  0
 11 12  1  0
 12 13  1  0
 13 14  2  0
 13 15  1  0
 15 16  1  0
 16 17  2  0
 17 18  1  0
 18 19  2  0
 19 20  1  0
 20 21  1  0
 21 22  2  0
 21 23  2  0
 21 24  1  0
 24 25  1  0
 25 26  1  0
 26 27  1  0
 27 28  1  0
 20 29  2  0
 11  3  2  0
 29 16  1  0
 28 24  1  0
  1 30  1  0
  1 31  1  0
  1 32  1  0
  8 33  1  0
 10 34  1  0
 12 35  1  0
 15 36  1  0
 17 37  1  0
 18 38  1  0
 19 39  1  0
 25 40  1  0
 25 41  1  0
 26 42  1  0
 26 43  1  0
 27 44  1  0
 27 45  1  0
 28 46  1  0
 28 47  1  0
 29 48  1  0
M  END
>  <smiles>  (9) 
CSc1nc(C#N)[nH]c(=N)c1NC(=O)Nc1cccc(S(=O)(=O)N2CCCC2)c1

>  <score_type>  (9) 
oracle

>  <origin>  (9) 
adgpu

>  <m_score__min__energy>  (9) 
-9.1300000000000008

>  <m_primary>  (9) 
energy

$$$$
9:0
     RDKit          3D

 49 51  0  0  0  0  0  0  0  0999 V2000
    1.7370   21.0020  -28.0790 H   0  0  0  0  0  0  0  0  0  0  0  0
    0.7210   20.8100  -28.2340 N   0  0  0  0  0  0  0  0  0  0  0  0
   -0.1470   21.7550  -28.4070 C   0  0  0  0  0  0  0  0  0  0  0  0
   -1.4490   21.4330  -28.6020 N   0  0  0  0  0  0  0  0  0  0  0  0
   -2.4160   22.3720  -28.7890 C   0  0  0  0  0  0  0  0  0  0  0  0
   -3.8280   21.9030  -28.9920 C   0  0  0  0  0  0  0  0  0  0  0  0
   -4.3058   21.7443  -28.0140 H   0  0  0  0  0  0  0  0  0  0  0  0
   -4.3894   22.6629  -29.5554 H   0  0  0  0  0  0  0  0  0  0  0  0
   -3.8231   20.9582  -29.5554 H   0  0  0  0  0  0  0  0  0  0  0  0
   -2.0700   23.7460  -28.7890 C   0  0  0  0  0  0  0  0  0  0  0  0
   -3.1290   24.8160  -28.9660 C   0  0  0  0  0  0  0  0  0  0  0  0
   -4.0094   24.5589  -28.3587 H   0  0  0  0  0  0  0  0  0  0  0  0
   -2.7170   25.7834  -28.6429 H   0  0  0  0  0  0  0  0  0  0  0  0
   -3.5230   24.9130  -30.3670 N   0  0  0  0  0  0  0  0  0  0  0  0
   -4.8790   25.0380  -30.8060 C   0  0  0  0  0  0  0  0  0  0  0  0
   -5.4330   26.1690  -30.8500 O   0  0  0  0  0  0  0  0  0  0  0  0
   -5.6300   23.8400  -31.2050 C   0  0  0  0  0  0  0  0  0  0  0  0
   -6.9940   23.6450  -31.0790 C   0  0  0  0  0  0  0  0  0  0  0  0
   -7.7320   24.3608  -30.6879 H   0  0  0  0  0  0  0  0  0  0  0  0
   -7.2400   22.3670  -31.5450 C   0  0  0  0  0  0  0  0  0  0  0  0
   -8.5860   21.7150  -31.5940 C   0  0  0  0  0  0  0  0  0  0  0  0
   -8.9464   21.5404  -30.5695 H   0  0  0  0  0  0  0  0  0  0  0  0
   -9.2921   22.3709  -32.1243 H   0  0  0  0  0  0  0  0  0  0  0  0
   -8.5090   20.7543  -32.1243 H   0  0  0  0  0  0  0  0  0  0  0  0
   -6.0880   21.7960  -31.9570 N   0  0  0  0  0  0  0  0  0  0  0  0
   -5.8740   20.1880  -32.5710 S   0  0  0  0  0  0  0  0  0  0  0  0
   -6.4920   19.2000  -31.6210 O   0  0  0  0  0  0  0  0  0  0  0  0
   -6.5600   20.0560  -33.9030 O   0  0  0  0  0  0  0  0  0  0  0  0
   -4.1560   19.8720  -32.7730 C   0  0  0  0  0  0  0  0  0  0  0  0
   -3.6820   19.1480  -33.8780 C   0  0  0  0  0  0  0  0  0  0  0  0
   -4.3880   18.7797  -34.6369 H   0  0  0  0  0  0  0  0  0  0  0  0
   -2.3140   18.8940  -34.0160 C   0  0  0  0  0  0  0  0  0  0  0  0
   -1.9451   18.3266  -34.8831 H   0  0  0  0  0  0  0  0  0  0  0  0
   -1.4140   19.3610  -33.0520 C   0  0  0  0  0  0  0  0  0  0  0  0
   -0.3378   19.1615  -33.1621 H   0  0  0  0  0  0  0  0  0  0  0  0
   -1.8820   20.0810  -31.9490 C   0  0  0  0  0  0  0  0  0  0  0  0
   -1.1738   20.4479  -31.1915 H   0  0  0  0  0  0  0  0  0  0  0  0
   -3.2490   20.3350  -31.8080 C   0  0  0  0  0  0  0  0  0  0  0  0
   -3.6149   20.8996  -30.9378 H   0  0  0  0  0  0  0  0  0  0  0  0
   -5.0990   22.6840  -31.7440 C   0  0  0  0  0  0  0  0  0  0  0  0
   -4.0346   22.5156  -31.9646 H   0  0  0  0  0  0  0  0  0  0  0  0
   -0.7210   24.1060  -28.5830 C   0  0  0  0  0  0  0  0  0  0  0  0
   -0.3680   25.4670  -28.5730 O   0  0  0  0  0  0  0  0  0  0  0  0
   -0.4500   26.3200  -27.4360 C   0  0  0  0  0  0  0  0  0  0  0  0
   -0.3919   25.7153  -26.5190 H   0  0  0  0  0  0  0  0  0  0  0  0
    0.3833   27.0378  -27.4553 H   0  0  0  0  0  0  0  0  0  0  0  0
   -1.4048   26.8659  -27.4553 H   0  0  0  0  0  0  0  0  0  0  0  0
    0.2410   23.0990  -28.3940 C   0  0  0  0  0  0  0  0  0  0  0  0
    1.2962   23.3669  -28.2363 H   0  0  0  0  0  0  0  0  0  0  0  0
  1  2  1  0
  2  3  2  0
  3  4  1  0
  4  5  1  0
  5  6  1  0
  6  7  1  0
  6  8  1  0
  6  9  1  0
  5 10  2  0
 10 11  1  0
 11 12  1  0
 11 13  1  0
 11 14  1  0
 14 15  1  0
 15 16  2  0
 15 17  1  0
 17 18  1  0
 18 19  1  0
 18 20  2  0
 20 21  1  0
 21 22  1  0
 21 23  1  0
 21 24  1  0
 20 25  1  0
 25 26  1  0
 26 27  2  0
 26 28  2  0
 26 29  1  0
 29 30  2  0
 30 31  1  0
 30 32  1  0
 32 33  1  0
 32 34  2  0
 34 35  1  0
 34 36  1  0
 36 37  1  0
 36 38  2  0
 38 39  1  0
 25 40  1  0
 40 41  1  0
 10 42  1  0
 42 43  1  0
 43 44  1  0
 44 45  1  0
 44 46  1  0
 44 47  1  0
 42 48  2  0
 48 49  1  0
 48  3  1  0
 40 17  2  0
 38 29  1  0
M  CHG  2   4  -1  14  -1
M  END
>  <UniqueID>  (10) 
8

>  <SMILES>  (10) 
[H]/N=c1\cc(OC)c(C[N-]C(=O)c2cc(C)n(S(=O)(=O)c3ccccc3)c2)c(C)[n-]1

>  <Energy>  (10) 
76.08984879340645

>  <Genealogy>  (10) 
COc1cc(=N)[n-]c(C)c1C[N-]C(=O)c1cc(C)n(S(=O)(=O)c2ccccc2)c1 (protonated)
[H]/N=c1\cc(OC)c(C[N-]C(=O)c2cc(C)n(S(=O)(=O)c3ccccc3)c2)c(C)[n-]1 (cis-trans isomerization)
[H]/N=c1\cc(OC)c(C[N-]C(=O)c2cc(C)n(S(=O)(=O)c3ccccc3)c2)c(C)[n-]1 (3D coordinates assigned)
[H]/N=c1\cc(OC)c(C[N-]C(=O)c2cc(C)n(S(=O)(=O)c3ccccc3)c2)c(C)[n-]1 (optimized conformer: 76.08984879340645 kcal/mol)

>  <smiles>  (10) 
COc1cc(=N)[nH]c(C)c1CNC(=O)c1cc(C)n(S(=O)(=O)c2ccccc2)c1

>  <score_type>  (10) 
oracle

>  <origin>  (10) 
adgpu

>  <m_score__min__energy>  (10) 
-10.57

>  <m_primary>  (10) 
energy

$$$$
10:0
     RDKit          3D

 58 61  0  0  0  0  0  0  0  0999 V2000
   -6.7850   16.3080  -34.3270 O   0  0  0  0  0  0  0  0  0  0  0  0
   -6.1860   17.0420  -33.4950 C   0  0  0  0  0  0  0  0  0  0  0  0
   -4.9020   16.6490  -32.9930 N   0  0  0  0  0  0  0  0  0  0  0  0
   -3.6690   17.3180  -33.2850 C   0  0  0  0  0  0  0  0  0  0  0  0
   -3.6030   18.7040  -33.0980 C   0  0  0  0  0  0  0  0  0  0  0  0
   -2.4220   19.4070  -33.3740 C   0  0  0  0  0  0  0  0  0  0  0  0
   -2.3590   21.1600  -33.1630 S   0  0  0  0  0  0  0  0  0  0  0  0
   -1.1130   21.6930  -33.8180 O   0  0  0  0  0  0  0  0  0  0  0  0
   -3.5470   21.7820  -33.8460 O   0  0  0  0  0  0  0  0  0  0  0  0
   -2.3590   21.6080  -31.4690 N   0  0  0  0  0  0  0  0  0  0  0  0
   -3.3220   20.7710  -30.7190 C   0  0  0  0  0  0  0  0  0  0  0  0
   -2.9640   20.7370  -29.2220 C   0  0  0  0  0  0  0  0  0  0  0  0
   -1.6750   20.2010  -28.9470 O   0  0  0  0  0  0  0  0  0  0  0  0
   -0.7660   20.3090  -30.0340 C   0  0  0  0  0  0  0  0  0  0  0  0
   -0.9900   21.5680  -30.8940 C   0  0  0  0  0  0  0  0  0  0  0  0
   -1.2970   18.7120  -33.8340 C   0  0  0  0  0  0  0  0  0  0  0  0
   -1.3640   17.3350  -34.0570 C   0  0  0  0  0  0  0  0  0  0  0  0
   -2.5480   16.6330  -33.8030 C   0  0  0  0  0  0  0  0  0  0  0  0
   -2.6170   14.9300  -34.2420 Cl  0  0  0  0  0  0  0  0  0  0  0  0
   -6.8320   18.2790  -32.9990 C   0  0  0  0  0  0  0  0  0  0  0  0
   -7.7480   18.2280  -31.9310 C   0  0  0  0  0  0  0  0  0  0  0  0
   -8.3400   19.3970  -31.4470 C   0  0  0  0  0  0  0  0  0  0  0  0
   -8.0210   20.6360  -32.0130 C   0  0  0  0  0  0  0  0  0  0  0  0
   -8.7370   22.1070  -31.3570 S   0  0  0  0  0  0  0  0  0  0  0  0
   -9.4920   21.7540  -30.1050 O   0  0  0  0  0  0  0  0  0  0  0  0
   -9.6930   22.7040  -32.3540 O   0  0  0  0  0  0  0  0  0  0  0  0
   -7.4860   23.2690  -30.9820 N   0  0  0  0  0  0  0  0  0  0  0  0
   -6.8350   23.7660  -32.2180 C   0  0  0  0  0  0  0  0  0  0  0  0
   -5.3810   23.2780  -32.3530 C   0  0  0  0  0  0  0  0  0  0  0  0
   -4.5770   23.6520  -31.2460 O   0  0  0  0  0  0  0  0  0  0  0  0
   -5.2320   23.5140  -29.9890 C   0  0  0  0  0  0  0  0  0  0  0  0
   -6.5290   22.6890  -30.0210 C   0  0  0  0  0  0  0  0  0  0  0  0
   -7.1260   20.6940  -33.0870 C   0  0  0  0  0  0  0  0  0  0  0  0
   -6.5370   19.5260  -33.5790 C   0  0  0  0  0  0  0  0  0  0  0  0
   -4.4866   19.2466  -32.7309 H   0  0  0  0  0  0  0  0  0  0  0  0
   -2.6950   22.6000  -31.4280 H   0  0  0  0  0  0  0  0  0  0  0  0
   -4.3328   21.1881  -30.8390 H   0  0  0  0  0  0  0  0  0  0  0  0
   -3.2824   19.7456  -31.1152 H   0  0  0  0  0  0  0  0  0  0  0  0
   -3.0007   21.7657  -28.8342 H   0  0  0  0  0  0  0  0  0  0  0  0
   -3.6946   20.0743  -28.7352 H   0  0  0  0  0  0  0  0  0  0  0  0
    0.2573   20.3387  -29.6316 H   0  0  0  0  0  0  0  0  0  0  0  0
   -0.9309   19.4371  -30.6841 H   0  0  0  0  0  0  0  0  0  0  0  0
   -0.8416   22.4589  -30.2661 H   0  0  0  0  0  0  0  0  0  0  0  0
   -0.2707   21.5457  -31.7259 H   0  0  0  0  0  0  0  0  0  0  0  0
   -0.3572   19.2524  -34.0204 H   0  0  0  0  0  0  0  0  0  0  0  0
   -0.4809   16.7988  -34.4346 H   0  0  0  0  0  0  0  0  0  0  0  0
   -7.9996   17.2596  -31.4739 H   0  0  0  0  0  0  0  0  0  0  0  0
   -9.0601   19.3431  -30.6172 H   0  0  0  0  0  0  0  0  0  0  0  0
   -7.4088   23.4109  -33.0867 H   0  0  0  0  0  0  0  0  0  0  0  0
   -6.8166   24.8647  -32.1686 H   0  0  0  0  0  0  0  0  0  0  0  0
   -5.3832   22.1809  -32.4326 H   0  0  0  0  0  0  0  0  0  0  0  0
   -4.9529   23.7481  -33.2507 H   0  0  0  0  0  0  0  0  0  0  0  0
   -4.5343   23.0266  -29.2920 H   0  0  0  0  0  0  0  0  0  0  0  0
   -5.5202   24.5292  -29.6786 H   0  0  0  0  0  0  0  0  0  0  0  0
   -6.2945   21.6572  -30.3215 H   0  0  0  0  0  0  0  0  0  0  0  0
   -6.9815   22.6981  -29.0184 H   0  0  0  0  0  0  0  0  0  0  0  0
   -6.8847   21.6639  -33.5464 H   0  0  0  0  0  0  0  0  0  0  0  0
   -5.8375   19.5823  -34.4261 H   0  0  0  0  0  0  0  0  0  0  0  0
  1  2  2  0
  2  3  1  0
  3  4  1  0
  4  5  2  0
  5  6  1  0
  6  7  1  0
  7  8  2  0
  7  9  2  0
  7 10  1  0
 10 11  1  0
 11 12  1  0
 12 13  1  0
 13 14  1  0
 14 15  1  0
  6 16  2  0
 16 17  1  0
 17 18  2  0
 18 19  1  0
  2 20  1  0
 20 21  2  0
 21 22  1  0
 22 23  2  0
 23 24  1  0
 24 25  2  0
 24 26  2  0
 24 27  1  0
 27 28  1  0
 28 29  1  0
 29 30  1  0
 30 31  1  0
 31 32  1  0
 23 33  1  0
 33 34  2  0
 18  4  1  0
 34 20  1  0
 15 10  1  0
 32 27  1  0
  5 35  1  0
 10 36  1  0
 11 37  1  0
 11 38  1  0
 12 39  1  0
 12 40  1  0
 14 41  1  0
 14 42  1  0
 15 43  1  0
 15 44  1  0
 16 45  1  0
 17 46  1  0
 21 47  1  0
 22 48  1  0
 28 49  1  0
 28 50  1  0
 29 51  1  0
 29 52  1  0
 31 53  1  0
 31 54  1  0
 32 55  1  0
 32 56  1  0
 33 57  1  0
 34 58  1  0
M  CHG  2   3  -1  10   1
M  END
>  <UniqueID>  (11) 
9

>  <SMILES>  (11) 
O=C([N-]c1cc(S(=O)(=O)[NH+]2CCOCC2)ccc1Cl)c1ccc(S(=O)(=O)N2CCOCC2)cc1

>  <Energy>  (11) 
92.23741736205938

>  <Genealogy>  (11) 
O=C([N-]c1cc(S(=O)(=O)[NH+]2CCOCC2)ccc1Cl)c1ccc(S(=O)(=O)N2CCOCC2)cc1 (protonated)
O=C([N-]c1cc(S(=O)(=O)[NH+]2CCOCC2)ccc1Cl)c1ccc(S(=O)(=O)N2CCOCC2)cc1 (3D coordinates assigned)
O=C([N-]c1cc(S(=O)(=O)[NH+]2CCOCC2)ccc1Cl)c1ccc(S(=O)(=O)N2CCOCC2)cc1 (nonaromatic ring conformer: 92.23741736205938 kcal/mol)

>  <smiles>  (11) 
O=C(Nc1cc(S(=O)(=O)N2CCOCC2)ccc1Cl)c1ccc(S(=O)(=O)N2CCOCC2)cc1

>  <score_type>  (11) 
oracle

>  <origin>  (11) 
adgpu

>  <m_score__min__energy>  (11) 
-12.66

>  <m_primary>  (11) 
energy

$$$$
11:0
     RDKit          3D

 37 39  0  0  0  0  0  0  0  0999 V2000
   -5.4110   23.4170  -32.4310 C   0  0  0  0  0  0  0  0  0  0  0  0
   -6.2250   22.4650  -31.5230 C   0  0  0  0  0  0  0  0  0  0  0  0
   -7.6140   23.1130  -31.3160 C   0  0  0  0  0  0  0  0  0  0  0  0
   -5.5670   22.4020  -30.2020 N   0  0  0  0  0  0  0  0  0  0  0  0
   -4.1570   22.2150  -30.0120 C   0  0  0  0  0  0  0  0  0  0  0  0
   -3.5830   20.9310  -30.1110 C   0  0  0  0  0  0  0  0  0  0  0  0
   -2.2000   20.7480  -29.8900 C   0  0  0  0  0  0  0  0  0  0  0  0
   -1.3760   21.8450  -29.5750 C   0  0  0  0  0  0  0  0  0  0  0  0
   -1.9720   23.1030  -29.5040 C   0  0  0  0  0  0  0  0  0  0  0  0
   -1.4460   24.3470  -29.2460 C   0  0  0  0  0  0  0  0  0  0  0  0
   -0.1100   24.6130  -28.9660 O   0  0  0  0  0  0  0  0  0  0  0  0
   -2.4070   25.2970  -29.3050 N   0  0  0  0  0  0  0  0  0  0  0  0
   -3.5550   24.6420  -29.6020 C   0  0  0  0  0  0  0  0  0  0  0  0
   -3.3080   23.2880  -29.7220 C   0  0  0  0  0  0  0  0  0  0  0  0
   -6.3260   21.0650  -32.1800 C   0  0  0  0  0  0  0  0  0  0  0  0
   -7.3820   20.1660  -31.8920 C   0  0  0  0  0  0  0  0  0  0  0  0
   -7.4120   18.8860  -32.4550 C   0  0  0  0  0  0  0  0  0  0  0  0
   -6.3900   18.4680  -33.3070 C   0  0  0  0  0  0  0  0  0  0  0  0
   -6.4290   16.7120  -34.0580 Br  0  0  0  0  0  0  0  0  0  0  0  0
   -5.3350   19.3310  -33.6010 C   0  0  0  0  0  0  0  0  0  0  0  0
   -5.3000   20.6130  -33.0450 C   0  0  0  0  0  0  0  0  0  0  0  0
   -4.8225   24.1053  -31.8065 H   0  0  0  0  0  0  0  0  0  0  0  0
   -4.7332   22.8276  -33.0660 H   0  0  0  0  0  0  0  0  0  0  0  0
   -6.0985   23.9950  -33.0660 H   0  0  0  0  0  0  0  0  0  0  0  0
   -7.8175   23.2079  -30.2392 H   0  0  0  0  0  0  0  0  0  0  0  0
   -7.6265   24.1099  -31.7808 H   0  0  0  0  0  0  0  0  0  0  0  0
   -8.3859   22.4820  -31.7808 H   0  0  0  0  0  0  0  0  0  0  0  0
   -6.0820   22.8210  -29.3950 H   0  0  0  0  0  0  0  0  0  0  0  0
   -4.2158   20.0669  -30.3618 H   0  0  0  0  0  0  0  0  0  0  0  0
   -1.7637   19.7410  -29.9646 H   0  0  0  0  0  0  0  0  0  0  0  0
   -0.2994   21.7140  -29.3913 H   0  0  0  0  0  0  0  0  0  0  0  0
    0.5930   24.5370  -29.6900 H   0  0  0  0  0  0  0  0  0  0  0  0
   -4.5386   25.1179  -29.7289 H   0  0  0  0  0  0  0  0  0  0  0  0
   -8.1907   20.4792  -31.2153 H   0  0  0  0  0  0  0  0  0  0  0  0
   -8.2454   18.2060  -32.2248 H   0  0  0  0  0  0  0  0  0  0  0  0
   -4.5281   19.0021  -34.2723 H   0  0  0  0  0  0  0  0  0  0  0  0
   -4.4606   21.2826  -33.2836 H   0  0  0  0  0  0  0  0  0  0  0  0
  1  2  1  0
  2  3  1  0
  2  4  1  0
  4  5  1  0
  5  6  2  0
  6  7  1  0
  7  8  2  0
  8  9  1  0
  9 10  2  0
 10 11  1  0
 10 12  1  0
 12 13  1  0
 13 14  2  0
  2 15  1  0
 15 16  2  0
 16 17  1  0
 17 18  2  0
 18 19  1  0
 18 20  1  0
 20 21  2  0
 14  5  1  0
 21 15  1  0
 14  9  1  0
  1 22  1  0
  1 23  1  0
  1 24  1  0
  3 25  1  0
  3 26  1  0
  3 27  1  0
  4 28  1  0
  6 29  1  0
  7 30  1  0
  8 31  1  0
 11 32  1  0
 13 33  1  0
 16 34  1  0
 17 35  1  0
 20 36  1  0
 21 37  1  0
M  CHG  1  12  -1
M  END
>  <UniqueID>  (12) 
10

>  <SMILES>  (12) 
CC(C)(Nc1cccc2c(O)[n-]cc12)c1ccc(Br)cc1

>  <Energy>  (12) 
81.45958332582633

>  <Genealogy>  (12) 
CC(C)(Nc1cccc2c(O)[n-]cc12)c1ccc(Br)cc1 (protonated)
CC(C)(Nc1cccc2c(O)[n-]cc12)c1ccc(Br)cc1 (3D coordinates assigned)
CC(C)(Nc1cccc2c(O)[n-]cc12)c1ccc(Br)cc1 (optimized conformer: 81.45958332582633 kcal/mol)

>  <smiles>  (12) 
CC(C)(Nc1cccc2c(O)[nH]cc12)c1ccc(Br)cc1

>  <score_type>  (12) 
oracle

>  <origin>  (12) 
adgpu

>  <m_score__min__energy>  (12) 
-10.06

>  <m_primary>  (12) 
energy

$$$$
12:0
     RDKit          3D

 45 47  0  0  0  0  0  0  0  0999 V2000
   -0.3940   21.9030  -29.5740 O   0  0  0  0  0  0  0  0  0  0  0  0
   -1.6150   21.7060  -30.4280 S   0  0  0  0  0  0  0  0  0  0  0  0
   -2.4610   20.6310  -29.8120 O   0  0  0  0  0  0  0  0  0  0  0  0
   -2.5360   23.1780  -30.4650 N   0  0  0  0  0  0  0  0  0  0  0  0
   -3.9270   23.2520  -30.8160 C   0  0  0  0  0  0  0  0  0  0  0  0
   -4.6590   22.1050  -31.1660 C   0  0  0  0  0  0  0  0  0  0  0  0
   -6.0160   22.1900  -31.4880 C   0  0  0  0  0  0  0  0  0  0  0  0
   -6.9080   20.7550  -31.9860 S   0  0  0  0  0  0  0  0  0  0  0  0
   -8.1930   20.6740  -31.2110 O   0  0  0  0  0  0  0  0  0  0  0  0
   -7.2240   20.8940  -33.4490 O   0  0  0  0  0  0  0  0  0  0  0  0
   -5.9320   19.3220  -31.7230 N   0  0  0  0  0  0  0  0  0  0  0  0
   -6.7310   18.0890  -31.5520 C   0  0  0  0  0  0  0  0  0  0  0  0
   -7.1940   17.4660  -32.8790 C   0  0  0  0  0  0  0  0  0  0  0  0
   -6.0290   17.3040  -33.8540 C   0  0  0  0  0  0  0  0  0  0  0  0
   -5.3100   18.6380  -34.0470 C   0  0  0  0  0  0  0  0  0  0  0  0
   -4.8310   19.1780  -32.6950 C   0  0  0  0  0  0  0  0  0  0  0  0
   -6.6510   23.4430  -31.4710 C   0  0  0  0  0  0  0  0  0  0  0  0
   -5.9270   24.5870  -31.1300 C   0  0  0  0  0  0  0  0  0  0  0  0
   -4.5690   24.4970  -30.8110 C   0  0  0  0  0  0  0  0  0  0  0  0
   -3.8620   25.6480  -30.4790 O   0  0  0  0  0  0  0  0  0  0  0  0
   -1.1160   21.2330  -32.0490 C   0  0  0  0  0  0  0  0  0  0  0  0
   -2.0760   20.8680  -33.0000 C   0  0  0  0  0  0  0  0  0  0  0  0
   -1.6770   20.4240  -34.2650 C   0  0  0  0  0  0  0  0  0  0  0  0
   -0.3190   20.3370  -34.5870 C   0  0  0  0  0  0  0  0  0  0  0  0
    0.0550   19.8800  -35.8510 O   0  0  0  0  0  0  0  0  0  0  0  0
    0.6450   20.7030  -33.6350 C   0  0  0  0  0  0  0  0  0  0  0  0
    2.0000   20.6190  -33.9330 O   0  0  0  0  0  0  0  0  0  0  0  0
    0.2440   21.1540  -32.3740 C   0  0  0  0  0  0  0  0  0  0  0  0
   -4.1569   21.1265  -31.1868 H   0  0  0  0  0  0  0  0  0  0  0  0
   -6.1184   17.3493  -31.0157 H   0  0  0  0  0  0  0  0  0  0  0  0
   -7.6367   18.3668  -30.9930 H   0  0  0  0  0  0  0  0  0  0  0  0
   -7.6319   16.4774  -32.6769 H   0  0  0  0  0  0  0  0  0  0  0  0
   -7.9376   18.1358  -33.3356 H   0  0  0  0  0  0  0  0  0  0  0  0
   -5.3203   16.5645  -33.4530 H   0  0  0  0  0  0  0  0  0  0  0  0
   -6.4193   16.9641  -34.8246 H   0  0  0  0  0  0  0  0  0  0  0  0
   -4.4432   18.4919  -34.7083 H   0  0  0  0  0  0  0  0  0  0  0  0
   -6.0064   19.3607  -34.4973 H   0  0  0  0  0  0  0  0  0  0  0  0
   -4.0843   18.4838  -32.2822 H   0  0  0  0  0  0  0  0  0  0  0  0
   -4.4029   20.1767  -32.8662 H   0  0  0  0  0  0  0  0  0  0  0  0
   -7.7180   23.5227  -31.7262 H   0  0  0  0  0  0  0  0  0  0  0  0
   -6.4286   25.5658  -31.1122 H   0  0  0  0  0  0  0  0  0  0  0  0
   -3.1459   20.9304  -32.7522 H   0  0  0  0  0  0  0  0  0  0  0  0
   -2.4353   20.1419  -35.0102 H   0  0  0  0  0  0  0  0  0  0  0  0
    1.0240   19.7520  -36.1110 H   0  0  0  0  0  0  0  0  0  0  0  0
    1.0012   21.4486  -31.6325 H   0  0  0  0  0  0  0  0  0  0  0  0
  1  2  2  0
  2  3  2  0
  2  4  1  0
  4  5  1  0
  5  6  2  0
  6  7  1  0
  7  8  1  0
  8  9  2  0
  8 10  2  0
  8 11  1  0
 11 12  1  0
 12 13  1  0
 13 14  1  0
 14 15  1  0
 15 16  1  0
  7 17  2  0
 17 18  1  0
 18 19  2  0
 19 20  1  0
  2 21  1  0
 21 22  2  0
 22 23  1  0
 23 24  2  0
 24 25  1  0
 24 26  1  0
 26 27  1  0
 26 28  2  0
 19  5  1  0
 28 21  1  0
 16 11  1  0
  6 29  1  0
 12 30  1  0
 12 31  1  0
 13 32  1  0
 13 33  1  0
 14 34  1  0
 14 35  1  0
 15 36  1  0
 15 37  1  0
 16 38  1  0
 16 39  1  0
 17 40  1  0
 18 41  1  0
 22 42  1  0
 23 43  1  0
 25 44  1  0
 28 45  1  0
M  CHG  3   4  -1  20  -1  27  -1
M  END
>  <UniqueID>  (13) 
11

>  <SMILES>  (13) 
O=S(=O)([N-]c1cc(S(=O)(=O)N2CCCCC2)ccc1[O-])c1ccc(O)c([O-])c1

>  <Energy>  (13) 
49.34504367628199

>  <Genealogy>  (13) 
O=S(=O)([N-]c1cc(S(=O)(=O)N2CCCCC2)ccc1[O-])c1ccc(O)c([O-])c1 (protonated)
O=S(=O)([N-]c1cc(S(=O)(=O)N2CCCCC2)ccc1[O-])c1ccc(O)c([O-])c1 (3D coordinates assigned)
O=S(=O)([N-]c1cc(S(=O)(=O)N2CCCCC2)ccc1[O-])c1ccc(O)c([O-])c1 (nonaromatic ring conformer: 49.34504367628199 kcal/mol)

>  <smiles>  (13) 
O=S(=O)(Nc1cc(S(=O)(=O)N2CCCCC2)ccc1O)c1ccc(O)c(O)c1

>  <score_type>  (13) 
oracle

>  <origin>  (13) 
adgpu

>  <m_score__min__energy>  (13) 
-13.02

>  <m_primary>  (13) 
energy

$$$$
13:0
     RDKit          3D

 49 51  0  0  0  0  0  0  0  0999 V2000
    0.9050   20.3160  -30.8530 O   0  0  0  0  0  0  0  0  0  0  0  0
   -0.3060   20.5520  -30.6100 C   0  0  0  0  0  0  0  0  0  0  0  0
   -0.7060   20.7440  -29.2470 N   0  0  0  0  0  0  0  0  0  0  0  0
   -1.8300   20.0880  -28.5800 C   0  0  0  0  0  0  0  0  0  0  0  0
   -2.7560   21.1060  -27.9030 C   0  0  0  0  0  0  0  0  0  0  0  0
   -2.3740   22.5200  -28.2570 C   0  0  0  0  0  0  0  0  0  0  0  0
   -1.2240   23.1020  -27.6990 C   0  0  0  0  0  0  0  0  0  0  0  0
   -0.8480   24.4030  -28.0520 C   0  0  0  0  0  0  0  0  0  0  0  0
   -1.6130   25.1280  -28.9680 C   0  0  0  0  0  0  0  0  0  0  0  0
   -1.2290   26.4160  -29.3200 O   0  0  0  0  0  0  0  0  0  0  0  0
   -2.7610   24.5540  -29.5300 C   0  0  0  0  0  0  0  0  0  0  0  0
   -3.5270   25.2730  -30.4410 O   0  0  0  0  0  0  0  0  0  0  0  0
   -3.1380   23.2530  -29.1780 C   0  0  0  0  0  0  0  0  0  0  0  0
   -1.2620   20.6390  -31.7340 C   0  0  0  0  0  0  0  0  0  0  0  0
   -2.5930   20.2230  -31.5630 C   0  0  0  0  0  0  0  0  0  0  0  0
   -3.5080   20.3040  -32.6220 C   0  0  0  0  0  0  0  0  0  0  0  0
   -5.2010   19.8630  -32.3710 S   0  0  0  0  0  0  0  0  0  0  0  0
   -5.2690   18.4950  -31.7510 O   0  0  0  0  0  0  0  0  0  0  0  0
   -5.9010   19.8080  -33.7000 O   0  0  0  0  0  0  0  0  0  0  0  0
   -6.0090   21.0080  -31.3210 N   0  0  0  0  0  0  0  0  0  0  0  0
   -7.4750   20.9440  -31.5200 C   0  0  0  0  0  0  0  0  0  0  0  0
   -8.1710   22.2170  -31.0240 C   0  0  0  0  0  0  0  0  0  0  0  0
   -7.7020   23.4440  -31.8250 C   0  0  0  0  0  0  0  0  0  0  0  0
   -6.2570   23.3020  -32.3350 C   0  0  0  0  0  0  0  0  0  0  0  0
   -5.4260   22.3670  -31.4420 C   0  0  0  0  0  0  0  0  0  0  0  0
   -3.0770   20.7650  -33.8730 C   0  0  0  0  0  0  0  0  0  0  0  0
   -1.7500   21.1560  -34.0590 C   0  0  0  0  0  0  0  0  0  0  0  0
   -0.8420   21.0980  -32.9970 C   0  0  0  0  0  0  0  0  0  0  0  0
    0.4710   21.5090  -33.2030 O   0  0  0  0  0  0  0  0  0  0  0  0
   -2.4067   19.5215  -29.3260 H   0  0  0  0  0  0  0  0  0  0  0  0
   -1.4277   19.4195  -27.8046 H   0  0  0  0  0  0  0  0  0  0  0  0
   -3.7898   20.9222  -28.2307 H   0  0  0  0  0  0  0  0  0  0  0  0
   -2.6637   20.9858  -26.8135 H   0  0  0  0  0  0  0  0  0  0  0  0
   -0.6158   22.5324  -26.9809 H   0  0  0  0  0  0  0  0  0  0  0  0
    0.0510   24.8549  -27.6075 H   0  0  0  0  0  0  0  0  0  0  0  0
   -4.0368   22.8032  -29.6251 H   0  0  0  0  0  0  0  0  0  0  0  0
   -2.9202   19.8301  -30.5891 H   0  0  0  0  0  0  0  0  0  0  0  0
   -7.6839   20.8184  -32.5926 H   0  0  0  0  0  0  0  0  0  0  0  0
   -7.8628   20.0933  -30.9404 H   0  0  0  0  0  0  0  0  0  0  0  0
   -9.2586   22.1030  -31.1429 H   0  0  0  0  0  0  0  0  0  0  0  0
   -7.9152   22.3687  -29.9650 H   0  0  0  0  0  0  0  0  0  0  0  0
   -8.3692   23.5761  -32.6895 H   0  0  0  0  0  0  0  0  0  0  0  0
   -7.7332   24.3130  -31.1513 H   0  0  0  0  0  0  0  0  0  0  0  0
   -6.2783   22.8933  -33.3560 H   0  0  0  0  0  0  0  0  0  0  0  0
   -5.7888   24.2972  -32.3173 H   0  0  0  0  0  0  0  0  0  0  0  0
   -4.4171   22.2782  -31.8712 H   0  0  0  0  0  0  0  0  0  0  0  0
   -5.4074   22.8070  -30.4340 H   0  0  0  0  0  0  0  0  0  0  0  0
   -3.7869   20.8190  -34.7115 H   0  0  0  0  0  0  0  0  0  0  0  0
   -1.4170   21.5113  -35.0453 H   0  0  0  0  0  0  0  0  0  0  0  0
  1  2  2  0
  2  3  1  0
  3  4  1  0
  4  5  1  0
  5  6  1  0
  6  7  2  0
  7  8  1  0
  8  9  2  0
  9 10  1  0
  9 11  1  0
 11 12  1  0
 11 13  2  0
  2 14  1  0
 14 15  2  0
 15 16  1  0
 16 17  1  0
 17 18  2  0
 17 19  2  0
 17 20  1  0
 20 21  1  0
 21 22  1  0
 22 23  1  0
 23 24  1  0
 24 25  1  0
 16 26  2  0
 26 27  1  0
 27 28  2  0
 28 29  1  0
 13  6  1  0
 28 14  1  0
 25 20  1  0
  4 30  1  0
  4 31  1  0
  5 32  1  0
  5 33  1  0
  7 34  1  0
  8 35  1  0
 13 36  1  0
 15 37  1  0
 21 38  1  0
 21 39  1  0
 22 40  1  0
 22 41  1  0
 23 42  1  0
 23 43  1  0
 24 44  1  0
 24 45  1  0
 25 46  1  0
 25 47  1  0
 26 48  1  0
 27 49  1  0
M  CHG  4   3  -1  10  -1  12  -1  29  -1
M  END
>  <UniqueID>  (14) 
12

>  <SMILES>  (14) 
O=C([N-]CCc1ccc([O-])c([O-])c1)c1cc(S(=O)(=O)N2CCCCC2)ccc1[O-]

>  <Energy>  (14) 
55.1518803877709

>  <Genealogy>  (14) 
O=C([N-]CCc1ccc([O-])c([O-])c1)c1cc(S(=O)(=O)N2CCCCC2)ccc1[O-] (protonated)
O=C([N-]CCc1ccc([O-])c([O-])c1)c1cc(S(=O)(=O)N2CCCCC2)ccc1[O-] (3D coordinates assigned)
O=C([N-]CCc1ccc([O-])c([O-])c1)c1cc(S(=O)(=O)N2CCCCC2)ccc1[O-] (nonaromatic ring conformer: 55.1518803877709 kcal/mol)

>  <smiles>  (14) 
O=C(NCCc1ccc(O)c(O)c1)c1cc(S(=O)(=O)N2CCCCC2)ccc1O

>  <score_type>  (14) 
oracle

>  <origin>  (14) 
adgpu

>  <m_score__min__energy>  (14) 
-14.94

>  <m_primary>  (14) 
energy

$$$$
14:0
     RDKit          3D

 41 43  0  0  0  0  0  0  0  0999 V2000
   -4.0200   23.1570  -27.4840 C   0  0  0  0  0  0  0  0  0  0  0  0
   -2.5650   22.8240  -27.6850 C   0  0  0  0  0  0  0  0  0  0  0  0
   -2.0490   21.6790  -27.0530 C   0  0  0  0  0  0  0  0  0  0  0  0
   -0.7180   21.3020  -27.2400 C   0  0  0  0  0  0  0  0  0  0  0  0
    0.1150   22.0620  -28.0600 C   0  0  0  0  0  0  0  0  0  0  0  0
   -0.3730   23.2130  -28.6790 C   0  0  0  0  0  0  0  0  0  0  0  0
   -1.7030   23.6240  -28.4800 C   0  0  0  0  0  0  0  0  0  0  0  0
   -2.1490   24.8840  -29.1180 C   0  0  0  0  0  0  0  0  0  0  0  0
   -1.5690   25.9600  -28.8180 O   0  0  0  0  0  0  0  0  0  0  0  0
   -3.2100   24.9200  -30.0840 N   0  0  0  0  0  0  0  0  0  0  0  0
   -3.8720   23.7880  -30.6670 C   0  0  0  0  0  0  0  0  0  0  0  0
   -3.1170   22.6520  -30.9780 C   0  0  0  0  0  0  0  0  0  0  0  0
   -3.7300   21.5280  -31.5380 C   0  0  0  0  0  0  0  0  0  0  0  0
   -5.1030   21.5330  -31.8090 C   0  0  0  0  0  0  0  0  0  0  0  0
   -5.7080   20.3650  -32.3770 N   0  0  0  0  0  0  0  0  0  0  0  0
   -5.0500   19.6760  -33.4870 C   0  0  0  0  0  0  0  0  0  0  0  0
   -6.0980   18.9370  -34.3250 C   0  0  0  0  0  0  0  0  0  0  0  0
   -6.9120   18.1200  -33.5050 O   0  0  0  0  0  0  0  0  0  0  0  0
   -7.6720   18.9280  -32.6250 C   0  0  0  0  0  0  0  0  0  0  0  0
   -6.7610   19.6670  -31.6400 C   0  0  0  0  0  0  0  0  0  0  0  0
   -5.8640   22.6830  -31.5290 C   0  0  0  0  0  0  0  0  0  0  0  0
   -7.5860   22.7460  -31.8770 Cl  0  0  0  0  0  0  0  0  0  0  0  0
   -5.2460   23.8070  -30.9690 C   0  0  0  0  0  0  0  0  0  0  0  0
   -4.2393   23.2072  -26.4073 H   0  0  0  0  0  0  0  0  0  0  0  0
   -4.2413   24.1290  -27.9490 H   0  0  0  0  0  0  0  0  0  0  0  0
   -4.6421   22.3780  -27.9490 H   0  0  0  0  0  0  0  0  0  0  0  0
   -2.7004   21.0744  -26.4049 H   0  0  0  0  0  0  0  0  0  0  0  0
   -0.3259   20.4042  -26.7398 H   0  0  0  0  0  0  0  0  0  0  0  0
    1.1588   21.7535  -28.2191 H   0  0  0  0  0  0  0  0  0  0  0  0
    0.2887   23.8045  -29.3288 H   0  0  0  0  0  0  0  0  0  0  0  0
   -2.0349   22.6435  -30.7806 H   0  0  0  0  0  0  0  0  0  0  0  0
   -3.1303   20.6347  -31.7670 H   0  0  0  0  0  0  0  0  0  0  0  0
   -4.5291   20.4116  -34.1175 H   0  0  0  0  0  0  0  0  0  0  0  0
   -4.3231   18.9525  -33.0892 H   0  0  0  0  0  0  0  0  0  0  0  0
   -6.7309   19.6733  -34.8421 H   0  0  0  0  0  0  0  0  0  0  0  0
   -5.5793   18.2982  -35.0550 H   0  0  0  0  0  0  0  0  0  0  0  0
   -8.2406   19.6643  -33.2121 H   0  0  0  0  0  0  0  0  0  0  0  0
   -8.3557   18.2815  -32.0553 H   0  0  0  0  0  0  0  0  0  0  0  0
   -7.3541   20.3967  -31.0692 H   0  0  0  0  0  0  0  0  0  0  0  0
   -6.3054   18.9427  -30.9488 H   0  0  0  0  0  0  0  0  0  0  0  0
   -5.8383   24.7109  -30.7637 H   0  0  0  0  0  0  0  0  0  0  0  0
  1  2  1  0
  2  3  2  0
  3  4  1  0
  4  5  2  0
  5  6  1  0
  6  7  2  0
  7  8  1  0
  8  9  2  0
  8 10  1  0
 10 11  1  0
 11 12  2  0
 12 13  1  0
 13 14  2  0
 14 15  1  0
 15 16  1  0
 16 17  1  0
 17 18  1  0
 18 19  1  0
 19 20  1  0
 14 21  1  0
 21 22  1  0
 21 23  2  0
  7  2  1  0
 23 11  1  0
 20 15  1  0
  1 24  1  0
  1 25  1  0
  1 26  1  0
  3 27  1  0
  4 28  1  0
  5 29  1  0
  6 30  1  0
 12 31  1  0
 13 32  1  0
 16 33  1  0
 16 34  1  0
 17 35  1  0
 17 36  1  0
 19 37  1  0
 19 38  1  0
 20 39  1  0
 20 40  1  0
 23 41  1  0
M  CHG  1  10  -1
M  END
>  <UniqueID>  (15) 
13

>  <SMILES>  (15) 
Cc1ccccc1C(=O)[N-]c1ccc(N2CCOCC2)c(Cl)c1

>  <Energy>  (15) 
58.62182860475899

>  <Genealogy>  (15) 
Cc1ccccc1C(=O)[N-]c1ccc(N2CCOCC2)c(Cl)c1 (protonated)
Cc1ccccc1C(=O)[N-]c1ccc(N2CCOCC2)c(Cl)c1 (3D coordinates assigned)
Cc1ccccc1C(=O)[N-]c1ccc(N2CCOCC2)c(Cl)c1 (nonaromatic ring conformer: 58.62182860475899 kcal/mol)

>  <smiles>  (15) 
Cc1ccccc1C(=O)Nc1ccc(N2CCOCC2)c(Cl)c1

>  <score_type>  (15) 
oracle

>  <origin>  (15) 
adgpu

>  <m_score__min__energy>  (15) 
-9.6999999999999993

>  <m_primary>  (15) 
energy

$$$$
15:0
     RDKit          3D

 55 58  0  0  1  0  0  0  0  0999 V2000
    1.0430   28.0040  -22.7080 N   0  0  0  0  0  0  0  0  0  0  0  0
   -0.0970   27.6580  -23.9610 S   0  0  0  0  0  0  0  0  0  0  0  0
   -0.3550   28.8910  -24.7810 O   0  0  0  0  0  0  0  0  0  0  0  0
   -1.3620   27.1620  -23.3110 O   0  0  0  0  0  0  0  0  0  0  0  0
    0.6270   26.4070  -24.9740 C   0  0  0  0  0  0  0  0  0  0  0  0
    1.7780   25.7480  -24.5730 C   0  0  0  0  0  0  0  0  0  0  0  0
    2.2780   24.7850  -25.4260 C   0  0  0  0  0  0  0  0  0  0  0  0
    1.6680   24.4820  -26.6270 C   0  0  0  0  0  0  0  0  0  0  0  0
    0.5060   25.1500  -27.0280 C   0  0  0  0  0  0  0  0  0  0  0  0
   -0.1070   24.8220  -28.2690 N   0  0  0  0  0  0  0  0  0  0  0  0
   -1.3560   24.5290  -28.3440 C   0  0  0  0  0  0  0  0  0  0  0  0
   -2.1570   24.5220  -27.2210 C   0  0  0  0  0  0  0  0  0  0  0  0
   -3.4930   24.1980  -27.3740 C   0  0  0  0  0  0  0  0  0  0  0  0
   -3.9410   23.9070  -28.6090 N   0  0  0  0  0  0  0  0  0  0  0  0
   -3.1560   23.9150  -29.7020 C   0  0  0  0  0  0  0  0  0  0  0  0
   -3.6290   23.6270  -30.8830 N   0  0  0  0  0  0  0  0  0  0  0  0
   -5.0030   23.2920  -31.0570 C   0  0  0  0  0  0  0  0  0  0  0  0
   -5.4200   22.0460  -31.4800 C   0  0  0  0  0  0  0  0  0  0  0  0
   -6.7840   21.8110  -31.6210 C   0  0  0  0  0  0  0  0  0  0  0  0
   -7.3360   20.2370  -32.1560 S   0  0  0  0  0  0  0  0  0  0  0  0
   -8.2890   19.6560  -31.1410 O   0  0  0  0  0  0  0  0  0  0  0  0
   -8.0410   20.4230  -33.4750 O   0  0  0  0  0  0  0  0  0  0  0  0
   -6.0710   19.1230  -32.4080 N   0  0  0  0  0  0  0  0  0  0  0  0
   -6.4340   17.7640  -32.1650 C   0  0  0  0  0  0  0  0  0  0  0  0
   -5.9390   16.9190  -33.3080 C   0  0  0  0  0  0  0  0  0  0  0  0
   -5.7290   17.9070  -34.4120 C   0  0  0  0  0  0  0  0  0  0  0  0
   -5.4980   19.2200  -33.7130 C   0  0  0  0  0  0  0  0  0  0  0  0
   -7.6810   22.8240  -31.3360 C   0  0  0  0  0  0  0  0  0  0  0  0
   -7.2670   24.0770  -30.9120 C   0  0  0  0  0  0  0  0  0  0  0  0
   -5.9140   24.3110  -30.7710 C   0  0  0  0  0  0  0  0  0  0  0  0
   -5.4820   25.5700  -30.3440 O   0  0  0  0  0  0  0  0  0  0  0  0
   -1.8460   24.2320  -29.5660 N   0  0  0  0  0  0  0  0  0  0  0  0
    0.0100   26.1130  -26.1720 C   0  0  0  0  0  0  0  0  0  0  0  0
    1.4590   27.1650  -22.2770 H   0  0  0  0  0  0  0  0  0  0  0  0
    0.6690   28.6650  -22.0050 H   0  0  0  0  0  0  0  0  0  0  0  0
    2.2710   25.9818  -23.6179 H   0  0  0  0  0  0  0  0  0  0  0  0
    3.1909   24.2420  -25.1401 H   0  0  0  0  0  0  0  0  0  0  0  0
    2.1007   23.7064  -27.2761 H   0  0  0  0  0  0  0  0  0  0  0  0
   -1.7447   24.7673  -26.2311 H   0  0  0  0  0  0  0  0  0  0  0  0
   -4.1716   24.1787  -26.5085 H   0  0  0  0  0  0  0  0  0  0  0  0
   -4.9530   23.6660  -28.6980 H   0  0  0  0  0  0  0  0  0  0  0  0
   -4.6886   21.2548  -31.7012 H   0  0  0  0  0  0  0  0  0  0  0  0
   -5.9756   17.4210  -31.2258 H   0  0  0  0  0  0  0  0  0  0  0  0
   -7.5275   17.6779  -32.0821 H   0  0  0  0  0  0  0  0  0  0  0  0
   -4.9960   16.4172  -33.0456 H   0  0  0  0  0  0  0  0  0  0  0  0
   -6.6401   16.1165  -33.5807 H   0  0  0  0  0  0  0  0  0  0  0  0
   -4.8533   17.6310  -35.0178 H   0  0  0  0  0  0  0  0  0  0  0  0
   -6.5853   17.9482  -35.1013 H   0  0  0  0  0  0  0  0  0  0  0  0
   -4.4188   19.4182  -33.6347 H   0  0  0  0  0  0  0  0  0  0  0  0
   -5.9602   20.0436  -34.2769 H   0  0  0  0  0  0  0  0  0  0  0  0
   -8.7577   22.6292  -31.4494 H   0  0  0  0  0  0  0  0  0  0  0  0
   -8.0002   24.8672  -30.6928 H   0  0  0  0  0  0  0  0  0  0  0  0
   -5.1350   25.7230  -29.4020 H   0  0  0  0  0  0  0  0  0  0  0  0
   -1.2580   24.2330  -30.4150 H   0  0  0  0  0  0  0  0  0  0  0  0
   -0.9018   26.6605  -26.4530 H   0  0  0  0  0  0  0  0  0  0  0  0
  1  2  1  0
  2  3  2  0
  2  4  2  0
  2  5  1  0
  5  6  2  0
  6  7  1  0
  7  8  2  0
  8  9  1  0
  9 10  1  0
 10 11  2  0
 11 12  1  0
 12 13  2  0
 13 14  1  0
 14 15  1  0
 15 16  2  0
 16 17  1  0
 17 18  2  0
 18 19  1  0
 19 20  1  0
 20 21  2  0
 20 22  2  0
 20 23  1  0
 23 24  1  0
 24 25  1  0
 25 26  1  0
 26 27  1  0
 19 28  2  0
 28 29  1  0
 29 30  2  0
 30 31  1  0
 15 32  1  0
  9 33  2  0
 33  5  1  0
 32 11  1  0
 30 17  1  0
 27 23  1  0
  1 34  1  0
  1 35  1  0
  6 36  1  0
  7 37  1  0
  8 38  1  0
 12 39  1  0
 13 40  1  0
 14 41  1  0
 18 42  1  0
 24 43  1  0
 24 44  1  0
 25 45  1  0
 25 46  1  0
 26 47  1  0
 26 48  1  0
 27 49  1  0
 27 50  1  0
 28 51  1  0
 29 52  1  0
 31 53  1  0
 32 54  1  0
 33 55  1  0
M  END
>  <smiles>  (16) 
NS(=O)(=O)c1cccc(N=c2cc[nH]c(=Nc3cc(S(=O)(=O)N4CCCC4)ccc3O)[nH]2)c1

>  <score_type>  (16) 
oracle

>  <origin>  (16) 
adgpu

>  <m_score__min__energy>  (16) 
-11.67

>  <m_primary>  (16) 
energy

$$$$
16:0
     RDKit          3D

 48 50  0  0  0  0  0  0  0  0999 V2000
   -1.2640   20.3240  -29.9940 C   0  0  0  0  0  0  0  0  0  0  0  0
   -2.1770   21.4490  -30.3770 C   0  0  0  0  0  0  0  0  0  0  0  0
   -2.4700   21.6090  -31.5930 O   0  0  0  0  0  0  0  0  0  0  0  0
   -2.7560   22.3140  -29.3820 N   0  0  0  0  0  0  0  0  0  0  0  0
   -2.0590   22.5090  -28.1030 C   0  0  0  0  0  0  0  0  0  0  0  0
   -2.0080   24.0070  -27.7540 C   0  0  1  0  0  0  0  0  0  0  0  0
   -1.0340   24.7290  -28.6420 C   0  0  0  0  0  0  0  0  0  0  0  0
   -1.4030   25.7230  -29.3220 O   0  0  0  0  0  0  0  0  0  0  0  0
    0.2710   24.2670  -28.7560 O   0  0  0  0  0  0  0  0  0  0  0  0
   -3.3080   24.5960  -27.8660 O   0  0  0  0  0  0  0  0  0  0  0  0
   -4.2480   24.1720  -28.8150 C   0  0  0  0  0  0  0  0  0  0  0  0
   -5.4440   24.8770  -28.9700 C   0  0  0  0  0  0  0  0  0  0  0  0
   -6.3980   24.4450  -29.8940 C   0  0  0  0  0  0  0  0  0  0  0  0
   -6.1650   23.2950  -30.6600 C   0  0  0  0  0  0  0  0  0  0  0  0
   -7.3780   22.7120  -31.8000 S   0  0  0  0  0  0  0  0  0  0  0  0
   -8.7570   22.9960  -31.2730 O   0  0  0  0  0  0  0  0  0  0  0  0
   -7.2010   23.4510  -33.0970 O   0  0  0  0  0  0  0  0  0  0  0  0
   -7.1760   20.9920  -32.0590 N   0  0  0  0  0  0  0  0  0  0  0  0
   -8.4820   20.3470  -32.3570 C   0  0  0  0  0  0  0  0  0  0  0  0
   -8.4210   18.8220  -32.5860 C   0  0  0  0  0  0  0  0  0  0  0  0
   -7.1890   18.1860  -31.9250 C   0  0  0  0  0  0  0  0  0  0  0  0
   -5.9290   18.2380  -32.7930 C   0  0  0  0  0  0  0  0  0  0  0  0
   -5.1820   19.5780  -32.7090 C   0  0  0  0  0  0  0  0  0  0  0  0
   -6.0980   20.7700  -33.0500 C   0  0  0  0  0  0  0  0  0  0  0  0
   -4.9690   22.5820  -30.4990 C   0  0  0  0  0  0  0  0  0  0  0  0
   -3.9920   23.0290  -29.5920 C   0  0  0  0  0  0  0  0  0  0  0  0
   -1.2076   20.2546  -28.8976 H   0  0  0  0  0  0  0  0  0  0  0  0
   -1.6545   19.3799  -30.4016 H   0  0  0  0  0  0  0  0  0  0  0  0
   -0.2597   20.5118  -30.4016 H   0  0  0  0  0  0  0  0  0  0  0  0
   -2.5957   21.9683  -27.3096 H   0  0  0  0  0  0  0  0  0  0  0  0
   -1.0324   22.1233  -28.1889 H   0  0  0  0  0  0  0  0  0  0  0  0
   -1.6672   24.1018  -26.7124 H   0  0  0  0  0  0  0  0  0  0  0  0
   -5.6348   25.7743  -28.3630 H   0  0  0  0  0  0  0  0  0  0  0  0
   -7.3341   25.0086  -30.0207 H   0  0  0  0  0  0  0  0  0  0  0  0
   -6.8420   20.6030  -31.1450 H   0  0  0  0  0  0  0  0  0  0  0  0
   -9.1576   20.5378  -31.5101 H   0  0  0  0  0  0  0  0  0  0  0  0
   -8.8317   20.7855  -33.3033 H   0  0  0  0  0  0  0  0  0  0  0  0
   -9.3268   18.3635  -32.1626 H   0  0  0  0  0  0  0  0  0  0  0  0
   -8.3525   18.6452  -33.6695 H   0  0  0  0  0  0  0  0  0  0  0  0
   -6.9852   18.7193  -30.9848 H   0  0  0  0  0  0  0  0  0  0  0  0
   -7.4238   17.1237  -31.7626 H   0  0  0  0  0  0  0  0  0  0  0  0
   -5.2478   17.4385  -32.4662 H   0  0  0  0  0  0  0  0  0  0  0  0
   -6.2501   18.1114  -33.8375 H   0  0  0  0  0  0  0  0  0  0  0  0
   -4.7968   19.7068  -31.6867 H   0  0  0  0  0  0  0  0  0  0  0  0
   -4.3624   19.5576  -33.4424 H   0  0  0  0  0  0  0  0  0  0  0  0
   -5.4808   21.6791  -33.1020 H   0  0  0  0  0  0  0  0  0  0  0  0
   -6.5843   20.5390  -34.0092 H   0  0  0  0  0  0  0  0  0  0  0  0
   -4.7938   21.6679  -31.0853 H   0  0  0  0  0  0  0  0  0  0  0  0
  1  2  1  0
  2  3  2  0
  2  4  1  0
  4  5  1  0
  5  6  1  0
  6  7  1  0
  7  8  2  0
  7  9  1  0
  6 10  1  0
 10 11  1  0
 11 12  2  0
 12 13  1  0
 13 14  2  0
 14 15  1  0
 15 16  2  0
 15 17  2  0
 15 18  1  0
 18 19  1  0
 19 20  1  0
 20 21  1  0
 21 22  1  0
 22 23  1  0
 23 24  1  0
 14 25  1  0
 25 26  2  0
 26  4  1  0
 26 11  1  0
 24 18  1  0
  1 27  1  0
  1 28  1  0
  1 29  1  0
  5 30  1  0
  5 31  1  0
  6 32  1  1
 12 33  1  0
 13 34  1  0
 18 35  1  0
 19 36  1  0
 19 37  1  0
 20 38  1  0
 20 39  1  0
 21 40  1  0
 21 41  1  0
 22 42  1  0
 22 43  1  0
 23 44  1  0
 23 45  1  0
 24 46  1  0
 24 47  1  0
 25 48  1  0
M  CHG  2   9  -1  18   1
M  END
>  <UniqueID>  (17) 
14

>  <SMILES>  (17) 
CC(=O)N1C[C@@H](C(=O)[O-])Oc2ccc(S(=O)(=O)[NH+]3CCCCCC3)cc21

>  <Energy>  (17) 
58.738750376756336

>  <Genealogy>  (17) 
CC(=O)N1CC(C(=O)[O-])Oc2ccc(S(=O)(=O)[NH+]3CCCCCC3)cc21 (protonated)
CC(=O)N1C[C@@H](C(=O)[O-])Oc2ccc(S(=O)(=O)[NH+]3CCCCCC3)cc21 (chirality)
CC(=O)N1C[C@@H](C(=O)[O-])Oc2ccc(S(=O)(=O)[NH+]3CCCCCC3)cc21 (3D coordinates assigned)
CC(=O)N1C[C@@H](C(=O)[O-])Oc2ccc(S(=O)(=O)[NH+]3CCCCCC3)cc21 (nonaromatic ring conformer: 58.738750376756336 kcal/mol)

>  <smiles>  (17) 
CC(=O)N1CC(C(=O)O)Oc2ccc(S(=O)(=O)N3CCCCCC3)cc21

>  <score_type>  (17) 
oracle

>  <origin>  (17) 
adgpu

>  <m_score__min__energy>  (17) 
-7.9400000000000004

>  <m_primary>  (17) 
energy

$$$$
17:0
     RDKit          3D

 50 53  0  0  0  0  0  0  0  0999 V2000
   -5.6937   17.0510  -30.8531 H   0  0  0  0  0  0  0  0  0  0  0  0
   -5.9500   17.6550  -31.7360 C   0  0  0  0  0  0  0  0  0  0  0  0
   -6.2980   18.9660  -31.6530 N   0  0  0  0  0  0  0  0  0  0  0  0
   -6.5660   19.4830  -32.8750 C   0  0  0  0  0  0  0  0  0  0  0  0
   -6.9290   20.7100  -33.0790 N   0  0  0  0  0  0  0  0  0  0  0  0
   -7.1240   21.8890  -31.8180 S   0  0  0  0  0  0  0  0  0  0  0  0
   -7.8490   21.2320  -30.6780 O   0  0  0  0  0  0  0  0  0  0  0  0
   -7.9480   23.0450  -32.3130 O   0  0  0  0  0  0  0  0  0  0  0  0
   -5.5590   22.4690  -31.2540 C   0  0  0  0  0  0  0  0  0  0  0  0
   -4.5590   21.5490  -30.9110 C   0  0  0  0  0  0  0  0  0  0  0  0
   -4.7541   20.4700  -30.9990 H   0  0  0  0  0  0  0  0  0  0  0  0
   -3.3160   21.9960  -30.4580 C   0  0  0  0  0  0  0  0  0  0  0  0
   -2.5395   21.2660  -30.1856 H   0  0  0  0  0  0  0  0  0  0  0  0
   -3.0510   23.3650  -30.3480 C   0  0  0  0  0  0  0  0  0  0  0  0
   -1.7890   23.7700  -29.8910 O   0  0  0  0  0  0  0  0  0  0  0  0
   -1.4870   24.1340  -28.5700 C   0  0  0  0  0  0  0  0  0  0  0  0
   -1.0490   23.1430  -27.6840 C   0  0  0  0  0  0  0  0  0  0  0  0
   -0.9544   22.1034  -28.0308 H   0  0  0  0  0  0  0  0  0  0  0  0
   -0.7310   23.4650  -26.3620 C   0  0  0  0  0  0  0  0  0  0  0  0
   -0.3981   22.6769  -25.6706 H   0  0  0  0  0  0  0  0  0  0  0  0
   -0.8350   24.7900  -25.9140 C   0  0  0  0  0  0  0  0  0  0  0  0
   -0.4620   25.2080  -24.2430 S   0  0  0  0  0  0  0  0  0  0  0  0
   -1.2390   26.4320  -23.8440 O   0  0  0  0  0  0  0  0  0  0  0  0
   -0.8840   24.0650  -23.3620 O   0  0  0  0  0  0  0  0  0  0  0  0
    1.2610   25.4880  -24.0830 N   0  0  0  0  0  0  0  0  0  0  0  0
    1.5270   25.1020  -23.1470 H   0  0  0  0  0  0  0  0  0  0  0  0
    2.0370   24.7580  -25.1150 C   0  0  0  0  0  0  0  0  0  0  0  0
    2.9517   24.3601  -24.6513 H   0  0  0  0  0  0  0  0  0  0  0  0
    1.3957   23.9543  -25.5057 H   0  0  0  0  0  0  0  0  0  0  0  0
    2.4360   25.6520  -26.3020 C   0  0  0  0  0  0  0  0  0  0  0  0
    3.3938   26.1449  -26.0788 H   0  0  0  0  0  0  0  0  0  0  0  0
    2.5333   25.0277  -27.2024 H   0  0  0  0  0  0  0  0  0  0  0  0
    1.4510   26.6330  -26.5300 O   0  0  0  0  0  0  0  0  0  0  0  0
    1.4440   27.5740  -25.4700 C   0  0  0  0  0  0  0  0  0  0  0  0
    2.2874   28.2654  -25.6135 H   0  0  0  0  0  0  0  0  0  0  0  0
    0.4716   28.0873  -25.5013 H   0  0  0  0  0  0  0  0  0  0  0  0
    1.5720   26.9310  -24.0690 C   0  0  0  0  0  0  0  0  0  0  0  0
    2.6030   27.0670  -23.7105 H   0  0  0  0  0  0  0  0  0  0  0  0
    0.8468   27.4246  -23.4053 H   0  0  0  0  0  0  0  0  0  0  0  0
   -1.2560   25.7880  -26.8030 C   0  0  0  0  0  0  0  0  0  0  0  0
   -1.3365   26.8296  -26.4586 H   0  0  0  0  0  0  0  0  0  0  0  0
   -1.5740   25.4660  -28.1250 C   0  0  0  0  0  0  0  0  0  0  0  0
   -1.8934   26.2564  -28.8201 H   0  0  0  0  0  0  0  0  0  0  0  0
   -4.0660   24.2910  -30.6580 C   0  0  0  0  0  0  0  0  0  0  0  0
   -3.8610   25.6560  -30.4820 O   0  0  0  0  0  0  0  0  0  0  0  0
   -5.3080   23.8410  -31.1190 C   0  0  0  0  0  0  0  0  0  0  0  0
   -6.0919   24.5683  -31.3769 H   0  0  0  0  0  0  0  0  0  0  0  0
   -6.3870   18.3500  -34.1040 S   0  0  0  0  0  0  0  0  0  0  0  0
   -5.9440   17.1390  -33.0260 C   0  0  0  0  0  0  0  0  0  0  0  0
   -5.5410   15.4930  -33.4690 Cl  0  0  0  0  0  0  0  0  0  0  0  0
  1  2  1  0
  2  3  1  0
  3  4  1  0
  4  5  2  0
  5  6  1  0
  6  7  2  0
  6  8  2  0
  6  9  1  0
  9 10  2  0
 10 11  1  0
 10 12  1  0
 12 13  1  0
 12 14  2  0
 14 15  1  0
 15 16  1  0
 16 17  2  0
 17 18  1  0
 17 19  1  0
 19 20  1  0
 19 21  2  0
 21 22  1  0
 22 23  2  0
 22 24  2  0
 22 25  1  0
 25 26  1  0
 25 27  1  0
 27 28  1  0
 27 29  1  0
 27 30  1  0
 30 31  1  0
 30 32  1  0
 30 33  1  0
 33 34  1  0
 34 35  1  0
 34 36  1  0
 34 37  1  0
 37 38  1  0
 37 39  1  0
 21 40  1  0
 40 41  1  0
 40 42  2  0
 42 43  1  0
 14 44  1  0
 44 45  1  0
 44 46  2  0
 46 47  1  0
  4 48  1  0
 48 49  1  0
 49 50  1  0
 49  2  2  0
 46  9  1  0
 42 16  1  0
 37 25  1  0
M  CHG  3   3  -1  25   1  45  -1
M  END
>  <UniqueID>  (18) 
15

>  <SMILES>  (18) 
O=S(=O)(/N=c1\[n-]cc(Cl)s1)c1ccc(Oc2ccc(S(=O)(=O)[NH+]3CCOCC3)cc2)c([O-])c1

>  <Energy>  (18) 
106.18362186772147

>  <Genealogy>  (18) 
O=S(=O)(N=c1[n-]cc(Cl)s1)c1ccc(Oc2ccc(S(=O)(=O)[NH+]3CCOCC3)cc2)c([O-])c1 (protonated)
O=S(=O)(/N=c1\[n-]cc(Cl)s1)c1ccc(Oc2ccc(S(=O)(=O)[NH+]3CCOCC3)cc2)c([O-])c1 (cis-trans isomerization)
O=S(=O)(/N=c1\[n-]cc(Cl)s1)c1ccc(Oc2ccc(S(=O)(=O)[NH+]3CCOCC3)cc2)c([O-])c1 (3D coordinates assigned)
O=S(=O)(/N=c1\[n-]cc(Cl)s1)c1ccc(Oc2ccc(S(=O)(=O)[NH+]3CCOCC3)cc2)c([O-])c1 (nonaromatic ring conformer: 106.18362186772147 kcal/mol)

>  <smiles>  (18) 
O=S(=O)(N=c1[nH]cc(Cl)s1)c1ccc(Oc2ccc(S(=O)(=O)N3CCOCC3)cc2)c(O)c1

>  <score_type>  (18) 
oracle

>  <origin>  (18) 
adgpu

>  <m_score__min__energy>  (18) 
-13

>  <m_primary>  (18) 
energy

$$$$
18:0
     RDKit          3D

 55 58  0  0  0  0  0  0  0  0999 V2000
   -1.0730   22.7230  -26.9000 C   0  0  0  0  0  0  0  0  0  0  0  0
   -0.9750   21.6320  -27.8860 N   0  0  0  0  0  0  0  0  0  0  0  0
   -2.2490   20.8740  -28.0000 C   0  0  0  0  0  0  0  0  0  0  0  0
   -2.9870   21.0710  -29.3390 C   0  0  0  0  0  0  0  0  0  0  0  0
   -2.8050   22.4380  -29.8340 N   0  0  0  0  0  0  0  0  0  0  0  0
   -3.9160   23.1700  -30.3780 C   0  0  0  0  0  0  0  0  0  0  0  0
   -4.9850   22.4770  -30.9690 C   0  0  0  0  0  0  0  0  0  0  0  0
   -6.0750   23.1770  -31.5170 C   0  0  0  0  0  0  0  0  0  0  0  0
   -7.1890   22.5000  -32.1150 N   0  0  0  0  0  0  0  0  0  0  0  0
   -7.7720   21.2670  -31.6740 C   0  0  0  0  0  0  0  0  0  0  0  0
   -8.6020   21.2630  -30.7240 O   0  0  0  0  0  0  0  0  0  0  0  0
   -7.3130   19.9890  -32.2610 C   0  0  0  0  0  0  0  0  0  0  0  0
   -6.0240   19.9310  -32.8210 C   0  0  0  0  0  0  0  0  0  0  0  0
   -5.5070   18.7240  -33.3220 C   0  0  0  0  0  0  0  0  0  0  0  0
   -4.1940   18.6710  -33.9080 N   0  0  0  0  0  0  0  0  0  0  0  0
   -3.0720   19.4490  -33.4530 C   0  0  0  0  0  0  0  0  0  0  0  0
   -3.0900   20.8560  -33.4980 C   0  0  0  0  0  0  0  0  0  0  0  0
   -1.9970   21.5910  -33.0300 C   0  0  0  0  0  0  0  0  0  0  0  0
   -0.8850   20.9310  -32.4990 C   0  0  0  0  0  0  0  0  0  0  0  0
   -0.8680   19.5360  -32.4300 C   0  0  0  0  0  0  0  0  0  0  0  0
   -1.9590   18.7980  -32.8980 C   0  0  0  0  0  0  0  0  0  0  0  0
   -6.3070   17.5720  -33.2950 C   0  0  0  0  0  0  0  0  0  0  0  0
   -5.8230   16.3680  -33.7950 O   0  0  0  0  0  0  0  0  0  0  0  0
   -7.5950   17.6240  -32.7600 C   0  0  0  0  0  0  0  0  0  0  0  0
   -8.1150   18.8220  -32.2570 C   0  0  0  0  0  0  0  0  0  0  0  0
   -9.4360   18.8170  -31.8020 O   0  0  0  0  0  0  0  0  0  0  0  0
   -6.1050   24.5740  -31.4310 C   0  0  0  0  0  0  0  0  0  0  0  0
   -5.0470   25.2690  -30.8430 C   0  0  0  0  0  0  0  0  0  0  0  0
   -3.9530   24.5740  -30.3180 C   0  0  0  0  0  0  0  0  0  0  0  0
   -2.9170   25.2840  -29.7190 O   0  0  0  0  0  0  0  0  0  0  0  0
   -1.4570   23.0060  -29.9100 C   0  0  0  0  0  0  0  0  0  0  0  0
   -0.4460   22.1100  -29.1810 C   0  0  0  0  0  0  0  0  0  0  0  0
   -1.0353   22.3034  -25.8839 H   0  0  0  0  0  0  0  0  0  0  0  0
   -0.2339   23.4203  -27.0401 H   0  0  0  0  0  0  0  0  0  0  0  0
   -2.0230   23.2596  -27.0401 H   0  0  0  0  0  0  0  0  0  0  0  0
   -2.0243   19.8034  -27.8848 H   0  0  0  0  0  0  0  0  0  0  0  0
   -2.9154   21.2581  -27.2137 H   0  0  0  0  0  0  0  0  0  0  0  0
   -2.5871   20.3625  -30.0794 H   0  0  0  0  0  0  0  0  0  0  0  0
   -4.0608   20.8920  -29.1809 H   0  0  0  0  0  0  0  0  0  0  0  0
   -4.9697   21.3777  -31.0036 H   0  0  0  0  0  0  0  0  0  0  0  0
   -5.4117   20.8436  -32.8675 H   0  0  0  0  0  0  0  0  0  0  0  0
   -4.0460   18.0330  -34.7230 H   0  0  0  0  0  0  0  0  0  0  0  0
   -3.9684   21.3795  -33.9034 H   0  0  0  0  0  0  0  0  0  0  0  0
   -2.0119   22.6898  -33.0796 H   0  0  0  0  0  0  0  0  0  0  0  0
   -0.0234   21.5102  -32.1355 H   0  0  0  0  0  0  0  0  0  0  0  0
    0.0050   19.0175  -32.0069 H   0  0  0  0  0  0  0  0  0  0  0  0
   -1.9453   17.7001  -32.8310 H   0  0  0  0  0  0  0  0  0  0  0  0
   -8.2092   16.7118  -32.7334 H   0  0  0  0  0  0  0  0  0  0  0  0
   -9.8350   19.5590  -31.2430 H   0  0  0  0  0  0  0  0  0  0  0  0
   -6.9680   25.1276  -31.8294 H   0  0  0  0  0  0  0  0  0  0  0  0
   -5.0738   26.3675  -30.7924 H   0  0  0  0  0  0  0  0  0  0  0  0
   -1.1628   23.0965  -30.9661 H   0  0  0  0  0  0  0  0  0  0  0  0
   -1.4634   23.9948  -29.4282 H   0  0  0  0  0  0  0  0  0  0  0  0
   -0.2171   21.2410  -29.8154 H   0  0  0  0  0  0  0  0  0  0  0  0
    0.4593   22.7031  -28.9843 H   0  0  0  0  0  0  0  0  0  0  0  0
  1  2  1  0
  2  3  1  0
  3  4  1  0
  4  5  1  0
  5  6  1  0
  6  7  2  0
  7  8  1  0
  8  9  1  0
  9 10  1  0
 10 11  2  0
 10 12  1  0
 12 13  2  0
 13 14  1  0
 14 15  1  0
 15 16  1  0
 16 17  2  0
 17 18  1  0
 18 19  2  0
 19 20  1  0
 20 21  2  0
 14 22  2  0
 22 23  1  0
 22 24  1  0
 24 25  2  0
 25 26  1  0
  8 27  2  0
 27 28  1  0
 28 29  2  0
 29 30  1  0
  5 31  1  0
 31 32  1  0
 32  2  1  0
 29  6  1  0
 25 12  1  0
 21 16  1  0
  1 33  1  0
  1 34  1  0
  1 35  1  0
  3 36  1  0
  3 37  1  0
  4 38  1  0
  4 39  1  0
  7 40  1  0
 13 41  1  0
 15 42  1  0
 17 43  1  0
 18 44  1  0
 19 45  1  0
 20 46  1  0
 21 47  1  0
 24 48  1  0
 26 49  1  0
 27 50  1  0
 28 51  1  0
 31 52  1  0
 31 53  1  0
 32 54  1  0
 32 55  1  0
M  CHG  3   9  -1  23  -1  30  -1
M  END
>  <UniqueID>  (19) 
16

>  <SMILES>  (19) 
CN1CCN(c2cc([N-]C(=O)c3cc(Nc4ccccc4)c([O-])cc3O)ccc2[O-])CC1

>  <Energy>  (19) 
85.61097156416855

>  <Genealogy>  (19) 
CN1CCN(c2cc([N-]C(=O)c3cc(Nc4ccccc4)c([O-])cc3O)ccc2[O-])CC1 (protonated)
CN1CCN(c2cc([N-]C(=O)c3cc(Nc4ccccc4)c([O-])cc3O)ccc2[O-])CC1 (3D coordinates assigned)
CN1CCN(c2cc([N-]C(=O)c3cc(Nc4ccccc4)c([O-])cc3O)ccc2[O-])CC1 (nonaromatic ring conformer: 85.61097156416855 kcal/mol)

>  <smiles>  (19) 
CN1CCN(c2cc(NC(=O)c3cc(Nc4ccccc4)c(O)cc3O)ccc2O)CC1

>  <score_type>  (19) 
oracle

>  <origin>  (19) 
adgpu

>  <m_score__min__energy>  (19) 
-11.34

>  <m_primary>  (19) 
energy

$$$$
19:0
     RDKit          3D

 63 67  0  0  0  0  0  0  0  0999 V2000
   -3.7089   22.3086  -31.3331 H   0  0  0  0  0  0  0  0  0  0  0  0
   -4.7030   22.7350  -31.1330 C   0  0  0  0  0  0  0  0  0  0  0  0
   -5.8470   21.9570  -31.3330 C   0  0  0  0  0  0  0  0  0  0  0  0
   -5.7497   20.9187  -31.6829 H   0  0  0  0  0  0  0  0  0  0  0  0
   -7.1180   22.4960  -31.0890 C   0  0  0  0  0  0  0  0  0  0  0  0
   -8.5600   21.5000  -31.2710 S   0  0  0  0  0  0  0  0  0  0  0  0
   -9.5810   21.8800  -30.2350 O   0  0  0  0  0  0  0  0  0  0  0  0
   -9.1400   21.7130  -32.6410 O   0  0  0  0  0  0  0  0  0  0  0  0
   -8.1570   19.8220  -31.0780 N   0  0  0  0  0  0  0  0  0  0  0  0
   -7.4840   19.1260  -31.9460 C   0  0  0  0  0  0  0  0  0  0  0  0
   -7.2100   17.8160  -31.7790 N   0  0  0  0  0  0  0  0  0  0  0  0
   -6.5490   17.4420  -32.8370 O   0  0  0  0  0  0  0  0  0  0  0  0
   -6.3810   18.4450  -33.6710 C   0  0  0  0  0  0  0  0  0  0  0  0
   -5.6800   18.3440  -34.9830 C   0  0  0  0  0  0  0  0  0  0  0  0
   -4.6043   18.1890  -34.8130 H   0  0  0  0  0  0  0  0  0  0  0  0
   -6.0873   17.4953  -35.5520 H   0  0  0  0  0  0  0  0  0  0  0  0
   -5.8312   19.2732  -35.5520 H   0  0  0  0  0  0  0  0  0  0  0  0
   -6.9740   19.5770  -33.1510 C   0  0  0  0  0  0  0  0  0  0  0  0
   -7.0280   20.5861  -33.5856 H   0  0  0  0  0  0  0  0  0  0  0  0
   -7.2360   23.8340  -30.6970 C   0  0  0  0  0  0  0  0  0  0  0  0
   -8.2322   24.2733  -30.5402 H   0  0  0  0  0  0  0  0  0  0  0  0
   -6.0930   24.6140  -30.5040 C   0  0  0  0  0  0  0  0  0  0  0  0
   -6.1932   25.6703  -30.2138 H   0  0  0  0  0  0  0  0  0  0  0  0
   -4.8170   24.0550  -30.6790 C   0  0  0  0  0  0  0  0  0  0  0  0
   -3.6260   24.8270  -30.4730 N   0  0  0  0  0  0  0  0  0  0  0  0
   -2.4990   24.4370  -29.6720 C   0  0  0  0  0  0  0  0  0  0  0  0
   -1.6680   25.3150  -29.3240 O   0  0  0  0  0  0  0  0  0  0  0  0
   -2.3250   23.0210  -29.1990 C   0  0  0  0  0  0  0  0  0  0  0  0
   -2.5225   22.3372  -30.0377 H   0  0  0  0  0  0  0  0  0  0  0  0
   -1.2945   22.9037  -28.8324 H   0  0  0  0  0  0  0  0  0  0  0  0
   -3.4720   22.6260  -27.8260 S   0  0  0  0  0  0  0  0  0  0  0  0
   -2.6610   21.0990  -27.3350 C   0  0  0  0  0  0  0  0  0  0  0  0
   -3.1080   19.8780  -27.6740 N   0  0  0  0  0  0  0  0  0  0  0  0
   -2.1670   19.0370  -27.2650 N   0  0  0  0  0  0  0  0  0  0  0  0
   -1.1690   19.7100  -26.7120 N   0  0  0  0  0  0  0  0  0  0  0  0
   -1.4580   20.9990  -26.7390 N   0  0  0  0  0  0  0  0  0  0  0  0
   -0.5840   22.0360  -26.2660 C   0  0  0  0  0  0  0  0  0  0  0  0
    0.1320   22.8340  -27.1700 C   0  0  0  0  0  0  0  0  0  0  0  0
    0.0631   22.6330  -28.2493 H   0  0  0  0  0  0  0  0  0  0  0  0
    0.9310   23.8810  -26.7100 C   0  0  0  0  0  0  0  0  0  0  0  0
    1.4914   24.4989  -27.4271 H   0  0  0  0  0  0  0  0  0  0  0  0
    1.0220   24.1480  -25.3380 C   0  0  0  0  0  0  0  0  0  0  0  0
    1.9590   25.5220  -24.7540 S   0  0  0  0  0  0  0  0  0  0  0  0
    2.3050   26.4280  -25.9020 O   0  0  0  0  0  0  0  0  0  0  0  0
    3.2340   25.0090  -24.1440 O   0  0  0  0  0  0  0  0  0  0  0  0
    1.0460   26.4090  -23.5490 N   0  0  0  0  0  0  0  0  0  0  0  0
    1.3510   26.0870  -22.5990 H   0  0  0  0  0  0  0  0  0  0  0  0
   -0.4000   26.2060  -23.7130 C   0  0  0  0  0  0  0  0  0  0  0  0
   -0.5925   25.2250  -24.1720 H   0  0  0  0  0  0  0  0  0  0  0  0
   -0.9095   26.2330  -22.7385 H   0  0  0  0  0  0  0  0  0  0  0  0
   -0.9140   27.3150  -24.6200 C   0  0  0  0  0  0  0  0  0  0  0  0
   -1.0185   26.9502  -25.6525 H   0  0  0  0  0  0  0  0  0  0  0  0
   -1.9053   27.6736  -24.3057 H   0  0  0  0  0  0  0  0  0  0  0  0
    0.1340   28.4150  -24.5480 C   0  0  0  0  0  0  0  0  0  0  0  0
    0.5038   28.6588  -25.5549 H   0  0  0  0  0  0  0  0  0  0  0  0
   -0.2789   29.3415  -24.1224 H   0  0  0  0  0  0  0  0  0  0  0  0
    1.2630   27.8550  -23.6880 C   0  0  0  0  0  0  0  0  0  0  0  0
    2.2320   28.0431  -24.1735 H   0  0  0  0  0  0  0  0  0  0  0  0
    1.2704   28.3393  -22.7004 H   0  0  0  0  0  0  0  0  0  0  0  0
    0.3150   23.3480  -24.4280 C   0  0  0  0  0  0  0  0  0  0  0  0
    0.3954   23.5422  -23.3483 H   0  0  0  0  0  0  0  0  0  0  0  0
   -0.4910   22.3050  -24.8910 C   0  0  0  0  0  0  0  0  0  0  0  0
   -1.0560   21.6910  -24.1742 H   0  0  0  0  0  0  0  0  0  0  0  0
  1  2  1  0
  2  3  2  0
  3  4  1  0
  3  5  1  0
  5  6  1  0
  6  7  2  0
  6  8  2  0
  6  9  1  0
  9 10  2  0
 10 11  1  0
 11 12  1  0
 12 13  1  0
 13 14  1  0
 14 15  1  0
 14 16  1  0
 14 17  1  0
 13 18  2  0
 18 19  1  0
  5 20  2  0
 20 21  1  0
 20 22  1  0
 22 23  1  0
 22 24  2  0
 24 25  1  0
 25 26  1  0
 26 27  2  0
 26 28  1  0
 28 29  1  0
 28 30  1  0
 28 31  1  0
 31 32  1  0
 32 33  2  0
 33 34  1  0
 34 35  2  0
 35 36  1  0
 36 37  1  0
 37 38  2  0
 38 39  1  0
 38 40  1  0
 40 41  1  0
 40 42  2  0
 42 43  1  0
 43 44  2  0
 43 45  2  0
 43 46  1  0
 46 47  1  0
 46 48  1  0
 48 49  1  0
 48 50  1  0
 48 51  1  0
 51 52  1  0
 51 53  1  0
 51 54  1  0
 54 55  1  0
 54 56  1  0
 54 57  1  0
 57 58  1  0
 57 59  1  0
 42 60  1  0
 60 61  1  0
 60 62  2  0
 62 63  1  0
 24  2  1  0
 36 32  1  0
 62 37  1  0
 18 10  1  0
 57 46  1  0
M  CHG  3  11  -1  25  -1  46   1
M  END
>  <UniqueID>  (20) 
17

>  <SMILES>  (20) 
Cc1c/c(=N\S(=O)(=O)c2ccc([N-]C(=O)CSc3nnnn3-c3ccc(S(=O)(=O)[NH+]4CCCC4)cc3)cc2)[n-]o1

>  <Energy>  (20) 
150.40820973916578

>  <Genealogy>  (20) 
Cc1cc(=NS(=O)(=O)c2ccc([N-]C(=O)CSc3nnnn3-c3ccc(S(=O)(=O)[NH+]4CCCC4)cc3)cc2)[n-]o1 (protonated)
Cc1c/c(=N\S(=O)(=O)c2ccc([N-]C(=O)CSc3nnnn3-c3ccc(S(=O)(=O)[NH+]4CCCC4)cc3)cc2)[n-]o1 (cis-trans isomerization)
Cc1c/c(=N\S(=O)(=O)c2ccc([N-]C(=O)CSc3nnnn3-c3ccc(S(=O)(=O)[NH+]4CCCC4)cc3)cc2)[n-]o1 (3D coordinates assigned)
Cc1c/c(=N\S(=O)(=O)c2ccc([N-]C(=O)CSc3nnnn3-c3ccc(S(=O)(=O)[NH+]4CCCC4)cc3)cc2)[n-]o1 (nonaromatic ring conformer: 150.40820973916578 kcal/mol)

>  <smiles>  (20) 
Cc1cc(=NS(=O)(=O)c2ccc(NC(=O)CSc3nnnn3-c3ccc(S(=O)(=O)N4CCCC4)cc3)cc2)[nH]o1

>  <score_type>  (20) 
oracle

>  <origin>  (20) 
adgpu

>  <m_score__min__energy>  (20) 
-14.26

>  <m_primary>  (20) 
energy

$$$$
20:0
     RDKit          3D

 61 63  0  0  0  0  0  0  0  0999 V2000
   -0.9330   18.2760  -34.1680 C   0  0  0  0  0  0  0  0  0  0  0  0
   -2.2560   18.8260  -33.7270 C   0  0  0  0  0  0  0  0  0  0  0  0
   -3.3370   17.9630  -33.5150 C   0  0  0  0  0  0  0  0  0  0  0  0
   -4.5780   18.4690  -33.1270 C   0  0  0  0  0  0  0  0  0  0  0  0
   -4.7670   19.8500  -32.9500 C   0  0  0  0  0  0  0  0  0  0  0  0
   -6.0880   20.3410  -32.4890 C   0  0  0  0  0  0  0  0  0  0  0  0
   -7.2750   19.7650  -32.9620 C   0  0  0  0  0  0  0  0  0  0  0  0
   -8.5010   20.2440  -32.5010 C   0  0  0  0  0  0  0  0  0  0  0  0
   -8.5480   21.3050  -31.5840 C   0  0  0  0  0  0  0  0  0  0  0  0
   -9.8780   21.7560  -31.0470 C   0  0  0  0  0  0  0  0  0  0  0  0
   -7.3310   21.8600  -31.1340 C   0  0  0  0  0  0  0  0  0  0  0  0
   -7.2800   23.2330  -29.9680 S   0  0  0  0  0  0  0  0  0  0  0  0
   -6.2770   24.3320  -31.0350 C   0  0  0  0  0  0  0  0  0  0  0  0
   -4.8220   24.2590  -30.6850 C   0  0  0  0  0  0  0  0  0  0  0  0
   -4.0600   25.2070  -31.0160 O   0  0  0  0  0  0  0  0  0  0  0  0
   -4.3190   23.1510  -29.9230 N   0  0  0  0  0  0  0  0  0  0  0  0
   -2.9270   22.9160  -29.6410 C   0  0  0  0  0  0  0  0  0  0  0  0
   -2.4320   21.6070  -29.7470 C   0  0  0  0  0  0  0  0  0  0  0  0
   -1.0790   21.3320  -29.5180 C   0  0  0  0  0  0  0  0  0  0  0  0
   -0.4790   19.6860  -29.7070 S   0  0  0  0  0  0  0  0  0  0  0  0
   -0.9270   18.8310  -28.5530 O   0  0  0  0  0  0  0  0  0  0  0  0
   -1.0370   19.1040  -30.9750 O   0  0  0  0  0  0  0  0  0  0  0  0
    1.2580   19.6830  -29.7940 N   0  0  0  0  0  0  0  0  0  0  0  0
    1.8130   18.3660  -29.4580 C   0  0  0  0  0  0  0  0  0  0  0  0
    0.9760   17.2720  -30.1300 C   0  0  0  0  0  0  0  0  0  0  0  0
    1.7970   18.1960  -27.9390 C   0  0  0  0  0  0  0  0  0  0  0  0
   -0.2050   22.3770  -29.1880 C   0  0  0  0  0  0  0  0  0  0  0  0
   -0.6810   23.6880  -29.1020 C   0  0  0  0  0  0  0  0  0  0  0  0
   -2.0300   23.9680  -29.3430 C   0  0  0  0  0  0  0  0  0  0  0  0
   -2.4500   25.2940  -29.3190 O   0  0  0  0  0  0  0  0  0  0  0  0
   -6.1520   21.3570  -31.5870 N   0  0  0  0  0  0  0  0  0  0  0  0
   -3.6870   20.7320  -33.1990 C   0  0  0  0  0  0  0  0  0  0  0  0
   -3.8290   22.2260  -33.0540 C   0  0  0  0  0  0  0  0  0  0  0  0
   -2.4380   20.2060  -33.5770 C   0  0  0  0  0  0  0  0  0  0  0  0
   -0.3277   18.0244  -33.2847 H   0  0  0  0  0  0  0  0  0  0  0  0
   -1.0950   17.3707  -34.7715 H   0  0  0  0  0  0  0  0  0  0  0  0
   -0.4055   19.0294  -34.7715 H   0  0  0  0  0  0  0  0  0  0  0  0
   -3.2076   16.8796  -33.6550 H   0  0  0  0  0  0  0  0  0  0  0  0
   -5.4178   17.7791  -32.9578 H   0  0  0  0  0  0  0  0  0  0  0  0
   -7.2399   18.9419  -33.6909 H   0  0  0  0  0  0  0  0  0  0  0  0
   -9.4360   19.7877  -32.8581 H   0  0  0  0  0  0  0  0  0  0  0  0
   -9.8516   21.7470  -29.9474 H   0  0  0  0  0  0  0  0  0  0  0  0
  -10.0893   22.7760  -31.4004 H   0  0  0  0  0  0  0  0  0  0  0  0
  -10.6662   21.0749  -31.4004 H   0  0  0  0  0  0  0  0  0  0  0  0
   -6.4079   24.0283  -32.0841 H   0  0  0  0  0  0  0  0  0  0  0  0
   -6.6174   25.3667  -30.8813 H   0  0  0  0  0  0  0  0  0  0  0  0
   -5.0180   22.5590  -29.4200 H   0  0  0  0  0  0  0  0  0  0  0  0
   -3.1156   20.7874  -30.0133 H   0  0  0  0  0  0  0  0  0  0  0  0
    2.8487   18.2862  -29.8197 H   0  0  0  0  0  0  0  0  0  0  0  0
    0.4995   16.6491  -29.3587 H   0  0  0  0  0  0  0  0  0  0  0  0
    0.2006   17.7366  -30.7568 H   0  0  0  0  0  0  0  0  0  0  0  0
    1.6272   16.6451  -30.7568 H   0  0  0  0  0  0  0  0  0  0  0  0
    1.8897   19.1813  -27.4588 H   0  0  0  0  0  0  0  0  0  0  0  0
    0.8507   17.7263  -27.6326 H   0  0  0  0  0  0  0  0  0  0  0  0
    2.6391   17.5580  -27.6326 H   0  0  0  0  0  0  0  0  0  0  0  0
    0.8572   22.1647  -28.9964 H   0  0  0  0  0  0  0  0  0  0  0  0
    0.0092   24.5045  -28.8433 H   0  0  0  0  0  0  0  0  0  0  0  0
   -3.8541   22.4900  -31.9865 H   0  0  0  0  0  0  0  0  0  0  0  0
   -2.9741   22.7240  -33.5349 H   0  0  0  0  0  0  0  0  0  0  0  0
   -4.7624   22.5540  -33.5349 H   0  0  0  0  0  0  0  0  0  0  0  0
   -1.5937   20.8878  -33.7570 H   0  0  0  0  0  0  0  0  0  0  0  0
  1  2  1  0
  2  3  2  0
  3  4  1  0
  4  5  2  0
  5  6  1  0
  6  7  2  0
  7  8  1  0
  8  9  2  0
  9 10  1  0
  9 11  1  0
 11 12  1  0
 12 13  1  0
 13 14  1  0
 14 15  2  0
 14 16  1  0
 16 17  1  0
 17 18  2  0
 18 19  1  0
 19 20  1  0
 20 21  2  0
 20 22  2  0
 20 23  1  0
 23 24  1  0
 24 25  1  0
 24 26  1  0
 19 27  2  0
 27 28  1  0
 28 29  2  0
 29 30  1  0
 11 31  2  0
  5 32  1  0
 32 33  1  0
 32 34  2  0
 34  2  1  0
 31  6  1  0
 29 17  1  0
  1 35  1  0
  1 36  1  0
  1 37  1  0
  3 38  1  0
  4 39  1  0
  7 40  1  0
  8 41  1  0
 10 42  1  0
 10 43  1  0
 10 44  1  0
 13 45  1  0
 13 46  1  0
 16 47  1  0
 18 48  1  0
 24 49  1  0
 25 50  1  0
 25 51  1  0
 25 52  1  0
 26 53  1  0
 26 54  1  0
 26 55  1  0
 27 56  1  0
 28 57  1  0
 33 58  1  0
 33 59  1  0
 33 60  1  0
 34 61  1  0
M  CHG  2  23  -1  30  -1
M  END
>  <UniqueID>  (21) 
18

>  <SMILES>  (21) 
Cc1ccc(-c2ccc(C)c(SCC(=O)Nc3cc(S(=O)(=O)[N-]C(C)C)ccc3[O-])n2)c(C)c1

>  <Energy>  (21) 
62.03243725650789

>  <Genealogy>  (21) 
Cc1ccc(-c2ccc(C)c(SCC(=O)Nc3cc(S(=O)(=O)[N-]C(C)C)ccc3[O-])n2)c(C)c1 (protonated)
Cc1ccc(-c2ccc(C)c(SCC(=O)Nc3cc(S(=O)(=O)[N-]C(C)C)ccc3[O-])n2)c(C)c1 (3D coordinates assigned)
Cc1ccc(-c2ccc(C)c(SCC(=O)Nc3cc(S(=O)(=O)[N-]C(C)C)ccc3[O-])n2)c(C)c1 (optimized conformer: 62.03243725650789 kcal/mol)

>  <smiles>  (21) 
Cc1ccc(-c2ccc(C)c(SCC(=O)Nc3cc(S(=O)(=O)NC(C)C)ccc3O)n2)c(C)c1

>  <score_type>  (21) 
oracle

>  <origin>  (21) 
adgpu

>  <m_score__min__energy>  (21) 
-13.73

>  <m_primary>  (21) 
energy

$$$$
21:0
     RDKit          3D

 49 51  0  0  0  0  0  0  0  0999 V2000
   -0.6030   25.8390  -27.8120 C   0  0  0  0  0  0  0  0  0  0  0  0
   -1.0570   25.2150  -29.0080 O   0  0  0  0  0  0  0  0  0  0  0  0
   -1.4660   23.8750  -29.1070 C   0  0  0  0  0  0  0  0  0  0  0  0
   -0.6690   22.8970  -29.7370 C   0  0  0  0  0  0  0  0  0  0  0  0
   -1.1180   21.5760  -29.8370 C   0  0  0  0  0  0  0  0  0  0  0  0
   -2.3600   21.2160  -29.3120 C   0  0  0  0  0  0  0  0  0  0  0  0
   -3.1570   22.1740  -28.6780 C   0  0  0  0  0  0  0  0  0  0  0  0
   -2.7150   23.5020  -28.5610 C   0  0  0  0  0  0  0  0  0  0  0  0
   -3.5870   24.5260  -27.8870 C   0  0  0  0  0  0  0  0  0  0  0  0
   -4.9660   24.3650  -28.3470 N   0  0  0  0  0  0  0  0  0  0  0  0
   -5.0960   24.8510  -30.0080 S   0  0  0  0  0  0  0  0  0  0  0  0
   -6.0580   26.0000  -30.1160 O   0  0  0  0  0  0  0  0  0  0  0  0
   -3.7510   25.2970  -30.5130 O   0  0  0  0  0  0  0  0  0  0  0  0
   -5.7010   23.5010  -30.9610 C   0  0  0  0  0  0  0  0  0  0  0  0
   -7.0490   23.1350  -30.8590 C   0  0  0  0  0  0  0  0  0  0  0  0
   -7.5280   22.0140  -31.5410 C   0  0  0  0  0  0  0  0  0  0  0  0
   -6.6610   21.2470  -32.3330 C   0  0  0  0  0  0  0  0  0  0  0  0
   -7.2340   19.7790  -33.1200 S   0  0  0  0  0  0  0  0  0  0  0  0
   -6.7940   19.8100  -34.5570 O   0  0  0  0  0  0  0  0  0  0  0  0
   -8.7350   19.7420  -33.0840 O   0  0  0  0  0  0  0  0  0  0  0  0
   -6.5480   18.3720  -32.3290 N   0  0  0  0  0  0  0  0  0  0  0  0
   -7.1260   17.1050  -32.8170 C   0  0  0  0  0  0  0  0  0  0  0  0
   -6.4830   16.6460  -34.1340 C   0  0  0  0  0  0  0  0  0  0  0  0
   -5.0810   16.5420  -33.9970 O   0  0  0  0  0  0  0  0  0  0  0  0
   -4.5380   17.8160  -33.7150 C   0  0  0  0  0  0  0  0  0  0  0  0
   -5.0750   18.3650  -32.3810 C   0  0  0  0  0  0  0  0  0  0  0  0
   -5.3160   21.6210  -32.4470 C   0  0  0  0  0  0  0  0  0  0  0  0
   -4.8360   22.7420  -31.7640 C   0  0  0  0  0  0  0  0  0  0  0  0
   -0.9987   25.2951  -26.9416 H   0  0  0  0  0  0  0  0  0  0  0  0
    0.4966   25.8237  -27.7850 H   0  0  0  0  0  0  0  0  0  0  0  0
   -0.9560   26.8805  -27.7850 H   0  0  0  0  0  0  0  0  0  0  0  0
    0.3112   23.1745  -30.1521 H   0  0  0  0  0  0  0  0  0  0  0  0
   -0.4907   20.8191  -30.3306 H   0  0  0  0  0  0  0  0  0  0  0  0
   -2.7123   20.1774  -29.3971 H   0  0  0  0  0  0  0  0  0  0  0  0
   -4.1363   21.8858  -28.2683 H   0  0  0  0  0  0  0  0  0  0  0  0
   -3.5444   24.3845  -26.7970 H   0  0  0  0  0  0  0  0  0  0  0  0
   -3.2305   25.5359  -28.1379 H   0  0  0  0  0  0  0  0  0  0  0  0
   -7.7334   23.7328  -30.2392 H   0  0  0  0  0  0  0  0  0  0  0  0
   -8.5879   21.7320  -31.4567 H   0  0  0  0  0  0  0  0  0  0  0  0
   -6.9688   16.3269  -32.0555 H   0  0  0  0  0  0  0  0  0  0  0  0
   -8.1974   17.2709  -33.0029 H   0  0  0  0  0  0  0  0  0  0  0  0
   -6.8922   15.6636  -34.4122 H   0  0  0  0  0  0  0  0  0  0  0  0
   -6.7074   17.3885  -34.9140 H   0  0  0  0  0  0  0  0  0  0  0  0
   -3.4427   17.7343  -33.6549 H   0  0  0  0  0  0  0  0  0  0  0  0
   -4.8309   18.5063  -34.5198 H   0  0  0  0  0  0  0  0  0  0  0  0
   -4.6955   17.7365  -31.5619 H   0  0  0  0  0  0  0  0  0  0  0  0
   -4.7308   19.4052  -32.2833 H   0  0  0  0  0  0  0  0  0  0  0  0
   -4.6347   21.0300  -33.0767 H   0  0  0  0  0  0  0  0  0  0  0  0
   -3.7783   23.0298  -31.8561 H   0  0  0  0  0  0  0  0  0  0  0  0
  1  2  1  0
  2  3  1  0
  3  4  2  0
  4  5  1  0
  5  6  2  0
  6  7  1  0
  7  8  2  0
  8  9  1  0
  9 10  1  0
 10 11  1  0
 11 12  2  0
 11 13  2  0
 11 14  1  0
 14 15  2  0
 15 16  1  0
 16 17  2  0
 17 18  1  0
 18 19  2  0
 18 20  2  0
 18 21  1  0
 21 22  1  0
 22 23  1  0
 23 24  1  0
 24 25  1  0
 25 26  1  0
 17 27  1  0
 27 28  2  0
  8  3  1  0
 28 14  1  0
 26 21  1  0
  1 29  1  0
  1 30  1  0
  1 31  1  0
  4 32  1  0
  5 33  1  0
  6 34  1  0
  7 35  1  0
  9 36  1  0
  9 37  1  0
 15 38  1  0
 16 39  1  0
 22 40  1  0
 22 41  1  0
 23 42  1  0
 23 43  1  0
 25 44  1  0
 25 45  1  0
 26 46  1  0
 26 47  1  0
 27 48  1  0
 28 49  1  0
M  CHG  1  10  -1
M  END
>  <UniqueID>  (22) 
19

>  <SMILES>  (22) 
COc1ccccc1C[N-]S(=O)(=O)c1ccc(S(=O)(=O)N2CCOCC2)cc1

>  <Energy>  (22) 
50.23336464660673

>  <Genealogy>  (22) 
COc1ccccc1C[N-]S(=O)(=O)c1ccc(S(=O)(=O)N2CCOCC2)cc1 (protonated)
COc1ccccc1C[N-]S(=O)(=O)c1ccc(S(=O)(=O)N2CCOCC2)cc1 (3D coordinates assigned)
COc1ccccc1C[N-]S(=O)(=O)c1ccc(S(=O)(=O)N2CCOCC2)cc1 (nonaromatic ring conformer: 50.23336464660673 kcal/mol)

>  <smiles>  (22) 
COc1ccccc1CNS(=O)(=O)c1ccc(S(=O)(=O)N2CCOCC2)cc1

>  <score_type>  (22) 
oracle

>  <origin>  (22) 
adgpu

>  <m_score__min__energy>  (22) 
-10.359999999999999

>  <m_primary>  (22) 
energy

$$$$
22:0
     RDKit          3D

 53 55  0  0  0  0  0  0  0  0999 V2000
   -0.7960   28.0810  -25.4440 C   0  0  0  0  0  0  0  0  0  0  0  0
   -0.2090   26.8520  -24.7100 C   0  0  0  0  0  0  0  0  0  0  0  0
   -0.8490   26.7970  -23.3070 C   0  0  0  0  0  0  0  0  0  0  0  0
    1.3140   27.0690  -24.5740 C   0  0  0  0  0  0  0  0  0  0  0  0
   -0.4700   25.5240  -25.4500 C   0  0  0  0  0  0  0  0  0  0  0  0
   -0.7960   25.5460  -26.8240 C   0  0  0  0  0  0  0  0  0  0  0  0
   -1.0870   24.3680  -27.5150 C   0  0  0  0  0  0  0  0  0  0  0  0
   -1.0610   23.1370  -26.8560 C   0  0  0  0  0  0  0  0  0  0  0  0
   -1.5540   21.6810  -27.7120 S   0  0  0  0  0  0  0  0  0  0  0  0
   -0.3460   20.9340  -28.2050 O   0  0  0  0  0  0  0  0  0  0  0  0
   -2.3430   20.7800  -26.8030 O   0  0  0  0  0  0  0  0  0  0  0  0
   -2.5480   22.1730  -29.0650 C   0  0  0  0  0  0  0  0  0  0  0  0
   -3.0060   23.4340  -29.2370 N   0  0  0  0  0  0  0  0  0  0  0  0
   -3.5890   23.3380  -30.4480 C   0  0  0  0  0  0  0  0  0  0  0  0
   -4.1720   24.3370  -31.0290 N   0  0  0  0  0  0  0  0  0  0  0  0
   -3.4720   22.1040  -30.9730 N   0  0  0  0  0  0  0  0  0  0  0  0
   -4.0510   21.5250  -32.5020 S   0  0  0  0  0  0  0  0  0  0  0  0
   -2.9870   20.6440  -33.0960 O   0  0  0  0  0  0  0  0  0  0  0  0
   -4.2680   22.6760  -33.4440 O   0  0  0  0  0  0  0  0  0  0  0  0
   -5.5670   20.6200  -32.3070 C   0  0  0  0  0  0  0  0  0  0  0  0
   -5.5040   19.2220  -32.4570 C   0  0  0  0  0  0  0  0  0  0  0  0
   -6.6420   18.4310  -32.3080 C   0  0  0  0  0  0  0  0  0  0  0  0
   -7.8650   19.0180  -32.0040 C   0  0  0  0  0  0  0  0  0  0  0  0
   -7.9550   20.4000  -31.8540 C   0  0  0  0  0  0  0  0  0  0  0  0
   -6.8260   21.2240  -32.0090 C   0  0  0  0  0  0  0  0  0  0  0  0
   -7.0920   22.9640  -31.7650 S   0  0  0  0  0  0  0  0  0  0  0  0
   -6.8220   23.3660  -30.0530 C   0  0  0  0  0  0  0  0  0  0  0  0
   -8.5200   23.2900  -32.1060 O   0  0  0  0  0  0  0  0  0  0  0  0
   -6.2130   23.8130  -32.6340 O   0  0  0  0  0  0  0  0  0  0  0  0
   -2.8210   21.3580  -30.1030 N   0  0  0  0  0  0  0  0  0  0  0  0
   -0.7310   23.0910  -25.4980 C   0  0  0  0  0  0  0  0  0  0  0  0
   -0.4340   24.2660  -24.8020 C   0  0  0  0  0  0  0  0  0  0  0  0
   -1.1472   28.8162  -24.7050 H   0  0  0  0  0  0  0  0  0  0  0  0
   -0.0186   28.5374  -26.0744 H   0  0  0  0  0  0  0  0  0  0  0  0
   -1.6395   27.7632  -26.0744 H   0  0  0  0  0  0  0  0  0  0  0  0
   -0.0616   26.8647  -22.5419 H   0  0  0  0  0  0  0  0  0  0  0  0
   -1.5477   27.6384  -23.1895 H   0  0  0  0  0  0  0  0  0  0  0  0
   -1.3939   25.8487  -23.1895 H   0  0  0  0  0  0  0  0  0  0  0  0
    1.5852   27.1076  -23.5086 H   0  0  0  0  0  0  0  0  0  0  0  0
    1.8475   26.2378  -25.0582 H   0  0  0  0  0  0  0  0  0  0  0  0
    1.5941   28.0161  -25.0582 H   0  0  0  0  0  0  0  0  0  0  0  0
   -0.8211   26.5070  -27.3587 H   0  0  0  0  0  0  0  0  0  0  0  0
   -1.3383   24.4099  -28.5851 H   0  0  0  0  0  0  0  0  0  0  0  0
   -4.6160   24.2580  -31.9700 H   0  0  0  0  0  0  0  0  0  0  0  0
   -4.5414   18.7460  -32.6956 H   0  0  0  0  0  0  0  0  0  0  0  0
   -6.5722   17.3401  -32.4312 H   0  0  0  0  0  0  0  0  0  0  0  0
   -8.7610   18.3916  -31.8820 H   0  0  0  0  0  0  0  0  0  0  0  0
   -8.9264   20.8548  -31.6100 H   0  0  0  0  0  0  0  0  0  0  0  0
   -7.3228   22.6204  -29.4179 H   0  0  0  0  0  0  0  0  0  0  0  0
   -5.7426   23.3623  -29.8413 H   0  0  0  0  0  0  0  0  0  0  0  0
   -7.2337   24.3638  -29.8413 H   0  0  0  0  0  0  0  0  0  0  0  0
   -0.7050   22.1240  -24.9743 H   0  0  0  0  0  0  0  0  0  0  0  0
   -0.1686   24.2125  -23.7358 H   0  0  0  0  0  0  0  0  0  0  0  0
  1  2  1  0
  2  3  1  0
  2  4  1  0
  2  5  1  0
  5  6  2  0
  6  7  1  0
  7  8  2  0
  8  9  1  0
  9 10  2  0
  9 11  2  0
  9 12  1  0
 12 13  2  0
 13 14  1  0
 14 15  2  3
 14 16  1  0
 16 17  1  0
 17 18  2  0
 17 19  2  0
 17 20  1  0
 20 21  2  0
 21 22  1  0
 22 23  2  0
 23 24  1  0
 24 25  2  0
 25 26  1  0
 26 27  1  0
 26 28  2  0
 26 29  2  0
 16 30  1  0
  8 31  1  0
 31 32  2  0
 32  5  1  0
 30 12  1  0
 25 20  1  0
  1 33  1  0
  1 34  1  0
  1 35  1  0
  3 36  1  0
  3 37  1  0
  3 38  1  0
  4 39  1  0
  4 40  1  0
  4 41  1  0
  6 42  1  0
  7 43  1  0
 15 44  1  0
 21 45  1  0
 22 46  1  0
 23 47  1  0
 24 48  1  0
 27 49  1  0
 27 50  1  0
 27 51  1  0
 31 52  1  0
 32 53  1  0
M  CHG  1  30  -1
M  END
>  <UniqueID>  (23) 
20

>  <SMILES>  (23) 
CC(C)(C)c1ccc(S(=O)(=O)c2nc(=N)n(S(=O)(=O)c3ccccc3S(C)(=O)=O)[n-]2)cc1

>  <Energy>  (23) 
93.39052973452726

>  <Genealogy>  (23) 
CC(C)(C)c1ccc(S(=O)(=O)c2nc(=N)n(S(=O)(=O)c3ccccc3S(C)(=O)=O)[n-]2)cc1 (protonated)
CC(C)(C)c1ccc(S(=O)(=O)c2nc(=N)n(S(=O)(=O)c3ccccc3S(C)(=O)=O)[n-]2)cc1 (3D coordinates assigned)
CC(C)(C)c1ccc(S(=O)(=O)c2nc(=N)n(S(=O)(=O)c3ccccc3S(C)(=O)=O)[n-]2)cc1 (optimized conformer: 93.39052973452726 kcal/mol)

>  <smiles>  (23) 
CC(C)(C)c1ccc(S(=O)(=O)c2nc(=N)n(S(=O)(=O)c3ccccc3S(C)(=O)=O)[nH]2)cc1

>  <score_type>  (23) 
oracle

>  <origin>  (23) 
adgpu

>  <m_score__min__energy>  (23) 
-11.93

>  <m_primary>  (23) 
energy

$$$$
23:0
     RDKit          3D

 41 43  0  0  0  0  0  0  0  0999 V2000
   -3.9370   16.7060  -35.3470 C   0  0  0  0  0  0  0  0  0  0  0  0
   -4.8150   16.6710  -34.1370 C   0  0  0  0  0  0  0  0  0  0  0  0
   -4.8760   15.6200  -33.2990 N   0  0  0  0  0  0  0  0  0  0  0  0
   -5.7520   15.9130  -32.3840 O   0  0  0  0  0  0  0  0  0  0  0  0
   -6.2730   17.1020  -32.5770 C   0  0  0  0  0  0  0  0  0  0  0  0
   -7.1910   17.5730  -31.7810 N   0  0  0  0  0  0  0  0  0  0  0  0
   -8.0420   19.0860  -31.8230 S   0  0  0  0  0  0  0  0  0  0  0  0
   -8.8440   19.1400  -33.0920 O   0  0  0  0  0  0  0  0  0  0  0  0
   -8.9880   19.1630  -30.6580 O   0  0  0  0  0  0  0  0  0  0  0  0
   -6.9250   20.4440  -31.8350 C   0  0  0  0  0  0  0  0  0  0  0  0
   -7.3380   21.6950  -32.3120 C   0  0  0  0  0  0  0  0  0  0  0  0
   -6.4710   22.7900  -32.2560 C   0  0  0  0  0  0  0  0  0  0  0  0
   -5.1930   22.6480  -31.7050 C   0  0  0  0  0  0  0  0  0  0  0  0
   -4.3480   23.8010  -31.5850 N   0  0  0  0  0  0  0  0  0  0  0  0
   -4.1130   24.5200  -30.3660 C   0  0  0  0  0  0  0  0  0  0  0  0
   -4.6030   25.6720  -30.2380 O   0  0  0  0  0  0  0  0  0  0  0  0
   -3.3600   23.9130  -29.2400 C   0  0  0  0  0  0  0  0  0  0  0  0
   -3.8290   22.7310  -28.6390 C   0  0  0  0  0  0  0  0  0  0  0  0
   -3.1220   22.1410  -27.5880 C   0  0  0  0  0  0  0  0  0  0  0  0
   -1.9450   22.7280  -27.1200 C   0  0  0  0  0  0  0  0  0  0  0  0
   -1.4770   23.9100  -27.6980 C   0  0  0  0  0  0  0  0  0  0  0  0
   -2.1760   24.5060  -28.7520 C   0  0  0  0  0  0  0  0  0  0  0  0
   -1.6790   25.6740  -29.3210 O   0  0  0  0  0  0  0  0  0  0  0  0
   -4.7590   21.3810  -31.2790 C   0  0  0  0  0  0  0  0  0  0  0  0
   -5.6210   20.2850  -31.3480 C   0  0  0  0  0  0  0  0  0  0  0  0
   -5.6850   17.6670  -33.7140 C   0  0  0  0  0  0  0  0  0  0  0  0
   -5.9380   18.9590  -34.4350 C   0  0  0  0  0  0  0  0  0  0  0  0
   -2.8832   16.7480  -35.0343 H   0  0  0  0  0  0  0  0  0  0  0  0
   -4.1052   15.8004  -35.9484 H   0  0  0  0  0  0  0  0  0  0  0  0
   -4.1767   17.5953  -35.9484 H   0  0  0  0  0  0  0  0  0  0  0  0
   -8.3475   21.8158  -32.7318 H   0  0  0  0  0  0  0  0  0  0  0  0
   -6.7946   23.7662  -32.6463 H   0  0  0  0  0  0  0  0  0  0  0  0
   -4.7594   22.2676  -28.9990 H   0  0  0  0  0  0  0  0  0  0  0  0
   -3.4933   21.2129  -27.1289 H   0  0  0  0  0  0  0  0  0  0  0  0
   -1.3864   22.2596  -26.2962 H   0  0  0  0  0  0  0  0  0  0  0  0
   -0.5535   24.3746  -27.3220 H   0  0  0  0  0  0  0  0  0  0  0  0
   -3.7380   21.2526  -30.8904 H   0  0  0  0  0  0  0  0  0  0  0  0
   -5.2754   19.2938  -31.0191 H   0  0  0  0  0  0  0  0  0  0  0  0
   -6.0955   19.7635  -33.7015 H   0  0  0  0  0  0  0  0  0  0  0  0
   -5.0705   19.2028  -35.0659 H   0  0  0  0  0  0  0  0  0  0  0  0
   -6.8333   18.8576  -35.0659 H   0  0  0  0  0  0  0  0  0  0  0  0
  1  2  1  0
  2  3  1  0
  3  4  1  0
  4  5  1  0
  5  6  2  3
  6  7  1  0
  7  8  2  0
  7  9  2  0
  7 10  1  0
 10 11  2  0
 11 12  1  0
 12 13  2  0
 13 14  1  0
 14 15  1  0
 15 16  2  0
 15 17  1  0
 17 18  2  0
 18 19  1  0
 19 20  2  0
 20 21  1  0
 21 22  2  0
 22 23  1  0
 13 24  1  0
 24 25  2  0
  5 26  1  0
 26 27  1  0
 26  2  2  0
 25 10  1  0
 22 17  1  0
  1 28  1  0
  1 29  1  0
  1 30  1  0
 11 31  1  0
 12 32  1  0
 18 33  1  0
 19 34  1  0
 20 35  1  0
 21 36  1  0
 24 37  1  0
 25 38  1  0
 27 39  1  0
 27 40  1  0
 27 41  1  0
M  CHG  3   3  -1  14  -1  23  -1
M  END
>  <UniqueID>  (24) 
21

>  <SMILES>  (24) 
Cc1[n-]oc(=NS(=O)(=O)c2ccc([N-]C(=O)c3ccccc3[O-])cc2)c1C

>  <Energy>  (24) 
89.3395165291028

>  <Genealogy>  (24) 
Cc1[n-]oc(=NS(=O)(=O)c2ccc([N-]C(=O)c3ccccc3[O-])cc2)c1C (protonated)
Cc1[n-]oc(=NS(=O)(=O)c2ccc([N-]C(=O)c3ccccc3[O-])cc2)c1C (3D coordinates assigned)
Cc1[n-]oc(=NS(=O)(=O)c2ccc([N-]C(=O)c3ccccc3[O-])cc2)c1C (optimized conformer: 89.3395165291028 kcal/mol)

>  <smiles>  (24) 
Cc1[nH]oc(=NS(=O)(=O)c2ccc(NC(=O)c3ccccc3O)cc2)c1C

>  <score_type>  (24) 
oracle

>  <origin>  (24) 
adgpu

>  <m_score__min__energy>  (24) 
-12.92

>  <m_primary>  (24) 
energy

$$$$
24:0
     RDKit          3D

 45 48  0  0  0  0  0  0  0  0999 V2000
   -1.2380   14.9360  -35.4860 C   0  0  0  0  0  0  0  0  0  0  0  0
   -2.4670   15.6080  -34.9500 C   0  0  0  0  0  0  0  0  0  0  0  0
   -2.4130   16.9640  -34.5440 C   0  0  0  0  0  0  0  0  0  0  0  0
   -3.5650   17.6180  -34.0710 C   0  0  0  0  0  0  0  0  0  0  0  0
   -4.7640   16.8990  -34.0410 C   0  0  0  0  0  0  0  0  0  0  0  0
   -4.8140   15.5840  -34.4290 C   0  0  0  0  0  0  0  0  0  0  0  0
   -6.1030   15.1390  -34.2360 C   0  0  0  0  0  0  0  0  0  0  0  0
   -6.7950   16.2290  -33.7210 C   0  0  0  0  0  0  0  0  0  0  0  0
   -5.9790   17.3060  -33.6120 N   0  0  0  0  0  0  0  0  0  0  0  0
   -6.3650   18.6050  -33.1360 C   0  0  0  0  0  0  0  0  0  0  0  0
   -5.5960   19.7330  -33.4630 C   0  0  0  0  0  0  0  0  0  0  0  0
   -5.9650   20.9980  -32.9990 C   0  0  0  0  0  0  0  0  0  0  0  0
   -7.1080   21.1530  -32.2020 C   0  0  0  0  0  0  0  0  0  0  0  0
   -7.5700   22.7480  -31.6120 S   0  0  0  0  0  0  0  0  0  0  0  0
   -9.0200   22.7180  -31.2170 O   0  0  0  0  0  0  0  0  0  0  0  0
   -7.4250   23.7400  -32.7320 O   0  0  0  0  0  0  0  0  0  0  0  0
   -6.6140   23.2820  -30.2450 N   0  0  0  0  0  0  0  0  0  0  0  0
   -6.5780   24.7490  -30.0890 C   0  0  0  0  0  0  0  0  0  0  0  0
   -5.3930   25.3940  -30.8210 C   0  0  0  0  0  0  0  0  0  0  0  0
   -4.1800   24.7740  -30.4530 O   0  0  0  0  0  0  0  0  0  0  0  0
   -4.1980   23.4340  -30.8920 C   0  0  0  0  0  0  0  0  0  0  0  0
   -5.2890   22.6370  -30.1640 C   0  0  0  0  0  0  0  0  0  0  0  0
   -7.8560   20.0230  -31.8420 C   0  0  0  0  0  0  0  0  0  0  0  0
   -7.4880   18.7580  -32.3080 C   0  0  0  0  0  0  0  0  0  0  0  0
   -3.6900   14.9080  -34.9000 C   0  0  0  0  0  0  0  0  0  0  0  0
   -0.6123   14.5939  -34.6484 H   0  0  0  0  0  0  0  0  0  0  0  0
   -1.5310   14.0726  -36.1013 H   0  0  0  0  0  0  0  0  0  0  0  0
   -0.6692   15.6487  -36.1013 H   0  0  0  0  0  0  0  0  0  0  0  0
   -1.4604   17.5112  -34.5992 H   0  0  0  0  0  0  0  0  0  0  0  0
   -3.5239   18.6645  -33.7345 H   0  0  0  0  0  0  0  0  0  0  0  0
   -6.5003   14.1348  -34.4449 H   0  0  0  0  0  0  0  0  0  0  0  0
   -7.8586   16.2190  -33.4405 H   0  0  0  0  0  0  0  0  0  0  0  0
   -4.6979   19.6202  -34.0880 H   0  0  0  0  0  0  0  0  0  0  0  0
   -5.3562   21.8762  -33.2601 H   0  0  0  0  0  0  0  0  0  0  0  0
   -7.5114   25.1687  -30.4923 H   0  0  0  0  0  0  0  0  0  0  0  0
   -6.4640   24.9662  -29.0167 H   0  0  0  0  0  0  0  0  0  0  0  0
   -5.5380   25.2873  -31.9062 H   0  0  0  0  0  0  0  0  0  0  0  0
   -5.3439   26.4575  -30.5443 H   0  0  0  0  0  0  0  0  0  0  0  0
   -4.3960   23.4115  -31.9738 H   0  0  0  0  0  0  0  0  0  0  0  0
   -3.2216   22.9776  -30.6721 H   0  0  0  0  0  0  0  0  0  0  0  0
   -5.3560   21.6368  -30.6170 H   0  0  0  0  0  0  0  0  0  0  0  0
   -5.0092   22.5838  -29.1015 H   0  0  0  0  0  0  0  0  0  0  0  0
   -8.7355   20.1326  -31.1905 H   0  0  0  0  0  0  0  0  0  0  0  0
   -8.0820   17.8768  -32.0242 H   0  0  0  0  0  0  0  0  0  0  0  0
   -3.7550   13.8586  -35.2234 H   0  0  0  0  0  0  0  0  0  0  0  0
  1  2  1  0
  2  3  2  0
  3  4  1  0
  4  5  2  0
  5  6  1  0
  6  7  1  0
  7  8  2  0
  8  9  1  0
  9 10  1  0
 10 11  2  0
 11 12  1  0
 12 13  2  0
 13 14  1  0
 14 15  2  0
 14 16  2  0
 14 17  1  0
 17 18  1  0
 18 19  1  0
 19 20  1  0
 20 21  1  0
 21 22  1  0
 13 23  1  0
 23 24  2  0
  6 25  2  0
 25  2  1  0
  9  5  1  0
 24 10  1  0
 22 17  1  0
  1 26  1  0
  1 27  1  0
  1 28  1  0
  3 29  1  0
  4 30  1  0
  7 31  1  0
  8 32  1  0
 11 33  1  0
 12 34  1  0
 18 35  1  0
 18 36  1  0
 19 37  1  0
 19 38  1  0
 21 39  1  0
 21 40  1  0
 22 41  1  0
 22 42  1  0
 23 43  1  0
 24 44  1  0
 25 45  1  0
M  END
>  <UniqueID>  (25) 
22

>  <SMILES>  (25) 
Cc1ccc2c(ccn2-c2ccc(S(=O)(=O)N3CCOCC3)cc2)c1

>  <Energy>  (25) 
91.82099968772549

>  <Genealogy>  (25) 
Cc1ccc2c(ccn2-c2ccc(S(=O)(=O)N3CCOCC3)cc2)c1 (3D coordinates assigned)
Cc1ccc2c(ccn2-c2ccc(S(=O)(=O)N3CCOCC3)cc2)c1 (nonaromatic ring conformer: 91.82099968772549 kcal/mol)

>  <smiles>  (25) 
Cc1ccc2c(ccn2-c2ccc(S(=O)(=O)N3CCOCC3)cc2)c1

>  <score_type>  (25) 
oracle

>  <origin>  (25) 
adgpu

>  <m_score__min__energy>  (25) 
-8.7899999999999991

>  <m_primary>  (25) 
energy

$$$$
25:0
     RDKit          3D

 69 72  0  0  0  0  0  0  0  0999 V2000
   -7.8620   23.0860  -31.6310 C   0  0  0  0  0  0  0  0  0  0  0  0
   -6.9750   23.7070  -30.5420 C   0  0  0  0  0  0  0  0  0  0  0  0
   -5.4170   23.5950  -30.6980 C   0  0  0  0  0  0  0  0  0  0  0  0
   -4.9960   23.0520  -32.1090 C   0  0  0  0  0  0  0  0  0  0  0  0
   -4.1550   21.7640  -32.1470 C   0  0  0  0  0  0  0  0  0  0  0  0
   -4.8090   22.7360  -29.5410 C   0  0  0  0  0  0  0  0  0  0  0  0
   -3.8020   23.4590  -28.6710 C   0  0  0  0  0  0  0  0  0  0  0  0
   -4.1880   24.0850  -27.5320 N   0  0  0  0  0  0  0  0  0  0  0  0
   -3.0510   24.6570  -27.0920 C   0  0  0  0  0  0  0  0  0  0  0  0
   -2.9050   25.4820  -25.9710 C   0  0  0  0  0  0  0  0  0  0  0  0
   -1.6330   26.0190  -25.7260 C   0  0  0  0  0  0  0  0  0  0  0  0
   -0.5520   25.7260  -26.5870 C   0  0  0  0  0  0  0  0  0  0  0  0
   -0.7350   24.8860  -27.7110 C   0  0  0  0  0  0  0  0  0  0  0  0
   -2.0170   24.3700  -27.9300 C   0  0  0  0  0  0  0  0  0  0  0  0
   -2.4670   23.6050  -28.9490 N   0  0  0  0  0  0  0  0  0  0  0  0
   -1.6710   23.0600  -30.0600 C   0  0  0  0  0  0  0  0  0  0  0  0
   -1.1100   21.6990  -29.7340 C   0  0  0  0  0  0  0  0  0  0  0  0
   -0.7560   21.3660  -28.4140 C   0  0  0  0  0  0  0  0  0  0  0  0
   -0.2590   20.0950  -28.1100 C   0  0  0  0  0  0  0  0  0  0  0  0
   -0.1280   19.1220  -29.1120 C   0  0  0  0  0  0  0  0  0  0  0  0
    0.4070   17.8140  -28.8090 N   0  0  0  0  0  0  0  0  0  0  0  0
    0.2500   17.2240  -27.4670 C   0  0  0  0  0  0  0  0  0  0  0  0
    1.2830   16.1070  -27.2140 C   0  0  0  0  0  0  0  0  0  0  0  0
    2.6730   16.4890  -27.7970 C   0  0  0  0  0  0  0  0  0  0  0  0
    3.6410   15.3070  -27.5760 C   0  0  0  0  0  0  0  0  0  0  0  0
    3.2440   17.7200  -27.0540 C   0  0  0  0  0  0  0  0  0  0  0  0
    2.5850   16.8080  -29.3330 C   0  0  0  0  0  0  0  0  0  0  0  0
    1.1500   17.0640  -29.8180 C   0  0  0  0  0  0  0  0  0  0  0  0
   -0.4930   19.4480  -30.4320 C   0  0  0  0  0  0  0  0  0  0  0  0
   -0.9640   20.7290  -30.7440 C   0  0  0  0  0  0  0  0  0  0  0  0
   -4.8640   25.0110  -30.5740 C   0  0  0  0  0  0  0  0  0  0  0  0
   -5.6050   25.9610  -30.2130 O   0  0  0  0  0  0  0  0  0  0  0  0
   -3.5190   25.2840  -30.8250 O   0  0  0  0  0  0  0  0  0  0  0  0
   -8.6762   22.5159  -31.1598 H   0  0  0  0  0  0  0  0  0  0  0  0
   -8.2877   23.8844  -32.2566 H   0  0  0  0  0  0  0  0  0  0  0  0
   -7.2574   22.4129  -32.2566 H   0  0  0  0  0  0  0  0  0  0  0  0
   -7.2213   24.7779  -30.4928 H   0  0  0  0  0  0  0  0  0  0  0  0
   -7.2006   23.1191  -29.6401 H   0  0  0  0  0  0  0  0  0  0  0  0
   -5.9177   22.8618  -32.6784 H   0  0  0  0  0  0  0  0  0  0  0  0
   -4.3403   23.8300  -32.5270 H   0  0  0  0  0  0  0  0  0  0  0  0
   -3.9406   21.4356  -31.1193 H   0  0  0  0  0  0  0  0  0  0  0  0
   -4.7136   20.9768  -32.6744 H   0  0  0  0  0  0  0  0  0  0  0  0
   -3.2096   21.9588  -32.6744 H   0  0  0  0  0  0  0  0  0  0  0  0
   -5.6342   22.3960  -28.8980 H   0  0  0  0  0  0  0  0  0  0  0  0
   -4.2640   21.9110  -30.0231 H   0  0  0  0  0  0  0  0  0  0  0  0
   -3.7550   25.7007  -25.3079 H   0  0  0  0  0  0  0  0  0  0  0  0
   -1.4756   26.6738  -24.8562 H   0  0  0  0  0  0  0  0  0  0  0  0
    0.4402   26.1544  -26.3820 H   0  0  0  0  0  0  0  0  0  0  0  0
    0.0993   24.6477  -28.3872 H   0  0  0  0  0  0  0  0  0  0  0  0
   -2.3124   22.9766  -30.9498 H   0  0  0  0  0  0  0  0  0  0  0  0
   -0.8275   23.7421  -30.2422 H   0  0  0  0  0  0  0  0  0  0  0  0
   -0.8712   22.1121  -27.6139 H   0  0  0  0  0  0  0  0  0  0  0  0
    0.0317   19.8560  -27.0764 H   0  0  0  0  0  0  0  0  0  0  0  0
    0.3849   18.0127  -26.7122 H   0  0  0  0  0  0  0  0  0  0  0  0
   -0.7560   16.7842  -27.3998 H   0  0  0  0  0  0  0  0  0  0  0  0
    1.3798   15.9457  -26.1302 H   0  0  0  0  0  0  0  0  0  0  0  0
    0.9351   15.1896  -27.7114 H   0  0  0  0  0  0  0  0  0  0  0  0
    3.7769   15.1411  -26.4971 H   0  0  0  0  0  0  0  0  0  0  0  0
    3.2231   14.3997  -28.0367 H   0  0  0  0  0  0  0  0  0  0  0  0
    4.6128   15.5379  -28.0367 H   0  0  0  0  0  0  0  0  0  0  0  0
    3.1697   17.5599  -25.9682 H   0  0  0  0  0  0  0  0  0  0  0  0
    4.2989   17.8597  -27.3327 H   0  0  0  0  0  0  0  0  0  0  0  0
    2.6694   18.6156  -27.3327 H   0  0  0  0  0  0  0  0  0  0  0  0
    3.1885   17.7044  -29.5388 H   0  0  0  0  0  0  0  0  0  0  0  0
    2.9588   15.9248  -29.8717 H   0  0  0  0  0  0  0  0  0  0  0  0
    1.1795   17.6424  -30.7532 H   0  0  0  0  0  0  0  0  0  0  0  0
    0.6503   16.0994  -29.9909 H   0  0  0  0  0  0  0  0  0  0  0  0
   -0.4074   18.6901  -31.2247 H   0  0  0  0  0  0  0  0  0  0  0  0
   -1.2214   20.9790  -31.7838 H   0  0  0  0  0  0  0  0  0  0  0  0
  1  2  1  0
  2  3  1  0
  3  4  1  0
  4  5  1  0
  3  6  1  0
  6  7  1  0
  7  8  2  0
  8  9  1  0
  9 10  2  0
 10 11  1  0
 11 12  2  0
 12 13  1  0
 13 14  2  0
 14 15  1  0
 15 16  1  0
 16 17  1  0
 17 18  2  0
 18 19  1  0
 19 20  2  0
 20 21  1  0
 21 22  1  0
 22 23  1  0
 23 24  1  0
 24 25  1  0
 24 26  1  0
 24 27  1  0
 27 28  1  0
 20 29  1  0
 29 30  2  0
  3 31  1  0
 31 32  2  0
 31 33  1  0
 15  7  1  0
 30 17  1  0
 14  9  1  0
 28 21  1  0
  1 34  1  0
  1 35  1  0
  1 36  1  0
  2 37  1  0
  2 38  1  0
  4 39  1  0
  4 40  1  0
  5 41  1  0
  5 42  1  0
  5 43  1  0
  6 44  1  0
  6 45  1  0
 10 46  1  0
 11 47  1  0
 12 48  1  0
 13 49  1  0
 16 50  1  0
 16 51  1  0
 18 52  1  0
 19 53  1  0
 22 54  1  0
 22 55  1  0
 23 56  1  0
 23 57  1  0
 25 58  1  0
 25 59  1  0
 25 60  1  0
 26 61  1  0
 26 62  1  0
 26 63  1  0
 27 64  1  0
 27 65  1  0
 28 66  1  0
 28 67  1  0
 29 68  1  0
 30 69  1  0
M  CHG  1  33  -1
M  END
>  <UniqueID>  (26) 
23

>  <SMILES>  (26) 
CCC(CC)(Cc1nc2ccccc2n1Cc1ccc(N2CCC(C)(C)CC2)cc1)C(=O)[O-]

>  <Energy>  (26) 
124.32688749691458

>  <Genealogy>  (26) 
CCC(CC)(Cc1nc2ccccc2n1Cc1ccc(N2CCC(C)(C)CC2)cc1)C(=O)[O-] (protonated)
CCC(CC)(Cc1nc2ccccc2n1Cc1ccc(N2CCC(C)(C)CC2)cc1)C(=O)[O-] (3D coordinates assigned)
CCC(CC)(Cc1nc2ccccc2n1Cc1ccc(N2CCC(C)(C)CC2)cc1)C(=O)[O-] (nonaromatic ring conformer: 124.32688749691458 kcal/mol)

>  <smiles>  (26) 
CCC(CC)(Cc1nc2ccccc2n1Cc1ccc(N2CCC(C)(C)CC2)cc1)C(=O)O

>  <score_type>  (26) 
oracle

>  <origin>  (26) 
adgpu

>  <m_score__min__energy>  (26) 
-11.65

>  <m_primary>  (26) 
energy

$$$$
26:0
     RDKit          3D

 49 52  0  0  0  0  0  0  0  0999 V2000
   -5.8046   26.2935  -30.7747 H   0  0  0  0  0  0  0  0  0  0  0  0
   -5.3710   25.3170  -30.5130 C   0  0  0  0  0  0  0  0  0  0  0  0
   -4.2530   25.3010  -29.8440 N   0  0  0  0  0  0  0  0  0  0  0  0
   -3.6310   24.1360  -29.3480 N   0  0  0  0  0  0  0  0  0  0  0  0
   -3.6710   23.8860  -28.0060 C   0  0  0  0  0  0  0  0  0  0  0  0
   -4.2430   24.6930  -27.2240 O   0  0  0  0  0  0  0  0  0  0  0  0
   -3.0840   22.7740  -27.4970 N   0  0  0  0  0  0  0  0  0  0  0  0
   -2.4580   21.8760  -28.2980 C   0  0  0  0  0  0  0  0  0  0  0  0
   -1.8510   20.7480  -27.7400 C   0  0  0  0  0  0  0  0  0  0  0  0
   -1.8814   20.5927  -26.6514 H   0  0  0  0  0  0  0  0  0  0  0  0
   -1.2000   19.8080  -28.5640 C   0  0  0  0  0  0  0  0  0  0  0  0
   -0.5760   18.6650  -28.0390 O   0  0  0  0  0  0  0  0  0  0  0  0
    0.8260   18.4200  -28.0780 C   0  0  0  0  0  0  0  0  0  0  0  0
    1.2150   18.3520  -27.0513 H   0  0  0  0  0  0  0  0  0  0  0  0
    1.0185   17.4746  -28.6064 H   0  0  0  0  0  0  0  0  0  0  0  0
    1.3277   19.2441  -28.6064 H   0  0  0  0  0  0  0  0  0  0  0  0
   -1.1670   20.0060  -29.9530 C   0  0  0  0  0  0  0  0  0  0  0  0
   -0.5080   19.0510  -30.7440 O   0  0  0  0  0  0  0  0  0  0  0  0
   -0.7220   18.8730  -32.1420 C   0  0  0  0  0  0  0  0  0  0  0  0
   -1.5590   18.1768  -32.2991 H   0  0  0  0  0  0  0  0  0  0  0  0
   -0.9604   19.8429  -32.6029 H   0  0  0  0  0  0  0  0  0  0  0  0
    0.1883   18.4619  -32.6029 H   0  0  0  0  0  0  0  0  0  0  0  0
   -1.7860   21.1420  -30.5120 C   0  0  0  0  0  0  0  0  0  0  0  0
   -1.7647   21.2953  -31.6011 H   0  0  0  0  0  0  0  0  0  0  0  0
   -2.4300   22.0800  -29.6880 C   0  0  0  0  0  0  0  0  0  0  0  0
   -3.0560   23.2290  -30.2020 C   0  0  0  0  0  0  0  0  0  0  0  0
   -3.0990   23.4210  -31.4490 O   0  0  0  0  0  0  0  0  0  0  0  0
   -6.0910   24.0970  -30.9410 C   0  0  0  0  0  0  0  0  0  0  0  0
   -6.8410   23.3790  -29.9990 C   0  0  0  0  0  0  0  0  0  0  0  0
   -6.8970   23.7335  -28.9592 H   0  0  0  0  0  0  0  0  0  0  0  0
   -7.5180   22.2150  -30.3740 C   0  0  0  0  0  0  0  0  0  0  0  0
   -8.0975   21.6539  -29.6261 H   0  0  0  0  0  0  0  0  0  0  0  0
   -7.4620   21.7580  -31.7020 C   0  0  0  0  0  0  0  0  0  0  0  0
   -8.1300   20.5970  -32.1140 O   0  0  0  0  0  0  0  0  0  0  0  0
   -7.5210   19.4740  -32.6930 C   0  0  0  0  0  0  0  0  0  0  0  0
   -7.7890   18.1660  -32.2450 C   0  0  0  0  0  0  0  0  0  0  0  0
   -8.5053   18.0027  -31.4263 H   0  0  0  0  0  0  0  0  0  0  0  0
   -7.1470   17.0740  -32.8380 C   0  0  0  0  0  0  0  0  0  0  0  0
   -7.3663   16.0531  -32.4919 H   0  0  0  0  0  0  0  0  0  0  0  0
   -6.2270   17.2790  -33.8700 C   0  0  0  0  0  0  0  0  0  0  0  0
   -5.7267   16.4188  -34.3387 H   0  0  0  0  0  0  0  0  0  0  0  0
   -5.9420   18.5750  -34.3070 C   0  0  0  0  0  0  0  0  0  0  0  0
   -5.2141   18.7354  -35.1160 H   0  0  0  0  0  0  0  0  0  0  0  0
   -6.5830   19.6690  -33.7150 C   0  0  0  0  0  0  0  0  0  0  0  0
   -6.3488   20.6888  -34.0544 H   0  0  0  0  0  0  0  0  0  0  0  0
   -6.7600   22.5060  -32.6530 C   0  0  0  0  0  0  0  0  0  0  0  0
   -6.7428   22.1769  -33.7025 H   0  0  0  0  0  0  0  0  0  0  0  0
   -6.0800   23.6690  -32.2790 C   0  0  0  0  0  0  0  0  0  0  0  0
   -5.5340   24.2514  -33.0357 H   0  0  0  0  0  0  0  0  0  0  0  0
  1  2  1  0
  2  3  2  0
  3  4  1  0
  4  5  1  0
  5  6  2  0
  5  7  1  0
  7  8  1  0
  8  9  2  0
  9 10  1  0
  9 11  1  0
 11 12  1  0
 12 13  1  0
 13 14  1  0
 13 15  1  0
 13 16  1  0
 11 17  2  0
 17 18  1  0
 18 19  1  0
 19 20  1  0
 19 21  1  0
 19 22  1  0
 17 23  1  0
 23 24  1  0
 23 25  2  0
 25 26  1  0
 26 27  2  0
  2 28  1  0
 28 29  2  0
 29 30  1  0
 29 31  1  0
 31 32  1  0
 31 33  2  0
 33 34  1  0
 34 35  1  0
 35 36  2  0
 36 37  1  0
 36 38  1  0
 38 39  1  0
 38 40  2  0
 40 41  1  0
 40 42  1  0
 42 43  1  0
 42 44  2  0
 44 45  1  0
 33 46  1  0
 46 47  1  0
 46 48  2  0
 48 49  1  0
 26  4  1  0
 48 28  1  0
 25  8  1  0
 44 35  1  0
M  CHG  1   7  -1
M  END
>  <UniqueID>  (27) 
24

>  <SMILES>  (27) 
COc1cc2[n-]c(=O)n(/N=C\c3ccc(Oc4ccccc4)cc3)c(=O)c2cc1OC

>  <Energy>  (27) 
76.88253699854572

>  <Genealogy>  (27) 
COc1cc2[n-]c(=O)n(N=Cc3ccc(Oc4ccccc4)cc3)c(=O)c2cc1OC (protonated)
COc1cc2[n-]c(=O)n(/N=C\c3ccc(Oc4ccccc4)cc3)c(=O)c2cc1OC (cis-trans isomerization)
COc1cc2[n-]c(=O)n(/N=C\c3ccc(Oc4ccccc4)cc3)c(=O)c2cc1OC (3D coordinates assigned)
COc1cc2[n-]c(=O)n(/N=C\c3ccc(Oc4ccccc4)cc3)c(=O)c2cc1OC (optimized conformer: 76.88253699854572 kcal/mol)

>  <smiles>  (27) 
COc1cc2[nH]c(=O)n(N=Cc3ccc(Oc4ccccc4)cc3)c(=O)c2cc1OC

>  <score_type>  (27) 
oracle

>  <origin>  (27) 
adgpu

>  <m_score__min__energy>  (27) 
-8.9800000000000004

>  <m_primary>  (27) 
energy

$$$$
27:0
     RDKit          3D

 69 72  0  0  0  0  0  0  0  0999 V2000
   -3.8400   25.2980  -30.4360 N   0  0  0  0  0  0  0  0  0  0  0  0
   -4.3630   23.6540  -30.3370 S   0  0  0  0  0  0  0  0  0  0  0  0
   -5.2930   23.4950  -29.1680 O   0  0  0  0  0  0  0  0  0  0  0  0
   -5.1000   23.2820  -31.5930 O   0  0  0  0  0  0  0  0  0  0  0  0
   -2.9640   22.6040  -30.1310 C   0  0  0  0  0  0  0  0  0  0  0  0
   -3.1360   21.2250  -29.9570 C   0  0  0  0  0  0  0  0  0  0  0  0
   -2.0270   20.3940  -29.7750 C   0  0  0  0  0  0  0  0  0  0  0  0
   -0.7310   20.9350  -29.7690 C   0  0  0  0  0  0  0  0  0  0  0  0
    0.4660   20.0490  -29.5370 C   0  0  0  0  0  0  0  0  0  0  0  0
    0.5760   19.6340  -28.0690 C   0  0  0  0  0  0  0  0  0  0  0  0
    1.9790   19.6140  -27.6560 N   0  0  0  0  0  0  0  0  0  0  0  0
    2.6450   18.0290  -27.9030 S   0  0  0  0  0  0  0  0  0  0  0  0
    4.1460   18.1080  -27.9380 O   0  0  0  0  0  0  0  0  0  0  0  0
    2.2420   17.1420  -26.7570 O   0  0  0  0  0  0  0  0  0  0  0  0
    2.0440   17.3390  -29.4090 C   0  0  0  0  0  0  0  0  0  0  0  0
    0.8090   16.6790  -29.4340 C   0  0  0  0  0  0  0  0  0  0  0  0
    0.3090   16.1620  -30.6330 C   0  0  0  0  0  0  0  0  0  0  0  0
    1.0380   16.3130  -31.8290 C   0  0  0  0  0  0  0  0  0  0  0  0
    0.5700   15.8330  -33.0610 O   0  0  0  0  0  0  0  0  0  0  0  0
    0.7530   16.5020  -34.3060 C   0  0  0  0  0  0  0  0  0  0  0  0
   -0.1610   17.6850  -34.3910 C   0  0  0  0  0  0  0  0  0  0  0  0
   -0.3980   18.2060  -35.5120 O   0  0  0  0  0  0  0  0  0  0  0  0
   -0.7960   18.1840  -33.2000 N   0  0  0  0  0  0  0  0  0  0  0  0
   -1.8050   19.2090  -33.1950 C   0  0  0  0  0  0  0  0  0  0  0  0
   -3.1440   18.9060  -32.8860 C   0  0  0  0  0  0  0  0  0  0  0  0
   -4.1110   19.9210  -32.8370 C   0  0  0  0  0  0  0  0  0  0  0  0
   -5.7850   19.5330  -32.4250 S   0  0  0  0  0  0  0  0  0  0  0  0
   -6.5490   20.8120  -32.2170 O   0  0  0  0  0  0  0  0  0  0  0  0
   -5.8090   18.7630  -31.1340 O   0  0  0  0  0  0  0  0  0  0  0  0
   -6.5660   18.5900  -33.6760 N   0  0  0  0  0  0  0  0  0  0  0  0
   -5.7110   18.4670  -34.8610 C   0  0  0  0  0  0  0  0  0  0  0  0
   -4.9960   17.1260  -34.7970 C   0  0  0  0  0  0  0  0  0  0  0  0
   -5.7540   16.3040  -33.7740 C   0  0  0  0  0  0  0  0  0  0  0  0
   -6.8350   17.2220  -33.2180 C   0  0  0  0  0  0  0  0  0  0  0  0
   -3.7390   21.2450  -33.0980 C   0  0  0  0  0  0  0  0  0  0  0  0
   -2.4090   21.5550  -33.3880 C   0  0  0  0  0  0  0  0  0  0  0  0
   -1.4430   20.5470  -33.4290 C   0  0  0  0  0  0  0  0  0  0  0  0
   -0.1230   20.8790  -33.7170 O   0  0  0  0  0  0  0  0  0  0  0  0
    2.2730   16.9720  -31.7970 C   0  0  0  0  0  0  0  0  0  0  0  0
    2.7740   17.4820  -30.5960 C   0  0  0  0  0  0  0  0  0  0  0  0
   -0.5630   22.3200  -29.9270 C   0  0  0  0  0  0  0  0  0  0  0  0
   -1.6740   23.1500  -30.1070 C   0  0  0  0  0  0  0  0  0  0  0  0
   -2.8000   25.2850  -30.5490 H   0  0  0  0  0  0  0  0  0  0  0  0
   -4.1481   20.7941  -29.9636 H   0  0  0  0  0  0  0  0  0  0  0  0
   -2.1698   19.3122  -29.6359 H   0  0  0  0  0  0  0  0  0  0  0  0
    0.3690   19.1462  -30.1580 H   0  0  0  0  0  0  0  0  0  0  0  0
    1.3715   20.6123  -29.8067 H   0  0  0  0  0  0  0  0  0  0  0  0
    0.0234   20.3523  -27.4455 H   0  0  0  0  0  0  0  0  0  0  0  0
    0.1503   18.6271  -27.9467 H   0  0  0  0  0  0  0  0  0  0  0  0
    0.2295   16.5668  -28.5058 H   0  0  0  0  0  0  0  0  0  0  0  0
   -0.6568   15.6356  -30.6425 H   0  0  0  0  0  0  0  0  0  0  0  0
    1.7962   16.8411  -34.3874 H   0  0  0  0  0  0  0  0  0  0  0  0
    0.5214   15.8071  -35.1267 H   0  0  0  0  0  0  0  0  0  0  0  0
   -0.4440   17.8370  -32.2770 H   0  0  0  0  0  0  0  0  0  0  0  0
   -3.4347   17.8650  -32.6813 H   0  0  0  0  0  0  0  0  0  0  0  0
   -6.3270   18.5170  -35.7709 H   0  0  0  0  0  0  0  0  0  0  0  0
   -4.9778   19.2866  -34.8860 H   0  0  0  0  0  0  0  0  0  0  0  0
   -5.0196   16.6318  -35.7794 H   0  0  0  0  0  0  0  0  0  0  0  0
   -3.9381   17.2434  -34.5194 H   0  0  0  0  0  0  0  0  0  0  0  0
   -6.2084   15.4234  -34.2516 H   0  0  0  0  0  0  0  0  0  0  0  0
   -5.0889   15.9359  -32.9789 H   0  0  0  0  0  0  0  0  0  0  0  0
   -7.8210   16.8964  -33.5811 H   0  0  0  0  0  0  0  0  0  0  0  0
   -6.8313   17.1854  -32.1186 H   0  0  0  0  0  0  0  0  0  0  0  0
   -4.4960   22.0427  -33.0746 H   0  0  0  0  0  0  0  0  0  0  0  0
   -2.1205   22.5980  -33.5851 H   0  0  0  0  0  0  0  0  0  0  0  0
    2.8533   17.0892  -32.7241 H   0  0  0  0  0  0  0  0  0  0  0  0
    3.7455   17.9978  -30.5828 H   0  0  0  0  0  0  0  0  0  0  0  0
    0.4475   22.7543  -29.9091 H   0  0  0  0  0  0  0  0  0  0  0  0
   -1.5347   24.2342  -30.2300 H   0  0  0  0  0  0  0  0  0  0  0  0
  1  2  1  0
  2  3  2  0
  2  4  2  0
  2  5  1  0
  5  6  2  0
  6  7  1  0
  7  8  2  0
  8  9  1  0
  9 10  1  0
 10 11  1  0
 11 12  1  0
 12 13  2  0
 12 14  2  0
 12 15  1  0
 15 16  2  0
 16 17  1  0
 17 18  2  0
 18 19  1  0
 19 20  1  0
 20 21  1  0
 21 22  2  0
 21 23  1  0
 23 24  1  0
 24 25  2  0
 25 26  1  0
 26 27  1  0
 27 28  2  0
 27 29  2  0
 27 30  1  0
 30 31  1  0
 31 32  1  0
 32 33  1  0
 33 34  1  0
 26 35  2  0
 35 36  1  0
 36 37  2  0
 37 38  1  0
 18 39  1  0
 39 40  2  0
  8 41  1  0
 41 42  2  0
 42  5  1  0
 40 15  1  0
 37 24  1  0
 34 30  1  0
  1 43  1  0
  6 44  1  0
  7 45  1  0
  9 46  1  0
  9 47  1  0
 10 48  1  0
 10 49  1  0
 16 50  1  0
 17 51  1  0
 20 52  1  0
 20 53  1  0
 23 54  1  0
 25 55  1  0
 31 56  1  0
 31 57  1  0
 32 58  1  0
 32 59  1  0
 33 60  1  0
 33 61  1  0
 34 62  1  0
 34 63  1  0
 35 64  1  0
 36 65  1  0
 39 66  1  0
 40 67  1  0
 41 68  1  0
 42 69  1  0
M  CHG  3   1  -1  11  -1  38  -1
M  END
>  <UniqueID>  (28) 
25

>  <SMILES>  (28) 
[NH-]S(=O)(=O)c1ccc(CC[N-]S(=O)(=O)c2ccc(OCC(=O)Nc3cc(S(=O)(=O)N4CCCC4)ccc3[O-])cc2)cc1

>  <Energy>  (28) 
70.14537588916329

>  <Genealogy>  (28) 
[NH-]S(=O)(=O)c1ccc(CC[N-]S(=O)(=O)c2ccc(OCC(=O)Nc3cc(S(=O)(=O)N4CCCC4)ccc3[O-])cc2)cc1 (protonated)
[NH-]S(=O)(=O)c1ccc(CC[N-]S(=O)(=O)c2ccc(OCC(=O)Nc3cc(S(=O)(=O)N4CCCC4)ccc3[O-])cc2)cc1 (3D coordinates assigned)
[NH-]S(=O)(=O)c1ccc(CC[N-]S(=O)(=O)c2ccc(OCC(=O)Nc3cc(S(=O)(=O)N4CCCC4)ccc3[O-])cc2)cc1 (nonaromatic ring conformer: 70.14537588916329 kcal/mol)

>  <smiles>  (28) 
NS(=O)(=O)c1ccc(CCNS(=O)(=O)c2ccc(OCC(=O)Nc3cc(S(=O)(=O)N4CCCC4)ccc3O)cc2)cc1

>  <score_type>  (28) 
oracle

>  <origin>  (28) 
adgpu

>  <m_score__min__energy>  (28) 
-14.720000000000001

>  <m_primary>  (28) 
energy

$$$$
28:0
     RDKit          3D

 41 44  0  0  0  0  0  0  0  0999 V2000
   -5.9400   25.9070  -29.9840 O   0  0  0  0  0  0  0  0  0  0  0  0
   -5.1770   25.2910  -30.7740 C   0  0  0  0  0  0  0  0  0  0  0  0
   -3.7820   25.2060  -30.4690 N   0  0  0  0  0  0  0  0  0  0  0  0
   -3.1800   24.3110  -29.5210 C   0  0  0  0  0  0  0  0  0  0  0  0
   -3.6460   22.9990  -29.3570 C   0  0  0  0  0  0  0  0  0  0  0  0
   -3.0390   22.1480  -28.4340 C   0  0  0  0  0  0  0  0  0  0  0  0
   -1.9450   22.5820  -27.6820 C   0  0  0  0  0  0  0  0  0  0  0  0
   -1.2780   21.4640  -26.4960 Cl  0  0  0  0  0  0  0  0  0  0  0  0
   -1.4290   23.8860  -27.8680 C   0  0  0  0  0  0  0  0  0  0  0  0
   -0.0220   24.4470  -26.9310 S   0  0  0  0  0  0  0  0  0  0  0  0
    0.9000   23.2870  -26.6840 O   0  0  0  0  0  0  0  0  0  0  0  0
    0.7470   25.4730  -27.7150 O   0  0  0  0  0  0  0  0  0  0  0  0
   -0.4690   25.1710  -25.3500 C   0  0  0  0  0  0  0  0  0  0  0  0
   -0.6490   26.6790  -25.4010 C   0  0  0  0  0  0  0  0  0  0  0  0
   -1.8590   25.7780  -25.2290 C   0  0  0  0  0  0  0  0  0  0  0  0
   -2.0650   24.7470  -28.7890 C   0  0  0  0  0  0  0  0  0  0  0  0
   -1.6080   26.0470  -28.9750 O   0  0  0  0  0  0  0  0  0  0  0  0
   -5.7180   24.5980  -31.9060 N   0  0  0  0  0  0  0  0  0  0  0  0
   -6.3400   23.3050  -31.8670 C   0  0  0  0  0  0  0  0  0  0  0  0
   -7.6340   23.2030  -31.3430 C   0  0  0  0  0  0  0  0  0  0  0  0
   -8.2830   21.9670  -31.2790 C   0  0  0  0  0  0  0  0  0  0  0  0
   -7.6360   20.8100  -31.7180 C   0  0  0  0  0  0  0  0  0  0  0  0
   -6.3250   20.8830  -32.2090 C   0  0  0  0  0  0  0  0  0  0  0  0
   -5.6430   19.7300  -32.6180 C   0  0  0  0  0  0  0  0  0  0  0  0
   -4.3240   19.8240  -33.0670 C   0  0  0  0  0  0  0  0  0  0  0  0
   -3.6990   21.0720  -33.1000 C   0  0  0  0  0  0  0  0  0  0  0  0
   -4.3740   22.1850  -32.7080 N   0  0  0  0  0  0  0  0  0  0  0  0
   -5.6660   22.1340  -32.2790 C   0  0  0  0  0  0  0  0  0  0  0  0
   -4.4937   22.6395  -29.9587 H   0  0  0  0  0  0  0  0  0  0  0  0
   -3.4248   21.1270  -28.2971 H   0  0  0  0  0  0  0  0  0  0  0  0
    0.1007   24.4521  -24.7428 H   0  0  0  0  0  0  0  0  0  0  0  0
   -0.3043   27.3024  -24.5628 H   0  0  0  0  0  0  0  0  0  0  0  0
   -0.3649   27.4721  -26.1083 H   0  0  0  0  0  0  0  0  0  0  0  0
   -2.3903   25.7483  -24.2663 H   0  0  0  0  0  0  0  0  0  0  0  0
   -2.8136   25.6477  -25.7597 H   0  0  0  0  0  0  0  0  0  0  0  0
   -8.1456   24.1056  -30.9776 H   0  0  0  0  0  0  0  0  0  0  0  0
   -9.3068   21.9053  -30.8815 H   0  0  0  0  0  0  0  0  0  0  0  0
   -8.1552   19.8410  -31.6785 H   0  0  0  0  0  0  0  0  0  0  0  0
   -6.1455   18.7520  -32.5856 H   0  0  0  0  0  0  0  0  0  0  0  0
   -3.7825   18.9232  -33.3916 H   0  0  0  0  0  0  0  0  0  0  0  0
   -2.6575   21.1549  -33.4441 H   0  0  0  0  0  0  0  0  0  0  0  0
  1  2  2  0
  2  3  1  0
  3  4  1  0
  4  5  2  0
  5  6  1  0
  6  7  2  0
  7  8  1  0
  7  9  1  0
  9 10  1  0
 10 11  2  0
 10 12  2  0
 10 13  1  0
 13 14  1  0
 14 15  1  0
  9 16  2  0
 16 17  1  0
  2 18  1  0
 18 19  1  0
 19 20  2  0
 20 21  1  0
 21 22  2  0
 22 23  1  0
 23 24  2  0
 24 25  1  0
 25 26  2  0
 26 27  1  0
 27 28  2  0
 16  4  1  0
 28 19  1  0
 15 13  1  0
 28 23  1  0
  5 29  1  0
  6 30  1  0
 13 31  1  0
 14 32  1  0
 14 33  1  0
 15 34  1  0
 15 35  1  0
 20 36  1  0
 21 37  1  0
 22 38  1  0
 24 39  1  0
 25 40  1  0
 26 41  1  0
M  CHG  3   3  -1  17  -1  18  -1
M  END
>  <UniqueID>  (29) 
26

>  <SMILES>  (29) 
O=C([N-]c1ccc(Cl)c(S(=O)(=O)C2CC2)c1[O-])[N-]c1cccc2cccnc12

>  <Energy>  (29) 
324.15655282110197

>  <Genealogy>  (29) 
O=C([N-]c1ccc(Cl)c(S(=O)(=O)C2CC2)c1[O-])[N-]c1cccc2cccnc12 (protonated)
O=C([N-]c1ccc(Cl)c(S(=O)(=O)C2CC2)c1[O-])[N-]c1cccc2cccnc12 (3D coordinates assigned)
O=C([N-]c1ccc(Cl)c(S(=O)(=O)C2CC2)c1[O-])[N-]c1cccc2cccnc12 (nonaromatic ring conformer: 324.15655282110197 kcal/mol)

>  <smiles>  (29) 
O=C(Nc1ccc(Cl)c(S(=O)(=O)C2CC2)c1O)Nc1cccc2cccnc12

>  <score_type>  (29) 
oracle

>  <origin>  (29) 
adgpu

>  <m_score__min__energy>  (29) 
-15.6

>  <m_primary>  (29) 
energy

$$$$
29:0
     RDKit          3D

 62 65  0  0  0  0  0  0  0  0999 V2000
   -8.7090   20.4510  -31.7790 C   0  0  0  0  0  0  0  0  0  0  0  0
   -8.4130   19.5620  -32.9840 C   0  0  0  0  0  0  0  0  0  0  0  0
   -8.0040   18.2090  -32.5420 N   0  0  0  0  0  0  0  0  0  0  0  0
   -7.3210   18.2210  -31.2180 C   0  0  0  0  0  0  0  0  0  0  0  0
   -5.7940   18.0350  -31.3040 C   0  0  0  0  0  0  0  0  0  0  0  0
   -5.2830   18.6210  -32.5440 N   0  0  0  0  0  0  0  0  0  0  0  0
   -4.5730   19.8710  -32.4920 C   0  0  0  0  0  0  0  0  0  0  0  0
   -5.1400   20.9190  -31.8410 N   0  0  0  0  0  0  0  0  0  0  0  0
   -4.5390   22.1350  -31.7700 C   0  0  0  0  0  0  0  0  0  0  0  0
   -5.1860   23.2270  -31.0830 N   0  0  0  0  0  0  0  0  0  0  0  0
   -4.3980   24.1020  -30.2040 C   0  0  0  0  0  0  0  0  0  0  0  0
   -5.3080   24.8190  -29.2030 C   0  0  0  0  0  0  0  0  0  0  0  0
   -6.3900   25.4430  -29.8640 O   0  0  0  0  0  0  0  0  0  0  0  0
   -7.2240   24.4550  -30.4350 C   0  0  0  0  0  0  0  0  0  0  0  0
   -6.4940   23.7050  -31.5530 C   0  0  0  0  0  0  0  0  0  0  0  0
   -3.3260   22.3110  -32.3580 N   0  0  0  0  0  0  0  0  0  0  0  0
   -2.7050   21.3040  -33.0250 C   0  0  0  0  0  0  0  0  0  0  0  0
   -3.3080   20.0330  -33.0950 C   0  0  0  0  0  0  0  0  0  0  0  0
   -2.6370   18.9030  -33.8400 C   0  0  0  0  0  0  0  0  0  0  0  0
   -1.1480   19.1790  -34.0850 C   0  0  0  0  0  0  0  0  0  0  0  0
   -0.9520   20.5520  -34.6060 N   0  0  2  0  0  0  0  0  0  0  0  0
    0.4240   20.7400  -35.1640 C   0  0  0  0  0  0  0  0  0  0  0  0
    0.7380   19.7170  -36.2720 C   0  0  0  0  0  0  0  0  0  0  0  0
    0.7140   22.1680  -35.6710 C   0  0  0  0  0  0  0  0  0  0  0  0
   -1.3160   21.5410  -33.5640 C   0  0  0  0  0  0  0  0  0  0  0  0
   -5.8570   18.1590  -33.8140 C   0  0  0  0  0  0  0  0  0  0  0  0
   -7.2280   17.4980  -33.5810 C   0  0  0  0  0  0  0  0  0  0  0  0
   -8.5215   19.8878  -30.8529 H   0  0  0  0  0  0  0  0  0  0  0  0
   -8.0573   21.3367  -31.8078 H   0  0  0  0  0  0  0  0  0  0  0  0
   -9.7616   20.7692  -31.8078 H   0  0  0  0  0  0  0  0  0  0  0  0
   -9.3170   19.4820  -33.6056 H   0  0  0  0  0  0  0  0  0  0  0  0
   -7.5927   20.0101  -33.5639 H   0  0  0  0  0  0  0  0  0  0  0  0
   -7.5259   19.1857  -30.7309 H   0  0  0  0  0  0  0  0  0  0  0  0
   -7.7158   17.3682  -30.6463 H   0  0  0  0  0  0  0  0  0  0  0  0
   -5.3185   18.5307  -30.4448 H   0  0  0  0  0  0  0  0  0  0  0  0
   -5.5620   16.9598  -31.2926 H   0  0  0  0  0  0  0  0  0  0  0  0
   -3.6629   23.4955  -29.6546 H   0  0  0  0  0  0  0  0  0  0  0  0
   -3.8848   24.8551  -30.8201 H   0  0  0  0  0  0  0  0  0  0  0  0
   -5.7001   24.0856  -28.4830 H   0  0  0  0  0  0  0  0  0  0  0  0
   -4.7208   25.5905  -28.6834 H   0  0  0  0  0  0  0  0  0  0  0  0
   -7.5206   23.7388  -29.6546 H   0  0  0  0  0  0  0  0  0  0  0  0
   -8.1108   24.9465  -30.8616 H   0  0  0  0  0  0  0  0  0  0  0  0
   -7.1020   22.8443  -31.8685 H   0  0  0  0  0  0  0  0  0  0  0  0
   -6.3393   24.3904  -32.3993 H   0  0  0  0  0  0  0  0  0  0  0  0
   -2.7344   17.9807  -33.2485 H   0  0  0  0  0  0  0  0  0  0  0  0
   -3.1290   18.8025  -34.8187 H   0  0  0  0  0  0  0  0  0  0  0  0
   -0.5993   19.0698  -33.1379 H   0  0  0  0  0  0  0  0  0  0  0  0
   -0.7712   18.4603  -34.8276 H   0  0  0  0  0  0  0  0  0  0  0  0
   -1.6190   20.6750  -35.4070 H   0  0  0  0  0  0  0  0  0  0  0  0
    1.0930   20.5677  -34.3080 H   0  0  0  0  0  0  0  0  0  0  0  0
    1.0316   18.7603  -35.8153 H   0  0  0  0  0  0  0  0  0  0  0  0
   -0.1553   19.5665  -36.8960 H   0  0  0  0  0  0  0  0  0  0  0  0
    1.5619   20.0936  -36.8960 H   0  0  0  0  0  0  0  0  0  0  0  0
    0.8507   22.8414  -34.8120 H   0  0  0  0  0  0  0  0  0  0  0  0
    1.6292   22.1616  -36.2812 H   0  0  0  0  0  0  0  0  0  0  0  0
   -0.1312   22.5191  -36.2812 H   0  0  0  0  0  0  0  0  0  0  0  0
   -0.5957   21.4668  -32.7360 H   0  0  0  0  0  0  0  0  0  0  0  0
   -1.2933   22.5415  -34.0205 H   0  0  0  0  0  0  0  0  0  0  0  0
   -5.9803   19.0188  -34.4889 H   0  0  0  0  0  0  0  0  0  0  0  0
   -5.1778   17.4183  -34.2613 H   0  0  0  0  0  0  0  0  0  0  0  0
   -7.7959   17.5116  -34.5230 H   0  0  0  0  0  0  0  0  0  0  0  0
   -7.0595   16.4660  -33.2396 H   0  0  0  0  0  0  0  0  0  0  0  0
  1  2  1  0
  2  3  1  0
  3  4  1  0
  4  5  1  0
  5  6  1  0
  6  7  1  0
  7  8  2  0
  8  9  1  0
  9 10  1  0
 10 11  1  0
 11 12  1  0
 12 13  1  0
 13 14  1  0
 14 15  1  0
  9 16  2  0
 16 17  1  0
 17 18  2  0
 18 19  1  0
 19 20  1  0
 20 21  1  0
 21 22  1  0
 22 23  1  0
 22 24  1  0
 21 25  1  0
  6 26  1  0
 26 27  1  0
 27  3  1  0
 18  7  1  0
 15 10  1  0
 25 17  1  0
  1 28  1  0
  1 29  1  0
  1 30  1  0
  2 31  1  0
  2 32  1  0
  4 33  1  0
  4 34  1  0
  5 35  1  0
  5 36  1  0
 11 37  1  0
 11 38  1  0
 12 39  1  0
 12 40  1  0
 14 41  1  0
 14 42  1  0
 15 43  1  0
 15 44  1  0
 19 45  1  0
 19 46  1  0
 20 47  1  0
 20 48  1  0
 21 49  1  6
 22 50  1  0
 23 51  1  0
 23 52  1  0
 23 53  1  0
 24 54  1  0
 24 55  1  0
 24 56  1  0
 25 57  1  0
 25 58  1  0
 26 59  1  0
 26 60  1  0
 27 61  1  0
 27 62  1  0
M  CHG  1  21   1
M  END
>  <UniqueID>  (30) 
27

>  <SMILES>  (30) 
CCN1CCN(c2nc(N3CCOCC3)nc3c2CC[N@H+](C(C)C)C3)CC1

>  <Energy>  (30) 
81.58654184763041

>  <Genealogy>  (30) 
CCN1CCN(c2nc(N3CCOCC3)nc3c2CC[NH+](C(C)C)C3)CC1 (protonated)
CCN1CCN(c2nc(N3CCOCC3)nc3c2CC[N@H+](C(C)C)C3)CC1 (chirality)
CCN1CCN(c2nc(N3CCOCC3)nc3c2CC[N@H+](C(C)C)C3)CC1 (3D coordinates assigned)
CCN1CCN(c2nc(N3CCOCC3)nc3c2CC[N@H+](C(C)C)C3)CC1 (nonaromatic ring conformer: 81.58654184763041 kcal/mol)

>  <smiles>  (30) 
CCN1CCN(c2nc(N3CCOCC3)nc3c2CCN(C(C)C)C3)CC1

>  <score_type>  (30) 
oracle

>  <origin>  (30) 
adgpu

>  <m_score__min__energy>  (30) 
-7.04

>  <m_primary>  (30) 
energy

$$$$
30:0
     RDKit          3D

 37 40  0  0  0  0  0  0  0  0999 V2000
    1.0740   22.8750  -36.4870 N   0  0  0  0  0  0  0  0  0  0  0  0
    1.5280   21.3260  -35.8740 S   0  0  0  0  0  0  0  0  0  0  0  0
    1.6380   20.3490  -37.0110 O   0  0  0  0  0  0  0  0  0  0  0  0
    2.8650   21.4260  -35.1940 O   0  0  0  0  0  0  0  0  0  0  0  0
    0.3160   20.7690  -34.7260 C   0  0  0  0  0  0  0  0  0  0  0  0
   -0.3940   19.5670  -34.9710 C   0  0  0  0  0  0  0  0  0  0  0  0
   -1.3750   19.1110  -34.0690 C   0  0  0  0  0  0  0  0  0  0  0  0
   -1.6300   19.8820  -32.9370 C   0  0  0  0  0  0  0  0  0  0  0  0
   -2.5280   19.6230  -31.9550 N   0  0  0  0  0  0  0  0  0  0  0  0
   -2.3900   20.6590  -31.1020 C   0  0  0  0  0  0  0  0  0  0  0  0
   -3.0680   20.8600  -29.9490 N   0  0  0  0  0  0  0  0  0  0  0  0
   -2.7680   21.9780  -29.2220 C   0  0  0  0  0  0  0  0  0  0  0  0
   -3.6100   22.2890  -27.6740 S   0  0  0  0  0  0  0  0  0  0  0  0
   -4.1990   23.9520  -28.1500 C   0  0  0  0  0  0  0  0  0  0  0  0
   -5.0920   23.8840  -29.3630 C   0  0  0  0  0  0  0  0  0  0  0  0
   -6.1360   22.9440  -29.4000 C   0  0  0  0  0  0  0  0  0  0  0  0
   -6.9590   22.8440  -30.5240 C   0  0  0  0  0  0  0  0  0  0  0  0
   -6.7480   23.6790  -31.6230 C   0  0  0  0  0  0  0  0  0  0  0  0
   -5.7120   24.6150  -31.6000 C   0  0  0  0  0  0  0  0  0  0  0  0
   -4.8830   24.7220  -30.4780 C   0  0  0  0  0  0  0  0  0  0  0  0
   -3.8540   25.6590  -30.4840 O   0  0  0  0  0  0  0  0  0  0  0  0
   -1.8120   22.8600  -29.6700 N   0  0  0  0  0  0  0  0  0  0  0  0
   -1.1470   22.6490  -30.8130 N   0  0  0  0  0  0  0  0  0  0  0  0
   -1.4420   21.5420  -31.5260 C   0  0  0  0  0  0  0  0  0  0  0  0
   -0.9400   21.0590  -32.7050 C   0  0  0  0  0  0  0  0  0  0  0  0
    0.0360   21.5350  -33.5740 C   0  0  0  0  0  0  0  0  0  0  0  0
    0.0340   22.9390  -36.4150 H   0  0  0  0  0  0  0  0  0  0  0  0
   -0.1761   18.9828  -35.8772 H   0  0  0  0  0  0  0  0  0  0  0  0
   -1.9229   18.1750  -34.2527 H   0  0  0  0  0  0  0  0  0  0  0  0
   -3.1780   18.8090  -31.8740 H   0  0  0  0  0  0  0  0  0  0  0  0
   -4.7635   24.3868  -27.3120 H   0  0  0  0  0  0  0  0  0  0  0  0
   -3.3262   24.5760  -28.3927 H   0  0  0  0  0  0  0  0  0  0  0  0
   -6.3062   22.2824  -28.5378 H   0  0  0  0  0  0  0  0  0  0  0  0
   -7.7747   22.1063  -30.5435 H   0  0  0  0  0  0  0  0  0  0  0  0
   -7.3979   23.5995  -32.5069 H   0  0  0  0  0  0  0  0  0  0  0  0
   -5.5470   25.2709  -32.4675 H   0  0  0  0  0  0  0  0  0  0  0  0
    0.5705   22.4747  -33.3708 H   0  0  0  0  0  0  0  0  0  0  0  0
  1  2  1  0
  2  3  2  0
  2  4  2  0
  2  5  1  0
  5  6  2  0
  6  7  1  0
  7  8  2  0
  8  9  1  0
  9 10  1  0
 10 11  2  0
 11 12  1  0
 12 13  1  0
 13 14  1  0
 14 15  1  0
 15 16  2  0
 16 17  1  0
 17 18  2  0
 18 19  1  0
 19 20  2  0
 20 21  1  0
 12 22  2  0
 22 23  1  0
 23 24  2  0
 24 25  1  0
 25 26  2  0
 26  5  1  0
 25  8  1  0
 24 10  1  0
 20 15  1  0
  1 27  1  0
  6 28  1  0
  7 29  1  0
  9 30  1  0
 14 31  1  0
 14 32  1  0
 16 33  1  0
 17 34  1  0
 18 35  1  0
 19 36  1  0
 26 37  1  0
M  CHG  2   1  -1  21  -1
M  END
>  <UniqueID>  (31) 
28

>  <SMILES>  (31) 
[NH-]S(=O)(=O)c1ccc2[nH]c3nc(SCc4ccccc4[O-])nnc3c2c1

>  <Energy>  (31) 
84.40642820528043

>  <Genealogy>  (31) 
[NH-]S(=O)(=O)c1ccc2[nH]c3nc(SCc4ccccc4[O-])nnc3c2c1 (protonated)
[NH-]S(=O)(=O)c1ccc2[nH]c3nc(SCc4ccccc4[O-])nnc3c2c1 (3D coordinates assigned)
[NH-]S(=O)(=O)c1ccc2[nH]c3nc(SCc4ccccc4[O-])nnc3c2c1 (optimized conformer: 84.40642820528043 kcal/mol)

>  <smiles>  (31) 
NS(=O)(=O)c1ccc2[nH]c3nc(SCc4ccccc4O)nnc3c2c1

>  <score_type>  (31) 
oracle

>  <origin>  (31) 
adgpu

>  <m_score__min__energy>  (31) 
-11.279999999999999

>  <m_primary>  (31) 
energy

$$$$
31:0
     RDKit          3D

 42 44  0  0  0  0  0  0  0  0999 V2000
   -0.4050   27.5740  -27.1390 C   0  0  0  0  0  0  0  0  0  0  0  0
   -1.2230   26.3740  -27.4770 C   0  0  0  0  0  0  0  0  0  0  0  0
   -1.6860   25.4330  -26.5780 C   0  0  0  0  0  0  0  0  0  0  0  0
   -2.3620   24.4970  -27.3330 C   0  0  0  0  0  0  0  0  0  0  0  0
   -2.2600   24.9260  -28.6450 C   0  0  0  0  0  0  0  0  0  0  0  0
   -2.8290   24.2460  -29.8230 C   0  0  0  0  0  0  0  0  0  0  0  0
   -2.2710   23.2100  -30.2700 O   0  0  0  0  0  0  0  0  0  0  0  0
   -4.0460   24.6960  -30.4330 N   0  0  0  0  0  0  0  0  0  0  0  0
   -5.1790   23.8720  -30.7370 C   0  0  0  0  0  0  0  0  0  0  0  0
   -5.7370   23.9250  -32.0190 C   0  0  0  0  0  0  0  0  0  0  0  0
   -6.8260   23.1130  -32.3490 C   0  0  0  0  0  0  0  0  0  0  0  0
   -7.3830   22.2580  -31.3880 C   0  0  0  0  0  0  0  0  0  0  0  0
   -8.7100   21.1750  -31.8050 S   0  0  0  0  0  0  0  0  0  0  0  0
   -9.1600   20.4770  -30.5520 O   0  0  0  0  0  0  0  0  0  0  0  0
   -9.8670   21.9720  -32.3430 O   0  0  0  0  0  0  0  0  0  0  0  0
   -8.1860   19.9810  -32.9780 N   0  0  0  0  0  0  0  0  0  0  0  0
   -6.7900   20.2280  -33.4170 C   0  0  0  0  0  0  0  0  0  0  0  0
   -5.7690   19.3490  -32.6690 C   0  0  0  0  0  0  0  0  0  0  0  0
   -6.2110   19.0870  -31.3560 O   0  0  0  0  0  0  0  0  0  0  0  0
   -7.3480   18.2420  -31.3760 C   0  0  0  0  0  0  0  0  0  0  0  0
   -8.3680   18.6020  -32.4810 C   0  0  0  0  0  0  0  0  0  0  0  0
   -6.8530   22.2340  -30.0920 C   0  0  0  0  0  0  0  0  0  0  0  0
   -5.7620   23.0430  -29.7650 C   0  0  0  0  0  0  0  0  0  0  0  0
   -1.5790   26.0490  -28.6960 O   0  0  0  0  0  0  0  0  0  0  0  0
   -0.3363   27.6748  -26.0458 H   0  0  0  0  0  0  0  0  0  0  0  0
    0.6045   27.4603  -27.5609 H   0  0  0  0  0  0  0  0  0  0  0  0
   -0.8798   28.4721  -27.5609 H   0  0  0  0  0  0  0  0  0  0  0  0
   -1.5450   25.4305  -25.4871 H   0  0  0  0  0  0  0  0  0  0  0  0
   -2.8760   23.5957  -26.9677 H   0  0  0  0  0  0  0  0  0  0  0  0
   -5.3167   24.6090  -32.7710 H   0  0  0  0  0  0  0  0  0  0  0  0
   -7.2467   23.1451  -33.3649 H   0  0  0  0  0  0  0  0  0  0  0  0
   -8.8110   20.0990  -33.8100 H   0  0  0  0  0  0  0  0  0  0  0  0
   -6.7164   20.0149  -34.4936 H   0  0  0  0  0  0  0  0  0  0  0  0
   -6.5517   21.2785  -33.1940 H   0  0  0  0  0  0  0  0  0  0  0  0
   -5.6481   18.3972  -33.2069 H   0  0  0  0  0  0  0  0  0  0  0  0
   -4.8081   19.8823  -32.6211 H   0  0  0  0  0  0  0  0  0  0  0  0
   -7.0099   17.2079  -31.5385 H   0  0  0  0  0  0  0  0  0  0  0  0
   -7.8604   18.3681  -30.4108 H   0  0  0  0  0  0  0  0  0  0  0  0
   -8.2424   17.9029  -33.3209 H   0  0  0  0  0  0  0  0  0  0  0  0
   -9.3764   18.5287  -32.0477 H   0  0  0  0  0  0  0  0  0  0  0  0
   -7.2967   21.5767  -29.3298 H   0  0  0  0  0  0  0  0  0  0  0  0
   -5.3580   23.0306  -28.7419 H   0  0  0  0  0  0  0  0  0  0  0  0
  1  2  1  0
  2  3  2  0
  3  4  1  0
  4  5  2  0
  5  6  1  0
  6  7  2  0
  6  8  1  0
  8  9  1  0
  9 10  2  0
 10 11  1  0
 11 12  2  0
 12 13  1  0
 13 14  2  0
 13 15  2  0
 13 16  1  0
 16 17  1  0
 17 18  1  0
 18 19  1  0
 19 20  1  0
 20 21  1  0
 12 22  1  0
 22 23  2  0
  5 24  1  0
 24  2  1  0
 23  9  1  0
 21 16  1  0
  1 25  1  0
  1 26  1  0
  1 27  1  0
  3 28  1  0
  4 29  1  0
 10 30  1  0
 11 31  1  0
 16 32  1  0
 17 33  1  0
 17 34  1  0
 18 35  1  0
 18 36  1  0
 20 37  1  0
 20 38  1  0
 21 39  1  0
 21 40  1  0
 22 41  1  0
 23 42  1  0
M  CHG  2   8  -1  16   1
M  END
>  <UniqueID>  (32) 
29

>  <SMILES>  (32) 
Cc1ccc(C(=O)[N-]c2ccc(S(=O)(=O)[NH+]3CCOCC3)cc2)o1

>  <Energy>  (32) 
81.74501221410588

>  <Genealogy>  (32) 
Cc1ccc(C(=O)[N-]c2ccc(S(=O)(=O)[NH+]3CCOCC3)cc2)o1 (protonated)
Cc1ccc(C(=O)[N-]c2ccc(S(=O)(=O)[NH+]3CCOCC3)cc2)o1 (3D coordinates assigned)
Cc1ccc(C(=O)[N-]c2ccc(S(=O)(=O)[NH+]3CCOCC3)cc2)o1 (nonaromatic ring conformer: 81.74501221410588 kcal/mol)

>  <smiles>  (32) 
Cc1ccc(C(=O)Nc2ccc(S(=O)(=O)N3CCOCC3)cc2)o1

>  <score_type>  (32) 
oracle

>  <origin>  (32) 
adgpu

>  <m_score__min__energy>  (32) 
-9.5099999999999998

>  <m_primary>  (32) 
energy

$$$$
32:0
     RDKit          3D

 43 45  0  0  0  0  0  0  0  0999 V2000
   -6.5000   17.5450  -31.3530 C   0  0  0  0  0  0  0  0  0  0  0  0
   -5.4850   17.7810  -32.3050 O   0  0  0  0  0  0  0  0  0  0  0  0
   -5.9530   17.5050  -33.6140 C   0  0  0  0  0  0  0  0  0  0  0  0
   -6.1210   18.8100  -34.3950 C   0  0  0  0  0  0  0  0  0  0  0  0
   -6.6470   19.8570  -33.5270 N   0  0  0  0  0  0  0  0  0  0  0  0
   -7.9080   19.9390  -33.1380 N   0  0  0  0  0  0  0  0  0  0  0  0
   -8.0440   20.9940  -32.3510 N   0  0  0  0  0  0  0  0  0  0  0  0
   -6.8090   21.5380  -32.2770 C   0  0  0  0  0  0  0  0  0  0  0  0
   -6.4810   22.7670  -31.5250 C   0  0  0  0  0  0  0  0  0  0  0  0
   -7.4990   23.5200  -30.9170 C   0  0  0  0  0  0  0  0  0  0  0  0
   -7.1860   24.6760  -30.2020 C   0  0  0  0  0  0  0  0  0  0  0  0
   -5.8570   25.0810  -30.0660 C   0  0  0  0  0  0  0  0  0  0  0  0
   -4.8260   24.3370  -30.6520 C   0  0  0  0  0  0  0  0  0  0  0  0
   -3.4770   24.7860  -30.4760 N   0  0  0  0  0  0  0  0  0  0  0  0
   -2.5440   24.6220  -29.0240 S   0  0  0  0  0  0  0  0  0  0  0  0
   -1.6010   25.7850  -28.9130 O   0  0  0  0  0  0  0  0  0  0  0  0
   -3.4660   24.6340  -27.8380 O   0  0  0  0  0  0  0  0  0  0  0  0
   -1.5990   23.1350  -29.0820 C   0  0  0  0  0  0  0  0  0  0  0  0
   -1.5410   22.2220  -30.1160 C   0  0  0  0  0  0  0  0  0  0  0  0
   -2.2820   22.2890  -31.4060 C   0  0  0  0  0  0  0  0  0  0  0  0
   -0.6510   21.2570  -29.8090 N   0  0  0  0  0  0  0  0  0  0  0  0
   -0.1710   21.5420  -28.6310 O   0  0  0  0  0  0  0  0  0  0  0  0
   -0.6980   22.6480  -28.1540 C   0  0  0  0  0  0  0  0  0  0  0  0
   -0.3420   23.2430  -26.8320 C   0  0  0  0  0  0  0  0  0  0  0  0
   -5.1440   23.1840  -31.3910 C   0  0  0  0  0  0  0  0  0  0  0  0
   -5.9210   20.8320  -33.0060 N   0  0  0  0  0  0  0  0  0  0  0  0
   -6.0824   17.6421  -30.3400 H   0  0  0  0  0  0  0  0  0  0  0  0
   -7.3077   18.2793  -31.4885 H   0  0  0  0  0  0  0  0  0  0  0  0
   -6.9009   16.5297  -31.4885 H   0  0  0  0  0  0  0  0  0  0  0  0
   -5.2272   16.8610  -34.1322 H   0  0  0  0  0  0  0  0  0  0  0  0
   -6.9252   16.9945  -33.5500 H   0  0  0  0  0  0  0  0  0  0  0  0
   -5.1439   19.1240  -34.7908 H   0  0  0  0  0  0  0  0  0  0  0  0
   -6.8273   18.6431  -35.2216 H   0  0  0  0  0  0  0  0  0  0  0  0
   -8.5468   23.1969  -31.0050 H   0  0  0  0  0  0  0  0  0  0  0  0
   -7.9896   25.2709  -29.7434 H   0  0  0  0  0  0  0  0  0  0  0  0
   -5.6184   25.9903  -29.4949 H   0  0  0  0  0  0  0  0  0  0  0  0
   -3.3592   22.3864  -31.2055 H   0  0  0  0  0  0  0  0  0  0  0  0
   -1.9362   23.1595  -31.9827 H   0  0  0  0  0  0  0  0  0  0  0  0
   -2.0980   21.3706  -31.9827 H   0  0  0  0  0  0  0  0  0  0  0  0
   -0.7261   22.6010  -26.0256 H   0  0  0  0  0  0  0  0  0  0  0  0
    0.7519   23.3221  -26.7481 H   0  0  0  0  0  0  0  0  0  0  0  0
   -0.7895   24.2444  -26.7481 H   0  0  0  0  0  0  0  0  0  0  0  0
   -4.3410   22.6032  -31.8683 H   0  0  0  0  0  0  0  0  0  0  0  0
  1  2  1  0
  2  3  1  0
  3  4  1  0
  4  5  1  0
  5  6  1  0
  6  7  2  0
  7  8  1  0
  8  9  1  0
  9 10  2  0
 10 11  1  0
 11 12  2  0
 12 13  1  0
 13 14  1  0
 14 15  1  0
 15 16  2  0
 15 17  2  0
 15 18  1  0
 18 19  1  0
 19 20  1  0
 19 21  2  0
 21 22  1  0
 22 23  1  0
 23 24  1  0
 13 25  2  0
  8 26  2  0
 26  5  1  0
 25  9  1  0
 23 18  2  0
  1 27  1  0
  1 28  1  0
  1 29  1  0
  3 30  1  0
  3 31  1  0
  4 32  1  0
  4 33  1  0
 10 34  1  0
 11 35  1  0
 12 36  1  0
 20 37  1  0
 20 38  1  0
 20 39  1  0
 24 40  1  0
 24 41  1  0
 24 42  1  0
 25 43  1  0
M  CHG  1  14  -1
M  END
>  <UniqueID>  (33) 
30

>  <SMILES>  (33) 
COCCn1nnc(-c2cccc([N-]S(=O)(=O)c3c(C)noc3C)c2)n1

>  <Energy>  (33) 
114.03135658201346

>  <Genealogy>  (33) 
COCCn1nnc(-c2cccc([N-]S(=O)(=O)c3c(C)noc3C)c2)n1 (protonated)
COCCn1nnc(-c2cccc([N-]S(=O)(=O)c3c(C)noc3C)c2)n1 (3D coordinates assigned)
COCCn1nnc(-c2cccc([N-]S(=O)(=O)c3c(C)noc3C)c2)n1 (optimized conformer: 114.03135658201346 kcal/mol)

>  <smiles>  (33) 
COCCn1nnc(-c2cccc(NS(=O)(=O)c3c(C)noc3C)c2)n1

>  <score_type>  (33) 
oracle

>  <origin>  (33) 
adgpu

>  <m_score__min__energy>  (33) 
-9.5500000000000007

>  <m_primary>  (33) 
energy

$$$$
33:0
     RDKit          3D

 53 56  0  0  0  0  0  0  0  0999 V2000
   -1.5470   25.9920  -28.9600 O   0  0  0  0  0  0  0  0  0  0  0  0
   -2.4770   24.8080  -28.9480 S   0  0  0  0  0  0  0  0  0  0  0  0
   -3.3440   24.9020  -27.7220 O   0  0  0  0  0  0  0  0  0  0  0  0
   -3.4880   24.8730  -30.3570 N   0  0  0  0  0  0  0  0  0  0  0  0
   -4.6020   24.0020  -30.5790 C   0  0  0  0  0  0  0  0  0  0  0  0
   -4.4710   22.8630  -31.3890 C   0  0  0  0  0  0  0  0  0  0  0  0
   -5.5590   22.0010  -31.5800 C   0  0  0  0  0  0  0  0  0  0  0  0
   -6.7820   22.2640  -30.9450 C   0  0  0  0  0  0  0  0  0  0  0  0
   -6.9090   23.3870  -30.1160 C   0  0  0  0  0  0  0  0  0  0  0  0
   -5.8270   24.2540  -29.9260 C   0  0  0  0  0  0  0  0  0  0  0  0
   -5.9930   25.3620  -29.0920 O   0  0  0  0  0  0  0  0  0  0  0  0
   -7.9070   21.2800  -31.1180 C   0  0  0  0  0  0  0  0  0  0  0  0
   -8.0240   20.8400  -32.5900 C   0  0  0  0  0  0  0  0  0  0  0  0
   -6.6700   20.5310  -33.2840 C   0  0  0  0  0  0  0  0  0  0  0  0
   -5.4280   20.7450  -32.3970 C   0  0  0  0  0  0  0  0  0  0  0  0
   -1.5560   23.3090  -28.8670 C   0  0  0  0  0  0  0  0  0  0  0  0
   -0.9870   22.8900  -27.6560 C   0  0  0  0  0  0  0  0  0  0  0  0
   -0.2320   21.7160  -27.6040 C   0  0  0  0  0  0  0  0  0  0  0  0
   -0.0380   20.9550  -28.7610 C   0  0  0  0  0  0  0  0  0  0  0  0
   -0.5890   21.3730  -29.9800 C   0  0  0  0  0  0  0  0  0  0  0  0
   -0.3280   20.4220  -31.4450 S   0  0  0  0  0  0  0  0  0  0  0  0
    1.1120   19.9890  -31.4950 O   0  0  0  0  0  0  0  0  0  0  0  0
   -1.1750   19.1830  -31.3710 O   0  0  0  0  0  0  0  0  0  0  0  0
   -0.7300   21.2990  -32.9100 N   0  0  0  0  0  0  0  0  0  0  0  0
   -2.1440   21.1500  -33.2950 C   0  0  0  0  0  0  0  0  0  0  0  0
   -2.4280   19.8370  -34.0570 C   0  0  0  0  0  0  0  0  0  0  0  0
   -1.2540   19.1380  -34.4150 O   0  0  0  0  0  0  0  0  0  0  0  0
   -0.3450   20.0160  -35.0350 C   0  0  0  0  0  0  0  0  0  0  0  0
    0.2100   21.0260  -34.0160 C   0  0  0  0  0  0  0  0  0  0  0  0
   -1.3540   22.5480  -30.0270 C   0  0  0  0  0  0  0  0  0  0  0  0
   -3.5090   22.6460  -31.8764 H   0  0  0  0  0  0  0  0  0  0  0  0
   -7.8655   23.5882  -29.6114 H   0  0  0  0  0  0  0  0  0  0  0  0
   -5.2560   25.7000  -28.4850 H   0  0  0  0  0  0  0  0  0  0  0  0
   -7.7138   20.3968  -30.4914 H   0  0  0  0  0  0  0  0  0  0  0  0
   -8.8485   21.7627  -30.8172 H   0  0  0  0  0  0  0  0  0  0  0  0
   -8.6437   19.9319  -32.6280 H   0  0  0  0  0  0  0  0  0  0  0  0
   -8.4655   21.6881  -33.1338 H   0  0  0  0  0  0  0  0  0  0  0  0
   -6.6829   19.4798  -33.6076 H   0  0  0  0  0  0  0  0  0  0  0  0
   -6.5805   21.2402  -34.1201 H   0  0  0  0  0  0  0  0  0  0  0  0
   -5.3172   19.8853  -31.7198 H   0  0  0  0  0  0  0  0  0  0  0  0
   -4.5455   20.8401  -33.0468 H   0  0  0  0  0  0  0  0  0  0  0  0
   -1.1356   23.4874  -26.7444 H   0  0  0  0  0  0  0  0  0  0  0  0
    0.2107   21.3896  -26.6514 H   0  0  0  0  0  0  0  0  0  0  0  0
    0.5487   20.0257  -28.7143 H   0  0  0  0  0  0  0  0  0  0  0  0
   -2.7589   21.1658  -32.3831 H   0  0  0  0  0  0  0  0  0  0  0  0
   -2.3898   21.9821  -33.9712 H   0  0  0  0  0  0  0  0  0  0  0  0
   -3.0411   19.1862  -33.4162 H   0  0  0  0  0  0  0  0  0  0  0  0
   -2.9468   20.1049  -34.9892 H   0  0  0  0  0  0  0  0  0  0  0  0
    0.4874   19.4351  -35.4588 H   0  0  0  0  0  0  0  0  0  0  0  0
   -0.8685   20.5656  -35.8312 H   0  0  0  0  0  0  0  0  0  0  0  0
    1.1421   20.6227  -33.5935 H   0  0  0  0  0  0  0  0  0  0  0  0
    0.3794   21.9738  -34.5480 H   0  0  0  0  0  0  0  0  0  0  0  0
   -1.7978   22.8740  -30.9792 H   0  0  0  0  0  0  0  0  0  0  0  0
  1  2  2  0
  2  3  2  0
  2  4  1  0
  4  5  1  0
  5  6  2  0
  6  7  1  0
  7  8  2  0
  8  9  1  0
  9 10  2  0
 10 11  1  0
  8 12  1  0
 12 13  1  0
 13 14  1  0
 14 15  1  0
  2 16  1  0
 16 17  2  0
 17 18  1  0
 18 19  2  0
 19 20  1  0
 20 21  1  0
 21 22  2  0
 21 23  2  0
 21 24  1  0
 24 25  1  0
 25 26  1  0
 26 27  1  0
 27 28  1  0
 28 29  1  0
 20 30  2  0
 10  5  1  0
 30 16  1  0
 15  7  1  0
 29 24  1  0
  6 31  1  0
  9 32  1  0
 11 33  1  0
 12 34  1  0
 12 35  1  0
 13 36  1  0
 13 37  1  0
 14 38  1  0
 14 39  1  0
 15 40  1  0
 15 41  1  0
 17 42  1  0
 18 43  1  0
 19 44  1  0
 25 45  1  0
 25 46  1  0
 26 47  1  0
 26 48  1  0
 28 49  1  0
 28 50  1  0
 29 51  1  0
 29 52  1  0
 30 53  1  0
M  CHG  1   4  -1
M  END
>  <UniqueID>  (34) 
31

>  <SMILES>  (34) 
O=S(=O)([N-]c1cc2c(cc1O)CCCC2)c1cccc(S(=O)(=O)N2CCOCC2)c1

>  <Energy>  (34) 
75.63551099122645

>  <Genealogy>  (34) 
O=S(=O)([N-]c1cc2c(cc1O)CCCC2)c1cccc(S(=O)(=O)N2CCOCC2)c1 (protonated)
O=S(=O)([N-]c1cc2c(cc1O)CCCC2)c1cccc(S(=O)(=O)N2CCOCC2)c1 (3D coordinates assigned)
O=S(=O)([N-]c1cc2c(cc1O)CCCC2)c1cccc(S(=O)(=O)N2CCOCC2)c1 (nonaromatic ring conformer: 75.63551099122645 kcal/mol)

>  <smiles>  (34) 
O=S(=O)(Nc1cc2c(cc1O)CCCC2)c1cccc(S(=O)(=O)N2CCOCC2)c1

>  <score_type>  (34) 
oracle

>  <origin>  (34) 
adgpu

>  <m_score__min__energy>  (34) 
-13.289999999999999

>  <m_primary>  (34) 
energy

$$$$
34:0
     RDKit          3D

 51 54  0  0  0  0  0  0  0  0999 V2000
   -3.8760   25.6670  -30.8670 O   0  0  0  0  0  0  0  0  0  0  0  0
   -3.3190   24.8020  -29.9330 C   0  0  0  0  0  0  0  0  0  0  0  0
   -2.2070   25.1110  -29.2270 N   0  0  0  0  0  0  0  0  0  0  0  0
   -1.9810   24.0170  -28.4760 C   0  0  0  0  0  0  0  0  0  0  0  0
   -0.9290   23.8310  -27.5810 C   0  0  0  0  0  0  0  0  0  0  0  0
   -0.8400   22.5980  -26.9120 C   0  0  0  0  0  0  0  0  0  0  0  0
   -1.7890   21.5800  -27.1570 C   0  0  0  0  0  0  0  0  0  0  0  0
   -1.6460   20.0390  -26.3340 Cl  0  0  0  0  0  0  0  0  0  0  0  0
   -2.8410   21.7950  -28.0660 C   0  0  0  0  0  0  0  0  0  0  0  0
   -2.9140   23.0360  -28.7020 C   0  0  0  0  0  0  0  0  0  0  0  0
   -3.8120   23.5360  -29.6230 C   0  0  0  0  0  0  0  0  0  0  0  0
   -4.9930   22.8190  -30.2270 C   0  0  0  0  0  0  0  0  0  0  0  0
   -5.6830   23.6020  -31.3590 C   0  0  0  0  0  0  0  0  0  0  0  0
   -7.2140   23.7180  -31.2240 C   0  0  0  0  0  0  0  0  0  0  0  0
   -7.8910   22.4260  -30.7290 C   0  0  0  0  0  0  0  0  0  0  0  0
   -7.9880   21.4130  -31.8030 N   0  0  0  0  0  0  0  0  0  0  0  0
   -8.2890   20.0840  -31.2220 C   0  0  0  0  0  0  0  0  0  0  0  0
   -8.0710   18.9510  -32.2280 C   0  0  0  0  0  0  0  0  0  0  0  0
   -6.6980   18.9780  -32.7500 N   0  0  0  0  0  0  0  0  0  0  0  0
   -6.1190   17.7920  -33.3410 C   0  0  0  0  0  0  0  0  0  0  0  0
   -6.8850   16.6190  -33.4850 C   0  0  0  0  0  0  0  0  0  0  0  0
   -6.3260   15.4730  -34.0590 C   0  0  0  0  0  0  0  0  0  0  0  0
   -4.9980   15.4810  -34.4910 C   0  0  0  0  0  0  0  0  0  0  0  0
   -4.2250   16.6360  -34.3490 C   0  0  0  0  0  0  0  0  0  0  0  0
   -2.5540   16.6420  -34.8850 Cl  0  0  0  0  0  0  0  0  0  0  0  0
   -4.7800   17.7850  -33.7760 C   0  0  0  0  0  0  0  0  0  0  0  0
   -5.9010   20.1990  -32.5780 C   0  0  0  0  0  0  0  0  0  0  0  0
   -6.8010   21.4360  -32.7040 C   0  0  0  0  0  0  0  0  0  0  0  0
   -0.1898   24.6260  -27.4033 H   0  0  0  0  0  0  0  0  0  0  0  0
   -0.0260   22.4243  -26.1928 H   0  0  0  0  0  0  0  0  0  0  0  0
   -3.5835   21.0094  -28.2696 H   0  0  0  0  0  0  0  0  0  0  0  0
   -4.6447   21.8577  -30.6326 H   0  0  0  0  0  0  0  0  0  0  0  0
   -5.7357   22.6935  -29.4254 H   0  0  0  0  0  0  0  0  0  0  0  0
   -5.2630   24.6185  -31.3775 H   0  0  0  0  0  0  0  0  0  0  0  0
   -5.4954   23.0383  -32.2848 H   0  0  0  0  0  0  0  0  0  0  0  0
   -7.4397   24.5239  -30.5102 H   0  0  0  0  0  0  0  0  0  0  0  0
   -7.6109   23.9245  -32.2289 H   0  0  0  0  0  0  0  0  0  0  0  0
   -7.3013   22.0100  -29.8988 H   0  0  0  0  0  0  0  0  0  0  0  0
   -8.9106   22.6770  -30.4012 H   0  0  0  0  0  0  0  0  0  0  0  0
   -7.6323   19.9193  -30.3550 H   0  0  0  0  0  0  0  0  0  0  0  0
   -9.3490   20.0758  -30.9282 H   0  0  0  0  0  0  0  0  0  0  0  0
   -8.2492   17.9865  -31.7300 H   0  0  0  0  0  0  0  0  0  0  0  0
   -8.7710   19.0824  -33.0663 H   0  0  0  0  0  0  0  0  0  0  0  0
   -7.9305   16.6042  -33.1435 H   0  0  0  0  0  0  0  0  0  0  0  0
   -6.9338   14.5630  -34.1705 H   0  0  0  0  0  0  0  0  0  0  0  0
   -4.5609   14.5784  -34.9428 H   0  0  0  0  0  0  0  0  0  0  0  0
   -4.1653   18.6904  -33.6644 H   0  0  0  0  0  0  0  0  0  0  0  0
   -5.4312   20.1902  -31.5834 H   0  0  0  0  0  0  0  0  0  0  0  0
   -5.1252   20.2363  -33.3569 H   0  0  0  0  0  0  0  0  0  0  0  0
   -6.2014   22.3265  -32.4644 H   0  0  0  0  0  0  0  0  0  0  0  0
   -7.1830   21.4494  -33.7354 H   0  0  0  0  0  0  0  0  0  0  0  0
  1  2  1  0
  2  3  1  0
  3  4  1  0
  4  5  2  0
  5  6  1  0
  6  7  2  0
  7  8  1  0
  7  9  1  0
  9 10  2  0
 10 11  1  0
 11 12  1  0
 12 13  1  0
 13 14  1  0
 14 15  1  0
 15 16  1  0
 16 17  1  0
 17 18  1  0
 18 19  1  0
 19 20  1  0
 20 21  2  0
 21 22  1  0
 22 23  2  0
 23 24  1  0
 24 25  1  0
 24 26  2  0
 19 27  1  0
 27 28  1  0
 11  2  2  0
 28 16  1  0
 10  4  1  0
 26 20  1  0
  5 29  1  0
  6 30  1  0
  9 31  1  0
 12 32  1  0
 12 33  1  0
 13 34  1  0
 13 35  1  0
 14 36  1  0
 14 37  1  0
 15 38  1  0
 15 39  1  0
 17 40  1  0
 17 41  1  0
 18 42  1  0
 18 43  1  0
 21 44  1  0
 22 45  1  0
 23 46  1  0
 26 47  1  0
 27 48  1  0
 27 49  1  0
 28 50  1  0
 28 51  1  0
M  CHG  2   1  -1   3  -1
M  END
>  <UniqueID>  (35) 
32

>  <SMILES>  (35) 
[O-]c1[n-]c2ccc(Cl)cc2c1CCCCN1CCN(c2cccc(Cl)c2)CC1

>  <Energy>  (35) 
90.289638944928

>  <Genealogy>  (35) 
[O-]c1[n-]c2ccc(Cl)cc2c1CCCCN1CCN(c2cccc(Cl)c2)CC1 (protonated)
[O-]c1[n-]c2ccc(Cl)cc2c1CCCCN1CCN(c2cccc(Cl)c2)CC1 (3D coordinates assigned)
[O-]c1[n-]c2ccc(Cl)cc2c1CCCCN1CCN(c2cccc(Cl)c2)CC1 (nonaromatic ring conformer: 90.289638944928 kcal/mol)

>  <smiles>  (35) 
Oc1[nH]c2ccc(Cl)cc2c1CCCCN1CCN(c2cccc(Cl)c2)CC1

>  <score_type>  (35) 
oracle

>  <origin>  (35) 
adgpu

>  <m_score__min__energy>  (35) 
-14.33

>  <m_primary>  (35) 
energy

$$$$
35:0
     RDKit          3D

 57 60  0  0  0  0  0  0  0  0999 V2000
   -4.8670   17.3410  -33.2200 C   0  0  0  0  0  0  0  0  0  0  0  0
   -5.7200   18.4900  -32.8540 N   0  0  0  0  0  0  0  0  0  0  0  0
   -7.0810   18.3910  -32.9770 C   0  0  0  0  0  0  0  0  0  0  0  0
   -7.6140   17.3440  -33.4340 O   0  0  0  0  0  0  0  0  0  0  0  0
   -7.9080   19.4510  -32.5940 C   0  0  0  0  0  0  0  0  0  0  0  0
   -9.1600   19.3160  -32.7070 O   0  0  0  0  0  0  0  0  0  0  0  0
   -7.3690   20.6110  -32.1020 N   0  0  0  0  0  0  0  0  0  0  0  0
   -8.2600   21.6780  -31.6030 C   0  0  0  0  0  0  0  0  0  0  0  0
   -6.0000   20.7540  -32.0340 C   0  0  0  0  0  0  0  0  0  0  0  0
   -5.4010   21.9700  -31.6180 C   0  0  0  0  0  0  0  0  0  0  0  0
   -4.0150   22.1250  -31.5930 C   0  0  0  0  0  0  0  0  0  0  0  0
   -3.4600   23.4040  -31.2660 N   0  0  0  0  0  0  0  0  0  0  0  0
   -4.0820   24.3970  -29.9870 S   0  0  0  0  0  0  0  0  0  0  0  0
   -4.3070   25.7890  -30.5050 O   0  0  0  0  0  0  0  0  0  0  0  0
   -5.3910   23.8470  -29.4940 O   0  0  0  0  0  0  0  0  0  0  0  0
   -2.8840   24.4470  -28.6970 C   0  0  0  0  0  0  0  0  0  0  0  0
   -1.5420   24.1700  -28.9910 C   0  0  0  0  0  0  0  0  0  0  0  0
   -0.6140   24.0080  -27.9610 C   0  0  0  0  0  0  0  0  0  0  0  0
   -1.0220   24.0930  -26.6240 C   0  0  0  0  0  0  0  0  0  0  0  0
    0.0990   23.6890  -25.3240 S   0  0  0  0  0  0  0  0  0  0  0  0
    1.3920   23.2090  -25.9230 O   0  0  0  0  0  0  0  0  0  0  0  0
   -0.4770   22.5640  -24.5070 O   0  0  0  0  0  0  0  0  0  0  0  0
    0.4300   25.0670  -24.2870 N   0  0  0  0  0  0  0  0  0  0  0  0
   -0.8250   25.6660  -23.7590 C   0  0  0  0  0  0  0  0  0  0  0  0
   -0.8400   27.1990  -23.7980 C   0  0  0  0  0  0  0  0  0  0  0  0
   -0.5970   27.6680  -25.2270 C   0  0  0  0  0  0  0  0  0  0  0  0
    0.7130   27.1020  -25.7980 C   0  0  0  0  0  0  0  0  0  0  0  0
    1.3780   26.0180  -24.9220 C   0  0  0  0  0  0  0  0  0  0  0  0
   -2.3530   24.4250  -26.3300 C   0  0  0  0  0  0  0  0  0  0  0  0
   -3.2780   24.6070  -27.3620 C   0  0  0  0  0  0  0  0  0  0  0  0
   -3.1980   21.0410  -31.9160 C   0  0  0  0  0  0  0  0  0  0  0  0
   -3.7570   19.8320  -32.3160 C   0  0  0  0  0  0  0  0  0  0  0  0
   -5.1590   19.6680  -32.4050 C   0  0  0  0  0  0  0  0  0  0  0  0
   -4.5021   16.8494  -32.3061 H   0  0  0  0  0  0  0  0  0  0  0  0
   -5.4530   16.6236  -33.8132 H   0  0  0  0  0  0  0  0  0  0  0  0
   -4.0107   17.6943  -33.8132 H   0  0  0  0  0  0  0  0  0  0  0  0
   -8.2566   21.6739  -30.5030 H   0  0  0  0  0  0  0  0  0  0  0  0
   -7.9041   22.6530  -31.9672 H   0  0  0  0  0  0  0  0  0  0  0  0
   -9.2829   21.5017  -31.9672 H   0  0  0  0  0  0  0  0  0  0  0  0
   -6.0425   22.8083  -31.3086 H   0  0  0  0  0  0  0  0  0  0  0  0
   -1.2185   24.0798  -30.0385 H   0  0  0  0  0  0  0  0  0  0  0  0
    0.4418   23.8128  -28.2004 H   0  0  0  0  0  0  0  0  0  0  0  0
    0.9400   24.6620  -23.4670 H   0  0  0  0  0  0  0  0  0  0  0  0
   -1.6672   25.2950  -24.3615 H   0  0  0  0  0  0  0  0  0  0  0  0
   -0.9027   25.3704  -22.7023 H   0  0  0  0  0  0  0  0  0  0  0  0
   -1.8175   27.5660  -23.4519 H   0  0  0  0  0  0  0  0  0  0  0  0
   -0.0500   27.5924  -23.1414 H   0  0  0  0  0  0  0  0  0  0  0  0
   -1.4340   27.3350  -25.8583 H   0  0  0  0  0  0  0  0  0  0  0  0
   -0.5207   28.7653  -25.2186 H   0  0  0  0  0  0  0  0  0  0  0  0
    0.4969   26.6628  -26.7831 H   0  0  0  0  0  0  0  0  0  0  0  0
    1.4214   27.9421  -25.8475 H   0  0  0  0  0  0  0  0  0  0  0  0
    2.0691   25.4420  -25.5550 H   0  0  0  0  0  0  0  0  0  0  0  0
    1.8836   26.5480  -24.1014 H   0  0  0  0  0  0  0  0  0  0  0  0
   -2.6699   24.5425  -25.2832 H   0  0  0  0  0  0  0  0  0  0  0  0
   -4.3179   24.8765  -27.1254 H   0  0  0  0  0  0  0  0  0  0  0  0
   -2.1045   21.1433  -31.8538 H   0  0  0  0  0  0  0  0  0  0  0  0
   -3.0972   18.9886  -32.5676 H   0  0  0  0  0  0  0  0  0  0  0  0
  1  2  1  0
  2  3  1  0
  3  4  2  0
  3  5  1  0
  5  6  2  0
  5  7  1  0
  7  8  1  0
  7  9  1  0
  9 10  2  0
 10 11  1  0
 11 12  1  0
 12 13  1  0
 13 14  2  0
 13 15  2  0
 13 16  1  0
 16 17  2  0
 17 18  1  0
 18 19  2  0
 19 20  1  0
 20 21  2  0
 20 22  2  0
 20 23  1  0
 23 24  1  0
 24 25  1  0
 25 26  1  0
 26 27  1  0
 27 28  1  0
 19 29  1  0
 29 30  2  0
 11 31  2  0
 31 32  1  0
 32 33  2  0
 33  2  1  0
 33  9  1  0
 30 16  1  0
 28 23  1  0
  1 34  1  0
  1 35  1  0
  1 36  1  0
  8 37  1  0
  8 38  1  0
  8 39  1  0
 10 40  1  0
 17 41  1  0
 18 42  1  0
 23 43  1  0
 24 44  1  0
 24 45  1  0
 25 46  1  0
 25 47  1  0
 26 48  1  0
 26 49  1  0
 27 50  1  0
 27 51  1  0
 28 52  1  0
 28 53  1  0
 29 54  1  0
 30 55  1  0
 31 56  1  0
 32 57  1  0
M  CHG  2  12  -1  23   1
M  END
>  <UniqueID>  (36) 
33

>  <SMILES>  (36) 
Cn1c(=O)c(=O)n(C)c2cc([N-]S(=O)(=O)c3ccc(S(=O)(=O)[NH+]4CCCCC4)cc3)ccc21

>  <Energy>  (36) 
86.46738546195485

>  <Genealogy>  (36) 
Cn1c(=O)c(=O)n(C)c2cc([N-]S(=O)(=O)c3ccc(S(=O)(=O)[NH+]4CCCCC4)cc3)ccc21 (protonated)
Cn1c(=O)c(=O)n(C)c2cc([N-]S(=O)(=O)c3ccc(S(=O)(=O)[NH+]4CCCCC4)cc3)ccc21 (3D coordinates assigned)
Cn1c(=O)c(=O)n(C)c2cc([N-]S(=O)(=O)c3ccc(S(=O)(=O)[NH+]4CCCCC4)cc3)ccc21 (nonaromatic ring conformer: 86.46738546195485 kcal/mol)

>  <smiles>  (36) 
Cn1c(=O)c(=O)n(C)c2cc(NS(=O)(=O)c3ccc(S(=O)(=O)N4CCCCC4)cc3)ccc21

>  <score_type>  (36) 
oracle

>  <origin>  (36) 
adgpu

>  <m_score__min__energy>  (36) 
-11.369999999999999

>  <m_primary>  (36) 
energy

$$$$
36:0
     RDKit          3D

 42 45  0  0  0  0  0  0  0  0999 V2000
   -6.9360   15.9460  -34.2870 C   0  0  0  0  0  0  0  0  0  0  0  0
   -6.5420   17.2540  -33.6700 C   0  0  0  0  0  0  0  0  0  0  0  0
   -6.8690   17.5410  -32.3370 C   0  0  0  0  0  0  0  0  0  0  0  0
   -6.4820   18.7540  -31.7600 C   0  0  0  0  0  0  0  0  0  0  0  0
   -5.7500   19.6960  -32.5030 C   0  0  0  0  0  0  0  0  0  0  0  0
   -5.3550   20.9470  -31.9110 N   0  0  0  0  0  0  0  0  0  0  0  0
   -6.1440   22.0200  -31.8580 N   0  0  0  0  0  0  0  0  0  0  0  0
   -5.4090   22.9590  -31.2450 C   0  0  0  0  0  0  0  0  0  0  0  0
   -5.7430   24.2730  -30.9440 C   0  0  0  0  0  0  0  0  0  0  0  0
   -4.7670   25.0610  -30.3060 C   0  0  0  0  0  0  0  0  0  0  0  0
   -3.4880   24.5160  -29.9870 C   0  0  0  0  0  0  0  0  0  0  0  0
   -2.4710   25.2940  -29.3410 N   0  0  0  0  0  0  0  0  0  0  0  0
   -1.7800   24.9450  -27.7910 S   0  0  0  0  0  0  0  0  0  0  0  0
   -0.5220   25.7470  -27.6180 O   0  0  0  0  0  0  0  0  0  0  0  0
   -2.7520   25.3350  -26.7120 O   0  0  0  0  0  0  0  0  0  0  0  0
   -1.3800   23.2330  -27.6940 C   0  0  0  0  0  0  0  0  0  0  0  0
   -0.0570   22.7940  -27.8440 C   0  0  0  0  0  0  0  0  0  0  0  0
    0.2470   21.4330  -27.7510 C   0  0  0  0  0  0  0  0  0  0  0  0
    1.5300   21.0200  -27.8970 F   0  0  0  0  0  0  0  0  0  0  0  0
   -0.7680   20.4990  -27.5150 C   0  0  0  0  0  0  0  0  0  0  0  0
   -0.4480   19.1450  -27.4310 O   0  0  0  0  0  0  0  0  0  0  0  0
   -2.0940   20.9360  -27.3690 C   0  0  0  0  0  0  0  0  0  0  0  0
   -3.0930   20.0440  -27.1470 F   0  0  0  0  0  0  0  0  0  0  0  0
   -2.3960   22.2980  -27.4570 C   0  0  0  0  0  0  0  0  0  0  0  0
   -3.1990   23.1750  -30.3140 C   0  0  0  0  0  0  0  0  0  0  0  0
   -4.1930   22.4330  -30.9430 C   0  0  0  0  0  0  0  0  0  0  0  0
   -4.1570   21.1610  -31.3650 N   0  0  0  0  0  0  0  0  0  0  0  0
   -5.4060   19.3950  -33.8330 C   0  0  0  0  0  0  0  0  0  0  0  0
   -5.7960   18.1830  -34.4100 C   0  0  0  0  0  0  0  0  0  0  0  0
   -7.1555   15.2173  -33.4928 H   0  0  0  0  0  0  0  0  0  0  0  0
   -7.8308   16.0895  -34.9105 H   0  0  0  0  0  0  0  0  0  0  0  0
   -6.1108   15.5714  -34.9105 H   0  0  0  0  0  0  0  0  0  0  0  0
   -7.4331   16.8076  -31.7421 H   0  0  0  0  0  0  0  0  0  0  0  0
   -6.7524   18.9729  -30.7165 H   0  0  0  0  0  0  0  0  0  0  0  0
   -6.7328   24.6823  -31.1947 H   0  0  0  0  0  0  0  0  0  0  0  0
   -4.9926   26.1070  -30.0509 H   0  0  0  0  0  0  0  0  0  0  0  0
    0.7442   23.5230  -28.0355 H   0  0  0  0  0  0  0  0  0  0  0  0
   -1.1300   18.4200  -27.6190 H   0  0  0  0  0  0  0  0  0  0  0  0
   -3.4358   22.6371  -27.3397 H   0  0  0  0  0  0  0  0  0  0  0  0
   -2.2204   22.7308  -30.0795 H   0  0  0  0  0  0  0  0  0  0  0  0
   -4.8256   20.1189  -34.4238 H   0  0  0  0  0  0  0  0  0  0  0  0
   -5.5164   17.9567  -35.4495 H   0  0  0  0  0  0  0  0  0  0  0  0
  1  2  1  0
  2  3  2  0
  3  4  1  0
  4  5  2  0
  5  6  1  0
  6  7  1  0
  7  8  2  0
  8  9  1  0
  9 10  2  0
 10 11  1  0
 11 12  1  0
 12 13  1  0
 13 14  2  0
 13 15  2  0
 13 16  1  0
 16 17  2  0
 17 18  1  0
 18 19  1  0
 18 20  2  0
 20 21  1  0
 20 22  1  0
 22 23  1  0
 22 24  2  0
 11 25  2  0
 25 26  1  0
 26 27  2  0
  5 28  1  0
 28 29  2  0
 29  2  1  0
 27  6  1  0
 26  8  1  0
 24 16  1  0
  1 30  1  0
  1 31  1  0
  1 32  1  0
  3 33  1  0
  4 34  1  0
  9 35  1  0
 10 36  1  0
 17 37  1  0
 21 38  1  0
 24 39  1  0
 25 40  1  0
 28 41  1  0
 29 42  1  0
M  CHG  1  12  -1
M  END
>  <UniqueID>  (37) 
34

>  <SMILES>  (37) 
Cc1ccc(-n2nc3ccc([N-]S(=O)(=O)c4cc(F)c(O)c(F)c4)cc3n2)cc1

>  <Energy>  (37) 
93.02035219928678

>  <Genealogy>  (37) 
Cc1ccc(-n2nc3ccc([N-]S(=O)(=O)c4cc(F)c(O)c(F)c4)cc3n2)cc1 (protonated)
Cc1ccc(-n2nc3ccc([N-]S(=O)(=O)c4cc(F)c(O)c(F)c4)cc3n2)cc1 (3D coordinates assigned)
Cc1ccc(-n2nc3ccc([N-]S(=O)(=O)c4cc(F)c(O)c(F)c4)cc3n2)cc1 (optimized conformer: 93.02035219928678 kcal/mol)

>  <smiles>  (37) 
Cc1ccc(-n2nc3ccc(NS(=O)(=O)c4cc(F)c(O)c(F)c4)cc3n2)cc1

>  <score_type>  (37) 
oracle

>  <origin>  (37) 
adgpu

>  <m_score__min__energy>  (37) 
-10.48

>  <m_primary>  (37) 
energy

$$$$
37:0
     RDKit          3D

 55 57  0  0  0  0  0  0  0  0999 V2000
   -0.6190   20.0760  -28.7380 C   0  0  0  0  0  0  0  0  0  0  0  0
   -1.1660   21.4560  -28.9850 C   0  0  0  0  0  0  0  0  0  0  0  0
   -1.2610   22.3720  -27.9250 C   0  0  0  0  0  0  0  0  0  0  0  0
   -1.7870   23.6760  -28.1120 C   0  0  0  0  0  0  0  0  0  0  0  0
   -1.9070   24.6830  -26.9350 C   0  0  0  0  0  0  0  0  0  0  0  0
   -1.1780   24.1290  -25.6910 C   0  0  0  0  0  0  0  0  0  0  0  0
   -1.2740   26.0620  -27.2500 C   0  0  0  0  0  0  0  0  0  0  0  0
   -3.3950   24.9350  -26.6010 C   0  0  0  0  0  0  0  0  0  0  0  0
   -2.1970   24.0280  -29.4260 C   0  0  0  0  0  0  0  0  0  0  0  0
   -2.6960   25.2920  -29.7190 O   0  0  0  0  0  0  0  0  0  0  0  0
   -2.1090   23.1100  -30.4750 C   0  0  0  0  0  0  0  0  0  0  0  0
   -1.6220   21.8150  -30.2630 C   0  0  0  0  0  0  0  0  0  0  0  0
   -1.5310   20.8680  -31.3400 N   0  0  0  0  0  0  0  0  0  0  0  0
   -2.3510   20.8400  -32.5130 C   0  0  0  0  0  0  0  0  0  0  0  0
   -2.3320   21.7980  -33.3310 O   0  0  0  0  0  0  0  0  0  0  0  0
   -3.2640   19.7530  -32.6960 N   0  0  0  0  0  0  0  0  0  0  0  0
   -4.6930   19.8630  -32.6350 C   0  0  0  0  0  0  0  0  0  0  0  0
   -5.4560   18.7980  -33.1030 C   0  0  0  0  0  0  0  0  0  0  0  0
   -6.8420   18.8350  -33.0210 C   0  0  0  0  0  0  0  0  0  0  0  0
   -7.5040   19.9540  -32.4910 C   0  0  0  0  0  0  0  0  0  0  0  0
   -9.0070   19.8950  -32.4070 C   0  0  0  0  0  0  0  0  0  0  0  0
   -6.7470   21.0880  -32.0770 C   0  0  0  0  0  0  0  0  0  0  0  0
   -7.5230   22.5900  -31.4870 S   0  0  0  0  0  0  0  0  0  0  0  0
   -7.7530   23.4920  -32.6670 O   0  0  0  0  0  0  0  0  0  0  0  0
   -8.8640   22.3400  -30.8600 O   0  0  0  0  0  0  0  0  0  0  0  0
   -6.5110   23.4690  -30.2870 C   0  0  0  0  0  0  0  0  0  0  0  0
   -6.8650   24.9230  -30.0100 C   0  0  0  0  0  0  0  0  0  0  0  0
   -5.6770   24.5860  -30.8900 C   0  0  0  0  0  0  0  0  0  0  0  0
   -5.3260   21.0240  -32.1510 C   0  0  0  0  0  0  0  0  0  0  0  0
   -4.5170   22.0980  -31.7630 O   0  0  0  0  0  0  0  0  0  0  0  0
   -0.5484   19.8980  -27.6548 H   0  0  0  0  0  0  0  0  0  0  0  0
   -1.2893   19.3297  -29.1893 H   0  0  0  0  0  0  0  0  0  0  0  0
    0.3806   19.9916  -29.1893 H   0  0  0  0  0  0  0  0  0  0  0  0
   -0.9188   22.0706  -26.9240 H   0  0  0  0  0  0  0  0  0  0  0  0
   -1.6700   24.5029  -24.7809 H   0  0  0  0  0  0  0  0  0  0  0  0
   -1.2159   23.0297  -25.7031 H   0  0  0  0  0  0  0  0  0  0  0  0
   -0.1290   24.4599  -25.7031 H   0  0  0  0  0  0  0  0  0  0  0  0
   -1.0363   26.5799  -26.3091 H   0  0  0  0  0  0  0  0  0  0  0  0
   -0.3519   25.9178  -27.8323 H   0  0  0  0  0  0  0  0  0  0  0  0
   -1.9845   26.6672  -27.8323 H   0  0  0  0  0  0  0  0  0  0  0  0
   -3.5270   24.9574  -25.5092 H   0  0  0  0  0  0  0  0  0  0  0  0
   -3.7085   25.8990  -27.0281 H   0  0  0  0  0  0  0  0  0  0  0  0
   -4.0084   24.1280  -27.0281 H   0  0  0  0  0  0  0  0  0  0  0  0
   -2.4276   23.4097  -31.4843 H   0  0  0  0  0  0  0  0  0  0  0  0
   -4.9581   17.9204  -33.5411 H   0  0  0  0  0  0  0  0  0  0  0  0
   -7.4293   17.9755  -33.3763 H   0  0  0  0  0  0  0  0  0  0  0  0
   -9.3150   19.8829  -31.3511 H   0  0  0  0  0  0  0  0  0  0  0  0
   -9.4369   20.7770  -32.9043 H   0  0  0  0  0  0  0  0  0  0  0  0
   -9.3665   18.9821  -32.9043 H   0  0  0  0  0  0  0  0  0  0  0  0
   -6.3319   22.5939  -29.6450 H   0  0  0  0  0  0  0  0  0  0  0  0
   -7.7707   25.3627  -30.4532 H   0  0  0  0  0  0  0  0  0  0  0  0
   -7.0149   25.5281  -29.1037 H   0  0  0  0  0  0  0  0  0  0  0  0
   -5.7211   24.7822  -31.9715 H   0  0  0  0  0  0  0  0  0  0  0  0
   -4.6083   24.8467  -30.8855 H   0  0  0  0  0  0  0  0  0  0  0  0
   -3.5340   22.0240  -31.5440 H   0  0  0  0  0  0  0  0  0  0  0  0
  1  2  1  0
  2  3  2  0
  3  4  1  0
  4  5  1  0
  5  6  1  0
  5  7  1  0
  5  8  1  0
  4  9  2  0
  9 10  1  0
  9 11  1  0
 11 12  2  0
 12 13  1  0
 13 14  1  0
 14 15  2  0
 14 16  1  0
 16 17  1  0
 17 18  2  0
 18 19  1  0
 19 20  2  0
 20 21  1  0
 20 22  1  0
 22 23  1  0
 23 24  2  0
 23 25  2  0
 23 26  1  0
 26 27  1  0
 27 28  1  0
 22 29  2  0
 29 30  1  0
 12  2  1  0
 29 17  1  0
 28 26  1  0
  1 31  1  0
  1 32  1  0
  1 33  1  0
  3 34  1  0
  6 35  1  0
  6 36  1  0
  6 37  1  0
  7 38  1  0
  7 39  1  0
  7 40  1  0
  8 41  1  0
  8 42  1  0
  8 43  1  0
 11 44  1  0
 18 45  1  0
 19 46  1  0
 21 47  1  0
 21 48  1  0
 21 49  1  0
 26 50  1  0
 27 51  1  0
 27 52  1  0
 28 53  1  0
 28 54  1  0
 30 55  1  0
M  CHG  3  10  -1  13  -1  16  -1
M  END
>  <UniqueID>  (38) 
35

>  <SMILES>  (38) 
Cc1cc(C(C)(C)C)c([O-])cc1[N-]C(=O)[N-]c1ccc(C)c(S(=O)(=O)C2CC2)c1O

>  <Energy>  (38) 
339.630160103741

>  <Genealogy>  (38) 
Cc1cc(C(C)(C)C)c([O-])cc1[N-]C(=O)[N-]c1ccc(C)c(S(=O)(=O)C2CC2)c1O (protonated)
Cc1cc(C(C)(C)C)c([O-])cc1[N-]C(=O)[N-]c1ccc(C)c(S(=O)(=O)C2CC2)c1O (3D coordinates assigned)
Cc1cc(C(C)(C)C)c([O-])cc1[N-]C(=O)[N-]c1ccc(C)c(S(=O)(=O)C2CC2)c1O (nonaromatic ring conformer: 339.630160103741 kcal/mol)

>  <smiles>  (38) 
Cc1cc(C(C)(C)C)c(O)cc1NC(=O)Nc1ccc(C)c(S(=O)(=O)C2CC2)c1O

>  <score_type>  (38) 
oracle

>  <origin>  (38) 
adgpu

>  <m_score__min__energy>  (38) 
-12.31

>  <m_primary>  (38) 
energy

$$$$
38:0
     RDKit          3D

 68 71  0  0  0  0  0  0  0  0999 V2000
    0.6540   16.7630  -30.3110 C   0  0  0  0  0  0  0  0  0  0  0  0
    0.2500   17.9090  -29.3870 C   0  0  0  0  0  0  0  0  0  0  0  0
    0.0870   19.1530  -30.1410 N   0  0  0  0  0  0  0  0  0  0  0  0
   -0.6740   20.2940  -29.6870 C   0  0  0  0  0  0  0  0  0  0  0  0
   -1.4900   20.2210  -28.5410 C   0  0  0  0  0  0  0  0  0  0  0  0
   -2.2370   21.3270  -28.1280 C   0  0  0  0  0  0  0  0  0  0  0  0
   -2.1890   22.5220  -28.8540 C   0  0  0  0  0  0  0  0  0  0  0  0
   -3.1410   23.9170  -28.3510 S   0  0  0  0  0  0  0  0  0  0  0  0
   -2.6160   25.1310  -29.0660 O   0  0  0  0  0  0  0  0  0  0  0  0
   -2.9920   24.1300  -26.8700 O   0  0  0  0  0  0  0  0  0  0  0  0
   -4.8220   23.6610  -28.7660 N   0  0  0  0  0  0  0  0  0  0  0  0
   -5.5470   24.9360  -28.9730 C   0  0  0  0  0  0  0  0  0  0  0  0
   -5.7200   25.2880  -30.4610 C   0  0  0  0  0  0  0  0  0  0  0  0
   -4.6150   24.8260  -31.2040 O   0  0  0  0  0  0  0  0  0  0  0  0
   -4.6260   23.4110  -31.2610 C   0  0  0  0  0  0  0  0  0  0  0  0
   -4.9640   22.7380  -29.9080 C   0  0  0  0  0  0  0  0  0  0  0  0
   -1.3910   22.6040  -29.9990 C   0  0  0  0  0  0  0  0  0  0  0  0
   -0.6280   21.5040  -30.4130 C   0  0  0  0  0  0  0  0  0  0  0  0
    0.2190   21.6410  -31.5530 N   0  0  0  0  0  0  0  0  0  0  0  0
   -0.1390   20.7980  -33.0210 S   0  0  0  0  0  0  0  0  0  0  0  0
    0.1470   21.6780  -34.2060 O   0  0  0  0  0  0  0  0  0  0  0  0
    0.7360   19.5780  -33.1100 O   0  0  0  0  0  0  0  0  0  0  0  0
   -1.8340   20.3280  -33.0210 C   0  0  0  0  0  0  0  0  0  0  0  0
   -2.8310   21.2420  -33.3890 C   0  0  0  0  0  0  0  0  0  0  0  0
   -4.1680   20.8400  -33.4410 C   0  0  0  0  0  0  0  0  0  0  0  0
   -4.5200   19.5150  -33.1420 C   0  0  0  0  0  0  0  0  0  0  0  0
   -6.1950   18.9850  -33.3000 S   0  0  0  0  0  0  0  0  0  0  0  0
   -6.5020   17.9790  -32.2240 O   0  0  0  0  0  0  0  0  0  0  0  0
   -6.3810   18.3140  -34.6330 O   0  0  0  0  0  0  0  0  0  0  0  0
   -7.3030   20.3330  -33.1680 N   0  0  0  0  0  0  0  0  0  0  0  0
   -6.7810   21.3320  -32.2100 C   0  0  0  0  0  0  0  0  0  0  0  0
   -7.8850   22.2810  -31.7300 C   0  0  0  0  0  0  0  0  0  0  0  0
   -8.9860   21.5110  -30.9770 C   0  0  0  0  0  0  0  0  0  0  0  0
   -9.0960   20.0440  -31.4220 C   0  0  0  0  0  0  0  0  0  0  0  0
   -8.6880   19.8760  -32.8940 C   0  0  0  0  0  0  0  0  0  0  0  0
   -3.5240   18.6080  -32.7570 C   0  0  0  0  0  0  0  0  0  0  0  0
   -2.1880   19.0130  -32.6950 C   0  0  0  0  0  0  0  0  0  0  0  0
    0.9597   15.8957  -29.7074 H   0  0  0  0  0  0  0  0  0  0  0  0
   -0.2004   16.4851  -30.9457 H   0  0  0  0  0  0  0  0  0  0  0  0
    1.4937   17.0824  -30.9457 H   0  0  0  0  0  0  0  0  0  0  0  0
   -0.7017   17.6578  -28.8960 H   0  0  0  0  0  0  0  0  0  0  0  0
    1.0419   18.0528  -28.6372 H   0  0  0  0  0  0  0  0  0  0  0  0
    0.5640   19.2020  -31.0690 H   0  0  0  0  0  0  0  0  0  0  0  0
   -1.5395   19.2845  -27.9660 H   0  0  0  0  0  0  0  0  0  0  0  0
   -2.8657   21.2580  -27.2280 H   0  0  0  0  0  0  0  0  0  0  0  0
   -6.5429   24.8528  -28.5133 H   0  0  0  0  0  0  0  0  0  0  0  0
   -4.9499   25.7357  -28.5104 H   0  0  0  0  0  0  0  0  0  0  0  0
   -6.6370   24.8146  -30.8418 H   0  0  0  0  0  0  0  0  0  0  0  0
   -5.7895   26.3809  -30.5647 H   0  0  0  0  0  0  0  0  0  0  0  0
   -5.3769   23.0988  -32.0017 H   0  0  0  0  0  0  0  0  0  0  0  0
   -3.6096   23.0916  -31.5348 H   0  0  0  0  0  0  0  0  0  0  0  0
   -6.0027   22.3777  -29.9431 H   0  0  0  0  0  0  0  0  0  0  0  0
   -4.2536   21.9114  -29.7596 H   0  0  0  0  0  0  0  0  0  0  0  0
   -1.3619   23.5383  -30.5788 H   0  0  0  0  0  0  0  0  0  0  0  0
   -2.5599   22.2787  -33.6375 H   0  0  0  0  0  0  0  0  0  0  0  0
   -4.9477   21.5650  -33.7174 H   0  0  0  0  0  0  0  0  0  0  0  0
   -6.3584   20.8068  -31.3408 H   0  0  0  0  0  0  0  0  0  0  0  0
   -6.0105   21.9290  -32.7197 H   0  0  0  0  0  0  0  0  0  0  0  0
   -7.4462   23.0318  -31.0564 H   0  0  0  0  0  0  0  0  0  0  0  0
   -8.3353   22.7672  -32.6080 H   0  0  0  0  0  0  0  0  0  0  0  0
   -8.7594   21.5360  -29.9009 H   0  0  0  0  0  0  0  0  0  0  0  0
   -9.9456   21.9989  -31.2028 H   0  0  0  0  0  0  0  0  0  0  0  0
   -8.4349   19.4284  -30.7943 H   0  0  0  0  0  0  0  0  0  0  0  0
  -10.1431   19.7252  -31.3130 H   0  0  0  0  0  0  0  0  0  0  0  0
   -8.7647   18.8113  -33.1596 H   0  0  0  0  0  0  0  0  0  0  0  0
   -9.3652   20.4995  -33.4962 H   0  0  0  0  0  0  0  0  0  0  0  0
   -3.7948   17.5727  -32.5024 H   0  0  0  0  0  0  0  0  0  0  0  0
   -1.4117   18.2963  -32.3890 H   0  0  0  0  0  0  0  0  0  0  0  0
  1  2  1  0
  2  3  1  0
  3  4  1  0
  4  5  2  0
  5  6  1  0
  6  7  2  0
  7  8  1  0
  8  9  2  0
  8 10  2  0
  8 11  1  0
 11 12  1  0
 12 13  1  0
 13 14  1  0
 14 15  1  0
 15 16  1  0
  7 17  1  0
 17 18  2  0
 18 19  1  0
 19 20  1  0
 20 21  2  0
 20 22  2  0
 20 23  1  0
 23 24  2  0
 24 25  1  0
 25 26  2  0
 26 27  1  0
 27 28  2  0
 27 29  2  0
 27 30  1  0
 30 31  1  0
 31 32  1  0
 32 33  1  0
 33 34  1  0
 34 35  1  0
 26 36  1  0
 36 37  2  0
 18  4  1  0
 37 23  1  0
 16 11  1  0
 35 30  1  0
  1 38  1  0
  1 39  1  0
  1 40  1  0
  2 41  1  0
  2 42  1  0
  3 43  1  0
  5 44  1  0
  6 45  1  0
 12 46  1  0
 12 47  1  0
 13 48  1  0
 13 49  1  0
 15 50  1  0
 15 51  1  0
 16 52  1  0
 16 53  1  0
 17 54  1  0
 24 55  1  0
 25 56  1  0
 31 57  1  0
 31 58  1  0
 32 59  1  0
 32 60  1  0
 33 61  1  0
 33 62  1  0
 34 63  1  0
 34 64  1  0
 35 65  1  0
 35 66  1  0
 36 67  1  0
 37 68  1  0
M  CHG  1  19  -1
M  END
>  <UniqueID>  (39) 
36

>  <SMILES>  (39) 
CCNc1ccc(S(=O)(=O)N2CCOCC2)cc1[N-]S(=O)(=O)c1ccc(S(=O)(=O)N2CCCCC2)cc1

>  <Energy>  (39) 
88.38242197568522

>  <Genealogy>  (39) 
CCNc1ccc(S(=O)(=O)N2CCOCC2)cc1[N-]S(=O)(=O)c1ccc(S(=O)(=O)N2CCCCC2)cc1 (protonated)
CCNc1ccc(S(=O)(=O)N2CCOCC2)cc1[N-]S(=O)(=O)c1ccc(S(=O)(=O)N2CCCCC2)cc1 (3D coordinates assigned)
CCNc1ccc(S(=O)(=O)N2CCOCC2)cc1[N-]S(=O)(=O)c1ccc(S(=O)(=O)N2CCCCC2)cc1 (nonaromatic ring conformer: 88.38242197568522 kcal/mol)

>  <smiles>  (39) 
CCNc1ccc(S(=O)(=O)N2CCOCC2)cc1NS(=O)(=O)c1ccc(S(=O)(=O)N2CCCCC2)cc1

>  <score_type>  (39) 
oracle

>  <origin>  (39) 
adgpu

>  <m_score__min__energy>  (39) 
-12.35

>  <m_primary>  (39) 
energy

$$$$
39:0
     RDKit          3D

 43 45  0  0  0  0  0  0  0  0999 V2000
   -1.3750   19.8690  -34.2770 N   0  0  0  0  0  0  0  0  0  0  0  0
   -2.6770   19.3990  -33.8980 C   0  0  0  0  0  0  0  0  0  0  0  0
   -3.1900   18.2560  -34.5300 C   0  0  0  0  0  0  0  0  0  0  0  0
   -4.4180   17.7200  -34.1440 C   0  0  0  0  0  0  0  0  0  0  0  0
   -5.1570   18.3180  -33.1190 C   0  0  0  0  0  0  0  0  0  0  0  0
   -6.7230   17.6500  -32.6460 S   0  0  0  0  0  0  0  0  0  0  0  0
   -6.6090   17.0450  -31.2740 O   0  0  0  0  0  0  0  0  0  0  0  0
   -7.1060   16.5590  -33.6060 O   0  0  0  0  0  0  0  0  0  0  0  0
   -7.9690   18.8770  -32.6420 N   0  0  0  0  0  0  0  0  0  0  0  0
   -7.5740   20.0610  -33.4460 C   0  0  0  0  0  0  0  0  0  0  0  0
   -7.1350   21.2530  -32.5810 C   0  0  0  0  0  0  0  0  0  0  0  0
   -8.2550   21.6840  -31.6180 C   0  0  0  0  0  0  0  0  0  0  0  0
   -9.1480   20.5090  -31.1790 C   0  0  0  0  0  0  0  0  0  0  0  0
   -8.3880   19.1810  -31.2560 C   0  0  0  0  0  0  0  0  0  0  0  0
   -4.6570   19.4600  -32.4830 C   0  0  0  0  0  0  0  0  0  0  0  0
   -3.4290   20.0230  -32.8710 C   0  0  0  0  0  0  0  0  0  0  0  0
   -2.9910   21.2790  -32.2200 C   0  0  0  0  0  0  0  0  0  0  0  0
   -2.0150   21.9210  -32.6930 O   0  0  0  0  0  0  0  0  0  0  0  0
   -3.6830   21.7670  -31.0600 N   0  0  0  0  0  0  0  0  0  0  0  0
   -3.5330   23.0790  -30.5700 N   0  0  0  0  0  0  0  0  0  0  0  0
   -2.5300   23.5710  -29.8190 C   0  0  0  0  0  0  0  0  0  0  0  0
   -2.7670   24.9190  -29.6710 C   0  0  0  0  0  0  0  0  0  0  0  0
   -1.9610   25.8000  -28.9630 O   0  0  0  0  0  0  0  0  0  0  0  0
   -3.8910   25.2920  -30.3210 N   0  0  0  0  0  0  0  0  0  0  0  0
   -4.3200   24.1330  -30.8630 C   0  0  0  0  0  0  0  0  0  0  0  0
   -5.3540   24.0510  -31.5770 O   0  0  0  0  0  0  0  0  0  0  0  0
   -1.1640   20.8840  -34.3900 H   0  0  0  0  0  0  0  0  0  0  0  0
   -0.5720   19.2050  -34.3410 H   0  0  0  0  0  0  0  0  0  0  0  0
   -2.6174   17.7778  -35.3384 H   0  0  0  0  0  0  0  0  0  0  0  0
   -4.8069   16.8230  -34.6481 H   0  0  0  0  0  0  0  0  0  0  0  0
   -6.7379   19.7767  -34.1018 H   0  0  0  0  0  0  0  0  0  0  0  0
   -8.4564   20.3783  -34.0211 H   0  0  0  0  0  0  0  0  0  0  0  0
   -6.2496   20.9646  -31.9955 H   0  0  0  0  0  0  0  0  0  0  0  0
   -6.9022   22.0984  -33.2452 H   0  0  0  0  0  0  0  0  0  0  0  0
   -7.7969   22.1309  -30.7233 H   0  0  0  0  0  0  0  0  0  0  0  0
   -8.8928   22.4038  -32.1520 H   0  0  0  0  0  0  0  0  0  0  0  0
   -9.4770   20.6753  -30.1426 H   0  0  0  0  0  0  0  0  0  0  0  0
  -10.0139   20.4561  -31.8553 H   0  0  0  0  0  0  0  0  0  0  0  0
   -7.4943   19.2428  -30.6176 H   0  0  0  0  0  0  0  0  0  0  0  0
   -9.0583   18.3788  -30.9137 H   0  0  0  0  0  0  0  0  0  0  0  0
   -5.2329   19.9233  -31.6683 H   0  0  0  0  0  0  0  0  0  0  0  0
   -4.2780   21.0970  -30.5230 H   0  0  0  0  0  0  0  0  0  0  0  0
   -1.6835   23.0047  -29.4034 H   0  0  0  0  0  0  0  0  0  0  0  0
  1  2  1  0
  2  3  2  0
  3  4  1  0
  4  5  2  0
  5  6  1  0
  6  7  2  0
  6  8  2  0
  6  9  1  0
  9 10  1  0
 10 11  1  0
 11 12  1  0
 12 13  1  0
 13 14  1  0
  5 15  1  0
 15 16  2  0
 16 17  1  0
 17 18  2  0
 17 19  1  0
 19 20  1  0
 20 21  1  0
 21 22  2  0
 22 23  1  0
 22 24  1  0
 24 25  1  0
 25 26  2  0
 16  2  1  0
 25 20  1  0
 14  9  1  0
  1 27  1  0
  1 28  1  0
  3 29  1  0
  4 30  1  0
 10 31  1  0
 10 32  1  0
 11 33  1  0
 11 34  1  0
 12 35  1  0
 12 36  1  0
 13 37  1  0
 13 38  1  0
 14 39  1  0
 14 40  1  0
 15 41  1  0
 19 42  1  0
 21 43  1  0
M  CHG  2  23  -1  24  -1
M  END
>  <UniqueID>  (40) 
37

>  <SMILES>  (40) 
Nc1ccc(S(=O)(=O)N2CCCCC2)cc1C(=O)Nn1cc([O-])[n-]c1=O

>  <Energy>  (40) 
88.53158408634293

>  <Genealogy>  (40) 
Nc1ccc(S(=O)(=O)N2CCCCC2)cc1C(=O)Nn1cc([O-])[n-]c1=O (protonated)
Nc1ccc(S(=O)(=O)N2CCCCC2)cc1C(=O)Nn1cc([O-])[n-]c1=O (3D coordinates assigned)
Nc1ccc(S(=O)(=O)N2CCCCC2)cc1C(=O)Nn1cc([O-])[n-]c1=O (nonaromatic ring conformer: 88.53158408634293 kcal/mol)

>  <smiles>  (40) 
Nc1ccc(S(=O)(=O)N2CCCCC2)cc1C(=O)Nn1cc(O)[nH]c1=O

>  <score_type>  (40) 
oracle

>  <origin>  (40) 
adgpu

>  <m_score__min__energy>  (40) 
-12.220000000000001

>  <m_primary>  (40) 
energy

$$$$
40:0
     RDKit          3D

 48 50  0  0  0  0  0  0  0  0999 V2000
   -5.7521   21.1905  -32.3125 H   0  0  0  0  0  0  0  0  0  0  0  0
   -4.6590   21.0870  -32.3790 C   0  0  0  0  0  0  0  0  0  0  0  0
   -4.1130   19.9140  -32.7930 N   0  0  0  0  0  0  0  0  0  0  0  0
   -2.7690   19.7250  -32.8840 C   0  0  0  0  0  0  0  0  0  0  0  0
   -2.3330   18.5680  -33.2960 N   0  0  0  0  0  0  0  0  0  0  0  0
   -0.9410   18.1350  -33.4380 C   0  0  0  0  0  0  0  0  0  0  0  0
   -0.2804   19.0079  -33.3305 H   0  0  0  0  0  0  0  0  0  0  0  0
   -0.8170   17.6765  -34.4302 H   0  0  0  0  0  0  0  0  0  0  0  0
   -0.5750   17.0950  -32.3710 C   0  0  0  0  0  0  0  0  0  0  0  0
   -0.1667   16.2004  -32.8639 H   0  0  0  0  0  0  0  0  0  0  0  0
   -1.4809   16.8377  -31.8026 H   0  0  0  0  0  0  0  0  0  0  0  0
    0.4350   17.6380  -31.4360 N   0  0  0  0  0  0  0  0  0  0  0  0
    0.4250   16.8960  -30.1560 C   0  0  0  0  0  0  0  0  0  0  0  0
    0.9624   15.9452  -30.2874 H   0  0  0  0  0  0  0  0  0  0  0  0
   -0.6201   16.7118  -29.8664 H   0  0  0  0  0  0  0  0  0  0  0  0
    1.1030   17.7050  -29.0460 C   0  0  0  0  0  0  0  0  0  0  0  0
    2.1245   17.9626  -29.3626 H   0  0  0  0  0  0  0  0  0  0  0  0
    1.1228   17.0935  -28.1318 H   0  0  0  0  0  0  0  0  0  0  0  0
    0.3570   18.9520  -28.7600 N   0  0  0  0  0  0  0  0  0  0  0  0
    1.2440   19.9540  -28.1490 C   0  0  0  0  0  0  0  0  0  0  0  0
    1.1796   19.8812  -27.0533 H   0  0  0  0  0  0  0  0  0  0  0  0
    2.2803   19.7697  -28.4684 H   0  0  0  0  0  0  0  0  0  0  0  0
    0.9353   20.9603  -28.4684 H   0  0  0  0  0  0  0  0  0  0  0  0
   -0.3530   19.5050  -29.9410 C   0  0  0  0  0  0  0  0  0  0  0  0
   -0.3662   20.6022  -29.8635 H   0  0  0  0  0  0  0  0  0  0  0  0
   -1.3714   19.0892  -29.9454 H   0  0  0  0  0  0  0  0  0  0  0  0
    0.3210   19.1110  -31.2680 C   0  0  0  0  0  0  0  0  0  0  0  0
    1.3303   19.5477  -31.2938 H   0  0  0  0  0  0  0  0  0  0  0  0
   -0.3070   19.4922  -32.0868 H   0  0  0  0  0  0  0  0  0  0  0  0
   -1.9060   20.7820  -32.5310 C   0  0  0  0  0  0  0  0  0  0  0  0
   -0.8155   20.6528  -32.5959 H   0  0  0  0  0  0  0  0  0  0  0  0
   -2.4470   21.9950  -32.0980 C   0  0  0  0  0  0  0  0  0  0  0  0
   -1.7793   22.8185  -31.8045 H   0  0  0  0  0  0  0  0  0  0  0  0
   -3.8310   22.1670  -32.0360 C   0  0  0  0  0  0  0  0  0  0  0  0
   -4.3610   23.4200  -31.5790 N   0  0  0  0  0  0  0  0  0  0  0  0
   -3.8340   24.2250  -30.5150 C   0  0  0  0  0  0  0  0  0  0  0  0
   -4.1360   25.4480  -30.4770 O   0  0  0  0  0  0  0  0  0  0  0  0
   -2.9780   23.6590  -29.4470 C   0  0  0  0  0  0  0  0  0  0  0  0
   -3.2140   22.3480  -28.9990 C   0  0  0  0  0  0  0  0  0  0  0  0
   -4.0179   21.7514  -29.4548 H   0  0  0  0  0  0  0  0  0  0  0  0
   -2.4340   21.7970  -27.9780 C   0  0  0  0  0  0  0  0  0  0  0  0
   -2.7510   20.1660  -27.4160 Cl  0  0  0  0  0  0  0  0  0  0  0  0
   -1.4060   22.5460  -27.4010 C   0  0  0  0  0  0  0  0  0  0  0  0
   -0.7990   22.1135  -26.5920 H   0  0  0  0  0  0  0  0  0  0  0  0
   -1.1470   23.8450  -27.8500 C   0  0  0  0  0  0  0  0  0  0  0  0
    0.1630   24.7630  -27.1230 Cl  0  0  0  0  0  0  0  0  0  0  0  0
   -1.9210   24.4010  -28.8790 C   0  0  0  0  0  0  0  0  0  0  0  0
   -1.6210   25.6770  -29.3470 O   0  0  0  0  0  0  0  0  0  0  0  0
  1  2  1  0
  2  3  1  0
  3  4  1  0
  4  5  2  0
  5  6  1  0
  6  7  1  0
  6  8  1  0
  6  9  1  0
  9 10  1  0
  9 11  1  0
  9 12  1  0
 12 13  1  0
 13 14  1  0
 13 15  1  0
 13 16  1  0
 16 17  1  0
 16 18  1  0
 16 19  1  0
 19 20  1  0
 20 21  1  0
 20 22  1  0
 20 23  1  0
 19 24  1  0
 24 25  1  0
 24 26  1  0
 24 27  1  0
 27 28  1  0
 27 29  1  0
  4 30  1  0
 30 31  1  0
 30 32  2  0
 32 33  1  0
 32 34  1  0
 34 35  1  0
 35 36  1  0
 36 37  2  0
 36 38  1  0
 38 39  2  0
 39 40  1  0
 39 41  1  0
 41 42  1  0
 41 43  2  0
 43 44  1  0
 43 45  1  0
 45 46  1  0
 45 47  2  0
 47 48  1  0
 34  2  2  0
 47 38  1  0
 27 12  1  0
M  CHG  3   3  -1  35  -1  48  -1
M  END
>  <UniqueID>  (41) 
38

>  <SMILES>  (41) 
CN1CCN(CC/N=c2\ccc([N-]C(=O)c3cc(Cl)cc(Cl)c3[O-])c[n-]2)CC1

>  <Energy>  (41) 
72.14638685845395

>  <Genealogy>  (41) 
CN1CCN(CCN=c2ccc([N-]C(=O)c3cc(Cl)cc(Cl)c3[O-])c[n-]2)CC1 (protonated)
CN1CCN(CC/N=c2\ccc([N-]C(=O)c3cc(Cl)cc(Cl)c3[O-])c[n-]2)CC1 (cis-trans isomerization)
CN1CCN(CC/N=c2\ccc([N-]C(=O)c3cc(Cl)cc(Cl)c3[O-])c[n-]2)CC1 (3D coordinates assigned)
CN1CCN(CC/N=c2\ccc([N-]C(=O)c3cc(Cl)cc(Cl)c3[O-])c[n-]2)CC1 (nonaromatic ring conformer: 72.14638685845395 kcal/mol)

>  <smiles>  (41) 
CN1CCN(CCN=c2ccc(NC(=O)c3cc(Cl)cc(Cl)c3O)c[nH]2)CC1

>  <score_type>  (41) 
oracle

>  <origin>  (41) 
adgpu

>  <m_score__min__energy>  (41) 
-13.48

>  <m_primary>  (41) 
energy

$$$$
41:0
     RDKit          3D

 62 65  0  0  0  0  0  0  0  0999 V2000
   -0.0970   22.7190  -25.2700 C   0  0  0  0  0  0  0  0  0  0  0  0
   -0.1300   22.4060  -26.6570 O   0  0  0  0  0  0  0  0  0  0  0  0
   -0.9520   23.0440  -27.6010 C   0  0  0  0  0  0  0  0  0  0  0  0
   -1.2390   24.4170  -27.5290 C   0  0  0  0  0  0  0  0  0  0  0  0
   -2.0680   25.0190  -28.4770 C   0  0  0  0  0  0  0  0  0  0  0  0
   -2.6430   24.2640  -29.5020 C   0  0  0  0  0  0  0  0  0  0  0  0
   -3.5000   24.9270  -30.4410 N   0  0  0  0  0  0  0  0  0  0  0  0
   -5.2330   25.0130  -30.3760 S   0  0  0  0  0  0  0  0  0  0  0  0
   -5.7490   26.1720  -31.1820 O   0  0  0  0  0  0  0  0  0  0  0  0
   -5.6400   25.2280  -28.9430 O   0  0  0  0  0  0  0  0  0  0  0  0
   -5.9320   23.5010  -30.9590 C   0  0  0  0  0  0  0  0  0  0  0  0
   -7.1890   23.4920  -31.5720 C   0  0  0  0  0  0  0  0  0  0  0  0
   -7.7340   22.2950  -32.0460 C   0  0  0  0  0  0  0  0  0  0  0  0
   -7.0320   21.0920  -31.9030 C   0  0  0  0  0  0  0  0  0  0  0  0
   -7.7070   19.5940  -32.5350 S   0  0  0  0  0  0  0  0  0  0  0  0
   -9.1090   19.8590  -32.9990 O   0  0  0  0  0  0  0  0  0  0  0  0
   -7.7480   18.5570  -31.4480 O   0  0  0  0  0  0  0  0  0  0  0  0
   -6.7420   19.0280  -33.8790 N   0  0  0  0  0  0  0  0  0  0  0  0
   -6.5650   17.5730  -33.8260 C   0  0  0  0  0  0  0  0  0  0  0  0
   -5.2560   17.2920  -33.0970 C   0  0  0  0  0  0  0  0  0  0  0  0
   -4.5060   18.6140  -33.0780 C   0  0  0  0  0  0  0  0  0  0  0  0
   -5.3890   19.5910  -33.8350 C   0  0  0  0  0  0  0  0  0  0  0  0
   -5.7780   21.0970  -31.2850 C   0  0  0  0  0  0  0  0  0  0  0  0
   -5.2280   22.2950  -30.8210 C   0  0  0  0  0  0  0  0  0  0  0  0
   -2.3390   22.8940  -29.5950 C   0  0  0  0  0  0  0  0  0  0  0  0
   -1.5020   22.2830  -28.6500 C   0  0  0  0  0  0  0  0  0  0  0  0
   -1.1460   20.5570  -28.7790 S   0  0  0  0  0  0  0  0  0  0  0  0
   -2.2270   19.7590  -28.1070 O   0  0  0  0  0  0  0  0  0  0  0  0
    0.1580   20.2870  -28.0870 O   0  0  0  0  0  0  0  0  0  0  0  0
   -1.0250   20.0840  -30.4550 N   0  0  0  0  0  0  0  0  0  0  0  0
   -0.0160   20.9100  -31.1350 C   0  0  0  0  0  0  0  0  0  0  0  0
   -0.1610   20.7790  -32.6590 C   0  0  0  0  0  0  0  0  0  0  0  0
   -1.4430   21.1330  -33.1690 O   0  0  0  0  0  0  0  0  0  0  0  0
   -2.4430   21.2390  -32.1730 C   0  0  0  0  0  0  0  0  0  0  0  0
   -2.3460   20.1240  -31.1170 C   0  0  0  0  0  0  0  0  0  0  0  0
   -0.1945   21.7939  -24.6829 H   0  0  0  0  0  0  0  0  0  0  0  0
    0.8577   23.2084  -25.0272 H   0  0  0  0  0  0  0  0  0  0  0  0
   -0.9287   23.3968  -25.0272 H   0  0  0  0  0  0  0  0  0  0  0  0
   -0.8069   25.0229  -26.7189 H   0  0  0  0  0  0  0  0  0  0  0  0
   -2.2705   26.0985  -28.4163 H   0  0  0  0  0  0  0  0  0  0  0  0
   -7.7514   24.4310  -31.6817 H   0  0  0  0  0  0  0  0  0  0  0  0
   -8.7198   22.2983  -32.5340 H   0  0  0  0  0  0  0  0  0  0  0  0
   -7.2210   19.3040  -34.7690 H   0  0  0  0  0  0  0  0  0  0  0  0
   -7.4031   17.1131  -33.2819 H   0  0  0  0  0  0  0  0  0  0  0  0
   -6.5391   17.1506  -34.8414 H   0  0  0  0  0  0  0  0  0  0  0  0
   -5.4541   16.9483  -32.0710 H   0  0  0  0  0  0  0  0  0  0  0  0
   -4.6748   16.5017  -33.5947 H   0  0  0  0  0  0  0  0  0  0  0  0
   -4.3539   18.9551  -32.0433 H   0  0  0  0  0  0  0  0  0  0  0  0
   -3.5095   18.5250  -33.5353 H   0  0  0  0  0  0  0  0  0  0  0  0
   -5.4038   20.5613  -33.3170 H   0  0  0  0  0  0  0  0  0  0  0  0
   -5.0041   19.7483  -34.8534 H   0  0  0  0  0  0  0  0  0  0  0  0
   -5.2226   20.1553  -31.1636 H   0  0  0  0  0  0  0  0  0  0  0  0
   -4.2366   22.2926  -30.3444 H   0  0  0  0  0  0  0  0  0  0  0  0
   -2.7615   22.2964  -30.4162 H   0  0  0  0  0  0  0  0  0  0  0  0
   -0.1536   21.9625  -30.8462 H   0  0  0  0  0  0  0  0  0  0  0  0
    0.9865   20.5670  -30.8395 H   0  0  0  0  0  0  0  0  0  0  0  0
    0.5876   21.4319  -33.1315 H   0  0  0  0  0  0  0  0  0  0  0  0
   -0.0173   19.7140  -32.8936 H   0  0  0  0  0  0  0  0  0  0  0  0
   -2.3373   22.2113  -31.6696 H   0  0  0  0  0  0  0  0  0  0  0  0
   -3.4198   21.1437  -32.6698 H   0  0  0  0  0  0  0  0  0  0  0  0
   -3.1185   20.2940  -30.3526 H   0  0  0  0  0  0  0  0  0  0  0  0
   -2.4908   19.1628  -31.6319 H   0  0  0  0  0  0  0  0  0  0  0  0
  1  2  1  0
  2  3  1  0
  3  4  2  0
  4  5  1  0
  5  6  2  0
  6  7  1  0
  7  8  1  0
  8  9  2  0
  8 10  2  0
  8 11  1  0
 11 12  2  0
 12 13  1  0
 13 14  2  0
 14 15  1  0
 15 16  2  0
 15 17  2  0
 15 18  1  0
 18 19  1  0
 19 20  1  0
 20 21  1  0
 21 22  1  0
 14 23  1  0
 23 24  2  0
  6 25  1  0
 25 26  2  0
 26 27  1  0
 27 28  2  0
 27 29  2  0
 27 30  1  0
 30 31  1  0
 31 32  1  0
 32 33  1  0
 33 34  1  0
 34 35  1  0
 26  3  1  0
 35 30  1  0
 24 11  1  0
 22 18  1  0
  1 36  1  0
  1 37  1  0
  1 38  1  0
  4 39  1  0
  5 40  1  0
 12 41  1  0
 13 42  1  0
 18 43  1  0
 19 44  1  0
 19 45  1  0
 20 46  1  0
 20 47  1  0
 21 48  1  0
 21 49  1  0
 22 50  1  0
 22 51  1  0
 23 52  1  0
 24 53  1  0
 25 54  1  0
 31 55  1  0
 31 56  1  0
 32 57  1  0
 32 58  1  0
 34 59  1  0
 34 60  1  0
 35 61  1  0
 35 62  1  0
M  CHG  2   7  -1  18   1
M  END
>  <UniqueID>  (42) 
39

>  <SMILES>  (42) 
COc1ccc([N-]S(=O)(=O)c2ccc(S(=O)(=O)[NH+]3CCCC3)cc2)cc1S(=O)(=O)N1CCOCC1

>  <Energy>  (42) 
82.1944649235122

>  <Genealogy>  (42) 
COc1ccc([N-]S(=O)(=O)c2ccc(S(=O)(=O)[NH+]3CCCC3)cc2)cc1S(=O)(=O)N1CCOCC1 (protonated)
COc1ccc([N-]S(=O)(=O)c2ccc(S(=O)(=O)[NH+]3CCCC3)cc2)cc1S(=O)(=O)N1CCOCC1 (3D coordinates assigned)
COc1ccc([N-]S(=O)(=O)c2ccc(S(=O)(=O)[NH+]3CCCC3)cc2)cc1S(=O)(=O)N1CCOCC1 (nonaromatic ring conformer: 82.1944649235122 kcal/mol)

>  <smiles>  (42) 
COc1ccc(NS(=O)(=O)c2ccc(S(=O)(=O)N3CCCC3)cc2)cc1S(=O)(=O)N1CCOCC1

>  <score_type>  (42) 
oracle

>  <origin>  (42) 
adgpu

>  <m_score__min__energy>  (42) 
-11.83

>  <m_primary>  (42) 
energy

$$$$
42:0
     RDKit          3D

 55 58  0  0  0  0  0  0  0  0999 V2000
    0.4210   20.9780  -36.4910 O   0  0  0  0  0  0  0  0  0  0  0  0
    0.1530   21.4620  -35.3600 C   0  0  0  0  0  0  0  0  0  0  0  0
    0.7300   22.6700  -34.9870 O   0  0  0  0  0  0  0  0  0  0  0  0
   -0.7500   20.7490  -34.4250 C   0  0  0  0  0  0  0  0  0  0  0  0
   -0.7170   19.3440  -34.3190 C   0  0  0  0  0  0  0  0  0  0  0  0
   -1.5350   18.6790  -33.3900 C   0  0  0  0  0  0  0  0  0  0  0  0
   -1.4460   17.2660  -33.1800 N   0  0  0  0  0  0  0  0  0  0  0  0
   -2.1620   16.0540  -34.1830 S   0  0  0  0  0  0  0  0  0  0  0  0
   -1.8400   16.3680  -35.6150 O   0  0  0  0  0  0  0  0  0  0  0  0
   -1.5880   14.7100  -33.8410 O   0  0  0  0  0  0  0  0  0  0  0  0
   -3.9170   16.0540  -33.9950 C   0  0  0  0  0  0  0  0  0  0  0  0
   -4.6470   14.9080  -34.3330 C   0  0  0  0  0  0  0  0  0  0  0  0
   -6.0380   14.9060  -34.2150 C   0  0  0  0  0  0  0  0  0  0  0  0
   -6.7100   16.0480  -33.7740 C   0  0  0  0  0  0  0  0  0  0  0  0
   -5.9940   17.2110  -33.4380 C   0  0  0  0  0  0  0  0  0  0  0  0
   -6.7090   18.4390  -33.0010 C   0  0  0  0  0  0  0  0  0  0  0  0
   -7.8110   18.3630  -32.1260 C   0  0  0  0  0  0  0  0  0  0  0  0
   -8.4910   19.5210  -31.7330 C   0  0  0  0  0  0  0  0  0  0  0  0
   -8.0710   20.7800  -32.1870 C   0  0  0  0  0  0  0  0  0  0  0  0
   -8.8310   22.0300  -31.7940 C   0  0  0  0  0  0  0  0  0  0  0  0
   -8.0100   23.1010  -31.1870 N   0  0  0  0  0  0  0  0  0  0  0  0
   -7.2180   22.6890  -30.0270 C   0  0  0  0  0  0  0  0  0  0  0  0
   -6.1230   23.7250  -29.8750 C   0  0  0  0  0  0  0  0  0  0  0  0
   -6.0890   24.4940  -31.1960 C   0  0  0  0  0  0  0  0  0  0  0  0
   -7.0860   23.7850  -32.0900 C   0  0  0  0  0  0  0  0  0  0  0  0
   -6.9830   20.8560  -33.0730 C   0  0  0  0  0  0  0  0  0  0  0  0
   -6.3060   19.7000  -33.4720 C   0  0  0  0  0  0  0  0  0  0  0  0
   -4.5900   17.1980  -33.5430 C   0  0  0  0  0  0  0  0  0  0  0  0
   -2.4460   19.4150  -32.6230 C   0  0  0  0  0  0  0  0  0  0  0  0
   -2.5010   20.8140  -32.7180 C   0  0  0  0  0  0  0  0  0  0  0  0
   -3.4410   21.5750  -31.8680 C   0  0  0  0  0  0  0  0  0  0  0  0
   -3.3220   22.8230  -31.7360 O   0  0  0  0  0  0  0  0  0  0  0  0
   -4.4780   20.9240  -31.2090 O   0  0  0  0  0  0  0  0  0  0  0  0
   -1.6380   21.4780  -33.6120 C   0  0  0  0  0  0  0  0  0  0  0  0
   -0.0456   18.7634  -34.9687 H   0  0  0  0  0  0  0  0  0  0  0  0
   -4.1243   14.0090  -34.6916 H   0  0  0  0  0  0  0  0  0  0  0  0
   -6.6076   14.0004  -34.4707 H   0  0  0  0  0  0  0  0  0  0  0  0
   -7.8067   16.0379  -33.6888 H   0  0  0  0  0  0  0  0  0  0  0  0
   -8.1399   17.3837  -31.7482 H   0  0  0  0  0  0  0  0  0  0  0  0
   -9.3605   19.4436  -31.0637 H   0  0  0  0  0  0  0  0  0  0  0  0
   -9.3073   22.4372  -32.6981 H   0  0  0  0  0  0  0  0  0  0  0  0
   -9.5495   21.7203  -31.0207 H   0  0  0  0  0  0  0  0  0  0  0  0
   -7.8471   22.6636  -29.1250 H   0  0  0  0  0  0  0  0  0  0  0  0
   -6.8003   21.6806  -30.1638 H   0  0  0  0  0  0  0  0  0  0  0  0
   -6.3527   24.4054  -29.0418 H   0  0  0  0  0  0  0  0  0  0  0  0
   -5.1520   23.2576  -29.6541 H   0  0  0  0  0  0  0  0  0  0  0  0
   -6.3860   25.5417  -31.0409 H   0  0  0  0  0  0  0  0  0  0  0  0
   -5.0811   24.5135  -31.6362 H   0  0  0  0  0  0  0  0  0  0  0  0
   -7.6268   24.5121  -32.7136 H   0  0  0  0  0  0  0  0  0  0  0  0
   -6.5894   23.0803  -32.7732 H   0  0  0  0  0  0  0  0  0  0  0  0
   -6.6607   21.8353  -33.4565 H   0  0  0  0  0  0  0  0  0  0  0  0
   -5.4512   19.7781  -34.1600 H   0  0  0  0  0  0  0  0  0  0  0  0
   -4.0152   18.0945  -33.2676 H   0  0  0  0  0  0  0  0  0  0  0  0
   -3.1273   18.8901  -31.9372 H   0  0  0  0  0  0  0  0  0  0  0  0
   -1.6584   22.5760  -33.6752 H   0  0  0  0  0  0  0  0  0  0  0  0
  1  2  2  0
  2  3  1  0
  2  4  1  0
  4  5  2  0
  5  6  1  0
  6  7  1  0
  7  8  1  0
  8  9  2  0
  8 10  2  0
  8 11  1  0
 11 12  2  0
 12 13  1  0
 13 14  2  0
 14 15  1  0
 15 16  1  0
 16 17  2  0
 17 18  1  0
 18 19  2  0
 19 20  1  0
 20 21  1  0
 21 22  1  0
 22 23  1  0
 23 24  1  0
 24 25  1  0
 19 26  1  0
 26 27  2  0
 15 28  2  0
  6 29  2  0
 29 30  1  0
 30 31  1  0
 31 32  2  0
 31 33  1  0
 30 34  2  0
 34  4  1  0
 28 11  1  0
 27 16  1  0
 25 21  1  0
  5 35  1  0
 12 36  1  0
 13 37  1  0
 14 38  1  0
 17 39  1  0
 18 40  1  0
 20 41  1  0
 20 42  1  0
 22 43  1  0
 22 44  1  0
 23 45  1  0
 23 46  1  0
 24 47  1  0
 24 48  1  0
 25 49  1  0
 25 50  1  0
 26 51  1  0
 27 52  1  0
 28 53  1  0
 29 54  1  0
 34 55  1  0
M  CHG  3   3  -1   7  -1  33  -1
M  END
>  <UniqueID>  (43) 
40

>  <SMILES>  (43) 
O=C([O-])c1cc([N-]S(=O)(=O)c2cccc(-c3ccc(CN4CCCC4)cc3)c2)cc(C(=O)[O-])c1

>  <Energy>  (43) 
75.92241461296385

>  <Genealogy>  (43) 
O=C([O-])c1cc([N-]S(=O)(=O)c2cccc(-c3ccc(CN4CCCC4)cc3)c2)cc(C(=O)[O-])c1 (protonated)
O=C([O-])c1cc([N-]S(=O)(=O)c2cccc(-c3ccc(CN4CCCC4)cc3)c2)cc(C(=O)[O-])c1 (3D coordinates assigned)
O=C([O-])c1cc([N-]S(=O)(=O)c2cccc(-c3ccc(CN4CCCC4)cc3)c2)cc(C(=O)[O-])c1 (nonaromatic ring conformer: 75.92241461296385 kcal/mol)

>  <smiles>  (43) 
O=C(O)c1cc(NS(=O)(=O)c2cccc(-c3ccc(CN4CCCC4)cc3)c2)cc(C(=O)O)c1

>  <score_type>  (43) 
oracle

>  <origin>  (43) 
adgpu

>  <m_score__min__energy>  (43) 
-13.1

>  <m_primary>  (43) 
energy

$$$$
43:0
     RDKit          3D

 54 57  0  0  0  0  0  0  0  0999 V2000
   -6.9530   23.9720  -30.2780 C   0  0  0  0  0  0  0  0  0  0  0  0
   -6.6630   23.7530  -31.7580 C   0  0  0  0  0  0  0  0  0  0  0  0
   -6.5700   22.2870  -32.0690 C   0  0  0  0  0  0  0  0  0  0  0  0
   -7.5910   21.4240  -31.8080 N   0  0  0  0  0  0  0  0  0  0  0  0
   -7.1230   20.2510  -32.2740 C   0  0  0  0  0  0  0  0  0  0  0  0
   -7.7430   19.0010  -32.2660 C   0  0  0  0  0  0  0  0  0  0  0  0
   -9.0990   18.8020  -31.6570 C   0  0  0  0  0  0  0  0  0  0  0  0
   -7.0080   17.9200  -32.7980 C   0  0  0  0  0  0  0  0  0  0  0  0
   -5.7110   18.1370  -33.3290 C   0  0  0  0  0  0  0  0  0  0  0  0
   -4.9380   16.9970  -33.9100 C   0  0  0  0  0  0  0  0  0  0  0  0
   -5.1650   19.3920  -33.3230 N   0  0  0  0  0  0  0  0  0  0  0  0
   -5.8810   20.4150  -32.7970 C   0  0  0  0  0  0  0  0  0  0  0  0
   -5.5070   21.6970  -32.6860 N   0  0  0  0  0  0  0  0  0  0  0  0
   -4.2400   22.2990  -33.1120 C   0  0  0  0  0  0  0  0  0  0  0  0
   -3.0520   21.5580  -32.5270 C   0  0  0  0  0  0  0  0  0  0  0  0
   -2.3200   20.7030  -33.3740 C   0  0  0  0  0  0  0  0  0  0  0  0
   -1.2300   19.9800  -32.8960 C   0  0  0  0  0  0  0  0  0  0  0  0
   -0.8410   20.1080  -31.5680 C   0  0  0  0  0  0  0  0  0  0  0  0
   -1.5240   20.9770  -30.7190 C   0  0  0  0  0  0  0  0  0  0  0  0
   -2.6160   21.7360  -31.1790 C   0  0  0  0  0  0  0  0  0  0  0  0
   -3.4250   22.8960  -30.0860 S   0  0  0  0  0  0  0  0  0  0  0  0
   -4.7430   22.3100  -29.6650 O   0  0  0  0  0  0  0  0  0  0  0  0
   -3.6820   24.1620  -30.8550 O   0  0  0  0  0  0  0  0  0  0  0  0
   -2.5490   23.3480  -28.6400 N   0  0  0  0  0  0  0  0  0  0  0  0
   -3.4190   23.6520  -27.4990 C   0  0  0  0  0  0  0  0  0  0  0  0
   -2.8970   24.9230  -26.8380 C   0  0  0  0  0  0  0  0  0  0  0  0
   -1.5980   25.2550  -27.5480 C   0  0  0  0  0  0  0  0  0  0  0  0
   -1.6400   24.4760  -28.8490 C   0  0  0  0  0  0  0  0  0  0  0  0
   -6.2190   23.4177  -29.6746 H   0  0  0  0  0  0  0  0  0  0  0  0
   -6.8834   25.0449  -30.0456 H   0  0  0  0  0  0  0  0  0  0  0  0
   -7.9659   23.6114  -30.0456 H   0  0  0  0  0  0  0  0  0  0  0  0
   -7.4730   24.1980  -32.3545 H   0  0  0  0  0  0  0  0  0  0  0  0
   -5.7022   24.2286  -32.0044 H   0  0  0  0  0  0  0  0  0  0  0  0
   -9.0139   18.8145  -30.5604 H   0  0  0  0  0  0  0  0  0  0  0  0
   -9.7693   19.6114  -31.9820 H   0  0  0  0  0  0  0  0  0  0  0  0
   -9.5085   17.8341  -31.9820 H   0  0  0  0  0  0  0  0  0  0  0  0
   -7.4412   16.9089  -32.8008 H   0  0  0  0  0  0  0  0  0  0  0  0
   -4.5222   16.3838  -33.0969 H   0  0  0  0  0  0  0  0  0  0  0  0
   -5.6049   16.3801  -34.5303 H   0  0  0  0  0  0  0  0  0  0  0  0
   -4.1181   17.3882  -34.5303 H   0  0  0  0  0  0  0  0  0  0  0  0
   -4.1784   22.2646  -34.2097 H   0  0  0  0  0  0  0  0  0  0  0  0
   -4.2117   23.3382  -32.7525 H   0  0  0  0  0  0  0  0  0  0  0  0
   -2.6140   20.6049  -34.4294 H   0  0  0  0  0  0  0  0  0  0  0  0
   -0.6773   19.3081  -33.5691 H   0  0  0  0  0  0  0  0  0  0  0  0
    0.0080   19.5221  -31.1860 H   0  0  0  0  0  0  0  0  0  0  0  0
   -1.2038   21.0712  -29.6709 H   0  0  0  0  0  0  0  0  0  0  0  0
   -4.4508   23.8082  -27.8468 H   0  0  0  0  0  0  0  0  0  0  0  0
   -3.4163   22.8179  -26.7818 H   0  0  0  0  0  0  0  0  0  0  0  0
   -3.6203   25.7428  -26.9596 H   0  0  0  0  0  0  0  0  0  0  0  0
   -2.7436   24.7837  -25.7577 H   0  0  0  0  0  0  0  0  0  0  0  0
   -1.5336   26.3348  -27.7478 H   0  0  0  0  0  0  0  0  0  0  0  0
   -0.7202   24.9899  -26.9404 H   0  0  0  0  0  0  0  0  0  0  0  0
   -2.0129   25.1167  -29.6617 H   0  0  0  0  0  0  0  0  0  0  0  0
   -0.6361   24.1257  -29.1307 H   0  0  0  0  0  0  0  0  0  0  0  0
  1  2  1  0
  2  3  1  0
  3  4  2  0
  4  5  1  0
  5  6  2  0
  6  7  1  0
  6  8  1  0
  8  9  2  0
  9 10  1  0
  9 11  1  0
 11 12  2  0
 12 13  1  0
 13 14  1  0
 14 15  1  0
 15 16  2  0
 16 17  1  0
 17 18  2  0
 18 19  1  0
 19 20  2  0
 20 21  1  0
 21 22  2  0
 21 23  2  0
 21 24  1  0
 24 25  1  0
 25 26  1  0
 26 27  1  0
 27 28  1  0
 13  3  1  0
 20 15  1  0
 28 24  1  0
 12  5  1  0
  1 29  1  0
  1 30  1  0
  1 31  1  0
  2 32  1  0
  2 33  1  0
  7 34  1  0
  7 35  1  0
  7 36  1  0
  8 37  1  0
 10 38  1  0
 10 39  1  0
 10 40  1  0
 14 41  1  0
 14 42  1  0
 16 43  1  0
 17 44  1  0
 18 45  1  0
 19 46  1  0
 25 47  1  0
 25 48  1  0
 26 49  1  0
 26 50  1  0
 27 51  1  0
 27 52  1  0
 28 53  1  0
 28 54  1  0
M  END
>  <UniqueID>  (44) 
41

>  <SMILES>  (44) 
CCc1nc2c(C)cc(C)nc2n1Cc1ccccc1S(=O)(=O)N1CCCC1

>  <Energy>  (44) 
96.87085430061904

>  <Genealogy>  (44) 
CCc1nc2c(C)cc(C)nc2n1Cc1ccccc1S(=O)(=O)N1CCCC1 (3D coordinates assigned)
CCc1nc2c(C)cc(C)nc2n1Cc1ccccc1S(=O)(=O)N1CCCC1 (nonaromatic ring conformer: 96.87085430061904 kcal/mol)

>  <smiles>  (44) 
CCc1nc2c(C)cc(C)nc2n1Cc1ccccc1S(=O)(=O)N1CCCC1

>  <score_type>  (44) 
oracle

>  <origin>  (44) 
adgpu

>  <m_score__min__energy>  (44) 
-9.7400000000000002

>  <m_primary>  (44) 
energy

$$$$
44:0
     RDKit          3D

 65 70  0  0  0  0  0  0  0  0999 V2000
   -6.3320   25.6340  -29.7050 C   0  0  0  0  0  0  0  0  0  0  0  0
   -5.0920   24.9790  -30.2270 C   0  0  0  0  0  0  0  0  0  0  0  0
   -4.2380   25.6860  -30.8250 O   0  0  0  0  0  0  0  0  0  0  0  0
   -4.8300   23.5800  -30.0530 N   0  0  0  0  0  0  0  0  0  0  0  0
   -3.9280   22.7670  -30.8140 C   0  0  0  0  0  0  0  0  0  0  0  0
   -2.6470   22.4300  -30.4040 C   0  0  0  0  0  0  0  0  0  0  0  0
   -2.1090   21.7230  -31.4610 C   0  0  0  0  0  0  0  0  0  0  0  0
   -0.8440   21.1470  -31.5820 C   0  0  0  0  0  0  0  0  0  0  0  0
   -0.0240   21.2090  -30.6240 O   0  0  0  0  0  0  0  0  0  0  0  0
   -0.5260   20.4990  -32.7550 N   0  0  0  0  0  0  0  0  0  0  0  0
    0.7700   19.8930  -32.9340 C   0  0  0  0  0  0  0  0  0  0  0  0
    1.5620   20.2260  -34.0460 C   0  0  0  0  0  0  0  0  0  0  0  0
    2.8290   19.6620  -34.2010 C   0  0  0  0  0  0  0  0  0  0  0  0
    3.3120   18.7520  -33.2580 C   0  0  0  0  0  0  0  0  0  0  0  0
    2.5230   18.3810  -32.1630 C   0  0  0  0  0  0  0  0  0  0  0  0
    3.0700   17.4650  -31.2060 N   0  0  0  0  0  0  0  0  0  0  0  0
    3.7940   17.7960  -30.0130 C   0  0  0  0  0  0  0  0  0  0  0  0
    4.8310   17.1580  -29.6930 O   0  0  0  0  0  0  0  0  0  0  0  0
    3.3430   18.8620  -29.1710 N   0  0  0  0  0  0  0  0  0  0  0  0
    2.0240   18.9550  -28.6180 C   0  0  0  0  0  0  0  0  0  0  0  0
    1.1790   17.8490  -28.7170 C   0  0  0  0  0  0  0  0  0  0  0  0
   -0.1230   17.9110  -28.2280 C   0  0  0  0  0  0  0  0  0  0  0  0
   -0.6000   19.0770  -27.6210 C   0  0  0  0  0  0  0  0  0  0  0  0
   -2.2750   19.0610  -27.0760 Cl  0  0  0  0  0  0  0  0  0  0  0  0
    0.2540   20.1980  -27.4680 C   0  0  0  0  0  0  0  0  0  0  0  0
   -0.2920   21.7060  -26.6920 S   0  0  0  0  0  0  0  0  0  0  0  0
    0.8750   22.4200  -26.0710 O   0  0  0  0  0  0  0  0  0  0  0  0
   -1.2370   21.3600  -25.5760 O   0  0  0  0  0  0  0  0  0  0  0  0
   -1.1350   22.8510  -27.7990 C   0  0  1  0  0  0  0  0  0  0  0  0
   -2.5200   23.3030  -27.3040 C   0  0  0  0  0  0  0  0  0  0  0  0
   -2.4090   24.8390  -27.3990 C   0  0  1  0  0  0  0  0  0  0  0  0
   -1.0040   25.0700  -26.9110 C   0  0  0  0  0  0  0  0  0  0  0  0
   -0.3980   24.1980  -27.9820 C   0  0  2  0  0  0  0  0  0  0  0  0
   -0.9980   24.8720  -29.2250 C   0  0  0  0  0  0  0  0  0  0  0  0
   -2.3580   25.2560  -28.8120 N   0  0  0  0  0  0  0  0  0  0  0  0
    1.5790   20.1140  -27.9550 C   0  0  0  0  0  0  0  0  0  0  0  0
    2.4660   21.1670  -27.7510 O   0  0  0  0  0  0  0  0  0  0  0  0
    1.2550   18.9650  -31.9960 C   0  0  0  0  0  0  0  0  0  0  0  0
   -1.4470   20.4180  -33.7750 C   0  0  0  0  0  0  0  0  0  0  0  0
   -2.7110   21.0040  -33.6340 C   0  0  0  0  0  0  0  0  0  0  0  0
   -2.9910   21.6380  -32.4700 N   0  0  0  0  0  0  0  0  0  0  0  0
   -4.1130   22.2800  -32.1030 C   0  0  0  0  0  0  0  0  0  0  0  0
   -6.3159   25.6255  -28.6051 H   0  0  0  0  0  0  0  0  0  0  0  0
   -6.3763   26.6731  -30.0631 H   0  0  0  0  0  0  0  0  0  0  0  0
   -7.2153   25.0848  -30.0631 H   0  0  0  0  0  0  0  0  0  0  0  0
   -2.1646   22.6729  -29.4457 H   0  0  0  0  0  0  0  0  0  0  0  0
    1.1818   20.9340  -34.7972 H   0  0  0  0  0  0  0  0  0  0  0  0
    3.4487   19.9348  -35.0679 H   0  0  0  0  0  0  0  0  0  0  0  0
    4.3185   18.3243  -33.3765 H   0  0  0  0  0  0  0  0  0  0  0  0
    1.5439   16.9224  -29.1843 H   0  0  0  0  0  0  0  0  0  0  0  0
   -0.7822   17.0352  -28.3199 H   0  0  0  0  0  0  0  0  0  0  0  0
   -1.1850   22.2538  -28.7214 H   0  0  0  0  0  0  0  0  0  0  0  0
   -3.3211   22.9193  -27.9528 H   0  0  0  0  0  0  0  0  0  0  0  0
   -2.7721   22.9379  -26.2974 H   0  0  0  0  0  0  0  0  0  0  0  0
   -3.2294   25.3509  -26.8747 H   0  0  0  0  0  0  0  0  0  0  0  0
   -0.6877   26.1217  -26.9739 H   0  0  0  0  0  0  0  0  0  0  0  0
   -0.7686   24.8536  -25.8585 H   0  0  0  0  0  0  0  0  0  0  0  0
    0.6947   24.0724  -27.9986 H   0  0  0  0  0  0  0  0  0  0  0  0
   -0.4121   25.7589  -29.5081 H   0  0  0  0  0  0  0  0  0  0  0  0
   -0.9975   24.2093  -30.1030 H   0  0  0  0  0  0  0  0  0  0  0  0
   -3.0650   24.7250  -29.3730 H   0  0  0  0  0  0  0  0  0  0  0  0
    0.6387   18.6941  -31.1261 H   0  0  0  0  0  0  0  0  0  0  0  0
   -1.1888   19.8905  -34.7051 H   0  0  0  0  0  0  0  0  0  0  0  0
   -3.4538   20.9511  -34.4436 H   0  0  0  0  0  0  0  0  0  0  0  0
   -5.0191   22.3993  -32.7152 H   0  0  0  0  0  0  0  0  0  0  0  0
  1  2  1  0
  2  3  2  0
  2  4  1  0
  4  5  1  0
  5  6  1  0
  6  7  2  0
  7  8  1  0
  8  9  2  0
  8 10  1  0
 10 11  1  0
 11 12  2  0
 12 13  1  0
 13 14  2  0
 14 15  1  0
 15 16  1  0
 16 17  1  0
 17 18  2  0
 17 19  1  0
 19 20  1  0
 20 21  2  0
 21 22  1  0
 22 23  2  0
 23 24  1  0
 23 25  1  0
 25 26  1  0
 26 27  2  0
 26 28  2  0
 26 29  1  0
 29 30  1  0
 30 31  1  0
 31 32  1  0
 32 33  1  0
 33 34  1  0
 34 35  1  0
 25 36  2  0
 36 37  1  0
 15 38  2  0
 10 39  1  0
 39 40  2  0
 40 41  1  0
 41 42  1  0
 42  5  2  0
 41  7  1  0
 38 11  1  0
 36 20  1  0
 33 29  1  0
 35 31  1  0
  1 43  1  0
  1 44  1  0
  1 45  1  0
  6 46  1  0
 12 47  1  0
 13 48  1  0
 14 49  1  0
 21 50  1  0
 22 51  1  0
 29 52  1  6
 30 53  1  0
 30 54  1  0
 31 55  1  1
 32 56  1  0
 32 57  1  0
 33 58  1  6
 34 59  1  0
 34 60  1  0
 35 61  1  0
 38 62  1  0
 39 63  1  0
 40 64  1  0
 42 65  1  0
M  CHG  4   4  -1  16  -1  19  -1  37  -1
M  END
>  <UniqueID>  (45) 
42

>  <SMILES>  (45) 
CC(=O)[N-]c1cc2c(=O)n(-c3cccc([N-]C(=O)[N-]c4ccc(Cl)c(S(=O)(=O)[C@H]5C[C@H]6CC5CN6)c4[O-])c3)ccn2c1

>  <Energy>  (45) 
153.36976754084722

>  <Genealogy>  (45) 
CC(=O)[N-]c1cc2c(=O)n(-c3cccc([N-]C(=O)[N-]c4ccc(Cl)c(S(=O)(=O)C5CC6CC5CN6)c4[O-])c3)ccn2c1 (protonated)
CC(=O)[N-]c1cc2c(=O)n(-c3cccc([N-]C(=O)[N-]c4ccc(Cl)c(S(=O)(=O)[C@H]5C[C@H]6CC5CN6)c4[O-])c3)ccn2c1 (chirality)
CC(=O)[N-]c1cc2c(=O)n(-c3cccc([N-]C(=O)[N-]c4ccc(Cl)c(S(=O)(=O)[C@H]5C[C@H]6CC5CN6)c4[O-])c3)ccn2c1 (3D coordinates assigned)
CC(=O)[N-]c1cc2c(=O)n(-c3cccc([N-]C(=O)[N-]c4ccc(Cl)c(S(=O)(=O)[C@H]5C[C@H]6CC5CN6)c4[O-])c3)ccn2c1 (nonaromatic ring conformer: 153.36976754084722 kcal/mol)

>  <smiles>  (45) 
CC(=O)Nc1cc2c(=O)n(-c3cccc(NC(=O)Nc4ccc(Cl)c(S(=O)(=O)C5CC6CC5CN6)c4O)c3)ccn2c1

>  <score_type>  (45) 
oracle

>  <origin>  (45) 
adgpu

>  <m_score__min__energy>  (45) 
-18.100000000000001

>  <m_primary>  (45) 
energy

$$$$
45:0
     RDKit          3D

 58 61  0  0  0  0  0  0  0  0999 V2000
   -5.6260   25.5140  -29.3310 O   0  0  0  0  0  0  0  0  0  0  0  0
   -4.9290   24.7930  -30.0950 C   0  0  0  0  0  0  0  0  0  0  0  0
   -3.5180   25.0140  -30.1840 N   0  0  0  0  0  0  0  0  0  0  0  0
   -2.5350   24.3490  -29.3780 C   0  0  0  0  0  0  0  0  0  0  0  0
   -2.7130   23.0200  -28.9520 C   0  0  0  0  0  0  0  0  0  0  0  0
   -1.7770   22.4190  -28.0990 C   0  0  0  0  0  0  0  0  0  0  0  0
   -2.0210   20.7710  -27.5230 S   0  0  0  0  0  0  0  0  0  0  0  0
   -3.4970   20.5250  -27.3800 O   0  0  0  0  0  0  0  0  0  0  0  0
   -1.3710   20.5930  -26.1790 O   0  0  0  0  0  0  0  0  0  0  0  0
   -1.3400   19.6390  -28.6660 N   0  0  0  0  0  0  0  0  0  0  0  0
   -1.4290   20.1550  -30.0550 C   0  0  0  0  0  0  0  0  0  0  0  0
   -0.1080   20.7500  -30.5600 C   0  0  0  0  0  0  0  0  0  0  0  0
    1.0200   19.7040  -30.5230 C   0  0  0  0  0  0  0  0  0  0  0  0
    0.8350   18.6680  -29.4000 C   0  0  0  0  0  0  0  0  0  0  0  0
    0.0240   19.2550  -28.2390 C   0  0  0  0  0  0  0  0  0  0  0  0
   -0.6650   23.1480  -27.6640 C   0  0  0  0  0  0  0  0  0  0  0  0
   -0.4850   24.4690  -28.0820 C   0  0  0  0  0  0  0  0  0  0  0  0
   -1.4190   25.0710  -28.9310 C   0  0  0  0  0  0  0  0  0  0  0  0
   -1.2380   26.3920  -29.3230 O   0  0  0  0  0  0  0  0  0  0  0  0
   -5.5620   23.7380  -30.9170 C   0  0  0  0  0  0  0  0  0  0  0  0
   -6.9140   23.8180  -31.2900 C   0  0  0  0  0  0  0  0  0  0  0  0
   -7.4770   22.8360  -32.1100 C   0  0  0  0  0  0  0  0  0  0  0  0
   -6.6930   21.7760  -32.5800 C   0  0  0  0  0  0  0  0  0  0  0  0
   -5.3390   21.6910  -32.2260 C   0  0  0  0  0  0  0  0  0  0  0  0
   -4.3140   20.4020  -32.8640 S   0  0  0  0  0  0  0  0  0  0  0  0
   -5.1330   19.5220  -33.7670 O   0  0  0  0  0  0  0  0  0  0  0  0
   -3.7780   19.5540  -31.7480 O   0  0  0  0  0  0  0  0  0  0  0  0
   -3.0240   21.0770  -33.8130 N   0  0  0  0  0  0  0  0  0  0  0  0
   -1.6520   20.6510  -33.8500 C   0  0  0  0  0  0  0  0  0  0  0  0
   -0.5790   21.5630  -33.8680 C   0  0  0  0  0  0  0  0  0  0  0  0
    0.7390   21.1030  -33.9430 C   0  0  0  0  0  0  0  0  0  0  0  0
    1.0020   19.7330  -33.9810 C   0  0  0  0  0  0  0  0  0  0  0  0
   -0.0510   18.8190  -33.9320 C   0  0  0  0  0  0  0  0  0  0  0  0
   -1.3770   19.2730  -33.8680 C   0  0  0  0  0  0  0  0  0  0  0  0
   -2.4290   18.3580  -33.8300 O   0  0  0  0  0  0  0  0  0  0  0  0
   -4.7890   22.6620  -31.3820 C   0  0  0  0  0  0  0  0  0  0  0  0
   -3.5909   22.4498  -29.2899 H   0  0  0  0  0  0  0  0  0  0  0  0
   -1.7166   19.3264  -30.7189 H   0  0  0  0  0  0  0  0  0  0  0  0
   -2.1759   20.9626  -30.0585 H   0  0  0  0  0  0  0  0  0  0  0  0
   -0.2426   21.0969  -31.5951 H   0  0  0  0  0  0  0  0  0  0  0  0
    0.1710   21.5884  -29.9048 H   0  0  0  0  0  0  0  0  0  0  0  0
    1.0420   19.1764  -31.4880 H   0  0  0  0  0  0  0  0  0  0  0  0
    1.9616   20.2386  -30.3291 H   0  0  0  0  0  0  0  0  0  0  0  0
    0.3050   17.7921  -29.8024 H   0  0  0  0  0  0  0  0  0  0  0  0
    1.8271   18.3786  -29.0233 H   0  0  0  0  0  0  0  0  0  0  0  0
   -0.0507   18.5030  -27.4397 H   0  0  0  0  0  0  0  0  0  0  0  0
    0.5396   20.1586  -27.8816 H   0  0  0  0  0  0  0  0  0  0  0  0
    0.0691   22.6802  -26.9915 H   0  0  0  0  0  0  0  0  0  0  0  0
    0.3937   25.0369  -27.7424 H   0  0  0  0  0  0  0  0  0  0  0  0
   -7.5317   24.6563  -30.9355 H   0  0  0  0  0  0  0  0  0  0  0  0
   -8.5399   22.8964  -32.3869 H   0  0  0  0  0  0  0  0  0  0  0  0
   -7.1401   21.0081  -33.2284 H   0  0  0  0  0  0  0  0  0  0  0  0
   -0.7792   22.6437  -33.8228 H   0  0  0  0  0  0  0  0  0  0  0  0
    1.5706   21.8225  -33.9721 H   0  0  0  0  0  0  0  0  0  0  0  0
    2.0394   19.3738  -34.0496 H   0  0  0  0  0  0  0  0  0  0  0  0
    0.1590   17.7393  -33.9436 H   0  0  0  0  0  0  0  0  0  0  0  0
   -3.3860   18.6540  -33.6700 H   0  0  0  0  0  0  0  0  0  0  0  0
   -3.7349   22.5812  -31.0781 H   0  0  0  0  0  0  0  0  0  0  0  0
  1  2  2  0
  2  3  1  0
  3  4  1  0
  4  5  2  0
  5  6  1  0
  6  7  1  0
  7  8  2  0
  7  9  2  0
  7 10  1  0
 10 11  1  0
 11 12  1  0
 12 13  1  0
 13 14  1  0
 14 15  1  0
  6 16  2  0
 16 17  1  0
 17 18  2  0
 18 19  1  0
  2 20  1  0
 20 21  2  0
 21 22  1  0
 22 23  2  0
 23 24  1  0
 24 25  1  0
 25 26  2  0
 25 27  2  0
 25 28  1  0
 28 29  1  0
 29 30  2  0
 30 31  1  0
 31 32  2  0
 32 33  1  0
 33 34  2  0
 34 35  1  0
 24 36  2  0
 18  4  1  0
 36 20  1  0
 15 10  1  0
 34 29  1  0
  5 37  1  0
 11 38  1  0
 11 39  1  0
 12 40  1  0
 12 41  1  0
 13 42  1  0
 13 43  1  0
 14 44  1  0
 14 45  1  0
 15 46  1  0
 15 47  1  0
 16 48  1  0
 17 49  1  0
 21 50  1  0
 22 51  1  0
 23 52  1  0
 30 53  1  0
 31 54  1  0
 32 55  1  0
 33 56  1  0
 35 57  1  0
 36 58  1  0
M  CHG  3   3  -1  19  -1  28  -1
M  END
>  <UniqueID>  (46) 
43

>  <SMILES>  (46) 
O=C([N-]c1cc(S(=O)(=O)N2CCCCC2)ccc1[O-])c1cccc(S(=O)(=O)[N-]c2ccccc2O)c1

>  <Energy>  (46) 
75.63104096825609

>  <Genealogy>  (46) 
O=C([N-]c1cc(S(=O)(=O)N2CCCCC2)ccc1[O-])c1cccc(S(=O)(=O)[N-]c2ccccc2O)c1 (protonated)
O=C([N-]c1cc(S(=O)(=O)N2CCCCC2)ccc1[O-])c1cccc(S(=O)(=O)[N-]c2ccccc2O)c1 (3D coordinates assigned)
O=C([N-]c1cc(S(=O)(=O)N2CCCCC2)ccc1[O-])c1cccc(S(=O)(=O)[N-]c2ccccc2O)c1 (nonaromatic ring conformer: 75.63104096825609 kcal/mol)

>  <smiles>  (46) 
O=C(Nc1cc(S(=O)(=O)N2CCCCC2)ccc1O)c1cccc(S(=O)(=O)Nc2ccccc2O)c1

>  <score_type>  (46) 
oracle

>  <origin>  (46) 
adgpu

>  <m_score__min__energy>  (46) 
-14.5

>  <m_primary>  (46) 
energy

$$$$
46:0
     RDKit          3D

 79 82  0  0  0  0  0  0  0  0999 V2000
   -1.1270   17.2970  -32.6110 C   0  0  0  0  0  0  0  0  0  0  0  0
   -0.4580   17.3660  -33.9950 C   0  0  0  0  0  0  0  0  0  0  0  0
   -1.0430   16.2560  -34.8850 C   0  0  0  0  0  0  0  0  0  0  0  0
   -0.5780   18.7330  -34.5720 N   0  0  0  0  0  0  0  0  0  0  0  0
   -1.3110   19.7050  -33.7970 C   0  0  0  0  0  0  0  0  0  0  0  0
   -2.6860   19.8810  -34.0160 C   0  0  0  0  0  0  0  0  0  0  0  0
   -3.3340   19.0870  -34.9050 F   0  0  0  0  0  0  0  0  0  0  0  0
   -3.3940   20.8250  -33.2540 C   0  0  0  0  0  0  0  0  0  0  0  0
   -4.7640   21.0560  -33.4370 O   0  0  0  0  0  0  0  0  0  0  0  0
   -5.5860   21.8150  -32.5910 C   0  0  0  0  0  0  0  0  0  0  0  0
   -6.9170   21.4540  -32.3220 C   0  0  0  0  0  0  0  0  0  0  0  0
   -7.6960   22.2360  -31.4680 C   0  0  0  0  0  0  0  0  0  0  0  0
   -7.1670   23.3930  -30.8940 C   0  0  0  0  0  0  0  0  0  0  0  0
   -5.8470   23.7900  -31.1780 C   0  0  0  0  0  0  0  0  0  0  0  0
   -5.2860   25.0270  -30.5900 C   0  0  0  0  0  0  0  0  0  0  0  0
   -3.8740   25.2210  -30.5190 N   0  0  0  0  0  0  0  0  0  0  0  0
   -6.0520   25.9210  -30.1400 O   0  0  0  0  0  0  0  0  0  0  0  0
   -5.0660   22.9890  -32.0330 C   0  0  0  0  0  0  0  0  0  0  0  0
   -2.7510   21.5000  -32.2670 N   0  0  0  0  0  0  0  0  0  0  0  0
   -1.4260   21.3280  -32.0050 C   0  0  0  0  0  0  0  0  0  0  0  0
   -0.8180   22.0050  -30.9400 O   0  0  0  0  0  0  0  0  0  0  0  0
   -1.3690   22.0700  -29.6560 C   0  0  0  0  0  0  0  0  0  0  0  0
   -1.7950   23.3040  -29.1580 C   0  0  0  0  0  0  0  0  0  0  0  0
   -2.3000   23.4130  -27.8520 C   0  0  0  0  0  0  0  0  0  0  0  0
   -2.6330   24.7070  -27.3090 N   0  0  0  0  0  0  0  0  0  0  0  0
   -3.9060   24.8550  -26.5920 C   0  0  0  0  0  0  0  0  0  0  0  0
   -1.7310   25.8290  -27.4700 C   0  0  0  0  0  0  0  0  0  0  0  0
   -1.4390   26.2460  -28.6250 O   0  0  0  0  0  0  0  0  0  0  0  0
   -1.1350   26.5240  -26.3130 C   0  0  0  0  0  0  0  0  0  0  0  0
   -0.5030   27.7680  -26.4730 C   0  0  0  0  0  0  0  0  0  0  0  0
    0.0530   28.4200  -25.3680 C   0  0  0  0  0  0  0  0  0  0  0  0
   -0.0250   27.8390  -24.0990 C   0  0  0  0  0  0  0  0  0  0  0  0
   -0.6670   26.6090  -23.9320 C   0  0  0  0  0  0  0  0  0  0  0  0
   -1.2270   25.9560  -25.0330 C   0  0  0  0  0  0  0  0  0  0  0  0
   -2.4000   22.2580  -27.0580 C   0  0  0  0  0  0  0  0  0  0  0  0
   -2.0090   21.0110  -27.5630 C   0  0  0  0  0  0  0  0  0  0  0  0
   -2.1760   19.5690  -26.5670 S   0  0  0  0  0  0  0  0  0  0  0  0
   -0.9610   18.3700  -27.0660 C   0  0  0  0  0  0  0  0  0  0  0  0
   -3.5540   18.9920  -26.7360 O   0  0  0  0  0  0  0  0  0  0  0  0
   -1.9700   19.9160  -25.1180 O   0  0  0  0  0  0  0  0  0  0  0  0
   -1.5000   20.9180  -28.8640 C   0  0  0  0  0  0  0  0  0  0  0  0
   -0.6800   20.4320  -32.7740 C   0  0  0  0  0  0  0  0  0  0  0  0
    0.6380   20.2500  -32.5060 F   0  0  0  0  0  0  0  0  0  0  0  0
    0.2840   19.2160  -35.6800 C   0  0  0  0  0  0  0  0  0  0  0  0
    0.2560   20.7480  -35.8240 C   0  0  0  0  0  0  0  0  0  0  0  0
    1.7240   18.7230  -35.4920 C   0  0  0  0  0  0  0  0  0  0  0  0
   -0.3585   17.3763  -31.8279 H   0  0  0  0  0  0  0  0  0  0  0  0
   -1.8425   18.1261  -32.5079 H   0  0  0  0  0  0  0  0  0  0  0  0
   -1.6582   16.3393  -32.5079 H   0  0  0  0  0  0  0  0  0  0  0  0
    0.6236   17.1826  -33.9144 H   0  0  0  0  0  0  0  0  0  0  0  0
   -1.4622   15.4606  -34.2512 H   0  0  0  0  0  0  0  0  0  0  0  0
   -1.8371   16.6756  -35.5201 H   0  0  0  0  0  0  0  0  0  0  0  0
   -0.2480   15.8381  -35.5201 H   0  0  0  0  0  0  0  0  0  0  0  0
   -7.3458   20.5533  -32.7854 H   0  0  0  0  0  0  0  0  0  0  0  0
   -8.7317   21.9391  -31.2463 H   0  0  0  0  0  0  0  0  0  0  0  0
   -7.7857   23.9984  -30.2153 H   0  0  0  0  0  0  0  0  0  0  0  0
   -3.4360   25.6840  -29.6920 H   0  0  0  0  0  0  0  0  0  0  0  0
   -4.0337   23.2896  -32.2656 H   0  0  0  0  0  0  0  0  0  0  0  0
   -1.7343   24.1988  -29.7950 H   0  0  0  0  0  0  0  0  0  0  0  0
   -3.7209   24.8335  -25.5079 H   0  0  0  0  0  0  0  0  0  0  0  0
   -4.3716   25.8133  -26.8655 H   0  0  0  0  0  0  0  0  0  0  0  0
   -4.5791   24.0291  -26.8655 H   0  0  0  0  0  0  0  0  0  0  0  0
   -0.4453   28.2303  -27.4695 H   0  0  0  0  0  0  0  0  0  0  0  0
    0.5525   29.3915  -25.4975 H   0  0  0  0  0  0  0  0  0  0  0  0
    0.4189   28.3499  -23.2319 H   0  0  0  0  0  0  0  0  0  0  0  0
   -0.7315   26.1543  -22.9324 H   0  0  0  0  0  0  0  0  0  0  0  0
   -1.7417   24.9935  -24.8961 H   0  0  0  0  0  0  0  0  0  0  0  0
   -2.7884   22.3335  -26.0316 H   0  0  0  0  0  0  0  0  0  0  0  0
   -0.5034   17.9184  -26.1734 H   0  0  0  0  0  0  0  0  0  0  0  0
   -1.4449   17.5857  -27.6666 H   0  0  0  0  0  0  0  0  0  0  0  0
   -0.1832   18.8643  -27.6666 H   0  0  0  0  0  0  0  0  0  0  0  0
   -1.2017   19.9390  -29.2671 H   0  0  0  0  0  0  0  0  0  0  0  0
   -0.1246   18.7972  -36.6115 H   0  0  0  0  0  0  0  0  0  0  0  0
    0.2476   21.2100  -34.8258 H   0  0  0  0  0  0  0  0  0  0  0  0
    1.1482   21.0809  -36.3746 H   0  0  0  0  0  0  0  0  0  0  0  0
   -0.6478   21.0481  -36.3746 H   0  0  0  0  0  0  0  0  0  0  0  0
    1.9480   18.6463  -34.4178 H   0  0  0  0  0  0  0  0  0  0  0  0
    1.8375   17.7348  -35.9617 H   0  0  0  0  0  0  0  0  0  0  0  0
    2.4193   19.4343  -35.9617 H   0  0  0  0  0  0  0  0  0  0  0  0
  1  2  1  0
  2  3  1  0
  2  4  1  0
  4  5  1  0
  5  6  2  0
  6  7  1  0
  6  8  1  0
  8  9  1  0
  9 10  1  0
 10 11  2  0
 11 12  1  0
 12 13  2  0
 13 14  1  0
 14 15  1  0
 15 16  1  0
 15 17  2  0
 14 18  2  0
  8 19  2  0
 19 20  1  0
 20 21  1  0
 21 22  1  0
 22 23  2  0
 23 24  1  0
 24 25  1  0
 25 26  1  0
 25 27  1  0
 27 28  2  0
 27 29  1  0
 29 30  2  0
 30 31  1  0
 31 32  2  0
 32 33  1  0
 33 34  2  0
 24 35  2  0
 35 36  1  0
 36 37  1  0
 37 38  1  0
 37 39  2  0
 37 40  2  0
 36 41  2  0
 20 42  2  0
 42 43  1  0
  4 44  1  0
 44 45  1  0
 44 46  1  0
 42  5  1  0
 18 10  1  0
 41 22  1  0
 34 29  1  0
  1 47  1  0
  1 48  1  0
  1 49  1  0
  2 50  1  0
  3 51  1  0
  3 52  1  0
  3 53  1  0
 11 54  1  0
 12 55  1  0
 13 56  1  0
 16 57  1  0
 18 58  1  0
 23 59  1  0
 26 60  1  0
 26 61  1  0
 26 62  1  0
 30 63  1  0
 31 64  1  0
 32 65  1  0
 33 66  1  0
 34 67  1  0
 35 68  1  0
 38 69  1  0
 38 70  1  0
 38 71  1  0
 41 72  1  0
 44 73  1  0
 45 74  1  0
 45 75  1  0
 45 76  1  0
 46 77  1  0
 46 78  1  0
 46 79  1  0
M  CHG  1  16  -1
M  END
>  <UniqueID>  (47) 
44

>  <SMILES>  (47) 
CC(C)N(c1c(F)c(Oc2cccc(C([NH-])=O)c2)nc(Oc2cc(N(C)C(=O)c3ccccc3)cc(S(C)(=O)=O)c2)c1F)C(C)C

>  <Energy>  (47) 
108.71460189249063

>  <Genealogy>  (47) 
CC(C)N(c1c(F)c(Oc2cccc(C([NH-])=O)c2)nc(Oc2cc(N(C)C(=O)c3ccccc3)cc(S(C)(=O)=O)c2)c1F)C(C)C (protonated)
CC(C)N(c1c(F)c(Oc2cccc(C([NH-])=O)c2)nc(Oc2cc(N(C)C(=O)c3ccccc3)cc(S(C)(=O)=O)c2)c1F)C(C)C (3D coordinates assigned)
CC(C)N(c1c(F)c(Oc2cccc(C([NH-])=O)c2)nc(Oc2cc(N(C)C(=O)c3ccccc3)cc(S(C)(=O)=O)c2)c1F)C(C)C (optimized conformer: 108.71460189249063 kcal/mol)

>  <smiles>  (47) 
CC(C)N(c1c(F)c(Oc2cccc(C(N)=O)c2)nc(Oc2cc(N(C)C(=O)c3ccccc3)cc(S(C)(=O)=O)c2)c1F)C(C)C

>  <score_type>  (47) 
oracle

>  <origin>  (47) 
adgpu

>  <m_score__min__energy>  (47) 
-14.24

>  <m_primary>  (47) 
energy

$$$$
47:0
     RDKit          3D

 30 32  0  0  0  0  0  0  0  0999 V2000
   -5.0230   17.7910  -35.7480 N   0  0  0  0  0  0  0  0  0  0  0  0
   -5.4660   17.7320  -34.6800 C   0  0  0  0  0  0  0  0  0  0  0  0
   -6.0060   17.6540  -33.3470 C   0  0  0  0  0  0  0  0  0  0  0  0
   -6.9450   18.5380  -32.8110 C   0  0  0  0  0  0  0  0  0  0  0  0
   -7.6170   19.6410  -33.4360 N   0  0  0  0  0  0  0  0  0  0  0  0
   -8.3630   20.6650  -32.7050 C   0  0  0  0  0  0  0  0  0  0  0  0
   -7.4240   21.6900  -32.1120 C   0  0  0  0  0  0  0  0  0  0  0  0
   -6.0920   21.3550  -31.8340 C   0  0  0  0  0  0  0  0  0  0  0  0
   -5.2320   22.3180  -31.3020 C   0  0  0  0  0  0  0  0  0  0  0  0
   -3.8900   22.0270  -31.0190 C   0  0  0  0  0  0  0  0  0  0  0  0
   -3.0540   23.0190  -30.4850 C   0  0  0  0  0  0  0  0  0  0  0  0
   -1.7180   22.7400  -30.2030 O   0  0  0  0  0  0  0  0  0  0  0  0
   -3.5640   24.3010  -30.2350 C   0  0  0  0  0  0  0  0  0  0  0  0
   -2.7390   25.2870  -29.7060 O   0  0  0  0  0  0  0  0  0  0  0  0
   -4.9030   24.5940  -30.5150 C   0  0  0  0  0  0  0  0  0  0  0  0
   -5.7400   23.6090  -31.0470 C   0  0  0  0  0  0  0  0  0  0  0  0
   -7.0130   23.8910  -31.3100 O   0  0  0  0  0  0  0  0  0  0  0  0
   -7.8570   22.9980  -31.8200 C   0  0  0  0  0  0  0  0  0  0  0  0
   -9.0510   23.3390  -32.0370 O   0  0  0  0  0  0  0  0  0  0  0  0
   -7.1220   18.0950  -31.2150 S   0  0  0  0  0  0  0  0  0  0  0  0
   -6.0770   16.8040  -31.1450 N   0  0  0  0  0  0  0  0  0  0  0  0
   -5.5540   16.7090  -32.3950 C   0  0  0  0  0  0  0  0  0  0  0  0
   -4.7020   15.8250  -32.6760 O   0  0  0  0  0  0  0  0  0  0  0  0
   -7.3950   19.8330  -34.4390 H   0  0  0  0  0  0  0  0  0  0  0  0
   -9.0568   21.1676  -33.3949 H   0  0  0  0  0  0  0  0  0  0  0  0
   -8.9194   20.1815  -31.8885 H   0  0  0  0  0  0  0  0  0  0  0  0
   -5.7253   20.3374  -32.0341 H   0  0  0  0  0  0  0  0  0  0  0  0
   -3.4924   21.0204  -31.2158 H   0  0  0  0  0  0  0  0  0  0  0  0
   -1.0880   23.4570  -29.8630 H   0  0  0  0  0  0  0  0  0  0  0  0
   -5.2978   25.6013  -30.3162 H   0  0  0  0  0  0  0  0  0  0  0  0
  1  2  3  0
  2  3  1  0
  3  4  2  0
  4  5  1  0
  5  6  1  0
  6  7  1  0
  7  8  2  0
  8  9  1  0
  9 10  2  0
 10 11  1  0
 11 12  1  0
 11 13  2  0
 13 14  1  0
 13 15  1  0
 15 16  2  0
 16 17  1  0
 17 18  1  0
 18 19  2  0
  4 20  1  0
 20 21  1  0
 21 22  1  0
 22 23  2  0
 22  3  1  0
 18  7  1  0
 16  9  1  0
  5 24  1  0
  6 25  1  0
  6 26  1  0
  8 27  1  0
 10 28  1  0
 12 29  1  0
 15 30  1  0
M  CHG  2  14  -1  21  -1
M  END
>  <UniqueID>  (48) 
45

>  <SMILES>  (48) 
N#Cc1c(NCc2cc3cc(O)c([O-])cc3oc2=O)s[n-]c1=O

>  <Energy>  (48) 
71.04341211473925

>  <Genealogy>  (48) 
N#Cc1c(NCc2cc3cc(O)c([O-])cc3oc2=O)s[n-]c1=O (protonated)
N#Cc1c(NCc2cc3cc(O)c([O-])cc3oc2=O)s[n-]c1=O (3D coordinates assigned)
N#Cc1c(NCc2cc3cc(O)c([O-])cc3oc2=O)s[n-]c1=O (optimized conformer: 71.04341211473925 kcal/mol)

>  <smiles>  (48) 
N#Cc1c(NCc2cc3cc(O)c(O)cc3oc2=O)s[nH]c1=O

>  <score_type>  (48) 
oracle

>  <origin>  (48) 
adgpu

>  <m_score__min__energy>  (48) 
-9.8399999999999999

>  <m_primary>  (48) 
energy

$$$$
