0:0
     RDKit          3D

 43 45  0  0  0  0  0  0  0  0999 V2000
   -0.3470   20.5790  -27.9030 C   0  0  0  0  0  0  0  0  0  0  0  0
   -0.6990   22.0180  -28.1470 C   0  0  0  0  0  0  0  0  0  0  0  0
    0.1960   23.0350  -27.7920 C   0  0  0  0  0  0  0  0  0  0  0  0
   -0.1170   24.3690  -28.0530 C   0  0  0  0  0  0  0  0  0  0  0  0
   -1.3200   24.7110  -28.6810 C   0  0  0  0  0  0  0  0  0  0  0  0
   -1.6040   26.0680  -28.8550 O   0  0  0  0  0  0  0  0  0  0  0  0
   -2.2120   23.6900  -29.0880 C   0  0  0  0  0  0  0  0  0  0  0  0
   -3.4500   23.9780  -29.8440 C   0  0  0  0  0  0  0  0  0  0  0  0
   -4.3830   23.0450  -30.2480 C   0  0  0  0  0  0  0  0  0  0  0  0
   -5.2610   23.7650  -31.0320 C   0  0  0  0  0  0  0  0  0  0  0  0
   -6.4400   23.2390  -31.7460 C   0  0  0  0  0  0  0  0  0  0  0  0
   -7.0000   23.9580  -32.6140 O   0  0  0  0  0  0  0  0  0  0  0  0
   -6.9960   21.9490  -31.4530 N   0  0  0  0  0  0  0  0  0  0  0  0
   -6.6950   20.7290  -32.1450 C   0  0  0  0  0  0  0  0  0  0  0  0
   -5.4130   20.5410  -32.6680 C   0  0  0  0  0  0  0  0  0  0  0  0
   -5.1030   19.3840  -33.3870 C   0  0  0  0  0  0  0  0  0  0  0  0
   -6.0730   18.3800  -33.5880 C   0  0  0  0  0  0  0  0  0  0  0  0
   -5.7680   17.1950  -34.3660 N   0  0  0  0  0  0  0  0  0  0  0  0
   -4.6430   17.1960  -35.3090 C   0  0  0  0  0  0  0  0  0  0  0  0
   -6.5650   15.9720  -34.2070 C   0  0  0  0  0  0  0  0  0  0  0  0
   -7.3480   18.5570  -33.0160 C   0  0  0  0  0  0  0  0  0  0  0  0
   -7.6520   19.7120  -32.2910 C   0  0  0  0  0  0  0  0  0  0  0  0
   -4.8790   25.0560  -31.0700 N   0  0  0  0  0  0  0  0  0  0  0  0
   -3.7700   25.1840  -30.3560 N   0  0  0  0  0  0  0  0  0  0  0  0
   -1.8890   22.3480  -28.8080 C   0  0  0  0  0  0  0  0  0  0  0  0
   -0.3011   20.3913  -26.8201 H   0  0  0  0  0  0  0  0  0  0  0  0
   -1.1134   19.9323  -28.3551 H   0  0  0  0  0  0  0  0  0  0  0  0
    0.6314   20.3591  -28.3551 H   0  0  0  0  0  0  0  0  0  0  0  0
    1.1493   22.7809  -27.3056 H   0  0  0  0  0  0  0  0  0  0  0  0
    0.5892   25.1606  -27.7621 H   0  0  0  0  0  0  0  0  0  0  0  0
   -2.5400   26.4280  -28.9710 H   0  0  0  0  0  0  0  0  0  0  0  0
   -4.4186   21.9735  -30.0017 H   0  0  0  0  0  0  0  0  0  0  0  0
   -4.6419   21.3099  -32.5124 H   0  0  0  0  0  0  0  0  0  0  0  0
   -4.0920   19.2547  -33.8006 H   0  0  0  0  0  0  0  0  0  0  0  0
   -3.6958   17.1968  -34.7497 H   0  0  0  0  0  0  0  0  0  0  0  0
   -4.6943   16.2978  -35.9419 H   0  0  0  0  0  0  0  0  0  0  0  0
   -4.6959   18.0941  -35.9419 H   0  0  0  0  0  0  0  0  0  0  0  0
   -6.7027   15.7607  -33.1363 H   0  0  0  0  0  0  0  0  0  0  0  0
   -7.5471   16.1099  -34.6828 H   0  0  0  0  0  0  0  0  0  0  0  0
   -6.0422   15.1292  -34.6828 H   0  0  0  0  0  0  0  0  0  0  0  0
   -8.1132   17.7768  -33.1416 H   0  0  0  0  0  0  0  0  0  0  0  0
   -8.6455   19.8251  -31.8325 H   0  0  0  0  0  0  0  0  0  0  0  0
   -2.5804   21.5485  -29.1124 H   0  0  0  0  0  0  0  0  0  0  0  0
  1  2  1  0
  2  3  2  0
  3  4  1  0
  4  5  2  0
  5  6  1  0
  5  7  1  0
  7  8  1  0
  8  9  1  0
  9 10  2  0
 10 11  1  0
 11 12  2  0
 11 13  1  0
 13 14  1  0
 14 15  2  0
 15 16  1  0
 16 17  2  0
 17 18  1  0
 18 19  1  0
 18 20  1  0
 17 21  1  0
 21 22  2  0
 10 23  1  0
 23 24  1  0
  7 25  2  0
 25  2  1  0
 24  8  2  0
 22 14  1  0
  1 26  1  0
  1 27  1  0
  1 28  1  0
  3 29  1  0
  4 30  1  0
  6 31  1  0
  9 32  1  0
 15 33  1  0
 16 34  1  0
 19 35  1  0
 19 36  1  0
 19 37  1  0
 20 38  1  0
 20 39  1  0
 20 40  1  0
 21 41  1  0
 22 42  1  0
 25 43  1  0
M  CHG  2  13  -1  23  -1
M  END
>  <UniqueID>  (1) 
1

>  <SMILES>  (1) 
Cc1ccc(O)c(-c2cc(C(=O)[N-]c3ccc(N(C)C)cc3)[n-]n2)c1

>  <Energy>  (1) 
85.09743075579456

>  <Genealogy>  (1) 
Cc1ccc(O)c(-c2cc(C(=O)[N-]c3ccc(N(C)C)cc3)[n-]n2)c1 (protonated)
Cc1ccc(O)c(-c2cc(C(=O)[N-]c3ccc(N(C)C)cc3)[n-]n2)c1 (3D coordinates assigned)
Cc1ccc(O)c(-c2cc(C(=O)[N-]c3ccc(N(C)C)cc3)[n-]n2)c1 (optimized conformer: 85.09743075579456 kcal/mol)

>  <smiles>  (1) 
Cc1ccc(O)c(-c2cc(C(=O)Nc3ccc(N(C)C)cc3)[nH]n2)c1

>  <score_type>  (1) 
oracle

>  <origin>  (1) 
adgpu

>  <m_score__min__energy>  (1) 
-10.77

>  <m_primary>  (1) 
energy

$$$$
1:0
     RDKit          3D

 44 47  0  0  0  0  0  0  0  0999 V2000
   -4.8930   18.0590  -34.5680 C   0  0  0  0  0  0  0  0  0  0  0  0
   -3.4920   18.2940  -34.6600 O   0  0  0  0  0  0  0  0  0  0  0  0
   -2.7720   19.1380  -33.8000 C   0  0  0  0  0  0  0  0  0  0  0  0
   -1.3790   19.0390  -33.6420 C   0  0  0  0  0  0  0  0  0  0  0  0
   -0.7060   19.8970  -32.7700 C   0  0  0  0  0  0  0  0  0  0  0  0
   -1.4110   20.8650  -32.0490 C   0  0  0  0  0  0  0  0  0  0  0  0
   -0.7420   21.6840  -31.1990 N   0  0  0  0  0  0  0  0  0  0  0  0
   -1.3740   22.6390  -30.4730 C   0  0  0  0  0  0  0  0  0  0  0  0
   -2.7590   22.8230  -30.5840 C   0  0  0  0  0  0  0  0  0  0  0  0
   -3.5430   24.0940  -29.6260 S   0  0  0  0  0  0  0  0  0  0  0  0
   -4.8240   23.5610  -29.0480 O   0  0  0  0  0  0  0  0  0  0  0  0
   -3.8610   25.2750  -30.5000 O   0  0  0  0  0  0  0  0  0  0  0  0
   -2.4990   24.6540  -28.3200 C   0  0  0  0  0  0  0  0  0  0  0  0
   -2.9310   24.5590  -26.9900 C   0  0  0  0  0  0  0  0  0  0  0  0
   -2.1160   25.0190  -25.9510 C   0  0  0  0  0  0  0  0  0  0  0  0
   -0.8670   25.5780  -26.2380 C   0  0  0  0  0  0  0  0  0  0  0  0
   -0.4340   25.6800  -27.5630 C   0  0  0  0  0  0  0  0  0  0  0  0
   -1.2480   25.2220  -28.6030 C   0  0  0  0  0  0  0  0  0  0  0  0
   -3.4940   21.9790  -31.4530 C   0  0  0  0  0  0  0  0  0  0  0  0
   -4.9610   22.1330  -31.5740 C   0  0  0  0  0  0  0  0  0  0  0  0
   -5.5040   23.3280  -32.0710 C   0  0  0  0  0  0  0  0  0  0  0  0
   -6.8900   23.4710  -32.1900 C   0  0  0  0  0  0  0  0  0  0  0  0
   -7.7370   22.4220  -31.8200 C   0  0  0  0  0  0  0  0  0  0  0  0
   -9.4760   22.6040  -31.9700 Cl  0  0  0  0  0  0  0  0  0  0  0  0
   -7.1980   21.2270  -31.3300 C   0  0  0  0  0  0  0  0  0  0  0  0
   -5.8130   21.0810  -31.2100 C   0  0  0  0  0  0  0  0  0  0  0  0
   -2.8110   20.9860  -32.1980 C   0  0  0  0  0  0  0  0  0  0  0  0
   -3.4790   20.1070  -33.0780 C   0  0  0  0  0  0  0  0  0  0  0  0
   -5.1878   18.0096  -33.5094 H   0  0  0  0  0  0  0  0  0  0  0  0
   -5.4355   18.8787  -35.0618 H   0  0  0  0  0  0  0  0  0  0  0  0
   -5.1383   17.1072  -35.0618 H   0  0  0  0  0  0  0  0  0  0  0  0
   -0.8163   18.2820  -34.2080 H   0  0  0  0  0  0  0  0  0  0  0  0
    0.3840   19.8108  -32.6498 H   0  0  0  0  0  0  0  0  0  0  0  0
   -0.7935   23.2762  -29.7896 H   0  0  0  0  0  0  0  0  0  0  0  0
   -3.9142   24.1212  -26.7628 H   0  0  0  0  0  0  0  0  0  0  0  0
   -2.4574   24.9411  -24.9082 H   0  0  0  0  0  0  0  0  0  0  0  0
   -0.2248   25.9377  -25.4206 H   0  0  0  0  0  0  0  0  0  0  0  0
    0.5483   26.1211  -27.7876 H   0  0  0  0  0  0  0  0  0  0  0  0
   -0.9069   25.3072  -29.6453 H   0  0  0  0  0  0  0  0  0  0  0  0
   -4.8389   24.1526  -32.3671 H   0  0  0  0  0  0  0  0  0  0  0  0
   -7.3143   24.4099  -32.5752 H   0  0  0  0  0  0  0  0  0  0  0  0
   -7.8648   20.4019  -31.0391 H   0  0  0  0  0  0  0  0  0  0  0  0
   -5.3910   20.1392  -30.8294 H   0  0  0  0  0  0  0  0  0  0  0  0
   -4.5697   20.1845  -33.1980 H   0  0  0  0  0  0  0  0  0  0  0  0
  1  2  1  0
  2  3  1  0
  3  4  2  0
  4  5  1  0
  5  6  2  0
  6  7  1  0
  7  8  2  0
  8  9  1  0
  9 10  1  0
 10 11  2  0
 10 12  2  0
 10 13  1  0
 13 14  2  0
 14 15  1  0
 15 16  2  0
 16 17  1  0
 17 18  2  0
  9 19  2  0
 19 20  1  0
 20 21  2  0
 21 22  1  0
 22 23  2  0
 23 24  1  0
 23 25  1  0
 25 26  2  0
 19 27  1  0
 27 28  2  0
 28  3  1  0
 27  6  1  0
 18 13  1  0
 26 20  1  0
  1 29  1  0
  1 30  1  0
  1 31  1  0
  4 32  1  0
  5 33  1  0
  8 34  1  0
 14 35  1  0
 15 36  1  0
 16 37  1  0
 17 38  1  0
 18 39  1  0
 21 40  1  0
 22 41  1  0
 25 42  1  0
 26 43  1  0
 28 44  1  0
M  END
>  <UniqueID>  (2) 
2

>  <SMILES>  (2) 
COc1ccc2ncc(S(=O)(=O)c3ccccc3)c(-c3ccc(Cl)cc3)c2c1

>  <Energy>  (2) 
64.25159351522035

>  <Genealogy>  (2) 
COc1ccc2ncc(S(=O)(=O)c3ccccc3)c(-c3ccc(Cl)cc3)c2c1 (3D coordinates assigned)
COc1ccc2ncc(S(=O)(=O)c3ccccc3)c(-c3ccc(Cl)cc3)c2c1 (optimized conformer: 64.25159351522035 kcal/mol)

>  <smiles>  (2) 
COc1ccc2ncc(S(=O)(=O)c3ccccc3)c(-c3ccc(Cl)cc3)c2c1

>  <score_type>  (2) 
oracle

>  <origin>  (2) 
adgpu

>  <m_score__min__energy>  (2) 
-9.4100000000000001

>  <m_primary>  (2) 
energy

$$$$
2:0
     RDKit          3D

 41 43  0  0  0  0  0  0  0  0999 V2000
   -7.1823   23.6795  -31.1100 H   0  0  0  0  0  0  0  0  0  0  0  0
   -6.7510   22.7630  -31.5390 C   0  0  0  0  0  0  0  0  0  0  0  0
   -7.5920   21.7470  -31.9980 C   0  0  0  0  0  0  0  0  0  0  0  0
   -9.4870   21.9440  -31.8670 Br  0  0  0  0  0  0  0  0  0  0  0  0
   -7.0480   20.5910  -32.5680 C   0  0  0  0  0  0  0  0  0  0  0  0
   -7.7144   19.7901  -32.9208 H   0  0  0  0  0  0  0  0  0  0  0  0
   -5.6540   20.4460  -32.6930 C   0  0  0  0  0  0  0  0  0  0  0  0
   -5.0760   19.2270  -33.3140 C   0  0  0  0  0  0  0  0  0  0  0  0
   -5.8860   18.1150  -33.5860 C   0  0  0  0  0  0  0  0  0  0  0  0
   -6.9572   18.1462  -33.3380 H   0  0  0  0  0  0  0  0  0  0  0  0
   -5.3430   16.9690  -34.1690 C   0  0  0  0  0  0  0  0  0  0  0  0
   -5.9913   16.1036  -34.3709 H   0  0  0  0  0  0  0  0  0  0  0  0
   -3.9810   16.9060  -34.5010 C   0  0  0  0  0  0  0  0  0  0  0  0
   -3.3590   15.4230  -35.2420 S   0  0  0  0  0  0  0  0  0  0  0  0
   -1.9650   15.1450  -34.7540 O   0  0  0  0  0  0  0  0  0  0  0  0
   -3.3100   15.5780  -36.7370 O   0  0  0  0  0  0  0  0  0  0  0  0
   -4.4320   14.0550  -34.8580 C   0  0  0  0  0  0  0  0  0  0  0  0
   -4.5149   13.9493  -33.7662 H   0  0  0  0  0  0  0  0  0  0  0  0
   -5.4287   14.2396  -35.2853 H   0  0  0  0  0  0  0  0  0  0  0  0
   -4.0153   13.1310  -35.2853 H   0  0  0  0  0  0  0  0  0  0  0  0
   -3.1510   18.0210  -34.2220 C   0  0  0  0  0  0  0  0  0  0  0  0
   -1.7480   18.0200  -34.5180 N   0  0  0  0  0  0  0  0  0  0  0  0
   -1.1790   18.8860  -34.3810 H   0  0  0  0  0  0  0  0  0  0  0  0
   -1.2400   17.1750  -34.8530 H   0  0  0  0  0  0  0  0  0  0  0  0
   -3.7110   19.1680  -33.6360 C   0  0  0  0  0  0  0  0  0  0  0  0
   -3.0684   20.0356  -33.4256 H   0  0  0  0  0  0  0  0  0  0  0  0
   -4.8170   21.4780  -32.2280 C   0  0  0  0  0  0  0  0  0  0  0  0
   -3.7266   21.3871  -32.3411 H   0  0  0  0  0  0  0  0  0  0  0  0
   -5.3580   22.6190  -31.6230 C   0  0  0  0  0  0  0  0  0  0  0  0
   -4.4740   23.6720  -31.2030 N   0  0  0  0  0  0  0  0  0  0  0  0
   -3.7840   23.7390  -30.0970 C   0  0  0  0  0  0  0  0  0  0  0  0
   -3.7130   22.6640  -29.1850 C   0  0  0  0  0  0  0  0  0  0  0  0
   -4.2573   21.7296  -29.3867 H   0  0  0  0  0  0  0  0  0  0  0  0
   -2.9470   22.7950  -28.0250 C   0  0  0  0  0  0  0  0  0  0  0  0
   -2.8928   21.9656  -27.3044 H   0  0  0  0  0  0  0  0  0  0  0  0
   -2.2510   23.9780  -27.7810 C   0  0  0  0  0  0  0  0  0  0  0  0
   -1.2850   24.1540  -26.3280 Cl  0  0  0  0  0  0  0  0  0  0  0  0
   -2.3230   25.0160  -28.7110 C   0  0  0  0  0  0  0  0  0  0  0  0
   -1.7719   25.9511  -28.5327 H   0  0  0  0  0  0  0  0  0  0  0  0
   -3.0730   24.8750  -29.8380 N   0  0  0  0  0  0  0  0  0  0  0  0
   -3.1050   25.6710  -30.5150 H   0  0  0  0  0  0  0  0  0  0  0  0
  1  2  1  0
  2  3  2  0
  3  4  1  0
  3  5  1  0
  5  6  1  0
  5  7  2  0
  7  8  1  0
  8  9  2  0
  9 10  1  0
  9 11  1  0
 11 12  1  0
 11 13  2  0
 13 14  1  0
 14 15  2  0
 14 16  2  0
 14 17  1  0
 17 18  1  0
 17 19  1  0
 17 20  1  0
 13 21  1  0
 21 22  1  0
 22 23  1  0
 22 24  1  0
 21 25  2  0
 25 26  1  0
  7 27  1  0
 27 28  1  0
 27 29  2  0
 29 30  1  0
 30 31  2  0
 31 32  1  0
 32 33  1  0
 32 34  2  0
 34 35  1  0
 34 36  1  0
 36 37  1  0
 36 38  2  0
 38 39  1  0
 38 40  1  0
 40 41  1  0
 29  2  1  0
 40 31  1  0
 25  8  1  0
M  END
>  <UniqueID>  (3) 
3

>  <SMILES>  (3) 
CS(=O)(=O)c1ccc(-c2cc(Br)cc(/N=c3\ccc(Cl)c[nH]3)c2)cc1N

>  <Energy>  (3) 
57.917139497657274

>  <Genealogy>  (3) 
CS(=O)(=O)c1ccc(-c2cc(Br)cc(/N=c3\ccc(Cl)c[nH]3)c2)cc1N (cis-trans isomerization)
CS(=O)(=O)c1ccc(-c2cc(Br)cc(/N=c3\ccc(Cl)c[nH]3)c2)cc1N (3D coordinates assigned)
CS(=O)(=O)c1ccc(-c2cc(Br)cc(/N=c3\ccc(Cl)c[nH]3)c2)cc1N (optimized conformer: 57.917139497657274 kcal/mol)

>  <smiles>  (3) 
CS(=O)(=O)c1ccc(-c2cc(Br)cc(N=c3ccc(Cl)c[nH]3)c2)cc1N

>  <score_type>  (3) 
oracle

>  <origin>  (3) 
adgpu

>  <m_score__min__energy>  (3) 
-10.210000000000001

>  <m_primary>  (3) 
energy

$$$$
3:0
     RDKit          3D

 28 30  0  0  0  0  0  0  0  0999 V2000
   -2.8490   20.6580  -30.4710 H   0  0  0  0  0  0  0  0  0  0  0  0
   -2.2290   21.3200  -29.9590 N   0  0  0  0  0  0  0  0  0  0  0  0
   -2.4860   22.5790  -29.7460 C   0  0  0  0  0  0  0  0  0  0  0  0
   -3.6910   23.1790  -30.2050 C   0  0  0  0  0  0  0  0  0  0  0  0
   -3.8670   24.5730  -30.0220 C   0  0  0  0  0  0  0  0  0  0  0  0
   -2.9310   25.2940  -29.3540 N   0  0  0  0  0  0  0  0  0  0  0  0
   -1.7920   24.7430  -28.8700 C   0  0  0  0  0  0  0  0  0  0  0  0
   -0.8680   25.5480  -28.1930 C   0  0  0  0  0  0  0  0  0  0  0  0
   -1.0740   26.6192  -28.0515 H   0  0  0  0  0  0  0  0  0  0  0  0
    0.3140   24.9950  -27.6970 C   0  0  0  0  0  0  0  0  0  0  0  0
    1.0358   25.6308  -27.1633 H   0  0  0  0  0  0  0  0  0  0  0  0
    0.5820   23.6360  -27.8770 C   0  0  0  0  0  0  0  0  0  0  0  0
    1.5152   23.2042  -27.4864 H   0  0  0  0  0  0  0  0  0  0  0  0
   -0.3340   22.8230  -28.5530 C   0  0  0  0  0  0  0  0  0  0  0  0
   -0.1164   21.7538  -28.6928 H   0  0  0  0  0  0  0  0  0  0  0  0
   -1.5360   23.3660  -29.0570 C   0  0  0  0  0  0  0  0  0  0  0  0
   -5.1110   25.2910  -30.4750 C   0  0  0  0  0  0  0  0  0  0  0  0
   -5.7852   25.4080  -29.6138 H   0  0  0  0  0  0  0  0  0  0  0  0
   -4.8067   26.2663  -30.8827 H   0  0  0  0  0  0  0  0  0  0  0  0
   -5.8490   24.5340  -31.5770 C   0  0  0  0  0  0  0  0  0  0  0  0
   -6.8214   25.0138  -31.7622 H   0  0  0  0  0  0  0  0  0  0  0  0
   -5.2470   24.5521  -32.4975 H   0  0  0  0  0  0  0  0  0  0  0  0
   -6.0710   23.0880  -31.1470 C   0  0  0  0  0  0  0  0  0  0  0  0
   -6.6232   23.0751  -30.1958 H   0  0  0  0  0  0  0  0  0  0  0  0
   -6.6457   22.5711  -31.9297 H   0  0  0  0  0  0  0  0  0  0  0  0
   -4.7320   22.3650  -30.9610 C   0  0  0  0  0  0  0  0  0  0  0  0
   -4.9154   21.4344  -30.4039 H   0  0  0  0  0  0  0  0  0  0  0  0
   -4.3255   22.1822  -31.9667 H   0  0  0  0  0  0  0  0  0  0  0  0
  1  2  1  0
  2  3  2  0
  3  4  1  0
  4  5  2  0
  5  6  1  0
  6  7  1  0
  7  8  2  0
  8  9  1  0
  8 10  1  0
 10 11  1  0
 10 12  2  0
 12 13  1  0
 12 14  1  0
 14 15  1  0
 14 16  2  0
  5 17  1  0
 17 18  1  0
 17 19  1  0
 17 20  1  0
 20 21  1  0
 20 22  1  0
 20 23  1  0
 23 24  1  0
 23 25  1  0
 23 26  1  0
 26 27  1  0
 26 28  1  0
 16  3  1  0
 26  4  1  0
 16  7  1  0
M  CHG  1   6  -1
M  END
>  <UniqueID>  (4) 
4

>  <SMILES>  (4) 
[H]/N=c1\c2c([n-]c3ccccc13)CCCC2

>  <Energy>  (4) 
37.13781796568412

>  <Genealogy>  (4) 
N=c1c2c([n-]c3ccccc13)CCCC2 (protonated)
[H]/N=c1\c2c([n-]c3ccccc13)CCCC2 (cis-trans isomerization)
[H]/N=c1\c2c([n-]c3ccccc13)CCCC2 (3D coordinates assigned)
[H]/N=c1\c2c([n-]c3ccccc13)CCCC2 (nonaromatic ring conformer: 37.13781796568412 kcal/mol)

>  <smiles>  (4) 
N=c1c2c([nH]c3ccccc13)CCCC2

>  <score_type>  (4) 
oracle

>  <origin>  (4) 
adgpu

>  <m_score__min__energy>  (4) 
-7.2800000000000002

>  <m_primary>  (4) 
energy

$$$$
4:0
     RDKit          3D

 45 47  0  0  0  0  0  0  0  0999 V2000
   -0.8970   26.4080  -23.7370 C   0  0  0  0  0  0  0  0  0  0  0  0
   -0.4010   26.7560  -25.1370 C   0  0  0  0  0  0  0  0  0  0  0  0
   -1.1290   25.9470  -26.1770 C   0  0  0  0  0  0  0  0  0  0  0  0
   -2.3420   25.3140  -25.8610 C   0  0  0  0  0  0  0  0  0  0  0  0
   -3.0330   24.5890  -26.8350 C   0  0  0  0  0  0  0  0  0  0  0  0
   -2.5240   24.4800  -28.1360 C   0  0  0  0  0  0  0  0  0  0  0  0
   -3.2780   23.7460  -29.1110 N   0  0  0  0  0  0  0  0  0  0  0  0
   -3.9870   24.2920  -30.2310 C   0  0  0  0  0  0  0  0  0  0  0  0
   -3.5250   25.2950  -30.8410 O   0  0  0  0  0  0  0  0  0  0  0  0
   -5.2070   23.6240  -30.7440 C   0  0  0  0  0  0  0  0  0  0  0  0
   -5.0640   22.5290  -31.6180 C   0  0  0  0  0  0  0  0  0  0  0  0
   -6.1840   21.8560  -32.1280 C   0  0  0  0  0  0  0  0  0  0  0  0
   -5.9940   20.7230  -32.9930 N   0  0  0  0  0  0  0  0  0  0  0  0
   -6.6680   19.4640  -32.8200 C   0  0  0  0  0  0  0  0  0  0  0  0
   -7.7450   19.4170  -32.1650 O   0  0  0  0  0  0  0  0  0  0  0  0
   -6.1380   18.2260  -33.4410 C   0  0  0  0  0  0  0  0  0  0  0  0
   -4.9390   18.2430  -34.1810 C   0  0  0  0  0  0  0  0  0  0  0  0
   -4.4450   17.0670  -34.7540 C   0  0  0  0  0  0  0  0  0  0  0  0
   -5.1360   15.8640  -34.5930 C   0  0  0  0  0  0  0  0  0  0  0  0
   -6.3190   15.8320  -33.8550 C   0  0  0  0  0  0  0  0  0  0  0  0
   -6.8190   17.0040  -33.2780 C   0  0  0  0  0  0  0  0  0  0  0  0
   -7.4660   22.2680  -31.7350 C   0  0  0  0  0  0  0  0  0  0  0  0
   -7.6250   23.3590  -30.8820 C   0  0  0  0  0  0  0  0  0  0  0  0
   -6.5110   24.0480  -30.3890 C   0  0  0  0  0  0  0  0  0  0  0  0
   -6.8140   25.4660  -29.3890 Cl  0  0  0  0  0  0  0  0  0  0  0  0
   -1.3290   25.1460  -28.4620 C   0  0  0  0  0  0  0  0  0  0  0  0
   -0.6360   25.8720  -27.4880 C   0  0  0  0  0  0  0  0  0  0  0  0
   -0.2371   26.8710  -22.9886 H   0  0  0  0  0  0  0  0  0  0  0  0
   -1.9216   26.7863  -23.6065 H   0  0  0  0  0  0  0  0  0  0  0  0
   -0.8899   25.3158  -23.6065 H   0  0  0  0  0  0  0  0  0  0  0  0
   -0.5741   27.8258  -25.3256 H   0  0  0  0  0  0  0  0  0  0  0  0
    0.6729   26.5259  -25.1986 H   0  0  0  0  0  0  0  0  0  0  0  0
   -2.7499   25.3893  -24.8422 H   0  0  0  0  0  0  0  0  0  0  0  0
   -3.9843   24.0998  -26.5785 H   0  0  0  0  0  0  0  0  0  0  0  0
   -4.0560   22.1956  -31.9058 H   0  0  0  0  0  0  0  0  0  0  0  0
   -5.4240   20.8580  -33.8580 H   0  0  0  0  0  0  0  0  0  0  0  0
   -4.3885   19.1867  -34.3087 H   0  0  0  0  0  0  0  0  0  0  0  0
   -3.5099   17.0894  -35.3329 H   0  0  0  0  0  0  0  0  0  0  0  0
   -4.7470   14.9414  -35.0485 H   0  0  0  0  0  0  0  0  0  0  0  0
   -6.8601   14.8829  -33.7264 H   0  0  0  0  0  0  0  0  0  0  0  0
   -7.7501   16.9711  -32.6932 H   0  0  0  0  0  0  0  0  0  0  0  0
   -8.3508   21.7271  -32.1020 H   0  0  0  0  0  0  0  0  0  0  0  0
   -8.6363   23.6817  -30.5935 H   0  0  0  0  0  0  0  0  0  0  0  0
   -0.9372   25.0956  -29.4886 H   0  0  0  0  0  0  0  0  0  0  0  0
    0.2999   26.3865  -27.7513 H   0  0  0  0  0  0  0  0  0  0  0  0
  1  2  1  0
  2  3  1  0
  3  4  2  0
  4  5  1  0
  5  6  2  0
  6  7  1  0
  7  8  1  0
  8  9  2  0
  8 10  1  0
 10 11  2  0
 11 12  1  0
 12 13  1  0
 13 14  1  0
 14 15  2  0
 14 16  1  0
 16 17  2  0
 17 18  1  0
 18 19  2  0
 19 20  1  0
 20 21  2  0
 12 22  2  0
 22 23  1  0
 23 24  2  0
 24 25  1  0
  6 26  1  0
 26 27  2  0
 27  3  1  0
 24 10  1  0
 21 16  1  0
  1 28  1  0
  1 29  1  0
  1 30  1  0
  2 31  1  0
  2 32  1  0
  4 33  1  0
  5 34  1  0
 11 35  1  0
 13 36  1  0
 17 37  1  0
 18 38  1  0
 19 39  1  0
 20 40  1  0
 21 41  1  0
 22 42  1  0
 23 43  1  0
 26 44  1  0
 27 45  1  0
M  CHG  1   7  -1
M  END
>  <UniqueID>  (5) 
5

>  <SMILES>  (5) 
CCc1ccc([N-]C(=O)c2cc(NC(=O)c3ccccc3)ccc2Cl)cc1

>  <Energy>  (5) 
58.28244066155577

>  <Genealogy>  (5) 
CCc1ccc([N-]C(=O)c2cc(NC(=O)c3ccccc3)ccc2Cl)cc1 (protonated)
CCc1ccc([N-]C(=O)c2cc(NC(=O)c3ccccc3)ccc2Cl)cc1 (3D coordinates assigned)
CCc1ccc([N-]C(=O)c2cc(NC(=O)c3ccccc3)ccc2Cl)cc1 (optimized conformer: 58.28244066155577 kcal/mol)

>  <smiles>  (5) 
CCc1ccc(NC(=O)c2cc(NC(=O)c3ccccc3)ccc2Cl)cc1

>  <score_type>  (5) 
oracle

>  <origin>  (5) 
adgpu

>  <m_score__min__energy>  (5) 
-10.77

>  <m_primary>  (5) 
energy

$$$$
5:0
     RDKit          3D

 47 49  0  0  0  0  0  0  0  0999 V2000
   -4.5610   24.5890  -26.9350 C   0  0  0  0  0  0  0  0  0  0  0  0
   -4.4110   24.2460  -28.3830 C   0  0  0  0  0  0  0  0  0  0  0  0
   -5.4070   24.3540  -29.2830 N   0  0  0  0  0  0  0  0  0  0  0  0
   -4.9390   23.9470  -30.4530 N   0  0  0  0  0  0  0  0  0  0  0  0
   -5.7690   23.8620  -31.6550 C   0  0  0  0  0  0  0  0  0  0  0  0
   -5.9840   22.4230  -32.0390 C   0  0  0  0  0  0  0  0  0  0  0  0
   -7.1760   21.7630  -31.7030 C   0  0  0  0  0  0  0  0  0  0  0  0
   -7.3780   20.4340  -32.0860 C   0  0  0  0  0  0  0  0  0  0  0  0
   -6.3960   19.7470  -32.8210 C   0  0  0  0  0  0  0  0  0  0  0  0
   -6.5730   18.3730  -33.2070 N   0  0  0  0  0  0  0  0  0  0  0  0
   -6.0820   17.2600  -32.4410 C   0  0  0  0  0  0  0  0  0  0  0  0
   -5.8370   17.4070  -31.2120 O   0  0  0  0  0  0  0  0  0  0  0  0
   -5.9050   15.9270  -33.0660 C   0  0  0  0  0  0  0  0  0  0  0  0
   -4.7710   15.1430  -32.7870 C   0  0  0  0  0  0  0  0  0  0  0  0
   -4.6160   13.8840  -33.3740 C   0  0  0  0  0  0  0  0  0  0  0  0
   -5.5920   13.3860  -34.2430 C   0  0  0  0  0  0  0  0  0  0  0  0
   -5.3610   11.7970  -34.9620 Cl  0  0  0  0  0  0  0  0  0  0  0  0
   -6.7330   14.1530  -34.5230 C   0  0  0  0  0  0  0  0  0  0  0  0
   -7.9850   13.5630  -35.6070 Cl  0  0  0  0  0  0  0  0  0  0  0  0
   -6.8870   15.4140  -33.9340 C   0  0  0  0  0  0  0  0  0  0  0  0
   -5.1970   20.4050  -33.1380 C   0  0  0  0  0  0  0  0  0  0  0  0
   -4.9950   21.7340  -32.7570 C   0  0  0  0  0  0  0  0  0  0  0  0
   -3.6460   23.5690  -30.3220 C   0  0  0  0  0  0  0  0  0  0  0  0
   -2.8090   22.9600  -31.4090 C   0  0  0  0  0  0  0  0  0  0  0  0
   -3.2810   23.7270  -28.9930 C   0  0  0  0  0  0  0  0  0  0  0  0
   -1.9500   23.4450  -28.3600 C   0  0  0  0  0  0  0  0  0  0  0  0
   -0.9850   24.5420  -28.6740 C   0  0  0  0  0  0  0  0  0  0  0  0
    0.2130   24.4580  -28.3000 O   0  0  0  0  0  0  0  0  0  0  0  0
   -1.4190   25.6800  -29.3430 O   0  0  0  0  0  0  0  0  0  0  0  0
   -4.1955   23.7531  -26.3204 H   0  0  0  0  0  0  0  0  0  0  0  0
   -3.9760   25.4929  -26.7098 H   0  0  0  0  0  0  0  0  0  0  0  0
   -5.6218   24.7732  -26.7098 H   0  0  0  0  0  0  0  0  0  0  0  0
   -6.7426   24.3346  -31.4582 H   0  0  0  0  0  0  0  0  0  0  0  0
   -5.2589   24.3807  -32.4801 H   0  0  0  0  0  0  0  0  0  0  0  0
   -7.9547   22.2938  -31.1358 H   0  0  0  0  0  0  0  0  0  0  0  0
   -8.3118   19.9221  -31.8104 H   0  0  0  0  0  0  0  0  0  0  0  0
   -7.1900   18.1720  -34.0250 H   0  0  0  0  0  0  0  0  0  0  0  0
   -3.9998   15.5238  -32.1012 H   0  0  0  0  0  0  0  0  0  0  0  0
   -3.7225   13.2823  -33.1515 H   0  0  0  0  0  0  0  0  0  0  0  0
   -7.7853   16.0102  -34.1521 H   0  0  0  0  0  0  0  0  0  0  0  0
   -4.4105   19.8701  -33.6906 H   0  0  0  0  0  0  0  0  0  0  0  0
   -4.0561   22.2425  -33.0212 H   0  0  0  0  0  0  0  0  0  0  0  0
   -1.9972   22.3694  -30.9593 H   0  0  0  0  0  0  0  0  0  0  0  0
   -3.4366   22.3059  -32.0321 H   0  0  0  0  0  0  0  0  0  0  0  0
   -2.3798   23.7584  -32.0321 H   0  0  0  0  0  0  0  0  0  0  0  0
   -2.0747   23.3721  -27.2695 H   0  0  0  0  0  0  0  0  0  0  0  0
   -1.5575   22.4976  -28.7579 H   0  0  0  0  0  0  0  0  0  0  0  0
  1  2  1  0
  2  3  2  0
  3  4  1  0
  4  5  1  0
  5  6  1  0
  6  7  2  0
  7  8  1  0
  8  9  2  0
  9 10  1  0
 10 11  1  0
 11 12  2  0
 11 13  1  0
 13 14  2  0
 14 15  1  0
 15 16  2  0
 16 17  1  0
 16 18  1  0
 18 19  1  0
 18 20  2  0
  9 21  1  0
 21 22  2  0
  4 23  1  0
 23 24  1  0
 23 25  2  0
 25 26  1  0
 26 27  1  0
 27 28  2  0
 27 29  1  0
 25  2  1  0
 22  6  1  0
 20 13  1  0
  1 30  1  0
  1 31  1  0
  1 32  1  0
  5 33  1  0
  5 34  1  0
  7 35  1  0
  8 36  1  0
 10 37  1  0
 14 38  1  0
 15 39  1  0
 20 40  1  0
 21 41  1  0
 22 42  1  0
 24 43  1  0
 24 44  1  0
 24 45  1  0
 26 46  1  0
 26 47  1  0
M  CHG  1  29  -1
M  END
>  <UniqueID>  (6) 
6

>  <SMILES>  (6) 
Cc1nn(Cc2ccc(NC(=O)c3ccc(Cl)c(Cl)c3)cc2)c(C)c1CC(=O)[O-]

>  <Energy>  (6) 
80.27732988923324

>  <Genealogy>  (6) 
Cc1nn(Cc2ccc(NC(=O)c3ccc(Cl)c(Cl)c3)cc2)c(C)c1CC(=O)[O-] (protonated)
Cc1nn(Cc2ccc(NC(=O)c3ccc(Cl)c(Cl)c3)cc2)c(C)c1CC(=O)[O-] (3D coordinates assigned)
Cc1nn(Cc2ccc(NC(=O)c3ccc(Cl)c(Cl)c3)cc2)c(C)c1CC(=O)[O-] (optimized conformer: 80.27732988923324 kcal/mol)

>  <smiles>  (6) 
Cc1nn(Cc2ccc(NC(=O)c3ccc(Cl)c(Cl)c3)cc2)c(C)c1CC(=O)O

>  <score_type>  (6) 
oracle

>  <origin>  (6) 
adgpu

>  <m_score__min__energy>  (6) 
-10.460000000000001

>  <m_primary>  (6) 
energy

$$$$
6:0
     RDKit          3D

 47 50  0  0  0  0  0  0  0  0999 V2000
   -6.3900   17.3010  -33.8700 C   0  0  0  0  0  0  0  0  0  0  0  0
   -6.3910   18.7110  -33.3660 C   0  0  0  0  0  0  0  0  0  0  0  0
   -5.2330   19.4850  -33.4230 C   0  0  0  0  0  0  0  0  0  0  0  0
   -5.2450   20.8200  -32.9810 C   0  0  0  0  0  0  0  0  0  0  0  0
   -3.9510   21.5890  -33.0890 C   0  0  0  0  0  0  0  0  0  0  0  0
   -6.4600   21.3760  -32.4720 C   0  0  0  0  0  0  0  0  0  0  0  0
   -6.5940   22.7130  -31.9830 C   0  0  0  0  0  0  0  0  0  0  0  0
   -5.4670   23.6010  -31.9390 N   0  0  0  0  0  0  0  0  0  0  0  0
   -4.6190   24.1170  -30.5170 S   0  0  0  0  0  0  0  0  0  0  0  0
   -5.6130   24.4000  -29.4270 O   0  0  0  0  0  0  0  0  0  0  0  0
   -3.8620   25.3810  -30.8210 O   0  0  0  0  0  0  0  0  0  0  0  0
   -3.5330   22.8410  -29.9770 C   0  0  0  0  0  0  0  0  0  0  0  0
   -3.8830   22.0080  -28.9080 C   0  0  0  0  0  0  0  0  0  0  0  0
   -2.9990   21.0160  -28.4710 C   0  0  0  0  0  0  0  0  0  0  0  0
   -1.7570   20.8390  -29.1040 C   0  0  0  0  0  0  0  0  0  0  0  0
   -0.8200   19.7850  -28.6400 C   0  0  0  0  0  0  0  0  0  0  0  0
    0.4420   19.6330  -29.2440 C   0  0  0  0  0  0  0  0  0  0  0  0
    1.3180   18.6330  -28.8110 C   0  0  0  0  0  0  0  0  0  0  0  0
    0.9450   17.7770  -27.7710 C   0  0  0  0  0  0  0  0  0  0  0  0
   -0.3020   17.9200  -27.1610 C   0  0  0  0  0  0  0  0  0  0  0  0
   -1.1830   18.9180  -27.5920 C   0  0  0  0  0  0  0  0  0  0  0  0
   -1.4160   21.6740  -30.1830 C   0  0  0  0  0  0  0  0  0  0  0  0
   -2.2970   22.6700  -30.6120 C   0  0  0  0  0  0  0  0  0  0  0  0
   -7.8510   23.1570  -31.5260 C   0  0  0  0  0  0  0  0  0  0  0  0
   -8.9600   22.3180  -31.5440 C   0  0  0  0  0  0  0  0  0  0  0  0
   -8.8420   21.0150  -32.0080 C   0  0  0  0  0  0  0  0  0  0  0  0
   -7.6130   20.5380  -32.4640 C   0  0  0  0  0  0  0  0  0  0  0  0
   -7.5410   19.2570  -32.9060 N   0  0  0  0  0  0  0  0  0  0  0  0
   -6.3895   16.6067  -33.0168 H   0  0  0  0  0  0  0  0  0  0  0  0
   -7.2880   17.1296  -34.4817 H   0  0  0  0  0  0  0  0  0  0  0  0
   -5.4917   17.1309  -34.4817 H   0  0  0  0  0  0  0  0  0  0  0  0
   -4.3032   19.0484  -33.8165 H   0  0  0  0  0  0  0  0  0  0  0  0
   -3.5728   21.8138  -32.0808 H   0  0  0  0  0  0  0  0  0  0  0  0
   -3.2097   20.9848  -33.6325 H   0  0  0  0  0  0  0  0  0  0  0  0
   -4.1273   22.5290  -33.6325 H   0  0  0  0  0  0  0  0  0  0  0  0
   -4.8558   22.1338  -28.4102 H   0  0  0  0  0  0  0  0  0  0  0  0
   -3.2781   20.3698  -27.6257 H   0  0  0  0  0  0  0  0  0  0  0  0
    0.7411   20.3051  -30.0618 H   0  0  0  0  0  0  0  0  0  0  0  0
    2.3020   18.5198  -29.2895 H   0  0  0  0  0  0  0  0  0  0  0  0
    1.6350   16.9898  -27.4330 H   0  0  0  0  0  0  0  0  0  0  0  0
   -0.5926   17.2475  -26.3405 H   0  0  0  0  0  0  0  0  0  0  0  0
   -2.1654   19.0258  -27.1089 H   0  0  0  0  0  0  0  0  0  0  0  0
   -0.4499   21.5422  -30.6923 H   0  0  0  0  0  0  0  0  0  0  0  0
   -2.0182   23.3227  -31.4524 H   0  0  0  0  0  0  0  0  0  0  0  0
   -7.9568   24.1848  -31.1486 H   0  0  0  0  0  0  0  0  0  0  0  0
   -9.9334   22.6879  -31.1896 H   0  0  0  0  0  0  0  0  0  0  0  0
   -9.7221   20.3552  -32.0161 H   0  0  0  0  0  0  0  0  0  0  0  0
  1  2  1  0
  2  3  2  0
  3  4  1  0
  4  5  1  0
  4  6  2  0
  6  7  1  0
  7  8  1  0
  8  9  1  0
  9 10  2  0
  9 11  2  0
  9 12  1  0
 12 13  2  0
 13 14  1  0
 14 15  2  0
 15 16  1  0
 16 17  2  0
 17 18  1  0
 18 19  2  0
 19 20  1  0
 20 21  2  0
 15 22  1  0
 22 23  2  0
  7 24  2  0
 24 25  1  0
 25 26  2  0
 26 27  1  0
 27 28  2  0
 28  2  1  0
 27  6  1  0
 23 12  1  0
 21 16  1  0
  1 29  1  0
  1 30  1  0
  1 31  1  0
  3 32  1  0
  5 33  1  0
  5 34  1  0
  5 35  1  0
 13 36  1  0
 14 37  1  0
 17 38  1  0
 18 39  1  0
 19 40  1  0
 20 41  1  0
 21 42  1  0
 22 43  1  0
 23 44  1  0
 24 45  1  0
 25 46  1  0
 26 47  1  0
M  CHG  1   8  -1
M  END
>  <UniqueID>  (7) 
7

>  <SMILES>  (7) 
Cc1cc(C)c2c([N-]S(=O)(=O)c3ccc(-c4ccccc4)cc3)cccc2n1

>  <Energy>  (7) 
68.4366714918388

>  <Genealogy>  (7) 
Cc1cc(C)c2c([N-]S(=O)(=O)c3ccc(-c4ccccc4)cc3)cccc2n1 (protonated)
Cc1cc(C)c2c([N-]S(=O)(=O)c3ccc(-c4ccccc4)cc3)cccc2n1 (3D coordinates assigned)
Cc1cc(C)c2c([N-]S(=O)(=O)c3ccc(-c4ccccc4)cc3)cccc2n1 (optimized conformer: 68.4366714918388 kcal/mol)

>  <smiles>  (7) 
Cc1cc(C)c2c(NS(=O)(=O)c3ccc(-c4ccccc4)cc3)cccc2n1

>  <score_type>  (7) 
oracle

>  <origin>  (7) 
adgpu

>  <m_score__min__energy>  (7) 
-10.720000000000001

>  <m_primary>  (7) 
energy

$$$$
7:0
     RDKit          3D

 56 59  0  0  0  0  0  0  0  0999 V2000
   -5.1270   18.8470  -33.8070 C   0  0  0  0  0  0  0  0  0  0  0  0
   -5.4880   20.1290  -33.3060 O   0  0  0  0  0  0  0  0  0  0  0  0
   -6.7270   20.4380  -32.7220 C   0  0  0  0  0  0  0  0  0  0  0  0
   -7.8810   19.6750  -32.9810 C   0  0  0  0  0  0  0  0  0  0  0  0
   -9.1050   20.0310  -32.4090 C   0  0  0  0  0  0  0  0  0  0  0  0
   -9.1910   21.1470  -31.5720 C   0  0  0  0  0  0  0  0  0  0  0  0
   -8.0520   21.9040  -31.3020 C   0  0  0  0  0  0  0  0  0  0  0  0
   -6.8170   21.5530  -31.8660 C   0  0  0  0  0  0  0  0  0  0  0  0
   -5.6490   22.3180  -31.5360 N   0  0  0  0  0  0  0  0  0  0  0  0
   -5.5810   23.7430  -31.8760 C   0  0  0  0  0  0  0  0  0  0  0  0
   -5.1280   24.5570  -30.6550 C   0  0  0  0  0  0  0  0  0  0  0  0
   -4.0170   23.9110  -29.9320 N   0  0  0  0  0  0  0  0  0  0  0  0
   -3.5110   24.4720  -28.6940 C   0  0  0  0  0  0  0  0  0  0  0  0
   -4.2460   24.3990  -27.4940 C   0  0  0  0  0  0  0  0  0  0  0  0
   -3.7130   24.9370  -26.3200 C   0  0  0  0  0  0  0  0  0  0  0  0
   -2.4460   25.5310  -26.3280 C   0  0  0  0  0  0  0  0  0  0  0  0
   -1.9130   26.0850  -25.1130 N   0  0  0  0  0  0  0  0  0  0  0  0
   -0.6910   25.6400  -24.4960 C   0  0  0  0  0  0  0  0  0  0  0  0
   -0.0900   24.6200  -24.9320 O   0  0  0  0  0  0  0  0  0  0  0  0
   -0.1140   26.4150  -23.3420 C   0  0  0  0  0  0  0  0  0  0  0  0
    0.2990   27.8020  -23.7580 C   0  0  0  0  0  0  0  0  0  0  0  0
   -0.4440   28.5030  -24.7220 C   0  0  0  0  0  0  0  0  0  0  0  0
   -0.0860   29.8070  -25.0750 C   0  0  0  0  0  0  0  0  0  0  0  0
    1.0080   30.4230  -24.4600 C   0  0  0  0  0  0  0  0  0  0  0  0
    1.7470   29.7360  -23.4940 C   0  0  0  0  0  0  0  0  0  0  0  0
    1.3940   28.4310  -23.1410 C   0  0  0  0  0  0  0  0  0  0  0  0
   -1.7520   25.6090  -27.5440 C   0  0  0  0  0  0  0  0  0  0  0  0
   -2.2930   25.0850  -28.6740 N   0  0  0  0  0  0  0  0  0  0  0  0
   -3.4370   22.6750  -30.4860 C   0  0  0  0  0  0  0  0  0  0  0  0
   -4.5520   21.6750  -30.8010 C   0  0  0  0  0  0  0  0  0  0  0  0
   -4.9350   18.1652  -32.9654 H   0  0  0  0  0  0  0  0  0  0  0  0
   -5.9480   18.4489  -34.4214 H   0  0  0  0  0  0  0  0  0  0  0  0
   -4.2189   18.9358  -34.4214 H   0  0  0  0  0  0  0  0  0  0  0  0
   -7.8189   18.7941  -33.6369 H   0  0  0  0  0  0  0  0  0  0  0  0
  -10.0033   19.4314  -32.6179 H   0  0  0  0  0  0  0  0  0  0  0  0
  -10.1568   21.4278  -31.1266 H   0  0  0  0  0  0  0  0  0  0  0  0
   -8.1224   22.7817  -30.6427 H   0  0  0  0  0  0  0  0  0  0  0  0
   -4.8623   23.8872  -32.6962 H   0  0  0  0  0  0  0  0  0  0  0  0
   -6.5786   24.0864  -32.1871 H   0  0  0  0  0  0  0  0  0  0  0  0
   -4.7990   25.5502  -30.9944 H   0  0  0  0  0  0  0  0  0  0  0  0
   -5.9811   24.6304  -29.9644 H   0  0  0  0  0  0  0  0  0  0  0  0
   -5.2362   23.9200  -27.4816 H   0  0  0  0  0  0  0  0  0  0  0  0
   -4.2917   24.8935  -25.3855 H   0  0  0  0  0  0  0  0  0  0  0  0
   -2.4910   26.7910  -24.6020 H   0  0  0  0  0  0  0  0  0  0  0  0
   -0.8719   26.4910  -22.5484 H   0  0  0  0  0  0  0  0  0  0  0  0
    0.7791   25.8831  -22.9822 H   0  0  0  0  0  0  0  0  0  0  0  0
   -1.3107   28.0240  -25.2008 H   0  0  0  0  0  0  0  0  0  0  0  0
   -0.6653   30.3489  -25.8371 H   0  0  0  0  0  0  0  0  0  0  0  0
    1.2872   31.4502  -24.7372 H   0  0  0  0  0  0  0  0  0  0  0  0
    2.6072   30.2226  -23.0110 H   0  0  0  0  0  0  0  0  0  0  0  0
    1.9754   27.8938  -22.3772 H   0  0  0  0  0  0  0  0  0  0  0  0
   -0.7665   26.0961  -27.5827 H   0  0  0  0  0  0  0  0  0  0  0  0
   -2.8870   22.9114  -31.4088 H   0  0  0  0  0  0  0  0  0  0  0  0
   -2.7508   22.2334  -29.7484 H   0  0  0  0  0  0  0  0  0  0  0  0
   -4.1400   20.8589  -31.4127 H   0  0  0  0  0  0  0  0  0  0  0  0
   -4.9493   21.2854  -29.8521 H   0  0  0  0  0  0  0  0  0  0  0  0
  1  2  1  0
  2  3  1  0
  3  4  2  0
  4  5  1  0
  5  6  2  0
  6  7  1  0
  7  8  2  0
  8  9  1  0
  9 10  1  0
 10 11  1  0
 11 12  1  0
 12 13  1  0
 13 14  2  0
 14 15  1  0
 15 16  2  0
 16 17  1  0
 17 18  1  0
 18 19  2  0
 18 20  1  0
 20 21  1  0
 21 22  2  0
 22 23  1  0
 23 24  2  0
 24 25  1  0
 25 26  2  0
 16 27  1  0
 27 28  2  0
 12 29  1  0
 29 30  1  0
  8  3  1  0
 30  9  1  0
 28 13  1  0
 26 21  1  0
  1 31  1  0
  1 32  1  0
  1 33  1  0
  4 34  1  0
  5 35  1  0
  6 36  1  0
  7 37  1  0
 10 38  1  0
 10 39  1  0
 11 40  1  0
 11 41  1  0
 14 42  1  0
 15 43  1  0
 17 44  1  0
 20 45  1  0
 20 46  1  0
 22 47  1  0
 23 48  1  0
 24 49  1  0
 25 50  1  0
 26 51  1  0
 27 52  1  0
 29 53  1  0
 29 54  1  0
 30 55  1  0
 30 56  1  0
M  END
>  <UniqueID>  (8) 
8

>  <SMILES>  (8) 
COc1ccccc1N1CCN(c2ccc(NC(=O)Cc3ccccc3)cn2)CC1

>  <Energy>  (8) 
70.68153247597499

>  <Genealogy>  (8) 
COc1ccccc1N1CCN(c2ccc(NC(=O)Cc3ccccc3)cn2)CC1 (3D coordinates assigned)
COc1ccccc1N1CCN(c2ccc(NC(=O)Cc3ccccc3)cn2)CC1 (nonaromatic ring conformer: 70.68153247597499 kcal/mol)

>  <smiles>  (8) 
COc1ccccc1N1CCN(c2ccc(NC(=O)Cc3ccccc3)cn2)CC1

>  <score_type>  (8) 
oracle

>  <origin>  (8) 
adgpu

>  <m_score__min__energy>  (8) 
-8.4900000000000002

>  <m_primary>  (8) 
energy

$$$$
8:0
     RDKit          3D

 59 64  0  0  0  0  0  0  0  0999 V2000
   -5.5237   26.4681  -30.9361 H   0  0  0  0  0  0  0  0  0  0  0  0
   -5.0760   25.4660  -30.8630 C   0  0  0  0  0  0  0  0  0  0  0  0
   -3.8930   25.2970  -30.2190 N   0  0  0  0  0  0  0  0  0  0  0  0
   -3.3230   24.0670  -30.1100 C   0  0  0  0  0  0  0  0  0  0  0  0
   -2.1680   23.9490  -29.5250 N   0  0  0  0  0  0  0  0  0  0  0  0
   -1.4640   22.7160  -29.3030 C   0  0  0  0  0  0  0  0  0  0  0  0
   -0.8370   22.0230  -30.3550 C   0  0  0  0  0  0  0  0  0  0  0  0
   -0.8717   22.4304  -31.3762 H   0  0  0  0  0  0  0  0  0  0  0  0
   -0.1690   20.8170  -30.1080 C   0  0  0  0  0  0  0  0  0  0  0  0
    0.3212   20.2801  -30.9335 H   0  0  0  0  0  0  0  0  0  0  0  0
   -0.1260   20.2970  -28.8130 C   0  0  0  0  0  0  0  0  0  0  0  0
    0.4108   19.3574  -28.6156 H   0  0  0  0  0  0  0  0  0  0  0  0
   -0.7640   20.9690  -27.7680 C   0  0  0  0  0  0  0  0  0  0  0  0
   -0.7329   20.5537  -26.7499 H   0  0  0  0  0  0  0  0  0  0  0  0
   -1.4430   22.1690  -28.0110 C   0  0  0  0  0  0  0  0  0  0  0  0
   -1.9606   22.6836  -27.1881 H   0  0  0  0  0  0  0  0  0  0  0  0
   -3.9470   22.9870  -30.6570 N   0  0  0  0  0  0  0  0  0  0  0  0
   -5.1370   23.1020  -31.3030 C   0  0  0  0  0  0  0  0  0  0  0  0
   -5.7780   21.8860  -31.8520 C   0  0  0  0  0  0  0  0  0  0  0  0
   -5.1830   20.7830  -32.4850 C   0  0  0  0  0  0  0  0  0  0  0  0
   -3.7610   20.6100  -32.8130 C   0  0  0  0  0  0  0  0  0  0  0  0
   -2.9550   21.7160  -33.1000 C   0  0  0  0  0  0  0  0  0  0  0  0
   -3.3784   22.7306  -33.0636 H   0  0  0  0  0  0  0  0  0  0  0  0
   -1.6110   21.5300  -33.4330 C   0  0  0  0  0  0  0  0  0  0  0  0
   -0.9847   22.4010  -33.6763 H   0  0  0  0  0  0  0  0  0  0  0  0
   -1.0550   20.2500  -33.4600 C   0  0  0  0  0  0  0  0  0  0  0  0
    0.0046   20.1173  -33.7240 H   0  0  0  0  0  0  0  0  0  0  0  0
   -1.8450   19.1320  -33.1510 C   0  0  0  0  0  0  0  0  0  0  0  0
   -1.2910   17.8090  -33.0850 N   0  0  0  0  0  0  0  0  0  0  0  0
   -0.3700   17.6700  -32.5980 H   0  0  0  0  0  0  0  0  0  0  0  0
   -2.0490   16.3870  -33.7260 S   0  0  0  0  0  0  0  0  0  0  0  0
   -1.7510   15.2170  -32.8260 O   0  0  0  0  0  0  0  0  0  0  0  0
   -1.4960   16.0840  -35.0900 O   0  0  0  0  0  0  0  0  0  0  0  0
   -3.7920   16.6270  -33.7840 C   0  0  0  0  0  0  0  0  0  0  0  0
   -4.3610   17.2660  -34.8950 C   0  0  0  0  0  0  0  0  0  0  0  0
   -3.7174   17.6169  -35.7151 H   0  0  0  0  0  0  0  0  0  0  0  0
   -5.7420   17.4580  -34.9630 C   0  0  0  0  0  0  0  0  0  0  0  0
   -6.1847   17.9603  -35.8358 H   0  0  0  0  0  0  0  0  0  0  0  0
   -6.5620   17.0130  -33.9240 C   0  0  0  0  0  0  0  0  0  0  0  0
   -7.6501   17.1646  -33.9785 H   0  0  0  0  0  0  0  0  0  0  0  0
   -6.0000   16.3750  -32.8150 C   0  0  0  0  0  0  0  0  0  0  0  0
   -6.6464   16.0247  -31.9968 H   0  0  0  0  0  0  0  0  0  0  0  0
   -4.6150   16.1810  -32.7440 C   0  0  0  0  0  0  0  0  0  0  0  0
   -4.1741   15.6780  -31.8707 H   0  0  0  0  0  0  0  0  0  0  0  0
   -3.2070   19.3220  -32.8590 C   0  0  0  0  0  0  0  0  0  0  0  0
   -3.8470   18.4489  -32.6639 H   0  0  0  0  0  0  0  0  0  0  0  0
   -6.1320   19.9000  -32.8680 N   0  0  0  0  0  0  0  0  0  0  0  0
   -7.2970   20.4080  -32.5010 N   0  0  0  0  0  0  0  0  0  0  0  0
   -8.5130   19.8460  -32.7130 C   0  0  0  0  0  0  0  0  0  0  0  0
   -8.6041   18.8814  -33.2338 H   0  0  0  0  0  0  0  0  0  0  0  0
   -9.6510   20.5230  -32.2530 C   0  0  0  0  0  0  0  0  0  0  0  0
  -10.6524   20.0964  -32.4120 H   0  0  0  0  0  0  0  0  0  0  0  0
   -9.5010   21.7550  -31.5850 C   0  0  0  0  0  0  0  0  0  0  0  0
  -10.3887   22.2871  -31.2124 H   0  0  0  0  0  0  0  0  0  0  0  0
   -8.2250   22.3060  -31.3930 C   0  0  0  0  0  0  0  0  0  0  0  0
   -8.0915   23.2649  -30.8708 H   0  0  0  0  0  0  0  0  0  0  0  0
   -7.1290   21.5930  -31.8890 C   0  0  0  0  0  0  0  0  0  0  0  0
   -5.7230   24.3720  -31.4310 C   0  0  0  0  0  0  0  0  0  0  0  0
   -6.6739   24.4996  -31.9691 H   0  0  0  0  0  0  0  0  0  0  0  0
  1  2  1  0
  2  3  1  0
  3  4  1  0
  4  5  2  0
  5  6  1  0
  6  7  2  0
  7  8  1  0
  7  9  1  0
  9 10  1  0
  9 11  2  0
 11 12  1  0
 11 13  1  0
 13 14  1  0
 13 15  2  0
 15 16  1  0
  4 17  1  0
 17 18  2  0
 18 19  1  0
 19 20  1  0
 20 21  1  0
 21 22  2  0
 22 23  1  0
 22 24  1  0
 24 25  1  0
 24 26  2  0
 26 27  1  0
 26 28  1  0
 28 29  1  0
 29 30  1  0
 29 31  1  0
 31 32  2  0
 31 33  2  0
 31 34  1  0
 34 35  2  0
 35 36  1  0
 35 37  1  0
 37 38  1  0
 37 39  2  0
 39 40  1  0
 39 41  1  0
 41 42  1  0
 41 43  2  0
 43 44  1  0
 28 45  2  0
 45 46  1  0
 20 47  2  0
 47 48  1  0
 48 49  1  0
 49 50  1  0
 49 51  2  0
 51 52  1  0
 51 53  1  0
 53 54  1  0
 53 55  2  0
 55 56  1  0
 55 57  1  0
 18 58  1  0
 58 59  1  0
 58  2  2  0
 15  6  1  0
 57 19  2  0
 45 21  1  0
 57 48  1  0
 43 34  1  0
M  CHG  1   3  -1
M  END
>  <UniqueID>  (9) 
9

>  <SMILES>  (9) 
O=S(=O)(Nc1cccc(-c2nn3ccccc3c2-c2cc[n-]/c(=N/c3ccccc3)n2)c1)c1ccccc1

>  <Energy>  (9) 
122.26628198535604

>  <Genealogy>  (9) 
O=S(=O)(Nc1cccc(-c2nn3ccccc3c2-c2cc[n-]c(=Nc3ccccc3)n2)c1)c1ccccc1 (protonated)
O=S(=O)(Nc1cccc(-c2nn3ccccc3c2-c2cc[n-]/c(=N/c3ccccc3)n2)c1)c1ccccc1 (cis-trans isomerization)
O=S(=O)(Nc1cccc(-c2nn3ccccc3c2-c2cc[n-]/c(=N/c3ccccc3)n2)c1)c1ccccc1 (3D coordinates assigned)
O=S(=O)(Nc1cccc(-c2nn3ccccc3c2-c2cc[n-]/c(=N/c3ccccc3)n2)c1)c1ccccc1 (optimized conformer: 122.26628198535604 kcal/mol)

>  <smiles>  (9) 
O=S(=O)(Nc1cccc(-c2nn3ccccc3c2-c2cc[nH]c(=Nc3ccccc3)n2)c1)c1ccccc1

>  <score_type>  (9) 
oracle

>  <origin>  (9) 
adgpu

>  <m_score__min__energy>  (9) 
-12.84

>  <m_primary>  (9) 
energy

$$$$
9:0
     RDKit          3D

 41 42  0  0  0  0  0  0  0  0999 V2000
   -5.3460   25.6500  -30.4880 C   0  0  0  0  0  0  0  0  0  0  0  0
   -3.9690   25.2940  -30.5390 O   0  0  0  0  0  0  0  0  0  0  0  0
   -3.4780   23.9930  -30.3460 C   0  0  0  0  0  0  0  0  0  0  0  0
   -2.5860   23.7710  -29.2930 C   0  0  0  0  0  0  0  0  0  0  0  0
   -2.0570   22.4980  -29.0710 C   0  0  0  0  0  0  0  0  0  0  0  0
   -2.4260   21.4320  -29.8930 C   0  0  0  0  0  0  0  0  0  0  0  0
   -3.3450   21.6230  -30.9350 C   0  0  0  0  0  0  0  0  0  0  0  0
   -3.7080   20.5060  -31.7660 N   0  0  0  0  0  0  0  0  0  0  0  0
   -3.2570   20.3250  -33.1200 C   0  0  0  0  0  0  0  0  0  0  0  0
   -2.5940   21.2280  -33.6970 O   0  0  0  0  0  0  0  0  0  0  0  0
   -3.5590   19.0400  -33.8480 C   0  0  0  0  0  0  0  0  0  0  0  0
   -4.5800   18.1930  -33.1960 N   0  0  0  0  0  0  0  0  0  0  0  0
   -4.2160   16.7730  -33.1270 C   0  0  0  0  0  0  0  0  0  0  0  0
   -6.1980   18.4290  -33.8200 S   0  0  0  0  0  0  0  0  0  0  0  0
   -6.1070   18.8830  -35.2500 O   0  0  0  0  0  0  0  0  0  0  0  0
   -6.9320   17.1170  -33.7990 O   0  0  0  0  0  0  0  0  0  0  0  0
   -7.1230   19.6340  -32.9150 C   0  0  0  0  0  0  0  0  0  0  0  0
   -6.6200   20.9340  -32.7520 C   0  0  0  0  0  0  0  0  0  0  0  0
   -7.3470   21.8860  -32.0320 C   0  0  0  0  0  0  0  0  0  0  0  0
   -8.5890   21.5530  -31.4850 C   0  0  0  0  0  0  0  0  0  0  0  0
   -9.1100   20.2700  -31.6680 C   0  0  0  0  0  0  0  0  0  0  0  0
   -8.3860   19.3170  -32.3910 C   0  0  0  0  0  0  0  0  0  0  0  0
   -3.8510   22.9150  -31.1740 C   0  0  0  0  0  0  0  0  0  0  0  0
   -5.6648   25.7324  -29.4384 H   0  0  0  0  0  0  0  0  0  0  0  0
   -5.4940   26.6159  -30.9931 H   0  0  0  0  0  0  0  0  0  0  0  0
   -5.9436   24.8768  -30.9931 H   0  0  0  0  0  0  0  0  0  0  0  0
   -2.2989   24.6045  -28.6350 H   0  0  0  0  0  0  0  0  0  0  0  0
   -1.3477   22.3348  -28.2462 H   0  0  0  0  0  0  0  0  0  0  0  0
   -1.9930   20.4353  -29.7224 H   0  0  0  0  0  0  0  0  0  0  0  0
   -4.4290   19.8430  -31.4010 H   0  0  0  0  0  0  0  0  0  0  0  0
   -3.9153   19.2924  -34.8576 H   0  0  0  0  0  0  0  0  0  0  0  0
   -2.6262   18.4571  -33.8551 H   0  0  0  0  0  0  0  0  0  0  0  0
   -4.1372   16.4654  -32.0738 H   0  0  0  0  0  0  0  0  0  0  0  0
   -4.9890   16.1716  -33.6277 H   0  0  0  0  0  0  0  0  0  0  0  0
   -3.2490   16.6176  -33.6277 H   0  0  0  0  0  0  0  0  0  0  0  0
   -5.6493   21.2048  -33.1929 H   0  0  0  0  0  0  0  0  0  0  0  0
   -6.9408   22.8991  -31.8957 H   0  0  0  0  0  0  0  0  0  0  0  0
   -9.1559   22.3006  -30.9108 H   0  0  0  0  0  0  0  0  0  0  0  0
  -10.0905   20.0092  -31.2431 H   0  0  0  0  0  0  0  0  0  0  0  0
   -8.8083   18.3138  -32.5499 H   0  0  0  0  0  0  0  0  0  0  0  0
   -4.5422   23.0843  -32.0128 H   0  0  0  0  0  0  0  0  0  0  0  0
  1  2  1  0
  2  3  1  0
  3  4  2  0
  4  5  1  0
  5  6  2  0
  6  7  1  0
  7  8  1  0
  8  9  1  0
  9 10  2  0
  9 11  1  0
 11 12  1  0
 12 13  1  0
 12 14  1  0
 14 15  2  0
 14 16  2  0
 14 17  1  0
 17 18  2  0
 18 19  1  0
 19 20  2  0
 20 21  1  0
 21 22  2  0
  7 23  2  0
 23  3  1  0
 22 17  1  0
  1 24  1  0
  1 25  1  0
  1 26  1  0
  4 27  1  0
  5 28  1  0
  6 29  1  0
  8 30  1  0
 11 31  1  0
 11 32  1  0
 13 33  1  0
 13 34  1  0
 13 35  1  0
 18 36  1  0
 19 37  1  0
 20 38  1  0
 21 39  1  0
 22 40  1  0
 23 41  1  0
M  END
>  <UniqueID>  (10) 
10

>  <SMILES>  (10) 
COc1cccc(NC(=O)CN(C)S(=O)(=O)c2ccccc2)c1

>  <Energy>  (10) 
44.342477816360194

>  <Genealogy>  (10) 
COc1cccc(NC(=O)CN(C)S(=O)(=O)c2ccccc2)c1 (3D coordinates assigned)
COc1cccc(NC(=O)CN(C)S(=O)(=O)c2ccccc2)c1 (optimized conformer: 44.342477816360194 kcal/mol)

>  <smiles>  (10) 
COc1cccc(NC(=O)CN(C)S(=O)(=O)c2ccccc2)c1

>  <score_type>  (10) 
oracle

>  <origin>  (10) 
adgpu

>  <m_score__min__energy>  (10) 
-8.8599999999999994

>  <m_primary>  (10) 
energy

$$$$
10:0
     RDKit          3D

 57 60  0  0  0  0  0  0  0  0999 V2000
   -9.1250   18.5370  -31.7770 C   0  0  0  0  0  0  0  0  0  0  0  0
   -8.2320   17.9590  -32.7210 O   0  0  0  0  0  0  0  0  0  0  0  0
   -6.8920   18.3380  -32.8220 C   0  0  0  0  0  0  0  0  0  0  0  0
   -6.4580   19.5150  -32.2990 N   0  0  0  0  0  0  0  0  0  0  0  0
   -5.1530   19.8750  -32.4020 C   0  0  0  0  0  0  0  0  0  0  0  0
   -4.6800   21.1590  -31.8280 C   0  0  0  0  0  0  0  0  0  0  0  0
   -5.5190   22.2880  -31.8100 C   0  0  0  0  0  0  0  0  0  0  0  0
   -5.0770   23.4910  -31.2530 C   0  0  0  0  0  0  0  0  0  0  0  0
   -3.7940   23.5830  -30.6910 C   0  0  0  0  0  0  0  0  0  0  0  0
   -3.3110   24.8100  -30.1280 N   0  0  0  0  0  0  0  0  0  0  0  0
   -2.4780   24.9220  -28.9690 C   0  0  0  0  0  0  0  0  0  0  0  0
   -2.7640   24.2390  -27.9500 O   0  0  0  0  0  0  0  0  0  0  0  0
   -1.3570   25.8260  -28.9530 N   0  0  0  0  0  0  0  0  0  0  0  0
   -0.5530   26.1100  -27.7940 C   0  0  0  0  0  0  0  0  0  0  0  0
    0.3850   25.1600  -27.3660 C   0  0  0  0  0  0  0  0  0  0  0  0
    1.2410   25.4300  -26.2880 C   0  0  0  0  0  0  0  0  0  0  0  0
    2.2320   24.3960  -25.8070 C   0  0  0  0  0  0  0  0  0  0  0  0
    2.5180   23.4770  -26.8020 F   0  0  0  0  0  0  0  0  0  0  0  0
    1.7030   23.7300  -24.7160 F   0  0  0  0  0  0  0  0  0  0  0  0
    3.4180   25.0090  -25.4310 F   0  0  0  0  0  0  0  0  0  0  0  0
    1.1210   26.6520  -25.6090 C   0  0  0  0  0  0  0  0  0  0  0  0
    0.1820   27.6130  -26.0170 C   0  0  0  0  0  0  0  0  0  0  0  0
    0.1010   28.9570  -25.3350 C   0  0  0  0  0  0  0  0  0  0  0  0
   -1.1730   29.1320  -24.8260 F   0  0  0  0  0  0  0  0  0  0  0  0
    0.3780   29.9850  -26.2200 F   0  0  0  0  0  0  0  0  0  0  0  0
    1.0140   29.0210  -24.2980 F   0  0  0  0  0  0  0  0  0  0  0  0
   -0.6260   27.3470  -27.1340 C   0  0  0  0  0  0  0  0  0  0  0  0
   -2.9420   22.4750  -30.7410 C   0  0  0  0  0  0  0  0  0  0  0  0
   -3.3830   21.2680  -31.2930 C   0  0  0  0  0  0  0  0  0  0  0  0
   -4.2830   19.0440  -33.0330 N   0  0  0  0  0  0  0  0  0  0  0  0
   -4.7030   17.8620  -33.5590 C   0  0  0  0  0  0  0  0  0  0  0  0
   -3.7670   16.9860  -34.2240 N   0  0  0  0  0  0  0  0  0  0  0  0
   -2.3280   17.2760  -34.1690 C   0  0  0  0  0  0  0  0  0  0  0  0
   -1.6080   16.6220  -35.3520 C   0  0  0  0  0  0  0  0  0  0  0  0
   -1.9340   15.2500  -35.4380 O   0  0  0  0  0  0  0  0  0  0  0  0
   -3.3050   15.1090  -35.7570 C   0  0  0  0  0  0  0  0  0  0  0  0
   -4.1870   15.6340  -34.6180 C   0  0  0  0  0  0  0  0  0  0  0  0
   -6.0130   17.5170  -33.4500 N   0  0  0  0  0  0  0  0  0  0  0  0
   -8.7773   18.3120  -30.7579 H   0  0  0  0  0  0  0  0  0  0  0  0
   -9.1562   19.6270  -31.9215 H   0  0  0  0  0  0  0  0  0  0  0  0
  -10.1322   18.1191  -31.9215 H   0  0  0  0  0  0  0  0  0  0  0  0
   -6.5305   22.2234  -32.2375 H   0  0  0  0  0  0  0  0  0  0  0  0
   -5.7379   24.3703  -31.2550 H   0  0  0  0  0  0  0  0  0  0  0  0
   -1.0960   26.3110  -29.8400 H   0  0  0  0  0  0  0  0  0  0  0  0
    0.4505   24.1907  -27.8820 H   0  0  0  0  0  0  0  0  0  0  0  0
    1.7708   26.8598  -24.7461 H   0  0  0  0  0  0  0  0  0  0  0  0
   -1.3239   28.1163  -27.4960 H   0  0  0  0  0  0  0  0  0  0  0  0
   -1.9192   22.5533  -30.3439 H   0  0  0  0  0  0  0  0  0  0  0  0
   -2.7110   20.3973  -31.3091 H   0  0  0  0  0  0  0  0  0  0  0  0
   -2.1755   18.3647  -34.2084 H   0  0  0  0  0  0  0  0  0  0  0  0
   -1.9172   16.8714  -33.2322 H   0  0  0  0  0  0  0  0  0  0  0  0
   -1.9118   17.1244  -36.2822 H   0  0  0  0  0  0  0  0  0  0  0  0
   -0.5225   16.7191  -35.2030 H   0  0  0  0  0  0  0  0  0  0  0  0
   -3.5223   15.6782  -36.6728 H   0  0  0  0  0  0  0  0  0  0  0  0
   -3.5234   14.0415  -35.9080 H   0  0  0  0  0  0  0  0  0  0  0  0
   -5.2337   15.6637  -34.9548 H   0  0  0  0  0  0  0  0  0  0  0  0
   -4.0866   14.9634  -33.7519 H   0  0  0  0  0  0  0  0  0  0  0  0
  1  2  1  0
  2  3  1  0
  3  4  2  0
  4  5  1  0
  5  6  1  0
  6  7  2  0
  7  8  1  0
  8  9  2  0
  9 10  1  0
 10 11  1  0
 11 12  2  0
 11 13  1  0
 13 14  1  0
 14 15  2  0
 15 16  1  0
 16 17  1  0
 17 18  1  0
 17 19  1  0
 17 20  1  0
 16 21  2  0
 21 22  1  0
 22 23  1  0
 23 24  1  0
 23 25  1  0
 23 26  1  0
 22 27  2  0
  9 28  1  0
 28 29  2  0
  5 30  2  0
 30 31  1  0
 31 32  1  0
 32 33  1  0
 33 34  1  0
 34 35  1  0
 35 36  1  0
 36 37  1  0
 31 38  2  0
 38  3  1  0
 29  6  1  0
 37 32  1  0
 27 14  1  0
  1 39  1  0
  1 40  1  0
  1 41  1  0
  7 42  1  0
  8 43  1  0
 13 44  1  0
 15 45  1  0
 21 46  1  0
 27 47  1  0
 28 48  1  0
 29 49  1  0
 33 50  1  0
 33 51  1  0
 34 52  1  0
 34 53  1  0
 36 54  1  0
 36 55  1  0
 37 56  1  0
 37 57  1  0
M  CHG  1  10  -1
M  END
>  <UniqueID>  (11) 
11

>  <SMILES>  (11) 
COc1nc(-c2ccc([N-]C(=O)Nc3cc(C(F)(F)F)cc(C(F)(F)F)c3)cc2)nc(N2CCOCC2)n1

>  <Energy>  (11) 
71.46832484272053

>  <Genealogy>  (11) 
COc1nc(-c2ccc([N-]C(=O)Nc3cc(C(F)(F)F)cc(C(F)(F)F)c3)cc2)nc(N2CCOCC2)n1 (protonated)
COc1nc(-c2ccc([N-]C(=O)Nc3cc(C(F)(F)F)cc(C(F)(F)F)c3)cc2)nc(N2CCOCC2)n1 (3D coordinates assigned)
COc1nc(-c2ccc([N-]C(=O)Nc3cc(C(F)(F)F)cc(C(F)(F)F)c3)cc2)nc(N2CCOCC2)n1 (nonaromatic ring conformer: 71.46832484272053 kcal/mol)

>  <smiles>  (11) 
COc1nc(-c2ccc(NC(=O)Nc3cc(C(F)(F)F)cc(C(F)(F)F)c3)cc2)nc(N2CCOCC2)n1

>  <score_type>  (11) 
oracle

>  <origin>  (11) 
adgpu

>  <m_score__min__energy>  (11) 
-8.6899999999999995

>  <m_primary>  (11) 
energy

$$$$
11:0
     RDKit          3D

 38 40  0  0  0  0  0  0  0  0999 V2000
   -0.1210   23.0820  -24.6910 C   0  0  0  0  0  0  0  0  0  0  0  0
   -0.7550   23.6260  -25.9430 C   0  0  0  0  0  0  0  0  0  0  0  0
   -1.4000   24.8710  -25.8760 C   0  0  0  0  0  0  0  0  0  0  0  0
   -2.0360   25.4050  -26.9970 C   0  0  0  0  0  0  0  0  0  0  0  0
   -2.0010   24.7280  -28.2170 C   0  0  0  0  0  0  0  0  0  0  0  0
   -2.6840   25.2930  -29.3440 N   0  0  0  0  0  0  0  0  0  0  0  0
   -3.3750   24.5470  -30.3520 C   0  0  0  0  0  0  0  0  0  0  0  0
   -2.8370   23.5120  -30.8220 O   0  0  0  0  0  0  0  0  0  0  0  0
   -4.6650   24.9420  -30.8370 N   0  0  0  0  0  0  0  0  0  0  0  0
   -5.8060   24.0860  -31.0080 C   0  0  0  0  0  0  0  0  0  0  0  0
   -6.3630   23.8310  -32.2740 C   0  0  0  0  0  0  0  0  0  0  0  0
   -7.4640   22.9790  -32.3990 C   0  0  0  0  0  0  0  0  0  0  0  0
   -8.0340   22.3980  -31.2620 C   0  0  0  0  0  0  0  0  0  0  0  0
   -9.4100   21.3220  -31.4210 Cl  0  0  0  0  0  0  0  0  0  0  0  0
   -7.5150   22.6890  -29.9970 C   0  0  0  0  0  0  0  0  0  0  0  0
   -6.4130   23.5380  -29.8710 C   0  0  0  0  0  0  0  0  0  0  0  0
   -1.3430   23.4900  -28.3030 C   0  0  0  0  0  0  0  0  0  0  0  0
   -0.7140   22.9350  -27.1780 C   0  0  0  0  0  0  0  0  0  0  0  0
    0.0110   21.2920  -27.3230 S   0  0  0  0  0  0  0  0  0  0  0  0
   -1.5070   20.4100  -26.9480 C   0  0  0  0  0  0  0  0  0  0  0  0
   -1.7130   19.7320  -25.8060 N   0  0  0  0  0  0  0  0  0  0  0  0
   -2.8990   19.1570  -25.9560 N   0  0  0  0  0  0  0  0  0  0  0  0
   -3.4060   19.4610  -27.1430 N   0  0  0  0  0  0  0  0  0  0  0  0
   -2.5440   20.2290  -27.7840 N   0  0  0  0  0  0  0  0  0  0  0  0
   -2.7630   20.7870  -29.1110 C   0  0  0  0  0  0  0  0  0  0  0  0
   -0.6213   23.5112  -23.8104 H   0  0  0  0  0  0  0  0  0  0  0  0
   -0.2241   21.9870  -24.6738 H   0  0  0  0  0  0  0  0  0  0  0  0
    0.9457   23.3502  -24.6738 H   0  0  0  0  0  0  0  0  0  0  0  0
   -1.4040   25.4315  -24.9295 H   0  0  0  0  0  0  0  0  0  0  0  0
   -2.5679   26.3647  -26.9189 H   0  0  0  0  0  0  0  0  0  0  0  0
   -5.9309   24.3035  -33.1685 H   0  0  0  0  0  0  0  0  0  0  0  0
   -7.8827   22.7652  -33.3935 H   0  0  0  0  0  0  0  0  0  0  0  0
   -7.9749   22.2489  -29.0999 H   0  0  0  0  0  0  0  0  0  0  0  0
   -6.0193   23.7778  -28.8722 H   0  0  0  0  0  0  0  0  0  0  0  0
   -1.3205   22.9504  -29.2613 H   0  0  0  0  0  0  0  0  0  0  0  0
   -3.1634   21.8073  -29.0182 H   0  0  0  0  0  0  0  0  0  0  0  0
   -1.8094   20.8157  -29.6586 H   0  0  0  0  0  0  0  0  0  0  0  0
   -3.4816   20.1595  -29.6586 H   0  0  0  0  0  0  0  0  0  0  0  0
  1  2  1  0
  2  3  2  0
  3  4  1  0
  4  5  2  0
  5  6  1  0
  6  7  1  0
  7  8  2  0
  7  9  1  0
  9 10  1  0
 10 11  2  0
 11 12  1  0
 12 13  2  0
 13 14  1  0
 13 15  1  0
 15 16  2  0
  5 17  1  0
 17 18  2  0
 18 19  1  0
 19 20  1  0
 20 21  2  0
 21 22  1  0
 22 23  2  0
 23 24  1  0
 24 25  1  0
 18  2  1  0
 24 20  1  0
 16 10  1  0
  1 26  1  0
  1 27  1  0
  1 28  1  0
  3 29  1  0
  4 30  1  0
 11 31  1  0
 12 32  1  0
 15 33  1  0
 16 34  1  0
 17 35  1  0
 25 36  1  0
 25 37  1  0
 25 38  1  0
M  CHG  2   6  -1   9  -1
M  END
>  <UniqueID>  (12) 
12

>  <SMILES>  (12) 
Cc1ccc([N-]C(=O)[N-]c2ccc(Cl)cc2)cc1Sc1nnnn1C

>  <Energy>  (12) 
83.05638213346936

>  <Genealogy>  (12) 
Cc1ccc([N-]C(=O)[N-]c2ccc(Cl)cc2)cc1Sc1nnnn1C (protonated)
Cc1ccc([N-]C(=O)[N-]c2ccc(Cl)cc2)cc1Sc1nnnn1C (3D coordinates assigned)
Cc1ccc([N-]C(=O)[N-]c2ccc(Cl)cc2)cc1Sc1nnnn1C (optimized conformer: 83.05638213346936 kcal/mol)

>  <smiles>  (12) 
Cc1ccc(NC(=O)Nc2ccc(Cl)cc2)cc1Sc1nnnn1C

>  <score_type>  (12) 
oracle

>  <origin>  (12) 
adgpu

>  <m_score__min__energy>  (12) 
-11.539999999999999

>  <m_primary>  (12) 
energy

$$$$
12:0
     RDKit          3D

 42 44  0  0  0  0  0  0  0  0999 V2000
   -9.1260   18.9580  -32.3620 C   0  0  0  0  0  0  0  0  0  0  0  0
   -8.5750   20.3080  -32.5490 N   0  0  0  0  0  0  0  0  0  0  0  0
   -7.1710   20.2590  -33.0280 C   0  0  0  0  0  0  0  0  0  0  0  0
   -6.1440   20.6340  -31.9500 C   0  0  0  0  0  0  0  0  0  0  0  0
   -6.4710   21.9480  -31.3820 N   0  0  0  0  0  0  0  0  0  0  0  0
   -5.4340   22.8040  -30.8540 C   0  0  0  0  0  0  0  0  0  0  0  0
   -5.6540   24.1840  -30.6940 C   0  0  0  0  0  0  0  0  0  0  0  0
   -4.6440   25.0120  -30.1980 C   0  0  0  0  0  0  0  0  0  0  0  0
   -3.4000   24.4720  -29.8320 C   0  0  0  0  0  0  0  0  0  0  0  0
   -2.3320   25.2960  -29.3430 N   0  0  0  0  0  0  0  0  0  0  0  0
   -1.2010   24.8570  -28.5790 C   0  0  0  0  0  0  0  0  0  0  0  0
   -0.3030   24.1920  -29.1620 O   0  0  0  0  0  0  0  0  0  0  0  0
   -1.0830   25.1170  -27.1260 C   0  0  0  0  0  0  0  0  0  0  0  0
   -0.8170   24.0710  -26.2240 C   0  0  0  0  0  0  0  0  0  0  0  0
   -0.7100   24.3280  -24.8540 C   0  0  0  0  0  0  0  0  0  0  0  0
   -0.8610   25.6310  -24.3730 C   0  0  0  0  0  0  0  0  0  0  0  0
   -1.1110   26.6800  -25.2610 C   0  0  0  0  0  0  0  0  0  0  0  0
   -1.2620   27.9430  -24.7920 F   0  0  0  0  0  0  0  0  0  0  0  0
   -1.2140   26.4270  -26.6320 C   0  0  0  0  0  0  0  0  0  0  0  0
   -3.1700   23.1040  -30.0100 C   0  0  0  0  0  0  0  0  0  0  0  0
   -4.1760   22.2750  -30.5100 C   0  0  0  0  0  0  0  0  0  0  0  0
   -7.8800   22.3540  -31.2980 C   0  0  0  0  0  0  0  0  0  0  0  0
   -8.7890   21.1210  -31.3310 C   0  0  0  0  0  0  0  0  0  0  0  0
   -9.2136   18.7434  -31.2867 H   0  0  0  0  0  0  0  0  0  0  0  0
  -10.1199   18.8996  -32.8297 H   0  0  0  0  0  0  0  0  0  0  0  0
   -8.4568   18.2208  -32.8297 H   0  0  0  0  0  0  0  0  0  0  0  0
   -6.9562   19.2370  -33.3734 H   0  0  0  0  0  0  0  0  0  0  0  0
   -7.0781   20.9998  -33.8358 H   0  0  0  0  0  0  0  0  0  0  0  0
   -6.1608   19.8774  -31.1517 H   0  0  0  0  0  0  0  0  0  0  0  0
   -5.1426   20.6751  -32.4033 H   0  0  0  0  0  0  0  0  0  0  0  0
   -6.6299   24.6151  -30.9618 H   0  0  0  0  0  0  0  0  0  0  0  0
   -4.8238   26.0922  -30.0936 H   0  0  0  0  0  0  0  0  0  0  0  0
   -0.6924   23.0444  -26.5989 H   0  0  0  0  0  0  0  0  0  0  0  0
   -0.5068   23.5039  -24.1543 H   0  0  0  0  0  0  0  0  0  0  0  0
   -0.7830   25.8310  -23.2942 H   0  0  0  0  0  0  0  0  0  0  0  0
   -1.3987   27.2579  -27.3287 H   0  0  0  0  0  0  0  0  0  0  0  0
   -2.1887   22.6778  -29.7540 H   0  0  0  0  0  0  0  0  0  0  0  0
   -3.9837   21.1993  -30.6361 H   0  0  0  0  0  0  0  0  0  0  0  0
   -8.0448   22.9019  -30.3585 H   0  0  0  0  0  0  0  0  0  0  0  0
   -8.1193   22.9993  -32.1561 H   0  0  0  0  0  0  0  0  0  0  0  0
   -8.5779   20.5002  -30.4478 H   0  0  0  0  0  0  0  0  0  0  0  0
   -9.8329   21.4679  -31.3326 H   0  0  0  0  0  0  0  0  0  0  0  0
  1  2  1  0
  2  3  1  0
  3  4  1  0
  4  5  1  0
  5  6  1  0
  6  7  2  0
  7  8  1  0
  8  9  2  0
  9 10  1  0
 10 11  1  0
 11 12  2  0
 11 13  1  0
 13 14  2  0
 14 15  1  0
 15 16  2  0
 16 17  1  0
 17 18  1  0
 17 19  2  0
  9 20  1  0
 20 21  2  0
  5 22  1  0
 22 23  1  0
 23  2  1  0
 21  6  1  0
 19 13  1  0
  1 24  1  0
  1 25  1  0
  1 26  1  0
  3 27  1  0
  3 28  1  0
  4 29  1  0
  4 30  1  0
  7 31  1  0
  8 32  1  0
 14 33  1  0
 15 34  1  0
 16 35  1  0
 19 36  1  0
 20 37  1  0
 21 38  1  0
 22 39  1  0
 22 40  1  0
 23 41  1  0
 23 42  1  0
M  CHG  1  10  -1
M  END
>  <UniqueID>  (13) 
13

>  <SMILES>  (13) 
CN1CCN(c2ccc([N-]C(=O)c3cccc(F)c3)cc2)CC1

>  <Energy>  (13) 
59.780000932907775

>  <Genealogy>  (13) 
CN1CCN(c2ccc([N-]C(=O)c3cccc(F)c3)cc2)CC1 (protonated)
CN1CCN(c2ccc([N-]C(=O)c3cccc(F)c3)cc2)CC1 (3D coordinates assigned)
CN1CCN(c2ccc([N-]C(=O)c3cccc(F)c3)cc2)CC1 (nonaromatic ring conformer: 59.780000932907775 kcal/mol)

>  <smiles>  (13) 
CN1CCN(c2ccc(NC(=O)c3cccc(F)c3)cc2)CC1

>  <score_type>  (13) 
oracle

>  <origin>  (13) 
adgpu

>  <m_score__min__energy>  (13) 
-9.7899999999999991

>  <m_primary>  (13) 
energy

$$$$
13:0
     RDKit          3D

 43 46  0  0  0  0  0  0  0  0999 V2000
   -2.1820   20.9610  -28.4830 O   0  0  0  0  0  0  0  0  0  0  0  0
   -1.9760   22.3220  -28.2860 C   0  0  0  0  0  0  0  0  0  0  0  0
   -1.4780   22.8950  -27.1350 C   0  0  0  0  0  0  0  0  0  0  0  0
   -1.1230   22.2230  -25.9690 O   0  0  0  0  0  0  0  0  0  0  0  0
   -1.4160   24.2640  -27.3520 C   0  0  0  0  0  0  0  0  0  0  0  0
   -0.9360   25.3010  -26.4100 C   0  0  0  0  0  0  0  0  0  0  0  0
   -1.2180   25.2040  -25.0360 C   0  0  0  0  0  0  0  0  0  0  0  0
   -0.7630   26.1840  -24.1490 C   0  0  0  0  0  0  0  0  0  0  0  0
   -0.0220   27.2700  -24.6240 C   0  0  0  0  0  0  0  0  0  0  0  0
    0.2640   27.3760  -25.9870 C   0  0  0  0  0  0  0  0  0  0  0  0
   -0.1890   26.3980  -26.8770 C   0  0  0  0  0  0  0  0  0  0  0  0
   -1.8870   24.4490  -28.6460 C   0  0  0  0  0  0  0  0  0  0  0  0
   -1.9620   25.6690  -29.3080 O   0  0  0  0  0  0  0  0  0  0  0  0
   -2.2360   23.2710  -29.2070 N   0  0  0  0  0  0  0  0  0  0  0  0
   -2.6960   23.0570  -30.5790 C   0  0  0  0  0  0  0  0  0  0  0  0
   -4.1640   23.3700  -30.6840 C   0  0  0  0  0  0  0  0  0  0  0  0
   -4.6340   24.6600  -30.4000 C   0  0  0  0  0  0  0  0  0  0  0  0
   -5.9910   24.9590  -30.5380 C   0  0  0  0  0  0  0  0  0  0  0  0
   -6.8860   23.9780  -30.9710 C   0  0  0  0  0  0  0  0  0  0  0  0
   -6.4320   22.6830  -31.2740 C   0  0  0  0  0  0  0  0  0  0  0  0
   -7.3800   21.6420  -31.7490 C   0  0  0  0  0  0  0  0  0  0  0  0
   -6.9120   20.4200  -32.2610 C   0  0  0  0  0  0  0  0  0  0  0  0
   -7.8150   19.4520  -32.7040 C   0  0  0  0  0  0  0  0  0  0  0  0
   -9.1840   19.7110  -32.6340 C   0  0  0  0  0  0  0  0  0  0  0  0
   -9.6290   20.8940  -32.1360 N   0  0  0  0  0  0  0  0  0  0  0  0
   -8.7700   21.8550  -31.6990 C   0  0  0  0  0  0  0  0  0  0  0  0
   -5.0640   22.3880  -31.1280 C   0  0  0  0  0  0  0  0  0  0  0  0
   -1.2000   21.2150  -25.9030 H   0  0  0  0  0  0  0  0  0  0  0  0
   -1.8004   24.3515  -24.6565 H   0  0  0  0  0  0  0  0  0  0  0  0
   -0.9884   26.1004  -23.0756 H   0  0  0  0  0  0  0  0  0  0  0  0
    0.3355   28.0404  -23.9250 H   0  0  0  0  0  0  0  0  0  0  0  0
    0.8468   28.2307  -26.3608 H   0  0  0  0  0  0  0  0  0  0  0  0
    0.0400   26.4866  -27.9493 H   0  0  0  0  0  0  0  0  0  0  0  0
   -2.1338   23.7144  -31.2585 H   0  0  0  0  0  0  0  0  0  0  0  0
   -2.5302   22.0053  -30.8557 H   0  0  0  0  0  0  0  0  0  0  0  0
   -3.9318   25.4387  -30.0675 H   0  0  0  0  0  0  0  0  0  0  0  0
   -6.3562   25.9701  -30.3050 H   0  0  0  0  0  0  0  0  0  0  0  0
   -7.9538   24.2208  -31.0756 H   0  0  0  0  0  0  0  0  0  0  0  0
   -5.8306   20.2255  -32.3129 H   0  0  0  0  0  0  0  0  0  0  0  0
   -7.4507   18.4944  -33.1043 H   0  0  0  0  0  0  0  0  0  0  0  0
   -9.9042   18.9562  -32.9826 H   0  0  0  0  0  0  0  0  0  0  0  0
   -9.1644   22.8031  -31.3047 H   0  0  0  0  0  0  0  0  0  0  0  0
   -4.6961   21.3785  -31.3639 H   0  0  0  0  0  0  0  0  0  0  0  0
  1  2  1  0
  2  3  2  0
  3  4  1  0
  3  5  1  0
  5  6  1  0
  6  7  2  0
  7  8  1  0
  8  9  2  0
  9 10  1  0
 10 11  2  0
  5 12  2  0
 12 13  1  0
 12 14  1  0
 14 15  1  0
 15 16  1  0
 16 17  2  0
 17 18  1  0
 18 19  2  0
 19 20  1  0
 20 21  1  0
 21 22  2  0
 22 23  1  0
 23 24  2  0
 24 25  1  0
 25 26  2  0
 20 27  2  0
 14  2  1  0
 27 16  1  0
 11  6  1  0
 26 21  1  0
  4 28  1  0
  7 29  1  0
  8 30  1  0
  9 31  1  0
 10 32  1  0
 11 33  1  0
 15 34  1  0
 15 35  1  0
 17 36  1  0
 18 37  1  0
 19 38  1  0
 22 39  1  0
 23 40  1  0
 24 41  1  0
 26 42  1  0
 27 43  1  0
M  CHG  2   1  -1  13  -1
M  END
>  <UniqueID>  (14) 
14

>  <SMILES>  (14) 
[O-]c1c(O)c(-c2ccccc2)c([O-])n1Cc1cccc(-c2cccnc2)c1

>  <Energy>  (14) 
86.22226442042077

>  <Genealogy>  (14) 
[O-]c1c(O)c(-c2ccccc2)c([O-])n1Cc1cccc(-c2cccnc2)c1 (protonated)
[O-]c1c(O)c(-c2ccccc2)c([O-])n1Cc1cccc(-c2cccnc2)c1 (3D coordinates assigned)
[O-]c1c(O)c(-c2ccccc2)c([O-])n1Cc1cccc(-c2cccnc2)c1 (optimized conformer: 86.22226442042077 kcal/mol)

>  <smiles>  (14) 
Oc1c(-c2ccccc2)c(O)n(Cc2cccc(-c3cccnc3)c2)c1O

>  <score_type>  (14) 
oracle

>  <origin>  (14) 
adgpu

>  <m_score__min__energy>  (14) 
-11.880000000000001

>  <m_primary>  (14) 
energy

$$$$
14:0
     RDKit          3D

 26 27  0  0  0  0  0  0  0  0999 V2000
   -2.3400   24.6540  -28.2020 C   0  0  0  0  0  0  0  0  0  0  0  0
   -2.9090   25.2450  -29.3660 O   0  0  0  0  0  0  0  0  0  0  0  0
   -3.8920   24.6380  -30.1610 C   0  0  0  0  0  0  0  0  0  0  0  0
   -5.1650   25.2080  -30.3550 C   0  0  0  0  0  0  0  0  0  0  0  0
   -6.1110   24.5630  -31.1580 C   0  0  0  0  0  0  0  0  0  0  0  0
   -5.8110   23.3350  -31.7630 C   0  0  0  0  0  0  0  0  0  0  0  0
   -6.7920   22.7060  -32.6070 N   0  0  0  0  0  0  0  0  0  0  0  0
   -7.3890   21.4250  -32.3420 C   0  0  0  0  0  0  0  0  0  0  0  0
   -6.8490   20.2680  -32.9130 C   0  0  0  0  0  0  0  0  0  0  0  0
   -7.4300   19.0600  -32.6880 N   0  0  0  0  0  0  0  0  0  0  0  0
   -8.5470   18.9550  -31.9230 C   0  0  0  0  0  0  0  0  0  0  0  0
   -9.1050   20.0670  -31.3780 N   0  0  0  0  0  0  0  0  0  0  0  0
   -8.5570   21.2930  -31.5750 C   0  0  0  0  0  0  0  0  0  0  0  0
   -4.5330   22.7790  -31.5880 C   0  0  0  0  0  0  0  0  0  0  0  0
   -3.5870   23.4240  -30.7860 C   0  0  0  0  0  0  0  0  0  0  0  0
   -2.7814   25.1125  -27.3048 H   0  0  0  0  0  0  0  0  0  0  0  0
   -2.5465   23.5736  -28.2010 H   0  0  0  0  0  0  0  0  0  0  0  0
   -1.2525   24.8194  -28.2010 H   0  0  0  0  0  0  0  0  0  0  0  0
   -5.4163   26.1643  -29.8730 H   0  0  0  0  0  0  0  0  0  0  0  0
   -7.0977   25.0229  -31.3159 H   0  0  0  0  0  0  0  0  0  0  0  0
   -7.0950   23.2150  -33.4680 H   0  0  0  0  0  0  0  0  0  0  0  0
   -5.9518   20.3359  -33.5458 H   0  0  0  0  0  0  0  0  0  0  0  0
   -9.0003   17.9687  -31.7445 H   0  0  0  0  0  0  0  0  0  0  0  0
   -9.0284   22.1834  -31.1334 H   0  0  0  0  0  0  0  0  0  0  0  0
   -4.2754   21.8317  -32.0843 H   0  0  0  0  0  0  0  0  0  0  0  0
   -2.5937   22.9729  -30.6450 H   0  0  0  0  0  0  0  0  0  0  0  0
  1  2  1  0
  2  3  1  0
  3  4  2  0
  4  5  1  0
  5  6  2  0
  6  7  1  0
  7  8  1  0
  8  9  2  0
  9 10  1  0
 10 11  2  0
 11 12  1  0
 12 13  2  0
  6 14  1  0
 14 15  2  0
 15  3  1  0
 13  8  1  0
  1 16  1  0
  1 17  1  0
  1 18  1  0
  4 19  1  0
  5 20  1  0
  7 21  1  0
  9 22  1  0
 11 23  1  0
 13 24  1  0
 14 25  1  0
 15 26  1  0
M  END
>  <UniqueID>  (15) 
15

>  <SMILES>  (15) 
COc1ccc(Nc2cncnc2)cc1

>  <Energy>  (15) 
32.63526919112077

>  <Genealogy>  (15) 
COc1ccc(Nc2cncnc2)cc1 (3D coordinates assigned)
COc1ccc(Nc2cncnc2)cc1 (optimized conformer: 32.63526919112077 kcal/mol)

>  <smiles>  (15) 
COc1ccc(Nc2cncnc2)cc1

>  <score_type>  (15) 
oracle

>  <origin>  (15) 
adgpu

>  <m_score__min__energy>  (15) 
-6.1100000000000003

>  <m_primary>  (15) 
energy

$$$$
15:0
     RDKit          3D

 43 45  0  0  0  0  0  0  0  0999 V2000
   -9.0700   21.0470  -31.9010 C   0  0  0  0  0  0  0  0  0  0  0  0
   -8.4030   19.7440  -32.0120 N   0  0  0  0  0  0  0  0  0  0  0  0
   -9.1240   18.5380  -31.5890 C   0  0  0  0  0  0  0  0  0  0  0  0
   -7.0470   19.6520  -32.5200 C   0  0  0  0  0  0  0  0  0  0  0  0
   -6.5850   18.4740  -33.1380 C   0  0  0  0  0  0  0  0  0  0  0  0
   -5.2790   18.3890  -33.6240 C   0  0  0  0  0  0  0  0  0  0  0  0
   -4.4090   19.4710  -33.4940 C   0  0  0  0  0  0  0  0  0  0  0  0
   -4.8350   20.6530  -32.8700 C   0  0  0  0  0  0  0  0  0  0  0  0
   -3.9010   21.7970  -32.7310 C   0  0  0  0  0  0  0  0  0  0  0  0
   -2.9580   21.9210  -33.5600 O   0  0  0  0  0  0  0  0  0  0  0  0
   -4.0320   22.7400  -31.6500 N   0  0  0  0  0  0  0  0  0  0  0  0
   -3.1240   22.9090  -30.7070 N   0  0  0  0  0  0  0  0  0  0  0  0
   -3.5900   23.8860  -29.9050 C   0  0  0  0  0  0  0  0  0  0  0  0
   -2.8780   24.3680  -28.7020 C   0  0  0  0  0  0  0  0  0  0  0  0
   -3.5600   24.5220  -27.4830 C   0  0  0  0  0  0  0  0  0  0  0  0
   -2.8840   24.9740  -26.3460 C   0  0  0  0  0  0  0  0  0  0  0  0
   -1.5170   25.2730  -26.4100 C   0  0  0  0  0  0  0  0  0  0  0  0
   -0.6720   25.8550  -24.9800 S   0  0  0  0  0  0  0  0  0  0  0  0
    0.0060   24.5130  -24.1280 N   0  0  0  0  0  0  0  0  0  0  0  0
   -1.6330   26.5840  -24.0830 O   0  0  0  0  0  0  0  0  0  0  0  0
    0.4230   26.8020  -25.3860 O   0  0  0  0  0  0  0  0  0  0  0  0
   -0.8330   25.1280  -27.6240 C   0  0  0  0  0  0  0  0  0  0  0  0
   -1.5080   24.6770  -28.7620 C   0  0  0  0  0  0  0  0  0  0  0  0
   -4.7870   24.3650  -30.3150 N   0  0  0  0  0  0  0  0  0  0  0  0
   -5.0250   23.6250  -31.4150 C   0  0  0  0  0  0  0  0  0  0  0  0
   -6.3970   23.7700  -32.2990 S   0  0  0  0  0  0  0  0  0  0  0  0
   -6.1590   20.7420  -32.4050 C   0  0  0  0  0  0  0  0  0  0  0  0
   -9.2009   21.3026  -30.8392 H   0  0  0  0  0  0  0  0  0  0  0  0
   -8.4550   21.8166  -32.3903 H   0  0  0  0  0  0  0  0  0  0  0  0
  -10.0540   20.9981  -32.3903 H   0  0  0  0  0  0  0  0  0  0  0  0
   -9.1508   18.4933  -30.4902 H   0  0  0  0  0  0  0  0  0  0  0  0
  -10.1518   18.5692  -31.9798 H   0  0  0  0  0  0  0  0  0  0  0  0
   -8.6100   17.6475  -31.9798 H   0  0  0  0  0  0  0  0  0  0  0  0
   -7.2603   17.6116  -33.2389 H   0  0  0  0  0  0  0  0  0  0  0  0
   -4.9349   17.4649  -34.1114 H   0  0  0  0  0  0  0  0  0  0  0  0
   -3.3827   19.3973  -33.8830 H   0  0  0  0  0  0  0  0  0  0  0  0
   -4.6326   24.2854  -27.4231 H   0  0  0  0  0  0  0  0  0  0  0  0
   -3.4276   25.0953  -25.3974 H   0  0  0  0  0  0  0  0  0  0  0  0
    0.9190   24.8310  -23.7340 H   0  0  0  0  0  0  0  0  0  0  0  0
   -0.6220   24.3190  -23.3150 H   0  0  0  0  0  0  0  0  0  0  0  0
    0.2385   25.3698  -27.6819 H   0  0  0  0  0  0  0  0  0  0  0  0
   -0.9634   24.5631  -29.7109 H   0  0  0  0  0  0  0  0  0  0  0  0
   -6.5083   21.6775  -31.9437 H   0  0  0  0  0  0  0  0  0  0  0  0
  1  2  1  0
  2  3  1  0
  2  4  1  0
  4  5  2  0
  5  6  1  0
  6  7  2  0
  7  8  1  0
  8  9  1  0
  9 10  2  0
  9 11  1  0
 11 12  1  0
 12 13  1  0
 13 14  1  0
 14 15  2  0
 15 16  1  0
 16 17  2  0
 17 18  1  0
 18 19  1  0
 18 20  2  0
 18 21  2  0
 17 22  1  0
 22 23  2  0
 13 24  2  0
 24 25  1  0
 25 26  2  0
  8 27  2  0
 27  4  1  0
 25 11  1  0
 23 14  1  0
  1 28  1  0
  1 29  1  0
  1 30  1  0
  3 31  1  0
  3 32  1  0
  3 33  1  0
  5 34  1  0
  6 35  1  0
  7 36  1  0
 15 37  1  0
 16 38  1  0
 19 39  1  0
 19 40  1  0
 22 41  1  0
 23 42  1  0
 27 43  1  0
M  CHG  1  12  -1
M  END
>  <UniqueID>  (16) 
16

>  <SMILES>  (16) 
CN(C)c1cccc(C(=O)n2[n-]c(-c3ccc(S(N)(=O)=O)cc3)nc2=S)c1

>  <Energy>  (16) 
84.80855688718223

>  <Genealogy>  (16) 
CN(C)c1cccc(C(=O)n2[n-]c(-c3ccc(S(N)(=O)=O)cc3)nc2=S)c1 (protonated)
CN(C)c1cccc(C(=O)n2[n-]c(-c3ccc(S(N)(=O)=O)cc3)nc2=S)c1 (3D coordinates assigned)
CN(C)c1cccc(C(=O)n2[n-]c(-c3ccc(S(N)(=O)=O)cc3)nc2=S)c1 (optimized conformer: 84.80855688718223 kcal/mol)

>  <smiles>  (16) 
CN(C)c1cccc(C(=O)n2[nH]c(-c3ccc(S(N)(=O)=O)cc3)nc2=S)c1

>  <score_type>  (16) 
oracle

>  <origin>  (16) 
adgpu

>  <m_score__min__energy>  (16) 
-9.7400000000000002

>  <m_primary>  (16) 
energy

$$$$
16:0
     RDKit          3D

 24 25  0  0  0  0  0  0  0  0999 V2000
   -3.8980   24.4860  -27.0780 C   0  0  0  0  0  0  0  0  0  0  0  0
   -2.6820   23.6530  -27.4520 C   0  0  0  0  0  0  0  0  0  0  0  0
   -1.8760   24.3550  -28.9280 S   0  0  0  0  0  0  0  0  0  0  0  0
   -3.3610   24.2590  -29.9220 C   0  0  0  0  0  0  0  0  0  0  0  0
   -3.8660   25.2990  -30.6050 N   0  0  0  0  0  0  0  0  0  0  0  0
   -4.9530   24.8530  -31.2120 N   0  0  0  0  0  0  0  0  0  0  0  0
   -5.0780   23.5530  -30.8820 C   0  0  0  0  0  0  0  0  0  0  0  0
   -6.1740   22.6830  -31.3580 C   0  0  0  0  0  0  0  0  0  0  0  0
   -5.8910   21.5160  -32.0910 C   0  0  0  0  0  0  0  0  0  0  0  0
   -6.9310   20.6950  -32.5410 C   0  0  0  0  0  0  0  0  0  0  0  0
   -8.2580   21.0300  -32.2650 C   0  0  0  0  0  0  0  0  0  0  0  0
   -8.5500   22.1870  -31.5400 C   0  0  0  0  0  0  0  0  0  0  0  0
   -7.5150   23.0110  -31.0870 C   0  0  0  0  0  0  0  0  0  0  0  0
   -4.0880   23.1350  -30.0660 N   0  0  0  0  0  0  0  0  0  0  0  0
   -3.9808   24.5427  -25.9826 H   0  0  0  0  0  0  0  0  0  0  0  0
   -3.7888   25.4999  -27.4904 H   0  0  0  0  0  0  0  0  0  0  0  0
   -4.8040   24.0180  -27.4904 H   0  0  0  0  0  0  0  0  0  0  0  0
   -1.9696   23.6516  -26.6139 H   0  0  0  0  0  0  0  0  0  0  0  0
   -3.0027   22.6238  -27.6707 H   0  0  0  0  0  0  0  0  0  0  0  0
   -4.8473   21.2477  -32.3114 H   0  0  0  0  0  0  0  0  0  0  0  0
   -6.7026   19.7838  -33.1134 H   0  0  0  0  0  0  0  0  0  0  0  0
   -9.0736   20.3823  -32.6188 H   0  0  0  0  0  0  0  0  0  0  0  0
   -9.5960   22.4508  -31.3248 H   0  0  0  0  0  0  0  0  0  0  0  0
   -7.7507   23.9209  -30.5155 H   0  0  0  0  0  0  0  0  0  0  0  0
  1  2  1  0
  2  3  1  0
  3  4  1  0
  4  5  2  0
  5  6  1  0
  6  7  1  0
  7  8  1  0
  8  9  2  0
  9 10  1  0
 10 11  2  0
 11 12  1  0
 12 13  2  0
  7 14  2  0
 14  4  1  0
 13  8  1  0
  1 15  1  0
  1 16  1  0
  1 17  1  0
  2 18  1  0
  2 19  1  0
  9 20  1  0
 10 21  1  0
 11 22  1  0
 12 23  1  0
 13 24  1  0
M  CHG  1   6  -1
M  END
>  <UniqueID>  (17) 
17

>  <SMILES>  (17) 
CCSc1n[n-]c(-c2ccccc2)n1

>  <Energy>  (17) 
49.947272458767564

>  <Genealogy>  (17) 
CCSc1n[n-]c(-c2ccccc2)n1 (protonated)
CCSc1n[n-]c(-c2ccccc2)n1 (3D coordinates assigned)
CCSc1n[n-]c(-c2ccccc2)n1 (optimized conformer: 49.947272458767564 kcal/mol)

>  <smiles>  (17) 
CCSc1n[nH]c(-c2ccccc2)n1

>  <score_type>  (17) 
oracle

>  <origin>  (17) 
adgpu

>  <m_score__min__energy>  (17) 
-7.2800000000000002

>  <m_primary>  (17) 
energy

$$$$
17:0
     RDKit          3D

 28 30  0  0  0  0  0  0  0  0999 V2000
   -1.0970   21.3230  -34.1650 H   0  0  0  0  0  0  0  0  0  0  0  0
   -2.0540   21.5090  -33.7910 N   0  0  0  0  0  0  0  0  0  0  0  0
   -2.9540   20.5800  -33.7420 C   0  0  0  0  0  0  0  0  0  0  0  0
   -2.6650   19.3240  -34.1810 N   0  0  0  0  0  0  0  0  0  0  0  0
   -3.5820   18.3230  -34.1350 C   0  0  0  0  0  0  0  0  0  0  0  0
   -3.3151   17.3176  -34.4927 H   0  0  0  0  0  0  0  0  0  0  0  0
   -4.8620   18.5670  -33.6350 C   0  0  0  0  0  0  0  0  0  0  0  0
   -5.6014   17.7540  -33.5870 H   0  0  0  0  0  0  0  0  0  0  0  0
   -5.2000   19.8550  -33.1940 C   0  0  0  0  0  0  0  0  0  0  0  0
   -6.5540   20.1140  -32.6540 C   0  0  0  0  0  0  0  0  0  0  0  0
   -7.6050   19.3030  -32.8930 N   0  0  0  0  0  0  0  0  0  0  0  0
   -8.6470   19.8100  -32.2510 N   0  0  0  0  0  0  0  0  0  0  0  0
   -8.2180   20.9200  -31.6270 C   0  0  0  0  0  0  0  0  0  0  0  0
   -9.2170   21.9180  -30.7960 S   0  0  0  0  0  0  0  0  0  0  0  0
   -6.9060   21.1500  -31.8570 N   0  0  0  0  0  0  0  0  0  0  0  0
   -6.1340   22.3060  -31.4870 C   0  0  0  0  0  0  0  0  0  0  0  0
   -6.5220   23.5850  -31.9190 C   0  0  0  0  0  0  0  0  0  0  0  0
   -7.4259   23.7047  -32.5343 H   0  0  0  0  0  0  0  0  0  0  0  0
   -5.7640   24.7060  -31.5700 C   0  0  0  0  0  0  0  0  0  0  0  0
   -6.0710   25.7051  -31.9128 H   0  0  0  0  0  0  0  0  0  0  0  0
   -4.6150   24.5590  -30.7850 C   0  0  0  0  0  0  0  0  0  0  0  0
   -3.8630   25.6740  -30.4380 O   0  0  0  0  0  0  0  0  0  0  0  0
   -4.2250   23.2890  -30.3500 C   0  0  0  0  0  0  0  0  0  0  0  0
   -3.3218   23.1735  -29.7328 H   0  0  0  0  0  0  0  0  0  0  0  0
   -4.9810   22.1650  -30.6980 C   0  0  0  0  0  0  0  0  0  0  0  0
   -4.6715   21.1676  -30.3526 H   0  0  0  0  0  0  0  0  0  0  0  0
   -4.2270   20.8650  -33.2340 C   0  0  0  0  0  0  0  0  0  0  0  0
   -4.4631   21.8752  -32.8682 H   0  0  0  0  0  0  0  0  0  0  0  0
  1  2  1  0
  2  3  2  0
  3  4  1  0
  4  5  1  0
  5  6  1  0
  5  7  2  0
  7  8  1  0
  7  9  1  0
  9 10  1  0
 10 11  2  0
 11 12  1  0
 12 13  1  0
 13 14  2  0
 13 15  1  0
 15 16  1  0
 16 17  2  0
 17 18  1  0
 17 19  1  0
 19 20  1  0
 19 21  2  0
 21 22  1  0
 21 23  1  0
 23 24  1  0
 23 25  2  0
 25 26  1  0
  9 27  2  0
 27 28  1  0
 27  3  1  0
 15 10  1  0
 25 16  1  0
M  CHG  3   4  -1  12  -1  22  -1
M  END
>  <UniqueID>  (18) 
18

>  <SMILES>  (18) 
[H]/N=c1/cc(-c2n[n-]c(=S)n2-c2ccc([O-])cc2)cc[n-]1

>  <Energy>  (18) 
77.09125257671977

>  <Genealogy>  (18) 
N=c1cc(-c2n[n-]c(=S)n2-c2ccc([O-])cc2)cc[n-]1 (protonated)
[H]/N=c1/cc(-c2n[n-]c(=S)n2-c2ccc([O-])cc2)cc[n-]1 (cis-trans isomerization)
[H]/N=c1/cc(-c2n[n-]c(=S)n2-c2ccc([O-])cc2)cc[n-]1 (3D coordinates assigned)
[H]/N=c1/cc(-c2n[n-]c(=S)n2-c2ccc([O-])cc2)cc[n-]1 (optimized conformer: 77.09125257671977 kcal/mol)

>  <smiles>  (18) 
N=c1cc(-c2n[nH]c(=S)n2-c2ccc(O)cc2)cc[nH]1

>  <score_type>  (18) 
oracle

>  <origin>  (18) 
adgpu

>  <m_score__min__energy>  (18) 
-10.32

>  <m_primary>  (18) 
energy

$$$$
18:0
     RDKit          3D

 40 42  0  0  0  0  0  0  0  0999 V2000
   -1.7440   18.6640  -33.7790 C   0  0  0  0  0  0  0  0  0  0  0  0
   -2.8730   18.0440  -33.1710 O   0  0  0  0  0  0  0  0  0  0  0  0
   -4.1600   18.5990  -33.1340 C   0  0  0  0  0  0  0  0  0  0  0  0
   -4.3010   19.9620  -33.4060 C   0  0  0  0  0  0  0  0  0  0  0  0
   -5.5580   20.5640  -33.3830 C   0  0  0  0  0  0  0  0  0  0  0  0
   -6.7070   19.8150  -33.0760 C   0  0  0  0  0  0  0  0  0  0  0  0
   -8.0080   20.4330  -33.0400 N   0  0  0  0  0  0  0  0  0  0  0  0
   -8.4850   21.5850  -31.8320 S   0  0  0  0  0  0  0  0  0  0  0  0
   -8.9460   20.8530  -30.6040 O   0  0  0  0  0  0  0  0  0  0  0  0
   -9.6200   22.4140  -32.3650 O   0  0  0  0  0  0  0  0  0  0  0  0
   -7.1150   22.6050  -31.4010 C   0  0  0  0  0  0  0  0  0  0  0  0
   -6.9950   23.8950  -31.9370 C   0  0  0  0  0  0  0  0  0  0  0  0
   -5.8960   24.6960  -31.6100 C   0  0  0  0  0  0  0  0  0  0  0  0
   -4.9090   24.2120  -30.7440 C   0  0  0  0  0  0  0  0  0  0  0  0
   -3.8370   24.9870  -30.4290 N   0  0  0  0  0  0  0  0  0  0  0  0
   -2.8590   24.5480  -29.5910 C   0  0  0  0  0  0  0  0  0  0  0  0
   -1.8830   25.2960  -29.3240 O   0  0  0  0  0  0  0  0  0  0  0  0
   -2.9380   23.2690  -29.0290 C   0  0  0  0  0  0  0  0  0  0  0  0
   -4.0270   22.4500  -29.3330 C   0  0  0  0  0  0  0  0  0  0  0  0
   -5.0280   22.9140  -30.1980 C   0  0  0  0  0  0  0  0  0  0  0  0
   -6.1340   22.1190  -30.5250 C   0  0  0  0  0  0  0  0  0  0  0  0
   -6.5800   18.4370  -32.8070 C   0  0  0  0  0  0  0  0  0  0  0  0
   -7.7360   17.6970  -32.5030 O   0  0  0  0  0  0  0  0  0  0  0  0
   -8.7570   18.1210  -31.6060 C   0  0  0  0  0  0  0  0  0  0  0  0
   -5.3040   17.8370  -32.8360 C   0  0  0  0  0  0  0  0  0  0  0  0
   -1.0653   19.0367  -32.9977 H   0  0  0  0  0  0  0  0  0  0  0  0
   -1.2151   17.9298  -34.4044 H   0  0  0  0  0  0  0  0  0  0  0  0
   -2.0797   19.5043  -34.4044 H   0  0  0  0  0  0  0  0  0  0  0  0
   -3.4119   20.5657  -33.6405 H   0  0  0  0  0  0  0  0  0  0  0  0
   -5.6517   21.6368  -33.6075 H   0  0  0  0  0  0  0  0  0  0  0  0
   -8.7550   20.1030  -33.6910 H   0  0  0  0  0  0  0  0  0  0  0  0
   -7.7689   24.2790  -32.6180 H   0  0  0  0  0  0  0  0  0  0  0  0
   -5.8074   25.7072  -32.0339 H   0  0  0  0  0  0  0  0  0  0  0  0
   -2.1477   22.9114  -28.3525 H   0  0  0  0  0  0  0  0  0  0  0  0
   -4.0994   21.4435  -28.8951 H   0  0  0  0  0  0  0  0  0  0  0  0
   -6.2330   21.1119  -30.0939 H   0  0  0  0  0  0  0  0  0  0  0  0
   -8.4165   17.9796  -30.5696 H   0  0  0  0  0  0  0  0  0  0  0  0
   -8.9772   19.1850  -31.7777 H   0  0  0  0  0  0  0  0  0  0  0  0
   -9.6662   17.5260  -31.7777 H   0  0  0  0  0  0  0  0  0  0  0  0
   -5.2025   16.7625  -32.6235 H   0  0  0  0  0  0  0  0  0  0  0  0
  1  2  1  0
  2  3  1  0
  3  4  2  0
  4  5  1  0
  5  6  2  0
  6  7  1  0
  7  8  1  0
  8  9  2  0
  8 10  2  0
  8 11  1  0
 11 12  2  0
 12 13  1  0
 13 14  2  0
 14 15  1  0
 15 16  1  0
 16 17  2  0
 16 18  1  0
 18 19  2  0
 19 20  1  0
 20 21  2  0
  6 22  1  0
 22 23  1  0
 23 24  1  0
 22 25  2  0
 25  3  1  0
 21 11  1  0
 20 14  1  0
  1 26  1  0
  1 27  1  0
  1 28  1  0
  4 29  1  0
  5 30  1  0
  7 31  1  0
 12 32  1  0
 13 33  1  0
 18 34  1  0
 19 35  1  0
 21 36  1  0
 24 37  1  0
 24 38  1  0
 24 39  1  0
 25 40  1  0
M  CHG  1  15  -1
M  END
>  <UniqueID>  (19) 
19

>  <SMILES>  (19) 
COc1ccc(NS(=O)(=O)c2ccc3[n-]c(=O)ccc3c2)c(OC)c1

>  <Energy>  (19) 
47.88554757936352

>  <Genealogy>  (19) 
COc1ccc(NS(=O)(=O)c2ccc3[n-]c(=O)ccc3c2)c(OC)c1 (protonated)
COc1ccc(NS(=O)(=O)c2ccc3[n-]c(=O)ccc3c2)c(OC)c1 (3D coordinates assigned)
COc1ccc(NS(=O)(=O)c2ccc3[n-]c(=O)ccc3c2)c(OC)c1 (optimized conformer: 47.88554757936352 kcal/mol)

>  <smiles>  (19) 
COc1ccc(NS(=O)(=O)c2ccc3[nH]c(=O)ccc3c2)c(OC)c1

>  <score_type>  (19) 
oracle

>  <origin>  (19) 
adgpu

>  <m_score__min__energy>  (19) 
-10

>  <m_primary>  (19) 
energy

$$$$
19:0
     RDKit          3D

 50 53  0  0  0  0  0  0  0  0999 V2000
    0.4220   23.9430  -28.0880 C   0  0  0  0  0  0  0  0  0  0  0  0
   -1.0770   24.0250  -28.1330 C   0  0  0  0  0  0  0  0  0  0  0  0
   -1.8410   23.5580  -27.0540 C   0  0  0  0  0  0  0  0  0  0  0  0
   -3.2360   23.6230  -27.1010 C   0  0  0  0  0  0  0  0  0  0  0  0
   -3.8770   24.1350  -28.2320 C   0  0  0  0  0  0  0  0  0  0  0  0
   -3.1300   24.5620  -29.3370 C   0  0  0  0  0  0  0  0  0  0  0  0
   -3.8250   25.0960  -30.4720 N   0  0  0  0  0  0  0  0  0  0  0  0
   -5.1490   24.7480  -30.9020 C   0  0  0  0  0  0  0  0  0  0  0  0
   -6.0680   25.6100  -30.8610 O   0  0  0  0  0  0  0  0  0  0  0  0
   -5.4060   23.4040  -31.4850 C   0  0  0  0  0  0  0  0  0  0  0  0
   -4.3020   22.5470  -31.7000 C   0  0  0  0  0  0  0  0  0  0  0  0
   -4.5110   21.3030  -32.2950 C   0  0  0  0  0  0  0  0  0  0  0  0
   -5.7530   20.8940  -32.6720 C   0  0  0  0  0  0  0  0  0  0  0  0
   -6.8740   21.6900  -32.4600 C   0  0  0  0  0  0  0  0  0  0  0  0
   -6.7170   22.9520  -31.8460 C   0  0  0  0  0  0  0  0  0  0  0  0
   -7.9490   23.7810  -31.5920 C   0  0  0  0  0  0  0  0  0  0  0  0
   -5.6910   19.5470  -33.3100 C   0  0  0  0  0  0  0  0  0  0  0  0
   -4.1810   19.2080  -33.2850 C   0  0  0  0  0  0  0  0  0  0  0  0
   -3.5330   20.3330  -32.6150 N   0  0  0  0  0  0  0  0  0  0  0  0
   -1.8170   20.5480  -32.5050 S   0  0  0  0  0  0  0  0  0  0  0  0
   -1.1290   19.4860  -33.3200 O   0  0  0  0  0  0  0  0  0  0  0  0
   -1.4380   21.8950  -33.0550 O   0  0  0  0  0  0  0  0  0  0  0  0
   -1.3270   20.4580  -30.8170 C   0  0  0  0  0  0  0  0  0  0  0  0
   -2.2820   20.6460  -29.8070 C   0  0  0  0  0  0  0  0  0  0  0  0
   -1.9120   20.5500  -28.4620 C   0  0  0  0  0  0  0  0  0  0  0  0
   -0.5870   20.2610  -28.1180 C   0  0  0  0  0  0  0  0  0  0  0  0
    0.3680   20.0670  -29.1210 C   0  0  0  0  0  0  0  0  0  0  0  0
    1.6510   19.7770  -28.7870 F   0  0  0  0  0  0  0  0  0  0  0  0
    0.0020   20.1680  -30.4680 C   0  0  0  0  0  0  0  0  0  0  0  0
   -1.7250   24.5190  -29.2780 C   0  0  0  0  0  0  0  0  0  0  0  0
    0.7569   23.9247  -27.0404 H   0  0  0  0  0  0  0  0  0  0  0  0
    0.7544   23.0253  -28.5953 H   0  0  0  0  0  0  0  0  0  0  0  0
    0.8525   24.8189  -28.5953 H   0  0  0  0  0  0  0  0  0  0  0  0
   -1.3409   23.1394  -26.1682 H   0  0  0  0  0  0  0  0  0  0  0  0
   -3.8309   23.2703  -26.2456 H   0  0  0  0  0  0  0  0  0  0  0  0
   -4.9747   24.2031  -28.2546 H   0  0  0  0  0  0  0  0  0  0  0  0
   -3.2900   22.8579  -31.4014 H   0  0  0  0  0  0  0  0  0  0  0  0
   -7.8708   21.3406  -32.7670 H   0  0  0  0  0  0  0  0  0  0  0  0
   -8.1038   23.8851  -30.5079 H   0  0  0  0  0  0  0  0  0  0  0  0
   -7.8200   24.7767  -32.0413 H   0  0  0  0  0  0  0  0  0  0  0  0
   -8.8228   23.2864  -32.0413 H   0  0  0  0  0  0  0  0  0  0  0  0
   -6.2694   18.8108  -32.7325 H   0  0  0  0  0  0  0  0  0  0  0  0
   -6.1181   19.5316  -34.3236 H   0  0  0  0  0  0  0  0  0  0  0  0
   -4.0064   18.2768  -32.7261 H   0  0  0  0  0  0  0  0  0  0  0  0
   -3.7827   19.0560  -34.2990 H   0  0  0  0  0  0  0  0  0  0  0  0
   -3.3254   20.8697  -30.0739 H   0  0  0  0  0  0  0  0  0  0  0  0
   -2.6636   20.7019  -27.6733 H   0  0  0  0  0  0  0  0  0  0  0  0
   -0.2967   20.1865  -27.0596 H   0  0  0  0  0  0  0  0  0  0  0  0
    0.7565   20.0200  -31.2546 H   0  0  0  0  0  0  0  0  0  0  0  0
   -1.1305   24.8740  -30.1327 H   0  0  0  0  0  0  0  0  0  0  0  0
  1  2  1  0
  2  3  2  0
  3  4  1  0
  4  5  2  0
  5  6  1  0
  6  7  1  0
  7  8  1  0
  8  9  2  0
  8 10  1  0
 10 11  2  0
 11 12  1  0
 12 13  2  0
 13 14  1  0
 14 15  2  0
 15 16  1  0
 13 17  1  0
 17 18  1  0
 18 19  1  0
 19 20  1  0
 20 21  2  0
 20 22  2  0
 20 23  1  0
 23 24  2  0
 24 25  1  0
 25 26  2  0
 26 27  1  0
 27 28  1  0
 27 29  2  0
  6 30  2  0
 30  2  1  0
 15 10  1  0
 29 23  1  0
 19 12  1  0
  1 31  1  0
  1 32  1  0
  1 33  1  0
  3 34  1  0
  4 35  1  0
  5 36  1  0
 11 37  1  0
 14 38  1  0
 16 39  1  0
 16 40  1  0
 16 41  1  0
 17 42  1  0
 17 43  1  0
 18 44  1  0
 18 45  1  0
 24 46  1  0
 25 47  1  0
 26 48  1  0
 29 49  1  0
 30 50  1  0
M  CHG  1   7  -1
M  END
>  <UniqueID>  (20) 
20

>  <SMILES>  (20) 
Cc1cccc([N-]C(=O)c2cc3c(cc2C)CCN3S(=O)(=O)c2cccc(F)c2)c1

>  <Energy>  (20) 
75.44795529928457

>  <Genealogy>  (20) 
Cc1cccc([N-]C(=O)c2cc3c(cc2C)CCN3S(=O)(=O)c2cccc(F)c2)c1 (protonated)
Cc1cccc([N-]C(=O)c2cc3c(cc2C)CCN3S(=O)(=O)c2cccc(F)c2)c1 (3D coordinates assigned)
Cc1cccc([N-]C(=O)c2cc3c(cc2C)CCN3S(=O)(=O)c2cccc(F)c2)c1 (nonaromatic ring conformer: 75.44795529928457 kcal/mol)

>  <smiles>  (20) 
Cc1cccc(NC(=O)c2cc3c(cc2C)CCN3S(=O)(=O)c2cccc(F)c2)c1

>  <score_type>  (20) 
oracle

>  <origin>  (20) 
adgpu

>  <m_score__min__energy>  (20) 
-10.699999999999999

>  <m_primary>  (20) 
energy

$$$$
20:0
     RDKit          3D

 43 45  0  0  0  0  0  0  0  0999 V2000
   -9.8650   20.8140  -32.1070 C   0  0  0  0  0  0  0  0  0  0  0  0
   -8.6770   19.9160  -32.2970 C   0  0  0  0  0  0  0  0  0  0  0  0
   -8.7110   18.5960  -31.8260 C   0  0  0  0  0  0  0  0  0  0  0  0
   -7.5890   17.7750  -31.9580 C   0  0  0  0  0  0  0  0  0  0  0  0
   -6.4220   18.2680  -32.5470 C   0  0  0  0  0  0  0  0  0  0  0  0
   -6.3660   19.5980  -33.0030 C   0  0  0  0  0  0  0  0  0  0  0  0
   -5.1850   20.1520  -33.5980 N   0  0  0  0  0  0  0  0  0  0  0  0
   -3.9400   21.0040  -32.7440 S   0  0  0  0  0  0  0  0  0  0  0  0
   -2.8250   21.3380  -33.6950 O   0  0  0  0  0  0  0  0  0  0  0  0
   -3.3980   20.1240  -31.6540 O   0  0  0  0  0  0  0  0  0  0  0  0
   -4.6080   22.4620  -32.0160 C   0  0  0  0  0  0  0  0  0  0  0  0
   -5.9480   22.7960  -32.2440 C   0  0  0  0  0  0  0  0  0  0  0  0
   -6.4930   23.9450  -31.6660 C   0  0  0  0  0  0  0  0  0  0  0  0
   -5.7000   24.7720  -30.8660 C   0  0  0  0  0  0  0  0  0  0  0  0
   -4.3450   24.4610  -30.6520 C   0  0  0  0  0  0  0  0  0  0  0  0
   -3.4970   25.2730  -29.8260 N   0  0  0  0  0  0  0  0  0  0  0  0
   -2.2120   24.9120  -29.3080 C   0  0  0  0  0  0  0  0  0  0  0  0
   -1.9220   23.7020  -29.1020 O   0  0  0  0  0  0  0  0  0  0  0  0
   -1.3020   25.9500  -28.9300 N   0  0  0  0  0  0  0  0  0  0  0  0
   -1.0690   26.4400  -27.6010 C   0  0  0  0  0  0  0  0  0  0  0  0
   -0.4740   27.6920  -27.3600 C   0  0  0  0  0  0  0  0  0  0  0  0
   -0.2910   28.1430  -26.0490 C   0  0  0  0  0  0  0  0  0  0  0  0
   -0.7090   27.3560  -24.9720 C   0  0  0  0  0  0  0  0  0  0  0  0
   -1.3200   26.1210  -25.2050 C   0  0  0  0  0  0  0  0  0  0  0  0
   -1.5070   25.6690  -26.5150 C   0  0  0  0  0  0  0  0  0  0  0  0
   -3.8140   23.2920  -31.2130 C   0  0  0  0  0  0  0  0  0  0  0  0
   -7.4950   20.4170  -32.8660 C   0  0  0  0  0  0  0  0  0  0  0  0
  -10.0504   20.9542  -31.0318 H   0  0  0  0  0  0  0  0  0  0  0  0
   -9.6659   21.7894  -32.5750 H   0  0  0  0  0  0  0  0  0  0  0  0
  -10.7491   20.3564  -32.5750 H   0  0  0  0  0  0  0  0  0  0  0  0
   -9.6235   18.2061  -31.3514 H   0  0  0  0  0  0  0  0  0  0  0  0
   -7.6242   16.7365  -31.5970 H   0  0  0  0  0  0  0  0  0  0  0  0
   -5.5439   17.6142  -32.6546 H   0  0  0  0  0  0  0  0  0  0  0  0
   -6.5734   22.1522  -32.8799 H   0  0  0  0  0  0  0  0  0  0  0  0
   -7.5488   24.1994  -31.8410 H   0  0  0  0  0  0  0  0  0  0  0  0
   -6.1367   25.6688  -30.4023 H   0  0  0  0  0  0  0  0  0  0  0  0
   -0.1518   28.3179  -28.2053 H   0  0  0  0  0  0  0  0  0  0  0  0
    0.1826   29.1186  -25.8650 H   0  0  0  0  0  0  0  0  0  0  0  0
   -0.5570   27.7088  -23.9413 H   0  0  0  0  0  0  0  0  0  0  0  0
   -1.6540   25.5042  -24.3576 H   0  0  0  0  0  0  0  0  0  0  0  0
   -2.0008   24.7026  -26.6946 H   0  0  0  0  0  0  0  0  0  0  0  0
   -2.7647   23.0233  -31.0215 H   0  0  0  0  0  0  0  0  0  0  0  0
   -7.4548   21.4619  -33.2074 H   0  0  0  0  0  0  0  0  0  0  0  0
  1  2  1  0
  2  3  2  0
  3  4  1  0
  4  5  2  0
  5  6  1  0
  6  7  1  0
  7  8  1  0
  8  9  2  0
  8 10  2  0
  8 11  1  0
 11 12  2  0
 12 13  1  0
 13 14  2  0
 14 15  1  0
 15 16  1  0
 16 17  1  0
 17 18  2  0
 17 19  1  0
 19 20  1  0
 20 21  2  0
 21 22  1  0
 22 23  2  0
 23 24  1  0
 24 25  2  0
 15 26  2  0
  6 27  2  0
 27  2  1  0
 26 11  1  0
 25 20  1  0
  1 28  1  0
  1 29  1  0
  1 30  1  0
  3 31  1  0
  4 32  1  0
  5 33  1  0
 12 34  1  0
 13 35  1  0
 14 36  1  0
 21 37  1  0
 22 38  1  0
 23 39  1  0
 24 40  1  0
 25 41  1  0
 26 42  1  0
 27 43  1  0
M  CHG  3   7  -1  16  -1  19  -1
M  END
>  <UniqueID>  (21) 
21

>  <SMILES>  (21) 
Cc1cccc([N-]S(=O)(=O)c2cccc([N-]C(=O)[N-]c3ccccc3)c2)c1

>  <Energy>  (21) 
54.730124621307716

>  <Genealogy>  (21) 
Cc1cccc([N-]S(=O)(=O)c2cccc([N-]C(=O)[N-]c3ccccc3)c2)c1 (protonated)
Cc1cccc([N-]S(=O)(=O)c2cccc([N-]C(=O)[N-]c3ccccc3)c2)c1 (3D coordinates assigned)
Cc1cccc([N-]S(=O)(=O)c2cccc([N-]C(=O)[N-]c3ccccc3)c2)c1 (optimized conformer: 54.730124621307716 kcal/mol)

>  <smiles>  (21) 
Cc1cccc(NS(=O)(=O)c2cccc(NC(=O)Nc3ccccc3)c2)c1

>  <score_type>  (21) 
oracle

>  <origin>  (21) 
adgpu

>  <m_score__min__energy>  (21) 
-12.220000000000001

>  <m_primary>  (21) 
energy

$$$$
21:0
     RDKit          3D

 35 37  0  0  0  0  0  0  0  0999 V2000
   -1.6030   26.7860  -29.3460 H   0  0  0  0  0  0  0  0  0  0  0  0
   -1.3660   25.8500  -28.9440 N   0  0  0  0  0  0  0  0  0  0  0  0
   -2.0610   24.7960  -29.2300 C   0  0  0  0  0  0  0  0  0  0  0  0
   -3.1270   24.8900  -30.0680 N   0  0  0  0  0  0  0  0  0  0  0  0
   -3.8740   23.8000  -30.3760 C   0  0  0  0  0  0  0  0  0  0  0  0
   -4.8570   23.9130  -31.1540 O   0  0  0  0  0  0  0  0  0  0  0  0
   -3.5490   22.5580  -29.8320 C   0  0  0  0  0  0  0  0  0  0  0  0
   -4.1491   21.6674  -30.0701 H   0  0  0  0  0  0  0  0  0  0  0  0
   -2.4430   22.4660  -28.9760 C   0  0  0  0  0  0  0  0  0  0  0  0
   -2.0640   21.1610  -28.3830 C   0  0  0  0  0  0  0  0  0  0  0  0
   -2.8190   20.6310  -27.3220 C   0  0  0  0  0  0  0  0  0  0  0  0
   -3.6954   21.1816  -26.9496 H   0  0  0  0  0  0  0  0  0  0  0  0
   -2.4670   19.4090  -26.7340 C   0  0  0  0  0  0  0  0  0  0  0  0
   -3.2390   18.8820  -25.6520 N   0  0  0  0  0  0  0  0  0  0  0  0
   -4.2700   19.0350  -25.6060 H   0  0  0  0  0  0  0  0  0  0  0  0
   -2.7830   18.3360  -24.8870 H   0  0  0  0  0  0  0  0  0  0  0  0
   -1.3570   18.7060  -27.2150 C   0  0  0  0  0  0  0  0  0  0  0  0
   -1.0761   17.7460  -26.7573 H   0  0  0  0  0  0  0  0  0  0  0  0
   -0.6050   19.2180  -28.2730 C   0  0  0  0  0  0  0  0  0  0  0  0
    0.2597   18.6529  -28.6510 H   0  0  0  0  0  0  0  0  0  0  0  0
   -0.9430   20.4500  -28.8600 C   0  0  0  0  0  0  0  0  0  0  0  0
   -0.2230   20.9470  -29.9570 O   0  0  0  0  0  0  0  0  0  0  0  0
   -0.4960   20.6650  -31.3030 C   0  0  0  0  0  0  0  0  0  0  0  0
    0.1880   19.6550  -32.0070 C   0  0  0  0  0  0  0  0  0  0  0  0
    0.9518   19.0509  -31.4954 H   0  0  0  0  0  0  0  0  0  0  0  0
   -0.1010   19.4180  -33.3540 C   0  0  0  0  0  0  0  0  0  0  0  0
    0.4280   18.6210  -33.8971 H   0  0  0  0  0  0  0  0  0  0  0  0
   -1.0610   20.1920  -34.0120 C   0  0  0  0  0  0  0  0  0  0  0  0
   -1.2912   20.0007  -35.0705 H   0  0  0  0  0  0  0  0  0  0  0  0
   -1.7280   21.2090  -33.3240 C   0  0  0  0  0  0  0  0  0  0  0  0
   -2.4790   21.8224  -33.8433 H   0  0  0  0  0  0  0  0  0  0  0  0
   -1.4420   21.4480  -31.9760 C   0  0  0  0  0  0  0  0  0  0  0  0
   -1.9632   22.2558  -31.4413 H   0  0  0  0  0  0  0  0  0  0  0  0
   -1.7250   23.5910  -28.6870 N   0  0  0  0  0  0  0  0  0  0  0  0
   -0.9180   23.5390  -28.0250 H   0  0  0  0  0  0  0  0  0  0  0  0
  1  2  1  0
  2  3  2  0
  3  4  1  0
  4  5  1  0
  5  6  2  0
  5  7  1  0
  7  8  1  0
  7  9  2  0
  9 10  1  0
 10 11  2  0
 11 12  1  0
 11 13  1  0
 13 14  1  0
 14 15  1  0
 14 16  1  0
 13 17  2  0
 17 18  1  0
 17 19  1  0
 19 20  1  0
 19 21  2  0
 21 22  1  0
 22 23  1  0
 23 24  2  0
 24 25  1  0
 24 26  1  0
 26 27  1  0
 26 28  2  0
 28 29  1  0
 28 30  1  0
 30 31  1  0
 30 32  2  0
 32 33  1  0
  9 34  1  0
 34 35  1  0
 34  3  1  0
 21 10  1  0
 32 23  1  0
M  CHG  1   4  -1
M  END
>  <UniqueID>  (22) 
22

>  <SMILES>  (22) 
[H]/N=c1\[n-]c(=O)cc(-c2cc(N)ccc2Oc2ccccc2)[nH]1

>  <Energy>  (22) 
49.575648801532175

>  <Genealogy>  (22) 
N=c1[n-]c(=O)cc(-c2cc(N)ccc2Oc2ccccc2)[nH]1 (protonated)
[H]/N=c1\[n-]c(=O)cc(-c2cc(N)ccc2Oc2ccccc2)[nH]1 (cis-trans isomerization)
[H]/N=c1\[n-]c(=O)cc(-c2cc(N)ccc2Oc2ccccc2)[nH]1 (3D coordinates assigned)
[H]/N=c1\[n-]c(=O)cc(-c2cc(N)ccc2Oc2ccccc2)[nH]1 (optimized conformer: 49.575648801532175 kcal/mol)

>  <smiles>  (22) 
N=c1[nH]c(-c2cc(N)ccc2Oc2ccccc2)cc(=O)[nH]1

>  <score_type>  (22) 
oracle

>  <origin>  (22) 
adgpu

>  <m_score__min__energy>  (22) 
-8.75

>  <m_primary>  (22) 
energy

$$$$
22:0
     RDKit          3D

 31 33  0  0  0  0  0  0  0  0999 V2000
   -9.4280   23.4360  -32.3430 C   0  0  0  0  0  0  0  0  0  0  0  0
   -8.8850   22.4580  -31.4620 O   0  0  0  0  0  0  0  0  0  0  0  0
   -8.3100   21.2440  -31.8730 C   0  0  0  0  0  0  0  0  0  0  0  0
   -9.1000   20.1700  -32.3300 C   0  0  0  0  0  0  0  0  0  0  0  0
   -8.5080   18.9610  -32.7000 C   0  0  0  0  0  0  0  0  0  0  0  0
   -7.1230   18.8060  -32.6210 C   0  0  0  0  0  0  0  0  0  0  0  0
   -6.3820   17.2850  -33.0860 Cl  0  0  0  0  0  0  0  0  0  0  0  0
   -6.3260   19.8640  -32.1770 C   0  0  0  0  0  0  0  0  0  0  0  0
   -6.9070   21.0900  -31.8070 C   0  0  0  0  0  0  0  0  0  0  0  0
   -6.0350   22.1990  -31.3510 C   0  0  0  0  0  0  0  0  0  0  0  0
   -6.2590   23.5180  -31.8020 C   0  0  0  0  0  0  0  0  0  0  0  0
   -5.4310   24.5660  -31.3800 C   0  0  0  0  0  0  0  0  0  0  0  0
   -4.3780   24.2920  -30.5090 C   0  0  0  0  0  0  0  0  0  0  0  0
   -4.1400   22.9930  -30.0610 C   0  0  0  0  0  0  0  0  0  0  0  0
   -4.9590   21.9410  -30.4780 C   0  0  0  0  0  0  0  0  0  0  0  0
   -2.9750   22.8380  -29.1330 C   0  0  0  0  0  0  0  0  0  0  0  0
   -2.3580   24.5000  -28.9990 S   0  0  0  0  0  0  0  0  0  0  0  0
   -0.9580   24.6190  -29.5330 O   0  0  0  0  0  0  0  0  0  0  0  0
   -2.4540   25.0160  -27.5900 O   0  0  0  0  0  0  0  0  0  0  0  0
   -3.4860   25.2880  -30.0280 N   0  0  0  0  0  0  0  0  0  0  0  0
   -9.8793   24.2488  -31.7551 H   0  0  0  0  0  0  0  0  0  0  0  0
   -8.6269   23.8433  -32.9772 H   0  0  0  0  0  0  0  0  0  0  0  0
  -10.1973   22.9714  -32.9772 H   0  0  0  0  0  0  0  0  0  0  0  0
  -10.1920   20.2853  -32.3957 H   0  0  0  0  0  0  0  0  0  0  0  0
   -9.1342   18.1290  -33.0545 H   0  0  0  0  0  0  0  0  0  0  0  0
   -5.2350   19.7370  -32.1163 H   0  0  0  0  0  0  0  0  0  0  0  0
   -7.0913   23.7245  -32.4910 H   0  0  0  0  0  0  0  0  0  0  0  0
   -5.6097   25.5928  -31.7318 H   0  0  0  0  0  0  0  0  0  0  0  0
   -4.7652   20.9167  -30.1269 H   0  0  0  0  0  0  0  0  0  0  0  0
   -3.2964   22.4541  -28.1536 H   0  0  0  0  0  0  0  0  0  0  0  0
   -2.2226   22.1208  -29.4930 H   0  0  0  0  0  0  0  0  0  0  0  0
  1  2  1  0
  2  3  1  0
  3  4  2  0
  4  5  1  0
  5  6  2  0
  6  7  1  0
  6  8  1  0
  8  9  2  0
  9 10  1  0
 10 11  2  0
 11 12  1  0
 12 13  2  0
 13 14  1  0
 14 15  2  0
 14 16  1  0
 16 17  1  0
 17 18  2  0
 17 19  2  0
 17 20  1  0
  9  3  1  0
 15 10  1  0
 20 13  1  0
  1 21  1  0
  1 22  1  0
  1 23  1  0
  4 24  1  0
  5 25  1  0
  8 26  1  0
 11 27  1  0
 12 28  1  0
 15 29  1  0
 16 30  1  0
 16 31  1  0
M  CHG  1  20  -1
M  END
>  <UniqueID>  (23) 
23

>  <SMILES>  (23) 
COc1ccc(Cl)cc1-c1ccc2c(c1)CS(=O)(=O)[N-]2

>  <Energy>  (23) 
50.08496897165528

>  <Genealogy>  (23) 
COc1ccc(Cl)cc1-c1ccc2c(c1)CS(=O)(=O)[N-]2 (protonated)
COc1ccc(Cl)cc1-c1ccc2c(c1)CS(=O)(=O)[N-]2 (3D coordinates assigned)
COc1ccc(Cl)cc1-c1ccc2c(c1)CS(=O)(=O)[N-]2 (nonaromatic ring conformer: 50.08496897165528 kcal/mol)

>  <smiles>  (23) 
COc1ccc(Cl)cc1-c1ccc2c(c1)CS(=O)(=O)N2

>  <score_type>  (23) 
oracle

>  <origin>  (23) 
adgpu

>  <m_score__min__energy>  (23) 
-9.4900000000000002

>  <m_primary>  (23) 
energy

$$$$
23:0
     RDKit          3D

 41 43  0  0  0  0  0  0  0  0999 V2000
   -2.6479   24.1372  -26.1677 H   0  0  0  0  0  0  0  0  0  0  0  0
   -2.7510   24.3450  -27.2430 C   0  0  0  0  0  0  0  0  0  0  0  0
   -4.0180   23.8390  -28.2270 S   0  0  0  0  0  0  0  0  0  0  0  0
   -3.3670   24.5530  -29.6080 C   0  0  0  0  0  0  0  0  0  0  0  0
   -3.9080   24.5780  -30.7910 N   0  0  0  0  0  0  0  0  0  0  0  0
   -5.1100   23.9050  -31.1970 C   0  0  0  0  0  0  0  0  0  0  0  0
   -6.3800   24.3660  -30.8090 C   0  0  0  0  0  0  0  0  0  0  0  0
   -6.4698   25.2824  -30.2073 H   0  0  0  0  0  0  0  0  0  0  0  0
   -7.5300   23.6640  -31.1850 C   0  0  0  0  0  0  0  0  0  0  0  0
   -8.5214   24.0403  -30.8926 H   0  0  0  0  0  0  0  0  0  0  0  0
   -7.4240   22.4780  -31.9360 C   0  0  0  0  0  0  0  0  0  0  0  0
   -8.5460   21.7390  -32.3390 O   0  0  0  0  0  0  0  0  0  0  0  0
   -8.6970   20.3360  -32.1470 C   0  0  0  0  0  0  0  0  0  0  0  0
   -8.7209   20.1138  -31.0699 H   0  0  0  0  0  0  0  0  0  0  0  0
   -9.6363   20.0014  -32.6114 H   0  0  0  0  0  0  0  0  0  0  0  0
   -7.8504   19.8091  -32.6114 H   0  0  0  0  0  0  0  0  0  0  0  0
   -6.1550   22.0060  -32.2900 C   0  0  0  0  0  0  0  0  0  0  0  0
   -6.0609   21.0753  -32.8687 H   0  0  0  0  0  0  0  0  0  0  0  0
   -5.0060   22.7080  -31.9140 C   0  0  0  0  0  0  0  0  0  0  0  0
   -4.0139   22.3168  -32.1835 H   0  0  0  0  0  0  0  0  0  0  0  0
   -2.2110   25.1910  -29.3370 N   0  0  0  0  0  0  0  0  0  0  0  0
   -1.8500   25.0760  -28.0270 C   0  0  0  0  0  0  0  0  0  0  0  0
   -0.6070   25.7050  -27.5080 C   0  0  0  0  0  0  0  0  0  0  0  0
    0.5680   24.9580  -27.3170 C   0  0  0  0  0  0  0  0  0  0  0  0
    0.5741   23.8833  -27.5514 H   0  0  0  0  0  0  0  0  0  0  0  0
    1.7270   25.5660  -26.8330 C   0  0  0  0  0  0  0  0  0  0  0  0
    2.6375   24.9664  -26.6865 H   0  0  0  0  0  0  0  0  0  0  0  0
    1.7400   26.9400  -26.5310 C   0  0  0  0  0  0  0  0  0  0  0  0
    2.8870   27.5860  -26.0410 O   0  0  0  0  0  0  0  0  0  0  0  0
    3.0620   28.0050  -24.6920 C   0  0  0  0  0  0  0  0  0  0  0  0
    2.7283   27.2060  -24.0136 H   0  0  0  0  0  0  0  0  0  0  0  0
    4.1252   28.2203  -24.5099 H   0  0  0  0  0  0  0  0  0  0  0  0
    2.4677   28.9126  -24.5099 H   0  0  0  0  0  0  0  0  0  0  0  0
    0.5770   27.7010  -26.7220 C   0  0  0  0  0  0  0  0  0  0  0  0
    0.6210   29.0700  -26.4150 O   0  0  0  0  0  0  0  0  0  0  0  0
   -0.5110   29.8530  -26.0500 C   0  0  0  0  0  0  0  0  0  0  0  0
   -0.5839   29.9034  -24.9536 H   0  0  0  0  0  0  0  0  0  0  0  0
   -0.4009   30.8689  -26.4572 H   0  0  0  0  0  0  0  0  0  0  0  0
   -1.4227   29.3916  -26.4572 H   0  0  0  0  0  0  0  0  0  0  0  0
   -0.5890   27.0800  -27.2120 C   0  0  0  0  0  0  0  0  0  0  0  0
   -1.4986   27.6793  -27.3653 H   0  0  0  0  0  0  0  0  0  0  0  0
  1  2  1  0
  2  3  1  0
  3  4  1  0
  4  5  2  0
  5  6  1  0
  6  7  2  0
  7  8  1  0
  7  9  1  0
  9 10  1  0
  9 11  2  0
 11 12  1  0
 12 13  1  0
 13 14  1  0
 13 15  1  0
 13 16  1  0
 11 17  1  0
 17 18  1  0
 17 19  2  0
 19 20  1  0
  4 21  1  0
 21 22  1  0
 22 23  1  0
 23 24  2  0
 24 25  1  0
 24 26  1  0
 26 27  1  0
 26 28  2  0
 28 29  1  0
 29 30  1  0
 30 31  1  0
 30 32  1  0
 30 33  1  0
 28 34  1  0
 34 35  1  0
 35 36  1  0
 36 37  1  0
 36 38  1  0
 36 39  1  0
 34 40  2  0
 40 41  1  0
 22  2  2  0
 40 23  1  0
 19  6  1  0
M  CHG  1  21  -1
M  END
>  <UniqueID>  (24) 
24

>  <SMILES>  (24) 
COc1ccc(/N=c2/[n-]c(-c3ccc(OC)c(OC)c3)cs2)cc1

>  <Energy>  (24) 
81.45714649734138

>  <Genealogy>  (24) 
COc1ccc(N=c2[n-]c(-c3ccc(OC)c(OC)c3)cs2)cc1 (protonated)
COc1ccc(/N=c2/[n-]c(-c3ccc(OC)c(OC)c3)cs2)cc1 (cis-trans isomerization)
COc1ccc(/N=c2/[n-]c(-c3ccc(OC)c(OC)c3)cs2)cc1 (3D coordinates assigned)
COc1ccc(/N=c2/[n-]c(-c3ccc(OC)c(OC)c3)cs2)cc1 (optimized conformer: 81.45714649734138 kcal/mol)

>  <smiles>  (24) 
COc1ccc(N=c2[nH]c(-c3ccc(OC)c(OC)c3)cs2)cc1

>  <score_type>  (24) 
oracle

>  <origin>  (24) 
adgpu

>  <m_score__min__energy>  (24) 
-7.8700000000000001

>  <m_primary>  (24) 
energy

$$$$
24:0
     RDKit          3D

 28 30  0  0  0  0  0  0  0  0999 V2000
   -5.8640   18.8720  -33.6670 O   0  0  0  0  0  0  0  0  0  0  0  0
   -6.1250   19.9820  -33.1320 C   0  0  0  0  0  0  0  0  0  0  0  0
   -7.5480   20.4530  -33.0330 C   0  0  0  0  0  0  0  0  0  0  0  0
   -7.7100   21.4330  -32.0030 O   0  0  0  0  0  0  0  0  0  0  0  0
   -6.6870   22.3080  -31.6160 C   0  0  0  0  0  0  0  0  0  0  0  0
   -6.9860   23.4380  -30.8510 C   0  0  0  0  0  0  0  0  0  0  0  0
   -5.9690   24.3150  -30.4570 C   0  0  0  0  0  0  0  0  0  0  0  0
   -6.3890   25.6740  -29.4220 Cl  0  0  0  0  0  0  0  0  0  0  0  0
   -4.6350   24.0610  -30.8440 C   0  0  0  0  0  0  0  0  0  0  0  0
   -3.5590   24.9290  -30.4640 N   0  0  0  0  0  0  0  0  0  0  0  0
   -2.6340   24.6900  -29.3960 C   0  0  0  0  0  0  0  0  0  0  0  0
   -1.9530   25.6540  -28.9580 O   0  0  0  0  0  0  0  0  0  0  0  0
   -2.4980   23.3620  -28.7670 C   0  0  0  0  0  0  0  0  0  0  0  0
   -3.4060   22.7850  -27.9000 C   0  0  0  0  0  0  0  0  0  0  0  0
   -2.8750   21.5560  -27.5710 C   0  0  0  0  0  0  0  0  0  0  0  0
   -1.6820   21.4570  -28.2570 C   0  0  0  0  0  0  0  0  0  0  0  0
   -1.4860   22.5470  -28.9610 O   0  0  0  0  0  0  0  0  0  0  0  0
   -4.3360   22.9020  -31.5730 C   0  0  0  0  0  0  0  0  0  0  0  0
   -5.3590   22.0310  -31.9680 C   0  0  0  0  0  0  0  0  0  0  0  0
   -5.0620   20.8320  -32.6910 N   0  0  0  0  0  0  0  0  0  0  0  0
   -7.8452   20.8948  -33.9955 H   0  0  0  0  0  0  0  0  0  0  0  0
   -8.1796   19.5872  -32.7853 H   0  0  0  0  0  0  0  0  0  0  0  0
   -8.0265   23.6396  -30.5567 H   0  0  0  0  0  0  0  0  0  0  0  0
   -4.3542   23.2161  -27.5463 H   0  0  0  0  0  0  0  0  0  0  0  0
   -3.3140   20.8055  -26.8972 H   0  0  0  0  0  0  0  0  0  0  0  0
   -0.9991   20.5955  -28.2195 H   0  0  0  0  0  0  0  0  0  0  0  0
   -3.2923   22.6753  -31.8363 H   0  0  0  0  0  0  0  0  0  0  0  0
   -4.0710   20.5580  -32.8760 H   0  0  0  0  0  0  0  0  0  0  0  0
  1  2  2  0
  2  3  1  0
  3  4  1  0
  4  5  1  0
  5  6  2  0
  6  7  1  0
  7  8  1  0
  7  9  2  0
  9 10  1  0
 10 11  1  0
 11 12  2  0
 11 13  1  0
 13 14  2  0
 14 15  1  0
 15 16  2  0
 16 17  1  0
  9 18  1  0
 18 19  2  0
 19 20  1  0
 20  2  1  0
 19  5  1  0
 17 13  1  0
  3 21  1  0
  3 22  1  0
  6 23  1  0
 14 24  1  0
 15 25  1  0
 16 26  1  0
 18 27  1  0
 20 28  1  0
M  CHG  1  10  -1
M  END
>  <UniqueID>  (25) 
25

>  <SMILES>  (25) 
O=C1COc2cc(Cl)c([N-]C(=O)c3ccco3)cc2N1

>  <Energy>  (25) 
64.28410532296523

>  <Genealogy>  (25) 
O=C1COc2cc(Cl)c([N-]C(=O)c3ccco3)cc2N1 (protonated)
O=C1COc2cc(Cl)c([N-]C(=O)c3ccco3)cc2N1 (3D coordinates assigned)
O=C1COc2cc(Cl)c([N-]C(=O)c3ccco3)cc2N1 (nonaromatic ring conformer: 64.28410532296523 kcal/mol)

>  <smiles>  (25) 
O=C1COc2cc(Cl)c(NC(=O)c3ccco3)cc2N1

>  <score_type>  (25) 
oracle

>  <origin>  (25) 
adgpu

>  <m_score__min__energy>  (25) 
-8.3900000000000006

>  <m_primary>  (25) 
energy

$$$$
25:0
     RDKit          3D

 31 33  0  0  0  0  0  0  0  0999 V2000
   -9.8430   21.6200  -30.5460 N   0  0  0  0  0  0  0  0  0  0  0  0
   -9.0210   21.1780  -31.2290 C   0  0  0  0  0  0  0  0  0  0  0  0
   -7.9980   20.6280  -32.0790 C   0  0  0  0  0  0  0  0  0  0  0  0
   -7.8280   19.3090  -32.2800 N   0  0  0  0  0  0  0  0  0  0  0  0
   -6.7080   19.2470  -33.0380 C   0  0  0  0  0  0  0  0  0  0  0  0
   -6.1090   17.9850  -33.5290 C   0  0  0  0  0  0  0  0  0  0  0  0
   -6.8490   16.7910  -33.4550 C   0  0  0  0  0  0  0  0  0  0  0  0
   -6.3040   15.5880  -33.9120 C   0  0  0  0  0  0  0  0  0  0  0  0
   -5.0170   15.5620  -34.4480 C   0  0  0  0  0  0  0  0  0  0  0  0
   -4.2700   16.7390  -34.5290 C   0  0  0  0  0  0  0  0  0  0  0  0
   -4.8060   17.9470  -34.0730 C   0  0  0  0  0  0  0  0  0  0  0  0
   -4.0520   19.0720  -34.1660 F   0  0  0  0  0  0  0  0  0  0  0  0
   -6.1990   20.4360  -33.2890 O   0  0  0  0  0  0  0  0  0  0  0  0
   -6.9810   21.3120  -32.7140 C   0  0  0  0  0  0  0  0  0  0  0  0
   -6.7420   22.7250  -32.7280 N   0  0  0  0  0  0  0  0  0  0  0  0
   -6.2970   23.4810  -31.5900 C   0  0  0  0  0  0  0  0  0  0  0  0
   -7.2060   24.1830  -30.7790 C   0  0  0  0  0  0  0  0  0  0  0  0
   -6.7480   24.9340  -29.6930 C   0  0  0  0  0  0  0  0  0  0  0  0
   -5.3790   25.0050  -29.4180 C   0  0  0  0  0  0  0  0  0  0  0  0
   -4.4660   24.3320  -30.2350 C   0  0  0  0  0  0  0  0  0  0  0  0
   -3.1380   24.4110  -29.9750 F   0  0  0  0  0  0  0  0  0  0  0  0
   -4.9230   23.5790  -31.3220 C   0  0  0  0  0  0  0  0  0  0  0  0
   -7.8651   16.8043  -33.0339 H   0  0  0  0  0  0  0  0  0  0  0  0
   -6.8913   14.6601  -33.8488 H   0  0  0  0  0  0  0  0  0  0  0  0
   -4.5900   14.6140  -34.8072 H   0  0  0  0  0  0  0  0  0  0  0  0
   -3.2554   16.7156  -34.9534 H   0  0  0  0  0  0  0  0  0  0  0  0
   -6.9400   23.2370  -33.6160 H   0  0  0  0  0  0  0  0  0  0  0  0
   -8.2827   24.1409  -31.0003 H   0  0  0  0  0  0  0  0  0  0  0  0
   -7.4653   25.4698  -29.0539 H   0  0  0  0  0  0  0  0  0  0  0  0
   -5.0204   25.5905  -28.5586 H   0  0  0  0  0  0  0  0  0  0  0  0
   -4.2011   23.0608  -31.9703 H   0  0  0  0  0  0  0  0  0  0  0  0
  1  2  3  0
  2  3  1  0
  3  4  1  0
  4  5  2  0
  5  6  1  0
  6  7  2  0
  7  8  1  0
  8  9  2  0
  9 10  1  0
 10 11  2  0
 11 12  1  0
  5 13  1  0
 13 14  1  0
 14 15  1  0
 15 16  1  0
 16 17  2  0
 17 18  1  0
 18 19  2  0
 19 20  1  0
 20 21  1  0
 20 22  2  0
 14  3  2  0
 22 16  1  0
 11  6  1  0
  7 23  1  0
  8 24  1  0
  9 25  1  0
 10 26  1  0
 15 27  1  0
 17 28  1  0
 18 29  1  0
 19 30  1  0
 22 31  1  0
M  END
>  <UniqueID>  (26) 
26

>  <SMILES>  (26) 
N#Cc1nc(-c2ccccc2F)oc1Nc1cccc(F)c1

>  <Energy>  (26) 
70.6663678006422

>  <Genealogy>  (26) 
N#Cc1nc(-c2ccccc2F)oc1Nc1cccc(F)c1 (3D coordinates assigned)
N#Cc1nc(-c2ccccc2F)oc1Nc1cccc(F)c1 (optimized conformer: 70.6663678006422 kcal/mol)

>  <smiles>  (26) 
N#Cc1nc(-c2ccccc2F)oc1Nc1cccc(F)c1

>  <score_type>  (26) 
oracle

>  <origin>  (26) 
adgpu

>  <m_score__min__energy>  (26) 
-7.4400000000000004

>  <m_primary>  (26) 
energy

$$$$
26:0
     RDKit          3D

 38 40  0  0  0  0  0  0  0  0999 V2000
  -10.4463   19.9756  -32.8606 H   0  0  0  0  0  0  0  0  0  0  0  0
   -9.4890   20.3360  -32.4560 C   0  0  0  0  0  0  0  0  0  0  0  0
   -9.4700   21.5100  -31.8870 N   0  0  0  0  0  0  0  0  0  0  0  0
   -8.3090   22.2310  -31.4480 C   0  0  0  0  0  0  0  0  0  0  0  0
   -7.6890   23.1870  -32.2720 C   0  0  0  0  0  0  0  0  0  0  0  0
   -8.1042   23.4053  -33.2670 H   0  0  0  0  0  0  0  0  0  0  0  0
   -6.5480   23.8600  -31.8310 C   0  0  0  0  0  0  0  0  0  0  0  0
   -6.0608   24.5996  -32.4835 H   0  0  0  0  0  0  0  0  0  0  0  0
   -6.0220   23.5960  -30.5600 C   0  0  0  0  0  0  0  0  0  0  0  0
   -4.5300   24.3640  -30.0260 S   0  0  0  0  0  0  0  0  0  0  0  0
   -4.2400   25.6000  -30.8300 O   0  0  0  0  0  0  0  0  0  0  0  0
   -4.6730   24.7490  -28.5810 O   0  0  0  0  0  0  0  0  0  0  0  0
   -3.2090   23.2470  -30.1910 N   0  0  0  0  0  0  0  0  0  0  0  0
   -3.0260   22.3920  -31.1590 C   0  0  0  0  0  0  0  0  0  0  0  0
   -3.9170   22.2840  -32.2490 C   0  0  0  0  0  0  0  0  0  0  0  0
   -4.7967   22.9413  -32.3124 H   0  0  0  0  0  0  0  0  0  0  0  0
   -3.6740   21.3380  -33.2450 C   0  0  0  0  0  0  0  0  0  0  0  0
   -4.3656   21.2445  -34.0952 H   0  0  0  0  0  0  0  0  0  0  0  0
   -2.5560   20.5120  -33.1630 C   0  0  0  0  0  0  0  0  0  0  0  0
   -2.3595   19.7625  -33.9438 H   0  0  0  0  0  0  0  0  0  0  0  0
   -1.6880   20.6460  -32.0790 C   0  0  0  0  0  0  0  0  0  0  0  0
   -0.7993   20.0019  -32.0055 H   0  0  0  0  0  0  0  0  0  0  0  0
   -1.9370   21.5710  -31.1120 N   0  0  0  0  0  0  0  0  0  0  0  0
   -1.2680   21.6450  -30.3110 H   0  0  0  0  0  0  0  0  0  0  0  0
   -6.6690   22.6800  -29.7190 C   0  0  0  0  0  0  0  0  0  0  0  0
   -6.2733   22.4872  -28.7109 H   0  0  0  0  0  0  0  0  0  0  0  0
   -7.8150   22.0110  -30.1570 C   0  0  0  0  0  0  0  0  0  0  0  0
   -8.3306   21.3092  -29.4850 H   0  0  0  0  0  0  0  0  0  0  0  0
   -8.3050   19.4580  -32.5920 C   0  0  0  0  0  0  0  0  0  0  0  0
   -8.2550   18.2500  -31.8830 C   0  0  0  0  0  0  0  0  0  0  0  0
   -9.1006   17.9541  -31.2447 H   0  0  0  0  0  0  0  0  0  0  0  0
   -7.1650   17.4420  -31.9810 N   0  0  0  0  0  0  0  0  0  0  0  0
   -6.0920   17.7780  -32.7460 C   0  0  0  0  0  0  0  0  0  0  0  0
   -5.2297   17.0982  -32.8120 H   0  0  0  0  0  0  0  0  0  0  0  0
   -6.0840   18.9840  -33.4470 C   0  0  0  0  0  0  0  0  0  0  0  0
   -5.2159   19.2633  -34.0621 H   0  0  0  0  0  0  0  0  0  0  0  0
   -7.1890   19.8330  -33.3600 C   0  0  0  0  0  0  0  0  0  0  0  0
   -7.1863   20.7955  -33.8925 H   0  0  0  0  0  0  0  0  0  0  0  0
  1  2  1  0
  2  3  2  0
  3  4  1  0
  4  5  2  0
  5  6  1  0
  5  7  1  0
  7  8  1  0
  7  9  2  0
  9 10  1  0
 10 11  2  0
 10 12  2  0
 10 13  1  0
 13 14  2  3
 14 15  1  0
 15 16  1  0
 15 17  2  0
 17 18  1  0
 17 19  1  0
 19 20  1  0
 19 21  2  0
 21 22  1  0
 21 23  1  0
 23 24  1  0
  9 25  1  0
 25 26  1  0
 25 27  2  0
 27 28  1  0
  2 29  1  0
 29 30  2  0
 30 31  1  0
 30 32  1  0
 32 33  2  0
 33 34  1  0
 33 35  1  0
 35 36  1  0
 35 37  2  0
 37 38  1  0
 27  4  1  0
 37 29  1  0
 23 14  1  0
M  END
>  <UniqueID>  (27) 
27

>  <SMILES>  (27) 
O=S(=O)(N=c1cccc[nH]1)c1ccc(/N=C\c2cccnc2)cc1

>  <Energy>  (27) 
57.821478470077075

>  <Genealogy>  (27) 
O=S(=O)(N=c1cccc[nH]1)c1ccc(/N=C\c2cccnc2)cc1 (cis-trans isomerization)
O=S(=O)(N=c1cccc[nH]1)c1ccc(/N=C\c2cccnc2)cc1 (3D coordinates assigned)
O=S(=O)(N=c1cccc[nH]1)c1ccc(/N=C\c2cccnc2)cc1 (optimized conformer: 57.821478470077075 kcal/mol)

>  <smiles>  (27) 
O=S(=O)(N=c1cccc[nH]1)c1ccc(N=Cc2cccnc2)cc1

>  <score_type>  (27) 
oracle

>  <origin>  (27) 
adgpu

>  <m_score__min__energy>  (27) 
-9.1699999999999999

>  <m_primary>  (27) 
energy

$$$$
27:0
     RDKit          3D

 47 49  0  0  0  0  0  0  0  0999 V2000
   -0.0030   23.6090  -25.9960 C   0  0  0  0  0  0  0  0  0  0  0  0
    0.1800   24.1150  -27.3930 C   0  0  0  0  0  0  0  0  0  0  0  0
    1.3020   24.5840  -27.7270 O   0  0  0  0  0  0  0  0  0  0  0  0
   -0.9110   24.0340  -28.3910 C   0  0  0  0  0  0  0  0  0  0  0  0
   -1.6000   25.0960  -28.9590 C   0  0  0  0  0  0  0  0  0  0  0  0
   -1.3620   26.4500  -28.7570 O   0  0  0  0  0  0  0  0  0  0  0  0
   -2.5980   24.5670  -29.7390 C   0  0  0  0  0  0  0  0  0  0  0  0
   -3.5260   25.3010  -30.4670 O   0  0  0  0  0  0  0  0  0  0  0  0
   -2.5610   23.2220  -29.6960 N   0  0  0  0  0  0  0  0  0  0  0  0
   -3.4920   22.3370  -30.3380 C   0  0  0  0  0  0  0  0  0  0  0  0
   -2.9980   21.2870  -31.1250 C   0  0  0  0  0  0  0  0  0  0  0  0
   -3.8740   20.4350  -31.8000 C   0  0  0  0  0  0  0  0  0  0  0  0
   -5.2580   20.6270  -31.7060 C   0  0  0  0  0  0  0  0  0  0  0  0
   -6.1990   19.6950  -32.4100 C   0  0  0  0  0  0  0  0  0  0  0  0
   -5.7580   21.6550  -30.8940 C   0  0  0  0  0  0  0  0  0  0  0  0
   -4.8870   22.5060  -30.1950 C   0  0  0  0  0  0  0  0  0  0  0  0
   -5.4650   23.5970  -29.3370 C   0  0  0  0  0  0  0  0  0  0  0  0
   -1.5330   22.8810  -28.8780 C   0  0  0  0  0  0  0  0  0  0  0  0
   -1.1790   21.4850  -28.5370 C   0  0  0  0  0  0  0  0  0  0  0  0
    0.1060   21.0240  -28.8610 C   0  0  0  0  0  0  0  0  0  0  0  0
    0.4880   19.7160  -28.5620 C   0  0  0  0  0  0  0  0  0  0  0  0
   -0.4140   18.8410  -27.9470 C   0  0  0  0  0  0  0  0  0  0  0  0
    0.0090   17.4440  -27.5980 C   0  0  0  0  0  0  0  0  0  0  0  0
   -1.6910   19.3000  -27.5930 C   0  0  0  0  0  0  0  0  0  0  0  0
   -2.0820   20.6200  -27.8700 C   0  0  0  0  0  0  0  0  0  0  0  0
   -3.4650   21.0610  -27.4630 C   0  0  0  0  0  0  0  0  0  0  0  0
    0.2813   24.3952  -25.2811 H   0  0  0  0  0  0  0  0  0  0  0  0
   -1.0570   23.3355  -25.8402 H   0  0  0  0  0  0  0  0  0  0  0  0
    0.6322   22.7246  -25.8402 H   0  0  0  0  0  0  0  0  0  0  0  0
   -1.9122   21.1334  -31.2112 H   0  0  0  0  0  0  0  0  0  0  0  0
   -3.4755   19.6095  -32.4081 H   0  0  0  0  0  0  0  0  0  0  0  0
   -6.7749   19.1246  -31.6663 H   0  0  0  0  0  0  0  0  0  0  0  0
   -6.8881   20.2766  -33.0400 H   0  0  0  0  0  0  0  0  0  0  0  0
   -5.6241   19.0003  -33.0400 H   0  0  0  0  0  0  0  0  0  0  0  0
   -6.8451   21.7964  -30.8036 H   0  0  0  0  0  0  0  0  0  0  0  0
   -5.3289   23.3401  -28.2761 H   0  0  0  0  0  0  0  0  0  0  0  0
   -4.9508   24.5450  -29.5536 H   0  0  0  0  0  0  0  0  0  0  0  0
   -6.5381   23.7041  -29.5536 H   0  0  0  0  0  0  0  0  0  0  0  0
    0.8189   21.7003  -29.3554 H   0  0  0  0  0  0  0  0  0  0  0  0
    1.5025   19.3712  -28.8108 H   0  0  0  0  0  0  0  0  0  0  0  0
    0.0425   17.3335  -26.5041 H   0  0  0  0  0  0  0  0  0  0  0  0
   -0.7123   16.7270  -28.0171 H   0  0  0  0  0  0  0  0  0  0  0  0
    1.0069   17.2476  -28.0171 H   0  0  0  0  0  0  0  0  0  0  0  0
   -2.3944   18.6182  -27.0926 H   0  0  0  0  0  0  0  0  0  0  0  0
   -3.5346   21.0832  -26.3654 H   0  0  0  0  0  0  0  0  0  0  0  0
   -3.6619   22.0665  -27.8633 H   0  0  0  0  0  0  0  0  0  0  0  0
   -4.2076   20.3551  -27.8633 H   0  0  0  0  0  0  0  0  0  0  0  0
  1  2  1  0
  2  3  2  0
  2  4  1  0
  4  5  1  0
  5  6  1  0
  5  7  2  0
  7  8  1  0
  7  9  1  0
  9 10  1  0
 10 11  2  0
 11 12  1  0
 12 13  2  0
 13 14  1  0
 13 15  1  0
 15 16  2  0
 16 17  1  0
  9 18  1  0
 18 19  1  0
 19 20  2  0
 20 21  1  0
 21 22  2  0
 22 23  1  0
 22 24  1  0
 24 25  2  0
 25 26  1  0
 18  4  2  0
 25 19  1  0
 16 10  1  0
  1 27  1  0
  1 28  1  0
  1 29  1  0
 11 30  1  0
 12 31  1  0
 14 32  1  0
 14 33  1  0
 14 34  1  0
 15 35  1  0
 17 36  1  0
 17 37  1  0
 17 38  1  0
 20 39  1  0
 21 40  1  0
 23 41  1  0
 23 42  1  0
 23 43  1  0
 24 44  1  0
 26 45  1  0
 26 46  1  0
 26 47  1  0
M  CHG  2   6  -1   8  -1
M  END
>  <UniqueID>  (28) 
28

>  <SMILES>  (28) 
CC(=O)c1c([O-])c([O-])n(-c2ccc(C)cc2C)c1-c1ccc(C)cc1C

>  <Energy>  (28) 
88.85376370301739

>  <Genealogy>  (28) 
CC(=O)c1c([O-])c([O-])n(-c2ccc(C)cc2C)c1-c1ccc(C)cc1C (protonated)
CC(=O)c1c([O-])c([O-])n(-c2ccc(C)cc2C)c1-c1ccc(C)cc1C (3D coordinates assigned)
CC(=O)c1c([O-])c([O-])n(-c2ccc(C)cc2C)c1-c1ccc(C)cc1C (optimized conformer: 88.85376370301739 kcal/mol)

>  <smiles>  (28) 
CC(=O)c1c(O)c(O)n(-c2ccc(C)cc2C)c1-c1ccc(C)cc1C

>  <score_type>  (28) 
oracle

>  <origin>  (28) 
adgpu

>  <m_score__min__energy>  (28) 
-13.35

>  <m_primary>  (28) 
energy

$$$$
28:0
     RDKit          3D

 44 46  0  0  0  0  0  0  0  0999 V2000
   -3.4370   16.7190  -34.9080 C   0  0  0  0  0  0  0  0  0  0  0  0
   -4.1570   17.9490  -34.9260 O   0  0  0  0  0  0  0  0  0  0  0  0
   -4.9560   18.4220  -33.8730 C   0  0  0  0  0  0  0  0  0  0  0  0
   -4.5400   19.4770  -33.0440 C   0  0  0  0  0  0  0  0  0  0  0  0
   -5.3630   19.9380  -32.0070 C   0  0  0  0  0  0  0  0  0  0  0  0
   -4.9420   21.0040  -31.1370 N   0  0  0  0  0  0  0  0  0  0  0  0
   -4.9800   22.3930  -31.5000 C   0  0  0  0  0  0  0  0  0  0  0  0
   -5.6750   22.7730  -32.4800 O   0  0  0  0  0  0  0  0  0  0  0  0
   -4.2440   23.3990  -30.7160 C   0  0  0  0  0  0  0  0  0  0  0  0
   -3.4290   23.1650  -29.6240 C   0  0  0  0  0  0  0  0  0  0  0  0
   -2.9790   24.4270  -29.2760 C   0  0  0  0  0  0  0  0  0  0  0  0
   -2.0670   24.7850  -28.1670 C   0  0  0  0  0  0  0  0  0  0  0  0
   -1.2170   25.9050  -28.2490 C   0  0  0  0  0  0  0  0  0  0  0  0
   -0.3630   26.2240  -27.1870 C   0  0  0  0  0  0  0  0  0  0  0  0
   -0.3490   25.4320  -26.0360 C   0  0  0  0  0  0  0  0  0  0  0  0
    0.8180   25.8700  -24.5890 Br  0  0  0  0  0  0  0  0  0  0  0  0
   -1.1880   24.3190  -25.9450 C   0  0  0  0  0  0  0  0  0  0  0  0
   -2.0440   23.9960  -27.0030 C   0  0  0  0  0  0  0  0  0  0  0  0
   -3.5020   25.2990  -30.1100 O   0  0  0  0  0  0  0  0  0  0  0  0
   -4.2640   24.7180  -30.9890 N   0  0  0  0  0  0  0  0  0  0  0  0
   -6.5910   19.3090  -31.7780 C   0  0  0  0  0  0  0  0  0  0  0  0
   -7.0300   18.2490  -32.5940 C   0  0  0  0  0  0  0  0  0  0  0  0
   -8.2700   17.6330  -32.3670 O   0  0  0  0  0  0  0  0  0  0  0  0
   -9.3310   18.1870  -31.5940 C   0  0  0  0  0  0  0  0  0  0  0  0
   -6.2010   17.8060  -33.6570 C   0  0  0  0  0  0  0  0  0  0  0  0
   -6.5470   16.7600  -34.5350 O   0  0  0  0  0  0  0  0  0  0  0  0
   -6.8110   15.4070  -34.1810 C   0  0  0  0  0  0  0  0  0  0  0  0
   -3.2584   16.4139  -33.8664 H   0  0  0  0  0  0  0  0  0  0  0  0
   -4.0236   15.9432  -35.4219 H   0  0  0  0  0  0  0  0  0  0  0  0
   -2.4734   16.8507  -35.4219 H   0  0  0  0  0  0  0  0  0  0  0  0
   -3.5589   19.9459  -33.2102 H   0  0  0  0  0  0  0  0  0  0  0  0
   -4.6950   20.7580  -30.1520 H   0  0  0  0  0  0  0  0  0  0  0  0
   -3.1937   22.2032  -29.1449 H   0  0  0  0  0  0  0  0  0  0  0  0
   -1.2244   26.5324  -29.1525 H   0  0  0  0  0  0  0  0  0  0  0  0
    0.2985   27.1000  -27.2586 H   0  0  0  0  0  0  0  0  0  0  0  0
   -1.1755   23.6950  -25.0392 H   0  0  0  0  0  0  0  0  0  0  0  0
   -2.7035   23.1192  -26.9241 H   0  0  0  0  0  0  0  0  0  0  0  0
   -7.2250   19.6485  -30.9457 H   0  0  0  0  0  0  0  0  0  0  0  0
   -9.1053   18.0691  -30.5239 H   0  0  0  0  0  0  0  0  0  0  0  0
   -9.4377   19.2559  -31.8307 H   0  0  0  0  0  0  0  0  0  0  0  0
  -10.2691   17.6636  -31.8307 H   0  0  0  0  0  0  0  0  0  0  0  0
   -6.8296   15.3116  -33.0853 H   0  0  0  0  0  0  0  0  0  0  0  0
   -7.7852   15.1038  -34.5920 H   0  0  0  0  0  0  0  0  0  0  0  0
   -6.0222   14.7598  -34.5920 H   0  0  0  0  0  0  0  0  0  0  0  0
  1  2  1  0
  2  3  1  0
  3  4  2  0
  4  5  1  0
  5  6  1  0
  6  7  1  0
  7  8  2  0
  7  9  1  0
  9 10  1  0
 10 11  2  0
 11 12  1  0
 12 13  2  0
 13 14  1  0
 14 15  2  0
 15 16  1  0
 15 17  1  0
 17 18  2  0
 11 19  1  0
 19 20  1  0
  5 21  2  0
 21 22  1  0
 22 23  1  0
 23 24  1  0
 22 25  2  0
 25 26  1  0
 26 27  1  0
 25  3  1  0
 20  9  2  0
 18 12  1  0
  1 28  1  0
  1 29  1  0
  1 30  1  0
  4 31  1  0
  6 32  1  0
 10 33  1  0
 13 34  1  0
 14 35  1  0
 17 36  1  0
 18 37  1  0
 21 38  1  0
 24 39  1  0
 24 40  1  0
 24 41  1  0
 27 42  1  0
 27 43  1  0
 27 44  1  0
M  END
>  <UniqueID>  (29) 
29

>  <SMILES>  (29) 
COc1cc(NC(=O)c2cc(-c3ccc(Br)cc3)on2)cc(OC)c1OC

>  <Energy>  (29) 
82.06619471371708

>  <Genealogy>  (29) 
COc1cc(NC(=O)c2cc(-c3ccc(Br)cc3)on2)cc(OC)c1OC (3D coordinates assigned)
COc1cc(NC(=O)c2cc(-c3ccc(Br)cc3)on2)cc(OC)c1OC (optimized conformer: 82.06619471371708 kcal/mol)

>  <smiles>  (29) 
COc1cc(NC(=O)c2cc(-c3ccc(Br)cc3)on2)cc(OC)c1OC

>  <score_type>  (29) 
oracle

>  <origin>  (29) 
adgpu

>  <m_score__min__energy>  (29) 
-8.2100000000000009

>  <m_primary>  (29) 
energy

$$$$
29:0
     RDKit          3D

 52 54  0  0  0  0  0  0  0  0999 V2000
   -2.5940   21.1350  -33.1180 C   0  0  0  0  0  0  0  0  0  0  0  0
   -3.1790   19.9690  -32.5480 O   0  0  0  0  0  0  0  0  0  0  0  0
   -3.3630   18.7570  -33.2320 C   0  0  0  0  0  0  0  0  0  0  0  0
   -2.3280   18.1540  -33.9750 C   0  0  0  0  0  0  0  0  0  0  0  0
   -2.5460   16.9420  -34.6340 C   0  0  0  0  0  0  0  0  0  0  0  0
   -3.7940   16.3250  -34.5660 C   0  0  0  0  0  0  0  0  0  0  0  0
   -4.8290   16.9140  -33.8370 C   0  0  0  0  0  0  0  0  0  0  0  0
   -4.6180   18.1280  -33.1570 C   0  0  0  0  0  0  0  0  0  0  0  0
   -5.6520   18.7400  -32.3720 N   0  0  0  0  0  0  0  0  0  0  0  0
   -6.9690   19.6690  -33.0150 S   0  0  0  0  0  0  0  0  0  0  0  0
   -8.2670   19.0120  -32.6380 O   0  0  0  0  0  0  0  0  0  0  0  0
   -6.8530   19.7210  -34.5120 O   0  0  0  0  0  0  0  0  0  0  0  0
   -6.8950   21.3100  -32.3800 C   0  0  0  0  0  0  0  0  0  0  0  0
   -8.0590   21.9480  -31.9250 C   0  0  0  0  0  0  0  0  0  0  0  0
   -7.9760   23.2060  -31.3190 C   0  0  0  0  0  0  0  0  0  0  0  0
   -6.7330   23.8170  -31.1420 C   0  0  0  0  0  0  0  0  0  0  0  0
   -5.5670   23.1830  -31.5980 C   0  0  0  0  0  0  0  0  0  0  0  0
   -4.2810   23.7640  -31.3650 N   0  0  0  0  0  0  0  0  0  0  0  0
   -4.0270   24.7630  -30.3700 C   0  0  0  0  0  0  0  0  0  0  0  0
   -4.5340   25.9080  -30.5170 O   0  0  0  0  0  0  0  0  0  0  0  0
   -3.1490   24.4850  -29.1740 C   0  0  1  0  0  0  0  0  0  0  0  0
   -2.7890   22.9980  -29.1070 C   0  0  0  0  0  0  0  0  0  0  0  0
   -1.9370   25.2980  -29.2720 N   0  0  0  0  0  0  0  0  0  0  0  0
   -0.8580   25.2980  -28.3280 C   0  0  0  0  0  0  0  0  0  0  0  0
    0.1540   24.5880  -28.5660 O   0  0  0  0  0  0  0  0  0  0  0  0
   -0.8950   26.0990  -27.0910 C   0  0  0  0  0  0  0  0  0  0  0  0
   -1.2930   25.5050  -25.8810 C   0  0  0  0  0  0  0  0  0  0  0  0
   -1.3140   26.2580  -24.7030 C   0  0  0  0  0  0  0  0  0  0  0  0
   -0.9210   27.6000  -24.7200 C   0  0  0  0  0  0  0  0  0  0  0  0
   -0.5010   28.1900  -25.9150 C   0  0  0  0  0  0  0  0  0  0  0  0
   -0.4850   27.4430  -27.0970 C   0  0  0  0  0  0  0  0  0  0  0  0
   -5.6560   21.9500  -32.2500 C   0  0  0  0  0  0  0  0  0  0  0  0
   -2.2571   21.8065  -32.3145 H   0  0  0  0  0  0  0  0  0  0  0  0
   -1.7337   20.8470  -33.7400 H   0  0  0  0  0  0  0  0  0  0  0  0
   -3.3392   21.6525  -33.7400 H   0  0  0  0  0  0  0  0  0  0  0  0
   -1.3434   18.6406  -34.0361 H   0  0  0  0  0  0  0  0  0  0  0  0
   -1.7321   16.4740  -35.2072 H   0  0  0  0  0  0  0  0  0  0  0  0
   -3.9639   15.3717  -35.0879 H   0  0  0  0  0  0  0  0  0  0  0  0
   -5.8142   16.4267  -33.7940 H   0  0  0  0  0  0  0  0  0  0  0  0
   -9.0369   21.4588  -32.0449 H   0  0  0  0  0  0  0  0  0  0  0  0
   -8.8911   23.7146  -30.9815 H   0  0  0  0  0  0  0  0  0  0  0  0
   -6.6677   24.7960  -30.6448 H   0  0  0  0  0  0  0  0  0  0  0  0
   -3.6928   24.7456  -28.2540 H   0  0  0  0  0  0  0  0  0  0  0  0
   -2.7135   22.6861  -28.0549 H   0  0  0  0  0  0  0  0  0  0  0  0
   -3.5704   22.4086  -29.6090 H   0  0  0  0  0  0  0  0  0  0  0  0
   -1.8245   22.8313  -29.6090 H   0  0  0  0  0  0  0  0  0  0  0  0
   -1.5886   24.4456  -25.8607 H   0  0  0  0  0  0  0  0  0  0  0  0
   -1.6404   25.7937  -23.7607 H   0  0  0  0  0  0  0  0  0  0  0  0
   -0.9425   28.1912  -23.7926 H   0  0  0  0  0  0  0  0  0  0  0  0
   -0.1827   29.2429  -25.9259 H   0  0  0  0  0  0  0  0  0  0  0  0
   -0.1501   27.9094  -28.0353 H   0  0  0  0  0  0  0  0  0  0  0  0
   -4.7504   21.4809  -32.6622 H   0  0  0  0  0  0  0  0  0  0  0  0
  1  2  1  0
  2  3  1  0
  3  4  2  0
  4  5  1  0
  5  6  2  0
  6  7  1  0
  7  8  2  0
  8  9  1  0
  9 10  1  0
 10 11  2  0
 10 12  2  0
 10 13  1  0
 13 14  2  0
 14 15  1  0
 15 16  2  0
 16 17  1  0
 17 18  1  0
 18 19  1  0
 19 20  2  0
 19 21  1  0
 21 22  1  0
 21 23  1  0
 23 24  1  0
 24 25  2  0
 24 26  1  0
 26 27  2  0
 27 28  1  0
 28 29  2  0
 29 30  1  0
 30 31  2  0
 17 32  2  0
  8  3  1  0
 32 13  1  0
 31 26  1  0
  1 33  1  0
  1 34  1  0
  1 35  1  0
  4 36  1  0
  5 37  1  0
  6 38  1  0
  7 39  1  0
 14 40  1  0
 15 41  1  0
 16 42  1  0
 21 43  1  1
 22 44  1  0
 22 45  1  0
 22 46  1  0
 27 47  1  0
 28 48  1  0
 29 49  1  0
 30 50  1  0
 31 51  1  0
 32 52  1  0
M  CHG  3   9  -1  18  -1  23  -1
M  END
>  <UniqueID>  (30) 
30

>  <SMILES>  (30) 
COc1ccccc1[N-]S(=O)(=O)c1cccc([N-]C(=O)[C@@H](C)[N-]C(=O)c2ccccc2)c1

>  <Energy>  (30) 
60.912221486934115

>  <Genealogy>  (30) 
COc1ccccc1[N-]S(=O)(=O)c1cccc([N-]C(=O)C(C)[N-]C(=O)c2ccccc2)c1 (protonated)
COc1ccccc1[N-]S(=O)(=O)c1cccc([N-]C(=O)[C@@H](C)[N-]C(=O)c2ccccc2)c1 (chirality)
COc1ccccc1[N-]S(=O)(=O)c1cccc([N-]C(=O)[C@@H](C)[N-]C(=O)c2ccccc2)c1 (3D coordinates assigned)
COc1ccccc1[N-]S(=O)(=O)c1cccc([N-]C(=O)[C@@H](C)[N-]C(=O)c2ccccc2)c1 (optimized conformer: 60.912221486934115 kcal/mol)

>  <smiles>  (30) 
COc1ccccc1NS(=O)(=O)c1cccc(NC(=O)C(C)NC(=O)c2ccccc2)c1

>  <score_type>  (30) 
oracle

>  <origin>  (30) 
adgpu

>  <m_score__min__energy>  (30) 
-12.25

>  <m_primary>  (30) 
energy

$$$$
30:0
     RDKit          3D

 50 53  0  0  0  0  0  0  0  0999 V2000
   -8.6490   19.5360  -33.4400 H   0  0  0  0  0  0  0  0  0  0  0  0
   -7.6060   19.4960  -33.4510 N   0  0  0  0  0  0  0  0  0  0  0  0
   -6.8230   20.2340  -32.7240 C   0  0  0  0  0  0  0  0  0  0  0  0
   -7.3830   21.1740  -31.8340 C   0  0  0  0  0  0  0  0  0  0  0  0
   -8.8110   21.3740  -31.7190 C   0  0  0  0  0  0  0  0  0  0  0  0
   -9.9540   21.5350  -31.6270 N   0  0  0  0  0  0  0  0  0  0  0  0
   -6.5560   21.9390  -31.0230 C   0  0  0  0  0  0  0  0  0  0  0  0
   -7.0019   22.6747  -30.3375 H   0  0  0  0  0  0  0  0  0  0  0  0
   -5.2050   21.7950  -31.0610 N   0  0  0  0  0  0  0  0  0  0  0  0
   -4.4430   22.6080  -30.1500 C   0  0  0  0  0  0  0  0  0  0  0  0
   -3.8520   22.0320  -29.0170 C   0  0  0  0  0  0  0  0  0  0  0  0
   -3.9687   20.9552  -28.8249 H   0  0  0  0  0  0  0  0  0  0  0  0
   -3.1150   22.8220  -28.1310 C   0  0  0  0  0  0  0  0  0  0  0  0
   -2.6497   22.3613  -27.2471 H   0  0  0  0  0  0  0  0  0  0  0  0
   -2.9630   24.2020  -28.3600 C   0  0  0  0  0  0  0  0  0  0  0  0
   -2.1790   25.0420  -27.4190 C   0  0  0  0  0  0  0  0  0  0  0  0
   -2.6490   25.2850  -26.1160 C   0  0  0  0  0  0  0  0  0  0  0  0
   -3.6056   24.8496  -25.7913 H   0  0  0  0  0  0  0  0  0  0  0  0
   -1.9110   26.0750  -25.2300 C   0  0  0  0  0  0  0  0  0  0  0  0
   -2.2891   26.2561  -24.2130 H   0  0  0  0  0  0  0  0  0  0  0  0
   -0.6860   26.6400  -25.6330 C   0  0  0  0  0  0  0  0  0  0  0  0
    0.0900   27.4390  -24.7810 O   0  0  0  0  0  0  0  0  0  0  0  0
    0.2760   27.1900  -23.3910 C   0  0  0  0  0  0  0  0  0  0  0  0
   -0.2818   27.9367  -22.8069 H   0  0  0  0  0  0  0  0  0  0  0  0
   -0.0928   26.1830  -23.1463 H   0  0  0  0  0  0  0  0  0  0  0  0
    1.3463   27.2580  -23.1463 H   0  0  0  0  0  0  0  0  0  0  0  0
   -0.2190   26.3980  -26.9280 C   0  0  0  0  0  0  0  0  0  0  0  0
    0.7375   26.8338  -27.2522 H   0  0  0  0  0  0  0  0  0  0  0  0
   -0.9550   25.6080  -27.8150 C   0  0  0  0  0  0  0  0  0  0  0  0
   -0.5735   25.4277  -28.8309 H   0  0  0  0  0  0  0  0  0  0  0  0
   -3.5660   24.7730  -29.4960 C   0  0  0  0  0  0  0  0  0  0  0  0
   -3.4573   25.8507  -29.6876 H   0  0  0  0  0  0  0  0  0  0  0  0
   -4.3020   23.9820  -30.3830 C   0  0  0  0  0  0  0  0  0  0  0  0
   -4.7716   24.4397  -31.2662 H   0  0  0  0  0  0  0  0  0  0  0  0
   -4.6060   20.9060  -31.9270 C   0  0  0  0  0  0  0  0  0  0  0  0
   -3.1990   20.7870  -31.9610 C   0  0  0  0  0  0  0  0  0  0  0  0
   -2.5877   21.4180  -31.2990 H   0  0  0  0  0  0  0  0  0  0  0  0
   -2.5750   19.8910  -32.8120 C   0  0  0  0  0  0  0  0  0  0  0  0
   -1.4785   19.8032  -32.8064 H   0  0  0  0  0  0  0  0  0  0  0  0
   -3.3250   19.1050  -33.6700 C   0  0  0  0  0  0  0  0  0  0  0  0
   -2.8138   18.3920  -34.3335 H   0  0  0  0  0  0  0  0  0  0  0  0
   -4.7260   19.2000  -33.7100 C   0  0  0  0  0  0  0  0  0  0  0  0
   -5.4090   18.2960  -34.7230 C   0  0  0  0  0  0  0  0  0  0  0  0
   -6.2972   18.8093  -35.1200 H   0  0  0  0  0  0  0  0  0  0  0  0
   -4.6943   18.0756  -35.5296 H   0  0  0  0  0  0  0  0  0  0  0  0
   -5.8400   16.9760  -34.0860 C   0  0  0  0  0  0  0  0  0  0  0  0
   -5.8092   17.0703  -32.9905 H   0  0  0  0  0  0  0  0  0  0  0  0
   -6.8643   16.7324  -34.4044 H   0  0  0  0  0  0  0  0  0  0  0  0
   -5.1568   16.1749  -34.4044 H   0  0  0  0  0  0  0  0  0  0  0  0
   -5.4020   20.0980  -32.8050 C   0  0  0  0  0  0  0  0  0  0  0  0
  1  2  1  0
  2  3  2  0
  3  4  1  0
  4  5  1  0
  5  6  3  0
  4  7  2  0
  7  8  1  0
  7  9  1  0
  9 10  1  0
 10 11  2  0
 11 12  1  0
 11 13  1  0
 13 14  1  0
 13 15  2  0
 15 16  1  0
 16 17  2  0
 17 18  1  0
 17 19  1  0
 19 20  1  0
 19 21  2  0
 21 22  1  0
 22 23  1  0
 23 24  1  0
 23 25  1  0
 23 26  1  0
 21 27  1  0
 27 28  1  0
 27 29  2  0
 29 30  1  0
 15 31  1  0
 31 32  1  0
 31 33  2  0
 33 34  1  0
  9 35  1  0
 35 36  2  0
 36 37  1  0
 36 38  1  0
 38 39  1  0
 38 40  2  0
 40 41  1  0
 40 42  1  0
 42 43  1  0
 43 44  1  0
 43 45  1  0
 43 46  1  0
 46 47  1  0
 46 48  1  0
 46 49  1  0
 42 50  2  0
 50  3  1  0
 33 10  1  0
 50 35  1  0
 29 16  1  0
M  END
>  <UniqueID>  (31) 
31

>  <SMILES>  (31) 
[H]/N=c1\c(C#N)cn(-c2ccc(-c3ccc(OC)cc3)cc2)c2cccc(CC)c12

>  <Energy>  (31) 
82.74122496706876

>  <Genealogy>  (31) 
[H]/N=c1\c(C#N)cn(-c2ccc(-c3ccc(OC)cc3)cc2)c2cccc(CC)c12 (cis-trans isomerization)
[H]/N=c1\c(C#N)cn(-c2ccc(-c3ccc(OC)cc3)cc2)c2cccc(CC)c12 (3D coordinates assigned)
[H]/N=c1\c(C#N)cn(-c2ccc(-c3ccc(OC)cc3)cc2)c2cccc(CC)c12 (optimized conformer: 82.74122496706876 kcal/mol)

>  <smiles>  (31) 
CCc1cccc2c1c(=N)c(C#N)cn2-c1ccc(-c2ccc(OC)cc2)cc1

>  <score_type>  (31) 
oracle

>  <origin>  (31) 
adgpu

>  <m_score__min__energy>  (31) 
-8.8200000000000003

>  <m_primary>  (31) 
energy

$$$$
31:0
     RDKit          3D

 37 38  0  0  0  0  0  0  0  0999 V2000
   -0.8250   26.9140  -27.9440 C   0  0  0  0  0  0  0  0  0  0  0  0
   -1.4780   26.0760  -28.8940 O   0  0  0  0  0  0  0  0  0  0  0  0
   -1.6900   24.6980  -28.7240 C   0  0  0  0  0  0  0  0  0  0  0  0
   -0.9090   23.9250  -27.8430 C   0  0  0  0  0  0  0  0  0  0  0  0
   -1.1460   22.5560  -27.7040 C   0  0  0  0  0  0  0  0  0  0  0  0
   -2.1610   21.9440  -28.4390 C   0  0  0  0  0  0  0  0  0  0  0  0
   -2.4590   20.2240  -28.2600 Cl  0  0  0  0  0  0  0  0  0  0  0  0
   -2.9440   22.7000  -29.3150 C   0  0  0  0  0  0  0  0  0  0  0  0
   -2.7120   24.0810  -29.4650 C   0  0  0  0  0  0  0  0  0  0  0  0
   -3.4960   24.8840  -30.3610 N   0  0  0  0  0  0  0  0  0  0  0  0
   -5.2280   24.8560  -30.4770 S   0  0  0  0  0  0  0  0  0  0  0  0
   -5.6900   26.0740  -31.2240 O   0  0  0  0  0  0  0  0  0  0  0  0
   -5.8110   24.8780  -29.0920 O   0  0  0  0  0  0  0  0  0  0  0  0
   -5.7500   23.4180  -31.3480 C   0  0  0  0  0  0  0  0  0  0  0  0
   -7.0970   23.0310  -31.3340 C   0  0  0  0  0  0  0  0  0  0  0  0
   -7.5050   21.8770  -32.0090 C   0  0  0  0  0  0  0  0  0  0  0  0
   -6.5700   21.1030  -32.7220 C   0  0  0  0  0  0  0  0  0  0  0  0
   -6.9570   19.8950  -33.3980 N   0  0  0  0  0  0  0  0  0  0  0  0
   -6.6210   18.5750  -32.9390 C   0  0  0  0  0  0  0  0  0  0  0  0
   -6.8550   17.3950  -33.8270 C   0  0  0  0  0  0  0  0  0  0  0  0
   -6.1190   18.3970  -31.7950 O   0  0  0  0  0  0  0  0  0  0  0  0
   -5.2210   21.4890  -32.7190 C   0  0  0  0  0  0  0  0  0  0  0  0
   -4.8150   22.6440  -32.0450 C   0  0  0  0  0  0  0  0  0  0  0  0
   -1.0819   26.5843  -26.9265 H   0  0  0  0  0  0  0  0  0  0  0  0
    0.2639   26.8502  -28.0861 H   0  0  0  0  0  0  0  0  0  0  0  0
   -1.1530   27.9543  -28.0861 H   0  0  0  0  0  0  0  0  0  0  0  0
   -0.1073   24.4028  -27.2608 H   0  0  0  0  0  0  0  0  0  0  0  0
   -0.5313   21.9594  -27.0139 H   0  0  0  0  0  0  0  0  0  0  0  0
   -3.7457   22.2141  -29.8905 H   0  0  0  0  0  0  0  0  0  0  0  0
   -7.8358   23.6376  -30.7898 H   0  0  0  0  0  0  0  0  0  0  0  0
   -8.5616   21.5722  -31.9829 H   0  0  0  0  0  0  0  0  0  0  0  0
   -7.5900   19.9790  -34.2260 H   0  0  0  0  0  0  0  0  0  0  0  0
   -7.0322   16.5015  -33.2104 H   0  0  0  0  0  0  0  0  0  0  0  0
   -7.7335   17.5824  -34.4620 H   0  0  0  0  0  0  0  0  0  0  0  0
   -5.9715   17.2330  -34.4620 H   0  0  0  0  0  0  0  0  0  0  0  0
   -4.4773   20.8778  -33.2513 H   0  0  0  0  0  0  0  0  0  0  0  0
   -3.7573   22.9457  -32.0623 H   0  0  0  0  0  0  0  0  0  0  0  0
  1  2  1  0
  2  3  1  0
  3  4  2  0
  4  5  1  0
  5  6  2  0
  6  7  1  0
  6  8  1  0
  8  9  2  0
  9 10  1  0
 10 11  1  0
 11 12  2  0
 11 13  2  0
 11 14  1  0
 14 15  2  0
 15 16  1  0
 16 17  2  0
 17 18  1  0
 18 19  1  0
 19 20  1  0
 19 21  2  0
 17 22  1  0
 22 23  2  0
  9  3  1  0
 23 14  1  0
  1 24  1  0
  1 25  1  0
  1 26  1  0
  4 27  1  0
  5 28  1  0
  8 29  1  0
 15 30  1  0
 16 31  1  0
 18 32  1  0
 20 33  1  0
 20 34  1  0
 20 35  1  0
 22 36  1  0
 23 37  1  0
M  CHG  1  10  -1
M  END
>  <UniqueID>  (32) 
32

>  <SMILES>  (32) 
COc1ccc(Cl)cc1[N-]S(=O)(=O)c1ccc(NC(C)=O)cc1

>  <Energy>  (32) 
41.52713485367353

>  <Genealogy>  (32) 
COc1ccc(Cl)cc1[N-]S(=O)(=O)c1ccc(NC(C)=O)cc1 (protonated)
COc1ccc(Cl)cc1[N-]S(=O)(=O)c1ccc(NC(C)=O)cc1 (3D coordinates assigned)
COc1ccc(Cl)cc1[N-]S(=O)(=O)c1ccc(NC(C)=O)cc1 (optimized conformer: 41.52713485367353 kcal/mol)

>  <smiles>  (32) 
COc1ccc(Cl)cc1NS(=O)(=O)c1ccc(NC(C)=O)cc1

>  <score_type>  (32) 
oracle

>  <origin>  (32) 
adgpu

>  <m_score__min__energy>  (32) 
-10.359999999999999

>  <m_primary>  (32) 
energy

$$$$
32:0
     RDKit          3D

 35 36  0  0  0  0  0  0  0  0999 V2000
   -1.6290   25.4690  -27.8220 C   0  0  0  0  0  0  0  0  0  0  0  0
   -2.3550   25.2980  -29.0350 O   0  0  0  0  0  0  0  0  0  0  0  0
   -2.5510   24.0730  -29.6910 C   0  0  0  0  0  0  0  0  0  0  0  0
   -1.7230   22.9670  -29.4120 C   0  0  0  0  0  0  0  0  0  0  0  0
   -1.9210   21.7490  -30.0550 C   0  0  0  0  0  0  0  0  0  0  0  0
   -2.9390   21.6110  -30.9920 C   0  0  0  0  0  0  0  0  0  0  0  0
   -3.7710   22.6940  -31.3060 C   0  0  0  0  0  0  0  0  0  0  0  0
   -4.8600   22.4920  -32.3370 C   0  0  0  0  0  0  0  0  0  0  0  0
   -6.1630   22.8640  -31.7880 N   0  0  0  0  0  0  0  0  0  0  0  0
   -7.3120   22.0090  -31.8590 C   0  0  0  0  0  0  0  0  0  0  0  0
   -8.6150   22.3770  -31.5990 C   0  0  0  0  0  0  0  0  0  0  0  0
   -9.4070   21.2960  -31.7530 N   0  0  0  0  0  0  0  0  0  0  0  0
   -8.6370   20.2800  -32.1150 N   0  0  0  0  0  0  0  0  0  0  0  0
   -9.1240   18.9220  -32.3130 C   0  0  0  0  0  0  0  0  0  0  0  0
   -7.3500   20.6700  -32.1810 C   0  0  0  0  0  0  0  0  0  0  0  0
   -3.5940   23.9350  -30.6480 C   0  0  0  0  0  0  0  0  0  0  0  0
   -4.4780   24.9820  -30.9810 O   0  0  0  0  0  0  0  0  0  0  0  0
   -5.4910   25.5400  -30.1520 C   0  0  0  0  0  0  0  0  0  0  0  0
   -2.3020   25.3105  -26.9664 H   0  0  0  0  0  0  0  0  0  0  0  0
   -0.8062   24.7401  -27.7813 H   0  0  0  0  0  0  0  0  0  0  0  0
   -1.2180   26.4885  -27.7813 H   0  0  0  0  0  0  0  0  0  0  0  0
   -0.9106   23.0679  -28.6772 H   0  0  0  0  0  0  0  0  0  0  0  0
   -1.2706   20.8932  -29.8215 H   0  0  0  0  0  0  0  0  0  0  0  0
   -3.0926   20.6430  -31.4913 H   0  0  0  0  0  0  0  0  0  0  0  0
   -4.6461   23.1175  -33.2162 H   0  0  0  0  0  0  0  0  0  0  0  0
   -4.8854   21.4301  -32.6229 H   0  0  0  0  0  0  0  0  0  0  0  0
   -6.2590   23.7910  -31.3160 H   0  0  0  0  0  0  0  0  0  0  0  0
   -8.9525   23.3843  -31.3135 H   0  0  0  0  0  0  0  0  0  0  0  0
   -9.2942   18.4473  -31.3354 H   0  0  0  0  0  0  0  0  0  0  0  0
  -10.0683   18.9496  -32.8766 H   0  0  0  0  0  0  0  0  0  0  0  0
   -8.3774   18.3432  -32.8766 H   0  0  0  0  0  0  0  0  0  0  0  0
   -6.4892   20.0373  -32.4432 H   0  0  0  0  0  0  0  0  0  0  0  0
   -5.2228   25.3923  -29.0955 H   0  0  0  0  0  0  0  0  0  0  0  0
   -5.5833   26.6162  -30.3598 H   0  0  0  0  0  0  0  0  0  0  0  0
   -6.4500   25.0429  -30.3598 H   0  0  0  0  0  0  0  0  0  0  0  0
  1  2  1  0
  2  3  1  0
  3  4  2  0
  4  5  1  0
  5  6  2  0
  6  7  1  0
  7  8  1  0
  8  9  1  0
  9 10  1  0
 10 11  1  0
 11 12  2  0
 12 13  1  0
 13 14  1  0
 13 15  1  0
  7 16  2  0
 16 17  1  0
 17 18  1  0
 16  3  1  0
 15 10  2  0
  1 19  1  0
  1 20  1  0
  1 21  1  0
  4 22  1  0
  5 23  1  0
  6 24  1  0
  8 25  1  0
  8 26  1  0
  9 27  1  0
 11 28  1  0
 14 29  1  0
 14 30  1  0
 14 31  1  0
 15 32  1  0
 18 33  1  0
 18 34  1  0
 18 35  1  0
M  END
>  <UniqueID>  (33) 
33

>  <SMILES>  (33) 
COc1cccc(CNc2cnn(C)c2)c1OC

>  <Energy>  (33) 
65.0785558710948

>  <Genealogy>  (33) 
COc1cccc(CNc2cnn(C)c2)c1OC (3D coordinates assigned)
COc1cccc(CNc2cnn(C)c2)c1OC (optimized conformer: 65.0785558710948 kcal/mol)

>  <smiles>  (33) 
COc1cccc(CNc2cnn(C)c2)c1OC

>  <score_type>  (33) 
oracle

>  <origin>  (33) 
adgpu

>  <m_score__min__energy>  (33) 
-7.0300000000000002

>  <m_primary>  (33) 
energy

$$$$
33:0
     RDKit          3D

 48 52  0  0  0  0  0  0  0  0999 V2000
   -6.6600   12.4090  -35.2360 Cl  0  0  0  0  0  0  0  0  0  0  0  0
   -6.2280   13.9770  -34.5810 C   0  0  0  0  0  0  0  0  0  0  0  0
   -7.2020   14.9720  -34.4510 C   0  0  0  0  0  0  0  0  0  0  0  0
   -6.8610   16.2210  -33.9290 C   0  0  0  0  0  0  0  0  0  0  0  0
   -5.5390   16.4930  -33.5340 C   0  0  0  0  0  0  0  0  0  0  0  0
   -5.2110   17.8330  -33.0010 C   0  0  0  0  0  0  0  0  0  0  0  0
   -4.3720   18.6940  -33.7270 C   0  0  0  0  0  0  0  0  0  0  0  0
   -4.0190   19.9410  -33.2050 C   0  0  0  0  0  0  0  0  0  0  0  0
   -4.4880   20.3370  -31.9440 C   0  0  0  0  0  0  0  0  0  0  0  0
   -4.0500   21.6140  -31.3560 C   0  0  0  0  0  0  0  0  0  0  0  0
   -4.6330   22.8760  -31.5190 C   0  0  0  0  0  0  0  0  0  0  0  0
   -5.8600   23.2050  -32.3220 C   0  0  0  0  0  0  0  0  0  0  0  0
   -6.9820   22.2390  -32.0310 C   0  0  0  0  0  0  0  0  0  0  0  0
   -7.7880   22.4130  -30.8930 C   0  0  0  0  0  0  0  0  0  0  0  0
   -8.8550   21.5440  -30.6460 C   0  0  0  0  0  0  0  0  0  0  0  0
   -9.1220   20.4940  -31.5280 C   0  0  0  0  0  0  0  0  0  0  0  0
   -8.3170   20.3050  -32.6540 C   0  0  0  0  0  0  0  0  0  0  0  0
   -7.2460   21.1680  -32.9020 C   0  0  0  0  0  0  0  0  0  0  0  0
   -3.9210   23.7910  -30.8840 O   0  0  0  0  0  0  0  0  0  0  0  0
   -2.8970   23.1870  -30.3280 C   0  0  0  0  0  0  0  0  0  0  0  0
   -1.8860   23.7630  -29.5650 C   0  0  0  0  0  0  0  0  0  0  0  0
   -0.8750   22.9190  -29.0670 C   0  0  0  0  0  0  0  0  0  0  0  0
   -0.9020   21.5340  -29.3400 C   0  0  0  0  0  0  0  0  0  0  0  0
   -1.9390   20.9790  -30.1140 C   0  0  0  0  0  0  0  0  0  0  0  0
   -2.9220   21.8430  -30.5960 C   0  0  0  0  0  0  0  0  0  0  0  0
   -5.3360   19.4840  -31.2230 C   0  0  0  0  0  0  0  0  0  0  0  0
   -5.6890   18.2370  -31.7440 C   0  0  0  0  0  0  0  0  0  0  0  0
   -4.5620   15.4820  -33.6580 C   0  0  0  0  0  0  0  0  0  0  0  0
   -2.9040   15.7190  -33.1120 Cl  0  0  0  0  0  0  0  0  0  0  0  0
   -4.9130   14.2320  -34.1830 C   0  0  0  0  0  0  0  0  0  0  0  0
   -8.2381   14.7702  -34.7604 H   0  0  0  0  0  0  0  0  0  0  0  0
   -7.6323   16.9984  -33.8258 H   0  0  0  0  0  0  0  0  0  0  0  0
   -3.9909   18.3851  -34.7115 H   0  0  0  0  0  0  0  0  0  0  0  0
   -3.3710   20.6145  -33.7851 H   0  0  0  0  0  0  0  0  0  0  0  0
   -6.1902   24.2237  -32.0705 H   0  0  0  0  0  0  0  0  0  0  0  0
   -5.6061   23.1302  -33.3897 H   0  0  0  0  0  0  0  0  0  0  0  0
   -7.5786   23.2361  -30.1939 H   0  0  0  0  0  0  0  0  0  0  0  0
   -9.4852   21.6872  -29.7559 H   0  0  0  0  0  0  0  0  0  0  0  0
   -9.9664   19.8158  -31.3358 H   0  0  0  0  0  0  0  0  0  0  0  0
   -8.5263   19.4761  -33.3462 H   0  0  0  0  0  0  0  0  0  0  0  0
   -6.6068   21.0083  -33.7829 H   0  0  0  0  0  0  0  0  0  0  0  0
   -1.8769   24.8432  -29.3575 H   0  0  0  0  0  0  0  0  0  0  0  0
   -0.0593   23.3412  -28.4617 H   0  0  0  0  0  0  0  0  0  0  0  0
   -0.1073   20.8840  -28.9452 H   0  0  0  0  0  0  0  0  0  0  0  0
   -1.9727   19.9012  -30.3310 H   0  0  0  0  0  0  0  0  0  0  0  0
   -5.7248   19.7982  -30.2431 H   0  0  0  0  0  0  0  0  0  0  0  0
   -6.3445   17.5683  -31.1669 H   0  0  0  0  0  0  0  0  0  0  0  0
   -4.1493   13.4466  -34.2826 H   0  0  0  0  0  0  0  0  0  0  0  0
  1  2  1  0
  2  3  2  0
  3  4  1  0
  4  5  2  0
  5  6  1  0
  6  7  2  0
  7  8  1  0
  8  9  2  0
  9 10  1  0
 10 11  2  0
 11 12  1  0
 12 13  1  0
 13 14  2  0
 14 15  1  0
 15 16  2  0
 16 17  1  0
 17 18  2  0
 11 19  1  0
 19 20  1  0
 20 21  2  0
 21 22  1  0
 22 23  2  0
 23 24  1  0
 24 25  2  0
  9 26  1  0
 26 27  2  0
  5 28  1  0
 28 29  1  0
 28 30  2  0
 30  2  1  0
 27  6  1  0
 25 10  1  0
 18 13  1  0
 25 20  1  0
  3 31  1  0
  4 32  1  0
  7 33  1  0
  8 34  1  0
 12 35  1  0
 12 36  1  0
 14 37  1  0
 15 38  1  0
 16 39  1  0
 17 40  1  0
 18 41  1  0
 21 42  1  0
 22 43  1  0
 23 44  1  0
 24 45  1  0
 26 46  1  0
 27 47  1  0
 30 48  1  0
M  END
>  <UniqueID>  (34) 
34

>  <SMILES>  (34) 
Clc1ccc(-c2ccc(-c3c(Cc4ccccc4)oc4ccccc34)cc2)c(Cl)c1

>  <Energy>  (34) 
98.43819501266377

>  <Genealogy>  (34) 
Clc1ccc(-c2ccc(-c3c(Cc4ccccc4)oc4ccccc34)cc2)c(Cl)c1 (3D coordinates assigned)
Clc1ccc(-c2ccc(-c3c(Cc4ccccc4)oc4ccccc34)cc2)c(Cl)c1 (optimized conformer: 98.43819501266377 kcal/mol)

>  <smiles>  (34) 
Clc1ccc(-c2ccc(-c3c(Cc4ccccc4)oc4ccccc34)cc2)c(Cl)c1

>  <score_type>  (34) 
oracle

>  <origin>  (34) 
adgpu

>  <m_score__min__energy>  (34) 
-9.5299999999999994

>  <m_primary>  (34) 
energy

$$$$
34:0
     RDKit          3D

 62 66  0  0  0  0  0  0  0  0999 V2000
   -4.9770   15.9440  -32.3540 C   0  0  0  0  0  0  0  0  0  0  0  0
   -6.1180   16.8290  -32.6510 N   0  0  0  0  0  0  0  0  0  0  0  0
   -6.1140   17.2800  -34.0680 C   0  0  0  0  0  0  0  0  0  0  0  0
   -5.7790   18.7720  -34.2500 C   0  0  0  0  0  0  0  0  0  0  0  0
   -4.8010   19.2020  -33.2470 N   0  0  0  0  0  0  0  0  0  0  0  0
   -3.5000   19.6670  -33.6480 C   0  0  0  0  0  0  0  0  0  0  0  0
   -2.5990   18.7540  -34.2170 C   0  0  0  0  0  0  0  0  0  0  0  0
   -1.2970   19.1410  -34.5380 C   0  0  0  0  0  0  0  0  0  0  0  0
   -0.8650   20.4570  -34.2980 C   0  0  0  0  0  0  0  0  0  0  0  0
    0.5190   20.8900  -34.6270 C   0  0  0  0  0  0  0  0  0  0  0  0
    1.5990   19.9910  -34.6150 C   0  0  0  0  0  0  0  0  0  0  0  0
    2.8730   20.4450  -34.9560 C   0  0  0  0  0  0  0  0  0  0  0  0
    3.0700   21.7790  -35.3070 C   0  0  0  0  0  0  0  0  0  0  0  0
    1.9770   22.6630  -35.3120 C   0  0  0  0  0  0  0  0  0  0  0  0
    2.1240   24.0900  -35.6980 C   0  0  0  0  0  0  0  0  0  0  0  0
    1.0540   24.8150  -36.2630 C   0  0  0  0  0  0  0  0  0  0  0  0
    1.2180   26.1580  -36.6160 C   0  0  0  0  0  0  0  0  0  0  0  0
    2.4450   26.7920  -36.4210 C   0  0  0  0  0  0  0  0  0  0  0  0
    3.5170   26.0810  -35.8770 C   0  0  0  0  0  0  0  0  0  0  0  0
    3.3600   24.7390  -35.5200 C   0  0  0  0  0  0  0  0  0  0  0  0
    0.7430   22.1860  -34.9810 N   0  0  0  0  0  0  0  0  0  0  0  0
   -1.7630   21.3700  -33.7180 C   0  0  0  0  0  0  0  0  0  0  0  0
   -3.0810   20.9980  -33.4140 C   0  0  0  0  0  0  0  0  0  0  0  0
   -3.9680   21.9950  -32.8760 N   0  0  0  0  0  0  0  0  0  0  0  0
   -4.0610   22.2730  -31.4690 C   0  0  0  0  0  0  0  0  0  0  0  0
   -3.3460   21.6250  -30.6560 O   0  0  0  0  0  0  0  0  0  0  0  0
   -5.0610   23.2320  -30.9380 C   0  0  0  0  0  0  0  0  0  0  0  0
   -6.4050   23.0750  -31.3270 C   0  0  0  0  0  0  0  0  0  0  0  0
   -7.3900   23.9550  -30.8700 C   0  0  0  0  0  0  0  0  0  0  0  0
   -7.0500   25.0000  -30.0130 C   0  0  0  0  0  0  0  0  0  0  0  0
   -5.7250   25.1650  -29.6050 C   0  0  0  0  0  0  0  0  0  0  0  0
   -4.7270   24.2910  -30.0580 C   0  0  0  0  0  0  0  0  0  0  0  0
   -3.1030   24.5370  -29.4290 Cl  0  0  0  0  0  0  0  0  0  0  0  0
   -5.0750   18.9440  -31.8310 C   0  0  0  0  0  0  0  0  0  0  0  0
   -6.2230   17.9330  -31.6740 C   0  0  0  0  0  0  0  0  0  0  0  0
   -4.8583   15.8519  -31.2643 H   0  0  0  0  0  0  0  0  0  0  0  0
   -5.1611   14.9502  -32.7880 H   0  0  0  0  0  0  0  0  0  0  0  0
   -4.0602   16.3695  -32.7880 H   0  0  0  0  0  0  0  0  0  0  0  0
   -5.3667   16.6883  -34.6171 H   0  0  0  0  0  0  0  0  0  0  0  0
   -7.1348   17.1342  -34.4510 H   0  0  0  0  0  0  0  0  0  0  0  0
   -5.3606   18.9296  -35.2550 H   0  0  0  0  0  0  0  0  0  0  0  0
   -6.6992   19.3619  -34.1269 H   0  0  0  0  0  0  0  0  0  0  0  0
   -2.9227   17.7210  -34.4124 H   0  0  0  0  0  0  0  0  0  0  0  0
   -0.6040   18.4111  -34.9819 H   0  0  0  0  0  0  0  0  0  0  0  0
    1.4410   18.9380  -34.3390 H   0  0  0  0  0  0  0  0  0  0  0  0
    3.7242   19.7483  -34.9478 H   0  0  0  0  0  0  0  0  0  0  0  0
    4.0738   22.1379  -35.5783 H   0  0  0  0  0  0  0  0  0  0  0  0
    0.0849   24.3210  -36.4268 H   0  0  0  0  0  0  0  0  0  0  0  0
    0.3756   26.7170  -37.0494 H   0  0  0  0  0  0  0  0  0  0  0  0
    2.5681   27.8501  -36.6952 H   0  0  0  0  0  0  0  0  0  0  0  0
    4.4869   26.5784  -35.7292 H   0  0  0  0  0  0  0  0  0  0  0  0
    4.2104   24.1849  -35.0960 H   0  0  0  0  0  0  0  0  0  0  0  0
   -1.4263   22.3940  -33.4987 H   0  0  0  0  0  0  0  0  0  0  0  0
   -4.7650   22.2960  -33.4800 H   0  0  0  0  0  0  0  0  0  0  0  0
   -6.6832   22.2496  -31.9988 H   0  0  0  0  0  0  0  0  0  0  0  0
   -8.4349   23.8226  -31.1872 H   0  0  0  0  0  0  0  0  0  0  0  0
   -7.8254   25.6948  -29.6580 H   0  0  0  0  0  0  0  0  0  0  0  0
   -5.4622   25.9870  -28.9229 H   0  0  0  0  0  0  0  0  0  0  0  0
   -4.1694   18.5384  -31.3562 H   0  0  0  0  0  0  0  0  0  0  0  0
   -5.3681   19.8889  -31.3500 H   0  0  0  0  0  0  0  0  0  0  0  0
   -6.1918   17.5135  -30.6576 H   0  0  0  0  0  0  0  0  0  0  0  0
   -7.1711   18.4608  -31.8543 H   0  0  0  0  0  0  0  0  0  0  0  0
  1  2  1  0
  2  3  1  0
  3  4  1  0
  4  5  1  0
  5  6  1  0
  6  7  2  0
  7  8  1  0
  8  9  2  0
  9 10  1  0
 10 11  2  0
 11 12  1  0
 12 13  2  0
 13 14  1  0
 14 15  1  0
 15 16  2  0
 16 17  1  0
 17 18  2  0
 18 19  1  0
 19 20  2  0
 14 21  2  0
  9 22  1  0
 22 23  2  0
 23 24  1  0
 24 25  1  0
 25 26  2  0
 25 27  1  0
 27 28  2  0
 28 29  1  0
 29 30  2  0
 30 31  1  0
 31 32  2  0
 32 33  1  0
  5 34  1  0
 34 35  1  0
 35  2  1  0
 23  6  1  0
 32 27  1  0
 21 10  1  0
 20 15  1  0
  1 36  1  0
  1 37  1  0
  1 38  1  0
  3 39  1  0
  3 40  1  0
  4 41  1  0
  4 42  1  0
  7 43  1  0
  8 44  1  0
 11 45  1  0
 12 46  1  0
 13 47  1  0
 16 48  1  0
 17 49  1  0
 18 50  1  0
 19 51  1  0
 20 52  1  0
 22 53  1  0
 24 54  1  0
 28 55  1  0
 29 56  1  0
 30 57  1  0
 31 58  1  0
 34 59  1  0
 34 60  1  0
 35 61  1  0
 35 62  1  0
M  END
>  <UniqueID>  (35) 
35

>  <SMILES>  (35) 
CN1CCN(c2ccc(-c3cccc(-c4ccccc4)n3)cc2NC(=O)c2ccccc2Cl)CC1

>  <Energy>  (35) 
98.47318043829168

>  <Genealogy>  (35) 
CN1CCN(c2ccc(-c3cccc(-c4ccccc4)n3)cc2NC(=O)c2ccccc2Cl)CC1 (3D coordinates assigned)
CN1CCN(c2ccc(-c3cccc(-c4ccccc4)n3)cc2NC(=O)c2ccccc2Cl)CC1 (nonaromatic ring conformer: 98.47318043829168 kcal/mol)

>  <smiles>  (35) 
CN1CCN(c2ccc(-c3cccc(-c4ccccc4)n3)cc2NC(=O)c2ccccc2Cl)CC1

>  <score_type>  (35) 
oracle

>  <origin>  (35) 
adgpu

>  <m_score__min__energy>  (35) 
-10.550000000000001

>  <m_primary>  (35) 
energy

$$$$
35:0
     RDKit          3D

 31 33  0  0  0  0  0  0  0  0999 V2000
   -3.6630   23.8200  -30.6840 C   0  0  0  0  0  0  0  0  0  0  0  0
   -4.5960   22.8460  -31.0510 C   0  0  0  0  0  0  0  0  0  0  0  0
   -5.9490   23.1990  -31.2000 C   0  0  0  0  0  0  0  0  0  0  0  0
   -6.9580   22.1830  -31.5890 C   0  0  0  0  0  0  0  0  0  0  0  0
   -8.2840   22.4220  -31.4020 N   0  0  0  0  0  0  0  0  0  0  0  0
   -9.2210   21.5050  -31.7540 C   0  0  0  0  0  0  0  0  0  0  0  0
   -8.8300   20.2900  -32.3170 C   0  0  0  0  0  0  0  0  0  0  0  0
   -7.4630   20.0460  -32.5060 C   0  0  0  0  0  0  0  0  0  0  0  0
   -6.9910   18.8130  -33.0840 N   0  0  0  0  0  0  0  0  0  0  0  0
   -7.3510   17.4870  -32.6070 C   0  0  0  0  0  0  0  0  0  0  0  0
   -6.4980   16.5150  -33.4110 C   0  0  0  0  0  0  0  0  0  0  0  0
   -5.9790   17.3050  -34.6080 C   0  0  0  0  0  0  0  0  0  0  0  0
   -6.0860   18.7730  -34.2200 C   0  0  0  0  0  0  0  0  0  0  0  0
   -6.5650   21.0010  -32.1380 N   0  0  0  0  0  0  0  0  0  0  0  0
   -6.3260   24.5340  -30.9710 C   0  0  0  0  0  0  0  0  0  0  0  0
   -5.3590   25.4750  -30.6050 C   0  0  0  0  0  0  0  0  0  0  0  0
   -4.0590   25.1010  -30.4710 N   0  0  0  0  0  0  0  0  0  0  0  0
   -2.6037   23.5475  -30.5673 H   0  0  0  0  0  0  0  0  0  0  0  0
   -4.2734   21.8084  -31.2224 H   0  0  0  0  0  0  0  0  0  0  0  0
  -10.2881   21.7199  -31.5954 H   0  0  0  0  0  0  0  0  0  0  0  0
   -9.5795   19.5387  -32.6067 H   0  0  0  0  0  0  0  0  0  0  0  0
   -7.1313   17.3928  -31.5333 H   0  0  0  0  0  0  0  0  0  0  0  0
   -8.4250   17.2869  -32.7351 H   0  0  0  0  0  0  0  0  0  0  0  0
   -5.6588   16.1482  -32.8018 H   0  0  0  0  0  0  0  0  0  0  0  0
   -7.0781   15.6359  -33.7283 H   0  0  0  0  0  0  0  0  0  0  0  0
   -4.9319   17.0400  -34.8159 H   0  0  0  0  0  0  0  0  0  0  0  0
   -6.5577   17.0853  -35.5173 H   0  0  0  0  0  0  0  0  0  0  0  0
   -5.0989   19.1685  -33.9384 H   0  0  0  0  0  0  0  0  0  0  0  0
   -6.4535   19.3884  -35.0544 H   0  0  0  0  0  0  0  0  0  0  0  0
   -7.3779   24.8369  -31.0794 H   0  0  0  0  0  0  0  0  0  0  0  0
   -5.6507   26.5202  -30.4251 H   0  0  0  0  0  0  0  0  0  0  0  0
  1  2  2  0
  2  3  1  0
  3  4  1  0
  4  5  2  0
  5  6  1  0
  6  7  2  0
  7  8  1  0
  8  9  1  0
  9 10  1  0
 10 11  1  0
 11 12  1  0
 12 13  1  0
  8 14  2  0
  3 15  2  0
 15 16  1  0
 16 17  2  0
 17  1  1  0
 14  4  1  0
 13  9  1  0
  1 18  1  0
  2 19  1  0
  6 20  1  0
  7 21  1  0
 10 22  1  0
 10 23  1  0
 11 24  1  0
 11 25  1  0
 12 26  1  0
 12 27  1  0
 13 28  1  0
 13 29  1  0
 15 30  1  0
 16 31  1  0
M  END
>  <UniqueID>  (36) 
36

>  <SMILES>  (36) 
c1cc(-c2nccc(N3CCCC3)n2)ccn1

>  <Energy>  (36) 
35.27417264409495

>  <Genealogy>  (36) 
c1cc(-c2nccc(N3CCCC3)n2)ccn1 (3D coordinates assigned)
c1cc(-c2nccc(N3CCCC3)n2)ccn1 (nonaromatic ring conformer: 35.27417264409495 kcal/mol)

>  <smiles>  (36) 
c1cc(-c2nccc(N3CCCC3)n2)ccn1

>  <score_type>  (36) 
oracle

>  <origin>  (36) 
adgpu

>  <m_score__min__energy>  (36) 
-7.3099999999999996

>  <m_primary>  (36) 
energy

$$$$
36:0
     RDKit          3D

 39 41  0  0  0  0  0  0  0  0999 V2000
   -7.8290   19.3170  -32.2250 C   0  0  0  0  0  0  0  0  0  0  0  0
   -6.9600   18.4230  -33.0670 C   0  0  0  0  0  0  0  0  0  0  0  0
   -7.2440   17.0480  -33.1240 C   0  0  0  0  0  0  0  0  0  0  0  0
   -6.4340   16.1870  -33.8700 C   0  0  0  0  0  0  0  0  0  0  0  0
   -5.3340   16.6910  -34.5670 C   0  0  0  0  0  0  0  0  0  0  0  0
   -5.0520   18.0580  -34.5340 C   0  0  0  0  0  0  0  0  0  0  0  0
   -5.8710   18.9350  -33.8120 C   0  0  0  0  0  0  0  0  0  0  0  0
   -5.5640   20.3010  -33.8300 O   0  0  0  0  0  0  0  0  0  0  0  0
   -4.8370   20.9610  -32.8300 C   0  0  0  0  0  0  0  0  0  0  0  0
   -3.4410   20.8280  -32.7110 C   0  0  0  0  0  0  0  0  0  0  0  0
   -2.7500   21.5150  -31.7110 C   0  0  0  0  0  0  0  0  0  0  0  0
   -3.4400   22.3460  -30.8130 C   0  0  0  0  0  0  0  0  0  0  0  0
   -2.7070   23.0920  -29.7630 C   0  0  0  0  0  0  0  0  0  0  0  0
   -1.8640   22.3790  -28.8900 C   0  0  0  0  0  0  0  0  0  0  0  0
   -1.0770   23.0510  -27.9540 C   0  0  0  0  0  0  0  0  0  0  0  0
   -1.1130   24.4440  -27.8820 C   0  0  0  0  0  0  0  0  0  0  0  0
   -1.9520   25.1660  -28.7320 C   0  0  0  0  0  0  0  0  0  0  0  0
   -2.7750   24.5050  -29.6530 C   0  0  0  0  0  0  0  0  0  0  0  0
   -3.6530   25.2990  -30.4640 N   0  0  0  0  0  0  0  0  0  0  0  0
   -5.0640   25.4190  -30.2630 C   0  0  0  0  0  0  0  0  0  0  0  0
   -5.8670   25.3370  -31.2300 O   0  0  0  0  0  0  0  0  0  0  0  0
   -4.8380   22.4470  -30.9100 C   0  0  0  0  0  0  0  0  0  0  0  0
   -5.5280   21.7590  -31.9110 C   0  0  0  0  0  0  0  0  0  0  0  0
   -7.6362   19.1187  -31.1603 H   0  0  0  0  0  0  0  0  0  0  0  0
   -7.5991   20.3690  -32.4495 H   0  0  0  0  0  0  0  0  0  0  0  0
   -8.8871   19.1170  -32.4495 H   0  0  0  0  0  0  0  0  0  0  0  0
   -8.1100   16.6462  -32.5776 H   0  0  0  0  0  0  0  0  0  0  0  0
   -6.6632   15.1118  -33.9080 H   0  0  0  0  0  0  0  0  0  0  0  0
   -4.6892   16.0105  -35.1425 H   0  0  0  0  0  0  0  0  0  0  0  0
   -4.1802   18.4490  -35.0791 H   0  0  0  0  0  0  0  0  0  0  0  0
   -2.8915   20.1796  -33.4093 H   0  0  0  0  0  0  0  0  0  0  0  0
   -1.6588   21.4048  -31.6259 H   0  0  0  0  0  0  0  0  0  0  0  0
   -1.8252   21.2811  -28.9462 H   0  0  0  0  0  0  0  0  0  0  0  0
   -0.4277   22.4821  -27.2723 H   0  0  0  0  0  0  0  0  0  0  0  0
   -0.4797   24.9734  -27.1549 H   0  0  0  0  0  0  0  0  0  0  0  0
   -1.9672   26.2646  -28.6783 H   0  0  0  0  0  0  0  0  0  0  0  0
   -5.4540   25.5855  -29.2480 H   0  0  0  0  0  0  0  0  0  0  0  0
   -5.3923   23.0713  -30.1937 H   0  0  0  0  0  0  0  0  0  0  0  0
   -6.6226   21.8451  -31.9774 H   0  0  0  0  0  0  0  0  0  0  0  0
  1  2  1  0
  2  3  2  0
  3  4  1  0
  4  5  2  0
  5  6  1  0
  6  7  2  0
  7  8  1  0
  8  9  1  0
  9 10  2  0
 10 11  1  0
 11 12  2  0
 12 13  1  0
 13 14  2  0
 14 15  1  0
 15 16  2  0
 16 17  1  0
 17 18  2  0
 18 19  1  0
 19 20  1  0
 20 21  2  0
 12 22  1  0
 22 23  2  0
  7  2  1  0
 23  9  1  0
 18 13  1  0
  1 24  1  0
  1 25  1  0
  1 26  1  0
  3 27  1  0
  4 28  1  0
  5 29  1  0
  6 30  1  0
 10 31  1  0
 11 32  1  0
 14 33  1  0
 15 34  1  0
 16 35  1  0
 17 36  1  0
 20 37  1  0
 22 38  1  0
 23 39  1  0
M  CHG  1  19  -1
M  END
>  <UniqueID>  (37) 
37

>  <SMILES>  (37) 
Cc1ccccc1Oc1ccc(-c2ccccc2[N-]C=O)cc1

>  <Energy>  (37) 
61.820808951697295

>  <Genealogy>  (37) 
Cc1ccccc1Oc1ccc(-c2ccccc2[N-]C=O)cc1 (protonated)
Cc1ccccc1Oc1ccc(-c2ccccc2[N-]C=O)cc1 (3D coordinates assigned)
Cc1ccccc1Oc1ccc(-c2ccccc2[N-]C=O)cc1 (optimized conformer: 61.820808951697295 kcal/mol)

>  <smiles>  (37) 
Cc1ccccc1Oc1ccc(-c2ccccc2NC=O)cc1

>  <score_type>  (37) 
oracle

>  <origin>  (37) 
adgpu

>  <m_score__min__energy>  (37) 
-9.6999999999999993

>  <m_primary>  (37) 
energy

$$$$
37:0
     RDKit          3D

 46 49  0  0  0  0  0  0  0  0999 V2000
   -2.7530   15.0900  -34.8180 C   0  0  0  0  0  0  0  0  0  0  0  0
   -3.8000   16.1510  -34.7550 C   0  0  0  0  0  0  0  0  0  0  0  0
   -4.0390   17.0210  -35.7550 N   0  0  0  0  0  0  0  0  0  0  0  0
   -4.9670   17.8050  -35.2950 O   0  0  0  0  0  0  0  0  0  0  0  0
   -5.2810   17.4510  -34.0710 C   0  0  0  0  0  0  0  0  0  0  0  0
   -6.2980   18.1310  -33.2460 C   0  0  0  0  0  0  0  0  0  0  0  0
   -7.4140   17.4260  -32.7730 C   0  0  0  0  0  0  0  0  0  0  0  0
   -8.3460   18.0550  -32.0100 N   0  0  0  0  0  0  0  0  0  0  0  0
   -8.2370   19.3680  -31.6780 C   0  0  0  0  0  0  0  0  0  0  0  0
   -7.1400   20.1240  -32.1240 C   0  0  0  0  0  0  0  0  0  0  0  0
   -7.0130   21.5610  -31.7700 C   0  0  0  0  0  0  0  0  0  0  0  0
   -8.1080   22.4300  -31.9160 C   0  0  0  0  0  0  0  0  0  0  0  0
   -7.9860   23.7800  -31.5830 C   0  0  0  0  0  0  0  0  0  0  0  0
   -6.7770   24.2800  -31.0980 C   0  0  0  0  0  0  0  0  0  0  0  0
   -5.6690   23.4300  -30.9330 C   0  0  0  0  0  0  0  0  0  0  0  0
   -4.3760   23.9520  -30.4290 C   0  0  0  0  0  0  0  0  0  0  0  0
   -3.9760   25.0870  -30.8080 O   0  0  0  0  0  0  0  0  0  0  0  0
   -3.5540   23.1660  -29.5500 N   0  0  0  0  0  0  0  0  0  0  0  0
   -2.4930   23.7260  -28.7540 C   0  0  0  0  0  0  0  0  0  0  0  0
   -1.1590   23.6260  -29.1870 C   0  0  0  0  0  0  0  0  0  0  0  0
   -0.1240   24.1960  -28.4440 C   0  0  0  0  0  0  0  0  0  0  0  0
   -0.4080   24.8850  -27.2640 C   0  0  0  0  0  0  0  0  0  0  0  0
    0.5980   25.4440  -26.5470 F   0  0  0  0  0  0  0  0  0  0  0  0
   -1.7280   25.0050  -26.8260 C   0  0  0  0  0  0  0  0  0  0  0  0
   -2.7790   24.4270  -27.5570 C   0  0  0  0  0  0  0  0  0  0  0  0
   -4.1920   24.5720  -27.0590 C   0  0  0  0  0  0  0  0  0  0  0  0
   -5.7960   22.0710  -31.2810 C   0  0  0  0  0  0  0  0  0  0  0  0
   -6.1680   19.4870  -32.9140 C   0  0  0  0  0  0  0  0  0  0  0  0
   -4.5540   16.3920  -33.6630 N   0  0  0  0  0  0  0  0  0  0  0  0
   -2.4649   14.7981  -33.7973 H   0  0  0  0  0  0  0  0  0  0  0  0
   -3.1504   14.2140  -35.3516 H   0  0  0  0  0  0  0  0  0  0  0  0
   -1.8718   15.4757  -35.3516 H   0  0  0  0  0  0  0  0  0  0  0  0
   -7.5353   16.3610  -33.0202 H   0  0  0  0  0  0  0  0  0  0  0  0
   -9.0116   19.8415  -31.0569 H   0  0  0  0  0  0  0  0  0  0  0  0
   -9.0660   22.0442  -32.2946 H   0  0  0  0  0  0  0  0  0  0  0  0
   -8.8475   24.4533  -31.7036 H   0  0  0  0  0  0  0  0  0  0  0  0
   -6.6900   25.3465  -30.8430 H   0  0  0  0  0  0  0  0  0  0  0  0
   -3.6770   22.1290  -29.5590 H   0  0  0  0  0  0  0  0  0  0  0  0
   -0.9286   23.0929  -30.1212 H   0  0  0  0  0  0  0  0  0  0  0  0
    0.9163   24.1021  -28.7888 H   0  0  0  0  0  0  0  0  0  0  0  0
   -1.9471   25.5571  -25.9002 H   0  0  0  0  0  0  0  0  0  0  0  0
   -4.1949   24.5723  -25.9590 H   0  0  0  0  0  0  0  0  0  0  0  0
   -4.6152   25.5183  -27.4270 H   0  0  0  0  0  0  0  0  0  0  0  0
   -4.7986   23.7314  -27.4270 H   0  0  0  0  0  0  0  0  0  0  0  0
   -4.9322   21.3993  -31.1690 H   0  0  0  0  0  0  0  0  0  0  0  0
   -5.2987   20.0564  -33.2746 H   0  0  0  0  0  0  0  0  0  0  0  0
  1  2  1  0
  2  3  2  0
  3  4  1  0
  4  5  1  0
  5  6  1  0
  6  7  2  0
  7  8  1  0
  8  9  2  0
  9 10  1  0
 10 11  1  0
 11 12  2  0
 12 13  1  0
 13 14  2  0
 14 15  1  0
 15 16  1  0
 16 17  2  0
 16 18  1  0
 18 19  1  0
 19 20  2  0
 20 21  1  0
 21 22  2  0
 22 23  1  0
 22 24  1  0
 24 25  2  0
 25 26  1  0
 15 27  2  0
 10 28  2  0
  5 29  2  0
 29  2  1  0
 28  6  1  0
 27 11  1  0
 25 19  1  0
  1 30  1  0
  1 31  1  0
  1 32  1  0
  7 33  1  0
  9 34  1  0
 12 35  1  0
 13 36  1  0
 14 37  1  0
 18 38  1  0
 20 39  1  0
 21 40  1  0
 24 41  1  0
 26 42  1  0
 26 43  1  0
 26 44  1  0
 27 45  1  0
 28 46  1  0
M  END
>  <UniqueID>  (38) 
38

>  <SMILES>  (38) 
Cc1noc(-c2cncc(-c3cccc(C(=O)Nc4ccc(F)cc4C)c3)c2)n1

>  <Energy>  (38) 
94.58125958619318

>  <Genealogy>  (38) 
Cc1noc(-c2cncc(-c3cccc(C(=O)Nc4ccc(F)cc4C)c3)c2)n1 (3D coordinates assigned)
Cc1noc(-c2cncc(-c3cccc(C(=O)Nc4ccc(F)cc4C)c3)c2)n1 (optimized conformer: 94.58125958619318 kcal/mol)

>  <smiles>  (38) 
Cc1noc(-c2cncc(-c3cccc(C(=O)Nc4ccc(F)cc4C)c3)c2)n1

>  <score_type>  (38) 
oracle

>  <origin>  (38) 
adgpu

>  <m_score__min__energy>  (38) 
-9.5700000000000003

>  <m_primary>  (38) 
energy

$$$$
38:0
     RDKit          3D

 46 48  0  0  0  0  0  0  0  0999 V2000
   -4.8520   24.5030  -28.5440 N   0  0  0  0  0  0  0  0  0  0  0  0
   -5.1380   24.6110  -30.2450 S   0  0  0  0  0  0  0  0  0  0  0  0
   -6.5740   24.9790  -30.4930 O   0  0  0  0  0  0  0  0  0  0  0  0
   -4.2540   25.6780  -30.8260 O   0  0  0  0  0  0  0  0  0  0  0  0
   -4.7990   23.0570  -30.9980 C   0  0  0  0  0  0  0  0  0  0  0  0
   -4.3900   21.9600  -30.2250 C   0  0  0  0  0  0  0  0  0  0  0  0
   -4.1050   20.7360  -30.8380 C   0  0  0  0  0  0  0  0  0  0  0  0
   -4.2390   20.5910  -32.2300 C   0  0  0  0  0  0  0  0  0  0  0  0
   -3.9320   19.3500  -32.8880 N   0  0  0  0  0  0  0  0  0  0  0  0
   -2.7840   19.1810  -33.7790 C   0  0  0  0  0  0  0  0  0  0  0  0
   -2.7300   17.7580  -34.2720 C   0  0  0  0  0  0  0  0  0  0  0  0
   -1.4850   17.1510  -34.5020 C   0  0  0  0  0  0  0  0  0  0  0  0
   -1.4140   15.8460  -34.9920 C   0  0  0  0  0  0  0  0  0  0  0  0
   -2.5840   15.1380  -35.2680 C   0  0  0  0  0  0  0  0  0  0  0  0
   -3.8300   15.7320  -35.0550 C   0  0  0  0  0  0  0  0  0  0  0  0
   -3.9160   17.0520  -34.5680 C   0  0  0  0  0  0  0  0  0  0  0  0
   -5.1510   17.6900  -34.3710 O   0  0  0  0  0  0  0  0  0  0  0  0
   -6.2670   17.1130  -33.6930 C   0  0  0  0  0  0  0  0  0  0  0  0
   -7.0680   18.1980  -33.0340 C   0  0  0  0  0  0  0  0  0  0  0  0
   -7.9550   17.8840  -31.9910 C   0  0  0  0  0  0  0  0  0  0  0  0
   -8.7150   18.8890  -31.3860 C   0  0  0  0  0  0  0  0  0  0  0  0
   -8.6020   20.2120  -31.8210 C   0  0  0  0  0  0  0  0  0  0  0  0
   -7.7310   20.5300  -32.8670 C   0  0  0  0  0  0  0  0  0  0  0  0
   -6.9650   19.5290  -33.4720 C   0  0  0  0  0  0  0  0  0  0  0  0
   -4.6370   21.6960  -32.9960 C   0  0  0  0  0  0  0  0  0  0  0  0
   -4.9190   22.9190  -32.3850 C   0  0  0  0  0  0  0  0  0  0  0  0
   -4.8050   25.4820  -28.1790 H   0  0  0  0  0  0  0  0  0  0  0  0
   -5.6970   24.0580  -28.1180 H   0  0  0  0  0  0  0  0  0  0  0  0
   -4.2933   22.0630  -29.1341 H   0  0  0  0  0  0  0  0  0  0  0  0
   -3.7743   19.8823  -30.2281 H   0  0  0  0  0  0  0  0  0  0  0  0
   -4.3680   18.4750  -32.5150 H   0  0  0  0  0  0  0  0  0  0  0  0
   -2.8836   19.8619  -34.6372 H   0  0  0  0  0  0  0  0  0  0  0  0
   -1.8592   19.4121  -33.2301 H   0  0  0  0  0  0  0  0  0  0  0  0
   -0.5592   17.7077  -34.2946 H   0  0  0  0  0  0  0  0  0  0  0  0
   -0.4343   15.3752  -35.1608 H   0  0  0  0  0  0  0  0  0  0  0  0
   -2.5251   14.1097  -35.6542 H   0  0  0  0  0  0  0  0  0  0  0  0
   -4.7492   15.1667  -35.2684 H   0  0  0  0  0  0  0  0  0  0  0  0
   -6.8996   16.5786  -34.4171 H   0  0  0  0  0  0  0  0  0  0  0  0
   -5.9073   16.4076  -32.9294 H   0  0  0  0  0  0  0  0  0  0  0  0
   -8.0519   16.8430  -31.6490 H   0  0  0  0  0  0  0  0  0  0  0  0
   -9.4035   18.6379  -30.5657 H   0  0  0  0  0  0  0  0  0  0  0  0
   -9.1977   21.0023  -31.3409 H   0  0  0  0  0  0  0  0  0  0  0  0
   -7.6480   21.5702  -33.2150 H   0  0  0  0  0  0  0  0  0  0  0  0
   -6.2795   19.7843  -34.2935 H   0  0  0  0  0  0  0  0  0  0  0  0
   -4.7278   21.5983  -34.0879 H   0  0  0  0  0  0  0  0  0  0  0  0
   -5.2365   23.7769  -32.9959 H   0  0  0  0  0  0  0  0  0  0  0  0
  1  2  1  0
  2  3  2  0
  2  4  2  0
  2  5  1  0
  5  6  2  0
  6  7  1  0
  7  8  2  0
  8  9  1  0
  9 10  1  0
 10 11  1  0
 11 12  2  0
 12 13  1  0
 13 14  2  0
 14 15  1  0
 15 16  2  0
 16 17  1  0
 17 18  1  0
 18 19  1  0
 19 20  2  0
 20 21  1  0
 21 22  2  0
 22 23  1  0
 23 24  2  0
  8 25  1  0
 25 26  2  0
 26  5  1  0
 16 11  1  0
 24 19  1  0
  1 27  1  0
  1 28  1  0
  6 29  1  0
  7 30  1  0
  9 31  1  0
 10 32  1  0
 10 33  1  0
 12 34  1  0
 13 35  1  0
 14 36  1  0
 15 37  1  0
 18 38  1  0
 18 39  1  0
 20 40  1  0
 21 41  1  0
 22 42  1  0
 23 43  1  0
 24 44  1  0
 25 45  1  0
 26 46  1  0
M  END
>  <UniqueID>  (39) 
39

>  <SMILES>  (39) 
NS(=O)(=O)c1ccc(NCc2ccccc2OCc2ccccc2)cc1

>  <Energy>  (39) 
42.46668316186425

>  <Genealogy>  (39) 
NS(=O)(=O)c1ccc(NCc2ccccc2OCc2ccccc2)cc1 (3D coordinates assigned)
NS(=O)(=O)c1ccc(NCc2ccccc2OCc2ccccc2)cc1 (optimized conformer: 42.46668316186425 kcal/mol)

>  <smiles>  (39) 
NS(=O)(=O)c1ccc(NCc2ccccc2OCc2ccccc2)cc1

>  <score_type>  (39) 
oracle

>  <origin>  (39) 
adgpu

>  <m_score__min__energy>  (39) 
-9.0600000000000005

>  <m_primary>  (39) 
energy

$$$$
39:0
     RDKit          3D

 59 62  0  0  0  0  0  0  0  0999 V2000
   -0.2524   25.6994  -28.1674 H   0  0  0  0  0  0  0  0  0  0  0  0
   -1.0860   25.0080  -28.3600 C   0  0  0  0  0  0  0  0  0  0  0  0
   -1.9980   25.2980  -29.3260 N   0  0  0  0  0  0  0  0  0  0  0  0
   -3.0540   24.4750  -29.5930 C   0  0  0  0  0  0  0  0  0  0  0  0
   -3.8870   24.8240  -30.5320 N   0  0  0  0  0  0  0  0  0  0  0  0
   -5.0760   24.1010  -30.8850 C   0  0  0  0  0  0  0  0  0  0  0  0
   -4.9660   22.9850  -31.7240 C   0  0  0  0  0  0  0  0  0  0  0  0
   -3.9725   22.6435  -32.0502 H   0  0  0  0  0  0  0  0  0  0  0  0
   -6.1080   22.3020  -32.1500 C   0  0  0  0  0  0  0  0  0  0  0  0
   -5.9580   21.2410  -33.0940 N   0  0  0  0  0  0  0  0  0  0  0  0
   -5.0470   20.1630  -32.8600 C   0  0  0  0  0  0  0  0  0  0  0  0
   -5.4300   18.9750  -33.0320 O   0  0  0  0  0  0  0  0  0  0  0  0
   -3.6240   20.4550  -32.5620 C   0  0  0  0  0  0  0  0  0  0  0  0
   -3.1600   20.4450  -31.2330 C   0  0  0  0  0  0  0  0  0  0  0  0
   -3.8791   20.3913  -30.4024 H   0  0  0  0  0  0  0  0  0  0  0  0
   -1.7890   20.5030  -30.9640 C   0  0  0  0  0  0  0  0  0  0  0  0
   -1.4365   20.5135  -29.9221 H   0  0  0  0  0  0  0  0  0  0  0  0
   -0.8570   20.5480  -32.0180 C   0  0  0  0  0  0  0  0  0  0  0  0
    0.6260   20.4810  -31.7330 C   0  0  0  0  0  0  0  0  0  0  0  0
    1.1569   20.9586  -32.5697 H   0  0  0  0  0  0  0  0  0  0  0  0
    0.7793   20.9932  -30.7717 H   0  0  0  0  0  0  0  0  0  0  0  0
    1.1700   19.1040  -31.5650 N   0  0  0  0  0  0  0  0  0  0  0  0
    1.5420   18.8880  -32.5170 H   0  0  0  0  0  0  0  0  0  0  0  0
    0.1460   18.0520  -31.3260 C   0  0  0  0  0  0  0  0  0  0  0  0
   -0.8011   18.3831  -31.7770 H   0  0  0  0  0  0  0  0  0  0  0  0
    0.5312   17.1261  -31.7780 H   0  0  0  0  0  0  0  0  0  0  0  0
   -0.1070   17.7480  -29.8410 C   0  0  0  0  0  0  0  0  0  0  0  0
   -0.5977   18.6145  -29.3736 H   0  0  0  0  0  0  0  0  0  0  0  0
   -0.7503   16.8588  -29.7668 H   0  0  0  0  0  0  0  0  0  0  0  0
    1.1600   17.4750  -29.1420 N   0  0  0  0  0  0  0  0  0  0  0  0
    0.8950   17.1410  -27.7330 C   0  0  0  0  0  0  0  0  0  0  0  0
    1.4460   17.8354  -27.0817 H   0  0  0  0  0  0  0  0  0  0  0  0
   -0.1831   17.2272  -27.5322 H   0  0  0  0  0  0  0  0  0  0  0  0
    1.2241   16.1108  -27.5322 H   0  0  0  0  0  0  0  0  0  0  0  0
    2.0130   18.6680  -29.2150 C   0  0  0  0  0  0  0  0  0  0  0  0
    1.4813   19.5198  -28.7659 H   0  0  0  0  0  0  0  0  0  0  0  0
    2.9464   18.4688  -28.6682 H   0  0  0  0  0  0  0  0  0  0  0  0
    2.3580   19.0020  -30.6750 C   0  0  0  0  0  0  0  0  0  0  0  0
    2.8893   19.9650  -30.6941 H   0  0  0  0  0  0  0  0  0  0  0  0
    2.9734   18.1737  -31.0561 H   0  0  0  0  0  0  0  0  0  0  0  0
   -1.3210   20.6810  -33.3370 C   0  0  0  0  0  0  0  0  0  0  0  0
   -0.6056   20.8372  -34.1579 H   0  0  0  0  0  0  0  0  0  0  0  0
   -2.6920   20.6150  -33.6080 C   0  0  0  0  0  0  0  0  0  0  0  0
   -3.0462   20.6886  -34.6468 H   0  0  0  0  0  0  0  0  0  0  0  0
   -7.3740   22.7160  -31.7130 C   0  0  0  0  0  0  0  0  0  0  0  0
   -8.2743   22.1777  -32.0443 H   0  0  0  0  0  0  0  0  0  0  0  0
   -7.4910   23.8160  -30.8540 C   0  0  0  0  0  0  0  0  0  0  0  0
   -8.4854   24.1366  -30.5099 H   0  0  0  0  0  0  0  0  0  0  0  0
   -6.3460   24.5140  -30.4280 C   0  0  0  0  0  0  0  0  0  0  0  0
   -6.4880   25.7340  -29.5600 C   0  0  0  0  0  0  0  0  0  0  0  0
   -6.4534   25.4369  -28.5014 H   0  0  0  0  0  0  0  0  0  0  0  0
   -5.6651   26.4325  -29.7719 H   0  0  0  0  0  0  0  0  0  0  0  0
   -7.4493   26.2249  -29.7719 H   0  0  0  0  0  0  0  0  0  0  0  0
   -3.2090   23.2790  -28.8450 C   0  0  0  0  0  0  0  0  0  0  0  0
   -4.0580   22.6075  -29.0407 H   0  0  0  0  0  0  0  0  0  0  0  0
   -2.2730   22.9630  -27.8580 C   0  0  0  0  0  0  0  0  0  0  0  0
   -2.3751   22.0342  -27.2776 H   0  0  0  0  0  0  0  0  0  0  0  0
   -1.2050   23.8320  -27.6100 C   0  0  0  0  0  0  0  0  0  0  0  0
   -0.4649   23.5931  -26.8321 H   0  0  0  0  0  0  0  0  0  0  0  0
  1  2  1  0
  2  3  1  0
  3  4  1  0
  4  5  2  0
  5  6  1  0
  6  7  2  0
  7  8  1  0
  7  9  1  0
  9 10  1  0
 10 11  1  0
 11 12  2  0
 11 13  1  0
 13 14  2  0
 14 15  1  0
 14 16  1  0
 16 17  1  0
 16 18  2  0
 18 19  1  0
 19 20  1  0
 19 21  1  0
 19 22  1  0
 22 23  1  0
 22 24  1  0
 24 25  1  0
 24 26  1  0
 24 27  1  0
 27 28  1  0
 27 29  1  0
 27 30  1  0
 30 31  1  0
 31 32  1  0
 31 33  1  0
 31 34  1  0
 30 35  1  0
 35 36  1  0
 35 37  1  0
 35 38  1  0
 38 39  1  0
 38 40  1  0
 18 41  1  0
 41 42  1  0
 41 43  2  0
 43 44  1  0
  9 45  2  0
 45 46  1  0
 45 47  1  0
 47 48  1  0
 47 49  2  0
 49 50  1  0
 50 51  1  0
 50 52  1  0
 50 53  1  0
  4 54  1  0
 54 55  1  0
 54 56  2  0
 56 57  1  0
 56 58  1  0
 58 59  1  0
 58  2  2  0
 49  6  1  0
 43 13  1  0
 38 22  1  0
M  CHG  3   3  -1  10  -1  22   1
M  END
>  <UniqueID>  (40) 
40

>  <SMILES>  (40) 
Cc1ccc([N-]C(=O)c2ccc(C[NH+]3CCN(C)CC3)cc2)cc1/N=c1\cccc[n-]1

>  <Energy>  (40) 
95.42461456431143

>  <Genealogy>  (40) 
Cc1ccc([N-]C(=O)c2ccc(C[NH+]3CCN(C)CC3)cc2)cc1N=c1cccc[n-]1 (protonated)
Cc1ccc([N-]C(=O)c2ccc(C[NH+]3CCN(C)CC3)cc2)cc1/N=c1\cccc[n-]1 (cis-trans isomerization)
Cc1ccc([N-]C(=O)c2ccc(C[NH+]3CCN(C)CC3)cc2)cc1/N=c1\cccc[n-]1 (3D coordinates assigned)
Cc1ccc([N-]C(=O)c2ccc(C[NH+]3CCN(C)CC3)cc2)cc1/N=c1\cccc[n-]1 (nonaromatic ring conformer: 95.42461456431143 kcal/mol)

>  <smiles>  (40) 
Cc1ccc(NC(=O)c2ccc(CN3CCN(C)CC3)cc2)cc1N=c1cccc[nH]1

>  <score_type>  (40) 
oracle

>  <origin>  (40) 
adgpu

>  <m_score__min__energy>  (40) 
-11.529999999999999

>  <m_primary>  (40) 
energy

$$$$
40:0
     RDKit          3D

 36 38  0  0  0  0  0  0  0  0999 V2000
   -4.7930   24.5550  -28.3480 N   0  0  0  0  0  0  0  0  0  0  0  0
   -5.1400   24.9110  -30.0040 S   0  0  0  0  0  0  0  0  0  0  0  0
   -5.7390   26.2860  -30.1100 O   0  0  0  0  0  0  0  0  0  0  0  0
   -3.8670   24.8780  -30.8020 O   0  0  0  0  0  0  0  0  0  0  0  0
   -6.2720   23.7200  -30.6350 C   0  0  0  0  0  0  0  0  0  0  0  0
   -7.1430   23.0460  -29.7700 C   0  0  0  0  0  0  0  0  0  0  0  0
   -8.0510   22.1090  -30.2730 C   0  0  0  0  0  0  0  0  0  0  0  0
   -8.1040   21.8420  -31.6560 C   0  0  0  0  0  0  0  0  0  0  0  0
   -8.9990   20.9160  -32.2150 O   0  0  0  0  0  0  0  0  0  0  0  0
   -8.8770   19.4980  -32.1320 C   0  0  0  0  0  0  0  0  0  0  0  0
   -7.5770   19.0490  -32.7180 C   0  0  0  0  0  0  0  0  0  0  0  0
   -6.4290   19.7490  -32.6340 N   0  0  0  0  0  0  0  0  0  0  0  0
   -5.5750   18.9410  -33.2990 C   0  0  0  0  0  0  0  0  0  0  0  0
   -4.1420   19.2450  -33.5000 C   0  0  0  0  0  0  0  0  0  0  0  0
   -3.2650   18.2590  -33.9860 C   0  0  0  0  0  0  0  0  0  0  0  0
   -1.9100   18.5510  -34.1720 C   0  0  0  0  0  0  0  0  0  0  0  0
   -1.4190   19.8240  -33.8760 C   0  0  0  0  0  0  0  0  0  0  0  0
   -2.2820   20.8100  -33.3930 C   0  0  0  0  0  0  0  0  0  0  0  0
   -3.6380   20.5250  -33.2030 C   0  0  0  0  0  0  0  0  0  0  0  0
   -6.1780   17.8240  -33.7560 N   0  0  0  0  0  0  0  0  0  0  0  0
   -7.4140   17.9300  -33.3770 O   0  0  0  0  0  0  0  0  0  0  0  0
   -7.2330   22.5240  -32.5140 C   0  0  0  0  0  0  0  0  0  0  0  0
   -6.3250   23.4600  -32.0100 C   0  0  0  0  0  0  0  0  0  0  0  0
   -4.6110   25.4650  -27.8710 H   0  0  0  0  0  0  0  0  0  0  0  0
   -5.6670   24.1640  -27.9310 H   0  0  0  0  0  0  0  0  0  0  0  0
   -7.1128   23.2545  -28.6904 H   0  0  0  0  0  0  0  0  0  0  0  0
   -8.7268   21.5780  -29.5864 H   0  0  0  0  0  0  0  0  0  0  0  0
   -8.9232   19.1919  -31.0765 H   0  0  0  0  0  0  0  0  0  0  0  0
   -9.7002   19.0365  -32.6971 H   0  0  0  0  0  0  0  0  0  0  0  0
   -3.6462   17.2542  -34.2208 H   0  0  0  0  0  0  0  0  0  0  0  0
   -1.2291   17.7754  -34.5526 H   0  0  0  0  0  0  0  0  0  0  0  0
   -0.3526   20.0503  -34.0232 H   0  0  0  0  0  0  0  0  0  0  0  0
   -1.8944   21.8131  -33.1615 H   0  0  0  0  0  0  0  0  0  0  0  0
   -4.3132   21.3043  -32.8199 H   0  0  0  0  0  0  0  0  0  0  0  0
   -7.2633   22.3215  -33.5948 H   0  0  0  0  0  0  0  0  0  0  0  0
   -5.6503   23.9937  -32.6955 H   0  0  0  0  0  0  0  0  0  0  0  0
  1  2  1  0
  2  3  2  0
  2  4  2  0
  2  5  1  0
  5  6  2  0
  6  7  1  0
  7  8  2  0
  8  9  1  0
  9 10  1  0
 10 11  1  0
 11 12  2  0
 12 13  1  0
 13 14  1  0
 14 15  2  0
 15 16  1  0
 16 17  2  0
 17 18  1  0
 18 19  2  0
 13 20  2  0
 20 21  1  0
  8 22  1  0
 22 23  2  0
 23  5  1  0
 21 11  1  0
 19 14  1  0
  1 24  1  0
  1 25  1  0
  6 26  1  0
  7 27  1  0
 10 28  1  0
 10 29  1  0
 15 30  1  0
 16 31  1  0
 17 32  1  0
 18 33  1  0
 19 34  1  0
 22 35  1  0
 23 36  1  0
M  END
>  <UniqueID>  (41) 
41

>  <SMILES>  (41) 
NS(=O)(=O)c1ccc(OCc2nc(-c3ccccc3)no2)cc1

>  <Energy>  (41) 
69.81941505811386

>  <Genealogy>  (41) 
NS(=O)(=O)c1ccc(OCc2nc(-c3ccccc3)no2)cc1 (3D coordinates assigned)
NS(=O)(=O)c1ccc(OCc2nc(-c3ccccc3)no2)cc1 (optimized conformer: 69.81941505811386 kcal/mol)

>  <smiles>  (41) 
NS(=O)(=O)c1ccc(OCc2nc(-c3ccccc3)no2)cc1

>  <score_type>  (41) 
oracle

>  <origin>  (41) 
adgpu

>  <m_score__min__energy>  (41) 
-9.7599999999999998

>  <m_primary>  (41) 
energy

$$$$
41:0
     RDKit          3D

 54 57  0  0  1  0  0  0  0  0999 V2000
   -9.6720   21.5880  -31.6420 C   0  0  0  0  0  0  0  0  0  0  0  0
   -8.5210   21.9960  -32.3400 O   0  0  0  0  0  0  0  0  0  0  0  0
   -7.3500   22.2900  -31.6580 C   0  0  0  0  0  0  0  0  0  0  0  0
   -7.0810   23.4840  -31.0580 C   0  0  0  0  0  0  0  0  0  0  0  0
   -5.8760   23.7120  -30.3850 C   0  0  0  0  0  0  0  0  0  0  0  0
   -4.9120   22.7280  -30.3050 C   0  0  0  0  0  0  0  0  0  0  0  0
   -3.6890   23.0190  -29.5990 C   0  0  0  0  0  0  0  0  0  0  0  0
   -3.2640   24.2890  -29.2760 C   0  0  0  0  0  0  0  0  0  0  0  0
   -2.0780   24.4780  -28.5970 C   0  0  0  0  0  0  0  0  0  0  0  0
   -1.6930   25.6730  -28.3010 N   0  0  0  0  0  0  0  0  0  0  0  0
   -0.4740   25.9030  -27.6010 C   0  0  0  0  0  0  0  0  0  0  0  0
   -0.4160   26.9050  -26.5300 C   0  0  0  0  0  0  0  0  0  0  0  0
    0.5150   25.2020  -27.9620 O   0  0  0  0  0  0  0  0  0  0  0  0
   -1.3580   23.4020  -28.2630 N   0  0  0  0  0  0  0  0  0  0  0  0
   -1.7450   22.1520  -28.5620 C   0  0  0  0  0  0  0  0  0  0  0  0
   -0.9820   20.9620  -28.2130 C   0  0  0  0  0  0  0  0  0  0  0  0
   -1.5700   19.9090  -27.5030 C   0  0  0  0  0  0  0  0  0  0  0  0
   -0.8610   18.7750  -27.1630 C   0  0  0  0  0  0  0  0  0  0  0  0
    0.4620   18.6320  -27.5110 C   0  0  0  0  0  0  0  0  0  0  0  0
    1.0660   19.6560  -28.2100 C   0  0  0  0  0  0  0  0  0  0  0  0
    0.3450   20.7840  -28.5440 C   0  0  0  0  0  0  0  0  0  0  0  0
   -2.9040   21.9930  -29.2250 N   0  0  0  0  0  0  0  0  0  0  0  0
   -5.1910   21.5250  -30.9130 C   0  0  0  0  0  0  0  0  0  0  0  0
   -6.3880   21.2950  -31.5830 C   0  0  0  0  0  0  0  0  0  0  0  0
   -6.5860   19.9770  -32.1970 C   0  0  0  0  0  0  0  0  0  0  0  0
   -5.7780   19.6900  -33.2850 C   0  0  0  0  0  0  0  0  0  0  0  0
   -5.8630   18.4910  -33.9520 C   0  0  0  0  0  0  0  0  0  0  0  0
   -6.7870   17.5770  -33.4950 C   0  0  0  0  0  0  0  0  0  0  0  0
   -6.8710   16.2810  -34.2220 C   0  0  0  0  0  0  0  0  0  0  0  0
   -7.6030   17.8630  -32.3990 C   0  0  0  0  0  0  0  0  0  0  0  0
   -7.5170   19.0720  -31.7270 C   0  0  0  0  0  0  0  0  0  0  0  0
   -9.4870   21.6536  -30.5597 H   0  0  0  0  0  0  0  0  0  0  0  0
  -10.5147   22.2422  -31.9102 H   0  0  0  0  0  0  0  0  0  0  0  0
   -9.9145   20.5491  -31.9102 H   0  0  0  0  0  0  0  0  0  0  0  0
   -7.8300   24.2882  -31.1041 H   0  0  0  0  0  0  0  0  0  0  0  0
   -5.6945   24.6890  -29.9132 H   0  0  0  0  0  0  0  0  0  0  0  0
   -3.8745   25.1584  -29.5614 H   0  0  0  0  0  0  0  0  0  0  0  0
   -0.4452   26.3998  -25.5533 H   0  0  0  0  0  0  0  0  0  0  0  0
    0.5170   27.4811  -26.6170 H   0  0  0  0  0  0  0  0  0  0  0  0
   -1.2763   27.5849  -26.6170 H   0  0  0  0  0  0  0  0  0  0  0  0
   -0.4700   23.5600  -27.7540 H   0  0  0  0  0  0  0  0  0  0  0  0
   -2.6267   19.9875  -27.2078 H   0  0  0  0  0  0  0  0  0  0  0  0
   -1.3626   17.9714  -26.6039 H   0  0  0  0  0  0  0  0  0  0  0  0
    1.0230   17.7257  -27.2392 H   0  0  0  0  0  0  0  0  0  0  0  0
    2.1235   19.5734  -28.5015 H   0  0  0  0  0  0  0  0  0  0  0  0
    0.8548   21.5824  -29.1031 H   0  0  0  0  0  0  0  0  0  0  0  0
   -4.4432   20.7196  -30.8675 H   0  0  0  0  0  0  0  0  0  0  0  0
   -5.0494   20.4411  -33.6241 H   0  0  0  0  0  0  0  0  0  0  0  0
   -5.2190   18.2702  -34.8160 H   0  0  0  0  0  0  0  0  0  0  0  0
   -6.9245   15.4562  -33.4961 H   0  0  0  0  0  0  0  0  0  0  0  0
   -7.7716   16.2726  -34.8536 H   0  0  0  0  0  0  0  0  0  0  0  0
   -5.9790   16.1564  -34.8536 H   0  0  0  0  0  0  0  0  0  0  0  0
   -8.3313   17.1112  -32.0609 H   0  0  0  0  0  0  0  0  0  0  0  0
   -8.1582   19.2993  -30.8626 H   0  0  0  0  0  0  0  0  0  0  0  0
  1  2  1  0
  2  3  1  0
  3  4  2  0
  4  5  1  0
  5  6  2  0
  6  7  1  0
  7  8  2  0
  8  9  1  0
  9 10  2  0
 10 11  1  0
 11 12  1  0
 11 13  2  0
  9 14  1  0
 14 15  1  0
 15 16  1  0
 16 17  2  0
 17 18  1  0
 18 19  2  0
 19 20  1  0
 20 21  2  0
 15 22  2  0
  6 23  1  0
 23 24  2  0
 24 25  1  0
 25 26  2  0
 26 27  1  0
 27 28  2  0
 28 29  1  0
 28 30  1  0
 30 31  2  0
 24  3  1  0
 31 25  1  0
 22  7  1  0
 21 16  1  0
  1 32  1  0
  1 33  1  0
  1 34  1  0
  4 35  1  0
  5 36  1  0
  8 37  1  0
 12 38  1  0
 12 39  1  0
 12 40  1  0
 14 41  1  0
 17 42  1  0
 18 43  1  0
 19 44  1  0
 20 45  1  0
 21 46  1  0
 23 47  1  0
 26 48  1  0
 27 49  1  0
 29 50  1  0
 29 51  1  0
 29 52  1  0
 30 53  1  0
 31 54  1  0
M  END
>  <smiles>  (42) 
COc1ccc(-c2cc(=NC(C)=O)[nH]c(-c3ccccc3)n2)cc1-c1ccc(C)cc1

>  <score_type>  (42) 
oracle

>  <origin>  (42) 
adgpu

>  <m_score__min__energy>  (42) 
-9.4399999999999995

>  <m_primary>  (42) 
energy

$$$$
42:0
     RDKit          3D

 36 38  0  0  0  0  0  0  0  0999 V2000
   -3.7790   24.2800  -28.5050 C   0  0  0  0  0  0  0  0  0  0  0  0
   -3.6920   24.4560  -29.9150 O   0  0  0  0  0  0  0  0  0  0  0  0
   -3.8800   23.4330  -30.8590 C   0  0  0  0  0  0  0  0  0  0  0  0
   -2.8210   22.6050  -31.2780 C   0  0  0  0  0  0  0  0  0  0  0  0
   -3.0410   21.5870  -32.2070 C   0  0  0  0  0  0  0  0  0  0  0  0
   -4.3150   21.3790  -32.7430 C   0  0  0  0  0  0  0  0  0  0  0  0
   -4.4980   20.3300  -33.6570 O   0  0  0  0  0  0  0  0  0  0  0  0
   -5.3780   19.2510  -33.4890 C   0  0  0  0  0  0  0  0  0  0  0  0
   -5.0230   17.9380  -33.8500 C   0  0  0  0  0  0  0  0  0  0  0  0
   -5.9250   16.8850  -33.6560 C   0  0  0  0  0  0  0  0  0  0  0  0
   -5.4790   15.2530  -34.1140 Cl  0  0  0  0  0  0  0  0  0  0  0  0
   -7.1790   17.1350  -33.0890 C   0  0  0  0  0  0  0  0  0  0  0  0
   -7.5300   18.4350  -32.7090 C   0  0  0  0  0  0  0  0  0  0  0  0
   -9.0980   18.7460  -31.9870 Cl  0  0  0  0  0  0  0  0  0  0  0  0
   -6.6270   19.4870  -32.9040 C   0  0  0  0  0  0  0  0  0  0  0  0
   -5.3810   22.1860  -32.3160 C   0  0  0  0  0  0  0  0  0  0  0  0
   -5.1680   23.2250  -31.3960 C   0  0  0  0  0  0  0  0  0  0  0  0
   -6.3380   24.0560  -30.9340 C   0  0  0  0  0  0  0  0  0  0  0  0
   -7.5760   23.3030  -31.0960 N   0  0  0  0  0  0  0  0  0  0  0  0
   -8.4640   23.4200  -32.0950 C   0  0  0  0  0  0  0  0  0  0  0  0
   -9.4580   22.5200  -31.9680 N   0  0  0  0  0  0  0  0  0  0  0  0
   -9.1080   21.8560  -30.8440 C   0  0  0  0  0  0  0  0  0  0  0  0
   -7.9610   22.3170  -30.3090 N   0  0  0  0  0  0  0  0  0  0  0  0
   -3.3462   25.1555  -27.9988 H   0  0  0  0  0  0  0  0  0  0  0  0
   -4.8341   24.1723  -28.2133 H   0  0  0  0  0  0  0  0  0  0  0  0
   -3.2239   23.3763  -28.2133 H   0  0  0  0  0  0  0  0  0  0  0  0
   -1.8117   22.7618  -30.8696 H   0  0  0  0  0  0  0  0  0  0  0  0
   -2.2055   20.9435  -32.5197 H   0  0  0  0  0  0  0  0  0  0  0  0
   -4.0331   17.7383  -34.2862 H   0  0  0  0  0  0  0  0  0  0  0  0
   -7.8900   16.3087  -32.9417 H   0  0  0  0  0  0  0  0  0  0  0  0
   -6.9014   20.5065  -32.5951 H   0  0  0  0  0  0  0  0  0  0  0  0
   -6.3931   22.0027  -32.7059 H   0  0  0  0  0  0  0  0  0  0  0  0
   -6.2050   24.3154  -29.8733 H   0  0  0  0  0  0  0  0  0  0  0  0
   -6.3909   24.9742  -31.5374 H   0  0  0  0  0  0  0  0  0  0  0  0
   -8.3900   24.1544  -32.9106 H   0  0  0  0  0  0  0  0  0  0  0  0
   -9.6946   21.0308  -30.4139 H   0  0  0  0  0  0  0  0  0  0  0  0
  1  2  1  0
  2  3  1  0
  3  4  2  0
  4  5  1  0
  5  6  2  0
  6  7  1  0
  7  8  1  0
  8  9  2  0
  9 10  1  0
 10 11  1  0
 10 12  2  0
 12 13  1  0
 13 14  1  0
 13 15  2  0
  6 16  1  0
 16 17  2  0
 17 18  1  0
 18 19  1  0
 19 20  1  0
 20 21  2  0
 21 22  1  0
 22 23  2  0
 17  3  1  0
 23 19  1  0
 15  8  1  0
  1 24  1  0
  1 25  1  0
  1 26  1  0
  4 27  1  0
  5 28  1  0
  9 29  1  0
 12 30  1  0
 15 31  1  0
 16 32  1  0
 18 33  1  0
 18 34  1  0
 20 35  1  0
 22 36  1  0
M  END
>  <UniqueID>  (43) 
42

>  <SMILES>  (43) 
COc1ccc(Oc2cc(Cl)cc(Cl)c2)cc1Cn1cncn1

>  <Energy>  (43) 
75.29703671481212

>  <Genealogy>  (43) 
COc1ccc(Oc2cc(Cl)cc(Cl)c2)cc1Cn1cncn1 (3D coordinates assigned)
COc1ccc(Oc2cc(Cl)cc(Cl)c2)cc1Cn1cncn1 (optimized conformer: 75.29703671481212 kcal/mol)

>  <smiles>  (43) 
COc1ccc(Oc2cc(Cl)cc(Cl)c2)cc1Cn1cncn1

>  <score_type>  (43) 
oracle

>  <origin>  (43) 
adgpu

>  <m_score__min__energy>  (43) 
-7.6200000000000001

>  <m_primary>  (43) 
energy

$$$$
43:0
     RDKit          3D

 42 45  0  0  0  0  0  0  0  0999 V2000
   -4.6820   25.7070  -30.8360 O   0  0  0  0  0  0  0  0  0  0  0  0
   -4.7330   24.4480  -30.8600 C   0  0  0  0  0  0  0  0  0  0  0  0
   -5.3710   23.7710  -31.9500 N   0  0  0  0  0  0  0  0  0  0  0  0
   -6.2690   22.6560  -31.8520 C   0  0  0  0  0  0  0  0  0  0  0  0
   -7.3610   22.7500  -30.9830 C   0  0  0  0  0  0  0  0  0  0  0  0
   -8.2490   21.6810  -30.8450 C   0  0  0  0  0  0  0  0  0  0  0  0
   -8.0440   20.5010  -31.5630 C   0  0  0  0  0  0  0  0  0  0  0  0
   -6.9390   20.3760  -32.4220 C   0  0  0  0  0  0  0  0  0  0  0  0
   -6.7090   19.1190  -33.1680 C   0  0  0  0  0  0  0  0  0  0  0  0
   -7.1370   17.9060  -32.7490 N   0  0  0  0  0  0  0  0  0  0  0  0
   -6.6890   17.1220  -33.7450 C   0  0  0  0  0  0  0  0  0  0  0  0
   -6.8610   15.8760  -33.7820 O   0  0  0  0  0  0  0  0  0  0  0  0
   -6.0570   17.7980  -34.6680 O   0  0  0  0  0  0  0  0  0  0  0  0
   -6.0470   19.0540  -34.3440 N   0  0  0  0  0  0  0  0  0  0  0  0
   -6.0490   21.4570  -32.5560 C   0  0  0  0  0  0  0  0  0  0  0  0
   -4.2420   23.6800  -29.7540 N   0  0  0  0  0  0  0  0  0  0  0  0
   -3.4220   24.2130  -28.6990 C   0  0  0  0  0  0  0  0  0  0  0  0
   -3.9790   24.4100  -27.4280 C   0  0  0  0  0  0  0  0  0  0  0  0
   -3.2000   24.9070  -26.3810 C   0  0  0  0  0  0  0  0  0  0  0  0
   -1.8400   25.2000  -26.5790 C   0  0  0  0  0  0  0  0  0  0  0  0
   -1.0240   25.7210  -25.4560 C   0  0  0  0  0  0  0  0  0  0  0  0
   -1.5310   26.7190  -24.6040 C   0  0  0  0  0  0  0  0  0  0  0  0
   -0.7530   27.2130  -23.5510 C   0  0  0  0  0  0  0  0  0  0  0  0
    0.5370   26.7190  -23.3410 C   0  0  0  0  0  0  0  0  0  0  0  0
    1.0520   25.7330  -24.1860 C   0  0  0  0  0  0  0  0  0  0  0  0
    0.2800   25.2360  -25.2400 C   0  0  0  0  0  0  0  0  0  0  0  0
   -1.2740   24.9840  -27.8510 C   0  0  0  0  0  0  0  0  0  0  0  0
    0.0300   25.2790  -28.0900 F   0  0  0  0  0  0  0  0  0  0  0  0
   -2.0580   24.4890  -28.8970 C   0  0  0  0  0  0  0  0  0  0  0  0
   -7.5214   23.6718  -30.4046 H   0  0  0  0  0  0  0  0  0  0  0  0
   -9.1122   21.7688  -30.1689 H   0  0  0  0  0  0  0  0  0  0  0  0
   -8.7510   19.6652  -31.4556 H   0  0  0  0  0  0  0  0  0  0  0  0
   -5.1740   21.3647  -33.2162 H   0  0  0  0  0  0  0  0  0  0  0  0
   -4.5630   22.6880  -29.6760 H   0  0  0  0  0  0  0  0  0  0  0  0
   -5.0385   24.1711  -27.2538 H   0  0  0  0  0  0  0  0  0  0  0  0
   -3.6548   25.0705  -25.3929 H   0  0  0  0  0  0  0  0  0  0  0  0
   -2.5449   27.1134  -24.7665 H   0  0  0  0  0  0  0  0  0  0  0  0
   -1.1577   27.9915  -22.8875 H   0  0  0  0  0  0  0  0  0  0  0  0
    1.1465   27.1061  -22.5111 H   0  0  0  0  0  0  0  0  0  0  0  0
    2.0686   25.3464  -24.0214 H   0  0  0  0  0  0  0  0  0  0  0  0
    0.6932   24.4623  -25.9038 H   0  0  0  0  0  0  0  0  0  0  0  0
   -1.6038   24.3140  -29.8834 H   0  0  0  0  0  0  0  0  0  0  0  0
  1  2  2  0
  2  3  1  0
  3  4  1  0
  4  5  2  0
  5  6  1  0
  6  7  2  0
  7  8  1  0
  8  9  1  0
  9 10  2  0
 10 11  1  0
 11 12  2  0
 11 13  1  0
 13 14  1  0
  8 15  2  0
  2 16  1  0
 16 17  1  0
 17 18  2  0
 18 19  1  0
 19 20  2  0
 20 21  1  0
 21 22  2  0
 22 23  1  0
 23 24  2  0
 24 25  1  0
 25 26  2  0
 20 27  1  0
 27 28  1  0
 27 29  2  0
 15  4  1  0
 29 17  1  0
 14  9  1  0
 26 21  1  0
  5 30  1  0
  6 31  1  0
  7 32  1  0
 15 33  1  0
 16 34  1  0
 18 35  1  0
 19 36  1  0
 22 37  1  0
 23 38  1  0
 24 39  1  0
 25 40  1  0
 26 41  1  0
 29 42  1  0
M  CHG  2   3  -1  14  -1
M  END
>  <UniqueID>  (44) 
43

>  <SMILES>  (44) 
O=C([N-]c1cccc(-c2nc(=O)o[n-]2)c1)Nc1ccc(-c2ccccc2)c(F)c1

>  <Energy>  (44) 
94.40861456436468

>  <Genealogy>  (44) 
O=C([N-]c1cccc(-c2nc(=O)o[n-]2)c1)Nc1ccc(-c2ccccc2)c(F)c1 (protonated)
O=C([N-]c1cccc(-c2nc(=O)o[n-]2)c1)Nc1ccc(-c2ccccc2)c(F)c1 (3D coordinates assigned)
O=C([N-]c1cccc(-c2nc(=O)o[n-]2)c1)Nc1ccc(-c2ccccc2)c(F)c1 (optimized conformer: 94.40861456436468 kcal/mol)

>  <smiles>  (44) 
O=C(Nc1cccc(-c2nc(=O)o[nH]2)c1)Nc1ccc(-c2ccccc2)c(F)c1

>  <score_type>  (44) 
oracle

>  <origin>  (44) 
adgpu

>  <m_score__min__energy>  (44) 
-10.25

>  <m_primary>  (44) 
energy

$$$$
44:0
     RDKit          3D

 49 52  0  0  0  0  0  0  0  0999 V2000
    2.6370   24.7890  -28.7410 H   0  0  0  0  0  0  0  0  0  0  0  0
    2.4210   25.2910  -27.8510 N   0  0  0  0  0  0  0  0  0  0  0  0
    1.2150   25.3590  -27.3900 C   0  0  0  0  0  0  0  0  0  0  0  0
    0.9740   26.0220  -26.2300 N   0  0  0  0  0  0  0  0  0  0  0  0
   -0.2820   26.1080  -25.7180 C   0  0  0  0  0  0  0  0  0  0  0  0
   -0.5200   26.8580  -24.4470 C   0  0  0  0  0  0  0  0  0  0  0  0
   -0.3117   26.2015  -23.5893 H   0  0  0  0  0  0  0  0  0  0  0  0
    0.1443   27.7339  -24.4082 H   0  0  0  0  0  0  0  0  0  0  0  0
   -1.5678   27.1905  -24.4082 H   0  0  0  0  0  0  0  0  0  0  0  0
   -1.3510   25.5150  -26.4010 C   0  0  0  0  0  0  0  0  0  0  0  0
   -2.3757   25.5840  -26.0071 H   0  0  0  0  0  0  0  0  0  0  0  0
   -1.0890   24.8310  -27.5980 C   0  0  0  0  0  0  0  0  0  0  0  0
   -2.1660   24.1760  -28.3680 C   0  0  0  0  0  0  0  0  0  0  0  0
   -3.5160   24.1940  -28.0740 C   0  0  0  0  0  0  0  0  0  0  0  0
   -3.9746   24.7137  -27.2198 H   0  0  0  0  0  0  0  0  0  0  0  0
   -4.1820   23.4750  -28.9980 N   0  0  0  0  0  0  0  0  0  0  0  0
   -3.3000   23.0060  -29.8680 N   0  0  0  0  0  0  0  0  0  0  0  0
   -3.6580   22.1760  -30.9930 C   0  0  0  0  0  0  0  0  0  0  0  0
   -2.7460   21.9250  -32.0370 C   0  0  0  0  0  0  0  0  0  0  0  0
   -1.7388   22.3657  -32.0002 H   0  0  0  0  0  0  0  0  0  0  0  0
   -3.1120   21.1200  -33.1190 C   0  0  0  0  0  0  0  0  0  0  0  0
   -2.3934   20.9334  -33.9307 H   0  0  0  0  0  0  0  0  0  0  0  0
   -4.3850   20.5520  -33.1740 C   0  0  0  0  0  0  0  0  0  0  0  0
   -4.6682   19.9220  -34.0301 H   0  0  0  0  0  0  0  0  0  0  0  0
   -5.3030   20.7820  -32.1420 C   0  0  0  0  0  0  0  0  0  0  0  0
   -6.6480   20.1770  -32.1890 C   0  0  0  0  0  0  0  0  0  0  0  0
   -6.7530   18.7980  -32.4320 C   0  0  0  0  0  0  0  0  0  0  0  0
   -5.8430   18.2011  -32.5920 H   0  0  0  0  0  0  0  0  0  0  0  0
   -8.0030   18.1790  -32.4720 C   0  0  0  0  0  0  0  0  0  0  0  0
   -8.0745   17.0976  -32.6601 H   0  0  0  0  0  0  0  0  0  0  0  0
   -9.1610   18.9290  -32.2740 C   0  0  0  0  0  0  0  0  0  0  0  0
  -10.1446   18.4371  -32.2990 H   0  0  0  0  0  0  0  0  0  0  0  0
   -9.0750   20.3030  -32.0440 C   0  0  0  0  0  0  0  0  0  0  0  0
   -9.9934   20.8884  -31.8895 H   0  0  0  0  0  0  0  0  0  0  0  0
   -7.8260   20.9450  -32.0080 C   0  0  0  0  0  0  0  0  0  0  0  0
   -7.7750   22.7020  -31.7710 S   0  0  0  0  0  0  0  0  0  0  0  0
   -6.7860   23.3200  -32.7210 O   0  0  0  0  0  0  0  0  0  0  0  0
   -9.1350   23.2750  -32.0540 O   0  0  0  0  0  0  0  0  0  0  0  0
   -7.3140   23.0910  -30.1400 N   0  0  0  0  0  0  0  0  0  0  0  0
   -8.1720   23.0050  -29.5480 H   0  0  0  0  0  0  0  0  0  0  0  0
   -6.8610   24.4790  -30.0710 C   0  0  0  0  0  0  0  0  0  0  0  0
   -6.7626   24.7806  -29.0178 H   0  0  0  0  0  0  0  0  0  0  0  0
   -5.8859   24.5718  -30.5717 H   0  0  0  0  0  0  0  0  0  0  0  0
   -7.5936   25.1291  -30.5717 H   0  0  0  0  0  0  0  0  0  0  0  0
   -4.9430   21.6070  -31.0650 C   0  0  0  0  0  0  0  0  0  0  0  0
   -5.6735   21.8110  -30.2683 H   0  0  0  0  0  0  0  0  0  0  0  0
   -2.0610   23.4090  -29.5140 C   0  0  0  0  0  0  0  0  0  0  0  0
   -1.1285   23.1686  -30.0456 H   0  0  0  0  0  0  0  0  0  0  0  0
    0.1890   24.7720  -28.0600 N   0  0  0  0  0  0  0  0  0  0  0  0
  1  2  1  0
  2  3  2  0
  3  4  1  0
  4  5  2  0
  5  6  1  0
  6  7  1  0
  6  8  1  0
  6  9  1  0
  5 10  1  0
 10 11  1  0
 10 12  2  0
 12 13  1  0
 13 14  1  0
 14 15  1  0
 14 16  2  0
 16 17  1  0
 17 18  1  0
 18 19  2  0
 19 20  1  0
 19 21  1  0
 21 22  1  0
 21 23  2  0
 23 24  1  0
 23 25  1  0
 25 26  1  0
 26 27  2  0
 27 28  1  0
 27 29  1  0
 29 30  1  0
 29 31  2  0
 31 32  1  0
 31 33  1  0
 33 34  1  0
 33 35  2  0
 35 36  1  0
 36 37  2  0
 36 38  2  0
 36 39  1  0
 39 40  1  0
 39 41  1  0
 41 42  1  0
 41 43  1  0
 41 44  1  0
 25 45  2  0
 45 46  1  0
 17 47  1  0
 47 48  1  0
 12 49  1  0
 49  3  1  0
 47 13  2  0
 45 18  1  0
 35 26  1  0
M  CHG  1  49  -1
M  END
>  <UniqueID>  (45) 
44

>  <SMILES>  (45) 
[H]/N=c1/nc(C)cc(-c2cnn(-c3cccc(-c4ccccc4S(=O)(=O)NC)c3)c2)[n-]1

>  <Energy>  (45) 
90.59881362089291

>  <Genealogy>  (45) 
CNS(=O)(=O)c1ccccc1-c1cccc(-n2cc(-c3cc(C)nc(=N)[n-]3)cn2)c1 (protonated)
[H]/N=c1/nc(C)cc(-c2cnn(-c3cccc(-c4ccccc4S(=O)(=O)NC)c3)c2)[n-]1 (cis-trans isomerization)
[H]/N=c1/nc(C)cc(-c2cnn(-c3cccc(-c4ccccc4S(=O)(=O)NC)c3)c2)[n-]1 (3D coordinates assigned)
[H]/N=c1/nc(C)cc(-c2cnn(-c3cccc(-c4ccccc4S(=O)(=O)NC)c3)c2)[n-]1 (optimized conformer: 90.59881362089291 kcal/mol)

>  <smiles>  (45) 
CNS(=O)(=O)c1ccccc1-c1cccc(-n2cc(-c3cc(C)nc(=N)[nH]3)cn2)c1

>  <score_type>  (45) 
oracle

>  <origin>  (45) 
adgpu

>  <m_score__min__energy>  (45) 
-11.109999999999999

>  <m_primary>  (45) 
energy

$$$$
45:0
     RDKit          3D

 33 35  0  0  0  0  0  0  0  0999 V2000
   -3.4910   16.0580  -35.0630 C   0  0  0  0  0  0  0  0  0  0  0  0
   -4.6750   16.6070  -34.3150 C   0  0  0  0  0  0  0  0  0  0  0  0
   -4.6940   17.9560  -33.9270 C   0  0  0  0  0  0  0  0  0  0  0  0
   -5.7910   18.5020  -33.2310 C   0  0  0  0  0  0  0  0  0  0  0  0
   -5.7500   19.9410  -32.8610 C   0  0  0  0  0  0  0  0  0  0  0  0
   -6.5980   20.8780  -33.3290 N   0  0  0  0  0  0  0  0  0  0  0  0
   -6.2230   22.0210  -32.7880 N   0  0  0  0  0  0  0  0  0  0  0  0
   -5.1540   21.7760  -32.0060 C   0  0  0  0  0  0  0  0  0  0  0  0
   -4.4150   22.7940  -31.2160 C   0  0  0  0  0  0  0  0  0  0  0  0
   -5.0180   24.0040  -30.8370 C   0  0  0  0  0  0  0  0  0  0  0  0
   -4.3060   24.9460  -30.0950 C   0  0  0  0  0  0  0  0  0  0  0  0
   -2.9840   24.7020  -29.7170 C   0  0  0  0  0  0  0  0  0  0  0  0
   -2.3140   25.6700  -28.9780 O   0  0  0  0  0  0  0  0  0  0  0  0
   -2.3530   23.4920  -30.0840 C   0  0  0  0  0  0  0  0  0  0  0  0
   -0.9880   23.2050  -29.7110 N   0  0  0  0  0  0  0  0  0  0  0  0
   -0.4900   22.0760  -29.8940 O   0  0  0  0  0  0  0  0  0  0  0  0
   -0.2030   24.1820  -29.1420 O   0  0  0  0  0  0  0  0  0  0  0  0
   -3.0840   22.5490  -30.8320 C   0  0  0  0  0  0  0  0  0  0  0  0
   -4.8240   20.4690  -32.0290 N   0  0  0  0  0  0  0  0  0  0  0  0
   -6.8820   17.6560  -32.9150 C   0  0  0  0  0  0  0  0  0  0  0  0
   -8.2870   18.1980  -32.0000 Cl  0  0  0  0  0  0  0  0  0  0  0  0
   -6.8600   16.3120  -33.3040 C   0  0  0  0  0  0  0  0  0  0  0  0
   -5.7710   15.7850  -34.0010 C   0  0  0  0  0  0  0  0  0  0  0  0
   -5.8080   14.0860  -34.4600 Cl  0  0  0  0  0  0  0  0  0  0  0  0
   -2.7345   15.7072  -34.3455 H   0  0  0  0  0  0  0  0  0  0  0  0
   -3.8141   15.2178  -35.6952 H   0  0  0  0  0  0  0  0  0  0  0  0
   -3.0585   16.8475  -35.6952 H   0  0  0  0  0  0  0  0  0  0  0  0
   -3.8358   18.5994  -34.1710 H   0  0  0  0  0  0  0  0  0  0  0  0
   -6.6950   22.9330  -32.9710 H   0  0  0  0  0  0  0  0  0  0  0  0
   -6.0588   24.2103  -31.1272 H   0  0  0  0  0  0  0  0  0  0  0  0
   -4.7903   25.8901  -29.8048 H   0  0  0  0  0  0  0  0  0  0  0  0
   -2.6048   21.6022  -31.1217 H   0  0  0  0  0  0  0  0  0  0  0  0
   -7.7123   15.6618  -33.0573 H   0  0  0  0  0  0  0  0  0  0  0  0
  1  2  1  0
  2  3  2  0
  3  4  1  0
  4  5  1  0
  5  6  2  0
  6  7  1  0
  7  8  1  0
  8  9  1  0
  9 10  2  0
 10 11  1  0
 11 12  2  0
 12 13  1  0
 12 14  1  0
 14 15  1  0
 15 16  2  0
 15 17  1  0
 14 18  2  0
  8 19  2  0
  4 20  2  0
 20 21  1  0
 20 22  1  0
 22 23  2  0
 23 24  1  0
 23  2  1  0
 19  5  1  0
 18  9  1  0
  1 25  1  0
  1 26  1  0
  1 27  1  0
  3 28  1  0
  7 29  1  0
 10 30  1  0
 11 31  1  0
 18 32  1  0
 22 33  1  0
M  CHG  3  13  -1  15   1  17  -1
M  END
>  <UniqueID>  (46) 
45

>  <SMILES>  (46) 
Cc1cc(-c2n[nH]c(-c3ccc([O-])c([N+](=O)[O-])c3)n2)c(Cl)cc1Cl

>  <Energy>  (46) 
77.58915311690583

>  <Genealogy>  (46) 
Cc1cc(-c2n[nH]c(-c3ccc([O-])c([N+](=O)[O-])c3)n2)c(Cl)cc1Cl (protonated)
Cc1cc(-c2n[nH]c(-c3ccc([O-])c([N+](=O)[O-])c3)n2)c(Cl)cc1Cl (3D coordinates assigned)
Cc1cc(-c2n[nH]c(-c3ccc([O-])c([N+](=O)[O-])c3)n2)c(Cl)cc1Cl (optimized conformer: 77.58915311690583 kcal/mol)

>  <smiles>  (46) 
Cc1cc(-c2n[nH]c(-c3ccc(O)c([N+](=O)[O-])c3)n2)c(Cl)cc1Cl

>  <score_type>  (46) 
oracle

>  <origin>  (46) 
adgpu

>  <m_score__min__energy>  (46) 
-10.4

>  <m_primary>  (46) 
energy

$$$$
46:0
     RDKit          3D

 39 41  0  0  0  0  0  0  0  0999 V2000
   -0.5339   19.6398  -33.2845 H   0  0  0  0  0  0  0  0  0  0  0  0
   -1.2940   20.3330  -32.8950 C   0  0  0  0  0  0  0  0  0  0  0  0
   -2.4960   20.5120  -33.5850 C   0  0  0  0  0  0  0  0  0  0  0  0
   -2.6813   19.9596  -34.5180 H   0  0  0  0  0  0  0  0  0  0  0  0
   -3.4630   21.3920  -33.0910 C   0  0  0  0  0  0  0  0  0  0  0  0
   -4.4093   21.5250  -33.6358 H   0  0  0  0  0  0  0  0  0  0  0  0
   -3.2350   22.1090  -31.9020 C   0  0  0  0  0  0  0  0  0  0  0  0
   -4.2440   23.0710  -31.4000 C   0  0  0  0  0  0  0  0  0  0  0  0
   -3.8820   24.2700  -30.8550 N   0  0  0  0  0  0  0  0  0  0  0  0
   -5.3100   25.0460  -30.5030 S   0  0  0  0  0  0  0  0  0  0  0  0
   -6.3210   23.8560  -31.0550 C   0  0  0  0  0  0  0  0  0  0  0  0
   -7.6180   23.9210  -31.0640 N   0  0  0  0  0  0  0  0  0  0  0  0
   -8.5200   22.9370  -31.5990 C   0  0  0  0  0  0  0  0  0  0  0  0
   -9.4030   23.3080  -32.4140 O   0  0  0  0  0  0  0  0  0  0  0  0
   -8.4570   21.5480  -31.2370 N   0  0  0  0  0  0  0  0  0  0  0  0
   -7.8840   20.4870  -32.0140 C   0  0  0  0  0  0  0  0  0  0  0  0
   -8.2220   19.1670  -31.7080 C   0  0  0  0  0  0  0  0  0  0  0  0
   -8.9723   18.9628  -30.9299 H   0  0  0  0  0  0  0  0  0  0  0  0
   -7.6160   18.1040  -32.3810 C   0  0  0  0  0  0  0  0  0  0  0  0
   -7.8794   17.0699  -32.1141 H   0  0  0  0  0  0  0  0  0  0  0  0
   -6.6710   18.3420  -33.3980 C   0  0  0  0  0  0  0  0  0  0  0  0
   -6.0120   17.2400  -34.0700 N   0  0  0  0  0  0  0  0  0  0  0  0
   -6.4900   15.8640  -33.8910 C   0  0  0  0  0  0  0  0  0  0  0  0
   -6.5679   15.6397  -32.8169 H   0  0  0  0  0  0  0  0  0  0  0  0
   -7.4786   15.7552  -34.3610 H   0  0  0  0  0  0  0  0  0  0  0  0
   -5.7818   15.1658  -34.3610 H   0  0  0  0  0  0  0  0  0  0  0  0
   -4.8720   17.4880  -34.9600 C   0  0  0  0  0  0  0  0  0  0  0  0
   -3.9725   17.6837  -34.3578 H   0  0  0  0  0  0  0  0  0  0  0  0
   -4.7035   16.6055  -35.5947 H   0  0  0  0  0  0  0  0  0  0  0  0
   -5.0854   18.3607  -35.5947 H   0  0  0  0  0  0  0  0  0  0  0  0
   -6.3770   19.6790  -33.7400 C   0  0  0  0  0  0  0  0  0  0  0  0
   -5.6638   19.8890  -34.5507 H   0  0  0  0  0  0  0  0  0  0  0  0
   -6.9820   20.7390  -33.0600 C   0  0  0  0  0  0  0  0  0  0  0  0
   -6.7506   21.7758  -33.3455 H   0  0  0  0  0  0  0  0  0  0  0  0
   -5.5860   22.8190  -31.5070 N   0  0  0  0  0  0  0  0  0  0  0  0
   -2.0220   21.9180  -31.2130 C   0  0  0  0  0  0  0  0  0  0  0  0
   -1.8315   22.4663  -30.2786 H   0  0  0  0  0  0  0  0  0  0  0  0
   -1.0580   21.0350  -31.7100 C   0  0  0  0  0  0  0  0  0  0  0  0
   -0.1120   20.8928  -31.1669 H   0  0  0  0  0  0  0  0  0  0  0  0
  1  2  1  0
  2  3  2  0
  3  4  1  0
  3  5  1  0
  5  6  1  0
  5  7  2  0
  7  8  1  0
  8  9  2  0
  9 10  1  0
 10 11  1  0
 11 12  2  0
 12 13  1  0
 13 14  2  0
 13 15  1  0
 15 16  1  0
 16 17  2  0
 17 18  1  0
 17 19  1  0
 19 20  1  0
 19 21  2  0
 21 22  1  0
 22 23  1  0
 23 24  1  0
 23 25  1  0
 23 26  1  0
 22 27  1  0
 27 28  1  0
 27 29  1  0
 27 30  1  0
 21 31  1  0
 31 32  1  0
 31 33  2  0
 33 34  1  0
 11 35  1  0
  7 36  1  0
 36 37  1  0
 36 38  2  0
 38 39  1  0
 38  2  1  0
 35  8  1  0
 33 16  1  0
M  CHG  2  15  -1  35  -1
M  END
>  <UniqueID>  (47) 
46

>  <SMILES>  (47) 
CN(C)c1ccc([N-]C(=O)/N=c2\[n-]c(-c3ccccc3)ns2)cc1

>  <Energy>  (47) 
87.21518224809903

>  <Genealogy>  (47) 
CN(C)c1ccc([N-]C(=O)N=c2[n-]c(-c3ccccc3)ns2)cc1 (protonated)
CN(C)c1ccc([N-]C(=O)/N=c2\[n-]c(-c3ccccc3)ns2)cc1 (cis-trans isomerization)
CN(C)c1ccc([N-]C(=O)/N=c2\[n-]c(-c3ccccc3)ns2)cc1 (3D coordinates assigned)
CN(C)c1ccc([N-]C(=O)/N=c2\[n-]c(-c3ccccc3)ns2)cc1 (optimized conformer: 87.21518224809903 kcal/mol)

>  <smiles>  (47) 
CN(C)c1ccc(NC(=O)N=c2[nH]c(-c3ccccc3)ns2)cc1

>  <score_type>  (47) 
oracle

>  <origin>  (47) 
adgpu

>  <m_score__min__energy>  (47) 
-9.8200000000000003

>  <m_primary>  (47) 
energy

$$$$
47:0
     RDKit          3D

 50 52  0  0  0  0  0  0  0  0999 V2000
   -2.8950   18.9390  -26.4100 C   0  0  0  0  0  0  0  0  0  0  0  0
   -2.5710   19.3970  -27.7190 O   0  0  0  0  0  0  0  0  0  0  0  0
   -2.6430   20.7370  -28.1350 C   0  0  0  0  0  0  0  0  0  0  0  0
   -3.4990   21.6640  -27.5100 C   0  0  0  0  0  0  0  0  0  0  0  0
   -3.5420   22.9910  -27.9420 C   0  0  0  0  0  0  0  0  0  0  0  0
   -2.7230   23.4220  -28.9930 C   0  0  0  0  0  0  0  0  0  0  0  0
   -2.7700   24.8210  -29.4640 C   0  0  0  0  0  0  0  0  0  0  0  0
   -1.9900   25.6650  -28.9510 O   0  0  0  0  0  0  0  0  0  0  0  0
   -3.7010   25.2590  -30.4610 N   0  0  0  0  0  0  0  0  0  0  0  0
   -5.1480   25.3080  -30.2860 C   0  0  0  0  0  0  0  0  0  0  0  0
   -5.7650   24.0920  -30.9140 C   0  0  0  0  0  0  0  0  0  0  0  0
   -7.1450   23.8680  -30.8130 C   0  0  0  0  0  0  0  0  0  0  0  0
   -7.7130   22.7180  -31.3630 C   0  0  0  0  0  0  0  0  0  0  0  0
   -6.9090   21.7790  -32.0140 C   0  0  0  0  0  0  0  0  0  0  0  0
   -5.5210   21.9810  -32.1210 C   0  0  0  0  0  0  0  0  0  0  0  0
   -4.6560   20.9820  -32.7950 C   0  0  0  0  0  0  0  0  0  0  0  0
   -5.1600   20.1960  -33.6430 O   0  0  0  0  0  0  0  0  0  0  0  0
   -3.2630   20.8650  -32.4560 N   0  0  0  0  0  0  0  0  0  0  0  0
   -2.2830   20.2450  -33.3070 C   0  0  0  0  0  0  0  0  0  0  0  0
   -2.3660   18.8680  -33.5640 C   0  0  0  0  0  0  0  0  0  0  0  0
   -1.4130   18.2380  -34.3710 C   0  0  0  0  0  0  0  0  0  0  0  0
   -0.3590   18.9770  -34.9190 C   0  0  0  0  0  0  0  0  0  0  0  0
    0.6240   18.3290  -35.7480 C   0  0  0  0  0  0  0  0  0  0  0  0
    1.4130   17.8060  -36.4140 N   0  0  0  0  0  0  0  0  0  0  0  0
   -0.2560   20.3480  -34.6510 C   0  0  0  0  0  0  0  0  0  0  0  0
   -1.2090   20.9780  -33.8440 C   0  0  0  0  0  0  0  0  0  0  0  0
   -4.9560   23.1380  -31.5540 C   0  0  0  0  0  0  0  0  0  0  0  0
   -1.8850   22.4980  -29.6340 C   0  0  0  0  0  0  0  0  0  0  0  0
   -1.8380   21.1600  -29.2110 C   0  0  0  0  0  0  0  0  0  0  0  0
   -0.9150   20.1880  -29.8900 C   0  0  0  0  0  0  0  0  0  0  0  0
   -2.4279   19.5993  -25.6644 H   0  0  0  0  0  0  0  0  0  0  0  0
   -3.9869   18.9507  -26.2773 H   0  0  0  0  0  0  0  0  0  0  0  0
   -2.5205   17.9133  -26.2773 H   0  0  0  0  0  0  0  0  0  0  0  0
   -4.1384   21.3404  -26.6755 H   0  0  0  0  0  0  0  0  0  0  0  0
   -4.2238   23.7027  -27.4535 H   0  0  0  0  0  0  0  0  0  0  0  0
   -5.3878   25.3291  -29.2127 H   0  0  0  0  0  0  0  0  0  0  0  0
   -5.5469   26.2136  -30.7665 H   0  0  0  0  0  0  0  0  0  0  0  0
   -7.7828   24.6016  -30.2982 H   0  0  0  0  0  0  0  0  0  0  0  0
   -8.7972   22.5503  -31.2837 H   0  0  0  0  0  0  0  0  0  0  0  0
   -7.3644   20.8756  -32.4458 H   0  0  0  0  0  0  0  0  0  0  0  0
   -2.9670   21.1460  -31.4940 H   0  0  0  0  0  0  0  0  0  0  0  0
   -3.1866   18.2797  -33.1276 H   0  0  0  0  0  0  0  0  0  0  0  0
   -1.4923   17.1600  -34.5751 H   0  0  0  0  0  0  0  0  0  0  0  0
    0.5753   20.9298  -35.0757 H   0  0  0  0  0  0  0  0  0  0  0  0
   -1.1182   22.0528  -33.6280 H   0  0  0  0  0  0  0  0  0  0  0  0
   -3.8692   23.2975  -31.6124 H   0  0  0  0  0  0  0  0  0  0  0  0
   -1.2582   22.8249  -30.4768 H   0  0  0  0  0  0  0  0  0  0  0  0
   -0.3671   19.6110  -29.1305 H   0  0  0  0  0  0  0  0  0  0  0  0
   -1.5024   19.5023  -30.5183 H   0  0  0  0  0  0  0  0  0  0  0  0
   -0.1998   20.7392  -30.5183 H   0  0  0  0  0  0  0  0  0  0  0  0
  1  2  1  0
  2  3  1  0
  3  4  2  0
  4  5  1  0
  5  6  2  0
  6  7  1  0
  7  8  2  0
  7  9  1  0
  9 10  1  0
 10 11  1  0
 11 12  2  0
 12 13  1  0
 13 14  2  0
 14 15  1  0
 15 16  1  0
 16 17  2  0
 16 18  1  0
 18 19  1  0
 19 20  2  0
 20 21  1  0
 21 22  2  0
 22 23  1  0
 23 24  3  0
 22 25  1  0
 25 26  2  0
 15 27  2  0
  6 28  1  0
 28 29  2  0
 29 30  1  0
 29  3  1  0
 27 11  1  0
 26 19  1  0
  1 31  1  0
  1 32  1  0
  1 33  1  0
  4 34  1  0
  5 35  1  0
 10 36  1  0
 10 37  1  0
 12 38  1  0
 13 39  1  0
 14 40  1  0
 18 41  1  0
 20 42  1  0
 21 43  1  0
 25 44  1  0
 26 45  1  0
 27 46  1  0
 28 47  1  0
 30 48  1  0
 30 49  1  0
 30 50  1  0
M  CHG  1   9  -1
M  END
>  <UniqueID>  (48) 
47

>  <SMILES>  (48) 
COc1ccc(C(=O)[N-]Cc2cccc(C(=O)Nc3ccc(C#N)cc3)c2)cc1C

>  <Energy>  (48) 
59.873357749353204

>  <Genealogy>  (48) 
COc1ccc(C(=O)[N-]Cc2cccc(C(=O)Nc3ccc(C#N)cc3)c2)cc1C (protonated)
COc1ccc(C(=O)[N-]Cc2cccc(C(=O)Nc3ccc(C#N)cc3)c2)cc1C (3D coordinates assigned)
COc1ccc(C(=O)[N-]Cc2cccc(C(=O)Nc3ccc(C#N)cc3)c2)cc1C (optimized conformer: 59.873357749353204 kcal/mol)

>  <smiles>  (48) 
COc1ccc(C(=O)NCc2cccc(C(=O)Nc3ccc(C#N)cc3)c2)cc1C

>  <score_type>  (48) 
oracle

>  <origin>  (48) 
adgpu

>  <m_score__min__energy>  (48) 
-10.91

>  <m_primary>  (48) 
energy

$$$$
48:0
     RDKit          3D

 31 32  0  0  0  0  0  0  0  0999 V2000
   -0.8180   25.7350  -26.1810 C   0  0  0  0  0  0  0  0  0  0  0  0
   -0.1300   24.7340  -27.5330 S   0  0  0  0  0  0  0  0  0  0  0  0
   -1.7390   24.2860  -28.1730 C   0  0  0  0  0  0  0  0  0  0  0  0
   -2.4060   23.2260  -27.6470 N   0  0  0  0  0  0  0  0  0  0  0  0
   -3.6320   22.8740  -28.1100 C   0  0  0  0  0  0  0  0  0  0  0  0
   -4.2330   21.8940  -27.5940 O   0  0  0  0  0  0  0  0  0  0  0  0
   -4.2290   23.6090  -29.1430 C   0  0  0  0  0  0  0  0  0  0  0  0
   -5.5490   23.2860  -29.5910 N   0  0  0  0  0  0  0  0  0  0  0  0
   -5.8650   23.1260  -31.2880 S   0  0  0  0  0  0  0  0  0  0  0  0
   -6.4900   24.3840  -31.8200 O   0  0  0  0  0  0  0  0  0  0  0  0
   -4.5680   22.8990  -32.0100 O   0  0  0  0  0  0  0  0  0  0  0  0
   -6.9310   21.7460  -31.5610 C   0  0  0  0  0  0  0  0  0  0  0  0
   -6.3960   20.4510  -31.6060 C   0  0  0  0  0  0  0  0  0  0  0  0
   -7.2350   19.3470  -31.7850 C   0  0  0  0  0  0  0  0  0  0  0  0
   -6.7120   18.0970  -31.8240 F   0  0  0  0  0  0  0  0  0  0  0  0
   -8.6150   19.5300  -31.9120 C   0  0  0  0  0  0  0  0  0  0  0  0
   -9.1570   20.8170  -31.8550 C   0  0  0  0  0  0  0  0  0  0  0  0
   -8.3210   21.9250  -31.6770 C   0  0  0  0  0  0  0  0  0  0  0  0
   -8.8710   23.1630  -31.6060 F   0  0  0  0  0  0  0  0  0  0  0  0
   -3.5150   24.6930  -29.6850 C   0  0  0  0  0  0  0  0  0  0  0  0
   -4.0360   25.4550  -30.7760 N   0  0  0  0  0  0  0  0  0  0  0  0
   -2.2920   25.0050  -29.1820 N   0  0  0  0  0  0  0  0  0  0  0  0
   -0.5198   25.3012  -25.2151 H   0  0  0  0  0  0  0  0  0  0  0  0
   -0.4351   26.7636  -26.2548 H   0  0  0  0  0  0  0  0  0  0  0  0
   -1.9155   25.7461  -26.2548 H   0  0  0  0  0  0  0  0  0  0  0  0
   -6.3550   23.5350  -28.9760 H   0  0  0  0  0  0  0  0  0  0  0  0
   -5.3112   20.3028  -31.5000 H   0  0  0  0  0  0  0  0  0  0  0  0
   -9.2742   18.6614  -32.0568 H   0  0  0  0  0  0  0  0  0  0  0  0
  -10.2436   20.9593  -31.9503 H   0  0  0  0  0  0  0  0  0  0  0  0
   -3.8670   26.4840  -30.8200 H   0  0  0  0  0  0  0  0  0  0  0  0
   -4.5280   25.0010  -31.5760 H   0  0  0  0  0  0  0  0  0  0  0  0
  1  2  1  0
  2  3  1  0
  3  4  2  0
  4  5  1  0
  5  6  2  0
  5  7  1  0
  7  8  1  0
  8  9  1  0
  9 10  2  0
  9 11  2  0
  9 12  1  0
 12 13  2  0
 13 14  1  0
 14 15  1  0
 14 16  2  0
 16 17  1  0
 17 18  2  0
 18 19  1  0
  7 20  2  0
 20 21  1  0
 20 22  1  0
 22  3  1  0
 18 12  1  0
  1 23  1  0
  1 24  1  0
  1 25  1  0
  8 26  1  0
 13 27  1  0
 16 28  1  0
 17 29  1  0
 21 30  1  0
 21 31  1  0
M  CHG  1  22  -1
M  END
>  <UniqueID>  (49) 
48

>  <SMILES>  (49) 
CSc1nc(=O)c(NS(=O)(=O)c2cc(F)ccc2F)c(N)[n-]1

>  <Energy>  (49) 
36.36571076421072

>  <Genealogy>  (49) 
CSc1nc(=O)c(NS(=O)(=O)c2cc(F)ccc2F)c(N)[n-]1 (protonated)
CSc1nc(=O)c(NS(=O)(=O)c2cc(F)ccc2F)c(N)[n-]1 (3D coordinates assigned)
CSc1nc(=O)c(NS(=O)(=O)c2cc(F)ccc2F)c(N)[n-]1 (optimized conformer: 36.36571076421072 kcal/mol)

>  <smiles>  (49) 
CSc1nc(=O)c(NS(=O)(=O)c2cc(F)ccc2F)c(N)[nH]1

>  <score_type>  (49) 
oracle

>  <origin>  (49) 
adgpu

>  <m_score__min__energy>  (49) 
-8.7200000000000006

>  <m_primary>  (49) 
energy

$$$$
