0:0
     RDKit          3D

 56 59  0  0  0  0  0  0  0  0999 V2000
   -5.9880   26.2200  -30.1230 O   0  0  0  0  0  0  0  0  0  0  0  0
   -5.3070   25.2190  -30.4780 C   0  0  0  0  0  0  0  0  0  0  0  0
   -3.8740   25.2830  -30.4710 N   0  0  0  0  0  0  0  0  0  0  0  0
   -2.9750   24.4510  -29.7220 C   0  0  0  0  0  0  0  0  0  0  0  0
   -2.5630   23.2370  -30.2840 C   0  0  0  0  0  0  0  0  0  0  0  0
   -1.6840   22.3970  -29.5940 C   0  0  0  0  0  0  0  0  0  0  0  0
   -1.2000   22.7660  -28.3310 C   0  0  0  0  0  0  0  0  0  0  0  0
   -0.0940   21.7010  -27.4550 S   0  0  0  0  0  0  0  0  0  0  0  0
    0.8680   21.0880  -28.4330 O   0  0  0  0  0  0  0  0  0  0  0  0
    0.6990   22.5180  -26.4740 O   0  0  0  0  0  0  0  0  0  0  0  0
   -0.9220   20.4270  -26.5920 N   0  0  0  0  0  0  0  0  0  0  0  0
   -0.5780   19.1040  -27.1070 C   0  0  0  0  0  0  0  0  0  0  0  0
   -1.7410   18.1930  -26.7480 C   0  0  0  0  0  0  0  0  0  0  0  0
   -2.9260   19.1240  -26.5340 C   0  0  0  0  0  0  0  0  0  0  0  0
   -2.3740   20.5310  -26.7140 C   0  0  0  0  0  0  0  0  0  0  0  0
   -1.5770   23.9990  -27.7830 C   0  0  0  0  0  0  0  0  0  0  0  0
   -2.4540   24.8410  -28.4740 C   0  0  0  0  0  0  0  0  0  0  0  0
   -5.9900   23.9510  -30.8290 C   0  0  0  0  0  0  0  0  0  0  0  0
   -5.9710   23.4690  -32.1500 C   0  0  0  0  0  0  0  0  0  0  0  0
   -6.5900   22.2570  -32.4700 C   0  0  0  0  0  0  0  0  0  0  0  0
   -7.2440   21.5130  -31.4800 C   0  0  0  0  0  0  0  0  0  0  0  0
   -8.0280   19.9850  -31.8770 S   0  0  0  0  0  0  0  0  0  0  0  0
   -9.2190   19.7840  -30.9800 O   0  0  0  0  0  0  0  0  0  0  0  0
   -8.5120   20.0530  -33.2990 O   0  0  0  0  0  0  0  0  0  0  0  0
   -6.8790   18.6770  -31.6890 N   0  0  0  0  0  0  0  0  0  0  0  0
   -7.2220   17.5120  -32.5360 C   0  0  0  0  0  0  0  0  0  0  0  0
   -6.4120   17.4690  -33.8450 C   0  0  0  0  0  0  0  0  0  0  0  0
   -6.1270   18.7770  -34.2900 O   0  0  0  0  0  0  0  0  0  0  0  0
   -5.2110   19.4070  -33.4100 C   0  0  0  0  0  0  0  0  0  0  0  0
   -5.4970   19.1340  -31.9140 C   0  0  0  0  0  0  0  0  0  0  0  0
   -7.2850   21.9980  -30.1690 C   0  0  0  0  0  0  0  0  0  0  0  0
   -6.6570   23.2020  -29.8430 C   0  0  0  0  0  0  0  0  0  0  0  0
   -2.9339   22.9416  -31.2766 H   0  0  0  0  0  0  0  0  0  0  0  0
   -1.3710   21.4431  -30.0436 H   0  0  0  0  0  0  0  0  0  0  0  0
   -0.4464   19.1421  -28.1984 H   0  0  0  0  0  0  0  0  0  0  0  0
    0.3653   18.7387  -26.6749 H   0  0  0  0  0  0  0  0  0  0  0  0
   -1.9467   17.4889  -27.5677 H   0  0  0  0  0  0  0  0  0  0  0  0
   -1.5280   17.5868  -25.8552 H   0  0  0  0  0  0  0  0  0  0  0  0
   -3.7129   18.9217  -27.2756 H   0  0  0  0  0  0  0  0  0  0  0  0
   -3.3792   18.9869  -25.5411 H   0  0  0  0  0  0  0  0  0  0  0  0
   -2.6448   20.9211  -27.7062 H   0  0  0  0  0  0  0  0  0  0  0  0
   -2.7876   21.2192  -25.9621 H   0  0  0  0  0  0  0  0  0  0  0  0
   -1.1810   24.3065  -26.8039 H   0  0  0  0  0  0  0  0  0  0  0  0
   -2.7377   25.8115  -28.0407 H   0  0  0  0  0  0  0  0  0  0  0  0
   -5.4660   24.0492  -32.9363 H   0  0  0  0  0  0  0  0  0  0  0  0
   -6.5632   21.8857  -33.5051 H   0  0  0  0  0  0  0  0  0  0  0  0
   -7.0206   16.5922  -31.9673 H   0  0  0  0  0  0  0  0  0  0  0  0
   -8.2848   17.5993  -32.8060 H   0  0  0  0  0  0  0  0  0  0  0  0
   -5.4681   16.9320  -33.6697 H   0  0  0  0  0  0  0  0  0  0  0  0
   -7.0040   16.9514  -34.6142 H   0  0  0  0  0  0  0  0  0  0  0  0
   -4.1996   19.0423  -33.6423 H   0  0  0  0  0  0  0  0  0  0  0  0
   -5.3119   20.4915  -33.5637 H   0  0  0  0  0  0  0  0  0  0  0  0
   -4.8041   18.3582  -31.5561 H   0  0  0  0  0  0  0  0  0  0  0  0
   -5.3582   20.0769  -31.3648 H   0  0  0  0  0  0  0  0  0  0  0  0
   -7.8144   21.4285  -29.3909 H   0  0  0  0  0  0  0  0  0  0  0  0
   -6.6843   23.5678  -28.8059 H   0  0  0  0  0  0  0  0  0  0  0  0
  1  2  2  0
  2  3  1  0
  3  4  1  0
  4  5  2  0
  5  6  1  0
  6  7  2  0
  7  8  1  0
  8  9  2  0
  8 10  2  0
  8 11  1  0
 11 12  1  0
 12 13  1  0
 13 14  1  0
 14 15  1  0
  7 16  1  0
 16 17  2  0
  2 18  1  0
 18 19  2  0
 19 20  1  0
 20 21  2  0
 21 22  1  0
 22 23  2  0
 22 24  2  0
 22 25  1  0
 25 26  1  0
 26 27  1  0
 27 28  1  0
 28 29  1  0
 29 30  1  0
 21 31  1  0
 31 32  2  0
 17  4  1  0
 32 18  1  0
 15 11  1  0
 30 25  1  0
  5 33  1  0
  6 34  1  0
 12 35  1  0
 12 36  1  0
 13 37  1  0
 13 38  1  0
 14 39  1  0
 14 40  1  0
 15 41  1  0
 15 42  1  0
 16 43  1  0
 17 44  1  0
 19 45  1  0
 20 46  1  0
 26 47  1  0
 26 48  1  0
 27 49  1  0
 27 50  1  0
 29 51  1  0
 29 52  1  0
 30 53  1  0
 30 54  1  0
 31 55  1  0
 32 56  1  0
M  CHG  1   3  -1
M  END
>  <UniqueID>  (1) 
1

>  <SMILES>  (1) 
O=C([N-]c1ccc(S(=O)(=O)N2CCCC2)cc1)c1ccc(S(=O)(=O)N2CCOCC2)cc1

>  <Energy>  (1) 
74.86732893964805

>  <Genealogy>  (1) 
O=C([N-]c1ccc(S(=O)(=O)N2CCCC2)cc1)c1ccc(S(=O)(=O)N2CCOCC2)cc1 (protonated)
O=C([N-]c1ccc(S(=O)(=O)N2CCCC2)cc1)c1ccc(S(=O)(=O)N2CCOCC2)cc1 (3D coordinates assigned)
O=C([N-]c1ccc(S(=O)(=O)N2CCCC2)cc1)c1ccc(S(=O)(=O)N2CCOCC2)cc1 (nonaromatic ring conformer: 74.86732893964805 kcal/mol)

>  <smiles>  (1) 
O=C(Nc1ccc(S(=O)(=O)N2CCCC2)cc1)c1ccc(S(=O)(=O)N2CCOCC2)cc1

>  <score_type>  (1) 
oracle

>  <origin>  (1) 
adgpu

>  <m_score__min__energy>  (1) 
-12.26

>  <m_primary>  (1) 
energy

$$$$
1:0
     RDKit          3D

 27 28  0  0  0  0  0  0  0  0999 V2000
   -5.5750   16.3840  -34.1710 C   0  0  0  0  0  0  0  0  0  0  0  0
   -5.0910   17.6370  -34.6440 O   0  0  0  0  0  0  0  0  0  0  0  0
   -5.1810   18.8410  -33.9290 C   0  0  0  0  0  0  0  0  0  0  0  0
   -6.4480   19.3890  -33.7050 C   0  0  0  0  0  0  0  0  0  0  0  0
   -6.5910   20.5870  -33.0000 C   0  0  0  0  0  0  0  0  0  0  0  0
   -5.4620   21.2620  -32.5030 C   0  0  0  0  0  0  0  0  0  0  0  0
   -5.6120   22.5360  -31.7540 C   0  0  0  0  0  0  0  0  0  0  0  0
   -6.8820   22.9750  -31.3370 C   0  0  0  0  0  0  0  0  0  0  0  0
   -7.0210   24.1730  -30.6310 C   0  0  0  0  0  0  0  0  0  0  0  0
   -5.8990   24.9510  -30.3300 C   0  0  0  0  0  0  0  0  0  0  0  0
   -6.0670   26.1420  -29.6250 O   0  0  0  0  0  0  0  0  0  0  0  0
   -4.6270   24.5230  -30.7430 C   0  0  0  0  0  0  0  0  0  0  0  0
   -3.5000   25.2850  -30.4570 O   0  0  0  0  0  0  0  0  0  0  0  0
   -4.4860   23.3240  -31.4480 C   0  0  0  0  0  0  0  0  0  0  0  0
   -4.1880   20.7110  -32.7300 C   0  0  0  0  0  0  0  0  0  0  0  0
   -4.0470   19.5130  -33.4360 C   0  0  0  0  0  0  0  0  0  0  0  0
   -5.5755   16.3827  -33.0710 H   0  0  0  0  0  0  0  0  0  0  0  0
   -6.5995   16.2243  -34.5383 H   0  0  0  0  0  0  0  0  0  0  0  0
   -4.9239   15.5771  -34.5383 H   0  0  0  0  0  0  0  0  0  0  0  0
   -7.3405   18.8721  -34.0874 H   0  0  0  0  0  0  0  0  0  0  0  0
   -7.5945   21.0052  -32.8325 H   0  0  0  0  0  0  0  0  0  0  0  0
   -7.7718   22.3710  -31.5683 H   0  0  0  0  0  0  0  0  0  0  0  0
   -8.0191   24.5059  -30.3102 H   0  0  0  0  0  0  0  0  0  0  0  0
   -5.3710   26.4830  -28.9730 H   0  0  0  0  0  0  0  0  0  0  0  0
   -3.4864   22.9933  -31.7665 H   0  0  0  0  0  0  0  0  0  0  0  0
   -3.2948   21.2274  -32.3486 H   0  0  0  0  0  0  0  0  0  0  0  0
   -3.0447   19.0933  -33.6071 H   0  0  0  0  0  0  0  0  0  0  0  0
  1  2  1  0
  2  3  1  0
  3  4  2  0
  4  5  1  0
  5  6  2  0
  6  7  1  0
  7  8  2  0
  8  9  1  0
  9 10  2  0
 10 11  1  0
 10 12  1  0
 12 13  1  0
 12 14  2  0
  6 15  1  0
 15 16  2  0
 16  3  1  0
 14  7  1  0
  1 17  1  0
  1 18  1  0
  1 19  1  0
  4 20  1  0
  5 21  1  0
  8 22  1  0
  9 23  1  0
 11 24  1  0
 14 25  1  0
 15 26  1  0
 16 27  1  0
M  CHG  1  13  -1
M  END
>  <UniqueID>  (2) 
2

>  <SMILES>  (2) 
COc1ccc(-c2ccc(O)c([O-])c2)cc1

>  <Energy>  (2) 
32.58197716089891

>  <Genealogy>  (2) 
COc1ccc(-c2ccc(O)c([O-])c2)cc1 (protonated)
COc1ccc(-c2ccc(O)c([O-])c2)cc1 (3D coordinates assigned)
COc1ccc(-c2ccc(O)c([O-])c2)cc1 (optimized conformer: 32.58197716089891 kcal/mol)

>  <smiles>  (2) 
COc1ccc(-c2ccc(O)c(O)c2)cc1

>  <score_type>  (2) 
oracle

>  <origin>  (2) 
adgpu

>  <m_score__min__energy>  (2) 
-9.4000000000000004

>  <m_primary>  (2) 
energy

$$$$
2:0
     RDKit          3D

 55 58  0  0  0  0  0  0  0  0999 V2000
   -6.3474   19.4669  -34.4149 H   0  0  0  0  0  0  0  0  0  0  0  0
   -5.4100   19.1870  -33.9120 C   0  0  0  0  0  0  0  0  0  0  0  0
   -4.7300   20.1110  -33.1850 N   0  0  0  0  0  0  0  0  0  0  0  0
   -3.5700   19.8150  -32.5370 C   0  0  0  0  0  0  0  0  0  0  0  0
   -2.8830   20.8770  -31.7580 C   0  0  0  0  0  0  0  0  0  0  0  0
   -3.6280   21.9350  -31.2070 C   0  0  0  0  0  0  0  0  0  0  0  0
   -4.7166   21.9720  -31.3605 H   0  0  0  0  0  0  0  0  0  0  0  0
   -3.0000   22.9390  -30.4670 C   0  0  0  0  0  0  0  0  0  0  0  0
   -3.5948   23.7706  -30.0612 H   0  0  0  0  0  0  0  0  0  0  0  0
   -1.6180   22.8960  -30.2370 C   0  0  0  0  0  0  0  0  0  0  0  0
   -0.9950   23.9540  -29.4900 N   0  0  0  0  0  0  0  0  0  0  0  0
   -1.2740   24.9390  -29.7020 H   0  0  0  0  0  0  0  0  0  0  0  0
   -0.1100   23.7470  -28.3800 C   0  0  0  0  0  0  0  0  0  0  0  0
    0.0430   22.5960  -27.8890 O   0  0  0  0  0  0  0  0  0  0  0  0
    0.6070   24.8650  -27.8440 N   0  0  0  0  0  0  0  0  0  0  0  0
    0.0460   25.9950  -27.1600 C   0  0  0  0  0  0  0  0  0  0  0  0
   -1.0280   25.7840  -26.2860 C   0  0  0  0  0  0  0  0  0  0  0  0
   -1.4302   24.7691  -26.1508 H   0  0  0  0  0  0  0  0  0  0  0  0
   -1.5930   26.8530  -25.5840 C   0  0  0  0  0  0  0  0  0  0  0  0
   -2.4450   26.6770  -24.9109 H   0  0  0  0  0  0  0  0  0  0  0  0
   -1.0760   28.1540  -25.7350 C   0  0  0  0  0  0  0  0  0  0  0  0
   -1.6100   29.2580  -25.0540 O   0  0  0  0  0  0  0  0  0  0  0  0
   -0.9150   30.4810  -24.8340 C   0  0  0  0  0  0  0  0  0  0  0  0
   -0.8152   30.6566  -23.7527 H   0  0  0  0  0  0  0  0  0  0  0  0
    0.0844   30.4219  -25.2897 H   0  0  0  0  0  0  0  0  0  0  0  0
   -1.4773   31.3094  -25.2897 H   0  0  0  0  0  0  0  0  0  0  0  0
    0.0150   28.3600  -26.5910 C   0  0  0  0  0  0  0  0  0  0  0  0
    0.5380   29.6030  -26.7330 F   0  0  0  0  0  0  0  0  0  0  0  0
    0.5780   27.2890  -27.2920 C   0  0  0  0  0  0  0  0  0  0  0  0
    1.4423   27.4604  -27.9505 H   0  0  0  0  0  0  0  0  0  0  0  0
   -0.8660   21.8490  -30.7940 C   0  0  0  0  0  0  0  0  0  0  0  0
    0.2233   21.8187  -30.6437 H   0  0  0  0  0  0  0  0  0  0  0  0
   -1.4930   20.8440  -31.5390 C   0  0  0  0  0  0  0  0  0  0  0  0
   -0.8945   20.0212  -31.9570 H   0  0  0  0  0  0  0  0  0  0  0  0
   -3.0440   18.5130  -32.6360 C   0  0  0  0  0  0  0  0  0  0  0  0
   -2.1075   18.2579  -32.1184 H   0  0  0  0  0  0  0  0  0  0  0  0
   -3.7120   17.5420  -33.3930 C   0  0  0  0  0  0  0  0  0  0  0  0
   -3.1990   16.3430  -33.4550 N   0  0  0  0  0  0  0  0  0  0  0  0
   -3.6600   15.2320  -34.2400 C   0  0  0  0  0  0  0  0  0  0  0  0
   -4.8100   14.5110  -33.8790 C   0  0  0  0  0  0  0  0  0  0  0  0
   -5.3484   14.7670  -32.9546 H   0  0  0  0  0  0  0  0  0  0  0  0
   -5.2740   13.4700  -34.6880 C   0  0  0  0  0  0  0  0  0  0  0  0
   -6.1639   12.8972  -34.3880 H   0  0  0  0  0  0  0  0  0  0  0  0
   -4.6050   13.1520  -35.8870 C   0  0  0  0  0  0  0  0  0  0  0  0
   -5.0270   12.1150  -36.7320 O   0  0  0  0  0  0  0  0  0  0  0  0
   -6.3890   11.7590  -36.9490 C   0  0  0  0  0  0  0  0  0  0  0  0
   -6.8925   11.6274  -35.9799 H   0  0  0  0  0  0  0  0  0  0  0  0
   -6.8903   12.5563  -37.5174 H   0  0  0  0  0  0  0  0  0  0  0  0
   -6.4361   10.8184  -37.5174 H   0  0  0  0  0  0  0  0  0  0  0  0
   -3.4790   13.8970  -36.2580 C   0  0  0  0  0  0  0  0  0  0  0  0
   -2.9530   13.6604  -37.1946 H   0  0  0  0  0  0  0  0  0  0  0  0
   -3.0180   14.9380  -35.4490 C   0  0  0  0  0  0  0  0  0  0  0  0
   -2.1459   15.5301  -35.7634 H   0  0  0  0  0  0  0  0  0  0  0  0
   -4.9240   17.8850  -34.0230 C   0  0  0  0  0  0  0  0  0  0  0  0
   -5.4826   17.1318  -34.5980 H   0  0  0  0  0  0  0  0  0  0  0  0
  1  2  1  0
  2  3  1  0
  3  4  1  0
  4  5  1  0
  5  6  2  0
  6  7  1  0
  6  8  1  0
  8  9  1  0
  8 10  2  0
 10 11  1  0
 11 12  1  0
 11 13  1  0
 13 14  2  0
 13 15  1  0
 15 16  1  0
 16 17  2  0
 17 18  1  0
 17 19  1  0
 19 20  1  0
 19 21  2  0
 21 22  1  0
 22 23  1  0
 23 24  1  0
 23 25  1  0
 23 26  1  0
 21 27  1  0
 27 28  1  0
 27 29  2  0
 29 30  1  0
 10 31  1  0
 31 32  1  0
 31 33  2  0
 33 34  1  0
  4 35  2  0
 35 36  1  0
 35 37  1  0
 37 38  2  0
 38 39  1  0
 39 40  2  0
 40 41  1  0
 40 42  1  0
 42 43  1  0
 42 44  2  0
 44 45  1  0
 45 46  1  0
 46 47  1  0
 46 48  1  0
 46 49  1  0
 44 50  1  0
 50 51  1  0
 50 52  2  0
 52 53  1  0
 37 54  1  0
 54 55  1  0
 54  2  2  0
 33  5  1  0
 52 39  1  0
 29 16  1  0
M  CHG  2   3  -1  15  -1
M  END
>  <UniqueID>  (3) 
3

>  <SMILES>  (3) 
COc1ccc(/N=c2\cc[n-]c(-c3ccc(NC(=O)[N-]c4ccc(OC)c(F)c4)cc3)c2)cc1

>  <Energy>  (3) 
79.86721573947057

>  <Genealogy>  (3) 
COc1ccc(N=c2cc[n-]c(-c3ccc(NC(=O)[N-]c4ccc(OC)c(F)c4)cc3)c2)cc1 (protonated)
COc1ccc(/N=c2\cc[n-]c(-c3ccc(NC(=O)[N-]c4ccc(OC)c(F)c4)cc3)c2)cc1 (cis-trans isomerization)
COc1ccc(/N=c2\cc[n-]c(-c3ccc(NC(=O)[N-]c4ccc(OC)c(F)c4)cc3)c2)cc1 (3D coordinates assigned)
COc1ccc(/N=c2\cc[n-]c(-c3ccc(NC(=O)[N-]c4ccc(OC)c(F)c4)cc3)c2)cc1 (optimized conformer: 79.86721573947057 kcal/mol)

>  <smiles>  (3) 
COc1ccc(N=c2cc[nH]c(-c3ccc(NC(=O)Nc4ccc(OC)c(F)c4)cc3)c2)cc1

>  <score_type>  (3) 
oracle

>  <origin>  (3) 
adgpu

>  <m_score__min__energy>  (3) 
-8.0999999999999996

>  <m_primary>  (3) 
energy

$$$$
3:0
     RDKit          3D

 43 45  0  0  0  0  0  0  0  0999 V2000
   -3.3500   23.8010  -29.5480 C   0  0  0  0  0  0  0  0  0  0  0  0
   -4.7720   23.3700  -29.2090 C   0  0  0  0  0  0  0  0  0  0  0  0
   -5.6320   23.4720  -30.3940 N   0  0  0  0  0  0  0  0  0  0  0  0
   -6.1120   24.7820  -30.8480 C   0  0  0  0  0  0  0  0  0  0  0  0
   -6.4460   25.6700  -29.6540 C   0  0  0  0  0  0  0  0  0  0  0  0
   -5.7690   22.3350  -31.2590 C   0  0  0  0  0  0  0  0  0  0  0  0
   -4.6560   21.7950  -31.8230 N   0  0  0  0  0  0  0  0  0  0  0  0
   -4.7190   20.7260  -32.6630 C   0  0  0  0  0  0  0  0  0  0  0  0
   -3.4800   20.1710  -33.2620 C   0  0  0  0  0  0  0  0  0  0  0  0
   -3.4100   18.8150  -33.6310 C   0  0  0  0  0  0  0  0  0  0  0  0
   -2.2390   18.2920  -34.1860 C   0  0  0  0  0  0  0  0  0  0  0  0
   -1.1290   19.1120  -34.3870 C   0  0  0  0  0  0  0  0  0  0  0  0
   -1.1840   20.4710  -34.0450 C   0  0  0  0  0  0  0  0  0  0  0  0
    0.0220   21.3450  -34.2240 C   0  0  0  0  0  0  0  0  0  0  0  0
   -2.3550   20.9920  -33.4680 C   0  0  0  0  0  0  0  0  0  0  0  0
   -5.9290   20.1740  -32.9490 N   0  0  0  0  0  0  0  0  0  0  0  0
   -7.0760   20.6620  -32.4100 C   0  0  0  0  0  0  0  0  0  0  0  0
   -8.3030   20.0620  -32.7150 C   0  0  0  0  0  0  0  0  0  0  0  0
   -9.4820   20.5500  -32.1430 C   0  0  0  0  0  0  0  0  0  0  0  0
   -9.4390   21.6340  -31.2630 C   0  0  0  0  0  0  0  0  0  0  0  0
   -8.2180   22.2420  -30.9530 C   0  0  0  0  0  0  0  0  0  0  0  0
   -7.0280   21.7670  -31.5330 C   0  0  0  0  0  0  0  0  0  0  0  0
   -2.7871   23.9716  -28.6184 H   0  0  0  0  0  0  0  0  0  0  0  0
   -2.8577   23.0117  -30.1351 H   0  0  0  0  0  0  0  0  0  0  0  0
   -3.3788   24.7308  -30.1351 H   0  0  0  0  0  0  0  0  0  0  0  0
   -4.7611   22.3278  -28.8573 H   0  0  0  0  0  0  0  0  0  0  0  0
   -5.1675   24.0293  -28.4223 H   0  0  0  0  0  0  0  0  0  0  0  0
   -5.3294   25.2654  -31.4513 H   0  0  0  0  0  0  0  0  0  0  0  0
   -7.0208   24.6391  -31.4511 H   0  0  0  0  0  0  0  0  0  0  0  0
   -6.2405   25.1235  -28.7217 H   0  0  0  0  0  0  0  0  0  0  0  0
   -5.8286   26.5797  -29.6895 H   0  0  0  0  0  0  0  0  0  0  0  0
   -7.5099   25.9473  -29.6895 H   0  0  0  0  0  0  0  0  0  0  0  0
   -4.2828   18.1623  -33.4816 H   0  0  0  0  0  0  0  0  0  0  0  0
   -2.1926   17.2291  -34.4655 H   0  0  0  0  0  0  0  0  0  0  0  0
   -0.2072   18.6914  -34.8152 H   0  0  0  0  0  0  0  0  0  0  0  0
    0.4170   21.6312  -33.2381 H   0  0  0  0  0  0  0  0  0  0  0  0
    0.7937   20.7951  -34.7826 H   0  0  0  0  0  0  0  0  0  0  0  0
   -0.2604   22.2496  -34.7826 H   0  0  0  0  0  0  0  0  0  0  0  0
   -2.3928   22.0515  -33.1745 H   0  0  0  0  0  0  0  0  0  0  0  0
   -8.3400   19.2061  -33.4050 H   0  0  0  0  0  0  0  0  0  0  0  0
  -10.4458   20.0791  -32.3866 H   0  0  0  0  0  0  0  0  0  0  0  0
  -10.3689   22.0109  -30.8121 H   0  0  0  0  0  0  0  0  0  0  0  0
   -8.1885   23.0919  -30.2553 H   0  0  0  0  0  0  0  0  0  0  0  0
  1  2  1  0
  2  3  1  0
  3  4  1  0
  4  5  1  0
  3  6  1  0
  6  7  2  0
  7  8  1  0
  8  9  1  0
  9 10  2  0
 10 11  1  0
 11 12  2  0
 12 13  1  0
 13 14  1  0
 13 15  2  0
  8 16  2  0
 16 17  1  0
 17 18  2  0
 18 19  1  0
 19 20  2  0
 20 21  1  0
 21 22  2  0
 22  6  1  0
 15  9  1  0
 22 17  1  0
  1 23  1  0
  1 24  1  0
  1 25  1  0
  2 26  1  0
  2 27  1  0
  4 28  1  0
  4 29  1  0
  5 30  1  0
  5 31  1  0
  5 32  1  0
 10 33  1  0
 11 34  1  0
 12 35  1  0
 14 36  1  0
 14 37  1  0
 14 38  1  0
 15 39  1  0
 18 40  1  0
 19 41  1  0
 20 42  1  0
 21 43  1  0
M  END
>  <UniqueID>  (4) 
4

>  <SMILES>  (4) 
CCN(CC)c1nc(-c2cccc(C)c2)nc2ccccc12

>  <Energy>  (4) 
47.153456670073574

>  <Genealogy>  (4) 
CCN(CC)c1nc(-c2cccc(C)c2)nc2ccccc12 (3D coordinates assigned)
CCN(CC)c1nc(-c2cccc(C)c2)nc2ccccc12 (optimized conformer: 47.153456670073574 kcal/mol)

>  <smiles>  (4) 
CCN(CC)c1nc(-c2cccc(C)c2)nc2ccccc12

>  <score_type>  (4) 
oracle

>  <origin>  (4) 
adgpu

>  <m_score__min__energy>  (4) 
-7.2999999999999998

>  <m_primary>  (4) 
energy

$$$$
4:0
     RDKit          3D

 31 33  0  0  0  0  0  0  0  0999 V2000
   -3.0930   25.2970  -29.7660 O   0  0  0  0  0  0  0  0  0  0  0  0
   -2.3660   24.1380  -29.5160 C   0  0  0  0  0  0  0  0  0  0  0  0
   -2.3590   23.0240  -30.3330 C   0  0  0  0  0  0  0  0  0  0  0  0
   -1.5040   22.1250  -29.7230 C   0  0  0  0  0  0  0  0  0  0  0  0
   -1.0820   20.4920  -30.3170 S   0  0  0  0  0  0  0  0  0  0  0  0
   -1.4890   19.7290  -28.7500 C   0  0  0  0  0  0  0  0  0  0  0  0
   -2.6590   20.0870  -28.0730 C   0  0  0  0  0  0  0  0  0  0  0  0
   -2.9600   19.4700  -26.8570 C   0  0  0  0  0  0  0  0  0  0  0  0
   -2.0920   18.5090  -26.3330 C   0  0  0  0  0  0  0  0  0  0  0  0
   -0.9310   18.1800  -27.0370 C   0  0  0  0  0  0  0  0  0  0  0  0
   -0.6560   18.7920  -28.2200 N   0  0  0  0  0  0  0  0  0  0  0  0
   -1.0380   22.7290  -28.5730 C   0  0  0  0  0  0  0  0  0  0  0  0
   -0.1770   22.1420  -27.6530 O   0  0  0  0  0  0  0  0  0  0  0  0
   -1.5590   23.9670  -28.4480 N   0  0  0  0  0  0  0  0  0  0  0  0
   -1.3260   24.9040  -27.3830 C   0  0  0  0  0  0  0  0  0  0  0  0
   -1.3050   24.4560  -26.0510 C   0  0  0  0  0  0  0  0  0  0  0  0
   -1.0710   25.3540  -25.0070 C   0  0  0  0  0  0  0  0  0  0  0  0
   -0.8620   26.7070  -25.2800 C   0  0  0  0  0  0  0  0  0  0  0  0
   -0.8910   27.1660  -26.6000 C   0  0  0  0  0  0  0  0  0  0  0  0
   -1.1290   26.2720  -27.6540 C   0  0  0  0  0  0  0  0  0  0  0  0
   -1.1910   26.7430  -28.9650 O   0  0  0  0  0  0  0  0  0  0  0  0
   -2.9161   22.8822  -31.2708 H   0  0  0  0  0  0  0  0  0  0  0  0
   -3.3348   20.8462  -28.4937 H   0  0  0  0  0  0  0  0  0  0  0  0
   -3.8775   19.7398  -26.3135 H   0  0  0  0  0  0  0  0  0  0  0  0
   -2.3202   18.0166  -25.3762 H   0  0  0  0  0  0  0  0  0  0  0  0
   -0.2390   17.4257  -26.6343 H   0  0  0  0  0  0  0  0  0  0  0  0
   -1.4738   23.3919  -25.8293 H   0  0  0  0  0  0  0  0  0  0  0  0
   -1.0514   24.9943  -23.9676 H   0  0  0  0  0  0  0  0  0  0  0  0
   -0.6745   27.4118  -24.4565 H   0  0  0  0  0  0  0  0  0  0  0  0
   -0.7265   28.2326  -26.8129 H   0  0  0  0  0  0  0  0  0  0  0  0
   -1.6090   26.1930  -29.7070 H   0  0  0  0  0  0  0  0  0  0  0  0
  1  2  1  0
  2  3  2  0
  3  4  1  0
  4  5  1  0
  5  6  1  0
  6  7  2  0
  7  8  1  0
  8  9  2  0
  9 10  1  0
 10 11  2  0
  4 12  2  0
 12 13  1  0
 12 14  1  0
 14 15  1  0
 15 16  2  0
 16 17  1  0
 17 18  2  0
 18 19  1  0
 19 20  2  0
 20 21  1  0
 14  2  1  0
 20 15  1  0
 11  6  1  0
  3 22  1  0
  7 23  1  0
  8 24  1  0
  9 25  1  0
 10 26  1  0
 16 27  1  0
 17 28  1  0
 18 29  1  0
 19 30  1  0
 21 31  1  0
M  CHG  2   1  -1  13  -1
M  END
>  <UniqueID>  (5) 
5

>  <SMILES>  (5) 
[O-]c1cc(Sc2ccccn2)c([O-])n1-c1ccccc1O

>  <Energy>  (5) 
65.1128364856086

>  <Genealogy>  (5) 
[O-]c1cc(Sc2ccccn2)c([O-])n1-c1ccccc1O (protonated)
[O-]c1cc(Sc2ccccn2)c([O-])n1-c1ccccc1O (3D coordinates assigned)
[O-]c1cc(Sc2ccccn2)c([O-])n1-c1ccccc1O (optimized conformer: 65.1128364856086 kcal/mol)

>  <smiles>  (5) 
Oc1ccccc1-n1c(O)cc(Sc2ccccn2)c1O

>  <score_type>  (5) 
oracle

>  <origin>  (5) 
adgpu

>  <m_score__min__energy>  (5) 
-11.039999999999999

>  <m_primary>  (5) 
energy

$$$$
5:0
     RDKit          3D

 43 45  0  0  0  0  0  0  0  0999 V2000
    0.5180   28.7360  -25.6040 C   0  0  0  0  0  0  0  0  0  0  0  0
   -0.2940   27.5180  -25.9390 C   0  0  0  0  0  0  0  0  0  0  0  0
   -0.8860   26.7580  -24.9190 C   0  0  0  0  0  0  0  0  0  0  0  0
   -1.6590   25.6380  -25.2370 C   0  0  0  0  0  0  0  0  0  0  0  0
   -1.8700   25.2870  -26.5730 C   0  0  0  0  0  0  0  0  0  0  0  0
   -1.3240   26.0610  -27.6030 C   0  0  0  0  0  0  0  0  0  0  0  0
   -1.5600   25.6670  -28.9620 N   0  0  0  0  0  0  0  0  0  0  0  0
   -2.5000   24.6810  -29.4020 C   0  0  0  0  0  0  0  0  0  0  0  0
   -2.4950   23.5480  -28.8540 O   0  0  0  0  0  0  0  0  0  0  0  0
   -3.5000   25.0120  -30.3740 N   0  0  0  0  0  0  0  0  0  0  0  0
   -4.6760   24.2530  -30.6900 C   0  0  0  0  0  0  0  0  0  0  0  0
   -5.9250   24.7680  -30.3210 C   0  0  0  0  0  0  0  0  0  0  0  0
   -7.0960   24.0680  -30.6230 C   0  0  0  0  0  0  0  0  0  0  0  0
   -7.0330   22.8500  -31.3100 C   0  0  0  0  0  0  0  0  0  0  0  0
   -8.5220   21.9880  -31.6870 S   0  0  0  0  0  0  0  0  0  0  0  0
   -9.5240   22.9670  -32.2310 O   0  0  0  0  0  0  0  0  0  0  0  0
   -9.1000   21.3420  -30.4580 O   0  0  0  0  0  0  0  0  0  0  0  0
   -8.2080   20.7730  -32.8830 N   0  0  0  0  0  0  0  0  0  0  0  0
   -7.3630   19.6290  -32.7000 C   0  0  0  0  0  0  0  0  0  0  0  0
   -7.5410   18.7270  -31.6330 C   0  0  0  0  0  0  0  0  0  0  0  0
   -6.6970   17.6190  -31.5010 C   0  0  0  0  0  0  0  0  0  0  0  0
   -5.6700   17.4060  -32.4230 C   0  0  0  0  0  0  0  0  0  0  0  0
   -5.4810   18.3020  -33.4780 C   0  0  0  0  0  0  0  0  0  0  0  0
   -6.3260   19.4080  -33.6170 C   0  0  0  0  0  0  0  0  0  0  0  0
   -5.7880   22.3440  -31.7060 C   0  0  0  0  0  0  0  0  0  0  0  0
   -4.6150   23.0440  -31.4060 C   0  0  0  0  0  0  0  0  0  0  0  0
   -0.5180   27.1690  -27.2800 C   0  0  0  0  0  0  0  0  0  0  0  0
    0.5879   28.8409  -24.5112 H   0  0  0  0  0  0  0  0  0  0  0  0
    1.5277   28.6314  -26.0277 H   0  0  0  0  0  0  0  0  0  0  0  0
    0.0331   29.6278  -26.0277 H   0  0  0  0  0  0  0  0  0  0  0  0
   -0.7414   27.0443  -23.8668 H   0  0  0  0  0  0  0  0  0  0  0  0
   -2.1024   25.0313  -24.4337 H   0  0  0  0  0  0  0  0  0  0  0  0
   -2.4688   24.3970  -26.8165 H   0  0  0  0  0  0  0  0  0  0  0  0
   -5.9845   25.7296  -29.7901 H   0  0  0  0  0  0  0  0  0  0  0  0
   -8.0715   24.4758  -30.3196 H   0  0  0  0  0  0  0  0  0  0  0  0
   -8.3455   18.8941  -30.9017 H   0  0  0  0  0  0  0  0  0  0  0  0
   -6.8427   16.9141  -30.6692 H   0  0  0  0  0  0  0  0  0  0  0  0
   -5.0097   16.5325  -32.3185 H   0  0  0  0  0  0  0  0  0  0  0  0
   -4.6673   18.1377  -34.1997 H   0  0  0  0  0  0  0  0  0  0  0  0
   -6.1758   20.1089  -34.4513 H   0  0  0  0  0  0  0  0  0  0  0  0
   -5.7329   21.3924  -32.2550 H   0  0  0  0  0  0  0  0  0  0  0  0
   -3.6417   22.6478  -31.7310 H   0  0  0  0  0  0  0  0  0  0  0  0
   -0.0608   27.7651  -28.0836 H   0  0  0  0  0  0  0  0  0  0  0  0
  1  2  1  0
  2  3  2  0
  3  4  1  0
  4  5  2  0
  5  6  1  0
  6  7  1  0
  7  8  1  0
  8  9  2  0
  8 10  1  0
 10 11  1  0
 11 12  2  0
 12 13  1  0
 13 14  2  0
 14 15  1  0
 15 16  2  0
 15 17  2  0
 15 18  1  0
 18 19  1  0
 19 20  2  0
 20 21  1  0
 21 22  2  0
 22 23  1  0
 23 24  2  0
 14 25  1  0
 25 26  2  0
  6 27  2  0
 27  2  1  0
 26 11  1  0
 24 19  1  0
  1 28  1  0
  1 29  1  0
  1 30  1  0
  3 31  1  0
  4 32  1  0
  5 33  1  0
 12 34  1  0
 13 35  1  0
 20 36  1  0
 21 37  1  0
 22 38  1  0
 23 39  1  0
 24 40  1  0
 25 41  1  0
 26 42  1  0
 27 43  1  0
M  CHG  3   7  -1  10  -1  18  -1
M  END
>  <UniqueID>  (6) 
6

>  <SMILES>  (6) 
Cc1cccc([N-]C(=O)[N-]c2ccc(S(=O)(=O)[N-]c3ccccc3)cc2)c1

>  <Energy>  (6) 
54.61480100006445

>  <Genealogy>  (6) 
Cc1cccc([N-]C(=O)[N-]c2ccc(S(=O)(=O)[N-]c3ccccc3)cc2)c1 (protonated)
Cc1cccc([N-]C(=O)[N-]c2ccc(S(=O)(=O)[N-]c3ccccc3)cc2)c1 (3D coordinates assigned)
Cc1cccc([N-]C(=O)[N-]c2ccc(S(=O)(=O)[N-]c3ccccc3)cc2)c1 (optimized conformer: 54.61480100006445 kcal/mol)

>  <smiles>  (6) 
Cc1cccc(NC(=O)Nc2ccc(S(=O)(=O)Nc3ccccc3)cc2)c1

>  <score_type>  (6) 
oracle

>  <origin>  (6) 
adgpu

>  <m_score__min__energy>  (6) 
-12.640000000000001

>  <m_primary>  (6) 
energy

$$$$
6:0
     RDKit          3D

 39 41  0  0  0  0  0  0  0  0999 V2000
   -4.8550   15.9930  -34.3070 C   0  0  0  0  0  0  0  0  0  0  0  0
   -4.7760   17.2880  -33.6060 N   0  0  2  0  0  0  0  0  0  0  0  0
   -5.6570   18.2840  -34.2660 C   0  0  0  0  0  0  0  0  0  0  0  0
   -6.7460   18.7730  -33.3460 C   0  0  0  0  0  0  0  0  0  0  0  0
   -7.2510   20.0770  -33.4640 C   0  0  0  0  0  0  0  0  0  0  0  0
   -8.2720   20.4960  -32.6080 C   0  0  0  0  0  0  0  0  0  0  0  0
   -8.7800   19.6170  -31.6500 C   0  0  0  0  0  0  0  0  0  0  0  0
   -8.2550   18.3260  -31.5610 C   0  0  0  0  0  0  0  0  0  0  0  0
   -7.2600   17.9370  -32.4020 N   0  0  0  0  0  0  0  0  0  0  0  0
   -3.3710   17.7500  -33.4630 C   0  0  0  0  0  0  0  0  0  0  0  0
   -3.2400   19.2260  -33.1840 C   0  0  0  0  0  0  0  0  0  0  0  0
   -2.2580   20.0630  -33.6640 C   0  0  0  0  0  0  0  0  0  0  0  0
   -2.4980   21.2600  -33.1890 O   0  0  0  0  0  0  0  0  0  0  0  0
   -3.5820   21.1760  -32.4470 C   0  0  0  0  0  0  0  0  0  0  0  0
   -4.1760   22.3240  -31.7330 C   0  0  0  0  0  0  0  0  0  0  0  0
   -5.5720   22.4790  -31.6820 C   0  0  0  0  0  0  0  0  0  0  0  0
   -6.1370   23.5660  -31.0070 C   0  0  0  0  0  0  0  0  0  0  0  0
   -5.3160   24.5060  -30.3780 C   0  0  0  0  0  0  0  0  0  0  0  0
   -3.9270   24.3610  -30.4240 C   0  0  0  0  0  0  0  0  0  0  0  0
   -3.1110   25.2960  -29.7990 O   0  0  0  0  0  0  0  0  0  0  0  0
   -3.3560   23.2750  -31.0970 C   0  0  0  0  0  0  0  0  0  0  0  0
   -4.0920   19.9250  -32.4110 N   0  0  0  0  0  0  0  0  0  0  0  0
   -4.9047   15.1789  -33.5689 H   0  0  0  0  0  0  0  0  0  0  0  0
   -5.7561   15.9717  -34.9375 H   0  0  0  0  0  0  0  0  0  0  0  0
   -3.9632   15.8624  -34.9375 H   0  0  0  0  0  0  0  0  0  0  0  0
   -5.1430   17.1210  -32.6380 H   0  0  0  0  0  0  0  0  0  0  0  0
   -5.0471   19.1431  -34.5822 H   0  0  0  0  0  0  0  0  0  0  0  0
   -6.1348   17.7959  -35.1282 H   0  0  0  0  0  0  0  0  0  0  0  0
   -6.8466   20.7625  -34.2233 H   0  0  0  0  0  0  0  0  0  0  0  0
   -8.6749   21.5164  -32.6886 H   0  0  0  0  0  0  0  0  0  0  0  0
   -9.5851   19.9377  -30.9725 H   0  0  0  0  0  0  0  0  0  0  0  0
   -8.6465   17.6237  -30.8104 H   0  0  0  0  0  0  0  0  0  0  0  0
   -2.9074   17.1977  -32.6323 H   0  0  0  0  0  0  0  0  0  0  0  0
   -2.8726   17.5609  -34.4252 H   0  0  0  0  0  0  0  0  0  0  0  0
   -1.4255   19.7790  -34.3245 H   0  0  0  0  0  0  0  0  0  0  0  0
   -6.2231   21.7422  -32.1751 H   0  0  0  0  0  0  0  0  0  0  0  0
   -7.2304   23.6813  -30.9711 H   0  0  0  0  0  0  0  0  0  0  0  0
   -5.7630   25.3594  -29.8471 H   0  0  0  0  0  0  0  0  0  0  0  0
   -2.2621   23.1641  -31.1291 H   0  0  0  0  0  0  0  0  0  0  0  0
  1  2  1  0
  2  3  1  0
  3  4  1  0
  4  5  2  0
  5  6  1  0
  6  7  2  0
  7  8  1  0
  8  9  2  0
  2 10  1  0
 10 11  1  0
 11 12  2  0
 12 13  1  0
 13 14  1  0
 14 15  1  0
 15 16  2  0
 16 17  1  0
 17 18  2  0
 18 19  1  0
 19 20  1  0
 19 21  2  0
 14 22  2  0
  9  4  1  0
 22 11  1  0
 21 15  1  0
  1 23  1  0
  1 24  1  0
  1 25  1  0
  2 26  1  1
  3 27  1  0
  3 28  1  0
  5 29  1  0
  6 30  1  0
  7 31  1  0
  8 32  1  0
 10 33  1  0
 10 34  1  0
 12 35  1  0
 16 36  1  0
 17 37  1  0
 18 38  1  0
 21 39  1  0
M  CHG  2   2   1  20  -1
M  END
>  <UniqueID>  (7) 
7

>  <SMILES>  (7) 
C[N@H+](Cc1ccccn1)Cc1coc(-c2cccc([O-])c2)n1

>  <Energy>  (7) 
73.85734410083109

>  <Genealogy>  (7) 
C[NH+](Cc1ccccn1)Cc1coc(-c2cccc([O-])c2)n1 (protonated)
C[N@H+](Cc1ccccn1)Cc1coc(-c2cccc([O-])c2)n1 (chirality)
C[N@H+](Cc1ccccn1)Cc1coc(-c2cccc([O-])c2)n1 (3D coordinates assigned)
C[N@H+](Cc1ccccn1)Cc1coc(-c2cccc([O-])c2)n1 (optimized conformer: 73.85734410083109 kcal/mol)

>  <smiles>  (7) 
CN(Cc1ccccn1)Cc1coc(-c2cccc(O)c2)n1

>  <score_type>  (7) 
oracle

>  <origin>  (7) 
adgpu

>  <m_score__min__energy>  (7) 
-9.5199999999999996

>  <m_primary>  (7) 
energy

$$$$
7:0
     RDKit          3D

 48 50  0  0  0  0  0  0  0  0999 V2000
   -6.1390   18.3410  -31.6660 C   0  0  0  0  0  0  0  0  0  0  0  0
   -6.3440   19.4190  -33.1190 S   0  0  0  0  0  0  0  0  0  0  0  0
   -4.6510   20.0100  -33.0710 C   0  0  0  0  0  0  0  0  0  0  0  0
   -3.6780   19.4210  -33.8880 C   0  0  0  0  0  0  0  0  0  0  0  0
   -2.3590   19.8770  -33.8410 C   0  0  0  0  0  0  0  0  0  0  0  0
   -2.0070   20.9270  -32.9880 C   0  0  0  0  0  0  0  0  0  0  0  0
   -2.9810   21.5430  -32.1760 C   0  0  0  0  0  0  0  0  0  0  0  0
   -2.6460   22.5900  -31.2460 N   0  0  0  0  0  0  0  0  0  0  0  0
   -1.6730   22.4750  -30.1930 C   0  0  0  0  0  0  0  0  0  0  0  0
   -0.8650   21.5070  -30.1720 O   0  0  0  0  0  0  0  0  0  0  0  0
   -1.5740   23.5190  -29.1500 C   0  0  0  0  0  0  0  0  0  0  0  0
   -0.3220   24.0750  -28.8340 C   0  0  0  0  0  0  0  0  0  0  0  0
   -0.2070   25.0470  -27.8370 C   0  0  0  0  0  0  0  0  0  0  0  0
   -1.3390   25.4750  -27.1420 C   0  0  0  0  0  0  0  0  0  0  0  0
   -2.5910   24.9350  -27.4490 C   0  0  0  0  0  0  0  0  0  0  0  0
   -2.7200   23.9620  -28.4510 C   0  0  0  0  0  0  0  0  0  0  0  0
   -4.0250   23.4910  -28.8050 N   0  0  0  0  0  0  0  0  0  0  0  0
   -4.6040   22.3500  -28.1010 C   0  0  0  0  0  0  0  0  0  0  0  0
   -5.0520   24.5130  -29.7610 S   0  0  0  0  0  0  0  0  0  0  0  0
   -4.2250   25.2870  -30.7510 O   0  0  0  0  0  0  0  0  0  0  0  0
   -5.7580   25.4970  -28.8700 O   0  0  0  0  0  0  0  0  0  0  0  0
   -6.2380   23.5310  -30.6200 C   0  0  0  0  0  0  0  0  0  0  0  0
   -6.3040   23.5600  -32.0220 C   0  0  0  0  0  0  0  0  0  0  0  0
   -7.2420   22.7710  -32.6980 C   0  0  0  0  0  0  0  0  0  0  0  0
   -8.1260   21.9590  -31.9760 C   0  0  0  0  0  0  0  0  0  0  0  0
   -8.0660   21.9310  -30.5780 C   0  0  0  0  0  0  0  0  0  0  0  0
   -7.1220   22.7140  -29.9010 C   0  0  0  0  0  0  0  0  0  0  0  0
   -4.3010   21.0650  -32.2190 C   0  0  0  0  0  0  0  0  0  0  0  0
   -6.2523   18.9369  -30.7484 H   0  0  0  0  0  0  0  0  0  0  0  0
   -6.9027   17.5496  -31.6859 H   0  0  0  0  0  0  0  0  0  0  0  0
   -5.1381   17.8852  -31.6859 H   0  0  0  0  0  0  0  0  0  0  0  0
   -3.9526   18.5997  -34.5663 H   0  0  0  0  0  0  0  0  0  0  0  0
   -1.5941   19.4082  -34.4776 H   0  0  0  0  0  0  0  0  0  0  0  0
   -0.9641   21.2746  -32.9501 H   0  0  0  0  0  0  0  0  0  0  0  0
   -3.1430   23.5020  -31.3560 H   0  0  0  0  0  0  0  0  0  0  0  0
    0.5750   23.7418  -29.3765 H   0  0  0  0  0  0  0  0  0  0  0  0
    0.7777   25.4758  -27.5994 H   0  0  0  0  0  0  0  0  0  0  0  0
   -1.2460   26.2364  -26.3536 H   0  0  0  0  0  0  0  0  0  0  0  0
   -3.4818   25.2756  -26.9008 H   0  0  0  0  0  0  0  0  0  0  0  0
   -4.5231   22.5094  -27.0156 H   0  0  0  0  0  0  0  0  0  0  0  0
   -5.6634   22.2470  -28.3786 H   0  0  0  0  0  0  0  0  0  0  0  0
   -4.0616   21.4342  -28.3786 H   0  0  0  0  0  0  0  0  0  0  0  0
   -5.6171   24.2041  -32.5905 H   0  0  0  0  0  0  0  0  0  0  0  0
   -7.2850   22.7886  -33.7970 H   0  0  0  0  0  0  0  0  0  0  0  0
   -8.8669   21.3437  -32.5075 H   0  0  0  0  0  0  0  0  0  0  0  0
   -8.7604   21.2939  -30.0106 H   0  0  0  0  0  0  0  0  0  0  0  0
   -7.0742   22.6878  -28.8024 H   0  0  0  0  0  0  0  0  0  0  0  0
   -5.0675   21.5238  -31.5771 H   0  0  0  0  0  0  0  0  0  0  0  0
  1  2  1  0
  2  3  1  0
  3  4  2  0
  4  5  1  0
  5  6  2  0
  6  7  1  0
  7  8  1  0
  8  9  1  0
  9 10  2  0
  9 11  1  0
 11 12  2  0
 12 13  1  0
 13 14  2  0
 14 15  1  0
 15 16  2  0
 16 17  1  0
 17 18  1  0
 17 19  1  0
 19 20  2  0
 19 21  2  0
 19 22  1  0
 22 23  2  0
 23 24  1  0
 24 25  2  0
 25 26  1  0
 26 27  2  0
  7 28  2  0
 28  3  1  0
 16 11  1  0
 27 22  1  0
  1 29  1  0
  1 30  1  0
  1 31  1  0
  4 32  1  0
  5 33  1  0
  6 34  1  0
  8 35  1  0
 12 36  1  0
 13 37  1  0
 14 38  1  0
 15 39  1  0
 18 40  1  0
 18 41  1  0
 18 42  1  0
 23 43  1  0
 24 44  1  0
 25 45  1  0
 26 46  1  0
 27 47  1  0
 28 48  1  0
M  END
>  <UniqueID>  (8) 
8

>  <SMILES>  (8) 
CSc1cccc(NC(=O)c2ccccc2N(C)S(=O)(=O)c2ccccc2)c1

>  <Energy>  (8) 
56.4937520500625

>  <Genealogy>  (8) 
CSc1cccc(NC(=O)c2ccccc2N(C)S(=O)(=O)c2ccccc2)c1 (3D coordinates assigned)
CSc1cccc(NC(=O)c2ccccc2N(C)S(=O)(=O)c2ccccc2)c1 (optimized conformer: 56.4937520500625 kcal/mol)

>  <smiles>  (8) 
CSc1cccc(NC(=O)c2ccccc2N(C)S(=O)(=O)c2ccccc2)c1

>  <score_type>  (8) 
oracle

>  <origin>  (8) 
adgpu

>  <m_score__min__energy>  (8) 
-8.9399999999999995

>  <m_primary>  (8) 
energy

$$$$
8:0
     RDKit          3D

 47 49  0  0  0  0  0  0  0  0999 V2000
   -5.3450   24.7240  -31.4390 O   0  0  0  0  0  0  0  0  0  0  0  0
   -5.8830   23.5910  -31.3010 C   0  0  0  0  0  0  0  0  0  0  0  0
   -7.3140   23.4080  -31.7010 C   0  0  0  0  0  0  0  0  0  0  0  0
   -7.6030   21.9510  -31.9400 C   0  0  0  0  0  0  0  0  0  0  0  0
   -6.7300   21.1720  -32.7180 C   0  0  0  0  0  0  0  0  0  0  0  0
   -6.9840   19.8110  -32.9100 C   0  0  0  0  0  0  0  0  0  0  0  0
   -8.1030   19.2170  -32.3210 C   0  0  0  0  0  0  0  0  0  0  0  0
   -8.9690   19.9820  -31.5360 C   0  0  0  0  0  0  0  0  0  0  0  0
   -8.7200   21.3440  -31.3410 C   0  0  0  0  0  0  0  0  0  0  0  0
   -5.1650   22.5080  -30.6870 N   0  0  0  0  0  0  0  0  0  0  0  0
   -3.7560   22.5340  -30.4050 C   0  0  0  0  0  0  0  0  0  0  0  0
   -2.9030   21.6520  -31.0860 C   0  0  0  0  0  0  0  0  0  0  0  0
   -1.5260   21.6750  -30.8480 C   0  0  0  0  0  0  0  0  0  0  0  0
   -0.9860   22.5870  -29.9380 C   0  0  0  0  0  0  0  0  0  0  0  0
   -1.8230   23.4860  -29.2650 C   0  0  0  0  0  0  0  0  0  0  0  0
   -1.1500   24.6760  -28.1530 S   0  0  0  0  0  0  0  0  0  0  0  0
   -1.5270   26.0620  -28.5960 O   0  0  0  0  0  0  0  0  0  0  0  0
    0.3490   24.5600  -28.1890 O   0  0  0  0  0  0  0  0  0  0  0  0
   -1.7120   24.3840  -26.5200 N   0  0  0  0  0  0  0  0  0  0  0  0
   -2.4960   25.5160  -25.9900 C   0  0  0  0  0  0  0  0  0  0  0  0
   -1.6220   26.7300  -25.6220 C   0  0  0  0  0  0  0  0  0  0  0  0
   -0.2890   26.3350  -24.9620 C   0  0  0  0  0  0  0  0  0  0  0  0
   -0.2990   24.8900  -24.4720 C   0  0  0  0  0  0  0  0  0  0  0  0
   -0.6150   23.9250  -25.6300 C   0  0  0  0  0  0  0  0  0  0  0  0
   -3.2030   23.4660  -29.5070 C   0  0  0  0  0  0  0  0  0  0  0  0
   -7.9666   23.7812  -30.8980 H   0  0  0  0  0  0  0  0  0  0  0  0
   -7.5026   23.9688  -32.6283 H   0  0  0  0  0  0  0  0  0  0  0  0
   -5.8440   21.6346  -33.1773 H   0  0  0  0  0  0  0  0  0  0  0  0
   -6.3018   19.2066  -33.5258 H   0  0  0  0  0  0  0  0  0  0  0  0
   -8.3022   18.1463  -32.4755 H   0  0  0  0  0  0  0  0  0  0  0  0
   -9.8481   19.5122  -31.0706 H   0  0  0  0  0  0  0  0  0  0  0  0
   -9.4004   21.9421  -30.7170 H   0  0  0  0  0  0  0  0  0  0  0  0
   -5.7190   21.6920  -30.3430 H   0  0  0  0  0  0  0  0  0  0  0  0
   -3.3206   20.9383  -31.8114 H   0  0  0  0  0  0  0  0  0  0  0  0
   -0.8658   20.9732  -31.3786 H   0  0  0  0  0  0  0  0  0  0  0  0
    0.0977   22.5991  -29.7498 H   0  0  0  0  0  0  0  0  0  0  0  0
   -3.2245   25.8265  -26.7535 H   0  0  0  0  0  0  0  0  0  0  0  0
   -2.9897   25.1732  -25.0687 H   0  0  0  0  0  0  0  0  0  0  0  0
   -1.4043   27.2960  -26.5398 H   0  0  0  0  0  0  0  0  0  0  0  0
   -2.1846   27.3306  -24.8921 H   0  0  0  0  0  0  0  0  0  0  0  0
    0.5204   26.4550  -25.6972 H   0  0  0  0  0  0  0  0  0  0  0  0
   -0.1352   26.9880  -24.0902 H   0  0  0  0  0  0  0  0  0  0  0  0
    0.6887   24.6431  -24.0554 H   0  0  0  0  0  0  0  0  0  0  0  0
   -1.0759   24.7834  -23.7006 H   0  0  0  0  0  0  0  0  0  0  0  0
    0.2945   23.8042  -26.2369 H   0  0  0  0  0  0  0  0  0  0  0  0
   -0.9502   22.9817  -25.1742 H   0  0  0  0  0  0  0  0  0  0  0  0
   -3.8585   24.1835  -28.9917 H   0  0  0  0  0  0  0  0  0  0  0  0
  1  2  2  0
  2  3  1  0
  3  4  1  0
  4  5  2  0
  5  6  1  0
  6  7  2  0
  7  8  1  0
  8  9  2  0
  2 10  1  0
 10 11  1  0
 11 12  2  0
 12 13  1  0
 13 14  2  0
 14 15  1  0
 15 16  1  0
 16 17  2  0
 16 18  2  0
 16 19  1  0
 19 20  1  0
 20 21  1  0
 21 22  1  0
 22 23  1  0
 23 24  1  0
 15 25  2  0
  9  4  1  0
 25 11  1  0
 24 19  1  0
  3 26  1  0
  3 27  1  0
  5 28  1  0
  6 29  1  0
  7 30  1  0
  8 31  1  0
  9 32  1  0
 10 33  1  0
 12 34  1  0
 13 35  1  0
 14 36  1  0
 20 37  1  0
 20 38  1  0
 21 39  1  0
 21 40  1  0
 22 41  1  0
 22 42  1  0
 23 43  1  0
 23 44  1  0
 24 45  1  0
 24 46  1  0
 25 47  1  0
M  END
>  <UniqueID>  (9) 
9

>  <SMILES>  (9) 
O=C(Cc1ccccc1)Nc1cccc(S(=O)(=O)N2CCCCC2)c1

>  <Energy>  (9) 
56.0931387887656

>  <Genealogy>  (9) 
O=C(Cc1ccccc1)Nc1cccc(S(=O)(=O)N2CCCCC2)c1 (3D coordinates assigned)
O=C(Cc1ccccc1)Nc1cccc(S(=O)(=O)N2CCCCC2)c1 (nonaromatic ring conformer: 56.0931387887656 kcal/mol)

>  <smiles>  (9) 
O=C(Cc1ccccc1)Nc1cccc(S(=O)(=O)N2CCCCC2)c1

>  <score_type>  (9) 
oracle

>  <origin>  (9) 
adgpu

>  <m_score__min__energy>  (9) 
-9.7599999999999998

>  <m_primary>  (9) 
energy

$$$$
9:0
     RDKit          3D

 44 46  0  0  0  0  0  0  0  0999 V2000
   -7.5050   16.6100  -31.8456 H   0  0  0  0  0  0  0  0  0  0  0  0
   -6.9850   17.4310  -32.3610 C   0  0  0  0  0  0  0  0  0  0  0  0
   -5.8890   17.1550  -33.1820 C   0  0  0  0  0  0  0  0  0  0  0  0
   -5.5402   16.1182  -33.2979 H   0  0  0  0  0  0  0  0  0  0  0  0
   -5.2290   18.1940  -33.8610 C   0  0  0  0  0  0  0  0  0  0  0  0
   -4.0800   17.9090  -34.7540 C   0  0  0  0  0  0  0  0  0  0  0  0
   -4.2210   17.0940  -35.7040 O   0  0  0  0  0  0  0  0  0  0  0  0
   -2.8160   18.5690  -34.5960 N   0  0  0  0  0  0  0  0  0  0  0  0
   -2.4360   19.3630  -33.4630 C   0  0  0  0  0  0  0  0  0  0  0  0
   -2.6530   20.7450  -33.4960 C   0  0  0  0  0  0  0  0  0  0  0  0
   -3.0598   21.2140  -34.4040 H   0  0  0  0  0  0  0  0  0  0  0  0
   -2.3550   21.5320  -32.3800 C   0  0  0  0  0  0  0  0  0  0  0  0
   -2.5418   22.6157  -32.4066 H   0  0  0  0  0  0  0  0  0  0  0  0
   -1.8190   20.9430  -31.2280 C   0  0  0  0  0  0  0  0  0  0  0  0
   -1.5350   21.9240  -29.7950 S   0  0  0  0  0  0  0  0  0  0  0  0
   -0.0540   21.9560  -29.5470 O   0  0  0  0  0  0  0  0  0  0  0  0
   -2.2040   21.3410  -28.5830 O   0  0  0  0  0  0  0  0  0  0  0  0
   -2.0850   23.5520  -30.0370 N   0  0  0  0  0  0  0  0  0  0  0  0
   -3.2780   24.0060  -30.3020 C   0  0  0  0  0  0  0  0  0  0  0  0
   -3.4990   25.2910  -30.4530 O   0  0  0  0  0  0  0  0  0  0  0  0
   -4.7460   25.5320  -30.7320 N   0  0  0  0  0  0  0  0  0  0  0  0
   -5.3790   24.3450  -30.7660 C   0  0  0  0  0  0  0  0  0  0  0  0
   -6.8330   24.1990  -31.0800 C   0  0  0  0  0  0  0  0  0  0  0  0
   -7.4065   24.1414  -30.1431 H   0  0  0  0  0  0  0  0  0  0  0  0
   -7.1710   25.0677  -31.6640 H   0  0  0  0  0  0  0  0  0  0  0  0
   -6.9916   23.2804  -31.6640 H   0  0  0  0  0  0  0  0  0  0  0  0
   -4.4860   23.3230  -30.4780 C   0  0  0  0  0  0  0  0  0  0  0  0
   -4.8130   21.8590  -30.5030 C   0  0  0  0  0  0  0  0  0  0  0  0
   -4.8967   21.4843  -29.4722 H   0  0  0  0  0  0  0  0  0  0  0  0
   -5.7676   21.7054  -31.0276 H   0  0  0  0  0  0  0  0  0  0  0  0
   -4.0145   21.3138  -31.0276 H   0  0  0  0  0  0  0  0  0  0  0  0
   -1.5380   19.5710  -31.2160 C   0  0  0  0  0  0  0  0  0  0  0  0
   -1.0735   19.1131  -30.3302 H   0  0  0  0  0  0  0  0  0  0  0  0
   -1.8470   18.7830  -32.3280 C   0  0  0  0  0  0  0  0  0  0  0  0
   -1.6281   17.7051  -32.3141 H   0  0  0  0  0  0  0  0  0  0  0  0
   -5.6630   19.5190  -33.6720 C   0  0  0  0  0  0  0  0  0  0  0  0
   -5.1451   20.3414  -34.1872 H   0  0  0  0  0  0  0  0  0  0  0  0
   -6.7520   19.8000  -32.8310 C   0  0  0  0  0  0  0  0  0  0  0  0
   -7.2420   21.2090  -32.6780 C   0  0  0  0  0  0  0  0  0  0  0  0
   -7.3271   21.4536  -31.6089 H   0  0  0  0  0  0  0  0  0  0  0  0
   -6.5309   21.8985  -33.1564 H   0  0  0  0  0  0  0  0  0  0  0  0
   -8.2275   21.3085  -33.1564 H   0  0  0  0  0  0  0  0  0  0  0  0
   -7.4220   18.7460  -32.1930 C   0  0  0  0  0  0  0  0  0  0  0  0
   -8.2951   18.9564  -31.5578 H   0  0  0  0  0  0  0  0  0  0  0  0
  1  2  1  0
  2  3  2  0
  3  4  1  0
  3  5  1  0
  5  6  1  0
  6  7  2  0
  6  8  1  0
  8  9  1  0
  9 10  2  0
 10 11  1  0
 10 12  1  0
 12 13  1  0
 12 14  2  0
 14 15  1  0
 15 16  2  0
 15 17  2  0
 15 18  1  0
 18 19  2  0
 19 20  1  0
 20 21  1  0
 21 22  1  0
 22 23  1  0
 23 24  1  0
 23 25  1  0
 23 26  1  0
 22 27  2  0
 27 28  1  0
 28 29  1  0
 28 30  1  0
 28 31  1  0
 14 32  1  0
 32 33  1  0
 32 34  2  0
 34 35  1  0
  5 36  2  0
 36 37  1  0
 36 38  1  0
 38 39  1  0
 39 40  1  0
 39 41  1  0
 39 42  1  0
 38 43  2  0
 43 44  1  0
 43  2  1  0
 34  9  1  0
 27 19  1  0
M  CHG  2   8  -1  21  -1
M  END
>  <UniqueID>  (10) 
10

>  <SMILES>  (10) 
Cc1cccc(C(=O)[N-]c2ccc(S(=O)(=O)/N=c3/o[n-]c(C)c3C)cc2)c1

>  <Energy>  (10) 
90.63978280169502

>  <Genealogy>  (10) 
Cc1cccc(C(=O)[N-]c2ccc(S(=O)(=O)N=c3o[n-]c(C)c3C)cc2)c1 (protonated)
Cc1cccc(C(=O)[N-]c2ccc(S(=O)(=O)/N=c3/o[n-]c(C)c3C)cc2)c1 (cis-trans isomerization)
Cc1cccc(C(=O)[N-]c2ccc(S(=O)(=O)/N=c3/o[n-]c(C)c3C)cc2)c1 (3D coordinates assigned)
Cc1cccc(C(=O)[N-]c2ccc(S(=O)(=O)/N=c3/o[n-]c(C)c3C)cc2)c1 (optimized conformer: 90.63978280169502 kcal/mol)

>  <smiles>  (10) 
Cc1cccc(C(=O)Nc2ccc(S(=O)(=O)N=c3o[nH]c(C)c3C)cc2)c1

>  <score_type>  (10) 
oracle

>  <origin>  (10) 
adgpu

>  <m_score__min__energy>  (10) 
-10.81

>  <m_primary>  (10) 
energy

$$$$
10:0
     RDKit          3D

 53 55  0  0  0  0  0  0  0  0999 V2000
   -5.0620   26.0440  -30.4820 C   0  0  0  0  0  0  0  0  0  0  0  0
   -3.8530   25.2960  -30.5610 O   0  0  0  0  0  0  0  0  0  0  0  0
   -3.6720   24.0210  -30.0050 C   0  0  0  0  0  0  0  0  0  0  0  0
   -4.0520   23.7120  -28.6860 C   0  0  0  0  0  0  0  0  0  0  0  0
   -3.8500   22.4280  -28.1790 C   0  0  0  0  0  0  0  0  0  0  0  0
   -3.2780   21.4380  -28.9810 C   0  0  0  0  0  0  0  0  0  0  0  0
   -2.9090   21.7230  -30.3050 C   0  0  0  0  0  0  0  0  0  0  0  0
   -2.2570   20.6580  -31.1520 C   0  0  0  0  0  0  0  0  0  0  0  0
   -2.9830   20.4530  -32.4190 N   0  0  0  0  0  0  0  0  0  0  0  0
   -2.5830   21.2200  -33.6060 C   0  0  0  0  0  0  0  0  0  0  0  0
   -4.0700   19.5010  -32.5420 C   0  0  0  0  0  0  0  0  0  0  0  0
   -5.4060   19.8510  -32.2720 C   0  0  0  0  0  0  0  0  0  0  0  0
   -6.4150   18.8920  -32.4490 C   0  0  0  0  0  0  0  0  0  0  0  0
   -7.8060   19.2140  -32.2370 N   0  0  0  0  0  0  0  0  0  0  0  0
   -8.6790   18.1940  -31.6470 C   0  0  0  0  0  0  0  0  0  0  0  0
   -8.3840   20.4660  -32.7510 C   0  0  0  0  0  0  0  0  0  0  0  0
   -7.9190   21.6290  -31.9160 C   0  0  0  0  0  0  0  0  0  0  0  0
   -7.2490   22.7050  -32.5200 C   0  0  0  0  0  0  0  0  0  0  0  0
   -6.7790   23.7680  -31.7410 C   0  0  0  0  0  0  0  0  0  0  0  0
   -6.9660   23.7570  -30.3550 C   0  0  0  0  0  0  0  0  0  0  0  0
   -7.6180   22.6820  -29.7470 C   0  0  0  0  0  0  0  0  0  0  0  0
   -8.0900   21.6200  -30.5230 C   0  0  0  0  0  0  0  0  0  0  0  0
   -6.0710   17.6340  -32.8350 N   0  0  0  0  0  0  0  0  0  0  0  0
   -4.7770   17.2940  -33.0660 C   0  0  0  0  0  0  0  0  0  0  0  0
   -4.4400   15.9180  -33.5320 C   0  0  0  0  0  0  0  0  0  0  0  0
   -3.7990   18.2260  -32.9380 N   0  0  0  0  0  0  0  0  0  0  0  0
   -3.0910   23.0260  -30.8020 C   0  0  0  0  0  0  0  0  0  0  0  0
   -5.3244   26.2063  -29.4262 H   0  0  0  0  0  0  0  0  0  0  0  0
   -4.9253   27.0155  -30.9794 H   0  0  0  0  0  0  0  0  0  0  0  0
   -5.8703   25.4880  -30.9794 H   0  0  0  0  0  0  0  0  0  0  0  0
   -4.5100   24.4856  -28.0522 H   0  0  0  0  0  0  0  0  0  0  0  0
   -4.1421   22.1947  -27.1445 H   0  0  0  0  0  0  0  0  0  0  0  0
   -3.1158   20.4295  -28.5729 H   0  0  0  0  0  0  0  0  0  0  0  0
   -1.2246   20.9634  -31.3774 H   0  0  0  0  0  0  0  0  0  0  0  0
   -2.2728   19.7130  -30.5893 H   0  0  0  0  0  0  0  0  0  0  0  0
   -2.0956   22.1546  -33.2915 H   0  0  0  0  0  0  0  0  0  0  0  0
   -1.8806   20.6246  -34.2077 H   0  0  0  0  0  0  0  0  0  0  0  0
   -3.4733   21.4552  -34.2077 H   0  0  0  0  0  0  0  0  0  0  0  0
   -5.6565   20.8647  -31.9262 H   0  0  0  0  0  0  0  0  0  0  0  0
   -8.6260   18.2560  -30.5500 H   0  0  0  0  0  0  0  0  0  0  0  0
   -9.7153   18.3645  -31.9742 H   0  0  0  0  0  0  0  0  0  0  0  0
   -8.3506   17.1965  -31.9742 H   0  0  0  0  0  0  0  0  0  0  0  0
   -8.0635   20.6144  -33.7928 H   0  0  0  0  0  0  0  0  0  0  0  0
   -9.4812   20.4033  -32.7034 H   0  0  0  0  0  0  0  0  0  0  0  0
   -7.0931   22.7123  -33.6089 H   0  0  0  0  0  0  0  0  0  0  0  0
   -6.2620   24.6131  -32.2191 H   0  0  0  0  0  0  0  0  0  0  0  0
   -6.5996   24.5950  -29.7439 H   0  0  0  0  0  0  0  0  0  0  0  0
   -7.7601   22.6712  -28.6563 H   0  0  0  0  0  0  0  0  0  0  0  0
   -8.5982   20.7726  -30.0396 H   0  0  0  0  0  0  0  0  0  0  0  0
   -4.2801   15.2649  -32.6614 H   0  0  0  0  0  0  0  0  0  0  0  0
   -5.2681   15.5234  -34.1392 H   0  0  0  0  0  0  0  0  0  0  0  0
   -3.5233   15.9507  -34.1392 H   0  0  0  0  0  0  0  0  0  0  0  0
   -2.7738   23.2665  -31.8275 H   0  0  0  0  0  0  0  0  0  0  0  0
  1  2  1  0
  2  3  1  0
  3  4  2  0
  4  5  1  0
  5  6  2  0
  6  7  1  0
  7  8  1  0
  8  9  1  0
  9 10  1  0
  9 11  1  0
 11 12  2  0
 12 13  1  0
 13 14  1  0
 14 15  1  0
 14 16  1  0
 16 17  1  0
 17 18  2  0
 18 19  1  0
 19 20  2  0
 20 21  1  0
 21 22  2  0
 13 23  2  0
 23 24  1  0
 24 25  1  0
 24 26  2  0
  7 27  2  0
 27  3  1  0
 26 11  1  0
 22 17  1  0
  1 28  1  0
  1 29  1  0
  1 30  1  0
  4 31  1  0
  5 32  1  0
  6 33  1  0
  8 34  1  0
  8 35  1  0
 10 36  1  0
 10 37  1  0
 10 38  1  0
 12 39  1  0
 15 40  1  0
 15 41  1  0
 15 42  1  0
 16 43  1  0
 16 44  1  0
 18 45  1  0
 19 46  1  0
 20 47  1  0
 21 48  1  0
 22 49  1  0
 25 50  1  0
 25 51  1  0
 25 52  1  0
 27 53  1  0
M  END
>  <UniqueID>  (11) 
11

>  <SMILES>  (11) 
COc1cccc(CN(C)c2cc(N(C)Cc3ccccc3)nc(C)n2)c1

>  <Energy>  (11) 
49.78757999691549

>  <Genealogy>  (11) 
COc1cccc(CN(C)c2cc(N(C)Cc3ccccc3)nc(C)n2)c1 (3D coordinates assigned)
COc1cccc(CN(C)c2cc(N(C)Cc3ccccc3)nc(C)n2)c1 (optimized conformer: 49.78757999691549 kcal/mol)

>  <smiles>  (11) 
COc1cccc(CN(C)c2cc(N(C)Cc3ccccc3)nc(C)n2)c1

>  <score_type>  (11) 
oracle

>  <origin>  (11) 
adgpu

>  <m_score__min__energy>  (11) 
-9.0800000000000001

>  <m_primary>  (11) 
energy

$$$$
11:0
     RDKit          3D

 40 42  0  0  0  0  0  0  0  0999 V2000
   -1.7130   24.9210  -28.3440 C   0  0  0  0  0  0  0  0  0  0  0  0
   -2.6190   25.2750  -29.3820 O   0  0  0  0  0  0  0  0  0  0  0  0
   -3.8630   24.6600  -29.5910 C   0  0  0  0  0  0  0  0  0  0  0  0
   -4.0460   23.3530  -29.1250 C   0  0  0  0  0  0  0  0  0  0  0  0
   -5.2650   22.6960  -29.3070 C   0  0  0  0  0  0  0  0  0  0  0  0
   -6.3320   23.3410  -29.9610 C   0  0  0  0  0  0  0  0  0  0  0  0
   -7.6040   22.6990  -30.1610 N   0  0  0  0  0  0  0  0  0  0  0  0
   -8.2700   22.3330  -31.7220 S   0  0  0  0  0  0  0  0  0  0  0  0
   -7.8320   23.3840  -32.7030 O   0  0  0  0  0  0  0  0  0  0  0  0
   -9.7700   22.3400  -31.6350 O   0  0  0  0  0  0  0  0  0  0  0  0
   -7.7410   20.7360  -32.2420 C   0  0  0  0  0  0  0  0  0  0  0  0
   -6.5940   20.6030  -33.0340 C   0  0  0  0  0  0  0  0  0  0  0  0
   -6.1760   19.3410  -33.4630 C   0  0  0  0  0  0  0  0  0  0  0  0
   -6.8970   18.1890  -33.1020 C   0  0  0  0  0  0  0  0  0  0  0  0
   -6.4360   16.8630  -33.5700 C   0  0  0  0  0  0  0  0  0  0  0  0
   -5.1400   16.4460  -33.8020 C   0  0  0  0  0  0  0  0  0  0  0  0
   -5.1600   15.1660  -34.2220 N   0  0  0  0  0  0  0  0  0  0  0  0
   -6.4740   14.8580  -34.2230 C   0  0  0  0  0  0  0  0  0  0  0  0
   -7.0060   13.5310  -34.6450 C   0  0  0  0  0  0  0  0  0  0  0  0
   -7.2330   15.8590  -33.8430 O   0  0  0  0  0  0  0  0  0  0  0  0
   -8.0440   18.3280  -32.3000 C   0  0  0  0  0  0  0  0  0  0  0  0
   -8.4620   19.5930  -31.8730 C   0  0  0  0  0  0  0  0  0  0  0  0
   -6.1440   24.6490  -30.4340 C   0  0  0  0  0  0  0  0  0  0  0  0
   -4.9240   25.3060  -30.2510 C   0  0  0  0  0  0  0  0  0  0  0  0
   -2.1843   25.1052  -27.3673 H   0  0  0  0  0  0  0  0  0  0  0  0
   -1.4539   23.8555  -28.4310 H   0  0  0  0  0  0  0  0  0  0  0  0
   -0.8002   25.5286  -28.4310 H   0  0  0  0  0  0  0  0  0  0  0  0
   -3.2215   22.8380  -28.6102 H   0  0  0  0  0  0  0  0  0  0  0  0
   -5.3922   21.6679  -28.9370 H   0  0  0  0  0  0  0  0  0  0  0  0
   -8.1370   22.3600  -29.3300 H   0  0  0  0  0  0  0  0  0  0  0  0
   -6.0194   21.4964  -33.3197 H   0  0  0  0  0  0  0  0  0  0  0  0
   -5.2757   19.2477  -34.0881 H   0  0  0  0  0  0  0  0  0  0  0  0
   -4.2373   17.0597  -33.6659 H   0  0  0  0  0  0  0  0  0  0  0  0
   -7.2461   12.9321  -33.7541 H   0  0  0  0  0  0  0  0  0  0  0  0
   -7.9159   13.6751  -35.2461 H   0  0  0  0  0  0  0  0  0  0  0  0
   -6.2486   13.0066  -35.2461 H   0  0  0  0  0  0  0  0  0  0  0  0
   -8.6165   17.4358  -32.0064 H   0  0  0  0  0  0  0  0  0  0  0  0
   -9.3600   19.6905  -31.2453 H   0  0  0  0  0  0  0  0  0  0  0  0
   -6.9658   25.1627  -30.9544 H   0  0  0  0  0  0  0  0  0  0  0  0
   -4.7930   26.3323  -30.6246 H   0  0  0  0  0  0  0  0  0  0  0  0
  1  2  1  0
  2  3  1  0
  3  4  2  0
  4  5  1  0
  5  6  2  0
  6  7  1  0
  7  8  1  0
  8  9  2  0
  8 10  2  0
  8 11  1  0
 11 12  2  0
 12 13  1  0
 13 14  2  0
 14 15  1  0
 15 16  2  0
 16 17  1  0
 17 18  2  0
 18 19  1  0
 18 20  1  0
 14 21  1  0
 21 22  2  0
  6 23  1  0
 23 24  2  0
 24  3  1  0
 22 11  1  0
 20 15  1  0
  1 25  1  0
  1 26  1  0
  1 27  1  0
  4 28  1  0
  5 29  1  0
  7 30  1  0
 12 31  1  0
 13 32  1  0
 16 33  1  0
 19 34  1  0
 19 35  1  0
 19 36  1  0
 21 37  1  0
 22 38  1  0
 23 39  1  0
 24 40  1  0
M  END
>  <UniqueID>  (12) 
12

>  <SMILES>  (12) 
COc1ccc(NS(=O)(=O)c2ccc(-c3cnc(C)o3)cc2)cc1

>  <Energy>  (12) 
73.20800804270638

>  <Genealogy>  (12) 
COc1ccc(NS(=O)(=O)c2ccc(-c3cnc(C)o3)cc2)cc1 (3D coordinates assigned)
COc1ccc(NS(=O)(=O)c2ccc(-c3cnc(C)o3)cc2)cc1 (optimized conformer: 73.20800804270638 kcal/mol)

>  <smiles>  (12) 
COc1ccc(NS(=O)(=O)c2ccc(-c3cnc(C)o3)cc2)cc1

>  <score_type>  (12) 
oracle

>  <origin>  (12) 
adgpu

>  <m_score__min__energy>  (12) 
-9.0399999999999991

>  <m_primary>  (12) 
energy

$$$$
12:0
     RDKit          3D

 69 74  0  0  0  0  0  0  0  0999 V2000
   -3.5750   18.9230  -25.9800 C   0  0  0  0  0  0  0  0  0  0  0  0
   -2.3500   19.1400  -26.8190 C   0  0  0  0  0  0  0  0  0  0  0  0
   -2.2540   20.2660  -27.6540 C   0  0  0  0  0  0  0  0  0  0  0  0
   -1.1260   20.4560  -28.4580 C   0  0  0  0  0  0  0  0  0  0  0  0
   -0.0910   19.5090  -28.4610 C   0  0  0  0  0  0  0  0  0  0  0  0
    1.1250   19.7270  -29.3130 C   0  0  0  0  0  0  0  0  0  0  0  0
    1.1240   18.7540  -30.4150 N   0  0  0  0  0  0  0  0  0  0  0  0
    1.7740   19.2850  -31.6220 C   0  0  0  0  0  0  0  0  0  0  0  0
    0.7560   19.9690  -32.4970 C   0  0  0  0  0  0  0  0  0  0  0  0
    0.8570   19.9010  -33.8960 C   0  0  0  0  0  0  0  0  0  0  0  0
   -0.1450   20.4470  -34.7000 C   0  0  0  0  0  0  0  0  0  0  0  0
   -1.2500   21.0710  -34.1170 C   0  0  0  0  0  0  0  0  0  0  0  0
   -1.3550   21.1740  -32.7190 C   0  0  0  0  0  0  0  0  0  0  0  0
   -2.5050   21.8660  -32.1020 C   0  0  0  0  0  0  0  0  0  0  0  0
   -2.4040   22.5840  -30.9500 N   0  0  0  0  0  0  0  0  0  0  0  0
   -3.6490   23.0500  -30.7760 C   0  0  0  0  0  0  0  0  0  0  0  0
   -4.1210   23.9030  -29.7640 C   0  0  0  0  0  0  0  0  0  0  0  0
   -3.2430   24.3880  -28.6710 C   0  0  0  0  0  0  0  0  0  0  0  0
   -3.7260   24.4870  -27.3560 C   0  0  0  0  0  0  0  0  0  0  0  0
   -2.8980   24.9550  -26.3360 C   0  0  0  0  0  0  0  0  0  0  0  0
   -1.5730   25.3250  -26.6280 C   0  0  0  0  0  0  0  0  0  0  0  0
   -0.6910   25.8440  -25.6040 N   0  0  0  0  0  0  0  0  0  0  0  0
   -1.2380   26.6330  -24.4890 C   0  0  0  0  0  0  0  0  0  0  0  0
   -0.1240   27.3410  -23.7140 C   0  0  0  0  0  0  0  0  0  0  0  0
    0.9210   26.3810  -23.3360 N   0  0  0  0  0  0  0  0  0  0  0  0
    1.5300   25.6700  -24.4850 C   0  0  0  0  0  0  0  0  0  0  0  0
    0.7640   25.8320  -25.8170 C   0  0  0  0  0  0  0  0  0  0  0  0
   -1.1240   25.2060  -27.9100 N   0  0  0  0  0  0  0  0  0  0  0  0
   -1.9120   24.7540  -28.9200 C   0  0  0  0  0  0  0  0  0  0  0  0
   -5.4760   24.3000  -29.8440 C   0  0  0  0  0  0  0  0  0  0  0  0
   -6.3000   23.8470  -30.8970 C   0  0  0  0  0  0  0  0  0  0  0  0
   -5.7850   22.9980  -31.8940 C   0  0  0  0  0  0  0  0  0  0  0  0
   -4.4490   22.6250  -31.7950 C   0  0  0  0  0  0  0  0  0  0  0  0
   -3.7480   21.8730  -32.6550 N   0  0  0  0  0  0  0  0  0  0  0  0
   -0.3480   20.6130  -31.9140 C   0  0  0  0  0  0  0  0  0  0  0  0
   -0.1820   18.3870  -27.6210 C   0  0  0  0  0  0  0  0  0  0  0  0
   -1.3100   18.1970  -26.8180 C   0  0  0  0  0  0  0  0  0  0  0  0
   -3.3034   18.9711  -24.9152 H   0  0  0  0  0  0  0  0  0  0  0  0
   -4.3165   19.7038  -26.2049 H   0  0  0  0  0  0  0  0  0  0  0  0
   -4.0032   17.9350  -26.2049 H   0  0  0  0  0  0  0  0  0  0  0  0
   -3.0710   21.0023  -27.6753 H   0  0  0  0  0  0  0  0  0  0  0  0
   -1.0498   21.3523  -29.0912 H   0  0  0  0  0  0  0  0  0  0  0  0
    1.1086   20.7475  -29.7233 H   0  0  0  0  0  0  0  0  0  0  0  0
    2.0314   19.5946  -28.7040 H   0  0  0  0  0  0  0  0  0  0  0  0
    0.1280   18.5420  -30.6560 H   0  0  0  0  0  0  0  0  0  0  0  0
    2.5486   20.0093  -31.3299 H   0  0  0  0  0  0  0  0  0  0  0  0
    2.2310   18.4550  -32.1808 H   0  0  0  0  0  0  0  0  0  0  0  0
    1.7285   19.4159  -34.3598 H   0  0  0  0  0  0  0  0  0  0  0  0
   -0.0640   20.3856  -35.7953 H   0  0  0  0  0  0  0  0  0  0  0  0
   -2.0438   21.4848  -34.7563 H   0  0  0  0  0  0  0  0  0  0  0  0
   -4.7618   24.1942  -27.1296 H   0  0  0  0  0  0  0  0  0  0  0  0
   -3.2797   25.0344  -25.3074 H   0  0  0  0  0  0  0  0  0  0  0  0
   -1.9319   27.3869  -24.8892 H   0  0  0  0  0  0  0  0  0  0  0  0
   -1.7609   25.9507  -23.8027 H   0  0  0  0  0  0  0  0  0  0  0  0
    0.3158   28.1264  -24.3463 H   0  0  0  0  0  0  0  0  0  0  0  0
   -0.5486   27.7863  -22.8022 H   0  0  0  0  0  0  0  0  0  0  0  0
    1.6690   26.8970  -22.8180 H   0  0  0  0  0  0  0  0  0  0  0  0
    0.5110   25.6820  -22.6740 H   0  0  0  0  0  0  0  0  0  0  0  0
    2.5504   26.0558  -24.6262 H   0  0  0  0  0  0  0  0  0  0  0  0
    1.5060   24.5983  -24.2384 H   0  0  0  0  0  0  0  0  0  0  0  0
    1.0640   26.7793  -26.2889 H   0  0  0  0  0  0  0  0  0  0  0  0
    1.0111   24.9770  -26.4634 H   0  0  0  0  0  0  0  0  0  0  0  0
   -1.5041   24.6746  -29.9385 H   0  0  0  0  0  0  0  0  0  0  0  0
   -5.8926   24.9694  -29.0770 H   0  0  0  0  0  0  0  0  0  0  0  0
   -7.3536   24.1604  -30.9384 H   0  0  0  0  0  0  0  0  0  0  0  0
   -6.4163   22.6423  -32.7216 H   0  0  0  0  0  0  0  0  0  0  0  0
   -0.4253   20.6789  -30.8187 H   0  0  0  0  0  0  0  0  0  0  0  0
    0.6382   17.6545  -27.5950 H   0  0  0  0  0  0  0  0  0  0  0  0
   -1.3834   17.3030  -26.1813 H   0  0  0  0  0  0  0  0  0  0  0  0
  1  2  1  0
  2  3  2  0
  3  4  1  0
  4  5  2  0
  5  6  1  0
  6  7  1  0
  7  8  1  0
  8  9  1  0
  9 10  2  0
 10 11  1  0
 11 12  2  0
 12 13  1  0
 13 14  1  0
 14 15  2  0
 15 16  1  0
 16 17  2  0
 17 18  1  0
 18 19  2  0
 19 20  1  0
 20 21  2  0
 21 22  1  0
 22 23  1  0
 23 24  1  0
 24 25  1  0
 25 26  1  0
 26 27  1  0
 21 28  1  0
 28 29  2  0
 17 30  1  0
 30 31  2  0
 31 32  1  0
 32 33  2  0
 33 34  1  0
 13 35  2  0
  5 36  1  0
 36 37  2  0
 37  2  1  0
 35  9  1  0
 34 14  1  0
 33 16  1  0
 29 18  1  0
 27 22  1  0
  1 38  1  0
  1 39  1  0
  1 40  1  0
  3 41  1  0
  4 42  1  0
  6 43  1  0
  6 44  1  0
  7 45  1  0
  8 46  1  0
  8 47  1  0
 10 48  1  0
 11 49  1  0
 12 50  1  0
 19 51  1  0
 20 52  1  0
 23 53  1  0
 23 54  1  0
 24 55  1  0
 24 56  1  0
 25 57  1  0
 25 58  1  0
 26 59  1  0
 26 60  1  0
 27 61  1  0
 27 62  1  0
 29 63  1  0
 30 64  1  0
 31 65  1  0
 32 66  1  0
 35 67  1  0
 36 68  1  0
 37 69  1  0
M  CHG  2  25   1  34  -1
M  END
>  <UniqueID>  (13) 
13

>  <SMILES>  (13) 
Cc1ccc(CNCc2cccc(-c3nc4c(-c5ccc(N6CC[NH2+]CC6)nc5)cccc4[n-]3)c2)cc1

>  <Energy>  (13) 
121.91298076584022

>  <Genealogy>  (13) 
Cc1ccc(CNCc2cccc(-c3nc4c(-c5ccc(N6CC[NH2+]CC6)nc5)cccc4[n-]3)c2)cc1 (protonated)
Cc1ccc(CNCc2cccc(-c3nc4c(-c5ccc(N6CC[NH2+]CC6)nc5)cccc4[n-]3)c2)cc1 (3D coordinates assigned)
Cc1ccc(CNCc2cccc(-c3nc4c(-c5ccc(N6CC[NH2+]CC6)nc5)cccc4[n-]3)c2)cc1 (nonaromatic ring conformer: 121.91298076584022 kcal/mol)

>  <smiles>  (13) 
Cc1ccc(CNCc2cccc(-c3nc4c(-c5ccc(N6CCNCC6)nc5)cccc4[nH]3)c2)cc1

>  <score_type>  (13) 
oracle

>  <origin>  (13) 
adgpu

>  <m_score__min__energy>  (13) 
-12.25

>  <m_primary>  (13) 
energy

$$$$
13:0
     RDKit          3D

 39 42  0  0  0  0  0  0  0  0999 V2000
    0.7290   20.1840  -33.5200 C   0  0  0  0  0  0  0  0  0  0  0  0
   -0.7710   20.1580  -33.5290 C   0  0  0  0  0  0  0  0  0  0  0  0
   -1.5000   21.2710  -33.0870 C   0  0  0  0  0  0  0  0  0  0  0  0
   -2.8970   21.2340  -33.0600 C   0  0  0  0  0  0  0  0  0  0  0  0
   -3.5880   20.0740  -33.4530 C   0  0  0  0  0  0  0  0  0  0  0  0
   -5.0710   20.0500  -33.4130 C   0  0  0  0  0  0  0  0  0  0  0  0
   -5.6860   20.8470  -32.5870 N   0  0  0  0  0  0  0  0  0  0  0  0
   -7.1050   20.9250  -32.3560 C   0  0  0  0  0  0  0  0  0  0  0  0
   -7.6340   22.1770  -32.0090 C   0  0  0  0  0  0  0  0  0  0  0  0
   -8.9880   22.3200  -31.7070 C   0  0  0  0  0  0  0  0  0  0  0  0
   -9.8280   21.2060  -31.7220 C   0  0  0  0  0  0  0  0  0  0  0  0
   -9.3140   19.9480  -32.0380 C   0  0  0  0  0  0  0  0  0  0  0  0
   -7.9610   19.7900  -32.3710 C   0  0  0  0  0  0  0  0  0  0  0  0
   -7.4860   18.4520  -32.5970 N   0  0  0  0  0  0  0  0  0  0  0  0
   -6.5260   18.0930  -33.3970 C   0  0  0  0  0  0  0  0  0  0  0  0
   -6.1180   16.6720  -33.4130 C   0  0  0  0  0  0  0  0  0  0  0  0
   -6.6190   15.6610  -34.2320 C   0  0  0  0  0  0  0  0  0  0  0  0
   -5.9970   14.4230  -34.0300 C   0  0  0  0  0  0  0  0  0  0  0  0
   -5.0010   14.4470  -33.0630 C   0  0  0  0  0  0  0  0  0  0  0  0
   -4.8940   16.0120  -32.4630 S   0  0  0  0  0  0  0  0  0  0  0  0
   -5.8520   19.1050  -34.2790 C   0  0  0  0  0  0  0  0  0  0  0  0
   -2.8520   18.9580  -33.8910 C   0  0  0  0  0  0  0  0  0  0  0  0
   -1.4550   18.9980  -33.9190 C   0  0  0  0  0  0  0  0  0  0  0  0
    1.0894   20.1902  -32.4807 H   0  0  0  0  0  0  0  0  0  0  0  0
    1.1143   19.2924  -34.0363 H   0  0  0  0  0  0  0  0  0  0  0  0
    1.0832   21.0884  -34.0363 H   0  0  0  0  0  0  0  0  0  0  0  0
   -0.9700   22.1777  -32.7599 H   0  0  0  0  0  0  0  0  0  0  0  0
   -3.4602   22.1190  -32.7288 H   0  0  0  0  0  0  0  0  0  0  0  0
   -6.9734   23.0559  -31.9747 H   0  0  0  0  0  0  0  0  0  0  0  0
   -9.3939   23.3113  -31.4569 H   0  0  0  0  0  0  0  0  0  0  0  0
  -10.8960   21.3196  -31.4846 H   0  0  0  0  0  0  0  0  0  0  0  0
   -9.9773   19.0706  -32.0258 H   0  0  0  0  0  0  0  0  0  0  0  0
   -7.4238   15.8203  -34.9648 H   0  0  0  0  0  0  0  0  0  0  0  0
   -6.2721   13.5148  -34.5863 H   0  0  0  0  0  0  0  0  0  0  0  0
   -4.3886   13.5902  -32.7452 H   0  0  0  0  0  0  0  0  0  0  0  0
   -5.1723   18.5942  -34.9769 H   0  0  0  0  0  0  0  0  0  0  0  0
   -6.6050   19.6603  -34.8574 H   0  0  0  0  0  0  0  0  0  0  0  0
   -3.3792   18.0480  -34.2135 H   0  0  0  0  0  0  0  0  0  0  0  0
   -0.8891   18.1143  -34.2489 H   0  0  0  0  0  0  0  0  0  0  0  0
  1  2  1  0
  2  3  2  0
  3  4  1  0
  4  5  2  0
  5  6  1  0
  6  7  2  0
  7  8  1  0
  8  9  2  0
  9 10  1  0
 10 11  2  0
 11 12  1  0
 12 13  2  0
 13 14  1  0
 14 15  2  0
 15 16  1  0
 16 17  2  0
 17 18  1  0
 18 19  2  0
 19 20  1  0
 15 21  1  0
  5 22  1  0
 22 23  2  0
 23  2  1  0
 21  6  1  0
 13  8  1  0
 20 16  1  0
  1 24  1  0
  1 25  1  0
  1 26  1  0
  3 27  1  0
  4 28  1  0
  9 29  1  0
 10 30  1  0
 11 31  1  0
 12 32  1  0
 17 33  1  0
 18 34  1  0
 19 35  1  0
 21 36  1  0
 21 37  1  0
 22 38  1  0
 23 39  1  0
M  END
>  <UniqueID>  (14) 
14

>  <SMILES>  (14) 
Cc1ccc(C2=Nc3ccccc3N=C(c3cccs3)C2)cc1

>  <Energy>  (14) 
84.75501062906831

>  <Genealogy>  (14) 
Cc1ccc(C2=Nc3ccccc3N=C(c3cccs3)C2)cc1 (3D coordinates assigned)
Cc1ccc(C2=Nc3ccccc3N=C(c3cccs3)C2)cc1 (nonaromatic ring conformer: 84.75501062906831 kcal/mol)

>  <smiles>  (14) 
Cc1ccc(C2=Nc3ccccc3N=C(c3cccs3)C2)cc1

>  <score_type>  (14) 
oracle

>  <origin>  (14) 
adgpu

>  <m_score__min__energy>  (14) 
-7.3700000000000001

>  <m_primary>  (14) 
energy

$$$$
14:0
     RDKit          3D

 53 56  0  0  0  0  0  0  0  0999 V2000
   -6.1060   18.5090  -35.3790 O   0  0  0  0  0  0  0  0  0  0  0  0
   -5.7110   18.9060  -34.2490 C   0  0  0  0  0  0  0  0  0  0  0  0
   -4.3260   18.7670  -33.9080 N   0  0  0  0  0  0  0  0  0  0  0  0
   -3.6490   19.5780  -32.9380 C   0  0  0  0  0  0  0  0  0  0  0  0
   -2.4330   20.1840  -33.2790 C   0  0  0  0  0  0  0  0  0  0  0  0
   -1.7200   20.9160  -32.3220 C   0  0  0  0  0  0  0  0  0  0  0  0
   -2.2270   21.0620  -31.0210 C   0  0  0  0  0  0  0  0  0  0  0  0
   -1.2870   21.9090  -29.7990 S   0  0  0  0  0  0  0  0  0  0  0  0
   -0.5240   23.0270  -30.4600 O   0  0  0  0  0  0  0  0  0  0  0  0
   -0.3170   20.9640  -29.1440 O   0  0  0  0  0  0  0  0  0  0  0  0
   -2.3280   22.5830  -28.5830 N   0  0  0  0  0  0  0  0  0  0  0  0
   -2.1240   23.7170  -27.9920 C   0  0  0  0  0  0  0  0  0  0  0  0
   -2.9930   24.1350  -27.0350 N   0  0  0  0  0  0  0  0  0  0  0  0
   -2.8050   25.3050  -26.3760 C   0  0  0  0  0  0  0  0  0  0  0  0
   -1.7020   26.0980  -26.6780 C   0  0  0  0  0  0  0  0  0  0  0  0
   -0.8190   25.6600  -27.6640 C   0  0  0  0  0  0  0  0  0  0  0  0
   -1.0440   24.4850  -28.3010 N   0  0  0  0  0  0  0  0  0  0  0  0
   -3.4800   20.5190  -30.7020 C   0  0  0  0  0  0  0  0  0  0  0  0
   -4.1860   19.7780  -31.6500 C   0  0  0  0  0  0  0  0  0  0  0  0
   -6.6830   19.4900  -33.2960 C   0  0  0  0  0  0  0  0  0  0  0  0
   -7.5360   18.6610  -32.5510 C   0  0  0  0  0  0  0  0  0  0  0  0
   -8.4140   19.2110  -31.6160 C   0  0  0  0  0  0  0  0  0  0  0  0
   -8.4490   20.5920  -31.4090 C   0  0  0  0  0  0  0  0  0  0  0  0
   -9.3000   21.0930  -30.4790 F   0  0  0  0  0  0  0  0  0  0  0  0
   -7.6060   21.4360  -32.1540 C   0  0  0  0  0  0  0  0  0  0  0  0
   -7.5550   23.1780  -31.8770 S   0  0  0  0  0  0  0  0  0  0  0  0
   -8.9250   23.7810  -32.0080 O   0  0  0  0  0  0  0  0  0  0  0  0
   -6.6560   23.7920  -32.9130 O   0  0  0  0  0  0  0  0  0  0  0  0
   -6.9130   23.4800  -30.2770 N   0  0  0  0  0  0  0  0  0  0  0  0
   -6.8570   24.9270  -29.9610 C   0  0  0  0  0  0  0  0  0  0  0  0
   -5.4390   25.5120  -30.0980 C   0  0  0  0  0  0  0  0  0  0  0  0
   -4.7510   24.8670  -31.1440 O   0  0  0  0  0  0  0  0  0  0  0  0
   -4.4500   23.5320  -30.7800 C   0  0  0  0  0  0  0  0  0  0  0  0
   -5.6200   22.8020  -30.0740 C   0  0  0  0  0  0  0  0  0  0  0  0
   -6.7370   20.8790  -33.1030 C   0  0  0  0  0  0  0  0  0  0  0  0
   -2.0376   20.0846  -34.3006 H   0  0  0  0  0  0  0  0  0  0  0  0
   -0.7588   21.3786  -32.5905 H   0  0  0  0  0  0  0  0  0  0  0  0
   -3.5216   25.6261  -25.6057 H   0  0  0  0  0  0  0  0  0  0  0  0
   -1.5308   27.0483  -26.1510 H   0  0  0  0  0  0  0  0  0  0  0  0
    0.0599   26.2678  -27.9249 H   0  0  0  0  0  0  0  0  0  0  0  0
   -3.9076   20.6779  -29.7010 H   0  0  0  0  0  0  0  0  0  0  0  0
   -5.1651   19.3483  -31.3916 H   0  0  0  0  0  0  0  0  0  0  0  0
   -7.5124   17.5721  -32.7049 H   0  0  0  0  0  0  0  0  0  0  0  0
   -9.0816   18.5539  -31.0393 H   0  0  0  0  0  0  0  0  0  0  0  0
   -7.5268   25.4635  -30.6492 H   0  0  0  0  0  0  0  0  0  0  0  0
   -7.1667   25.0499  -28.9127 H   0  0  0  0  0  0  0  0  0  0  0  0
   -5.5083   26.5879  -30.3165 H   0  0  0  0  0  0  0  0  0  0  0  0
   -4.8919   25.3571  -29.1564 H   0  0  0  0  0  0  0  0  0  0  0  0
   -4.1910   22.9732  -31.6914 H   0  0  0  0  0  0  0  0  0  0  0  0
   -3.6167   23.5735  -30.0632 H   0  0  0  0  0  0  0  0  0  0  0  0
   -5.6910   21.7799  -30.4743 H   0  0  0  0  0  0  0  0  0  0  0  0
   -5.4097   22.7998  -28.9943 H   0  0  0  0  0  0  0  0  0  0  0  0
   -6.0910   21.5374  -33.7023 H   0  0  0  0  0  0  0  0  0  0  0  0
  1  2  2  0
  2  3  1  0
  3  4  1  0
  4  5  2  0
  5  6  1  0
  6  7  2  0
  7  8  1  0
  8  9  2  0
  8 10  2  0
  8 11  1  0
 11 12  2  3
 12 13  1  0
 13 14  2  0
 14 15  1  0
 15 16  2  0
 16 17  1  0
  7 18  1  0
 18 19  2  0
  2 20  1  0
 20 21  2  0
 21 22  1  0
 22 23  2  0
 23 24  1  0
 23 25  1  0
 25 26  1  0
 26 27  2  0
 26 28  2  0
 26 29  1  0
 29 30  1  0
 30 31  1  0
 31 32  1  0
 32 33  1  0
 33 34  1  0
 25 35  2  0
 19  4  1  0
 35 20  1  0
 17 12  1  0
 34 29  1  0
  5 36  1  0
  6 37  1  0
 14 38  1  0
 15 39  1  0
 16 40  1  0
 18 41  1  0
 19 42  1  0
 21 43  1  0
 22 44  1  0
 30 45  1  0
 30 46  1  0
 31 47  1  0
 31 48  1  0
 33 49  1  0
 33 50  1  0
 34 51  1  0
 34 52  1  0
 35 53  1  0
M  CHG  2   3  -1  17  -1
M  END
>  <UniqueID>  (15) 
15

>  <SMILES>  (15) 
O=C([N-]c1ccc(S(=O)(=O)N=c2nccc[n-]2)cc1)c1ccc(F)c(S(=O)(=O)N2CCOCC2)c1

>  <Energy>  (15) 
78.36975793968553

>  <Genealogy>  (15) 
O=C([N-]c1ccc(S(=O)(=O)N=c2nccc[n-]2)cc1)c1ccc(F)c(S(=O)(=O)N2CCOCC2)c1 (protonated)
O=C([N-]c1ccc(S(=O)(=O)N=c2nccc[n-]2)cc1)c1ccc(F)c(S(=O)(=O)N2CCOCC2)c1 (3D coordinates assigned)
O=C([N-]c1ccc(S(=O)(=O)N=c2nccc[n-]2)cc1)c1ccc(F)c(S(=O)(=O)N2CCOCC2)c1 (nonaromatic ring conformer: 78.36975793968553 kcal/mol)

>  <smiles>  (15) 
O=C(Nc1ccc(S(=O)(=O)N=c2nccc[nH]2)cc1)c1ccc(F)c(S(=O)(=O)N2CCOCC2)c1

>  <score_type>  (15) 
oracle

>  <origin>  (15) 
adgpu

>  <m_score__min__energy>  (15) 
-11.66

>  <m_primary>  (15) 
energy

$$$$
15:0
     RDKit          3D

 43 45  0  0  0  0  0  0  0  0999 V2000
    0.5770   22.1730  -35.5140 C   0  0  0  0  0  0  0  0  0  0  0  0
    0.5060   21.5040  -34.2600 O   0  0  0  0  0  0  0  0  0  0  0  0
   -0.6900   21.1560  -33.6150 C   0  0  0  0  0  0  0  0  0  0  0  0
   -0.9790   21.5470  -32.2940 C   0  0  0  0  0  0  0  0  0  0  0  0
   -2.1870   21.1760  -31.6980 C   0  0  0  0  0  0  0  0  0  0  0  0
   -3.1180   20.4020  -32.4000 C   0  0  0  0  0  0  0  0  0  0  0  0
   -4.3270   20.0080  -31.7360 N   0  0  0  0  0  0  0  0  0  0  0  0
   -5.8920   20.6810  -32.0630 S   0  0  0  0  0  0  0  0  0  0  0  0
   -6.9430   19.8290  -31.4090 O   0  0  0  0  0  0  0  0  0  0  0  0
   -6.1260   20.7040  -33.5470 O   0  0  0  0  0  0  0  0  0  0  0  0
   -5.9470   22.3320  -31.4510 C   0  0  0  0  0  0  0  0  0  0  0  0
   -7.1590   22.9010  -31.0370 C   0  0  0  0  0  0  0  0  0  0  0  0
   -7.1720   24.1710  -30.4540 C   0  0  0  0  0  0  0  0  0  0  0  0
   -5.9760   24.8690  -30.2660 C   0  0  0  0  0  0  0  0  0  0  0  0
   -4.7570   24.3020  -30.6750 C   0  0  0  0  0  0  0  0  0  0  0  0
   -3.5130   24.9840  -30.4700 N   0  0  0  0  0  0  0  0  0  0  0  0
   -2.6000   24.7140  -29.3990 C   0  0  0  0  0  0  0  0  0  0  0  0
   -1.9270   25.6650  -28.9220 O   0  0  0  0  0  0  0  0  0  0  0  0
   -2.3970   23.3430  -28.8790 C   0  0  0  0  0  0  0  0  0  0  0  0
   -1.1680   22.6780  -29.0700 C   0  0  0  0  0  0  0  0  0  0  0  0
   -0.1300   23.2970  -29.6870 F   0  0  0  0  0  0  0  0  0  0  0  0
   -0.9880   21.3800  -28.5830 C   0  0  0  0  0  0  0  0  0  0  0  0
   -2.0230   20.7360  -27.9000 C   0  0  0  0  0  0  0  0  0  0  0  0
   -3.2370   21.3920  -27.6930 C   0  0  0  0  0  0  0  0  0  0  0  0
   -3.4270   22.6910  -28.1740 C   0  0  0  0  0  0  0  0  0  0  0  0
   -4.6230   23.3010  -27.9740 F   0  0  0  0  0  0  0  0  0  0  0  0
   -4.7530   23.0470  -31.2920 C   0  0  0  0  0  0  0  0  0  0  0  0
   -2.8360   20.0220  -33.7230 C   0  0  0  0  0  0  0  0  0  0  0  0
   -1.6300   20.3960  -34.3210 C   0  0  0  0  0  0  0  0  0  0  0  0
    0.6917   23.2541  -35.3468 H   0  0  0  0  0  0  0  0  0  0  0  0
    1.4402   21.7962  -36.0823 H   0  0  0  0  0  0  0  0  0  0  0  0
   -0.3461   21.9858  -36.0823 H   0  0  0  0  0  0  0  0  0  0  0  0
   -0.2508   22.1471  -31.7286 H   0  0  0  0  0  0  0  0  0  0  0  0
   -2.4081   21.4948  -30.6687 H   0  0  0  0  0  0  0  0  0  0  0  0
   -8.1003   22.3478  -31.1710 H   0  0  0  0  0  0  0  0  0  0  0  0
   -8.1256   24.6222  -30.1424 H   0  0  0  0  0  0  0  0  0  0  0  0
   -5.9888   25.8640  -29.7971 H   0  0  0  0  0  0  0  0  0  0  0  0
   -0.0289   20.8642  -28.7379 H   0  0  0  0  0  0  0  0  0  0  0  0
   -1.8807   19.7116  -27.5254 H   0  0  0  0  0  0  0  0  0  0  0  0
   -4.0478   20.8851  -27.1492 H   0  0  0  0  0  0  0  0  0  0  0  0
   -3.8068   22.6189  -31.6545 H   0  0  0  0  0  0  0  0  0  0  0  0
   -3.5676   19.4277  -34.2901 H   0  0  0  0  0  0  0  0  0  0  0  0
   -1.4172   20.0905  -35.3561 H   0  0  0  0  0  0  0  0  0  0  0  0
  1  2  1  0
  2  3  1  0
  3  4  2  0
  4  5  1  0
  5  6  2  0
  6  7  1  0
  7  8  1  0
  8  9  2  0
  8 10  2  0
  8 11  1  0
 11 12  2  0
 12 13  1  0
 13 14  2  0
 14 15  1  0
 15 16  1  0
 16 17  1  0
 17 18  2  0
 17 19  1  0
 19 20  2  0
 20 21  1  0
 20 22  1  0
 22 23  2  0
 23 24  1  0
 24 25  2  0
 25 26  1  0
 15 27  2  0
  6 28  1  0
 28 29  2  0
 29  3  1  0
 27 11  1  0
 25 19  1  0
  1 30  1  0
  1 31  1  0
  1 32  1  0
  4 33  1  0
  5 34  1  0
 12 35  1  0
 13 36  1  0
 14 37  1  0
 22 38  1  0
 23 39  1  0
 24 40  1  0
 27 41  1  0
 28 42  1  0
 29 43  1  0
M  CHG  2   7  -1  16  -1
M  END
>  <UniqueID>  (16) 
16

>  <SMILES>  (16) 
COc1ccc([N-]S(=O)(=O)c2cccc([N-]C(=O)c3c(F)cccc3F)c2)cc1

>  <Energy>  (16) 
55.459708005164615

>  <Genealogy>  (16) 
COc1ccc([N-]S(=O)(=O)c2cccc([N-]C(=O)c3c(F)cccc3F)c2)cc1 (protonated)
COc1ccc([N-]S(=O)(=O)c2cccc([N-]C(=O)c3c(F)cccc3F)c2)cc1 (3D coordinates assigned)
COc1ccc([N-]S(=O)(=O)c2cccc([N-]C(=O)c3c(F)cccc3F)c2)cc1 (optimized conformer: 55.459708005164615 kcal/mol)

>  <smiles>  (16) 
COc1ccc(NS(=O)(=O)c2cccc(NC(=O)c3c(F)cccc3F)c2)cc1

>  <score_type>  (16) 
oracle

>  <origin>  (16) 
adgpu

>  <m_score__min__energy>  (16) 
-9.8800000000000008

>  <m_primary>  (16) 
energy

$$$$
16:0
     RDKit          3D

 71 73  0  0  0  0  0  0  0  0999 V2000
   -8.9200   19.4520  -32.0610 C   0  0  0  0  0  0  0  0  0  0  0  0
   -8.0380   18.2420  -32.3650 C   0  0  0  0  0  0  0  0  0  0  0  0
   -6.5770   18.6340  -32.6090 C   0  0  0  0  0  0  0  0  0  0  0  0
   -6.1970   19.7750  -31.7760 N   0  0  0  0  0  0  0  0  0  0  0  0
   -5.3280   20.8230  -32.2390 C   0  0  0  0  0  0  0  0  0  0  0  0
   -4.7650   20.7160  -33.3620 O   0  0  0  0  0  0  0  0  0  0  0  0
   -5.1020   22.0340  -31.4190 C   0  0  0  0  0  0  0  0  0  0  0  0
   -4.0970   22.2020  -30.4830 C   0  0  0  0  0  0  0  0  0  0  0  0
   -4.2840   23.4490  -29.9180 C   0  0  0  0  0  0  0  0  0  0  0  0
   -3.4060   24.0330  -28.8790 C   0  0  0  0  0  0  0  0  0  0  0  0
   -3.9310   24.3550  -27.6190 C   0  0  0  0  0  0  0  0  0  0  0  0
   -3.1070   24.8870  -26.6280 C   0  0  0  0  0  0  0  0  0  0  0  0
   -1.7440   25.0820  -26.8730 C   0  0  0  0  0  0  0  0  0  0  0  0
   -0.9120   25.6320  -25.8470 N   0  0  0  0  0  0  0  0  0  0  0  0
   -0.7790   24.9190  -24.5790 C   0  0  0  0  0  0  0  0  0  0  0  0
   -0.0990   27.1390  -26.1410 S   0  0  0  0  0  0  0  0  0  0  0  0
   -0.5100   28.2980  -24.8560 C   0  0  0  0  0  0  0  0  0  0  0  0
   -0.5200   27.7140  -27.4650 O   0  0  0  0  0  0  0  0  0  0  0  0
    1.3860   26.9110  -26.1610 O   0  0  0  0  0  0  0  0  0  0  0  0
   -1.1950   24.7460  -28.1200 C   0  0  0  0  0  0  0  0  0  0  0  0
    0.1860   24.9370  -28.3110 O   0  0  0  0  0  0  0  0  0  0  0  0
    1.2280   24.0890  -27.8260 C   0  0  0  0  0  0  0  0  0  0  0  0
    0.6690   22.8260  -27.2430 C   0  0  0  0  0  0  0  0  0  0  0  0
    0.6430   22.6850  -25.9920 O   0  0  0  0  0  0  0  0  0  0  0  0
    0.1090   21.8180  -28.0920 N   0  0  0  0  0  0  0  0  0  0  0  0
   -0.8270   20.8170  -27.6660 C   0  0  0  0  0  0  0  0  0  0  0  0
   -2.1750   21.1740  -27.5270 C   0  0  0  0  0  0  0  0  0  0  0  0
   -3.1200   20.2330  -27.1150 C   0  0  0  0  0  0  0  0  0  0  0  0
   -2.7280   18.9200  -26.8530 C   0  0  0  0  0  0  0  0  0  0  0  0
   -1.3950   18.5400  -27.0200 C   0  0  0  0  0  0  0  0  0  0  0  0
   -0.4320   19.4780  -27.4430 C   0  0  0  0  0  0  0  0  0  0  0  0
    0.9020   19.1090  -27.6810 O   0  0  0  0  0  0  0  0  0  0  0  0
    1.5030   19.0270  -28.9690 C   0  0  0  0  0  0  0  0  0  0  0  0
   -2.0360   24.2210  -29.1220 C   0  0  0  0  0  0  0  0  0  0  0  0
   -5.3790   24.0430  -30.4510 N   0  0  0  0  0  0  0  0  0  0  0  0
   -5.9590   25.3300  -30.0600 C   0  0  0  0  0  0  0  0  0  0  0  0
   -5.8650   23.1980  -31.3910 C   0  0  0  0  0  0  0  0  0  0  0  0
   -7.0790   23.4750  -32.2360 C   0  0  0  0  0  0  0  0  0  0  0  0
   -9.0101   19.5756  -30.9717 H   0  0  0  0  0  0  0  0  0  0  0  0
   -8.4666   20.3548  -32.4962 H   0  0  0  0  0  0  0  0  0  0  0  0
   -9.9182   19.2967  -32.4962 H   0  0  0  0  0  0  0  0  0  0  0  0
   -8.0807   17.5497  -31.5112 H   0  0  0  0  0  0  0  0  0  0  0  0
   -8.4179   17.7709  -33.2835 H   0  0  0  0  0  0  0  0  0  0  0  0
   -5.9292   17.7789  -32.3659 H   0  0  0  0  0  0  0  0  0  0  0  0
   -6.4603   18.9159  -33.6659 H   0  0  0  0  0  0  0  0  0  0  0  0
   -6.6300   19.8430  -30.8290 H   0  0  0  0  0  0  0  0  0  0  0  0
   -3.3027   21.4821  -30.2364 H   0  0  0  0  0  0  0  0  0  0  0  0
   -4.9981   24.1870  -27.4115 H   0  0  0  0  0  0  0  0  0  0  0  0
   -3.5310   25.1546  -25.6489 H   0  0  0  0  0  0  0  0  0  0  0  0
   -0.9107   25.6250  -23.7458 H   0  0  0  0  0  0  0  0  0  0  0  0
   -1.5460   24.1329  -24.5182 H   0  0  0  0  0  0  0  0  0  0  0  0
    0.2198   24.4622  -24.5182 H   0  0  0  0  0  0  0  0  0  0  0  0
   -0.3443   27.8307  -23.8741 H   0  0  0  0  0  0  0  0  0  0  0  0
    0.1266   29.1902  -24.9496 H   0  0  0  0  0  0  0  0  0  0  0  0
   -1.5664   28.5898  -24.9496 H   0  0  0  0  0  0  0  0  0  0  0  0
    1.9001   23.8336  -28.6585 H   0  0  0  0  0  0  0  0  0  0  0  0
    1.7759   24.6252  -27.0371 H   0  0  0  0  0  0  0  0  0  0  0  0
   -2.4911   22.2049  -27.7445 H   0  0  0  0  0  0  0  0  0  0  0  0
   -4.1735   20.5266  -26.9969 H   0  0  0  0  0  0  0  0  0  0  0  0
   -3.4706   18.1827  -26.5142 H   0  0  0  0  0  0  0  0  0  0  0  0
   -1.0942   17.5010  -26.8200 H   0  0  0  0  0  0  0  0  0  0  0  0
    2.5874   18.8790  -28.8589 H   0  0  0  0  0  0  0  0  0  0  0  0
    1.0716   18.1794  -29.5217 H   0  0  0  0  0  0  0  0  0  0  0  0
    1.3144   19.9592  -29.5217 H   0  0  0  0  0  0  0  0  0  0  0  0
   -1.6151   23.9562  -30.1032 H   0  0  0  0  0  0  0  0  0  0  0  0
   -5.9904   25.3998  -28.9627 H   0  0  0  0  0  0  0  0  0  0  0  0
   -5.3422   26.1474  -30.4619 H   0  0  0  0  0  0  0  0  0  0  0  0
   -6.9799   25.4093  -30.4619 H   0  0  0  0  0  0  0  0  0  0  0  0
   -7.9426   23.6720  -31.5837 H   0  0  0  0  0  0  0  0  0  0  0  0
   -6.8911   24.3534  -32.8710 H   0  0  0  0  0  0  0  0  0  0  0  0
   -7.2907   22.6021  -32.8710 H   0  0  0  0  0  0  0  0  0  0  0  0
  1  2  1  0
  2  3  1  0
  3  4  1  0
  4  5  1  0
  5  6  2  0
  5  7  1  0
  7  8  1  0
  8  9  2  0
  9 10  1  0
 10 11  2  0
 11 12  1  0
 12 13  2  0
 13 14  1  0
 14 15  1  0
 14 16  1  0
 16 17  1  0
 16 18  2  0
 16 19  2  0
 13 20  1  0
 20 21  1  0
 21 22  1  0
 22 23  1  0
 23 24  2  0
 23 25  1  0
 25 26  1  0
 26 27  2  0
 27 28  1  0
 28 29  2  0
 29 30  1  0
 30 31  2  0
 31 32  1  0
 32 33  1  0
 20 34  2  0
  9 35  1  0
 35 36  1  0
 35 37  1  0
 37 38  1  0
 37  7  2  0
 34 10  1  0
 31 26  1  0
  1 39  1  0
  1 40  1  0
  1 41  1  0
  2 42  1  0
  2 43  1  0
  3 44  1  0
  3 45  1  0
  4 46  1  0
  8 47  1  0
 11 48  1  0
 12 49  1  0
 15 50  1  0
 15 51  1  0
 15 52  1  0
 17 53  1  0
 17 54  1  0
 17 55  1  0
 22 56  1  0
 22 57  1  0
 27 58  1  0
 28 59  1  0
 29 60  1  0
 30 61  1  0
 33 62  1  0
 33 63  1  0
 33 64  1  0
 34 65  1  0
 36 66  1  0
 36 67  1  0
 36 68  1  0
 38 69  1  0
 38 70  1  0
 38 71  1  0
M  CHG  1  25  -1
M  END
>  <UniqueID>  (17) 
17

>  <SMILES>  (17) 
CCCNC(=O)c1cc(-c2ccc(N(C)S(C)(=O)=O)c(OCC(=O)[N-]c3ccccc3OC)c2)n(C)c1C

>  <Energy>  (17) 
103.97275612717098

>  <Genealogy>  (17) 
CCCNC(=O)c1cc(-c2ccc(N(C)S(C)(=O)=O)c(OCC(=O)[N-]c3ccccc3OC)c2)n(C)c1C (protonated)
CCCNC(=O)c1cc(-c2ccc(N(C)S(C)(=O)=O)c(OCC(=O)[N-]c3ccccc3OC)c2)n(C)c1C (3D coordinates assigned)
CCCNC(=O)c1cc(-c2ccc(N(C)S(C)(=O)=O)c(OCC(=O)[N-]c3ccccc3OC)c2)n(C)c1C (optimized conformer: 103.97275612717098 kcal/mol)

>  <smiles>  (17) 
CCCNC(=O)c1cc(-c2ccc(N(C)S(C)(=O)=O)c(OCC(=O)Nc3ccccc3OC)c2)n(C)c1C

>  <score_type>  (17) 
oracle

>  <origin>  (17) 
adgpu

>  <m_score__min__energy>  (17) 
-11.08

>  <m_primary>  (17) 
energy

$$$$
17:0
     RDKit          3D

 47 49  0  0  0  0  0  0  0  0999 V2000
   -2.1600   25.2120  -26.7810 C   0  0  0  0  0  0  0  0  0  0  0  0
   -1.6900   25.2030  -28.1250 O   0  0  0  0  0  0  0  0  0  0  0  0
   -1.6760   24.0700  -28.9530 C   0  0  0  0  0  0  0  0  0  0  0  0
   -0.4750   23.4420  -29.3380 C   0  0  0  0  0  0  0  0  0  0  0  0
   -0.4990   22.3050  -30.1460 C   0  0  0  0  0  0  0  0  0  0  0  0
   -1.7230   21.7700  -30.5800 C   0  0  0  0  0  0  0  0  0  0  0  0
   -1.7920   20.6030  -31.4110 N   0  0  0  0  0  0  0  0  0  0  0  0
   -2.5750   20.5250  -32.9560 S   0  0  0  0  0  0  0  0  0  0  0  0
   -1.7410   19.6950  -33.8900 O   0  0  0  0  0  0  0  0  0  0  0  0
   -2.7040   21.9170  -33.5140 O   0  0  0  0  0  0  0  0  0  0  0  0
   -4.1580   19.7700  -32.7860 C   0  0  0  0  0  0  0  0  0  0  0  0
   -4.7810   19.1950  -33.9000 C   0  0  0  0  0  0  0  0  0  0  0  0
   -6.0240   18.5650  -33.7660 C   0  0  0  0  0  0  0  0  0  0  0  0
   -6.6510   18.4980  -32.5120 C   0  0  0  0  0  0  0  0  0  0  0  0
   -7.9910   17.8400  -32.3640 C   0  0  0  0  0  0  0  0  0  0  0  0
   -6.0370   19.0990  -31.4030 C   0  0  0  0  0  0  0  0  0  0  0  0
   -4.7960   19.7290  -31.5380 C   0  0  0  0  0  0  0  0  0  0  0  0
   -2.9170   22.3930  -30.1980 C   0  0  0  0  0  0  0  0  0  0  0  0
   -2.9030   23.5490  -29.3980 C   0  0  0  0  0  0  0  0  0  0  0  0
   -4.1140   24.2220  -29.0190 N   0  0  0  0  0  0  0  0  0  0  0  0
   -5.2530   24.9320  -30.1160 S   0  0  0  0  0  0  0  0  0  0  0  0
   -4.5100   25.6700  -31.1960 O   0  0  0  0  0  0  0  0  0  0  0  0
   -6.1140   25.9070  -29.3640 O   0  0  0  0  0  0  0  0  0  0  0  0
   -6.2800   23.6770  -30.8030 C   0  0  0  0  0  0  0  0  0  0  0  0
   -6.1480   23.3010  -32.1480 C   0  0  0  0  0  0  0  0  0  0  0  0
   -6.9730   22.3060  -32.6820 C   0  0  0  0  0  0  0  0  0  0  0  0
   -7.9350   21.6850  -31.8770 C   0  0  0  0  0  0  0  0  0  0  0  0
   -8.7370   20.7230  -32.3970 F   0  0  0  0  0  0  0  0  0  0  0  0
   -8.0680   22.0560  -30.5350 C   0  0  0  0  0  0  0  0  0  0  0  0
   -7.2420   23.0500  -29.9980 C   0  0  0  0  0  0  0  0  0  0  0  0
   -1.3023   25.1956  -26.0925 H   0  0  0  0  0  0  0  0  0  0  0  0
   -2.7532   26.1217  -26.6061 H   0  0  0  0  0  0  0  0  0  0  0  0
   -2.7876   24.3257  -26.6061 H   0  0  0  0  0  0  0  0  0  0  0  0
    0.4883   23.8510  -28.9991 H   0  0  0  0  0  0  0  0  0  0  0  0
    0.4448   21.8254  -30.4445 H   0  0  0  0  0  0  0  0  0  0  0  0
   -4.2920   19.2384  -34.8844 H   0  0  0  0  0  0  0  0  0  0  0  0
   -6.5111   18.1209  -34.6466 H   0  0  0  0  0  0  0  0  0  0  0  0
   -8.2267   17.7243  -31.2958 H   0  0  0  0  0  0  0  0  0  0  0  0
   -8.7603   18.4628  -32.8438 H   0  0  0  0  0  0  0  0  0  0  0  0
   -7.9686   16.8504  -32.8438 H   0  0  0  0  0  0  0  0  0  0  0  0
   -6.5344   19.0745  -30.4222 H   0  0  0  0  0  0  0  0  0  0  0  0
   -4.3188   20.1938  -30.6626 H   0  0  0  0  0  0  0  0  0  0  0  0
   -3.8785   21.9727  -30.5280 H   0  0  0  0  0  0  0  0  0  0  0  0
   -5.3946   23.7894  -32.7835 H   0  0  0  0  0  0  0  0  0  0  0  0
   -6.8657   22.0110  -33.7363 H   0  0  0  0  0  0  0  0  0  0  0  0
   -8.8221   21.5663  -29.9014 H   0  0  0  0  0  0  0  0  0  0  0  0
   -7.3476   23.3401  -28.9422 H   0  0  0  0  0  0  0  0  0  0  0  0
  1  2  1  0
  2  3  1  0
  3  4  2  0
  4  5  1  0
  5  6  2  0
  6  7  1  0
  7  8  1  0
  8  9  2  0
  8 10  2  0
  8 11  1  0
 11 12  2  0
 12 13  1  0
 13 14  2  0
 14 15  1  0
 14 16  1  0
 16 17  2  0
  6 18  1  0
 18 19  2  0
 19 20  1  0
 20 21  1  0
 21 22  2  0
 21 23  2  0
 21 24  1  0
 24 25  2  0
 25 26  1  0
 26 27  2  0
 27 28  1  0
 27 29  1  0
 29 30  2  0
 19  3  1  0
 30 24  1  0
 17 11  1  0
  1 31  1  0
  1 32  1  0
  1 33  1  0
  4 34  1  0
  5 35  1  0
 12 36  1  0
 13 37  1  0
 15 38  1  0
 15 39  1  0
 15 40  1  0
 16 41  1  0
 17 42  1  0
 18 43  1  0
 25 44  1  0
 26 45  1  0
 29 46  1  0
 30 47  1  0
M  CHG  2   7  -1  20  -1
M  END
>  <UniqueID>  (18) 
18

>  <SMILES>  (18) 
COc1ccc([N-]S(=O)(=O)c2ccc(C)cc2)cc1[N-]S(=O)(=O)c1ccc(F)cc1

>  <Energy>  (18) 
54.51634125749353

>  <Genealogy>  (18) 
COc1ccc([N-]S(=O)(=O)c2ccc(C)cc2)cc1[N-]S(=O)(=O)c1ccc(F)cc1 (protonated)
COc1ccc([N-]S(=O)(=O)c2ccc(C)cc2)cc1[N-]S(=O)(=O)c1ccc(F)cc1 (3D coordinates assigned)
COc1ccc([N-]S(=O)(=O)c2ccc(C)cc2)cc1[N-]S(=O)(=O)c1ccc(F)cc1 (optimized conformer: 54.51634125749353 kcal/mol)

>  <smiles>  (18) 
COc1ccc(NS(=O)(=O)c2ccc(C)cc2)cc1NS(=O)(=O)c1ccc(F)cc1

>  <score_type>  (18) 
oracle

>  <origin>  (18) 
adgpu

>  <m_score__min__energy>  (18) 
-10.94

>  <m_primary>  (18) 
energy

$$$$
18:0
     RDKit          3D

 53 56  0  0  0  0  0  0  0  0999 V2000
   -0.9090   30.9060  -27.6050 C   0  0  0  0  0  0  0  0  0  0  0  0
   -0.3780   30.8890  -26.2360 N   0  0  0  0  0  0  0  0  0  0  0  0
   -1.4820   30.8520  -25.2690 C   0  0  0  0  0  0  0  0  0  0  0  0
    0.6610   29.4970  -26.0140 S   0  0  0  0  0  0  0  0  0  0  0  0
    1.2900   29.5300  -24.6450 O   0  0  0  0  0  0  0  0  0  0  0  0
    1.7500   29.4930  -27.0540 O   0  0  0  0  0  0  0  0  0  0  0  0
   -0.2680   28.0090  -26.1830 C   0  0  0  0  0  0  0  0  0  0  0  0
   -0.7930   27.3510  -25.0610 C   0  0  0  0  0  0  0  0  0  0  0  0
   -1.5400   26.1810  -25.2190 C   0  0  0  0  0  0  0  0  0  0  0  0
   -1.7670   25.6570  -26.4940 C   0  0  0  0  0  0  0  0  0  0  0  0
   -1.2340   26.3000  -27.6260 C   0  0  0  0  0  0  0  0  0  0  0  0
   -1.4740   25.8150  -28.9560 N   0  0  0  0  0  0  0  0  0  0  0  0
   -1.7330   24.4540  -29.3290 C   0  0  0  0  0  0  0  0  0  0  0  0
   -0.7900   23.6160  -29.3500 O   0  0  0  0  0  0  0  0  0  0  0  0
   -3.0960   24.0440  -29.7400 C   0  0  0  0  0  0  0  0  0  0  0  0
   -3.5780   22.7570  -29.4380 C   0  0  0  0  0  0  0  0  0  0  0  0
   -4.8590   22.3680  -29.8350 C   0  0  0  0  0  0  0  0  0  0  0  0
   -5.6870   23.2600  -30.5330 C   0  0  0  0  0  0  0  0  0  0  0  0
   -7.0540   22.8320  -30.9900 C   0  0  0  0  0  0  0  0  0  0  0  0
   -6.9700   21.5710  -31.7230 N   0  0  0  0  0  0  0  0  0  0  0  0
   -7.8070   20.4220  -31.5680 C   0  0  0  0  0  0  0  0  0  0  0  0
   -8.8070   20.3670  -30.8040 O   0  0  0  0  0  0  0  0  0  0  0  0
   -7.3080   19.3310  -32.4000 C   0  0  0  0  0  0  0  0  0  0  0  0
   -7.7880   18.0360  -32.5850 C   0  0  0  0  0  0  0  0  0  0  0  0
   -7.0890   17.1930  -33.4690 C   0  0  0  0  0  0  0  0  0  0  0  0
   -5.9370   17.6580  -34.1430 C   0  0  0  0  0  0  0  0  0  0  0  0
   -5.4700   18.9690  -33.9340 C   0  0  0  0  0  0  0  0  0  0  0  0
   -6.1790   19.7830  -33.0520 C   0  0  0  0  0  0  0  0  0  0  0  0
   -5.9480   21.1630  -32.6350 C   0  0  0  0  0  0  0  0  0  0  0  0
   -4.9890   21.8920  -33.0030 O   0  0  0  0  0  0  0  0  0  0  0  0
   -5.2100   24.5420  -30.8410 C   0  0  0  0  0  0  0  0  0  0  0  0
   -3.9260   24.9310  -30.4490 C   0  0  0  0  0  0  0  0  0  0  0  0
   -0.5030   27.4830  -27.4620 C   0  0  0  0  0  0  0  0  0  0  0  0
   -2.0079   30.9412  -27.5716 H   0  0  0  0  0  0  0  0  0  0  0  0
   -0.5297   31.7925  -28.1344 H   0  0  0  0  0  0  0  0  0  0  0  0
   -0.5872   29.9971  -28.1344 H   0  0  0  0  0  0  0  0  0  0  0  0
   -1.0750   30.8656  -24.2472 H   0  0  0  0  0  0  0  0  0  0  0  0
   -2.1292   31.7290  -25.4176 H   0  0  0  0  0  0  0  0  0  0  0  0
   -2.0690   29.9337  -25.4176 H   0  0  0  0  0  0  0  0  0  0  0  0
   -0.6161   27.7572  -24.0542 H   0  0  0  0  0  0  0  0  0  0  0  0
   -1.9511   25.6702  -24.3358 H   0  0  0  0  0  0  0  0  0  0  0  0
   -2.3633   24.7404  -26.6129 H   0  0  0  0  0  0  0  0  0  0  0  0
   -2.9406   22.0516  -28.8847 H   0  0  0  0  0  0  0  0  0  0  0  0
   -5.2210   21.3564  -29.5991 H   0  0  0  0  0  0  0  0  0  0  0  0
   -7.7052   22.6998  -30.1134 H   0  0  0  0  0  0  0  0  0  0  0  0
   -7.4688   23.6053  -31.6533 H   0  0  0  0  0  0  0  0  0  0  0  0
   -8.6858   17.6834  -32.0563 H   0  0  0  0  0  0  0  0  0  0  0  0
   -7.4418   16.1647  -33.6366 H   0  0  0  0  0  0  0  0  0  0  0  0
   -5.4021   16.9911  -34.8352 H   0  0  0  0  0  0  0  0  0  0  0  0
   -4.5728   19.3401  -34.4509 H   0  0  0  0  0  0  0  0  0  0  0  0
   -5.8497   25.2454  -31.3941 H   0  0  0  0  0  0  0  0  0  0  0  0
   -3.5617   25.9389  -30.6970 H   0  0  0  0  0  0  0  0  0  0  0  0
   -0.1087   28.0057  -28.3459 H   0  0  0  0  0  0  0  0  0  0  0  0
  1  2  1  0
  2  3  1  0
  2  4  1  0
  4  5  2  0
  4  6  2  0
  4  7  1  0
  7  8  2  0
  8  9  1  0
  9 10  2  0
 10 11  1  0
 11 12  1  0
 12 13  1  0
 13 14  2  0
 13 15  1  0
 15 16  2  0
 16 17  1  0
 17 18  2  0
 18 19  1  0
 19 20  1  0
 20 21  1  0
 21 22  2  0
 21 23  1  0
 23 24  2  0
 24 25  1  0
 25 26  2  0
 26 27  1  0
 27 28  2  0
 28 29  1  0
 29 30  2  0
 18 31  1  0
 31 32  2  0
 11 33  2  0
 33  7  1  0
 32 15  1  0
 29 20  1  0
 28 23  1  0
  1 34  1  0
  1 35  1  0
  1 36  1  0
  3 37  1  0
  3 38  1  0
  3 39  1  0
  8 40  1  0
  9 41  1  0
 10 42  1  0
 16 43  1  0
 17 44  1  0
 19 45  1  0
 19 46  1  0
 24 47  1  0
 25 48  1  0
 26 49  1  0
 27 50  1  0
 31 51  1  0
 32 52  1  0
 33 53  1  0
M  CHG  1  12  -1
M  END
>  <UniqueID>  (19) 
19

>  <SMILES>  (19) 
CN(C)S(=O)(=O)c1cccc([N-]C(=O)c2ccc(CN3C(=O)c4ccccc4C3=O)cc2)c1

>  <Energy>  (19) 
92.14984219667859

>  <Genealogy>  (19) 
CN(C)S(=O)(=O)c1cccc([N-]C(=O)c2ccc(CN3C(=O)c4ccccc4C3=O)cc2)c1 (protonated)
CN(C)S(=O)(=O)c1cccc([N-]C(=O)c2ccc(CN3C(=O)c4ccccc4C3=O)cc2)c1 (3D coordinates assigned)
CN(C)S(=O)(=O)c1cccc([N-]C(=O)c2ccc(CN3C(=O)c4ccccc4C3=O)cc2)c1 (nonaromatic ring conformer: 92.14984219667859 kcal/mol)

>  <smiles>  (19) 
CN(C)S(=O)(=O)c1cccc(NC(=O)c2ccc(CN3C(=O)c4ccccc4C3=O)cc2)c1

>  <score_type>  (19) 
oracle

>  <origin>  (19) 
adgpu

>  <m_score__min__energy>  (19) 
-12.93

>  <m_primary>  (19) 
energy

$$$$
19:0
     RDKit          3D

 35 37  0  0  0  0  0  0  0  0999 V2000
   -3.1310   23.1740  -27.8070 O   0  0  0  0  0  0  0  0  0  0  0  0
   -2.9450   24.3760  -28.1420 C   0  0  0  0  0  0  0  0  0  0  0  0
   -3.5770   24.8960  -29.3230 N   0  0  0  0  0  0  0  0  0  0  0  0
   -4.7530   24.3230  -29.9190 C   0  0  0  0  0  0  0  0  0  0  0  0
   -5.1990   23.0340  -29.5730 C   0  0  0  0  0  0  0  0  0  0  0  0
   -6.3600   22.5100  -30.1490 C   0  0  0  0  0  0  0  0  0  0  0  0
   -7.0950   23.2700  -31.0640 C   0  0  0  0  0  0  0  0  0  0  0  0
   -8.5870   22.5990  -31.7960 S   0  0  0  0  0  0  0  0  0  0  0  0
   -7.8060   21.0300  -32.1570 C   0  0  0  0  0  0  0  0  0  0  0  0
   -6.6490   20.9960  -32.8700 N   0  0  0  0  0  0  0  0  0  0  0  0
   -6.0450   19.8150  -33.1610 C   0  0  0  0  0  0  0  0  0  0  0  0
   -6.6130   18.6170  -32.7250 C   0  0  0  0  0  0  0  0  0  0  0  0
   -7.7990   18.6730  -31.9940 C   0  0  0  0  0  0  0  0  0  0  0  0
   -8.3730   19.8740  -31.7220 N   0  0  0  0  0  0  0  0  0  0  0  0
   -6.6680   24.5590  -31.4010 C   0  0  0  0  0  0  0  0  0  0  0  0
   -5.5080   25.0850  -30.8250 C   0  0  0  0  0  0  0  0  0  0  0  0
   -2.0150   25.2150  -27.3490 C   0  0  0  0  0  0  0  0  0  0  0  0
   -1.9690   25.0640  -25.9490 C   0  0  0  0  0  0  0  0  0  0  0  0
   -1.0940   25.8370  -25.1800 C   0  0  0  0  0  0  0  0  0  0  0  0
   -0.2640   26.7740  -25.7950 C   0  0  0  0  0  0  0  0  0  0  0  0
   -0.3090   26.9480  -27.1790 C   0  0  0  0  0  0  0  0  0  0  0  0
   -1.1860   26.1830  -27.9590 C   0  0  0  0  0  0  0  0  0  0  0  0
   -1.2380   26.4120  -29.3290 O   0  0  0  0  0  0  0  0  0  0  0  0
   -3.0920   25.6660  -29.8350 H   0  0  0  0  0  0  0  0  0  0  0  0
   -4.6311   22.4355  -28.8455 H   0  0  0  0  0  0  0  0  0  0  0  0
   -6.6961   21.4973  -29.8817 H   0  0  0  0  0  0  0  0  0  0  0  0
   -5.1095   19.8026  -33.7395 H   0  0  0  0  0  0  0  0  0  0  0  0
   -6.1366   17.6520  -32.9526 H   0  0  0  0  0  0  0  0  0  0  0  0
   -8.2698   17.7450  -31.6376 H   0  0  0  0  0  0  0  0  0  0  0  0
   -7.2455   25.1590  -32.1197 H   0  0  0  0  0  0  0  0  0  0  0  0
   -5.1841   26.1039  -31.0836 H   0  0  0  0  0  0  0  0  0  0  0  0
   -2.6267   24.3322  -25.4572 H   0  0  0  0  0  0  0  0  0  0  0  0
   -1.0601   25.7060  -24.0884 H   0  0  0  0  0  0  0  0  0  0  0  0
    0.4274   27.3770  -25.1881 H   0  0  0  0  0  0  0  0  0  0  0  0
    0.3469   27.6889  -27.6594 H   0  0  0  0  0  0  0  0  0  0  0  0
  1  2  2  0
  2  3  1  0
  3  4  1  0
  4  5  2  0
  5  6  1  0
  6  7  2  0
  7  8  1  0
  8  9  1  0
  9 10  2  0
 10 11  1  0
 11 12  2  0
 12 13  1  0
 13 14  2  0
  7 15  1  0
 15 16  2  0
  2 17  1  0
 17 18  2  0
 18 19  1  0
 19 20  2  0
 20 21  1  0
 21 22  2  0
 22 23  1  0
 16  4  1  0
 22 17  1  0
 14  9  1  0
  3 24  1  0
  5 25  1  0
  6 26  1  0
 11 27  1  0
 12 28  1  0
 13 29  1  0
 15 30  1  0
 16 31  1  0
 18 32  1  0
 19 33  1  0
 20 34  1  0
 21 35  1  0
M  CHG  1  23  -1
M  END
>  <UniqueID>  (20) 
20

>  <SMILES>  (20) 
O=C(Nc1ccc(Sc2ncccn2)cc1)c1ccccc1[O-]

>  <Energy>  (20) 
42.409418049619696

>  <Genealogy>  (20) 
O=C(Nc1ccc(Sc2ncccn2)cc1)c1ccccc1[O-] (protonated)
O=C(Nc1ccc(Sc2ncccn2)cc1)c1ccccc1[O-] (3D coordinates assigned)
O=C(Nc1ccc(Sc2ncccn2)cc1)c1ccccc1[O-] (optimized conformer: 42.409418049619696 kcal/mol)

>  <smiles>  (20) 
O=C(Nc1ccc(Sc2ncccn2)cc1)c1ccccc1O

>  <score_type>  (20) 
oracle

>  <origin>  (20) 
adgpu

>  <m_score__min__energy>  (20) 
-11.57

>  <m_primary>  (20) 
energy

$$$$
20:0
     RDKit          3D

 60 63  0  0  0  0  0  0  0  0999 V2000
   -0.5230   18.9160  -27.8720 C   0  0  0  0  0  0  0  0  0  0  0  0
   -1.1680   19.7370  -26.8390 N   0  0  0  0  0  0  0  0  0  0  0  0
   -2.6160   19.8140  -27.0810 C   0  0  0  0  0  0  0  0  0  0  0  0
   -0.4870   21.3420  -26.8420 S   0  0  0  0  0  0  0  0  0  0  0  0
    0.9510   21.2790  -27.2780 O   0  0  0  0  0  0  0  0  0  0  0  0
   -0.5240   21.8960  -25.4420 O   0  0  0  0  0  0  0  0  0  0  0  0
   -1.3710   22.4260  -27.9180 C   0  0  0  0  0  0  0  0  0  0  0  0
   -1.8780   23.6410  -27.4360 C   0  0  0  0  0  0  0  0  0  0  0  0
   -2.5650   24.5050  -28.2920 C   0  0  0  0  0  0  0  0  0  0  0  0
   -2.7560   24.1720  -29.6380 C   0  0  0  0  0  0  0  0  0  0  0  0
   -3.5280   25.0560  -30.4660 N   0  0  0  0  0  0  0  0  0  0  0  0
   -4.9380   25.3030  -30.3970 C   0  0  0  0  0  0  0  0  0  0  0  0
   -5.3720   26.4180  -30.7900 O   0  0  0  0  0  0  0  0  0  0  0  0
   -5.9040   24.2680  -29.8860 C   0  0  0  0  0  0  0  0  0  0  0  0
   -7.3880   24.1300  -30.9530 S   0  0  0  0  0  0  0  0  0  0  0  0
   -6.9150   22.5600  -31.6760 C   0  0  0  0  0  0  0  0  0  0  0  0
   -5.6460   22.3760  -32.1310 N   0  0  0  0  0  0  0  0  0  0  0  0
   -5.2720   21.2120  -32.7260 C   0  0  0  0  0  0  0  0  0  0  0  0
   -4.0950   21.0820  -33.1540 O   0  0  0  0  0  0  0  0  0  0  0  0
   -6.2070   20.1730  -32.8610 C   0  0  0  0  0  0  0  0  0  0  0  0
   -7.5000   20.3820  -32.3810 C   0  0  0  0  0  0  0  0  0  0  0  0
   -7.8350   21.5680  -31.8070 N   0  0  0  0  0  0  0  0  0  0  0  0
   -8.5170   19.3120  -32.5960 C   0  0  0  0  0  0  0  0  0  0  0  0
   -7.8870   17.9300  -32.3310 C   0  0  0  0  0  0  0  0  0  0  0  0
   -6.5410   17.7170  -32.9510 N   0  0  0  0  0  0  0  0  0  0  0  0
   -6.5370   16.5360  -33.8400 C   0  0  0  0  0  0  0  0  0  0  0  0
   -5.1910   15.8620  -33.8400 C   0  0  0  0  0  0  0  0  0  0  0  0
   -4.2060   16.2370  -34.7680 C   0  0  0  0  0  0  0  0  0  0  0  0
   -2.9420   15.6420  -34.7320 C   0  0  0  0  0  0  0  0  0  0  0  0
   -2.6520   14.6710  -33.7730 C   0  0  0  0  0  0  0  0  0  0  0  0
   -3.6280   14.2960  -32.8410 C   0  0  0  0  0  0  0  0  0  0  0  0
   -4.8930   14.8920  -32.8690 C   0  0  0  0  0  0  0  0  0  0  0  0
   -5.9300   18.9000  -33.6150 C   0  0  0  0  0  0  0  0  0  0  0  0
   -2.2850   22.9360  -30.1090 C   0  0  0  0  0  0  0  0  0  0  0  0
   -1.5790   22.0800  -29.2580 C   0  0  0  0  0  0  0  0  0  0  0  0
    0.0886   18.1375  -27.3927 H   0  0  0  0  0  0  0  0  0  0  0  0
   -1.2935   18.4430  -28.4985 H   0  0  0  0  0  0  0  0  0  0  0  0
    0.1190   19.5527  -28.4985 H   0  0  0  0  0  0  0  0  0  0  0  0
   -3.1476   19.8423  -26.1184 H   0  0  0  0  0  0  0  0  0  0  0  0
   -2.8442   20.7255  -27.6528 H   0  0  0  0  0  0  0  0  0  0  0  0
   -2.9396   18.9318  -27.6528 H   0  0  0  0  0  0  0  0  0  0  0  0
   -1.7343   23.9148  -26.3803 H   0  0  0  0  0  0  0  0  0  0  0  0
   -2.9596   25.4559  -27.9047 H   0  0  0  0  0  0  0  0  0  0  0  0
   -5.3964   23.2926  -29.8553 H   0  0  0  0  0  0  0  0  0  0  0  0
   -6.2336   24.5760  -28.8828 H   0  0  0  0  0  0  0  0  0  0  0  0
   -9.3606   19.4666  -31.9072 H   0  0  0  0  0  0  0  0  0  0  0  0
   -8.8739   19.3545  -33.6356 H   0  0  0  0  0  0  0  0  0  0  0  0
   -7.7848   17.8049  -31.2429 H   0  0  0  0  0  0  0  0  0  0  0  0
   -8.5586   17.1927  -32.7952 H   0  0  0  0  0  0  0  0  0  0  0  0
   -7.2967   15.8211  -33.4910 H   0  0  0  0  0  0  0  0  0  0  0  0
   -6.7609   16.8690  -34.8642 H   0  0  0  0  0  0  0  0  0  0  0  0
   -4.4302   17.0019  -35.5261 H   0  0  0  0  0  0  0  0  0  0  0  0
   -2.1742   15.9398  -35.4612 H   0  0  0  0  0  0  0  0  0  0  0  0
   -1.6580   14.2005  -33.7489 H   0  0  0  0  0  0  0  0  0  0  0  0
   -3.3990   13.5306  -32.0849 H   0  0  0  0  0  0  0  0  0  0  0  0
   -5.6545   14.6010  -32.1305 H   0  0  0  0  0  0  0  0  0  0  0  0
   -4.8417   18.7517  -33.6744 H   0  0  0  0  0  0  0  0  0  0  0  0
   -6.3730   18.9946  -34.6174 H   0  0  0  0  0  0  0  0  0  0  0  0
   -2.4721   22.6398  -31.1517 H   0  0  0  0  0  0  0  0  0  0  0  0
   -1.1846   21.1286  -29.6443 H   0  0  0  0  0  0  0  0  0  0  0  0
  1  2  1  0
  2  3  1  0
  2  4  1  0
  4  5  2  0
  4  6  2  0
  4  7  1  0
  7  8  2  0
  8  9  1  0
  9 10  2  0
 10 11  1  0
 11 12  1  0
 12 13  2  0
 12 14  1  0
 14 15  1  0
 15 16  1  0
 16 17  2  0
 17 18  1  0
 18 19  2  0
 18 20  1  0
 20 21  2  0
 21 22  1  0
 21 23  1  0
 23 24  1  0
 24 25  1  0
 25 26  1  0
 26 27  1  0
 27 28  2  0
 28 29  1  0
 29 30  2  0
 30 31  1  0
 31 32  2  0
 25 33  1  0
 10 34  1  0
 34 35  2  0
 35  7  1  0
 22 16  1  0
 32 27  1  0
 33 20  1  0
  1 36  1  0
  1 37  1  0
  1 38  1  0
  3 39  1  0
  3 40  1  0
  3 41  1  0
  8 42  1  0
  9 43  1  0
 14 44  1  0
 14 45  1  0
 23 46  1  0
 23 47  1  0
 24 48  1  0
 24 49  1  0
 26 50  1  0
 26 51  1  0
 28 52  1  0
 29 53  1  0
 30 54  1  0
 31 55  1  0
 32 56  1  0
 33 57  1  0
 33 58  1  0
 34 59  1  0
 35 60  1  0
M  CHG  2  11  -1  22  -1
M  END
>  <UniqueID>  (21) 
21

>  <SMILES>  (21) 
CN(C)S(=O)(=O)c1ccc([N-]C(=O)CSc2nc(=O)c3c([n-]2)CCN(Cc2ccccc2)C3)cc1

>  <Energy>  (21) 
76.39440747211883

>  <Genealogy>  (21) 
CN(C)S(=O)(=O)c1ccc([N-]C(=O)CSc2nc(=O)c3c([n-]2)CCN(Cc2ccccc2)C3)cc1 (protonated)
CN(C)S(=O)(=O)c1ccc([N-]C(=O)CSc2nc(=O)c3c([n-]2)CCN(Cc2ccccc2)C3)cc1 (3D coordinates assigned)
CN(C)S(=O)(=O)c1ccc([N-]C(=O)CSc2nc(=O)c3c([n-]2)CCN(Cc2ccccc2)C3)cc1 (nonaromatic ring conformer: 76.39440747211883 kcal/mol)

>  <smiles>  (21) 
CN(C)S(=O)(=O)c1ccc(NC(=O)CSc2nc(=O)c3c([nH]2)CCN(Cc2ccccc2)C3)cc1

>  <score_type>  (21) 
oracle

>  <origin>  (21) 
adgpu

>  <m_score__min__energy>  (21) 
-12.039999999999999

>  <m_primary>  (21) 
energy

$$$$
21:0
     RDKit          3D

 30 31  0  0  0  0  0  0  0  0999 V2000
   -5.0000   15.3360  -31.2680 N   0  0  0  0  0  0  0  0  0  0  0  0
   -5.1440   15.9790  -32.5370 C   0  0  0  0  0  0  0  0  0  0  0  0
   -4.6620   15.4220  -33.5590 O   0  0  0  0  0  0  0  0  0  0  0  0
   -5.8580   17.2720  -32.6740 C   0  0  0  0  0  0  0  0  0  0  0  0
   -5.4500   18.2350  -33.6140 C   0  0  0  0  0  0  0  0  0  0  0  0
   -6.1360   19.4470  -33.7350 C   0  0  0  0  0  0  0  0  0  0  0  0
   -7.2480   19.7180  -32.9180 C   0  0  0  0  0  0  0  0  0  0  0  0
   -7.9750   20.9510  -33.0010 N   0  0  0  0  0  0  0  0  0  0  0  0
   -8.3090   22.0070  -31.6670 S   0  0  0  0  0  0  0  0  0  0  0  0
   -8.6600   21.1810  -30.4620 O   0  0  0  0  0  0  0  0  0  0  0  0
   -9.4770   22.8850  -32.0180 O   0  0  0  0  0  0  0  0  0  0  0  0
   -6.8890   22.9810  -31.2960 C   0  0  0  0  0  0  0  0  0  0  0  0
   -7.0320   24.2520  -30.7220 C   0  0  0  0  0  0  0  0  0  0  0  0
   -5.9030   25.0250  -30.4360 C   0  0  0  0  0  0  0  0  0  0  0  0
   -4.6250   24.5310  -30.7220 C   0  0  0  0  0  0  0  0  0  0  0  0
   -3.5040   25.3010  -30.4400 O   0  0  0  0  0  0  0  0  0  0  0  0
   -4.4790   23.2620  -31.2910 C   0  0  0  0  0  0  0  0  0  0  0  0
   -5.6080   22.4880  -31.5750 C   0  0  0  0  0  0  0  0  0  0  0  0
   -7.6650   18.7550  -31.9920 C   0  0  0  0  0  0  0  0  0  0  0  0
   -6.9810   17.5430  -31.8720 C   0  0  0  0  0  0  0  0  0  0  0  0
   -5.5110   15.6670  -30.4210 H   0  0  0  0  0  0  0  0  0  0  0  0
   -4.4410   14.4570  -31.1910 H   0  0  0  0  0  0  0  0  0  0  0  0
   -4.5830   18.0327  -34.2601 H   0  0  0  0  0  0  0  0  0  0  0  0
   -5.8043   20.1923  -34.4729 H   0  0  0  0  0  0  0  0  0  0  0  0
   -8.0354   24.6421  -30.4961 H   0  0  0  0  0  0  0  0  0  0  0  0
   -6.0190   26.0220  -29.9860 H   0  0  0  0  0  0  0  0  0  0  0  0
   -3.4750   22.8725  -31.5153 H   0  0  0  0  0  0  0  0  0  0  0  0
   -5.4899   21.4885  -32.0190 H   0  0  0  0  0  0  0  0  0  0  0  0
   -8.5384   18.9541  -31.3536 H   0  0  0  0  0  0  0  0  0  0  0  0
   -7.3239   16.7936  -31.1434 H   0  0  0  0  0  0  0  0  0  0  0  0
  1  2  1  0
  2  3  2  0
  2  4  1  0
  4  5  2  0
  5  6  1  0
  6  7  2  0
  7  8  1  0
  8  9  1  0
  9 10  2  0
  9 11  2  0
  9 12  1  0
 12 13  2  0
 13 14  1  0
 14 15  2  0
 15 16  1  0
 15 17  1  0
 17 18  2  0
  7 19  1  0
 19 20  2  0
 20  4  1  0
 18 12  1  0
  1 21  1  0
  1 22  1  0
  5 23  1  0
  6 24  1  0
 13 25  1  0
 14 26  1  0
 17 27  1  0
 18 28  1  0
 19 29  1  0
 20 30  1  0
M  CHG  2   8  -1  16  -1
M  END
>  <UniqueID>  (22) 
22

>  <SMILES>  (22) 
NC(=O)c1ccc([N-]S(=O)(=O)c2ccc([O-])cc2)cc1

>  <Energy>  (22) 
35.12253050440997

>  <Genealogy>  (22) 
NC(=O)c1ccc([N-]S(=O)(=O)c2ccc([O-])cc2)cc1 (protonated)
NC(=O)c1ccc([N-]S(=O)(=O)c2ccc([O-])cc2)cc1 (3D coordinates assigned)
NC(=O)c1ccc([N-]S(=O)(=O)c2ccc([O-])cc2)cc1 (optimized conformer: 35.12253050440997 kcal/mol)

>  <smiles>  (22) 
NC(=O)c1ccc(NS(=O)(=O)c2ccc(O)cc2)cc1

>  <score_type>  (22) 
oracle

>  <origin>  (22) 
adgpu

>  <m_score__min__energy>  (22) 
-10.58

>  <m_primary>  (22) 
energy

$$$$
22:0
     RDKit          3D

 47 49  0  0  0  0  0  0  0  0999 V2000
   -0.5170   21.4930  -31.0880 C   0  0  0  0  0  0  0  0  0  0  0  0
   -0.2260   21.3770  -29.7000 O   0  0  0  0  0  0  0  0  0  0  0  0
   -1.0530   20.7360  -28.7620 C   0  0  0  0  0  0  0  0  0  0  0  0
   -0.8060   19.4190  -28.3290 C   0  0  0  0  0  0  0  0  0  0  0  0
   -1.6540   18.8100  -27.4010 C   0  0  0  0  0  0  0  0  0  0  0  0
   -2.7500   19.5060  -26.8910 C   0  0  0  0  0  0  0  0  0  0  0  0
   -3.0040   20.8130  -27.3100 C   0  0  0  0  0  0  0  0  0  0  0  0
   -2.1640   21.4320  -28.2470 C   0  0  0  0  0  0  0  0  0  0  0  0
   -2.4370   22.8240  -28.6670 C   0  0  0  0  0  0  0  0  0  0  0  0
   -3.3810   23.2030  -29.6220 C   0  0  0  0  0  0  0  0  0  0  0  0
   -4.2210   22.2910  -30.4290 C   0  0  0  0  0  0  0  0  0  0  0  0
   -3.8170   21.1050  -30.5720 O   0  0  0  0  0  0  0  0  0  0  0  0
   -5.6010   22.6910  -30.9580 C   0  0  0  0  0  0  0  0  0  0  0  0
   -6.4480   21.4240  -31.1650 C   0  0  0  0  0  0  0  0  0  0  0  0
   -5.4670   23.4230  -32.3130 C   0  0  0  0  0  0  0  0  0  0  0  0
   -6.3310   23.6290  -29.9780 C   0  0  0  0  0  0  0  0  0  0  0  0
   -3.1420   24.5460  -29.8610 C   0  0  0  0  0  0  0  0  0  0  0  0
   -3.7440   25.3450  -30.8260 O   0  0  0  0  0  0  0  0  0  0  0  0
   -2.1260   24.9380  -29.0250 C   0  0  0  0  0  0  0  0  0  0  0  0
   -1.6070   26.2260  -28.9460 O   0  0  0  0  0  0  0  0  0  0  0  0
   -1.6880   23.8930  -28.2950 N   0  0  0  0  0  0  0  0  0  0  0  0
   -0.6060   23.9100  -27.3450 C   0  0  0  0  0  0  0  0  0  0  0  0
   -0.8600   23.8050  -25.9690 C   0  0  0  0  0  0  0  0  0  0  0  0
    0.2000   23.8000  -25.0610 C   0  0  0  0  0  0  0  0  0  0  0  0
    1.5080   23.9010  -25.5360 C   0  0  0  0  0  0  0  0  0  0  0  0
    1.7410   24.0040  -26.8720 N   0  0  0  0  0  0  0  0  0  0  0  0
    0.7260   24.0130  -27.7760 C   0  0  0  0  0  0  0  0  0  0  0  0
   -1.5317   21.8975  -31.2173 H   0  0  0  0  0  0  0  0  0  0  0  0
    0.2105   22.1699  -31.5598 H   0  0  0  0  0  0  0  0  0  0  0  0
   -0.4547   20.5013  -31.5598 H   0  0  0  0  0  0  0  0  0  0  0  0
    0.0596   18.8667  -28.7238 H   0  0  0  0  0  0  0  0  0  0  0  0
   -1.4570   17.7791  -27.0716 H   0  0  0  0  0  0  0  0  0  0  0  0
   -3.4144   19.0246  -26.1583 H   0  0  0  0  0  0  0  0  0  0  0  0
   -3.8672   21.3601  -26.9033 H   0  0  0  0  0  0  0  0  0  0  0  0
   -6.7275   21.0059  -30.1867 H   0  0  0  0  0  0  0  0  0  0  0  0
   -7.3578   21.6791  -31.7282 H   0  0  0  0  0  0  0  0  0  0  0  0
   -5.8645   20.6808  -31.7282 H   0  0  0  0  0  0  0  0  0  0  0  0
   -5.2715   24.4908  -32.1351 H   0  0  0  0  0  0  0  0  0  0  0  0
   -4.6336   22.9878  -32.8840 H   0  0  0  0  0  0  0  0  0  0  0  0
   -6.4005   23.3113  -32.8840 H   0  0  0  0  0  0  0  0  0  0  0  0
   -6.0995   23.3316  -28.9446 H   0  0  0  0  0  0  0  0  0  0  0  0
   -5.9986   24.6642  -30.1448 H   0  0  0  0  0  0  0  0  0  0  0  0
   -7.4161   23.5610  -30.1448 H   0  0  0  0  0  0  0  0  0  0  0  0
   -1.8953   23.7266  -25.6056 H   0  0  0  0  0  0  0  0  0  0  0  0
    0.0061   23.7172  -23.9814 H   0  0  0  0  0  0  0  0  0  0  0  0
    2.3512   23.8973  -24.8296 H   0  0  0  0  0  0  0  0  0  0  0  0
    0.9492   24.1013  -28.8495 H   0  0  0  0  0  0  0  0  0  0  0  0
  1  2  1  0
  2  3  1  0
  3  4  2  0
  4  5  1  0
  5  6  2  0
  6  7  1  0
  7  8  2  0
  8  9  1  0
  9 10  2  0
 10 11  1  0
 11 12  2  0
 11 13  1  0
 13 14  1  0
 13 15  1  0
 13 16  1  0
 10 17  1  0
 17 18  1  0
 17 19  2  0
 19 20  1  0
 19 21  1  0
 21 22  1  0
 22 23  2  0
 23 24  1  0
 24 25  2  0
 25 26  1  0
 26 27  2  0
  8  3  1  0
 21  9  1  0
 27 22  1  0
  1 28  1  0
  1 29  1  0
  1 30  1  0
  4 31  1  0
  5 32  1  0
  6 33  1  0
  7 34  1  0
 14 35  1  0
 14 36  1  0
 14 37  1  0
 15 38  1  0
 15 39  1  0
 15 40  1  0
 16 41  1  0
 16 42  1  0
 16 43  1  0
 23 44  1  0
 24 45  1  0
 25 46  1  0
 27 47  1  0
M  CHG  2  18  -1  20  -1
M  END
>  <UniqueID>  (23) 
23

>  <SMILES>  (23) 
COc1ccccc1-c1c(C(=O)C(C)(C)C)c([O-])c([O-])n1-c1cccnc1

>  <Energy>  (23) 
93.96419087252707

>  <Genealogy>  (23) 
COc1ccccc1-c1c(C(=O)C(C)(C)C)c([O-])c([O-])n1-c1cccnc1 (protonated)
COc1ccccc1-c1c(C(=O)C(C)(C)C)c([O-])c([O-])n1-c1cccnc1 (3D coordinates assigned)
COc1ccccc1-c1c(C(=O)C(C)(C)C)c([O-])c([O-])n1-c1cccnc1 (optimized conformer: 93.96419087252707 kcal/mol)

>  <smiles>  (23) 
COc1ccccc1-c1c(C(=O)C(C)(C)C)c(O)c(O)n1-c1cccnc1

>  <score_type>  (23) 
oracle

>  <origin>  (23) 
adgpu

>  <m_score__min__energy>  (23) 
-12.869999999999999

>  <m_primary>  (23) 
energy

$$$$
23:0
     RDKit          3D

 44 46  0  0  0  0  0  0  0  0999 V2000
   -3.0310   13.0010  -34.4590 C   0  0  0  0  0  0  0  0  0  0  0  0
   -4.3560   13.7030  -34.4060 C   0  0  0  0  0  0  0  0  0  0  0  0
   -5.5150   13.0570  -34.8620 C   0  0  0  0  0  0  0  0  0  0  0  0
   -6.7650   13.6830  -34.7550 C   0  0  0  0  0  0  0  0  0  0  0  0
   -7.9960   13.0030  -35.2770 C   0  0  0  0  0  0  0  0  0  0  0  0
   -6.8490   14.9740  -34.2140 C   0  0  0  0  0  0  0  0  0  0  0  0
   -5.6970   15.6350  -33.7610 C   0  0  0  0  0  0  0  0  0  0  0  0
   -5.8210   16.9400  -33.1720 N   0  0  0  0  0  0  0  0  0  0  0  0
   -5.8520   18.1630  -33.9330 C   0  0  0  0  0  0  0  0  0  0  0  0
   -5.8660   18.1180  -35.1930 O   0  0  0  0  0  0  0  0  0  0  0  0
   -5.8740   19.4860  -33.2640 C   0  0  0  0  0  0  0  0  0  0  0  0
   -4.6530   20.1220  -32.9290 C   0  0  0  0  0  0  0  0  0  0  0  0
   -4.6460   21.3760  -32.3000 C   0  0  0  0  0  0  0  0  0  0  0  0
   -5.8700   21.9850  -32.0200 C   0  0  0  0  0  0  0  0  0  0  0  0
   -7.0540   21.3890  -32.3470 C   0  0  0  0  0  0  0  0  0  0  0  0
   -7.0930   20.1430  -32.9740 C   0  0  0  0  0  0  0  0  0  0  0  0
   -8.2030   22.2550  -31.9560 C   0  0  0  0  0  0  0  0  0  0  0  0
   -7.5220   23.4800  -31.2980 C   0  0  0  0  0  0  0  0  0  0  0  0
   -6.0850   23.2410  -31.4050 N   0  0  0  0  0  0  0  0  0  0  0  0
   -4.8690   24.2700  -30.7240 S   0  0  0  0  0  0  0  0  0  0  0  0
   -4.9980   24.2540  -28.9490 C   0  0  0  0  0  0  0  0  0  0  0  0
   -3.5070   23.7960  -31.1470 O   0  0  0  0  0  0  0  0  0  0  0  0
   -5.0690   25.6760  -31.2170 O   0  0  0  0  0  0  0  0  0  0  0  0
   -4.4550   14.9800  -33.8330 C   0  0  0  0  0  0  0  0  0  0  0  0
   -2.6748   12.8123  -33.4355 H   0  0  0  0  0  0  0  0  0  0  0  0
   -3.1439   12.0444  -34.9902 H   0  0  0  0  0  0  0  0  0  0  0  0
   -2.3029   13.6317  -34.9902 H   0  0  0  0  0  0  0  0  0  0  0  0
   -5.4425   12.0533  -35.3062 H   0  0  0  0  0  0  0  0  0  0  0  0
   -8.6128   12.6623  -34.4323 H   0  0  0  0  0  0  0  0  0  0  0  0
   -8.5732   13.7102  -35.8907 H   0  0  0  0  0  0  0  0  0  0  0  0
   -7.7047   12.1379  -35.8907 H   0  0  0  0  0  0  0  0  0  0  0  0
   -7.8268   15.4731  -34.1441 H   0  0  0  0  0  0  0  0  0  0  0  0
   -5.9470   16.9790  -32.1370 H   0  0  0  0  0  0  0  0  0  0  0  0
   -3.6995   19.6268  -33.1648 H   0  0  0  0  0  0  0  0  0  0  0  0
   -3.6985   21.8674  -32.0339 H   0  0  0  0  0  0  0  0  0  0  0  0
   -8.0550   19.6795  -33.2383 H   0  0  0  0  0  0  0  0  0  0  0  0
   -8.7870   22.5561  -32.8382 H   0  0  0  0  0  0  0  0  0  0  0  0
   -8.9142   21.7484  -31.2870 H   0  0  0  0  0  0  0  0  0  0  0  0
   -7.7975   24.4029  -31.8294 H   0  0  0  0  0  0  0  0  0  0  0  0
   -7.8352   23.6036  -30.2508 H   0  0  0  0  0  0  0  0  0  0  0  0
   -3.9981   24.3780  -28.5076 H   0  0  0  0  0  0  0  0  0  0  0  0
   -5.6484   25.0784  -28.6212 H   0  0  0  0  0  0  0  0  0  0  0  0
   -5.4272   23.2957  -28.6212 H   0  0  0  0  0  0  0  0  0  0  0  0
   -3.5544   15.4722  -33.4373 H   0  0  0  0  0  0  0  0  0  0  0  0
  1  2  1  0
  2  3  2  0
  3  4  1  0
  4  5  1  0
  4  6  2  0
  6  7  1  0
  7  8  1  0
  8  9  1  0
  9 10  2  0
  9 11  1  0
 11 12  2  0
 12 13  1  0
 13 14  2  0
 14 15  1  0
 15 16  2  0
 15 17  1  0
 17 18  1  0
 18 19  1  0
 19 20  1  0
 20 21  1  0
 20 22  2  0
 20 23  2  0
  7 24  2  0
 24  2  1  0
 16 11  1  0
 19 14  1  0
  1 25  1  0
  1 26  1  0
  1 27  1  0
  3 28  1  0
  5 29  1  0
  5 30  1  0
  5 31  1  0
  6 32  1  0
  8 33  1  0
 12 34  1  0
 13 35  1  0
 16 36  1  0
 17 37  1  0
 17 38  1  0
 18 39  1  0
 18 40  1  0
 21 41  1  0
 21 42  1  0
 21 43  1  0
 24 44  1  0
M  END
>  <UniqueID>  (24) 
24

>  <SMILES>  (24) 
Cc1cc(C)cc(NC(=O)c2ccc3c(c2)CCN3S(C)(=O)=O)c1

>  <Energy>  (24) 
61.858290268887856

>  <Genealogy>  (24) 
Cc1cc(C)cc(NC(=O)c2ccc3c(c2)CCN3S(C)(=O)=O)c1 (3D coordinates assigned)
Cc1cc(C)cc(NC(=O)c2ccc3c(c2)CCN3S(C)(=O)=O)c1 (nonaromatic ring conformer: 61.858290268887856 kcal/mol)

>  <smiles>  (24) 
Cc1cc(C)cc(NC(=O)c2ccc3c(c2)CCN3S(C)(=O)=O)c1

>  <score_type>  (24) 
oracle

>  <origin>  (24) 
adgpu

>  <m_score__min__energy>  (24) 
-8.5099999999999998

>  <m_primary>  (24) 
energy

$$$$
24:0
     RDKit          3D

 55 58  0  0  0  0  0  0  0  0999 V2000
   -0.8527   26.2767  -28.6731 H   0  0  0  0  0  0  0  0  0  0  0  0
   -1.3230   25.3270  -28.9680 C   0  0  0  0  0  0  0  0  0  0  0  0
   -2.6360   25.2990  -29.3130 N   0  0  0  0  0  0  0  0  0  0  0  0
   -3.2570   24.1480  -29.6850 C   0  0  0  0  0  0  0  0  0  0  0  0
   -4.7040   24.1730  -30.0860 C   0  0  0  0  0  0  0  0  0  0  0  0
   -4.8250   23.8260  -31.4200 F   0  0  0  0  0  0  0  0  0  0  0  0
   -5.2140   25.4450  -29.8990 F   0  0  0  0  0  0  0  0  0  0  0  0
   -5.4360   23.2790  -29.3240 F   0  0  0  0  0  0  0  0  0  0  0  0
   -2.5330   22.9460  -29.7200 C   0  0  0  0  0  0  0  0  0  0  0  0
   -3.0244   22.0136  -30.0349 H   0  0  0  0  0  0  0  0  0  0  0  0
   -1.1710   22.9400  -29.3490 C   0  0  0  0  0  0  0  0  0  0  0  0
   -0.4290   21.8660  -29.3600 N   0  0  0  0  0  0  0  0  0  0  0  0
   -0.8110   20.5000  -29.6000 C   0  0  0  0  0  0  0  0  0  0  0  0
   -1.0690   19.7300  -28.6350 O   0  0  0  0  0  0  0  0  0  0  0  0
   -0.8140   19.9680  -30.9840 C   0  0  0  0  0  0  0  0  0  0  0  0
    0.3820   19.8840  -31.7180 C   0  0  0  0  0  0  0  0  0  0  0  0
    1.3267   20.2149  -31.2619 H   0  0  0  0  0  0  0  0  0  0  0  0
    0.3800   19.3840  -33.0210 C   0  0  0  0  0  0  0  0  0  0  0  0
    1.3215   19.3274  -33.5870 H   0  0  0  0  0  0  0  0  0  0  0  0
   -0.8120   18.9550  -33.6100 C   0  0  0  0  0  0  0  0  0  0  0  0
   -0.7870   18.5100  -34.8930 F   0  0  0  0  0  0  0  0  0  0  0  0
   -2.0200   19.0220  -32.8930 C   0  0  0  0  0  0  0  0  0  0  0  0
   -3.2940   18.5670  -33.5010 C   0  0  0  0  0  0  0  0  0  0  0  0
   -3.2870   17.8500  -34.7090 C   0  0  0  0  0  0  0  0  0  0  0  0
   -2.3313   17.6168  -35.2012 H   0  0  0  0  0  0  0  0  0  0  0  0
   -4.4860   17.4320  -35.2880 C   0  0  0  0  0  0  0  0  0  0  0  0
   -4.4724   16.8788  -36.2387 H   0  0  0  0  0  0  0  0  0  0  0  0
   -5.7030   17.7140  -34.6640 C   0  0  0  0  0  0  0  0  0  0  0  0
   -6.6446   17.3914  -35.1323 H   0  0  0  0  0  0  0  0  0  0  0  0
   -5.7330   18.4070  -33.4420 C   0  0  0  0  0  0  0  0  0  0  0  0
   -7.0540   18.7220  -32.7610 C   0  0  0  0  0  0  0  0  0  0  0  0
   -7.8247   18.0613  -33.1848 H   0  0  0  0  0  0  0  0  0  0  0  0
   -6.8952   18.5640  -31.6840 H   0  0  0  0  0  0  0  0  0  0  0  0
   -7.5110   20.1280  -32.9180 N   0  0  0  0  0  0  0  0  0  0  0  0
   -7.3710   20.3440  -33.9350 H   0  0  0  0  0  0  0  0  0  0  0  0
   -8.9660   20.3130  -32.6570 C   0  0  0  0  0  0  0  0  0  0  0  0
   -9.3989   20.9095  -33.4735 H   0  0  0  0  0  0  0  0  0  0  0  0
   -9.4273   19.3161  -32.5999 H   0  0  0  0  0  0  0  0  0  0  0  0
   -9.2320   21.0310  -31.3260 C   0  0  0  0  0  0  0  0  0  0  0  0
  -10.3181   21.1395  -31.1897 H   0  0  0  0  0  0  0  0  0  0  0  0
   -8.7928   20.4294  -30.5166 H   0  0  0  0  0  0  0  0  0  0  0  0
   -8.6100   22.3680  -31.2970 N   0  0  0  0  0  0  0  0  0  0  0  0
   -8.4210   22.6130  -30.2970 H   0  0  0  0  0  0  0  0  0  0  0  0
   -7.3430   22.4560  -32.0530 C   0  0  0  0  0  0  0  0  0  0  0  0
   -7.5571   22.8419  -33.0606 H   0  0  0  0  0  0  0  0  0  0  0  0
   -6.6667   23.1277  -31.5040 H   0  0  0  0  0  0  0  0  0  0  0  0
   -6.6520   21.0910  -32.1820 C   0  0  0  0  0  0  0  0  0  0  0  0
   -5.7046   21.2172  -32.7265 H   0  0  0  0  0  0  0  0  0  0  0  0
   -6.4661   20.6951  -31.1727 H   0  0  0  0  0  0  0  0  0  0  0  0
   -4.5230   18.8580  -32.8850 C   0  0  0  0  0  0  0  0  0  0  0  0
   -4.5388   19.4459  -31.9554 H   0  0  0  0  0  0  0  0  0  0  0  0
   -2.0110   19.5340  -31.5810 C   0  0  0  0  0  0  0  0  0  0  0  0
   -2.9527   19.5952  -31.0158 H   0  0  0  0  0  0  0  0  0  0  0  0
   -0.5690   24.1520  -28.9870 C   0  0  0  0  0  0  0  0  0  0  0  0
    0.4972   24.1780  -28.7178 H   0  0  0  0  0  0  0  0  0  0  0  0
  1  2  1  0
  2  3  1  0
  3  4  1  0
  4  5  1  0
  5  6  1  0
  5  7  1  0
  5  8  1  0
  4  9  2  0
  9 10  1  0
  9 11  1  0
 11 12  2  0
 12 13  1  0
 13 14  2  0
 13 15  1  0
 15 16  2  0
 16 17  1  0
 16 18  1  0
 18 19  1  0
 18 20  2  0
 20 21  1  0
 20 22  1  0
 22 23  1  0
 23 24  2  0
 24 25  1  0
 24 26  1  0
 26 27  1  0
 26 28  2  0
 28 29  1  0
 28 30  1  0
 30 31  1  0
 31 32  1  0
 31 33  1  0
 31 34  1  0
 34 35  1  0
 34 36  1  0
 36 37  1  0
 36 38  1  0
 36 39  1  0
 39 40  1  0
 39 41  1  0
 39 42  1  0
 42 43  1  0
 42 44  1  0
 44 45  1  0
 44 46  1  0
 44 47  1  0
 47 48  1  0
 47 49  1  0
 30 50  2  0
 50 51  1  0
 22 52  2  0
 52 53  1  0
 11 54  1  0
 54 55  1  0
 54  2  2  0
 52 15  1  0
 50 23  1  0
 47 34  1  0
M  CHG  2   3  -1  34   1
M  END
>  <UniqueID>  (25) 
25

>  <SMILES>  (25) 
O=C(/N=c1/cc[n-]c(C(F)(F)F)c1)c1ccc(F)c(-c2cccc(C[NH+]3CCNCC3)c2)c1

>  <Energy>  (25) 
86.71620269143173

>  <Genealogy>  (25) 
O=C(N=c1cc[n-]c(C(F)(F)F)c1)c1ccc(F)c(-c2cccc(C[NH+]3CCNCC3)c2)c1 (protonated)
O=C(/N=c1/cc[n-]c(C(F)(F)F)c1)c1ccc(F)c(-c2cccc(C[NH+]3CCNCC3)c2)c1 (cis-trans isomerization)
O=C(/N=c1/cc[n-]c(C(F)(F)F)c1)c1ccc(F)c(-c2cccc(C[NH+]3CCNCC3)c2)c1 (3D coordinates assigned)
O=C(/N=c1/cc[n-]c(C(F)(F)F)c1)c1ccc(F)c(-c2cccc(C[NH+]3CCNCC3)c2)c1 (nonaromatic ring conformer: 86.71620269143173 kcal/mol)

>  <smiles>  (25) 
O=C(N=c1cc[nH]c(C(F)(F)F)c1)c1ccc(F)c(-c2cccc(CN3CCNCC3)c2)c1

>  <score_type>  (25) 
oracle

>  <origin>  (25) 
adgpu

>  <m_score__min__energy>  (25) 
-9.5999999999999996

>  <m_primary>  (25) 
energy

$$$$
25:0
     RDKit          3D

 35 37  0  0  0  0  0  0  0  0999 V2000
   -1.2200   26.8130  -27.7350 O   0  0  0  0  0  0  0  0  0  0  0  0
   -1.1790   25.6410  -28.1930 C   0  0  0  0  0  0  0  0  0  0  0  0
   -2.0120   25.3050  -29.3110 N   0  0  0  0  0  0  0  0  0  0  0  0
   -3.1280   24.4000  -29.2910 C   0  0  0  0  0  0  0  0  0  0  0  0
   -3.1660   23.3120  -28.4110 C   0  0  0  0  0  0  0  0  0  0  0  0
   -4.2720   22.4670  -28.4010 C   0  0  0  0  0  0  0  0  0  0  0  0
   -5.3410   22.7240  -29.2560 C   0  0  0  0  0  0  0  0  0  0  0  0
   -5.3230   23.8070  -30.0940 N   0  0  0  0  0  0  0  0  0  0  0  0
   -6.4660   24.0250  -30.9960 C   0  0  0  0  0  0  0  0  0  0  0  0
   -7.0590   22.7060  -31.4140 C   0  0  0  0  0  0  0  0  0  0  0  0
   -6.3920   21.8980  -32.3500 C   0  0  0  0  0  0  0  0  0  0  0  0
   -6.9570   20.6880  -32.7660 C   0  0  0  0  0  0  0  0  0  0  0  0
   -8.1930   20.2800  -32.2550 C   0  0  0  0  0  0  0  0  0  0  0  0
   -8.8650   21.0820  -31.3290 C   0  0  0  0  0  0  0  0  0  0  0  0
   -8.3040   22.2920  -30.9110 C   0  0  0  0  0  0  0  0  0  0  0  0
   -4.2340   24.6450  -30.1190 C   0  0  0  0  0  0  0  0  0  0  0  0
   -4.2130   25.6420  -30.8940 O   0  0  0  0  0  0  0  0  0  0  0  0
   -0.2270   24.6730  -27.6200 C   0  0  0  0  0  0  0  0  0  0  0  0
   -0.3980   23.9730  -26.4410 C   0  0  0  0  0  0  0  0  0  0  0  0
    0.7370   23.2030  -26.2970 C   0  0  0  0  0  0  0  0  0  0  0  0
    1.5310   23.4830  -27.3910 C   0  0  0  0  0  0  0  0  0  0  0  0
    0.9310   24.3630  -28.1590 O   0  0  0  0  0  0  0  0  0  0  0  0
   -2.3235   23.1252  -27.7288 H   0  0  0  0  0  0  0  0  0  0  0  0
   -4.3016   21.6019  -27.7223 H   0  0  0  0  0  0  0  0  0  0  0  0
   -6.2098   22.0493  -29.2582 H   0  0  0  0  0  0  0  0  0  0  0  0
   -7.2317   24.6185  -30.4750 H   0  0  0  0  0  0  0  0  0  0  0  0
   -6.1188   24.5616  -31.8913 H   0  0  0  0  0  0  0  0  0  0  0  0
   -5.4216   22.2182  -32.7573 H   0  0  0  0  0  0  0  0  0  0  0  0
   -6.4286   20.0569  -33.4957 H   0  0  0  0  0  0  0  0  0  0  0  0
   -8.6362   19.3278  -32.5820 H   0  0  0  0  0  0  0  0  0  0  0  0
   -9.8376   20.7604  -30.9281 H   0  0  0  0  0  0  0  0  0  0  0  0
   -8.8391   22.9225  -30.1856 H   0  0  0  0  0  0  0  0  0  0  0  0
   -1.2600   24.0201  -25.7592 H   0  0  0  0  0  0  0  0  0  0  0  0
    0.9638   22.5065  -25.4763 H   0  0  0  0  0  0  0  0  0  0  0  0
    2.5166   23.0367  -27.5893 H   0  0  0  0  0  0  0  0  0  0  0  0
  1  2  2  0
  2  3  1  0
  3  4  1  0
  4  5  2  0
  5  6  1  0
  6  7  2  0
  7  8  1  0
  8  9  1  0
  9 10  1  0
 10 11  2  0
 11 12  1  0
 12 13  2  0
 13 14  1  0
 14 15  2  0
  8 16  1  0
 16 17  2  0
  2 18  1  0
 18 19  2  0
 19 20  1  0
 20 21  2  0
 21 22  1  0
 16  4  1  0
 22 18  1  0
 15 10  1  0
  5 23  1  0
  6 24  1  0
  7 25  1  0
  9 26  1  0
  9 27  1  0
 11 28  1  0
 12 29  1  0
 13 30  1  0
 14 31  1  0
 15 32  1  0
 19 33  1  0
 20 34  1  0
 21 35  1  0
M  CHG  1   3  -1
M  END
>  <UniqueID>  (26) 
26

>  <SMILES>  (26) 
O=C([N-]c1cccn(Cc2ccccc2)c1=O)c1ccco1

>  <Energy>  (26) 
69.76670744358832

>  <Genealogy>  (26) 
O=C([N-]c1cccn(Cc2ccccc2)c1=O)c1ccco1 (protonated)
O=C([N-]c1cccn(Cc2ccccc2)c1=O)c1ccco1 (3D coordinates assigned)
O=C([N-]c1cccn(Cc2ccccc2)c1=O)c1ccco1 (optimized conformer: 69.76670744358832 kcal/mol)

>  <smiles>  (26) 
O=C(Nc1cccn(Cc2ccccc2)c1=O)c1ccco1

>  <score_type>  (26) 
oracle

>  <origin>  (26) 
adgpu

>  <m_score__min__energy>  (26) 
-10.109999999999999

>  <m_primary>  (26) 
energy

$$$$
26:0
     RDKit          3D

 48 51  0  0  0  0  0  0  0  0999 V2000
    1.1650   19.0820  -33.3970 O   0  0  0  0  0  0  0  0  0  0  0  0
    0.4050   19.5660  -34.2790 C   0  0  0  0  0  0  0  0  0  0  0  0
   -0.8550   18.9430  -34.5520 N   0  0  0  0  0  0  0  0  0  0  0  0
   -1.6490   18.2500  -33.5430 C   0  0  0  0  0  0  0  0  0  0  0  0
   -3.1000   18.2430  -33.9390 C   0  0  0  0  0  0  0  0  0  0  0  0
   -3.5580   17.3980  -34.9620 C   0  0  0  0  0  0  0  0  0  0  0  0
   -4.9120   17.3790  -35.3030 C   0  0  0  0  0  0  0  0  0  0  0  0
   -5.8190   18.2000  -34.6280 C   0  0  0  0  0  0  0  0  0  0  0  0
   -5.3780   19.0530  -33.6030 C   0  0  0  0  0  0  0  0  0  0  0  0
   -6.3380   19.9110  -32.8690 C   0  0  0  0  0  0  0  0  0  0  0  0
   -7.6680   19.4870  -32.7180 C   0  0  0  0  0  0  0  0  0  0  0  0
   -8.5940   20.2860  -32.0460 C   0  0  0  0  0  0  0  0  0  0  0  0
   -8.2030   21.5120  -31.5100 C   0  0  0  0  0  0  0  0  0  0  0  0
   -6.8750   21.9530  -31.6300 C   0  0  0  0  0  0  0  0  0  0  0  0
   -6.4810   23.2510  -31.0320 C   0  0  0  0  0  0  0  0  0  0  0  0
   -7.4480   24.0760  -30.4290 C   0  0  0  0  0  0  0  0  0  0  0  0
   -7.0770   25.2970  -29.8580 C   0  0  0  0  0  0  0  0  0  0  0  0
   -5.7410   25.7030  -29.8770 C   0  0  0  0  0  0  0  0  0  0  0  0
   -4.7700   24.8870  -30.4660 C   0  0  0  0  0  0  0  0  0  0  0  0
   -3.4400   25.2890  -30.4780 O   0  0  0  0  0  0  0  0  0  0  0  0
   -5.1370   23.6650  -31.0390 C   0  0  0  0  0  0  0  0  0  0  0  0
   -5.9410   21.1490  -32.3180 C   0  0  0  0  0  0  0  0  0  0  0  0
   -4.6230   21.5780  -32.4540 O   0  0  0  0  0  0  0  0  0  0  0  0
   -4.0140   19.0640  -33.2600 C   0  0  0  0  0  0  0  0  0  0  0  0
    0.8150   20.7770  -35.0300 C   0  0  0  0  0  0  0  0  0  0  0  0
    0.0200   21.9370  -35.0070 C   0  0  0  0  0  0  0  0  0  0  0  0
    0.4110   23.0790  -35.7140 C   0  0  0  0  0  0  0  0  0  0  0  0
    1.6000   23.0770  -36.4490 C   0  0  0  0  0  0  0  0  0  0  0  0
    1.9840   24.2160  -37.1470 O   0  0  0  0  0  0  0  0  0  0  0  0
    2.4000   21.9290  -36.4790 C   0  0  0  0  0  0  0  0  0  0  0  0
    3.5840   21.9220  -37.2090 O   0  0  0  0  0  0  0  0  0  0  0  0
    2.0110   20.7850  -35.7740 C   0  0  0  0  0  0  0  0  0  0  0  0
   -1.2929   17.2135  -33.4492 H   0  0  0  0  0  0  0  0  0  0  0  0
   -1.5419   18.7723  -32.5808 H   0  0  0  0  0  0  0  0  0  0  0  0
   -2.8485   16.7491  -35.4964 H   0  0  0  0  0  0  0  0  0  0  0  0
   -5.2658   16.7154  -36.1058 H   0  0  0  0  0  0  0  0  0  0  0  0
   -6.8844   18.1782  -34.9009 H   0  0  0  0  0  0  0  0  0  0  0  0
   -7.9824   18.5178  -33.1325 H   0  0  0  0  0  0  0  0  0  0  0  0
   -9.6351   19.9475  -31.9390 H   0  0  0  0  0  0  0  0  0  0  0  0
   -8.9409   22.1394  -30.9886 H   0  0  0  0  0  0  0  0  0  0  0  0
   -8.5010   23.7588  -30.4067 H   0  0  0  0  0  0  0  0  0  0  0  0
   -7.8392   25.9393  -29.3927 H   0  0  0  0  0  0  0  0  0  0  0  0
   -5.4523   26.6650  -29.4285 H   0  0  0  0  0  0  0  0  0  0  0  0
   -4.3698   23.0240  -31.4978 H   0  0  0  0  0  0  0  0  0  0  0  0
   -3.6603   19.7218  -32.4524 H   0  0  0  0  0  0  0  0  0  0  0  0
   -0.9158   21.9463  -34.4290 H   0  0  0  0  0  0  0  0  0  0  0  0
   -0.2187   23.9807  -35.6915 H   0  0  0  0  0  0  0  0  0  0  0  0
    2.6435   19.8855  -35.8009 H   0  0  0  0  0  0  0  0  0  0  0  0
  1  2  2  0
  2  3  1  0
  3  4  1  0
  4  5  1  0
  5  6  2  0
  6  7  1  0
  7  8  2  0
  8  9  1  0
  9 10  1  0
 10 11  2  0
 11 12  1  0
 12 13  2  0
 13 14  1  0
 14 15  1  0
 15 16  2  0
 16 17  1  0
 17 18  2  0
 18 19  1  0
 19 20  1  0
 19 21  2  0
 14 22  2  0
 22 23  1  0
  9 24  2  0
  2 25  1  0
 25 26  2  0
 26 27  1  0
 27 28  2  0
 28 29  1  0
 28 30  1  0
 30 31  1  0
 30 32  2  0
 24  5  1  0
 32 25  1  0
 22 10  1  0
 21 15  1  0
  4 33  1  0
  4 34  1  0
  6 35  1  0
  7 36  1  0
  8 37  1  0
 11 38  1  0
 12 39  1  0
 13 40  1  0
 16 41  1  0
 17 42  1  0
 18 43  1  0
 21 44  1  0
 24 45  1  0
 26 46  1  0
 27 47  1  0
 32 48  1  0
M  CHG  5   3  -1  20  -1  23  -1  29  -1  31  -1
M  END
>  <UniqueID>  (27) 
27

>  <SMILES>  (27) 
O=C([N-]Cc1cccc(-c2cccc(-c3cccc([O-])c3)c2[O-])c1)c1ccc([O-])c([O-])c1

>  <Energy>  (27) 
65.39293611137137

>  <Genealogy>  (27) 
O=C([N-]Cc1cccc(-c2cccc(-c3cccc([O-])c3)c2[O-])c1)c1ccc([O-])c([O-])c1 (protonated)
O=C([N-]Cc1cccc(-c2cccc(-c3cccc([O-])c3)c2[O-])c1)c1ccc([O-])c([O-])c1 (3D coordinates assigned)
O=C([N-]Cc1cccc(-c2cccc(-c3cccc([O-])c3)c2[O-])c1)c1ccc([O-])c([O-])c1 (optimized conformer: 65.39293611137137 kcal/mol)

>  <smiles>  (27) 
O=C(NCc1cccc(-c2cccc(-c3cccc(O)c3)c2O)c1)c1ccc(O)c(O)c1

>  <score_type>  (27) 
oracle

>  <origin>  (27) 
adgpu

>  <m_score__min__energy>  (27) 
-15.77

>  <m_primary>  (27) 
energy

$$$$
27:0
     RDKit          3D

 61 65  0  0  0  0  0  0  0  0999 V2000
   -0.1670   25.8660  -28.0720 O   0  0  0  0  0  0  0  0  0  0  0  0
   -0.7460   24.9740  -28.7450 C   0  0  0  0  0  0  0  0  0  0  0  0
   -0.0340   23.6670  -28.9760 C   0  0  0  0  0  0  0  0  0  0  0  0
   -1.0270   22.2330  -28.4270 S   0  0  0  0  0  0  0  0  0  0  0  0
   -1.1730   21.5180  -30.0620 C   0  0  0  0  0  0  0  0  0  0  0  0
   -0.2740   21.7440  -31.0400 N   0  0  0  0  0  0  0  0  0  0  0  0
   -0.7410   21.0300  -32.0810 C   0  0  0  0  0  0  0  0  0  0  0  0
   -0.0110   20.9230  -33.3630 C   0  0  0  0  0  0  0  0  0  0  0  0
   -0.4890   21.5510  -34.5270 C   0  0  0  0  0  0  0  0  0  0  0  0
    0.2000   21.4140  -35.7360 C   0  0  0  0  0  0  0  0  0  0  0  0
    1.3580   20.6340  -35.7990 C   0  0  0  0  0  0  0  0  0  0  0  0
    1.8290   19.9900  -34.6510 C   0  0  0  0  0  0  0  0  0  0  0  0
    1.1450   20.1270  -33.4400 C   0  0  0  0  0  0  0  0  0  0  0  0
   -1.9180   20.3980  -31.7020 C   0  0  0  0  0  0  0  0  0  0  0  0
   -2.8290   19.5830  -32.5330 C   0  0  0  0  0  0  0  0  0  0  0  0
   -2.3210   18.8790  -33.6370 C   0  0  0  0  0  0  0  0  0  0  0  0
   -3.1660   18.0800  -34.4150 C   0  0  0  0  0  0  0  0  0  0  0  0
   -4.5200   17.9680  -34.0890 C   0  0  0  0  0  0  0  0  0  0  0  0
   -5.0300   18.6500  -32.9820 C   0  0  0  0  0  0  0  0  0  0  0  0
   -4.1900   19.4520  -32.2020 C   0  0  0  0  0  0  0  0  0  0  0  0
   -2.1880   20.7060  -30.4200 N   0  0  0  0  0  0  0  0  0  0  0  0
   -2.0240   25.2750  -29.3230 N   0  0  0  0  0  0  0  0  0  0  0  0
   -3.1820   24.4310  -29.3630 C   0  0  0  0  0  0  0  0  0  0  0  0
   -3.6420   23.8640  -28.1680 C   0  0  0  0  0  0  0  0  0  0  0  0
   -4.7360   22.9960  -28.1750 C   0  0  0  0  0  0  0  0  0  0  0  0
   -5.3730   22.6810  -29.3760 C   0  0  0  0  0  0  0  0  0  0  0  0
   -4.9130   23.2300  -30.5820 C   0  0  0  0  0  0  0  0  0  0  0  0
   -5.7230   22.8360  -32.0960 S   0  0  0  0  0  0  0  0  0  0  0  0
   -4.7250   22.2520  -33.0590 O   0  0  0  0  0  0  0  0  0  0  0  0
   -6.2690   24.1040  -32.6950 O   0  0  0  0  0  0  0  0  0  0  0  0
   -7.0270   21.7100  -31.8050 N   0  0  0  0  0  0  0  0  0  0  0  0
   -7.1880   20.8090  -32.9580 C   0  0  0  0  0  0  0  0  0  0  0  0
   -8.4150   19.8900  -32.7690 C   0  0  0  0  0  0  0  0  0  0  0  0
   -9.0770   20.1410  -31.5440 O   0  0  0  0  0  0  0  0  0  0  0  0
   -9.4860   21.4950  -31.4970 C   0  0  0  0  0  0  0  0  0  0  0  0
   -8.2750   22.4530  -31.5550 C   0  0  0  0  0  0  0  0  0  0  0  0
   -3.8070   24.0910  -30.5730 C   0  0  0  0  0  0  0  0  0  0  0  0
    0.1749   23.5625  -30.0509 H   0  0  0  0  0  0  0  0  0  0  0  0
    0.8950   23.6798  -28.3870 H   0  0  0  0  0  0  0  0  0  0  0  0
   -1.4090   22.1526  -34.4862 H   0  0  0  0  0  0  0  0  0  0  0  0
   -0.1701   21.9211  -36.6393 H   0  0  0  0  0  0  0  0  0  0  0  0
    1.8984   20.5269  -36.7511 H   0  0  0  0  0  0  0  0  0  0  0  0
    2.7393   19.3745  -34.7010 H   0  0  0  0  0  0  0  0  0  0  0  0
    1.5133   19.6091  -32.5422 H   0  0  0  0  0  0  0  0  0  0  0  0
   -1.2536   18.9561  -33.8913 H   0  0  0  0  0  0  0  0  0  0  0  0
   -2.7638   17.5393  -35.2844 H   0  0  0  0  0  0  0  0  0  0  0  0
   -5.1841   17.3429  -34.7040 H   0  0  0  0  0  0  0  0  0  0  0  0
   -6.0949   18.5563  -32.7228 H   0  0  0  0  0  0  0  0  0  0  0  0
   -4.5950   19.9818  -31.3272 H   0  0  0  0  0  0  0  0  0  0  0  0
   -3.1393   24.1034  -27.2194 H   0  0  0  0  0  0  0  0  0  0  0  0
   -5.0964   22.5596  -27.2317 H   0  0  0  0  0  0  0  0  0  0  0  0
   -6.2375   22.0009  -29.3769 H   0  0  0  0  0  0  0  0  0  0  0  0
   -7.3246   21.4101  -33.8691 H   0  0  0  0  0  0  0  0  0  0  0  0
   -6.2881   20.1823  -33.0440 H   0  0  0  0  0  0  0  0  0  0  0  0
   -9.1195   20.0624  -33.5960 H   0  0  0  0  0  0  0  0  0  0  0  0
   -8.0629   18.8479  -32.7596 H   0  0  0  0  0  0  0  0  0  0  0  0
  -10.1453   21.6995  -32.3535 H   0  0  0  0  0  0  0  0  0  0  0  0
  -10.0152   21.6636  -30.5475 H   0  0  0  0  0  0  0  0  0  0  0  0
   -8.4297   23.1801  -32.3658 H   0  0  0  0  0  0  0  0  0  0  0  0
   -8.1887   22.9687  -30.5872 H   0  0  0  0  0  0  0  0  0  0  0  0
   -3.4266   24.5026  -31.5195 H   0  0  0  0  0  0  0  0  0  0  0  0
  1  2  2  0
  2  3  1  0
  3  4  1  0
  4  5  1  0
  5  6  2  0
  6  7  1  0
  7  8  1  0
  8  9  2  0
  9 10  1  0
 10 11  2  0
 11 12  1  0
 12 13  2  0
  7 14  2  0
 14 15  1  0
 15 16  2  0
 16 17  1  0
 17 18  2  0
 18 19  1  0
 19 20  2  0
 14 21  1  0
  2 22  1  0
 22 23  1  0
 23 24  2  0
 24 25  1  0
 25 26  2  0
 26 27  1  0
 27 28  1  0
 28 29  2  0
 28 30  2  0
 28 31  1  0
 31 32  1  0
 32 33  1  0
 33 34  1  0
 34 35  1  0
 35 36  1  0
 27 37  2  0
 21  5  1  0
 37 23  1  0
 13  8  1  0
 20 15  1  0
 36 31  1  0
  3 38  1  0
  3 39  1  0
  9 40  1  0
 10 41  1  0
 11 42  1  0
 12 43  1  0
 13 44  1  0
 16 45  1  0
 17 46  1  0
 18 47  1  0
 19 48  1  0
 20 49  1  0
 24 50  1  0
 25 51  1  0
 26 52  1  0
 32 53  1  0
 32 54  1  0
 33 55  1  0
 33 56  1  0
 35 57  1  0
 35 58  1  0
 36 59  1  0
 36 60  1  0
 37 61  1  0
M  CHG  2  21  -1  22  -1
M  END
>  <UniqueID>  (28) 
28

>  <SMILES>  (28) 
O=C(CSc1nc(-c2ccccc2)c(-c2ccccc2)[n-]1)[N-]c1cccc(S(=O)(=O)N2CCOCC2)c1

>  <Energy>  (28) 
110.42297163718025

>  <Genealogy>  (28) 
O=C(CSc1nc(-c2ccccc2)c(-c2ccccc2)[n-]1)[N-]c1cccc(S(=O)(=O)N2CCOCC2)c1 (protonated)
O=C(CSc1nc(-c2ccccc2)c(-c2ccccc2)[n-]1)[N-]c1cccc(S(=O)(=O)N2CCOCC2)c1 (3D coordinates assigned)
O=C(CSc1nc(-c2ccccc2)c(-c2ccccc2)[n-]1)[N-]c1cccc(S(=O)(=O)N2CCOCC2)c1 (nonaromatic ring conformer: 110.42297163718025 kcal/mol)

>  <smiles>  (28) 
O=C(CSc1nc(-c2ccccc2)c(-c2ccccc2)[nH]1)Nc1cccc(S(=O)(=O)N2CCOCC2)c1

>  <score_type>  (28) 
oracle

>  <origin>  (28) 
adgpu

>  <m_score__min__energy>  (28) 
-12.18

>  <m_primary>  (28) 
energy

$$$$
28:0
     RDKit          3D

 42 44  0  0  0  0  0  0  0  0999 V2000
   -9.5150   20.9080  -32.0010 C   0  0  0  0  0  0  0  0  0  0  0  0
   -7.8690   20.2500  -32.1350 S   0  0  0  0  0  0  0  0  0  0  0  0
   -7.6140   19.8120  -33.5490 O   0  0  0  0  0  0  0  0  0  0  0  0
   -7.7290   19.0590  -31.2290 O   0  0  0  0  0  0  0  0  0  0  0  0
   -6.7060   21.4890  -31.6750 C   0  0  0  0  0  0  0  0  0  0  0  0
   -5.3550   21.3430  -32.0040 C   0  0  0  0  0  0  0  0  0  0  0  0
   -4.4300   22.3170  -31.6240 C   0  0  0  0  0  0  0  0  0  0  0  0
   -4.8350   23.4550  -30.9020 C   0  0  0  0  0  0  0  0  0  0  0  0
   -3.8010   24.4380  -30.4940 C   0  0  0  0  0  0  0  0  0  0  0  0
   -4.0720   25.6700  -30.5020 O   0  0  0  0  0  0  0  0  0  0  0  0
   -2.4890   24.0060  -30.1180 N   0  0  0  0  0  0  0  0  0  0  0  0
   -2.2140   22.9040  -29.2460 C   0  0  0  0  0  0  0  0  0  0  0  0
   -1.3060   21.9260  -29.6720 C   0  0  0  0  0  0  0  0  0  0  0  0
   -0.9890   20.8450  -28.8460 C   0  0  0  0  0  0  0  0  0  0  0  0
   -1.5650   20.7420  -27.5790 C   0  0  0  0  0  0  0  0  0  0  0  0
   -2.4450   21.7280  -27.1280 C   0  0  0  0  0  0  0  0  0  0  0  0
   -2.7670   22.8190  -27.9460 C   0  0  0  0  0  0  0  0  0  0  0  0
   -3.8210   24.1110  -27.2680 S   0  0  0  0  0  0  0  0  0  0  0  0
   -2.4340   25.1530  -26.8190 C   0  0  0  0  0  0  0  0  0  0  0  0
   -2.2690   25.5710  -25.4920 C   0  0  0  0  0  0  0  0  0  0  0  0
   -1.1840   26.3810  -25.1420 C   0  0  0  0  0  0  0  0  0  0  0  0
   -0.2650   26.7800  -26.1180 C   0  0  0  0  0  0  0  0  0  0  0  0
   -0.4330   26.3720  -27.4460 C   0  0  0  0  0  0  0  0  0  0  0  0
   -1.5170   25.5610  -27.7970 C   0  0  0  0  0  0  0  0  0  0  0  0
   -6.2050   23.6020  -30.5750 C   0  0  0  0  0  0  0  0  0  0  0  0
   -6.8480   25.0180  -29.7460 Cl  0  0  0  0  0  0  0  0  0  0  0  0
   -7.1240   22.6160  -30.9590 C   0  0  0  0  0  0  0  0  0  0  0  0
   -9.7819   21.0147  -30.9392 H   0  0  0  0  0  0  0  0  0  0  0  0
   -9.5574   21.8922  -32.4904 H   0  0  0  0  0  0  0  0  0  0  0  0
  -10.2242   20.2243  -32.4904 H   0  0  0  0  0  0  0  0  0  0  0  0
   -5.0198   20.4576  -32.5642 H   0  0  0  0  0  0  0  0  0  0  0  0
   -3.3705   22.1933  -31.8925 H   0  0  0  0  0  0  0  0  0  0  0  0
   -0.8391   22.0099  -30.6645 H   0  0  0  0  0  0  0  0  0  0  0  0
   -0.2852   20.0747  -29.1943 H   0  0  0  0  0  0  0  0  0  0  0  0
   -1.3255   19.8831  -26.9349 H   0  0  0  0  0  0  0  0  0  0  0  0
   -2.8881   21.6477  -26.1244 H   0  0  0  0  0  0  0  0  0  0  0  0
   -2.9937   25.2617  -24.7245 H   0  0  0  0  0  0  0  0  0  0  0  0
   -1.0533   26.7044  -24.0988 H   0  0  0  0  0  0  0  0  0  0  0  0
    0.5899   27.4146  -25.8416 H   0  0  0  0  0  0  0  0  0  0  0  0
    0.2877   26.6892  -28.2140 H   0  0  0  0  0  0  0  0  0  0  0  0
   -1.6499   25.2431  -28.8416 H   0  0  0  0  0  0  0  0  0  0  0  0
   -8.1857   22.7294  -30.6945 H   0  0  0  0  0  0  0  0  0  0  0  0
  1  2  1  0
  2  3  2  0
  2  4  2  0
  2  5  1  0
  5  6  2  0
  6  7  1  0
  7  8  2  0
  8  9  1  0
  9 10  2  0
  9 11  1  0
 11 12  1  0
 12 13  2  0
 13 14  1  0
 14 15  2  0
 15 16  1  0
 16 17  2  0
 17 18  1  0
 18 19  1  0
 19 20  2  0
 20 21  1  0
 21 22  2  0
 22 23  1  0
 23 24  2  0
  8 25  1  0
 25 26  1  0
 25 27  2  0
 27  5  1  0
 17 12  1  0
 24 19  1  0
  1 28  1  0
  1 29  1  0
  1 30  1  0
  6 31  1  0
  7 32  1  0
 13 33  1  0
 14 34  1  0
 15 35  1  0
 16 36  1  0
 20 37  1  0
 21 38  1  0
 22 39  1  0
 23 40  1  0
 24 41  1  0
 27 42  1  0
M  CHG  1  11  -1
M  END
>  <UniqueID>  (29) 
29

>  <SMILES>  (29) 
CS(=O)(=O)c1ccc(C(=O)[N-]c2ccccc2Sc2ccccc2)c(Cl)c1

>  <Energy>  (29) 
48.133258545303946

>  <Genealogy>  (29) 
CS(=O)(=O)c1ccc(C(=O)[N-]c2ccccc2Sc2ccccc2)c(Cl)c1 (protonated)
CS(=O)(=O)c1ccc(C(=O)[N-]c2ccccc2Sc2ccccc2)c(Cl)c1 (3D coordinates assigned)
CS(=O)(=O)c1ccc(C(=O)[N-]c2ccccc2Sc2ccccc2)c(Cl)c1 (optimized conformer: 48.133258545303946 kcal/mol)

>  <smiles>  (29) 
CS(=O)(=O)c1ccc(C(=O)Nc2ccccc2Sc2ccccc2)c(Cl)c1

>  <score_type>  (29) 
oracle

>  <origin>  (29) 
adgpu

>  <m_score__min__energy>  (29) 
-10.869999999999999

>  <m_primary>  (29) 
energy

$$$$
29:0
     RDKit          3D

 38 40  0  0  0  0  0  0  0  0999 V2000
   -2.3089   23.3716  -30.7791 H   0  0  0  0  0  0  0  0  0  0  0  0
   -2.3810   22.6180  -29.9810 C   0  0  0  0  0  0  0  0  0  0  0  0
   -3.3530   22.7570  -28.9820 C   0  0  0  0  0  0  0  0  0  0  0  0
   -4.2440   23.8800  -29.0380 N   0  0  0  0  0  0  0  0  0  0  0  0
   -4.6770   24.5560  -30.2230 C   0  0  0  0  0  0  0  0  0  0  0  0
   -3.8640   25.2990  -30.8350 O   0  0  0  0  0  0  0  0  0  0  0  0
   -6.0000   24.3550  -30.7400 N   0  0  0  0  0  0  0  0  0  0  0  0
   -6.5060   23.3420  -31.3930 C   0  0  0  0  0  0  0  0  0  0  0  0
   -7.9050   23.2690  -31.4350 C   0  0  0  0  0  0  0  0  0  0  0  0
   -8.5071   24.1217  -31.0882 H   0  0  0  0  0  0  0  0  0  0  0  0
   -8.5370   22.1260  -31.9120 C   0  0  0  0  0  0  0  0  0  0  0  0
   -9.6356   22.0715  -31.9171 H   0  0  0  0  0  0  0  0  0  0  0  0
   -7.8090   21.0780  -32.3710 N   0  0  0  0  0  0  0  0  0  0  0  0
   -8.3200   20.2280  -32.7020 H   0  0  0  0  0  0  0  0  0  0  0  0
   -6.4490   21.1380  -32.4570 C   0  0  0  0  0  0  0  0  0  0  0  0
   -5.7430   20.0660  -33.0280 C   0  0  0  0  0  0  0  0  0  0  0  0
   -6.2780   19.1469  -33.3093 H   0  0  0  0  0  0  0  0  0  0  0  0
   -4.3700   20.1600  -33.2400 C   0  0  0  0  0  0  0  0  0  0  0  0
   -3.8190   19.3065  -33.6618 H   0  0  0  0  0  0  0  0  0  0  0  0
   -3.6940   21.3350  -32.9180 C   0  0  0  0  0  0  0  0  0  0  0  0
   -2.6164   21.4202  -33.1219 H   0  0  0  0  0  0  0  0  0  0  0  0
   -4.3790   22.4060  -32.3370 C   0  0  0  0  0  0  0  0  0  0  0  0
   -3.8430   23.3431  -32.1261 H   0  0  0  0  0  0  0  0  0  0  0  0
   -5.7520   22.3000  -32.0170 C   0  0  0  0  0  0  0  0  0  0  0  0
   -3.4750   21.7600  -27.9970 C   0  0  0  0  0  0  0  0  0  0  0  0
   -4.2643   21.8388  -27.2349 H   0  0  0  0  0  0  0  0  0  0  0  0
   -2.5970   20.6660  -27.9800 C   0  0  0  0  0  0  0  0  0  0  0  0
   -2.7580   19.5870  -26.9500 C   0  0  0  0  0  0  0  0  0  0  0  0
   -2.6923   20.0275  -25.9442 H   0  0  0  0  0  0  0  0  0  0  0  0
   -3.7382   19.1038  -27.0753 H   0  0  0  0  0  0  0  0  0  0  0  0
   -1.9616   18.8387  -27.0753 H   0  0  0  0  0  0  0  0  0  0  0  0
   -1.6220   20.5460  -28.9800 C   0  0  0  0  0  0  0  0  0  0  0  0
   -0.9489   19.6760  -28.9852 H   0  0  0  0  0  0  0  0  0  0  0  0
   -1.4990   21.5280  -29.9740 C   0  0  0  0  0  0  0  0  0  0  0  0
   -0.4840   21.3720  -31.0680 C   0  0  0  0  0  0  0  0  0  0  0  0
    0.5114   21.2190  -30.6256 H   0  0  0  0  0  0  0  0  0  0  0  0
   -0.7461   20.5036  -31.6902 H   0  0  0  0  0  0  0  0  0  0  0  0
   -0.4732   22.2790  -31.6902 H   0  0  0  0  0  0  0  0  0  0  0  0
  1  2  1  0
  2  3  2  0
  3  4  1  0
  4  5  1  0
  5  6  2  0
  5  7  1  0
  7  8  2  0
  8  9  1  0
  9 10  1  0
  9 11  2  0
 11 12  1  0
 11 13  1  0
 13 14  1  0
 13 15  1  0
 15 16  2  0
 16 17  1  0
 16 18  1  0
 18 19  1  0
 18 20  2  0
 20 21  1  0
 20 22  1  0
 22 23  1  0
 22 24  2  0
  3 25  1  0
 25 26  1  0
 25 27  2  0
 27 28  1  0
 28 29  1  0
 28 30  1  0
 28 31  1  0
 27 32  1  0
 32 33  1  0
 32 34  2  0
 34 35  1  0
 35 36  1  0
 35 37  1  0
 35 38  1  0
 34  2  1  0
 24  8  1  0
 24 15  1  0
M  CHG  1   4  -1
M  END
>  <UniqueID>  (30) 
30

>  <SMILES>  (30) 
Cc1cc(C)cc([N-]C(=O)/N=c2/cc[nH]c3ccccc23)c1

>  <Energy>  (30) 
64.94619576883981

>  <Genealogy>  (30) 
Cc1cc(C)cc([N-]C(=O)N=c2cc[nH]c3ccccc23)c1 (protonated)
Cc1cc(C)cc([N-]C(=O)/N=c2/cc[nH]c3ccccc23)c1 (cis-trans isomerization)
Cc1cc(C)cc([N-]C(=O)/N=c2/cc[nH]c3ccccc23)c1 (3D coordinates assigned)
Cc1cc(C)cc([N-]C(=O)/N=c2/cc[nH]c3ccccc23)c1 (optimized conformer: 64.94619576883981 kcal/mol)

>  <smiles>  (30) 
Cc1cc(C)cc(NC(=O)N=c2cc[nH]c3ccccc23)c1

>  <score_type>  (30) 
oracle

>  <origin>  (30) 
adgpu

>  <m_score__min__energy>  (30) 
-8.6099999999999994

>  <m_primary>  (30) 
energy

$$$$
30:0
     RDKit          3D

 41 43  0  0  0  0  0  0  0  0999 V2000
   -8.9650   18.3410  -31.5720 C   0  0  0  0  0  0  0  0  0  0  0  0
   -8.6750   19.5250  -32.5020 C   0  0  0  0  0  0  0  0  0  0  0  0
   -9.3210   20.8130  -31.9760 C   0  0  0  0  0  0  0  0  0  0  0  0
   -7.1820   19.7030  -32.7070 C   0  0  0  0  0  0  0  0  0  0  0  0
   -6.4890   18.9550  -33.6780 C   0  0  0  0  0  0  0  0  0  0  0  0
   -5.1160   19.1340  -33.8590 C   0  0  0  0  0  0  0  0  0  0  0  0
   -4.4210   20.0650  -33.0860 C   0  0  0  0  0  0  0  0  0  0  0  0
   -5.0980   20.8380  -32.1280 C   0  0  0  0  0  0  0  0  0  0  0  0
   -4.4080   21.8190  -31.3350 N   0  0  0  0  0  0  0  0  0  0  0  0
   -4.9170   23.1350  -31.0760 C   0  0  0  0  0  0  0  0  0  0  0  0
   -6.4230   23.6750  -31.5860 S   0  0  0  0  0  0  0  0  0  0  0  0
   -6.2550   25.1680  -30.8280 C   0  0  0  0  0  0  0  0  0  0  0  0
   -5.0620   25.2730  -30.2020 N   0  0  0  0  0  0  0  0  0  0  0  0
   -4.3010   24.1530  -30.3420 C   0  0  0  0  0  0  0  0  0  0  0  0
   -2.9330   24.0940  -29.8000 C   0  0  0  0  0  0  0  0  0  0  0  0
   -2.2950   23.0070  -29.8120 O   0  0  0  0  0  0  0  0  0  0  0  0
   -2.3110   25.2930  -29.3250 N   0  0  0  0  0  0  0  0  0  0  0  0
   -1.1300   25.3570  -28.5140 C   0  0  0  0  0  0  0  0  0  0  0  0
   -0.8760   26.4320  -27.6450 C   0  0  0  0  0  0  0  0  0  0  0  0
    0.3030   26.4600  -26.8980 C   0  0  0  0  0  0  0  0  0  0  0  0
    1.2260   25.4230  -27.0360 C   0  0  0  0  0  0  0  0  0  0  0  0
    0.9770   24.4010  -27.8980 N   0  0  0  0  0  0  0  0  0  0  0  0
   -0.1640   24.3510  -28.6360 C   0  0  0  0  0  0  0  0  0  0  0  0
   -6.4730   20.6370  -31.9300 C   0  0  0  0  0  0  0  0  0  0  0  0
   -8.8847   18.6688  -30.5251 H   0  0  0  0  0  0  0  0  0  0  0  0
   -9.9815   17.9660  -31.7619 H   0  0  0  0  0  0  0  0  0  0  0  0
   -8.2368   17.5387  -31.7619 H   0  0  0  0  0  0  0  0  0  0  0  0
   -9.1242   19.3028  -33.4812 H   0  0  0  0  0  0  0  0  0  0  0  0
   -9.3160   20.8030  -30.8761 H   0  0  0  0  0  0  0  0  0  0  0  0
   -8.7523   21.6825  -32.3374 H   0  0  0  0  0  0  0  0  0  0  0  0
  -10.3580   20.8772  -32.3374 H   0  0  0  0  0  0  0  0  0  0  0  0
   -7.0320   18.2258  -34.2972 H   0  0  0  0  0  0  0  0  0  0  0  0
   -4.5804   18.5391  -34.6135 H   0  0  0  0  0  0  0  0  0  0  0  0
   -3.3378   20.1942  -33.2275 H   0  0  0  0  0  0  0  0  0  0  0  0
   -3.4430   21.5990  -31.0010 H   0  0  0  0  0  0  0  0  0  0  0  0
   -7.0197   25.9586  -30.8405 H   0  0  0  0  0  0  0  0  0  0  0  0
   -1.6054   27.2503  -27.5536 H   0  0  0  0  0  0  0  0  0  0  0  0
    0.5024   27.2922  -26.2068 H   0  0  0  0  0  0  0  0  0  0  0  0
    2.1553   25.4320  -26.4475 H   0  0  0  0  0  0  0  0  0  0  0  0
   -0.3289   23.5157  -29.3325 H   0  0  0  0  0  0  0  0  0  0  0  0
   -7.0019   21.2162  -31.1588 H   0  0  0  0  0  0  0  0  0  0  0  0
  1  2  1  0
  2  3  1  0
  2  4  1  0
  4  5  2  0
  5  6  1  0
  6  7  2  0
  7  8  1  0
  8  9  1  0
  9 10  1  0
 10 11  1  0
 11 12  1  0
 12 13  2  0
 13 14  1  0
 14 15  1  0
 15 16  2  0
 15 17  1  0
 17 18  1  0
 18 19  2  0
 19 20  1  0
 20 21  2  0
 21 22  1  0
 22 23  2  0
  8 24  2  0
 24  4  1  0
 14 10  2  0
 23 18  1  0
  1 25  1  0
  1 26  1  0
  1 27  1  0
  2 28  1  0
  3 29  1  0
  3 30  1  0
  3 31  1  0
  5 32  1  0
  6 33  1  0
  7 34  1  0
  9 35  1  0
 12 36  1  0
 19 37  1  0
 20 38  1  0
 21 39  1  0
 23 40  1  0
 24 41  1  0
M  CHG  1  17  -1
M  END
>  <UniqueID>  (31) 
31

>  <SMILES>  (31) 
CC(C)c1cccc(Nc2scnc2C(=O)[N-]c2cccnc2)c1

>  <Energy>  (31) 
80.15099635537112

>  <Genealogy>  (31) 
CC(C)c1cccc(Nc2scnc2C(=O)[N-]c2cccnc2)c1 (protonated)
CC(C)c1cccc(Nc2scnc2C(=O)[N-]c2cccnc2)c1 (3D coordinates assigned)
CC(C)c1cccc(Nc2scnc2C(=O)[N-]c2cccnc2)c1 (optimized conformer: 80.15099635537112 kcal/mol)

>  <smiles>  (31) 
CC(C)c1cccc(Nc2scnc2C(=O)Nc2cccnc2)c1

>  <score_type>  (31) 
oracle

>  <origin>  (31) 
adgpu

>  <m_score__min__energy>  (31) 
-10.199999999999999

>  <m_primary>  (31) 
energy

$$$$
31:0
     RDKit          3D

 55 58  0  0  0  0  0  0  0  0999 V2000
   -7.3544   21.3552  -32.0327 H   0  0  0  0  0  0  0  0  0  0  0  0
   -6.4190   20.9460  -32.4420 C   0  0  0  0  0  0  0  0  0  0  0  0
   -5.2340   21.6790  -32.3440 C   0  0  0  0  0  0  0  0  0  0  0  0
   -5.2363   22.6642  -31.8547 H   0  0  0  0  0  0  0  0  0  0  0  0
   -4.0450   21.1620  -32.8670 C   0  0  0  0  0  0  0  0  0  0  0  0
   -3.1137   21.7421  -32.7888 H   0  0  0  0  0  0  0  0  0  0  0  0
   -4.0360   19.9040  -33.4920 C   0  0  0  0  0  0  0  0  0  0  0  0
   -2.7480   19.3450  -34.0310 C   0  0  0  0  0  0  0  0  0  0  0  0
   -2.8608   19.1427  -35.1063 H   0  0  0  0  0  0  0  0  0  0  0  0
   -2.5088   18.4128  -33.4983 H   0  0  0  0  0  0  0  0  0  0  0  0
   -1.6880   20.2810  -33.8350 O   0  0  0  0  0  0  0  0  0  0  0  0
   -0.3160   20.0060  -33.9660 C   0  0  0  0  0  0  0  0  0  0  0  0
    0.4640   20.6530  -34.9450 C   0  0  0  0  0  0  0  0  0  0  0  0
   -0.0089   21.3684  -35.6339 H   0  0  0  0  0  0  0  0  0  0  0  0
    1.8310   20.3940  -35.0480 C   0  0  0  0  0  0  0  0  0  0  0  0
    2.4304   20.9060  -35.8152 H   0  0  0  0  0  0  0  0  0  0  0  0
    2.4380   19.4890  -34.1820 C   0  0  0  0  0  0  0  0  0  0  0  0
    3.5173   19.2922  -34.2618 H   0  0  0  0  0  0  0  0  0  0  0  0
    1.6800   18.8310  -33.2130 C   0  0  0  0  0  0  0  0  0  0  0  0
    2.1682   18.1149  -32.5356 H   0  0  0  0  0  0  0  0  0  0  0  0
    0.2970   19.0720  -33.0910 C   0  0  0  0  0  0  0  0  0  0  0  0
   -0.4890   18.2900  -32.0950 C   0  0  0  0  0  0  0  0  0  0  0  0
   -1.2400   17.3530  -32.4810 O   0  0  0  0  0  0  0  0  0  0  0  0
   -0.3910   18.5850  -30.6970 N   0  0  0  0  0  0  0  0  0  0  0  0
   -0.4480   19.8800  -30.0850 C   0  0  0  0  0  0  0  0  0  0  0  0
   -0.6930   20.9910  -30.9000 C   0  0  0  0  0  0  0  0  0  0  0  0
   -0.7433   20.8662  -31.9917 H   0  0  0  0  0  0  0  0  0  0  0  0
   -0.8740   22.2560  -30.3390 C   0  0  0  0  0  0  0  0  0  0  0  0
   -1.0540   23.1242  -30.9900 H   0  0  0  0  0  0  0  0  0  0  0  0
   -0.8270   22.4230  -28.9490 C   0  0  0  0  0  0  0  0  0  0  0  0
   -1.1690   23.9990  -28.2470 S   0  0  0  0  0  0  0  0  0  0  0  0
    0.1430   24.6960  -28.0220 O   0  0  0  0  0  0  0  0  0  0  0  0
   -1.8750   23.8780  -26.9250 O   0  0  0  0  0  0  0  0  0  0  0  0
   -2.1230   24.9630  -29.3310 N   0  0  0  0  0  0  0  0  0  0  0  0
   -3.3640   24.8230  -29.7090 C   0  0  0  0  0  0  0  0  0  0  0  0
   -3.9070   25.6450  -30.5770 O   0  0  0  0  0  0  0  0  0  0  0  0
   -5.1360   25.3130  -30.8440 N   0  0  0  0  0  0  0  0  0  0  0  0
   -5.4160   24.2180  -30.1160 C   0  0  0  0  0  0  0  0  0  0  0  0
   -6.7360   23.5160  -30.1590 C   0  0  0  0  0  0  0  0  0  0  0  0
   -7.0859   23.3299  -29.1329 H   0  0  0  0  0  0  0  0  0  0  0  0
   -7.4682   24.1439  -30.6879 H   0  0  0  0  0  0  0  0  0  0  0  0
   -6.6247   22.5579  -30.6879 H   0  0  0  0  0  0  0  0  0  0  0  0
   -4.3180   23.8680  -29.3450 C   0  0  0  0  0  0  0  0  0  0  0  0
   -4.2500   22.6800  -28.4320 C   0  0  0  0  0  0  0  0  0  0  0  0
   -4.2695   23.0199  -27.3860 H   0  0  0  0  0  0  0  0  0  0  0  0
   -5.1120   22.0231  -28.6202 H   0  0  0  0  0  0  0  0  0  0  0  0
   -3.3187   22.1258  -28.6202 H   0  0  0  0  0  0  0  0  0  0  0  0
   -0.5580   21.3200  -28.1280 C   0  0  0  0  0  0  0  0  0  0  0  0
   -0.4850   21.4522  -27.0384 H   0  0  0  0  0  0  0  0  0  0  0  0
   -0.3820   20.0510  -28.6900 C   0  0  0  0  0  0  0  0  0  0  0  0
   -0.1915   19.1846  -28.0395 H   0  0  0  0  0  0  0  0  0  0  0  0
   -5.2300   19.1700  -33.5830 C   0  0  0  0  0  0  0  0  0  0  0  0
   -5.2318   18.1820  -34.0666 H   0  0  0  0  0  0  0  0  0  0  0  0
   -6.4160   19.6930  -33.0600 C   0  0  0  0  0  0  0  0  0  0  0  0
   -7.3497   19.1164  -33.1352 H   0  0  0  0  0  0  0  0  0  0  0  0
  1  2  1  0
  2  3  2  0
  3  4  1  0
  3  5  1  0
  5  6  1  0
  5  7  2  0
  7  8  1  0
  8  9  1  0
  8 10  1  0
  8 11  1  0
 11 12  1  0
 12 13  2  0
 13 14  1  0
 13 15  1  0
 15 16  1  0
 15 17  2  0
 17 18  1  0
 17 19  1  0
 19 20  1  0
 19 21  2  0
 21 22  1  0
 22 23  2  0
 22 24  1  0
 24 25  1  0
 25 26  2  0
 26 27  1  0
 26 28  1  0
 28 29  1  0
 28 30  2  0
 30 31  1  0
 31 32  2  0
 31 33  2  0
 31 34  1  0
 34 35  2  0
 35 36  1  0
 36 37  1  0
 37 38  1  0
 38 39  1  0
 39 40  1  0
 39 41  1  0
 39 42  1  0
 38 43  2  0
 43 44  1  0
 44 45  1  0
 44 46  1  0
 44 47  1  0
 30 48  1  0
 48 49  1  0
 48 50  2  0
 50 51  1  0
  7 52  1  0
 52 53  1  0
 52 54  2  0
 54 55  1  0
 54  2  1  0
 21 12  1  0
 50 25  1  0
 43 35  1  0
M  CHG  2  24  -1  37  -1
M  END
>  <UniqueID>  (32) 
32

>  <SMILES>  (32) 
Cc1[n-]o/c(=N/S(=O)(=O)c2ccc([N-]C(=O)c3ccccc3OCc3ccccc3)cc2)c1C

>  <Energy>  (32) 
103.84436725660048

>  <Genealogy>  (32) 
Cc1[n-]oc(=NS(=O)(=O)c2ccc([N-]C(=O)c3ccccc3OCc3ccccc3)cc2)c1C (protonated)
Cc1[n-]o/c(=N/S(=O)(=O)c2ccc([N-]C(=O)c3ccccc3OCc3ccccc3)cc2)c1C (cis-trans isomerization)
Cc1[n-]o/c(=N/S(=O)(=O)c2ccc([N-]C(=O)c3ccccc3OCc3ccccc3)cc2)c1C (3D coordinates assigned)
Cc1[n-]o/c(=N/S(=O)(=O)c2ccc([N-]C(=O)c3ccccc3OCc3ccccc3)cc2)c1C (optimized conformer: 103.84436725660048 kcal/mol)

>  <smiles>  (32) 
Cc1[nH]oc(=NS(=O)(=O)c2ccc(NC(=O)c3ccccc3OCc3ccccc3)cc2)c1C

>  <score_type>  (32) 
oracle

>  <origin>  (32) 
adgpu

>  <m_score__min__energy>  (32) 
-11.5

>  <m_primary>  (32) 
energy

$$$$
32:0
     RDKit          3D

 47 50  0  0  0  0  0  0  0  0999 V2000
   -2.9856   21.2577  -34.3760 H   0  0  0  0  0  0  0  0  0  0  0  0
   -2.5910   20.7840  -33.4650 C   0  0  0  0  0  0  0  0  0  0  0  0
   -2.3110   21.5650  -32.3390 C   0  0  0  0  0  0  0  0  0  0  0  0
   -2.5096   22.6468  -32.3580 H   0  0  0  0  0  0  0  0  0  0  0  0
   -1.7780   20.9720  -31.1870 C   0  0  0  0  0  0  0  0  0  0  0  0
   -1.5040   21.9510  -29.7500 S   0  0  0  0  0  0  0  0  0  0  0  0
   -0.0220   21.9980  -29.5060 O   0  0  0  0  0  0  0  0  0  0  0  0
   -2.1590   21.3580  -28.5350 O   0  0  0  0  0  0  0  0  0  0  0  0
   -2.0700   23.5750  -29.9940 N   0  0  0  0  0  0  0  0  0  0  0  0
   -3.2600   24.0160  -30.2920 C   0  0  0  0  0  0  0  0  0  0  0  0
   -3.4860   25.2970  -30.4600 O   0  0  0  0  0  0  0  0  0  0  0  0
   -4.7260   25.5270  -30.7750 N   0  0  0  0  0  0  0  0  0  0  0  0
   -5.3500   24.3360  -30.8140 C   0  0  0  0  0  0  0  0  0  0  0  0
   -6.7940   24.1750  -31.1680 C   0  0  0  0  0  0  0  0  0  0  0  0
   -7.3920   24.1083  -30.2472 H   0  0  0  0  0  0  0  0  0  0  0  0
   -7.1256   25.0417  -31.7586 H   0  0  0  0  0  0  0  0  0  0  0  0
   -6.9265   23.2565  -31.7586 H   0  0  0  0  0  0  0  0  0  0  0  0
   -4.4560   23.3230  -30.4960 C   0  0  0  0  0  0  0  0  0  0  0  0
   -4.7770   21.8590  -30.4710 C   0  0  0  0  0  0  0  0  0  0  0  0
   -4.8518   21.5178  -29.4279 H   0  0  0  0  0  0  0  0  0  0  0  0
   -5.7347   21.6848  -30.9834 H   0  0  0  0  0  0  0  0  0  0  0  0
   -3.9801   21.3001  -30.9834 H   0  0  0  0  0  0  0  0  0  0  0  0
   -1.4830   19.6030  -31.1830 C   0  0  0  0  0  0  0  0  0  0  0  0
   -1.0109   19.1449  -30.3014 H   0  0  0  0  0  0  0  0  0  0  0  0
   -1.7880   18.8190  -32.2980 C   0  0  0  0  0  0  0  0  0  0  0  0
   -1.5711   17.7407  -32.2850 H   0  0  0  0  0  0  0  0  0  0  0  0
   -2.3710   19.4020  -33.4370 C   0  0  0  0  0  0  0  0  0  0  0  0
   -2.7530   18.6040  -34.5650 N   0  0  0  0  0  0  0  0  0  0  0  0
   -4.0510   18.0200  -34.7260 C   0  0  0  0  0  0  0  0  0  0  0  0
   -4.1950   17.0470  -35.5120 O   0  0  0  0  0  0  0  0  0  0  0  0
   -5.2190   18.5320  -33.9900 C   0  0  0  0  0  0  0  0  0  0  0  0
   -5.4080   19.8150  -33.7390 O   0  0  0  0  0  0  0  0  0  0  0  0
   -6.5570   19.9350  -33.1190 C   0  0  0  0  0  0  0  0  0  0  0  0
   -7.1670   21.1080  -32.6780 C   0  0  0  0  0  0  0  0  0  0  0  0
   -6.6865   22.0867  -32.8237 H   0  0  0  0  0  0  0  0  0  0  0  0
   -8.4160   21.0010  -32.0410 C   0  0  0  0  0  0  0  0  0  0  0  0
   -8.9261   21.9071  -31.6822 H   0  0  0  0  0  0  0  0  0  0  0  0
   -9.0200   19.7360  -31.8590 C   0  0  0  0  0  0  0  0  0  0  0  0
   -9.9978   19.6644  -31.3601 H   0  0  0  0  0  0  0  0  0  0  0  0
   -8.3800   18.5690  -32.3110 C   0  0  0  0  0  0  0  0  0  0  0  0
   -8.8391   17.5789  -32.1733 H   0  0  0  0  0  0  0  0  0  0  0  0
   -7.1430   18.7090  -32.9400 C   0  0  0  0  0  0  0  0  0  0  0  0
   -6.2820   17.7790  -33.4800 C   0  0  0  0  0  0  0  0  0  0  0  0
   -6.4530   16.2900  -33.4750 C   0  0  0  0  0  0  0  0  0  0  0  0
   -6.4944   15.9292  -32.4367 H   0  0  0  0  0  0  0  0  0  0  0  0
   -7.3873   16.0265  -33.9923 H   0  0  0  0  0  0  0  0  0  0  0  0
   -5.6028   15.8215  -33.9923 H   0  0  0  0  0  0  0  0  0  0  0  0
  1  2  1  0
  2  3  2  0
  3  4  1  0
  3  5  1  0
  5  6  1  0
  6  7  2  0
  6  8  2  0
  6  9  1  0
  9 10  2  0
 10 11  1  0
 11 12  1  0
 12 13  1  0
 13 14  1  0
 14 15  1  0
 14 16  1  0
 14 17  1  0
 13 18  2  0
 18 19  1  0
 19 20  1  0
 19 21  1  0
 19 22  1  0
  5 23  2  0
 23 24  1  0
 23 25  1  0
 25 26  1  0
 25 27  2  0
 27 28  1  0
 28 29  1  0
 29 30  2  0
 29 31  1  0
 31 32  1  0
 32 33  1  0
 33 34  2  0
 34 35  1  0
 34 36  1  0
 36 37  1  0
 36 38  2  0
 38 39  1  0
 38 40  1  0
 40 41  1  0
 40 42  2  0
 42 43  1  0
 43 44  1  0
 44 45  1  0
 44 46  1  0
 44 47  1  0
 27  2  1  0
 43 31  2  0
 18 10  1  0
 42 33  1  0
M  CHG  2  12  -1  28  -1
M  END
>  <UniqueID>  (33) 
33

>  <SMILES>  (33) 
Cc1[n-]o/c(=N/S(=O)(=O)c2ccc([N-]C(=O)c3oc4ccccc4c3C)cc2)c1C

>  <Energy>  (33) 
128.94721944847143

>  <Genealogy>  (33) 
Cc1[n-]oc(=NS(=O)(=O)c2ccc([N-]C(=O)c3oc4ccccc4c3C)cc2)c1C (protonated)
Cc1[n-]o/c(=N/S(=O)(=O)c2ccc([N-]C(=O)c3oc4ccccc4c3C)cc2)c1C (cis-trans isomerization)
Cc1[n-]o/c(=N/S(=O)(=O)c2ccc([N-]C(=O)c3oc4ccccc4c3C)cc2)c1C (3D coordinates assigned)
Cc1[n-]o/c(=N/S(=O)(=O)c2ccc([N-]C(=O)c3oc4ccccc4c3C)cc2)c1C (optimized conformer: 128.94721944847143 kcal/mol)

>  <smiles>  (33) 
Cc1[nH]oc(=NS(=O)(=O)c2ccc(NC(=O)c3oc4ccccc4c3C)cc2)c1C

>  <score_type>  (33) 
oracle

>  <origin>  (33) 
adgpu

>  <m_score__min__energy>  (33) 
-11.949999999999999

>  <m_primary>  (33) 
energy

$$$$
33:0
     RDKit          3D

 47 49  0  0  0  0  0  0  0  0999 V2000
   -0.8330   18.2220  -27.1150 C   0  0  0  0  0  0  0  0  0  0  0  0
   -1.6500   19.4040  -27.5250 C   0  0  0  0  0  0  0  0  0  0  0  0
   -2.6170   19.7680  -26.8020 O   0  0  0  0  0  0  0  0  0  0  0  0
   -1.3880   20.0520  -28.7790 N   0  0  0  0  0  0  0  0  0  0  0  0
   -1.9770   21.3000  -29.1820 C   0  0  0  0  0  0  0  0  0  0  0  0
   -1.9980   22.4150  -28.3240 C   0  0  0  0  0  0  0  0  0  0  0  0
   -2.5470   23.6270  -28.7540 C   0  0  0  0  0  0  0  0  0  0  0  0
   -3.0560   23.7540  -30.0510 C   0  0  0  0  0  0  0  0  0  0  0  0
   -3.6010   25.0160  -30.4660 N   0  0  0  0  0  0  0  0  0  0  0  0
   -4.9980   25.3280  -30.5700 C   0  0  0  0  0  0  0  0  0  0  0  0
   -5.3640   26.5270  -30.4550 O   0  0  0  0  0  0  0  0  0  0  0  0
   -6.0070   24.2810  -30.8360 C   0  0  0  0  0  0  0  0  0  0  0  0
   -6.5090   24.0890  -32.1330 C   0  0  0  0  0  0  0  0  0  0  0  0
   -7.3920   23.0410  -32.4000 C   0  0  0  0  0  0  0  0  0  0  0  0
   -7.7770   22.1650  -31.3770 C   0  0  0  0  0  0  0  0  0  0  0  0
   -8.7740   20.7580  -31.7460 S   0  0  0  0  0  0  0  0  0  0  0  0
  -10.0800   21.2180  -32.3340 O   0  0  0  0  0  0  0  0  0  0  0  0
   -9.0750   20.0160  -30.4740 O   0  0  0  0  0  0  0  0  0  0  0  0
   -7.9730   19.6740  -32.8650 N   0  0  0  0  0  0  0  0  0  0  0  0
   -6.5620   20.0360  -33.0450 C   0  0  0  0  0  0  0  0  0  0  0  0
   -5.7080   19.1020  -32.1960 C   0  0  0  0  0  0  0  0  0  0  0  0
   -6.6460   18.0290  -31.6850 C   0  0  0  0  0  0  0  0  0  0  0  0
   -7.9820   18.2970  -32.3630 C   0  0  0  0  0  0  0  0  0  0  0  0
   -7.3180   22.3840  -30.0710 C   0  0  0  0  0  0  0  0  0  0  0  0
   -6.4440   23.4410  -29.8000 C   0  0  0  0  0  0  0  0  0  0  0  0
   -3.0470   22.6370  -30.9050 C   0  0  0  0  0  0  0  0  0  0  0  0
   -2.4970   21.4260  -30.4780 C   0  0  0  0  0  0  0  0  0  0  0  0
   -0.7943   18.1660  -26.0171 H   0  0  0  0  0  0  0  0  0  0  0  0
   -1.2904   17.3042  -27.5130 H   0  0  0  0  0  0  0  0  0  0  0  0
    0.1872   18.3256  -27.5130 H   0  0  0  0  0  0  0  0  0  0  0  0
   -0.7920   19.5440  -29.4730 H   0  0  0  0  0  0  0  0  0  0  0  0
   -1.5804   22.3328  -27.3097 H   0  0  0  0  0  0  0  0  0  0  0  0
   -2.5789   24.4863  -28.0680 H   0  0  0  0  0  0  0  0  0  0  0  0
   -6.2050   24.7680  -32.9433 H   0  0  0  0  0  0  0  0  0  0  0  0
   -7.7868   22.9027  -33.4174 H   0  0  0  0  0  0  0  0  0  0  0  0
   -6.2848   19.9311  -34.1043 H   0  0  0  0  0  0  0  0  0  0  0  0
   -6.3993   21.0790  -32.7356 H   0  0  0  0  0  0  0  0  0  0  0  0
   -4.9100   18.6534  -32.8059 H   0  0  0  0  0  0  0  0  0  0  0  0
   -5.2223   19.6403  -31.3687 H   0  0  0  0  0  0  0  0  0  0  0  0
   -6.2714   17.0308  -31.9556 H   0  0  0  0  0  0  0  0  0  0  0  0
   -6.7336   18.0532  -30.5888 H   0  0  0  0  0  0  0  0  0  0  0  0
   -8.1221   17.5966  -33.1996 H   0  0  0  0  0  0  0  0  0  0  0  0
   -8.8057   18.1591  -31.6471 H   0  0  0  0  0  0  0  0  0  0  0  0
   -7.6466   21.7219  -29.2563 H   0  0  0  0  0  0  0  0  0  0  0  0
   -6.0974   23.6150  -28.7706 H   0  0  0  0  0  0  0  0  0  0  0  0
   -3.4754   22.7172  -31.9150 H   0  0  0  0  0  0  0  0  0  0  0  0
   -2.4717   20.5657  -31.1630 H   0  0  0  0  0  0  0  0  0  0  0  0
  1  2  1  0
  2  3  2  0
  2  4  1  0
  4  5  1  0
  5  6  2  0
  6  7  1  0
  7  8  2  0
  8  9  1  0
  9 10  1  0
 10 11  2  0
 10 12  1  0
 12 13  2  0
 13 14  1  0
 14 15  2  0
 15 16  1  0
 16 17  2  0
 16 18  2  0
 16 19  1  0
 19 20  1  0
 20 21  1  0
 21 22  1  0
 22 23  1  0
 15 24  1  0
 24 25  2  0
  8 26  1  0
 26 27  2  0
 27  5  1  0
 25 12  1  0
 23 19  1  0
  1 28  1  0
  1 29  1  0
  1 30  1  0
  4 31  1  0
  6 32  1  0
  7 33  1  0
 13 34  1  0
 14 35  1  0
 20 36  1  0
 20 37  1  0
 21 38  1  0
 21 39  1  0
 22 40  1  0
 22 41  1  0
 23 42  1  0
 23 43  1  0
 24 44  1  0
 25 45  1  0
 26 46  1  0
 27 47  1  0
M  CHG  1   9  -1
M  END
>  <UniqueID>  (34) 
34

>  <SMILES>  (34) 
CC(=O)Nc1ccc([N-]C(=O)c2ccc(S(=O)(=O)N3CCCC3)cc2)cc1

>  <Energy>  (34) 
54.99668751878506

>  <Genealogy>  (34) 
CC(=O)Nc1ccc([N-]C(=O)c2ccc(S(=O)(=O)N3CCCC3)cc2)cc1 (protonated)
CC(=O)Nc1ccc([N-]C(=O)c2ccc(S(=O)(=O)N3CCCC3)cc2)cc1 (3D coordinates assigned)
CC(=O)Nc1ccc([N-]C(=O)c2ccc(S(=O)(=O)N3CCCC3)cc2)cc1 (nonaromatic ring conformer: 54.99668751878506 kcal/mol)

>  <smiles>  (34) 
CC(=O)Nc1ccc(NC(=O)c2ccc(S(=O)(=O)N3CCCC3)cc2)cc1

>  <score_type>  (34) 
oracle

>  <origin>  (34) 
adgpu

>  <m_score__min__energy>  (34) 
-11.06

>  <m_primary>  (34) 
energy

$$$$
34:0
     RDKit          3D

 51 53  0  0  0  0  0  0  0  0999 V2000
   -4.5250   19.0210  -33.8680 C   0  0  0  0  0  0  0  0  0  0  0  0
   -4.6620   20.3030  -33.0890 C   0  0  0  0  0  0  0  0  0  0  0  0
   -3.5050   21.0210  -32.7390 C   0  0  0  0  0  0  0  0  0  0  0  0
   -3.6010   22.2100  -32.0140 C   0  0  0  0  0  0  0  0  0  0  0  0
   -4.8520   22.7020  -31.6300 C   0  0  0  0  0  0  0  0  0  0  0  0
   -4.9750   24.1690  -30.6610 S   0  0  0  0  0  0  0  0  0  0  0  0
   -5.6610   23.8370  -29.3670 O   0  0  0  0  0  0  0  0  0  0  0  0
   -5.7730   25.2180  -31.3860 O   0  0  0  0  0  0  0  0  0  0  0  0
   -3.3900   24.7970  -30.3280 N   0  0  0  0  0  0  0  0  0  0  0  0
   -2.4980   24.2360  -29.3440 C   0  0  0  0  0  0  0  0  0  0  0  0
   -2.6600   22.9200  -28.8710 C   0  0  0  0  0  0  0  0  0  0  0  0
   -1.7950   22.3950  -27.9010 C   0  0  0  0  0  0  0  0  0  0  0  0
   -2.0250   20.7450  -27.3130 S   0  0  0  0  0  0  0  0  0  0  0  0
   -1.4090   20.6160  -25.9480 O   0  0  0  0  0  0  0  0  0  0  0  0
   -3.4970   20.4670  -27.1870 O   0  0  0  0  0  0  0  0  0  0  0  0
   -1.3010   19.5730  -28.3890 N   0  0  0  0  0  0  0  0  0  0  0  0
   -1.3110   20.0400  -29.7980 C   0  0  0  0  0  0  0  0  0  0  0  0
    0.0620   20.5380  -30.2750 C   0  0  0  0  0  0  0  0  0  0  0  0
    1.1280   19.4350  -30.1460 C   0  0  0  0  0  0  0  0  0  0  0  0
    0.8550   18.4760  -28.9730 C   0  0  0  0  0  0  0  0  0  0  0  0
    0.0270   19.1640  -27.8820 C   0  0  0  0  0  0  0  0  0  0  0  0
   -0.7520   23.1840  -27.4060 C   0  0  0  0  0  0  0  0  0  0  0  0
   -0.5710   24.4850  -27.8770 C   0  0  0  0  0  0  0  0  0  0  0  0
   -1.4360   25.0130  -28.8400 C   0  0  0  0  0  0  0  0  0  0  0  0
   -1.2380   26.3140  -29.2860 O   0  0  0  0  0  0  0  0  0  0  0  0
   -6.0110   22.0040  -31.9870 C   0  0  0  0  0  0  0  0  0  0  0  0
   -5.9310   20.8080  -32.7200 C   0  0  0  0  0  0  0  0  0  0  0  0
   -7.1980   20.0710  -33.0670 C   0  0  0  0  0  0  0  0  0  0  0  0
   -4.4347   18.1757  -33.1700 H   0  0  0  0  0  0  0  0  0  0  0  0
   -5.4132   18.8802  -34.5014 H   0  0  0  0  0  0  0  0  0  0  0  0
   -3.6271   19.0710  -34.5014 H   0  0  0  0  0  0  0  0  0  0  0  0
   -2.5165   20.6429  -33.0388 H   0  0  0  0  0  0  0  0  0  0  0  0
   -2.6887   22.7620  -31.7438 H   0  0  0  0  0  0  0  0  0  0  0  0
   -3.1210   25.6710  -30.8290 H   0  0  0  0  0  0  0  0  0  0  0  0
   -3.4749   22.2964  -29.2673 H   0  0  0  0  0  0  0  0  0  0  0  0
   -1.6241   19.2049  -30.4419 H   0  0  0  0  0  0  0  0  0  0  0  0
   -2.0081   20.8887  -29.8585 H   0  0  0  0  0  0  0  0  0  0  0  0
   -0.0131   20.8433  -31.3291 H   0  0  0  0  0  0  0  0  0  0  0  0
    0.3624   21.3890  -29.6460 H   0  0  0  0  0  0  0  0  0  0  0  0
    1.1461   18.8528  -31.0791 H   0  0  0  0  0  0  0  0  0  0  0  0
    2.0926   19.9274  -29.9537 H   0  0  0  0  0  0  0  0  0  0  0  0
    0.3028   17.6005  -29.3452 H   0  0  0  0  0  0  0  0  0  0  0  0
    1.8185   18.1687  -28.5402 H   0  0  0  0  0  0  0  0  0  0  0  0
   -0.1098   18.4660  -27.0429 H   0  0  0  0  0  0  0  0  0  0  0  0
    0.5657   20.0659  -27.5559 H   0  0  0  0  0  0  0  0  0  0  0  0
   -0.0720   22.7777  -26.6428 H   0  0  0  0  0  0  0  0  0  0  0  0
    0.2559   25.0978  -27.4889 H   0  0  0  0  0  0  0  0  0  0  0  0
   -6.9952   22.3958  -31.6906 H   0  0  0  0  0  0  0  0  0  0  0  0
   -7.7129   19.7715  -32.1423 H   0  0  0  0  0  0  0  0  0  0  0  0
   -7.8548   20.7280  -33.6561 H   0  0  0  0  0  0  0  0  0  0  0  0
   -6.9516   19.1753  -33.6561 H   0  0  0  0  0  0  0  0  0  0  0  0
  1  2  1  0
  2  3  2  0
  3  4  1  0
  4  5  2  0
  5  6  1  0
  6  7  2  0
  6  8  2  0
  6  9  1  0
  9 10  1  0
 10 11  2  0
 11 12  1  0
 12 13  1  0
 13 14  2  0
 13 15  2  0
 13 16  1  0
 16 17  1  0
 17 18  1  0
 18 19  1  0
 19 20  1  0
 20 21  1  0
 12 22  2  0
 22 23  1  0
 23 24  2  0
 24 25  1  0
  5 26  1  0
 26 27  2  0
 27 28  1  0
 27  2  1  0
 24 10  1  0
 21 16  1  0
  1 29  1  0
  1 30  1  0
  1 31  1  0
  3 32  1  0
  4 33  1  0
  9 34  1  0
 11 35  1  0
 17 36  1  0
 17 37  1  0
 18 38  1  0
 18 39  1  0
 19 40  1  0
 19 41  1  0
 20 42  1  0
 20 43  1  0
 21 44  1  0
 21 45  1  0
 22 46  1  0
 23 47  1  0
 26 48  1  0
 28 49  1  0
 28 50  1  0
 28 51  1  0
M  CHG  1  25  -1
M  END
>  <UniqueID>  (35) 
35

>  <SMILES>  (35) 
Cc1ccc(S(=O)(=O)Nc2cc(S(=O)(=O)N3CCCCC3)ccc2[O-])cc1C

>  <Energy>  (35) 
58.56623318812394

>  <Genealogy>  (35) 
Cc1ccc(S(=O)(=O)Nc2cc(S(=O)(=O)N3CCCCC3)ccc2[O-])cc1C (protonated)
Cc1ccc(S(=O)(=O)Nc2cc(S(=O)(=O)N3CCCCC3)ccc2[O-])cc1C (3D coordinates assigned)
Cc1ccc(S(=O)(=O)Nc2cc(S(=O)(=O)N3CCCCC3)ccc2[O-])cc1C (nonaromatic ring conformer: 58.56623318812394 kcal/mol)

>  <smiles>  (35) 
Cc1ccc(S(=O)(=O)Nc2cc(S(=O)(=O)N3CCCCC3)ccc2O)cc1C

>  <score_type>  (35) 
oracle

>  <origin>  (35) 
adgpu

>  <m_score__min__energy>  (35) 
-13.73

>  <m_primary>  (35) 
energy

$$$$
35:0
     RDKit          3D

 47 49  0  0  0  0  0  0  0  0999 V2000
   -1.5130   16.1210  -33.9680 O   0  0  0  0  0  0  0  0  0  0  0  0
   -2.3600   17.0350  -34.1500 C   0  0  0  0  0  0  0  0  0  0  0  0
   -3.7080   16.6720  -34.4800 N   0  0  0  0  0  0  0  0  0  0  0  0
   -4.8830   17.3610  -34.0300 C   0  0  0  0  0  0  0  0  0  0  0  0
   -5.5570   16.8990  -32.8930 C   0  0  0  0  0  0  0  0  0  0  0  0
   -6.6490   17.6100  -32.3830 C   0  0  0  0  0  0  0  0  0  0  0  0
   -7.0850   18.7800  -33.0200 C   0  0  0  0  0  0  0  0  0  0  0  0
   -8.3420   19.7840  -32.3100 S   0  0  0  0  0  0  0  0  0  0  0  0
   -8.6060   19.3770  -30.8870 O   0  0  0  0  0  0  0  0  0  0  0  0
   -9.6070   19.6030  -33.1000 O   0  0  0  0  0  0  0  0  0  0  0  0
   -7.8580   21.4540  -32.3850 N   0  0  0  0  0  0  0  0  0  0  0  0
   -7.0400   21.8480  -31.2310 C   0  0  0  0  0  0  0  0  0  0  0  0
   -5.5800   21.3750  -31.3710 C   0  0  1  0  0  0  0  0  0  0  0  0
   -5.2700   21.1080  -32.7140 O   0  0  0  0  0  0  0  0  0  0  0  0
   -4.6040   22.3830  -30.7990 C   0  0  0  0  0  0  0  0  0  0  0  0
   -3.4220   21.9680  -30.1590 C   0  0  0  0  0  0  0  0  0  0  0  0
   -2.5290   22.9100  -29.6410 C   0  0  0  0  0  0  0  0  0  0  0  0
   -2.7980   24.2780  -29.7650 C   0  0  0  0  0  0  0  0  0  0  0  0
   -1.9160   25.2230  -29.2450 O   0  0  0  0  0  0  0  0  0  0  0  0
   -3.9640   24.7000  -30.4160 C   0  0  0  0  0  0  0  0  0  0  0  0
   -4.2380   26.0570  -30.5480 O   0  0  0  0  0  0  0  0  0  0  0  0
   -4.8590   23.7590  -30.9360 C   0  0  0  0  0  0  0  0  0  0  0  0
   -6.4570   19.2020  -34.1970 C   0  0  0  0  0  0  0  0  0  0  0  0
   -5.3660   18.4950  -34.7040 C   0  0  0  0  0  0  0  0  0  0  0  0
   -1.9580   18.4520  -33.9700 C   0  0  0  0  0  0  0  0  0  0  0  0
   -2.6550   19.2710  -33.0610 C   0  0  0  0  0  0  0  0  0  0  0  0
   -2.3140   20.6180  -32.9140 C   0  0  0  0  0  0  0  0  0  0  0  0
   -1.2680   21.1610  -33.6610 C   0  0  0  0  0  0  0  0  0  0  0  0
   -0.5540   20.3540  -34.5510 C   0  0  0  0  0  0  0  0  0  0  0  0
   -0.8900   19.0040  -34.7080 C   0  0  0  0  0  0  0  0  0  0  0  0
   -0.1760   18.2290  -35.6160 O   0  0  0  0  0  0  0  0  0  0  0  0
   -5.2268   15.9735  -32.3987 H   0  0  0  0  0  0  0  0  0  0  0  0
   -7.1659   17.2503  -31.4811 H   0  0  0  0  0  0  0  0  0  0  0  0
   -7.0515   22.9446  -31.1451 H   0  0  0  0  0  0  0  0  0  0  0  0
   -7.4664   21.3746  -30.3343 H   0  0  0  0  0  0  0  0  0  0  0  0
   -5.4820   20.4456  -30.7908 H   0  0  0  0  0  0  0  0  0  0  0  0
   -5.8970   21.6420  -33.2670 H   0  0  0  0  0  0  0  0  0  0  0  0
   -3.1991   20.8949  -30.0656 H   0  0  0  0  0  0  0  0  0  0  0  0
   -1.6118   22.5753  -29.1342 H   0  0  0  0  0  0  0  0  0  0  0  0
   -1.6420   26.0410  -29.7760 H   0  0  0  0  0  0  0  0  0  0  0  0
   -5.7677   24.0975  -31.4552 H   0  0  0  0  0  0  0  0  0  0  0  0
   -6.8247   20.0944  -34.7246 H   0  0  0  0  0  0  0  0  0  0  0  0
   -4.8825   18.8268  -35.6347 H   0  0  0  0  0  0  0  0  0  0  0  0
   -3.4744   18.8470  -32.4619 H   0  0  0  0  0  0  0  0  0  0  0  0
   -2.8711   21.2515  -32.2081 H   0  0  0  0  0  0  0  0  0  0  0  0
   -1.0056   22.2234  -33.5495 H   0  0  0  0  0  0  0  0  0  0  0  0
    0.2767   20.7819  -35.1314 H   0  0  0  0  0  0  0  0  0  0  0  0
  1  2  2  0
  2  3  1  0
  3  4  1  0
  4  5  2  0
  5  6  1  0
  6  7  2  0
  7  8  1  0
  8  9  2  0
  8 10  2  0
  8 11  1  0
 11 12  1  0
 12 13  1  0
 13 14  1  0
 13 15  1  0
 15 16  2  0
 16 17  1  0
 17 18  2  0
 18 19  1  0
 18 20  1  0
 20 21  1  0
 20 22  2  0
  7 23  1  0
 23 24  2  0
  2 25  1  0
 25 26  2  0
 26 27  1  0
 27 28  2  0
 28 29  1  0
 29 30  2  0
 30 31  1  0
 24  4  1  0
 30 25  1  0
 22 15  1  0
  5 32  1  0
  6 33  1  0
 12 34  1  0
 12 35  1  0
 13 36  1  1
 14 37  1  0
 16 38  1  0
 17 39  1  0
 19 40  1  0
 22 41  1  0
 23 42  1  0
 24 43  1  0
 26 44  1  0
 27 45  1  0
 28 46  1  0
 29 47  1  0
M  CHG  4   3  -1  11  -1  21  -1  31  -1
M  END
>  <UniqueID>  (36) 
36

>  <SMILES>  (36) 
O=C([N-]c1ccc(S(=O)(=O)[N-]C[C@@H](O)c2ccc(O)c([O-])c2)cc1)c1ccccc1[O-]

>  <Energy>  (36) 
54.216079385819555

>  <Genealogy>  (36) 
O=C([N-]c1ccc(S(=O)(=O)[N-]CC(O)c2ccc(O)c([O-])c2)cc1)c1ccccc1[O-] (protonated)
O=C([N-]c1ccc(S(=O)(=O)[N-]C[C@@H](O)c2ccc(O)c([O-])c2)cc1)c1ccccc1[O-] (chirality)
O=C([N-]c1ccc(S(=O)(=O)[N-]C[C@@H](O)c2ccc(O)c([O-])c2)cc1)c1ccccc1[O-] (3D coordinates assigned)
O=C([N-]c1ccc(S(=O)(=O)[N-]C[C@@H](O)c2ccc(O)c([O-])c2)cc1)c1ccccc1[O-] (optimized conformer: 54.216079385819555 kcal/mol)

>  <smiles>  (36) 
O=C(Nc1ccc(S(=O)(=O)NCC(O)c2ccc(O)c(O)c2)cc1)c1ccccc1O

>  <score_type>  (36) 
oracle

>  <origin>  (36) 
adgpu

>  <m_score__min__energy>  (36) 
-13.210000000000001

>  <m_primary>  (36) 
energy

$$$$
36:0
     RDKit          3D

 47 49  0  0  1  0  0  0  0  0999 V2000
   -9.4890   20.4940  -32.2830 C   0  0  0  0  0  0  0  0  0  0  0  0
   -8.5570   19.6900  -33.0840 N   0  0  0  0  0  0  0  0  0  0  0  0
   -7.5940   19.0670  -32.1930 C   0  0  0  0  0  0  0  0  0  0  0  0
   -6.9240   17.8930  -32.8240 C   0  0  0  0  0  0  0  0  0  0  0  0
   -5.7810   18.2310  -33.7270 C   0  0  0  0  0  0  0  0  0  0  0  0
   -5.0210   19.3840  -33.3170 N   0  0  0  0  0  0  0  0  0  0  0  0
   -3.6150   19.4480  -33.2500 C   0  0  0  0  0  0  0  0  0  0  0  0
   -2.8800   19.0380  -34.3090 N   0  0  0  0  0  0  0  0  0  0  0  0
   -1.5330   19.0700  -34.3220 C   0  0  0  0  0  0  0  0  0  0  0  0
   -0.9010   19.5330  -33.2260 N   0  0  0  0  0  0  0  0  0  0  0  0
   -1.5500   19.9650  -32.1250 C   0  0  0  0  0  0  0  0  0  0  0  0
   -0.8530   20.3800  -31.1510 N   0  0  0  0  0  0  0  0  0  0  0  0
   -1.5010   20.8420  -29.9740 C   0  0  0  0  0  0  0  0  0  0  0  0
   -1.6100   20.1400  -28.8130 C   0  0  0  0  0  0  0  0  0  0  0  0
   -2.2720   20.7070  -27.7220 C   0  0  0  0  0  0  0  0  0  0  0  0
   -2.8130   21.9900  -27.8400 C   0  0  0  0  0  0  0  0  0  0  0  0
   -2.7130   22.7160  -29.0080 C   0  0  0  0  0  0  0  0  0  0  0  0
   -3.4070   24.3150  -29.1130 S   0  0  0  0  0  0  0  0  0  0  0  0
   -4.5990   24.6150  -27.9200 N   0  0  0  0  0  0  0  0  0  0  0  0
   -2.2940   25.3000  -28.9050 O   0  0  0  0  0  0  0  0  0  0  0  0
   -3.9180   24.5100  -30.5100 O   0  0  0  0  0  0  0  0  0  0  0  0
   -2.0530   22.1250  -30.0620 C   0  0  0  0  0  0  0  0  0  0  0  0
   -2.9260   19.9110  -32.1620 C   0  0  0  0  0  0  0  0  0  0  0  0
   -3.6010   20.3390  -31.0700 F   0  0  0  0  0  0  0  0  0  0  0  0
   -5.8000   20.5750  -32.9340 C   0  0  0  0  0  0  0  0  0  0  0  0
   -6.6330   20.1300  -31.7420 C   0  0  0  0  0  0  0  0  0  0  0  0
   -9.2934   20.3252  -31.2138 H   0  0  0  0  0  0  0  0  0  0  0  0
   -9.3492   21.5596  -32.5176 H   0  0  0  0  0  0  0  0  0  0  0  0
  -10.5225   20.1994  -32.5176 H   0  0  0  0  0  0  0  0  0  0  0  0
   -9.1450   18.9420  -33.5270 H   0  0  0  0  0  0  0  0  0  0  0  0
   -8.1033   18.6489  -31.3122 H   0  0  0  0  0  0  0  0  0  0  0  0
   -6.5448   17.2436  -32.0212 H   0  0  0  0  0  0  0  0  0  0  0  0
   -7.6827   17.4071  -33.4551 H   0  0  0  0  0  0  0  0  0  0  0  0
   -5.1024   17.3660  -33.7619 H   0  0  0  0  0  0  0  0  0  0  0  0
   -6.2161   18.4737  -34.7077 H   0  0  0  0  0  0  0  0  0  0  0  0
   -3.3310   18.6690  -35.1850 H   0  0  0  0  0  0  0  0  0  0  0  0
   -0.9665   18.7284  -35.2009 H   0  0  0  0  0  0  0  0  0  0  0  0
   -1.1788   19.1311  -28.7345 H   0  0  0  0  0  0  0  0  0  0  0  0
   -2.3667   20.1490  -26.7788 H   0  0  0  0  0  0  0  0  0  0  0  0
   -3.3328   22.4329  -26.9776 H   0  0  0  0  0  0  0  0  0  0  0  0
   -5.4920   24.1380  -28.2480 H   0  0  0  0  0  0  0  0  0  0  0  0
   -4.7850   25.6300  -27.8710 H   0  0  0  0  0  0  0  0  0  0  0  0
   -1.9562   22.6808  -31.0063 H   0  0  0  0  0  0  0  0  0  0  0  0
   -5.1307   21.4011  -32.6518 H   0  0  0  0  0  0  0  0  0  0  0  0
   -6.4241   20.9454  -33.7606 H   0  0  0  0  0  0  0  0  0  0  0  0
   -5.9733   19.7247  -30.9606 H   0  0  0  0  0  0  0  0  0  0  0  0
   -7.1884   20.9870  -31.3333 H   0  0  0  0  0  0  0  0  0  0  0  0
  1  2  1  0
  2  3  1  0
  3  4  1  0
  4  5  1  0
  5  6  1  0
  6  7  1  0
  7  8  1  0
  8  9  1  0
  9 10  2  0
 10 11  1  0
 11 12  2  0
 12 13  1  0
 13 14  2  0
 14 15  1  0
 15 16  2  0
 16 17  1  0
 17 18  1  0
 18 19  1  0
 18 20  2  0
 18 21  2  0
 17 22  2  0
 11 23  1  0
 23 24  1  0
  6 25  1  0
 25 26  1  0
 26  3  1  0
 23  7  2  0
 22 13  1  0
  1 27  1  0
  1 28  1  0
  1 29  1  0
  2 30  1  0
  3 31  1  0
  4 32  1  0
  4 33  1  0
  5 34  1  0
  5 35  1  0
  8 36  1  0
  9 37  1  0
 14 38  1  0
 15 39  1  0
 16 40  1  0
 19 41  1  0
 19 42  1  0
 22 43  1  0
 25 44  1  0
 25 45  1  0
 26 46  1  0
 26 47  1  0
M  END
>  <smiles>  (37) 
CNC1CCN(c2[nH]cnc(=Nc3cccc(S(N)(=O)=O)c3)c2F)CC1

>  <score_type>  (37) 
oracle

>  <origin>  (37) 
adgpu

>  <m_score__min__energy>  (37) 
-8.6699999999999999

>  <m_primary>  (37) 
energy

$$$$
37:0
     RDKit          3D

 43 45  0  0  0  0  0  0  0  0999 V2000
   -1.8600   25.6900  -28.8320 O   0  0  0  0  0  0  0  0  0  0  0  0
   -2.5030   24.7430  -29.3560 C   0  0  0  0  0  0  0  0  0  0  0  0
   -3.4940   25.0500  -30.3480 N   0  0  0  0  0  0  0  0  0  0  0  0
   -4.6780   24.2820  -30.5970 C   0  0  0  0  0  0  0  0  0  0  0  0
   -5.8070   24.3880  -29.7660 C   0  0  0  0  0  0  0  0  0  0  0  0
   -6.9690   23.6750  -30.0660 C   0  0  0  0  0  0  0  0  0  0  0  0
   -7.0190   22.8500  -31.1970 C   0  0  0  0  0  0  0  0  0  0  0  0
   -8.5280   22.0560  -31.6510 S   0  0  0  0  0  0  0  0  0  0  0  0
   -9.4280   23.0520  -32.3310 O   0  0  0  0  0  0  0  0  0  0  0  0
   -9.2260   21.5680  -30.4130 O   0  0  0  0  0  0  0  0  0  0  0  0
   -8.2330   20.6990  -32.7160 N   0  0  0  0  0  0  0  0  0  0  0  0
   -6.9100   20.0990  -32.4340 C   0  0  0  0  0  0  0  0  0  0  0  0
   -6.8030   18.6820  -33.0040 C   0  0  0  0  0  0  0  0  0  0  0  0
   -7.8350   17.7450  -32.3520 C   0  0  0  0  0  0  0  0  0  0  0  0
   -9.0830   18.4930  -31.8490 C   0  0  0  0  0  0  0  0  0  0  0  0
   -9.3650   19.7400  -32.7010 C   0  0  0  0  0  0  0  0  0  0  0  0
   -5.8740   22.7020  -31.9940 C   0  0  0  0  0  0  0  0  0  0  0  0
   -4.7070   23.4060  -31.6880 C   0  0  0  0  0  0  0  0  0  0  0  0
   -2.2490   23.3530  -28.9070 C   0  0  0  0  0  0  0  0  0  0  0  0
   -1.0920   22.6620  -29.3140 C   0  0  0  0  0  0  0  0  0  0  0  0
   -0.8570   21.3560  -28.8760 C   0  0  0  0  0  0  0  0  0  0  0  0
   -1.7770   20.7220  -28.0380 C   0  0  0  0  0  0  0  0  0  0  0  0
   -2.9390   21.3910  -27.6440 C   0  0  0  0  0  0  0  0  0  0  0  0
   -3.1780   22.6990  -28.0790 C   0  0  0  0  0  0  0  0  0  0  0  0
   -5.7746   25.0347  -28.8768 H   0  0  0  0  0  0  0  0  0  0  0  0
   -7.8490   23.7613  -29.4116 H   0  0  0  0  0  0  0  0  0  0  0  0
   -6.1289   20.7267  -32.8878 H   0  0  0  0  0  0  0  0  0  0  0  0
   -6.7824   20.0424  -31.3429 H   0  0  0  0  0  0  0  0  0  0  0  0
   -6.9831   18.7162  -34.0886 H   0  0  0  0  0  0  0  0  0  0  0  0
   -5.7955   18.2946  -32.7923 H   0  0  0  0  0  0  0  0  0  0  0  0
   -8.1489   16.9964  -33.0943 H   0  0  0  0  0  0  0  0  0  0  0  0
   -7.3545   17.2771  -31.4801 H   0  0  0  0  0  0  0  0  0  0  0  0
   -9.9507   17.8189  -31.9016 H   0  0  0  0  0  0  0  0  0  0  0  0
   -8.9026   18.8133  -30.8122 H   0  0  0  0  0  0  0  0  0  0  0  0
   -9.5677   19.4205  -33.7339 H   0  0  0  0  0  0  0  0  0  0  0  0
  -10.2278   20.2558  -32.2544 H   0  0  0  0  0  0  0  0  0  0  0  0
   -5.8953   22.0287  -32.8636 H   0  0  0  0  0  0  0  0  0  0  0  0
   -3.8076   23.2714  -32.3068 H   0  0  0  0  0  0  0  0  0  0  0  0
   -0.3683   23.1532  -29.9811 H   0  0  0  0  0  0  0  0  0  0  0  0
    0.0540   20.8265  -29.1917 H   0  0  0  0  0  0  0  0  0  0  0  0
   -1.5871   19.6965  -27.6883 H   0  0  0  0  0  0  0  0  0  0  0  0
   -3.6671   20.8882  -26.9906 H   0  0  0  0  0  0  0  0  0  0  0  0
   -4.0976   23.2184  -27.7716 H   0  0  0  0  0  0  0  0  0  0  0  0
  1  2  2  0
  2  3  1  0
  3  4  1  0
  4  5  2  0
  5  6  1  0
  6  7  2  0
  7  8  1  0
  8  9  2  0
  8 10  2  0
  8 11  1  0
 11 12  1  0
 12 13  1  0
 13 14  1  0
 14 15  1  0
 15 16  1  0
  7 17  1  0
 17 18  2  0
  2 19  1  0
 19 20  2  0
 20 21  1  0
 21 22  2  0
 22 23  1  0
 23 24  2  0
 18  4  1  0
 24 19  1  0
 16 11  1  0
  5 25  1  0
  6 26  1  0
 12 27  1  0
 12 28  1  0
 13 29  1  0
 13 30  1  0
 14 31  1  0
 14 32  1  0
 15 33  1  0
 15 34  1  0
 16 35  1  0
 16 36  1  0
 17 37  1  0
 18 38  1  0
 20 39  1  0
 21 40  1  0
 22 41  1  0
 23 42  1  0
 24 43  1  0
M  CHG  1   3  -1
M  END
>  <UniqueID>  (38) 
37

>  <SMILES>  (38) 
O=C([N-]c1ccc(S(=O)(=O)N2CCCCC2)cc1)c1ccccc1

>  <Energy>  (38) 
54.75106919506404

>  <Genealogy>  (38) 
O=C([N-]c1ccc(S(=O)(=O)N2CCCCC2)cc1)c1ccccc1 (protonated)
O=C([N-]c1ccc(S(=O)(=O)N2CCCCC2)cc1)c1ccccc1 (3D coordinates assigned)
O=C([N-]c1ccc(S(=O)(=O)N2CCCCC2)cc1)c1ccccc1 (nonaromatic ring conformer: 54.75106919506404 kcal/mol)

>  <smiles>  (38) 
O=C(Nc1ccc(S(=O)(=O)N2CCCCC2)cc1)c1ccccc1

>  <score_type>  (38) 
oracle

>  <origin>  (38) 
adgpu

>  <m_score__min__energy>  (38) 
-11.42

>  <m_primary>  (38) 
energy

$$$$
38:0
     RDKit          3D

 43 45  0  0  0  0  0  0  0  0999 V2000
   -8.5390   20.1860  -31.4670 C   0  0  0  0  0  0  0  0  0  0  0  0
   -7.2070   19.8670  -32.0000 N   0  0  0  0  0  0  0  0  0  0  0  0
   -7.1560   20.1330  -33.4590 C   0  0  0  0  0  0  0  0  0  0  0  0
   -6.0180   19.3710  -34.1710 C   0  0  0  0  0  0  0  0  0  0  0  0
   -4.9750   18.9760  -33.2170 N   0  0  0  0  0  0  0  0  0  0  0  0
   -3.6250   19.4450  -33.3800 C   0  0  0  0  0  0  0  0  0  0  0  0
   -2.6360   18.5440  -33.8060 C   0  0  0  0  0  0  0  0  0  0  0  0
   -1.3370   18.9860  -34.0660 C   0  0  0  0  0  0  0  0  0  0  0  0
   -1.0150   20.3350  -33.9160 C   0  0  0  0  0  0  0  0  0  0  0  0
   -1.9870   21.2420  -33.4890 C   0  0  0  0  0  0  0  0  0  0  0  0
   -3.2890   20.8090  -33.1960 C   0  0  0  0  0  0  0  0  0  0  0  0
   -4.2440   21.7690  -32.7160 N   0  0  0  0  0  0  0  0  0  0  0  0
   -3.9830   22.6300  -31.5950 C   0  0  0  0  0  0  0  0  0  0  0  0
   -2.8140   22.6960  -31.1230 O   0  0  0  0  0  0  0  0  0  0  0  0
   -5.0470   23.4920  -31.0230 C   0  0  0  0  0  0  0  0  0  0  0  0
   -6.3800   23.0380  -31.0390 C   0  0  0  0  0  0  0  0  0  0  0  0
   -7.4060   23.8200  -30.5060 C   0  0  0  0  0  0  0  0  0  0  0  0
   -7.1200   25.0690  -29.9540 C   0  0  0  0  0  0  0  0  0  0  0  0
   -5.8080   25.5420  -29.9410 C   0  0  0  0  0  0  0  0  0  0  0  0
   -4.7710   24.7680  -30.4780 C   0  0  0  0  0  0  0  0  0  0  0  0
   -3.4840   25.2930  -30.4810 O   0  0  0  0  0  0  0  0  0  0  0  0
   -5.3580   18.2640  -31.9910 C   0  0  0  0  0  0  0  0  0  0  0  0
   -6.8450   18.4730  -31.6890 C   0  0  0  0  0  0  0  0  0  0  0  0
   -8.5055   20.1780  -30.3675 H   0  0  0  0  0  0  0  0  0  0  0  0
   -8.8450   21.1828  -31.8173 H   0  0  0  0  0  0  0  0  0  0  0  0
   -9.2634   19.4359  -31.8173 H   0  0  0  0  0  0  0  0  0  0  0  0
   -8.1144   19.8284  -33.9047 H   0  0  0  0  0  0  0  0  0  0  0  0
   -6.9654   21.2083  -33.5912 H   0  0  0  0  0  0  0  0  0  0  0  0
   -6.4310   18.4693  -34.6468 H   0  0  0  0  0  0  0  0  0  0  0  0
   -5.5705   20.0335  -34.9265 H   0  0  0  0  0  0  0  0  0  0  0  0
   -2.8865   17.4808  -33.9361 H   0  0  0  0  0  0  0  0  0  0  0  0
   -0.5672   18.2699  -34.3893 H   0  0  0  0  0  0  0  0  0  0  0  0
    0.0050   20.6843  -34.1342 H   0  0  0  0  0  0  0  0  0  0  0  0
   -1.7295   22.3060  -33.3813 H   0  0  0  0  0  0  0  0  0  0  0  0
   -5.0310   22.0250  -33.3540 H   0  0  0  0  0  0  0  0  0  0  0  0
   -6.6152   22.0564  -31.4763 H   0  0  0  0  0  0  0  0  0  0  0  0
   -8.4421   23.4508  -30.5212 H   0  0  0  0  0  0  0  0  0  0  0  0
   -7.9294   25.6808  -29.5290 H   0  0  0  0  0  0  0  0  0  0  0  0
   -5.5863   26.5280  -29.5068 H   0  0  0  0  0  0  0  0  0  0  0  0
   -5.1630   17.1893  -32.1211 H   0  0  0  0  0  0  0  0  0  0  0  0
   -4.7666   18.6589  -31.1518 H   0  0  0  0  0  0  0  0  0  0  0  0
   -7.4462   17.7894  -32.3064 H   0  0  0  0  0  0  0  0  0  0  0  0
   -7.0407   18.2667  -30.6264 H   0  0  0  0  0  0  0  0  0  0  0  0
  1  2  1  0
  2  3  1  0
  3  4  1  0
  4  5  1  0
  5  6  1  0
  6  7  2  0
  7  8  1  0
  8  9  2  0
  9 10  1  0
 10 11  2  0
 11 12  1  0
 12 13  1  0
 13 14  2  0
 13 15  1  0
 15 16  2  0
 16 17  1  0
 17 18  2  0
 18 19  1  0
 19 20  2  0
 20 21  1  0
  5 22  1  0
 22 23  1  0
 23  2  1  0
 11  6  1  0
 20 15  1  0
  1 24  1  0
  1 25  1  0
  1 26  1  0
  3 27  1  0
  3 28  1  0
  4 29  1  0
  4 30  1  0
  7 31  1  0
  8 32  1  0
  9 33  1  0
 10 34  1  0
 12 35  1  0
 16 36  1  0
 17 37  1  0
 18 38  1  0
 19 39  1  0
 22 40  1  0
 22 41  1  0
 23 42  1  0
 23 43  1  0
M  CHG  1  21  -1
M  END
>  <UniqueID>  (39) 
38

>  <SMILES>  (39) 
CN1CCN(c2ccccc2NC(=O)c2ccccc2[O-])CC1

>  <Energy>  (39) 
62.8635396671074

>  <Genealogy>  (39) 
CN1CCN(c2ccccc2NC(=O)c2ccccc2[O-])CC1 (protonated)
CN1CCN(c2ccccc2NC(=O)c2ccccc2[O-])CC1 (3D coordinates assigned)
CN1CCN(c2ccccc2NC(=O)c2ccccc2[O-])CC1 (nonaromatic ring conformer: 62.8635396671074 kcal/mol)

>  <smiles>  (39) 
CN1CCN(c2ccccc2NC(=O)c2ccccc2O)CC1

>  <score_type>  (39) 
oracle

>  <origin>  (39) 
adgpu

>  <m_score__min__energy>  (39) 
-11.390000000000001

>  <m_primary>  (39) 
energy

$$$$
39:0
     RDKit          3D

 54 57  0  0  0  0  0  0  0  0999 V2000
   -1.3110   24.8850  -25.2530 C   0  0  0  0  0  0  0  0  0  0  0  0
   -1.9020   24.7370  -26.6230 C   0  0  0  0  0  0  0  0  0  0  0  0
   -1.0870   24.8380  -27.7610 C   0  0  0  0  0  0  0  0  0  0  0  0
   -1.6450   24.7370  -29.0390 C   0  0  0  0  0  0  0  0  0  0  0  0
   -3.0280   24.5360  -29.1960 C   0  0  0  0  0  0  0  0  0  0  0  0
   -3.6270   24.4460  -30.4610 O   0  0  0  0  0  0  0  0  0  0  0  0
   -3.9360   23.2520  -31.1310 C   0  0  0  0  0  0  0  0  0  0  0  0
   -2.9350   22.3910  -31.6160 C   0  0  0  0  0  0  0  0  0  0  0  0
   -3.2830   21.2010  -32.2620 C   0  0  0  0  0  0  0  0  0  0  0  0
   -4.6310   20.8470  -32.4250 C   0  0  0  0  0  0  0  0  0  0  0  0
   -4.9890   19.6220  -33.0910 N   0  0  0  0  0  0  0  0  0  0  0  0
   -6.1500   19.3310  -33.7190 C   0  0  0  0  0  0  0  0  0  0  0  0
   -7.2160   20.2140  -33.8590 O   0  0  0  0  0  0  0  0  0  0  0  0
   -6.1040   18.0410  -34.2100 C   0  0  0  0  0  0  0  0  0  0  0  0
   -4.8990   17.5240  -33.8950 N   0  0  0  0  0  0  0  0  0  0  0  0
   -4.4500   16.1540  -34.1360 C   0  0  0  0  0  0  0  0  0  0  0  0
   -2.9540   16.0760  -34.0070 C   0  0  0  0  0  0  0  0  0  0  0  0
   -2.1300   16.7860  -34.8930 C   0  0  0  0  0  0  0  0  0  0  0  0
   -0.7350   16.7800  -34.7340 C   0  0  0  0  0  0  0  0  0  0  0  0
    0.1470   17.5170  -35.7110 C   0  0  0  0  0  0  0  0  0  0  0  0
   -0.0380   16.9920  -36.9760 F   0  0  0  0  0  0  0  0  0  0  0  0
   -0.1640   18.8660  -35.7320 F   0  0  0  0  0  0  0  0  0  0  0  0
    1.4800   17.3880  -35.3590 F   0  0  0  0  0  0  0  0  0  0  0  0
   -0.1670   16.0120  -33.7030 C   0  0  0  0  0  0  0  0  0  0  0  0
   -0.9790   15.2840  -32.8170 C   0  0  0  0  0  0  0  0  0  0  0  0
   -0.3650   14.5230  -31.6690 C   0  0  0  0  0  0  0  0  0  0  0  0
    0.7840   13.8670  -32.0750 F   0  0  0  0  0  0  0  0  0  0  0  0
   -1.2740   13.5910  -31.2030 F   0  0  0  0  0  0  0  0  0  0  0  0
   -0.0290   15.3810  -30.6360 F   0  0  0  0  0  0  0  0  0  0  0  0
   -2.3750   15.3500  -32.9580 C   0  0  0  0  0  0  0  0  0  0  0  0
   -4.2540   18.4940  -33.2100 C   0  0  0  0  0  0  0  0  0  0  0  0
   -3.1070   18.3460  -32.7080 O   0  0  0  0  0  0  0  0  0  0  0  0
   -5.6270   21.7010  -31.9220 C   0  0  0  0  0  0  0  0  0  0  0  0
   -5.2790   22.8890  -31.2740 C   0  0  0  0  0  0  0  0  0  0  0  0
   -3.8440   24.4730  -28.0600 C   0  0  0  0  0  0  0  0  0  0  0  0
   -3.2870   24.5730  -26.7820 C   0  0  0  0  0  0  0  0  0  0  0  0
   -2.0857   24.6910  -24.4966 H   0  0  0  0  0  0  0  0  0  0  0  0
   -0.4887   24.1651  -25.1287 H   0  0  0  0  0  0  0  0  0  0  0  0
   -0.9250   25.9075  -25.1287 H   0  0  0  0  0  0  0  0  0  0  0  0
   -0.0046   24.9973  -27.6470 H   0  0  0  0  0  0  0  0  0  0  0  0
   -0.9991   24.8151  -29.9260 H   0  0  0  0  0  0  0  0  0  0  0  0
   -1.8750   22.6548  -31.4866 H   0  0  0  0  0  0  0  0  0  0  0  0
   -2.4941   20.5372  -32.6454 H   0  0  0  0  0  0  0  0  0  0  0  0
   -7.9060   20.0830  -34.5890 H   0  0  0  0  0  0  0  0  0  0  0  0
   -6.9065   17.5273  -34.7596 H   0  0  0  0  0  0  0  0  0  0  0  0
   -4.9152   15.4827  -33.3991 H   0  0  0  0  0  0  0  0  0  0  0  0
   -4.7424   15.8503  -35.1520 H   0  0  0  0  0  0  0  0  0  0  0  0
   -2.5813   17.3530  -35.7205 H   0  0  0  0  0  0  0  0  0  0  0  0
    0.9265   15.9805  -33.5883 H   0  0  0  0  0  0  0  0  0  0  0  0
   -3.0203   14.8263  -32.2374 H   0  0  0  0  0  0  0  0  0  0  0  0
   -6.6873   21.4326  -32.0391 H   0  0  0  0  0  0  0  0  0  0  0  0
   -6.0671   23.5435  -30.8734 H   0  0  0  0  0  0  0  0  0  0  0  0
   -4.9304   24.3440  -28.1740 H   0  0  0  0  0  0  0  0  0  0  0  0
   -3.9373   24.5229  -25.8962 H   0  0  0  0  0  0  0  0  0  0  0  0
  1  2  1  0
  2  3  2  0
  3  4  1  0
  4  5  2  0
  5  6  1  0
  6  7  1  0
  7  8  2  0
  8  9  1  0
  9 10  2  0
 10 11  1  0
 11 12  1  0
 12 13  1  0
 12 14  2  0
 14 15  1  0
 15 16  1  0
 16 17  1  0
 17 18  2  0
 18 19  1  0
 19 20  1  0
 20 21  1  0
 20 22  1  0
 20 23  1  0
 19 24  2  0
 24 25  1  0
 25 26  1  0
 26 27  1  0
 26 28  1  0
 26 29  1  0
 25 30  2  0
 15 31  1  0
 31 32  2  0
 10 33  1  0
 33 34  2  0
  5 35  1  0
 35 36  2  0
 36  2  1  0
 34  7  1  0
 31 11  1  0
 30 17  1  0
  1 37  1  0
  1 38  1  0
  1 39  1  0
  3 40  1  0
  4 41  1  0
  8 42  1  0
  9 43  1  0
 13 44  1  0
 14 45  1  0
 16 46  1  0
 16 47  1  0
 18 48  1  0
 24 49  1  0
 30 50  1  0
 33 51  1  0
 34 52  1  0
 35 53  1  0
 36 54  1  0
M  END
>  <UniqueID>  (40) 
39

>  <SMILES>  (40) 
Cc1ccc(Oc2ccc(-n3c(O)cn(Cc4cc(C(F)(F)F)cc(C(F)(F)F)c4)c3=O)cc2)cc1

>  <Energy>  (40) 
102.03627911573791

>  <Genealogy>  (40) 
Cc1ccc(Oc2ccc(-n3c(O)cn(Cc4cc(C(F)(F)F)cc(C(F)(F)F)c4)c3=O)cc2)cc1 (3D coordinates assigned)
Cc1ccc(Oc2ccc(-n3c(O)cn(Cc4cc(C(F)(F)F)cc(C(F)(F)F)c4)c3=O)cc2)cc1 (optimized conformer: 102.03627911573791 kcal/mol)

>  <smiles>  (40) 
Cc1ccc(Oc2ccc(-n3c(O)cn(Cc4cc(C(F)(F)F)cc(C(F)(F)F)c4)c3=O)cc2)cc1

>  <score_type>  (40) 
oracle

>  <origin>  (40) 
adgpu

>  <m_score__min__energy>  (40) 
-8.3399999999999999

>  <m_primary>  (40) 
energy

$$$$
40:0
     RDKit          3D

 57 60  0  0  0  0  0  0  0  0999 V2000
   -6.0360   24.9900  -30.3490 C   0  0  0  0  0  0  0  0  0  0  0  0
   -5.6570   23.5140  -30.4500 C   0  0  0  0  0  0  0  0  0  0  0  0
   -5.3240   23.0920  -31.8860 C   0  0  0  0  0  0  0  0  0  0  0  0
   -5.9940   21.8360  -32.2370 N   0  0  0  0  0  0  0  0  0  0  0  0
   -5.4040   20.6740  -32.6120 C   0  0  0  0  0  0  0  0  0  0  0  0
   -4.1570   20.5530  -32.7220 O   0  0  0  0  0  0  0  0  0  0  0  0
   -6.2940   19.6630  -32.8370 N   0  0  0  0  0  0  0  0  0  0  0  0
   -6.0910   18.2730  -33.3040 C   0  0  2  0  0  0  0  0  0  0  0  0
   -5.1220   17.4440  -32.4210 C   0  0  0  0  0  0  0  0  0  0  0  0
   -3.6200   17.5530  -32.7900 C   0  0  0  0  0  0  0  0  0  0  0  0
   -3.3760   18.2680  -34.0600 N   0  0  1  0  0  0  0  0  0  0  0  0
   -1.9980   18.0770  -34.4740 C   0  0  0  0  0  0  0  0  0  0  0  0
   -1.5710   16.9100  -34.7010 O   0  0  0  0  0  0  0  0  0  0  0  0
   -1.0570   19.2220  -34.6180 C   0  0  0  0  0  0  0  0  0  0  0  0
    0.1450   19.1030  -35.3400 C   0  0  0  0  0  0  0  0  0  0  0  0
    1.0110   20.1930  -35.4630 C   0  0  0  0  0  0  0  0  0  0  0  0
    0.6900   21.4270  -34.8700 C   0  0  0  0  0  0  0  0  0  0  0  0
    1.5290   22.5480  -34.9640 O   0  0  0  0  0  0  0  0  0  0  0  0
    1.3310   23.6260  -35.8730 C   0  0  0  0  0  0  0  0  0  0  0  0
   -0.5080   21.5500  -34.1620 C   0  0  0  0  0  0  0  0  0  0  0  0
   -1.3770   20.4620  -34.0380 C   0  0  0  0  0  0  0  0  0  0  0  0
   -4.2980   17.7880  -35.1050 C   0  0  0  0  0  0  0  0  0  0  0  0
   -5.7350   18.2440  -34.8140 C   0  0  0  0  0  0  0  0  0  0  0  0
   -7.4910   20.2430  -32.5820 C   0  0  0  0  0  0  0  0  0  0  0  0
   -8.7680   19.6770  -32.6580 C   0  0  0  0  0  0  0  0  0  0  0  0
   -9.8690   20.4910  -32.3360 C   0  0  0  0  0  0  0  0  0  0  0  0
   -9.6780   21.8350  -31.9520 C   0  0  0  0  0  0  0  0  0  0  0  0
   -8.3840   22.3820  -31.8890 C   0  0  0  0  0  0  0  0  0  0  0  0
   -7.3100   21.5510  -32.2160 C   0  0  0  0  0  0  0  0  0  0  0  0
   -6.1099   25.2779  -29.2899 H   0  0  0  0  0  0  0  0  0  0  0  0
   -5.2656   25.6010  -30.8422 H   0  0  0  0  0  0  0  0  0  0  0  0
   -7.0054   25.1542  -30.8422 H   0  0  0  0  0  0  0  0  0  0  0  0
   -4.7774   23.3311  -29.8153 H   0  0  0  0  0  0  0  0  0  0  0  0
   -6.5234   22.9223  -30.1193 H   0  0  0  0  0  0  0  0  0  0  0  0
   -5.6545   23.8808  -32.5778 H   0  0  0  0  0  0  0  0  0  0  0  0
   -4.2371   22.9407  -31.9621 H   0  0  0  0  0  0  0  0  0  0  0  0
   -7.0540   17.7548  -33.1853 H   0  0  0  0  0  0  0  0  0  0  0  0
   -5.2402   17.7809  -31.3806 H   0  0  0  0  0  0  0  0  0  0  0  0
   -5.3955   16.3907  -32.5812 H   0  0  0  0  0  0  0  0  0  0  0  0
   -3.1011   18.0903  -31.9825 H   0  0  0  0  0  0  0  0  0  0  0  0
   -3.2428   16.5277  -32.9180 H   0  0  0  0  0  0  0  0  0  0  0  0
   -3.5530   19.2910  -33.9290 H   0  0  0  0  0  0  0  0  0  0  0  0
    0.4052   18.1439  -35.8116 H   0  0  0  0  0  0  0  0  0  0  0  0
    1.9492   20.0850  -36.0270 H   0  0  0  0  0  0  0  0  0  0  0  0
    1.1604   24.5547  -35.3088 H   0  0  0  0  0  0  0  0  0  0  0  0
    2.2232   23.7403  -36.5062 H   0  0  0  0  0  0  0  0  0  0  0  0
    0.4564   23.4158  -36.5062 H   0  0  0  0  0  0  0  0  0  0  0  0
   -0.7700   22.5121  -33.6977 H   0  0  0  0  0  0  0  0  0  0  0  0
   -2.3191   20.5771  -33.4819 H   0  0  0  0  0  0  0  0  0  0  0  0
   -3.9816   18.1912  -36.0783 H   0  0  0  0  0  0  0  0  0  0  0  0
   -4.2727   16.6884  -35.1202 H   0  0  0  0  0  0  0  0  0  0  0  0
   -5.8658   19.2578  -35.2204 H   0  0  0  0  0  0  0  0  0  0  0  0
   -6.4049   17.5104  -35.2863 H   0  0  0  0  0  0  0  0  0  0  0  0
   -8.9068   18.6284  -32.9601 H   0  0  0  0  0  0  0  0  0  0  0  0
  -10.8868   20.0765  -32.3840 H   0  0  0  0  0  0  0  0  0  0  0  0
  -10.5477   22.4597  -31.7000 H   0  0  0  0  0  0  0  0  0  0  0  0
   -8.2231   23.4289  -31.5922 H   0  0  0  0  0  0  0  0  0  0  0  0
  1  2  1  0
  2  3  1  0
  3  4  1  0
  4  5  1  0
  5  6  2  0
  5  7  1  0
  7  8  1  0
  8  9  1  0
  9 10  1  0
 10 11  1  0
 11 12  1  0
 12 13  2  0
 12 14  1  0
 14 15  2  0
 15 16  1  0
 16 17  2  0
 17 18  1  0
 18 19  1  0
 17 20  1  0
 20 21  2  0
 11 22  1  0
 22 23  1  0
  7 24  1  0
 24 25  2  0
 25 26  1  0
 26 27  2  0
 27 28  1  0
 28 29  2  0
 29  4  1  0
 23  8  1  0
 29 24  1  0
 21 14  1  0
  1 30  1  0
  1 31  1  0
  1 32  1  0
  2 33  1  0
  2 34  1  0
  3 35  1  0
  3 36  1  0
  8 37  1  6
  9 38  1  0
  9 39  1  0
 10 40  1  0
 10 41  1  0
 11 42  1  1
 15 43  1  0
 16 44  1  0
 19 45  1  0
 19 46  1  0
 19 47  1  0
 20 48  1  0
 21 49  1  0
 22 50  1  0
 22 51  1  0
 23 52  1  0
 23 53  1  0
 25 54  1  0
 26 55  1  0
 27 56  1  0
 28 57  1  0
M  CHG  1  11   1
M  END
>  <UniqueID>  (41) 
40

>  <SMILES>  (41) 
CCCn1c(=O)n(C2CC[NH+](C(=O)c3ccc(OC)cc3)CC2)c2ccccc21

>  <Energy>  (41) 
112.14249024413881

>  <Genealogy>  (41) 
CCCn1c(=O)n(C2CC[NH+](C(=O)c3ccc(OC)cc3)CC2)c2ccccc21 (protonated)
CCCn1c(=O)n(C2CC[NH+](C(=O)c3ccc(OC)cc3)CC2)c2ccccc21 (3D coordinates assigned)
CCCn1c(=O)n(C2CC[NH+](C(=O)c3ccc(OC)cc3)CC2)c2ccccc21 (nonaromatic ring conformer: 112.14249024413881 kcal/mol)

>  <smiles>  (41) 
CCCn1c(=O)n(C2CCN(C(=O)c3ccc(OC)cc3)CC2)c2ccccc21

>  <score_type>  (41) 
oracle

>  <origin>  (41) 
adgpu

>  <m_score__min__energy>  (41) 
-7.7199999999999998

>  <m_primary>  (41) 
energy

$$$$
41:0
     RDKit          3D

 38 40  0  0  0  0  0  0  0  0999 V2000
   -4.3340   16.4360  -33.2390 C   0  0  0  0  0  0  0  0  0  0  0  0
   -5.1560   17.6020  -33.6860 C   0  0  0  0  0  0  0  0  0  0  0  0
   -5.4060   17.8800  -34.9790 N   0  0  0  0  0  0  0  0  0  0  0  0
   -6.1550   18.9410  -35.0030 O   0  0  0  0  0  0  0  0  0  0  0  0
   -6.4130   19.3770  -33.7910 C   0  0  0  0  0  0  0  0  0  0  0  0
   -7.1780   20.4150  -33.5960 N   0  0  0  0  0  0  0  0  0  0  0  0
   -7.7050   21.1520  -32.1140 S   0  0  0  0  0  0  0  0  0  0  0  0
   -7.9360   20.0660  -31.1020 O   0  0  0  0  0  0  0  0  0  0  0  0
   -9.0040   21.8720  -32.3440 O   0  0  0  0  0  0  0  0  0  0  0  0
   -6.4710   22.2290  -31.4760 C   0  0  0  0  0  0  0  0  0  0  0  0
   -6.8320   23.4000  -30.7970 C   0  0  0  0  0  0  0  0  0  0  0  0
   -5.8460   24.2930  -30.3650 C   0  0  0  0  0  0  0  0  0  0  0  0
   -4.4950   24.0300  -30.6190 C   0  0  0  0  0  0  0  0  0  0  0  0
   -3.5080   24.9850  -30.2080 N   0  0  0  0  0  0  0  0  0  0  0  0
   -2.4330   24.7240  -29.2950 C   0  0  0  0  0  0  0  0  0  0  0  0
   -1.6580   25.6670  -28.9860 O   0  0  0  0  0  0  0  0  0  0  0  0
   -2.1780   23.3720  -28.7580 C   0  0  0  0  0  0  0  0  0  0  0  0
   -2.9850   22.6980  -27.8490 C   0  0  0  0  0  0  0  0  0  0  0  0
   -2.4790   21.4460  -27.4790 C   0  0  0  0  0  0  0  0  0  0  0  0
   -1.2670   21.1330  -28.0800 C   0  0  0  0  0  0  0  0  0  0  0  0
   -0.8260   22.4160  -29.0700 S   0  0  0  0  0  0  0  0  0  0  0  0
   -4.1320   22.8270  -31.2450 C   0  0  0  0  0  0  0  0  0  0  0  0
   -5.1160   21.9330  -31.6730 C   0  0  0  0  0  0  0  0  0  0  0  0
   -5.7620   18.5490  -32.8730 C   0  0  0  0  0  0  0  0  0  0  0  0
   -5.7260   18.5490  -31.3740 C   0  0  0  0  0  0  0  0  0  0  0  0
   -4.3111   16.4035  -32.1397 H   0  0  0  0  0  0  0  0  0  0  0  0
   -4.7771   15.5058  -33.6242 H   0  0  0  0  0  0  0  0  0  0  0  0
   -3.3090   16.5408  -33.6242 H   0  0  0  0  0  0  0  0  0  0  0  0
   -7.8927   23.6175  -30.6033 H   0  0  0  0  0  0  0  0  0  0  0  0
   -6.1336   25.2061  -29.8232 H   0  0  0  0  0  0  0  0  0  0  0  0
   -3.9283   23.1078  -27.4587 H   0  0  0  0  0  0  0  0  0  0  0  0
   -2.9937   20.7730  -26.7775 H   0  0  0  0  0  0  0  0  0  0  0  0
   -0.6947   20.2052  -27.9331 H   0  0  0  0  0  0  0  0  0  0  0  0
   -3.0694   22.5878  -31.3989 H   0  0  0  0  0  0  0  0  0  0  0  0
   -4.8261   20.9935  -32.1663 H   0  0  0  0  0  0  0  0  0  0  0  0
   -5.7172   17.5119  -31.0074 H   0  0  0  0  0  0  0  0  0  0  0  0
   -4.8193   19.0675  -31.0290 H   0  0  0  0  0  0  0  0  0  0  0  0
   -6.6151   19.0675  -30.9859 H   0  0  0  0  0  0  0  0  0  0  0  0
  1  2  1  0
  2  3  1  0
  3  4  1  0
  4  5  1  0
  5  6  2  3
  6  7  1  0
  7  8  2  0
  7  9  2  0
  7 10  1  0
 10 11  2  0
 11 12  1  0
 12 13  2  0
 13 14  1  0
 14 15  1  0
 15 16  2  0
 15 17  1  0
 17 18  2  0
 18 19  1  0
 19 20  2  0
 20 21  1  0
 13 22  1  0
 22 23  2  0
  5 24  1  0
 24 25  1  0
 24  2  2  0
 23 10  1  0
 21 17  1  0
  1 26  1  0
  1 27  1  0
  1 28  1  0
 11 29  1  0
 12 30  1  0
 18 31  1  0
 19 32  1  0
 20 33  1  0
 22 34  1  0
 23 35  1  0
 25 36  1  0
 25 37  1  0
 25 38  1  0
M  CHG  2   3  -1  14  -1
M  END
>  <UniqueID>  (42) 
41

>  <SMILES>  (42) 
Cc1[n-]oc(=NS(=O)(=O)c2ccc([N-]C(=O)c3cccs3)cc2)c1C

>  <Energy>  (42) 
109.77909131624261

>  <Genealogy>  (42) 
Cc1[n-]oc(=NS(=O)(=O)c2ccc([N-]C(=O)c3cccs3)cc2)c1C (protonated)
Cc1[n-]oc(=NS(=O)(=O)c2ccc([N-]C(=O)c3cccs3)cc2)c1C (3D coordinates assigned)
Cc1[n-]oc(=NS(=O)(=O)c2ccc([N-]C(=O)c3cccs3)cc2)c1C (optimized conformer: 109.77909131624261 kcal/mol)

>  <smiles>  (42) 
Cc1[nH]oc(=NS(=O)(=O)c2ccc(NC(=O)c3cccs3)cc2)c1C

>  <score_type>  (42) 
oracle

>  <origin>  (42) 
adgpu

>  <m_score__min__energy>  (42) 
-10.33

>  <m_primary>  (42) 
energy

$$$$
42:0
     RDKit          3D

 43 45  0  0  0  0  0  0  0  0999 V2000
   -0.4310   22.6770  -23.7510 C   0  0  0  0  0  0  0  0  0  0  0  0
   -0.5100   22.4780  -25.1580 O   0  0  0  0  0  0  0  0  0  0  0  0
   -0.7760   23.4920  -26.0890 C   0  0  0  0  0  0  0  0  0  0  0  0
   -0.5690   24.8520  -25.8020 C   0  0  0  0  0  0  0  0  0  0  0  0
   -0.8500   25.8220  -26.7630 C   0  0  0  0  0  0  0  0  0  0  0  0
   -1.3400   25.4550  -28.0190 C   0  0  0  0  0  0  0  0  0  0  0  0
   -1.6030   26.4560  -28.9480 O   0  0  0  0  0  0  0  0  0  0  0  0
   -1.5550   24.0920  -28.3280 C   0  0  0  0  0  0  0  0  0  0  0  0
   -2.0720   23.6610  -29.6550 C   0  0  0  0  0  0  0  0  0  0  0  0
   -1.4950   22.7400  -30.2930 O   0  0  0  0  0  0  0  0  0  0  0  0
   -3.1970   24.3350  -30.2370 N   0  0  0  0  0  0  0  0  0  0  0  0
   -4.4410   23.7500  -30.6470 C   0  0  0  0  0  0  0  0  0  0  0  0
   -5.5460   24.5910  -30.8350 C   0  0  0  0  0  0  0  0  0  0  0  0
   -6.7870   24.0610  -31.1990 C   0  0  0  0  0  0  0  0  0  0  0  0
   -6.9380   22.6790  -31.3710 C   0  0  0  0  0  0  0  0  0  0  0  0
   -8.4970   21.9960  -31.8120 S   0  0  0  0  0  0  0  0  0  0  0  0
   -9.1020   21.3480  -30.5990 O   0  0  0  0  0  0  0  0  0  0  0  0
   -9.4310   23.0630  -32.3100 O   0  0  0  0  0  0  0  0  0  0  0  0
   -8.2910   20.8010  -33.0490 N   0  0  0  0  0  0  0  0  0  0  0  0
   -7.2950   19.7690  -33.0510 C   0  0  0  0  0  0  0  0  0  0  0  0
   -6.0570   19.9340  -33.7020 C   0  0  0  0  0  0  0  0  0  0  0  0
   -5.1130   18.9030  -33.6910 C   0  0  0  0  0  0  0  0  0  0  0  0
   -5.3920   17.7030  -33.0340 C   0  0  0  0  0  0  0  0  0  0  0  0
   -6.6180   17.5290  -32.3920 C   0  0  0  0  0  0  0  0  0  0  0  0
   -7.5690   18.5560  -32.3980 C   0  0  0  0  0  0  0  0  0  0  0  0
   -9.1040   18.3020  -31.5850 Cl  0  0  0  0  0  0  0  0  0  0  0  0
   -5.8420   21.8330  -31.1680 C   0  0  0  0  0  0  0  0  0  0  0  0
   -4.6020   22.3610  -30.8000 C   0  0  0  0  0  0  0  0  0  0  0  0
   -1.2640   23.1230  -27.3470 C   0  0  0  0  0  0  0  0  0  0  0  0
   -0.7890   21.7753  -23.2325 H   0  0  0  0  0  0  0  0  0  0  0  0
    0.6133   22.8733  -23.4665 H   0  0  0  0  0  0  0  0  0  0  0  0
   -1.0563   23.5361  -23.4665 H   0  0  0  0  0  0  0  0  0  0  0  0
   -0.1841   25.1520  -24.8162 H   0  0  0  0  0  0  0  0  0  0  0  0
   -0.6847   26.8844  -26.5307 H   0  0  0  0  0  0  0  0  0  0  0  0
   -5.4359   25.6765  -30.6950 H   0  0  0  0  0  0  0  0  0  0  0  0
   -7.6467   24.7303  -31.3507 H   0  0  0  0  0  0  0  0  0  0  0  0
   -5.8321   20.8775  -34.2209 H   0  0  0  0  0  0  0  0  0  0  0  0
   -4.1478   19.0375  -34.2013 H   0  0  0  0  0  0  0  0  0  0  0  0
   -4.6454   16.8953  -33.0227 H   0  0  0  0  0  0  0  0  0  0  0  0
   -6.8383   16.5812  -31.8791 H   0  0  0  0  0  0  0  0  0  0  0  0
   -5.9573   20.7469  -31.2988 H   0  0  0  0  0  0  0  0  0  0  0  0
   -3.7486   21.6882  -30.6293 H   0  0  0  0  0  0  0  0  0  0  0  0
   -1.4233   22.0586  -27.5743 H   0  0  0  0  0  0  0  0  0  0  0  0
  1  2  1  0
  2  3  1  0
  3  4  2  0
  4  5  1  0
  5  6  2  0
  6  7  1  0
  6  8  1  0
  8  9  1  0
  9 10  2  0
  9 11  1  0
 11 12  1  0
 12 13  2  0
 13 14  1  0
 14 15  2  0
 15 16  1  0
 16 17  2  0
 16 18  2  0
 16 19  1  0
 19 20  1  0
 20 21  2  0
 21 22  1  0
 22 23  2  0
 23 24  1  0
 24 25  2  0
 25 26  1  0
 15 27  1  0
 27 28  2  0
  8 29  2  0
 29  3  1  0
 28 12  1  0
 25 20  1  0
  1 30  1  0
  1 31  1  0
  1 32  1  0
  4 33  1  0
  5 34  1  0
 13 35  1  0
 14 36  1  0
 21 37  1  0
 22 38  1  0
 23 39  1  0
 24 40  1  0
 27 41  1  0
 28 42  1  0
 29 43  1  0
M  CHG  3   7  -1  11  -1  19  -1
M  END
>  <UniqueID>  (43) 
42

>  <SMILES>  (43) 
COc1ccc([O-])c(C(=O)[N-]c2ccc(S(=O)(=O)[N-]c3ccccc3Cl)cc2)c1

>  <Energy>  (43) 
55.110858689147186

>  <Genealogy>  (43) 
COc1ccc([O-])c(C(=O)[N-]c2ccc(S(=O)(=O)[N-]c3ccccc3Cl)cc2)c1 (protonated)
COc1ccc([O-])c(C(=O)[N-]c2ccc(S(=O)(=O)[N-]c3ccccc3Cl)cc2)c1 (3D coordinates assigned)
COc1ccc([O-])c(C(=O)[N-]c2ccc(S(=O)(=O)[N-]c3ccccc3Cl)cc2)c1 (optimized conformer: 55.110858689147186 kcal/mol)

>  <smiles>  (43) 
COc1ccc(O)c(C(=O)Nc2ccc(S(=O)(=O)Nc3ccccc3Cl)cc2)c1

>  <score_type>  (43) 
oracle

>  <origin>  (43) 
adgpu

>  <m_score__min__energy>  (43) 
-13.119999999999999

>  <m_primary>  (43) 
energy

$$$$
43:0
     RDKit          3D

 44 46  0  0  0  0  0  0  0  0999 V2000
   -6.7700   23.7530  -29.9510 C   0  0  0  0  0  0  0  0  0  0  0  0
   -5.3330   24.4950  -30.6960 S   0  0  0  0  0  0  0  0  0  0  0  0
   -5.7120   25.8500  -31.2200 O   0  0  0  0  0  0  0  0  0  0  0  0
   -4.8420   23.6580  -31.8450 O   0  0  0  0  0  0  0  0  0  0  0  0
   -4.0730   24.6830  -29.5140 N   0  0  0  0  0  0  0  0  0  0  0  0
   -2.8110   23.9870  -29.5380 C   0  0  0  0  0  0  0  0  0  0  0  0
   -2.7300   22.6110  -29.8330 C   0  0  0  0  0  0  0  0  0  0  0  0
   -1.4900   21.9520  -29.8710 C   0  0  0  0  0  0  0  0  0  0  0  0
   -1.4170   20.4740  -30.1980 C   0  0  0  0  0  0  0  0  0  0  0  0
   -1.3990   20.1810  -31.6480 N   0  0  0  0  0  0  0  0  0  0  0  0
   -2.7050   20.3560  -32.3040 C   0  0  0  0  0  0  0  0  0  0  0  0
   -2.5240   20.4700  -33.8300 C   0  0  0  0  0  0  0  0  0  0  0  0
   -1.2640   19.7300  -34.3510 C   0  0  0  0  0  0  0  0  0  0  0  0
   -0.0580   20.6300  -34.5050 C   0  0  0  0  0  0  0  0  0  0  0  0
    1.2770   20.2800  -34.4020 C   0  0  0  0  0  0  0  0  0  0  0  0
    1.9550   21.4410  -34.6950 C   0  0  0  0  0  0  0  0  0  0  0  0
    1.0730   22.4200  -34.9670 N   0  0  0  0  0  0  0  0  0  0  0  0
   -0.1500   21.9270  -34.8560 N   0  0  0  0  0  0  0  0  0  0  0  0
   -0.9290   18.5140  -33.4690 C   0  0  0  0  0  0  0  0  0  0  0  0
   -0.7790   18.8770  -31.9750 C   0  0  0  0  0  0  0  0  0  0  0  0
   -0.3220   22.6720  -29.5830 C   0  0  0  0  0  0  0  0  0  0  0  0
   -0.3890   24.0330  -29.2850 C   0  0  0  0  0  0  0  0  0  0  0  0
   -1.6220   24.6900  -29.2640 C   0  0  0  0  0  0  0  0  0  0  0  0
   -1.6570   26.0480  -28.9660 O   0  0  0  0  0  0  0  0  0  0  0  0
   -6.6804   23.7993  -28.8556 H   0  0  0  0  0  0  0  0  0  0  0  0
   -7.6708   24.2987  -30.2686 H   0  0  0  0  0  0  0  0  0  0  0  0
   -6.8466   22.7026  -30.2686 H   0  0  0  0  0  0  0  0  0  0  0  0
   -4.2680   25.3630  -28.7450 H   0  0  0  0  0  0  0  0  0  0  0  0
   -3.6511   22.0451  -30.0364 H   0  0  0  0  0  0  0  0  0  0  0  0
   -0.4990   20.0652  -29.7506 H   0  0  0  0  0  0  0  0  0  0  0  0
   -2.3278   20.0114  -29.7901 H   0  0  0  0  0  0  0  0  0  0  0  0
   -3.3440   19.4897  -32.0778 H   0  0  0  0  0  0  0  0  0  0  0  0
   -3.1741   21.2775  -31.9288 H   0  0  0  0  0  0  0  0  0  0  0  0
   -3.4100   20.0405  -34.3206 H   0  0  0  0  0  0  0  0  0  0  0  0
   -2.3986   21.5370  -34.0663 H   0  0  0  0  0  0  0  0  0  0  0  0
   -1.5178   19.3771  -35.3615 H   0  0  0  0  0  0  0  0  0  0  0  0
    1.6997   19.2976  -34.1446 H   0  0  0  0  0  0  0  0  0  0  0  0
    3.0494   21.5517  -34.7053 H   0  0  0  0  0  0  0  0  0  0  0  0
   -1.7362   17.7737  -33.5708 H   0  0  0  0  0  0  0  0  0  0  0  0
    0.0379   18.1156  -33.8102 H   0  0  0  0  0  0  0  0  0  0  0  0
   -1.2615   18.0946  -31.3708 H   0  0  0  0  0  0  0  0  0  0  0  0
    0.2959   18.9507  -31.7532 H   0  0  0  0  0  0  0  0  0  0  0  0
    0.6521   22.1611  -29.5921 H   0  0  0  0  0  0  0  0  0  0  0  0
    0.5329   24.5915  -29.0656 H   0  0  0  0  0  0  0  0  0  0  0  0
  1  2  1  0
  2  3  2  0
  2  4  2  0
  2  5  1  0
  5  6  1  0
  6  7  2  0
  7  8  1  0
  8  9  1  0
  9 10  1  0
 10 11  1  0
 11 12  1  0
 12 13  1  0
 13 14  1  0
 14 15  1  0
 15 16  2  0
 16 17  1  0
 17 18  1  0
 13 19  1  0
 19 20  1  0
  8 21  2  0
 21 22  1  0
 22 23  2  0
 23 24  1  0
 23  6  1  0
 20 10  1  0
 18 14  2  0
  1 25  1  0
  1 26  1  0
  1 27  1  0
  5 28  1  0
  7 29  1  0
  9 30  1  0
  9 31  1  0
 11 32  1  0
 11 33  1  0
 12 34  1  0
 12 35  1  0
 13 36  1  0
 15 37  1  0
 16 38  1  0
 19 39  1  0
 19 40  1  0
 20 41  1  0
 20 42  1  0
 21 43  1  0
 22 44  1  0
M  CHG  2  17  -1  24  -1
M  END
>  <UniqueID>  (44) 
43

>  <SMILES>  (44) 
CS(=O)(=O)Nc1cc(CN2CCC(c3cc[n-]n3)CC2)ccc1[O-]

>  <Energy>  (44) 
82.79943581407773

>  <Genealogy>  (44) 
CS(=O)(=O)Nc1cc(CN2CCC(c3cc[n-]n3)CC2)ccc1[O-] (protonated)
CS(=O)(=O)Nc1cc(CN2CCC(c3cc[n-]n3)CC2)ccc1[O-] (3D coordinates assigned)
CS(=O)(=O)Nc1cc(CN2CCC(c3cc[n-]n3)CC2)ccc1[O-] (nonaromatic ring conformer: 82.79943581407773 kcal/mol)

>  <smiles>  (44) 
CS(=O)(=O)Nc1cc(CN2CCC(c3cc[nH]n3)CC2)ccc1O

>  <score_type>  (44) 
oracle

>  <origin>  (44) 
adgpu

>  <m_score__min__energy>  (44) 
-11.16

>  <m_primary>  (44) 
energy

$$$$
44:0
     RDKit          3D

 48 49  0  0  0  0  0  0  0  0999 V2000
   -2.9600   25.6680  -30.8410 H   0  0  0  0  0  0  0  0  0  0  0  0
   -3.9520   25.4880  -30.7420 O   0  0  0  0  0  0  0  0  0  0  0  0
   -4.4760   24.1990  -30.8410 C   0  0  0  0  0  0  0  0  0  0  0  0
   -5.7270   23.9980  -31.4410 C   0  0  0  0  0  0  0  0  0  0  0  0
   -6.2983   24.8626  -31.8098 H   0  0  0  0  0  0  0  0  0  0  0  0
   -6.2570   22.7110  -31.5760 C   0  0  0  0  0  0  0  0  0  0  0  0
   -7.5090   22.5660  -32.1920 O   0  0  0  0  0  0  0  0  0  0  0  0
   -8.4140   21.5200  -31.9580 C   0  0  0  0  0  0  0  0  0  0  0  0
   -9.4330   21.7070  -31.2370 O   0  0  0  0  0  0  0  0  0  0  0  0
   -8.2070   20.2460  -32.5910 N   0  0  0  0  0  0  0  0  0  0  0  0
   -9.1630   19.1570  -32.3690 C   0  0  0  0  0  0  0  0  0  0  0  0
   -9.2985   19.0027  -31.2883 H   0  0  0  0  0  0  0  0  0  0  0  0
  -10.1289   19.4181  -32.8260 H   0  0  0  0  0  0  0  0  0  0  0  0
   -8.7790   18.2331  -32.8260 H   0  0  0  0  0  0  0  0  0  0  0  0
   -7.0330   20.0520  -33.4450 C   0  0  0  0  0  0  0  0  0  0  0  0
   -6.1425   19.9048  -32.8162 H   0  0  0  0  0  0  0  0  0  0  0  0
   -7.1838   19.1666  -34.0801 H   0  0  0  0  0  0  0  0  0  0  0  0
   -6.8910   20.9389  -34.0801 H   0  0  0  0  0  0  0  0  0  0  0  0
   -5.5050   21.6090  -31.1350 C   0  0  0  0  0  0  0  0  0  0  0  0
   -5.8989   20.5901  -31.2643 H   0  0  0  0  0  0  0  0  0  0  0  0
   -4.2590   21.8020  -30.5330 C   0  0  0  0  0  0  0  0  0  0  0  0
   -3.6767   20.9325  -30.1941 H   0  0  0  0  0  0  0  0  0  0  0  0
   -3.7440   23.0950  -30.3570 C   0  0  0  0  0  0  0  0  0  0  0  0
   -2.4190   23.2660  -29.7150 C   0  0  0  0  0  0  0  0  0  0  0  0
   -2.0540   24.4240  -29.3790 O   0  0  0  0  0  0  0  0  0  0  0  0
   -1.5000   22.1370  -29.4560 C   0  0  0  0  0  0  0  0  0  0  0  0
   -0.6200   22.0147  -30.1045 H   0  0  0  0  0  0  0  0  0  0  0  0
   -1.6940   21.2560  -28.4640 C   0  0  0  0  0  0  0  0  0  0  0  0
   -2.5774   21.3860  -27.8215 H   0  0  0  0  0  0  0  0  0  0  0  0
   -0.7870   20.1160  -28.1820 C   0  0  0  0  0  0  0  0  0  0  0  0
    0.5280   20.0510  -28.6760 C   0  0  0  0  0  0  0  0  0  0  0  0
    0.9201   20.8735  -29.2923 H   0  0  0  0  0  0  0  0  0  0  0  0
    1.3410   18.9510  -28.3910 C   0  0  0  0  0  0  0  0  0  0  0  0
    2.3695   18.9218  -28.7800 H   0  0  0  0  0  0  0  0  0  0  0  0
    0.8620   17.8780  -27.6120 C   0  0  0  0  0  0  0  0  0  0  0  0
    1.7060   16.7360  -27.3140 N   0  0  0  0  0  0  0  0  0  0  0  0
    1.1870   15.3690  -27.4470 C   0  0  0  0  0  0  0  0  0  0  0  0
    1.0240   14.9398  -26.4474 H   0  0  0  0  0  0  0  0  0  0  0  0
    0.2344   15.3903  -27.9966 H   0  0  0  0  0  0  0  0  0  0  0  0
    1.9137   14.7527  -27.9966 H   0  0  0  0  0  0  0  0  0  0  0  0
    3.0950   16.9270  -26.8760 C   0  0  0  0  0  0  0  0  0  0  0  0
    3.1354   16.9325  -25.7768 H   0  0  0  0  0  0  0  0  0  0  0  0
    3.7173   16.1060  -27.2616 H   0  0  0  0  0  0  0  0  0  0  0  0
    3.4726   17.8855  -27.2616 H   0  0  0  0  0  0  0  0  0  0  0  0
   -0.4630   17.9440  -27.1340 C   0  0  0  0  0  0  0  0  0  0  0  0
   -0.8629   17.1178  -26.5278 H   0  0  0  0  0  0  0  0  0  0  0  0
   -1.2750   19.0450  -27.4200 C   0  0  0  0  0  0  0  0  0  0  0  0
   -2.3081   19.0716  -27.0432 H   0  0  0  0  0  0  0  0  0  0  0  0
  1  2  1  0
  2  3  1  0
  3  4  2  0
  4  5  1  0
  4  6  1  0
  6  7  1  0
  7  8  1  0
  8  9  2  0
  8 10  1  0
 10 11  1  0
 11 12  1  0
 11 13  1  0
 11 14  1  0
 10 15  1  0
 15 16  1  0
 15 17  1  0
 15 18  1  0
  6 19  2  0
 19 20  1  0
 19 21  1  0
 21 22  1  0
 21 23  2  0
 23 24  1  0
 24 25  2  0
 24 26  1  0
 26 27  1  0
 26 28  2  0
 28 29  1  0
 28 30  1  0
 30 31  2  0
 31 32  1  0
 31 33  1  0
 33 34  1  0
 33 35  2  0
 35 36  1  0
 36 37  1  0
 37 38  1  0
 37 39  1  0
 37 40  1  0
 36 41  1  0
 41 42  1  0
 41 43  1  0
 41 44  1  0
 35 45  1  0
 45 46  1  0
 45 47  2  0
 47 48  1  0
 23  3  1  0
 47 30  1  0
M  END
>  <UniqueID>  (45) 
44

>  <SMILES>  (45) 
CN(C)C(=O)Oc1ccc(C(=O)/C=C/c2ccc(N(C)C)cc2)c(O)c1

>  <Energy>  (45) 
58.18777543581625

>  <Genealogy>  (45) 
CN(C)C(=O)Oc1ccc(C(=O)/C=C/c2ccc(N(C)C)cc2)c(O)c1 (cis-trans isomerization)
CN(C)C(=O)Oc1ccc(C(=O)/C=C/c2ccc(N(C)C)cc2)c(O)c1 (3D coordinates assigned)
CN(C)C(=O)Oc1ccc(C(=O)/C=C/c2ccc(N(C)C)cc2)c(O)c1 (optimized conformer: 58.18777543581625 kcal/mol)

>  <smiles>  (45) 
CN(C)C(=O)Oc1ccc(C(=O)C=Cc2ccc(N(C)C)cc2)c(O)c1

>  <score_type>  (45) 
oracle

>  <origin>  (45) 
adgpu

>  <m_score__min__energy>  (45) 
-8.5299999999999994

>  <m_primary>  (45) 
energy

$$$$
45:0
     RDKit          3D

 42 44  0  0  0  0  0  0  0  0999 V2000
   -1.7890   25.4760  -28.1890 O   0  0  0  0  0  0  0  0  0  0  0  0
   -2.3040   24.5710  -28.8950 C   0  0  0  0  0  0  0  0  0  0  0  0
   -3.0770   24.9440  -30.0430 N   0  0  0  0  0  0  0  0  0  0  0  0
   -4.2850   24.3020  -30.4720 C   0  0  0  0  0  0  0  0  0  0  0  0
   -4.2560   23.1640  -31.2950 C   0  0  0  0  0  0  0  0  0  0  0  0
   -5.4460   22.5320  -31.6630 C   0  0  0  0  0  0  0  0  0  0  0  0
   -6.6770   23.0290  -31.2170 C   0  0  0  0  0  0  0  0  0  0  0  0
   -8.1690   22.1620  -31.5810 S   0  0  0  0  0  0  0  0  0  0  0  0
   -9.1380   23.1000  -32.2480 O   0  0  0  0  0  0  0  0  0  0  0  0
   -8.7920   21.6820  -30.3000 O   0  0  0  0  0  0  0  0  0  0  0  0
   -7.8670   20.7890  -32.6230 N   0  0  0  0  0  0  0  0  0  0  0  0
   -9.0870   19.9590  -32.7970 C   0  0  0  0  0  0  0  0  0  0  0  0
   -9.0710   18.6840  -31.9410 C   0  0  0  0  0  0  0  0  0  0  0  0
   -7.8500   17.8060  -32.2670 C   0  0  0  0  0  0  0  0  0  0  0  0
   -6.6370   18.6270  -32.7430 C   0  0  0  0  0  0  0  0  0  0  0  0
   -6.6740   20.0440  -32.1630 C   0  0  0  0  0  0  0  0  0  0  0  0
   -6.7080   24.1940  -30.4380 C   0  0  0  0  0  0  0  0  0  0  0  0
   -5.5180   24.8320  -30.0760 C   0  0  0  0  0  0  0  0  0  0  0  0
   -2.1380   23.1640  -28.4850 C   0  0  0  0  0  0  0  0  0  0  0  0
   -3.1230   22.3230  -27.9930 C   0  0  0  0  0  0  0  0  0  0  0  0
   -2.5030   21.1180  -27.7370 C   0  0  0  0  0  0  0  0  0  0  0  0
   -1.1800   21.3090  -28.0840 C   0  0  0  0  0  0  0  0  0  0  0  0
   -0.1430   20.3300  -27.9880 N   0  0  0  0  0  0  0  0  0  0  0  0
    1.0500   20.6760  -27.8650 O   0  0  0  0  0  0  0  0  0  0  0  0
   -0.4600   18.9920  -28.0300 O   0  0  0  0  0  0  0  0  0  0  0  0
   -0.9870   22.5310  -28.5210 O   0  0  0  0  0  0  0  0  0  0  0  0
   -3.2929   22.7693  -31.6509 H   0  0  0  0  0  0  0  0  0  0  0  0
   -5.4161   21.6400  -32.3060 H   0  0  0  0  0  0  0  0  0  0  0  0
   -9.9636   20.5603  -32.5142 H   0  0  0  0  0  0  0  0  0  0  0  0
   -9.1262   19.6477  -33.8513 H   0  0  0  0  0  0  0  0  0  0  0  0
   -9.0357   18.9664  -30.8785 H   0  0  0  0  0  0  0  0  0  0  0  0
   -9.9815   18.1073  -32.1607 H   0  0  0  0  0  0  0  0  0  0  0  0
   -7.5650   17.2497  -31.3619 H   0  0  0  0  0  0  0  0  0  0  0  0
   -8.1361   17.1306  -33.0867 H   0  0  0  0  0  0  0  0  0  0  0  0
   -5.7133   18.1278  -32.4152 H   0  0  0  0  0  0  0  0  0  0  0  0
   -6.6682   18.6957  -33.8404 H   0  0  0  0  0  0  0  0  0  0  0  0
   -6.6943   19.9801  -31.0650 H   0  0  0  0  0  0  0  0  0  0  0  0
   -5.7783   20.5810  -32.5083 H   0  0  0  0  0  0  0  0  0  0  0  0
   -7.6729   24.6080  -30.1101 H   0  0  0  0  0  0  0  0  0  0  0  0
   -5.5510   25.7543  -29.4775 H   0  0  0  0  0  0  0  0  0  0  0  0
   -4.1843   22.5669  -27.8380 H   0  0  0  0  0  0  0  0  0  0  0  0
   -2.9637   20.2009  -27.3411 H   0  0  0  0  0  0  0  0  0  0  0  0
  1  2  2  0
  2  3  1  0
  3  4  1  0
  4  5  2  0
  5  6  1  0
  6  7  2  0
  7  8  1  0
  8  9  2  0
  8 10  2  0
  8 11  1  0
 11 12  1  0
 12 13  1  0
 13 14  1  0
 14 15  1  0
 15 16  1  0
  7 17  1  0
 17 18  2  0
  2 19  1  0
 19 20  2  0
 20 21  1  0
 21 22  2  0
 22 23  1  0
 23 24  2  0
 23 25  1  0
 22 26  1  0
 18  4  1  0
 26 19  1  0
 16 11  1  0
  5 27  1  0
  6 28  1  0
 12 29  1  0
 12 30  1  0
 13 31  1  0
 13 32  1  0
 14 33  1  0
 14 34  1  0
 15 35  1  0
 15 36  1  0
 16 37  1  0
 16 38  1  0
 17 39  1  0
 18 40  1  0
 20 41  1  0
 21 42  1  0
M  CHG  3   3  -1  23   1  25  -1
M  END
>  <UniqueID>  (46) 
45

>  <SMILES>  (46) 
O=C([N-]c1ccc(S(=O)(=O)N2CCCCC2)cc1)c1ccc([N+](=O)[O-])o1

>  <Energy>  (46) 
77.95390200209535

>  <Genealogy>  (46) 
O=C([N-]c1ccc(S(=O)(=O)N2CCCCC2)cc1)c1ccc([N+](=O)[O-])o1 (protonated)
O=C([N-]c1ccc(S(=O)(=O)N2CCCCC2)cc1)c1ccc([N+](=O)[O-])o1 (3D coordinates assigned)
O=C([N-]c1ccc(S(=O)(=O)N2CCCCC2)cc1)c1ccc([N+](=O)[O-])o1 (nonaromatic ring conformer: 77.95390200209535 kcal/mol)

>  <smiles>  (46) 
O=C(Nc1ccc(S(=O)(=O)N2CCCCC2)cc1)c1ccc([N+](=O)[O-])o1

>  <score_type>  (46) 
oracle

>  <origin>  (46) 
adgpu

>  <m_score__min__energy>  (46) 
-10.800000000000001

>  <m_primary>  (46) 
energy

$$$$
46:0
     RDKit          3D

 44 47  0  0  0  0  0  0  0  0999 V2000
   -3.8560   25.6740  -30.5990 O   0  0  0  0  0  0  0  0  0  0  0  0
   -4.6820   24.5580  -30.6680 C   0  0  0  0  0  0  0  0  0  0  0  0
   -6.0660   24.7020  -30.5250 C   0  0  0  0  0  0  0  0  0  0  0  0
   -6.8960   23.5800  -30.5860 C   0  0  0  0  0  0  0  0  0  0  0  0
   -6.3460   22.3120  -30.7950 C   0  0  0  0  0  0  0  0  0  0  0  0
   -4.9580   22.1600  -30.9540 C   0  0  0  0  0  0  0  0  0  0  0  0
   -4.3540   20.7940  -31.1250 C   0  0  0  0  0  0  0  0  0  0  0  0
   -4.2310   20.4720  -32.5540 N   0  0  0  0  0  0  0  0  0  0  0  0
   -5.3900   20.5920  -33.4490 C   0  0  0  0  0  0  0  0  0  0  0  0
   -6.5790   19.8920  -32.8550 C   0  0  0  0  0  0  0  0  0  0  0  0
   -7.7530   20.5680  -32.7260 N   0  0  0  0  0  0  0  0  0  0  0  0
   -8.8750   19.9770  -32.2330 C   0  0  0  0  0  0  0  0  0  0  0  0
   -8.8470   18.6350  -31.8490 C   0  0  0  0  0  0  0  0  0  0  0  0
   -7.6600   17.9130  -31.9790 C   0  0  0  0  0  0  0  0  0  0  0  0
   -6.5140   18.5350  -32.4880 C   0  0  0  0  0  0  0  0  0  0  0  0
   -5.3260   17.8190  -32.6330 O   0  0  0  0  0  0  0  0  0  0  0  0
   -2.9560   20.0550  -33.0840 C   0  0  0  0  0  0  0  0  0  0  0  0
   -2.6290   18.6920  -33.1520 C   0  0  0  0  0  0  0  0  0  0  0  0
   -1.3980   18.2880  -33.6720 C   0  0  0  0  0  0  0  0  0  0  0  0
   -1.0930   16.9690  -33.7410 F   0  0  0  0  0  0  0  0  0  0  0  0
   -0.4820   19.2400  -34.1290 C   0  0  0  0  0  0  0  0  0  0  0  0
   -0.7910   20.6090  -34.0670 C   0  0  0  0  0  0  0  0  0  0  0  0
    0.1770   21.6160  -34.5480 C   0  0  0  0  0  0  0  0  0  0  0  0
    1.4900   21.6150  -34.2490 N   0  0  0  0  0  0  0  0  0  0  0  0
    1.9790   22.6740  -34.8740 N   0  0  0  0  0  0  0  0  0  0  0  0
    1.0100   23.2950  -35.5270 N   0  0  0  0  0  0  0  0  0  0  0  0
   -0.1340   22.6570  -35.3430 N   0  0  0  0  0  0  0  0  0  0  0  0
   -2.0320   21.0080  -33.5410 C   0  0  0  0  0  0  0  0  0  0  0  0
   -4.1280   23.2900  -30.8770 C   0  0  0  0  0  0  0  0  0  0  0  0
   -6.5011   25.6994  -30.3644 H   0  0  0  0  0  0  0  0  0  0  0  0
   -7.9838   23.6945  -30.4694 H   0  0  0  0  0  0  0  0  0  0  0  0
   -7.0020   21.4299  -30.8352 H   0  0  0  0  0  0  0  0  0  0  0  0
   -3.3569   20.7763  -30.6608 H   0  0  0  0  0  0  0  0  0  0  0  0
   -5.0044   20.0495  -30.6426 H   0  0  0  0  0  0  0  0  0  0  0  0
   -5.6293   21.6560  -33.5929 H   0  0  0  0  0  0  0  0  0  0  0  0
   -5.1463   20.1276  -34.4160 H   0  0  0  0  0  0  0  0  0  0  0  0
   -9.8048   20.5569  -32.1369 H   0  0  0  0  0  0  0  0  0  0  0  0
   -9.7506   18.1522  -31.4484 H   0  0  0  0  0  0  0  0  0  0  0  0
   -7.6249   16.8546  -31.6814 H   0  0  0  0  0  0  0  0  0  0  0  0
   -4.9280   17.2920  -31.8640 H   0  0  0  0  0  0  0  0  0  0  0  0
   -3.3459   17.9385  -32.7939 H   0  0  0  0  0  0  0  0  0  0  0  0
    0.4857   18.9155  -34.5392 H   0  0  0  0  0  0  0  0  0  0  0  0
   -2.2817   22.0779  -33.4869 H   0  0  0  0  0  0  0  0  0  0  0  0
   -3.0387   23.1782  -30.9813 H   0  0  0  0  0  0  0  0  0  0  0  0
  1  2  1  0
  2  3  2  0
  3  4  1  0
  4  5  2  0
  5  6  1  0
  6  7  1  0
  7  8  1  0
  8  9  1  0
  9 10  1  0
 10 11  2  0
 11 12  1  0
 12 13  2  0
 13 14  1  0
 14 15  2  0
 15 16  1  0
  8 17  1  0
 17 18  2  0
 18 19  1  0
 19 20  1  0
 19 21  2  0
 21 22  1  0
 22 23  1  0
 23 24  1  0
 24 25  2  0
 25 26  1  0
 26 27  1  0
 22 28  2  0
  6 29  2  0
 29  2  1  0
 15 10  1  0
 28 17  1  0
 27 23  2  0
  3 30  1  0
  4 31  1  0
  5 32  1  0
  7 33  1  0
  7 34  1  0
  9 35  1  0
  9 36  1  0
 12 37  1  0
 13 38  1  0
 14 39  1  0
 16 40  1  0
 18 41  1  0
 21 42  1  0
 28 43  1  0
 29 44  1  0
M  CHG  2   1  -1  26  -1
M  END
>  <UniqueID>  (47) 
46

>  <SMILES>  (47) 
[O-]c1cccc(CN(Cc2ncccc2O)c2cc(F)cc(-c3nn[n-]n3)c2)c1

>  <Energy>  (47) 
88.20352078805233

>  <Genealogy>  (47) 
[O-]c1cccc(CN(Cc2ncccc2O)c2cc(F)cc(-c3nn[n-]n3)c2)c1 (protonated)
[O-]c1cccc(CN(Cc2ncccc2O)c2cc(F)cc(-c3nn[n-]n3)c2)c1 (3D coordinates assigned)
[O-]c1cccc(CN(Cc2ncccc2O)c2cc(F)cc(-c3nn[n-]n3)c2)c1 (optimized conformer: 88.20352078805233 kcal/mol)

>  <smiles>  (47) 
Oc1cccc(CN(Cc2ncccc2O)c2cc(F)cc(-c3nn[nH]n3)c2)c1

>  <score_type>  (47) 
oracle

>  <origin>  (47) 
adgpu

>  <m_score__min__energy>  (47) 
-12.76

>  <m_primary>  (47) 
energy

$$$$
47:0
     RDKit          3D

 44 46  0  0  0  0  0  0  0  0999 V2000
   -6.1160   15.2500  -33.8680 C   0  0  0  0  0  0  0  0  0  0  0  0
   -5.6320   16.6360  -33.9240 N   0  0  0  0  0  0  0  0  0  0  0  0
   -4.3050   16.9020  -34.4930 C   0  0  0  0  0  0  0  0  0  0  0  0
   -6.4530   17.7250  -33.4240 C   0  0  0  0  0  0  0  0  0  0  0  0
   -7.4290   17.5020  -32.4340 C   0  0  0  0  0  0  0  0  0  0  0  0
   -8.2080   18.5610  -31.9640 C   0  0  0  0  0  0  0  0  0  0  0  0
   -8.0410   19.8230  -32.4610 N   0  0  0  0  0  0  0  0  0  0  0  0
   -8.8460   20.9290  -31.9280 C   0  0  0  0  0  0  0  0  0  0  0  0
   -7.9510   22.0540  -31.4870 C   0  0  0  0  0  0  0  0  0  0  0  0
   -7.3910   22.9270  -32.4340 C   0  0  0  0  0  0  0  0  0  0  0  0
   -6.5270   23.9490  -32.0280 C   0  0  0  0  0  0  0  0  0  0  0  0
   -6.2100   24.1030  -30.6740 C   0  0  0  0  0  0  0  0  0  0  0  0
   -5.1070   25.4160  -30.1540 S   0  0  0  0  0  0  0  0  0  0  0  0
   -3.9350   24.2690  -29.4290 C   0  0  0  0  0  0  0  0  0  0  0  0
   -3.8160   24.1730  -28.0370 C   0  0  0  0  0  0  0  0  0  0  0  0
   -2.9060   23.2740  -27.4710 C   0  0  0  0  0  0  0  0  0  0  0  0
   -2.1090   22.4740  -28.2960 C   0  0  0  0  0  0  0  0  0  0  0  0
   -2.2230   22.5710  -29.6870 C   0  0  0  0  0  0  0  0  0  0  0  0
   -3.1330   23.4690  -30.2540 C   0  0  0  0  0  0  0  0  0  0  0  0
   -6.7510   23.2250  -29.7280 C   0  0  0  0  0  0  0  0  0  0  0  0
   -7.6140   22.2030  -30.1320 C   0  0  0  0  0  0  0  0  0  0  0  0
   -7.0940   20.0690  -33.4130 C   0  0  0  0  0  0  0  0  0  0  0  0
   -6.2960   19.0360  -33.9080 C   0  0  0  0  0  0  0  0  0  0  0  0
   -6.2238   14.9414  -32.8177 H   0  0  0  0  0  0  0  0  0  0  0  0
   -7.0912   15.1815  -34.3722 H   0  0  0  0  0  0  0  0  0  0  0  0
   -5.3954   14.5893  -34.3722 H   0  0  0  0  0  0  0  0  0  0  0  0
   -3.5795   17.0474  -33.6791 H   0  0  0  0  0  0  0  0  0  0  0  0
   -3.9941   16.0483  -35.1131 H   0  0  0  0  0  0  0  0  0  0  0  0
   -4.3472   17.8096  -35.1131 H   0  0  0  0  0  0  0  0  0  0  0  0
   -7.5782   16.4900  -32.0295 H   0  0  0  0  0  0  0  0  0  0  0  0
   -8.9637   18.3777  -31.1859 H   0  0  0  0  0  0  0  0  0  0  0  0
   -9.5284   21.2924  -32.7105 H   0  0  0  0  0  0  0  0  0  0  0  0
   -9.4245   20.5695  -31.0642 H   0  0  0  0  0  0  0  0  0  0  0  0
   -7.6332   22.8063  -33.5002 H   0  0  0  0  0  0  0  0  0  0  0  0
   -6.0961   24.6327  -32.7742 H   0  0  0  0  0  0  0  0  0  0  0  0
   -4.4391   24.8055  -27.3877 H   0  0  0  0  0  0  0  0  0  0  0  0
   -2.8173   23.1963  -26.3773 H   0  0  0  0  0  0  0  0  0  0  0  0
   -1.3922   21.7682  -27.8510 H   0  0  0  0  0  0  0  0  0  0  0  0
   -1.5965   21.9406  -30.3351 H   0  0  0  0  0  0  0  0  0  0  0  0
   -3.2192   23.5474  -31.3478 H   0  0  0  0  0  0  0  0  0  0  0  0
   -6.4963   23.3397  -28.6641 H   0  0  0  0  0  0  0  0  0  0  0  0
   -8.0314   21.5118  -29.3850 H   0  0  0  0  0  0  0  0  0  0  0  0
   -6.9583   21.0919  -33.7941 H   0  0  0  0  0  0  0  0  0  0  0  0
   -5.5414   19.2484  -34.6797 H   0  0  0  0  0  0  0  0  0  0  0  0
  1  2  1  0
  2  3  1  0
  2  4  1  0
  4  5  2  0
  5  6  1  0
  6  7  2  0
  7  8  1  0
  8  9  1  0
  9 10  2  0
 10 11  1  0
 11 12  2  0
 12 13  1  0
 13 14  1  0
 14 15  2  0
 15 16  1  0
 16 17  2  0
 17 18  1  0
 18 19  2  0
 12 20  1  0
 20 21  2  0
  7 22  1  0
 22 23  2  0
 23  4  1  0
 21  9  1  0
 19 14  1  0
  1 24  1  0
  1 25  1  0
  1 26  1  0
  3 27  1  0
  3 28  1  0
  3 29  1  0
  5 30  1  0
  6 31  1  0
  8 32  1  0
  8 33  1  0
 10 34  1  0
 11 35  1  0
 15 36  1  0
 16 37  1  0
 17 38  1  0
 18 39  1  0
 19 40  1  0
 20 41  1  0
 21 42  1  0
 22 43  1  0
 23 44  1  0
M  CHG  1   7   1
M  END
>  <UniqueID>  (48) 
47

>  <SMILES>  (48) 
CN(C)c1cc[n+](Cc2ccc(Sc3ccccc3)cc2)cc1

>  <Energy>  (48) 
42.45956094811792

>  <Genealogy>  (48) 
CN(C)c1cc[n+](Cc2ccc(Sc3ccccc3)cc2)cc1 (3D coordinates assigned)
CN(C)c1cc[n+](Cc2ccc(Sc3ccccc3)cc2)cc1 (optimized conformer: 42.45956094811792 kcal/mol)

>  <smiles>  (48) 
CN(C)c1cc[n+](Cc2ccc(Sc3ccccc3)cc2)cc1

>  <score_type>  (48) 
oracle

>  <origin>  (48) 
adgpu

>  <m_score__min__energy>  (48) 
-7.6200000000000001

>  <m_primary>  (48) 
energy

$$$$
