0:0
     RDKit          3D

 34 35  0  0  0  0  0  0  0  0999 V2000
   -8.1980   20.5260  -31.7040 C   0  0  0  0  0  0  0  0  0  0  0  0
   -7.4290   21.7740  -31.3860 C   0  0  0  0  0  0  0  0  0  0  0  0
   -6.6360   22.3850  -32.3690 C   0  0  0  0  0  0  0  0  0  0  0  0
   -5.9480   23.5690  -32.0840 C   0  0  0  0  0  0  0  0  0  0  0  0
   -6.0480   24.1590  -30.8150 C   0  0  0  0  0  0  0  0  0  0  0  0
   -5.3050   25.4320  -30.5030 C   0  0  0  0  0  0  0  0  0  0  0  0
   -3.8770   25.3000  -30.7970 N   0  0  0  0  0  0  0  0  0  0  0  0
   -3.0360   24.4660  -29.5190 S   0  0  0  0  0  0  0  0  0  0  0  0
   -1.9710   25.3700  -28.9620 O   0  0  0  0  0  0  0  0  0  0  0  0
   -4.0020   24.1530  -28.4100 O   0  0  0  0  0  0  0  0  0  0  0  0
   -2.2780   22.9740  -30.1010 C   0  0  0  0  0  0  0  0  0  0  0  0
   -2.9260   22.2420  -31.1110 C   0  0  0  0  0  0  0  0  0  0  0  0
   -2.4000   21.0310  -31.5630 C   0  0  0  0  0  0  0  0  0  0  0  0
   -1.2260   20.5290  -31.0080 C   0  0  0  0  0  0  0  0  0  0  0  0
   -0.5670   21.2420  -30.0040 C   0  0  0  0  0  0  0  0  0  0  0  0
   -1.0720   22.4730  -29.5460 C   0  0  0  0  0  0  0  0  0  0  0  0
   -0.3520   23.1870  -28.5290 N   0  0  0  0  0  0  0  0  0  0  0  0
    0.3600   24.1640  -28.8380 O   0  0  0  0  0  0  0  0  0  0  0  0
   -0.6120   22.9520  -27.1990 O   0  0  0  0  0  0  0  0  0  0  0  0
   -6.8650   23.5620  -29.8420 C   0  0  0  0  0  0  0  0  0  0  0  0
   -7.5540   22.3800  -30.1270 C   0  0  0  0  0  0  0  0  0  0  0  0
   -8.5013   20.0338  -30.7682 H   0  0  0  0  0  0  0  0  0  0  0  0
   -9.0929   20.7857  -32.2885 H   0  0  0  0  0  0  0  0  0  0  0  0
   -7.5637   19.8434  -32.2885 H   0  0  0  0  0  0  0  0  0  0  0  0
   -6.5550   21.9311  -33.3677 H   0  0  0  0  0  0  0  0  0  0  0  0
   -5.3253   24.0400  -32.8588 H   0  0  0  0  0  0  0  0  0  0  0  0
   -5.7220   26.2485  -31.1108 H   0  0  0  0  0  0  0  0  0  0  0  0
   -5.4202   25.6474  -29.4305 H   0  0  0  0  0  0  0  0  0  0  0  0
   -3.8579   22.6279  -31.5499 H   0  0  0  0  0  0  0  0  0  0  0  0
   -2.9138   20.4722  -32.3591 H   0  0  0  0  0  0  0  0  0  0  0  0
   -0.8173   19.5705  -31.3604 H   0  0  0  0  0  0  0  0  0  0  0  0
    0.3572   20.8367  -29.5663 H   0  0  0  0  0  0  0  0  0  0  0  0
   -6.9634   24.0270  -28.8500 H   0  0  0  0  0  0  0  0  0  0  0  0
   -8.1972   21.9228  -29.3607 H   0  0  0  0  0  0  0  0  0  0  0  0
  1  2  1  0
  2  3  2  0
  3  4  1  0
  4  5  2  0
  5  6  1  0
  6  7  1  0
  7  8  1  0
  8  9  2  0
  8 10  2  0
  8 11  1  0
 11 12  2  0
 12 13  1  0
 13 14  2  0
 14 15  1  0
 15 16  2  0
 16 17  1  0
 17 18  2  0
 17 19  1  0
  5 20  1  0
 20 21  2  0
 21  2  1  0
 16 11  1  0
  1 22  1  0
  1 23  1  0
  1 24  1  0
  3 25  1  0
  4 26  1  0
  6 27  1  0
  6 28  1  0
 12 29  1  0
 13 30  1  0
 14 31  1  0
 15 32  1  0
 20 33  1  0
 21 34  1  0
M  CHG  3   7  -1  17   1  19  -1
M  END
>  <UniqueID>  (1) 
1

>  <SMILES>  (1) 
Cc1ccc(C[N-]S(=O)(=O)c2ccccc2[N+](=O)[O-])cc1

>  <Energy>  (1) 
38.52219398541207

>  <Genealogy>  (1) 
Cc1ccc(C[N-]S(=O)(=O)c2ccccc2[N+](=O)[O-])cc1 (protonated)
Cc1ccc(C[N-]S(=O)(=O)c2ccccc2[N+](=O)[O-])cc1 (3D coordinates assigned)
Cc1ccc(C[N-]S(=O)(=O)c2ccccc2[N+](=O)[O-])cc1 (optimized conformer: 38.52219398541207 kcal/mol)

>  <smiles>  (1) 
Cc1ccc(CNS(=O)(=O)c2ccccc2[N+](=O)[O-])cc1

>  <score_type>  (1) 
oracle

>  <origin>  (1) 
adgpu

>  <m_score__min__energy>  (1) 
-9.3399999999999999

>  <m_primary>  (1) 
energy

$$$$
1:0
     RDKit          3D

 48 51  0  0  0  0  0  0  0  0999 V2000
   -3.8410   20.5520  -31.5560 O   0  0  0  0  0  0  0  0  0  0  0  0
   -2.9620   21.4030  -31.8560 C   0  0  0  0  0  0  0  0  0  0  0  0
   -3.1610   22.7870  -31.5240 N   0  0  0  0  0  0  0  0  0  0  0  0
   -4.4440   23.3580  -31.2210 C   0  0  0  0  0  0  0  0  0  0  0  0
   -5.6030   22.6260  -31.5250 C   0  0  0  0  0  0  0  0  0  0  0  0
   -6.8690   23.1110  -31.1730 C   0  0  0  0  0  0  0  0  0  0  0  0
   -8.3110   22.1410  -31.4850 S   0  0  0  0  0  0  0  0  0  0  0  0
   -8.8490   21.6180  -30.1820 O   0  0  0  0  0  0  0  0  0  0  0  0
   -9.3680   23.0100  -32.1070 O   0  0  0  0  0  0  0  0  0  0  0  0
   -7.9580   20.7860  -32.5380 N   0  0  0  0  0  0  0  0  0  0  0  0
   -6.7210   20.0900  -32.1100 C   0  0  0  0  0  0  0  0  0  0  0  0
   -6.6920   18.6350  -32.5810 C   0  0  0  0  0  0  0  0  0  0  0  0
   -7.8250   17.8490  -31.9110 C   0  0  0  0  0  0  0  0  0  0  0  0
   -9.1310   18.6680  -31.8020 C   0  0  0  0  0  0  0  0  0  0  0  0
   -9.1390   19.9060  -32.7220 C   0  0  0  0  0  0  0  0  0  0  0  0
   -6.9760   24.3490  -30.5270 C   0  0  0  0  0  0  0  0  0  0  0  0
   -5.8300   25.0790  -30.2110 C   0  0  0  0  0  0  0  0  0  0  0  0
   -4.5650   24.5840  -30.5370 C   0  0  0  0  0  0  0  0  0  0  0  0
   -3.4360   25.2980  -30.1450 O   0  0  0  0  0  0  0  0  0  0  0  0
   -1.7030   20.9720  -32.5000 C   0  0  0  0  0  0  0  0  0  0  0  0
   -0.9150   19.9430  -31.9570 C   0  0  0  0  0  0  0  0  0  0  0  0
    0.2390   19.5770  -32.5760 N   0  0  0  0  0  0  0  0  0  0  0  0
    0.6480   20.1880  -33.7190 C   0  0  0  0  0  0  0  0  0  0  0  0
    1.8360   19.8000  -34.3520 C   0  0  0  0  0  0  0  0  0  0  0  0
    2.2380   20.4410  -35.5280 C   0  0  0  0  0  0  0  0  0  0  0  0
    1.4520   21.4600  -36.0810 C   0  0  0  0  0  0  0  0  0  0  0  0
    0.2600   21.8460  -35.4530 C   0  0  0  0  0  0  0  0  0  0  0  0
   -0.1450   21.2100  -34.2750 C   0  0  0  0  0  0  0  0  0  0  0  0
   -1.2920   21.5780  -33.6480 N   0  0  0  0  0  0  0  0  0  0  0  0
   -2.3170   23.3820  -31.3690 H   0  0  0  0  0  0  0  0  0  0  0  0
   -5.5158   21.6608  -32.0454 H   0  0  0  0  0  0  0  0  0  0  0  0
   -5.8525   20.6174  -32.5314 H   0  0  0  0  0  0  0  0  0  0  0  0
   -6.6919   20.0926  -31.0104 H   0  0  0  0  0  0  0  0  0  0  0  0
   -6.8209   18.6021  -33.6729 H   0  0  0  0  0  0  0  0  0  0  0  0
   -5.7265   18.1842  -32.3077 H   0  0  0  0  0  0  0  0  0  0  0  0
   -8.0248   16.9441  -32.5037 H   0  0  0  0  0  0  0  0  0  0  0  0
   -7.5005   17.6008  -30.8897 H   0  0  0  0  0  0  0  0  0  0  0  0
   -9.9762   18.0200  -32.0774 H   0  0  0  0  0  0  0  0  0  0  0  0
   -9.2119   19.0257  -30.7649 H   0  0  0  0  0  0  0  0  0  0  0  0
   -9.1589   19.5634  -33.7671 H   0  0  0  0  0  0  0  0  0  0  0  0
  -10.0285   20.4982  -32.4610 H   0  0  0  0  0  0  0  0  0  0  0  0
   -7.9680   24.7475  -30.2677 H   0  0  0  0  0  0  0  0  0  0  0  0
   -5.9230   26.0499  -29.7023 H   0  0  0  0  0  0  0  0  0  0  0  0
   -1.2308   19.4351  -31.0338 H   0  0  0  0  0  0  0  0  0  0  0  0
    2.4506   18.9937  -33.9253 H   0  0  0  0  0  0  0  0  0  0  0  0
    3.1754   20.1437  -36.0209 H   0  0  0  0  0  0  0  0  0  0  0  0
    1.7705   21.9576  -37.0088 H   0  0  0  0  0  0  0  0  0  0  0  0
   -0.3561   22.6479  -35.8859 H   0  0  0  0  0  0  0  0  0  0  0  0
  1  2  2  0
  2  3  1  0
  3  4  1  0
  4  5  2  0
  5  6  1  0
  6  7  1  0
  7  8  2  0
  7  9  2  0
  7 10  1  0
 10 11  1  0
 11 12  1  0
 12 13  1  0
 13 14  1  0
 14 15  1  0
  6 16  2  0
 16 17  1  0
 17 18  2  0
 18 19  1  0
  2 20  1  0
 20 21  2  0
 21 22  1  0
 22 23  2  0
 23 24  1  0
 24 25  2  0
 25 26  1  0
 26 27  2  0
 27 28  1  0
 28 29  2  0
 18  4  1  0
 29 20  1  0
 15 10  1  0
 28 23  1  0
  3 30  1  0
  5 31  1  0
 11 32  1  0
 11 33  1  0
 12 34  1  0
 12 35  1  0
 13 36  1  0
 13 37  1  0
 14 38  1  0
 14 39  1  0
 15 40  1  0
 15 41  1  0
 16 42  1  0
 17 43  1  0
 21 44  1  0
 24 45  1  0
 25 46  1  0
 26 47  1  0
 27 48  1  0
M  CHG  1  19  -1
M  END
>  <UniqueID>  (2) 
2

>  <SMILES>  (2) 
O=C(Nc1cc(S(=O)(=O)N2CCCCC2)ccc1[O-])c1cnc2ccccc2n1

>  <Energy>  (2) 
66.31688067664146

>  <Genealogy>  (2) 
O=C(Nc1cc(S(=O)(=O)N2CCCCC2)ccc1[O-])c1cnc2ccccc2n1 (protonated)
O=C(Nc1cc(S(=O)(=O)N2CCCCC2)ccc1[O-])c1cnc2ccccc2n1 (3D coordinates assigned)
O=C(Nc1cc(S(=O)(=O)N2CCCCC2)ccc1[O-])c1cnc2ccccc2n1 (nonaromatic ring conformer: 66.31688067664146 kcal/mol)

>  <smiles>  (2) 
O=C(Nc1cc(S(=O)(=O)N2CCCCC2)ccc1O)c1cnc2ccccc2n1

>  <score_type>  (2) 
oracle

>  <origin>  (2) 
adgpu

>  <m_score__min__energy>  (2) 
-13.130000000000001

>  <m_primary>  (2) 
energy

$$$$
2:0
     RDKit          3D

 46 47  0  0  0  0  0  0  0  0999 V2000
   -3.3030   18.8240  -26.3680 C   0  0  0  0  0  0  0  0  0  0  0  0
   -1.9770   19.5360  -26.5820 C   0  0  0  0  0  0  0  0  0  0  0  0
   -1.9180   20.0390  -27.9130 O   0  0  0  0  0  0  0  0  0  0  0  0
   -2.6870   21.1120  -28.3950 C   0  0  0  0  0  0  0  0  0  0  0  0
   -3.4390   21.9330  -27.5330 C   0  0  0  0  0  0  0  0  0  0  0  0
   -4.2010   22.9850  -28.0440 C   0  0  0  0  0  0  0  0  0  0  0  0
   -4.2170   23.2420  -29.4180 C   0  0  0  0  0  0  0  0  0  0  0  0
   -5.1960   24.5600  -30.0610 S   0  0  0  0  0  0  0  0  0  0  0  0
   -4.3290   25.5050  -30.8460 O   0  0  0  0  0  0  0  0  0  0  0  0
   -5.8120   25.3230  -28.9210 O   0  0  0  0  0  0  0  0  0  0  0  0
   -6.4630   23.9370  -31.0750 N   0  0  0  0  0  0  0  0  0  0  0  0
   -5.8940   23.3960  -32.3100 C   0  0  0  0  0  0  0  0  0  0  0  0
   -6.1960   21.9210  -32.4080 C   0  0  0  0  0  0  0  0  0  0  0  0
   -5.1770   21.0230  -32.7240 C   0  0  0  0  0  0  0  0  0  0  0  0
   -5.4460   19.6630  -32.7980 C   0  0  0  0  0  0  0  0  0  0  0  0
   -6.7400   19.1880  -32.5450 C   0  0  0  0  0  0  0  0  0  0  0  0
   -6.9880   17.7010  -32.6240 C   0  0  0  0  0  0  0  0  0  0  0  0
   -7.7510   20.0740  -32.2310 N   0  0  0  0  0  0  0  0  0  0  0  0
   -9.1030   19.5660  -31.9350 C   0  0  0  0  0  0  0  0  0  0  0  0
   -7.4890   21.4250  -32.1470 C   0  0  0  0  0  0  0  0  0  0  0  0
   -8.4040   22.2370  -31.8340 O   0  0  0  0  0  0  0  0  0  0  0  0
   -3.4690   22.4340  -30.2820 C   0  0  0  0  0  0  0  0  0  0  0  0
   -2.7040   21.3700  -29.7790 C   0  0  0  0  0  0  0  0  0  0  0  0
   -1.9200   20.4970  -30.7190 C   0  0  0  0  0  0  0  0  0  0  0  0
   -3.4942   18.7213  -25.2896 H   0  0  0  0  0  0  0  0  0  0  0  0
   -4.1120   19.4090  -26.8298 H   0  0  0  0  0  0  0  0  0  0  0  0
   -3.2623   17.8264  -26.8298 H   0  0  0  0  0  0  0  0  0  0  0  0
   -1.8897   20.3703  -25.8705 H   0  0  0  0  0  0  0  0  0  0  0  0
   -1.1505   18.8284  -26.4203 H   0  0  0  0  0  0  0  0  0  0  0  0
   -3.4259   21.7441  -26.4494 H   0  0  0  0  0  0  0  0  0  0  0  0
   -4.7916   23.6147  -27.3624 H   0  0  0  0  0  0  0  0  0  0  0  0
   -6.9130   23.1500  -30.5510 H   0  0  0  0  0  0  0  0  0  0  0  0
   -6.3333   23.9170  -33.1735 H   0  0  0  0  0  0  0  0  0  0  0  0
   -4.8040   23.5441  -32.3034 H   0  0  0  0  0  0  0  0  0  0  0  0
   -4.1587   21.3927  -32.9149 H   0  0  0  0  0  0  0  0  0  0  0  0
   -4.6424   18.9573  -33.0555 H   0  0  0  0  0  0  0  0  0  0  0  0
   -7.0572   17.2863  -31.6075 H   0  0  0  0  0  0  0  0  0  0  0  0
   -7.9297   17.5143  -33.1610 H   0  0  0  0  0  0  0  0  0  0  0  0
   -6.1579   17.2188  -33.1610 H   0  0  0  0  0  0  0  0  0  0  0  0
   -9.2443   19.5129  -30.8454 H   0  0  0  0  0  0  0  0  0  0  0  0
   -9.8526   20.2438  -32.3694 H   0  0  0  0  0  0  0  0  0  0  0  0
   -9.2208   18.5623  -32.3694 H   0  0  0  0  0  0  0  0  0  0  0  0
   -3.4807   22.6343  -31.3635 H   0  0  0  0  0  0  0  0  0  0  0  0
   -1.2956   19.8017  -30.1389 H   0  0  0  0  0  0  0  0  0  0  0  0
   -2.6137   19.9252  -31.3529 H   0  0  0  0  0  0  0  0  0  0  0  0
   -1.2772   21.1254  -31.3529 H   0  0  0  0  0  0  0  0  0  0  0  0
  1  2  1  0
  2  3  1  0
  3  4  1  0
  4  5  2  0
  5  6  1  0
  6  7  2  0
  7  8  1  0
  8  9  2  0
  8 10  2  0
  8 11  1  0
 11 12  1  0
 12 13  1  0
 13 14  2  0
 14 15  1  0
 15 16  2  0
 16 17  1  0
 16 18  1  0
 18 19  1  0
 18 20  1  0
 20 21  2  0
  7 22  1  0
 22 23  2  0
 23 24  1  0
 23  4  1  0
 20 13  1  0
  1 25  1  0
  1 26  1  0
  1 27  1  0
  2 28  1  0
  2 29  1  0
  5 30  1  0
  6 31  1  0
 11 32  1  0
 12 33  1  0
 12 34  1  0
 14 35  1  0
 15 36  1  0
 17 37  1  0
 17 38  1  0
 17 39  1  0
 19 40  1  0
 19 41  1  0
 19 42  1  0
 22 43  1  0
 24 44  1  0
 24 45  1  0
 24 46  1  0
M  END
>  <UniqueID>  (3) 
3

>  <SMILES>  (3) 
CCOc1ccc(S(=O)(=O)NCc2ccc(C)n(C)c2=O)cc1C

>  <Energy>  (3) 
44.6504312075039

>  <Genealogy>  (3) 
CCOc1ccc(S(=O)(=O)NCc2ccc(C)n(C)c2=O)cc1C (3D coordinates assigned)
CCOc1ccc(S(=O)(=O)NCc2ccc(C)n(C)c2=O)cc1C (optimized conformer: 44.6504312075039 kcal/mol)

>  <smiles>  (3) 
CCOc1ccc(S(=O)(=O)NCc2ccc(C)n(C)c2=O)cc1C

>  <score_type>  (3) 
oracle

>  <origin>  (3) 
adgpu

>  <m_score__min__energy>  (3) 
-9.5099999999999998

>  <m_primary>  (3) 
energy

$$$$
3:0
     RDKit          3D

 28 29  0  0  0  0  0  0  0  0999 V2000
  -10.4305   19.9808  -32.0235 H   0  0  0  0  0  0  0  0  0  0  0  0
   -9.3820   20.3000  -32.1170 C   0  0  0  0  0  0  0  0  0  0  0  0
   -8.4920   19.5190  -32.7790 N   0  0  0  0  0  0  0  0  0  0  0  0
   -7.1860   19.8700  -32.9310 C   0  0  0  0  0  0  0  0  0  0  0  0
   -6.1150   18.7090  -33.7910 S   0  0  0  0  0  0  0  0  0  0  0  0
   -6.4320   17.3610  -32.6110 C   0  0  0  0  0  0  0  0  0  0  0  0
   -6.3419   17.7441  -31.5838 H   0  0  0  0  0  0  0  0  0  0  0  0
   -7.4472   16.9675  -32.7679 H   0  0  0  0  0  0  0  0  0  0  0  0
   -5.6986   16.5563  -32.7679 H   0  0  0  0  0  0  0  0  0  0  0  0
   -6.7190   21.0950  -32.3870 C   0  0  0  0  0  0  0  0  0  0  0  0
   -5.3160   21.5670  -32.5220 C   0  0  0  0  0  0  0  0  0  0  0  0
   -4.3820   20.7530  -32.7420 O   0  0  0  0  0  0  0  0  0  0  0  0
   -5.0140   22.9550  -32.3220 N   0  0  0  0  0  0  0  0  0  0  0  0
   -4.4430   23.5010  -31.2860 C   0  0  0  0  0  0  0  0  0  0  0  0
   -4.3400   24.8020  -31.1490 O   0  0  0  0  0  0  0  0  0  0  0  0
   -3.7150   25.0950  -30.0470 N   0  0  0  0  0  0  0  0  0  0  0  0
   -3.4880   26.0630  -29.7300 H   0  0  0  0  0  0  0  0  0  0  0  0
   -3.3860   23.9440  -29.4320 C   0  0  0  0  0  0  0  0  0  0  0  0
   -2.5370   23.8610  -28.2040 C   0  0  0  0  0  0  0  0  0  0  0  0
   -3.1765   23.9235  -27.3112 H   0  0  0  0  0  0  0  0  0  0  0  0
   -1.9923   22.9053  -28.1987 H   0  0  0  0  0  0  0  0  0  0  0  0
   -1.8176   24.6931  -28.1987 H   0  0  0  0  0  0  0  0  0  0  0  0
   -3.8270   22.8800  -30.1990 C   0  0  0  0  0  0  0  0  0  0  0  0
   -3.3980   21.1920  -29.9460 Cl  0  0  0  0  0  0  0  0  0  0  0  0
   -7.6380   21.9000  -31.6910 C   0  0  0  0  0  0  0  0  0  0  0  0
   -7.3042   22.8503  -31.2488 H   0  0  0  0  0  0  0  0  0  0  0  0
   -8.9690   21.5050  -31.5560 C   0  0  0  0  0  0  0  0  0  0  0  0
   -9.6846   22.1391  -31.0120 H   0  0  0  0  0  0  0  0  0  0  0  0
  1  2  1  0
  2  3  2  0
  3  4  1  0
  4  5  1  0
  5  6  1  0
  6  7  1  0
  6  8  1  0
  6  9  1  0
  4 10  2  0
 10 11  1  0
 11 12  2  0
 11 13  1  0
 13 14  2  0
 14 15  1  0
 15 16  1  0
 16 17  1  0
 16 18  1  0
 18 19  1  0
 19 20  1  0
 19 21  1  0
 19 22  1  0
 18 23  2  0
 23 24  1  0
 10 25  1  0
 25 26  1  0
 25 27  2  0
 27 28  1  0
 27  2  1  0
 23 14  1  0
M  END
>  <UniqueID>  (4) 
4

>  <SMILES>  (4) 
CSc1ncccc1C(=O)/N=c1/o[nH]c(C)c1Cl

>  <Energy>  (4) 
70.45513665351628

>  <Genealogy>  (4) 
CSc1ncccc1C(=O)/N=c1/o[nH]c(C)c1Cl (cis-trans isomerization)
CSc1ncccc1C(=O)/N=c1/o[nH]c(C)c1Cl (3D coordinates assigned)
CSc1ncccc1C(=O)/N=c1/o[nH]c(C)c1Cl (optimized conformer: 70.45513665351628 kcal/mol)

>  <smiles>  (4) 
CSc1ncccc1C(=O)N=c1o[nH]c(C)c1Cl

>  <score_type>  (4) 
oracle

>  <origin>  (4) 
adgpu

>  <m_score__min__energy>  (4) 
-7.7800000000000002

>  <m_primary>  (4) 
energy

$$$$
4:0
     RDKit          3D

 53 56  0  0  0  0  0  0  0  0999 V2000
   -5.0090   25.6720  -31.2270 O   0  0  0  0  0  0  0  0  0  0  0  0
   -5.6710   24.8830  -30.1330 S   0  0  0  0  0  0  0  0  0  0  0  0
   -6.9690   25.5450  -29.7660 O   0  0  0  0  0  0  0  0  0  0  0  0
   -4.6370   24.8510  -28.7390 N   0  0  0  0  0  0  0  0  0  0  0  0
   -3.5300   23.9400  -28.5950 C   0  0  0  0  0  0  0  0  0  0  0  0
   -3.7260   22.6210  -28.1490 C   0  0  0  0  0  0  0  0  0  0  0  0
   -2.6510   21.7260  -28.0470 C   0  0  0  0  0  0  0  0  0  0  0  0
   -1.3430   22.1730  -28.3410 C   0  0  0  0  0  0  0  0  0  0  0  0
   -1.1480   23.4910  -28.7770 C   0  0  0  0  0  0  0  0  0  0  0  0
   -2.2270   24.3680  -28.9010 C   0  0  0  0  0  0  0  0  0  0  0  0
   -1.9970   25.6670  -29.3420 O   0  0  0  0  0  0  0  0  0  0  0  0
   -0.1580   21.2350  -28.3000 C   0  0  0  0  0  0  0  0  0  0  0  0
   -0.4250   19.9850  -27.4560 C   0  0  0  0  0  0  0  0  0  0  0  0
   -1.7680   19.3630  -27.8350 C   0  0  0  0  0  0  0  0  0  0  0  0
   -2.9100   20.3330  -27.5220 C   0  0  0  0  0  0  0  0  0  0  0  0
   -5.9490   23.2410  -30.7090 C   0  0  0  0  0  0  0  0  0  0  0  0
   -4.8950   22.4810  -31.2350 C   0  0  0  0  0  0  0  0  0  0  0  0
   -5.1350   21.1950  -31.7290 C   0  0  0  0  0  0  0  0  0  0  0  0
   -6.4280   20.6570  -31.6970 C   0  0  0  0  0  0  0  0  0  0  0  0
   -6.7200   19.0410  -32.3330 S   0  0  0  0  0  0  0  0  0  0  0  0
   -8.1250   18.9870  -32.8640 O   0  0  0  0  0  0  0  0  0  0  0  0
   -6.5700   18.0290  -31.2310 O   0  0  0  0  0  0  0  0  0  0  0  0
   -5.5740   18.7100  -33.6160 N   0  0  0  0  0  0  0  0  0  0  0  0
   -4.2560   18.2970  -33.0850 C   0  0  0  0  0  0  0  0  0  0  0  0
   -4.0490   16.7720  -33.1260 C   0  0  0  0  0  0  0  0  0  0  0  0
   -5.2750   16.1070  -32.9270 O   0  0  0  0  0  0  0  0  0  0  0  0
   -6.1230   16.2980  -34.0460 C   0  0  0  0  0  0  0  0  0  0  0  0
   -6.1130   17.7470  -34.5930 C   0  0  0  0  0  0  0  0  0  0  0  0
   -7.4810   21.4160  -31.1680 C   0  0  0  0  0  0  0  0  0  0  0  0
   -7.2410   22.7020  -30.6750 C   0  0  0  0  0  0  0  0  0  0  0  0
   -4.7690   25.6150  -28.0400 H   0  0  0  0  0  0  0  0  0  0  0  0
   -4.7376   22.2861  -27.8760 H   0  0  0  0  0  0  0  0  0  0  0  0
   -0.1338   23.8379  -29.0241 H   0  0  0  0  0  0  0  0  0  0  0  0
    0.0794   20.9222  -29.3275 H   0  0  0  0  0  0  0  0  0  0  0  0
    0.6799   21.7768  -27.8370 H   0  0  0  0  0  0  0  0  0  0  0  0
    0.3762   19.2518  -27.6308 H   0  0  0  0  0  0  0  0  0  0  0  0
   -0.4512   20.2705  -26.3940 H   0  0  0  0  0  0  0  0  0  0  0  0
   -1.7711   19.1339  -28.9109 H   0  0  0  0  0  0  0  0  0  0  0  0
   -1.9122   18.4408  -27.2529 H   0  0  0  0  0  0  0  0  0  0  0  0
   -3.8333   19.9497  -27.9810 H   0  0  0  0  0  0  0  0  0  0  0  0
   -2.9982   20.4010  -26.4277 H   0  0  0  0  0  0  0  0  0  0  0  0
   -3.8770   22.8971  -31.2592 H   0  0  0  0  0  0  0  0  0  0  0  0
   -4.3055   20.6038  -32.1442 H   0  0  0  0  0  0  0  0  0  0  0  0
   -3.4689   18.7751  -33.6867 H   0  0  0  0  0  0  0  0  0  0  0  0
   -4.2100   18.6098  -32.0314 H   0  0  0  0  0  0  0  0  0  0  0  0
   -3.6368   16.4879  -34.1055 H   0  0  0  0  0  0  0  0  0  0  0  0
   -3.3514   16.4838  -32.3258 H   0  0  0  0  0  0  0  0  0  0  0  0
   -5.7963   15.6211  -34.8492 H   0  0  0  0  0  0  0  0  0  0  0  0
   -7.1496   16.0870  -33.7118 H   0  0  0  0  0  0  0  0  0  0  0  0
   -5.4918   17.7783  -35.5003 H   0  0  0  0  0  0  0  0  0  0  0  0
   -7.1532   18.0326  -34.8083 H   0  0  0  0  0  0  0  0  0  0  0  0
   -8.4985   20.9988  -31.1407 H   0  0  0  0  0  0  0  0  0  0  0  0
   -8.0703   23.2928  -30.2588 H   0  0  0  0  0  0  0  0  0  0  0  0
  1  2  2  0
  2  3  2  0
  2  4  1  0
  4  5  1  0
  5  6  2  0
  6  7  1  0
  7  8  2  0
  8  9  1  0
  9 10  2  0
 10 11  1  0
  8 12  1  0
 12 13  1  0
 13 14  1  0
 14 15  1  0
  2 16  1  0
 16 17  2  0
 17 18  1  0
 18 19  2  0
 19 20  1  0
 20 21  2  0
 20 22  2  0
 20 23  1  0
 23 24  1  0
 24 25  1  0
 25 26  1  0
 26 27  1  0
 27 28  1  0
 19 29  1  0
 29 30  2  0
 10  5  1  0
 30 16  1  0
 15  7  1  0
 28 23  1  0
  4 31  1  0
  6 32  1  0
  9 33  1  0
 12 34  1  0
 12 35  1  0
 13 36  1  0
 13 37  1  0
 14 38  1  0
 14 39  1  0
 15 40  1  0
 15 41  1  0
 17 42  1  0
 18 43  1  0
 24 44  1  0
 24 45  1  0
 25 46  1  0
 25 47  1  0
 27 48  1  0
 27 49  1  0
 28 50  1  0
 28 51  1  0
 29 52  1  0
 30 53  1  0
M  CHG  1  11  -1
M  END
>  <UniqueID>  (5) 
5

>  <SMILES>  (5) 
O=S(=O)(Nc1cc2c(cc1[O-])CCCC2)c1ccc(S(=O)(=O)N2CCOCC2)cc1

>  <Energy>  (5) 
68.22136200499794

>  <Genealogy>  (5) 
O=S(=O)(Nc1cc2c(cc1[O-])CCCC2)c1ccc(S(=O)(=O)N2CCOCC2)cc1 (protonated)
O=S(=O)(Nc1cc2c(cc1[O-])CCCC2)c1ccc(S(=O)(=O)N2CCOCC2)cc1 (3D coordinates assigned)
O=S(=O)(Nc1cc2c(cc1[O-])CCCC2)c1ccc(S(=O)(=O)N2CCOCC2)cc1 (nonaromatic ring conformer: 68.22136200499794 kcal/mol)

>  <smiles>  (5) 
O=S(=O)(Nc1cc2c(cc1O)CCCC2)c1ccc(S(=O)(=O)N2CCOCC2)cc1

>  <score_type>  (5) 
oracle

>  <origin>  (5) 
adgpu

>  <m_score__min__energy>  (5) 
-14.380000000000001

>  <m_primary>  (5) 
energy

$$$$
5:0
     RDKit          3D

 58 61  0  0  0  0  0  0  0  0999 V2000
   -1.3660   20.2330  -34.6640 O   0  0  0  0  0  0  0  0  0  0  0  0
   -2.2160   19.8970  -33.7960 C   0  0  0  0  0  0  0  0  0  0  0  0
   -2.7360   20.9390  -32.8950 C   0  0  0  0  0  0  0  0  0  0  0  0
   -4.0510   21.3980  -33.0550 C   0  0  0  0  0  0  0  0  0  0  0  0
   -4.5650   22.3700  -32.1930 C   0  0  0  0  0  0  0  0  0  0  0  0
   -3.7700   22.8930  -31.1620 C   0  0  0  0  0  0  0  0  0  0  0  0
   -4.4260   24.1090  -30.0620 S   0  0  0  0  0  0  0  0  0  0  0  0
   -3.4860   25.2830  -30.0680 O   0  0  0  0  0  0  0  0  0  0  0  0
   -5.7440   24.5810  -30.6150 O   0  0  0  0  0  0  0  0  0  0  0  0
   -4.6150   23.5530  -28.3960 N   0  0  0  0  0  0  0  0  0  0  0  0
   -3.9470   22.2580  -28.1540 C   0  0  0  0  0  0  0  0  0  0  0  0
   -2.4420   22.4410  -27.9370 C   0  0  0  0  0  0  0  0  0  0  0  0
   -2.2100   23.2900  -26.8320 O   0  0  0  0  0  0  0  0  0  0  0  0
   -2.6990   24.5820  -27.1280 C   0  0  0  0  0  0  0  0  0  0  0  0
   -4.2210   24.5580  -27.3840 C   0  0  0  0  0  0  0  0  0  0  0  0
   -2.4410   22.4600  -31.0280 C   0  0  0  0  0  0  0  0  0  0  0  0
   -1.9310   21.4800  -31.8850 C   0  0  0  0  0  0  0  0  0  0  0  0
   -2.7100   18.5390  -33.7460 N   0  0  0  0  0  0  0  0  0  0  0  0
   -3.6910   18.1260  -32.7310 C   0  0  0  0  0  0  0  0  0  0  0  0
   -4.3820   16.8190  -33.1410 C   0  0  0  0  0  0  0  0  0  0  0  0
   -4.6820   16.7950  -34.5900 N   0  0  0  0  0  0  0  0  0  0  0  0
   -5.6580   17.8280  -35.0120 C   0  0  0  0  0  0  0  0  0  0  0  0
   -6.4820   18.3280  -33.8530 C   0  0  0  0  0  0  0  0  0  0  0  0
   -7.2290   17.4350  -33.0640 C   0  0  0  0  0  0  0  0  0  0  0  0
   -8.0210   17.9130  -32.0150 C   0  0  0  0  0  0  0  0  0  0  0  0
   -8.0720   19.2830  -31.7470 C   0  0  0  0  0  0  0  0  0  0  0  0
   -7.3190   20.1780  -32.5170 C   0  0  0  0  0  0  0  0  0  0  0  0
   -6.5330   19.7040  -33.5710 C   0  0  0  0  0  0  0  0  0  0  0  0
   -3.4450   16.8450  -35.4120 C   0  0  0  0  0  0  0  0  0  0  0  0
   -2.2510   17.5390  -34.7220 C   0  0  0  0  0  0  0  0  0  0  0  0
   -4.6796   20.9919  -33.8612 H   0  0  0  0  0  0  0  0  0  0  0  0
   -5.5974   22.7268  -32.3232 H   0  0  0  0  0  0  0  0  0  0  0  0
   -5.6420   23.3880  -28.2740 H   0  0  0  0  0  0  0  0  0  0  0  0
   -4.3840   21.7909  -27.2591 H   0  0  0  0  0  0  0  0  0  0  0  0
   -4.0956   21.6198  -29.0375 H   0  0  0  0  0  0  0  0  0  0  0  0
   -1.9803   21.4610  -27.7460 H   0  0  0  0  0  0  0  0  0  0  0  0
   -2.0011   22.8937  -28.8374 H   0  0  0  0  0  0  0  0  0  0  0  0
   -2.4885   25.2485  -26.2786 H   0  0  0  0  0  0  0  0  0  0  0  0
   -2.1985   24.9436  -28.0383 H   0  0  0  0  0  0  0  0  0  0  0  0
   -4.7330   24.3248  -26.4388 H   0  0  0  0  0  0  0  0  0  0  0  0
   -4.5083   25.5474  -27.7695 H   0  0  0  0  0  0  0  0  0  0  0  0
   -1.7993   22.8930  -30.2466 H   0  0  0  0  0  0  0  0  0  0  0  0
   -0.8941   21.1329  -31.7654 H   0  0  0  0  0  0  0  0  0  0  0  0
   -3.1752   17.9755  -31.7712 H   0  0  0  0  0  0  0  0  0  0  0  0
   -4.4534   18.9133  -32.6367 H   0  0  0  0  0  0  0  0  0  0  0  0
   -3.7207   15.9740  -32.8989 H   0  0  0  0  0  0  0  0  0  0  0  0
   -5.3315   16.7435  -32.5909 H   0  0  0  0  0  0  0  0  0  0  0  0
   -5.1115   18.6753  -35.4518 H   0  0  0  0  0  0  0  0  0  0  0  0
   -6.3405   17.3735  -35.7452 H   0  0  0  0  0  0  0  0  0  0  0  0
   -7.1902   16.3557  -33.2729 H   0  0  0  0  0  0  0  0  0  0  0  0
   -8.6036   17.2103  -31.4012 H   0  0  0  0  0  0  0  0  0  0  0  0
   -8.7047   19.6594  -30.9297 H   0  0  0  0  0  0  0  0  0  0  0  0
   -7.3461   21.2545  -32.2922 H   0  0  0  0  0  0  0  0  0  0  0  0
   -5.9521   20.4105  -34.1821 H   0  0  0  0  0  0  0  0  0  0  0  0
   -3.1506   15.8132  -35.6544 H   0  0  0  0  0  0  0  0  0  0  0  0
   -3.6838   17.4424  -36.3042 H   0  0  0  0  0  0  0  0  0  0  0  0
   -1.6466   16.7810  -34.2022 H   0  0  0  0  0  0  0  0  0  0  0  0
   -1.6531   18.0506  -35.4907 H   0  0  0  0  0  0  0  0  0  0  0  0
  1  2  2  0
  2  3  1  0
  3  4  2  0
  4  5  1  0
  5  6  2  0
  6  7  1  0
  7  8  2  0
  7  9  2  0
  7 10  1  0
 10 11  1  0
 11 12  1  0
 12 13  1  0
 13 14  1  0
 14 15  1  0
  6 16  1  0
 16 17  2  0
  2 18  1  0
 18 19  1  0
 19 20  1  0
 20 21  1  0
 21 22  1  0
 22 23  1  0
 23 24  2  0
 24 25  1  0
 25 26  2  0
 26 27  1  0
 27 28  2  0
 21 29  1  0
 29 30  1  0
 17  3  1  0
 30 18  1  0
 15 10  1  0
 28 23  1  0
  4 31  1  0
  5 32  1  0
 10 33  1  0
 11 34  1  0
 11 35  1  0
 12 36  1  0
 12 37  1  0
 14 38  1  0
 14 39  1  0
 15 40  1  0
 15 41  1  0
 16 42  1  0
 17 43  1  0
 19 44  1  0
 19 45  1  0
 20 46  1  0
 20 47  1  0
 22 48  1  0
 22 49  1  0
 24 50  1  0
 25 51  1  0
 26 52  1  0
 27 53  1  0
 28 54  1  0
 29 55  1  0
 29 56  1  0
 30 57  1  0
 30 58  1  0
M  CHG  1  10   1
M  END
>  <UniqueID>  (6) 
6

>  <SMILES>  (6) 
O=C(c1ccc(S(=O)(=O)[NH+]2CCOCC2)cc1)N1CCN(Cc2ccccc2)CC1

>  <Energy>  (6) 
81.26619092323759

>  <Genealogy>  (6) 
O=C(c1ccc(S(=O)(=O)[NH+]2CCOCC2)cc1)N1CCN(Cc2ccccc2)CC1 (protonated)
O=C(c1ccc(S(=O)(=O)[NH+]2CCOCC2)cc1)N1CCN(Cc2ccccc2)CC1 (3D coordinates assigned)
O=C(c1ccc(S(=O)(=O)[NH+]2CCOCC2)cc1)N1CCN(Cc2ccccc2)CC1 (nonaromatic ring conformer: 81.26619092323759 kcal/mol)

>  <smiles>  (6) 
O=C(c1ccc(S(=O)(=O)N2CCOCC2)cc1)N1CCN(Cc2ccccc2)CC1

>  <score_type>  (6) 
oracle

>  <origin>  (6) 
adgpu

>  <m_score__min__energy>  (6) 
-9.7300000000000004

>  <m_primary>  (6) 
energy

$$$$
6:0
     RDKit          3D

 57 60  0  0  0  0  0  0  0  0999 V2000
   -7.3510   17.9930  -33.2110 O   0  0  0  0  0  0  0  0  0  0  0  0
   -6.8230   19.1360  -33.2280 C   0  0  0  0  0  0  0  0  0  0  0  0
   -5.6630   19.3580  -34.0370 N   0  0  0  0  0  0  0  0  0  0  0  0
   -4.3650   19.7010  -33.5320 C   0  0  0  0  0  0  0  0  0  0  0  0
   -3.4060   18.7140  -33.2450 C   0  0  0  0  0  0  0  0  0  0  0  0
   -2.1080   19.0790  -32.8760 C   0  0  0  0  0  0  0  0  0  0  0  0
   -1.7540   20.4310  -32.7770 C   0  0  0  0  0  0  0  0  0  0  0  0
   -0.0840   20.8910  -32.4220 S   0  0  0  0  0  0  0  0  0  0  0  0
   -0.0850   21.9090  -31.3140 O   0  0  0  0  0  0  0  0  0  0  0  0
    0.6630   19.6800  -31.9380 O   0  0  0  0  0  0  0  0  0  0  0  0
    0.7570   21.5530  -33.8020 N   0  0  0  0  0  0  0  0  0  0  0  0
   -0.1180   21.7030  -34.9640 C   0  0  0  0  0  0  0  0  0  0  0  0
    0.7700   21.5930  -36.1970 C   0  0  0  0  0  0  0  0  0  0  0  0
    2.1030   21.0590  -35.6920 C   0  0  0  0  0  0  0  0  0  0  0  0
    1.8510   20.6940  -34.2420 C   0  0  0  0  0  0  0  0  0  0  0  0
   -2.7160   21.4160  -33.0450 C   0  0  0  0  0  0  0  0  0  0  0  0
   -4.0100   21.0510  -33.4290 C   0  0  0  0  0  0  0  0  0  0  0  0
   -7.4730   20.2500  -32.5110 C   0  0  0  0  0  0  0  0  0  0  0  0
   -6.6630   21.2580  -31.9650 C   0  0  0  0  0  0  0  0  0  0  0  0
   -7.2340   22.3850  -31.3650 C   0  0  0  0  0  0  0  0  0  0  0  0
   -6.1910   23.6860  -30.7950 S   0  0  0  0  0  0  0  0  0  0  0  0
   -5.3730   24.1780  -31.9560 O   0  0  0  0  0  0  0  0  0  0  0  0
   -7.0210   24.8280  -30.2770 O   0  0  0  0  0  0  0  0  0  0  0  0
   -5.1320   23.0990  -29.5360 N   0  0  0  0  0  0  0  0  0  0  0  0
   -4.6870   24.2200  -28.6850 C   0  0  0  0  0  0  0  0  0  0  0  0
   -3.3550   23.8850  -27.9960 C   0  0  0  0  0  0  0  0  0  0  0  0
   -2.2870   23.6490  -28.9030 O   0  0  0  0  0  0  0  0  0  0  0  0
   -2.7080   23.1530  -30.1660 C   0  0  0  0  0  0  0  0  0  0  0  0
   -4.0070   22.3260  -30.1070 C   0  0  0  0  0  0  0  0  0  0  0  0
   -8.6260   22.4860  -31.2640 C   0  0  0  0  0  0  0  0  0  0  0  0
   -9.4410   21.4770  -31.7820 C   0  0  0  0  0  0  0  0  0  0  0  0
   -8.8770   20.3600  -32.4110 C   0  0  0  0  0  0  0  0  0  0  0  0
   -9.7340   19.3720  -32.9030 O   0  0  0  0  0  0  0  0  0  0  0  0
   -3.6781   17.6502  -33.3110 H   0  0  0  0  0  0  0  0  0  0  0  0
   -1.3607   18.3007  -32.6622 H   0  0  0  0  0  0  0  0  0  0  0  0
   -0.8778   20.9076  -34.9717 H   0  0  0  0  0  0  0  0  0  0  0  0
   -0.6453   22.6681  -34.9406 H   0  0  0  0  0  0  0  0  0  0  0  0
    0.3294   20.8983  -36.9273 H   0  0  0  0  0  0  0  0  0  0  0  0
    0.8847   22.5619  -36.7050 H   0  0  0  0  0  0  0  0  0  0  0  0
    2.4080   20.1724  -36.2672 H   0  0  0  0  0  0  0  0  0  0  0  0
    2.9126   21.7959  -35.7996 H   0  0  0  0  0  0  0  0  0  0  0  0
    1.5649   19.6352  -34.1574 H   0  0  0  0  0  0  0  0  0  0  0  0
    2.7511   20.8359  -33.6258 H   0  0  0  0  0  0  0  0  0  0  0  0
   -2.4514   22.4797  -32.9527 H   0  0  0  0  0  0  0  0  0  0  0  0
   -4.7540   21.8300  -33.6516 H   0  0  0  0  0  0  0  0  0  0  0  0
   -5.5682   21.1606  -32.0095 H   0  0  0  0  0  0  0  0  0  0  0  0
   -4.5552   25.1164  -29.3088 H   0  0  0  0  0  0  0  0  0  0  0  0
   -5.4487   24.4007  -27.9122 H   0  0  0  0  0  0  0  0  0  0  0  0
   -3.0786   24.7280  -27.3457 H   0  0  0  0  0  0  0  0  0  0  0  0
   -3.5099   22.9534  -27.4319 H   0  0  0  0  0  0  0  0  0  0  0  0
   -2.8716   24.0086  -30.8377 H   0  0  0  0  0  0  0  0  0  0  0  0
   -1.9158   22.4805  -30.5267 H   0  0  0  0  0  0  0  0  0  0  0  0
   -4.2740   22.0112  -31.1266 H   0  0  0  0  0  0  0  0  0  0  0  0
   -3.8271   21.4576  -29.4562 H   0  0  0  0  0  0  0  0  0  0  0  0
   -9.0791   23.3615  -30.7759 H   0  0  0  0  0  0  0  0  0  0  0  0
  -10.5344   21.5603  -31.6953 H   0  0  0  0  0  0  0  0  0  0  0  0
   -9.4190   18.6180  -33.4980 H   0  0  0  0  0  0  0  0  0  0  0  0
  1  2  2  0
  2  3  1  0
  3  4  1  0
  4  5  2  0
  5  6  1  0
  6  7  2  0
  7  8  1  0
  8  9  2  0
  8 10  2  0
  8 11  1  0
 11 12  1  0
 12 13  1  0
 13 14  1  0
 14 15  1  0
  7 16  1  0
 16 17  2  0
  2 18  1  0
 18 19  2  0
 19 20  1  0
 20 21  1  0
 21 22  2  0
 21 23  2  0
 21 24  1  0
 24 25  1  0
 25 26  1  0
 26 27  1  0
 27 28  1  0
 28 29  1  0
 20 30  2  0
 30 31  1  0
 31 32  2  0
 32 33  1  0
 17  4  1  0
 32 18  1  0
 15 11  1  0
 29 24  1  0
  5 34  1  0
  6 35  1  0
 12 36  1  0
 12 37  1  0
 13 38  1  0
 13 39  1  0
 14 40  1  0
 14 41  1  0
 15 42  1  0
 15 43  1  0
 16 44  1  0
 17 45  1  0
 19 46  1  0
 25 47  1  0
 25 48  1  0
 26 49  1  0
 26 50  1  0
 28 51  1  0
 28 52  1  0
 29 53  1  0
 29 54  1  0
 30 55  1  0
 31 56  1  0
 33 57  1  0
M  CHG  1   3  -1
M  END
>  <UniqueID>  (7) 
7

>  <SMILES>  (7) 
O=C([N-]c1ccc(S(=O)(=O)N2CCCC2)cc1)c1cc(S(=O)(=O)N2CCOCC2)ccc1O

>  <Energy>  (7) 
81.40747486259681

>  <Genealogy>  (7) 
O=C([N-]c1ccc(S(=O)(=O)N2CCCC2)cc1)c1cc(S(=O)(=O)N2CCOCC2)ccc1O (protonated)
O=C([N-]c1ccc(S(=O)(=O)N2CCCC2)cc1)c1cc(S(=O)(=O)N2CCOCC2)ccc1O (3D coordinates assigned)
O=C([N-]c1ccc(S(=O)(=O)N2CCCC2)cc1)c1cc(S(=O)(=O)N2CCOCC2)ccc1O (nonaromatic ring conformer: 81.40747486259681 kcal/mol)

>  <smiles>  (7) 
O=C(Nc1ccc(S(=O)(=O)N2CCCC2)cc1)c1cc(S(=O)(=O)N2CCOCC2)ccc1O

>  <score_type>  (7) 
oracle

>  <origin>  (7) 
adgpu

>  <m_score__min__energy>  (7) 
-11.390000000000001

>  <m_primary>  (7) 
energy

$$$$
7:0
     RDKit          3D

 51 54  0  0  0  0  0  0  0  0999 V2000
   -2.3750   18.9960  -26.4030 O   0  0  0  0  0  0  0  0  0  0  0  0
   -2.0820   20.1820  -26.7080 C   0  0  0  0  0  0  0  0  0  0  0  0
   -1.1450   20.9740  -25.8420 C   0  0  0  0  0  0  0  0  0  0  0  0
   -0.3390   21.9760  -26.6810 C   0  0  0  0  0  0  0  0  0  0  0  0
   -1.2200   22.7600  -27.6250 C   0  0  0  0  0  0  0  0  0  0  0  0
   -0.8710   24.0620  -28.0040 C   0  0  0  0  0  0  0  0  0  0  0  0
   -1.6320   24.7610  -28.9490 C   0  0  0  0  0  0  0  0  0  0  0  0
   -1.2420   26.0510  -29.2770 O   0  0  0  0  0  0  0  0  0  0  0  0
   -2.7590   24.1450  -29.5440 C   0  0  0  0  0  0  0  0  0  0  0  0
   -3.6010   24.7810  -30.5210 N   0  0  0  0  0  0  0  0  0  0  0  0
   -5.3320   24.8970  -30.5400 S   0  0  0  0  0  0  0  0  0  0  0  0
   -5.7360   26.1750  -31.2220 O   0  0  0  0  0  0  0  0  0  0  0  0
   -5.8290   24.9250  -29.1230 O   0  0  0  0  0  0  0  0  0  0  0  0
   -6.0380   23.5010  -31.3520 C   0  0  0  0  0  0  0  0  0  0  0  0
   -7.4210   23.2980  -31.3250 C   0  0  0  0  0  0  0  0  0  0  0  0
   -7.9810   22.1960  -31.9710 C   0  0  0  0  0  0  0  0  0  0  0  0
   -7.1680   21.2860  -32.6640 C   0  0  0  0  0  0  0  0  0  0  0  0
   -7.7950   20.2250  -33.3960 N   0  0  0  0  0  0  0  0  0  0  0  0
   -8.3320   19.0540  -32.7060 C   0  0  0  0  0  0  0  0  0  0  0  0
   -7.2650   18.0020  -32.5770 C   0  0  0  0  0  0  0  0  0  0  0  0
   -6.8800   17.2450  -33.6960 C   0  0  0  0  0  0  0  0  0  0  0  0
   -5.9200   16.2370  -33.5690 C   0  0  0  0  0  0  0  0  0  0  0  0
   -5.3420   15.9740  -32.3250 C   0  0  0  0  0  0  0  0  0  0  0  0
   -5.7320   16.7100  -31.2030 C   0  0  0  0  0  0  0  0  0  0  0  0
   -6.6970   17.7150  -31.3250 C   0  0  0  0  0  0  0  0  0  0  0  0
   -5.7640   21.4640  -32.6680 C   0  0  0  0  0  0  0  0  0  0  0  0
   -4.8890   20.4980  -33.2790 N   0  0  0  0  0  0  0  0  0  0  0  0
   -3.7220   20.3500  -32.8620 O   0  0  0  0  0  0  0  0  0  0  0  0
   -5.3680   19.6240  -34.2280 O   0  0  0  0  0  0  0  0  0  0  0  0
   -5.2160   22.5870  -32.0220 C   0  0  0  0  0  0  0  0  0  0  0  0
   -3.0920   22.8350  -29.1700 C   0  0  0  0  0  0  0  0  0  0  0  0
   -2.3330   22.1410  -28.2200 C   0  0  0  0  0  0  0  0  0  0  0  0
   -2.6990   20.8060  -27.8380 N   0  0  0  0  0  0  0  0  0  0  0  0
   -1.7284   21.5227  -25.0879 H   0  0  0  0  0  0  0  0  0  0  0  0
   -0.4446   20.2796  -25.3550 H   0  0  0  0  0  0  0  0  0  0  0  0
    0.1697   22.6781  -26.0040 H   0  0  0  0  0  0  0  0  0  0  0  0
    0.3859   21.4094  -27.2838 H   0  0  0  0  0  0  0  0  0  0  0  0
    0.0111   24.5412  -27.5542 H   0  0  0  0  0  0  0  0  0  0  0  0
   -8.0694   24.0095  -30.7927 H   0  0  0  0  0  0  0  0  0  0  0  0
   -9.0692   22.0389  -31.9370 H   0  0  0  0  0  0  0  0  0  0  0  0
   -7.5010   20.0870  -34.3900 H   0  0  0  0  0  0  0  0  0  0  0  0
   -8.6776   19.3478  -31.7039 H   0  0  0  0  0  0  0  0  0  0  0  0
   -9.1739   18.6468  -33.2851 H   0  0  0  0  0  0  0  0  0  0  0  0
   -7.3361   17.4464  -34.6765 H   0  0  0  0  0  0  0  0  0  0  0  0
   -5.6195   15.6503  -34.4496 H   0  0  0  0  0  0  0  0  0  0  0  0
   -4.5794   15.1871  -32.2284 H   0  0  0  0  0  0  0  0  0  0  0  0
   -5.2796   16.4987  -30.2228 H   0  0  0  0  0  0  0  0  0  0  0  0
   -7.0122   18.2827  -30.4371 H   0  0  0  0  0  0  0  0  0  0  0  0
   -4.1282   22.7490  -32.0435 H   0  0  0  0  0  0  0  0  0  0  0  0
   -3.9629   22.3452  -29.6301 H   0  0  0  0  0  0  0  0  0  0  0  0
   -3.4440   20.2930  -28.3630 H   0  0  0  0  0  0  0  0  0  0  0  0
  1  2  2  0
  2  3  1  0
  3  4  1  0
  4  5  1  0
  5  6  2  0
  6  7  1  0
  7  8  1  0
  7  9  2  0
  9 10  1  0
 10 11  1  0
 11 12  2  0
 11 13  2  0
 11 14  1  0
 14 15  2  0
 15 16  1  0
 16 17  2  0
 17 18  1  0
 18 19  1  0
 19 20  1  0
 20 21  2  0
 21 22  1  0
 22 23  2  0
 23 24  1  0
 24 25  2  0
 17 26  1  0
 26 27  1  0
 27 28  2  0
 27 29  1  0
 26 30  2  0
  9 31  1  0
 31 32  2  0
 32 33  1  0
 33  2  1  0
 32  5  1  0
 30 14  1  0
 25 20  1  0
  3 34  1  0
  3 35  1  0
  4 36  1  0
  4 37  1  0
  6 38  1  0
 15 39  1  0
 16 40  1  0
 18 41  1  0
 19 42  1  0
 19 43  1  0
 21 44  1  0
 22 45  1  0
 23 46  1  0
 24 47  1  0
 25 48  1  0
 30 49  1  0
 31 50  1  0
 33 51  1  0
M  CHG  4   8  -1  10  -1  27   1  29  -1
M  END
>  <UniqueID>  (8) 
8

>  <SMILES>  (8) 
O=C1CCc2cc([O-])c([N-]S(=O)(=O)c3ccc(NCc4ccccc4)c([N+](=O)[O-])c3)cc2N1

>  <Energy>  (8) 
68.07052769700633

>  <Genealogy>  (8) 
O=C1CCc2cc([O-])c([N-]S(=O)(=O)c3ccc(NCc4ccccc4)c([N+](=O)[O-])c3)cc2N1 (protonated)
O=C1CCc2cc([O-])c([N-]S(=O)(=O)c3ccc(NCc4ccccc4)c([N+](=O)[O-])c3)cc2N1 (3D coordinates assigned)
O=C1CCc2cc([O-])c([N-]S(=O)(=O)c3ccc(NCc4ccccc4)c([N+](=O)[O-])c3)cc2N1 (nonaromatic ring conformer: 68.07052769700633 kcal/mol)

>  <smiles>  (8) 
O=C1CCc2cc(O)c(NS(=O)(=O)c3ccc(NCc4ccccc4)c([N+](=O)[O-])c3)cc2N1

>  <score_type>  (8) 
oracle

>  <origin>  (8) 
adgpu

>  <m_score__min__energy>  (8) 
-15.41

>  <m_primary>  (8) 
energy

$$$$
8:0
     RDKit          3D

 59 62  0  0  0  0  0  0  0  0999 V2000
   -4.8910   17.7390  -34.9980 C   0  0  0  0  0  0  0  0  0  0  0  0
   -6.0680   18.5500  -34.6940 N   0  0  0  0  0  0  0  0  0  0  0  0
   -6.5740   18.2610  -33.0570 S   0  0  0  0  0  0  0  0  0  0  0  0
   -7.9370   17.6210  -33.0500 O   0  0  0  0  0  0  0  0  0  0  0  0
   -5.6030   17.3190  -32.4030 O   0  0  0  0  0  0  0  0  0  0  0  0
   -6.6110   19.7710  -32.1490 C   0  0  0  0  0  0  0  0  0  0  0  0
   -5.4360   20.5150  -31.9820 C   0  0  0  0  0  0  0  0  0  0  0  0
   -5.4610   21.7250  -31.2860 C   0  0  0  0  0  0  0  0  0  0  0  0
   -6.6660   22.2130  -30.7550 C   0  0  0  0  0  0  0  0  0  0  0  0
   -6.6960   23.5140  -30.0000 C   0  0  0  0  0  0  0  0  0  0  0  0
   -5.3080   24.0370  -29.7850 C   0  0  0  0  0  0  0  0  0  0  0  0
   -4.3990   23.4580  -28.9780 N   0  0  0  0  0  0  0  0  0  0  0  0
   -3.3180   24.2660  -29.0890 C   0  0  0  0  0  0  0  0  0  0  0  0
   -2.0500   24.0380  -28.3680 C   0  0  0  0  0  0  0  0  0  0  0  0
   -0.8930   24.7480  -28.7240 C   0  0  0  0  0  0  0  0  0  0  0  0
    0.3060   24.5350  -28.0380 C   0  0  0  0  0  0  0  0  0  0  0  0
    0.3710   23.6220  -26.9800 C   0  0  0  0  0  0  0  0  0  0  0  0
    1.5980   23.4600  -26.3170 O   0  0  0  0  0  0  0  0  0  0  0  0
    2.3010   24.4880  -25.6170 C   0  0  0  0  0  0  0  0  0  0  0  0
    1.4610   25.0310  -24.4570 C   0  0  0  0  0  0  0  0  0  0  0  0
    1.3070   26.4990  -24.5880 N   0  0  0  0  0  0  0  0  0  0  0  0
    0.6030   26.8830  -25.8330 C   0  0  0  0  0  0  0  0  0  0  0  0
   -0.9330   26.7450  -25.7120 C   0  0  0  0  0  0  0  0  0  0  0  0
   -1.3130   26.1350  -24.4940 O   0  0  0  0  0  0  0  0  0  0  0  0
   -0.8750   26.9290  -23.4100 C   0  0  0  0  0  0  0  0  0  0  0  0
    0.6600   27.1180  -23.4130 C   0  0  0  0  0  0  0  0  0  0  0  0
   -0.7920   22.9140  -26.6180 C   0  0  0  0  0  0  0  0  0  0  0  0
   -1.9870   23.1170  -27.3120 C   0  0  0  0  0  0  0  0  0  0  0  0
   -3.5230   25.2830  -29.9040 O   0  0  0  0  0  0  0  0  0  0  0  0
   -4.7480   25.1620  -30.3420 C   0  0  0  0  0  0  0  0  0  0  0  0
   -5.3620   26.0440  -31.2220 O   0  0  0  0  0  0  0  0  0  0  0  0
   -7.8440   21.4650  -30.9240 C   0  0  0  0  0  0  0  0  0  0  0  0
   -7.8170   20.2530  -31.6180 C   0  0  0  0  0  0  0  0  0  0  0  0
   -4.4180   17.4131  -34.0599 H   0  0  0  0  0  0  0  0  0  0  0  0
   -5.1941   16.8571  -35.5815 H   0  0  0  0  0  0  0  0  0  0  0  0
   -4.1749   18.3363  -35.5815 H   0  0  0  0  0  0  0  0  0  0  0  0
   -6.8430   18.2290  -35.3170 H   0  0  0  0  0  0  0  0  0  0  0  0
   -4.4891   20.1441  -32.4012 H   0  0  0  0  0  0  0  0  0  0  0  0
   -4.5321   22.2990  -31.1529 H   0  0  0  0  0  0  0  0  0  0  0  0
   -7.2742   24.2518  -30.5757 H   0  0  0  0  0  0  0  0  0  0  0  0
   -7.1636   23.3417  -29.0193 H   0  0  0  0  0  0  0  0  0  0  0  0
   -0.9299   25.4763  -29.5476 H   0  0  0  0  0  0  0  0  0  0  0  0
    1.2080   25.0911  -28.3331 H   0  0  0  0  0  0  0  0  0  0  0  0
    3.2403   24.0758  -25.2196 H   0  0  0  0  0  0  0  0  0  0  0  0
    2.5087   25.3112  -26.3165 H   0  0  0  0  0  0  0  0  0  0  0  0
    0.4683   24.5575  -24.4730 H   0  0  0  0  0  0  0  0  0  0  0  0
    1.9668   24.8038  -23.5070 H   0  0  0  0  0  0  0  0  0  0  0  0
    0.8457   27.9301  -26.0668 H   0  0  0  0  0  0  0  0  0  0  0  0
    0.9379   26.2024  -26.6297 H   0  0  0  0  0  0  0  0  0  0  0  0
   -1.3853   27.7463  -25.7646 H   0  0  0  0  0  0  0  0  0  0  0  0
   -1.2842   26.1076  -26.5368 H   0  0  0  0  0  0  0  0  0  0  0  0
   -1.3545   27.9167  -23.4768 H   0  0  0  0  0  0  0  0  0  0  0  0
   -1.1520   26.4142  -22.4782 H   0  0  0  0  0  0  0  0  0  0  0  0
    0.8822   28.1953  -23.4154 H   0  0  0  0  0  0  0  0  0  0  0  0
    1.0580   26.6233  -22.5147 H   0  0  0  0  0  0  0  0  0  0  0  0
   -0.7587   22.1973  -25.7842 H   0  0  0  0  0  0  0  0  0  0  0  0
   -2.8859   22.5501  -27.0281 H   0  0  0  0  0  0  0  0  0  0  0  0
   -8.7921   21.8360  -30.5076 H   0  0  0  0  0  0  0  0  0  0  0  0
   -8.7437   19.6749  -31.7486 H   0  0  0  0  0  0  0  0  0  0  0  0
  1  2  1  0
  2  3  1  0
  3  4  2  0
  3  5  2  0
  3  6  1  0
  6  7  2  0
  7  8  1  0
  8  9  2  0
  9 10  1  0
 10 11  1  0
 11 12  1  0
 12 13  2  0
 13 14  1  0
 14 15  2  0
 15 16  1  0
 16 17  2  0
 17 18  1  0
 18 19  1  0
 19 20  1  0
 20 21  1  0
 21 22  1  0
 22 23  1  0
 23 24  1  0
 24 25  1  0
 25 26  1  0
 17 27  1  0
 27 28  2  0
 13 29  1  0
 29 30  1  0
 30 31  1  0
  9 32  1  0
 32 33  2  0
 33  6  1  0
 30 11  2  0
 28 14  1  0
 26 21  1  0
  1 34  1  0
  1 35  1  0
  1 36  1  0
  2 37  1  0
  7 38  1  0
  8 39  1  0
 10 40  1  0
 10 41  1  0
 15 42  1  0
 16 43  1  0
 19 44  1  0
 19 45  1  0
 20 46  1  0
 20 47  1  0
 22 48  1  0
 22 49  1  0
 23 50  1  0
 23 51  1  0
 25 52  1  0
 25 53  1  0
 26 54  1  0
 26 55  1  0
 27 56  1  0
 28 57  1  0
 32 58  1  0
 33 59  1  0
M  CHG  1  31  -1
M  END
>  <UniqueID>  (9) 
9

>  <SMILES>  (9) 
CNS(=O)(=O)c1ccc(Cc2nc(-c3ccc(OCCN4CCOCC4)cc3)oc2[O-])cc1

>  <Energy>  (9) 
100.72346580953811

>  <Genealogy>  (9) 
CNS(=O)(=O)c1ccc(Cc2nc(-c3ccc(OCCN4CCOCC4)cc3)oc2[O-])cc1 (protonated)
CNS(=O)(=O)c1ccc(Cc2nc(-c3ccc(OCCN4CCOCC4)cc3)oc2[O-])cc1 (3D coordinates assigned)
CNS(=O)(=O)c1ccc(Cc2nc(-c3ccc(OCCN4CCOCC4)cc3)oc2[O-])cc1 (nonaromatic ring conformer: 100.72346580953811 kcal/mol)

>  <smiles>  (9) 
CNS(=O)(=O)c1ccc(Cc2nc(-c3ccc(OCCN4CCOCC4)cc3)oc2O)cc1

>  <score_type>  (9) 
oracle

>  <origin>  (9) 
adgpu

>  <m_score__min__energy>  (9) 
-11.789999999999999

>  <m_primary>  (9) 
energy

$$$$
9:0
     RDKit          3D

 42 44  0  0  0  0  0  0  0  0999 V2000
   -6.4270   22.9210  -32.6910 C   0  0  0  0  0  0  0  0  0  0  0  0
   -5.9920   23.7380  -31.5170 C   0  0  0  0  0  0  0  0  0  0  0  0
   -6.9090   24.5470  -30.8380 C   0  0  0  0  0  0  0  0  0  0  0  0
   -6.4560   25.2990  -29.7550 C   0  0  0  0  0  0  0  0  0  0  0  0
   -7.2530   26.0370  -29.1180 O   0  0  0  0  0  0  0  0  0  0  0  0
   -5.1510   25.2360  -29.3850 N   0  0  0  0  0  0  0  0  0  0  0  0
   -4.2660   24.4480  -30.0530 C   0  0  0  0  0  0  0  0  0  0  0  0
   -2.8870   24.3900  -29.6530 N   0  0  0  0  0  0  0  0  0  0  0  0
   -2.3170   25.3040  -28.8820 N   0  0  0  0  0  0  0  0  0  0  0  0
   -1.0280   24.9470  -28.7080 C   0  0  0  0  0  0  0  0  0  0  0  0
   -0.0690   25.6940  -27.8430 C   0  0  0  0  0  0  0  0  0  0  0  0
   -0.7640   23.7590  -29.3640 C   0  0  0  0  0  0  0  0  0  0  0  0
   -1.9730   23.4430  -29.9580 C   0  0  0  0  0  0  0  0  0  0  0  0
   -2.2230   22.4000  -30.6940 N   0  0  0  0  0  0  0  0  0  0  0  0
   -1.2470   21.3680  -31.0280 C   0  0  0  0  0  0  0  0  0  0  0  0
   -1.9060   20.3280  -31.8850 C   0  0  0  0  0  0  0  0  0  0  0  0
   -1.1270   19.4330  -32.6370 C   0  0  0  0  0  0  0  0  0  0  0  0
   -1.7410   18.4930  -33.4700 C   0  0  0  0  0  0  0  0  0  0  0  0
   -3.1380   18.4480  -33.5750 C   0  0  0  0  0  0  0  0  0  0  0  0
   -3.9090   17.2560  -34.6160 S   0  0  0  0  0  0  0  0  0  0  0  0
   -2.7160   16.5260  -35.6330 N   0  0  0  0  0  0  0  0  0  0  0  0
   -4.5690   16.1980  -33.7780 O   0  0  0  0  0  0  0  0  0  0  0  0
   -4.9560   17.9230  -35.4630 O   0  0  0  0  0  0  0  0  0  0  0  0
   -3.9170   19.3450  -32.8320 C   0  0  0  0  0  0  0  0  0  0  0  0
   -3.3050   20.2860  -31.9980 C   0  0  0  0  0  0  0  0  0  0  0  0
   -4.6940   23.7080  -31.1130 N   0  0  0  0  0  0  0  0  0  0  0  0
   -6.9164   22.0017  -32.3368 H   0  0  0  0  0  0  0  0  0  0  0  0
   -7.1351   23.5022  -33.3000 H   0  0  0  0  0  0  0  0  0  0  0  0
   -5.5495   22.6580  -33.3000 H   0  0  0  0  0  0  0  0  0  0  0  0
   -7.9627   24.5889  -31.1511 H   0  0  0  0  0  0  0  0  0  0  0  0
   -0.3077   25.5081  -26.7854 H   0  0  0  0  0  0  0  0  0  0  0  0
    0.9558   25.3538  -28.0529 H   0  0  0  0  0  0  0  0  0  0  0  0
   -0.1481   26.7709  -28.0529 H   0  0  0  0  0  0  0  0  0  0  0  0
    0.1817   23.1986  -29.4041 H   0  0  0  0  0  0  0  0  0  0  0  0
   -0.4071   21.8191  -31.5766 H   0  0  0  0  0  0  0  0  0  0  0  0
   -0.8691   20.9029  -30.1056 H   0  0  0  0  0  0  0  0  0  0  0  0
   -0.0297   19.4719  -32.5702 H   0  0  0  0  0  0  0  0  0  0  0  0
   -1.1253   17.7859  -34.0453 H   0  0  0  0  0  0  0  0  0  0  0  0
   -3.1340   16.4480  -36.5870 H   0  0  0  0  0  0  0  0  0  0  0  0
   -1.9230   17.2010  -35.7060 H   0  0  0  0  0  0  0  0  0  0  0  0
   -5.0140   19.3088  -32.9050 H   0  0  0  0  0  0  0  0  0  0  0  0
   -3.9221   20.9962  -31.4281 H   0  0  0  0  0  0  0  0  0  0  0  0
  1  2  1  0
  2  3  2  0
  3  4  1  0
  4  5  2  0
  4  6  1  0
  6  7  1  0
  7  8  1  0
  8  9  1  0
  9 10  1  0
 10 11  1  0
 10 12  2  0
 12 13  1  0
 13 14  2  3
 14 15  1  0
 15 16  1  0
 16 17  2  0
 17 18  1  0
 18 19  2  0
 19 20  1  0
 20 21  1  0
 20 22  2  0
 20 23  2  0
 19 24  1  0
 24 25  2  0
  7 26  2  0
 26  2  1  0
 13  8  1  0
 25 16  1  0
  1 27  1  0
  1 28  1  0
  1 29  1  0
  3 30  1  0
 11 31  1  0
 11 32  1  0
 11 33  1  0
 12 34  1  0
 15 35  1  0
 15 36  1  0
 17 37  1  0
 18 38  1  0
 21 39  1  0
 21 40  1  0
 24 41  1  0
 25 42  1  0
M  CHG  2   6  -1   9  -1
M  END
>  <UniqueID>  (10) 
10

>  <SMILES>  (10) 
Cc1cc(=O)[n-]c(-n2[n-]c(C)cc2=NCc2ccc(S(N)(=O)=O)cc2)n1

>  <Energy>  (10) 
72.1327467110155

>  <Genealogy>  (10) 
Cc1cc(=O)[n-]c(-n2[n-]c(C)cc2=NCc2ccc(S(N)(=O)=O)cc2)n1 (protonated)
Cc1cc(=O)[n-]c(-n2[n-]c(C)cc2=NCc2ccc(S(N)(=O)=O)cc2)n1 (3D coordinates assigned)
Cc1cc(=O)[n-]c(-n2[n-]c(C)cc2=NCc2ccc(S(N)(=O)=O)cc2)n1 (optimized conformer: 72.1327467110155 kcal/mol)

>  <smiles>  (10) 
Cc1cc(=O)[nH]c(-n2[nH]c(C)cc2=NCc2ccc(S(N)(=O)=O)cc2)n1

>  <score_type>  (10) 
oracle

>  <origin>  (10) 
adgpu

>  <m_score__min__energy>  (10) 
-10.01

>  <m_primary>  (10) 
energy

$$$$
10:0
     RDKit          3D

 47 50  0  0  0  0  0  0  0  0999 V2000
   -7.0870   25.2990  -30.0410 O   0  0  0  0  0  0  0  0  0  0  0  0
   -6.2900   24.5420  -30.6550 C   0  0  0  0  0  0  0  0  0  0  0  0
   -6.7470   23.8720  -31.8360 N   0  0  0  0  0  0  0  0  0  0  0  0
   -7.4540   22.6250  -31.8810 C   0  0  0  0  0  0  0  0  0  0  0  0
   -8.8600   22.5780  -31.8940 C   0  0  0  0  0  0  0  0  0  0  0  0
   -9.5200   21.3490  -31.9710 C   0  0  0  0  0  0  0  0  0  0  0  0
   -8.7880   20.1630  -32.0500 C   0  0  0  0  0  0  0  0  0  0  0  0
   -7.3880   20.2000  -32.0590 C   0  0  0  0  0  0  0  0  0  0  0  0
   -6.4800   18.6960  -32.1920 S   0  0  0  0  0  0  0  0  0  0  0  0
   -5.0190   18.9480  -31.9330 O   0  0  0  0  0  0  0  0  0  0  0  0
   -6.9940   17.7380  -31.1520 O   0  0  0  0  0  0  0  0  0  0  0  0
   -6.7030   18.0130  -33.7880 N   0  0  0  0  0  0  0  0  0  0  0  0
   -5.7010   18.5440  -34.7200 C   0  0  0  0  0  0  0  0  0  0  0  0
   -4.5220   17.5830  -34.7450 C   0  0  0  0  0  0  0  0  0  0  0  0
   -5.0280   16.2980  -34.1210 C   0  0  0  0  0  0  0  0  0  0  0  0
   -6.4830   16.5640  -33.7620 C   0  0  0  0  0  0  0  0  0  0  0  0
   -6.7260   21.4340  -31.9870 C   0  0  0  0  0  0  0  0  0  0  0  0
   -4.8980   24.4240  -30.1840 C   0  0  0  0  0  0  0  0  0  0  0  0
   -4.4100   23.4500  -29.3380 C   0  0  0  0  0  0  0  0  0  0  0  0
   -3.0810   23.7910  -29.1640 C   0  0  0  0  0  0  0  0  0  0  0  0
   -2.0790   23.0990  -28.3150 C   0  0  0  0  0  0  0  0  0  0  0  0
   -2.4870   21.9910  -27.5500 C   0  0  0  0  0  0  0  0  0  0  0  0
   -1.5730   21.3050  -26.7470 C   0  0  0  0  0  0  0  0  0  0  0  0
   -0.2410   21.7180  -26.6920 C   0  0  0  0  0  0  0  0  0  0  0  0
    0.1770   22.8250  -27.4310 C   0  0  0  0  0  0  0  0  0  0  0  0
   -0.7340   23.5270  -28.2380 C   0  0  0  0  0  0  0  0  0  0  0  0
   -0.3030   24.6560  -28.9330 O   0  0  0  0  0  0  0  0  0  0  0  0
   -2.8150   24.9180  -29.8570 N   0  0  0  0  0  0  0  0  0  0  0  0
   -3.9200   25.3020  -30.4770 N   0  0  0  0  0  0  0  0  0  0  0  0
   -9.4409   23.5108  -31.8434 H   0  0  0  0  0  0  0  0  0  0  0  0
  -10.6195   21.3158  -31.9694 H   0  0  0  0  0  0  0  0  0  0  0  0
   -9.3119   19.1973  -32.1053 H   0  0  0  0  0  0  0  0  0  0  0  0
   -6.1356   18.6270  -35.7271 H   0  0  0  0  0  0  0  0  0  0  0  0
   -5.3717   19.5426  -34.3969 H   0  0  0  0  0  0  0  0  0  0  0  0
   -4.1947   17.4041  -35.7798 H   0  0  0  0  0  0  0  0  0  0  0  0
   -3.6570   17.9869  -34.1986 H   0  0  0  0  0  0  0  0  0  0  0  0
   -4.9550   15.4676  -34.8387 H   0  0  0  0  0  0  0  0  0  0  0  0
   -4.4362   16.0128  -33.2387 H   0  0  0  0  0  0  0  0  0  0  0  0
   -7.1427   16.0739  -34.4932 H   0  0  0  0  0  0  0  0  0  0  0  0
   -6.7074   16.1632  -32.7625 H   0  0  0  0  0  0  0  0  0  0  0  0
   -5.6268   21.4664  -32.0140 H   0  0  0  0  0  0  0  0  0  0  0  0
   -4.9528   22.5983  -28.9021 H   0  0  0  0  0  0  0  0  0  0  0  0
   -3.5360   21.6618  -27.5846 H   0  0  0  0  0  0  0  0  0  0  0  0
   -1.9036   20.4376  -26.1568 H   0  0  0  0  0  0  0  0  0  0  0  0
    0.4792   21.1707  -26.0660 H   0  0  0  0  0  0  0  0  0  0  0  0
    1.2266   23.1503  -27.3815 H   0  0  0  0  0  0  0  0  0  0  0  0
   -0.8160   25.0200  -29.7270 H   0  0  0  0  0  0  0  0  0  0  0  0
  1  2  2  0
  2  3  1  0
  3  4  1  0
  4  5  2  0
  5  6  1  0
  6  7  2  0
  7  8  1  0
  8  9  1  0
  9 10  2  0
  9 11  2  0
  9 12  1  0
 12 13  1  0
 13 14  1  0
 14 15  1  0
 15 16  1  0
  8 17  2  0
  2 18  1  0
 18 19  1  0
 19 20  2  0
 20 21  1  0
 21 22  2  0
 22 23  1  0
 23 24  2  0
 24 25  1  0
 25 26  2  0
 26 27  1  0
 20 28  1  0
 28 29  1  0
 17  4  1  0
 29 18  2  0
 16 12  1  0
 26 21  1  0
  5 30  1  0
  6 31  1  0
  7 32  1  0
 13 33  1  0
 13 34  1  0
 14 35  1  0
 14 36  1  0
 15 37  1  0
 15 38  1  0
 16 39  1  0
 16 40  1  0
 17 41  1  0
 19 42  1  0
 22 43  1  0
 23 44  1  0
 24 45  1  0
 25 46  1  0
 27 47  1  0
M  CHG  2   3  -1  28  -1
M  END
>  <UniqueID>  (11) 
11

>  <SMILES>  (11) 
O=C([N-]c1cccc(S(=O)(=O)N2CCCC2)c1)c1cc(-c2ccccc2O)[n-]n1

>  <Energy>  (11) 
89.2769517848615

>  <Genealogy>  (11) 
O=C([N-]c1cccc(S(=O)(=O)N2CCCC2)c1)c1cc(-c2ccccc2O)[n-]n1 (protonated)
O=C([N-]c1cccc(S(=O)(=O)N2CCCC2)c1)c1cc(-c2ccccc2O)[n-]n1 (3D coordinates assigned)
O=C([N-]c1cccc(S(=O)(=O)N2CCCC2)c1)c1cc(-c2ccccc2O)[n-]n1 (nonaromatic ring conformer: 89.2769517848615 kcal/mol)

>  <smiles>  (11) 
O=C(Nc1cccc(S(=O)(=O)N2CCCC2)c1)c1cc(-c2ccccc2O)[nH]n1

>  <score_type>  (11) 
oracle

>  <origin>  (11) 
adgpu

>  <m_score__min__energy>  (11) 
-13.050000000000001

>  <m_primary>  (11) 
energy

$$$$
11:0
     RDKit          3D

 50 53  0  0  0  0  0  0  0  0999 V2000
   -6.6840   23.8080  -32.7780 O   0  0  0  0  0  0  0  0  0  0  0  0
   -6.3280   23.3030  -31.6810 C   0  0  0  0  0  0  0  0  0  0  0  0
   -7.1200   22.2550  -31.1120 N   0  0  0  0  0  0  0  0  0  0  0  0
   -7.2790   20.9400  -31.6650 C   0  0  0  0  0  0  0  0  0  0  0  0
   -6.2760   20.3610  -32.4630 C   0  0  0  0  0  0  0  0  0  0  0  0
   -6.4720   19.1030  -33.0500 C   0  0  0  0  0  0  0  0  0  0  0  0
   -5.2300   18.4080  -34.0940 S   0  0  0  0  0  0  0  0  0  0  0  0
   -5.7520   18.3400  -35.5040 O   0  0  0  0  0  0  0  0  0  0  0  0
   -4.0200   19.3020  -34.0910 O   0  0  0  0  0  0  0  0  0  0  0  0
   -4.7670   16.8070  -33.5720 N   0  0  0  0  0  0  0  0  0  0  0  0
   -3.4340   16.4200  -34.1010 C   0  0  0  0  0  0  0  0  0  0  0  0
   -3.5110   15.3680  -35.2180 C   0  0  0  0  0  0  0  0  0  0  0  0
   -4.2270   14.0990  -34.7270 C   0  0  0  0  0  0  0  0  0  0  0  0
   -5.3500   14.4010  -33.7170 C   0  0  0  0  0  0  0  0  0  0  0  0
   -5.8500   15.8410  -33.8560 C   0  0  0  0  0  0  0  0  0  0  0  0
   -7.6750   18.4200  -32.8320 C   0  0  0  0  0  0  0  0  0  0  0  0
   -8.6740   18.9900  -32.0420 C   0  0  0  0  0  0  0  0  0  0  0  0
   -8.4850   20.2540  -31.4660 C   0  0  0  0  0  0  0  0  0  0  0  0
   -9.4920   20.8320  -30.6930 O   0  0  0  0  0  0  0  0  0  0  0  0
   -5.1530   23.8510  -30.9830 C   0  0  0  0  0  0  0  0  0  0  0  0
   -4.3750   23.2000  -30.0470 C   0  0  0  0  0  0  0  0  0  0  0  0
   -3.4710   24.1630  -29.6350 C   0  0  0  0  0  0  0  0  0  0  0  0
   -2.3990   24.0130  -28.6210 C   0  0  0  0  0  0  0  0  0  0  0  0
   -2.4160   22.8920  -27.7730 C   0  0  0  0  0  0  0  0  0  0  0  0
   -1.4350   22.7250  -26.7920 C   0  0  0  0  0  0  0  0  0  0  0  0
   -0.4150   23.6670  -26.6560 C   0  0  0  0  0  0  0  0  0  0  0  0
   -0.3680   24.7720  -27.5070 C   0  0  0  0  0  0  0  0  0  0  0  0
   -1.3460   24.9490  -28.4930 C   0  0  0  0  0  0  0  0  0  0  0  0
   -1.2440   26.0420  -29.3450 O   0  0  0  0  0  0  0  0  0  0  0  0
   -3.7010   25.3080  -30.3080 N   0  0  0  0  0  0  0  0  0  0  0  0
   -4.7300   25.1220  -31.1210 N   0  0  0  0  0  0  0  0  0  0  0  0
   -5.3309   20.8991  -32.6278 H   0  0  0  0  0  0  0  0  0  0  0  0
   -2.9413   17.3189  -34.5001 H   0  0  0  0  0  0  0  0  0  0  0  0
   -2.8679   15.9747  -33.2696 H   0  0  0  0  0  0  0  0  0  0  0  0
   -4.0654   15.7875  -36.0704 H   0  0  0  0  0  0  0  0  0  0  0  0
   -2.4878   15.1001  -35.5200 H   0  0  0  0  0  0  0  0  0  0  0  0
   -4.6641   13.5838  -35.5950 H   0  0  0  0  0  0  0  0  0  0  0  0
   -3.4803   13.4740  -34.2153 H   0  0  0  0  0  0  0  0  0  0  0  0
   -6.1882   13.7117  -33.8963 H   0  0  0  0  0  0  0  0  0  0  0  0
   -4.9485   14.2692  -32.7014 H   0  0  0  0  0  0  0  0  0  0  0  0
   -6.2127   15.9985  -34.8825 H   0  0  0  0  0  0  0  0  0  0  0  0
   -6.6622   16.0017  -33.1318 H   0  0  0  0  0  0  0  0  0  0  0  0
   -7.8330   17.4303  -33.2853 H   0  0  0  0  0  0  0  0  0  0  0  0
   -9.6140   18.4451  -31.8704 H   0  0  0  0  0  0  0  0  0  0  0  0
   -9.3840   21.7530  -30.2850 H   0  0  0  0  0  0  0  0  0  0  0  0
   -4.4552   22.1569  -29.7072 H   0  0  0  0  0  0  0  0  0  0  0  0
   -3.2098   22.1384  -27.8828 H   0  0  0  0  0  0  0  0  0  0  0  0
   -1.4670   21.8499  -26.1263 H   0  0  0  0  0  0  0  0  0  0  0  0
    0.3521   23.5388  -25.8781 H   0  0  0  0  0  0  0  0  0  0  0  0
    0.4424   25.5084  -27.4024 H   0  0  0  0  0  0  0  0  0  0  0  0
  1  2  2  0
  2  3  1  0
  3  4  1  0
  4  5  2  0
  5  6  1  0
  6  7  1  0
  7  8  2  0
  7  9  2  0
  7 10  1  0
 10 11  1  0
 11 12  1  0
 12 13  1  0
 13 14  1  0
 14 15  1  0
  6 16  2  0
 16 17  1  0
 17 18  2  0
 18 19  1  0
  2 20  1  0
 20 21  1  0
 21 22  2  0
 22 23  1  0
 23 24  2  0
 24 25  1  0
 25 26  2  0
 26 27  1  0
 27 28  2  0
 28 29  1  0
 22 30  1  0
 30 31  1  0
 18  4  1  0
 31 20  2  0
 15 10  1  0
 28 23  1  0
  5 32  1  0
 11 33  1  0
 11 34  1  0
 12 35  1  0
 12 36  1  0
 13 37  1  0
 13 38  1  0
 14 39  1  0
 14 40  1  0
 15 41  1  0
 15 42  1  0
 16 43  1  0
 17 44  1  0
 19 45  1  0
 21 46  1  0
 24 47  1  0
 25 48  1  0
 26 49  1  0
 27 50  1  0
M  CHG  3   3  -1  29  -1  30  -1
M  END
>  <UniqueID>  (12) 
12

>  <SMILES>  (12) 
O=C([N-]c1cc(S(=O)(=O)N2CCCCC2)ccc1O)c1cc(-c2ccccc2[O-])[n-]n1

>  <Energy>  (12) 
91.63820609256311

>  <Genealogy>  (12) 
O=C([N-]c1cc(S(=O)(=O)N2CCCCC2)ccc1O)c1cc(-c2ccccc2[O-])[n-]n1 (protonated)
O=C([N-]c1cc(S(=O)(=O)N2CCCCC2)ccc1O)c1cc(-c2ccccc2[O-])[n-]n1 (3D coordinates assigned)
O=C([N-]c1cc(S(=O)(=O)N2CCCCC2)ccc1O)c1cc(-c2ccccc2[O-])[n-]n1 (nonaromatic ring conformer: 91.63820609256311 kcal/mol)

>  <smiles>  (12) 
O=C(Nc1cc(S(=O)(=O)N2CCCCC2)ccc1O)c1cc(-c2ccccc2O)[nH]n1

>  <score_type>  (12) 
oracle

>  <origin>  (12) 
adgpu

>  <m_score__min__energy>  (12) 
-15.130000000000001

>  <m_primary>  (12) 
energy

$$$$
12:0
     RDKit          3D

 55 58  0  0  0  0  0  0  0  0999 V2000
    2.7333   16.0687  -33.5165 H   0  0  0  0  0  0  0  0  0  0  0  0
    2.1160   16.3150  -32.6400 C   0  0  0  0  0  0  0  0  0  0  0  0
    2.7090   16.6250  -31.4570 N   0  0  0  0  0  0  0  0  0  0  0  0
    1.9920   16.9390  -30.3420 C   0  0  0  0  0  0  0  0  0  0  0  0
    2.6400   17.2240  -29.2500 N   0  0  0  0  0  0  0  0  0  0  0  0
    1.9430   17.6480  -27.7160 S   0  0  0  0  0  0  0  0  0  0  0  0
    3.0050   18.1910  -26.7990 O   0  0  0  0  0  0  0  0  0  0  0  0
    1.3130   16.4380  -27.0860 O   0  0  0  0  0  0  0  0  0  0  0  0
    0.7140   18.8810  -27.9770 C   0  0  0  0  0  0  0  0  0  0  0  0
   -0.5940   18.6850  -27.5150 C   0  0  0  0  0  0  0  0  0  0  0  0
   -0.8523   17.7610  -26.9770 H   0  0  0  0  0  0  0  0  0  0  0  0
   -1.5720   19.6590  -27.7350 C   0  0  0  0  0  0  0  0  0  0  0  0
   -2.5934   19.5038  -27.3573 H   0  0  0  0  0  0  0  0  0  0  0  0
   -1.2570   20.8370  -28.4370 C   0  0  0  0  0  0  0  0  0  0  0  0
   -2.2400   21.8640  -28.6570 N   0  0  0  0  0  0  0  0  0  0  0  0
   -2.6710   22.3180  -27.8200 H   0  0  0  0  0  0  0  0  0  0  0  0
   -2.5560   22.4060  -29.9490 C   0  0  0  0  0  0  0  0  0  0  0  0
   -1.7190   22.3140  -30.8900 O   0  0  0  0  0  0  0  0  0  0  0  0
   -3.8240   23.1390  -30.1740 C   0  0  0  0  0  0  0  0  0  0  0  0
   -4.9940   22.4180  -30.4780 C   0  0  0  0  0  0  0  0  0  0  0  0
   -4.9575   21.3202  -30.5373 H   0  0  0  0  0  0  0  0  0  0  0  0
   -6.2060   23.0860  -30.7060 C   0  0  0  0  0  0  0  0  0  0  0  0
   -7.6640   22.1890  -31.1220 S   0  0  0  0  0  0  0  0  0  0  0  0
   -8.6910   22.3300  -30.0310 O   0  0  0  0  0  0  0  0  0  0  0  0
   -8.2310   22.7560  -32.3930 O   0  0  0  0  0  0  0  0  0  0  0  0
   -7.2650   20.5040  -31.3480 N   0  0  0  0  0  0  0  0  0  0  0  0
   -8.4650   19.6450  -31.2120 C   0  0  0  0  0  0  0  0  0  0  0  0
   -8.2149   18.7852  -30.5731 H   0  0  0  0  0  0  0  0  0  0  0  0
   -9.2674   20.2528  -30.7684 H   0  0  0  0  0  0  0  0  0  0  0  0
   -8.9630   19.1240  -32.5720 C   0  0  0  0  0  0  0  0  0  0  0  0
   -9.8369   18.4783  -32.4004 H   0  0  0  0  0  0  0  0  0  0  0  0
   -9.2122   20.0013  -33.1871 H   0  0  0  0  0  0  0  0  0  0  0  0
   -7.9820   18.3780  -33.2780 O   0  0  0  0  0  0  0  0  0  0  0  0
   -6.6550   18.8570  -33.0940 C   0  0  0  0  0  0  0  0  0  0  0  0
   -6.1642   18.2297  -32.3353 H   0  0  0  0  0  0  0  0  0  0  0  0
   -6.1617   18.8044  -34.0758 H   0  0  0  0  0  0  0  0  0  0  0  0
   -6.5700   20.3220  -32.6360 C   0  0  0  0  0  0  0  0  0  0  0  0
   -5.5131   20.6037  -32.5195 H   0  0  0  0  0  0  0  0  0  0  0  0
   -7.0522   20.9587  -33.3924 H   0  0  0  0  0  0  0  0  0  0  0  0
   -6.2530   24.4810  -30.6290 C   0  0  0  0  0  0  0  0  0  0  0  0
   -7.1990   25.0089  -30.8197 H   0  0  0  0  0  0  0  0  0  0  0  0
   -5.1040   25.2060  -30.3110 C   0  0  0  0  0  0  0  0  0  0  0  0
   -5.1498   26.3031  -30.2463 H   0  0  0  0  0  0  0  0  0  0  0  0
   -3.8940   24.5450  -30.0740 C   0  0  0  0  0  0  0  0  0  0  0  0
   -2.7790   25.2960  -29.7160 O   0  0  0  0  0  0  0  0  0  0  0  0
    0.0580   21.0330  -28.8850 C   0  0  0  0  0  0  0  0  0  0  0  0
    0.3221   21.9610  -29.4134 H   0  0  0  0  0  0  0  0  0  0  0  0
    1.0350   20.0580  -28.6650 C   0  0  0  0  0  0  0  0  0  0  0  0
    2.0594   20.2156  -29.0334 H   0  0  0  0  0  0  0  0  0  0  0  0
    0.5830   16.9410  -30.4140 C   0  0  0  0  0  0  0  0  0  0  0  0
   -0.0178   17.1900  -29.5268 H   0  0  0  0  0  0  0  0  0  0  0  0
   -0.0420   16.6240  -31.6220 C   0  0  0  0  0  0  0  0  0  0  0  0
   -1.1399   16.6228  -31.6891 H   0  0  0  0  0  0  0  0  0  0  0  0
    0.7250   16.3090  -32.7430 C   0  0  0  0  0  0  0  0  0  0  0  0
    0.2388   16.0587  -33.6974 H   0  0  0  0  0  0  0  0  0  0  0  0
  1  2  1  0
  2  3  1  0
  3  4  1  0
  4  5  2  0
  5  6  1  0
  6  7  2  0
  6  8  2  0
  6  9  1  0
  9 10  2  0
 10 11  1  0
 10 12  1  0
 12 13  1  0
 12 14  2  0
 14 15  1  0
 15 16  1  0
 15 17  1  0
 17 18  2  0
 17 19  1  0
 19 20  2  0
 20 21  1  0
 20 22  1  0
 22 23  1  0
 23 24  2  0
 23 25  2  0
 23 26  1  0
 26 27  1  0
 27 28  1  0
 27 29  1  0
 27 30  1  0
 30 31  1  0
 30 32  1  0
 30 33  1  0
 33 34  1  0
 34 35  1  0
 34 36  1  0
 34 37  1  0
 37 38  1  0
 37 39  1  0
 22 40  2  0
 40 41  1  0
 40 42  1  0
 42 43  1  0
 42 44  2  0
 44 45  1  0
 14 46  1  0
 46 47  1  0
 46 48  2  0
 48 49  1  0
  4 50  1  0
 50 51  1  0
 50 52  2  0
 52 53  1  0
 52 54  1  0
 54 55  1  0
 54  2  2  0
 48  9  1  0
 44 19  1  0
 37 26  1  0
M  CHG  2   3  -1  45  -1
M  END
>  <UniqueID>  (13) 
13

>  <SMILES>  (13) 
O=C(Nc1ccc(S(=O)(=O)/N=c2\cccc[n-]2)cc1)c1cc(S(=O)(=O)N2CCOCC2)ccc1[O-]

>  <Energy>  (13) 
85.58137029561

>  <Genealogy>  (13) 
O=C(Nc1ccc(S(=O)(=O)N=c2cccc[n-]2)cc1)c1cc(S(=O)(=O)N2CCOCC2)ccc1[O-] (protonated)
O=C(Nc1ccc(S(=O)(=O)/N=c2\cccc[n-]2)cc1)c1cc(S(=O)(=O)N2CCOCC2)ccc1[O-] (cis-trans isomerization)
O=C(Nc1ccc(S(=O)(=O)/N=c2\cccc[n-]2)cc1)c1cc(S(=O)(=O)N2CCOCC2)ccc1[O-] (3D coordinates assigned)
O=C(Nc1ccc(S(=O)(=O)/N=c2\cccc[n-]2)cc1)c1cc(S(=O)(=O)N2CCOCC2)ccc1[O-] (nonaromatic ring conformer: 85.58137029561 kcal/mol)

>  <smiles>  (13) 
O=C(Nc1ccc(S(=O)(=O)N=c2cccc[nH]2)cc1)c1cc(S(=O)(=O)N2CCOCC2)ccc1O

>  <score_type>  (13) 
oracle

>  <origin>  (13) 
adgpu

>  <m_score__min__energy>  (13) 
-13.01

>  <m_primary>  (13) 
energy

$$$$
13:0
     RDKit          3D

 57 60  0  0  0  0  0  0  0  0999 V2000
   -5.6340   25.3540  -28.8850 O   0  0  0  0  0  0  0  0  0  0  0  0
   -5.3100   25.0310  -30.3170 S   0  0  0  0  0  0  0  0  0  0  0  0
   -5.8220   26.1410  -31.1940 O   0  0  0  0  0  0  0  0  0  0  0  0
   -3.5970   24.8980  -30.5090 N   0  0  0  0  0  0  0  0  0  0  0  0
   -2.8150   24.0860  -29.6370 C   0  0  0  0  0  0  0  0  0  0  0  0
   -3.2410   22.7900  -29.3170 C   0  0  0  0  0  0  0  0  0  0  0  0
   -2.5280   22.0120  -28.3890 C   0  0  0  0  0  0  0  0  0  0  0  0
   -1.3450   22.5330  -27.8080 C   0  0  0  0  0  0  0  0  0  0  0  0
   -0.9370   23.8370  -28.1280 C   0  0  0  0  0  0  0  0  0  0  0  0
   -1.6730   24.6120  -29.0280 C   0  0  0  0  0  0  0  0  0  0  0  0
   -1.2610   25.9080  -29.3160 O   0  0  0  0  0  0  0  0  0  0  0  0
   -0.5800   21.7650  -26.7540 C   0  0  0  0  0  0  0  0  0  0  0  0
   -0.8980   20.2670  -26.7730 C   0  0  0  0  0  0  0  0  0  0  0  0
   -2.4100   20.0500  -26.7910 C   0  0  0  0  0  0  0  0  0  0  0  0
   -3.0110   20.6090  -28.0840 C   0  0  0  0  0  0  0  0  0  0  0  0
   -6.0640   23.5180  -30.8070 C   0  0  0  0  0  0  0  0  0  0  0  0
   -7.2340   23.0590  -30.1850 C   0  0  0  0  0  0  0  0  0  0  0  0
   -7.8190   21.8530  -30.5860 C   0  0  0  0  0  0  0  0  0  0  0  0
   -7.2400   21.1000  -31.6160 C   0  0  0  0  0  0  0  0  0  0  0  0
   -7.9670   19.5780  -32.1360 S   0  0  0  0  0  0  0  0  0  0  0  0
   -9.0520   19.8910  -33.1300 O   0  0  0  0  0  0  0  0  0  0  0  0
   -8.5960   18.8810  -30.9600 O   0  0  0  0  0  0  0  0  0  0  0  0
   -6.7730   18.5440  -32.8870 N   0  0  0  0  0  0  0  0  0  0  0  0
   -6.1840   19.1480  -34.1040 C   0  0  0  0  0  0  0  0  0  0  0  0
   -5.6040   18.1470  -35.1250 C   0  0  0  0  0  0  0  0  0  0  0  0
   -4.6710   17.0620  -34.5520 C   0  0  0  0  0  0  0  0  0  0  0  0
   -5.3470   16.0920  -33.5690 C   0  0  0  0  0  0  0  0  0  0  0  0
   -5.4030   16.5610  -32.0910 C   0  0  0  0  0  0  0  0  0  0  0  0
   -5.8300   18.0260  -31.8700 C   0  0  0  0  0  0  0  0  0  0  0  0
   -6.0660   21.5530  -32.2310 C   0  0  0  0  0  0  0  0  0  0  0  0
   -5.4820   22.7580  -31.8300 C   0  0  0  0  0  0  0  0  0  0  0  0
   -4.1413   22.3780  -29.7963 H   0  0  0  0  0  0  0  0  0  0  0  0
   -0.0294   24.2528  -27.6661 H   0  0  0  0  0  0  0  0  0  0  0  0
    0.4972   21.8992  -26.9321 H   0  0  0  0  0  0  0  0  0  0  0  0
   -0.8796   22.1577  -25.7711 H   0  0  0  0  0  0  0  0  0  0  0  0
   -0.4548   19.8126  -27.6714 H   0  0  0  0  0  0  0  0  0  0  0  0
   -0.4785   19.7991  -25.8702 H   0  0  0  0  0  0  0  0  0  0  0  0
   -2.6229   18.9727  -26.7278 H   0  0  0  0  0  0  0  0  0  0  0  0
   -2.8571   20.5730  -25.9328 H   0  0  0  0  0  0  0  0  0  0  0  0
   -2.7288   19.9497  -28.9181 H   0  0  0  0  0  0  0  0  0  0  0  0
   -4.1024   20.6521  -27.9540 H   0  0  0  0  0  0  0  0  0  0  0  0
   -7.6936   23.6494  -29.3787 H   0  0  0  0  0  0  0  0  0  0  0  0
   -8.7346   21.4956  -30.0921 H   0  0  0  0  0  0  0  0  0  0  0  0
   -6.9694   19.7303  -34.6081 H   0  0  0  0  0  0  0  0  0  0  0  0
   -5.3347   19.7565  -33.7599 H   0  0  0  0  0  0  0  0  0  0  0  0
   -6.4478   17.6402  -35.6162 H   0  0  0  0  0  0  0  0  0  0  0  0
   -4.9804   18.7452  -35.8057 H   0  0  0  0  0  0  0  0  0  0  0  0
   -4.2700   16.4756  -35.3918 H   0  0  0  0  0  0  0  0  0  0  0  0
   -3.8909   17.5895  -33.9834 H   0  0  0  0  0  0  0  0  0  0  0  0
   -6.3797   15.9295  -33.9112 H   0  0  0  0  0  0  0  0  0  0  0  0
   -4.7275   15.1830  -33.5715 H   0  0  0  0  0  0  0  0  0  0  0  0
   -6.1182   15.9166  -31.5588 H   0  0  0  0  0  0  0  0  0  0  0  0
   -4.3720   16.4892  -31.7144 H   0  0  0  0  0  0  0  0  0  0  0  0
   -6.3117   18.0998  -30.8838 H   0  0  0  0  0  0  0  0  0  0  0  0
   -4.9176   18.6357  -31.9458 H   0  0  0  0  0  0  0  0  0  0  0  0
   -5.6021   20.9587  -33.0320 H   0  0  0  0  0  0  0  0  0  0  0  0
   -4.5622   23.1108  -32.3194 H   0  0  0  0  0  0  0  0  0  0  0  0
  1  2  2  0
  2  3  2  0
  2  4  1  0
  4  5  1  0
  5  6  2  0
  6  7  1  0
  7  8  2  0
  8  9  1  0
  9 10  2  0
 10 11  1  0
  8 12  1  0
 12 13  1  0
 13 14  1  0
 14 15  1  0
  2 16  1  0
 16 17  2  0
 17 18  1  0
 18 19  2  0
 19 20  1  0
 20 21  2  0
 20 22  2  0
 20 23  1  0
 23 24  1  0
 24 25  1  0
 25 26  1  0
 26 27  1  0
 27 28  1  0
 28 29  1  0
 19 30  1  0
 30 31  2  0
 10  5  1  0
 31 16  1  0
 15  7  1  0
 29 23  1  0
  6 32  1  0
  9 33  1  0
 12 34  1  0
 12 35  1  0
 13 36  1  0
 13 37  1  0
 14 38  1  0
 14 39  1  0
 15 40  1  0
 15 41  1  0
 17 42  1  0
 18 43  1  0
 24 44  1  0
 24 45  1  0
 25 46  1  0
 25 47  1  0
 26 48  1  0
 26 49  1  0
 27 50  1  0
 27 51  1  0
 28 52  1  0
 28 53  1  0
 29 54  1  0
 29 55  1  0
 30 56  1  0
 31 57  1  0
M  CHG  2   4  -1  11  -1
M  END
>  <UniqueID>  (14) 
14

>  <SMILES>  (14) 
O=S(=O)([N-]c1cc2c(cc1[O-])CCCC2)c1ccc(S(=O)(=O)N2CCCCCC2)cc1

>  <Energy>  (14) 
81.15908582803574

>  <Genealogy>  (14) 
O=S(=O)([N-]c1cc2c(cc1[O-])CCCC2)c1ccc(S(=O)(=O)N2CCCCCC2)cc1 (protonated)
O=S(=O)([N-]c1cc2c(cc1[O-])CCCC2)c1ccc(S(=O)(=O)N2CCCCCC2)cc1 (3D coordinates assigned)
O=S(=O)([N-]c1cc2c(cc1[O-])CCCC2)c1ccc(S(=O)(=O)N2CCCCCC2)cc1 (nonaromatic ring conformer: 81.15908582803574 kcal/mol)

>  <smiles>  (14) 
O=S(=O)(Nc1cc2c(cc1O)CCCC2)c1ccc(S(=O)(=O)N2CCCCCC2)cc1

>  <score_type>  (14) 
oracle

>  <origin>  (14) 
adgpu

>  <m_score__min__energy>  (14) 
-13.85

>  <m_primary>  (14) 
energy

$$$$
14:0
     RDKit          3D

 44 46  0  0  0  0  0  0  0  0999 V2000
   -6.0110   16.5650  -33.9620 C   0  0  0  0  0  0  0  0  0  0  0  0
   -5.7570   17.9120  -34.3470 O   0  0  0  0  0  0  0  0  0  0  0  0
   -6.0490   19.0360  -33.5570 C   0  0  0  0  0  0  0  0  0  0  0  0
   -7.3450   19.2800  -33.0640 C   0  0  0  0  0  0  0  0  0  0  0  0
   -7.6170   20.4330  -32.3260 C   0  0  0  0  0  0  0  0  0  0  0  0
   -6.6050   21.3670  -32.0790 C   0  0  0  0  0  0  0  0  0  0  0  0
   -6.9480   22.8150  -31.1390 S   0  0  0  0  0  0  0  0  0  0  0  0
   -7.6820   23.8210  -31.9800 O   0  0  0  0  0  0  0  0  0  0  0  0
   -7.8150   22.4560  -29.9640 O   0  0  0  0  0  0  0  0  0  0  0  0
   -5.4410   23.5100  -30.5720 C   0  0  0  0  0  0  0  0  0  0  0  0
   -4.6950   22.8710  -29.5790 C   0  0  0  0  0  0  0  0  0  0  0  0
   -3.5060   23.4520  -29.1420 C   0  0  0  0  0  0  0  0  0  0  0  0
   -3.0930   24.6580  -29.7100 C   0  0  0  0  0  0  0  0  0  0  0  0
   -2.0230   25.2050  -29.3350 O   0  0  0  0  0  0  0  0  0  0  0  0
   -3.8540   25.2410  -30.6720 N   0  0  0  0  0  0  0  0  0  0  0  0
   -4.9930   24.6850  -31.0900 N   0  0  0  0  0  0  0  0  0  0  0  0
   -5.3110   21.1250  -32.5530 C   0  0  0  0  0  0  0  0  0  0  0  0
   -5.0200   19.9570  -33.2700 C   0  0  0  0  0  0  0  0  0  0  0  0
   -3.6810   19.7470  -33.7430 N   0  0  0  0  0  0  0  0  0  0  0  0
   -2.6380   20.7280  -33.5930 C   0  0  0  0  0  0  0  0  0  0  0  0
   -2.8990   21.8410  -33.0580 O   0  0  0  0  0  0  0  0  0  0  0  0
   -1.2550   20.4580  -34.0520 C   0  0  0  0  0  0  0  0  0  0  0  0
   -0.7970   19.1450  -34.2730 C   0  0  0  0  0  0  0  0  0  0  0  0
    0.5100   18.9150  -34.7100 C   0  0  0  0  0  0  0  0  0  0  0  0
    1.3860   19.9890  -34.9260 C   0  0  0  0  0  0  0  0  0  0  0  0
    2.7770   19.7410  -35.4310 C   0  0  0  0  0  0  0  0  0  0  0  0
    0.9260   21.2990  -34.7370 C   0  0  0  0  0  0  0  0  0  0  0  0
   -0.3820   21.5310  -34.3020 C   0  0  0  0  0  0  0  0  0  0  0  0
   -6.0244   16.4937  -32.8644 H   0  0  0  0  0  0  0  0  0  0  0  0
   -6.9850   16.2467  -34.3621 H   0  0  0  0  0  0  0  0  0  0  0  0
   -5.2198   15.9139  -34.3621 H   0  0  0  0  0  0  0  0  0  0  0  0
   -8.1494   18.5563  -33.2620 H   0  0  0  0  0  0  0  0  0  0  0  0
   -8.6309   20.6081  -31.9371 H   0  0  0  0  0  0  0  0  0  0  0  0
   -5.0418   21.9206  -29.1471 H   0  0  0  0  0  0  0  0  0  0  0  0
   -2.9020   22.9672  -28.3609 H   0  0  0  0  0  0  0  0  0  0  0  0
   -4.5144   21.8589  -32.3609 H   0  0  0  0  0  0  0  0  0  0  0  0
   -3.5040   18.8810  -34.2980 H   0  0  0  0  0  0  0  0  0  0  0  0
   -1.4729   18.2945  -34.1004 H   0  0  0  0  0  0  0  0  0  0  0  0
    0.8542   17.8851  -34.8858 H   0  0  0  0  0  0  0  0  0  0  0  0
    3.4605   19.6191  -34.5778 H   0  0  0  0  0  0  0  0  0  0  0  0
    2.7875   18.8268  -36.0427 H   0  0  0  0  0  0  0  0  0  0  0  0
    3.1027   20.5952  -36.0427 H   0  0  0  0  0  0  0  0  0  0  0  0
    1.5971   22.1485  -34.9318 H   0  0  0  0  0  0  0  0  0  0  0  0
   -0.7316   22.5634  -34.1539 H   0  0  0  0  0  0  0  0  0  0  0  0
  1  2  1  0
  2  3  1  0
  3  4  2  0
  4  5  1  0
  5  6  2  0
  6  7  1  0
  7  8  2  0
  7  9  2  0
  7 10  1  0
 10 11  1  0
 11 12  2  0
 12 13  1  0
 13 14  2  0
 13 15  1  0
 15 16  1  0
  6 17  1  0
 17 18  2  0
 18 19  1  0
 19 20  1  0
 20 21  2  0
 20 22  1  0
 22 23  2  0
 23 24  1  0
 24 25  2  0
 25 26  1  0
 25 27  1  0
 27 28  2  0
 18  3  1  0
 28 22  1  0
 16 10  2  0
  1 29  1  0
  1 30  1  0
  1 31  1  0
  4 32  1  0
  5 33  1  0
 11 34  1  0
 12 35  1  0
 17 36  1  0
 19 37  1  0
 23 38  1  0
 24 39  1  0
 26 40  1  0
 26 41  1  0
 26 42  1  0
 27 43  1  0
 28 44  1  0
M  CHG  1  15  -1
M  END
>  <UniqueID>  (15) 
15

>  <SMILES>  (15) 
COc1ccc(S(=O)(=O)c2ccc(=O)[n-]n2)cc1NC(=O)c1ccc(C)cc1

>  <Energy>  (15) 
56.608997837619135

>  <Genealogy>  (15) 
COc1ccc(S(=O)(=O)c2ccc(=O)[n-]n2)cc1NC(=O)c1ccc(C)cc1 (protonated)
COc1ccc(S(=O)(=O)c2ccc(=O)[n-]n2)cc1NC(=O)c1ccc(C)cc1 (3D coordinates assigned)
COc1ccc(S(=O)(=O)c2ccc(=O)[n-]n2)cc1NC(=O)c1ccc(C)cc1 (optimized conformer: 56.608997837619135 kcal/mol)

>  <smiles>  (15) 
COc1ccc(S(=O)(=O)c2ccc(=O)[nH]n2)cc1NC(=O)c1ccc(C)cc1

>  <score_type>  (15) 
oracle

>  <origin>  (15) 
adgpu

>  <m_score__min__energy>  (15) 
-10.93

>  <m_primary>  (15) 
energy

$$$$
15:0
     RDKit          3D

 56 60  0  0  0  0  0  0  0  0999 V2000
    0.4110   29.7100  -25.6810 C   0  0  0  0  0  0  0  0  0  0  0  0
   -0.2970   28.3970  -25.8440 C   0  0  0  0  0  0  0  0  0  0  0  0
   -0.8400   27.7490  -24.7260 C   0  0  0  0  0  0  0  0  0  0  0  0
   -1.5500   26.5560  -24.8810 C   0  0  0  0  0  0  0  0  0  0  0  0
   -1.6970   25.9890  -26.1500 C   0  0  0  0  0  0  0  0  0  0  0  0
   -1.1570   26.6230  -27.2750 C   0  0  0  0  0  0  0  0  0  0  0  0
   -1.3960   26.0610  -28.5680 N   0  0  0  0  0  0  0  0  0  0  0  0
   -0.9710   24.7640  -28.9950 C   0  0  0  0  0  0  0  0  0  0  0  0
    0.2620   24.4940  -28.9660 O   0  0  0  0  0  0  0  0  0  0  0  0
   -1.9310   23.7920  -29.4520 N   0  0  0  0  0  0  0  0  0  0  0  0
   -2.2060   22.5150  -28.8390 C   0  0  0  0  0  0  0  0  0  0  0  0
   -1.7330   22.2230  -27.5420 C   0  0  0  0  0  0  0  0  0  0  0  0
   -2.0000   20.9920  -26.9510 C   0  0  0  0  0  0  0  0  0  0  0  0
   -2.7190   20.0390  -27.6580 C   0  0  0  0  0  0  0  0  0  0  0  0
   -3.1230   20.2980  -28.9280 N   0  0  0  0  0  0  0  0  0  0  0  0
   -2.8840   21.4870  -29.5500 C   0  0  0  0  0  0  0  0  0  0  0  0
   -3.2750   21.6240  -30.9330 N   0  0  0  0  0  0  0  0  0  0  0  0
   -4.1530   22.7530  -31.2970 C   0  0  0  0  0  0  0  0  0  0  0  0
   -5.1160   22.3890  -32.4450 C   0  0  0  0  0  0  0  0  0  0  0  0
   -4.6100   21.2500  -33.3570 C   0  0  0  0  0  0  0  0  0  0  0  0
   -5.1980   19.9310  -33.0340 N   0  0  0  0  0  0  0  0  0  0  0  0
   -4.6200   18.6960  -32.9560 C   0  0  0  0  0  0  0  0  0  0  0  0
   -3.4020   18.4750  -33.2000 O   0  0  0  0  0  0  0  0  0  0  0  0
   -5.4600   17.7080  -32.5690 N   0  0  0  0  0  0  0  0  0  0  0  0
   -6.6250   18.3580  -32.3990 C   0  0  0  0  0  0  0  0  0  0  0  0
   -7.8320   17.8250  -31.9510 C   0  0  0  0  0  0  0  0  0  0  0  0
   -8.9230   18.7030  -31.8240 C   0  0  0  0  0  0  0  0  0  0  0  0
   -8.7790   20.0730  -32.1310 C   0  0  0  0  0  0  0  0  0  0  0  0
   -7.5430   20.5800  -32.5680 C   0  0  0  0  0  0  0  0  0  0  0  0
   -6.4780   19.6860  -32.6870 C   0  0  0  0  0  0  0  0  0  0  0  0
   -3.0780   21.1900  -33.3800 C   0  0  0  0  0  0  0  0  0  0  0  0
   -2.4840   20.9670  -31.9830 C   0  0  0  0  0  0  0  0  0  0  0  0
   -0.4910   27.8480  -27.1210 C   0  0  0  0  0  0  0  0  0  0  0  0
    0.5305   29.9317  -24.6102 H   0  0  0  0  0  0  0  0  0  0  0  0
    1.4013   29.6541  -26.1566 H   0  0  0  0  0  0  0  0  0  0  0  0
   -0.1798   30.5067  -26.1566 H   0  0  0  0  0  0  0  0  0  0  0  0
   -0.7066   28.1813  -23.7233 H   0  0  0  0  0  0  0  0  0  0  0  0
   -1.9937   26.0625  -24.0037 H   0  0  0  0  0  0  0  0  0  0  0  0
   -2.2400   25.0393  -26.2653 H   0  0  0  0  0  0  0  0  0  0  0  0
   -1.1478   22.9755  -26.9931 H   0  0  0  0  0  0  0  0  0  0  0  0
   -1.6443   20.7763  -25.9327 H   0  0  0  0  0  0  0  0  0  0  0  0
   -2.9617   19.0737  -27.1896 H   0  0  0  0  0  0  0  0  0  0  0  0
   -4.7443   23.0416  -30.4155 H   0  0  0  0  0  0  0  0  0  0  0  0
   -3.5161   23.5826  -31.6379 H   0  0  0  0  0  0  0  0  0  0  0  0
   -6.0755   22.0789  -32.0055 H   0  0  0  0  0  0  0  0  0  0  0  0
   -5.2073   23.2843  -33.0776 H   0  0  0  0  0  0  0  0  0  0  0  0
   -4.9600   21.4963  -34.3703 H   0  0  0  0  0  0  0  0  0  0  0  0
   -7.9278   16.7570  -31.7058 H   0  0  0  0  0  0  0  0  0  0  0  0
   -9.8958   18.3192  -31.4829 H   0  0  0  0  0  0  0  0  0  0  0  0
   -9.6405   20.7491  -32.0275 H   0  0  0  0  0  0  0  0  0  0  0  0
   -7.4192   21.6463  -32.8083 H   0  0  0  0  0  0  0  0  0  0  0  0
   -2.7660   20.3620  -34.0336 H   0  0  0  0  0  0  0  0  0  0  0  0
   -2.7085   22.1566  -33.7529 H   0  0  0  0  0  0  0  0  0  0  0  0
   -2.4529   19.8864  -31.7795 H   0  0  0  0  0  0  0  0  0  0  0  0
   -1.4752   21.4055  -31.9706 H   0  0  0  0  0  0  0  0  0  0  0  0
   -0.1182   28.3821  -28.0074 H   0  0  0  0  0  0  0  0  0  0  0  0
  1  2  1  0
  2  3  2  0
  3  4  1  0
  4  5  2  0
  5  6  1  0
  6  7  1  0
  7  8  1  0
  8  9  2  0
  8 10  1  0
 10 11  1  0
 11 12  2  0
 12 13  1  0
 13 14  2  0
 14 15  1  0
 15 16  2  0
 16 17  1  0
 17 18  1  0
 18 19  1  0
 19 20  1  0
 20 21  1  0
 21 22  1  0
 22 23  2  0
 22 24  1  0
 24 25  1  0
 25 26  2  0
 26 27  1  0
 27 28  2  0
 28 29  1  0
 29 30  2  0
 20 31  1  0
 31 32  1  0
  6 33  2  0
 33  2  1  0
 16 11  1  0
 32 17  1  0
 30 21  1  0
 30 25  1  0
  1 34  1  0
  1 35  1  0
  1 36  1  0
  3 37  1  0
  4 38  1  0
  5 39  1  0
 12 40  1  0
 13 41  1  0
 14 42  1  0
 18 43  1  0
 18 44  1  0
 19 45  1  0
 19 46  1  0
 20 47  1  0
 26 48  1  0
 27 49  1  0
 28 50  1  0
 29 51  1  0
 31 52  1  0
 31 53  1  0
 32 54  1  0
 32 55  1  0
 33 56  1  0
M  CHG  3   7  -1  10  -1  24  -1
M  END
>  <UniqueID>  (16) 
16

>  <SMILES>  (16) 
Cc1cccc([N-]C(=O)[N-]c2cccnc2N2CCC(n3c(=O)[n-]c4ccccc43)CC2)c1

>  <Energy>  (16) 
114.57079377984225

>  <Genealogy>  (16) 
Cc1cccc([N-]C(=O)[N-]c2cccnc2N2CCC(n3c(=O)[n-]c4ccccc43)CC2)c1 (protonated)
Cc1cccc([N-]C(=O)[N-]c2cccnc2N2CCC(n3c(=O)[n-]c4ccccc43)CC2)c1 (3D coordinates assigned)
Cc1cccc([N-]C(=O)[N-]c2cccnc2N2CCC(n3c(=O)[n-]c4ccccc43)CC2)c1 (nonaromatic ring conformer: 114.57079377984225 kcal/mol)

>  <smiles>  (16) 
Cc1cccc(NC(=O)Nc2cccnc2N2CCC(n3c(=O)[nH]c4ccccc43)CC2)c1

>  <score_type>  (16) 
oracle

>  <origin>  (16) 
adgpu

>  <m_score__min__energy>  (16) 
-12.359999999999999

>  <m_primary>  (16) 
energy

$$$$
16:0
     RDKit          3D

 53 56  0  0  0  0  0  0  0  0999 V2000
   -1.8810   11.4590  -36.2050 C   0  0  0  0  0  0  0  0  0  0  0  0
   -2.2150   12.9010  -35.7700 C   0  0  0  0  0  0  0  0  0  0  0  0
   -1.0290   13.5460  -35.3610 O   0  0  0  0  0  0  0  0  0  0  0  0
   -3.2480   12.8900  -34.5910 C   0  0  0  0  0  0  0  0  0  0  0  0
   -4.3370   13.9700  -34.7110 C   0  0  0  0  0  0  0  0  0  0  0  0
   -3.7860   15.1970  -35.3040 N   0  0  0  0  0  0  0  0  0  0  0  0
   -4.0080   16.4890  -34.7070 C   0  0  0  0  0  0  0  0  0  0  0  0
   -5.2350   17.1540  -34.8500 C   0  0  0  0  0  0  0  0  0  0  0  0
   -5.4240   18.3910  -34.2330 C   0  0  0  0  0  0  0  0  0  0  0  0
   -4.3960   18.9660  -33.4670 C   0  0  0  0  0  0  0  0  0  0  0  0
   -4.5820   20.2790  -32.7970 C   0  0  0  0  0  0  0  0  0  0  0  0
   -5.7910   20.9870  -32.9310 C   0  0  0  0  0  0  0  0  0  0  0  0
   -5.9720   22.2120  -32.2820 C   0  0  0  0  0  0  0  0  0  0  0  0
   -4.9490   22.7470  -31.4890 C   0  0  0  0  0  0  0  0  0  0  0  0
   -5.1760   24.2750  -30.6430 S   0  0  0  0  0  0  0  0  0  0  0  0
   -5.9550   24.0760  -29.3720 O   0  0  0  0  0  0  0  0  0  0  0  0
   -5.9370   25.2120  -31.5370 O   0  0  0  0  0  0  0  0  0  0  0  0
   -3.6320   24.9810  -30.2670 N   0  0  0  0  0  0  0  0  0  0  0  0
   -2.8270   24.6230  -29.3070 C   0  0  0  0  0  0  0  0  0  0  0  0
   -3.1310   23.5800  -28.4070 C   0  0  0  0  0  0  0  0  0  0  0  0
   -2.2090   23.2410  -27.4130 C   0  0  0  0  0  0  0  0  0  0  0  0
   -1.0050   23.9380  -27.3100 C   0  0  0  0  0  0  0  0  0  0  0  0
   -0.7380   24.9710  -28.2100 C   0  0  0  0  0  0  0  0  0  0  0  0
   -1.6430   25.2840  -29.1770 N   0  0  0  0  0  0  0  0  0  0  0  0
   -3.7390   22.0540  -31.3600 C   0  0  0  0  0  0  0  0  0  0  0  0
   -3.5550   20.8300  -32.0070 C   0  0  0  0  0  0  0  0  0  0  0  0
   -3.1880   18.2580  -33.3390 C   0  0  0  0  0  0  0  0  0  0  0  0
   -3.0310   17.0530  -33.9470 N   0  0  0  0  0  0  0  0  0  0  0  0
   -3.1160   15.1210  -36.6090 C   0  0  0  0  0  0  0  0  0  0  0  0
   -2.7770   13.6710  -36.9880 C   0  0  0  0  0  0  0  0  0  0  0  0
   -1.7356   10.8314  -35.3134 H   0  0  0  0  0  0  0  0  0  0  0  0
   -2.7096   11.0561  -36.8059 H   0  0  0  0  0  0  0  0  0  0  0  0
   -0.9596   11.4614  -36.8059 H   0  0  0  0  0  0  0  0  0  0  0  0
   -1.2750   14.4150  -34.9460 H   0  0  0  0  0  0  0  0  0  0  0  0
   -3.7372   11.9050  -34.5674 H   0  0  0  0  0  0  0  0  0  0  0  0
   -2.6857   13.1023  -33.6697 H   0  0  0  0  0  0  0  0  0  0  0  0
   -5.1503   13.5939  -35.3490 H   0  0  0  0  0  0  0  0  0  0  0  0
   -4.7182   14.2023  -33.7057 H   0  0  0  0  0  0  0  0  0  0  0  0
   -6.0429   16.7030  -35.4448 H   0  0  0  0  0  0  0  0  0  0  0  0
   -6.3824   18.9187  -34.3468 H   0  0  0  0  0  0  0  0  0  0  0  0
   -6.5998   20.5733  -33.5512 H   0  0  0  0  0  0  0  0  0  0  0  0
   -6.9207   22.7573  -32.3945 H   0  0  0  0  0  0  0  0  0  0  0  0
   -4.0851   23.0385  -28.4869 H   0  0  0  0  0  0  0  0  0  0  0  0
   -2.4328   22.4240  -26.7113 H   0  0  0  0  0  0  0  0  0  0  0  0
   -0.2753   23.6769  -26.5294 H   0  0  0  0  0  0  0  0  0  0  0  0
    0.2050   25.5327  -28.1376 H   0  0  0  0  0  0  0  0  0  0  0  0
   -2.9295   22.4757  -30.7461 H   0  0  0  0  0  0  0  0  0  0  0  0
   -2.6012   20.2928  -31.8986 H   0  0  0  0  0  0  0  0  0  0  0  0
   -2.3658   18.6818  -32.7436 H   0  0  0  0  0  0  0  0  0  0  0  0
   -3.7806   15.5444  -37.3765 H   0  0  0  0  0  0  0  0  0  0  0  0
   -2.1759   15.6887  -36.5463 H   0  0  0  0  0  0  0  0  0  0  0  0
   -3.6890   13.1685  -37.3426 H   0  0  0  0  0  0  0  0  0  0  0  0
   -2.0135   13.6832  -37.7798 H   0  0  0  0  0  0  0  0  0  0  0  0
  1  2  1  0
  2  3  1  0
  2  4  1  0
  4  5  1  0
  5  6  1  0
  6  7  1  0
  7  8  2  0
  8  9  1  0
  9 10  2  0
 10 11  1  0
 11 12  2  0
 12 13  1  0
 13 14  2  0
 14 15  1  0
 15 16  2  0
 15 17  2  0
 15 18  1  0
 18 19  2  3
 19 20  1  0
 20 21  2  0
 21 22  1  0
 22 23  2  0
 23 24  1  0
 14 25  1  0
 25 26  2  0
 10 27  1  0
 27 28  2  0
  6 29  1  0
 29 30  1  0
 30  2  1  0
 28  7  1  0
 26 11  1  0
 24 19  1  0
  1 31  1  0
  1 32  1  0
  1 33  1  0
  3 34  1  0
  4 35  1  0
  4 36  1  0
  5 37  1  0
  5 38  1  0
  8 39  1  0
  9 40  1  0
 12 41  1  0
 13 42  1  0
 20 43  1  0
 21 44  1  0
 22 45  1  0
 23 46  1  0
 25 47  1  0
 26 48  1  0
 27 49  1  0
 29 50  1  0
 29 51  1  0
 30 52  1  0
 30 53  1  0
M  CHG  1  24  -1
M  END
>  <UniqueID>  (17) 
17

>  <SMILES>  (17) 
CC1(O)CCN(c2ccc(-c3ccc(S(=O)(=O)N=c4cccc[n-]4)cc3)cn2)CC1

>  <Energy>  (17) 
74.39751355740947

>  <Genealogy>  (17) 
CC1(O)CCN(c2ccc(-c3ccc(S(=O)(=O)N=c4cccc[n-]4)cc3)cn2)CC1 (protonated)
CC1(O)CCN(c2ccc(-c3ccc(S(=O)(=O)N=c4cccc[n-]4)cc3)cn2)CC1 (3D coordinates assigned)
CC1(O)CCN(c2ccc(-c3ccc(S(=O)(=O)N=c4cccc[n-]4)cc3)cn2)CC1 (nonaromatic ring conformer: 74.39751355740947 kcal/mol)

>  <smiles>  (17) 
CC1(O)CCN(c2ccc(-c3ccc(S(=O)(=O)N=c4cccc[nH]4)cc3)cn2)CC1

>  <score_type>  (17) 
oracle

>  <origin>  (17) 
adgpu

>  <m_score__min__energy>  (17) 
-9.3699999999999992

>  <m_primary>  (17) 
energy

$$$$
17:0
     RDKit          3D

 32 34  0  0  0  0  0  0  0  0999 V2000
   -5.4560   23.6450  -32.0260 O   0  0  0  0  0  0  0  0  0  0  0  0
   -6.3370   23.5350  -31.1320 C   0  0  0  0  0  0  0  0  0  0  0  0
   -7.6640   23.1600  -31.5150 N   0  0  0  0  0  0  0  0  0  0  0  0
   -8.3860   22.0280  -30.9530 C   0  0  0  0  0  0  0  0  0  0  0  0
   -8.0160   20.7810  -31.6990 C   0  0  0  0  0  0  0  0  0  0  0  0
   -8.6750   19.5560  -31.4150 C   0  0  0  0  0  0  0  0  0  0  0  0
   -8.3100   18.3760  -32.0870 C   0  0  0  0  0  0  0  0  0  0  0  0
   -7.2810   18.4510  -33.0210 C   0  0  0  0  0  0  0  0  0  0  0  0
   -6.6380   19.6160  -33.2890 C   0  0  0  0  0  0  0  0  0  0  0  0
   -6.9680   20.8060  -32.6470 C   0  0  0  0  0  0  0  0  0  0  0  0
   -5.6660   19.3960  -34.2460 O   0  0  0  0  0  0  0  0  0  0  0  0
   -5.7030   18.0060  -34.6020 C   0  0  0  0  0  0  0  0  0  0  0  0
   -6.7470   17.4410  -33.7970 O   0  0  0  0  0  0  0  0  0  0  0  0
   -6.0130   23.8140  -29.7590 N   0  0  0  0  0  0  0  0  0  0  0  0
   -4.6650   23.9850  -29.2880 C   0  0  0  0  0  0  0  0  0  0  0  0
   -4.1850   23.1600  -28.2630 C   0  0  0  0  0  0  0  0  0  0  0  0
   -2.8760   23.3060  -27.8000 C   0  0  0  0  0  0  0  0  0  0  0  0
   -2.0490   24.2670  -28.3800 C   0  0  0  0  0  0  0  0  0  0  0  0
   -2.5150   25.0430  -29.3950 N   0  0  0  0  0  0  0  0  0  0  0  0
   -3.7860   24.9230  -29.8670 C   0  0  0  0  0  0  0  0  0  0  0  0
   -4.1520   25.6380  -30.8360 O   0  0  0  0  0  0  0  0  0  0  0  0
   -8.1200   21.9133  -29.8918 H   0  0  0  0  0  0  0  0  0  0  0  0
   -9.4685   22.2019  -31.0421 H   0  0  0  0  0  0  0  0  0  0  0  0
   -9.4776   19.5297  -30.6632 H   0  0  0  0  0  0  0  0  0  0  0  0
   -8.8214   17.4241  -31.8811 H   0  0  0  0  0  0  0  0  0  0  0  0
   -6.4291   21.7384  -32.8708 H   0  0  0  0  0  0  0  0  0  0  0  0
   -5.9328   17.8873  -35.6712 H   0  0  0  0  0  0  0  0  0  0  0  0
   -4.7361   17.5108  -34.4293 H   0  0  0  0  0  0  0  0  0  0  0  0
   -6.7870   24.0540  -29.1020 H   0  0  0  0  0  0  0  0  0  0  0  0
   -4.8410   22.3952  -27.8217 H   0  0  0  0  0  0  0  0  0  0  0  0
   -2.5008   22.6690  -26.9855 H   0  0  0  0  0  0  0  0  0  0  0  0
   -1.0191   24.3976  -28.0164 H   0  0  0  0  0  0  0  0  0  0  0  0
  1  2  2  0
  2  3  1  0
  3  4  1  0
  4  5  1  0
  5  6  2  0
  6  7  1  0
  7  8  2  0
  8  9  1  0
  9 10  2  0
  9 11  1  0
 11 12  1  0
 12 13  1  0
  2 14  1  0
 14 15  1  0
 15 16  2  0
 16 17  1  0
 17 18  2  0
 18 19  1  0
 19 20  1  0
 20 21  2  0
 10  5  1  0
 20 15  1  0
 13  8  1  0
  4 22  1  0
  4 23  1  0
  6 24  1  0
  7 25  1  0
 10 26  1  0
 12 27  1  0
 12 28  1  0
 14 29  1  0
 16 30  1  0
 17 31  1  0
 18 32  1  0
M  CHG  2   3  -1  19  -1
M  END
>  <UniqueID>  (18) 
18

>  <SMILES>  (18) 
O=C([N-]Cc1ccc2c(c1)OCO2)Nc1ccc[n-]c1=O

>  <Energy>  (18) 
65.54957744666146

>  <Genealogy>  (18) 
O=C([N-]Cc1ccc2c(c1)OCO2)Nc1ccc[n-]c1=O (protonated)
O=C([N-]Cc1ccc2c(c1)OCO2)Nc1ccc[n-]c1=O (3D coordinates assigned)
O=C([N-]Cc1ccc2c(c1)OCO2)Nc1ccc[n-]c1=O (nonaromatic ring conformer: 65.54957744666146 kcal/mol)

>  <smiles>  (18) 
O=C(NCc1ccc2c(c1)OCO2)Nc1ccc[nH]c1=O

>  <score_type>  (18) 
oracle

>  <origin>  (18) 
adgpu

>  <m_score__min__energy>  (18) 
-10.16

>  <m_primary>  (18) 
energy

$$$$
18:0
     RDKit          3D

 50 53  0  0  0  0  0  0  0  0999 V2000
   -2.9240   19.8090  -33.2340 C   0  0  0  0  0  0  0  0  0  0  0  0
   -3.6940   20.7210  -32.2660 C   0  0  1  0  0  0  0  0  0  0  0  0
   -2.8570   21.8490  -31.5980 C   0  0  0  0  0  0  0  0  0  0  0  0
   -3.4780   22.6060  -30.4840 N   0  0  1  0  0  0  0  0  0  0  0  0
   -2.5340   23.4720  -29.7360 C   0  0  0  0  0  0  0  0  0  0  0  0
   -1.8920   22.7310  -28.5960 C   0  0  0  0  0  0  0  0  0  0  0  0
   -1.5630   21.3880  -28.5500 C   0  0  0  0  0  0  0  0  0  0  0  0
   -0.9910   21.1160  -27.3610 N   0  0  0  0  0  0  0  0  0  0  0  0
   -0.9350   22.2470  -26.6750 N   0  0  0  0  0  0  0  0  0  0  0  0
   -0.4300   22.3490  -25.3120 C   0  0  0  0  0  0  0  0  0  0  0  0
   -1.4820   23.2500  -27.3870 C   0  0  0  0  0  0  0  0  0  0  0  0
   -4.6740   23.3130  -30.8860 C   0  0  0  0  0  0  0  0  0  0  0  0
   -4.6170   24.5540  -31.1110 O   0  0  0  0  0  0  0  0  0  0  0  0
   -5.9530   22.6150  -31.1110 C   0  0  0  0  0  0  0  0  0  0  0  0
   -7.0520   22.9250  -30.2970 C   0  0  0  0  0  0  0  0  0  0  0  0
   -8.2710   22.2740  -30.4820 C   0  0  0  0  0  0  0  0  0  0  0  0
   -8.4010   21.2950  -31.4670 C   0  0  0  0  0  0  0  0  0  0  0  0
   -7.3020   20.9550  -32.2770 C   0  0  0  0  0  0  0  0  0  0  0  0
   -7.3930   19.9760  -33.2790 O   0  0  0  0  0  0  0  0  0  0  0  0
   -7.5390   18.5800  -33.0370 C   0  0  0  0  0  0  0  0  0  0  0  0
   -6.3400   17.8620  -33.5720 C   0  0  0  0  0  0  0  0  0  0  0  0
   -5.5800   18.3450  -34.6480 C   0  0  0  0  0  0  0  0  0  0  0  0
   -4.4940   17.5410  -34.9630 C   0  0  0  0  0  0  0  0  0  0  0  0
   -4.4800   16.2420  -33.8970 S   0  0  0  0  0  0  0  0  0  0  0  0
   -5.8470   16.6820  -33.0270 C   0  0  0  0  0  0  0  0  0  0  0  0
   -6.0740   21.6180  -32.0960 C   0  0  0  0  0  0  0  0  0  0  0  0
   -4.9350   21.2100  -32.8650 N   0  0  0  0  0  0  0  0  0  0  0  0
   -2.3189   19.0923  -32.6595 H   0  0  0  0  0  0  0  0  0  0  0  0
   -3.6373   19.2616  -33.8677 H   0  0  0  0  0  0  0  0  0  0  0  0
   -2.2647   20.4204  -33.8677 H   0  0  0  0  0  0  0  0  0  0  0  0
   -3.9588   20.0727  -31.4177 H   0  0  0  0  0  0  0  0  0  0  0  0
   -1.9375   21.3878  -31.2084 H   0  0  0  0  0  0  0  0  0  0  0  0
   -2.7147   22.5953  -32.3935 H   0  0  0  0  0  0  0  0  0  0  0  0
   -3.7820   21.8600  -29.8100 H   0  0  0  0  0  0  0  0  0  0  0  0
   -1.7488   23.8214  -30.4226 H   0  0  0  0  0  0  0  0  0  0  0  0
   -3.0981   24.3207  -29.3220 H   0  0  0  0  0  0  0  0  0  0  0  0
   -1.7400   20.6594  -29.3549 H   0  0  0  0  0  0  0  0  0  0  0  0
   -1.2538   22.1826  -24.6023 H   0  0  0  0  0  0  0  0  0  0  0  0
    0.3503   21.5903  -25.1524 H   0  0  0  0  0  0  0  0  0  0  0  0
   -0.0053   23.3511  -25.1524 H   0  0  0  0  0  0  0  0  0  0  0  0
   -1.5835   24.2960  -27.0621 H   0  0  0  0  0  0  0  0  0  0  0  0
   -6.9519   23.6855  -29.5086 H   0  0  0  0  0  0  0  0  0  0  0  0
   -9.1327   22.5332  -29.8493 H   0  0  0  0  0  0  0  0  0  0  0  0
   -9.3660   20.7870  -31.6110 H   0  0  0  0  0  0  0  0  0  0  0  0
   -7.6233   18.4006  -31.9550 H   0  0  0  0  0  0  0  0  0  0  0  0
   -8.4461   18.2101  -33.5373 H   0  0  0  0  0  0  0  0  0  0  0  0
   -5.8218   19.2715  -35.1895 H   0  0  0  0  0  0  0  0  0  0  0  0
   -3.7686   17.7223  -35.7698 H   0  0  0  0  0  0  0  0  0  0  0  0
   -6.2767   16.1333  -32.1759 H   0  0  0  0  0  0  0  0  0  0  0  0
   -4.9150   21.4620  -33.8790 H   0  0  0  0  0  0  0  0  0  0  0  0
  1  2  1  0
  2  3  1  0
  3  4  1  0
  4  5  1  0
  5  6  1  0
  6  7  1  0
  7  8  2  0
  8  9  1  0
  9 10  1  0
  9 11  1  0
  4 12  1  0
 12 13  2  0
 12 14  1  0
 14 15  2  0
 15 16  1  0
 16 17  2  0
 17 18  1  0
 18 19  1  0
 19 20  1  0
 20 21  1  0
 21 22  1  0
 22 23  2  0
 23 24  1  0
 24 25  1  0
 18 26  2  0
 26 27  1  0
 27  2  1  0
 11  6  2  0
 26 14  1  0
 25 21  2  0
  1 28  1  0
  1 29  1  0
  1 30  1  0
  2 31  1  1
  3 32  1  0
  3 33  1  0
  4 34  1  1
  5 35  1  0
  5 36  1  0
  7 37  1  0
 10 38  1  0
 10 39  1  0
 10 40  1  0
 11 41  1  0
 15 42  1  0
 16 43  1  0
 17 44  1  0
 20 45  1  0
 20 46  1  0
 22 47  1  0
 23 48  1  0
 25 49  1  0
 27 50  1  0
M  CHG  1   4   1
M  END
>  <UniqueID>  (19) 
19

>  <SMILES>  (19) 
C[C@H]1C[N@@H+](Cc2cnn(C)c2)C(=O)c2cccc(OCc3ccsc3)c2N1

>  <Energy>  (19) 
125.8461097320083

>  <Genealogy>  (19) 
CC1C[NH+](Cc2cnn(C)c2)C(=O)c2cccc(OCc3ccsc3)c2N1 (protonated)
C[C@H]1C[N@@H+](Cc2cnn(C)c2)C(=O)c2cccc(OCc3ccsc3)c2N1 (chirality)
C[C@H]1C[N@@H+](Cc2cnn(C)c2)C(=O)c2cccc(OCc3ccsc3)c2N1 (3D coordinates assigned)
C[C@H]1C[N@@H+](Cc2cnn(C)c2)C(=O)c2cccc(OCc3ccsc3)c2N1 (nonaromatic ring conformer: 125.8461097320083 kcal/mol)

>  <smiles>  (19) 
CC1CN(Cc2cnn(C)c2)C(=O)c2cccc(OCc3ccsc3)c2N1

>  <score_type>  (19) 
oracle

>  <origin>  (19) 
adgpu

>  <m_score__min__energy>  (19) 
-6.2699999999999996

>  <m_primary>  (19) 
energy

$$$$
19:0
     RDKit          3D

 45 47  0  0  0  0  0  0  0  0999 V2000
   -9.0650   21.4760  -30.4690 O   0  0  0  0  0  0  0  0  0  0  0  0
   -8.4940   22.1180  -31.7020 S   0  0  0  0  0  0  0  0  0  0  0  0
   -9.5190   23.0460  -32.2890 O   0  0  0  0  0  0  0  0  0  0  0  0
   -8.1110   20.8780  -32.8550 N   0  0  0  0  0  0  0  0  0  0  0  0
   -7.3280   19.7100  -32.5770 C   0  0  0  0  0  0  0  0  0  0  0  0
   -7.6110   18.8620  -31.4920 C   0  0  0  0  0  0  0  0  0  0  0  0
   -6.7920   17.7590  -31.2300 C   0  0  0  0  0  0  0  0  0  0  0  0
   -5.6950   17.4880  -32.0490 C   0  0  0  0  0  0  0  0  0  0  0  0
   -5.4150   18.3160  -33.1420 C   0  0  0  0  0  0  0  0  0  0  0  0
   -4.0050   17.9850  -34.1450 S   0  0  0  0  0  0  0  0  0  0  0  0
   -4.4340   17.6130  -35.5380 O   0  0  0  0  0  0  0  0  0  0  0  0
   -3.2530   16.8270  -33.5500 O   0  0  0  0  0  0  0  0  0  0  0  0
   -2.9820   19.4000  -34.1960 N   0  0  0  0  0  0  0  0  0  0  0  0
   -1.5450   19.0220  -34.1960 C   0  0  0  0  0  0  0  0  0  0  0  0
   -0.8610   19.2540  -32.8410 C   0  0  0  0  0  0  0  0  0  0  0  0
   -0.9750   20.7260  -32.4060 C   0  0  0  0  0  0  0  0  0  0  0  0
   -2.2860   21.3840  -32.8720 C   0  0  0  0  0  0  0  0  0  0  0  0
   -3.3750   20.3350  -33.1180 C   0  0  0  0  0  0  0  0  0  0  0  0
   -6.2360   19.4230  -33.4040 C   0  0  0  0  0  0  0  0  0  0  0  0
   -7.0490   23.0430  -31.3040 C   0  0  0  0  0  0  0  0  0  0  0  0
   -5.7950   22.6260  -31.7700 C   0  0  0  0  0  0  0  0  0  0  0  0
   -4.6540   23.3800  -31.4850 C   0  0  0  0  0  0  0  0  0  0  0  0
   -4.7560   24.5540  -30.7300 C   0  0  0  0  0  0  0  0  0  0  0  0
   -3.6130   25.2960  -30.4620 O   0  0  0  0  0  0  0  0  0  0  0  0
   -6.0090   24.9740  -30.2530 C   0  0  0  0  0  0  0  0  0  0  0  0
   -6.1390   26.1410  -29.5010 O   0  0  0  0  0  0  0  0  0  0  0  0
   -7.1490   24.2140  -30.5380 C   0  0  0  0  0  0  0  0  0  0  0  0
   -8.4787   19.0665  -30.8476 H   0  0  0  0  0  0  0  0  0  0  0  0
   -7.0133   17.1028  -30.3754 H   0  0  0  0  0  0  0  0  0  0  0  0
   -5.0500   16.6230  -31.8353 H   0  0  0  0  0  0  0  0  0  0  0  0
   -1.4637   17.9551  -34.4510 H   0  0  0  0  0  0  0  0  0  0  0  0
   -1.0377   19.6616  -34.9332 H   0  0  0  0  0  0  0  0  0  0  0  0
   -1.3408   18.6175  -32.0830 H   0  0  0  0  0  0  0  0  0  0  0  0
    0.2049   19.0013  -32.9406 H   0  0  0  0  0  0  0  0  0  0  0  0
   -0.9288   20.7729  -31.3080 H   0  0  0  0  0  0  0  0  0  0  0  0
   -0.1439   21.2753  -32.8724 H   0  0  0  0  0  0  0  0  0  0  0  0
   -2.6310   22.0846  -32.0973 H   0  0  0  0  0  0  0  0  0  0  0  0
   -2.0933   21.9143  -33.8163 H   0  0  0  0  0  0  0  0  0  0  0  0
   -3.5408   19.7656  -32.1916 H   0  0  0  0  0  0  0  0  0  0  0  0
   -4.2958   20.8532  -33.4241 H   0  0  0  0  0  0  0  0  0  0  0  0
   -6.0197   20.0707  -34.2664 H   0  0  0  0  0  0  0  0  0  0  0  0
   -5.7088   21.7027  -32.3617 H   0  0  0  0  0  0  0  0  0  0  0  0
   -3.6722   23.0499  -31.8552 H   0  0  0  0  0  0  0  0  0  0  0  0
   -5.3690   26.5330  -28.9750 H   0  0  0  0  0  0  0  0  0  0  0  0
   -8.1298   24.5369  -30.1589 H   0  0  0  0  0  0  0  0  0  0  0  0
  1  2  2  0
  2  3  2  0
  2  4  1  0
  4  5  1  0
  5  6  2  0
  6  7  1  0
  7  8  2  0
  8  9  1  0
  9 10  1  0
 10 11  2  0
 10 12  2  0
 10 13  1  0
 13 14  1  0
 14 15  1  0
 15 16  1  0
 16 17  1  0
 17 18  1  0
  9 19  2  0
  2 20  1  0
 20 21  2  0
 21 22  1  0
 22 23  2  0
 23 24  1  0
 23 25  1  0
 25 26  1  0
 25 27  2  0
 19  5  1  0
 27 20  1  0
 18 13  1  0
  6 28  1  0
  7 29  1  0
  8 30  1  0
 14 31  1  0
 14 32  1  0
 15 33  1  0
 15 34  1  0
 16 35  1  0
 16 36  1  0
 17 37  1  0
 17 38  1  0
 18 39  1  0
 18 40  1  0
 19 41  1  0
 21 42  1  0
 22 43  1  0
 26 44  1  0
 27 45  1  0
M  CHG  2   4  -1  24  -1
M  END
>  <UniqueID>  (20) 
20

>  <SMILES>  (20) 
O=S(=O)([N-]c1cccc(S(=O)(=O)N2CCCCC2)c1)c1ccc([O-])c(O)c1

>  <Energy>  (20) 
54.74218543602475

>  <Genealogy>  (20) 
O=S(=O)([N-]c1cccc(S(=O)(=O)N2CCCCC2)c1)c1ccc([O-])c(O)c1 (protonated)
O=S(=O)([N-]c1cccc(S(=O)(=O)N2CCCCC2)c1)c1ccc([O-])c(O)c1 (3D coordinates assigned)
O=S(=O)([N-]c1cccc(S(=O)(=O)N2CCCCC2)c1)c1ccc([O-])c(O)c1 (nonaromatic ring conformer: 54.74218543602475 kcal/mol)

>  <smiles>  (20) 
O=S(=O)(Nc1cccc(S(=O)(=O)N2CCCCC2)c1)c1ccc(O)c(O)c1

>  <score_type>  (20) 
oracle

>  <origin>  (20) 
adgpu

>  <m_score__min__energy>  (20) 
-12.24

>  <m_primary>  (20) 
energy

$$$$
20:0
     RDKit          3D

107112  0  0  0  0  0  0  0  0999 V2000
    3.5010   21.3130  -36.7130 C   0  0  0  0  0  0  0  0  0  0  0  0
    2.0480   21.4270  -36.7500 N   0  0  0  0  0  0  0  0  0  0  0  0
    1.2300   21.8800  -35.6620 C   0  0  0  0  0  0  0  0  0  0  0  0
    0.7220   23.0310  -35.7240 O   0  0  0  0  0  0  0  0  0  0  0  0
    0.9300   21.0320  -34.4890 C   0  0  0  0  0  0  0  0  0  0  0  0
    1.9210   20.7190  -33.5580 C   0  0  0  0  0  0  0  0  0  0  0  0
    1.6200   19.9210  -32.4560 C   0  0  0  0  0  0  0  0  0  0  0  0
    0.3160   19.4320  -32.2500 C   0  0  0  0  0  0  0  0  0  0  0  0
    0.0850   18.5690  -31.1740 O   0  0  0  0  0  0  0  0  0  0  0  0
   -0.4440   18.9860  -29.9450 C   0  0  0  0  0  0  0  0  0  0  0  0
   -1.3470   20.0640  -29.9350 C   0  0  0  0  0  0  0  0  0  0  0  0
   -1.9180   20.5030  -28.7470 C   0  0  0  0  0  0  0  0  0  0  0  0
   -1.6080   19.8590  -27.5520 C   0  0  0  0  0  0  0  0  0  0  0  0
   -0.7100   18.7900  -27.5360 C   0  0  0  0  0  0  0  0  0  0  0  0
   -0.0960   18.3250  -28.7280 C   0  0  0  0  0  0  0  0  0  0  0  0
    0.9640   17.1890  -28.6990 C   0  0  0  0  0  0  0  0  0  0  0  0
    1.0070   16.4340  -27.3460 C   0  0  0  0  0  0  0  0  0  0  0  0
    0.6600   16.1350  -29.7900 C   0  0  0  0  0  0  0  0  0  0  0  0
    2.3750   17.7780  -28.9280 C   0  0  0  0  0  0  0  0  0  0  0  0
   -0.7110   19.7870  -33.1670 C   0  0  0  0  0  0  0  0  0  0  0  0
   -2.1120   19.4670  -33.0270 N   0  0  0  0  0  0  0  0  0  0  0  0
   -3.3250   20.0320  -33.5400 C   0  0  0  0  0  0  0  0  0  0  0  0
   -4.2050   19.3210  -34.0870 O   0  0  0  0  0  0  0  0  0  0  0  0
   -3.5810   21.4320  -33.3800 N   0  0  0  0  0  0  0  0  0  0  0  0
   -4.3030   22.0290  -32.2950 C   0  0  0  0  0  0  0  0  0  0  0  0
   -5.7020   22.0690  -32.3590 C   0  0  0  0  0  0  0  0  0  0  0  0
   -6.4530   22.6660  -31.3340 C   0  0  0  0  0  0  0  0  0  0  0  0
   -7.9330   22.6900  -31.4070 C   0  0  0  0  0  0  0  0  0  0  0  0
   -8.5260   23.7030  -31.8590 O   0  0  0  0  0  0  0  0  0  0  0  0
   -8.6950   21.5690  -30.9450 N   0  0  0  0  0  0  0  0  0  0  0  0
   -9.1850   20.5070  -31.8170 C   0  0  0  0  0  0  0  0  0  0  0  0
   -8.3970   19.2140  -31.5870 C   0  0  0  0  0  0  0  0  0  0  0  0
   -7.0130   19.3710  -32.0930 N   0  0  0  0  0  0  0  0  0  0  0  0
   -6.0360   18.5950  -31.3030 C   0  0  0  0  0  0  0  0  0  0  0  0
   -6.1230   17.0800  -31.5910 C   0  0  0  0  0  0  0  0  0  0  0  0
   -6.9350   16.7790  -32.7150 O   0  0  0  0  0  0  0  0  0  0  0  0
   -6.5490   17.5840  -33.8050 C   0  0  0  0  0  0  0  0  0  0  0  0
   -6.8770   19.0670  -33.5370 C   0  0  0  0  0  0  0  0  0  0  0  0
   -5.7810   23.2680  -30.2570 C   0  0  0  0  0  0  0  0  0  0  0  0
   -4.3750   23.2790  -30.1990 C   0  0  0  0  0  0  0  0  0  0  0  0
   -3.6840   23.9980  -29.0980 C   0  0  0  0  0  0  0  0  0  0  0  0
   -2.3960   24.5290  -29.2880 C   0  0  0  0  0  0  0  0  0  0  0  0
   -1.7050   25.1190  -28.2270 C   0  0  0  0  0  0  0  0  0  0  0  0
   -2.2980   25.2070  -26.9610 C   0  0  0  0  0  0  0  0  0  0  0  0
   -1.3910   25.8820  -25.6060 S   0  0  0  0  0  0  0  0  0  0  0  0
   -2.3440   26.4230  -24.5760 O   0  0  0  0  0  0  0  0  0  0  0  0
   -0.5760   24.7900  -24.9700 O   0  0  0  0  0  0  0  0  0  0  0  0
   -0.3300   27.1480  -26.1740 N   0  0  0  0  0  0  0  0  0  0  0  0
   -0.8470   28.4640  -25.7490 C   0  0  0  0  0  0  0  0  0  0  0  0
    0.1500   29.5970  -26.0780 C   0  0  0  0  0  0  0  0  0  0  0  0
    1.2690   29.0870  -26.8900 N   0  0  0  0  0  0  0  0  0  0  0  0
    2.1800   30.1800  -27.2600 C   0  0  0  0  0  0  0  0  0  0  0  0
    1.9920   28.0370  -26.1470 C   0  0  0  0  0  0  0  0  0  0  0  0
    1.0260   26.9370  -25.6460 C   0  0  0  0  0  0  0  0  0  0  0  0
   -3.5920   24.7090  -26.7680 C   0  0  0  0  0  0  0  0  0  0  0  0
   -4.2810   24.1100  -27.8290 C   0  0  0  0  0  0  0  0  0  0  0  0
   -3.6410   22.6490  -31.2200 C   0  0  0  0  0  0  0  0  0  0  0  0
   -0.3800   20.5870  -34.2700 C   0  0  0  0  0  0  0  0  0  0  0  0
    3.8402   21.2864  -35.6669 H   0  0  0  0  0  0  0  0  0  0  0  0
    3.8093   20.3879  -37.2221 H   0  0  0  0  0  0  0  0  0  0  0  0
    3.9498   22.1787  -37.2221 H   0  0  0  0  0  0  0  0  0  0  0  0
    2.9427   21.1032  -33.6943 H   0  0  0  0  0  0  0  0  0  0  0  0
    2.4130   19.6694  -31.7364 H   0  0  0  0  0  0  0  0  0  0  0  0
   -1.6044   20.5658  -30.8794 H   0  0  0  0  0  0  0  0  0  0  0  0
   -2.6124   21.3561  -28.7504 H   0  0  0  0  0  0  0  0  0  0  0  0
   -2.0739   20.1949  -26.6139 H   0  0  0  0  0  0  0  0  0  0  0  0
   -0.4738   18.2985  -26.5807 H   0  0  0  0  0  0  0  0  0  0  0  0
    0.9657   17.1592  -26.5200 H   0  0  0  0  0  0  0  0  0  0  0  0
    0.1462   15.7524  -27.2789 H   0  0  0  0  0  0  0  0  0  0  0  0
    1.9396   15.8546  -27.2789 H   0  0  0  0  0  0  0  0  0  0  0  0
    0.3853   15.1825  -29.3132 H   0  0  0  0  0  0  0  0  0  0  0  0
   -0.1737   16.4854  -30.4162 H   0  0  0  0  0  0  0  0  0  0  0  0
    1.5523   15.9876  -30.4162 H   0  0  0  0  0  0  0  0  0  0  0  0
    2.8514   17.9769  -27.9567 H   0  0  0  0  0  0  0  0  0  0  0  0
    2.9847   17.0593  -29.4951 H   0  0  0  0  0  0  0  0  0  0  0  0
    2.2928   18.7169  -29.4951 H   0  0  0  0  0  0  0  0  0  0  0  0
   -6.2187   21.6269  -33.2236 H   0  0  0  0  0  0  0  0  0  0  0  0
  -10.2485   20.3252  -31.6027 H   0  0  0  0  0  0  0  0  0  0  0  0
   -9.0557   20.8196  -32.8637 H   0  0  0  0  0  0  0  0  0  0  0  0
   -8.3687   18.9905  -30.5103 H   0  0  0  0  0  0  0  0  0  0  0  0
   -8.8882   18.3896  -32.1247 H   0  0  0  0  0  0  0  0  0  0  0  0
   -5.0229   18.9448  -31.5504 H   0  0  0  0  0  0  0  0  0  0  0  0
   -6.2645   18.7495  -30.2382 H   0  0  0  0  0  0  0  0  0  0  0  0
   -5.1082   16.6992  -31.7786 H   0  0  0  0  0  0  0  0  0  0  0  0
   -6.5827   16.6022  -30.7133 H   0  0  0  0  0  0  0  0  0  0  0  0
   -5.4659   17.4779  -33.9654 H   0  0  0  0  0  0  0  0  0  0  0  0
   -7.1032   17.2570  -34.6972 H   0  0  0  0  0  0  0  0  0  0  0  0
   -6.0687   19.6868  -33.9525 H   0  0  0  0  0  0  0  0  0  0  0  0
   -7.8435   19.2850  -34.0148 H   0  0  0  0  0  0  0  0  0  0  0  0
   -6.3614   23.7368  -29.4487 H   0  0  0  0  0  0  0  0  0  0  0  0
   -1.9278   24.4793  -30.2821 H   0  0  0  0  0  0  0  0  0  0  0  0
   -0.6915   25.5159  -28.3862 H   0  0  0  0  0  0  0  0  0  0  0  0
   -1.7958   28.6604  -26.2697 H   0  0  0  0  0  0  0  0  0  0  0  0
   -0.9958   28.4408  -24.6594 H   0  0  0  0  0  0  0  0  0  0  0  0
   -0.3725   30.3862  -26.6385 H   0  0  0  0  0  0  0  0  0  0  0  0
    0.5513   29.9994  -25.1362 H   0  0  0  0  0  0  0  0  0  0  0  0
    2.5743   30.6531  -26.3486 H   0  0  0  0  0  0  0  0  0  0  0  0
    3.0136   29.7773  -27.8541 H   0  0  0  0  0  0  0  0  0  0  0  0
    1.6337   30.9274  -27.8541 H   0  0  0  0  0  0  0  0  0  0  0  0
    2.7419   27.5807  -26.8098 H   0  0  0  0  0  0  0  0  0  0  0  0
    2.4749   28.4994  -25.2735 H   0  0  0  0  0  0  0  0  0  0  0  0
    1.3937   25.9556  -25.9801 H   0  0  0  0  0  0  0  0  0  0  0  0
    0.9855   26.9791  -24.5476 H   0  0  0  0  0  0  0  0  0  0  0  0
   -4.0686   24.7886  -25.7798 H   0  0  0  0  0  0  0  0  0  0  0  0
   -5.2983   23.7234  -27.6692 H   0  0  0  0  0  0  0  0  0  0  0  0
   -2.5418   22.6411  -31.1775 H   0  0  0  0  0  0  0  0  0  0  0  0
   -1.1691   20.8724  -34.9813 H   0  0  0  0  0  0  0  0  0  0  0  0
  1  2  1  0
  2  3  1  0
  3  4  2  0
  3  5  1  0
  5  6  2  0
  6  7  1  0
  7  8  2  0
  8  9  1  0
  9 10  1  0
 10 11  2  0
 11 12  1  0
 12 13  2  0
 13 14  1  0
 14 15  2  0
 15 16  1  0
 16 17  1  0
 16 18  1  0
 16 19  1  0
  8 20  1  0
 20 21  1  0
 21 22  1  0
 22 23  2  0
 22 24  1  0
 24 25  1  0
 25 26  2  0
 26 27  1  0
 27 28  1  0
 28 29  2  0
 28 30  1  0
 30 31  1  0
 31 32  1  0
 32 33  1  0
 33 34  1  0
 34 35  1  0
 35 36  1  0
 36 37  1  0
 37 38  1  0
 27 39  2  0
 39 40  1  0
 40 41  1  0
 41 42  2  0
 42 43  1  0
 43 44  2  0
 44 45  1  0
 45 46  2  0
 45 47  2  0
 45 48  1  0
 48 49  1  0
 49 50  1  0
 50 51  1  0
 51 52  1  0
 51 53  1  0
 53 54  1  0
 44 55  1  0
 55 56  2  0
 40 57  2  0
 20 58  2  0
 58  5  1  0
 15 10  1  0
 57 25  1  0
 38 33  1  0
 56 41  1  0
 54 48  1  0
  1 59  1  0
  1 60  1  0
  1 61  1  0
  6 62  1  0
  7 63  1  0
 11 64  1  0
 12 65  1  0
 13 66  1  0
 14 67  1  0
 17 68  1  0
 17 69  1  0
 17 70  1  0
 18 71  1  0
 18 72  1  0
 18 73  1  0
 19 74  1  0
 19 75  1  0
 19 76  1  0
 26 77  1  0
 31 78  1  0
 31 79  1  0
 32 80  1  0
 32 81  1  0
 34 82  1  0
 34 83  1  0
 35 84  1  0
 35 85  1  0
 37 86  1  0
 37 87  1  0
 38 88  1  0
 38 89  1  0
 39 90  1  0
 42 91  1  0
 43 92  1  0
 49 93  1  0
 49 94  1  0
 50 95  1  0
 50 96  1  0
 52 97  1  0
 52 98  1  0
 52 99  1  0
 53100  1  0
 53101  1  0
 54102  1  0
 54103  1  0
 55104  1  0
 56105  1  0
 57106  1  0
 58107  1  0
M  CHG  4   2  -1  21  -1  24  -1  30  -1
M  END
>  <UniqueID>  (21) 
21

>  <SMILES>  (21) 
C[N-]C(=O)c1ccc(Oc2ccccc2C(C)(C)C)c([N-]C(=O)[N-]c2cc(C(=O)[N-]CCN3CCOCC3)cc(-c3ccc(S(=O)(=O)N4CCN(C)CC4)cc3)c2)c1

>  <Energy>  (21) 
163.17636002435447

>  <Genealogy>  (21) 
C[N-]C(=O)c1ccc(Oc2ccccc2C(C)(C)C)c([N-]C(=O)[N-]c2cc(C(=O)[N-]CCN3CCOCC3)cc(-c3ccc(S(=O)(=O)N4CCN(C)CC4)cc3)c2)c1 (protonated)
C[N-]C(=O)c1ccc(Oc2ccccc2C(C)(C)C)c([N-]C(=O)[N-]c2cc(C(=O)[N-]CCN3CCOCC3)cc(-c3ccc(S(=O)(=O)N4CCN(C)CC4)cc3)c2)c1 (3D coordinates assigned)
C[N-]C(=O)c1ccc(Oc2ccccc2C(C)(C)C)c([N-]C(=O)[N-]c2cc(C(=O)[N-]CCN3CCOCC3)cc(-c3ccc(S(=O)(=O)N4CCN(C)CC4)cc3)c2)c1 (nonaromatic ring conformer: 163.17636002435447 kcal/mol)

>  <smiles>  (21) 
CNC(=O)c1ccc(Oc2ccccc2C(C)(C)C)c(NC(=O)Nc2cc(C(=O)NCCN3CCOCC3)cc(-c3ccc(S(=O)(=O)N4CCN(C)CC4)cc3)c2)c1

>  <score_type>  (21) 
oracle

>  <origin>  (21) 
adgpu

>  <m_score__min__energy>  (21) 
-12.44

>  <m_primary>  (21) 
energy

$$$$
21:0
     RDKit          3D

 47 49  0  0  0  0  0  0  0  0999 V2000
   -1.3060   26.1800  -26.3950 C   0  0  0  0  0  0  0  0  0  0  0  0
   -0.9300   26.7270  -27.7390 C   0  0  0  0  0  0  0  0  0  0  0  0
   -0.3060   27.8190  -27.8050 O   0  0  0  0  0  0  0  0  0  0  0  0
   -1.2770   26.0490  -28.9530 N   0  0  0  0  0  0  0  0  0  0  0  0
   -1.6700   24.6740  -29.0360 C   0  0  0  0  0  0  0  0  0  0  0  0
   -0.9280   23.7170  -28.3340 C   0  0  0  0  0  0  0  0  0  0  0  0
   -1.2730   22.3660  -28.4030 C   0  0  0  0  0  0  0  0  0  0  0  0
   -2.3690   21.9640  -29.1690 C   0  0  0  0  0  0  0  0  0  0  0  0
   -3.1380   22.9140  -29.8460 C   0  0  0  0  0  0  0  0  0  0  0  0
   -2.8170   24.2820  -29.7590 C   0  0  0  0  0  0  0  0  0  0  0  0
   -3.6230   25.2870  -30.3940 N   0  0  0  0  0  0  0  0  0  0  0  0
   -5.0480   25.2890  -30.5550 C   0  0  0  0  0  0  0  0  0  0  0  0
   -5.6990   26.3630  -30.4390 O   0  0  0  0  0  0  0  0  0  0  0  0
   -5.7530   24.0360  -30.9120 C   0  0  0  0  0  0  0  0  0  0  0  0
   -6.7970   23.5490  -30.1050 C   0  0  0  0  0  0  0  0  0  0  0  0
   -7.4550   22.3610  -30.4350 C   0  0  0  0  0  0  0  0  0  0  0  0
   -7.0790   21.6380  -31.5750 C   0  0  0  0  0  0  0  0  0  0  0  0
   -7.8930   20.1260  -31.9760 S   0  0  0  0  0  0  0  0  0  0  0  0
   -9.0600   19.9440  -31.0460 O   0  0  0  0  0  0  0  0  0  0  0  0
   -8.4340   20.2130  -33.3760 O   0  0  0  0  0  0  0  0  0  0  0  0
   -6.8350   18.7360  -31.8480 N   0  0  0  0  0  0  0  0  0  0  0  0
   -5.4390   19.1050  -31.5290 C   0  0  0  0  0  0  0  0  0  0  0  0
   -4.5120   19.0560  -32.7540 C   0  0  0  0  0  0  0  0  0  0  0  0
   -5.2330   19.3440  -33.9290 O   0  0  0  0  0  0  0  0  0  0  0  0
   -6.1140   18.2760  -34.2200 C   0  0  0  0  0  0  0  0  0  0  0  0
   -6.9550   17.8260  -33.0020 C   0  0  0  0  0  0  0  0  0  0  0  0
   -6.0510   22.1250  -32.3920 C   0  0  0  0  0  0  0  0  0  0  0  0
   -5.3910   23.3120  -32.0620 C   0  0  0  0  0  0  0  0  0  0  0  0
   -0.8712   26.8125  -25.6070 H   0  0  0  0  0  0  0  0  0  0  0  0
   -2.4015   26.1718  -26.2959 H   0  0  0  0  0  0  0  0  0  0  0  0
   -0.9212   25.1543  -26.2959 H   0  0  0  0  0  0  0  0  0  0  0  0
   -0.0680   24.0313  -27.7244 H   0  0  0  0  0  0  0  0  0  0  0  0
   -0.6816   21.6184  -27.8541 H   0  0  0  0  0  0  0  0  0  0  0  0
   -2.6276   20.8972  -29.2396 H   0  0  0  0  0  0  0  0  0  0  0  0
   -3.9988   22.5914  -30.4501 H   0  0  0  0  0  0  0  0  0  0  0  0
   -7.0981   24.1078  -29.2066 H   0  0  0  0  0  0  0  0  0  0  0  0
   -8.2716   21.9919  -29.7971 H   0  0  0  0  0  0  0  0  0  0  0  0
   -5.4303   20.1273  -31.1231 H   0  0  0  0  0  0  0  0  0  0  0  0
   -5.0622   18.3718  -30.8007 H   0  0  0  0  0  0  0  0  0  0  0  0
   -3.7093   19.7979  -32.6306 H   0  0  0  0  0  0  0  0  0  0  0  0
   -4.0846   18.0458  -32.8370 H   0  0  0  0  0  0  0  0  0  0  0  0
   -6.7996   18.5968  -35.0181 H   0  0  0  0  0  0  0  0  0  0  0  0
   -5.4962   17.4181  -34.5236 H   0  0  0  0  0  0  0  0  0  0  0  0
   -8.0118   17.7809  -33.3038 H   0  0  0  0  0  0  0  0  0  0  0  0
   -6.5745   16.8435  -32.6858 H   0  0  0  0  0  0  0  0  0  0  0  0
   -5.7618   21.5710  -33.2972 H   0  0  0  0  0  0  0  0  0  0  0  0
   -4.5813   23.6832  -32.7075 H   0  0  0  0  0  0  0  0  0  0  0  0
  1  2  1  0
  2  3  2  0
  2  4  1  0
  4  5  1  0
  5  6  2  0
  6  7  1  0
  7  8  2  0
  8  9  1  0
  9 10  2  0
 10 11  1  0
 11 12  1  0
 12 13  2  0
 12 14  1  0
 14 15  2  0
 15 16  1  0
 16 17  2  0
 17 18  1  0
 18 19  2  0
 18 20  2  0
 18 21  1  0
 21 22  1  0
 22 23  1  0
 23 24  1  0
 24 25  1  0
 25 26  1  0
 17 27  1  0
 27 28  2  0
 10  5  1  0
 28 14  1  0
 26 21  1  0
  1 29  1  0
  1 30  1  0
  1 31  1  0
  6 32  1  0
  7 33  1  0
  8 34  1  0
  9 35  1  0
 15 36  1  0
 16 37  1  0
 22 38  1  0
 22 39  1  0
 23 40  1  0
 23 41  1  0
 25 42  1  0
 25 43  1  0
 26 44  1  0
 26 45  1  0
 27 46  1  0
 28 47  1  0
M  CHG  2   4  -1  11  -1
M  END
>  <UniqueID>  (22) 
22

>  <SMILES>  (22) 
CC(=O)[N-]c1ccccc1[N-]C(=O)c1ccc(S(=O)(=O)N2CCOCC2)cc1

>  <Energy>  (22) 
68.11885859105496

>  <Genealogy>  (22) 
CC(=O)[N-]c1ccccc1[N-]C(=O)c1ccc(S(=O)(=O)N2CCOCC2)cc1 (protonated)
CC(=O)[N-]c1ccccc1[N-]C(=O)c1ccc(S(=O)(=O)N2CCOCC2)cc1 (3D coordinates assigned)
CC(=O)[N-]c1ccccc1[N-]C(=O)c1ccc(S(=O)(=O)N2CCOCC2)cc1 (nonaromatic ring conformer: 68.11885859105496 kcal/mol)

>  <smiles>  (22) 
CC(=O)Nc1ccccc1NC(=O)c1ccc(S(=O)(=O)N2CCOCC2)cc1

>  <score_type>  (22) 
oracle

>  <origin>  (22) 
adgpu

>  <m_score__min__energy>  (22) 
-13.52

>  <m_primary>  (22) 
energy

$$$$
22:0
     RDKit          3D

 52 55  0  0  0  0  0  0  0  0999 V2000
   -1.8530   20.3250  -33.8860 C   0  0  0  0  0  0  0  0  0  0  0  0
   -2.0160   21.1470  -32.6340 C   0  0  0  0  0  0  0  0  0  0  0  0
   -3.1840   21.8950  -32.4390 C   0  0  0  0  0  0  0  0  0  0  0  0
   -3.3610   22.6600  -31.2760 C   0  0  0  0  0  0  0  0  0  0  0  0
   -4.8830   23.5370  -31.0550 S   0  0  0  0  0  0  0  0  0  0  0  0
   -4.6330   25.0190  -31.0650 O   0  0  0  0  0  0  0  0  0  0  0  0
   -5.4700   23.1420  -29.7300 O   0  0  0  0  0  0  0  0  0  0  0  0
   -5.9740   23.1570  -32.3500 N   0  0  0  0  0  0  0  0  0  0  0  0
   -7.1100   22.2850  -32.2070 C   0  0  0  0  0  0  0  0  0  0  0  0
   -8.3500   22.7760  -31.7520 C   0  0  0  0  0  0  0  0  0  0  0  0
   -9.4440   21.9220  -31.6010 C   0  0  0  0  0  0  0  0  0  0  0  0
   -9.3260   20.5670  -31.9090 C   0  0  0  0  0  0  0  0  0  0  0  0
   -8.1090   20.0590  -32.3840 C   0  0  0  0  0  0  0  0  0  0  0  0
   -7.9710   18.7040  -32.7140 C   0  0  0  0  0  0  0  0  0  0  0  0
   -6.7490   18.2250  -33.1870 C   0  0  0  0  0  0  0  0  0  0  0  0
   -5.6720   19.1030  -33.3220 C   0  0  0  0  0  0  0  0  0  0  0  0
   -5.8190   20.4140  -32.9990 N   0  0  0  0  0  0  0  0  0  0  0  0
   -6.9980   20.9200  -32.5380 C   0  0  0  0  0  0  0  0  0  0  0  0
   -2.3260   22.6820  -30.3170 C   0  0  0  0  0  0  0  0  0  0  0  0
   -2.4190   23.4510  -29.1020 N   0  0  0  0  0  0  0  0  0  0  0  0
   -1.6440   24.6990  -28.9650 C   0  0  0  0  0  0  0  0  0  0  0  0
   -1.0910   24.8660  -27.5380 C   0  0  0  0  0  0  0  0  0  0  0  0
   -0.5910   23.5210  -26.9980 C   0  0  0  0  0  0  0  0  0  0  0  0
   -1.7070   22.4530  -26.9570 C   0  0  0  0  0  0  0  0  0  0  0  0
   -2.8910   22.7840  -27.8830 C   0  0  0  0  0  0  0  0  0  0  0  0
   -1.2040   21.9430  -30.5320 N   0  0  0  0  0  0  0  0  0  0  0  0
   -1.0160   21.1850  -31.6430 C   0  0  0  0  0  0  0  0  0  0  0  0
    0.2620   20.4110  -31.7790 C   0  0  0  0  0  0  0  0  0  0  0  0
   -1.6457   19.2796  -33.6138 H   0  0  0  0  0  0  0  0  0  0  0  0
   -2.7781   20.3729  -34.4791 H   0  0  0  0  0  0  0  0  0  0  0  0
   -1.0162   20.7223  -34.4791 H   0  0  0  0  0  0  0  0  0  0  0  0
   -3.9718   21.8826  -33.2066 H   0  0  0  0  0  0  0  0  0  0  0  0
   -5.7220   23.5240  -33.2950 H   0  0  0  0  0  0  0  0  0  0  0  0
   -8.4572   23.8444  -31.5131 H   0  0  0  0  0  0  0  0  0  0  0  0
  -10.4031   22.3196  -31.2376 H   0  0  0  0  0  0  0  0  0  0  0  0
  -10.1884   19.8966  -31.7791 H   0  0  0  0  0  0  0  0  0  0  0  0
   -8.8245   18.0194  -32.6003 H   0  0  0  0  0  0  0  0  0  0  0  0
   -6.6350   17.1634  -33.4516 H   0  0  0  0  0  0  0  0  0  0  0  0
   -4.7038   18.7328  -33.6902 H   0  0  0  0  0  0  0  0  0  0  0  0
   -0.8032   24.6772  -29.6739 H   0  0  0  0  0  0  0  0  0  0  0  0
   -2.3132   25.5459  -29.1771 H   0  0  0  0  0  0  0  0  0  0  0  0
   -0.2568   25.5828  -27.5541 H   0  0  0  0  0  0  0  0  0  0  0  0
   -1.8949   25.2363  -26.8848 H   0  0  0  0  0  0  0  0  0  0  0  0
    0.2207   23.1594  -27.6463 H   0  0  0  0  0  0  0  0  0  0  0  0
   -0.2414   23.6816  -25.9675 H   0  0  0  0  0  0  0  0  0  0  0  0
   -1.2797   21.4876  -27.2659 H   0  0  0  0  0  0  0  0  0  0  0  0
   -2.0936   22.4206  -25.9277 H   0  0  0  0  0  0  0  0  0  0  0  0
   -3.4078   21.8524  -28.1570 H   0  0  0  0  0  0  0  0  0  0  0  0
   -3.5800   23.4578  -27.3527 H   0  0  0  0  0  0  0  0  0  0  0  0
    0.6548   20.1731  -30.7794 H   0  0  0  0  0  0  0  0  0  0  0  0
    0.0689   19.4779  -32.3286 H   0  0  0  0  0  0  0  0  0  0  0  0
    0.9994   21.0144  -32.3286 H   0  0  0  0  0  0  0  0  0  0  0  0
  1  2  1  0
  2  3  2  0
  3  4  1  0
  4  5  1  0
  5  6  2  0
  5  7  2  0
  5  8  1  0
  8  9  1  0
  9 10  2  0
 10 11  1  0
 11 12  2  0
 12 13  1  0
 13 14  2  0
 14 15  1  0
 15 16  2  0
 16 17  1  0
 17 18  2  0
  4 19  2  0
 19 20  1  0
 20 21  1  0
 21 22  1  0
 22 23  1  0
 23 24  1  0
 24 25  1  0
 19 26  1  0
 26 27  2  0
 27 28  1  0
 27  2  1  0
 18  9  1  0
 25 20  1  0
 18 13  1  0
  1 29  1  0
  1 30  1  0
  1 31  1  0
  3 32  1  0
  8 33  1  0
 10 34  1  0
 11 35  1  0
 12 36  1  0
 14 37  1  0
 15 38  1  0
 16 39  1  0
 21 40  1  0
 21 41  1  0
 22 42  1  0
 22 43  1  0
 23 44  1  0
 23 45  1  0
 24 46  1  0
 24 47  1  0
 25 48  1  0
 25 49  1  0
 28 50  1  0
 28 51  1  0
 28 52  1  0
M  END
>  <UniqueID>  (23) 
23

>  <SMILES>  (23) 
Cc1cc(S(=O)(=O)Nc2cccc3cccnc23)c(N2CCCCC2)nc1C

>  <Energy>  (23) 
68.84259584184284

>  <Genealogy>  (23) 
Cc1cc(S(=O)(=O)Nc2cccc3cccnc23)c(N2CCCCC2)nc1C (3D coordinates assigned)
Cc1cc(S(=O)(=O)Nc2cccc3cccnc23)c(N2CCCCC2)nc1C (nonaromatic ring conformer: 68.84259584184284 kcal/mol)

>  <smiles>  (23) 
Cc1cc(S(=O)(=O)Nc2cccc3cccnc23)c(N2CCCCC2)nc1C

>  <score_type>  (23) 
oracle

>  <origin>  (23) 
adgpu

>  <m_score__min__energy>  (23) 
-10.43

>  <m_primary>  (23) 
energy

$$$$
23:0
     RDKit          3D

 61 64  0  0  0  0  0  0  0  0999 V2000
   -5.9340   22.6950  -32.3030 C   0  0  0  0  0  0  0  0  0  0  0  0
   -4.5230   22.1850  -32.1900 C   0  0  0  0  0  0  0  0  0  0  0  0
   -4.0790   21.2120  -33.0990 C   0  0  0  0  0  0  0  0  0  0  0  0
   -2.7760   20.7190  -33.0160 C   0  0  0  0  0  0  0  0  0  0  0  0
   -2.3420   19.7710  -33.9510 O   0  0  0  0  0  0  0  0  0  0  0  0
   -1.0650   19.7370  -34.5310 C   0  0  0  0  0  0  0  0  0  0  0  0
   -0.4750   18.5410  -34.9700 C   0  0  0  0  0  0  0  0  0  0  0  0
    0.8040   18.5710  -35.5270 C   0  0  0  0  0  0  0  0  0  0  0  0
    1.4610   19.7540  -35.6620 N   0  0  0  0  0  0  0  0  0  0  0  0
    0.9000   20.9360  -35.2880 C   0  0  0  0  0  0  0  0  0  0  0  0
    1.6770   22.1790  -35.4350 C   0  0  0  0  0  0  0  0  0  0  0  0
    2.6510   22.3800  -34.6630 O   0  0  0  0  0  0  0  0  0  0  0  0
    1.3910   23.1520  -36.4470 N   0  0  0  0  0  0  0  0  0  0  0  0
    0.3640   24.1850  -36.3480 C   0  0  0  0  0  0  0  0  0  0  0  0
    1.0160   25.5650  -36.2630 C   0  0  0  0  0  0  0  0  0  0  0  0
   -0.0180   26.6590  -36.1810 C   0  0  0  0  0  0  0  0  0  0  0  0
   -0.8620   26.9200  -37.2740 C   0  0  0  0  0  0  0  0  0  0  0  0
   -1.8440   27.9130  -37.1850 C   0  0  0  0  0  0  0  0  0  0  0  0
   -1.9920   28.6460  -36.0040 C   0  0  0  0  0  0  0  0  0  0  0  0
   -1.1630   28.3860  -34.9090 C   0  0  0  0  0  0  0  0  0  0  0  0
   -0.1820   27.3920  -34.9940 C   0  0  0  0  0  0  0  0  0  0  0  0
   -0.3750   20.9400  -34.7030 C   0  0  0  0  0  0  0  0  0  0  0  0
   -1.9380   21.1960  -32.0570 N   0  0  0  0  0  0  0  0  0  0  0  0
   -2.3270   22.1430  -31.1680 C   0  0  0  0  0  0  0  0  0  0  0  0
   -3.6210   22.6830  -31.2200 C   0  0  0  0  0  0  0  0  0  0  0  0
   -4.0780   23.9410  -30.0600 S   0  0  0  0  0  0  0  0  0  0  0  0
   -3.8930   25.3010  -30.6740 O   0  0  0  0  0  0  0  0  0  0  0  0
   -5.5240   23.7510  -29.6970 O   0  0  0  0  0  0  0  0  0  0  0  0
   -3.0930   23.8330  -28.6180 N   0  0  0  0  0  0  0  0  0  0  0  0
   -3.3650   22.5730  -27.8770 C   0  0  0  0  0  0  0  0  0  0  0  0
   -2.2670   21.5140  -28.0650 C   0  0  0  0  0  0  0  0  0  0  0  0
   -0.8940   22.0480  -27.6090 C   0  0  0  0  0  0  0  0  0  0  0  0
   -0.7270   21.7860  -26.2590 F   0  0  0  0  0  0  0  0  0  0  0  0
    0.0970   21.3750  -28.3050 F   0  0  0  0  0  0  0  0  0  0  0  0
   -0.7460   23.5650  -27.8470 C   0  0  0  0  0  0  0  0  0  0  0  0
   -1.6710   24.0450  -28.9680 C   0  0  0  0  0  0  0  0  0  0  0  0
   -6.3511   22.8458  -31.2964 H   0  0  0  0  0  0  0  0  0  0  0  0
   -5.9359   23.6507  -32.8476 H   0  0  0  0  0  0  0  0  0  0  0  0
   -6.5465   21.9614  -32.8476 H   0  0  0  0  0  0  0  0  0  0  0  0
   -4.7592   20.8374  -33.8781 H   0  0  0  0  0  0  0  0  0  0  0  0
   -1.0166   17.5882  -34.8756 H   0  0  0  0  0  0  0  0  0  0  0  0
    1.2814   17.6367  -35.8573 H   0  0  0  0  0  0  0  0  0  0  0  0
   -0.2827   24.1419  -37.2368 H   0  0  0  0  0  0  0  0  0  0  0  0
   -0.2350   24.0125  -35.4417 H   0  0  0  0  0  0  0  0  0  0  0  0
    1.6516   25.6057  -35.3662 H   0  0  0  0  0  0  0  0  0  0  0  0
    1.6136   25.7217  -37.1731 H   0  0  0  0  0  0  0  0  0  0  0  0
   -0.7503   26.3416  -38.2029 H   0  0  0  0  0  0  0  0  0  0  0  0
   -2.4995   28.1168  -38.0445 H   0  0  0  0  0  0  0  0  0  0  0  0
   -2.7620   29.4286  -35.9362 H   0  0  0  0  0  0  0  0  0  0  0  0
   -1.2819   28.9631  -33.9801 H   0  0  0  0  0  0  0  0  0  0  0  0
    0.4634   27.1837  -34.1279 H   0  0  0  0  0  0  0  0  0  0  0  0
   -0.8306   21.8878  -34.3804 H   0  0  0  0  0  0  0  0  0  0  0  0
   -1.6217   22.4911  -30.3990 H   0  0  0  0  0  0  0  0  0  0  0  0
   -3.4454   22.8075  -26.8053 H   0  0  0  0  0  0  0  0  0  0  0  0
   -4.2989   22.1519  -28.2776 H   0  0  0  0  0  0  0  0  0  0  0  0
   -2.5213   20.6239  -27.4708 H   0  0  0  0  0  0  0  0  0  0  0  0
   -2.2054   21.2618  -29.1339 H   0  0  0  0  0  0  0  0  0  0  0  0
   -0.9995   24.0996  -26.9197 H   0  0  0  0  0  0  0  0  0  0  0  0
    0.2934   23.7702  -28.1428 H   0  0  0  0  0  0  0  0  0  0  0  0
   -1.5000   25.1181  -29.1391 H   0  0  0  0  0  0  0  0  0  0  0  0
   -1.4464   23.4661  -29.8759 H   0  0  0  0  0  0  0  0  0  0  0  0
  1  2  1  0
  2  3  2  0
  3  4  1  0
  4  5  1  0
  5  6  1  0
  6  7  2  0
  7  8  1  0
  8  9  2  0
  9 10  1  0
 10 11  1  0
 11 12  2  0
 11 13  1  0
 13 14  1  0
 14 15  1  0
 15 16  1  0
 16 17  2  0
 17 18  1  0
 18 19  2  0
 19 20  1  0
 20 21  2  0
 10 22  2  0
  4 23  2  0
 23 24  1  0
 24 25  2  0
 25 26  1  0
 26 27  2  0
 26 28  2  0
 26 29  1  0
 29 30  1  0
 30 31  1  0
 31 32  1  0
 32 33  1  0
 32 34  1  0
 32 35  1  0
 35 36  1  0
 25  2  1  0
 36 29  1  0
 22  6  1  0
 21 16  1  0
  1 37  1  0
  1 38  1  0
  1 39  1  0
  3 40  1  0
  7 41  1  0
  8 42  1  0
 14 43  1  0
 14 44  1  0
 15 45  1  0
 15 46  1  0
 17 47  1  0
 18 48  1  0
 19 49  1  0
 20 50  1  0
 21 51  1  0
 22 52  1  0
 24 53  1  0
 30 54  1  0
 30 55  1  0
 31 56  1  0
 31 57  1  0
 35 58  1  0
 35 59  1  0
 36 60  1  0
 36 61  1  0
M  CHG  1  13  -1
M  END
>  <UniqueID>  (24) 
24

>  <SMILES>  (24) 
Cc1cc(Oc2ccnc(C(=O)[N-]CCc3ccccc3)c2)ncc1S(=O)(=O)N1CCC(F)(F)CC1

>  <Energy>  (24) 
78.92630037836709

>  <Genealogy>  (24) 
Cc1cc(Oc2ccnc(C(=O)[N-]CCc3ccccc3)c2)ncc1S(=O)(=O)N1CCC(F)(F)CC1 (protonated)
Cc1cc(Oc2ccnc(C(=O)[N-]CCc3ccccc3)c2)ncc1S(=O)(=O)N1CCC(F)(F)CC1 (3D coordinates assigned)
Cc1cc(Oc2ccnc(C(=O)[N-]CCc3ccccc3)c2)ncc1S(=O)(=O)N1CCC(F)(F)CC1 (nonaromatic ring conformer: 78.92630037836709 kcal/mol)

>  <smiles>  (24) 
Cc1cc(Oc2ccnc(C(=O)NCCc3ccccc3)c2)ncc1S(=O)(=O)N1CCC(F)(F)CC1

>  <score_type>  (24) 
oracle

>  <origin>  (24) 
adgpu

>  <m_score__min__energy>  (24) 
-11.23

>  <m_primary>  (24) 
energy

$$$$
24:0
     RDKit          3D

 55 58  0  0  0  0  0  0  0  0999 V2000
   -9.5120   21.7650  -31.6690 C   0  0  0  0  0  0  0  0  0  0  0  0
   -8.6580   20.5980  -32.0840 C   0  0  0  0  0  0  0  0  0  0  0  0
   -9.1040   19.2930  -31.8250 C   0  0  0  0  0  0  0  0  0  0  0  0
   -8.3400   18.1930  -32.2200 C   0  0  0  0  0  0  0  0  0  0  0  0
   -7.1210   18.3790  -32.8830 C   0  0  0  0  0  0  0  0  0  0  0  0
   -6.1690   16.9870  -33.4060 S   0  0  0  0  0  0  0  0  0  0  0  0
   -5.6800   16.2380  -32.1980 O   0  0  0  0  0  0  0  0  0  0  0  0
   -7.0430   16.0600  -34.2050 O   0  0  0  0  0  0  0  0  0  0  0  0
   -4.7970   17.4730  -34.3760 N   0  0  0  0  0  0  0  0  0  0  0  0
   -4.1280   16.3090  -34.9990 C   0  0  0  0  0  0  0  0  0  0  0  0
   -2.8030   15.9610  -34.2970 C   0  0  0  0  0  0  0  0  0  0  0  0
   -1.8710   17.0330  -34.2950 O   0  0  0  0  0  0  0  0  0  0  0  0
   -2.4740   18.3200  -34.2110 C   0  0  0  0  0  0  0  0  0  0  0  0
   -3.8780   18.3130  -33.5840 C   0  0  0  0  0  0  0  0  0  0  0  0
   -6.6570   19.6810  -33.1200 C   0  0  0  0  0  0  0  0  0  0  0  0
   -7.4040   20.7890  -32.7060 C   0  0  0  0  0  0  0  0  0  0  0  0
   -6.8900   22.0700  -32.9440 O   0  0  0  0  0  0  0  0  0  0  0  0
   -5.9780   22.7210  -32.1020 C   0  0  0  0  0  0  0  0  0  0  0  0
   -6.4180   23.8270  -31.3660 C   0  0  0  0  0  0  0  0  0  0  0  0
   -5.5390   24.5130  -30.5230 C   0  0  0  0  0  0  0  0  0  0  0  0
   -4.2010   24.1180  -30.4210 C   0  0  0  0  0  0  0  0  0  0  0  0
   -3.3290   24.8380  -29.5370 N   0  0  0  0  0  0  0  0  0  0  0  0
   -3.0970   24.5490  -28.1520 C   0  0  0  0  0  0  0  0  0  0  0  0
   -3.8110   23.6750  -27.5930 O   0  0  0  0  0  0  0  0  0  0  0  0
   -2.0970   25.2960  -27.3510 C   0  0  0  0  0  0  0  0  0  0  0  0
   -2.0290   25.1090  -25.9580 C   0  0  0  0  0  0  0  0  0  0  0  0
   -1.0890   25.8050  -25.1930 C   0  0  0  0  0  0  0  0  0  0  0  0
   -0.2020   26.6890  -25.8110 C   0  0  0  0  0  0  0  0  0  0  0  0
   -0.2510   26.8770  -27.1930 C   0  0  0  0  0  0  0  0  0  0  0  0
   -1.1920   26.1870  -27.9660 C   0  0  0  0  0  0  0  0  0  0  0  0
   -1.2290   26.4050  -29.3390 O   0  0  0  0  0  0  0  0  0  0  0  0
   -3.7590   22.9970  -31.1450 C   0  0  0  0  0  0  0  0  0  0  0  0
   -4.6360   22.3120  -31.9900 C   0  0  0  0  0  0  0  0  0  0  0  0
   -9.5512   21.8186  -30.5710 H   0  0  0  0  0  0  0  0  0  0  0  0
   -9.0798   22.6953  -32.0663 H   0  0  0  0  0  0  0  0  0  0  0  0
  -10.5294   21.6344  -32.0663 H   0  0  0  0  0  0  0  0  0  0  0  0
  -10.0618   19.1355  -31.3074 H   0  0  0  0  0  0  0  0  0  0  0  0
   -8.6979   17.1745  -32.0091 H   0  0  0  0  0  0  0  0  0  0  0  0
   -4.7998   15.4400  -34.9403 H   0  0  0  0  0  0  0  0  0  0  0  0
   -3.9011   16.5669  -36.0440 H   0  0  0  0  0  0  0  0  0  0  0  0
   -3.0216   15.6862  -33.2546 H   0  0  0  0  0  0  0  0  0  0  0  0
   -2.3453   15.1318  -34.8564 H   0  0  0  0  0  0  0  0  0  0  0  0
   -1.8260   18.9665  -33.6010 H   0  0  0  0  0  0  0  0  0  0  0  0
   -2.5877   18.6862  -35.2420 H   0  0  0  0  0  0  0  0  0  0  0  0
   -3.8149   17.9141  -32.5608 H   0  0  0  0  0  0  0  0  0  0  0  0
   -4.2641   19.3429  -33.5681 H   0  0  0  0  0  0  0  0  0  0  0  0
   -5.6973   19.8324  -33.6359 H   0  0  0  0  0  0  0  0  0  0  0  0
   -7.4632   24.1589  -31.4515 H   0  0  0  0  0  0  0  0  0  0  0  0
   -5.9020   25.3694  -29.9358 H   0  0  0  0  0  0  0  0  0  0  0  0
   -2.7214   24.4093  -25.4671 H   0  0  0  0  0  0  0  0  0  0  0  0
   -1.0478   25.6564  -24.1039 H   0  0  0  0  0  0  0  0  0  0  0  0
    0.5362   27.2378  -25.2078 H   0  0  0  0  0  0  0  0  0  0  0  0
    0.4528   27.5703  -27.6768 H   0  0  0  0  0  0  0  0  0  0  0  0
   -2.7175   22.6574  -31.0458 H   0  0  0  0  0  0  0  0  0  0  0  0
   -4.2760   21.4495  -32.5701 H   0  0  0  0  0  0  0  0  0  0  0  0
  1  2  1  0
  2  3  2  0
  3  4  1  0
  4  5  2  0
  5  6  1  0
  6  7  2  0
  6  8  2  0
  6  9  1  0
  9 10  1  0
 10 11  1  0
 11 12  1  0
 12 13  1  0
 13 14  1  0
  5 15  1  0
 15 16  2  0
 16 17  1  0
 17 18  1  0
 18 19  2  0
 19 20  1  0
 20 21  2  0
 21 22  1  0
 22 23  1  0
 23 24  2  0
 23 25  1  0
 25 26  2  0
 26 27  1  0
 27 28  2  0
 28 29  1  0
 29 30  2  0
 30 31  1  0
 21 32  1  0
 32 33  2  0
 16  2  1  0
 33 18  1  0
 14  9  1  0
 30 25  1  0
  1 34  1  0
  1 35  1  0
  1 36  1  0
  3 37  1  0
  4 38  1  0
 10 39  1  0
 10 40  1  0
 11 41  1  0
 11 42  1  0
 13 43  1  0
 13 44  1  0
 14 45  1  0
 14 46  1  0
 15 47  1  0
 19 48  1  0
 20 49  1  0
 26 50  1  0
 27 51  1  0
 28 52  1  0
 29 53  1  0
 32 54  1  0
 33 55  1  0
M  CHG  2  22  -1  31  -1
M  END
>  <UniqueID>  (25) 
25

>  <SMILES>  (25) 
Cc1ccc(S(=O)(=O)N2CCOCC2)cc1Oc1ccc([N-]C(=O)c2ccccc2[O-])cc1

>  <Energy>  (25) 
86.13073736065473

>  <Genealogy>  (25) 
Cc1ccc(S(=O)(=O)N2CCOCC2)cc1Oc1ccc([N-]C(=O)c2ccccc2[O-])cc1 (protonated)
Cc1ccc(S(=O)(=O)N2CCOCC2)cc1Oc1ccc([N-]C(=O)c2ccccc2[O-])cc1 (3D coordinates assigned)
Cc1ccc(S(=O)(=O)N2CCOCC2)cc1Oc1ccc([N-]C(=O)c2ccccc2[O-])cc1 (nonaromatic ring conformer: 86.13073736065473 kcal/mol)

>  <smiles>  (25) 
Cc1ccc(S(=O)(=O)N2CCOCC2)cc1Oc1ccc(NC(=O)c2ccccc2O)cc1

>  <score_type>  (25) 
oracle

>  <origin>  (25) 
adgpu

>  <m_score__min__energy>  (25) 
-14.779999999999999

>  <m_primary>  (25) 
energy

$$$$
25:0
     RDKit          3D

 23 24  0  0  0  0  0  0  0  0999 V2000
   -1.5040   20.0300  -30.2740 C   0  0  0  0  0  0  0  0  0  0  0  0
   -1.9650   21.4210  -30.4510 N   0  0  0  0  0  0  0  0  0  0  0  0
   -1.2370   22.4100  -29.8350 C   0  0  0  0  0  0  0  0  0  0  0  0
   -0.1090   22.1460  -29.3310 O   0  0  0  0  0  0  0  0  0  0  0  0
   -1.7380   23.7150  -29.7270 C   0  0  0  0  0  0  0  0  0  0  0  0
   -0.9690   24.7430  -29.0670 N   0  0  0  0  0  0  0  0  0  0  0  0
   -1.4250   25.8990  -28.9490 O   0  0  0  0  0  0  0  0  0  0  0  0
    0.2840   24.4710  -28.5690 O   0  0  0  0  0  0  0  0  0  0  0  0
   -3.0090   24.0000  -30.2350 C   0  0  0  0  0  0  0  0  0  0  0  0
   -3.5010   25.2940  -30.0970 O   0  0  0  0  0  0  0  0  0  0  0  0
   -3.7440   23.0080  -30.9230 C   0  0  0  0  0  0  0  0  0  0  0  0
   -5.0480   23.2530  -31.4400 C   0  0  0  0  0  0  0  0  0  0  0  0
   -5.9770   24.7250  -31.1470 Cl  0  0  0  0  0  0  0  0  0  0  0  0
   -5.6860   22.2850  -32.2110 C   0  0  0  0  0  0  0  0  0  0  0  0
   -5.0440   21.1010  -32.5290 C   0  0  0  0  0  0  0  0  0  0  0  0
   -3.7750   20.8170  -32.0270 C   0  0  0  0  0  0  0  0  0  0  0  0
   -2.9940   19.4160  -32.7640 Cl  0  0  0  0  0  0  0  0  0  0  0  0
   -3.1370   21.7260  -31.1240 C   0  0  0  0  0  0  0  0  0  0  0  0
   -1.4286   19.8025  -29.2004 H   0  0  0  0  0  0  0  0  0  0  0  0
   -2.2225   19.3429  -30.7448 H   0  0  0  0  0  0  0  0  0  0  0  0
   -0.5174   19.9080  -30.7448 H   0  0  0  0  0  0  0  0  0  0  0  0
   -6.7101   22.4630  -32.5708 H   0  0  0  0  0  0  0  0  0  0  0  0
   -5.5421   20.3738  -33.1871 H   0  0  0  0  0  0  0  0  0  0  0  0
  1  2  1  0
  2  3  1  0
  3  4  2  0
  3  5  1  0
  5  6  1  0
  6  7  2  0
  6  8  1  0
  5  9  2  0
  9 10  1  0
  9 11  1  0
 11 12  2  0
 12 13  1  0
 12 14  1  0
 14 15  2  0
 15 16  1  0
 16 17  1  0
 16 18  2  0
 18  2  1  0
 18 11  1  0
  1 19  1  0
  1 20  1  0
  1 21  1  0
 14 22  1  0
 15 23  1  0
M  CHG  3   6   1   8  -1  10  -1
M  END
>  <UniqueID>  (26) 
26

>  <SMILES>  (26) 
Cn1c(=O)c([N+](=O)[O-])c([O-])c2c(Cl)ccc(Cl)c21

>  <Energy>  (26) 
56.047665890653015

>  <Genealogy>  (26) 
Cn1c(=O)c([N+](=O)[O-])c([O-])c2c(Cl)ccc(Cl)c21 (protonated)
Cn1c(=O)c([N+](=O)[O-])c([O-])c2c(Cl)ccc(Cl)c21 (3D coordinates assigned)
Cn1c(=O)c([N+](=O)[O-])c([O-])c2c(Cl)ccc(Cl)c21 (optimized conformer: 56.047665890653015 kcal/mol)

>  <smiles>  (26) 
Cn1c(=O)c([N+](=O)[O-])c(O)c2c(Cl)ccc(Cl)c21

>  <score_type>  (26) 
oracle

>  <origin>  (26) 
adgpu

>  <m_score__min__energy>  (26) 
-9.6199999999999992

>  <m_primary>  (26) 
energy

$$$$
26:0
     RDKit          3D

 61 64  0  0  0  0  0  0  0  0999 V2000
   -6.4860   17.4840  -35.0220 O   0  0  0  0  0  0  0  0  0  0  0  0
   -5.5160   17.0630  -34.3320 C   0  0  0  0  0  0  0  0  0  0  0  0
   -5.7530   16.4490  -32.9860 C   0  0  0  0  0  0  0  0  0  0  0  0
   -6.7460   17.1570  -32.2440 O   0  0  0  0  0  0  0  0  0  0  0  0
   -6.8470   18.5550  -32.1510 C   0  0  0  0  0  0  0  0  0  0  0  0
   -5.6800   19.2870  -31.9100 C   0  0  0  0  0  0  0  0  0  0  0  0
   -5.7240   20.6790  -31.7910 C   0  0  0  0  0  0  0  0  0  0  0  0
   -6.9430   21.3600  -31.9120 C   0  0  0  0  0  0  0  0  0  0  0  0
   -7.0060   23.1130  -31.7230 S   0  0  0  0  0  0  0  0  0  0  0  0
   -6.0470   23.7480  -32.6910 O   0  0  0  0  0  0  0  0  0  0  0  0
   -8.3880   23.5860  -32.0740 O   0  0  0  0  0  0  0  0  0  0  0  0
   -6.6080   23.6390  -30.1000 N   0  0  0  0  0  0  0  0  0  0  0  0
   -6.8080   25.0890  -29.9080 C   0  0  0  0  0  0  0  0  0  0  0  0
   -5.6250   25.9390  -30.4350 C   0  0  0  0  0  0  0  0  0  0  0  0
   -4.4930   25.1690  -30.7870 O   0  0  0  0  0  0  0  0  0  0  0  0
   -4.1950   24.2580  -29.7570 C   0  0  0  0  0  0  0  0  0  0  0  0
   -5.2810   23.1710  -29.6530 C   0  0  0  0  0  0  0  0  0  0  0  0
   -8.1110   20.6350  -32.1760 C   0  0  0  0  0  0  0  0  0  0  0  0
   -8.0690   19.2410  -32.2900 C   0  0  0  0  0  0  0  0  0  0  0  0
   -4.1680   17.2260  -34.7890 N   0  0  0  0  0  0  0  0  0  0  0  0
   -3.0340   17.5660  -33.9790 C   0  0  0  0  0  0  0  0  0  0  0  0
   -2.0830   16.6050  -33.5910 C   0  0  0  0  0  0  0  0  0  0  0  0
   -1.0060   16.9720  -32.7780 C   0  0  0  0  0  0  0  0  0  0  0  0
   -0.8720   18.2940  -32.3440 C   0  0  0  0  0  0  0  0  0  0  0  0
   -1.8240   19.2560  -32.7150 C   0  0  0  0  0  0  0  0  0  0  0  0
   -1.6800   20.9270  -32.1800 S   0  0  0  0  0  0  0  0  0  0  0  0
   -2.9610   21.6460  -32.5100 O   0  0  0  0  0  0  0  0  0  0  0  0
   -0.5390   21.6090  -32.8930 O   0  0  0  0  0  0  0  0  0  0  0  0
   -1.4030   20.9610  -30.4550 N   0  0  0  0  0  0  0  0  0  0  0  0
   -0.4730   22.0500  -30.0820 C   0  0  0  0  0  0  0  0  0  0  0  0
   -1.1970   23.2370  -29.4220 C   0  0  0  0  0  0  0  0  0  0  0  0
   -1.9220   22.8740  -28.2540 O   0  0  0  0  0  0  0  0  0  0  0  0
   -2.4900   21.5700  -28.3140 C   0  0  0  0  0  0  0  0  0  0  0  0
   -2.6920   21.0390  -29.7420 C   0  0  0  0  0  0  0  0  0  0  0  0
   -2.9080   18.8830  -33.5190 C   0  0  0  0  0  0  0  0  0  0  0  0
   -6.0857   15.4095  -33.1232 H   0  0  0  0  0  0  0  0  0  0  0  0
   -4.8102   16.4930  -32.4211 H   0  0  0  0  0  0  0  0  0  0  0  0
   -4.7181   18.7622  -31.8131 H   0  0  0  0  0  0  0  0  0  0  0  0
   -4.7983   21.2422  -31.6016 H   0  0  0  0  0  0  0  0  0  0  0  0
   -7.7213   25.3905  -30.4419 H   0  0  0  0  0  0  0  0  0  0  0  0
   -6.8860   25.2696  -28.8257 H   0  0  0  0  0  0  0  0  0  0  0  0
   -5.9616   26.4910  -31.3249 H   0  0  0  0  0  0  0  0  0  0  0  0
   -5.3196   26.6111  -29.6195 H   0  0  0  0  0  0  0  0  0  0  0  0
   -3.2267   23.7806  -29.9676 H   0  0  0  0  0  0  0  0  0  0  0  0
   -4.1542   24.8061  -28.8042 H   0  0  0  0  0  0  0  0  0  0  0  0
   -4.9822   22.3157  -30.2768 H   0  0  0  0  0  0  0  0  0  0  0  0
   -5.3693   22.8935  -28.5923 H   0  0  0  0  0  0  0  0  0  0  0  0
   -9.0679   21.1645  -32.2946 H   0  0  0  0  0  0  0  0  0  0  0  0
   -8.9935   18.6791  -32.4888 H   0  0  0  0  0  0  0  0  0  0  0  0
   -2.1866   15.5629  -33.9277 H   0  0  0  0  0  0  0  0  0  0  0  0
   -0.2624   16.2185  -32.4793 H   0  0  0  0  0  0  0  0  0  0  0  0
   -0.0193   18.5806  -31.7109 H   0  0  0  0  0  0  0  0  0  0  0  0
    0.2714   21.6530  -29.3761 H   0  0  0  0  0  0  0  0  0  0  0  0
    0.0024   22.4166  -31.0038 H   0  0  0  0  0  0  0  0  0  0  0  0
   -0.4477   23.9938  -29.1468 H   0  0  0  0  0  0  0  0  0  0  0  0
   -1.9252   23.6212  -30.1515 H   0  0  0  0  0  0  0  0  0  0  0  0
   -1.8232   20.8777  -27.7791 H   0  0  0  0  0  0  0  0  0  0  0  0
   -3.4880   21.6372  -27.8563 H   0  0  0  0  0  0  0  0  0  0  0  0
   -3.1399   20.0354  -29.6944 H   0  0  0  0  0  0  0  0  0  0  0  0
   -3.3562   21.7272  -30.2852 H   0  0  0  0  0  0  0  0  0  0  0  0
   -3.6673   19.6308  -33.7917 H   0  0  0  0  0  0  0  0  0  0  0  0
  1  2  2  0
  2  3  1  0
  3  4  1  0
  4  5  1  0
  5  6  2  0
  6  7  1  0
  7  8  2  0
  8  9  1  0
  9 10  2  0
  9 11  2  0
  9 12  1  0
 12 13  1  0
 13 14  1  0
 14 15  1  0
 15 16  1  0
 16 17  1  0
  8 18  1  0
 18 19  2  0
  2 20  1  0
 20 21  1  0
 21 22  2  0
 22 23  1  0
 23 24  2  0
 24 25  1  0
 25 26  1  0
 26 27  2  0
 26 28  2  0
 26 29  1  0
 29 30  1  0
 30 31  1  0
 31 32  1  0
 32 33  1  0
 33 34  1  0
 25 35  2  0
 19  5  1  0
 35 21  1  0
 17 12  1  0
 34 29  1  0
  3 36  1  0
  3 37  1  0
  6 38  1  0
  7 39  1  0
 13 40  1  0
 13 41  1  0
 14 42  1  0
 14 43  1  0
 16 44  1  0
 16 45  1  0
 17 46  1  0
 17 47  1  0
 18 48  1  0
 19 49  1  0
 22 50  1  0
 23 51  1  0
 24 52  1  0
 30 53  1  0
 30 54  1  0
 31 55  1  0
 31 56  1  0
 33 57  1  0
 33 58  1  0
 34 59  1  0
 34 60  1  0
 35 61  1  0
M  CHG  1  20  -1
M  END
>  <UniqueID>  (27) 
27

>  <SMILES>  (27) 
O=C(COc1ccc(S(=O)(=O)N2CCOCC2)cc1)[N-]c1cccc(S(=O)(=O)N2CCOCC2)c1

>  <Energy>  (27) 
89.61492281606535

>  <Genealogy>  (27) 
O=C(COc1ccc(S(=O)(=O)N2CCOCC2)cc1)[N-]c1cccc(S(=O)(=O)N2CCOCC2)c1 (protonated)
O=C(COc1ccc(S(=O)(=O)N2CCOCC2)cc1)[N-]c1cccc(S(=O)(=O)N2CCOCC2)c1 (3D coordinates assigned)
O=C(COc1ccc(S(=O)(=O)N2CCOCC2)cc1)[N-]c1cccc(S(=O)(=O)N2CCOCC2)c1 (nonaromatic ring conformer: 89.61492281606535 kcal/mol)

>  <smiles>  (27) 
O=C(COc1ccc(S(=O)(=O)N2CCOCC2)cc1)Nc1cccc(S(=O)(=O)N2CCOCC2)c1

>  <score_type>  (27) 
oracle

>  <origin>  (27) 
adgpu

>  <m_score__min__energy>  (27) 
-12.140000000000001

>  <m_primary>  (27) 
energy

$$$$
27:0
     RDKit          3D

 41 44  0  0  0  0  0  0  0  0999 V2000
   -5.6410   26.3680  -30.4980 O   0  0  0  0  0  0  0  0  0  0  0  0
   -5.0780   25.2650  -30.7340 C   0  0  0  0  0  0  0  0  0  0  0  0
   -3.6660   25.1170  -30.5540 N   0  0  0  0  0  0  0  0  0  0  0  0
   -3.0340   24.4360  -29.4600 C   0  0  0  0  0  0  0  0  0  0  0  0
   -3.5930   23.2350  -29.0100 C   0  0  0  0  0  0  0  0  0  0  0  0
   -3.0210   22.5420  -27.9380 C   0  0  0  0  0  0  0  0  0  0  0  0
   -3.5930   21.3620  -27.4680 O   0  0  0  0  0  0  0  0  0  0  0  0
   -1.8630   23.0340  -27.3320 C   0  0  0  0  0  0  0  0  0  0  0  0
   -1.2510   24.2010  -27.8090 C   0  0  0  0  0  0  0  0  0  0  0  0
   -0.0510   24.6700  -27.1750 N   0  0  0  0  0  0  0  0  0  0  0  0
   -0.0260   25.4150  -25.9460 C   0  0  0  0  0  0  0  0  0  0  0  0
    1.1970   25.6150  -25.2840 C   0  0  0  0  0  0  0  0  0  0  0  0
    1.2470   26.3530  -24.0980 C   0  0  0  0  0  0  0  0  0  0  0  0
    0.0810   26.9100  -23.5690 C   0  0  0  0  0  0  0  0  0  0  0  0
   -1.1390   26.7340  -24.2280 C   0  0  0  0  0  0  0  0  0  0  0  0
   -1.1940   25.9960  -25.4150 C   0  0  0  0  0  0  0  0  0  0  0  0
   -1.8450   24.9140  -28.8710 C   0  0  0  0  0  0  0  0  0  0  0  0
   -1.2480   26.0790  -29.3410 O   0  0  0  0  0  0  0  0  0  0  0  0
   -5.8770   24.1070  -31.1480 C   0  0  0  0  0  0  0  0  0  0  0  0
   -5.4110   23.0180  -31.8820 C   0  0  0  0  0  0  0  0  0  0  0  0
   -6.5130   22.2050  -32.0170 C   0  0  0  0  0  0  0  0  0  0  0  0
   -6.6680   20.9750  -32.6520 C   0  0  0  0  0  0  0  0  0  0  0  0
   -7.9410   20.3780  -32.6190 C   0  0  0  0  0  0  0  0  0  0  0  0
   -9.0150   21.0180  -31.9590 C   0  0  0  0  0  0  0  0  0  0  0  0
   -8.8240   22.2610  -31.3280 C   0  0  0  0  0  0  0  0  0  0  0  0
   -7.5530   22.8270  -31.3780 C   0  0  0  0  0  0  0  0  0  0  0  0
   -7.1590   23.9650  -30.8620 O   0  0  0  0  0  0  0  0  0  0  0  0
   -4.4899   22.8323  -29.5034 H   0  0  0  0  0  0  0  0  0  0  0  0
   -4.5450   21.3370  -27.1210 H   0  0  0  0  0  0  0  0  0  0  0  0
   -1.4278   22.5014  -26.4735 H   0  0  0  0  0  0  0  0  0  0  0  0
    0.8530   24.5280  -27.6830 H   0  0  0  0  0  0  0  0  0  0  0  0
    2.1208   25.1882  -25.7016 H   0  0  0  0  0  0  0  0  0  0  0  0
    2.2070   26.4953  -23.5803 H   0  0  0  0  0  0  0  0  0  0  0  0
    0.1226   27.4873  -22.6336 H   0  0  0  0  0  0  0  0  0  0  0  0
   -2.0566   27.1762  -23.8128 H   0  0  0  0  0  0  0  0  0  0  0  0
   -2.1542   25.8688  -25.9363 H   0  0  0  0  0  0  0  0  0  0  0  0
   -4.3944   22.8472  -32.2658 H   0  0  0  0  0  0  0  0  0  0  0  0
   -5.8239   20.4874  -33.1617 H   0  0  0  0  0  0  0  0  0  0  0  0
   -8.1020   19.4069  -33.1099 H   0  0  0  0  0  0  0  0  0  0  0  0
  -10.0061   20.5412  -31.9387 H   0  0  0  0  0  0  0  0  0  0  0  0
   -9.6520   22.7691  -30.8119 H   0  0  0  0  0  0  0  0  0  0  0  0
  1  2  2  0
  2  3  1  0
  3  4  1  0
  4  5  2  0
  5  6  1  0
  6  7  1  0
  6  8  2  0
  8  9  1  0
  9 10  1  0
 10 11  1  0
 11 12  2  0
 12 13  1  0
 13 14  2  0
 14 15  1  0
 15 16  2  0
  9 17  2  0
 17 18  1  0
  2 19  1  0
 19 20  2  0
 20 21  1  0
 21 22  2  0
 22 23  1  0
 23 24  2  0
 24 25  1  0
 25 26  2  0
 26 27  1  0
 17  4  1  0
 27 19  1  0
 16 11  1  0
 26 21  1  0
  5 28  1  0
  7 29  1  0
  8 30  1  0
 10 31  1  0
 12 32  1  0
 13 33  1  0
 14 34  1  0
 15 35  1  0
 16 36  1  0
 20 37  1  0
 22 38  1  0
 23 39  1  0
 24 40  1  0
 25 41  1  0
M  CHG  2   3  -1  18  -1
M  END
>  <UniqueID>  (28) 
28

>  <SMILES>  (28) 
O=C([N-]c1cc(O)cc(Nc2ccccc2)c1[O-])c1cc2ccccc2o1

>  <Energy>  (28) 
90.74079226446123

>  <Genealogy>  (28) 
O=C([N-]c1cc(O)cc(Nc2ccccc2)c1[O-])c1cc2ccccc2o1 (protonated)
O=C([N-]c1cc(O)cc(Nc2ccccc2)c1[O-])c1cc2ccccc2o1 (3D coordinates assigned)
O=C([N-]c1cc(O)cc(Nc2ccccc2)c1[O-])c1cc2ccccc2o1 (optimized conformer: 90.74079226446123 kcal/mol)

>  <smiles>  (28) 
O=C(Nc1cc(O)cc(Nc2ccccc2)c1O)c1cc2ccccc2o1

>  <score_type>  (28) 
oracle

>  <origin>  (28) 
adgpu

>  <m_score__min__energy>  (28) 
-13.460000000000001

>  <m_primary>  (28) 
energy

$$$$
28:0
     RDKit          3D

 59 62  0  0  0  0  0  0  0  0999 V2000
   -1.4070   25.5160  -29.2130 O   0  0  0  0  0  0  0  0  0  0  0  0
   -2.4110   24.7730  -29.3930 C   0  0  0  0  0  0  0  0  0  0  0  0
   -3.5340   25.2960  -30.1040 N   0  0  0  0  0  0  0  0  0  0  0  0
   -4.6600   24.5220  -30.5300 C   0  0  0  0  0  0  0  0  0  0  0  0
   -4.5070   23.3740  -31.3270 C   0  0  0  0  0  0  0  0  0  0  0  0
   -5.6230   22.5980  -31.6620 C   0  0  0  0  0  0  0  0  0  0  0  0
   -6.9000   22.9650  -31.2140 C   0  0  0  0  0  0  0  0  0  0  0  0
   -8.3030   21.9570  -31.5890 S   0  0  0  0  0  0  0  0  0  0  0  0
   -9.3380   22.7990  -32.2860 O   0  0  0  0  0  0  0  0  0  0  0  0
   -8.9060   21.4500  -30.3050 O   0  0  0  0  0  0  0  0  0  0  0  0
   -7.8820   20.5970  -32.6080 N   0  0  0  0  0  0  0  0  0  0  0  0
   -6.8520   19.7550  -31.9820 C   0  0  0  0  0  0  0  0  0  0  0  0
   -7.5420   18.5560  -31.3480 C   0  0  0  0  0  0  0  0  0  0  0  0
   -8.9580   18.5550  -31.8910 C   0  0  0  0  0  0  0  0  0  0  0  0
   -9.0370   19.7270  -32.8580 C   0  0  0  0  0  0  0  0  0  0  0  0
   -7.0520   24.1230  -30.4410 C   0  0  0  0  0  0  0  0  0  0  0  0
   -5.9380   24.8940  -30.1000 C   0  0  0  0  0  0  0  0  0  0  0  0
   -2.4050   23.3730  -28.8910 C   0  0  0  0  0  0  0  0  0  0  0  0
   -3.1180   23.0340  -27.7320 C   0  0  0  0  0  0  0  0  0  0  0  0
   -3.0880   21.7290  -27.2390 C   0  0  0  0  0  0  0  0  0  0  0  0
   -2.3500   20.7340  -27.8880 C   0  0  0  0  0  0  0  0  0  0  0  0
   -2.4030   18.9840  -27.1030 Br  0  0  0  0  0  0  0  0  0  0  0  0
   -1.6290   21.0550  -29.0610 C   0  0  0  0  0  0  0  0  0  0  0  0
   -0.6910   19.8750  -30.0000 S   0  0  0  0  0  0  0  0  0  0  0  0
    0.5570   20.5600  -30.4850 O   0  0  0  0  0  0  0  0  0  0  0  0
   -0.2700   18.6940  -29.1730 O   0  0  0  0  0  0  0  0  0  0  0  0
   -1.6190   19.3390  -31.3820 N   0  0  0  0  0  0  0  0  0  0  0  0
   -0.7850   19.2000  -32.5930 C   0  0  0  0  0  0  0  0  0  0  0  0
   -0.4690   20.5440  -33.2720 C   0  0  0  0  0  0  0  0  0  0  0  0
   -1.6470   21.5290  -33.2540 C   0  0  0  0  0  0  0  0  0  0  0  0
   -2.9640   20.8340  -32.9190 C   0  0  0  0  0  0  0  0  0  0  0  0
   -2.8630   20.1280  -31.5590 C   0  0  0  0  0  0  0  0  0  0  0  0
   -1.6680   22.3730  -29.5490 C   0  0  0  0  0  0  0  0  0  0  0  0
   -3.5089   23.0851  -31.6879 H   0  0  0  0  0  0  0  0  0  0  0  0
   -5.4975   21.6963  -32.2794 H   0  0  0  0  0  0  0  0  0  0  0  0
   -7.5210   20.9770  -33.5150 H   0  0  0  0  0  0  0  0  0  0  0  0
   -6.1362   19.4132  -32.7441 H   0  0  0  0  0  0  0  0  0  0  0  0
   -6.3046   20.3272  -31.2185 H   0  0  0  0  0  0  0  0  0  0  0  0
   -7.0250   17.6259  -31.6264 H   0  0  0  0  0  0  0  0  0  0  0  0
   -7.5311   18.6183  -30.2498 H   0  0  0  0  0  0  0  0  0  0  0  0
   -9.1652   17.6112  -32.4166 H   0  0  0  0  0  0  0  0  0  0  0  0
   -9.6993   18.6481  -31.0836 H   0  0  0  0  0  0  0  0  0  0  0  0
   -9.0102   19.3589  -33.8943 H   0  0  0  0  0  0  0  0  0  0  0  0
   -9.9745   20.2831  -32.7102 H   0  0  0  0  0  0  0  0  0  0  0  0
   -8.0530   24.4268  -30.1009 H   0  0  0  0  0  0  0  0  0  0  0  0
   -6.0668   25.7997  -29.4892 H   0  0  0  0  0  0  0  0  0  0  0  0
   -3.7051   23.8024  -27.2078 H   0  0  0  0  0  0  0  0  0  0  0  0
   -3.6521   21.4796  -26.3282 H   0  0  0  0  0  0  0  0  0  0  0  0
    0.1636   18.7201  -32.3104 H   0  0  0  0  0  0  0  0  0  0  0  0
   -1.3560   18.5969  -33.3143 H   0  0  0  0  0  0  0  0  0  0  0  0
    0.3808   21.0073  -32.7493 H   0  0  0  0  0  0  0  0  0  0  0  0
   -0.2418   20.3292  -34.3266 H   0  0  0  0  0  0  0  0  0  0  0  0
   -1.4513   22.3039  -32.4982 H   0  0  0  0  0  0  0  0  0  0  0  0
   -1.7391   21.9691  -34.2579 H   0  0  0  0  0  0  0  0  0  0  0  0
   -3.7696   21.5820  -32.8806 H   0  0  0  0  0  0  0  0  0  0  0  0
   -3.1814   20.0857  -33.6954 H   0  0  0  0  0  0  0  0  0  0  0  0
   -2.9041   20.8917  -30.7684 H   0  0  0  0  0  0  0  0  0  0  0  0
   -3.7016   19.4183  -31.5047 H   0  0  0  0  0  0  0  0  0  0  0  0
   -1.1112   22.6265  -30.4632 H   0  0  0  0  0  0  0  0  0  0  0  0
  1  2  2  0
  2  3  1  0
  3  4  1  0
  4  5  2  0
  5  6  1  0
  6  7  2  0
  7  8  1  0
  8  9  2  0
  8 10  2  0
  8 11  1  0
 11 12  1  0
 12 13  1  0
 13 14  1  0
 14 15  1  0
  7 16  1  0
 16 17  2  0
  2 18  1  0
 18 19  2  0
 19 20  1  0
 20 21  2  0
 21 22  1  0
 21 23  1  0
 23 24  1  0
 24 25  2  0
 24 26  2  0
 24 27  1  0
 27 28  1  0
 28 29  1  0
 29 30  1  0
 30 31  1  0
 31 32  1  0
 23 33  2  0
 17  4  1  0
 33 18  1  0
 15 11  1  0
 32 27  1  0
  5 34  1  0
  6 35  1  0
 11 36  1  0
 12 37  1  0
 12 38  1  0
 13 39  1  0
 13 40  1  0
 14 41  1  0
 14 42  1  0
 15 43  1  0
 15 44  1  0
 16 45  1  0
 17 46  1  0
 19 47  1  0
 20 48  1  0
 28 49  1  0
 28 50  1  0
 29 51  1  0
 29 52  1  0
 30 53  1  0
 30 54  1  0
 31 55  1  0
 31 56  1  0
 32 57  1  0
 32 58  1  0
 33 59  1  0
M  CHG  2   3  -1  11   1
M  END
>  <UniqueID>  (29) 
29

>  <SMILES>  (29) 
O=C([N-]c1ccc(S(=O)(=O)[NH+]2CCCC2)cc1)c1ccc(Br)c(S(=O)(=O)N2CCCCC2)c1

>  <Energy>  (29) 
77.40003087835578

>  <Genealogy>  (29) 
O=C([N-]c1ccc(S(=O)(=O)[NH+]2CCCC2)cc1)c1ccc(Br)c(S(=O)(=O)N2CCCCC2)c1 (protonated)
O=C([N-]c1ccc(S(=O)(=O)[NH+]2CCCC2)cc1)c1ccc(Br)c(S(=O)(=O)N2CCCCC2)c1 (3D coordinates assigned)
O=C([N-]c1ccc(S(=O)(=O)[NH+]2CCCC2)cc1)c1ccc(Br)c(S(=O)(=O)N2CCCCC2)c1 (nonaromatic ring conformer: 77.40003087835578 kcal/mol)

>  <smiles>  (29) 
O=C(Nc1ccc(S(=O)(=O)N2CCCC2)cc1)c1ccc(Br)c(S(=O)(=O)N2CCCCC2)c1

>  <score_type>  (29) 
oracle

>  <origin>  (29) 
adgpu

>  <m_score__min__energy>  (29) 
-13.029999999999999

>  <m_primary>  (29) 
energy

$$$$
29:0
     RDKit          3D

 50 53  0  0  0  0  0  0  0  0999 V2000
   -8.4300   18.4550  -31.6030 C   0  0  0  0  0  0  0  0  0  0  0  0
   -7.8860   19.1960  -32.7510 N   0  0  0  0  0  0  0  0  0  0  0  0
   -6.7700   18.4420  -33.3660 C   0  0  0  0  0  0  0  0  0  0  0  0
   -5.8730   19.3580  -34.2090 C   0  0  0  0  0  0  0  0  0  0  0  0
   -5.2760   20.4550  -33.4100 N   0  0  0  0  0  0  0  0  0  0  0  0
   -3.5940   20.1440  -33.0440 S   0  0  0  0  0  0  0  0  0  0  0  0
   -3.4190   18.6900  -32.7080 O   0  0  0  0  0  0  0  0  0  0  0  0
   -2.7540   20.4460  -34.2540 O   0  0  0  0  0  0  0  0  0  0  0  0
   -3.0340   21.1260  -31.6870 C   0  0  0  0  0  0  0  0  0  0  0  0
   -2.0620   20.6280  -30.8090 C   0  0  0  0  0  0  0  0  0  0  0  0
   -1.6400   21.3930  -29.7180 C   0  0  0  0  0  0  0  0  0  0  0  0
   -2.1800   22.6680  -29.4920 C   0  0  0  0  0  0  0  0  0  0  0  0
   -1.7520   23.4520  -28.3630 N   0  0  0  0  0  0  0  0  0  0  0  0
   -1.6800   24.8010  -28.2890 C   0  0  0  0  0  0  0  0  0  0  0  0
   -1.9790   25.6630  -29.3390 O   0  0  0  0  0  0  0  0  0  0  0  0
   -1.2370   25.1940  -27.0430 C   0  0  0  0  0  0  0  0  0  0  0  0
   -0.9900   24.0400  -26.3340 C   0  0  0  0  0  0  0  0  0  0  0  0
   -1.3380   22.9910  -27.1610 C   0  0  0  0  0  0  0  0  0  0  0  0
   -1.3000   21.6470  -26.8030 O   0  0  0  0  0  0  0  0  0  0  0  0
   -0.5560   24.0150  -24.9010 C   0  0  0  0  0  0  0  0  0  0  0  0
    0.0570   25.3740  -24.5040 C   0  0  0  0  0  0  0  0  0  0  0  0
   -0.8030   26.5580  -24.9990 C   0  0  0  0  0  0  0  0  0  0  0  0
   -0.9300   26.5700  -26.5360 C   0  0  0  0  0  0  0  0  0  0  0  0
   -3.1470   23.1680  -30.3810 C   0  0  0  0  0  0  0  0  0  0  0  0
   -3.5680   22.4030  -31.4720 C   0  0  0  0  0  0  0  0  0  0  0  0
   -6.0210   20.7690  -32.1740 C   0  0  0  0  0  0  0  0  0  0  0  0
   -7.5310   20.5880  -32.3770 C   0  0  0  0  0  0  0  0  0  0  0  0
   -8.0866   18.9228  -30.6686 H   0  0  0  0  0  0  0  0  0  0  0  0
   -9.5292   18.4755  -31.6409 H   0  0  0  0  0  0  0  0  0  0  0  0
   -8.0812   17.4125  -31.6409 H   0  0  0  0  0  0  0  0  0  0  0  0
   -6.1656   17.9839  -32.5692 H   0  0  0  0  0  0  0  0  0  0  0  0
   -7.1950   17.6712  -34.0257 H   0  0  0  0  0  0  0  0  0  0  0  0
   -5.0617   18.7555  -34.6435 H   0  0  0  0  0  0  0  0  0  0  0  0
   -6.4990   19.8141  -34.9901 H   0  0  0  0  0  0  0  0  0  0  0  0
   -1.6294   19.6310  -30.9791 H   0  0  0  0  0  0  0  0  0  0  0  0
   -0.8792   20.9926  -29.0318 H   0  0  0  0  0  0  0  0  0  0  0  0
   -1.4270   23.8090  -24.2615 H   0  0  0  0  0  0  0  0  0  0  0  0
    0.2018   23.2285  -24.7701 H   0  0  0  0  0  0  0  0  0  0  0  0
    0.1336   25.4234  -23.4078 H   0  0  0  0  0  0  0  0  0  0  0  0
    1.0487   25.4520  -24.9736 H   0  0  0  0  0  0  0  0  0  0  0  0
   -1.8080   26.4765  -24.5593 H   0  0  0  0  0  0  0  0  0  0  0  0
   -0.3105   27.4915  -24.6892 H   0  0  0  0  0  0  0  0  0  0  0  0
   -1.7409   27.2536  -26.8278 H   0  0  0  0  0  0  0  0  0  0  0  0
    0.0222   26.9075  -26.9711 H   0  0  0  0  0  0  0  0  0  0  0  0
   -3.5751   24.1679  -30.2169 H   0  0  0  0  0  0  0  0  0  0  0  0
   -4.3218   22.8053  -32.1648 H   0  0  0  0  0  0  0  0  0  0  0  0
   -5.6836   20.0973  -31.3709 H   0  0  0  0  0  0  0  0  0  0  0  0
   -5.8281   21.8186  -31.9074 H   0  0  0  0  0  0  0  0  0  0  0  0
   -8.0472   20.8453  -31.4404 H   0  0  0  0  0  0  0  0  0  0  0  0
   -7.8414   21.2475  -33.2009 H   0  0  0  0  0  0  0  0  0  0  0  0
  1  2  1  0
  2  3  1  0
  3  4  1  0
  4  5  1  0
  5  6  1  0
  6  7  2  0
  6  8  2  0
  6  9  1  0
  9 10  2  0
 10 11  1  0
 11 12  2  0
 12 13  1  0
 13 14  1  0
 14 15  1  0
 14 16  2  0
 16 17  1  0
 17 18  2  0
 18 19  1  0
 17 20  1  0
 20 21  1  0
 21 22  1  0
 22 23  1  0
 12 24  1  0
 24 25  2  0
  5 26  1  0
 26 27  1  0
 27  2  1  0
 25  9  1  0
 18 13  1  0
 23 16  1  0
  1 28  1  0
  1 29  1  0
  1 30  1  0
  3 31  1  0
  3 32  1  0
  4 33  1  0
  4 34  1  0
 10 35  1  0
 11 36  1  0
 20 37  1  0
 20 38  1  0
 21 39  1  0
 21 40  1  0
 22 41  1  0
 22 42  1  0
 23 43  1  0
 23 44  1  0
 24 45  1  0
 25 46  1  0
 26 47  1  0
 26 48  1  0
 27 49  1  0
 27 50  1  0
M  CHG  2  15  -1  19  -1
M  END
>  <UniqueID>  (30) 
30

>  <SMILES>  (30) 
CN1CCN(S(=O)(=O)c2ccc(-n3c([O-])c4c(c3[O-])CCCC4)cc2)CC1

>  <Energy>  (30) 
95.48353821495553

>  <Genealogy>  (30) 
CN1CCN(S(=O)(=O)c2ccc(-n3c([O-])c4c(c3[O-])CCCC4)cc2)CC1 (protonated)
CN1CCN(S(=O)(=O)c2ccc(-n3c([O-])c4c(c3[O-])CCCC4)cc2)CC1 (3D coordinates assigned)
CN1CCN(S(=O)(=O)c2ccc(-n3c([O-])c4c(c3[O-])CCCC4)cc2)CC1 (nonaromatic ring conformer: 95.48353821495553 kcal/mol)

>  <smiles>  (30) 
CN1CCN(S(=O)(=O)c2ccc(-n3c(O)c4c(c3O)CCCC4)cc2)CC1

>  <score_type>  (30) 
oracle

>  <origin>  (30) 
adgpu

>  <m_score__min__energy>  (30) 
-11.32

>  <m_primary>  (30) 
energy

$$$$
30:0
     RDKit          3D

 52 55  0  0  0  0  0  0  0  0999 V2000
   -5.7680   18.6800  -31.5770 O   0  0  0  0  0  0  0  0  0  0  0  0
   -5.8700   19.7150  -32.2870 C   0  0  0  0  0  0  0  0  0  0  0  0
   -5.3630   19.6730  -33.7040 C   0  0  0  0  0  0  0  0  0  0  0  0
   -4.2090   20.5020  -33.8360 O   0  0  0  0  0  0  0  0  0  0  0  0
   -2.9650   20.2640  -33.2270 C   0  0  0  0  0  0  0  0  0  0  0  0
   -2.5890   19.0000  -32.7280 C   0  0  0  0  0  0  0  0  0  0  0  0
   -1.3430   18.8240  -32.1190 C   0  0  0  0  0  0  0  0  0  0  0  0
   -0.4580   19.9010  -32.0090 C   0  0  0  0  0  0  0  0  0  0  0  0
    1.1040   19.6790  -31.2440 Cl  0  0  0  0  0  0  0  0  0  0  0  0
   -0.8190   21.1540  -32.5130 C   0  0  0  0  0  0  0  0  0  0  0  0
   -2.0660   21.3320  -33.1210 C   0  0  0  0  0  0  0  0  0  0  0  0
   -6.5650   20.8660  -31.7700 N   0  0  0  0  0  0  0  0  0  0  0  0
   -8.0380   20.8110  -31.7790 C   0  0  0  0  0  0  0  0  0  0  0  0
   -8.6790   22.0430  -31.1310 C   0  0  0  0  0  0  0  0  0  0  0  0
   -8.0370   23.3240  -31.6610 C   0  0  0  0  0  0  0  0  0  0  0  0
   -6.5630   23.3070  -31.3760 C   0  0  0  0  0  0  0  0  0  0  0  0
   -5.8840   24.4950  -31.0770 C   0  0  0  0  0  0  0  0  0  0  0  0
   -4.5160   24.4770  -30.7930 C   0  0  0  0  0  0  0  0  0  0  0  0
   -3.8710   25.6730  -30.4990 O   0  0  0  0  0  0  0  0  0  0  0  0
   -3.8040   23.2640  -30.8050 C   0  0  0  0  0  0  0  0  0  0  0  0
   -2.3970   23.2570  -30.4970 N   0  0  0  0  0  0  0  0  0  0  0  0
   -1.7660   23.3400  -28.8820 S   0  0  0  0  0  0  0  0  0  0  0  0
   -0.4430   24.0550  -28.9100 O   0  0  0  0  0  0  0  0  0  0  0  0
   -2.7180   24.1160  -28.0160 O   0  0  0  0  0  0  0  0  0  0  0  0
   -1.5820   21.7190  -28.2220 C   0  0  0  0  0  0  0  0  0  0  0  0
   -2.6790   21.0790  -27.6300 C   0  0  0  0  0  0  0  0  0  0  0  0
   -2.5460   19.7810  -27.1260 C   0  0  0  0  0  0  0  0  0  0  0  0
   -1.3180   19.1190  -27.2100 C   0  0  0  0  0  0  0  0  0  0  0  0
   -1.1900   17.8610  -26.7220 F   0  0  0  0  0  0  0  0  0  0  0  0
   -0.2190   19.7560  -27.7970 C   0  0  0  0  0  0  0  0  0  0  0  0
   -0.3500   21.0530  -28.3020 C   0  0  0  0  0  0  0  0  0  0  0  0
   -4.4910   22.0750  -31.1080 C   0  0  0  0  0  0  0  0  0  0  0  0
   -5.8600   22.0890  -31.4330 C   0  0  0  0  0  0  0  0  0  0  0  0
   -5.0992   18.6376  -33.9656 H   0  0  0  0  0  0  0  0  0  0  0  0
   -6.1498   20.0405  -34.3792 H   0  0  0  0  0  0  0  0  0  0  0  0
   -3.2793   18.1484  -32.8183 H   0  0  0  0  0  0  0  0  0  0  0  0
   -1.0584   17.8369  -31.7258 H   0  0  0  0  0  0  0  0  0  0  0  0
   -0.1217   22.0008  -32.4313 H   0  0  0  0  0  0  0  0  0  0  0  0
   -2.3427   22.3194  -33.5192 H   0  0  0  0  0  0  0  0  0  0  0  0
   -8.3814   20.7429  -32.8218 H   0  0  0  0  0  0  0  0  0  0  0  0
   -8.3416   19.9310  -31.1929 H   0  0  0  0  0  0  0  0  0  0  0  0
   -9.7543   22.0550  -31.3623 H   0  0  0  0  0  0  0  0  0  0  0  0
   -8.5246   21.9925  -30.0431 H   0  0  0  0  0  0  0  0  0  0  0  0
   -8.1986   23.3917  -32.7469 H   0  0  0  0  0  0  0  0  0  0  0  0
   -8.4939   24.1927  -31.1645 H   0  0  0  0  0  0  0  0  0  0  0  0
   -6.4316   25.4490  -31.0657 H   0  0  0  0  0  0  0  0  0  0  0  0
   -1.7030   23.1070  -31.2630 H   0  0  0  0  0  0  0  0  0  0  0  0
   -3.6463   21.5982  -27.5615 H   0  0  0  0  0  0  0  0  0  0  0  0
   -3.4092   19.2805  -26.6629 H   0  0  0  0  0  0  0  0  0  0  0  0
    0.7482   19.2361  -27.8611 H   0  0  0  0  0  0  0  0  0  0  0  0
    0.5149   21.5524  -28.7631 H   0  0  0  0  0  0  0  0  0  0  0  0
   -3.9491   21.1179  -31.0907 H   0  0  0  0  0  0  0  0  0  0  0  0
  1  2  2  0
  2  3  1  0
  3  4  1  0
  4  5  1  0
  5  6  2  0
  6  7  1  0
  7  8  2  0
  8  9  1  0
  8 10  1  0
 10 11  2  0
  2 12  1  0
 12 13  1  0
 13 14  1  0
 14 15  1  0
 15 16  1  0
 16 17  2  0
 17 18  1  0
 18 19  1  0
 18 20  2  0
 20 21  1  0
 21 22  1  0
 22 23  2  0
 22 24  2  0
 22 25  1  0
 25 26  2  0
 26 27  1  0
 27 28  2  0
 28 29  1  0
 28 30  1  0
 30 31  2  0
 20 32  1  0
 32 33  2  0
 11  5  1  0
 33 12  1  0
 33 16  1  0
 31 25  1  0
  3 34  1  0
  3 35  1  0
  6 36  1  0
  7 37  1  0
 10 38  1  0
 11 39  1  0
 13 40  1  0
 13 41  1  0
 14 42  1  0
 14 43  1  0
 15 44  1  0
 15 45  1  0
 17 46  1  0
 21 47  1  0
 26 48  1  0
 27 49  1  0
 30 50  1  0
 31 51  1  0
 32 52  1  0
M  CHG  1  19  -1
M  END
>  <UniqueID>  (31) 
31

>  <SMILES>  (31) 
O=C(COc1ccc(Cl)cc1)N1CCCc2cc([O-])c(NS(=O)(=O)c3ccc(F)cc3)cc21

>  <Energy>  (31) 
63.14229868771718

>  <Genealogy>  (31) 
O=C(COc1ccc(Cl)cc1)N1CCCc2cc([O-])c(NS(=O)(=O)c3ccc(F)cc3)cc21 (protonated)
O=C(COc1ccc(Cl)cc1)N1CCCc2cc([O-])c(NS(=O)(=O)c3ccc(F)cc3)cc21 (3D coordinates assigned)
O=C(COc1ccc(Cl)cc1)N1CCCc2cc([O-])c(NS(=O)(=O)c3ccc(F)cc3)cc21 (nonaromatic ring conformer: 63.14229868771718 kcal/mol)

>  <smiles>  (31) 
O=C(COc1ccc(Cl)cc1)N1CCCc2cc(O)c(NS(=O)(=O)c3ccc(F)cc3)cc21

>  <score_type>  (31) 
oracle

>  <origin>  (31) 
adgpu

>  <m_score__min__energy>  (31) 
-12.4

>  <m_primary>  (31) 
energy

$$$$
31:0
     RDKit          3D

 48 50  0  0  0  0  0  0  0  0999 V2000
   -5.7240   26.1330  -31.1970 O   0  0  0  0  0  0  0  0  0  0  0  0
   -5.2770   24.9890  -30.3290 S   0  0  0  0  0  0  0  0  0  0  0  0
   -5.6210   25.3100  -28.9020 O   0  0  0  0  0  0  0  0  0  0  0  0
   -3.5560   24.7790  -30.4670 N   0  0  0  0  0  0  0  0  0  0  0  0
   -3.0630   23.7860  -29.5080 C   0  0  0  0  0  0  0  0  0  0  0  0
   -1.8810   23.0140  -30.0990 C   0  0  0  0  0  0  0  0  0  0  0  0
   -2.3700   21.9170  -31.0050 C   0  0  0  0  0  0  0  0  0  0  0  0
   -3.4990   21.1590  -30.6510 C   0  0  0  0  0  0  0  0  0  0  0  0
   -3.9320   20.1140  -31.4740 C   0  0  0  0  0  0  0  0  0  0  0  0
   -3.2370   19.8130  -32.6480 C   0  0  0  0  0  0  0  0  0  0  0  0
   -2.1040   20.5540  -33.0000 C   0  0  0  0  0  0  0  0  0  0  0  0
   -1.6680   21.5990  -32.1800 C   0  0  0  0  0  0  0  0  0  0  0  0
   -6.1070   23.5060  -30.7960 C   0  0  0  0  0  0  0  0  0  0  0  0
   -7.0220   22.8940  -29.9270 C   0  0  0  0  0  0  0  0  0  0  0  0
   -7.7020   21.7400  -30.3230 C   0  0  0  0  0  0  0  0  0  0  0  0
   -7.4780   21.1890  -31.5920 C   0  0  0  0  0  0  0  0  0  0  0  0
   -8.3580   19.7460  -32.1050 S   0  0  0  0  0  0  0  0  0  0  0  0
   -9.0250   19.1270  -30.9080 O   0  0  0  0  0  0  0  0  0  0  0  0
   -9.4290   20.1410  -33.0820 O   0  0  0  0  0  0  0  0  0  0  0  0
   -7.3000   18.5710  -32.8470 N   0  0  0  0  0  0  0  0  0  0  0  0
   -6.4360   17.9440  -31.8380 C   0  0  0  0  0  0  0  0  0  0  0  0
   -5.5260   16.8910  -32.5060 C   0  0  0  0  0  0  0  0  0  0  0  0
   -5.6190   16.9210  -33.9210 O   0  0  0  0  0  0  0  0  0  0  0  0
   -5.3870   18.2340  -34.3890 C   0  0  0  0  0  0  0  0  0  0  0  0
   -6.4820   19.2030  -33.8960 C   0  0  0  0  0  0  0  0  0  0  0  0
   -6.5590   21.7980  -32.4580 C   0  0  0  0  0  0  0  0  0  0  0  0
   -5.8790   22.9530  -32.0620 C   0  0  0  0  0  0  0  0  0  0  0  0
   -2.7387   24.2984  -28.5902 H   0  0  0  0  0  0  0  0  0  0  0  0
   -3.8731   23.0778  -29.2796 H   0  0  0  0  0  0  0  0  0  0  0  0
   -1.2488   23.7052  -30.6757 H   0  0  0  0  0  0  0  0  0  0  0  0
   -1.3015   22.5664  -29.2781 H   0  0  0  0  0  0  0  0  0  0  0  0
   -4.0442   21.3881  -29.7235 H   0  0  0  0  0  0  0  0  0  0  0  0
   -4.8209   19.5285  -31.1965 H   0  0  0  0  0  0  0  0  0  0  0  0
   -3.5809   18.9931  -33.2957 H   0  0  0  0  0  0  0  0  0  0  0  0
   -1.5555   20.3143  -33.9229 H   0  0  0  0  0  0  0  0  0  0  0  0
   -0.7720   22.1745  -32.4557 H   0  0  0  0  0  0  0  0  0  0  0  0
   -7.2046   23.3239  -28.9311 H   0  0  0  0  0  0  0  0  0  0  0  0
   -8.4160   21.2619  -29.6363 H   0  0  0  0  0  0  0  0  0  0  0  0
   -5.8127   18.7151  -31.3617 H   0  0  0  0  0  0  0  0  0  0  0  0
   -7.0630   17.4519  -31.0799 H   0  0  0  0  0  0  0  0  0  0  0  0
   -4.4836   17.0886  -32.2155 H   0  0  0  0  0  0  0  0  0  0  0  0
   -5.8552   15.8975  -32.1675 H   0  0  0  0  0  0  0  0  0  0  0  0
   -4.4098   18.5791  -34.0202 H   0  0  0  0  0  0  0  0  0  0  0  0
   -5.4032   18.2201  -35.4888 H   0  0  0  0  0  0  0  0  0  0  0  0
   -6.0072   20.1076  -33.4882 H   0  0  0  0  0  0  0  0  0  0  0  0
   -7.1325   19.4637  -34.7439 H   0  0  0  0  0  0  0  0  0  0  0  0
   -6.3726   21.3655  -33.4521 H   0  0  0  0  0  0  0  0  0  0  0  0
   -5.1623   23.4292  -32.7472 H   0  0  0  0  0  0  0  0  0  0  0  0
  1  2  2  0
  2  3  2  0
  2  4  1  0
  4  5  1  0
  5  6  1  0
  6  7  1  0
  7  8  2  0
  8  9  1  0
  9 10  2  0
 10 11  1  0
 11 12  2  0
  2 13  1  0
 13 14  2  0
 14 15  1  0
 15 16  2  0
 16 17  1  0
 17 18  2  0
 17 19  2  0
 17 20  1  0
 20 21  1  0
 21 22  1  0
 22 23  1  0
 23 24  1  0
 24 25  1  0
 16 26  1  0
 26 27  2  0
 12  7  1  0
 27 13  1  0
 25 20  1  0
  5 28  1  0
  5 29  1  0
  6 30  1  0
  6 31  1  0
  8 32  1  0
  9 33  1  0
 10 34  1  0
 11 35  1  0
 12 36  1  0
 14 37  1  0
 15 38  1  0
 21 39  1  0
 21 40  1  0
 22 41  1  0
 22 42  1  0
 24 43  1  0
 24 44  1  0
 25 45  1  0
 25 46  1  0
 26 47  1  0
 27 48  1  0
M  CHG  1   4  -1
M  END
>  <UniqueID>  (32) 
32

>  <SMILES>  (32) 
O=S(=O)([N-]CCc1ccccc1)c1ccc(S(=O)(=O)N2CCOCC2)cc1

>  <Energy>  (32) 
53.04082352863718

>  <Genealogy>  (32) 
O=S(=O)([N-]CCc1ccccc1)c1ccc(S(=O)(=O)N2CCOCC2)cc1 (protonated)
O=S(=O)([N-]CCc1ccccc1)c1ccc(S(=O)(=O)N2CCOCC2)cc1 (3D coordinates assigned)
O=S(=O)([N-]CCc1ccccc1)c1ccc(S(=O)(=O)N2CCOCC2)cc1 (nonaromatic ring conformer: 53.04082352863718 kcal/mol)

>  <smiles>  (32) 
O=S(=O)(NCCc1ccccc1)c1ccc(S(=O)(=O)N2CCOCC2)cc1

>  <score_type>  (32) 
oracle

>  <origin>  (32) 
adgpu

>  <m_score__min__energy>  (32) 
-10.99

>  <m_primary>  (32) 
energy

$$$$
32:0
     RDKit          3D

 48 50  0  0  0  0  0  0  0  0999 V2000
   -9.1210   20.1710  -32.3980 C   0  0  0  0  0  0  0  0  0  0  0  0
   -8.1140   21.2390  -32.0900 C   0  0  0  0  0  0  0  0  0  0  0  0
   -6.8030   21.1340  -32.5750 C   0  0  0  0  0  0  0  0  0  0  0  0
   -5.8710   22.1450  -32.3150 C   0  0  0  0  0  0  0  0  0  0  0  0
   -6.2450   23.2870  -31.5950 C   0  0  0  0  0  0  0  0  0  0  0  0
   -5.2520   24.2910  -31.3340 N   0  0  0  0  0  0  0  0  0  0  0  0
   -3.9300   24.0740  -30.8300 C   0  0  0  0  0  0  0  0  0  0  0  0
   -3.2540   23.0820  -31.2160 O   0  0  0  0  0  0  0  0  0  0  0  0
   -3.4320   24.9380  -29.8040 N   0  0  0  0  0  0  0  0  0  0  0  0
   -2.6200   24.5540  -28.6830 C   0  0  0  0  0  0  0  0  0  0  0  0
   -2.8890   23.3960  -27.9450 C   0  0  0  0  0  0  0  0  0  0  0  0
   -2.0760   23.0410  -26.8710 C   0  0  0  0  0  0  0  0  0  0  0  0
   -0.9570   23.8150  -26.5250 C   0  0  0  0  0  0  0  0  0  0  0  0
   -0.1590   23.3950  -25.3180 C   0  0  0  0  0  0  0  0  0  0  0  0
   -0.6500   24.9780  -27.2860 C   0  0  0  0  0  0  0  0  0  0  0  0
    0.7670   26.0120  -26.9370 S   0  0  0  0  0  0  0  0  0  0  0  0
    1.2190   25.7570  -25.5270 O   0  0  0  0  0  0  0  0  0  0  0  0
    1.9210   25.6630  -27.8340 O   0  0  0  0  0  0  0  0  0  0  0  0
    0.4070   27.7140  -27.1160 N   0  0  0  0  0  0  0  0  0  0  0  0
   -0.6670   28.1250  -26.1980 C   0  0  0  0  0  0  0  0  0  0  0  0
   -0.8520   29.6560  -26.2290 C   0  0  0  0  0  0  0  0  0  0  0  0
   -0.1210   30.2390  -27.2900 O   0  0  0  0  0  0  0  0  0  0  0  0
    1.2660   30.0270  -27.0930 C   0  0  0  0  0  0  0  0  0  0  0  0
    1.6040   28.5350  -26.8860 C   0  0  0  0  0  0  0  0  0  0  0  0
   -1.4980   25.3310  -28.3620 C   0  0  0  0  0  0  0  0  0  0  0  0
   -1.2380   26.4670  -29.1230 O   0  0  0  0  0  0  0  0  0  0  0  0
   -7.5600   23.3900  -31.1040 C   0  0  0  0  0  0  0  0  0  0  0  0
   -8.4900   22.3780  -31.3620 C   0  0  0  0  0  0  0  0  0  0  0  0
   -9.5133   19.7550  -31.4583 H   0  0  0  0  0  0  0  0  0  0  0  0
   -9.9476   20.6035  -32.9808 H   0  0  0  0  0  0  0  0  0  0  0  0
   -8.6407   19.3712  -32.9808 H   0  0  0  0  0  0  0  0  0  0  0  0
   -6.5055   20.2530  -33.1626 H   0  0  0  0  0  0  0  0  0  0  0  0
   -4.8379   22.0423  -32.6784 H   0  0  0  0  0  0  0  0  0  0  0  0
   -3.7471   22.7626  -28.2144 H   0  0  0  0  0  0  0  0  0  0  0  0
   -2.3143   22.1409  -26.2853 H   0  0  0  0  0  0  0  0  0  0  0  0
   -0.7000   23.6797  -24.4035 H   0  0  0  0  0  0  0  0  0  0  0  0
   -0.0155   22.3045  -25.3346 H   0  0  0  0  0  0  0  0  0  0  0  0
    0.8211   23.8941  -25.3346 H   0  0  0  0  0  0  0  0  0  0  0  0
   -1.6070   27.6411  -26.5018 H   0  0  0  0  0  0  0  0  0  0  0  0
   -0.3954   27.8214  -25.1762 H   0  0  0  0  0  0  0  0  0  0  0  0
   -1.9197   29.8856  -26.3604 H   0  0  0  0  0  0  0  0  0  0  0  0
   -0.4794   30.0707  -25.2807 H   0  0  0  0  0  0  0  0  0  0  0  0
    1.8095   30.3942  -27.9761 H   0  0  0  0  0  0  0  0  0  0  0  0
    1.5651   30.5703  -26.1845 H   0  0  0  0  0  0  0  0  0  0  0  0
    2.3916   28.2379  -27.5941 H   0  0  0  0  0  0  0  0  0  0  0  0
    1.9545   28.3830  -25.8545 H   0  0  0  0  0  0  0  0  0  0  0  0
   -7.8574   24.2701  -30.5149 H   0  0  0  0  0  0  0  0  0  0  0  0
   -9.5214   22.4754  -30.9924 H   0  0  0  0  0  0  0  0  0  0  0  0
  1  2  1  0
  2  3  2  0
  3  4  1  0
  4  5  2  0
  5  6  1  0
  6  7  1  0
  7  8  2  0
  7  9  1  0
  9 10  1  0
 10 11  2  0
 11 12  1  0
 12 13  2  0
 13 14  1  0
 13 15  1  0
 15 16  1  0
 16 17  2  0
 16 18  2  0
 16 19  1  0
 19 20  1  0
 20 21  1  0
 21 22  1  0
 22 23  1  0
 23 24  1  0
 15 25  2  0
 25 26  1  0
  5 27  1  0
 27 28  2  0
 28  2  1  0
 25 10  1  0
 24 19  1  0
  1 29  1  0
  1 30  1  0
  1 31  1  0
  3 32  1  0
  4 33  1  0
 11 34  1  0
 12 35  1  0
 14 36  1  0
 14 37  1  0
 14 38  1  0
 20 39  1  0
 20 40  1  0
 21 41  1  0
 21 42  1  0
 23 43  1  0
 23 44  1  0
 24 45  1  0
 24 46  1  0
 27 47  1  0
 28 48  1  0
M  CHG  3   6  -1   9  -1  26  -1
M  END
>  <UniqueID>  (33) 
33

>  <SMILES>  (33) 
Cc1ccc([N-]C(=O)[N-]c2ccc(C)c(S(=O)(=O)N3CCOCC3)c2[O-])cc1

>  <Energy>  (33) 
67.69524460301693

>  <Genealogy>  (33) 
Cc1ccc([N-]C(=O)[N-]c2ccc(C)c(S(=O)(=O)N3CCOCC3)c2[O-])cc1 (protonated)
Cc1ccc([N-]C(=O)[N-]c2ccc(C)c(S(=O)(=O)N3CCOCC3)c2[O-])cc1 (3D coordinates assigned)
Cc1ccc([N-]C(=O)[N-]c2ccc(C)c(S(=O)(=O)N3CCOCC3)c2[O-])cc1 (nonaromatic ring conformer: 67.69524460301693 kcal/mol)

>  <smiles>  (33) 
Cc1ccc(NC(=O)Nc2ccc(C)c(S(=O)(=O)N3CCOCC3)c2O)cc1

>  <score_type>  (33) 
oracle

>  <origin>  (33) 
adgpu

>  <m_score__min__energy>  (33) 
-15.050000000000001

>  <m_primary>  (33) 
energy

$$$$
33:0
     RDKit          3D

 42 45  0  0  0  0  0  0  0  0999 V2000
   -4.5960   15.0590  -32.0180 C   0  0  0  0  0  0  0  0  0  0  0  0
   -5.2070   14.5180  -33.3090 C   0  0  0  0  0  0  0  0  0  0  0  0
   -6.2970   15.4190  -33.8190 C   0  0  0  0  0  0  0  0  0  0  0  0
   -7.3810   14.9040  -34.2050 O   0  0  0  0  0  0  0  0  0  0  0  0
   -6.0900   16.8300  -34.0010 N   0  0  0  0  0  0  0  0  0  0  0  0
   -5.0290   17.3750  -34.8510 C   0  0  0  0  0  0  0  0  0  0  0  0
   -5.0040   18.8980  -34.5870 C   0  0  0  0  0  0  0  0  0  0  0  0
   -6.1490   19.1040  -33.6580 C   0  0  0  0  0  0  0  0  0  0  0  0
   -6.6420   20.3140  -33.1700 C   0  0  0  0  0  0  0  0  0  0  0  0
   -7.7890   20.2960  -32.3590 C   0  0  0  0  0  0  0  0  0  0  0  0
   -8.4380   21.8000  -31.7170 S   0  0  0  0  0  0  0  0  0  0  0  0
   -9.8450   22.0160  -32.2000 O   0  0  0  0  0  0  0  0  0  0  0  0
   -8.4370   21.7290  -30.2160 O   0  0  0  0  0  0  0  0  0  0  0  0
   -7.4540   23.1370  -32.2190 N   0  0  0  0  0  0  0  0  0  0  0  0
   -6.2980   23.6160  -31.5190 C   0  0  0  0  0  0  0  0  0  0  0  0
   -6.3890   24.8480  -30.8260 C   0  0  0  0  0  0  0  0  0  0  0  0
   -5.2920   25.3580  -30.1080 C   0  0  0  0  0  0  0  0  0  0  0  0
   -4.1200   24.6120  -30.1090 C   0  0  0  0  0  0  0  0  0  0  0  0
   -2.9620   24.8920  -29.4870 N   0  0  0  0  0  0  0  0  0  0  0  0
   -2.1240   23.8940  -29.7530 N   0  0  0  0  0  0  0  0  0  0  0  0
   -2.7440   22.9840  -30.5400 C   0  0  0  0  0  0  0  0  0  0  0  0
   -4.0220   23.4280  -30.7750 C   0  0  0  0  0  0  0  0  0  0  0  0
   -5.0810   22.8890  -31.4960 C   0  0  0  0  0  0  0  0  0  0  0  0
   -8.4300   19.0710  -32.0800 C   0  0  0  0  0  0  0  0  0  0  0  0
   -7.9150   17.8680  -32.5850 C   0  0  0  0  0  0  0  0  0  0  0  0
   -6.7450   17.9100  -33.3500 C   0  0  0  0  0  0  0  0  0  0  0  0
   -5.1056   14.6077  -31.1539 H   0  0  0  0  0  0  0  0  0  0  0  0
   -3.5258   14.8070  -31.9851 H   0  0  0  0  0  0  0  0  0  0  0  0
   -4.7165   16.1519  -31.9851 H   0  0  0  0  0  0  0  0  0  0  0  0
   -4.4194   14.4410  -34.0730 H   0  0  0  0  0  0  0  0  0  0  0  0
   -5.6439   13.5307  -33.0983 H   0  0  0  0  0  0  0  0  0  0  0  0
   -4.0602   16.9262  -34.5864 H   0  0  0  0  0  0  0  0  0  0  0  0
   -5.2137   17.1554  -35.9129 H   0  0  0  0  0  0  0  0  0  0  0  0
   -4.0564   19.2010  -34.1176 H   0  0  0  0  0  0  0  0  0  0  0  0
   -5.0837   19.4955  -35.5071 H   0  0  0  0  0  0  0  0  0  0  0  0
   -6.1429   21.2631  -33.4151 H   0  0  0  0  0  0  0  0  0  0  0  0
   -7.3316   25.4145  -30.8496 H   0  0  0  0  0  0  0  0  0  0  0  0
   -5.3597   26.3126  -29.5656 H   0  0  0  0  0  0  0  0  0  0  0  0
   -2.3020   22.0527  -30.9238 H   0  0  0  0  0  0  0  0  0  0  0  0
   -4.9786   21.9326  -32.0297 H   0  0  0  0  0  0  0  0  0  0  0  0
   -9.3400   19.0590  -31.4622 H   0  0  0  0  0  0  0  0  0  0  0  0
   -8.4205   16.9120  -32.3836 H   0  0  0  0  0  0  0  0  0  0  0  0
  1  2  1  0
  2  3  1  0
  3  4  2  0
  3  5  1  0
  5  6  1  0
  6  7  1  0
  7  8  1  0
  8  9  2  0
  9 10  1  0
 10 11  1  0
 11 12  2  0
 11 13  2  0
 11 14  1  0
 14 15  1  0
 15 16  2  0
 16 17  1  0
 17 18  2  0
 18 19  1  0
 19 20  1  0
 20 21  2  0
 21 22  1  0
 22 23  2  0
 10 24  2  0
 24 25  1  0
 25 26  2  0
 26  5  1  0
 26  8  1  0
 23 15  1  0
 22 18  1  0
  1 27  1  0
  1 28  1  0
  1 29  1  0
  2 30  1  0
  2 31  1  0
  6 32  1  0
  6 33  1  0
  7 34  1  0
  7 35  1  0
  9 36  1  0
 16 37  1  0
 17 38  1  0
 21 39  1  0
 23 40  1  0
 24 41  1  0
 25 42  1  0
M  CHG  2  14  -1  19  -1
M  END
>  <UniqueID>  (34) 
34

>  <SMILES>  (34) 
CCC(=O)N1CCc2cc(S(=O)(=O)[N-]c3ccc4[n-]ncc4c3)ccc21

>  <Energy>  (34) 
101.67199596474072

>  <Genealogy>  (34) 
CCC(=O)N1CCc2cc(S(=O)(=O)[N-]c3ccc4[n-]ncc4c3)ccc21 (protonated)
CCC(=O)N1CCc2cc(S(=O)(=O)[N-]c3ccc4[n-]ncc4c3)ccc21 (3D coordinates assigned)
CCC(=O)N1CCc2cc(S(=O)(=O)[N-]c3ccc4[n-]ncc4c3)ccc21 (nonaromatic ring conformer: 101.67199596474072 kcal/mol)

>  <smiles>  (34) 
CCC(=O)N1CCc2cc(S(=O)(=O)Nc3ccc4[nH]ncc4c3)ccc21

>  <score_type>  (34) 
oracle

>  <origin>  (34) 
adgpu

>  <m_score__min__energy>  (34) 
-11.029999999999999

>  <m_primary>  (34) 
energy

$$$$
34:0
     RDKit          3D

 35 37  0  0  0  0  0  0  0  0999 V2000
   -4.3367   20.7531  -31.9834 H   0  0  0  0  0  0  0  0  0  0  0  0
   -4.7030   21.6850  -31.5280 C   0  0  0  0  0  0  0  0  0  0  0  0
   -3.9959   22.4892  -31.2765 H   0  0  0  0  0  0  0  0  0  0  0  0
   -6.0140   21.8410  -31.2790 C   0  0  0  0  0  0  0  0  0  0  0  0
   -6.6310   22.9640  -30.7060 C   0  0  0  0  0  0  0  0  0  0  0  0
   -6.1080   24.0250  -30.0610 C   0  0  0  0  0  0  0  0  0  0  0  0
   -6.7498   24.9107  -29.9448 H   0  0  0  0  0  0  0  0  0  0  0  0
   -4.7500   24.0980  -29.4990 C   0  0  0  0  0  0  0  0  0  0  0  0
   -4.2530   23.4300  -28.0310 S   0  0  0  0  0  0  0  0  0  0  0  0
   -2.7440   24.1670  -28.1020 C   0  0  0  0  0  0  0  0  0  0  0  0
   -1.5820   23.9990  -26.9690 S   0  0  0  0  0  0  0  0  0  0  0  0
   -2.6070   24.9480  -29.1950 N   0  0  0  0  0  0  0  0  0  0  0  0
   -3.7290   24.9220  -29.9620 C   0  0  0  0  0  0  0  0  0  0  0  0
   -3.8350   25.6750  -31.1250 O   0  0  0  0  0  0  0  0  0  0  0  0
   -7.9910   22.8080  -30.9130 C   0  0  0  0  0  0  0  0  0  0  0  0
   -8.7817   23.5231  -30.6421 H   0  0  0  0  0  0  0  0  0  0  0  0
   -8.1640   21.5840  -31.5240 C   0  0  0  0  0  0  0  0  0  0  0  0
   -9.4920   21.0070  -31.9120 C   0  0  0  0  0  0  0  0  0  0  0  0
  -10.0630   20.7589  -31.0052 H   0  0  0  0  0  0  0  0  0  0  0  0
  -10.0516   21.7431  -32.5078 H   0  0  0  0  0  0  0  0  0  0  0  0
   -9.3358   20.0956  -32.5078 H   0  0  0  0  0  0  0  0  0  0  0  0
   -6.9680   20.9900  -31.7390 N   0  0  0  0  0  0  0  0  0  0  0  0
   -6.7740   19.7160  -32.3810 C   0  0  0  0  0  0  0  0  0  0  0  0
   -7.0740   18.5670  -31.7120 N   0  0  0  0  0  0  0  0  0  0  0  0
   -6.8870   17.3410  -32.2680 C   0  0  0  0  0  0  0  0  0  0  0  0
   -7.1546   16.4361  -31.7028 H   0  0  0  0  0  0  0  0  0  0  0  0
   -6.3540   17.2260  -33.5600 C   0  0  0  0  0  0  0  0  0  0  0  0
   -6.1830   15.8800  -34.1970 C   0  0  0  0  0  0  0  0  0  0  0  0
   -6.0856   15.1135  -33.4140 H   0  0  0  0  0  0  0  0  0  0  0  0
   -7.0599   15.6562  -34.8222 H   0  0  0  0  0  0  0  0  0  0  0  0
   -5.2780   15.8825  -34.8222 H   0  0  0  0  0  0  0  0  0  0  0  0
   -6.0460   18.3950  -34.2680 C   0  0  0  0  0  0  0  0  0  0  0  0
   -5.6478   18.3290  -35.2913 H   0  0  0  0  0  0  0  0  0  0  0  0
   -6.2440   19.6430  -33.6760 C   0  0  0  0  0  0  0  0  0  0  0  0
   -5.9860   20.5625  -34.2218 H   0  0  0  0  0  0  0  0  0  0  0  0
  1  2  1  0
  2  3  1  0
  2  4  2  0
  4  5  1  0
  5  6  2  0
  6  7  1  0
  6  8  1  0
  8  9  1  0
  9 10  1  0
 10 11  2  0
 10 12  1  0
 12 13  1  0
 13 14  1  0
  5 15  1  0
 15 16  1  0
 15 17  2  0
 17 18  1  0
 18 19  1  0
 18 20  1  0
 18 21  1  0
 17 22  1  0
 22 23  1  0
 23 24  2  0
 24 25  1  0
 25 26  1  0
 25 27  2  0
 27 28  1  0
 28 29  1  0
 28 30  1  0
 28 31  1  0
 27 32  1  0
 32 33  1  0
 32 34  2  0
 34 35  1  0
 22  4  1  0
 34 23  1  0
 13  8  2  0
M  CHG  2  12  -1  14  -1
M  END
>  <UniqueID>  (35) 
35

>  <SMILES>  (35) 
C=c1/c(=C\c2sc(=S)[n-]c2[O-])cc(C)n1-c1ccc(C)cn1

>  <Energy>  (35) 
113.37243687301768

>  <Genealogy>  (35) 
C=c1c(=Cc2sc(=S)[n-]c2[O-])cc(C)n1-c1ccc(C)cn1 (protonated)
C=c1/c(=C\c2sc(=S)[n-]c2[O-])cc(C)n1-c1ccc(C)cn1 (cis-trans isomerization)
C=c1/c(=C\c2sc(=S)[n-]c2[O-])cc(C)n1-c1ccc(C)cn1 (3D coordinates assigned)
C=c1/c(=C\c2sc(=S)[n-]c2[O-])cc(C)n1-c1ccc(C)cn1 (optimized conformer: 113.37243687301768 kcal/mol)

>  <smiles>  (35) 
C=c1c(=Cc2sc(=S)[nH]c2O)cc(C)n1-c1ccc(C)cn1

>  <score_type>  (35) 
oracle

>  <origin>  (35) 
adgpu

>  <m_score__min__energy>  (35) 
-13.51

>  <m_primary>  (35) 
energy

$$$$
35:0
     RDKit          3D

 46 49  0  0  0  0  0  0  0  0999 V2000
   -7.0140   24.1720  -32.4440 O   0  0  0  0  0  0  0  0  0  0  0  0
   -6.4440   23.4590  -31.5780 C   0  0  0  0  0  0  0  0  0  0  0  0
   -7.0100   22.1850  -31.2440 N   0  0  0  0  0  0  0  0  0  0  0  0
   -6.6570   20.9480  -31.8770 C   0  0  0  0  0  0  0  0  0  0  0  0
   -7.6310   19.9560  -32.0350 C   0  0  0  0  0  0  0  0  0  0  0  0
   -7.3350   18.7880  -32.7460 C   0  0  0  0  0  0  0  0  0  0  0  0
   -6.0560   18.5950  -33.2860 C   0  0  0  0  0  0  0  0  0  0  0  0
   -5.7070   17.1680  -34.2680 S   0  0  0  0  0  0  0  0  0  0  0  0
   -5.0640   17.6010  -35.5550 O   0  0  0  0  0  0  0  0  0  0  0  0
   -7.0000   16.4760  -34.6030 O   0  0  0  0  0  0  0  0  0  0  0  0
   -4.6470   16.0390  -33.4560 N   0  0  0  0  0  0  0  0  0  0  0  0
   -5.0640   15.7850  -32.0770 C   0  0  0  0  0  0  0  0  0  0  0  0
   -4.5550   14.3950  -31.7170 C   0  0  0  0  0  0  0  0  0  0  0  0
   -4.2230   13.7280  -33.0430 C   0  0  0  0  0  0  0  0  0  0  0  0
   -4.6340   14.7310  -34.1070 C   0  0  0  0  0  0  0  0  0  0  0  0
   -5.0590   19.5540  -33.0590 C   0  0  0  0  0  0  0  0  0  0  0  0
   -5.3580   20.7260  -32.3610 C   0  0  0  0  0  0  0  0  0  0  0  0
   -5.1890   23.9380  -30.9650 C   0  0  0  0  0  0  0  0  0  0  0  0
   -4.3530   23.2230  -30.1290 C   0  0  0  0  0  0  0  0  0  0  0  0
   -3.3390   24.1110  -29.8260 C   0  0  0  0  0  0  0  0  0  0  0  0
   -2.1980   23.8800  -28.9080 C   0  0  0  0  0  0  0  0  0  0  0  0
   -2.1250   22.6650  -28.2020 C   0  0  0  0  0  0  0  0  0  0  0  0
   -1.0540   22.4040  -27.3440 C   0  0  0  0  0  0  0  0  0  0  0  0
   -0.0480   23.3550  -27.1710 C   0  0  0  0  0  0  0  0  0  0  0  0
   -0.1140   24.5730  -27.8500 C   0  0  0  0  0  0  0  0  0  0  0  0
   -1.1830   24.8440  -28.7120 C   0  0  0  0  0  0  0  0  0  0  0  0
   -1.2310   26.0810  -29.3440 O   0  0  0  0  0  0  0  0  0  0  0  0
   -3.5680   25.2810  -30.4560 N   0  0  0  0  0  0  0  0  0  0  0  0
   -4.6870   25.1730  -31.1560 N   0  0  0  0  0  0  0  0  0  0  0  0
   -8.6315   20.0947  -31.5993 H   0  0  0  0  0  0  0  0  0  0  0  0
   -8.1089   18.0182  -32.8818 H   0  0  0  0  0  0  0  0  0  0  0  0
   -4.6254   16.5360  -31.4035 H   0  0  0  0  0  0  0  0  0  0  0  0
   -6.1577   15.8453  -31.9760 H   0  0  0  0  0  0  0  0  0  0  0  0
   -3.6563   14.4660  -31.0867 H   0  0  0  0  0  0  0  0  0  0  0  0
   -5.3014   13.8219  -31.1474 H   0  0  0  0  0  0  0  0  0  0  0  0
   -3.1458   13.5154  -33.1088 H   0  0  0  0  0  0  0  0  0  0  0  0
   -4.7438   12.7664  -33.1613 H   0  0  0  0  0  0  0  0  0  0  0  0
   -3.9103   14.7253  -34.9354 H   0  0  0  0  0  0  0  0  0  0  0  0
   -5.6199   14.4848  -34.5283 H   0  0  0  0  0  0  0  0  0  0  0  0
   -4.0383   19.3829  -33.4317 H   0  0  0  0  0  0  0  0  0  0  0  0
   -4.5732   21.4776  -32.1899 H   0  0  0  0  0  0  0  0  0  0  0  0
   -4.4683   22.1849  -29.7839 H   0  0  0  0  0  0  0  0  0  0  0  0
   -2.9187   21.9137  -28.3269 H   0  0  0  0  0  0  0  0  0  0  0  0
   -1.0037   21.4471  -26.8039 H   0  0  0  0  0  0  0  0  0  0  0  0
    0.7975   23.1450  -26.4994 H   0  0  0  0  0  0  0  0  0  0  0  0
    0.6777   25.3232  -27.7069 H   0  0  0  0  0  0  0  0  0  0  0  0
  1  2  2  0
  2  3  1  0
  3  4  1  0
  4  5  2  0
  5  6  1  0
  6  7  2  0
  7  8  1  0
  8  9  2  0
  8 10  2  0
  8 11  1  0
 11 12  1  0
 12 13  1  0
 13 14  1  0
 14 15  1  0
  7 16  1  0
 16 17  2  0
  2 18  1  0
 18 19  1  0
 19 20  2  0
 20 21  1  0
 21 22  2  0
 22 23  1  0
 23 24  2  0
 24 25  1  0
 25 26  2  0
 26 27  1  0
 20 28  1  0
 28 29  1  0
 17  4  1  0
 29 18  2  0
 15 11  1  0
 26 21  1  0
  5 30  1  0
  6 31  1  0
 12 32  1  0
 12 33  1  0
 13 34  1  0
 13 35  1  0
 14 36  1  0
 14 37  1  0
 15 38  1  0
 15 39  1  0
 16 40  1  0
 17 41  1  0
 19 42  1  0
 22 43  1  0
 23 44  1  0
 24 45  1  0
 25 46  1  0
M  CHG  3   3  -1  27  -1  28  -1
M  END
>  <UniqueID>  (36) 
36

>  <SMILES>  (36) 
O=C([N-]c1ccc(S(=O)(=O)N2CCCC2)cc1)c1cc(-c2ccccc2[O-])[n-]n1

>  <Energy>  (36) 
86.55157040218525

>  <Genealogy>  (36) 
O=C([N-]c1ccc(S(=O)(=O)N2CCCC2)cc1)c1cc(-c2ccccc2[O-])[n-]n1 (protonated)
O=C([N-]c1ccc(S(=O)(=O)N2CCCC2)cc1)c1cc(-c2ccccc2[O-])[n-]n1 (3D coordinates assigned)
O=C([N-]c1ccc(S(=O)(=O)N2CCCC2)cc1)c1cc(-c2ccccc2[O-])[n-]n1 (nonaromatic ring conformer: 86.55157040218525 kcal/mol)

>  <smiles>  (36) 
O=C(Nc1ccc(S(=O)(=O)N2CCCC2)cc1)c1cc(-c2ccccc2O)[nH]n1

>  <score_type>  (36) 
oracle

>  <origin>  (36) 
adgpu

>  <m_score__min__energy>  (36) 
-15.109999999999999

>  <m_primary>  (36) 
energy

$$$$
36:0
     RDKit          3D

 32 34  0  0  0  0  0  0  0  0999 V2000
   -5.2550   16.9260  -33.2770 C   0  0  0  0  0  0  0  0  0  0  0  0
   -5.1260   18.2040  -34.0970 C   0  0  0  0  0  0  0  0  0  0  0  0
   -5.5350   19.3590  -33.3040 N   0  0  0  0  0  0  0  0  0  0  0  0
   -6.8130   19.5940  -32.7010 C   0  0  0  0  0  0  0  0  0  0  0  0
   -7.9450   18.7880  -32.8390 C   0  0  0  0  0  0  0  0  0  0  0  0
   -9.1090   19.1440  -32.1450 C   0  0  0  0  0  0  0  0  0  0  0  0
   -9.1110   20.2830  -31.3220 C   0  0  0  0  0  0  0  0  0  0  0  0
   -7.9880   21.0460  -31.1970 N   0  0  0  0  0  0  0  0  0  0  0  0
   -6.8590   20.7230  -31.8800 C   0  0  0  0  0  0  0  0  0  0  0  0
   -5.6220   21.4340  -31.7660 N   0  0  0  0  0  0  0  0  0  0  0  0
   -5.4130   22.7380  -31.2020 C   0  0  0  0  0  0  0  0  0  0  0  0
   -4.2490   22.9930  -30.4600 C   0  0  0  0  0  0  0  0  0  0  0  0
   -4.0260   24.2580  -29.9050 C   0  0  0  0  0  0  0  0  0  0  0  0
   -2.5740   24.5620  -28.9690 Cl  0  0  0  0  0  0  0  0  0  0  0  0
   -4.9590   25.2800  -30.0980 C   0  0  0  0  0  0  0  0  0  0  0  0
   -6.1120   25.0400  -30.8500 C   0  0  0  0  0  0  0  0  0  0  0  0
   -6.3400   23.7770  -31.4060 C   0  0  0  0  0  0  0  0  0  0  0  0
   -7.4380   23.5890  -32.1800 F   0  0  0  0  0  0  0  0  0  0  0  0
   -4.4710   20.5810  -32.7220 S   0  0  0  0  0  0  0  0  0  0  0  0
   -3.9440   21.4300  -33.8440 O   0  0  0  0  0  0  0  0  0  0  0  0
   -3.3710   19.9990  -31.8810 O   0  0  0  0  0  0  0  0  0  0  0  0
   -5.2300   17.1737  -32.2056 H   0  0  0  0  0  0  0  0  0  0  0  0
   -6.2077   16.4311  -33.5168 H   0  0  0  0  0  0  0  0  0  0  0  0
   -4.4205   16.2507  -33.5168 H   0  0  0  0  0  0  0  0  0  0  0  0
   -4.0788   18.3307  -34.4090 H   0  0  0  0  0  0  0  0  0  0  0  0
   -5.7765   18.1288  -34.9809 H   0  0  0  0  0  0  0  0  0  0  0  0
   -7.9233   17.8933  -33.4785 H   0  0  0  0  0  0  0  0  0  0  0  0
  -10.0187   18.5336  -32.2441 H   0  0  0  0  0  0  0  0  0  0  0  0
  -10.0242   20.5607  -30.7753 H   0  0  0  0  0  0  0  0  0  0  0  0
   -3.5077   22.1935  -30.3140 H   0  0  0  0  0  0  0  0  0  0  0  0
   -4.7859   26.2732  -29.6581 H   0  0  0  0  0  0  0  0  0  0  0  0
   -6.8429   25.8472  -31.0053 H   0  0  0  0  0  0  0  0  0  0  0  0
  1  2  1  0
  2  3  1  0
  3  4  1  0
  4  5  2  0
  5  6  1  0
  6  7  2  0
  7  8  1  0
  8  9  2  0
  9 10  1  0
 10 11  1  0
 11 12  2  0
 12 13  1  0
 13 14  1  0
 13 15  2  0
 15 16  1  0
 16 17  2  0
 17 18  1  0
 10 19  1  0
 19 20  2  0
 19 21  2  0
 19  3  1  0
  9  4  1  0
 17 11  1  0
  1 22  1  0
  1 23  1  0
  1 24  1  0
  2 25  1  0
  2 26  1  0
  5 27  1  0
  6 28  1  0
  7 29  1  0
 12 30  1  0
 15 31  1  0
 16 32  1  0
M  END
>  <UniqueID>  (37) 
37

>  <SMILES>  (37) 
CCN1c2cccnc2N(c2cc(Cl)ccc2F)S1(=O)=O

>  <Energy>  (37) 
61.35131757237112

>  <Genealogy>  (37) 
CCN1c2cccnc2N(c2cc(Cl)ccc2F)S1(=O)=O (3D coordinates assigned)
CCN1c2cccnc2N(c2cc(Cl)ccc2F)S1(=O)=O (nonaromatic ring conformer: 61.35131757237112 kcal/mol)

>  <smiles>  (37) 
CCN1c2cccnc2N(c2cc(Cl)ccc2F)S1(=O)=O

>  <score_type>  (37) 
oracle

>  <origin>  (37) 
adgpu

>  <m_score__min__energy>  (37) 
-7.5099999999999998

>  <m_primary>  (37) 
energy

$$$$
37:0
     RDKit          3D

 67 71  0  0  0  0  0  0  0  0999 V2000
    0.5280   20.5510  -35.2730 C   0  0  0  0  0  0  0  0  0  0  0  0
   -0.6680   20.3990  -34.3820 C   0  0  0  0  0  0  0  0  0  0  0  0
   -1.2820   19.1470  -34.2330 C   0  0  0  0  0  0  0  0  0  0  0  0
   -2.3790   18.9940  -33.3800 C   0  0  0  0  0  0  0  0  0  0  0  0
   -2.8760   20.0930  -32.6620 C   0  0  0  0  0  0  0  0  0  0  0  0
   -4.0250   19.9230  -31.7040 C   0  0  0  0  0  0  0  0  0  0  0  0
   -5.2810   20.3730  -32.3350 N   0  0  0  0  0  0  0  0  0  0  0  0
   -6.0540   19.3750  -33.0820 C   0  0  0  0  0  0  0  0  0  0  0  0
   -7.3470   19.0710  -32.3430 C   0  0  0  0  0  0  0  0  0  0  0  0
   -8.4590   20.4930  -32.5040 S   0  0  0  0  0  0  0  0  0  0  0  0
   -7.3190   21.7340  -31.8540 C   0  0  0  0  0  0  0  0  0  0  0  0
   -7.8930   22.8910  -31.3200 C   0  0  0  0  0  0  0  0  0  0  0  0
   -7.0990   23.9710  -30.9430 C   0  0  0  0  0  0  0  0  0  0  0  0
   -5.7080   23.9250  -31.1120 C   0  0  0  0  0  0  0  0  0  0  0  0
   -4.8750   25.0990  -30.7570 C   0  0  0  0  0  0  0  0  0  0  0  0
   -5.3650   26.2570  -30.8220 O   0  0  0  0  0  0  0  0  0  0  0  0
   -3.5140   24.9200  -30.3320 N   0  0  0  0  0  0  0  0  0  0  0  0
   -3.0790   24.5100  -28.9950 C   0  0  2  0  0  0  0  0  0  0  0  0
   -1.7390   25.1790  -28.6050 C   0  0  0  0  0  0  0  0  0  0  0  0
   -0.6340   24.1520  -28.3250 C   0  0  0  0  0  0  0  0  0  0  0  0
   -1.0490   23.1730  -27.2920 N   0  0  2  0  0  0  0  0  0  0  0  0
    0.0140   22.1490  -27.1320 C   0  0  0  0  0  0  0  0  0  0  0  0
   -0.1370   21.0170  -28.1230 C   0  0  0  0  0  0  0  0  0  0  0  0
   -0.2920   19.6970  -27.6660 C   0  0  0  0  0  0  0  0  0  0  0  0
   -0.4310   18.6460  -28.5780 C   0  0  0  0  0  0  0  0  0  0  0  0
   -0.4160   18.9040  -29.9510 C   0  0  0  0  0  0  0  0  0  0  0  0
   -0.2630   20.2140  -30.4150 C   0  0  0  0  0  0  0  0  0  0  0  0
   -0.1200   21.2670  -29.5060 C   0  0  0  0  0  0  0  0  0  0  0  0
   -2.3840   22.5460  -27.5550 C   0  0  0  0  0  0  0  0  0  0  0  0
   -3.0330   22.9760  -28.8810 C   0  0  0  0  0  0  0  0  0  0  0  0
   -5.1240   22.7540  -31.6260 C   0  0  0  0  0  0  0  0  0  0  0  0
   -5.9080   21.6290  -31.9590 C   0  0  0  0  0  0  0  0  0  0  0  0
   -2.2480   21.3430  -32.7950 C   0  0  0  0  0  0  0  0  0  0  0  0
   -1.1480   21.4920  -33.6450 C   0  0  0  0  0  0  0  0  0  0  0  0
    1.4320   20.6659  -34.6569 H   0  0  0  0  0  0  0  0  0  0  0  0
    0.6280   19.6583  -35.9079 H   0  0  0  0  0  0  0  0  0  0  0  0
    0.4016   21.4403  -35.9079 H   0  0  0  0  0  0  0  0  0  0  0  0
   -0.8981   18.2801  -34.7907 H   0  0  0  0  0  0  0  0  0  0  0  0
   -2.8547   18.0082  -33.2710 H   0  0  0  0  0  0  0  0  0  0  0  0
   -4.1157   18.8618  -31.4290 H   0  0  0  0  0  0  0  0  0  0  0  0
   -3.8368   20.5275  -30.8045 H   0  0  0  0  0  0  0  0  0  0  0  0
   -6.2882   19.7677  -34.0825 H   0  0  0  0  0  0  0  0  0  0  0  0
   -5.4627   18.4523  -33.1767 H   0  0  0  0  0  0  0  0  0  0  0  0
   -7.8213   18.1794  -32.7790 H   0  0  0  0  0  0  0  0  0  0  0  0
   -7.1347   18.8806  -31.2806 H   0  0  0  0  0  0  0  0  0  0  0  0
   -8.9845   22.9491  -31.1961 H   0  0  0  0  0  0  0  0  0  0  0  0
   -7.5667   24.8671  -30.5093 H   0  0  0  0  0  0  0  0  0  0  0  0
   -3.8229   24.8636  -28.2659 H   0  0  0  0  0  0  0  0  0  0  0  0
   -1.4155   25.8302  -29.4304 H   0  0  0  0  0  0  0  0  0  0  0  0
   -1.9062   25.7530  -27.6816 H   0  0  0  0  0  0  0  0  0  0  0  0
   -0.4033   23.6130  -29.2557 H   0  0  0  0  0  0  0  0  0  0  0  0
    0.2505   24.6904  -27.9537 H   0  0  0  0  0  0  0  0  0  0  0  0
   -1.1170   23.7070  -26.3920 H   0  0  0  0  0  0  0  0  0  0  0  0
    0.9931   22.6265  -27.2846 H   0  0  0  0  0  0  0  0  0  0  0  0
   -0.0694   21.7277  -26.1193 H   0  0  0  0  0  0  0  0  0  0  0  0
   -0.3040   19.4896  -26.5858 H   0  0  0  0  0  0  0  0  0  0  0  0
   -0.5523   17.6151  -28.2140 H   0  0  0  0  0  0  0  0  0  0  0  0
   -0.5246   18.0762  -30.6672 H   0  0  0  0  0  0  0  0  0  0  0  0
   -0.2551   20.4166  -31.4962 H   0  0  0  0  0  0  0  0  0  0  0  0
    0.0064   22.2955  -29.8750 H   0  0  0  0  0  0  0  0  0  0  0  0
   -2.2545   21.4538  -27.5727 H   0  0  0  0  0  0  0  0  0  0  0  0
   -3.0550   22.8831  -26.7512 H   0  0  0  0  0  0  0  0  0  0  0  0
   -2.4463   22.5696  -29.7181 H   0  0  0  0  0  0  0  0  0  0  0  0
   -4.0623   22.5893  -28.9114 H   0  0  0  0  0  0  0  0  0  0  0  0
   -4.0344   22.7140  -31.7715 H   0  0  0  0  0  0  0  0  0  0  0  0
   -2.6233   22.2077  -32.2281 H   0  0  0  0  0  0  0  0  0  0  0  0
   -0.6562   22.4717  -33.7364 H   0  0  0  0  0  0  0  0  0  0  0  0
  1  2  1  0
  2  3  2  0
  3  4  1  0
  4  5  2  0
  5  6  1  0
  6  7  1  0
  7  8  1  0
  8  9  1  0
  9 10  1  0
 10 11  1  0
 11 12  2  0
 12 13  1  0
 13 14  2  0
 14 15  1  0
 15 16  2  0
 15 17  1  0
 17 18  1  0
 18 19  1  0
 19 20  1  0
 20 21  1  0
 21 22  1  0
 22 23  1  0
 23 24  2  0
 24 25  1  0
 25 26  2  0
 26 27  1  0
 27 28  2  0
 21 29  1  0
 29 30  1  0
 14 31  1  0
 31 32  2  0
  5 33  1  0
 33 34  2  0
 34  2  1  0
 32  7  1  0
 32 11  1  0
 30 18  1  0
 28 23  1  0
  1 35  1  0
  1 36  1  0
  1 37  1  0
  3 38  1  0
  4 39  1  0
  6 40  1  0
  6 41  1  0
  8 42  1  0
  8 43  1  0
  9 44  1  0
  9 45  1  0
 12 46  1  0
 13 47  1  0
 18 48  1  1
 19 49  1  0
 19 50  1  0
 20 51  1  0
 20 52  1  0
 21 53  1  1
 22 54  1  0
 22 55  1  0
 24 56  1  0
 25 57  1  0
 26 58  1  0
 27 59  1  0
 28 60  1  0
 29 61  1  0
 29 62  1  0
 30 63  1  0
 30 64  1  0
 31 65  1  0
 33 66  1  0
 34 67  1  0
M  CHG  2  17  -1  21   1
M  END
>  <UniqueID>  (38) 
38

>  <SMILES>  (38) 
Cc1ccc(CN2CCSc3ccc(C(=O)[N-]C4CC[NH+](Cc5ccccc5)CC4)cc32)cc1

>  <Energy>  (38) 
89.40075973670312

>  <Genealogy>  (38) 
Cc1ccc(CN2CCSc3ccc(C(=O)[N-]C4CC[NH+](Cc5ccccc5)CC4)cc32)cc1 (protonated)
Cc1ccc(CN2CCSc3ccc(C(=O)[N-]C4CC[NH+](Cc5ccccc5)CC4)cc32)cc1 (3D coordinates assigned)
Cc1ccc(CN2CCSc3ccc(C(=O)[N-]C4CC[NH+](Cc5ccccc5)CC4)cc32)cc1 (nonaromatic ring conformer: 89.40075973670312 kcal/mol)

>  <smiles>  (38) 
Cc1ccc(CN2CCSc3ccc(C(=O)NC4CCN(Cc5ccccc5)CC4)cc32)cc1

>  <score_type>  (38) 
oracle

>  <origin>  (38) 
adgpu

>  <m_score__min__energy>  (38) 
-11.74

>  <m_primary>  (38) 
energy

$$$$
38:0
     RDKit          3D

 57 60  0  0  0  0  0  0  0  0999 V2000
   -1.0410   16.5880  -32.8350 C   0  0  0  0  0  0  0  0  0  0  0  0
   -2.0900   16.0920  -33.7410 N   0  0  0  0  0  0  0  0  0  0  0  0
   -2.4840   17.1510  -34.6970 C   0  0  0  0  0  0  0  0  0  0  0  0
   -3.8690   16.8710  -35.3030 C   0  0  0  0  0  0  0  0  0  0  0  0
   -4.9290   16.7910  -34.2720 N   0  0  0  0  0  0  0  0  0  0  0  0
   -5.9020   18.2450  -34.2340 S   0  0  0  0  0  0  0  0  0  0  0  0
   -6.1090   18.7400  -35.6390 O   0  0  0  0  0  0  0  0  0  0  0  0
   -7.2510   17.9300  -33.6480 O   0  0  0  0  0  0  0  0  0  0  0  0
   -5.1330   19.5120  -33.2770 C   0  0  0  0  0  0  0  0  0  0  0  0
   -5.8470   20.1630  -32.2610 C   0  0  0  0  0  0  0  0  0  0  0  0
   -5.2290   21.1450  -31.4830 C   0  0  0  0  0  0  0  0  0  0  0  0
   -3.8860   21.4830  -31.7010 C   0  0  0  0  0  0  0  0  0  0  0  0
   -3.2800   22.5060  -30.8930 N   0  0  0  0  0  0  0  0  0  0  0  0
   -3.8000   23.8420  -30.7630 C   0  0  0  0  0  0  0  0  0  0  0  0
   -4.8930   24.1590  -31.3000 O   0  0  0  0  0  0  0  0  0  0  0  0
   -3.0950   24.8300  -30.0020 N   0  0  0  0  0  0  0  0  0  0  0  0
   -2.3490   24.5820  -28.8030 C   0  0  0  0  0  0  0  0  0  0  0  0
   -2.6200   23.4210  -28.0760 C   0  0  0  0  0  0  0  0  0  0  0  0
   -1.9330   23.1530  -26.8950 C   0  0  0  0  0  0  0  0  0  0  0  0
   -0.9660   24.0420  -26.4190 C   0  0  0  0  0  0  0  0  0  0  0  0
   -0.1790   23.6490  -24.8920 Cl  0  0  0  0  0  0  0  0  0  0  0  0
   -0.6850   25.2310  -27.1300 C   0  0  0  0  0  0  0  0  0  0  0  0
    0.5350   26.3800  -26.5320 S   0  0  0  0  0  0  0  0  0  0  0  0
    1.8990   25.7610  -26.6600 O   0  0  0  0  0  0  0  0  0  0  0  0
    0.5290   27.6280  -27.3700 O   0  0  0  0  0  0  0  0  0  0  0  0
    0.2820   26.8530  -24.8190 C   0  0  0  0  0  0  0  0  0  0  0  0
   -0.4910   28.1510  -24.6540 C   0  0  0  0  0  0  0  0  0  0  0  0
   -1.1460   26.8290  -24.2940 C   0  0  0  0  0  0  0  0  0  0  0  0
   -1.4120   25.5110  -28.3090 C   0  0  0  0  0  0  0  0  0  0  0  0
   -1.2350   26.7210  -28.9700 O   0  0  0  0  0  0  0  0  0  0  0  0
   -3.1820   20.8560  -32.7430 C   0  0  0  0  0  0  0  0  0  0  0  0
   -3.8010   19.8740  -33.5210 C   0  0  0  0  0  0  0  0  0  0  0  0
   -4.4280   16.4730  -32.9190 C   0  0  0  0  0  0  0  0  0  0  0  0
   -3.2300   15.5160  -32.9840 C   0  0  0  0  0  0  0  0  0  0  0  0
   -1.3567   16.4387  -31.7919 H   0  0  0  0  0  0  0  0  0  0  0  0
   -0.1073   16.0360  -33.0181 H   0  0  0  0  0  0  0  0  0  0  0  0
   -0.8751   17.6599  -33.0181 H   0  0  0  0  0  0  0  0  0  0  0  0
   -2.5120   18.1164  -34.1705 H   0  0  0  0  0  0  0  0  0  0  0  0
   -1.7466   17.1733  -35.5129 H   0  0  0  0  0  0  0  0  0  0  0  0
   -4.1183   17.6809  -36.0043 H   0  0  0  0  0  0  0  0  0  0  0  0
   -3.8221   15.8975  -35.8130 H   0  0  0  0  0  0  0  0  0  0  0  0
   -6.8987   19.8993  -32.0757 H   0  0  0  0  0  0  0  0  0  0  0  0
   -5.8000   21.6565  -30.6941 H   0  0  0  0  0  0  0  0  0  0  0  0
   -2.3550   22.2880  -30.4620 H   0  0  0  0  0  0  0  0  0  0  0  0
   -3.3807   22.7140  -28.4385 H   0  0  0  0  0  0  0  0  0  0  0  0
   -2.1534   22.2339  -26.3322 H   0  0  0  0  0  0  0  0  0  0  0  0
    1.2320   26.4349  -24.4548 H   0  0  0  0  0  0  0  0  0  0  0  0
   -0.2117   28.8601  -23.8608 H   0  0  0  0  0  0  0  0  0  0  0  0
   -0.7488   28.9915  -25.3152 H   0  0  0  0  0  0  0  0  0  0  0  0
   -1.3405   26.5805  -23.2403 H   0  0  0  0  0  0  0  0  0  0  0  0
   -2.0738   26.3154  -24.5863 H   0  0  0  0  0  0  0  0  0  0  0  0
   -2.1389   21.1394  -32.9472 H   0  0  0  0  0  0  0  0  0  0  0  0
   -3.2399   19.3824  -34.3294 H   0  0  0  0  0  0  0  0  0  0  0  0
   -4.1173   17.4043  -32.4229 H   0  0  0  0  0  0  0  0  0  0  0  0
   -5.2351   15.9843  -32.3536 H   0  0  0  0  0  0  0  0  0  0  0  0
   -2.8982   15.2943  -31.9589 H   0  0  0  0  0  0  0  0  0  0  0  0
   -3.5551   14.6043  -33.5067 H   0  0  0  0  0  0  0  0  0  0  0  0
  1  2  1  0
  2  3  1  0
  3  4  1  0
  4  5  1  0
  5  6  1  0
  6  7  2  0
  6  8  2  0
  6  9  1  0
  9 10  2  0
 10 11  1  0
 11 12  2  0
 12 13  1  0
 13 14  1  0
 14 15  2  0
 14 16  1  0
 16 17  1  0
 17 18  2  0
 18 19  1  0
 19 20  2  0
 20 21  1  0
 20 22  1  0
 22 23  1  0
 23 24  2  0
 23 25  2  0
 23 26  1  0
 26 27  1  0
 27 28  1  0
 22 29  2  0
 29 30  1  0
 12 31  1  0
 31 32  2  0
  5 33  1  0
 33 34  1  0
 34  2  1  0
 32  9  1  0
 29 17  1  0
 28 26  1  0
  1 35  1  0
  1 36  1  0
  1 37  1  0
  3 38  1  0
  3 39  1  0
  4 40  1  0
  4 41  1  0
 10 42  1  0
 11 43  1  0
 13 44  1  0
 18 45  1  0
 19 46  1  0
 26 47  1  0
 27 48  1  0
 27 49  1  0
 28 50  1  0
 28 51  1  0
 31 52  1  0
 32 53  1  0
 33 54  1  0
 33 55  1  0
 34 56  1  0
 34 57  1  0
M  CHG  2  16  -1  30  -1
M  END
>  <UniqueID>  (39) 
39

>  <SMILES>  (39) 
CN1CCN(S(=O)(=O)c2ccc(NC(=O)[N-]c3ccc(Cl)c(S(=O)(=O)C4CC4)c3[O-])cc2)CC1

>  <Energy>  (39) 
344.5689487985017

>  <Genealogy>  (39) 
CN1CCN(S(=O)(=O)c2ccc(NC(=O)[N-]c3ccc(Cl)c(S(=O)(=O)C4CC4)c3[O-])cc2)CC1 (protonated)
CN1CCN(S(=O)(=O)c2ccc(NC(=O)[N-]c3ccc(Cl)c(S(=O)(=O)C4CC4)c3[O-])cc2)CC1 (3D coordinates assigned)
CN1CCN(S(=O)(=O)c2ccc(NC(=O)[N-]c3ccc(Cl)c(S(=O)(=O)C4CC4)c3[O-])cc2)CC1 (nonaromatic ring conformer: 344.5689487985017 kcal/mol)

>  <smiles>  (39) 
CN1CCN(S(=O)(=O)c2ccc(NC(=O)Nc3ccc(Cl)c(S(=O)(=O)C4CC4)c3O)cc2)CC1

>  <score_type>  (39) 
oracle

>  <origin>  (39) 
adgpu

>  <m_score__min__energy>  (39) 
-13.51

>  <m_primary>  (39) 
energy

$$$$
39:0
     RDKit          3D

 58 61  0  0  0  0  0  0  0  0999 V2000
   -0.9390   22.8060  -30.1110 O   0  0  0  0  0  0  0  0  0  0  0  0
   -2.0080   22.2670  -30.5090 C   0  0  0  0  0  0  0  0  0  0  0  0
   -3.2100   22.4280  -29.7460 N   0  0  0  0  0  0  0  0  0  0  0  0
   -4.3580   23.1900  -30.1440 C   0  0  0  0  0  0  0  0  0  0  0  0
   -5.5410   22.5080  -30.4500 C   0  0  0  0  0  0  0  0  0  0  0  0
   -6.6780   23.2050  -30.8840 C   0  0  0  0  0  0  0  0  0  0  0  0
   -8.1550   22.3320  -31.3050 S   0  0  0  0  0  0  0  0  0  0  0  0
   -9.1190   23.2830  -31.9570 O   0  0  0  0  0  0  0  0  0  0  0  0
   -8.7970   21.8060  -30.0520 O   0  0  0  0  0  0  0  0  0  0  0  0
   -7.8320   21.0060  -32.3980 N   0  0  0  0  0  0  0  0  0  0  0  0
   -8.8650   19.9610  -32.2660 C   0  0  0  0  0  0  0  0  0  0  0  0
   -8.3290   18.5980  -32.7340 C   0  0  0  0  0  0  0  0  0  0  0  0
   -7.2030   18.1380  -31.9950 O   0  0  0  0  0  0  0  0  0  0  0  0
   -6.4300   19.1810  -31.4170 C   0  0  0  0  0  0  0  0  0  0  0  0
   -6.4570   20.4870  -32.2350 C   0  0  0  0  0  0  0  0  0  0  0  0
   -6.6280   24.5970  -31.0010 C   0  0  0  0  0  0  0  0  0  0  0  0
   -5.4440   25.2840  -30.7280 C   0  0  0  0  0  0  0  0  0  0  0  0
   -4.3020   24.5880  -30.3200 C   0  0  0  0  0  0  0  0  0  0  0  0
   -3.1160   25.2910  -30.1310 O   0  0  0  0  0  0  0  0  0  0  0  0
   -2.0240   21.4540  -31.7510 C   0  0  0  0  0  0  0  0  0  0  0  0
   -1.0700   21.7050  -32.7550 C   0  0  0  0  0  0  0  0  0  0  0  0
   -0.9950   20.8930  -33.8940 C   0  0  0  0  0  0  0  0  0  0  0  0
    0.2230   21.2140  -35.1280 S   0  0  0  0  0  0  0  0  0  0  0  0
   -0.4190   21.1080  -36.4840 O   0  0  0  0  0  0  0  0  0  0  0  0
    0.7160   22.6260  -34.9680 O   0  0  0  0  0  0  0  0  0  0  0  0
    1.5810   20.1120  -35.0600 N   0  0  0  0  0  0  0  0  0  0  0  0
    1.3080   18.8100  -35.6950 C   0  0  0  0  0  0  0  0  0  0  0  0
    0.7680   17.7740  -34.7020 C   0  0  0  0  0  0  0  0  0  0  0  0
    1.6260   17.6580  -33.5890 O   0  0  0  0  0  0  0  0  0  0  0  0
    1.6210   18.8740  -32.8760 C   0  0  0  0  0  0  0  0  0  0  0  0
    2.2040   20.0140  -33.7250 C   0  0  0  0  0  0  0  0  0  0  0  0
   -1.9090   19.8490  -34.0590 C   0  0  0  0  0  0  0  0  0  0  0  0
   -2.8820   19.6070  -33.0900 C   0  0  0  0  0  0  0  0  0  0  0  0
   -2.9450   20.3970  -31.9340 C   0  0  0  0  0  0  0  0  0  0  0  0
   -3.9080   20.1160  -30.9640 O   0  0  0  0  0  0  0  0  0  0  0  0
   -5.5796   21.4133  -30.3490 H   0  0  0  0  0  0  0  0  0  0  0  0
   -9.1687   19.8858  -31.2114 H   0  0  0  0  0  0  0  0  0  0  0  0
   -9.7250   20.2353  -32.8946 H   0  0  0  0  0  0  0  0  0  0  0  0
   -9.1351   17.8561  -32.6352 H   0  0  0  0  0  0  0  0  0  0  0  0
   -7.9981   18.7248  -33.7754 H   0  0  0  0  0  0  0  0  0  0  0  0
   -6.8237   19.3909  -30.4115 H   0  0  0  0  0  0  0  0  0  0  0  0
   -5.3860   18.8355  -31.3904 H   0  0  0  0  0  0  0  0  0  0  0  0
   -5.8500   21.2440  -31.7168 H   0  0  0  0  0  0  0  0  0  0  0  0
   -6.0526   20.2718  -33.2351 H   0  0  0  0  0  0  0  0  0  0  0  0
   -7.5254   25.1533  -31.3095 H   0  0  0  0  0  0  0  0  0  0  0  0
   -5.4092   26.3783  -30.8344 H   0  0  0  0  0  0  0  0  0  0  0  0
   -0.3743   22.5498  -32.6438 H   0  0  0  0  0  0  0  0  0  0  0  0
    0.5643   18.9554  -36.4923 H   0  0  0  0  0  0  0  0  0  0  0  0
    2.2589   18.4268  -36.0937 H   0  0  0  0  0  0  0  0  0  0  0  0
   -0.2288   18.0878  -34.3587 H   0  0  0  0  0  0  0  0  0  0  0  0
    0.7075   16.7981  -35.2060 H   0  0  0  0  0  0  0  0  0  0  0  0
    0.5861   19.1245  -32.5998 H   0  0  0  0  0  0  0  0  0  0  0  0
    2.2426   18.7546  -31.9763 H   0  0  0  0  0  0  0  0  0  0  0  0
    2.0461   20.9639  -33.1933 H   0  0  0  0  0  0  0  0  0  0  0  0
    3.2729   19.8015  -33.8741 H   0  0  0  0  0  0  0  0  0  0  0  0
   -1.8607   19.2155  -34.9570 H   0  0  0  0  0  0  0  0  0  0  0  0
   -3.6050   18.7906  -33.2338 H   0  0  0  0  0  0  0  0  0  0  0  0
   -3.9990   20.6740  -30.1220 H   0  0  0  0  0  0  0  0  0  0  0  0
  1  2  2  0
  2  3  1  0
  3  4  1  0
  4  5  2  0
  5  6  1  0
  6  7  1  0
  7  8  2  0
  7  9  2  0
  7 10  1  0
 10 11  1  0
 11 12  1  0
 12 13  1  0
 13 14  1  0
 14 15  1  0
  6 16  2  0
 16 17  1  0
 17 18  2  0
 18 19  1  0
  2 20  1  0
 20 21  2  0
 21 22  1  0
 22 23  1  0
 23 24  2  0
 23 25  2  0
 23 26  1  0
 26 27  1  0
 27 28  1  0
 28 29  1  0
 29 30  1  0
 30 31  1  0
 22 32  2  0
 32 33  1  0
 33 34  2  0
 34 35  1  0
 18  4  1  0
 34 20  1  0
 15 10  1  0
 31 26  1  0
  5 36  1  0
 11 37  1  0
 11 38  1  0
 12 39  1  0
 12 40  1  0
 14 41  1  0
 14 42  1  0
 15 43  1  0
 15 44  1  0
 16 45  1  0
 17 46  1  0
 21 47  1  0
 27 48  1  0
 27 49  1  0
 28 50  1  0
 28 51  1  0
 30 52  1  0
 30 53  1  0
 31 54  1  0
 31 55  1  0
 32 56  1  0
 33 57  1  0
 35 58  1  0
M  CHG  2   3  -1  19  -1
M  END
>  <UniqueID>  (40) 
40

>  <SMILES>  (40) 
O=C([N-]c1cc(S(=O)(=O)N2CCOCC2)ccc1[O-])c1cc(S(=O)(=O)N2CCOCC2)ccc1O

>  <Energy>  (40) 
85.60333408137285

>  <Genealogy>  (40) 
O=C([N-]c1cc(S(=O)(=O)N2CCOCC2)ccc1[O-])c1cc(S(=O)(=O)N2CCOCC2)ccc1O (protonated)
O=C([N-]c1cc(S(=O)(=O)N2CCOCC2)ccc1[O-])c1cc(S(=O)(=O)N2CCOCC2)ccc1O (3D coordinates assigned)
O=C([N-]c1cc(S(=O)(=O)N2CCOCC2)ccc1[O-])c1cc(S(=O)(=O)N2CCOCC2)ccc1O (nonaromatic ring conformer: 85.60333408137285 kcal/mol)

>  <smiles>  (40) 
O=C(Nc1cc(S(=O)(=O)N2CCOCC2)ccc1O)c1cc(S(=O)(=O)N2CCOCC2)ccc1O

>  <score_type>  (40) 
oracle

>  <origin>  (40) 
adgpu

>  <m_score__min__energy>  (40) 
-14.1

>  <m_primary>  (40) 
energy

$$$$
40:0
     RDKit          3D

 37 39  0  0  0  0  0  0  0  0999 V2000
   -0.5020   20.5630  -27.2260 C   0  0  0  0  0  0  0  0  0  0  0  0
   -1.6200   21.5120  -27.5450 C   0  0  0  0  0  0  0  0  0  0  0  0
   -2.6870   21.0990  -28.3550 C   0  0  0  0  0  0  0  0  0  0  0  0
   -3.7090   21.9940  -28.6840 C   0  0  0  0  0  0  0  0  0  0  0  0
   -3.6750   23.3190  -28.2240 C   0  0  0  0  0  0  0  0  0  0  0  0
   -4.7400   24.2160  -28.5900 N   0  0  0  0  0  0  0  0  0  0  0  0
   -5.0810   24.6980  -30.2220 S   0  0  0  0  0  0  0  0  0  0  0  0
   -6.2100   25.6900  -30.2200 O   0  0  0  0  0  0  0  0  0  0  0  0
   -3.8600   25.3480  -30.8080 O   0  0  0  0  0  0  0  0  0  0  0  0
   -5.5610   23.2970  -31.1720 C   0  0  0  0  0  0  0  0  0  0  0  0
   -4.6350   22.6950  -32.0490 C   0  0  0  0  0  0  0  0  0  0  0  0
   -5.0050   21.5890  -32.8290 C   0  0  0  0  0  0  0  0  0  0  0  0
   -6.3080   21.0910  -32.7220 C   0  0  0  0  0  0  0  0  0  0  0  0
   -7.2140   21.6840  -31.8540 C   0  0  0  0  0  0  0  0  0  0  0  0
   -6.8660   22.7830  -31.0720 C   0  0  0  0  0  0  0  0  0  0  0  0
   -8.7560   20.8840  -31.9100 S   0  0  0  0  0  0  0  0  0  0  0  0
   -9.1140   20.2360  -30.6040 O   0  0  0  0  0  0  0  0  0  0  0  0
   -9.8480   21.7770  -32.4280 O   0  0  0  0  0  0  0  0  0  0  0  0
   -8.2780   19.7200  -33.0870 N   0  0  0  0  0  0  0  0  0  0  0  0
   -6.9120   19.9500  -33.4430 C   0  0  0  0  0  0  0  0  0  0  0  0
   -6.2930   19.2160  -34.3130 N   0  0  0  0  0  0  0  0  0  0  0  0
   -2.5970   23.7330  -27.4190 C   0  0  0  0  0  0  0  0  0  0  0  0
   -1.5750   22.8370  -27.0910 C   0  0  0  0  0  0  0  0  0  0  0  0
   -0.3969   20.4738  -26.1347 H   0  0  0  0  0  0  0  0  0  0  0  0
   -0.7260   19.5751  -27.6548 H   0  0  0  0  0  0  0  0  0  0  0  0
    0.4364   20.9445  -27.6548 H   0  0  0  0  0  0  0  0  0  0  0  0
   -2.7201   20.0666  -28.7332 H   0  0  0  0  0  0  0  0  0  0  0  0
   -4.5482   21.6561  -29.3097 H   0  0  0  0  0  0  0  0  0  0  0  0
   -5.4040   24.5420  -27.8530 H   0  0  0  0  0  0  0  0  0  0  0  0
   -3.6134   23.0962  -32.1222 H   0  0  0  0  0  0  0  0  0  0  0  0
   -4.2823   21.1210  -33.5136 H   0  0  0  0  0  0  0  0  0  0  0  0
   -7.5978   23.2398  -30.3896 H   0  0  0  0  0  0  0  0  0  0  0  0
   -8.8910   18.9700  -33.4740 H   0  0  0  0  0  0  0  0  0  0  0  0
   -6.7890   18.4250  -34.7830 H   0  0  0  0  0  0  0  0  0  0  0  0
   -5.2970   19.3900  -34.5680 H   0  0  0  0  0  0  0  0  0  0  0  0
   -2.5584   24.7671  -27.0460 H   0  0  0  0  0  0  0  0  0  0  0  0
   -0.7302   23.1743  -26.4726 H   0  0  0  0  0  0  0  0  0  0  0  0
  1  2  1  0
  2  3  2  0
  3  4  1  0
  4  5  2  0
  5  6  1  0
  6  7  1  0
  7  8  2  0
  7  9  2  0
  7 10  1  0
 10 11  2  0
 11 12  1  0
 12 13  2  0
 13 14  1  0
 14 15  2  0
 14 16  1  0
 16 17  2  0
 16 18  2  0
 16 19  1  0
 19 20  1  0
 20 21  2  0
  5 22  1  0
 22 23  2  0
 23  2  1  0
 15 10  1  0
 20 13  1  0
  1 24  1  0
  1 25  1  0
  1 26  1  0
  3 27  1  0
  4 28  1  0
  6 29  1  0
 11 30  1  0
 12 31  1  0
 15 32  1  0
 19 33  1  0
 21 34  1  0
 21 35  1  0
 22 36  1  0
 23 37  1  0
M  CHG  1  21   1
M  END
>  <UniqueID>  (41) 
41

>  <SMILES>  (41) 
Cc1ccc(NS(=O)(=O)c2ccc3c(c2)S(=O)(=O)NC3=[NH2+])cc1

>  <Energy>  (41) 
63.189398531776334

>  <Genealogy>  (41) 
Cc1ccc(NS(=O)(=O)c2ccc3c(c2)S(=O)(=O)NC3=[NH2+])cc1 (protonated)
Cc1ccc(NS(=O)(=O)c2ccc3c(c2)S(=O)(=O)NC3=[NH2+])cc1 (3D coordinates assigned)
Cc1ccc(NS(=O)(=O)c2ccc3c(c2)S(=O)(=O)NC3=[NH2+])cc1 (nonaromatic ring conformer: 63.189398531776334 kcal/mol)

>  <smiles>  (41) 
Cc1ccc(NS(=O)(=O)c2ccc3c(c2)S(=O)(=O)NC3=N)cc1

>  <score_type>  (41) 
oracle

>  <origin>  (41) 
adgpu

>  <m_score__min__energy>  (41) 
-9.5

>  <m_primary>  (41) 
energy

$$$$
41:0
     RDKit          3D

 41 43  0  0  0  0  0  0  0  0999 V2000
   -5.8540   24.3700  -31.9690 O   0  0  0  0  0  0  0  0  0  0  0  0
   -5.3540   23.2520  -31.6810 C   0  0  0  0  0  0  0  0  0  0  0  0
   -5.7760   22.0970  -32.4210 N   0  0  0  0  0  0  0  0  0  0  0  0
   -7.0420   21.4210  -32.3250 C   0  0  0  0  0  0  0  0  0  0  0  0
   -8.1980   22.0840  -31.8740 C   0  0  0  0  0  0  0  0  0  0  0  0
   -9.4090   21.3950  -31.7630 C   0  0  0  0  0  0  0  0  0  0  0  0
   -9.4730   20.0370  -32.0740 C   0  0  0  0  0  0  0  0  0  0  0  0
   -8.3240   19.3600  -32.4890 C   0  0  0  0  0  0  0  0  0  0  0  0
   -7.1080   20.0440  -32.6100 C   0  0  0  0  0  0  0  0  0  0  0  0
   -5.9380   19.3280  -33.0250 N   0  0  0  0  0  0  0  0  0  0  0  0
   -4.8070   19.1770  -32.1040 C   0  0  0  0  0  0  0  0  0  0  0  0
   -3.4850   19.4070  -32.8480 C   0  0  0  0  0  0  0  0  0  0  0  0
   -3.3990   18.6650  -34.2030 C   0  0  0  0  0  0  0  0  0  0  0  0
   -4.6560   17.8510  -34.5440 C   0  0  0  0  0  0  0  0  0  0  0  0
   -5.9240   18.6900  -34.3460 C   0  0  0  0  0  0  0  0  0  0  0  0
   -4.3630   23.1700  -30.5860 C   0  0  0  0  0  0  0  0  0  0  0  0
   -4.0880   21.9140  -30.0170 C   0  0  0  0  0  0  0  0  0  0  0  0
   -3.2140   21.8020  -28.9340 C   0  0  0  0  0  0  0  0  0  0  0  0
   -2.5990   22.9410  -28.4110 C   0  0  0  0  0  0  0  0  0  0  0  0
   -2.8400   24.1900  -28.9840 C   0  0  0  0  0  0  0  0  0  0  0  0
   -3.7000   24.3150  -30.0820 C   0  0  0  0  0  0  0  0  0  0  0  0
   -3.8490   25.5740  -30.6640 O   0  0  0  0  0  0  0  0  0  0  0  0
   -8.1485   23.1501  -31.6074 H   0  0  0  0  0  0  0  0  0  0  0  0
  -10.3135   21.9250  -31.4297 H   0  0  0  0  0  0  0  0  0  0  0  0
  -10.4289   19.4988  -31.9924 H   0  0  0  0  0  0  0  0  0  0  0  0
   -8.3744   18.2860  -32.7216 H   0  0  0  0  0  0  0  0  0  0  0  0
   -4.8994   19.9123  -31.2911 H   0  0  0  0  0  0  0  0  0  0  0  0
   -4.8140   18.1578  -31.6903 H   0  0  0  0  0  0  0  0  0  0  0  0
   -3.3741   20.4854  -33.0345 H   0  0  0  0  0  0  0  0  0  0  0  0
   -2.6825   19.0077  -32.2103 H   0  0  0  0  0  0  0  0  0  0  0  0
   -3.2420   19.4098  -34.9971 H   0  0  0  0  0  0  0  0  0  0  0  0
   -2.5658   17.9510  -34.1253 H   0  0  0  0  0  0  0  0  0  0  0  0
   -4.6002   17.5255  -35.5933 H   0  0  0  0  0  0  0  0  0  0  0  0
   -4.7030   16.9808  -33.8727 H   0  0  0  0  0  0  0  0  0  0  0  0
   -5.9630   19.4695  -35.1212 H   0  0  0  0  0  0  0  0  0  0  0  0
   -6.7967   18.0245  -34.4203 H   0  0  0  0  0  0  0  0  0  0  0  0
   -4.5653   21.0124  -30.4284 H   0  0  0  0  0  0  0  0  0  0  0  0
   -3.0098   20.8154  -28.4924 H   0  0  0  0  0  0  0  0  0  0  0  0
   -1.9241   22.8536  -27.5468 H   0  0  0  0  0  0  0  0  0  0  0  0
   -2.3505   25.0838  -28.5699 H   0  0  0  0  0  0  0  0  0  0  0  0
   -4.1860   25.7030  -31.6070 H   0  0  0  0  0  0  0  0  0  0  0  0
  1  2  2  0
  2  3  1  0
  3  4  1  0
  4  5  2  0
  5  6  1  0
  6  7  2  0
  7  8  1  0
  8  9  2  0
  9 10  1  0
 10 11  1  0
 11 12  1  0
 12 13  1  0
 13 14  1  0
 14 15  1  0
  2 16  1  0
 16 17  2  0
 17 18  1  0
 18 19  2  0
 19 20  1  0
 20 21  2  0
 21 22  1  0
  9  4  1  0
 15 10  1  0
 21 16  1  0
  5 23  1  0
  6 24  1  0
  7 25  1  0
  8 26  1  0
 11 27  1  0
 11 28  1  0
 12 29  1  0
 12 30  1  0
 13 31  1  0
 13 32  1  0
 14 33  1  0
 14 34  1  0
 15 35  1  0
 15 36  1  0
 17 37  1  0
 18 38  1  0
 19 39  1  0
 20 40  1  0
 22 41  1  0
M  CHG  1   3  -1
M  END
>  <UniqueID>  (42) 
42

>  <SMILES>  (42) 
O=C([N-]c1ccccc1N1CCCCC1)c1ccccc1O

>  <Energy>  (42) 
57.960389601774

>  <Genealogy>  (42) 
O=C([N-]c1ccccc1N1CCCCC1)c1ccccc1O (protonated)
O=C([N-]c1ccccc1N1CCCCC1)c1ccccc1O (3D coordinates assigned)
O=C([N-]c1ccccc1N1CCCCC1)c1ccccc1O (nonaromatic ring conformer: 57.960389601774 kcal/mol)

>  <smiles>  (42) 
O=C(Nc1ccccc1N1CCCCC1)c1ccccc1O

>  <score_type>  (42) 
oracle

>  <origin>  (42) 
adgpu

>  <m_score__min__energy>  (42) 
-9.6899999999999995

>  <m_primary>  (42) 
energy

$$$$
42:0
     RDKit          3D

 44 46  0  0  1  0  0  0  0  0999 V2000
   -3.0270   14.9200  -33.1360 C   0  0  0  0  0  0  0  0  0  0  0  0
   -4.6650   15.2280  -32.4910 S   0  0  0  0  0  0  0  0  0  0  0  0
   -5.2830   16.8280  -33.0000 C   0  0  0  0  0  0  0  0  0  0  0  0
   -5.3960   17.7770  -32.0290 N   0  0  0  0  0  0  0  0  0  0  0  0
   -5.8480   19.0120  -32.3000 C   0  0  0  0  0  0  0  0  0  0  0  0
   -5.9640   19.9340  -31.3840 N   0  0  0  0  0  0  0  0  0  0  0  0
   -6.4450   21.2270  -31.7080 C   0  0  0  0  0  0  0  0  0  0  0  0
   -7.8140   21.5150  -31.7560 C   0  0  0  0  0  0  0  0  0  0  0  0
   -8.8090   20.4400  -31.4590 C   0  0  0  0  0  0  0  0  0  0  0  0
   -8.2260   22.8090  -32.0830 C   0  0  0  0  0  0  0  0  0  0  0  0
   -7.2710   23.7880  -32.3530 C   0  0  0  0  0  0  0  0  0  0  0  0
   -5.9160   23.5190  -32.3100 C   0  0  0  0  0  0  0  0  0  0  0  0
   -5.5120   22.2330  -31.9850 C   0  0  0  0  0  0  0  0  0  0  0  0
   -4.0900   21.9730  -31.9470 C   0  0  0  0  0  0  0  0  0  0  0  0
   -3.6050   21.0160  -32.8380 C   0  0  0  0  0  0  0  0  0  0  0  0
   -2.2670   20.6830  -32.8940 C   0  0  0  0  0  0  0  0  0  0  0  0
   -1.4090   21.3320  -32.0300 C   0  0  0  0  0  0  0  0  0  0  0  0
   -1.8820   22.2960  -31.1290 C   0  0  0  0  0  0  0  0  0  0  0  0
   -3.2220   22.6330  -31.0720 C   0  0  0  0  0  0  0  0  0  0  0  0
   -3.8600   23.8230  -29.9700 S   0  0  0  0  0  0  0  0  0  0  0  0
   -5.2100   23.3090  -29.0720 N   0  0  0  0  0  0  0  0  0  0  0  0
   -2.7750   24.0870  -28.9430 O   0  0  0  0  0  0  0  0  0  0  0  0
   -4.0660   25.1540  -30.6330 O   0  0  0  0  0  0  0  0  0  0  0  0
   -6.2040   19.3100  -33.6010 C   0  0  0  0  0  0  0  0  0  0  0  0
   -6.0920   18.3470  -34.5990 C   0  0  0  0  0  0  0  0  0  0  0  0
   -5.6260   17.1070  -34.2700 N   0  0  0  0  0  0  0  0  0  0  0  0
   -2.3231   14.7876  -32.3011 H   0  0  0  0  0  0  0  0  0  0  0  0
   -3.0408   14.0087  -33.7519 H   0  0  0  0  0  0  0  0  0  0  0  0
   -2.7089   15.7741  -33.7519 H   0  0  0  0  0  0  0  0  0  0  0  0
   -8.9131   20.3275  -30.3697 H   0  0  0  0  0  0  0  0  0  0  0  0
   -9.7822   20.7107  -31.8943 H   0  0  0  0  0  0  0  0  0  0  0  0
   -8.4640   19.4906  -31.8943 H   0  0  0  0  0  0  0  0  0  0  0  0
   -9.2975   23.0540  -32.1272 H   0  0  0  0  0  0  0  0  0  0  0  0
   -7.6057   24.8044  -32.6077 H   0  0  0  0  0  0  0  0  0  0  0  0
   -5.1774   24.3045  -32.5279 H   0  0  0  0  0  0  0  0  0  0  0  0
   -4.3095   20.5119  -33.5159 H   0  0  0  0  0  0  0  0  0  0  0  0
   -1.8975   19.9269  -33.6024 H   0  0  0  0  0  0  0  0  0  0  0  0
   -0.3364   21.0889  -32.0486 H   0  0  0  0  0  0  0  0  0  0  0  0
   -1.1722   22.7951  -30.4529 H   0  0  0  0  0  0  0  0  0  0  0  0
   -5.7330   24.0420  -28.5850 H   0  0  0  0  0  0  0  0  0  0  0  0
   -5.7840   22.5750  -29.5380 H   0  0  0  0  0  0  0  0  0  0  0  0
   -6.5781   20.3142  -33.8494 H   0  0  0  0  0  0  0  0  0  0  0  0
   -6.3744   18.5811  -35.6360 H   0  0  0  0  0  0  0  0  0  0  0  0
   -5.5360   16.3770  -34.9980 H   0  0  0  0  0  0  0  0  0  0  0  0
  1  2  1  0
  2  3  1  0
  3  4  2  0
  4  5  1  0
  5  6  2  0
  6  7  1  0
  7  8  2  0
  8  9  1  0
  8 10  1  0
 10 11  2  0
 11 12  1  0
 12 13  2  0
 13 14  1  0
 14 15  2  0
 15 16  1  0
 16 17  2  0
 17 18  1  0
 18 19  2  0
 19 20  1  0
 20 21  1  0
 20 22  2  0
 20 23  2  0
  5 24  1  0
 24 25  2  0
 25 26  1  0
 26  3  1  0
 13  7  1  0
 19 14  1  0
  1 27  1  0
  1 28  1  0
  1 29  1  0
  9 30  1  0
  9 31  1  0
  9 32  1  0
 10 33  1  0
 11 34  1  0
 12 35  1  0
 15 36  1  0
 16 37  1  0
 17 38  1  0
 18 39  1  0
 21 40  1  0
 21 41  1  0
 24 42  1  0
 25 43  1  0
 26 44  1  0
M  END
>  <smiles>  (43) 
CSc1nc(=Nc2c(C)cccc2-c2ccccc2S(N)(=O)=O)cc[nH]1

>  <score_type>  (43) 
oracle

>  <origin>  (43) 
adgpu

>  <m_score__min__energy>  (43) 
-9.1099999999999994

>  <m_primary>  (43) 
energy

$$$$
43:0
     RDKit          3D

 37 39  0  0  0  0  0  0  0  0999 V2000
   -6.1160   17.6120  -34.1660 C   0  0  0  0  0  0  0  0  0  0  0  0
   -7.2260   17.5940  -33.1210 C   0  0  0  0  0  0  0  0  0  0  0  0
   -7.3740   18.9480  -32.4780 C   0  0  0  0  0  0  0  0  0  0  0  0
   -8.6490   19.4620  -32.2000 C   0  0  0  0  0  0  0  0  0  0  0  0
   -8.7940   20.7300  -31.6330 C   0  0  0  0  0  0  0  0  0  0  0  0
   -7.6620   21.5080  -31.3450 C   0  0  0  0  0  0  0  0  0  0  0  0
   -7.7970   22.7810  -30.7790 C   0  0  0  0  0  0  0  0  0  0  0  0
   -6.6670   23.5650  -30.4890 C   0  0  0  0  0  0  0  0  0  0  0  0
   -6.8680   24.9320  -29.8930 C   0  0  0  0  0  0  0  0  0  0  0  0
   -5.3740   23.0630  -30.7860 C   0  0  0  0  0  0  0  0  0  0  0  0
   -3.9040   24.0010  -30.4640 S   0  0  0  0  0  0  0  0  0  0  0  0
   -2.7510   23.4010  -31.2160 O   0  0  0  0  0  0  0  0  0  0  0  0
   -4.0790   25.4130  -30.9530 O   0  0  0  0  0  0  0  0  0  0  0  0
   -3.6070   24.0660  -28.7520 N   0  0  0  0  0  0  0  0  0  0  0  0
   -2.6150   24.8280  -28.0530 C   0  0  0  0  0  0  0  0  0  0  0  0
   -2.4880   24.8980  -26.6640 C   0  0  0  0  0  0  0  0  0  0  0  0
   -1.2070   25.9320  -26.3260 S   0  0  0  0  0  0  0  0  0  0  0  0
   -0.8670   26.2460  -27.9390 C   0  0  0  0  0  0  0  0  0  0  0  0
   -1.7180   25.5800  -28.7480 N   0  0  0  0  0  0  0  0  0  0  0  0
   -5.2460   21.7860  -31.3560 C   0  0  0  0  0  0  0  0  0  0  0  0
   -6.3760   21.0050  -31.6360 C   0  0  0  0  0  0  0  0  0  0  0  0
   -6.2400   19.7290  -32.2050 C   0  0  0  0  0  0  0  0  0  0  0  0
   -5.1383   17.6279  -33.6622 H   0  0  0  0  0  0  0  0  0  0  0  0
   -6.1899   16.7125  -34.7949 H   0  0  0  0  0  0  0  0  0  0  0  0
   -6.2190   18.5086  -34.7949 H   0  0  0  0  0  0  0  0  0  0  0  0
   -8.1742   17.3191  -33.6061 H   0  0  0  0  0  0  0  0  0  0  0  0
   -6.9680   16.8597  -32.3437 H   0  0  0  0  0  0  0  0  0  0  0  0
   -9.5416   18.8618  -32.4303 H   0  0  0  0  0  0  0  0  0  0  0  0
   -9.7984   21.1201  -31.4115 H   0  0  0  0  0  0  0  0  0  0  0  0
   -8.8008   23.1731  -30.5582 H   0  0  0  0  0  0  0  0  0  0  0  0
   -6.8572   24.8587  -28.7955 H   0  0  0  0  0  0  0  0  0  0  0  0
   -6.0583   25.5990  -30.2239 H   0  0  0  0  0  0  0  0  0  0  0  0
   -7.8354   25.3376  -30.2239 H   0  0  0  0  0  0  0  0  0  0  0  0
   -3.1122   24.3725  -25.9262 H   0  0  0  0  0  0  0  0  0  0  0  0
   -0.0596   26.9056  -28.2898 H   0  0  0  0  0  0  0  0  0  0  0  0
   -4.2447   21.3929  -31.5861 H   0  0  0  0  0  0  0  0  0  0  0  0
   -5.2384   19.3386  -32.4384 H   0  0  0  0  0  0  0  0  0  0  0  0
  1  2  1  0
  2  3  1  0
  3  4  2  0
  4  5  1  0
  5  6  2  0
  6  7  1  0
  7  8  2  0
  8  9  1  0
  8 10  1  0
 10 11  1  0
 11 12  2  0
 11 13  2  0
 11 14  1  0
 14 15  1  0
 15 16  2  0
 16 17  1  0
 17 18  1  0
 18 19  2  0
 10 20  2  0
 20 21  1  0
 21 22  2  0
 22  3  1  0
 21  6  1  0
 19 15  1  0
  1 23  1  0
  1 24  1  0
  1 25  1  0
  2 26  1  0
  2 27  1  0
  4 28  1  0
  5 29  1  0
  7 30  1  0
  9 31  1  0
  9 32  1  0
  9 33  1  0
 16 34  1  0
 18 35  1  0
 20 36  1  0
 22 37  1  0
M  CHG  1  14  -1
M  END
>  <UniqueID>  (44) 
43

>  <SMILES>  (44) 
CCc1ccc2cc(C)c(S(=O)(=O)[N-]c3cscn3)cc2c1

>  <Energy>  (44) 
75.72213109954566

>  <Genealogy>  (44) 
CCc1ccc2cc(C)c(S(=O)(=O)[N-]c3cscn3)cc2c1 (protonated)
CCc1ccc2cc(C)c(S(=O)(=O)[N-]c3cscn3)cc2c1 (3D coordinates assigned)
CCc1ccc2cc(C)c(S(=O)(=O)[N-]c3cscn3)cc2c1 (optimized conformer: 75.72213109954566 kcal/mol)

>  <smiles>  (44) 
CCc1ccc2cc(C)c(S(=O)(=O)Nc3cscn3)cc2c1

>  <score_type>  (44) 
oracle

>  <origin>  (44) 
adgpu

>  <m_score__min__energy>  (44) 
-10.449999999999999

>  <m_primary>  (44) 
energy

$$$$
44:0
     RDKit          3D

 66 71  0  0  0  0  0  0  0  0999 V2000
   -4.5030   25.1970  -30.8550 O   0  0  0  0  0  0  0  0  0  0  0  0
   -3.5510   24.4920  -30.4170 C   0  0  0  0  0  0  0  0  0  0  0  0
   -2.7450   24.9830  -29.3410 N   0  0  0  0  0  0  0  0  0  0  0  0
   -2.8990   24.5570  -27.9550 C   0  0  0  0  0  0  0  0  0  0  0  0
   -2.4870   23.1170  -27.8280 C   0  0  0  0  0  0  0  0  0  0  0  0
   -3.4620   22.0870  -27.8340 C   0  0  0  0  0  0  0  0  0  0  0  0
   -3.0720   20.7340  -27.8260 C   0  0  0  0  0  0  0  0  0  0  0  0
   -1.7100   20.4510  -27.8230 C   0  0  0  0  0  0  0  0  0  0  0  0
   -0.7720   21.4340  -27.8180 C   0  0  0  0  0  0  0  0  0  0  0  0
   -1.1160   22.7820  -27.8180 C   0  0  0  0  0  0  0  0  0  0  0  0
    0.4870   20.8680  -27.8420 O   0  0  0  0  0  0  0  0  0  0  0  0
    0.3320   19.4400  -27.8760 C   0  0  0  0  0  0  0  0  0  0  0  0
   -1.0860   19.2170  -27.8530 O   0  0  0  0  0  0  0  0  0  0  0  0
   -3.3290   23.1460  -30.9930 C   0  0  0  0  0  0  0  0  0  0  0  0
   -2.1490   22.4320  -30.7910 C   0  0  0  0  0  0  0  0  0  0  0  0
   -2.2310   21.3410  -31.6240 C   0  0  0  0  0  0  0  0  0  0  0  0
   -1.2850   20.3570  -31.9030 C   0  0  0  0  0  0  0  0  0  0  0  0
   -1.5890   19.4090  -32.9000 C   0  0  0  0  0  0  0  0  0  0  0  0
   -0.3750   18.2210  -33.3830 S   0  0  0  0  0  0  0  0  0  0  0  0
   -1.0560   17.0640  -34.0600 O   0  0  0  0  0  0  0  0  0  0  0  0
    0.3200   17.7000  -32.1570 O   0  0  0  0  0  0  0  0  0  0  0  0
    0.8090   18.9250  -34.4630 N   0  0  0  0  0  0  0  0  0  0  0  0
    1.3640   20.1910  -33.9200 C   0  0  0  0  0  0  0  0  0  0  0  0
    0.7360   21.4420  -34.5510 C   0  0  0  0  0  0  0  0  0  0  0  0
    0.9310   21.4580  -36.0790 C   0  0  0  0  0  0  0  0  0  0  0  0
    1.0440   20.0450  -36.6770 C   0  0  0  0  0  0  0  0  0  0  0  0
    0.2610   19.0320  -35.8340 C   0  0  0  0  0  0  0  0  0  0  0  0
   -2.8380   19.4580  -33.5620 C   0  0  0  0  0  0  0  0  0  0  0  0
   -3.7700   20.4650  -33.2560 C   0  0  0  0  0  0  0  0  0  0  0  0
   -3.4300   21.4040  -32.2770 C   0  0  0  0  0  0  0  0  0  0  0  0
   -4.1290   22.4950  -31.8910 N   0  0  0  0  0  0  0  0  0  0  0  0
   -5.4370   22.8930  -32.4290 C   0  0  0  0  0  0  0  0  0  0  0  0
   -6.4830   21.8190  -32.2220 C   0  0  0  0  0  0  0  0  0  0  0  0
   -6.6490   20.7560  -33.1320 C   0  0  0  0  0  0  0  0  0  0  0  0
   -7.6360   19.7900  -32.9150 C   0  0  0  0  0  0  0  0  0  0  0  0
   -8.4940   19.8940  -31.8170 C   0  0  0  0  0  0  0  0  0  0  0  0
   -9.4860   18.9410  -31.6160 O   0  0  0  0  0  0  0  0  0  0  0  0
   -8.3530   20.9580  -30.9210 C   0  0  0  0  0  0  0  0  0  0  0  0
   -7.3570   21.9180  -31.1240 C   0  0  0  0  0  0  0  0  0  0  0  0
   -2.2642   25.1791  -27.3069 H   0  0  0  0  0  0  0  0  0  0  0  0
   -3.9503   24.6672  -27.6508 H   0  0  0  0  0  0  0  0  0  0  0  0
   -4.5308   22.3470  -27.8450 H   0  0  0  0  0  0  0  0  0  0  0  0
   -3.8198   19.9273  -27.8222 H   0  0  0  0  0  0  0  0  0  0  0  0
   -0.3422   23.5638  -27.8104 H   0  0  0  0  0  0  0  0  0  0  0  0
    0.7733   19.0254  -28.7944 H   0  0  0  0  0  0  0  0  0  0  0  0
    0.8400   18.9501  -27.0322 H   0  0  0  0  0  0  0  0  0  0  0  0
   -1.3251   22.6876  -30.1085 H   0  0  0  0  0  0  0  0  0  0  0  0
   -0.3286   20.3213  -31.3607 H   0  0  0  0  0  0  0  0  0  0  0  0
    1.1819   20.2166  -32.8355 H   0  0  0  0  0  0  0  0  0  0  0  0
    2.4380   20.2073  -34.1571 H   0  0  0  0  0  0  0  0  0  0  0  0
   -0.3410   21.4536  -34.3273 H   0  0  0  0  0  0  0  0  0  0  0  0
    1.2315   22.3289  -34.1291 H   0  0  0  0  0  0  0  0  0  0  0  0
    0.0708   21.9670  -36.5384 H   0  0  0  0  0  0  0  0  0  0  0  0
    1.8739   21.9843  -36.2885 H   0  0  0  0  0  0  0  0  0  0  0  0
    0.6387   20.0529  -37.6996 H   0  0  0  0  0  0  0  0  0  0  0  0
    2.1038   19.7505  -36.6870 H   0  0  0  0  0  0  0  0  0  0  0  0
   -0.7894   19.3531  -35.7746 H   0  0  0  0  0  0  0  0  0  0  0  0
    0.3438   18.0465  -36.3156 H   0  0  0  0  0  0  0  0  0  0  0  0
   -3.0821   18.7018  -34.3227 H   0  0  0  0  0  0  0  0  0  0  0  0
   -4.7400   20.5130  -33.7724 H   0  0  0  0  0  0  0  0  0  0  0  0
   -5.7656   23.8119  -31.9215 H   0  0  0  0  0  0  0  0  0  0  0  0
   -5.3252   23.0559  -33.5111 H   0  0  0  0  0  0  0  0  0  0  0  0
   -5.9992   20.6860  -34.0168 H   0  0  0  0  0  0  0  0  0  0  0  0
   -7.7376   18.9446  -33.6114 H   0  0  0  0  0  0  0  0  0  0  0  0
   -9.0266   21.0399  -30.0552 H   0  0  0  0  0  0  0  0  0  0  0  0
   -7.2560   22.7570  -30.4199 H   0  0  0  0  0  0  0  0  0  0  0  0
  1  2  2  0
  2  3  1  0
  3  4  1  0
  4  5  1  0
  5  6  2  0
  6  7  1  0
  7  8  2  0
  8  9  1  0
  9 10  2  0
  9 11  1  0
 11 12  1  0
 12 13  1  0
  2 14  1  0
 14 15  2  0
 15 16  1  0
 16 17  2  0
 17 18  1  0
 18 19  1  0
 19 20  2  0
 19 21  2  0
 19 22  1  0
 22 23  1  0
 23 24  1  0
 24 25  1  0
 25 26  1  0
 26 27  1  0
 18 28  2  0
 28 29  1  0
 29 30  2  0
 30 31  1  0
 31 32  1  0
 32 33  1  0
 33 34  2  0
 34 35  1  0
 35 36  2  0
 36 37  1  0
 36 38  1  0
 38 39  2  0
 10  5  1  0
 31 14  1  0
 39 33  1  0
 13  8  1  0
 30 16  1  0
 27 22  1  0
  4 40  1  0
  4 41  1  0
  6 42  1  0
  7 43  1  0
 10 44  1  0
 12 45  1  0
 12 46  1  0
 15 47  1  0
 17 48  1  0
 23 49  1  0
 23 50  1  0
 24 51  1  0
 24 52  1  0
 25 53  1  0
 25 54  1  0
 26 55  1  0
 26 56  1  0
 27 57  1  0
 27 58  1  0
 28 59  1  0
 29 60  1  0
 32 61  1  0
 32 62  1  0
 34 63  1  0
 35 64  1  0
 38 65  1  0
 39 66  1  0
M  CHG  2   3  -1  37  -1
M  END
>  <UniqueID>  (45) 
44

>  <SMILES>  (45) 
O=C([N-]Cc1ccc2c(c1)OCO2)c1cc2cc(S(=O)(=O)N3CCCCC3)ccc2n1Cc1ccc([O-])cc1

>  <Energy>  (45) 
136.46203627759482

>  <Genealogy>  (45) 
O=C([N-]Cc1ccc2c(c1)OCO2)c1cc2cc(S(=O)(=O)N3CCCCC3)ccc2n1Cc1ccc([O-])cc1 (protonated)
O=C([N-]Cc1ccc2c(c1)OCO2)c1cc2cc(S(=O)(=O)N3CCCCC3)ccc2n1Cc1ccc([O-])cc1 (3D coordinates assigned)
O=C([N-]Cc1ccc2c(c1)OCO2)c1cc2cc(S(=O)(=O)N3CCCCC3)ccc2n1Cc1ccc([O-])cc1 (nonaromatic ring conformer: 136.46203627759482 kcal/mol)

>  <smiles>  (45) 
O=C(NCc1ccc2c(c1)OCO2)c1cc2cc(S(=O)(=O)N3CCCCC3)ccc2n1Cc1ccc(O)cc1

>  <score_type>  (45) 
oracle

>  <origin>  (45) 
adgpu

>  <m_score__min__energy>  (45) 
-12.1

>  <m_primary>  (45) 
energy

$$$$
45:0
     RDKit          3D

 70 74  0  0  0  0  0  0  0  0999 V2000
    0.3150   17.0890  -36.9310 O   0  0  0  0  0  0  0  0  0  0  0  0
    0.0890   17.4680  -35.7500 C   0  0  0  0  0  0  0  0  0  0  0  0
    1.1130   18.1850  -35.0480 N   0  0  0  0  0  0  0  0  0  0  0  0
    1.6550   19.4640  -35.4180 C   0  0  0  0  0  0  0  0  0  0  0  0
    2.8600   19.5640  -36.1380 C   0  0  0  0  0  0  0  0  0  0  0  0
    3.3480   20.8110  -36.5270 C   0  0  0  0  0  0  0  0  0  0  0  0
    2.6200   21.9670  -36.2420 C   0  0  0  0  0  0  0  0  0  0  0  0
    1.4020   21.8830  -35.5580 C   0  0  0  0  0  0  0  0  0  0  0  0
    0.6480   23.0390  -35.3920 O   0  0  0  0  0  0  0  0  0  0  0  0
    0.9310   20.6310  -35.1050 C   0  0  0  0  0  0  0  0  0  0  0  0
   -0.3060   20.4970  -34.3850 N   0  0  0  0  0  0  0  0  0  0  0  0
   -0.4780   20.5800  -32.9630 C   0  0  0  0  0  0  0  0  0  0  0  0
    0.3350   20.0020  -32.1890 O   0  0  0  0  0  0  0  0  0  0  0  0
   -1.6480   21.2850  -32.4020 C   0  0  0  0  0  0  0  0  0  0  0  0
   -1.5600   21.9320  -31.1560 C   0  0  0  0  0  0  0  0  0  0  0  0
   -2.6540   22.6340  -30.6420 C   0  0  0  0  0  0  0  0  0  0  0  0
   -3.8620   22.6780  -31.3550 C   0  0  0  0  0  0  0  0  0  0  0  0
   -5.2420   23.5740  -30.7120 S   0  0  0  0  0  0  0  0  0  0  0  0
   -5.1600   23.5840  -29.2110 O   0  0  0  0  0  0  0  0  0  0  0  0
   -5.1710   24.9970  -31.1910 O   0  0  0  0  0  0  0  0  0  0  0  0
   -6.7680   22.8900  -31.2210 N   0  0  0  0  0  0  0  0  0  0  0  0
   -7.6160   22.5850  -30.0600 C   0  0  0  0  0  0  0  0  0  0  0  0
   -8.9150   21.9010  -30.5360 C   0  0  0  0  0  0  0  0  0  0  0  0
   -9.1130   22.0190  -31.9360 O   0  0  0  0  0  0  0  0  0  0  0  0
   -8.9320   23.3620  -32.3430 C   0  0  0  0  0  0  0  0  0  0  0  0
   -7.4670   23.7980  -32.1480 C   0  0  0  0  0  0  0  0  0  0  0  0
   -3.9610   22.0170  -32.5860 C   0  0  0  0  0  0  0  0  0  0  0  0
   -2.8600   21.3360  -33.1130 C   0  0  0  0  0  0  0  0  0  0  0  0
   -1.2360   17.2120  -35.1460 C   0  0  0  0  0  0  0  0  0  0  0  0
   -1.6370   17.9140  -33.9980 C   0  0  0  0  0  0  0  0  0  0  0  0
   -2.8870   17.6710  -33.4210 C   0  0  0  0  0  0  0  0  0  0  0  0
   -3.7480   16.7170  -33.9790 C   0  0  0  0  0  0  0  0  0  0  0  0
   -5.3330   16.4220  -33.2610 S   0  0  0  0  0  0  0  0  0  0  0  0
   -6.1940   15.6870  -34.2500 O   0  0  0  0  0  0  0  0  0  0  0  0
   -5.1700   15.5480  -32.0490 O   0  0  0  0  0  0  0  0  0  0  0  0
   -6.1180   17.9100  -32.7960 N   0  0  0  0  0  0  0  0  0  0  0  0
   -6.1000   18.8720  -33.9060 C   0  0  0  0  0  0  0  0  0  0  0  0
   -6.7430   20.2010  -33.4530 C   0  0  0  0  0  0  0  0  0  0  0  0
   -7.4050   20.0820  -32.2040 O   0  0  0  0  0  0  0  0  0  0  0  0
   -8.2890   18.9790  -32.2330 C   0  0  0  0  0  0  0  0  0  0  0  0
   -7.5080   17.6540  -32.3760 C   0  0  0  0  0  0  0  0  0  0  0  0
   -3.3470   16.0040  -35.1170 C   0  0  0  0  0  0  0  0  0  0  0  0
   -2.1010   16.2520  -35.6980 C   0  0  0  0  0  0  0  0  0  0  0  0
    3.4203   18.6531  -36.3955 H   0  0  0  0  0  0  0  0  0  0  0  0
    4.3080   20.8836  -37.0592 H   0  0  0  0  0  0  0  0  0  0  0  0
    3.0051   22.9483  -36.5563 H   0  0  0  0  0  0  0  0  0  0  0  0
   -0.6230   21.8851  -30.5817 H   0  0  0  0  0  0  0  0  0  0  0  0
   -2.5679   23.1533  -29.6761 H   0  0  0  0  0  0  0  0  0  0  0  0
   -7.0757   21.9116  -29.3784 H   0  0  0  0  0  0  0  0  0  0  0  0
   -7.8652   23.5180  -29.5332 H   0  0  0  0  0  0  0  0  0  0  0  0
   -8.8665   20.8333  -30.2759 H   0  0  0  0  0  0  0  0  0  0  0  0
   -9.7574   22.4025  -30.0372 H   0  0  0  0  0  0  0  0  0  0  0  0
   -9.1982   23.4560  -33.4062 H   0  0  0  0  0  0  0  0  0  0  0  0
   -9.5775   24.0074  -31.7292 H   0  0  0  0  0  0  0  0  0  0  0  0
   -6.9543   23.7841  -33.1211 H   0  0  0  0  0  0  0  0  0  0  0  0
   -7.4554   24.8124  -31.7227 H   0  0  0  0  0  0  0  0  0  0  0  0
   -4.9105   22.0339  -33.1411 H   0  0  0  0  0  0  0  0  0  0  0  0
   -2.9422   20.8370  -34.0898 H   0  0  0  0  0  0  0  0  0  0  0  0
   -0.9636   18.6596  -33.5500 H   0  0  0  0  0  0  0  0  0  0  0  0
   -3.1956   18.2308  -32.5258 H   0  0  0  0  0  0  0  0  0  0  0  0
   -5.0601   19.0553  -34.2143 H   0  0  0  0  0  0  0  0  0  0  0  0
   -6.6694   18.4618  -34.7530 H   0  0  0  0  0  0  0  0  0  0  0  0
   -5.9546   20.9629  -33.3640 H   0  0  0  0  0  0  0  0  0  0  0  0
   -7.4936   20.4846  -34.2054 H   0  0  0  0  0  0  0  0  0  0  0  0
   -8.8688   18.9568  -31.2985 H   0  0  0  0  0  0  0  0  0  0  0  0
   -8.9603   19.0877  -33.0976 H   0  0  0  0  0  0  0  0  0  0  0  0
   -7.5022   17.1322  -31.4077 H   0  0  0  0  0  0  0  0  0  0  0  0
   -7.9998   17.0349  -33.1407 H   0  0  0  0  0  0  0  0  0  0  0  0
   -4.0151   15.2472  -35.5538 H   0  0  0  0  0  0  0  0  0  0  0  0
   -1.7949   15.6919  -36.5939 H   0  0  0  0  0  0  0  0  0  0  0  0
  1  2  2  0
  2  3  1  0
  3  4  1  0
  4  5  2  0
  5  6  1  0
  6  7  2  0
  7  8  1  0
  8  9  1  0
  8 10  2  0
 10 11  1  0
 11 12  1  0
 12 13  2  0
 12 14  1  0
 14 15  2  0
 15 16  1  0
 16 17  2  0
 17 18  1  0
 18 19  2  0
 18 20  2  0
 18 21  1  0
 21 22  1  0
 22 23  1  0
 23 24  1  0
 24 25  1  0
 25 26  1  0
 17 27  1  0
 27 28  2  0
  2 29  1  0
 29 30  2  0
 30 31  1  0
 31 32  2  0
 32 33  1  0
 33 34  2  0
 33 35  2  0
 33 36  1  0
 36 37  1  0
 37 38  1  0
 38 39  1  0
 39 40  1  0
 40 41  1  0
 32 42  1  0
 42 43  2  0
 10  4  1  0
 28 14  1  0
 43 29  1  0
 26 21  1  0
 41 36  1  0
  5 44  1  0
  6 45  1  0
  7 46  1  0
 15 47  1  0
 16 48  1  0
 22 49  1  0
 22 50  1  0
 23 51  1  0
 23 52  1  0
 25 53  1  0
 25 54  1  0
 26 55  1  0
 26 56  1  0
 27 57  1  0
 28 58  1  0
 30 59  1  0
 31 60  1  0
 37 61  1  0
 37 62  1  0
 38 63  1  0
 38 64  1  0
 40 65  1  0
 40 66  1  0
 41 67  1  0
 41 68  1  0
 42 69  1  0
 43 70  1  0
M  CHG  3   3  -1   9  -1  11  -1
M  END
>  <UniqueID>  (46) 
45

>  <SMILES>  (46) 
O=C([N-]c1cccc([O-])c1[N-]C(=O)c1ccc(S(=O)(=O)N2CCOCC2)cc1)c1ccc(S(=O)(=O)N2CCOCC2)cc1

>  <Energy>  (46) 
103.88337845736831

>  <Genealogy>  (46) 
O=C([N-]c1cccc([O-])c1[N-]C(=O)c1ccc(S(=O)(=O)N2CCOCC2)cc1)c1ccc(S(=O)(=O)N2CCOCC2)cc1 (protonated)
O=C([N-]c1cccc([O-])c1[N-]C(=O)c1ccc(S(=O)(=O)N2CCOCC2)cc1)c1ccc(S(=O)(=O)N2CCOCC2)cc1 (3D coordinates assigned)
O=C([N-]c1cccc([O-])c1[N-]C(=O)c1ccc(S(=O)(=O)N2CCOCC2)cc1)c1ccc(S(=O)(=O)N2CCOCC2)cc1 (nonaromatic ring conformer: 103.88337845736831 kcal/mol)

>  <smiles>  (46) 
O=C(Nc1cccc(O)c1NC(=O)c1ccc(S(=O)(=O)N2CCOCC2)cc1)c1ccc(S(=O)(=O)N2CCOCC2)cc1

>  <score_type>  (46) 
oracle

>  <origin>  (46) 
adgpu

>  <m_score__min__energy>  (46) 
-15.789999999999999

>  <m_primary>  (46) 
energy

$$$$
46:0
     RDKit          3D

 35 36  0  0  0  0  0  0  0  0999 V2000
   -6.5010   24.6560  -30.8430 O   0  0  0  0  0  0  0  0  0  0  0  0
   -5.9020   23.6090  -30.4790 C   0  0  0  0  0  0  0  0  0  0  0  0
   -6.4110   22.3310  -30.8730 N   0  0  0  0  0  0  0  0  0  0  0  0
   -6.8690   22.0280  -32.2220 C   0  0  0  0  0  0  0  0  0  0  0  0
   -7.7900   20.8030  -32.2030 C   0  0  0  0  0  0  0  0  0  0  0  0
   -7.0940   19.5230  -31.7030 C   0  0  0  0  0  0  0  0  0  0  0  0
   -6.2690   18.8500  -32.7790 C   0  0  0  0  0  0  0  0  0  0  0  0
   -6.8540   17.8160  -33.5290 C   0  0  0  0  0  0  0  0  0  0  0  0
   -6.1200   17.1390  -34.5050 C   0  0  0  0  0  0  0  0  0  0  0  0
   -4.7850   17.4810  -34.7440 C   0  0  0  0  0  0  0  0  0  0  0  0
   -4.0440   16.8010  -35.7090 O   0  0  0  0  0  0  0  0  0  0  0  0
   -4.1870   18.5080  -34.0060 C   0  0  0  0  0  0  0  0  0  0  0  0
   -2.8570   18.8360  -34.2440 O   0  0  0  0  0  0  0  0  0  0  0  0
   -4.9190   19.1970  -33.0250 C   0  0  0  0  0  0  0  0  0  0  0  0
   -4.1060   20.4690  -32.1110 Cl  0  0  0  0  0  0  0  0  0  0  0  0
   -4.6640   23.6880  -29.6630 C   0  0  0  0  0  0  0  0  0  0  0  0
   -4.4300   22.7240  -28.6610 C   0  0  0  0  0  0  0  0  0  0  0  0
   -3.2610   22.7590  -27.8970 C   0  0  0  0  0  0  0  0  0  0  0  0
   -2.3110   23.7540  -28.1150 C   0  0  0  0  0  0  0  0  0  0  0  0
   -2.5250   24.7210  -29.0990 C   0  0  0  0  0  0  0  0  0  0  0  0
   -1.5710   25.7110  -29.3090 O   0  0  0  0  0  0  0  0  0  0  0  0
   -3.6920   24.6950  -29.8750 C   0  0  0  0  0  0  0  0  0  0  0  0
   -3.8700   25.6660  -30.8560 O   0  0  0  0  0  0  0  0  0  0  0  0
   -7.4207   22.8918  -32.6215 H   0  0  0  0  0  0  0  0  0  0  0  0
   -5.9977   21.8135  -32.8583 H   0  0  0  0  0  0  0  0  0  0  0  0
   -8.6424   21.0177  -31.5416 H   0  0  0  0  0  0  0  0  0  0  0  0
   -8.1055   20.6174  -33.2403 H   0  0  0  0  0  0  0  0  0  0  0  0
   -6.4321   19.7865  -30.8649 H   0  0  0  0  0  0  0  0  0  0  0  0
   -7.8785   18.8164  -31.3943 H   0  0  0  0  0  0  0  0  0  0  0  0
   -7.9020   17.5367  -33.3453 H   0  0  0  0  0  0  0  0  0  0  0  0
   -6.5929   16.3346  -35.0875 H   0  0  0  0  0  0  0  0  0  0  0  0
   -3.0760   17.0350  -35.8960 H   0  0  0  0  0  0  0  0  0  0  0  0
   -5.1757   21.9361  -28.4790 H   0  0  0  0  0  0  0  0  0  0  0  0
   -3.0902   21.9984  -27.1209 H   0  0  0  0  0  0  0  0  0  0  0  0
   -1.3916   23.7779  -27.5115 H   0  0  0  0  0  0  0  0  0  0  0  0
  1  2  2  0
  2  3  1  0
  3  4  1  0
  4  5  1  0
  5  6  1  0
  6  7  1  0
  7  8  2  0
  8  9  1  0
  9 10  2  0
 10 11  1  0
 10 12  1  0
 12 13  1  0
 12 14  2  0
 14 15  1  0
  2 16  1  0
 16 17  2  0
 17 18  1  0
 18 19  2  0
 19 20  1  0
 20 21  1  0
 20 22  2  0
 22 23  1  0
 14  7  1  0
 22 16  1  0
  4 24  1  0
  4 25  1  0
  5 26  1  0
  5 27  1  0
  6 28  1  0
  6 29  1  0
  8 30  1  0
  9 31  1  0
 11 32  1  0
 17 33  1  0
 18 34  1  0
 19 35  1  0
M  CHG  4   3  -1  13  -1  21  -1  23  -1
M  END
>  <UniqueID>  (47) 
46

>  <SMILES>  (47) 
O=C([N-]CCCc1ccc(O)c([O-])c1Cl)c1cccc([O-])c1[O-]

>  <Energy>  (47) 
31.370228001836566

>  <Genealogy>  (47) 
O=C([N-]CCCc1ccc(O)c([O-])c1Cl)c1cccc([O-])c1[O-] (protonated)
O=C([N-]CCCc1ccc(O)c([O-])c1Cl)c1cccc([O-])c1[O-] (3D coordinates assigned)
O=C([N-]CCCc1ccc(O)c([O-])c1Cl)c1cccc([O-])c1[O-] (optimized conformer: 31.370228001836566 kcal/mol)

>  <smiles>  (47) 
O=C(NCCCc1ccc(O)c(O)c1Cl)c1cccc(O)c1O

>  <score_type>  (47) 
oracle

>  <origin>  (47) 
adgpu

>  <m_score__min__energy>  (47) 
-13.42

>  <m_primary>  (47) 
energy

$$$$
47:0
     RDKit          3D

 32 33  0  0  0  0  0  0  0  0999 V2000
   -3.6270   24.9200  -31.2200 H   0  0  0  0  0  0  0  0  0  0  0  0
   -4.5980   24.5610  -31.0740 N   0  0  0  0  0  0  0  0  0  0  0  0
   -4.9710   23.4110  -31.5380 C   0  0  0  0  0  0  0  0  0  0  0  0
   -4.0840   22.6390  -32.2360 N   0  0  0  0  0  0  0  0  0  0  0  0
   -4.5090   21.4420  -32.7020 C   0  0  0  0  0  0  0  0  0  0  0  0
   -5.7640   20.9840  -32.5020 C   0  0  0  0  0  0  0  0  0  0  0  0
   -5.9160   19.7710  -33.0700 N   0  0  0  0  0  0  0  0  0  0  0  0
   -4.6900   19.5330  -33.6100 C   0  0  0  0  0  0  0  0  0  0  0  0
   -4.4363   18.6104  -34.1526 H   0  0  0  0  0  0  0  0  0  0  0  0
   -3.8120   20.5480  -33.4120 N   0  0  0  0  0  0  0  0  0  0  0  0
   -2.4020   20.5910  -33.7780 C   0  0  0  0  0  0  0  0  0  0  0  0
   -1.7869   20.6098  -32.8662 H   0  0  0  0  0  0  0  0  0  0  0  0
   -2.1500   19.7001  -34.3720 H   0  0  0  0  0  0  0  0  0  0  0  0
   -2.2048   21.4956  -34.3720 H   0  0  0  0  0  0  0  0  0  0  0  0
   -6.6860   21.7560  -31.7960 C   0  0  0  0  0  0  0  0  0  0  0  0
   -8.0410   21.3070  -31.5750 N   0  0  0  0  0  0  0  0  0  0  0  0
   -9.1070   22.2860  -31.3120 C   0  0  0  0  0  0  0  0  0  0  0  0
  -10.0834   21.7835  -31.3770 H   0  0  0  0  0  0  0  0  0  0  0  0
   -8.9617   22.7067  -30.3061 H   0  0  0  0  0  0  0  0  0  0  0  0
   -9.0580   23.4200  -32.3310 C   0  0  0  0  0  0  0  0  0  0  0  0
   -9.0163   24.3848  -31.8042 H   0  0  0  0  0  0  0  0  0  0  0  0
   -8.1639   23.3077  -32.9618 H   0  0  0  0  0  0  0  0  0  0  0  0
   -9.9585   23.3853  -32.9618 H   0  0  0  0  0  0  0  0  0  0  0  0
   -8.3420   19.8710  -31.5220 C   0  0  0  0  0  0  0  0  0  0  0  0
   -7.3985   19.3058  -31.5427 H   0  0  0  0  0  0  0  0  0  0  0  0
   -8.8974   19.6660  -30.5949 H   0  0  0  0  0  0  0  0  0  0  0  0
   -9.2060   19.4420  -32.7080 C   0  0  0  0  0  0  0  0  0  0  0  0
  -10.1338   18.9813  -32.3381 H   0  0  0  0  0  0  0  0  0  0  0  0
   -9.4523   20.3224  -33.3197 H   0  0  0  0  0  0  0  0  0  0  0  0
   -8.6535   18.7136  -33.3197 H   0  0  0  0  0  0  0  0  0  0  0  0
   -6.2570   22.9720  -31.3260 N   0  0  0  0  0  0  0  0  0  0  0  0
   -6.9070   23.5710  -30.7710 H   0  0  0  0  0  0  0  0  0  0  0  0
  1  2  1  0
  2  3  2  0
  3  4  1  0
  4  5  2  0
  5  6  1  0
  6  7  1  0
  7  8  2  0
  8  9  1  0
  8 10  1  0
 10 11  1  0
 11 12  1  0
 11 13  1  0
 11 14  1  0
  6 15  2  0
 15 16  1  0
 16 17  1  0
 17 18  1  0
 17 19  1  0
 17 20  1  0
 20 21  1  0
 20 22  1  0
 20 23  1  0
 16 24  1  0
 24 25  1  0
 24 26  1  0
 24 27  1  0
 27 28  1  0
 27 29  1  0
 27 30  1  0
 15 31  1  0
 31 32  1  0
 31  3  1  0
 10  5  1  0
M  END
>  <UniqueID>  (48) 
47

>  <SMILES>  (48) 
[H]/N=c1\nc2c(ncn2C)c(N(CC)CC)[nH]1

>  <Energy>  (48) 
68.59820094067966

>  <Genealogy>  (48) 
[H]/N=c1\nc2c(ncn2C)c(N(CC)CC)[nH]1 (cis-trans isomerization)
[H]/N=c1\nc2c(ncn2C)c(N(CC)CC)[nH]1 (3D coordinates assigned)
[H]/N=c1\nc2c(ncn2C)c(N(CC)CC)[nH]1 (optimized conformer: 68.59820094067966 kcal/mol)

>  <smiles>  (48) 
CCN(CC)c1[nH]c(=N)nc2c1ncn2C

>  <score_type>  (48) 
oracle

>  <origin>  (48) 
adgpu

>  <m_score__min__energy>  (48) 
-5.5199999999999996

>  <m_primary>  (48) 
energy

$$$$
48:0
     RDKit          3D

 58 61  0  0  0  0  0  0  0  0999 V2000
   -4.0100   25.0050  -30.6490 O   0  0  0  0  0  0  0  0  0  0  0  0
   -3.7500   23.8000  -30.3780 C   0  0  0  0  0  0  0  0  0  0  0  0
   -2.7530   23.4920  -29.3890 N   0  0  0  0  0  0  0  0  0  0  0  0
   -2.3480   24.3980  -28.3490 C   0  0  0  0  0  0  0  0  0  0  0  0
   -3.0850   24.5230  -27.1570 C   0  0  0  0  0  0  0  0  0  0  0  0
   -2.6500   25.3860  -26.1460 C   0  0  0  0  0  0  0  0  0  0  0  0
   -1.4660   26.1190  -26.3010 C   0  0  0  0  0  0  0  0  0  0  0  0
   -0.9000   27.1800  -25.0080 S   0  0  0  0  0  0  0  0  0  0  0  0
   -1.5840   26.8050  -23.7230 O   0  0  0  0  0  0  0  0  0  0  0  0
   -1.2730   28.6000  -25.3360 O   0  0  0  0  0  0  0  0  0  0  0  0
    0.8330   27.0730  -24.7960 N   0  0  0  0  0  0  0  0  0  0  0  0
    1.2120   27.1060  -23.3660 C   0  0  0  0  0  0  0  0  0  0  0  0
    1.8000   28.4680  -22.9560 C   0  0  0  0  0  0  0  0  0  0  0  0
    2.9490   28.8350  -23.7090 O   0  0  0  0  0  0  0  0  0  0  0  0
    2.9280   28.3730  -25.0540 C   0  0  0  0  0  0  0  0  0  0  0  0
    1.5160   28.1050  -25.6000 C   0  0  0  0  0  0  0  0  0  0  0  0
   -0.7270   25.9910  -27.4840 C   0  0  0  0  0  0  0  0  0  0  0  0
   -1.1600   25.1290  -28.4960 C   0  0  0  0  0  0  0  0  0  0  0  0
   -4.4420   22.7200  -31.1200 C   0  0  0  0  0  0  0  0  0  0  0  0
   -3.7790   22.0280  -32.1490 C   0  0  0  0  0  0  0  0  0  0  0  0
   -4.4280   21.0110  -32.8540 C   0  0  0  0  0  0  0  0  0  0  0  0
   -5.7540   20.6790  -32.5530 C   0  0  0  0  0  0  0  0  0  0  0  0
   -6.5580   19.3830  -33.4360 S   0  0  0  0  0  0  0  0  0  0  0  0
   -6.4730   19.6750  -34.9090 O   0  0  0  0  0  0  0  0  0  0  0  0
   -8.0100   19.3260  -33.0440 O   0  0  0  0  0  0  0  0  0  0  0  0
   -5.7770   17.8610  -33.0890 N   0  0  0  0  0  0  0  0  0  0  0  0
   -6.5050   16.7610  -33.7370 C   0  0  0  0  0  0  0  0  0  0  0  0
   -5.7820   15.4200  -33.4910 C   0  0  0  0  0  0  0  0  0  0  0  0
   -4.5660   15.5920  -32.7860 O   0  0  0  0  0  0  0  0  0  0  0  0
   -3.7370   16.5000  -33.4830 C   0  0  0  0  0  0  0  0  0  0  0  0
   -4.3820   17.8990  -33.5620 C   0  0  0  0  0  0  0  0  0  0  0  0
   -6.4250   21.3660  -31.5350 C   0  0  0  0  0  0  0  0  0  0  0  0
   -5.7760   22.3810  -30.8250 C   0  0  0  0  0  0  0  0  0  0  0  0
   -2.2160   22.6030  -29.4980 H   0  0  0  0  0  0  0  0  0  0  0  0
   -4.0073   23.9395  -27.0196 H   0  0  0  0  0  0  0  0  0  0  0  0
   -3.2408   25.4899  -25.2239 H   0  0  0  0  0  0  0  0  0  0  0  0
    0.3177   26.9076  -22.7570 H   0  0  0  0  0  0  0  0  0  0  0  0
    1.9838   26.3397  -23.2016 H   0  0  0  0  0  0  0  0  0  0  0  0
    1.0282   29.2386  -23.0990 H   0  0  0  0  0  0  0  0  0  0  0  0
    2.1129   28.3843  -21.9048 H   0  0  0  0  0  0  0  0  0  0  0  0
    3.4059   29.1337  -25.6888 H   0  0  0  0  0  0  0  0  0  0  0  0
    3.4634   27.4122  -25.0694 H   0  0  0  0  0  0  0  0  0  0  0  0
    0.9319   29.0364  -25.5634 H   0  0  0  0  0  0  0  0  0  0  0  0
    1.5998   27.7475  -26.6369 H   0  0  0  0  0  0  0  0  0  0  0  0
    0.1980   26.5712  -27.6174 H   0  0  0  0  0  0  0  0  0  0  0  0
   -0.5643   25.0233  -29.4147 H   0  0  0  0  0  0  0  0  0  0  0  0
   -2.7407   22.2895  -32.4011 H   0  0  0  0  0  0  0  0  0  0  0  0
   -3.8946   20.4691  -33.6488 H   0  0  0  0  0  0  0  0  0  0  0  0
   -7.5224   16.7058  -33.3226 H   0  0  0  0  0  0  0  0  0  0  0  0
   -6.5481   16.9502  -34.8198 H   0  0  0  0  0  0  0  0  0  0  0  0
   -6.4420   14.7635  -32.9050 H   0  0  0  0  0  0  0  0  0  0  0  0
   -5.5462   14.9776  -34.4702 H   0  0  0  0  0  0  0  0  0  0  0  0
   -2.7725   16.5789  -32.9600 H   0  0  0  0  0  0  0  0  0  0  0  0
   -3.5943   16.1247  -34.5071 H   0  0  0  0  0  0  0  0  0  0  0  0
   -3.8077   18.5966  -32.9347 H   0  0  0  0  0  0  0  0  0  0  0  0
   -4.3748   18.2312  -34.6106 H   0  0  0  0  0  0  0  0  0  0  0  0
   -7.4662   21.1068  -31.2926 H   0  0  0  0  0  0  0  0  0  0  0  0
   -6.3124   22.9189  -30.0294 H   0  0  0  0  0  0  0  0  0  0  0  0
  1  2  2  0
  2  3  1  0
  3  4  1  0
  4  5  2  0
  5  6  1  0
  6  7  2  0
  7  8  1  0
  8  9  2  0
  8 10  2  0
  8 11  1  0
 11 12  1  0
 12 13  1  0
 13 14  1  0
 14 15  1  0
 15 16  1  0
  7 17  1  0
 17 18  2  0
  2 19  1  0
 19 20  2  0
 20 21  1  0
 21 22  2  0
 22 23  1  0
 23 24  2  0
 23 25  2  0
 23 26  1  0
 26 27  1  0
 27 28  1  0
 28 29  1  0
 29 30  1  0
 30 31  1  0
 22 32  1  0
 32 33  2  0
 18  4  1  0
 33 19  1  0
 16 11  1  0
 31 26  1  0
  3 34  1  0
  5 35  1  0
  6 36  1  0
 12 37  1  0
 12 38  1  0
 13 39  1  0
 13 40  1  0
 15 41  1  0
 15 42  1  0
 16 43  1  0
 16 44  1  0
 17 45  1  0
 18 46  1  0
 20 47  1  0
 21 48  1  0
 27 49  1  0
 27 50  1  0
 28 51  1  0
 28 52  1  0
 30 53  1  0
 30 54  1  0
 31 55  1  0
 31 56  1  0
 32 57  1  0
 33 58  1  0
M  END
>  <UniqueID>  (49) 
48

>  <SMILES>  (49) 
O=C(Nc1ccc(S(=O)(=O)N2CCOCC2)cc1)c1ccc(S(=O)(=O)N2CCOCC2)cc1

>  <Energy>  (49) 
84.78949533564804

>  <Genealogy>  (49) 
O=C(Nc1ccc(S(=O)(=O)N2CCOCC2)cc1)c1ccc(S(=O)(=O)N2CCOCC2)cc1 (3D coordinates assigned)
O=C(Nc1ccc(S(=O)(=O)N2CCOCC2)cc1)c1ccc(S(=O)(=O)N2CCOCC2)cc1 (nonaromatic ring conformer: 84.78949533564804 kcal/mol)

>  <smiles>  (49) 
O=C(Nc1ccc(S(=O)(=O)N2CCOCC2)cc1)c1ccc(S(=O)(=O)N2CCOCC2)cc1

>  <score_type>  (49) 
oracle

>  <origin>  (49) 
adgpu

>  <m_score__min__energy>  (49) 
-9.9399999999999995

>  <m_primary>  (49) 
energy

$$$$
49:0
     RDKit          3D

 23 24  0  0  0  0  0  0  0  0999 V2000
    0.1600   24.9250  -28.2880 O   0  0  0  0  0  0  0  0  0  0  0  0
   -1.0380   24.5830  -28.4600 C   0  0  0  0  0  0  0  0  0  0  0  0
   -1.8160   25.2600  -29.3430 N   0  0  0  0  0  0  0  0  0  0  0  0
   -3.1140   24.9140  -29.5430 C   0  0  0  0  0  0  0  0  0  0  0  0
   -3.8790   25.6300  -30.4540 O   0  0  0  0  0  0  0  0  0  0  0  0
   -3.6750   23.8490  -28.8240 C   0  0  0  0  0  0  0  0  0  0  0  0
   -5.0460   23.4710  -29.0490 N   0  0  0  0  0  0  0  0  0  0  0  0
   -5.5090   22.7470  -30.2020 C   0  0  0  0  0  0  0  0  0  0  0  0
   -6.8820   22.7370  -30.4940 C   0  0  0  0  0  0  0  0  0  0  0  0
   -7.3670   22.0390  -31.6030 C   0  0  0  0  0  0  0  0  0  0  0  0
   -9.0830   22.0510  -31.9660 Cl  0  0  0  0  0  0  0  0  0  0  0  0
   -6.4850   21.3300  -32.4220 C   0  0  0  0  0  0  0  0  0  0  0  0
   -5.1190   21.3100  -32.1280 C   0  0  0  0  0  0  0  0  0  0  0  0
   -4.6250   22.0040  -31.0140 C   0  0  0  0  0  0  0  0  0  0  0  0
   -3.2670   21.9390  -30.7030 O   0  0  0  0  0  0  0  0  0  0  0  0
   -2.8410   23.1460  -27.9340 C   0  0  0  0  0  0  0  0  0  0  0  0
   -3.2700   22.1460  -27.2990 O   0  0  0  0  0  0  0  0  0  0  0  0
   -1.5500   23.5330  -27.7680 N   0  0  0  0  0  0  0  0  0  0  0  0
   -5.7570   23.7630  -28.3400 H   0  0  0  0  0  0  0  0  0  0  0  0
   -7.5818   23.2832  -29.8444 H   0  0  0  0  0  0  0  0  0  0  0  0
   -6.8662   20.7868  -33.2993 H   0  0  0  0  0  0  0  0  0  0  0  0
   -4.4282   20.7474  -32.7732 H   0  0  0  0  0  0  0  0  0  0  0  0
   -2.7500   22.7580  -30.4040 H   0  0  0  0  0  0  0  0  0  0  0  0
  1  2  2  0
  2  3  1  0
  3  4  1  0
  4  5  1  0
  4  6  2  0
  6  7  1  0
  7  8  1  0
  8  9  2  0
  9 10  1  0
 10 11  1  0
 10 12  2  0
 12 13  1  0
 13 14  2  0
 14 15  1  0
  6 16  1  0
 16 17  2  0
 16 18  1  0
 18  2  1  0
 14  8  1  0
  7 19  1  0
  9 20  1  0
 12 21  1  0
 13 22  1  0
 15 23  1  0
M  CHG  3   3  -1   5  -1  18  -1
M  END
>  <UniqueID>  (50) 
49

>  <SMILES>  (50) 
O=c1[n-]c([O-])c(Nc2cc(Cl)ccc2O)c(=O)[n-]1

>  <Energy>  (50) 
33.48340037136901

>  <Genealogy>  (50) 
O=c1[n-]c([O-])c(Nc2cc(Cl)ccc2O)c(=O)[n-]1 (protonated)
O=c1[n-]c([O-])c(Nc2cc(Cl)ccc2O)c(=O)[n-]1 (3D coordinates assigned)
O=c1[n-]c([O-])c(Nc2cc(Cl)ccc2O)c(=O)[n-]1 (optimized conformer: 33.48340037136901 kcal/mol)

>  <smiles>  (50) 
O=c1[nH]c(O)c(Nc2cc(Cl)ccc2O)c(=O)[nH]1

>  <score_type>  (50) 
oracle

>  <origin>  (50) 
adgpu

>  <m_score__min__energy>  (50) 
-12.279999999999999

>  <m_primary>  (50) 
energy

$$$$
