0:0
     RDKit          3D

 53 56  0  0  0  0  0  0  0  0999 V2000
   -2.4660   19.9900  -27.4710 C   0  0  0  0  0  0  0  0  0  0  0  0
   -2.4380   21.3910  -28.0050 C   0  0  0  0  0  0  0  0  0  0  0  0
   -1.2360   21.9590  -28.4530 C   0  0  0  0  0  0  0  0  0  0  0  0
   -1.2220   23.2540  -28.9720 C   0  0  0  0  0  0  0  0  0  0  0  0
   -2.4070   23.9900  -29.0690 C   0  0  0  0  0  0  0  0  0  0  0  0
   -2.3510   25.2940  -29.5440 O   0  0  0  0  0  0  0  0  0  0  0  0
   -3.6290   23.4140  -28.6650 C   0  0  0  0  0  0  0  0  0  0  0  0
   -4.8730   24.1250  -28.7680 N   0  0  0  0  0  0  0  0  0  0  0  0
   -5.5200   24.6660  -30.2840 S   0  0  0  0  0  0  0  0  0  0  0  0
   -4.4170   25.1810  -31.1680 O   0  0  0  0  0  0  0  0  0  0  0  0
   -6.5250   25.7560  -30.0350 O   0  0  0  0  0  0  0  0  0  0  0  0
   -6.2990   23.3190  -31.0910 C   0  0  0  0  0  0  0  0  0  0  0  0
   -5.7450   22.0630  -31.2760 C   0  0  0  0  0  0  0  0  0  0  0  0
   -6.5900   21.1840  -31.9770 C   0  0  0  0  0  0  0  0  0  0  0  0
   -6.2310   19.7800  -32.2960 C   0  0  0  0  0  0  0  0  0  0  0  0
   -7.1960   18.7590  -32.2160 C   0  0  0  0  0  0  0  0  0  0  0  0
   -6.8600   17.4410  -32.5320 C   0  0  0  0  0  0  0  0  0  0  0  0
   -5.5610   17.1250  -32.9340 C   0  0  0  0  0  0  0  0  0  0  0  0
   -4.5880   18.1280  -33.0220 C   0  0  0  0  0  0  0  0  0  0  0  0
   -2.9500   17.7340  -33.5530 S   0  0  0  0  0  0  0  0  0  0  0  0
   -2.4490   16.5470  -32.7760 O   0  0  0  0  0  0  0  0  0  0  0  0
   -2.9760   17.3580  -35.0090 O   0  0  0  0  0  0  0  0  0  0  0  0
   -1.8570   19.0800  -33.3220 N   0  0  0  0  0  0  0  0  0  0  0  0
   -1.5990   19.3360  -31.8870 C   0  0  0  0  0  0  0  0  0  0  0  0
   -2.3530   20.5790  -31.3780 C   0  0  0  0  0  0  0  0  0  0  0  0
   -2.0190   21.7650  -32.0860 O   0  0  0  0  0  0  0  0  0  0  0  0
   -1.7240   21.5500  -33.4620 C   0  0  0  0  0  0  0  0  0  0  0  0
   -2.3470   20.2700  -34.0420 C   0  0  0  0  0  0  0  0  0  0  0  0
   -4.9230   19.4500  -32.6940 C   0  0  0  0  0  0  0  0  0  0  0  0
   -7.8050   21.7710  -32.3410 C   0  0  0  0  0  0  0  0  0  0  0  0
   -7.8230   23.3610  -31.7910 S   0  0  0  0  0  0  0  0  0  0  0  0
   -3.6300   22.1220  -28.1190 C   0  0  0  0  0  0  0  0  0  0  0  0
   -2.4655   20.0167  -26.3713 H   0  0  0  0  0  0  0  0  0  0  0  0
   -3.3745   19.4808  -27.8250 H   0  0  0  0  0  0  0  0  0  0  0  0
   -1.5786   19.4449  -27.8250 H   0  0  0  0  0  0  0  0  0  0  0  0
   -0.3016   21.3815  -28.3949 H   0  0  0  0  0  0  0  0  0  0  0  0
   -0.2732   23.6986  -29.3068 H   0  0  0  0  0  0  0  0  0  0  0  0
   -5.5390   24.0810  -27.9660 H   0  0  0  0  0  0  0  0  0  0  0  0
   -4.7459   21.7817  -30.9117 H   0  0  0  0  0  0  0  0  0  0  0  0
   -8.2222   19.0008  -31.9023 H   0  0  0  0  0  0  0  0  0  0  0  0
   -7.6209   16.6496  -32.4640 H   0  0  0  0  0  0  0  0  0  0  0  0
   -5.3012   16.0854  -33.1823 H   0  0  0  0  0  0  0  0  0  0  0  0
   -1.9245   18.4605  -31.3059 H   0  0  0  0  0  0  0  0  0  0  0  0
   -0.5213   19.5178  -31.7627 H   0  0  0  0  0  0  0  0  0  0  0  0
   -3.4332   20.4007  -31.4845 H   0  0  0  0  0  0  0  0  0  0  0  0
   -2.0610   20.7315  -30.3285 H   0  0  0  0  0  0  0  0  0  0  0  0
   -2.1021   22.4093  -34.0353 H   0  0  0  0  0  0  0  0  0  0  0  0
   -0.6326   21.4364  -33.5397 H   0  0  0  0  0  0  0  0  0  0  0  0
   -3.4414   20.3252  -33.9457 H   0  0  0  0  0  0  0  0  0  0  0  0
   -2.0611   20.1856  -35.1008 H   0  0  0  0  0  0  0  0  0  0  0  0
   -4.1555   20.2361  -32.7486 H   0  0  0  0  0  0  0  0  0  0  0  0
   -8.6156   21.2754  -32.8954 H   0  0  0  0  0  0  0  0  0  0  0  0
   -4.5758   21.6770  -27.7764 H   0  0  0  0  0  0  0  0  0  0  0  0
  1  2  1  0
  2  3  2  0
  3  4  1  0
  4  5  2  0
  5  6  1  0
  5  7  1  0
  7  8  1  0
  8  9  1  0
  9 10  2  0
  9 11  2  0
  9 12  1  0
 12 13  2  0
 13 14  1  0
 14 15  1  0
 15 16  2  0
 16 17  1  0
 17 18  2  0
 18 19  1  0
 19 20  1  0
 20 21  2  0
 20 22  2  0
 20 23  1  0
 23 24  1  0
 24 25  1  0
 25 26  1  0
 26 27  1  0
 27 28  1  0
 19 29  2  0
 14 30  2  0
 30 31  1  0
  7 32  2  0
 32  2  1  0
 31 12  1  0
 29 15  1  0
 28 23  1  0
  1 33  1  0
  1 34  1  0
  1 35  1  0
  3 36  1  0
  4 37  1  0
  8 38  1  0
 13 39  1  0
 16 40  1  0
 17 41  1  0
 18 42  1  0
 24 43  1  0
 24 44  1  0
 25 45  1  0
 25 46  1  0
 27 47  1  0
 27 48  1  0
 28 49  1  0
 28 50  1  0
 29 51  1  0
 30 52  1  0
 32 53  1  0
M  CHG  1   6  -1
M  END
>  <UniqueID>  (1) 
1

>  <SMILES>  (1) 
Cc1ccc([O-])c(NS(=O)(=O)c2cc(-c3cccc(S(=O)(=O)N4CCOCC4)c3)cs2)c1

>  <Energy>  (1) 
102.82528843599985

>  <Genealogy>  (1) 
Cc1ccc([O-])c(NS(=O)(=O)c2cc(-c3cccc(S(=O)(=O)N4CCOCC4)c3)cs2)c1 (protonated)
Cc1ccc([O-])c(NS(=O)(=O)c2cc(-c3cccc(S(=O)(=O)N4CCOCC4)c3)cs2)c1 (3D coordinates assigned)
Cc1ccc([O-])c(NS(=O)(=O)c2cc(-c3cccc(S(=O)(=O)N4CCOCC4)c3)cs2)c1 (nonaromatic ring conformer: 102.82528843599985 kcal/mol)

>  <smiles>  (1) 
Cc1ccc(O)c(NS(=O)(=O)c2cc(-c3cccc(S(=O)(=O)N4CCOCC4)c3)cs2)c1

>  <score_type>  (1) 
oracle

>  <origin>  (1) 
adgpu

>  <m_score__min__energy>  (1) 
-14.07

>  <m_primary>  (1) 
energy

$$$$
1:0
     RDKit          3D

 65 68  0  0  0  0  0  0  0  0999 V2000
    0.0570   19.1790  -28.5330 C   0  0  0  0  0  0  0  0  0  0  0  0
   -0.3460   20.0930  -27.4520 N   0  0  0  0  0  0  0  0  0  0  0  0
   -1.7030   19.7710  -26.9480 C   0  0  0  0  0  0  0  0  0  0  0  0
   -2.7690   20.7390  -27.4820 C   0  0  0  0  0  0  0  0  0  0  0  0
   -2.4840   22.1390  -27.0790 N   0  0  0  0  0  0  0  0  0  0  0  0
   -3.1990   23.1100  -27.9370 C   0  0  0  0  0  0  0  0  0  0  0  0
   -2.4490   24.4420  -28.0210 C   0  0  0  0  0  0  0  0  0  0  0  0
   -2.4510   24.9200  -29.3970 N   0  0  0  0  0  0  0  0  0  0  0  0
   -3.4900   24.6000  -30.3280 C   0  0  0  0  0  0  0  0  0  0  0  0
   -4.3810   25.4550  -30.5900 O   0  0  0  0  0  0  0  0  0  0  0  0
   -3.5300   23.2570  -30.9560 C   0  0  0  0  0  0  0  0  0  0  0  0
   -2.3340   22.5250  -31.0580 C   0  0  0  0  0  0  0  0  0  0  0  0
   -2.3230   21.2370  -31.6020 C   0  0  0  0  0  0  0  0  0  0  0  0
   -0.8040   20.3570  -31.7520 S   0  0  0  0  0  0  0  0  0  0  0  0
   -0.9970   18.9430  -31.2780 O   0  0  0  0  0  0  0  0  0  0  0  0
    0.2430   21.0100  -30.8900 O   0  0  0  0  0  0  0  0  0  0  0  0
   -0.3060   20.3440  -33.4260 N   0  0  0  0  0  0  0  0  0  0  0  0
   -0.8160   21.5110  -34.1450 C   0  0  0  0  0  0  0  0  0  0  0  0
    0.1470   21.7650  -35.2920 C   0  0  0  0  0  0  0  0  0  0  0  0
    1.4460   21.0870  -34.8800 C   0  0  0  0  0  0  0  0  0  0  0  0
    1.1490   20.4160  -33.5470 C   0  0  0  0  0  0  0  0  0  0  0  0
   -3.5160   20.6660  -32.0520 C   0  0  0  0  0  0  0  0  0  0  0  0
   -4.7120   21.3780  -31.9630 C   0  0  0  0  0  0  0  0  0  0  0  0
   -4.7370   22.6790  -31.4290 C   0  0  0  0  0  0  0  0  0  0  0  0
   -5.9630   23.4360  -31.4410 N   0  0  0  0  0  0  0  0  0  0  0  0
   -6.9340   23.3460  -32.5290 C   0  0  0  0  0  0  0  0  0  0  0  0
   -7.8820   22.2170  -32.2800 C   0  0  0  0  0  0  0  0  0  0  0  0
   -9.1620   22.3340  -31.7550 C   0  0  0  0  0  0  0  0  0  0  0  0
   -9.8540   21.1180  -31.7160 C   0  0  0  0  0  0  0  0  0  0  0  0
   -9.1270   20.0470  -32.2210 C   0  0  0  0  0  0  0  0  0  0  0  0
   -7.6250   20.6160  -32.7220 S   0  0  0  0  0  0  0  0  0  0  0  0
   -1.0310   22.4430  -27.0090 C   0  0  0  0  0  0  0  0  0  0  0  0
   -0.1940   21.5000  -27.8860 C   0  0  0  0  0  0  0  0  0  0  0  0
    0.4647   18.2544  -28.0985 H   0  0  0  0  0  0  0  0  0  0  0  0
   -0.8181   18.9374  -29.1542 H   0  0  0  0  0  0  0  0  0  0  0  0
    0.8256   19.6621  -29.1542 H   0  0  0  0  0  0  0  0  0  0  0  0
   -1.9637   18.7496  -27.2622 H   0  0  0  0  0  0  0  0  0  0  0  0
   -1.6849   19.8623  -25.8519 H   0  0  0  0  0  0  0  0  0  0  0  0
   -2.7873   20.6800  -28.5803 H   0  0  0  0  0  0  0  0  0  0  0  0
   -3.7416   20.4491  -27.0578 H   0  0  0  0  0  0  0  0  0  0  0  0
   -3.2957   22.6897  -28.9489 H   0  0  0  0  0  0  0  0  0  0  0  0
   -4.1887   23.2981  -27.4953 H   0  0  0  0  0  0  0  0  0  0  0  0
   -2.9449   25.1823  -27.3759 H   0  0  0  0  0  0  0  0  0  0  0  0
   -1.4110   24.2976  -27.6868 H   0  0  0  0  0  0  0  0  0  0  0  0
   -1.3931   22.9721  -30.7047 H   0  0  0  0  0  0  0  0  0  0  0  0
   -1.8247   21.3071  -34.5336 H   0  0  0  0  0  0  0  0  0  0  0  0
   -0.8865   22.3868  -33.4831 H   0  0  0  0  0  0  0  0  0  0  0  0
   -0.2386   21.3258  -36.2239 H   0  0  0  0  0  0  0  0  0  0  0  0
    0.2862   22.8395  -35.4816 H   0  0  0  0  0  0  0  0  0  0  0  0
    1.7436   20.3387  -35.6293 H   0  0  0  0  0  0  0  0  0  0  0  0
    2.2742   21.8064  -34.7993 H   0  0  0  0  0  0  0  0  0  0  0  0
    1.5812   19.4047  -33.5274 H   0  0  0  0  0  0  0  0  0  0  0  0
    1.5871   20.9837  -32.7128 H   0  0  0  0  0  0  0  0  0  0  0  0
   -3.5121   19.6518  -32.4778 H   0  0  0  0  0  0  0  0  0  0  0  0
   -5.6467   20.9167  -32.3145 H   0  0  0  0  0  0  0  0  0  0  0  0
   -6.1090   24.1610  -30.7020 H   0  0  0  0  0  0  0  0  0  0  0  0
   -7.4986   24.2880  -32.5915 H   0  0  0  0  0  0  0  0  0  0  0  0
   -6.4002   23.1659  -33.4738 H   0  0  0  0  0  0  0  0  0  0  0  0
   -9.5888   23.2856  -31.4053 H   0  0  0  0  0  0  0  0  0  0  0  0
  -10.8766   21.0195  -31.3228 H   0  0  0  0  0  0  0  0  0  0  0  0
   -9.4742   19.0050  -32.2827 H   0  0  0  0  0  0  0  0  0  0  0  0
   -0.8695   23.4770  -27.3476 H   0  0  0  0  0  0  0  0  0  0  0  0
   -0.7090   22.3062  -25.9661 H   0  0  0  0  0  0  0  0  0  0  0  0
   -0.5263   21.5916  -28.9306 H   0  0  0  0  0  0  0  0  0  0  0  0
    0.8649   21.7824  -27.7907 H   0  0  0  0  0  0  0  0  0  0  0  0
  1  2  1  0
  2  3  1  0
  3  4  1  0
  4  5  1  0
  5  6  1  0
  6  7  1  0
  7  8  1  0
  8  9  1  0
  9 10  2  0
  9 11  1  0
 11 12  2  0
 12 13  1  0
 13 14  1  0
 14 15  2  0
 14 16  2  0
 14 17  1  0
 17 18  1  0
 18 19  1  0
 19 20  1  0
 20 21  1  0
 13 22  2  0
 22 23  1  0
 23 24  2  0
 24 25  1  0
 25 26  1  0
 26 27  1  0
 27 28  2  0
 28 29  1  0
 29 30  2  0
 30 31  1  0
  5 32  1  0
 32 33  1  0
 33  2  1  0
 24 11  1  0
 31 27  1  0
 21 17  1  0
  1 34  1  0
  1 35  1  0
  1 36  1  0
  3 37  1  0
  3 38  1  0
  4 39  1  0
  4 40  1  0
  6 41  1  0
  6 42  1  0
  7 43  1  0
  7 44  1  0
 12 45  1  0
 18 46  1  0
 18 47  1  0
 19 48  1  0
 19 49  1  0
 20 50  1  0
 20 51  1  0
 21 52  1  0
 21 53  1  0
 22 54  1  0
 23 55  1  0
 25 56  1  0
 26 57  1  0
 26 58  1  0
 28 59  1  0
 29 60  1  0
 30 61  1  0
 32 62  1  0
 32 63  1  0
 33 64  1  0
 33 65  1  0
M  CHG  1   8  -1
M  END
>  <UniqueID>  (2) 
2

>  <SMILES>  (2) 
CN1CCN(CC[N-]C(=O)c2cc(S(=O)(=O)N3CCCC3)ccc2NCc2cccs2)CC1

>  <Energy>  (2) 
106.23576602075656

>  <Genealogy>  (2) 
CN1CCN(CC[N-]C(=O)c2cc(S(=O)(=O)N3CCCC3)ccc2NCc2cccs2)CC1 (protonated)
CN1CCN(CC[N-]C(=O)c2cc(S(=O)(=O)N3CCCC3)ccc2NCc2cccs2)CC1 (3D coordinates assigned)
CN1CCN(CC[N-]C(=O)c2cc(S(=O)(=O)N3CCCC3)ccc2NCc2cccs2)CC1 (nonaromatic ring conformer: 106.23576602075656 kcal/mol)

>  <smiles>  (2) 
CN1CCN(CCNC(=O)c2cc(S(=O)(=O)N3CCCC3)ccc2NCc2cccs2)CC1

>  <score_type>  (2) 
oracle

>  <origin>  (2) 
adgpu

>  <m_score__min__energy>  (2) 
-11.029999999999999

>  <m_primary>  (2) 
energy

$$$$
2:0
     RDKit          3D

 76 81  0  0  0  0  0  0  0  0999 V2000
   -6.6490   22.6690  -32.7130 O   0  0  0  0  0  0  0  0  0  0  0  0
   -6.2460   22.0430  -31.6940 C   0  0  0  0  0  0  0  0  0  0  0  0
   -6.6360   20.6720  -31.5050 N   0  0  0  0  0  0  0  0  0  0  0  0
   -7.1450   19.8520  -32.6110 C   0  0  2  0  0  0  0  0  0  0  0  0
   -7.5870   18.4570  -32.0970 C   0  0  0  0  0  0  0  0  0  0  0  0
   -6.4230   17.4590  -32.0940 C   0  0  0  0  0  0  0  0  0  0  0  0
   -5.8260   17.2540  -33.5160 C   0  0  1  0  0  0  0  0  0  0  0  0
   -6.1360   15.8650  -34.1380 C   0  0  0  0  0  0  0  0  0  0  0  0
   -5.0330   14.7860  -34.0430 C   0  0  0  0  0  0  0  0  0  0  0  0
   -3.6670   15.3510  -34.1010 N   0  0  0  0  0  0  0  0  0  0  0  0
   -3.3010   15.9390  -32.7980 C   0  0  0  0  0  0  0  0  0  0  0  0
   -1.8240   16.3410  -32.7960 C   0  0  0  0  0  0  0  0  0  0  0  0
   -1.4460   17.2750  -33.9650 C   0  0  0  0  0  0  0  0  0  0  0  0
   -1.6170   18.7500  -33.6240 C   0  0  0  0  0  0  0  0  0  0  0  0
   -2.6850   19.2480  -32.8360 C   0  0  0  0  0  0  0  0  0  0  0  0
   -2.7850   20.6240  -32.5390 C   0  0  0  0  0  0  0  0  0  0  0  0
   -1.8210   21.5280  -33.0150 C   0  0  0  0  0  0  0  0  0  0  0  0
   -0.7770   21.0160  -33.7760 C   0  0  0  0  0  0  0  0  0  0  0  0
   -0.6760   19.6930  -34.0680 C   0  0  0  0  0  0  0  0  0  0  0  0
    0.4640   19.4840  -34.8250 O   0  0  0  0  0  0  0  0  0  0  0  0
    1.1090   20.7490  -35.0270 C   0  0  0  0  0  0  0  0  0  0  0  0
    0.2870   21.6990  -34.3370 O   0  0  0  0  0  0  0  0  0  0  0  0
   -2.1070   16.8630  -35.3010 C   0  0  0  0  0  0  0  0  0  0  0  0
   -3.5550   16.3760  -35.1600 C   0  0  0  0  0  0  0  0  0  0  0  0
   -6.1260   18.4310  -34.4780 C   0  0  0  0  0  0  0  0  0  0  0  0
   -6.0740   19.7680  -33.7300 C   0  0  0  0  0  0  0  0  0  0  0  0
   -5.3710   22.7310  -30.7120 C   0  0  0  0  0  0  0  0  0  0  0  0
   -4.3820   22.0260  -30.0020 C   0  0  0  0  0  0  0  0  0  0  0  0
   -3.5470   22.6890  -29.1000 C   0  0  0  0  0  0  0  0  0  0  0  0
   -3.6690   24.0740  -28.8970 C   0  0  0  0  0  0  0  0  0  0  0  0
   -2.7570   24.7800  -27.9600 C   0  0  0  0  0  0  0  0  0  0  0  0
   -3.0990   24.9250  -26.6010 C   0  0  0  0  0  0  0  0  0  0  0  0
   -2.2310   25.5710  -25.7160 C   0  0  0  0  0  0  0  0  0  0  0  0
   -1.0130   26.0790  -26.1750 C   0  0  0  0  0  0  0  0  0  0  0  0
   -0.6630   25.9420  -27.5210 C   0  0  0  0  0  0  0  0  0  0  0  0
   -1.5280   25.2980  -28.4110 C   0  0  0  0  0  0  0  0  0  0  0  0
   -4.6510   24.7810  -29.6110 C   0  0  0  0  0  0  0  0  0  0  0  0
   -5.4920   24.1180  -30.5090 C   0  0  0  0  0  0  0  0  0  0  0  0
   -6.5500   20.2470  -30.5530 H   0  0  0  0  0  0  0  0  0  0  0  0
   -8.0404   20.3221  -33.0437 H   0  0  0  0  0  0  0  0  0  0  0  0
   -7.9708   18.5602  -31.0713 H   0  0  0  0  0  0  0  0  0  0  0  0
   -8.3658   18.0735  -32.7725 H   0  0  0  0  0  0  0  0  0  0  0  0
   -5.6330   17.8371  -31.4285 H   0  0  0  0  0  0  0  0  0  0  0  0
   -6.8081   16.4896  -31.7447 H   0  0  0  0  0  0  0  0  0  0  0  0
   -4.7364   17.2581  -33.3654 H   0  0  0  0  0  0  0  0  0  0  0  0
   -7.0303   15.4692  -33.6345 H   0  0  0  0  0  0  0  0  0  0  0  0
   -6.2532   16.0565  -35.2149 H   0  0  0  0  0  0  0  0  0  0  0  0
   -5.1499   14.2478  -33.0908 H   0  0  0  0  0  0  0  0  0  0  0  0
   -5.1503   14.1176  -34.9087 H   0  0  0  0  0  0  0  0  0  0  0  0
   -3.9202   16.8294  -32.6143 H   0  0  0  0  0  0  0  0  0  0  0  0
   -3.4713   15.1936  -32.0072 H   0  0  0  0  0  0  0  0  0  0  0  0
   -1.6038   16.8579  -31.8503 H   0  0  0  0  0  0  0  0  0  0  0  0
   -1.2345   15.4194  -32.9105 H   0  0  0  0  0  0  0  0  0  0  0  0
   -0.3661   17.1421  -34.1266 H   0  0  0  0  0  0  0  0  0  0  0  0
   -3.4457   18.5529  -32.4510 H   0  0  0  0  0  0  0  0  0  0  0  0
   -3.6242   20.9914  -31.9301 H   0  0  0  0  0  0  0  0  0  0  0  0
   -1.8900   22.6032  -32.7932 H   0  0  0  0  0  0  0  0  0  0  0  0
    2.1244   20.7371  -34.6041 H   0  0  0  0  0  0  0  0  0  0  0  0
    1.2152   20.9928  -36.0944 H   0  0  0  0  0  0  0  0  0  0  0  0
   -2.0994   17.7338  -35.9731 H   0  0  0  0  0  0  0  0  0  0  0  0
   -1.5249   16.0169  -35.6950 H   0  0  0  0  0  0  0  0  0  0  0  0
   -4.1987   17.2303  -34.9036 H   0  0  0  0  0  0  0  0  0  0  0  0
   -3.8699   15.9300  -36.1149 H   0  0  0  0  0  0  0  0  0  0  0  0
   -5.3774   18.4386  -35.2839 H   0  0  0  0  0  0  0  0  0  0  0  0
   -7.1348   18.2982  -34.8959 H   0  0  0  0  0  0  0  0  0  0  0  0
   -5.0781   19.8827  -33.2772 H   0  0  0  0  0  0  0  0  0  0  0  0
   -6.2774   20.5700  -34.4548 H   0  0  0  0  0  0  0  0  0  0  0  0
   -4.2654   20.9435  -30.1586 H   0  0  0  0  0  0  0  0  0  0  0  0
   -2.7867   22.1216  -28.5432 H   0  0  0  0  0  0  0  0  0  0  0  0
   -4.0563   24.5268  -26.2336 H   0  0  0  0  0  0  0  0  0  0  0  0
   -2.5072   25.6796  -24.6568 H   0  0  0  0  0  0  0  0  0  0  0  0
   -0.3302   26.5863  -25.4775 H   0  0  0  0  0  0  0  0  0  0  0  0
    0.2961   26.3421  -27.8815 H   0  0  0  0  0  0  0  0  0  0  0  0
   -1.2467   25.1955  -29.4695 H   0  0  0  0  0  0  0  0  0  0  0  0
   -4.7588   25.8655  -29.4620 H   0  0  0  0  0  0  0  0  0  0  0  0
   -6.2551   24.6854  -31.0619 H   0  0  0  0  0  0  0  0  0  0  0  0
  1  2  2  0
  2  3  1  0
  3  4  1  0
  4  5  1  0
  5  6  1  0
  6  7  1  0
  7  8  1  0
  8  9  1  0
  9 10  1  0
 10 11  1  0
 11 12  1  0
 12 13  1  0
 13 14  1  0
 14 15  2  0
 15 16  1  0
 16 17  2  0
 17 18  1  0
 18 19  2  0
 19 20  1  0
 20 21  1  0
 21 22  1  0
 13 23  1  0
 23 24  1  0
  7 25  1  0
 25 26  1  0
  2 27  1  0
 27 28  2  0
 28 29  1  0
 29 30  2  0
 30 31  1  0
 31 32  2  0
 32 33  1  0
 33 34  2  0
 34 35  1  0
 35 36  2  0
 30 37  1  0
 37 38  2  0
 26  4  1  0
 38 27  1  0
 24 10  1  0
 36 31  1  0
 19 14  1  0
 22 18  1  0
  3 39  1  0
  4 40  1  6
  5 41  1  0
  5 42  1  0
  6 43  1  0
  6 44  1  0
  7 45  1  1
  8 46  1  0
  8 47  1  0
  9 48  1  0
  9 49  1  0
 11 50  1  0
 11 51  1  0
 12 52  1  0
 12 53  1  0
 13 54  1  0
 15 55  1  0
 16 56  1  0
 17 57  1  0
 21 58  1  0
 21 59  1  0
 23 60  1  0
 23 61  1  0
 24 62  1  0
 24 63  1  0
 25 64  1  0
 25 65  1  0
 26 66  1  0
 26 67  1  0
 28 68  1  0
 29 69  1  0
 32 70  1  0
 33 71  1  0
 34 72  1  0
 35 73  1  0
 36 74  1  0
 37 75  1  0
 38 76  1  0
M  END
>  <UniqueID>  (3) 
3

>  <SMILES>  (3) 
O=C(NC1CCC(CCN2CCC(c3cccc4c3OCO4)CC2)CC1)c1ccc(-c2ccccc2)cc1

>  <Energy>  (3) 
123.36661425554217

>  <Genealogy>  (3) 
O=C(NC1CCC(CCN2CCC(c3cccc4c3OCO4)CC2)CC1)c1ccc(-c2ccccc2)cc1 (3D coordinates assigned)
O=C(NC1CCC(CCN2CCC(c3cccc4c3OCO4)CC2)CC1)c1ccc(-c2ccccc2)cc1 (nonaromatic ring conformer: 123.36661425554217 kcal/mol)

>  <smiles>  (3) 
O=C(NC1CCC(CCN2CCC(c3cccc4c3OCO4)CC2)CC1)c1ccc(-c2ccccc2)cc1

>  <score_type>  (3) 
oracle

>  <origin>  (3) 
adgpu

>  <m_score__min__energy>  (3) 
-11.029999999999999

>  <m_primary>  (3) 
energy

$$$$
3:0
     RDKit          3D

 54 57  0  0  0  0  0  0  0  0999 V2000
    5.0630   20.1590  -28.4540 C   0  0  0  0  0  0  0  0  0  0  0  0
    4.8010   19.6670  -27.1130 N   0  0  0  0  0  0  0  0  0  0  0  0
    4.1650   18.0520  -27.1930 S   0  0  0  0  0  0  0  0  0  0  0  0
    4.1820   17.4410  -25.8160 O   0  0  0  0  0  0  0  0  0  0  0  0
    5.0280   17.2220  -28.1000 O   0  0  0  0  0  0  0  0  0  0  0  0
    2.5090   18.0760  -27.7890 C   0  0  0  0  0  0  0  0  0  0  0  0
    1.9040   16.9020  -28.2550 C   0  0  0  0  0  0  0  0  0  0  0  0
    0.6210   16.9460  -28.8040 C   0  0  0  0  0  0  0  0  0  0  0  0
   -0.0630   18.1600  -28.8960 C   0  0  0  0  0  0  0  0  0  0  0  0
    0.5260   19.3490  -28.4270 C   0  0  0  0  0  0  0  0  0  0  0  0
   -0.1890   20.6490  -28.5570 C   0  0  0  0  0  0  0  0  0  0  0  0
   -0.4930   21.1780  -29.8320 C   0  0  0  0  0  0  0  0  0  0  0  0
   -1.2310   22.3580  -29.9530 C   0  0  0  0  0  0  0  0  0  0  0  0
   -1.6810   23.0290  -28.8090 C   0  0  0  0  0  0  0  0  0  0  0  0
   -2.7490   24.4220  -28.9860 S   0  0  0  0  0  0  0  0  0  0  0  0
   -3.8280   24.4290  -27.9280 O   0  0  0  0  0  0  0  0  0  0  0  0
   -1.9280   25.6760  -28.8660 O   0  0  0  0  0  0  0  0  0  0  0  0
   -3.4830   24.3600  -30.5620 N   0  0  0  0  0  0  0  0  0  0  0  0
   -4.7820   23.8050  -30.8210 C   0  0  0  0  0  0  0  0  0  0  0  0
   -4.9370   22.5990  -31.5280 C   0  0  0  0  0  0  0  0  0  0  0  0
   -6.2120   22.1180  -31.8520 C   0  0  0  0  0  0  0  0  0  0  0  0
   -7.3500   22.8480  -31.4620 C   0  0  0  0  0  0  0  0  0  0  0  0
   -7.2000   24.0390  -30.7370 C   0  0  0  0  0  0  0  0  0  0  0  0
   -5.9220   24.5090  -30.4070 C   0  0  0  0  0  0  0  0  0  0  0  0
   -5.7830   25.6880  -29.6860 O   0  0  0  0  0  0  0  0  0  0  0  0
   -8.7180   22.3500  -31.8430 C   0  0  0  0  0  0  0  0  0  0  0  0
   -8.7490   20.8240  -31.7540 C   0  0  0  0  0  0  0  0  0  0  0  0
   -7.7320   20.1990  -32.7210 C   0  0  0  0  0  0  0  0  0  0  0  0
   -6.3300   20.8620  -32.6960 C   0  0  0  0  0  0  0  0  0  0  0  0
   -1.3510   22.5330  -27.5400 C   0  0  0  0  0  0  0  0  0  0  0  0
   -0.6090   21.3530  -27.4150 C   0  0  0  0  0  0  0  0  0  0  0  0
    1.8190   19.2910  -27.8710 C   0  0  0  0  0  0  0  0  0  0  0  0
    5.5793   21.1285  -28.3945 H   0  0  0  0  0  0  0  0  0  0  0  0
    5.6968   19.4384  -28.9916 H   0  0  0  0  0  0  0  0  0  0  0  0
    4.1113   20.2827  -28.9916 H   0  0  0  0  0  0  0  0  0  0  0  0
    2.4404   15.9439  -28.1884 H   0  0  0  0  0  0  0  0  0  0  0  0
    0.1474   16.0213  -29.1653 H   0  0  0  0  0  0  0  0  0  0  0  0
   -1.0698   18.1871  -29.3384 H   0  0  0  0  0  0  0  0  0  0  0  0
   -0.1458   20.6565  -30.7361 H   0  0  0  0  0  0  0  0  0  0  0  0
   -1.4595   22.7616  -30.9505 H   0  0  0  0  0  0  0  0  0  0  0  0
   -4.0471   22.0272  -31.8298 H   0  0  0  0  0  0  0  0  0  0  0  0
   -8.0895   24.6066  -30.4261 H   0  0  0  0  0  0  0  0  0  0  0  0
   -4.9960   25.8310  -29.0590 H   0  0  0  0  0  0  0  0  0  0  0  0
   -9.4662   22.7724  -31.1562 H   0  0  0  0  0  0  0  0  0  0  0  0
   -8.9475   22.6615  -32.8727 H   0  0  0  0  0  0  0  0  0  0  0  0
   -8.5042   20.5179  -30.7262 H   0  0  0  0  0  0  0  0  0  0  0  0
   -9.7557   20.4758  -32.0285 H   0  0  0  0  0  0  0  0  0  0  0  0
   -7.6149   19.1374  -32.4577 H   0  0  0  0  0  0  0  0  0  0  0  0
   -8.1311   20.3489  -33.7350 H   0  0  0  0  0  0  0  0  0  0  0  0
   -5.6138   20.1239  -32.3058 H   0  0  0  0  0  0  0  0  0  0  0  0
   -6.1275   21.1754  -33.7308 H   0  0  0  0  0  0  0  0  0  0  0  0
   -1.6766   23.0734  -26.6389 H   0  0  0  0  0  0  0  0  0  0  0  0
   -0.3524   20.9733  -26.4150 H   0  0  0  0  0  0  0  0  0  0  0  0
    2.2918   20.2111  -27.4970 H   0  0  0  0  0  0  0  0  0  0  0  0
  1  2  1  0
  2  3  1  0
  3  4  2  0
  3  5  2  0
  3  6  1  0
  6  7  2  0
  7  8  1  0
  8  9  2  0
  9 10  1  0
 10 11  1  0
 11 12  2  0
 12 13  1  0
 13 14  2  0
 14 15  1  0
 15 16  2  0
 15 17  2  0
 15 18  1  0
 18 19  1  0
 19 20  2  0
 20 21  1  0
 21 22  2  0
 22 23  1  0
 23 24  2  0
 24 25  1  0
 22 26  1  0
 26 27  1  0
 27 28  1  0
 28 29  1  0
 14 30  1  0
 30 31  2  0
 10 32  2  0
 32  6  1  0
 31 11  1  0
 24 19  1  0
 29 21  1  0
  1 33  1  0
  1 34  1  0
  1 35  1  0
  7 36  1  0
  8 37  1  0
  9 38  1  0
 12 39  1  0
 13 40  1  0
 20 41  1  0
 23 42  1  0
 25 43  1  0
 26 44  1  0
 26 45  1  0
 27 46  1  0
 27 47  1  0
 28 48  1  0
 28 49  1  0
 29 50  1  0
 29 51  1  0
 30 52  1  0
 31 53  1  0
 32 54  1  0
M  CHG  2   2  -1  18  -1
M  END
>  <UniqueID>  (4) 
4

>  <SMILES>  (4) 
C[N-]S(=O)(=O)c1cccc(-c2ccc(S(=O)(=O)[N-]c3cc4c(cc3O)CCCC4)cc2)c1

>  <Energy>  (4) 
67.70306507946029

>  <Genealogy>  (4) 
C[N-]S(=O)(=O)c1cccc(-c2ccc(S(=O)(=O)[N-]c3cc4c(cc3O)CCCC4)cc2)c1 (protonated)
C[N-]S(=O)(=O)c1cccc(-c2ccc(S(=O)(=O)[N-]c3cc4c(cc3O)CCCC4)cc2)c1 (3D coordinates assigned)
C[N-]S(=O)(=O)c1cccc(-c2ccc(S(=O)(=O)[N-]c3cc4c(cc3O)CCCC4)cc2)c1 (nonaromatic ring conformer: 67.70306507946029 kcal/mol)

>  <smiles>  (4) 
CNS(=O)(=O)c1cccc(-c2ccc(S(=O)(=O)Nc3cc4c(cc3O)CCCC4)cc2)c1

>  <score_type>  (4) 
oracle

>  <origin>  (4) 
adgpu

>  <m_score__min__energy>  (4) 
-12.98

>  <m_primary>  (4) 
energy

$$$$
4:0
     RDKit          3D

 29 31  0  0  0  0  0  0  0  0999 V2000
    0.5670   22.3830  -25.8490 O   0  0  0  0  0  0  0  0  0  0  0  0
   -0.4750   22.1230  -26.5050 C   0  0  0  0  0  0  0  0  0  0  0  0
   -1.1980   20.8960  -26.3870 N   0  0  0  0  0  0  0  0  0  0  0  0
   -2.2770   21.0680  -27.3080 C   0  0  0  0  0  0  0  0  0  0  0  0
   -3.1630   20.1980  -27.5120 O   0  0  0  0  0  0  0  0  0  0  0  0
   -2.2070   22.3660  -27.9650 C   0  0  0  0  0  0  0  0  0  0  0  0
   -3.0340   22.9520  -28.9200 C   0  0  0  0  0  0  0  0  0  0  0  0
   -2.7070   24.2480  -29.3860 C   0  0  0  0  0  0  0  0  0  0  0  0
   -3.5000   24.9160  -30.3760 N   0  0  0  0  0  0  0  0  0  0  0  0
   -5.2330   24.8850  -30.4550 S   0  0  0  0  0  0  0  0  0  0  0  0
   -5.7880   24.9290  -29.0580 O   0  0  0  0  0  0  0  0  0  0  0  0
   -5.7120   26.0920  -31.2110 O   0  0  0  0  0  0  0  0  0  0  0  0
   -5.7740   23.4350  -31.2930 C   0  0  0  0  0  0  0  0  0  0  0  0
   -4.8430   22.6120  -31.9420 C   0  0  0  0  0  0  0  0  0  0  0  0
   -5.2680   21.4520  -32.5990 C   0  0  0  0  0  0  0  0  0  0  0  0
   -6.6240   21.1120  -32.6120 C   0  0  0  0  0  0  0  0  0  0  0  0
   -7.5570   21.9330  -31.9700 C   0  0  0  0  0  0  0  0  0  0  0  0
   -7.1340   23.0930  -31.3130 C   0  0  0  0  0  0  0  0  0  0  0  0
   -1.5640   24.9100  -28.8690 C   0  0  0  0  0  0  0  0  0  0  0  0
   -1.2360   26.1830  -29.3190 O   0  0  0  0  0  0  0  0  0  0  0  0
   -0.7520   24.2890  -27.9030 C   0  0  0  0  0  0  0  0  0  0  0  0
   -1.1020   23.0120  -27.4730 C   0  0  0  0  0  0  0  0  0  0  0  0
   -3.9185   22.4215  -29.3023 H   0  0  0  0  0  0  0  0  0  0  0  0
   -3.7759   22.8788  -31.9347 H   0  0  0  0  0  0  0  0  0  0  0  0
   -4.5348   20.8072  -33.1056 H   0  0  0  0  0  0  0  0  0  0  0  0
   -6.9572   20.1989  -33.1270 H   0  0  0  0  0  0  0  0  0  0  0  0
   -8.6241   21.6661  -31.9819 H   0  0  0  0  0  0  0  0  0  0  0  0
   -7.8696   23.7385  -30.8109 H   0  0  0  0  0  0  0  0  0  0  0  0
    0.1351   24.7983  -27.4984 H   0  0  0  0  0  0  0  0  0  0  0  0
  1  2  2  0
  2  3  1  0
  3  4  1  0
  4  5  2  0
  4  6  1  0
  6  7  2  0
  7  8  1  0
  8  9  1  0
  9 10  1  0
 10 11  2  0
 10 12  2  0
 10 13  1  0
 13 14  2  0
 14 15  1  0
 15 16  2  0
 16 17  1  0
 17 18  2  0
  8 19  2  0
 19 20  1  0
 19 21  1  0
 21 22  2  0
 22  2  1  0
 22  6  1  0
 18 13  1  0
  7 23  1  0
 14 24  1  0
 15 25  1  0
 16 26  1  0
 17 27  1  0
 18 28  1  0
 21 29  1  0
M  CHG  3   3  -1   9  -1  20  -1
M  END
>  <UniqueID>  (5) 
5

>  <SMILES>  (5) 
O=C1[N-]C(=O)c2cc([N-]S(=O)(=O)c3ccccc3)c([O-])cc21

>  <Energy>  (5) 
65.41796447758983

>  <Genealogy>  (5) 
O=C1[N-]C(=O)c2cc([N-]S(=O)(=O)c3ccccc3)c([O-])cc21 (protonated)
O=C1[N-]C(=O)c2cc([N-]S(=O)(=O)c3ccccc3)c([O-])cc21 (3D coordinates assigned)
O=C1[N-]C(=O)c2cc([N-]S(=O)(=O)c3ccccc3)c([O-])cc21 (nonaromatic ring conformer: 65.41796447758983 kcal/mol)

>  <smiles>  (5) 
O=C1NC(=O)c2cc(NS(=O)(=O)c3ccccc3)c(O)cc21

>  <score_type>  (5) 
oracle

>  <origin>  (5) 
adgpu

>  <m_score__min__energy>  (5) 
-12.619999999999999

>  <m_primary>  (5) 
energy

$$$$
5:0
     RDKit          3D

 46 49  0  0  0  0  0  0  0  0999 V2000
   -0.6270   19.8600  -29.7290 C   0  0  0  0  0  0  0  0  0  0  0  0
   -1.7840   20.7900  -29.9790 C   0  0  0  0  0  0  0  0  0  0  0  0
   -2.3720   21.4530  -28.8870 C   0  0  0  0  0  0  0  0  0  0  0  0
   -3.4650   22.2990  -29.0740 C   0  0  0  0  0  0  0  0  0  0  0  0
   -3.9780   22.5130  -30.3570 C   0  0  0  0  0  0  0  0  0  0  0  0
   -5.4260   23.4900  -30.5730 S   0  0  0  0  0  0  0  0  0  0  0  0
   -5.7720   24.1610  -29.2730 O   0  0  0  0  0  0  0  0  0  0  0  0
   -5.1920   24.5540  -31.6090 O   0  0  0  0  0  0  0  0  0  0  0  0
   -6.7410   22.4410  -31.0940 C   0  0  0  0  0  0  0  0  0  0  0  0
   -7.9770   22.4080  -30.4110 C   0  0  0  0  0  0  0  0  0  0  0  0
   -9.0080   21.5330  -30.8350 C   0  0  0  0  0  0  0  0  0  0  0  0
   -8.8130   20.6810  -31.9380 C   0  0  0  0  0  0  0  0  0  0  0  0
   -7.5820   20.7410  -32.5830 C   0  0  0  0  0  0  0  0  0  0  0  0
   -7.1470   20.0410  -33.6390 N   0  0  0  0  0  0  0  0  0  0  0  0
   -5.9270   20.4770  -33.8380 O   0  0  0  0  0  0  0  0  0  0  0  0
   -5.5400   21.4020  -32.9930 N   0  0  0  0  0  0  0  0  0  0  0  0
   -6.5950   21.5800  -32.1830 C   0  0  0  0  0  0  0  0  0  0  0  0
   -3.3820   21.8840  -31.4540 C   0  0  0  0  0  0  0  0  0  0  0  0
   -2.2860   21.0240  -31.2830 C   0  0  0  0  0  0  0  0  0  0  0  0
   -1.6420   20.1810  -32.7020 S   0  0  0  0  0  0  0  0  0  0  0  0
   -0.5230   20.9760  -33.3150 O   0  0  0  0  0  0  0  0  0  0  0  0
   -1.0970   18.8420  -32.2940 O   0  0  0  0  0  0  0  0  0  0  0  0
   -2.9070   19.9600  -33.8730 N   0  0  0  0  0  0  0  0  0  0  0  0
   -3.0430   18.5360  -34.1890 C   0  0  0  0  0  0  0  0  0  0  0  0
   -4.3860   18.0430  -33.7290 C   0  0  0  0  0  0  0  0  0  0  0  0
   -4.7610   18.1540  -32.3830 C   0  0  0  0  0  0  0  0  0  0  0  0
   -5.9990   17.6640  -31.9620 C   0  0  0  0  0  0  0  0  0  0  0  0
   -6.8460   17.0570  -32.8900 C   0  0  0  0  0  0  0  0  0  0  0  0
   -6.4620   16.9430  -34.1890 N   0  0  0  0  0  0  0  0  0  0  0  0
   -5.2630   17.4120  -34.6250 C   0  0  0  0  0  0  0  0  0  0  0  0
   -0.4794   19.7414  -28.6454 H   0  0  0  0  0  0  0  0  0  0  0  0
   -0.8407   18.8795  -30.1795 H   0  0  0  0  0  0  0  0  0  0  0  0
    0.2846   20.2796  -30.1795 H   0  0  0  0  0  0  0  0  0  0  0  0
   -1.9660   21.3029  -27.8757 H   0  0  0  0  0  0  0  0  0  0  0  0
   -3.9250   22.7996  -28.2092 H   0  0  0  0  0  0  0  0  0  0  0  0
   -8.1403   23.0657  -29.5445 H   0  0  0  0  0  0  0  0  0  0  0  0
   -9.9679   21.5197  -30.2979 H   0  0  0  0  0  0  0  0  0  0  0  0
   -9.6030   19.9946  -32.2768 H   0  0  0  0  0  0  0  0  0  0  0  0
   -3.7771   22.0654  -32.4644 H   0  0  0  0  0  0  0  0  0  0  0  0
   -3.7960   20.2800  -33.4230 H   0  0  0  0  0  0  0  0  0  0  0  0
   -2.9529   18.3921  -35.2758 H   0  0  0  0  0  0  0  0  0  0  0  0
   -2.2512   17.9709  -33.6755 H   0  0  0  0  0  0  0  0  0  0  0  0
   -4.0808   18.6266  -31.6591 H   0  0  0  0  0  0  0  0  0  0  0  0
   -6.3036   17.7556  -30.9090 H   0  0  0  0  0  0  0  0  0  0  0  0
   -7.8250   16.6705  -32.5702 H   0  0  0  0  0  0  0  0  0  0  0  0
   -4.9796   17.2969  -35.6816 H   0  0  0  0  0  0  0  0  0  0  0  0
  1  2  1  0
  2  3  2  0
  3  4  1  0
  4  5  2  0
  5  6  1  0
  6  7  2  0
  6  8  2  0
  6  9  1  0
  9 10  2  0
 10 11  1  0
 11 12  2  0
 12 13  1  0
 13 14  2  0
 14 15  1  0
 15 16  1  0
 16 17  2  0
  5 18  1  0
 18 19  2  0
 19 20  1  0
 20 21  2  0
 20 22  2  0
 20 23  1  0
 23 24  1  0
 24 25  1  0
 25 26  2  0
 26 27  1  0
 27 28  2  0
 28 29  1  0
 29 30  2  0
 19  2  1  0
 30 25  1  0
 17  9  1  0
 17 13  1  0
  1 31  1  0
  1 32  1  0
  1 33  1  0
  3 34  1  0
  4 35  1  0
 10 36  1  0
 11 37  1  0
 12 38  1  0
 18 39  1  0
 23 40  1  0
 24 41  1  0
 24 42  1  0
 26 43  1  0
 27 44  1  0
 28 45  1  0
 30 46  1  0
M  END
>  <UniqueID>  (6) 
6

>  <SMILES>  (6) 
Cc1ccc(S(=O)(=O)c2cccc3nonc23)cc1S(=O)(=O)NCc1cccnc1

>  <Energy>  (6) 
93.29882223980812

>  <Genealogy>  (6) 
Cc1ccc(S(=O)(=O)c2cccc3nonc23)cc1S(=O)(=O)NCc1cccnc1 (3D coordinates assigned)
Cc1ccc(S(=O)(=O)c2cccc3nonc23)cc1S(=O)(=O)NCc1cccnc1 (optimized conformer: 93.29882223980812 kcal/mol)

>  <smiles>  (6) 
Cc1ccc(S(=O)(=O)c2cccc3nonc23)cc1S(=O)(=O)NCc1cccnc1

>  <score_type>  (6) 
oracle

>  <origin>  (6) 
adgpu

>  <m_score__min__energy>  (6) 
-10.25

>  <m_primary>  (6) 
energy

$$$$
6:0
     RDKit          3D

 42 44  0  0  0  0  0  0  0  0999 V2000
   -0.9370   21.3970  -27.4120 O   0  0  0  0  0  0  0  0  0  0  0  0
   -1.5870   22.3600  -28.1740 C   0  0  0  0  0  0  0  0  0  0  0  0
   -1.5500   23.7010  -27.7840 C   0  0  0  0  0  0  0  0  0  0  0  0
   -2.1950   24.6710  -28.5560 C   0  0  0  0  0  0  0  0  0  0  0  0
   -2.8790   24.3060  -29.7210 C   0  0  0  0  0  0  0  0  0  0  0  0
   -3.4990   25.2940  -30.4790 O   0  0  0  0  0  0  0  0  0  0  0  0
   -2.9280   22.9540  -30.1160 C   0  0  0  0  0  0  0  0  0  0  0  0
   -3.5670   22.5360  -31.4200 C   0  0  0  0  0  0  0  0  0  0  0  0
   -4.7200   23.3900  -31.7020 N   0  0  0  0  0  0  0  0  0  0  0  0
   -6.0520   22.8590  -31.7070 C   0  0  0  0  0  0  0  0  0  0  0  0
   -7.1590   23.6970  -31.8960 C   0  0  0  0  0  0  0  0  0  0  0  0
   -8.4420   23.1550  -31.9850 C   0  0  0  0  0  0  0  0  0  0  0  0
   -8.6280   21.7710  -31.9240 C   0  0  0  0  0  0  0  0  0  0  0  0
   -9.9160   21.2550  -32.0280 O   0  0  0  0  0  0  0  0  0  0  0  0
   -7.5190   20.9140  -31.7660 C   0  0  0  0  0  0  0  0  0  0  0  0
   -7.6820   19.4040  -31.7660 C   0  0  0  0  0  0  0  0  0  0  0  0
   -6.7020   18.6750  -32.6040 N   0  0  0  0  0  0  0  0  0  0  0  0
   -7.0310   17.2810  -32.9050 C   0  0  0  0  0  0  0  0  0  0  0  0
   -6.1670   16.8940  -34.0990 C   0  0  0  0  0  0  0  0  0  0  0  0
   -5.7020   18.2110  -34.7100 C   0  0  0  0  0  0  0  0  0  0  0  0
   -6.3800   19.2950  -33.8880 C   0  0  0  0  0  0  0  0  0  0  0  0
   -6.2420   21.4760  -31.6040 C   0  0  0  0  0  0  0  0  0  0  0  0
   -2.2720   21.9870  -29.3350 C   0  0  0  0  0  0  0  0  0  0  0  0
   -1.0133   23.9933  -26.8694 H   0  0  0  0  0  0  0  0  0  0  0  0
   -2.1649   25.7261  -28.2465 H   0  0  0  0  0  0  0  0  0  0  0  0
   -2.8332   22.6325  -32.2338 H   0  0  0  0  0  0  0  0  0  0  0  0
   -3.8994   21.4902  -31.3431 H   0  0  0  0  0  0  0  0  0  0  0  0
   -4.5980   24.4210  -31.5850 H   0  0  0  0  0  0  0  0  0  0  0  0
   -7.0164   24.7849  -31.9744 H   0  0  0  0  0  0  0  0  0  0  0  0
   -9.3104   23.8197  -32.1036 H   0  0  0  0  0  0  0  0  0  0  0  0
   -7.5786   19.0483  -30.7302 H   0  0  0  0  0  0  0  0  0  0  0  0
   -8.6728   19.1988  -32.1975 H   0  0  0  0  0  0  0  0  0  0  0  0
   -6.8003   16.6389  -32.0421 H   0  0  0  0  0  0  0  0  0  0  0  0
   -8.1016   17.1583  -33.1257 H   0  0  0  0  0  0  0  0  0  0  0  0
   -5.3036   16.2965  -33.7710 H   0  0  0  0  0  0  0  0  0  0  0  0
   -6.7237   16.2821  -34.8240 H   0  0  0  0  0  0  0  0  0  0  0  0
   -4.6080   18.3027  -34.6414 H   0  0  0  0  0  0  0  0  0  0  0  0
   -5.9607   18.2826  -35.7767 H   0  0  0  0  0  0  0  0  0  0  0  0
   -5.7003   20.1475  -33.7425 H   0  0  0  0  0  0  0  0  0  0  0  0
   -7.2798   19.6814  -34.3891 H   0  0  0  0  0  0  0  0  0  0  0  0
   -5.3824   20.8226  -31.3940 H   0  0  0  0  0  0  0  0  0  0  0  0
   -2.2975   20.9301  -29.6388 H   0  0  0  0  0  0  0  0  0  0  0  0
  1  2  1  0
  2  3  2  0
  3  4  1  0
  4  5  2  0
  5  6  1  0
  5  7  1  0
  7  8  1  0
  8  9  1  0
  9 10  1  0
 10 11  2  0
 11 12  1  0
 12 13  2  0
 13 14  1  0
 13 15  1  0
 15 16  1  0
 16 17  1  0
 17 18  1  0
 18 19  1  0
 19 20  1  0
 20 21  1  0
 15 22  2  0
  7 23  2  0
 23  2  1  0
 22 10  1  0
 21 17  1  0
  3 24  1  0
  4 25  1  0
  8 26  1  0
  8 27  1  0
  9 28  1  0
 11 29  1  0
 12 30  1  0
 16 31  1  0
 16 32  1  0
 18 33  1  0
 18 34  1  0
 19 35  1  0
 19 36  1  0
 20 37  1  0
 20 38  1  0
 21 39  1  0
 21 40  1  0
 22 41  1  0
 23 42  1  0
M  CHG  3   1  -1   6  -1  14  -1
M  END
>  <UniqueID>  (7) 
7

>  <SMILES>  (7) 
[O-]c1ccc([O-])c(CNc2ccc([O-])c(CN3CCCC3)c2)c1

>  <Energy>  (7) 
51.25454054515993

>  <Genealogy>  (7) 
[O-]c1ccc([O-])c(CNc2ccc([O-])c(CN3CCCC3)c2)c1 (protonated)
[O-]c1ccc([O-])c(CNc2ccc([O-])c(CN3CCCC3)c2)c1 (3D coordinates assigned)
[O-]c1ccc([O-])c(CNc2ccc([O-])c(CN3CCCC3)c2)c1 (nonaromatic ring conformer: 51.25454054515993 kcal/mol)

>  <smiles>  (7) 
Oc1ccc(O)c(CNc2ccc(O)c(CN3CCCC3)c2)c1

>  <score_type>  (7) 
oracle

>  <origin>  (7) 
adgpu

>  <m_score__min__energy>  (7) 
-10.800000000000001

>  <m_primary>  (7) 
energy

$$$$
7:0
     RDKit          3D

 40 42  0  0  0  0  0  0  0  0999 V2000
   -6.3230   25.7350  -29.6420 C   0  0  0  0  0  0  0  0  0  0  0  0
   -5.3290   25.5380  -30.6420 O   0  0  0  0  0  0  0  0  0  0  0  0
   -4.6360   24.3340  -30.8450 C   0  0  0  0  0  0  0  0  0  0  0  0
   -5.2140   23.2390  -31.5150 C   0  0  0  0  0  0  0  0  0  0  0  0
   -4.4850   22.0600  -31.6990 C   0  0  0  0  0  0  0  0  0  0  0  0
   -3.1760   21.9550  -31.2120 C   0  0  0  0  0  0  0  0  0  0  0  0
   -2.2430   20.4850  -31.4710 S   0  0  0  0  0  0  0  0  0  0  0  0
   -3.1510   19.4100  -32.0000 O   0  0  0  0  0  0  0  0  0  0  0  0
   -1.6500   20.0230  -30.1690 O   0  0  0  0  0  0  0  0  0  0  0  0
   -0.9590   20.7990  -32.6270 C   0  0  0  0  0  0  0  0  0  0  0  0
    0.2870   20.1850  -32.4950 C   0  0  0  0  0  0  0  0  0  0  0  0
    1.2850   20.4640  -33.4240 C   0  0  0  0  0  0  0  0  0  0  0  0
    1.0190   21.3550  -34.4770 C   0  0  0  0  0  0  0  0  0  0  0  0
    2.0170   21.6770  -35.4710 N   0  0  0  0  0  0  0  0  0  0  0  0
    2.2680   23.0700  -35.8680 C   0  0  0  0  0  0  0  0  0  0  0  0
    3.6940   23.2230  -36.4070 C   0  0  0  0  0  0  0  0  0  0  0  0
    3.9620   22.2570  -37.4040 O   0  0  0  0  0  0  0  0  0  0  0  0
    3.9490   20.9670  -36.8270 C   0  0  0  0  0  0  0  0  0  0  0  0
    2.5450   20.6080  -36.3290 C   0  0  0  0  0  0  0  0  0  0  0  0
   -0.2140   21.9280  -34.5470 N   0  0  0  0  0  0  0  0  0  0  0  0
   -1.1690   21.6600  -33.6560 N   0  0  0  0  0  0  0  0  0  0  0  0
   -2.5980   23.0450  -30.5480 C   0  0  0  0  0  0  0  0  0  0  0  0
   -3.3230   24.2270  -30.3650 C   0  0  0  0  0  0  0  0  0  0  0  0
   -2.7330   25.2980  -29.7070 O   0  0  0  0  0  0  0  0  0  0  0  0
   -5.8644   25.6441  -28.6463 H   0  0  0  0  0  0  0  0  0  0  0  0
   -6.7617   26.7376  -29.7535 H   0  0  0  0  0  0  0  0  0  0  0  0
   -7.1109   24.9755  -29.7535 H   0  0  0  0  0  0  0  0  0  0  0  0
   -6.2436   23.3112  -31.8954 H   0  0  0  0  0  0  0  0  0  0  0  0
   -4.9417   21.2110  -32.2287 H   0  0  0  0  0  0  0  0  0  0  0  0
    0.4784   19.4881  -31.6657 H   0  0  0  0  0  0  0  0  0  0  0  0
    2.2739   19.9907  -33.3345 H   0  0  0  0  0  0  0  0  0  0  0  0
    1.5516   23.3584  -36.6513 H   0  0  0  0  0  0  0  0  0  0  0  0
    2.1475   23.7191  -34.9881 H   0  0  0  0  0  0  0  0  0  0  0  0
    3.8101   24.2281  -36.8387 H   0  0  0  0  0  0  0  0  0  0  0  0
    4.4013   23.0777  -35.5771 H   0  0  0  0  0  0  0  0  0  0  0  0
    4.2631   20.2311  -37.5818 H   0  0  0  0  0  0  0  0  0  0  0  0
    4.6401   20.9564  -35.9713 H   0  0  0  0  0  0  0  0  0  0  0  0
    1.8774   20.4736  -37.1929 H   0  0  0  0  0  0  0  0  0  0  0  0
    2.6006   19.6770  -35.7457 H   0  0  0  0  0  0  0  0  0  0  0  0
   -1.5682   22.9707  -30.1685 H   0  0  0  0  0  0  0  0  0  0  0  0
  1  2  1  0
  2  3  1  0
  3  4  2  0
  4  5  1  0
  5  6  2  0
  6  7  1  0
  7  8  2  0
  7  9  2  0
  7 10  1  0
 10 11  2  0
 11 12  1  0
 12 13  2  0
 13 14  1  0
 14 15  1  0
 15 16  1  0
 16 17  1  0
 17 18  1  0
 18 19  1  0
 13 20  1  0
 20 21  2  0
  6 22  1  0
 22 23  2  0
 23 24  1  0
 23  3  1  0
 21 10  1  0
 19 14  1  0
  1 25  1  0
  1 26  1  0
  1 27  1  0
  4 28  1  0
  5 29  1  0
 11 30  1  0
 12 31  1  0
 15 32  1  0
 15 33  1  0
 16 34  1  0
 16 35  1  0
 18 36  1  0
 18 37  1  0
 19 38  1  0
 19 39  1  0
 22 40  1  0
M  CHG  1  24  -1
M  END
>  <UniqueID>  (8) 
8

>  <SMILES>  (8) 
COc1ccc(S(=O)(=O)c2ccc(N3CCOCC3)nn2)cc1[O-]

>  <Energy>  (8) 
48.62095530896507

>  <Genealogy>  (8) 
COc1ccc(S(=O)(=O)c2ccc(N3CCOCC3)nn2)cc1[O-] (protonated)
COc1ccc(S(=O)(=O)c2ccc(N3CCOCC3)nn2)cc1[O-] (3D coordinates assigned)
COc1ccc(S(=O)(=O)c2ccc(N3CCOCC3)nn2)cc1[O-] (nonaromatic ring conformer: 48.62095530896507 kcal/mol)

>  <smiles>  (8) 
COc1ccc(S(=O)(=O)c2ccc(N3CCOCC3)nn2)cc1O

>  <score_type>  (8) 
oracle

>  <origin>  (8) 
adgpu

>  <m_score__min__energy>  (8) 
-10.18

>  <m_primary>  (8) 
energy

$$$$
8:0
     RDKit          3D

 40 42  0  0  0  0  0  0  0  0999 V2000
   -8.9110   22.2620  -31.2240 C   0  0  0  0  0  0  0  0  0  0  0  0
   -7.7280   21.3850  -31.5080 C   0  0  0  0  0  0  0  0  0  0  0  0
   -6.4060   21.6930  -31.2320 C   0  0  0  0  0  0  0  0  0  0  0  0
   -5.9400   22.8790  -30.5820 N   0  0  0  0  0  0  0  0  0  0  0  0
   -4.3540   23.5520  -30.7740 S   0  0  0  0  0  0  0  0  0  0  0  0
   -3.7460   23.0270  -32.0440 O   0  0  0  0  0  0  0  0  0  0  0  0
   -4.4500   25.0520  -30.8240 O   0  0  0  0  0  0  0  0  0  0  0  0
   -3.3330   23.0880  -29.4120 C   0  0  0  0  0  0  0  0  0  0  0  0
   -3.4260   21.7970  -28.8670 C   0  0  0  0  0  0  0  0  0  0  0  0
   -2.6140   21.4250  -27.7900 C   0  0  0  0  0  0  0  0  0  0  0  0
   -2.7360   19.8090  -27.1180 Cl  0  0  0  0  0  0  0  0  0  0  0  0
   -1.7080   22.3410  -27.2490 C   0  0  0  0  0  0  0  0  0  0  0  0
   -1.6130   23.6320  -27.7780 C   0  0  0  0  0  0  0  0  0  0  0  0
   -0.4840   24.7760  -27.0730 Cl  0  0  0  0  0  0  0  0  0  0  0  0
   -2.4240   24.0080  -28.8600 C   0  0  0  0  0  0  0  0  0  0  0  0
   -2.3260   25.2950  -29.3800 O   0  0  0  0  0  0  0  0  0  0  0  0
   -5.6790   20.6280  -31.7270 C   0  0  0  0  0  0  0  0  0  0  0  0
   -4.4270   20.4960  -31.6920 O   0  0  0  0  0  0  0  0  0  0  0  0
   -6.5250   19.7260  -32.2680 N   0  0  0  0  0  0  0  0  0  0  0  0
   -6.1410   18.5070  -32.9280 C   0  0  0  0  0  0  0  0  0  0  0  0
   -6.1090   17.3000  -32.2120 C   0  0  0  0  0  0  0  0  0  0  0  0
   -5.7430   16.1110  -32.8510 C   0  0  0  0  0  0  0  0  0  0  0  0
   -5.4190   16.1200  -34.2100 C   0  0  0  0  0  0  0  0  0  0  0  0
   -5.4630   17.3160  -34.9330 C   0  0  0  0  0  0  0  0  0  0  0  0
   -5.8270   18.5060  -34.2960 C   0  0  0  0  0  0  0  0  0  0  0  0
   -7.7700   20.1830  -32.1400 N   0  0  0  0  0  0  0  0  0  0  0  0
   -8.9560   19.5480  -32.7250 C   0  0  0  0  0  0  0  0  0  0  0  0
   -9.0425   22.3595  -30.1362 H   0  0  0  0  0  0  0  0  0  0  0  0
   -8.7442   23.2564  -31.6637 H   0  0  0  0  0  0  0  0  0  0  0  0
   -9.8140   21.8134  -31.6637 H   0  0  0  0  0  0  0  0  0  0  0  0
   -4.1406   21.0749  -29.2888 H   0  0  0  0  0  0  0  0  0  0  0  0
   -1.0677   22.0458  -26.4047 H   0  0  0  0  0  0  0  0  0  0  0  0
   -6.3728   17.2893  -31.1442 H   0  0  0  0  0  0  0  0  0  0  0  0
   -5.7102   15.1691  -32.2838 H   0  0  0  0  0  0  0  0  0  0  0  0
   -5.1289   15.1851  -34.7118 H   0  0  0  0  0  0  0  0  0  0  0  0
   -5.2110   17.3206  -36.0037 H   0  0  0  0  0  0  0  0  0  0  0  0
   -5.8674   19.4443  -34.8686 H   0  0  0  0  0  0  0  0  0  0  0  0
   -9.6170   19.1941  -31.9202 H   0  0  0  0  0  0  0  0  0  0  0  0
   -9.4941   20.2787  -33.3467 H   0  0  0  0  0  0  0  0  0  0  0  0
   -8.6462   18.6951  -33.3467 H   0  0  0  0  0  0  0  0  0  0  0  0
  1  2  1  0
  2  3  2  0
  3  4  1  0
  4  5  1  0
  5  6  2  0
  5  7  2  0
  5  8  1  0
  8  9  2  0
  9 10  1  0
 10 11  1  0
 10 12  2  0
 12 13  1  0
 13 14  1  0
 13 15  2  0
 15 16  1  0
  3 17  1  0
 17 18  2  0
 17 19  1  0
 19 20  1  0
 20 21  2  0
 21 22  1  0
 22 23  2  0
 23 24  1  0
 24 25  2  0
 19 26  1  0
 26 27  1  0
 26  2  1  0
 15  8  1  0
 25 20  1  0
  1 28  1  0
  1 29  1  0
  1 30  1  0
  9 31  1  0
 12 32  1  0
 21 33  1  0
 22 34  1  0
 23 35  1  0
 24 36  1  0
 25 37  1  0
 27 38  1  0
 27 39  1  0
 27 40  1  0
M  CHG  2   4  -1  16  -1
M  END
>  <UniqueID>  (9) 
9

>  <SMILES>  (9) 
Cc1c([N-]S(=O)(=O)c2cc(Cl)cc(Cl)c2[O-])c(=O)n(-c2ccccc2)n1C

>  <Energy>  (9) 
89.00648212099067

>  <Genealogy>  (9) 
Cc1c([N-]S(=O)(=O)c2cc(Cl)cc(Cl)c2[O-])c(=O)n(-c2ccccc2)n1C (protonated)
Cc1c([N-]S(=O)(=O)c2cc(Cl)cc(Cl)c2[O-])c(=O)n(-c2ccccc2)n1C (3D coordinates assigned)
Cc1c([N-]S(=O)(=O)c2cc(Cl)cc(Cl)c2[O-])c(=O)n(-c2ccccc2)n1C (optimized conformer: 89.00648212099067 kcal/mol)

>  <smiles>  (9) 
Cc1c(NS(=O)(=O)c2cc(Cl)cc(Cl)c2O)c(=O)n(-c2ccccc2)n1C

>  <score_type>  (9) 
oracle

>  <origin>  (9) 
adgpu

>  <m_score__min__energy>  (9) 
-13.84

>  <m_primary>  (9) 
energy

$$$$
9:0
     RDKit          3D

 47 49  0  0  0  0  0  0  0  0999 V2000
   -6.2550   17.0680  -30.6890 N   0  0  0  0  0  0  0  0  0  0  0  0
   -6.0010   17.5810  -32.0030 C   0  0  0  0  0  0  0  0  0  0  0  0
   -4.9530   17.0360  -32.7620 C   0  0  0  0  0  0  0  0  0  0  0  0
   -4.6810   17.5190  -34.0440 C   0  0  0  0  0  0  0  0  0  0  0  0
   -5.4530   18.5490  -34.5820 C   0  0  0  0  0  0  0  0  0  0  0  0
   -6.4980   19.1000  -33.8390 C   0  0  0  0  0  0  0  0  0  0  0  0
   -6.7790   18.6270  -32.5500 C   0  0  0  0  0  0  0  0  0  0  0  0
   -8.1400   19.3720  -31.6400 S   0  0  0  0  0  0  0  0  0  0  0  0
   -7.8870   21.0200  -32.3730 C   0  0  0  0  0  0  0  0  0  0  0  0
   -6.9590   21.8080  -31.5050 C   0  0  0  0  0  0  0  0  0  0  0  0
   -7.3130   22.1070  -30.3320 O   0  0  0  0  0  0  0  0  0  0  0  0
   -5.6830   22.2240  -32.0160 N   0  0  0  0  0  0  0  0  0  0  0  0
   -4.6310   22.7760  -31.2070 C   0  0  0  0  0  0  0  0  0  0  0  0
   -3.3600   22.1760  -31.1420 C   0  0  0  0  0  0  0  0  0  0  0  0
   -2.3470   22.7490  -30.3680 C   0  0  0  0  0  0  0  0  0  0  0  0
   -2.5800   23.9390  -29.6660 C   0  0  0  0  0  0  0  0  0  0  0  0
   -1.3000   24.6590  -28.6820 S   0  0  0  0  0  0  0  0  0  0  0  0
    0.0180   24.0520  -29.0740 O   0  0  0  0  0  0  0  0  0  0  0  0
   -1.2350   26.1340  -28.9680 O   0  0  0  0  0  0  0  0  0  0  0  0
   -1.5450   24.4230  -26.9680 N   0  0  0  0  0  0  0  0  0  0  0  0
   -1.5300   25.6870  -26.2320 C   0  0  0  0  0  0  0  0  0  0  0  0
   -1.1210   25.3470  -24.8070 C   0  0  0  0  0  0  0  0  0  0  0  0
   -0.4430   23.9870  -24.8950 C   0  0  0  0  0  0  0  0  0  0  0  0
   -0.4910   23.6090  -26.3680 C   0  0  0  0  0  0  0  0  0  0  0  0
   -3.8410   24.5450  -29.7380 C   0  0  0  0  0  0  0  0  0  0  0  0
   -4.8550   23.9730  -30.5120 C   0  0  0  0  0  0  0  0  0  0  0  0
   -5.6760   16.3090  -30.2680 H   0  0  0  0  0  0  0  0  0  0  0  0
   -7.0420   17.4460  -30.1160 H   0  0  0  0  0  0  0  0  0  0  0  0
   -4.3417   16.2227  -32.3439 H   0  0  0  0  0  0  0  0  0  0  0  0
   -3.8568   17.0866  -34.6303 H   0  0  0  0  0  0  0  0  0  0  0  0
   -5.2379   18.9270  -35.5924 H   0  0  0  0  0  0  0  0  0  0  0  0
   -7.1051   19.9109  -34.2679 H   0  0  0  0  0  0  0  0  0  0  0  0
   -7.4497   20.9129  -33.3767 H   0  0  0  0  0  0  0  0  0  0  0  0
   -8.8523   21.5417  -32.4505 H   0  0  0  0  0  0  0  0  0  0  0  0
   -5.5390   22.1900  -33.0500 H   0  0  0  0  0  0  0  0  0  0  0  0
   -3.1625   21.2509  -31.7034 H   0  0  0  0  0  0  0  0  0  0  0  0
   -1.3618   22.2632  -30.3097 H   0  0  0  0  0  0  0  0  0  0  0  0
   -0.8041   26.3807  -26.6813 H   0  0  0  0  0  0  0  0  0  0  0  0
   -2.5145   26.1769  -26.2591 H   0  0  0  0  0  0  0  0  0  0  0  0
   -0.4217   26.1012  -24.4169 H   0  0  0  0  0  0  0  0  0  0  0  0
   -1.9849   25.3303  -24.1262 H   0  0  0  0  0  0  0  0  0  0  0  0
    0.5987   24.0526  -24.5478 H   0  0  0  0  0  0  0  0  0  0  0  0
   -0.9426   23.2381  -24.2629 H   0  0  0  0  0  0  0  0  0  0  0  0
    0.4753   23.8238  -26.8477 H   0  0  0  0  0  0  0  0  0  0  0  0
   -0.6930   22.5356  -26.4981 H   0  0  0  0  0  0  0  0  0  0  0  0
   -4.0341   25.4749  -29.1831 H   0  0  0  0  0  0  0  0  0  0  0  0
   -5.8363   24.4659  -30.5763 H   0  0  0  0  0  0  0  0  0  0  0  0
  1  2  1  0
  2  3  2  0
  3  4  1  0
  4  5  2  0
  5  6  1  0
  6  7  2  0
  7  8  1  0
  8  9  1  0
  9 10  1  0
 10 11  2  0
 10 12  1  0
 12 13  1  0
 13 14  2  0
 14 15  1  0
 15 16  2  0
 16 17  1  0
 17 18  2  0
 17 19  2  0
 17 20  1  0
 20 21  1  0
 21 22  1  0
 22 23  1  0
 23 24  1  0
 16 25  1  0
 25 26  2  0
  7  2  1  0
 26 13  1  0
 24 20  1  0
  1 27  1  0
  1 28  1  0
  3 29  1  0
  4 30  1  0
  5 31  1  0
  6 32  1  0
  9 33  1  0
  9 34  1  0
 12 35  1  0
 14 36  1  0
 15 37  1  0
 21 38  1  0
 21 39  1  0
 22 40  1  0
 22 41  1  0
 23 42  1  0
 23 43  1  0
 24 44  1  0
 24 45  1  0
 25 46  1  0
 26 47  1  0
M  END
>  <UniqueID>  (10) 
10

>  <SMILES>  (10) 
Nc1ccccc1SCC(=O)Nc1ccc(S(=O)(=O)N2CCCC2)cc1

>  <Energy>  (10) 
47.41132504635857

>  <Genealogy>  (10) 
Nc1ccccc1SCC(=O)Nc1ccc(S(=O)(=O)N2CCCC2)cc1 (3D coordinates assigned)
Nc1ccccc1SCC(=O)Nc1ccc(S(=O)(=O)N2CCCC2)cc1 (nonaromatic ring conformer: 47.41132504635857 kcal/mol)

>  <smiles>  (10) 
Nc1ccccc1SCC(=O)Nc1ccc(S(=O)(=O)N2CCCC2)cc1

>  <score_type>  (10) 
oracle

>  <origin>  (10) 
adgpu

>  <m_score__min__energy>  (10) 
-9.0999999999999996

>  <m_primary>  (10) 
energy

$$$$
10:0
     RDKit          3D

 45 47  0  0  0  0  0  0  0  0999 V2000
   -3.7920   25.3000  -30.7520 N   0  0  0  0  0  0  0  0  0  0  0  0
   -5.2650   24.9970  -29.8990 S   0  0  0  0  0  0  0  0  0  0  0  0
   -6.0990   26.2460  -29.9180 O   0  0  0  0  0  0  0  0  0  0  0  0
   -4.9560   24.6230  -28.4770 O   0  0  0  0  0  0  0  0  0  0  0  0
   -6.1410   23.6800  -30.6730 C   0  0  0  0  0  0  0  0  0  0  0  0
   -6.8520   22.7520  -29.9020 C   0  0  0  0  0  0  0  0  0  0  0  0
   -7.5400   21.7040  -30.5200 C   0  0  0  0  0  0  0  0  0  0  0  0
   -7.5080   21.5570  -31.9130 C   0  0  0  0  0  0  0  0  0  0  0  0
   -8.2470   20.4800  -32.5060 N   0  0  0  0  0  0  0  0  0  0  0  0
   -7.8510   19.1020  -32.5690 C   0  0  0  0  0  0  0  0  0  0  0  0
   -8.6440   18.1950  -32.1960 O   0  0  0  0  0  0  0  0  0  0  0  0
   -6.5050   18.7550  -33.0710 C   0  0  0  0  0  0  0  0  0  0  0  0
   -5.4800   19.7120  -32.9570 C   0  0  0  0  0  0  0  0  0  0  0  0
   -4.1720   19.4130  -33.3540 C   0  0  0  0  0  0  0  0  0  0  0  0
   -2.8910   20.6170  -33.2180 S   0  0  0  0  0  0  0  0  0  0  0  0
   -1.8880   20.4320  -34.3230 O   0  0  0  0  0  0  0  0  0  0  0  0
   -3.5060   21.9820  -33.3520 O   0  0  0  0  0  0  0  0  0  0  0  0
   -2.1090   20.4710  -31.6580 N   0  0  0  0  0  0  0  0  0  0  0  0
   -1.2240   21.6150  -31.4150 C   0  0  0  0  0  0  0  0  0  0  0  0
   -2.0100   22.6680  -30.6480 C   0  0  0  0  0  0  0  0  0  0  0  0
   -3.2320   21.9510  -30.1070 C   0  0  0  0  0  0  0  0  0  0  0  0
   -3.1030   20.5100  -30.5800 C   0  0  0  0  0  0  0  0  0  0  0  0
   -3.8790   18.1520  -33.8780 C   0  0  0  0  0  0  0  0  0  0  0  0
   -4.8860   17.1970  -34.0130 C   0  0  0  0  0  0  0  0  0  0  0  0
   -6.2020   17.4890  -33.6350 C   0  0  0  0  0  0  0  0  0  0  0  0
   -7.1770   16.5160  -33.8670 O   0  0  0  0  0  0  0  0  0  0  0  0
   -6.8080   22.5000  -32.6870 C   0  0  0  0  0  0  0  0  0  0  0  0
   -6.1210   23.5480  -32.0680 C   0  0  0  0  0  0  0  0  0  0  0  0
   -3.8930   26.2310  -31.2140 H   0  0  0  0  0  0  0  0  0  0  0  0
   -6.8691   22.8482  -28.8063 H   0  0  0  0  0  0  0  0  0  0  0  0
   -8.1106   20.9896  -29.9084 H   0  0  0  0  0  0  0  0  0  0  0  0
   -5.7098   20.7080  -32.5506 H   0  0  0  0  0  0  0  0  0  0  0  0
   -0.3545   21.2942  -30.8226 H   0  0  0  0  0  0  0  0  0  0  0  0
   -0.8654   22.0281  -32.3693 H   0  0  0  0  0  0  0  0  0  0  0  0
   -1.4057   23.0729  -29.8228 H   0  0  0  0  0  0  0  0  0  0  0  0
   -2.2873   23.5169  -31.2902 H   0  0  0  0  0  0  0  0  0  0  0  0
   -3.2477   21.9946  -29.0080 H   0  0  0  0  0  0  0  0  0  0  0  0
   -4.1654   22.4136  -30.4603 H   0  0  0  0  0  0  0  0  0  0  0  0
   -2.7741   19.8721  -29.7464 H   0  0  0  0  0  0  0  0  0  0  0  0
   -4.0732   20.1399  -30.9429 H   0  0  0  0  0  0  0  0  0  0  0  0
   -2.8505   17.9114  -34.1852 H   0  0  0  0  0  0  0  0  0  0  0  0
   -4.6440   16.2044  -34.4205 H   0  0  0  0  0  0  0  0  0  0  0  0
   -8.0080   16.4110  -33.3000 H   0  0  0  0  0  0  0  0  0  0  0  0
   -6.8012   22.4124  -33.7835 H   0  0  0  0  0  0  0  0  0  0  0  0
   -5.5621   24.2725  -32.6786 H   0  0  0  0  0  0  0  0  0  0  0  0
  1  2  1  0
  2  3  2  0
  2  4  2  0
  2  5  1  0
  5  6  2  0
  6  7  1  0
  7  8  2  0
  8  9  1  0
  9 10  1  0
 10 11  2  0
 10 12  1  0
 12 13  2  0
 13 14  1  0
 14 15  1  0
 15 16  2  0
 15 17  2  0
 15 18  1  0
 18 19  1  0
 19 20  1  0
 20 21  1  0
 21 22  1  0
 14 23  2  0
 23 24  1  0
 24 25  2  0
 25 26  1  0
  8 27  1  0
 27 28  2  0
 28  5  1  0
 25 12  1  0
 22 18  1  0
  1 29  1  0
  6 30  1  0
  7 31  1  0
 13 32  1  0
 19 33  1  0
 19 34  1  0
 20 35  1  0
 20 36  1  0
 21 37  1  0
 21 38  1  0
 22 39  1  0
 22 40  1  0
 23 41  1  0
 24 42  1  0
 26 43  1  0
 27 44  1  0
 28 45  1  0
M  CHG  2   1  -1   9  -1
M  END
>  <UniqueID>  (11) 
11

>  <SMILES>  (11) 
[NH-]S(=O)(=O)c1ccc([N-]C(=O)c2cc(S(=O)(=O)N3CCCC3)ccc2O)cc1

>  <Energy>  (11) 
56.262983639386924

>  <Genealogy>  (11) 
[NH-]S(=O)(=O)c1ccc([N-]C(=O)c2cc(S(=O)(=O)N3CCCC3)ccc2O)cc1 (protonated)
[NH-]S(=O)(=O)c1ccc([N-]C(=O)c2cc(S(=O)(=O)N3CCCC3)ccc2O)cc1 (3D coordinates assigned)
[NH-]S(=O)(=O)c1ccc([N-]C(=O)c2cc(S(=O)(=O)N3CCCC3)ccc2O)cc1 (nonaromatic ring conformer: 56.262983639386924 kcal/mol)

>  <smiles>  (11) 
NS(=O)(=O)c1ccc(NC(=O)c2cc(S(=O)(=O)N3CCCC3)ccc2O)cc1

>  <score_type>  (11) 
oracle

>  <origin>  (11) 
adgpu

>  <m_score__min__energy>  (11) 
-11.09

>  <m_primary>  (11) 
energy

$$$$
11:0
     RDKit          3D

 38 39  0  0  0  0  0  0  0  0999 V2000
   -6.4270   16.2800  -34.1350 C   0  0  0  0  0  0  0  0  0  0  0  0
   -6.8270   17.6260  -33.5330 C   0  0  0  0  0  0  0  0  0  0  0  0
   -5.8000   18.2130  -32.6500 N   0  0  0  0  0  0  0  0  0  0  0  0
   -6.2800   18.9580  -31.4660 C   0  0  0  0  0  0  0  0  0  0  0  0
   -6.2670   20.4760  -31.6730 C   0  0  0  0  0  0  0  0  0  0  0  0
   -4.9800   20.8790  -32.2330 N   0  0  0  0  0  0  0  0  0  0  0  0
   -4.0890   21.7320  -31.4940 C   0  0  0  0  0  0  0  0  0  0  0  0
   -2.8880   21.2090  -31.0060 C   0  0  0  0  0  0  0  0  0  0  0  0
   -2.0020   22.0050  -30.2720 C   0  0  0  0  0  0  0  0  0  0  0  0
   -0.7200   21.4020  -29.7560 C   0  0  0  0  0  0  0  0  0  0  0  0
   -2.3280   23.3560  -30.0180 C   0  0  0  0  0  0  0  0  0  0  0  0
   -1.4160   24.1800  -29.2530 C   0  0  0  0  0  0  0  0  0  0  0  0
   -0.6870   24.8370  -28.6400 N   0  0  0  0  0  0  0  0  0  0  0  0
   -3.5380   23.9000  -30.5120 C   0  0  0  0  0  0  0  0  0  0  0  0
   -3.8720   25.2770  -30.2640 N   0  0  0  0  0  0  0  0  0  0  0  0
   -4.4150   23.0780  -31.2560 C   0  0  0  0  0  0  0  0  0  0  0  0
   -5.9090   23.7330  -31.9360 Cl  0  0  0  0  0  0  0  0  0  0  0  0
   -4.5530   20.2360  -33.4720 C   0  0  0  0  0  0  0  0  0  0  0  0
   -4.5660   18.7130  -33.2980 C   0  0  0  0  0  0  0  0  0  0  0  0
   -6.2146   15.5652  -33.3263 H   0  0  0  0  0  0  0  0  0  0  0  0
   -7.2501   15.8970  -34.7561 H   0  0  0  0  0  0  0  0  0  0  0  0
   -5.5283   16.4087  -34.7561 H   0  0  0  0  0  0  0  0  0  0  0  0
   -7.0204   18.3301  -34.3557 H   0  0  0  0  0  0  0  0  0  0  0  0
   -7.7180   17.4474  -32.9132 H   0  0  0  0  0  0  0  0  0  0  0  0
   -7.3106   18.6423  -31.2464 H   0  0  0  0  0  0  0  0  0  0  0  0
   -5.5972   18.7318  -30.6338 H   0  0  0  0  0  0  0  0  0  0  0  0
   -7.0732   20.7587  -32.3659 H   0  0  0  0  0  0  0  0  0  0  0  0
   -6.4209   20.9795  -30.7072 H   0  0  0  0  0  0  0  0  0  0  0  0
   -2.6359   20.1564  -31.2019 H   0  0  0  0  0  0  0  0  0  0  0  0
   -0.7294   21.4064  -28.6560 H   0  0  0  0  0  0  0  0  0  0  0  0
   -0.6299   20.3671  -30.1178 H   0  0  0  0  0  0  0  0  0  0  0  0
    0.1346   21.9926  -30.1178 H   0  0  0  0  0  0  0  0  0  0  0  0
   -4.5030   25.5610  -29.4830 H   0  0  0  0  0  0  0  0  0  0  0  0
   -3.4900   26.0510  -30.8490 H   0  0  0  0  0  0  0  0  0  0  0  0
   -5.2395   20.5166  -34.2844 H   0  0  0  0  0  0  0  0  0  0  0  0
   -3.5326   20.5646  -33.7188 H   0  0  0  0  0  0  0  0  0  0  0  0
   -4.4779   18.2465  -34.2903 H   0  0  0  0  0  0  0  0  0  0  0  0
   -3.7221   18.4504  -32.6431 H   0  0  0  0  0  0  0  0  0  0  0  0
  1  2  1  0
  2  3  1  0
  3  4  1  0
  4  5  1  0
  5  6  1  0
  6  7  1  0
  7  8  2  0
  8  9  1  0
  9 10  1  0
  9 11  2  0
 11 12  1  0
 12 13  3  0
 11 14  1  0
 14 15  1  0
 14 16  2  0
 16 17  1  0
  6 18  1  0
 18 19  1  0
 19  3  1  0
 16  7  1  0
  1 20  1  0
  1 21  1  0
  1 22  1  0
  2 23  1  0
  2 24  1  0
  4 25  1  0
  4 26  1  0
  5 27  1  0
  5 28  1  0
  8 29  1  0
 10 30  1  0
 10 31  1  0
 10 32  1  0
 15 33  1  0
 15 34  1  0
 18 35  1  0
 18 36  1  0
 19 37  1  0
 19 38  1  0
M  END
>  <UniqueID>  (12) 
12

>  <SMILES>  (12) 
CCN1CCN(c2cc(C)c(C#N)c(N)c2Cl)CC1

>  <Energy>  (12) 
53.53003686759782

>  <Genealogy>  (12) 
CCN1CCN(c2cc(C)c(C#N)c(N)c2Cl)CC1 (3D coordinates assigned)
CCN1CCN(c2cc(C)c(C#N)c(N)c2Cl)CC1 (nonaromatic ring conformer: 53.53003686759782 kcal/mol)

>  <smiles>  (12) 
CCN1CCN(c2cc(C)c(C#N)c(N)c2Cl)CC1

>  <score_type>  (12) 
oracle

>  <origin>  (12) 
adgpu

>  <m_score__min__energy>  (12) 
-7.1699999999999999

>  <m_primary>  (12) 
energy

$$$$
12:0
     RDKit          3D

 53 56  0  0  0  0  0  0  0  0999 V2000
   -6.6520   25.7470  -29.9040 O   0  0  0  0  0  0  0  0  0  0  0  0
   -5.5400   24.7920  -30.2450 S   0  0  0  0  0  0  0  0  0  0  0  0
   -4.5220   25.5150  -31.0830 O   0  0  0  0  0  0  0  0  0  0  0  0
   -4.7950   24.2330  -28.7810 N   0  0  0  0  0  0  0  0  0  0  0  0
   -3.5930   23.4470  -28.7230 C   0  0  0  0  0  0  0  0  0  0  0  0
   -3.5910   22.1340  -28.2200 C   0  0  0  0  0  0  0  0  0  0  0  0
   -2.4020   21.3870  -28.1640 C   0  0  0  0  0  0  0  0  0  0  0  0
   -1.1890   21.9730  -28.5950 C   0  0  0  0  0  0  0  0  0  0  0  0
   -1.2030   23.2730  -29.1230 C   0  0  0  0  0  0  0  0  0  0  0  0
   -2.3930   24.0050  -29.1820 C   0  0  0  0  0  0  0  0  0  0  0  0
   -2.3750   25.2980  -29.6910 O   0  0  0  0  0  0  0  0  0  0  0  0
    0.1080   21.1940  -28.6070 C   0  0  0  0  0  0  0  0  0  0  0  0
    0.0740   19.9740  -27.6820 C   0  0  0  0  0  0  0  0  0  0  0  0
   -1.2050   19.1670  -27.9100 C   0  0  0  0  0  0  0  0  0  0  0  0
   -2.4390   20.0050  -27.5550 C   0  0  0  0  0  0  0  0  0  0  0  0
   -6.2170   23.4120  -31.1090 C   0  0  0  0  0  0  0  0  0  0  0  0
   -7.6010   23.2270  -31.1300 C   0  0  0  0  0  0  0  0  0  0  0  0
   -8.1470   22.1060  -31.7510 C   0  0  0  0  0  0  0  0  0  0  0  0
   -7.3220   21.1450  -32.3440 C   0  0  0  0  0  0  0  0  0  0  0  0
   -7.9420   20.0530  -32.9580 O   0  0  0  0  0  0  0  0  0  0  0  0
   -5.9130   21.3050  -32.3100 C   0  0  0  0  0  0  0  0  0  0  0  0
   -4.8480   20.0470  -32.9930 S   0  0  0  0  0  0  0  0  0  0  0  0
   -4.7390   18.9330  -31.9880 O   0  0  0  0  0  0  0  0  0  0  0  0
   -5.5010   19.5110  -34.2390 O   0  0  0  0  0  0  0  0  0  0  0  0
   -3.2200   20.5440  -33.4020 N   0  0  0  0  0  0  0  0  0  0  0  0
   -2.4090   19.4180  -33.9010 C   0  0  0  0  0  0  0  0  0  0  0  0
   -0.9630   19.8650  -34.2290 C   0  0  0  0  0  0  0  0  0  0  0  0
   -0.6240   21.1310  -33.6880 O   0  0  0  0  0  0  0  0  0  0  0  0
   -1.0650   21.2210  -32.3500 C   0  0  0  0  0  0  0  0  0  0  0  0
   -2.5950   21.3380  -32.3230 C   0  0  0  0  0  0  0  0  0  0  0  0
   -5.3810   22.4650  -31.7130 C   0  0  0  0  0  0  0  0  0  0  0  0
   -4.5313   21.6862  -27.8661 H   0  0  0  0  0  0  0  0  0  0  0  0
   -0.2691   23.7205  -29.4940 H   0  0  0  0  0  0  0  0  0  0  0  0
    0.3032   20.8515  -29.6339 H   0  0  0  0  0  0  0  0  0  0  0  0
    0.9011   21.8641  -28.2437 H   0  0  0  0  0  0  0  0  0  0  0  0
    0.9463   19.3370  -27.8901 H   0  0  0  0  0  0  0  0  0  0  0  0
    0.0973   20.3177  -26.6373 H   0  0  0  0  0  0  0  0  0  0  0  0
   -1.2615   18.8693  -28.9674 H   0  0  0  0  0  0  0  0  0  0  0  0
   -1.1829   18.2756  -27.2658 H   0  0  0  0  0  0  0  0  0  0  0  0
   -3.3355   19.4833  -27.9211 H   0  0  0  0  0  0  0  0  0  0  0  0
   -2.4551   20.1248  -26.4617 H   0  0  0  0  0  0  0  0  0  0  0  0
   -8.2612   23.9678  -30.6553 H   0  0  0  0  0  0  0  0  0  0  0  0
   -9.2389   21.9752  -31.7752 H   0  0  0  0  0  0  0  0  0  0  0  0
   -7.6410   19.6590  -33.8380 H   0  0  0  0  0  0  0  0  0  0  0  0
   -2.3750   18.6327  -33.1315 H   0  0  0  0  0  0  0  0  0  0  0  0
   -2.8724   19.0399  -34.8242 H   0  0  0  0  0  0  0  0  0  0  0  0
   -0.2670   19.1159  -33.8236 H   0  0  0  0  0  0  0  0  0  0  0  0
   -0.8926   19.9524  -35.3233 H   0  0  0  0  0  0  0  0  0  0  0  0
   -0.7564   20.3194  -31.8007 H   0  0  0  0  0  0  0  0  0  0  0  0
   -0.6207   22.1088  -31.8762 H   0  0  0  0  0  0  0  0  0  0  0  0
   -2.9639   20.9744  -31.3526 H   0  0  0  0  0  0  0  0  0  0  0  0
   -2.8623   22.3943  -32.4738 H   0  0  0  0  0  0  0  0  0  0  0  0
   -4.2933   22.6290  -31.7215 H   0  0  0  0  0  0  0  0  0  0  0  0
  1  2  2  0
  2  3  2  0
  2  4  1  0
  4  5  1  0
  5  6  2  0
  6  7  1  0
  7  8  2  0
  8  9  1  0
  9 10  2  0
 10 11  1  0
  8 12  1  0
 12 13  1  0
 13 14  1  0
 14 15  1  0
  2 16  1  0
 16 17  2  0
 17 18  1  0
 18 19  2  0
 19 20  1  0
 19 21  1  0
 21 22  1  0
 22 23  2  0
 22 24  2  0
 22 25  1  0
 25 26  1  0
 26 27  1  0
 27 28  1  0
 28 29  1  0
 29 30  1  0
 21 31  2  0
 10  5  1  0
 31 16  1  0
 15  7  1  0
 30 25  1  0
  6 32  1  0
  9 33  1  0
 12 34  1  0
 12 35  1  0
 13 36  1  0
 13 37  1  0
 14 38  1  0
 14 39  1  0
 15 40  1  0
 15 41  1  0
 17 42  1  0
 18 43  1  0
 20 44  1  0
 26 45  1  0
 26 46  1  0
 27 47  1  0
 27 48  1  0
 29 49  1  0
 29 50  1  0
 30 51  1  0
 30 52  1  0
 31 53  1  0
M  CHG  2   4  -1  11  -1
M  END
>  <UniqueID>  (13) 
13

>  <SMILES>  (13) 
O=S(=O)([N-]c1cc2c(cc1[O-])CCCC2)c1ccc(O)c(S(=O)(=O)N2CCOCC2)c1

>  <Energy>  (13) 
70.85691453332147

>  <Genealogy>  (13) 
O=S(=O)([N-]c1cc2c(cc1[O-])CCCC2)c1ccc(O)c(S(=O)(=O)N2CCOCC2)c1 (protonated)
O=S(=O)([N-]c1cc2c(cc1[O-])CCCC2)c1ccc(O)c(S(=O)(=O)N2CCOCC2)c1 (3D coordinates assigned)
O=S(=O)([N-]c1cc2c(cc1[O-])CCCC2)c1ccc(O)c(S(=O)(=O)N2CCOCC2)c1 (nonaromatic ring conformer: 70.85691453332147 kcal/mol)

>  <smiles>  (13) 
O=S(=O)(Nc1cc2c(cc1O)CCCC2)c1ccc(O)c(S(=O)(=O)N2CCOCC2)c1

>  <score_type>  (13) 
oracle

>  <origin>  (13) 
adgpu

>  <m_score__min__energy>  (13) 
-14.84

>  <m_primary>  (13) 
energy

$$$$
13:0
     RDKit          3D

 28 29  0  0  0  0  0  0  0  0999 V2000
   -8.2770   18.2490  -31.3040 O   0  0  0  0  0  0  0  0  0  0  0  0
   -8.0190   19.5740  -31.6300 C   0  0  0  0  0  0  0  0  0  0  0  0
   -9.0770   20.4560  -31.8590 C   0  0  0  0  0  0  0  0  0  0  0  0
   -8.8190   21.7870  -32.1940 C   0  0  0  0  0  0  0  0  0  0  0  0
   -7.4980   22.2490  -32.2970 C   0  0  0  0  0  0  0  0  0  0  0  0
   -7.2560   23.5770  -32.6470 O   0  0  0  0  0  0  0  0  0  0  0  0
   -6.4250   21.3680  -32.0460 C   0  0  0  0  0  0  0  0  0  0  0  0
   -4.9890   21.8250  -32.1560 C   0  0  0  0  0  0  0  0  0  0  0  0
   -4.7700   23.0440  -31.3760 N   0  0  0  0  0  0  0  0  0  0  0  0
   -3.6760   23.2370  -30.4550 C   0  0  0  0  0  0  0  0  0  0  0  0
   -3.0210   22.1440  -29.8520 C   0  0  0  0  0  0  0  0  0  0  0  0
   -1.9620   22.3530  -28.9650 C   0  0  0  0  0  0  0  0  0  0  0  0
   -1.5440   23.6490  -28.6640 C   0  0  0  0  0  0  0  0  0  0  0  0
   -2.1850   24.7440  -29.2480 C   0  0  0  0  0  0  0  0  0  0  0  0
   -1.7630   26.0330  -28.9420 O   0  0  0  0  0  0  0  0  0  0  0  0
   -3.2470   24.5440  -30.1400 C   0  0  0  0  0  0  0  0  0  0  0  0
   -3.8700   25.6470  -30.7150 O   0  0  0  0  0  0  0  0  0  0  0  0
   -6.6990   20.0250  -31.7280 C   0  0  0  0  0  0  0  0  0  0  0  0
  -10.1151   20.1020  -31.7754 H   0  0  0  0  0  0  0  0  0  0  0  0
   -9.6558   22.4769  -32.3781 H   0  0  0  0  0  0  0  0  0  0  0  0
   -6.7880   23.8220  -33.5100 H   0  0  0  0  0  0  0  0  0  0  0  0
   -4.3280   21.0313  -31.7777 H   0  0  0  0  0  0  0  0  0  0  0  0
   -4.7667   22.0376  -33.2121 H   0  0  0  0  0  0  0  0  0  0  0  0
   -5.4380   23.8320  -31.5390 H   0  0  0  0  0  0  0  0  0  0  0  0
   -3.3462   21.1186  -30.0816 H   0  0  0  0  0  0  0  0  0  0  0  0
   -1.4563   21.4925  -28.5025 H   0  0  0  0  0  0  0  0  0  0  0  0
   -0.7089   23.8090  -27.9662 H   0  0  0  0  0  0  0  0  0  0  0  0
   -5.8686   19.3246  -31.5552 H   0  0  0  0  0  0  0  0  0  0  0  0
  1  2  1  0
  2  3  2  0
  3  4  1  0
  4  5  2  0
  5  6  1  0
  5  7  1  0
  7  8  1  0
  8  9  1  0
  9 10  1  0
 10 11  2  0
 11 12  1  0
 12 13  2  0
 13 14  1  0
 14 15  1  0
 14 16  2  0
 16 17  1  0
  7 18  2  0
 18  2  1  0
 16 10  1  0
  3 19  1  0
  4 20  1  0
  6 21  1  0
  8 22  1  0
  8 23  1  0
  9 24  1  0
 11 25  1  0
 12 26  1  0
 13 27  1  0
 18 28  1  0
M  CHG  3   1  -1  15  -1  17  -1
M  END
>  <UniqueID>  (14) 
14

>  <SMILES>  (14) 
[O-]c1ccc(O)c(CNc2cccc([O-])c2[O-])c1

>  <Energy>  (14) 
29.814820838813045

>  <Genealogy>  (14) 
[O-]c1ccc(O)c(CNc2cccc([O-])c2[O-])c1 (protonated)
[O-]c1ccc(O)c(CNc2cccc([O-])c2[O-])c1 (3D coordinates assigned)
[O-]c1ccc(O)c(CNc2cccc([O-])c2[O-])c1 (optimized conformer: 29.814820838813045 kcal/mol)

>  <smiles>  (14) 
Oc1ccc(O)c(CNc2cccc(O)c2O)c1

>  <score_type>  (14) 
oracle

>  <origin>  (14) 
adgpu

>  <m_score__min__energy>  (14) 
-12.279999999999999

>  <m_primary>  (14) 
energy

$$$$
14:0
     RDKit          3D

 42 44  0  0  0  0  0  0  0  0999 V2000
   -3.3690   23.2260  -29.9340 O   0  0  0  0  0  0  0  0  0  0  0  0
   -3.5210   24.4770  -29.9460 C   0  0  0  0  0  0  0  0  0  0  0  0
   -2.6810   25.2860  -29.1100 N   0  0  0  0  0  0  0  0  0  0  0  0
   -1.4750   25.0340  -28.6800 C   0  0  0  0  0  0  0  0  0  0  0  0
   -0.7130   23.9290  -29.1150 C   0  0  0  0  0  0  0  0  0  0  0  0
    0.5750   23.7390  -28.6080 C   0  0  0  0  0  0  0  0  0  0  0  0
    1.0970   24.6190  -27.7150 N   0  0  0  0  0  0  0  0  0  0  0  0
    0.3950   25.7020  -27.2930 C   0  0  0  0  0  0  0  0  0  0  0  0
   -0.8960   25.9330  -27.7740 C   0  0  0  0  0  0  0  0  0  0  0  0
   -4.4490   25.0760  -30.8590 N   0  0  0  0  0  0  0  0  0  0  0  0
   -5.8910   25.1110  -30.6420 C   0  0  0  0  0  0  0  0  0  0  0  0
   -6.5080   23.7920  -31.0170 C   0  0  0  0  0  0  0  0  0  0  0  0
   -6.2950   23.2550  -32.2960 C   0  0  0  0  0  0  0  0  0  0  0  0
   -6.8490   22.0200  -32.6450 C   0  0  0  0  0  0  0  0  0  0  0  0
   -7.6160   21.3040  -31.7160 C   0  0  0  0  0  0  0  0  0  0  0  0
   -8.3340   19.7620  -32.1630 S   0  0  0  0  0  0  0  0  0  0  0  0
   -9.5000   19.9880  -33.0840 O   0  0  0  0  0  0  0  0  0  0  0  0
   -8.8390   19.0570  -30.9350 O   0  0  0  0  0  0  0  0  0  0  0  0
   -7.1190   18.7740  -32.9650 C   0  0  0  0  0  0  0  0  0  0  0  0
   -6.3240   19.3220  -33.9810 C   0  0  0  0  0  0  0  0  0  0  0  0
   -5.3440   18.5420  -34.6040 C   0  0  0  0  0  0  0  0  0  0  0  0
   -5.1480   17.2140  -34.2120 C   0  0  0  0  0  0  0  0  0  0  0  0
   -4.1690   16.4480  -34.8400 O   0  0  0  0  0  0  0  0  0  0  0  0
   -5.9370   16.6670  -33.1900 C   0  0  0  0  0  0  0  0  0  0  0  0
   -6.9160   17.4450  -32.5670 C   0  0  0  0  0  0  0  0  0  0  0  0
   -7.8340   21.8390  -30.4390 C   0  0  0  0  0  0  0  0  0  0  0  0
   -7.2810   23.0730  -30.0900 C   0  0  0  0  0  0  0  0  0  0  0  0
   -1.1299   23.2224  -29.8478 H   0  0  0  0  0  0  0  0  0  0  0  0
    1.1691   22.8724  -28.9337 H   0  0  0  0  0  0  0  0  0  0  0  0
    0.8441   26.3993  -26.5704 H   0  0  0  0  0  0  0  0  0  0  0  0
   -1.4572   26.8190  -27.4422 H   0  0  0  0  0  0  0  0  0  0  0  0
   -6.0932   25.3174  -29.5806 H   0  0  0  0  0  0  0  0  0  0  0  0
   -6.3280   25.9015  -31.2698 H   0  0  0  0  0  0  0  0  0  0  0  0
   -5.6888   23.8090  -33.0278 H   0  0  0  0  0  0  0  0  0  0  0  0
   -6.6825   21.6090  -33.6516 H   0  0  0  0  0  0  0  0  0  0  0  0
   -6.4710   20.3677  -34.2891 H   0  0  0  0  0  0  0  0  0  0  0  0
   -4.7258   18.9745  -35.4045 H   0  0  0  0  0  0  0  0  0  0  0  0
   -3.8080   16.6960  -35.7540 H   0  0  0  0  0  0  0  0  0  0  0  0
   -5.7848   15.6232  -32.8781 H   0  0  0  0  0  0  0  0  0  0  0  0
   -7.5292   17.0137  -31.7620 H   0  0  0  0  0  0  0  0  0  0  0  0
   -8.4427   21.2850  -29.7092 H   0  0  0  0  0  0  0  0  0  0  0  0
   -7.4515   23.4842  -29.0841 H   0  0  0  0  0  0  0  0  0  0  0  0
  1  2  2  0
  2  3  1  0
  3  4  2  3
  4  5  1  0
  5  6  2  0
  6  7  1  0
  7  8  1  0
  8  9  2  0
  2 10  1  0
 10 11  1  0
 11 12  1  0
 12 13  2  0
 13 14  1  0
 14 15  2  0
 15 16  1  0
 16 17  2  0
 16 18  2  0
 16 19  1  0
 19 20  2  0
 20 21  1  0
 21 22  2  0
 22 23  1  0
 22 24  1  0
 24 25  2  0
 15 26  1  0
 26 27  2  0
  9  4  1  0
 27 12  1  0
 25 19  1  0
  5 28  1  0
  6 29  1  0
  8 30  1  0
  9 31  1  0
 11 32  1  0
 11 33  1  0
 13 34  1  0
 14 35  1  0
 20 36  1  0
 21 37  1  0
 23 38  1  0
 24 39  1  0
 25 40  1  0
 26 41  1  0
 27 42  1  0
M  CHG  2   7  -1  10  -1
M  END
>  <UniqueID>  (15) 
15

>  <SMILES>  (15) 
O=C(N=c1cc[n-]cc1)[N-]Cc1ccc(S(=O)(=O)c2ccc(O)cc2)cc1

>  <Energy>  (15) 
52.64383675852059

>  <Genealogy>  (15) 
O=C(N=c1cc[n-]cc1)[N-]Cc1ccc(S(=O)(=O)c2ccc(O)cc2)cc1 (protonated)
O=C(N=c1cc[n-]cc1)[N-]Cc1ccc(S(=O)(=O)c2ccc(O)cc2)cc1 (3D coordinates assigned)
O=C(N=c1cc[n-]cc1)[N-]Cc1ccc(S(=O)(=O)c2ccc(O)cc2)cc1 (optimized conformer: 52.64383675852059 kcal/mol)

>  <smiles>  (15) 
O=C(N=c1cc[nH]cc1)NCc1ccc(S(=O)(=O)c2ccc(O)cc2)cc1

>  <score_type>  (15) 
oracle

>  <origin>  (15) 
adgpu

>  <m_score__min__energy>  (15) 
-11.039999999999999

>  <m_primary>  (15) 
energy

$$$$
15:0
     RDKit          3D

 33 35  0  0  0  0  0  0  0  0999 V2000
   -9.4490   19.5850  -32.4870 C   0  0  0  0  0  0  0  0  0  0  0  0
   -8.3610   20.5680  -32.1710 C   0  0  0  0  0  0  0  0  0  0  0  0
   -7.0820   20.4090  -32.7240 C   0  0  0  0  0  0  0  0  0  0  0  0
   -6.0570   21.3040  -32.4000 C   0  0  0  0  0  0  0  0  0  0  0  0
   -6.2920   22.3570  -31.4980 C   0  0  0  0  0  0  0  0  0  0  0  0
   -5.2610   23.3050  -31.1700 N   0  0  0  0  0  0  0  0  0  0  0  0
   -4.0850   22.9890  -30.4010 C   0  0  0  0  0  0  0  0  0  0  0  0
   -3.8640   21.6850  -29.9470 C   0  0  0  0  0  0  0  0  0  0  0  0
   -2.7440   21.3730  -29.1780 C   0  0  0  0  0  0  0  0  0  0  0  0
   -2.5770   20.0550  -28.7640 O   0  0  0  0  0  0  0  0  0  0  0  0
   -1.8140   22.3800  -28.8310 C   0  0  0  0  0  0  0  0  0  0  0  0
   -0.6660   22.0920  -28.0530 C   0  0  0  0  0  0  0  0  0  0  0  0
   -0.3970   20.8040  -27.6010 O   0  0  0  0  0  0  0  0  0  0  0  0
    0.2310   23.1070  -27.7210 C   0  0  0  0  0  0  0  0  0  0  0  0
    0.0100   24.4120  -28.1470 C   0  0  0  0  0  0  0  0  0  0  0  0
   -1.1110   24.7270  -28.9150 C   0  0  0  0  0  0  0  0  0  0  0  0
   -1.2810   26.0490  -29.3130 O   0  0  0  0  0  0  0  0  0  0  0  0
   -2.0410   23.7180  -29.2710 C   0  0  0  0  0  0  0  0  0  0  0  0
   -3.1870   24.0080  -30.0510 C   0  0  0  0  0  0  0  0  0  0  0  0
   -3.4400   25.3010  -30.4970 O   0  0  0  0  0  0  0  0  0  0  0  0
   -7.5730   22.5150  -30.9510 C   0  0  0  0  0  0  0  0  0  0  0  0
   -8.5970   21.6200  -31.2740 C   0  0  0  0  0  0  0  0  0  0  0  0
   -9.8771   19.1982  -31.5504 H   0  0  0  0  0  0  0  0  0  0  0  0
  -10.2360   20.0844  -33.0712 H   0  0  0  0  0  0  0  0  0  0  0  0
   -9.0318   18.7515  -33.0712 H   0  0  0  0  0  0  0  0  0  0  0  0
   -6.8840   19.5768  -33.4156 H   0  0  0  0  0  0  0  0  0  0  0  0
   -5.0619   21.1835  -32.8531 H   0  0  0  0  0  0  0  0  0  0  0  0
   -5.3800   24.2880  -31.5020 H   0  0  0  0  0  0  0  0  0  0  0  0
   -4.5847   20.8936  -30.2005 H   0  0  0  0  0  0  0  0  0  0  0  0
    1.1204   22.8733  -27.1173 H   0  0  0  0  0  0  0  0  0  0  0  0
    0.7252   25.2026  -27.8761 H   0  0  0  0  0  0  0  0  0  0  0  0
   -7.7738   23.3492  -30.2627 H   0  0  0  0  0  0  0  0  0  0  0  0
   -9.5927   21.7414  -30.8225 H   0  0  0  0  0  0  0  0  0  0  0  0
  1  2  1  0
  2  3  2  0
  3  4  1  0
  4  5  2  0
  5  6  1  0
  6  7  1  0
  7  8  2  0
  8  9  1  0
  9 10  1  0
  9 11  2  0
 11 12  1  0
 12 13  1  0
 12 14  2  0
 14 15  1  0
 15 16  2  0
 16 17  1  0
 16 18  1  0
 18 19  2  0
 19 20  1  0
  5 21  1  0
 21 22  2  0
 22  2  1  0
 19  7  1  0
 18 11  1  0
  1 23  1  0
  1 24  1  0
  1 25  1  0
  3 26  1  0
  4 27  1  0
  6 28  1  0
  8 29  1  0
 14 30  1  0
 15 31  1  0
 21 32  1  0
 22 33  1  0
M  CHG  4  10  -1  13  -1  17  -1  20  -1
M  END
>  <UniqueID>  (16) 
16

>  <SMILES>  (16) 
Cc1ccc(Nc2cc([O-])c3c([O-])ccc([O-])c3c2[O-])cc1

>  <Energy>  (16) 
50.41327643235608

>  <Genealogy>  (16) 
Cc1ccc(Nc2cc([O-])c3c([O-])ccc([O-])c3c2[O-])cc1 (protonated)
Cc1ccc(Nc2cc([O-])c3c([O-])ccc([O-])c3c2[O-])cc1 (3D coordinates assigned)
Cc1ccc(Nc2cc([O-])c3c([O-])ccc([O-])c3c2[O-])cc1 (optimized conformer: 50.41327643235608 kcal/mol)

>  <smiles>  (16) 
Cc1ccc(Nc2cc(O)c3c(O)ccc(O)c3c2O)cc1

>  <score_type>  (16) 
oracle

>  <origin>  (16) 
adgpu

>  <m_score__min__energy>  (16) 
-13.800000000000001

>  <m_primary>  (16) 
energy

$$$$
16:0
     RDKit          3D

 22 23  0  0  0  0  0  0  0  0999 V2000
   -4.2330   25.0880  -30.7750 O   0  0  0  0  0  0  0  0  0  0  0  0
   -3.6800   23.8100  -30.7760 C   0  0  0  0  0  0  0  0  0  0  0  0
   -2.6130   23.4500  -29.9580 C   0  0  0  0  0  0  0  0  0  0  0  0
   -2.2120   21.8520  -30.3090 S   0  0  0  0  0  0  0  0  0  0  0  0
   -3.4080   21.6830  -31.4770 C   0  0  0  0  0  0  0  0  0  0  0  0
   -3.6810   20.3070  -32.3200 S   0  0  0  0  0  0  0  0  0  0  0  0
   -4.1320   22.8210  -31.6000 N   0  0  0  0  0  0  0  0  0  0  0  0
   -5.1690   22.9880  -32.5390 N   0  0  0  0  0  0  0  0  0  0  0  0
   -6.4900   22.4560  -32.3400 C   0  0  0  0  0  0  0  0  0  0  0  0
   -7.5300   23.2590  -31.8370 C   0  0  0  0  0  0  0  0  0  0  0  0
   -8.8030   22.7160  -31.6340 C   0  0  0  0  0  0  0  0  0  0  0  0
   -9.0450   21.3690  -31.9180 C   0  0  0  0  0  0  0  0  0  0  0  0
   -8.0120   20.5610  -32.4010 C   0  0  0  0  0  0  0  0  0  0  0  0
   -6.7380   21.1010  -32.6050 C   0  0  0  0  0  0  0  0  0  0  0  0
   -4.2080   25.6700  -31.6040 H   0  0  0  0  0  0  0  0  0  0  0  0
   -2.1197   24.0939  -29.2150 H   0  0  0  0  0  0  0  0  0  0  0  0
   -4.9570   23.4710  -33.4410 H   0  0  0  0  0  0  0  0  0  0  0  0
   -7.3415   24.3171  -31.6027 H   0  0  0  0  0  0  0  0  0  0  0  0
   -9.6154   23.3505  -31.2500 H   0  0  0  0  0  0  0  0  0  0  0  0
  -10.0479   20.9451  -31.7614 H   0  0  0  0  0  0  0  0  0  0  0  0
   -8.2010   19.4999  -32.6208 H   0  0  0  0  0  0  0  0  0  0  0  0
   -5.9253   20.4590  -32.9756 H   0  0  0  0  0  0  0  0  0  0  0  0
  1  2  1  0
  2  3  2  0
  3  4  1  0
  4  5  1  0
  5  6  2  0
  5  7  1  0
  7  8  1  0
  8  9  1  0
  9 10  2  0
 10 11  1  0
 11 12  2  0
 12 13  1  0
 13 14  2  0
  7  2  1  0
 14  9  1  0
  1 15  1  0
  3 16  1  0
  8 17  1  0
 10 18  1  0
 11 19  1  0
 12 20  1  0
 13 21  1  0
 14 22  1  0
M  END
>  <UniqueID>  (17) 
17

>  <SMILES>  (17) 
Oc1csc(=S)n1Nc1ccccc1

>  <Energy>  (17) 
58.89027503297612

>  <Genealogy>  (17) 
Oc1csc(=S)n1Nc1ccccc1 (3D coordinates assigned)
Oc1csc(=S)n1Nc1ccccc1 (optimized conformer: 58.89027503297612 kcal/mol)

>  <smiles>  (17) 
Oc1csc(=S)n1Nc1ccccc1

>  <score_type>  (17) 
oracle

>  <origin>  (17) 
adgpu

>  <m_score__min__energy>  (17) 
-6.4699999999999998

>  <m_primary>  (17) 
energy

$$$$
17:0
     RDKit          3D

 63 67  0  0  0  0  0  0  0  0999 V2000
   -9.7660   21.8960  -31.7740 C   0  0  0  0  0  0  0  0  0  0  0  0
   -8.4220   22.4520  -31.4120 C   0  0  0  0  0  0  0  0  0  0  0  0
   -7.9200   22.2980  -30.1110 C   0  0  0  0  0  0  0  0  0  0  0  0
   -6.7000   22.8800  -29.7540 C   0  0  0  0  0  0  0  0  0  0  0  0
   -5.9710   23.6300  -30.6900 C   0  0  0  0  0  0  0  0  0  0  0  0
   -4.7310   24.3620  -30.2570 C   0  0  0  0  0  0  0  0  0  0  0  0
   -3.5830   23.4670  -30.3580 N   0  0  0  0  0  0  0  0  0  0  0  0
   -3.4450   22.3020  -29.5340 C   0  0  0  0  0  0  0  0  0  0  0  0
   -4.2600   22.0950  -28.5940 O   0  0  0  0  0  0  0  0  0  0  0  0
   -2.4060   21.2950  -29.8180 C   0  0  0  0  0  0  0  0  0  0  0  0
   -2.1480   20.6050  -30.9950 C   0  0  0  0  0  0  0  0  0  0  0  0
   -2.9350   20.8150  -32.5540 S   0  0  0  0  0  0  0  0  0  0  0  0
   -2.9660   22.2800  -32.8890 O   0  0  0  0  0  0  0  0  0  0  0  0
   -2.1460   20.0980  -33.6120 O   0  0  0  0  0  0  0  0  0  0  0  0
   -4.5690   20.1580  -32.5010 C   0  0  0  0  0  0  0  0  0  0  0  0
   -5.5120   20.5150  -33.4780 C   0  0  0  0  0  0  0  0  0  0  0  0
   -6.8270   20.0460  -33.3920 C   0  0  0  0  0  0  0  0  0  0  0  0
   -7.2060   19.2160  -32.3330 C   0  0  0  0  0  0  0  0  0  0  0  0
   -8.8610   18.6430  -32.2190 Cl  0  0  0  0  0  0  0  0  0  0  0  0
   -6.2650   18.8470  -31.3640 C   0  0  0  0  0  0  0  0  0  0  0  0
   -4.9510   19.3150  -31.4480 C   0  0  0  0  0  0  0  0  0  0  0  0
   -1.1390   19.7340  -30.7990 N   0  0  0  0  0  0  0  0  0  0  0  0
   -0.7390   19.8530  -29.5420 N   0  0  0  0  0  0  0  0  0  0  0  0
    0.2710   19.0200  -28.9550 C   0  0  0  0  0  0  0  0  0  0  0  0
    1.6330   19.3000  -29.1480 C   0  0  0  0  0  0  0  0  0  0  0  0
    2.6080   18.4950  -28.5530 C   0  0  0  0  0  0  0  0  0  0  0  0
    2.2290   17.4070  -27.7640 C   0  0  0  0  0  0  0  0  0  0  0  0
    0.8750   17.1140  -27.5800 C   0  0  0  0  0  0  0  0  0  0  0  0
   -0.1010   17.9140  -28.1790 C   0  0  0  0  0  0  0  0  0  0  0  0
   -1.4860   20.7900  -28.9170 C   0  0  0  0  0  0  0  0  0  0  0  0
   -1.4510   21.1430  -27.1520 S   0  0  0  0  0  0  0  0  0  0  0  0
   -1.4070   22.9170  -27.4150 C   0  0  0  0  0  0  0  0  0  0  0  0
   -2.2910   23.7500  -26.7120 C   0  0  0  0  0  0  0  0  0  0  0  0
   -2.2740   25.1300  -26.9310 C   0  0  0  0  0  0  0  0  0  0  0  0
   -1.3760   25.6840  -27.8510 C   0  0  0  0  0  0  0  0  0  0  0  0
   -0.4870   24.8560  -28.5450 C   0  0  0  0  0  0  0  0  0  0  0  0
   -0.5000   23.4760  -28.3250 C   0  0  0  0  0  0  0  0  0  0  0  0
   -6.4780   23.7910  -31.9880 C   0  0  0  0  0  0  0  0  0  0  0  0
   -7.6970   23.2080  -32.3470 C   0  0  0  0  0  0  0  0  0  0  0  0
  -10.3262   21.6642  -30.8562 H   0  0  0  0  0  0  0  0  0  0  0  0
  -10.3224   22.6378  -32.3658 H   0  0  0  0  0  0  0  0  0  0  0  0
   -9.6357   20.9779  -32.3658 H   0  0  0  0  0  0  0  0  0  0  0  0
   -8.4882   21.7174  -29.3694 H   0  0  0  0  0  0  0  0  0  0  0  0
   -6.3093   22.7494  -28.7340 H   0  0  0  0  0  0  0  0  0  0  0  0
   -4.5742   25.2356  -30.9068 H   0  0  0  0  0  0  0  0  0  0  0  0
   -4.8459   24.6981  -29.2159 H   0  0  0  0  0  0  0  0  0  0  0  0
   -3.0150   23.5260  -31.2290 H   0  0  0  0  0  0  0  0  0  0  0  0
   -5.2157   21.1657  -34.3139 H   0  0  0  0  0  0  0  0  0  0  0  0
   -7.5633   20.3305  -34.1581 H   0  0  0  0  0  0  0  0  0  0  0  0
   -6.5607   18.1873  -30.5349 H   0  0  0  0  0  0  0  0  0  0  0  0
   -4.2143   19.0211  -30.6858 H   0  0  0  0  0  0  0  0  0  0  0  0
    1.9338   20.1561  -29.7698 H   0  0  0  0  0  0  0  0  0  0  0  0
    3.6741   18.7184  -28.7062 H   0  0  0  0  0  0  0  0  0  0  0  0
    2.9967   16.7801  -27.2870 H   0  0  0  0  0  0  0  0  0  0  0  0
    0.5777   16.2531  -26.9632 H   0  0  0  0  0  0  0  0  0  0  0  0
   -1.1658   17.6748  -28.0410 H   0  0  0  0  0  0  0  0  0  0  0  0
   -2.9973   23.3166  -25.9886 H   0  0  0  0  0  0  0  0  0  0  0  0
   -2.9674   25.7821  -26.3796 H   0  0  0  0  0  0  0  0  0  0  0  0
   -1.3693   26.7696  -28.0282 H   0  0  0  0  0  0  0  0  0  0  0  0
    0.2225   25.2914  -29.2641 H   0  0  0  0  0  0  0  0  0  0  0  0
    0.2034   22.8272  -28.8675 H   0  0  0  0  0  0  0  0  0  0  0  0
   -5.9137   24.3788  -32.7270 H   0  0  0  0  0  0  0  0  0  0  0  0
   -8.0896   23.3421  -33.3658 H   0  0  0  0  0  0  0  0  0  0  0  0
  1  2  1  0
  2  3  2  0
  3  4  1  0
  4  5  2  0
  5  6  1  0
  6  7  1  0
  7  8  1  0
  8  9  2  0
  8 10  1  0
 10 11  1  0
 11 12  1  0
 12 13  2  0
 12 14  2  0
 12 15  1  0
 15 16  2  0
 16 17  1  0
 17 18  2  0
 18 19  1  0
 18 20  1  0
 20 21  2  0
 11 22  2  0
 22 23  1  0
 23 24  1  0
 24 25  2  0
 25 26  1  0
 26 27  2  0
 27 28  1  0
 28 29  2  0
 23 30  1  0
 30 31  1  0
 31 32  1  0
 32 33  2  0
 33 34  1  0
 34 35  2  0
 35 36  1  0
 36 37  2  0
  5 38  1  0
 38 39  2  0
 39  2  1  0
 30 10  2  0
 37 32  1  0
 21 15  1  0
 29 24  1  0
  1 40  1  0
  1 41  1  0
  1 42  1  0
  3 43  1  0
  4 44  1  0
  6 45  1  0
  6 46  1  0
  7 47  1  0
 16 48  1  0
 17 49  1  0
 20 50  1  0
 21 51  1  0
 25 52  1  0
 26 53  1  0
 27 54  1  0
 28 55  1  0
 29 56  1  0
 33 57  1  0
 34 58  1  0
 35 59  1  0
 36 60  1  0
 37 61  1  0
 38 62  1  0
 39 63  1  0
M  END
>  <UniqueID>  (18) 
18

>  <SMILES>  (18) 
Cc1ccc(CNC(=O)c2c(S(=O)(=O)c3ccc(Cl)cc3)nn(-c3ccccc3)c2Sc2ccccc2)cc1

>  <Energy>  (18) 
97.6079468637655

>  <Genealogy>  (18) 
Cc1ccc(CNC(=O)c2c(S(=O)(=O)c3ccc(Cl)cc3)nn(-c3ccccc3)c2Sc2ccccc2)cc1 (3D coordinates assigned)
Cc1ccc(CNC(=O)c2c(S(=O)(=O)c3ccc(Cl)cc3)nn(-c3ccccc3)c2Sc2ccccc2)cc1 (optimized conformer: 97.6079468637655 kcal/mol)

>  <smiles>  (18) 
Cc1ccc(CNC(=O)c2c(S(=O)(=O)c3ccc(Cl)cc3)nn(-c3ccccc3)c2Sc2ccccc2)cc1

>  <score_type>  (18) 
oracle

>  <origin>  (18) 
adgpu

>  <m_score__min__energy>  (18) 
-11.220000000000001

>  <m_primary>  (18) 
energy

$$$$
18:0
     RDKit          3D

 53 56  0  0  0  0  0  0  0  0999 V2000
   -2.6910   19.7380  -27.4550 C   0  0  0  0  0  0  0  0  0  0  0  0
   -2.3670   21.2180  -28.3950 S   0  0  0  0  0  0  0  0  0  0  0  0
   -3.6430   21.5900  -29.0980 O   0  0  0  0  0  0  0  0  0  0  0  0
   -1.3120   20.9510  -29.4300 O   0  0  0  0  0  0  0  0  0  0  0  0
   -1.8590   22.5510  -27.3360 C   0  0  0  0  0  0  0  0  0  0  0  0
   -0.9970   22.2610  -26.2640 C   0  0  0  0  0  0  0  0  0  0  0  0
   -0.5040   23.2810  -25.4480 C   0  0  0  0  0  0  0  0  0  0  0  0
   -0.8580   24.6060  -25.6950 C   0  0  0  0  0  0  0  0  0  0  0  0
   -1.7180   24.9140  -26.7490 C   0  0  0  0  0  0  0  0  0  0  0  0
   -2.2420   23.8980  -27.5660 C   0  0  0  0  0  0  0  0  0  0  0  0
   -3.1760   24.2940  -28.6340 C   0  0  0  0  0  0  0  0  0  0  0  0
   -4.5500   24.2050  -28.5880 C   0  0  0  0  0  0  0  0  0  0  0  0
   -4.9600   24.8120  -29.7580 C   0  0  0  0  0  0  0  0  0  0  0  0
   -6.3500   25.0070  -30.2140 C   0  0  0  0  0  0  0  0  0  0  0  0
   -7.1370   25.6780  -29.4970 O   0  0  0  0  0  0  0  0  0  0  0  0
   -6.8250   24.4950  -31.4670 N   0  0  0  0  0  0  0  0  0  0  0  0
   -7.0710   23.1180  -31.7880 C   0  0  0  0  0  0  0  0  0  0  0  0
   -8.3710   22.6150  -31.6600 C   0  0  0  0  0  0  0  0  0  0  0  0
   -8.6450   21.2810  -31.9720 C   0  0  0  0  0  0  0  0  0  0  0  0
   -7.6190   20.4370  -32.4060 C   0  0  0  0  0  0  0  0  0  0  0  0
   -6.3070   20.9200  -32.5110 C   0  0  0  0  0  0  0  0  0  0  0  0
   -5.0090   19.8690  -33.0810 S   0  0  0  0  0  0  0  0  0  0  0  0
   -4.7470   18.7930  -32.0600 O   0  0  0  0  0  0  0  0  0  0  0  0
   -5.4380   19.2260  -34.3700 O   0  0  0  0  0  0  0  0  0  0  0  0
   -3.5530   20.7970  -33.3460 N   0  0  0  0  0  0  0  0  0  0  0  0
   -3.0360   21.3660  -32.1000 C   0  0  0  0  0  0  0  0  0  0  0  0
   -1.5390   21.5550  -32.3000 C   0  0  0  0  0  0  0  0  0  0  0  0
   -1.1630   20.6160  -33.4380 C   0  0  0  0  0  0  0  0  0  0  0  0
   -2.4690   19.9710  -33.8860 C   0  0  0  0  0  0  0  0  0  0  0  0
   -6.0340   22.2550  -32.1850 C   0  0  0  0  0  0  0  0  0  0  0  0
   -3.8850   25.2300  -30.4540 N   0  0  0  0  0  0  0  0  0  0  0  0
   -2.7970   24.9270  -29.7600 N   0  0  0  0  0  0  0  0  0  0  0  0
   -2.6407   19.9678  -26.3804 H   0  0  0  0  0  0  0  0  0  0  0  0
   -3.6935   19.3587  -27.7023 H   0  0  0  0  0  0  0  0  0  0  0  0
   -1.9387   18.9745  -27.7023 H   0  0  0  0  0  0  0  0  0  0  0  0
   -0.7076   21.2184  -26.0658 H   0  0  0  0  0  0  0  0  0  0  0  0
    0.1647   23.0384  -24.6090 H   0  0  0  0  0  0  0  0  0  0  0  0
   -0.4590   25.4094  -25.0584 H   0  0  0  0  0  0  0  0  0  0  0  0
   -1.9887   25.9625  -26.9425 H   0  0  0  0  0  0  0  0  0  0  0  0
   -5.1747   23.7552  -27.8022 H   0  0  0  0  0  0  0  0  0  0  0  0
   -9.1808   23.2732  -31.3121 H   0  0  0  0  0  0  0  0  0  0  0  0
   -9.6703   20.8942  -31.8759 H   0  0  0  0  0  0  0  0  0  0  0  0
   -7.8413   19.3915  -32.6658 H   0  0  0  0  0  0  0  0  0  0  0  0
   -3.7600   21.5700  -34.0220 H   0  0  0  0  0  0  0  0  0  0  0  0
   -3.5173   22.3338  -31.8956 H   0  0  0  0  0  0  0  0  0  0  0  0
   -3.2430   20.7056  -31.2450 H   0  0  0  0  0  0  0  0  0  0  0  0
   -1.3152   22.5974  -32.5709 H   0  0  0  0  0  0  0  0  0  0  0  0
   -0.9722   21.3352  -31.3832 H   0  0  0  0  0  0  0  0  0  0  0  0
   -0.7090   21.1794  -34.2666 H   0  0  0  0  0  0  0  0  0  0  0  0
   -0.4264   19.8641  -33.1186 H   0  0  0  0  0  0  0  0  0  0  0  0
   -2.5224   19.9461  -34.9844 H   0  0  0  0  0  0  0  0  0  0  0  0
   -2.5432   18.9347  -33.5246 H   0  0  0  0  0  0  0  0  0  0  0  0
   -5.0016   22.6306  -32.2400 H   0  0  0  0  0  0  0  0  0  0  0  0
  1  2  1  0
  2  3  2  0
  2  4  2  0
  2  5  1  0
  5  6  2  0
  6  7  1  0
  7  8  2  0
  8  9  1  0
  9 10  2  0
 10 11  1  0
 11 12  2  0
 12 13  1  0
 13 14  1  0
 14 15  2  0
 14 16  1  0
 16 17  1  0
 17 18  2  0
 18 19  1  0
 19 20  2  0
 20 21  1  0
 21 22  1  0
 22 23  2  0
 22 24  2  0
 22 25  1  0
 25 26  1  0
 26 27  1  0
 27 28  1  0
 28 29  1  0
 21 30  2  0
 13 31  2  0
 31 32  1  0
 10  5  1  0
 32 11  1  0
 30 17  1  0
 29 25  1  0
  1 33  1  0
  1 34  1  0
  1 35  1  0
  6 36  1  0
  7 37  1  0
  8 38  1  0
  9 39  1  0
 12 40  1  0
 18 41  1  0
 19 42  1  0
 20 43  1  0
 25 44  1  0
 26 45  1  0
 26 46  1  0
 27 47  1  0
 27 48  1  0
 28 49  1  0
 28 50  1  0
 29 51  1  0
 29 52  1  0
 30 53  1  0
M  CHG  3  16  -1  25   1  32  -1
M  END
>  <UniqueID>  (19) 
19

>  <SMILES>  (19) 
CS(=O)(=O)c1ccccc1-c1cc(C(=O)[N-]c2cccc(S(=O)(=O)[NH+]3CCCC3)c2)n[n-]1

>  <Energy>  (19) 
95.77532716325062

>  <Genealogy>  (19) 
CS(=O)(=O)c1ccccc1-c1cc(C(=O)[N-]c2cccc(S(=O)(=O)[NH+]3CCCC3)c2)n[n-]1 (protonated)
CS(=O)(=O)c1ccccc1-c1cc(C(=O)[N-]c2cccc(S(=O)(=O)[NH+]3CCCC3)c2)n[n-]1 (3D coordinates assigned)
CS(=O)(=O)c1ccccc1-c1cc(C(=O)[N-]c2cccc(S(=O)(=O)[NH+]3CCCC3)c2)n[n-]1 (nonaromatic ring conformer: 95.77532716325062 kcal/mol)

>  <smiles>  (19) 
CS(=O)(=O)c1ccccc1-c1cc(C(=O)Nc2cccc(S(=O)(=O)N3CCCC3)c2)n[nH]1

>  <score_type>  (19) 
oracle

>  <origin>  (19) 
adgpu

>  <m_score__min__energy>  (19) 
-12.220000000000001

>  <m_primary>  (19) 
energy

$$$$
19:0
     RDKit          3D

 44 47  0  0  1  0  0  0  0  0999 V2000
   -5.9480   18.7700  -35.4230 O   0  0  0  0  0  0  0  0  0  0  0  0
   -5.1700   18.2000  -34.2710 S   0  0  0  0  0  0  0  0  0  0  0  0
   -4.1730   17.1860  -34.7560 O   0  0  0  0  0  0  0  0  0  0  0  0
   -6.2290   17.5590  -33.0580 N   0  0  0  0  0  0  0  0  0  0  0  0
   -7.1970   18.2930  -32.6110 C   0  0  0  0  0  0  0  0  0  0  0  0
   -7.4070   19.5870  -33.0830 C   0  0  0  0  0  0  0  0  0  0  0  0
   -8.4220   20.3890  -32.6320 C   0  0  0  0  0  0  0  0  0  0  0  0
   -9.2460   19.8990  -31.6910 N   0  0  0  0  0  0  0  0  0  0  0  0
   -9.0580   18.6670  -31.2320 C   0  0  0  0  0  0  0  0  0  0  0  0
   -8.0620   17.8590  -31.6640 N   0  0  0  0  0  0  0  0  0  0  0  0
   -4.2320   19.4600  -33.4690 C   0  0  0  0  0  0  0  0  0  0  0  0
   -3.0260   19.1200  -32.8470 C   0  0  0  0  0  0  0  0  0  0  0  0
   -2.2500   20.0610  -32.2050 C   0  0  0  0  0  0  0  0  0  0  0  0
   -2.6940   21.3800  -32.1820 C   0  0  0  0  0  0  0  0  0  0  0  0
   -1.8750   22.2860  -31.5210 O   0  0  0  0  0  0  0  0  0  0  0  0
   -1.7470   22.1540  -30.1310 C   0  0  0  0  0  0  0  0  0  0  0  0
   -0.6560   21.4950  -29.6030 C   0  0  0  0  0  0  0  0  0  0  0  0
   -0.4600   21.3250  -28.2460 C   0  0  0  0  0  0  0  0  0  0  0  0
   -1.4160   21.8480  -27.3960 C   0  0  0  0  0  0  0  0  0  0  0  0
   -2.5220   22.5150  -27.9170 C   0  0  0  0  0  0  0  0  0  0  0  0
   -3.4710   23.0350  -27.0750 F   0  0  0  0  0  0  0  0  0  0  0  0
   -2.7020   22.6770  -29.2820 C   0  0  0  0  0  0  0  0  0  0  0  0
   -3.8530   23.3720  -29.8480 C   0  0  0  0  0  0  0  0  0  0  0  0
   -5.1350   22.8610  -29.7820 C   0  0  0  0  0  0  0  0  0  0  0  0
   -6.1320   23.6270  -30.3620 C   0  0  0  0  0  0  0  0  0  0  0  0
   -5.8890   24.8360  -30.9790 C   0  0  0  0  0  0  0  0  0  0  0  0
   -4.5990   25.2650  -31.0010 N   0  0  0  0  0  0  0  0  0  0  0  0
   -3.6210   24.5660  -30.4600 N   0  0  0  0  0  0  0  0  0  0  0  0
   -3.8840   21.7490  -32.7880 C   0  0  0  0  0  0  0  0  0  0  0  0
   -4.6420   20.7660  -33.4290 C   0  0  0  0  0  0  0  0  0  0  0  0
   -6.7273   19.9824  -33.8523 H   0  0  0  0  0  0  0  0  0  0  0  0
   -8.5584   21.4056  -33.0293 H   0  0  0  0  0  0  0  0  0  0  0  0
  -10.0310   20.5230  -31.3440 H   0  0  0  0  0  0  0  0  0  0  0  0
   -9.7455   18.2846  -30.4631 H   0  0  0  0  0  0  0  0  0  0  0  0
   -2.6879   18.0735  -32.8709 H   0  0  0  0  0  0  0  0  0  0  0  0
   -1.3032   19.7766  -31.7227 H   0  0  0  0  0  0  0  0  0  0  0  0
    0.0938   21.0852  -30.2957 H   0  0  0  0  0  0  0  0  0  0  0  0
    0.4219   20.7945  -27.8576 H   0  0  0  0  0  0  0  0  0  0  0  0
   -1.3033   21.7374  -26.3074 H   0  0  0  0  0  0  0  0  0  0  0  0
   -5.3517   21.8986  -29.2954 H   0  0  0  0  0  0  0  0  0  0  0  0
   -7.1662   23.2537  -30.3290 H   0  0  0  0  0  0  0  0  0  0  0  0
   -6.7001   25.4252  -31.4318 H   0  0  0  0  0  0  0  0  0  0  0  0
   -4.2250   22.7946  -32.7649 H   0  0  0  0  0  0  0  0  0  0  0  0
   -5.5892   21.0473  -33.9123 H   0  0  0  0  0  0  0  0  0  0  0  0
  1  2  2  0
  2  3  2  0
  2  4  1  0
  4  5  2  0
  5  6  1  0
  6  7  2  0
  7  8  1  0
  8  9  1  0
  9 10  2  0
  2 11  1  0
 11 12  2  0
 12 13  1  0
 13 14  2  0
 14 15  1  0
 15 16  1  0
 16 17  2  0
 17 18  1  0
 18 19  2  0
 19 20  1  0
 20 21  1  0
 20 22  2  0
 22 23  1  0
 23 24  2  0
 24 25  1  0
 25 26  2  0
 26 27  1  0
 27 28  2  0
 14 29  1  0
 29 30  2  0
 10  5  1  0
 30 11  1  0
 22 16  1  0
 28 23  1  0
  6 31  1  0
  7 32  1  0
  8 33  1  0
  9 34  1  0
 12 35  1  0
 13 36  1  0
 17 37  1  0
 18 38  1  0
 19 39  1  0
 24 40  1  0
 25 41  1  0
 26 42  1  0
 29 43  1  0
 30 44  1  0
M  END
>  <smiles>  (20) 
O=S(=O)(N=c1cc[nH]cn1)c1ccc(Oc2cccc(F)c2-c2cccnn2)cc1

>  <score_type>  (20) 
oracle

>  <origin>  (20) 
adgpu

>  <m_score__min__energy>  (20) 
-9.5700000000000003

>  <m_primary>  (20) 
energy

$$$$
20:0
     RDKit          3D

 55 58  0  0  0  0  0  0  0  0999 V2000
   -9.4280   21.2470  -32.0810 C   0  0  0  0  0  0  0  0  0  0  0  0
   -8.3430   22.1310  -31.5290 C   0  0  0  0  0  0  0  0  0  0  0  0
   -7.9470   22.0200  -30.1790 C   0  0  0  0  0  0  0  0  0  0  0  0
   -6.9390   22.8430  -29.6620 C   0  0  0  0  0  0  0  0  0  0  0  0
   -6.3130   23.7880  -30.4910 C   0  0  0  0  0  0  0  0  0  0  0  0
   -5.1670   24.9540  -29.8180 S   0  0  0  0  0  0  0  0  0  0  0  0
   -5.1250   24.7700  -28.3240 O   0  0  0  0  0  0  0  0  0  0  0  0
   -5.6070   26.3690  -30.1260 O   0  0  0  0  0  0  0  0  0  0  0  0
   -3.5780   24.6920  -30.4610 N   0  0  0  0  0  0  0  0  0  0  0  0
   -3.0590   23.4090  -30.8390 C   0  0  0  0  0  0  0  0  0  0  0  0
   -3.6200   22.6720  -31.9000 C   0  0  0  0  0  0  0  0  0  0  0  0
   -3.1820   21.3690  -32.1810 C   0  0  0  0  0  0  0  0  0  0  0  0
   -2.1420   20.8090  -31.4140 C   0  0  0  0  0  0  0  0  0  0  0  0
   -1.5330   21.5790  -30.3990 C   0  0  0  0  0  0  0  0  0  0  0  0
   -1.9910   22.8730  -30.1110 C   0  0  0  0  0  0  0  0  0  0  0  0
   -1.4060   23.6210  -29.0830 O   0  0  0  0  0  0  0  0  0  0  0  0
   -1.6820   19.3840  -31.6260 C   0  0  0  0  0  0  0  0  0  0  0  0
   -2.2910   18.7300  -32.7990 N   0  0  0  0  0  0  0  0  0  0  0  0
   -2.0010   17.3320  -33.0210 C   0  0  0  0  0  0  0  0  0  0  0  0
   -0.8670   16.8620  -32.7190 O   0  0  0  0  0  0  0  0  0  0  0  0
   -2.9930   16.4930  -33.5660 O   0  0  0  0  0  0  0  0  0  0  0  0
   -4.1110   16.0080  -32.8190 C   0  0  0  0  0  0  0  0  0  0  0  0
   -5.2020   17.0460  -32.7790 C   0  0  0  0  0  0  0  0  0  0  0  0
   -5.9200   17.2920  -31.5950 C   0  0  0  0  0  0  0  0  0  0  0  0
   -6.9300   18.2610  -31.5720 C   0  0  0  0  0  0  0  0  0  0  0  0
   -7.2290   18.9880  -32.7290 C   0  0  0  0  0  0  0  0  0  0  0  0
   -6.5200   18.7470  -33.9100 C   0  0  0  0  0  0  0  0  0  0  0  0
   -5.5150   17.7760  -33.9380 C   0  0  0  0  0  0  0  0  0  0  0  0
   -2.9520   19.5280  -33.8470 C   0  0  0  0  0  0  0  0  0  0  0  0
   -3.8970   20.5460  -33.2220 C   0  0  0  0  0  0  0  0  0  0  0  0
   -6.6820   23.8730  -31.8480 C   0  0  0  0  0  0  0  0  0  0  0  0
   -7.6820   23.0420  -32.3690 C   0  0  0  0  0  0  0  0  0  0  0  0
   -9.9874   20.7912  -31.2508 H   0  0  0  0  0  0  0  0  0  0  0  0
  -10.1122   21.8480  -32.6979 H   0  0  0  0  0  0  0  0  0  0  0  0
   -8.9776   20.4554  -32.6979 H   0  0  0  0  0  0  0  0  0  0  0  0
   -8.4346   21.2803  -29.5270 H   0  0  0  0  0  0  0  0  0  0  0  0
   -6.6379   22.7495  -28.6081 H   0  0  0  0  0  0  0  0  0  0  0  0
   -4.4115   23.1236  -32.5161 H   0  0  0  0  0  0  0  0  0  0  0  0
   -0.6911   21.1598  -29.8286 H   0  0  0  0  0  0  0  0  0  0  0  0
   -1.8600   24.4410  -28.6910 H   0  0  0  0  0  0  0  0  0  0  0  0
   -0.5901   19.3883  -31.7594 H   0  0  0  0  0  0  0  0  0  0  0  0
   -1.9960   18.8111  -30.7410 H   0  0  0  0  0  0  0  0  0  0  0  0
   -4.4966   15.0942  -33.2947 H   0  0  0  0  0  0  0  0  0  0  0  0
   -3.7870   15.7892  -31.7908 H   0  0  0  0  0  0  0  0  0  0  0  0
   -5.6872   16.7211  -30.6840 H   0  0  0  0  0  0  0  0  0  0  0  0
   -7.4887   18.4508  -30.6437 H   0  0  0  0  0  0  0  0  0  0  0  0
   -8.0223   19.7498  -32.7099 H   0  0  0  0  0  0  0  0  0  0  0  0
   -6.7535   19.3223  -34.8180 H   0  0  0  0  0  0  0  0  0  0  0  0
   -4.9666   17.5825  -34.8717 H   0  0  0  0  0  0  0  0  0  0  0  0
   -2.1881   20.0565  -34.4362 H   0  0  0  0  0  0  0  0  0  0  0  0
   -3.5311   18.8549  -34.4962 H   0  0  0  0  0  0  0  0  0  0  0  0
   -4.2806   21.2128  -34.0083 H   0  0  0  0  0  0  0  0  0  0  0  0
   -4.7262   20.0083  -32.7390 H   0  0  0  0  0  0  0  0  0  0  0  0
   -6.1800   24.5989  -32.5046 H   0  0  0  0  0  0  0  0  0  0  0  0
   -7.9492   23.1028  -33.4343 H   0  0  0  0  0  0  0  0  0  0  0  0
  1  2  1  0
  2  3  2  0
  3  4  1  0
  4  5  2  0
  5  6  1  0
  6  7  2  0
  6  8  2  0
  6  9  1  0
  9 10  1  0
 10 11  2  0
 11 12  1  0
 12 13  2  0
 13 14  1  0
 14 15  2  0
 15 16  1  0
 13 17  1  0
 17 18  1  0
 18 19  1  0
 19 20  2  0
 19 21  1  0
 21 22  1  0
 22 23  1  0
 23 24  2  0
 24 25  1  0
 25 26  2  0
 26 27  1  0
 27 28  2  0
 18 29  1  0
 29 30  1  0
  5 31  1  0
 31 32  2  0
 32  2  1  0
 15 10  1  0
 28 23  1  0
 30 12  1  0
  1 33  1  0
  1 34  1  0
  1 35  1  0
  3 36  1  0
  4 37  1  0
 11 38  1  0
 14 39  1  0
 16 40  1  0
 17 41  1  0
 17 42  1  0
 22 43  1  0
 22 44  1  0
 24 45  1  0
 25 46  1  0
 26 47  1  0
 27 48  1  0
 28 49  1  0
 29 50  1  0
 29 51  1  0
 30 52  1  0
 30 53  1  0
 31 54  1  0
 32 55  1  0
M  CHG  1   9  -1
M  END
>  <UniqueID>  (21) 
20

>  <SMILES>  (21) 
Cc1ccc(S(=O)(=O)[N-]c2cc3c(cc2O)CN(C(=O)OCc2ccccc2)CC3)cc1

>  <Energy>  (21) 
64.21122853677815

>  <Genealogy>  (21) 
Cc1ccc(S(=O)(=O)[N-]c2cc3c(cc2O)CN(C(=O)OCc2ccccc2)CC3)cc1 (protonated)
Cc1ccc(S(=O)(=O)[N-]c2cc3c(cc2O)CN(C(=O)OCc2ccccc2)CC3)cc1 (3D coordinates assigned)
Cc1ccc(S(=O)(=O)[N-]c2cc3c(cc2O)CN(C(=O)OCc2ccccc2)CC3)cc1 (nonaromatic ring conformer: 64.21122853677815 kcal/mol)

>  <smiles>  (21) 
Cc1ccc(S(=O)(=O)Nc2cc3c(cc2O)CN(C(=O)OCc2ccccc2)CC3)cc1

>  <score_type>  (21) 
oracle

>  <origin>  (21) 
adgpu

>  <m_score__min__energy>  (21) 
-11.49

>  <m_primary>  (21) 
energy

$$$$
21:0
     RDKit          3D

 60 64  0  0  0  0  0  0  0  0999 V2000
   -2.8790   21.9420  -33.7810 O   0  0  0  0  0  0  0  0  0  0  0  0
   -2.5990   20.9310  -33.0800 C   0  0  0  0  0  0  0  0  0  0  0  0
   -3.3210   19.6730  -33.3100 C   0  0  0  0  0  0  0  0  0  0  0  0
   -2.7170   18.6320  -34.0340 C   0  0  0  0  0  0  0  0  0  0  0  0
   -3.4030   17.4310  -34.2390 C   0  0  0  0  0  0  0  0  0  0  0  0
   -4.6980   17.2690  -33.7370 C   0  0  0  0  0  0  0  0  0  0  0  0
   -5.3140   18.3070  -33.0240 C   0  0  0  0  0  0  0  0  0  0  0  0
   -6.9680   18.1220  -32.4400 S   0  0  0  0  0  0  0  0  0  0  0  0
   -7.5890   16.9040  -33.0680 O   0  0  0  0  0  0  0  0  0  0  0  0
   -6.9430   17.9280  -30.9500 O   0  0  0  0  0  0  0  0  0  0  0  0
   -7.9060   19.5440  -32.8300 N   0  0  0  0  0  0  0  0  0  0  0  0
   -7.3680   20.7370  -32.1730 C   0  0  0  0  0  0  0  0  0  0  0  0
   -8.5270   21.7040  -32.0170 C   0  0  0  0  0  0  0  0  0  0  0  0
   -9.7670   20.8260  -31.9790 C   0  0  0  0  0  0  0  0  0  0  0  0
   -9.3000   19.4270  -32.3800 C   0  0  0  0  0  0  0  0  0  0  0  0
   -4.6130   19.5000  -32.7940 C   0  0  0  0  0  0  0  0  0  0  0  0
   -1.5740   21.0150  -32.0740 N   0  0  0  0  0  0  0  0  0  0  0  0
   -0.1990   20.6450  -32.4420 C   0  0  0  0  0  0  0  0  0  0  0  0
    0.0450   20.8780  -33.9030 C   0  0  0  0  0  0  0  0  0  0  0  0
    0.1880   19.8990  -34.8660 C   0  0  0  0  0  0  0  0  0  0  0  0
    0.4320   20.5700  -36.0460 C   0  0  0  0  0  0  0  0  0  0  0  0
    0.4170   21.9130  -35.7310 C   0  0  0  0  0  0  0  0  0  0  0  0
    0.1830   22.0660  -34.4460 O   0  0  0  0  0  0  0  0  0  0  0  0
   -1.9800   21.0570  -30.6580 C   0  0  0  0  0  0  0  0  0  0  0  0
   -2.2120   22.4780  -30.1820 C   0  0  0  0  0  0  0  0  0  0  0  0
   -1.1670   23.1200  -29.4920 C   0  0  0  0  0  0  0  0  0  0  0  0
   -1.3030   24.4470  -29.0830 C   0  0  0  0  0  0  0  0  0  0  0  0
   -0.3600   25.0190  -28.4740 O   0  0  0  0  0  0  0  0  0  0  0  0
   -2.4480   25.1250  -29.3430 N   0  0  0  0  0  0  0  0  0  0  0  0
   -3.4950   24.5500  -29.9900 C   0  0  0  0  0  0  0  0  0  0  0  0
   -4.6560   25.2980  -30.2200 C   0  0  0  0  0  0  0  0  0  0  0  0
   -5.7480   24.7250  -30.8680 C   0  0  0  0  0  0  0  0  0  0  0  0
   -5.6930   23.3920  -31.2800 C   0  0  0  0  0  0  0  0  0  0  0  0
   -4.5430   22.6290  -31.0540 C   0  0  0  0  0  0  0  0  0  0  0  0
   -3.4160   23.1980  -30.4230 C   0  0  0  0  0  0  0  0  0  0  0  0
   -1.7030   18.7617  -34.4402 H   0  0  0  0  0  0  0  0  0  0  0  0
   -2.9234   16.6126  -34.7959 H   0  0  0  0  0  0  0  0  0  0  0  0
   -5.2354   16.3235  -33.9022 H   0  0  0  0  0  0  0  0  0  0  0  0
   -7.8860   19.6810  -33.8710 H   0  0  0  0  0  0  0  0  0  0  0  0
   -6.9568   20.4748  -31.1870 H   0  0  0  0  0  0  0  0  0  0  0  0
   -6.5548   21.1835  -32.7641 H   0  0  0  0  0  0  0  0  0  0  0  0
   -8.4298   22.2770  -31.0831 H   0  0  0  0  0  0  0  0  0  0  0  0
   -8.5654   22.4394  -32.8342 H   0  0  0  0  0  0  0  0  0  0  0  0
  -10.1947   20.8111  -30.9657 H   0  0  0  0  0  0  0  0  0  0  0  0
  -10.5490   21.2009  -32.6557 H   0  0  0  0  0  0  0  0  0  0  0  0
   -9.3612   18.7479  -31.5168 H   0  0  0  0  0  0  0  0  0  0  0  0
   -9.9347   19.0191  -33.1804 H   0  0  0  0  0  0  0  0  0  0  0  0
   -5.0794   20.3040  -32.2057 H   0  0  0  0  0  0  0  0  0  0  0  0
    0.5065   21.2538  -31.8575 H   0  0  0  0  0  0  0  0  0  0  0  0
   -0.0533   19.5760  -32.2275 H   0  0  0  0  0  0  0  0  0  0  0  0
    0.1212   18.8105  -34.7221 H   0  0  0  0  0  0  0  0  0  0  0  0
    0.6037   20.1247  -37.0371 H   0  0  0  0  0  0  0  0  0  0  0  0
    0.5767   22.7326  -36.4470 H   0  0  0  0  0  0  0  0  0  0  0  0
   -2.9113   20.4842  -30.5372 H   0  0  0  0  0  0  0  0  0  0  0  0
   -1.1685   20.6223  -30.0560 H   0  0  0  0  0  0  0  0  0  0  0  0
   -0.2380   22.5728  -29.2739 H   0  0  0  0  0  0  0  0  0  0  0  0
   -4.7062   26.3451  -29.8868 H   0  0  0  0  0  0  0  0  0  0  0  0
   -6.6527   25.3221  -31.0549 H   0  0  0  0  0  0  0  0  0  0  0  0
   -6.5591   22.9395  -31.7852 H   0  0  0  0  0  0  0  0  0  0  0  0
   -4.5166   21.5760  -31.3709 H   0  0  0  0  0  0  0  0  0  0  0  0
  1  2  2  0
  2  3  1  0
  3  4  2  0
  4  5  1  0
  5  6  2  0
  6  7  1  0
  7  8  1  0
  8  9  2  0
  8 10  2  0
  8 11  1  0
 11 12  1  0
 12 13  1  0
 13 14  1  0
 14 15  1  0
  7 16  2  0
  2 17  1  0
 17 18  1  0
 18 19  1  0
 19 20  2  0
 20 21  1  0
 21 22  2  0
 22 23  1  0
 17 24  1  0
 24 25  1  0
 25 26  2  0
 26 27  1  0
 27 28  2  0
 27 29  1  0
 29 30  1  0
 30 31  2  0
 31 32  1  0
 32 33  2  0
 33 34  1  0
 34 35  2  0
 16  3  1  0
 23 19  1  0
 35 25  1  0
 15 11  1  0
 35 30  1  0
  4 36  1  0
  5 37  1  0
  6 38  1  0
 11 39  1  0
 12 40  1  0
 12 41  1  0
 13 42  1  0
 13 43  1  0
 14 44  1  0
 14 45  1  0
 15 46  1  0
 15 47  1  0
 16 48  1  0
 18 49  1  0
 18 50  1  0
 20 51  1  0
 21 52  1  0
 22 53  1  0
 24 54  1  0
 24 55  1  0
 26 56  1  0
 31 57  1  0
 32 58  1  0
 33 59  1  0
 34 60  1  0
M  CHG  2  11   1  29  -1
M  END
>  <UniqueID>  (22) 
21

>  <SMILES>  (22) 
O=C(c1cccc(S(=O)(=O)[NH+]2CCCC2)c1)N(Cc1ccco1)Cc1cc(=O)[n-]c2ccccc12

>  <Energy>  (22) 
103.31513661525707

>  <Genealogy>  (22) 
O=C(c1cccc(S(=O)(=O)[NH+]2CCCC2)c1)N(Cc1ccco1)Cc1cc(=O)[n-]c2ccccc12 (protonated)
O=C(c1cccc(S(=O)(=O)[NH+]2CCCC2)c1)N(Cc1ccco1)Cc1cc(=O)[n-]c2ccccc12 (3D coordinates assigned)
O=C(c1cccc(S(=O)(=O)[NH+]2CCCC2)c1)N(Cc1ccco1)Cc1cc(=O)[n-]c2ccccc12 (nonaromatic ring conformer: 103.31513661525707 kcal/mol)

>  <smiles>  (22) 
O=C(c1cccc(S(=O)(=O)N2CCCC2)c1)N(Cc1ccco1)Cc1cc(=O)[nH]c2ccccc12

>  <score_type>  (22) 
oracle

>  <origin>  (22) 
adgpu

>  <m_score__min__energy>  (22) 
-12.699999999999999

>  <m_primary>  (22) 
energy

$$$$
22:0
     RDKit          3D

 53 55  0  0  0  0  0  0  0  0999 V2000
   -1.9920   24.5460  -26.2640 C   0  0  0  0  0  0  0  0  0  0  0  0
   -2.4000   23.9610  -27.5820 C   0  0  0  0  0  0  0  0  0  0  0  0
   -3.1100   24.6470  -28.4970 N   0  0  0  0  0  0  0  0  0  0  0  0
   -3.3710   23.8080  -29.5170 C   0  0  0  0  0  0  0  0  0  0  0  0
   -4.2090   24.1890  -30.6710 C   0  0  0  0  0  0  0  0  0  0  0  0
   -4.5600   25.3860  -30.8340 O   0  0  0  0  0  0  0  0  0  0  0  0
   -4.6290   23.1790  -31.5960 N   0  0  0  0  0  0  0  0  0  0  0  0
   -5.9510   22.6280  -31.6980 C   0  0  0  0  0  0  0  0  0  0  0  0
   -7.0890   23.4440  -31.7610 C   0  0  0  0  0  0  0  0  0  0  0  0
   -8.3550   22.8710  -31.8740 C   0  0  0  0  0  0  0  0  0  0  0  0
   -8.5150   21.4770  -31.9420 C   0  0  0  0  0  0  0  0  0  0  0  0
   -9.8440   20.9560  -32.0820 N   0  0  0  0  0  0  0  0  0  0  0  0
   -7.3670   20.6450  -31.8820 C   0  0  0  0  0  0  0  0  0  0  0  0
   -7.4390   18.8670  -31.8700 S   0  0  0  0  0  0  0  0  0  0  0  0
   -8.7950   18.3880  -31.4330 O   0  0  0  0  0  0  0  0  0  0  0  0
   -6.4510   18.3580  -30.8590 O   0  0  0  0  0  0  0  0  0  0  0  0
   -7.0490   18.1870  -33.4360 N   0  0  0  0  0  0  0  0  0  0  0  0
   -5.9240   18.9170  -34.0560 C   0  0  0  0  0  0  0  0  0  0  0  0
   -5.3700   18.1510  -35.2590 C   0  0  0  0  0  0  0  0  0  0  0  0
   -4.7990   16.7870  -34.8310 C   0  0  0  0  0  0  0  0  0  0  0  0
   -5.4050   16.2740  -33.5150 C   0  0  0  0  0  0  0  0  0  0  0  0
   -6.8690   16.7140  -33.3700 C   0  0  0  0  0  0  0  0  0  0  0  0
   -6.0980   21.2420  -31.7780 C   0  0  0  0  0  0  0  0  0  0  0  0
   -2.7900   22.5680  -29.2690 C   0  0  0  0  0  0  0  0  0  0  0  0
   -2.8360   21.3540  -30.1520 C   0  0  0  0  0  0  0  0  0  0  0  0
   -2.1710   22.6640  -28.0270 C   0  0  0  0  0  0  0  0  0  0  0  0
   -1.4790   21.5740  -27.3040 C   0  0  0  0  0  0  0  0  0  0  0  0
   -2.1910   20.4260  -26.8390 N   0  0  0  0  0  0  0  0  0  0  0  0
   -0.2410   21.6590  -27.0840 O   0  0  0  0  0  0  0  0  0  0  0  0
   -2.4139   23.9410  -25.4479 H   0  0  0  0  0  0  0  0  0  0  0  0
   -0.8946   24.5494  -26.1883 H   0  0  0  0  0  0  0  0  0  0  0  0
   -2.3680   25.5770  -26.1883 H   0  0  0  0  0  0  0  0  0  0  0  0
   -3.4360   25.6370  -28.4060 H   0  0  0  0  0  0  0  0  0  0  0  0
   -6.9830   24.5382  -31.7212 H   0  0  0  0  0  0  0  0  0  0  0  0
   -9.2421   23.5204  -31.9105 H   0  0  0  0  0  0  0  0  0  0  0  0
  -10.0640   19.9420  -32.0090 H   0  0  0  0  0  0  0  0  0  0  0  0
  -10.6210   21.5770  -32.3990 H   0  0  0  0  0  0  0  0  0  0  0  0
   -6.2760   19.9044  -34.3893 H   0  0  0  0  0  0  0  0  0  0  0  0
   -5.1228   19.0251  -33.3101 H   0  0  0  0  0  0  0  0  0  0  0  0
   -6.1794   17.9896  -35.9862 H   0  0  0  0  0  0  0  0  0  0  0  0
   -4.5598   18.7440  -35.7084 H   0  0  0  0  0  0  0  0  0  0  0  0
   -5.0087   16.0538  -35.6238 H   0  0  0  0  0  0  0  0  0  0  0  0
   -3.7185   16.9161  -34.6699 H   0  0  0  0  0  0  0  0  0  0  0  0
   -5.3575   15.1751  -33.5023 H   0  0  0  0  0  0  0  0  0  0  0  0
   -4.8295   16.6964  -32.6781 H   0  0  0  0  0  0  0  0  0  0  0  0
   -7.4537   16.2541  -34.1803 H   0  0  0  0  0  0  0  0  0  0  0  0
   -7.2103   16.3882  -32.3763 H   0  0  0  0  0  0  0  0  0  0  0  0
   -5.2024   20.6035  -31.7593 H   0  0  0  0  0  0  0  0  0  0  0  0
   -2.8703   20.4483  -29.5287 H   0  0  0  0  0  0  0  0  0  0  0  0
   -3.7332   21.3963  -30.7870 H   0  0  0  0  0  0  0  0  0  0  0  0
   -1.9382   21.3283  -30.7870 H   0  0  0  0  0  0  0  0  0  0  0  0
   -3.2330   20.3840  -26.8680 H   0  0  0  0  0  0  0  0  0  0  0  0
   -1.6730   19.6370  -26.3920 H   0  0  0  0  0  0  0  0  0  0  0  0
  1  2  1  0
  2  3  1  0
  3  4  1  0
  4  5  1  0
  5  6  2  0
  5  7  1  0
  7  8  1  0
  8  9  2  0
  9 10  1  0
 10 11  2  0
 11 12  1  0
 11 13  1  0
 13 14  1  0
 14 15  2  0
 14 16  2  0
 14 17  1  0
 17 18  1  0
 18 19  1  0
 19 20  1  0
 20 21  1  0
 21 22  1  0
 13 23  2  0
  4 24  2  0
 24 25  1  0
 24 26  1  0
 26 27  1  0
 27 28  1  0
 27 29  2  0
 26  2  2  0
 23  8  1  0
 22 17  1  0
  1 30  1  0
  1 31  1  0
  1 32  1  0
  3 33  1  0
  9 34  1  0
 10 35  1  0
 12 36  1  0
 12 37  1  0
 18 38  1  0
 18 39  1  0
 19 40  1  0
 19 41  1  0
 20 42  1  0
 20 43  1  0
 21 44  1  0
 21 45  1  0
 22 46  1  0
 22 47  1  0
 23 48  1  0
 25 49  1  0
 25 50  1  0
 25 51  1  0
 28 52  1  0
 28 53  1  0
M  CHG  1   7  -1
M  END
>  <UniqueID>  (23) 
22

>  <SMILES>  (23) 
Cc1[nH]c(C(=O)[N-]c2ccc(N)c(S(=O)(=O)N3CCCCC3)c2)c(C)c1C(N)=O

>  <Energy>  (23) 
93.68893530655252

>  <Genealogy>  (23) 
Cc1[nH]c(C(=O)[N-]c2ccc(N)c(S(=O)(=O)N3CCCCC3)c2)c(C)c1C(N)=O (protonated)
Cc1[nH]c(C(=O)[N-]c2ccc(N)c(S(=O)(=O)N3CCCCC3)c2)c(C)c1C(N)=O (3D coordinates assigned)
Cc1[nH]c(C(=O)[N-]c2ccc(N)c(S(=O)(=O)N3CCCCC3)c2)c(C)c1C(N)=O (nonaromatic ring conformer: 93.68893530655252 kcal/mol)

>  <smiles>  (23) 
Cc1[nH]c(C(=O)Nc2ccc(N)c(S(=O)(=O)N3CCCCC3)c2)c(C)c1C(N)=O

>  <score_type>  (23) 
oracle

>  <origin>  (23) 
adgpu

>  <m_score__min__energy>  (23) 
-10.41

>  <m_primary>  (23) 
energy

$$$$
23:0
     RDKit          3D

 53 56  0  0  0  0  0  0  0  0999 V2000
   -9.1600   20.5760  -31.9980 C   0  0  0  0  0  0  0  0  0  0  0  0
   -7.6900   20.3410  -32.2260 C   0  0  0  0  0  0  0  0  0  0  0  0
   -7.2430   19.0140  -32.2870 C   0  0  0  0  0  0  0  0  0  0  0  0
   -5.9100   18.7240  -32.5500 C   0  0  0  0  0  0  0  0  0  0  0  0
   -5.0010   19.7460  -32.8100 C   0  0  0  0  0  0  0  0  0  0  0  0
   -3.6510   19.3820  -33.1400 N   0  0  0  0  0  0  0  0  0  0  0  0
   -2.4780   20.0560  -32.6730 C   0  0  0  0  0  0  0  0  0  0  0  0
   -1.7600   20.7160  -33.4730 O   0  0  0  0  0  0  0  0  0  0  0  0
   -2.0800   19.9020  -31.3080 N   0  0  0  0  0  0  0  0  0  0  0  0
   -2.4070   20.8370  -30.2720 C   0  0  0  0  0  0  0  0  0  0  0  0
   -2.7270   20.3570  -28.9970 C   0  0  0  0  0  0  0  0  0  0  0  0
   -3.0340   21.2480  -27.9660 C   0  0  0  0  0  0  0  0  0  0  0  0
   -3.0250   22.6250  -28.2010 C   0  0  0  0  0  0  0  0  0  0  0  0
   -2.7110   23.1220  -29.4760 C   0  0  0  0  0  0  0  0  0  0  0  0
   -2.7180   24.5780  -29.7130 C   0  0  0  0  0  0  0  0  0  0  0  0
   -3.7260   25.1060  -30.2530 O   0  0  0  0  0  0  0  0  0  0  0  0
   -1.6250   25.4170  -29.3190 N   0  0  0  0  0  0  0  0  0  0  0  0
   -0.9510   25.3490  -28.0270 C   0  0  0  0  0  0  0  0  0  0  0  0
   -1.9860   25.4890  -26.9100 C   0  0  0  0  0  0  0  0  0  0  0  0
   -1.5530   24.9610  -25.5490 C   0  0  0  0  0  0  0  0  0  0  0  0
   -1.6150   26.4620  -25.7990 C   0  0  0  0  0  0  0  0  0  0  0  0
   -2.4440   22.2210  -30.5220 C   0  0  0  0  0  0  0  0  0  0  0  0
   -2.3060   22.6820  -31.7930 F   0  0  0  0  0  0  0  0  0  0  0  0
   -5.4100   21.0930  -32.7090 C   0  0  0  0  0  0  0  0  0  0  0  0
   -4.4650   22.0910  -32.9610 O   0  0  0  0  0  0  0  0  0  0  0  0
   -6.7520   21.4040  -32.3550 C   0  0  0  0  0  0  0  0  0  0  0  0
   -7.2330   23.0980  -32.0530 S   0  0  0  0  0  0  0  0  0  0  0  0
   -6.2510   24.0530  -32.6730 O   0  0  0  0  0  0  0  0  0  0  0  0
   -8.5710   23.3800  -32.6810 O   0  0  0  0  0  0  0  0  0  0  0  0
   -7.2650   23.3760  -30.2830 C   0  0  0  0  0  0  0  0  0  0  0  0
   -5.9090   23.2110  -29.6160 C   0  0  0  0  0  0  0  0  0  0  0  0
   -6.5120   24.5960  -29.7750 C   0  0  0  0  0  0  0  0  0  0  0  0
   -9.3629   20.6084  -30.9174 H   0  0  0  0  0  0  0  0  0  0  0  0
   -9.4536   21.5325  -32.4551 H   0  0  0  0  0  0  0  0  0  0  0  0
   -9.7372   19.7587  -32.4551 H   0  0  0  0  0  0  0  0  0  0  0  0
   -7.9561   18.1923  -32.1247 H   0  0  0  0  0  0  0  0  0  0  0  0
   -5.5698   17.6779  -32.5528 H   0  0  0  0  0  0  0  0  0  0  0  0
   -2.7368   19.2738  -28.8060 H   0  0  0  0  0  0  0  0  0  0  0  0
   -3.2836   20.8641  -26.9658 H   0  0  0  0  0  0  0  0  0  0  0  0
   -3.2647   23.3221  -27.3845 H   0  0  0  0  0  0  0  0  0  0  0  0
   -0.4358   24.3818  -27.9316 H   0  0  0  0  0  0  0  0  0  0  0  0
   -0.2148   26.1628  -27.9518 H   0  0  0  0  0  0  0  0  0  0  0  0
   -2.8619   25.3431  -27.5592 H   0  0  0  0  0  0  0  0  0  0  0  0
   -2.2884   24.4832  -24.8851 H   0  0  0  0  0  0  0  0  0  0  0  0
   -0.7801   24.2626  -25.1956 H   0  0  0  0  0  0  0  0  0  0  0  0
   -2.3952   27.0683  -25.3156 H   0  0  0  0  0  0  0  0  0  0  0  0
   -0.9055   27.2969  -25.7010 H   0  0  0  0  0  0  0  0  0  0  0  0
   -3.5300   21.9090  -33.2940 H   0  0  0  0  0  0  0  0  0  0  0  0
   -8.2818   22.9863  -30.1274 H   0  0  0  0  0  0  0  0  0  0  0  0
   -5.8391   22.7530  -28.6183 H   0  0  0  0  0  0  0  0  0  0  0  0
   -4.9555   22.7410  -29.8988 H   0  0  0  0  0  0  0  0  0  0  0  0
   -6.8789   25.1407  -28.8926 H   0  0  0  0  0  0  0  0  0  0  0  0
   -6.1763   25.5440  -30.2206 H   0  0  0  0  0  0  0  0  0  0  0  0
  1  2  1  0
  2  3  2  0
  3  4  1  0
  4  5  2  0
  5  6  1  0
  6  7  1  0
  7  8  2  0
  7  9  1  0
  9 10  1  0
 10 11  2  0
 11 12  1  0
 12 13  2  0
 13 14  1  0
 14 15  1  0
 15 16  2  0
 15 17  1  0
 17 18  1  0
 18 19  1  0
 19 20  1  0
 20 21  1  0
 14 22  2  0
 22 23  1  0
  5 24  1  0
 24 25  1  0
 24 26  2  0
 26 27  1  0
 27 28  2  0
 27 29  2  0
 27 30  1  0
 30 31  1  0
 31 32  1  0
 26  2  1  0
 32 30  1  0
 22 10  1  0
 21 19  1  0
  1 33  1  0
  1 34  1  0
  1 35  1  0
  3 36  1  0
  4 37  1  0
 11 38  1  0
 12 39  1  0
 13 40  1  0
 18 41  1  0
 18 42  1  0
 19 43  1  0
 20 44  1  0
 20 45  1  0
 21 46  1  0
 21 47  1  0
 25 48  1  0
 30 49  1  0
 31 50  1  0
 31 51  1  0
 32 52  1  0
 32 53  1  0
M  CHG  3   6  -1   9  -1  17  -1
M  END
>  <UniqueID>  (24) 
23

>  <SMILES>  (24) 
Cc1ccc([N-]C(=O)[N-]c2cccc(C(=O)[N-]CC3CC3)c2F)c(O)c1S(=O)(=O)C1CC1

>  <Energy>  (24) 
600.3965135800744

>  <Genealogy>  (24) 
Cc1ccc([N-]C(=O)[N-]c2cccc(C(=O)[N-]CC3CC3)c2F)c(O)c1S(=O)(=O)C1CC1 (protonated)
Cc1ccc([N-]C(=O)[N-]c2cccc(C(=O)[N-]CC3CC3)c2F)c(O)c1S(=O)(=O)C1CC1 (3D coordinates assigned)
Cc1ccc([N-]C(=O)[N-]c2cccc(C(=O)[N-]CC3CC3)c2F)c(O)c1S(=O)(=O)C1CC1 (nonaromatic ring conformer: 600.3965135800744 kcal/mol)

>  <smiles>  (24) 
Cc1ccc(NC(=O)Nc2cccc(C(=O)NCC3CC3)c2F)c(O)c1S(=O)(=O)C1CC1

>  <score_type>  (24) 
oracle

>  <origin>  (24) 
adgpu

>  <m_score__min__energy>  (24) 
-12.5

>  <m_primary>  (24) 
energy

$$$$
24:0
     RDKit          3D

 51 54  0  0  0  0  0  0  0  0999 V2000
   -1.5250   19.6990  -27.2570 C   0  0  0  0  0  0  0  0  0  0  0  0
   -1.0660   20.3990  -28.4090 O   0  0  0  0  0  0  0  0  0  0  0  0
   -1.8860   20.7890  -29.4790 C   0  0  0  0  0  0  0  0  0  0  0  0
   -1.5730   20.4930  -30.8190 C   0  0  0  0  0  0  0  0  0  0  0  0
   -2.4180   20.9120  -31.8520 C   0  0  0  0  0  0  0  0  0  0  0  0
   -3.5940   21.6220  -31.5660 C   0  0  0  0  0  0  0  0  0  0  0  0
   -4.4460   22.1270  -32.7100 C   0  0  0  0  0  0  0  0  0  0  0  0
   -5.8880   22.1210  -32.3780 N   0  0  0  0  0  0  0  0  0  0  0  0
   -6.6340   20.9680  -32.4660 C   0  0  0  0  0  0  0  0  0  0  0  0
   -6.0320   19.7080  -32.7950 N   0  0  0  0  0  0  0  0  0  0  0  0
   -5.5810   18.8180  -31.7220 C   0  0  0  0  0  0  0  0  0  0  0  0
   -6.0790   17.3930  -31.9800 C   0  0  0  0  0  0  0  0  0  0  0  0
   -5.8490   16.9740  -33.3740 N   0  0  0  0  0  0  0  0  0  0  0  0
   -6.0960   15.6010  -33.7440 C   0  0  0  0  0  0  0  0  0  0  0  0
   -7.2410   15.2630  -34.3990 N   0  0  0  0  0  0  0  0  0  0  0  0
   -7.4940   13.9790  -34.7610 C   0  0  0  0  0  0  0  0  0  0  0  0
   -6.5710   12.9790  -34.4640 C   0  0  0  0  0  0  0  0  0  0  0  0
   -5.4010   13.3340  -33.7960 C   0  0  0  0  0  0  0  0  0  0  0  0
   -5.1870   14.6300  -33.4480 N   0  0  0  0  0  0  0  0  0  0  0  0
   -5.2690   17.9220  -34.3390 C   0  0  0  0  0  0  0  0  0  0  0  0
   -5.9280   19.2990  -34.2010 C   0  0  0  0  0  0  0  0  0  0  0  0
   -8.0050   21.0000  -32.1970 C   0  0  0  0  0  0  0  0  0  0  0  0
   -8.5920   22.2060  -31.8320 C   0  0  0  0  0  0  0  0  0  0  0  0
   -9.8270   22.2580  -31.5880 O   0  0  0  0  0  0  0  0  0  0  0  0
   -7.8330   23.3250  -31.7380 N   0  0  0  0  0  0  0  0  0  0  0  0
   -6.4990   23.2960  -32.0070 C   0  0  0  0  0  0  0  0  0  0  0  0
   -5.8320   24.3650  -31.9190 O   0  0  0  0  0  0  0  0  0  0  0  0
   -3.8980   21.9230  -30.2250 C   0  0  0  0  0  0  0  0  0  0  0  0
   -3.0530   21.5030  -29.1950 C   0  0  0  0  0  0  0  0  0  0  0  0
   -1.1831   20.2204  -26.3507 H   0  0  0  0  0  0  0  0  0  0  0  0
   -2.6243   19.6604  -27.2652 H   0  0  0  0  0  0  0  0  0  0  0  0
   -1.1221   18.6755  -27.2652 H   0  0  0  0  0  0  0  0  0  0  0  0
   -0.6587   19.9289  -31.0552 H   0  0  0  0  0  0  0  0  0  0  0  0
   -2.1587   20.6832  -32.8962 H   0  0  0  0  0  0  0  0  0  0  0  0
   -4.1421   23.1565  -32.9504 H   0  0  0  0  0  0  0  0  0  0  0  0
   -4.2939   21.4542  -33.5669 H   0  0  0  0  0  0  0  0  0  0  0  0
   -4.4816   18.8188  -31.6859 H   0  0  0  0  0  0  0  0  0  0  0  0
   -5.9858   19.1741  -30.7632 H   0  0  0  0  0  0  0  0  0  0  0  0
   -5.5462   16.7032  -31.3089 H   0  0  0  0  0  0  0  0  0  0  0  0
   -7.1626   17.3715  -31.7922 H   0  0  0  0  0  0  0  0  0  0  0  0
   -8.4266   13.7289  -35.2881 H   0  0  0  0  0  0  0  0  0  0  0  0
   -6.7613   11.9340  -34.7500 H   0  0  0  0  0  0  0  0  0  0  0  0
   -4.6520   12.5667  -33.5508 H   0  0  0  0  0  0  0  0  0  0  0  0
   -4.1896   18.0166  -34.1494 H   0  0  0  0  0  0  0  0  0  0  0  0
   -5.4435   17.5445  -35.3574 H   0  0  0  0  0  0  0  0  0  0  0  0
   -5.3241   20.0402  -34.7450 H   0  0  0  0  0  0  0  0  0  0  0  0
   -6.9439   19.2385  -34.6185 H   0  0  0  0  0  0  0  0  0  0  0  0
   -8.6104   20.0847  -32.2729 H   0  0  0  0  0  0  0  0  0  0  0  0
   -8.2830   24.2280  -31.4620 H   0  0  0  0  0  0  0  0  0  0  0  0
   -4.8078   22.4933  -29.9863 H   0  0  0  0  0  0  0  0  0  0  0  0
   -3.3086   21.7365  -28.1509 H   0  0  0  0  0  0  0  0  0  0  0  0
  1  2  1  0
  2  3  1  0
  3  4  2  0
  4  5  1  0
  5  6  2  0
  6  7  1  0
  7  8  1  0
  8  9  1  0
  9 10  1  0
 10 11  1  0
 11 12  1  0
 12 13  1  0
 13 14  1  0
 14 15  2  0
 15 16  1  0
 16 17  2  0
 17 18  1  0
 18 19  2  0
 13 20  1  0
 20 21  1  0
  9 22  2  0
 22 23  1  0
 23 24  2  0
 23 25  1  0
 25 26  1  0
 26 27  2  0
  6 28  1  0
 28 29  2  0
 29  3  1  0
 26  8  1  0
 21 10  1  0
 19 14  1  0
  1 30  1  0
  1 31  1  0
  1 32  1  0
  4 33  1  0
  5 34  1  0
  7 35  1  0
  7 36  1  0
 11 37  1  0
 11 38  1  0
 12 39  1  0
 12 40  1  0
 16 41  1  0
 17 42  1  0
 18 43  1  0
 20 44  1  0
 20 45  1  0
 21 46  1  0
 21 47  1  0
 22 48  1  0
 25 49  1  0
 28 50  1  0
 29 51  1  0
M  END
>  <UniqueID>  (25) 
24

>  <SMILES>  (25) 
COc1ccc(Cn2c(N3CCN(c4ncccn4)CC3)cc(=O)[nH]c2=O)cc1

>  <Energy>  (25) 
65.36728076250496

>  <Genealogy>  (25) 
COc1ccc(Cn2c(N3CCN(c4ncccn4)CC3)cc(=O)[nH]c2=O)cc1 (3D coordinates assigned)
COc1ccc(Cn2c(N3CCN(c4ncccn4)CC3)cc(=O)[nH]c2=O)cc1 (nonaromatic ring conformer: 65.36728076250496 kcal/mol)

>  <smiles>  (25) 
COc1ccc(Cn2c(N3CCN(c4ncccn4)CC3)cc(=O)[nH]c2=O)cc1

>  <score_type>  (25) 
oracle

>  <origin>  (25) 
adgpu

>  <m_score__min__energy>  (25) 
-7.7999999999999998

>  <m_primary>  (25) 
energy

$$$$
25:0
     RDKit          3D

 67 71  0  0  0  0  0  0  0  0999 V2000
   -0.4190   24.6250  -24.6400 C   0  0  0  0  0  0  0  0  0  0  0  0
   -0.8760   24.3980  -26.0570 C   0  0  0  0  0  0  0  0  0  0  0  0
   -1.3840   23.1340  -26.3990 C   0  0  0  0  0  0  0  0  0  0  0  0
   -1.8440   22.8740  -27.6870 C   0  0  0  0  0  0  0  0  0  0  0  0
   -1.8090   23.8750  -28.6630 C   0  0  0  0  0  0  0  0  0  0  0  0
   -2.2840   23.6440  -29.9940 N   0  0  0  0  0  0  0  0  0  0  0  0
   -3.5260   24.0900  -30.5510 C   0  0  0  0  0  0  0  0  0  0  0  0
   -3.8730   25.2970  -30.4690 O   0  0  0  0  0  0  0  0  0  0  0  0
   -4.3260   23.1820  -31.3090 N   0  0  0  0  0  0  0  0  0  0  0  0
   -3.7600   22.1740  -32.1540 C   0  0  0  0  0  0  0  0  0  0  0  0
   -2.3760   21.9500  -32.1490 C   0  0  0  0  0  0  0  0  0  0  0  0
   -1.8240   20.9400  -32.9390 C   0  0  0  0  0  0  0  0  0  0  0  0
   -2.6510   20.1470  -33.7450 C   0  0  0  0  0  0  0  0  0  0  0  0
   -2.1050   19.1640  -34.5690 O   0  0  0  0  0  0  0  0  0  0  0  0
   -0.5240   18.5680  -34.3110 S   0  0  0  0  0  0  0  0  0  0  0  0
   -0.4840   17.1060  -34.6570 O   0  0  0  0  0  0  0  0  0  0  0  0
   -0.1670   18.7260  -32.8600 O   0  0  0  0  0  0  0  0  0  0  0  0
    0.6430   19.4420  -35.3010 C   0  0  0  0  0  0  0  0  0  0  0  0
    1.5970   18.7380  -36.0430 C   0  0  0  0  0  0  0  0  0  0  0  0
    2.5470   19.4260  -36.7970 C   0  0  0  0  0  0  0  0  0  0  0  0
    2.5620   20.8260  -36.8120 C   0  0  0  0  0  0  0  0  0  0  0  0
    3.5230   21.4720  -37.5820 O   0  0  0  0  0  0  0  0  0  0  0  0
    1.6120   21.5550  -36.0600 C   0  0  0  0  0  0  0  0  0  0  0  0
    1.6090   23.0400  -36.0390 C   0  0  0  0  0  0  0  0  0  0  0  0
    1.8900   23.6620  -34.9810 O   0  0  0  0  0  0  0  0  0  0  0  0
    1.3000   23.7730  -37.1790 O   0  0  0  0  0  0  0  0  0  0  0  0
    0.6540   20.8440  -35.3110 C   0  0  0  0  0  0  0  0  0  0  0  0
   -4.0360   20.3430  -33.7270 C   0  0  0  0  0  0  0  0  0  0  0  0
   -4.5930   21.3760  -32.9640 C   0  0  0  0  0  0  0  0  0  0  0  0
   -5.9720   21.6100  -33.0420 O   0  0  0  0  0  0  0  0  0  0  0  0
   -6.9450   20.6650  -32.6790 C   0  0  0  0  0  0  0  0  0  0  0  0
   -8.2540   21.0450  -32.3230 C   0  0  0  0  0  0  0  0  0  0  0  0
   -9.1940   20.0790  -31.9520 C   0  0  0  0  0  0  0  0  0  0  0  0
   -8.8430   18.7230  -31.9500 C   0  0  0  0  0  0  0  0  0  0  0  0
   -9.7710   17.7500  -31.5810 O   0  0  0  0  0  0  0  0  0  0  0  0
   -7.5510   18.3400  -32.3240 C   0  0  0  0  0  0  0  0  0  0  0  0
   -6.6080   19.3060  -32.6920 C   0  0  0  0  0  0  0  0  0  0  0  0
   -1.2660   25.1280  -28.3530 C   0  0  0  0  0  0  0  0  0  0  0  0
   -1.2380   26.1060  -29.3430 O   0  0  0  0  0  0  0  0  0  0  0  0
   -0.7800   25.4040  -27.0560 C   0  0  0  0  0  0  0  0  0  0  0  0
   -0.1430   27.0260  -26.6950 S   0  0  0  0  0  0  0  0  0  0  0  0
   -0.4150   27.9610  -27.8420 O   0  0  0  0  0  0  0  0  0  0  0  0
    1.3460   26.9770  -26.4930 O   0  0  0  0  0  0  0  0  0  0  0  0
   -0.9200   27.6130  -25.1890 C   0  0  0  0  0  0  0  0  0  0  0  0
   -0.6980   29.0890  -24.9010 C   0  0  0  0  0  0  0  0  0  0  0  0
    0.0320   28.0360  -24.0830 C   0  0  0  0  0  0  0  0  0  0  0  0
   -1.1816   24.2462  -23.9436 H   0  0  0  0  0  0  0  0  0  0  0  0
    0.5288   24.0929  -24.4707 H   0  0  0  0  0  0  0  0  0  0  0  0
   -0.2703   25.7017  -24.4707 H   0  0  0  0  0  0  0  0  0  0  0  0
   -1.4188   22.3392  -25.6393 H   0  0  0  0  0  0  0  0  0  0  0  0
   -2.2365   21.8775  -27.9379 H   0  0  0  0  0  0  0  0  0  0  0  0
   -1.7225   22.5725  -31.5201 H   0  0  0  0  0  0  0  0  0  0  0  0
   -0.7378   20.7666  -32.9286 H   0  0  0  0  0  0  0  0  0  0  0  0
    1.5979   17.6381  -36.0317 H   0  0  0  0  0  0  0  0  0  0  0  0
    3.2894   18.8652  -37.3838 H   0  0  0  0  0  0  0  0  0  0  0  0
   -0.0959   21.3964  -34.7258 H   0  0  0  0  0  0  0  0  0  0  0  0
   -4.6902   19.6825  -34.3150 H   0  0  0  0  0  0  0  0  0  0  0  0
   -8.5380   22.1076  -32.3370 H   0  0  0  0  0  0  0  0  0  0  0  0
  -10.2101   20.3841  -31.6614 H   0  0  0  0  0  0  0  0  0  0  0  0
   -9.9940   17.5750  -30.6070 H   0  0  0  0  0  0  0  0  0  0  0  0
   -7.2750   17.2752  -32.3289 H   0  0  0  0  0  0  0  0  0  0  0  0
   -5.5964   18.9961  -32.9932 H   0  0  0  0  0  0  0  0  0  0  0  0
   -1.7927   26.9457  -25.2452 H   0  0  0  0  0  0  0  0  0  0  0  0
   -0.1423   29.7118  -25.6175 H   0  0  0  0  0  0  0  0  0  0  0  0
   -1.3507   29.9425  -24.6656 H   0  0  0  0  0  0  0  0  0  0  0  0
    1.1161   27.8969  -24.2074 H   0  0  0  0  0  0  0  0  0  0  0  0
    0.1263   27.8121  -23.0102 H   0  0  0  0  0  0  0  0  0  0  0  0
  1  2  1  0
  2  3  2  0
  3  4  1  0
  4  5  2  0
  5  6  1  0
  6  7  1  0
  7  8  2  0
  7  9  1  0
  9 10  1  0
 10 11  2  0
 11 12  1  0
 12 13  2  0
 13 14  1  0
 14 15  1  0
 15 16  2  0
 15 17  2  0
 15 18  1  0
 18 19  2  0
 19 20  1  0
 20 21  2  0
 21 22  1  0
 21 23  1  0
 23 24  1  0
 24 25  2  0
 24 26  1  0
 23 27  2  0
 13 28  1  0
 28 29  2  0
 29 30  1  0
 30 31  1  0
 31 32  2  0
 32 33  1  0
 33 34  2  0
 34 35  1  0
 34 36  1  0
 36 37  2  0
  5 38  1  0
 38 39  1  0
 38 40  2  0
 40 41  1  0
 41 42  2  0
 41 43  2  0
 41 44  1  0
 44 45  1  0
 45 46  1  0
 40  2  1  0
 46 44  1  0
 29 10  1  0
 37 31  1  0
 27 18  1  0
  1 47  1  0
  1 48  1  0
  1 49  1  0
  3 50  1  0
  4 51  1  0
 11 52  1  0
 12 53  1  0
 19 54  1  0
 20 55  1  0
 27 56  1  0
 28 57  1  0
 32 58  1  0
 33 59  1  0
 35 60  1  0
 36 61  1  0
 37 62  1  0
 44 63  1  0
 45 64  1  0
 45 65  1  0
 46 66  1  0
 46 67  1  0
M  CHG  5   6  -1   9  -1  22  -1  26  -1  39  -1
M  END
>  <UniqueID>  (26) 
25

>  <SMILES>  (26) 
Cc1ccc([N-]C(=O)[N-]c2ccc(OS(=O)(=O)c3ccc([O-])c(C(=O)[O-])c3)cc2Oc2ccc(O)cc2)c([O-])c1S(=O)(=O)C1CC1

>  <Energy>  (26) 
358.8391878954495

>  <Genealogy>  (26) 
Cc1ccc([N-]C(=O)[N-]c2ccc(OS(=O)(=O)c3ccc([O-])c(C(=O)[O-])c3)cc2Oc2ccc(O)cc2)c([O-])c1S(=O)(=O)C1CC1 (protonated)
Cc1ccc([N-]C(=O)[N-]c2ccc(OS(=O)(=O)c3ccc([O-])c(C(=O)[O-])c3)cc2Oc2ccc(O)cc2)c([O-])c1S(=O)(=O)C1CC1 (3D coordinates assigned)
Cc1ccc([N-]C(=O)[N-]c2ccc(OS(=O)(=O)c3ccc([O-])c(C(=O)[O-])c3)cc2Oc2ccc(O)cc2)c([O-])c1S(=O)(=O)C1CC1 (nonaromatic ring conformer: 358.8391878954495 kcal/mol)

>  <smiles>  (26) 
Cc1ccc(NC(=O)Nc2ccc(OS(=O)(=O)c3ccc(O)c(C(=O)O)c3)cc2Oc2ccc(O)cc2)c(O)c1S(=O)(=O)C1CC1

>  <score_type>  (26) 
oracle

>  <origin>  (26) 
adgpu

>  <m_score__min__energy>  (26) 
-18.920000000000002

>  <m_primary>  (26) 
energy

$$$$
26:0
     RDKit          3D

 58 61  0  0  0  0  0  0  0  0999 V2000
   -4.0000   25.1290  -30.5090 O   0  0  0  0  0  0  0  0  0  0  0  0
   -3.5910   23.9400  -30.4710 C   0  0  0  0  0  0  0  0  0  0  0  0
   -3.9600   23.0330  -31.5150 N   0  0  0  0  0  0  0  0  0  0  0  0
   -5.2960   22.5400  -31.6590 C   0  0  0  0  0  0  0  0  0  0  0  0
   -5.5230   21.1590  -31.6950 C   0  0  0  0  0  0  0  0  0  0  0  0
   -6.8280   20.6580  -31.8080 C   0  0  0  0  0  0  0  0  0  0  0  0
   -7.1230   18.9180  -31.7740 S   0  0  0  0  0  0  0  0  0  0  0  0
   -6.1480   18.2680  -30.8310 O   0  0  0  0  0  0  0  0  0  0  0  0
   -8.5120   18.6590  -31.2580 O   0  0  0  0  0  0  0  0  0  0  0  0
   -6.9550   18.2080  -33.3640 N   0  0  0  0  0  0  0  0  0  0  0  0
   -6.5620   16.7910  -33.2570 C   0  0  0  0  0  0  0  0  0  0  0  0
   -5.9760   16.2930  -34.5880 C   0  0  0  0  0  0  0  0  0  0  0  0
   -4.8240   17.0050  -35.0230 O   0  0  0  0  0  0  0  0  0  0  0  0
   -4.6950   18.2960  -34.4450 C   0  0  0  0  0  0  0  0  0  0  0  0
   -6.0460   18.9990  -34.2230 C   0  0  0  0  0  0  0  0  0  0  0  0
   -7.9030   21.5500  -31.9320 C   0  0  0  0  0  0  0  0  0  0  0  0
   -7.6790   22.9270  -31.9230 C   0  0  0  0  0  0  0  0  0  0  0  0
   -6.3780   23.4300  -31.7910 C   0  0  0  0  0  0  0  0  0  0  0  0
   -6.1540   24.8060  -31.8120 O   0  0  0  0  0  0  0  0  0  0  0  0
   -2.7100   23.5010  -29.3720 C   0  0  0  0  0  0  0  0  0  0  0  0
   -2.8200   22.2010  -28.8570 C   0  0  0  0  0  0  0  0  0  0  0  0
   -1.9810   21.7770  -27.8140 C   0  0  0  0  0  0  0  0  0  0  0  0
   -2.0570   20.1170  -27.2190 S   0  0  0  0  0  0  0  0  0  0  0  0
   -3.4960   19.7040  -27.0870 O   0  0  0  0  0  0  0  0  0  0  0  0
   -1.4380   20.0680  -25.8490 O   0  0  0  0  0  0  0  0  0  0  0  0
   -1.2270   18.9870  -28.2700 N   0  0  0  0  0  0  0  0  0  0  0  0
   -0.7270   19.6250  -29.5000 C   0  0  0  0  0  0  0  0  0  0  0  0
    0.6170   20.3620  -29.2940 C   0  0  0  0  0  0  0  0  0  0  0  0
    1.2530   20.0520  -28.0680 O   0  0  0  0  0  0  0  0  0  0  0  0
    1.2320   18.6610  -27.8560 C   0  0  0  0  0  0  0  0  0  0  0  0
   -0.2020   18.1860  -27.5650 C   0  0  0  0  0  0  0  0  0  0  0  0
   -1.0690   22.6790  -27.2500 C   0  0  0  0  0  0  0  0  0  0  0  0
   -0.9620   23.9750  -27.7530 C   0  0  0  0  0  0  0  0  0  0  0  0
   -1.7650   24.3860  -28.8190 C   0  0  0  0  0  0  0  0  0  0  0  0
   -1.6360   25.6830  -29.3070 O   0  0  0  0  0  0  0  0  0  0  0  0
   -4.6732   20.4632  -31.6343 H   0  0  0  0  0  0  0  0  0  0  0  0
   -5.8054   16.6839  -32.4657 H   0  0  0  0  0  0  0  0  0  0  0  0
   -7.4522   16.1922  -33.0140 H   0  0  0  0  0  0  0  0  0  0  0  0
   -5.7022   15.2343  -34.4692 H   0  0  0  0  0  0  0  0  0  0  0  0
   -6.7512   16.4508  -35.3523 H   0  0  0  0  0  0  0  0  0  0  0  0
   -4.1897   18.1950  -33.4732 H   0  0  0  0  0  0  0  0  0  0  0  0
   -4.1174   18.9130  -35.1491 H   0  0  0  0  0  0  0  0  0  0  0  0
   -5.8640   19.9723  -33.7439 H   0  0  0  0  0  0  0  0  0  0  0  0
   -6.5288   19.1188  -35.2041 H   0  0  0  0  0  0  0  0  0  0  0  0
   -8.9271   21.1623  -32.0368 H   0  0  0  0  0  0  0  0  0  0  0  0
   -8.5272   23.6206  -32.0199 H   0  0  0  0  0  0  0  0  0  0  0  0
   -5.2510   25.2010  -31.5730 H   0  0  0  0  0  0  0  0  0  0  0  0
   -3.5679   21.5096  -29.2726 H   0  0  0  0  0  0  0  0  0  0  0  0
   -0.5871   18.8481  -30.2661 H   0  0  0  0  0  0  0  0  0  0  0  0
   -1.4703   20.3752  -29.8076 H   0  0  0  0  0  0  0  0  0  0  0  0
    1.2940   20.0863  -30.1160 H   0  0  0  0  0  0  0  0  0  0  0  0
    0.3942   21.4391  -29.2776 H   0  0  0  0  0  0  0  0  0  0  0  0
    1.6074   18.1513  -28.7556 H   0  0  0  0  0  0  0  0  0  0  0  0
    1.8701   18.4213  -26.9926 H   0  0  0  0  0  0  0  0  0  0  0  0
   -0.2959   17.1372  -27.8831 H   0  0  0  0  0  0  0  0  0  0  0  0
   -0.3762   18.3029  -26.4852 H   0  0  0  0  0  0  0  0  0  0  0  0
   -0.4355   22.3637  -26.4078 H   0  0  0  0  0  0  0  0  0  0  0  0
   -0.2416   24.6771  -27.3080 H   0  0  0  0  0  0  0  0  0  0  0  0
  1  2  2  0
  2  3  1  0
  3  4  1  0
  4  5  2  0
  5  6  1  0
  6  7  1  0
  7  8  2  0
  7  9  2  0
  7 10  1  0
 10 11  1  0
 11 12  1  0
 12 13  1  0
 13 14  1  0
 14 15  1  0
  6 16  2  0
 16 17  1  0
 17 18  2  0
 18 19  1  0
  2 20  1  0
 20 21  2  0
 21 22  1  0
 22 23  1  0
 23 24  2  0
 23 25  2  0
 23 26  1  0
 26 27  1  0
 27 28  1  0
 28 29  1  0
 29 30  1  0
 30 31  1  0
 22 32  2  0
 32 33  1  0
 33 34  2  0
 34 35  1  0
 18  4  1  0
 34 20  1  0
 15 10  1  0
 31 26  1  0
  5 36  1  0
 11 37  1  0
 11 38  1  0
 12 39  1  0
 12 40  1  0
 14 41  1  0
 14 42  1  0
 15 43  1  0
 15 44  1  0
 16 45  1  0
 17 46  1  0
 19 47  1  0
 21 48  1  0
 27 49  1  0
 27 50  1  0
 28 51  1  0
 28 52  1  0
 30 53  1  0
 30 54  1  0
 31 55  1  0
 31 56  1  0
 32 57  1  0
 33 58  1  0
M  CHG  2   3  -1  35  -1
M  END
>  <UniqueID>  (27) 
26

>  <SMILES>  (27) 
O=C([N-]c1cc(S(=O)(=O)N2CCOCC2)ccc1O)c1cc(S(=O)(=O)N2CCOCC2)ccc1[O-]

>  <Energy>  (27) 
90.94320328127839

>  <Genealogy>  (27) 
O=C([N-]c1cc(S(=O)(=O)N2CCOCC2)ccc1O)c1cc(S(=O)(=O)N2CCOCC2)ccc1[O-] (protonated)
O=C([N-]c1cc(S(=O)(=O)N2CCOCC2)ccc1O)c1cc(S(=O)(=O)N2CCOCC2)ccc1[O-] (3D coordinates assigned)
O=C([N-]c1cc(S(=O)(=O)N2CCOCC2)ccc1O)c1cc(S(=O)(=O)N2CCOCC2)ccc1[O-] (nonaromatic ring conformer: 90.94320328127839 kcal/mol)

>  <smiles>  (27) 
O=C(Nc1cc(S(=O)(=O)N2CCOCC2)ccc1O)c1cc(S(=O)(=O)N2CCOCC2)ccc1O

>  <score_type>  (27) 
oracle

>  <origin>  (27) 
adgpu

>  <m_score__min__energy>  (27) 
-14.24

>  <m_primary>  (27) 
energy

$$$$
27:0
     RDKit          3D

 40 43  0  0  0  0  0  0  0  0999 V2000
   -7.4230   17.9220  -32.6980 C   0  0  0  0  0  0  0  0  0  0  0  0
   -7.3970   19.3940  -32.4090 C   0  0  0  0  0  0  0  0  0  0  0  0
   -8.5900   20.1240  -32.2080 C   0  0  0  0  0  0  0  0  0  0  0  0
   -8.5470   21.5170  -31.9740 C   0  0  0  0  0  0  0  0  0  0  0  0
   -7.3160   22.1980  -31.9480 C   0  0  0  0  0  0  0  0  0  0  0  0
   -6.1610   21.4530  -32.1640 C   0  0  0  0  0  0  0  0  0  0  0  0
   -4.8960   21.8940  -32.1970 N   0  0  0  0  0  0  0  0  0  0  0  0
   -4.1840   20.7620  -32.4490 C   0  0  0  0  0  0  0  0  0  0  0  0
   -2.7020   20.7360  -32.5900 C   0  0  0  0  0  0  0  0  0  0  0  0
   -2.1360   21.0380  -33.8450 C   0  0  0  0  0  0  0  0  0  0  0  0
   -0.7510   21.0370  -34.0230 C   0  0  0  0  0  0  0  0  0  0  0  0
    0.0910   20.7280  -32.9580 C   0  0  0  0  0  0  0  0  0  0  0  0
   -0.4480   20.4210  -31.7090 C   0  0  0  0  0  0  0  0  0  0  0  0
   -1.8420   20.4370  -31.5040 C   0  0  0  0  0  0  0  0  0  0  0  0
   -2.3840   20.0880  -30.2200 N   0  0  0  0  0  0  0  0  0  0  0  0
   -2.2060   20.8180  -28.9980 C   0  0  0  0  0  0  0  0  0  0  0  0
   -2.2470   20.1870  -27.9090 O   0  0  0  0  0  0  0  0  0  0  0  0
   -2.0290   22.2890  -28.9800 C   0  0  0  0  0  0  0  0  0  0  0  0
   -0.9950   22.8820  -28.2340 C   0  0  0  0  0  0  0  0  0  0  0  0
   -0.8340   24.2710  -28.2270 C   0  0  0  0  0  0  0  0  0  0  0  0
   -1.6960   25.0810  -28.9700 C   0  0  0  0  0  0  0  0  0  0  0  0
   -1.5310   26.4610  -28.9560 O   0  0  0  0  0  0  0  0  0  0  0  0
   -2.7200   24.5010  -29.7280 C   0  0  0  0  0  0  0  0  0  0  0  0
   -3.5770   25.3020  -30.4730 O   0  0  0  0  0  0  0  0  0  0  0  0
   -2.8820   23.1120  -29.7370 C   0  0  0  0  0  0  0  0  0  0  0  0
   -4.9520   19.6470  -32.5750 N   0  0  0  0  0  0  0  0  0  0  0  0
   -6.1970   20.1110  -32.3890 C   0  0  0  0  0  0  0  0  0  0  0  0
   -7.4329   17.3625  -31.7510 H   0  0  0  0  0  0  0  0  0  0  0  0
   -8.3256   17.6780  -33.2775 H   0  0  0  0  0  0  0  0  0  0  0  0
   -6.5296   17.6463  -33.2775 H   0  0  0  0  0  0  0  0  0  0  0  0
   -9.5591   19.6043  -32.2339 H   0  0  0  0  0  0  0  0  0  0  0  0
   -9.4822   22.0727  -31.8111 H   0  0  0  0  0  0  0  0  0  0  0  0
   -7.2685   23.2814  -31.7634 H   0  0  0  0  0  0  0  0  0  0  0  0
   -2.7930   21.2773  -34.6942 H   0  0  0  0  0  0  0  0  0  0  0  0
   -0.3241   21.2809  -35.0070 H   0  0  0  0  0  0  0  0  0  0  0  0
    1.1816   20.7260  -33.1018 H   0  0  0  0  0  0  0  0  0  0  0  0
    0.2219   20.1637  -30.8753 H   0  0  0  0  0  0  0  0  0  0  0  0
   -0.3085   22.2493  -27.6523 H   0  0  0  0  0  0  0  0  0  0  0  0
   -0.0267   24.7269  -27.6350 H   0  0  0  0  0  0  0  0  0  0  0  0
   -3.6826   22.6597  -30.3407 H   0  0  0  0  0  0  0  0  0  0  0  0
  1  2  1  0
  2  3  2  0
  3  4  1  0
  4  5  2  0
  5  6  1  0
  6  7  1  0
  7  8  1  0
  8  9  1  0
  9 10  2  0
 10 11  1  0
 11 12  2  0
 12 13  1  0
 13 14  2  0
 14 15  1  0
 15 16  1  0
 16 17  2  0
 16 18  1  0
 18 19  2  0
 19 20  1  0
 20 21  2  0
 21 22  1  0
 21 23  1  0
 23 24  1  0
 23 25  2  0
  8 26  2  0
 26 27  1  0
 27  2  1  0
 27  6  2  0
 14  9  1  0
 25 18  1  0
  1 28  1  0
  1 29  1  0
  1 30  1  0
  3 31  1  0
  4 32  1  0
  5 33  1  0
 10 34  1  0
 11 35  1  0
 12 36  1  0
 13 37  1  0
 19 38  1  0
 20 39  1  0
 25 40  1  0
M  CHG  4   7  -1  15  -1  22  -1  24  -1
M  END
>  <UniqueID>  (28) 
27

>  <SMILES>  (28) 
Cc1cccc2[n-]c(-c3ccccc3[N-]C(=O)c3ccc([O-])c([O-])c3)nc12

>  <Energy>  (28) 
88.9789831706806

>  <Genealogy>  (28) 
Cc1cccc2[n-]c(-c3ccccc3[N-]C(=O)c3ccc([O-])c([O-])c3)nc12 (protonated)
Cc1cccc2[n-]c(-c3ccccc3[N-]C(=O)c3ccc([O-])c([O-])c3)nc12 (3D coordinates assigned)
Cc1cccc2[n-]c(-c3ccccc3[N-]C(=O)c3ccc([O-])c([O-])c3)nc12 (optimized conformer: 88.9789831706806 kcal/mol)

>  <smiles>  (28) 
Cc1cccc2[nH]c(-c3ccccc3NC(=O)c3ccc(O)c(O)c3)nc12

>  <score_type>  (28) 
oracle

>  <origin>  (28) 
adgpu

>  <m_score__min__energy>  (28) 
-14.6

>  <m_primary>  (28) 
energy

$$$$
28:0
     RDKit          3D

 44 46  0  0  0  0  0  0  0  0999 V2000
   -1.2770   21.9000  -29.9860 O   0  0  0  0  0  0  0  0  0  0  0  0
   -1.7580   23.0040  -29.6100 C   0  0  0  0  0  0  0  0  0  0  0  0
   -2.5440   23.7850  -30.5130 N   0  0  0  0  0  0  0  0  0  0  0  0
   -4.2260   24.0920  -30.2530 S   0  0  0  0  0  0  0  0  0  0  0  0
   -4.6090   25.3780  -30.9290 O   0  0  0  0  0  0  0  0  0  0  0  0
   -4.4850   24.2240  -28.7790 O   0  0  0  0  0  0  0  0  0  0  0  0
   -5.1720   22.7760  -30.9420 C   0  0  0  0  0  0  0  0  0  0  0  0
   -6.4480   23.0110  -31.4710 C   0  0  0  0  0  0  0  0  0  0  0  0
   -7.2030   21.9490  -31.9800 C   0  0  0  0  0  0  0  0  0  0  0  0
   -6.6920   20.6440  -31.9570 C   0  0  0  0  0  0  0  0  0  0  0  0
   -7.6530   19.3010  -32.5870 S   0  0  0  0  0  0  0  0  0  0  0  0
   -7.9720   18.3560  -31.4620 O   0  0  0  0  0  0  0  0  0  0  0  0
   -8.9510   19.8390  -33.1220 O   0  0  0  0  0  0  0  0  0  0  0  0
   -6.8370   18.4190  -33.8550 N   0  0  0  0  0  0  0  0  0  0  0  0
   -6.5800   17.0290  -33.4810 C   0  0  0  0  0  0  0  0  0  0  0  0
   -5.3750   16.5790  -34.2970 C   0  0  0  0  0  0  0  0  0  0  0  0
   -4.7030   17.8610  -34.7650 C   0  0  0  0  0  0  0  0  0  0  0  0
   -5.5290   18.9890  -34.1660 C   0  0  0  0  0  0  0  0  0  0  0  0
   -5.4100   20.4150  -31.4410 C   0  0  0  0  0  0  0  0  0  0  0  0
   -4.6560   21.4740  -30.9300 C   0  0  0  0  0  0  0  0  0  0  0  0
   -1.4420   23.5160  -28.2600 C   0  0  0  0  0  0  0  0  0  0  0  0
   -1.1960   22.5900  -27.2300 C   0  0  0  0  0  0  0  0  0  0  0  0
   -0.8210   23.0250  -25.9570 C   0  0  0  0  0  0  0  0  0  0  0  0
   -0.6890   24.3880  -25.6950 C   0  0  0  0  0  0  0  0  0  0  0  0
   -0.9500   25.3210  -26.7000 C   0  0  0  0  0  0  0  0  0  0  0  0
   -1.3460   24.9020  -27.9770 C   0  0  0  0  0  0  0  0  0  0  0  0
   -1.6680   25.8840  -28.9150 O   0  0  0  0  0  0  0  0  0  0  0  0
   -6.8567   24.0321  -31.4861 H   0  0  0  0  0  0  0  0  0  0  0  0
   -8.2018   22.1388  -32.4000 H   0  0  0  0  0  0  0  0  0  0  0  0
   -6.3587   16.9592  -32.4058 H   0  0  0  0  0  0  0  0  0  0  0  0
   -7.4559   16.3942  -33.6806 H   0  0  0  0  0  0  0  0  0  0  0  0
   -4.6868   15.9890  -33.6739 H   0  0  0  0  0  0  0  0  0  0  0  0
   -5.6689   15.9390  -35.1420 H   0  0  0  0  0  0  0  0  0  0  0  0
   -3.6660   17.9075  -34.4010 H   0  0  0  0  0  0  0  0  0  0  0  0
   -4.6582   17.9235  -35.8623 H   0  0  0  0  0  0  0  0  0  0  0  0
   -5.0506   19.3665  -33.2502 H   0  0  0  0  0  0  0  0  0  0  0  0
   -5.6172   19.8343  -34.8644 H   0  0  0  0  0  0  0  0  0  0  0  0
   -4.9950   19.3963  -31.4382 H   0  0  0  0  0  0  0  0  0  0  0  0
   -3.6542   21.2849  -30.5170 H   0  0  0  0  0  0  0  0  0  0  0  0
   -1.3000   21.5132  -27.4291 H   0  0  0  0  0  0  0  0  0  0  0  0
   -0.6295   22.2914  -25.1601 H   0  0  0  0  0  0  0  0  0  0  0  0
   -0.3791   24.7283  -24.6959 H   0  0  0  0  0  0  0  0  0  0  0  0
   -0.8438   26.3950  -26.4874 H   0  0  0  0  0  0  0  0  0  0  0  0
   -1.9980   25.6750  -29.8480 H   0  0  0  0  0  0  0  0  0  0  0  0
  1  2  2  0
  2  3  1  0
  3  4  1  0
  4  5  2  0
  4  6  2  0
  4  7  1  0
  7  8  2  0
  8  9  1  0
  9 10  2  0
 10 11  1  0
 11 12  2  0
 11 13  2  0
 11 14  1  0
 14 15  1  0
 15 16  1  0
 16 17  1  0
 17 18  1  0
 10 19  1  0
 19 20  2  0
  2 21  1  0
 21 22  2  0
 22 23  1  0
 23 24  2  0
 24 25  1  0
 25 26  2  0
 26 27  1  0
 20  7  1  0
 26 21  1  0
 18 14  1  0
  8 28  1  0
  9 29  1  0
 15 30  1  0
 15 31  1  0
 16 32  1  0
 16 33  1  0
 17 34  1  0
 17 35  1  0
 18 36  1  0
 18 37  1  0
 19 38  1  0
 20 39  1  0
 22 40  1  0
 23 41  1  0
 24 42  1  0
 25 43  1  0
 27 44  1  0
M  CHG  1   3  -1
M  END
>  <UniqueID>  (29) 
28

>  <SMILES>  (29) 
O=C([N-]S(=O)(=O)c1ccc(S(=O)(=O)N2CCCC2)cc1)c1ccccc1O

>  <Energy>  (29) 
53.892532953931266

>  <Genealogy>  (29) 
O=C([N-]S(=O)(=O)c1ccc(S(=O)(=O)N2CCCC2)cc1)c1ccccc1O (protonated)
O=C([N-]S(=O)(=O)c1ccc(S(=O)(=O)N2CCCC2)cc1)c1ccccc1O (3D coordinates assigned)
O=C([N-]S(=O)(=O)c1ccc(S(=O)(=O)N2CCCC2)cc1)c1ccccc1O (nonaromatic ring conformer: 53.892532953931266 kcal/mol)

>  <smiles>  (29) 
O=C(NS(=O)(=O)c1ccc(S(=O)(=O)N2CCCC2)cc1)c1ccccc1O

>  <score_type>  (29) 
oracle

>  <origin>  (29) 
adgpu

>  <m_score__min__energy>  (29) 
-11.869999999999999

>  <m_primary>  (29) 
energy

$$$$
29:0
     RDKit          3D

 63 67  0  0  1  0  0  0  0  0999 V2000
   -6.8550   24.6700  -30.2120 C   0  0  0  0  0  0  0  0  0  0  0  0
   -6.4480   23.7000  -31.2080 N   0  0  0  0  0  0  0  0  0  0  0  0
   -5.8300   22.5390  -30.6450 C   0  0  0  0  0  0  0  0  0  0  0  0
   -6.3470   21.3170  -31.4080 C   0  0  0  0  0  0  0  0  0  0  0  0
   -7.7540   21.1820  -31.1580 N   0  0  0  0  0  0  0  0  0  0  0  0
   -8.3560   19.7600  -31.9280 S   0  0  0  0  0  0  0  0  0  0  0  0
   -9.2380   20.1680  -33.0710 O   0  0  0  0  0  0  0  0  0  0  0  0
   -9.0950   18.8980  -30.9520 O   0  0  0  0  0  0  0  0  0  0  0  0
   -7.0640   18.7980  -32.6040 C   0  0  0  0  0  0  0  0  0  0  0  0
   -6.4550   19.1030  -33.8020 C   0  0  0  0  0  0  0  0  0  0  0  0
   -5.4240   18.3020  -34.3030 C   0  0  0  0  0  0  0  0  0  0  0  0
   -4.9700   17.1880  -33.6410 C   0  0  0  0  0  0  0  0  0  0  0  0
   -3.9390   16.3340  -34.0800 N   0  0  0  0  0  0  0  0  0  0  0  0
   -2.7420   16.6860  -34.7060 C   0  0  0  0  0  0  0  0  0  0  0  0
   -2.4950   17.8820  -34.9310 O   0  0  0  0  0  0  0  0  0  0  0  0
   -1.8010   15.7060  -35.0890 N   0  0  0  0  0  0  0  0  0  0  0  0
   -0.5650   15.9150  -35.7220 C   0  0  0  0  0  0  0  0  0  0  0  0
   -0.2410   15.5890  -37.0100 C   0  0  0  0  0  0  0  0  0  0  0  0
    1.0210   15.8340  -37.5640 C   0  0  0  0  0  0  0  0  0  0  0  0
    2.0120   16.4280  -36.8180 C   0  0  0  0  0  0  0  0  0  0  0  0
    1.7160   16.7660  -35.5230 C   0  0  0  0  0  0  0  0  0  0  0  0
    0.4500   16.5260  -34.9520 C   0  0  0  0  0  0  0  0  0  0  0  0
    0.2090   16.9900  -33.6930 N   0  0  0  0  0  0  0  0  0  0  0  0
    0.0310   18.1010  -33.2130 C   0  0  0  0  0  0  0  0  0  0  0  0
   -0.1890   18.2020  -31.8690 N   0  0  0  0  0  0  0  0  0  0  0  0
   -0.3950   19.3630  -31.2390 C   0  0  0  0  0  0  0  0  0  0  0  0
   -0.3830   20.4900  -31.9700 N   0  0  0  0  0  0  0  0  0  0  0  0
   -0.1690   20.4210  -33.2910 C   0  0  0  0  0  0  0  0  0  0  0  0
   -0.1660   21.5640  -33.9790 N   0  0  0  0  0  0  0  0  0  0  0  0
    0.0450   21.5440  -35.3060 C   0  0  0  0  0  0  0  0  0  0  0  0
    0.2640   20.4170  -36.0390 C   0  0  0  0  0  0  0  0  0  0  0  0
    0.2610   19.2070  -35.3190 C   0  0  0  0  0  0  0  0  0  0  0  0
    0.0470   19.2350  -33.9740 C   0  0  0  0  0  0  0  0  0  0  0  0
   -5.6070   16.9080  -32.4330 C   0  0  0  0  0  0  0  0  0  0  0  0
   -6.6230   17.6910  -31.9330 C   0  0  0  0  0  0  0  0  0  0  0  0
   -8.4370   22.3370  -31.6560 C   0  0  0  0  0  0  0  0  0  0  0  0
   -7.4950   23.4100  -32.1520 C   0  0  0  0  0  0  0  0  0  0  0  0
   -6.6821   24.2580  -29.2068 H   0  0  0  0  0  0  0  0  0  0  0  0
   -6.2678   25.5918  -30.3364 H   0  0  0  0  0  0  0  0  0  0  0  0
   -7.9242   24.8968  -30.3364 H   0  0  0  0  0  0  0  0  0  0  0  0
   -4.7371   22.6097  -30.7481 H   0  0  0  0  0  0  0  0  0  0  0  0
   -6.0728   22.4551  -29.5754 H   0  0  0  0  0  0  0  0  0  0  0  0
   -6.1735   21.4525  -32.4858 H   0  0  0  0  0  0  0  0  0  0  0  0
   -5.8175   20.4131  -31.0725 H   0  0  0  0  0  0  0  0  0  0  0  0
   -6.7833   19.9858  -34.3702 H   0  0  0  0  0  0  0  0  0  0  0  0
   -4.9598   18.5743  -35.2624 H   0  0  0  0  0  0  0  0  0  0  0  0
   -4.0980   15.2990  -33.9130 H   0  0  0  0  0  0  0  0  0  0  0  0
   -2.0720   14.7020  -34.8690 H   0  0  0  0  0  0  0  0  0  0  0  0
   -1.0070   15.1125  -37.6394 H   0  0  0  0  0  0  0  0  0  0  0  0
    1.2222   15.5484  -38.6071 H   0  0  0  0  0  0  0  0  0  0  0  0
    3.0064   16.6248  -37.2452 H   0  0  0  0  0  0  0  0  0  0  0  0
    2.4941   17.2414  -34.9077 H   0  0  0  0  0  0  0  0  0  0  0  0
   -0.2030   17.3410  -31.2780 H   0  0  0  0  0  0  0  0  0  0  0  0
   -0.5693   19.3945  -30.1534 H   0  0  0  0  0  0  0  0  0  0  0  0
    0.0405   22.5066  -35.8384 H   0  0  0  0  0  0  0  0  0  0  0  0
    0.4327   20.4501  -37.1255 H   0  0  0  0  0  0  0  0  0  0  0  0
    0.4294   18.2509  -35.8362 H   0  0  0  0  0  0  0  0  0  0  0  0
   -5.2855   16.0276  -31.8572 H   0  0  0  0  0  0  0  0  0  0  0  0
   -7.0896   17.4207  -30.9742 H   0  0  0  0  0  0  0  0  0  0  0  0
   -9.0869   22.0286  -32.4882 H   0  0  0  0  0  0  0  0  0  0  0  0
   -9.0137   22.7641  -30.8223 H   0  0  0  0  0  0  0  0  0  0  0  0
   -7.0379   23.0712  -33.0934 H   0  0  0  0  0  0  0  0  0  0  0  0
   -8.0806   24.3299  -32.2964 H   0  0  0  0  0  0  0  0  0  0  0  0
  1  2  1  0
  2  3  1  0
  3  4  1  0
  4  5  1  0
  5  6  1  0
  6  7  2  0
  6  8  2  0
  6  9  1  0
  9 10  2  0
 10 11  1  0
 11 12  2  0
 12 13  1  0
 13 14  1  0
 14 15  2  0
 14 16  1  0
 16 17  1  0
 17 18  2  0
 18 19  1  0
 19 20  2  0
 20 21  1  0
 21 22  2  0
 22 23  1  0
 23 24  2  0
 24 25  1  0
 25 26  1  0
 26 27  2  0
 27 28  1  0
 28 29  2  0
 29 30  1  0
 30 31  2  0
 31 32  1  0
 32 33  2  0
 12 34  1  0
 34 35  2  0
  5 36  1  0
 36 37  1  0
 37  2  1  0
 35  9  1  0
 22 17  1  0
 33 24  1  0
 33 28  1  0
  1 38  1  0
  1 39  1  0
  1 40  1  0
  3 41  1  0
  3 42  1  0
  4 43  1  0
  4 44  1  0
 10 45  1  0
 11 46  1  0
 13 47  1  0
 16 48  1  0
 18 49  1  0
 19 50  1  0
 20 51  1  0
 21 52  1  0
 25 53  1  0
 26 54  1  0
 30 55  1  0
 31 56  1  0
 32 57  1  0
 34 58  1  0
 35 59  1  0
 36 60  1  0
 36 61  1  0
 37 62  1  0
 37 63  1  0
M  END
>  <smiles>  (30) 
CN1CCN(S(=O)(=O)c2ccc(NC(=O)Nc3ccccc3N=c3[nH]cnc4ncccc34)cc2)CC1

>  <score_type>  (30) 
oracle

>  <origin>  (30) 
adgpu

>  <m_score__min__energy>  (30) 
-10.94

>  <m_primary>  (30) 
energy

$$$$
30:0
     RDKit          3D

 49 52  0  0  0  0  0  0  0  0999 V2000
   -8.7839   19.6087  -31.1341 H   0  0  0  0  0  0  0  0  0  0  0  0
   -7.9080   19.2240  -31.6770 C   0  0  0  0  0  0  0  0  0  0  0  0
   -6.7690   19.9640  -31.7420 N   0  0  0  0  0  0  0  0  0  0  0  0
   -5.6470   19.5240  -32.3820 C   0  0  0  0  0  0  0  0  0  0  0  0
   -4.5900   20.2820  -32.4730 N   0  0  0  0  0  0  0  0  0  0  0  0
   -4.3440   21.5870  -31.9180 C   0  0  0  0  0  0  0  0  0  0  0  0
   -5.3320   22.5910  -31.8410 C   0  0  0  0  0  0  0  0  0  0  0  0
   -6.3394   22.4008  -32.2396 H   0  0  0  0  0  0  0  0  0  0  0  0
   -5.0340   23.8280  -31.2590 C   0  0  0  0  0  0  0  0  0  0  0  0
   -5.8006   24.6159  -31.2217 H   0  0  0  0  0  0  0  0  0  0  0  0
   -3.7620   24.0650  -30.7240 C   0  0  0  0  0  0  0  0  0  0  0  0
   -3.4700   25.2940  -30.1430 O   0  0  0  0  0  0  0  0  0  0  0  0
   -2.7910   23.0610  -30.7600 C   0  0  0  0  0  0  0  0  0  0  0  0
   -1.7965   23.2416  -30.3261 H   0  0  0  0  0  0  0  0  0  0  0  0
   -3.0840   21.8260  -31.3480 C   0  0  0  0  0  0  0  0  0  0  0  0
   -2.3198   21.0349  -31.3638 H   0  0  0  0  0  0  0  0  0  0  0  0
   -5.6650   18.2620  -33.0260 C   0  0  0  0  0  0  0  0  0  0  0  0
   -4.4990   17.7640  -33.7960 C   0  0  0  0  0  0  0  0  0  0  0  0
   -4.0850   18.4000  -34.8040 O   0  0  0  0  0  0  0  0  0  0  0  0
   -3.8340   16.5600  -33.4020 N   0  0  0  0  0  0  0  0  0  0  0  0
   -3.0080   15.7660  -34.2650 C   0  0  0  0  0  0  0  0  0  0  0  0
   -3.5000   15.2750  -35.4910 C   0  0  0  0  0  0  0  0  0  0  0  0
   -4.5541   15.4361  -35.7611 H   0  0  0  0  0  0  0  0  0  0  0  0
   -2.6570   14.5850  -36.3650 C   0  0  0  0  0  0  0  0  0  0  0  0
   -3.0489   14.2052  -37.3201 H   0  0  0  0  0  0  0  0  0  0  0  0
   -1.3170   14.3760  -36.0290 C   0  0  0  0  0  0  0  0  0  0  0  0
   -0.6552   13.8301  -36.7175 H   0  0  0  0  0  0  0  0  0  0  0  0
   -0.8190   14.8610  -34.8180 C   0  0  0  0  0  0  0  0  0  0  0  0
    0.2359   14.6942  -34.5547 H   0  0  0  0  0  0  0  0  0  0  0  0
   -1.6550   15.5590  -33.9360 C   0  0  0  0  0  0  0  0  0  0  0  0
   -0.9810   16.1330  -32.3720 S   0  0  0  0  0  0  0  0  0  0  0  0
   -0.5990   17.7740  -32.9890 C   0  0  0  0  0  0  0  0  0  0  0  0
    0.7340   18.1510  -33.1810 C   0  0  0  0  0  0  0  0  0  0  0  0
    1.5446   17.4633  -32.8983 H   0  0  0  0  0  0  0  0  0  0  0  0
    1.0390   19.3990  -33.7310 C   0  0  0  0  0  0  0  0  0  0  0  0
    2.0888   19.6836  -33.8948 H   0  0  0  0  0  0  0  0  0  0  0  0
    0.0120   20.2900  -34.0750 C   0  0  0  0  0  0  0  0  0  0  0  0
    0.3610   21.5660  -34.6500 C   0  0  0  0  0  0  0  0  0  0  0  0
    0.6400   22.5910  -35.1100 N   0  0  0  0  0  0  0  0  0  0  0  0
   -1.3370   19.9230  -33.8630 C   0  0  0  0  0  0  0  0  0  0  0  0
   -2.4150   20.8100  -34.1940 N   0  0  0  0  0  0  0  0  0  0  0  0
   -2.2300   21.8170  -34.4000 H   0  0  0  0  0  0  0  0  0  0  0  0
   -3.4050   20.4790  -34.2430 H   0  0  0  0  0  0  0  0  0  0  0  0
   -1.6290   18.6560  -33.3350 C   0  0  0  0  0  0  0  0  0  0  0  0
   -2.6768   18.3534  -33.1918 H   0  0  0  0  0  0  0  0  0  0  0  0
   -6.8450   17.5010  -32.9810 C   0  0  0  0  0  0  0  0  0  0  0  0
   -6.8860   16.5247  -33.4862 H   0  0  0  0  0  0  0  0  0  0  0  0
   -7.9650   17.9770  -32.2990 C   0  0  0  0  0  0  0  0  0  0  0  0
   -8.8842   17.3746  -32.2523 H   0  0  0  0  0  0  0  0  0  0  0  0
  1  2  1  0
  2  3  1  0
  3  4  1  0
  4  5  2  0
  5  6  1  0
  6  7  2  0
  7  8  1  0
  7  9  1  0
  9 10  1  0
  9 11  2  0
 11 12  1  0
 11 13  1  0
 13 14  1  0
 13 15  2  0
 15 16  1  0
  4 17  1  0
 17 18  1  0
 18 19  2  0
 18 20  1  0
 20 21  1  0
 21 22  2  0
 22 23  1  0
 22 24  1  0
 24 25  1  0
 24 26  2  0
 26 27  1  0
 26 28  1  0
 28 29  1  0
 28 30  2  0
 30 31  1  0
 31 32  1  0
 32 33  2  0
 33 34  1  0
 33 35  1  0
 35 36  1  0
 35 37  2  0
 37 38  1  0
 38 39  3  0
 37 40  1  0
 40 41  1  0
 41 42  1  0
 41 43  1  0
 40 44  2  0
 44 45  1  0
 17 46  2  0
 46 47  1  0
 46 48  1  0
 48 49  1  0
 48  2  2  0
 15  6  1  0
 30 21  1  0
 44 32  1  0
M  CHG  3   3  -1  12  -1  20  -1
M  END
>  <UniqueID>  (31) 
29

>  <SMILES>  (31) 
N#Cc1ccc(Sc2ccccc2[N-]C(=O)c2ccc[n-]/c2=N\c2ccc([O-])cc2)cc1N

>  <Energy>  (31) 
61.214324155619316

>  <Genealogy>  (31) 
N#Cc1ccc(Sc2ccccc2[N-]C(=O)c2ccc[n-]c2=Nc2ccc([O-])cc2)cc1N (protonated)
N#Cc1ccc(Sc2ccccc2[N-]C(=O)c2ccc[n-]/c2=N\c2ccc([O-])cc2)cc1N (cis-trans isomerization)
N#Cc1ccc(Sc2ccccc2[N-]C(=O)c2ccc[n-]/c2=N\c2ccc([O-])cc2)cc1N (3D coordinates assigned)
N#Cc1ccc(Sc2ccccc2[N-]C(=O)c2ccc[n-]/c2=N\c2ccc([O-])cc2)cc1N (optimized conformer: 61.214324155619316 kcal/mol)

>  <smiles>  (31) 
N#Cc1ccc(Sc2ccccc2NC(=O)c2ccc[nH]c2=Nc2ccc(O)cc2)cc1N

>  <score_type>  (31) 
oracle

>  <origin>  (31) 
adgpu

>  <m_score__min__energy>  (31) 
-11.98

>  <m_primary>  (31) 
energy

$$$$
31:0
     RDKit          3D

 56 60  0  0  0  0  0  0  0  0999 V2000
   -5.0810   23.6290  -29.0260 C   0  0  0  0  0  0  0  0  0  0  0  0
   -3.8510   23.6840  -28.1760 C   0  0  0  0  0  0  0  0  0  0  0  0
   -3.4790   24.7630  -27.4570 N   0  0  0  0  0  0  0  0  0  0  0  0
   -2.3670   24.4770  -26.7940 N   0  0  0  0  0  0  0  0  0  0  0  0
   -1.6860   25.3970  -25.9200 C   0  0  0  0  0  0  0  0  0  0  0  0
   -1.1560   24.9470  -24.6980 C   0  0  0  0  0  0  0  0  0  0  0  0
   -0.4880   25.8340  -23.8470 C   0  0  0  0  0  0  0  0  0  0  0  0
   -0.3380   27.1740  -24.2090 C   0  0  0  0  0  0  0  0  0  0  0  0
   -0.8530   27.6300  -25.4250 C   0  0  0  0  0  0  0  0  0  0  0  0
   -1.5220   26.7480  -26.2790 C   0  0  0  0  0  0  0  0  0  0  0  0
   -2.0170   23.2070  -27.0880 C   0  0  0  0  0  0  0  0  0  0  0  0
   -1.0020   22.6220  -26.6230 O   0  0  0  0  0  0  0  0  0  0  0  0
   -2.9330   22.6590  -27.9710 C   0  0  0  0  0  0  0  0  0  0  0  0
   -2.9590   21.2870  -28.5250 C   0  0  0  0  0  0  0  0  0  0  0  0
   -3.1110   20.3080  -27.7450 O   0  0  0  0  0  0  0  0  0  0  0  0
   -2.7800   21.0260  -29.9710 C   0  0  0  0  0  0  0  0  0  0  0  0
   -3.8100   20.4160  -30.6880 C   0  0  0  0  0  0  0  0  0  0  0  0
   -3.6900   20.1370  -32.0230 N   0  0  0  0  0  0  0  0  0  0  0  0
   -4.8220   19.4440  -32.6770 C   0  0  0  0  0  0  0  0  0  0  0  0
   -6.1400   20.0740  -32.2930 C   0  0  0  0  0  0  0  0  0  0  0  0
   -6.2900   21.4720  -32.3030 C   0  0  0  0  0  0  0  0  0  0  0  0
   -7.5160   22.0520  -31.9630 C   0  0  0  0  0  0  0  0  0  0  0  0
   -8.6040   21.2430  -31.6240 C   0  0  0  0  0  0  0  0  0  0  0  0
   -9.7920   21.8080  -31.2950 F   0  0  0  0  0  0  0  0  0  0  0  0
   -8.4700   19.8530  -31.6310 C   0  0  0  0  0  0  0  0  0  0  0  0
   -7.2450   19.2680  -31.9700 C   0  0  0  0  0  0  0  0  0  0  0  0
   -2.5340   20.4700  -32.7040 C   0  0  0  0  0  0  0  0  0  0  0  0
   -2.3660   20.1910  -34.0790 C   0  0  0  0  0  0  0  0  0  0  0  0
   -1.1920   20.5370  -34.7480 C   0  0  0  0  0  0  0  0  0  0  0  0
   -0.1450   21.1750  -34.0710 C   0  0  0  0  0  0  0  0  0  0  0  0
    1.0960   21.5370  -34.7920 C   0  0  0  0  0  0  0  0  0  0  0  0
    1.2900   22.7210  -35.1800 O   0  0  0  0  0  0  0  0  0  0  0  0
    2.0670   20.5770  -35.0510 O   0  0  0  0  0  0  0  0  0  0  0  0
   -0.2910   21.4610  -32.7050 C   0  0  0  0  0  0  0  0  0  0  0  0
   -1.4700   21.1150  -32.0150 C   0  0  0  0  0  0  0  0  0  0  0  0
   -1.6090   21.4000  -30.6450 C   0  0  0  0  0  0  0  0  0  0  0  0
   -0.6900   22.0020  -30.0240 O   0  0  0  0  0  0  0  0  0  0  0  0
   -5.9711   23.5892  -28.3808 H   0  0  0  0  0  0  0  0  0  0  0  0
   -5.1283   24.5259  -29.6610 H   0  0  0  0  0  0  0  0  0  0  0  0
   -5.0480   22.7314  -29.6610 H   0  0  0  0  0  0  0  0  0  0  0  0
   -3.9920   25.6710  -27.4050 H   0  0  0  0  0  0  0  0  0  0  0  0
   -1.2672   23.8914  -24.4094 H   0  0  0  0  0  0  0  0  0  0  0  0
   -0.0801   25.4749  -22.8906 H   0  0  0  0  0  0  0  0  0  0  0  0
    0.1853   27.8703  -23.5372 H   0  0  0  0  0  0  0  0  0  0  0  0
   -0.7319   28.6852  -25.7111 H   0  0  0  0  0  0  0  0  0  0  0  0
   -1.9224   27.1119  -27.2367 H   0  0  0  0  0  0  0  0  0  0  0  0
   -4.7424   20.1525  -30.1672 H   0  0  0  0  0  0  0  0  0  0  0  0
   -4.6988   19.5055  -33.7683 H   0  0  0  0  0  0  0  0  0  0  0  0
   -4.8270   18.3946  -32.3471 H   0  0  0  0  0  0  0  0  0  0  0  0
   -5.4392   22.1121  -32.5795 H   0  0  0  0  0  0  0  0  0  0  0  0
   -7.6243   23.1467  -31.9623 H   0  0  0  0  0  0  0  0  0  0  0  0
   -9.3287   19.2171  -31.3696 H   0  0  0  0  0  0  0  0  0  0  0  0
   -7.1464   18.1725  -31.9837 H   0  0  0  0  0  0  0  0  0  0  0  0
   -3.1756   19.6920  -34.6317 H   0  0  0  0  0  0  0  0  0  0  0  0
   -1.0874   20.3064  -35.8185 H   0  0  0  0  0  0  0  0  0  0  0  0
    0.5261   21.9622  -32.1654 H   0  0  0  0  0  0  0  0  0  0  0  0
  1  2  1  0
  2  3  1  0
  3  4  1  0
  4  5  1  0
  5  6  2  0
  6  7  1  0
  7  8  2  0
  8  9  1  0
  9 10  2  0
  4 11  1  0
 11 12  2  0
 11 13  1  0
 13 14  1  0
 14 15  2  0
 14 16  1  0
 16 17  2  0
 17 18  1  0
 18 19  1  0
 19 20  1  0
 20 21  2  0
 21 22  1  0
 22 23  2  0
 23 24  1  0
 23 25  1  0
 25 26  2  0
 18 27  1  0
 27 28  2  0
 28 29  1  0
 29 30  2  0
 30 31  1  0
 31 32  2  0
 31 33  1  0
 30 34  1  0
 34 35  2  0
 35 36  1  0
 36 37  2  0
 13  2  2  0
 36 16  1  0
 10  5  1  0
 26 20  1  0
 35 27  1  0
  1 38  1  0
  1 39  1  0
  1 40  1  0
  3 41  1  0
  6 42  1  0
  7 43  1  0
  8 44  1  0
  9 45  1  0
 10 46  1  0
 17 47  1  0
 19 48  1  0
 19 49  1  0
 21 50  1  0
 22 51  1  0
 25 52  1  0
 26 53  1  0
 28 54  1  0
 29 55  1  0
 34 56  1  0
M  CHG  1  33  -1
M  END
>  <UniqueID>  (32) 
30

>  <SMILES>  (32) 
Cc1[nH]n(-c2ccccc2)c(=O)c1C(=O)c1cn(Cc2ccc(F)cc2)c2ccc(C(=O)[O-])cc2c1=O

>  <Energy>  (32) 
116.51494781998878

>  <Genealogy>  (32) 
Cc1[nH]n(-c2ccccc2)c(=O)c1C(=O)c1cn(Cc2ccc(F)cc2)c2ccc(C(=O)[O-])cc2c1=O (protonated)
Cc1[nH]n(-c2ccccc2)c(=O)c1C(=O)c1cn(Cc2ccc(F)cc2)c2ccc(C(=O)[O-])cc2c1=O (3D coordinates assigned)
Cc1[nH]n(-c2ccccc2)c(=O)c1C(=O)c1cn(Cc2ccc(F)cc2)c2ccc(C(=O)[O-])cc2c1=O (optimized conformer: 116.51494781998878 kcal/mol)

>  <smiles>  (32) 
Cc1[nH]n(-c2ccccc2)c(=O)c1C(=O)c1cn(Cc2ccc(F)cc2)c2ccc(C(=O)O)cc2c1=O

>  <score_type>  (32) 
oracle

>  <origin>  (32) 
adgpu

>  <m_score__min__energy>  (32) 
-10.789999999999999

>  <m_primary>  (32) 
energy

$$$$
32:0
     RDKit          3D

 64 68  0  0  0  0  0  0  0  0999 V2000
   -0.5760   21.9530  -34.5340 O   0  0  0  0  0  0  0  0  0  0  0  0
   -0.3250   20.9740  -33.7810 C   0  0  0  0  0  0  0  0  0  0  0  0
    0.2400   19.7110  -34.3630 C   0  0  0  0  0  0  0  0  0  0  0  0
   -0.0270   18.5540  -33.4930 N   0  0  0  0  0  0  0  0  0  0  0  0
   -0.3030   17.2680  -34.0850 C   0  0  0  0  0  0  0  0  0  0  0  0
    0.4760   16.8130  -34.9670 O   0  0  0  0  0  0  0  0  0  0  0  0
   -1.4950   16.4440  -33.6530 C   0  0  0  0  0  0  0  0  0  0  0  0
   -2.4280   17.2790  -32.7460 C   0  0  0  0  0  0  0  0  0  0  0  0
   -3.8400   16.6810  -32.7290 C   0  0  0  0  0  0  0  0  0  0  0  0
   -4.4650   16.6320  -34.0760 N   0  0  0  0  0  0  0  0  0  0  0  0
   -5.6390   17.9110  -34.2700 S   0  0  0  0  0  0  0  0  0  0  0  0
   -5.7470   18.2960  -35.7200 O   0  0  0  0  0  0  0  0  0  0  0  0
   -6.9880   17.4500  -33.7930 O   0  0  0  0  0  0  0  0  0  0  0  0
   -5.1470   19.3020  -33.3080 C   0  0  0  0  0  0  0  0  0  0  0  0
   -5.9450   19.7180  -32.2340 C   0  0  0  0  0  0  0  0  0  0  0  0
   -5.5500   20.7990  -31.4420 C   0  0  0  0  0  0  0  0  0  0  0  0
   -4.3490   21.4710  -31.7130 C   0  0  0  0  0  0  0  0  0  0  0  0
   -3.8220   22.8100  -30.6970 S   0  0  0  0  0  0  0  0  0  0  0  0
   -4.1270   22.4690  -29.2650 O   0  0  0  0  0  0  0  0  0  0  0  0
   -2.3370   23.0040  -30.8370 O   0  0  0  0  0  0  0  0  0  0  0  0
   -4.6740   24.2720  -31.1490 N   0  0  0  0  0  0  0  0  0  0  0  0
   -5.2170   24.9430  -29.9630 C   0  0  0  0  0  0  0  0  0  0  0  0
   -6.6490   24.4670  -29.7620 C   0  0  0  0  0  0  0  0  0  0  0  0
   -7.0490   23.8110  -31.0690 C   0  0  0  0  0  0  0  0  0  0  0  0
   -5.8380   23.9490  -31.9820 C   0  0  0  0  0  0  0  0  0  0  0  0
   -3.5480   21.0510  -32.7830 C   0  0  0  0  0  0  0  0  0  0  0  0
   -3.9460   19.9720  -33.5790 C   0  0  0  0  0  0  0  0  0  0  0  0
   -3.5050   16.6590  -35.2020 C   0  0  0  0  0  0  0  0  0  0  0  0
   -2.2400   15.8570  -34.8770 C   0  0  0  0  0  0  0  0  0  0  0  0
   -0.0060   18.7170  -32.0550 C   0  0  0  0  0  0  0  0  0  0  0  0
    0.2740   17.6370  -31.1950 C   0  0  0  0  0  0  0  0  0  0  0  0
    0.2750   17.8200  -29.8100 C   0  0  0  0  0  0  0  0  0  0  0  0
    0.0030   19.0780  -29.2690 C   0  0  0  0  0  0  0  0  0  0  0  0
   -0.2590   20.1600  -30.1110 C   0  0  0  0  0  0  0  0  0  0  0  0
   -0.2530   19.9870  -31.5030 C   0  0  0  0  0  0  0  0  0  0  0  0
   -0.5040   21.1000  -32.3680 N   0  0  0  0  0  0  0  0  0  0  0  0
   -0.2193   19.5331  -35.3466 H   0  0  0  0  0  0  0  0  0  0  0  0
    1.3295   19.8298  -34.4575 H   0  0  0  0  0  0  0  0  0  0  0  0
   -1.1363   15.5895  -33.0604 H   0  0  0  0  0  0  0  0  0  0  0  0
   -2.0258   17.2858  -31.7222 H   0  0  0  0  0  0  0  0  0  0  0  0
   -2.4816   18.3045  -33.1403 H   0  0  0  0  0  0  0  0  0  0  0  0
   -3.7824   15.6569  -32.3317 H   0  0  0  0  0  0  0  0  0  0  0  0
   -4.4654   17.3307  -32.0991 H   0  0  0  0  0  0  0  0  0  0  0  0
   -6.8855   19.1918  -32.0137 H   0  0  0  0  0  0  0  0  0  0  0  0
   -6.1829   21.1242  -30.6032 H   0  0  0  0  0  0  0  0  0  0  0  0
   -4.6121   24.6872  -29.0806 H   0  0  0  0  0  0  0  0  0  0  0  0
   -5.1946   26.0342  -30.0998 H   0  0  0  0  0  0  0  0  0  0  0  0
   -6.7000   23.7413  -28.9370 H   0  0  0  0  0  0  0  0  0  0  0  0
   -7.3210   25.2981  -29.5019 H   0  0  0  0  0  0  0  0  0  0  0  0
   -7.2902   22.7499  -30.9083 H   0  0  0  0  0  0  0  0  0  0  0  0
   -7.9433   24.2810  -31.5041 H   0  0  0  0  0  0  0  0  0  0  0  0
   -5.6637   23.0031  -32.5157 H   0  0  0  0  0  0  0  0  0  0  0  0
   -6.0083   24.7433  -32.7237 H   0  0  0  0  0  0  0  0  0  0  0  0
   -2.6030   21.5715  -32.9978 H   0  0  0  0  0  0  0  0  0  0  0  0
   -3.3149   19.6484  -34.4198 H   0  0  0  0  0  0  0  0  0  0  0  0
   -3.9848   16.2257  -36.0920 H   0  0  0  0  0  0  0  0  0  0  0  0
   -3.2151   17.7042  -35.3851 H   0  0  0  0  0  0  0  0  0  0  0  0
   -2.5226   14.8167  -34.6583 H   0  0  0  0  0  0  0  0  0  0  0  0
   -1.5676   15.9055  -35.7462 H   0  0  0  0  0  0  0  0  0  0  0  0
    0.4929   16.6446  -31.6161 H   0  0  0  0  0  0  0  0  0  0  0  0
    0.4905   16.9712  -29.1444 H   0  0  0  0  0  0  0  0  0  0  0  0
   -0.0048   19.2166  -28.1778 H   0  0  0  0  0  0  0  0  0  0  0  0
   -0.4706   21.1505  -29.6820 H   0  0  0  0  0  0  0  0  0  0  0  0
   -0.7950   22.0210  -31.9680 H   0  0  0  0  0  0  0  0  0  0  0  0
  1  2  2  0
  2  3  1  0
  3  4  1  0
  4  5  1  0
  5  6  2  0
  5  7  1  0
  7  8  1  0
  8  9  1  0
  9 10  1  0
 10 11  1  0
 11 12  2  0
 11 13  2  0
 11 14  1  0
 14 15  2  0
 15 16  1  0
 16 17  2  0
 17 18  1  0
 18 19  2  0
 18 20  2  0
 18 21  1  0
 21 22  1  0
 22 23  1  0
 23 24  1  0
 24 25  1  0
 17 26  1  0
 26 27  2  0
 10 28  1  0
 28 29  1  0
  4 30  1  0
 30 31  2  0
 31 32  1  0
 32 33  2  0
 33 34  1  0
 34 35  2  0
 35 36  1  0
 36  2  1  0
 29  7  1  0
 35 30  1  0
 27 14  1  0
 25 21  1  0
  3 37  1  0
  3 38  1  0
  7 39  1  0
  8 40  1  0
  8 41  1  0
  9 42  1  0
  9 43  1  0
 15 44  1  0
 16 45  1  0
 22 46  1  0
 22 47  1  0
 23 48  1  0
 23 49  1  0
 24 50  1  0
 24 51  1  0
 25 52  1  0
 25 53  1  0
 26 54  1  0
 27 55  1  0
 28 56  1  0
 28 57  1  0
 29 58  1  0
 29 59  1  0
 31 60  1  0
 32 61  1  0
 33 62  1  0
 34 63  1  0
 36 64  1  0
M  END
>  <UniqueID>  (33) 
31

>  <SMILES>  (33) 
O=C1CN(C(=O)C2CCN(S(=O)(=O)c3ccc(S(=O)(=O)N4CCCC4)cc3)CC2)c2ccccc2N1

>  <Energy>  (33) 
81.38602745497262

>  <Genealogy>  (33) 
O=C1CN(C(=O)C2CCN(S(=O)(=O)c3ccc(S(=O)(=O)N4CCCC4)cc3)CC2)c2ccccc2N1 (3D coordinates assigned)
O=C1CN(C(=O)C2CCN(S(=O)(=O)c3ccc(S(=O)(=O)N4CCCC4)cc3)CC2)c2ccccc2N1 (nonaromatic ring conformer: 81.38602745497262 kcal/mol)

>  <smiles>  (33) 
O=C1CN(C(=O)C2CCN(S(=O)(=O)c3ccc(S(=O)(=O)N4CCCC4)cc3)CC2)c2ccccc2N1

>  <score_type>  (33) 
oracle

>  <origin>  (33) 
adgpu

>  <m_score__min__energy>  (33) 
-11.81

>  <m_primary>  (33) 
energy

$$$$
33:0
     RDKit          3D

 55 57  0  0  0  0  0  0  0  0999 V2000
   -7.0650   20.4610  -33.1370 C   0  0  0  0  0  0  0  0  0  0  0  0
   -6.0450   19.3970  -33.4430 C   0  0  0  0  0  0  0  0  0  0  0  0
   -6.4980   18.0820  -33.6390 C   0  0  0  0  0  0  0  0  0  0  0  0
   -5.6090   17.0690  -33.9910 C   0  0  0  0  0  0  0  0  0  0  0  0
   -4.2540   17.3510  -34.1540 C   0  0  0  0  0  0  0  0  0  0  0  0
   -3.7680   18.6490  -33.9360 C   0  0  0  0  0  0  0  0  0  0  0  0
   -2.3070   18.9400  -34.1370 C   0  0  0  0  0  0  0  0  0  0  0  0
   -4.6560   19.6760  -33.5470 C   0  0  0  0  0  0  0  0  0  0  0  0
   -4.1280   20.9940  -33.3320 N   0  0  0  0  0  0  0  0  0  0  0  0
   -3.6090   21.4770  -32.0890 C   0  0  0  0  0  0  0  0  0  0  0  0
   -2.4700   22.0140  -32.0430 O   0  0  0  0  0  0  0  0  0  0  0  0
   -4.4510   21.4390  -30.8460 C   0  0  0  0  0  0  0  0  0  0  0  0
   -4.3390   22.6810  -30.0700 N   0  0  0  0  0  0  0  0  0  0  0  0
   -3.2980   22.8540  -29.0970 C   0  0  0  0  0  0  0  0  0  0  0  0
   -2.8780   21.7530  -28.3410 C   0  0  0  0  0  0  0  0  0  0  0  0
   -1.8030   21.8850  -27.4560 C   0  0  0  0  0  0  0  0  0  0  0  0
   -1.3000   20.6960  -26.6940 C   0  0  0  0  0  0  0  0  0  0  0  0
   -2.1380   19.6100  -26.8800 F   0  0  0  0  0  0  0  0  0  0  0  0
   -1.2520   20.9990  -25.3440 F   0  0  0  0  0  0  0  0  0  0  0  0
   -0.0310   20.3620  -27.1300 F   0  0  0  0  0  0  0  0  0  0  0  0
   -1.1840   23.0900  -27.3280 N   0  0  0  0  0  0  0  0  0  0  0  0
   -1.5860   24.1910  -28.0200 C   0  0  0  0  0  0  0  0  0  0  0  0
   -0.8770   25.4910  -27.8040 C   0  0  0  0  0  0  0  0  0  0  0  0
   -2.6720   24.1020  -28.9080 C   0  0  0  0  0  0  0  0  0  0  0  0
   -3.1240   25.2500  -29.5600 O   0  0  0  0  0  0  0  0  0  0  0  0
   -5.5120   23.9430  -30.2840 S   0  0  0  0  0  0  0  0  0  0  0  0
   -5.7070   24.6770  -28.9870 O   0  0  0  0  0  0  0  0  0  0  0  0
   -5.0140   24.9270  -31.3060 O   0  0  0  0  0  0  0  0  0  0  0  0
   -7.0420   23.2550  -30.8130 C   0  0  0  0  0  0  0  0  0  0  0  0
   -7.6970   23.7800  -31.9370 C   0  0  0  0  0  0  0  0  0  0  0  0
   -8.9250   23.2490  -32.3460 C   0  0  0  0  0  0  0  0  0  0  0  0
   -9.5010   22.1890  -31.6380 C   0  0  0  0  0  0  0  0  0  0  0  0
   -8.8440   21.6530  -30.5280 C   0  0  0  0  0  0  0  0  0  0  0  0
   -7.6170   22.1820  -30.1160 C   0  0  0  0  0  0  0  0  0  0  0  0
   -7.1676   20.5680  -32.0470 H   0  0  0  0  0  0  0  0  0  0  0  0
   -6.7380   21.4178  -33.5702 H   0  0  0  0  0  0  0  0  0  0  0  0
   -8.0347   20.1747  -33.5702 H   0  0  0  0  0  0  0  0  0  0  0  0
   -7.5658   17.8497  -33.5132 H   0  0  0  0  0  0  0  0  0  0  0  0
   -5.9776   16.0435  -34.1407 H   0  0  0  0  0  0  0  0  0  0  0  0
   -3.5614   16.5513  -34.4553 H   0  0  0  0  0  0  0  0  0  0  0  0
   -1.8146   19.0381  -33.1583 H   0  0  0  0  0  0  0  0  0  0  0  0
   -1.8432   18.1166  -34.6999 H   0  0  0  0  0  0  0  0  0  0  0  0
   -2.1941   19.8783  -34.6999 H   0  0  0  0  0  0  0  0  0  0  0  0
   -5.5027   21.2929  -31.1333 H   0  0  0  0  0  0  0  0  0  0  0  0
   -4.0928   20.6107  -30.2170 H   0  0  0  0  0  0  0  0  0  0  0  0
   -3.3924   20.7861  -28.4428 H   0  0  0  0  0  0  0  0  0  0  0  0
   -0.7750   25.6781  -26.7248 H   0  0  0  0  0  0  0  0  0  0  0  0
    0.1211   25.4452  -28.2642 H   0  0  0  0  0  0  0  0  0  0  0  0
   -1.4559   26.3053  -28.2642 H   0  0  0  0  0  0  0  0  0  0  0  0
   -4.0730   25.5890  -29.4690 H   0  0  0  0  0  0  0  0  0  0  0  0
   -7.2441   24.6109  -32.4979 H   0  0  0  0  0  0  0  0  0  0  0  0
   -9.4381   23.6655  -33.2253 H   0  0  0  0  0  0  0  0  0  0  0  0
  -10.4707   21.7778  -31.9552 H   0  0  0  0  0  0  0  0  0  0  0  0
   -9.2927   20.8133  -29.9770 H   0  0  0  0  0  0  0  0  0  0  0  0
   -7.1012   21.7556  -29.2430 H   0  0  0  0  0  0  0  0  0  0  0  0
  1  2  1  0
  2  3  2  0
  3  4  1  0
  4  5  2  0
  5  6  1  0
  6  7  1  0
  6  8  2  0
  8  9  1  0
  9 10  1  0
 10 11  2  0
 10 12  1  0
 12 13  1  0
 13 14  1  0
 14 15  2  0
 15 16  1  0
 16 17  1  0
 17 18  1  0
 17 19  1  0
 17 20  1  0
 16 21  2  0
 21 22  1  0
 22 23  1  0
 22 24  2  0
 24 25  1  0
 13 26  1  0
 26 27  2  0
 26 28  2  0
 26 29  1  0
 29 30  2  0
 30 31  1  0
 31 32  2  0
 32 33  1  0
 33 34  2  0
  8  2  1  0
 24 14  1  0
 34 29  1  0
  1 35  1  0
  1 36  1  0
  1 37  1  0
  3 38  1  0
  4 39  1  0
  5 40  1  0
  7 41  1  0
  7 42  1  0
  7 43  1  0
 12 44  1  0
 12 45  1  0
 15 46  1  0
 23 47  1  0
 23 48  1  0
 23 49  1  0
 25 50  1  0
 30 51  1  0
 31 52  1  0
 32 53  1  0
 33 54  1  0
 34 55  1  0
M  CHG  1   9  -1
M  END
>  <UniqueID>  (34) 
32

>  <SMILES>  (34) 
Cc1cccc(C)c1[N-]C(=O)CN(c1cc(C(F)(F)F)nc(C)c1O)S(=O)(=O)c1ccccc1

>  <Energy>  (34) 
63.64654897530529

>  <Genealogy>  (34) 
Cc1cccc(C)c1[N-]C(=O)CN(c1cc(C(F)(F)F)nc(C)c1O)S(=O)(=O)c1ccccc1 (protonated)
Cc1cccc(C)c1[N-]C(=O)CN(c1cc(C(F)(F)F)nc(C)c1O)S(=O)(=O)c1ccccc1 (3D coordinates assigned)
Cc1cccc(C)c1[N-]C(=O)CN(c1cc(C(F)(F)F)nc(C)c1O)S(=O)(=O)c1ccccc1 (optimized conformer: 63.64654897530529 kcal/mol)

>  <smiles>  (34) 
Cc1cccc(C)c1NC(=O)CN(c1cc(C(F)(F)F)nc(C)c1O)S(=O)(=O)c1ccccc1

>  <score_type>  (34) 
oracle

>  <origin>  (34) 
adgpu

>  <m_score__min__energy>  (34) 
-11.529999999999999

>  <m_primary>  (34) 
energy

$$$$
34:0
     RDKit          3D

 59 63  0  0  0  0  0  0  0  0999 V2000
   -0.2600   19.5340  -33.3140 O   0  0  0  0  0  0  0  0  0  0  0  0
   -1.2830   20.0630  -32.8070 C   0  0  0  0  0  0  0  0  0  0  0  0
   -2.3600   20.5960  -33.7030 C   0  0  0  0  0  0  0  0  0  0  0  0
   -3.6080   19.8550  -33.4900 N   0  0  0  0  0  0  0  0  0  0  0  0
   -3.5570   18.5230  -33.5530 N   0  0  0  0  0  0  0  0  0  0  0  0
   -4.6350   17.7270  -33.3270 C   0  0  0  0  0  0  0  0  0  0  0  0
   -4.4450   16.2640  -33.4400 C   0  0  0  0  0  0  0  0  0  0  0  0
   -4.1350   15.6970  -34.6850 C   0  0  0  0  0  0  0  0  0  0  0  0
   -3.9720   14.3130  -34.8070 C   0  0  0  0  0  0  0  0  0  0  0  0
   -4.1310   13.4860  -33.6910 C   0  0  0  0  0  0  0  0  0  0  0  0
   -4.4670   14.0420  -32.4530 C   0  0  0  0  0  0  0  0  0  0  0  0
   -4.6330   15.4250  -32.3270 C   0  0  0  0  0  0  0  0  0  0  0  0
   -5.8650   18.3230  -32.9790 C   0  0  0  0  0  0  0  0  0  0  0  0
   -7.0110   17.5640  -32.6610 C   0  0  0  0  0  0  0  0  0  0  0  0
   -8.2140   18.1960  -32.3360 C   0  0  0  0  0  0  0  0  0  0  0  0
   -8.2890   19.5870  -32.3070 C   0  0  0  0  0  0  0  0  0  0  0  0
   -7.1570   20.3570  -32.5830 C   0  0  0  0  0  0  0  0  0  0  0  0
   -5.9360   19.7350  -32.9150 C   0  0  0  0  0  0  0  0  0  0  0  0
   -4.7780   20.4920  -33.1690 C   0  0  0  0  0  0  0  0  0  0  0  0
   -4.8160   21.7520  -33.0890 O   0  0  0  0  0  0  0  0  0  0  0  0
   -1.4490   20.1370  -31.3850 N   0  0  0  0  0  0  0  0  0  0  0  0
   -1.5810   21.3230  -30.5880 C   0  0  0  0  0  0  0  0  0  0  0  0
   -0.5500   21.7800  -29.7450 C   0  0  0  0  0  0  0  0  0  0  0  0
   -0.7290   22.9380  -28.9820 C   0  0  0  0  0  0  0  0  0  0  0  0
   -1.9240   23.6550  -29.0630 C   0  0  0  0  0  0  0  0  0  0  0  0
   -2.9420   23.2340  -29.9290 C   0  0  0  0  0  0  0  0  0  0  0  0
   -4.4530   24.1450  -30.0380 S   0  0  0  0  0  0  0  0  0  0  0  0
   -4.2120   25.3960  -30.8360 O   0  0  0  0  0  0  0  0  0  0  0  0
   -4.8810   24.5520  -28.6530 O   0  0  0  0  0  0  0  0  0  0  0  0
   -5.7380   23.2280  -30.7870 N   0  0  0  0  0  0  0  0  0  0  0  0
   -6.5240   24.0280  -31.7310 C   0  0  0  0  0  0  0  0  0  0  0  0
   -7.9070   23.3910  -31.7950 C   0  0  0  0  0  0  0  0  0  0  0  0
   -8.0050   22.5010  -30.5610 C   0  0  0  0  0  0  0  0  0  0  0  0
   -6.6980   22.7100  -29.8090 C   0  0  0  0  0  0  0  0  0  0  0  0
   -2.7630   22.0680  -30.6900 C   0  0  0  0  0  0  0  0  0  0  0  0
   -2.5261   21.6599  -33.4785 H   0  0  0  0  0  0  0  0  0  0  0  0
   -2.0466   20.4782  -34.7508 H   0  0  0  0  0  0  0  0  0  0  0  0
   -4.0197   16.3426  -35.5681 H   0  0  0  0  0  0  0  0  0  0  0  0
   -3.7181   13.8744  -35.7833 H   0  0  0  0  0  0  0  0  0  0  0  0
   -3.9919   12.3991  -33.7869 H   0  0  0  0  0  0  0  0  0  0  0  0
   -4.6010   13.3907  -31.5767 H   0  0  0  0  0  0  0  0  0  0  0  0
   -4.9114   15.8577  -31.3547 H   0  0  0  0  0  0  0  0  0  0  0  0
   -6.9570   16.4654  -32.6690 H   0  0  0  0  0  0  0  0  0  0  0  0
   -9.1043   17.5937  -32.1024 H   0  0  0  0  0  0  0  0  0  0  0  0
   -9.2424   20.0800  -32.0661 H   0  0  0  0  0  0  0  0  0  0  0  0
   -7.2183   21.4545  -32.5411 H   0  0  0  0  0  0  0  0  0  0  0  0
    0.3980   21.2251  -29.6865 H   0  0  0  0  0  0  0  0  0  0  0  0
    0.0745   23.2851  -28.3157 H   0  0  0  0  0  0  0  0  0  0  0  0
   -2.0670   24.5536  -28.4449 H   0  0  0  0  0  0  0  0  0  0  0  0
   -5.3060   22.4210  -31.2990 H   0  0  0  0  0  0  0  0  0  0  0  0
   -6.6005   25.0666  -31.3767 H   0  0  0  0  0  0  0  0  0  0  0  0
   -6.0505   24.0490  -32.7236 H   0  0  0  0  0  0  0  0  0  0  0  0
   -8.6880   24.1654  -31.7731 H   0  0  0  0  0  0  0  0  0  0  0  0
   -8.0489   22.8178  -32.7230 H   0  0  0  0  0  0  0  0  0  0  0  0
   -8.8603   22.8002  -29.9373 H   0  0  0  0  0  0  0  0  0  0  0  0
   -8.1595   21.4453  -30.8285 H   0  0  0  0  0  0  0  0  0  0  0  0
   -6.8396   23.4348  -28.9938 H   0  0  0  0  0  0  0  0  0  0  0  0
   -6.3421   21.7718  -29.3583 H   0  0  0  0  0  0  0  0  0  0  0  0
   -3.5587   21.7361  -31.3731 H   0  0  0  0  0  0  0  0  0  0  0  0
  1  2  2  0
  2  3  1  0
  3  4  1  0
  4  5  1  0
  5  6  2  0
  6  7  1  0
  7  8  2  0
  8  9  1  0
  9 10  2  0
 10 11  1  0
 11 12  2  0
  6 13  1  0
 13 14  2  0
 14 15  1  0
 15 16  2  0
 16 17  1  0
 17 18  2  0
 18 19  1  0
 19 20  2  0
  2 21  1  0
 21 22  1  0
 22 23  2  0
 23 24  1  0
 24 25  2  0
 25 26  1  0
 26 27  1  0
 27 28  2  0
 27 29  2  0
 27 30  1  0
 30 31  1  0
 31 32  1  0
 32 33  1  0
 33 34  1  0
 26 35  2  0
 19  4  1  0
 35 22  1  0
 12  7  1  0
 18 13  1  0
 34 30  1  0
  3 36  1  0
  3 37  1  0
  8 38  1  0
  9 39  1  0
 10 40  1  0
 11 41  1  0
 12 42  1  0
 14 43  1  0
 15 44  1  0
 16 45  1  0
 17 46  1  0
 23 47  1  0
 24 48  1  0
 25 49  1  0
 30 50  1  0
 31 51  1  0
 31 52  1  0
 32 53  1  0
 32 54  1  0
 33 55  1  0
 33 56  1  0
 34 57  1  0
 34 58  1  0
 35 59  1  0
M  CHG  2  21  -1  30   1
M  END
>  <UniqueID>  (35) 
33

>  <SMILES>  (35) 
O=C(Cn1nc(-c2ccccc2)c2ccccc2c1=O)[N-]c1cccc(S(=O)(=O)[NH+]2CCCC2)c1

>  <Energy>  (35) 
82.3233591734108

>  <Genealogy>  (35) 
O=C(Cn1nc(-c2ccccc2)c2ccccc2c1=O)[N-]c1cccc(S(=O)(=O)[NH+]2CCCC2)c1 (protonated)
O=C(Cn1nc(-c2ccccc2)c2ccccc2c1=O)[N-]c1cccc(S(=O)(=O)[NH+]2CCCC2)c1 (3D coordinates assigned)
O=C(Cn1nc(-c2ccccc2)c2ccccc2c1=O)[N-]c1cccc(S(=O)(=O)[NH+]2CCCC2)c1 (nonaromatic ring conformer: 82.3233591734108 kcal/mol)

>  <smiles>  (35) 
O=C(Cn1nc(-c2ccccc2)c2ccccc2c1=O)Nc1cccc(S(=O)(=O)N2CCCC2)c1

>  <score_type>  (35) 
oracle

>  <origin>  (35) 
adgpu

>  <m_score__min__energy>  (35) 
-13.529999999999999

>  <m_primary>  (35) 
energy

$$$$
35:0
     RDKit          3D

 58 61  0  0  0  0  0  0  0  0999 V2000
   -3.0760   20.7070  -30.8280 O   0  0  0  0  0  0  0  0  0  0  0  0
   -2.5010   21.6110  -30.1630 C   0  0  0  0  0  0  0  0  0  0  0  0
   -3.0000   22.9580  -30.2150 N   0  0  0  0  0  0  0  0  0  0  0  0
   -4.3200   23.2870  -30.6790 C   0  0  0  0  0  0  0  0  0  0  0  0
   -5.1990   22.2500  -31.0300 C   0  0  0  0  0  0  0  0  0  0  0  0
   -6.4870   22.5350  -31.5030 C   0  0  0  0  0  0  0  0  0  0  0  0
   -7.5790   21.2240  -31.9550 S   0  0  0  0  0  0  0  0  0  0  0  0
   -7.8290   20.3520  -30.7560 O   0  0  0  0  0  0  0  0  0  0  0  0
   -8.8970   21.8040  -32.3910 O   0  0  0  0  0  0  0  0  0  0  0  0
   -6.9180   20.2570  -33.2530 N   0  0  0  0  0  0  0  0  0  0  0  0
   -7.2770   18.8340  -33.0680 C   0  0  0  0  0  0  0  0  0  0  0  0
   -6.3910   17.9180  -33.9180 C   0  0  0  0  0  0  0  0  0  0  0  0
   -4.9130   18.0380  -33.5040 C   0  0  0  0  0  0  0  0  0  0  0  0
   -4.5830   19.3960  -32.8630 C   0  0  0  0  0  0  0  0  0  0  0  0
   -5.4660   20.5110  -33.4390 C   0  0  0  0  0  0  0  0  0  0  0  0
   -6.8990   23.8690  -31.6250 C   0  0  0  0  0  0  0  0  0  0  0  0
   -6.0220   24.9070  -31.3020 C   0  0  0  0  0  0  0  0  0  0  0  0
   -4.7310   24.6240  -30.8440 C   0  0  0  0  0  0  0  0  0  0  0  0
   -3.8590   25.6750  -30.5840 O   0  0  0  0  0  0  0  0  0  0  0  0
   -1.2900   21.2790  -29.3730 C   0  0  0  0  0  0  0  0  0  0  0  0
   -0.6710   20.0260  -29.5230 C   0  0  0  0  0  0  0  0  0  0  0  0
    0.4640   19.7040  -28.7770 C   0  0  0  0  0  0  0  0  0  0  0  0
    0.9930   20.6230  -27.8690 C   0  0  0  0  0  0  0  0  0  0  0  0
    0.3870   21.8790  -27.6930 C   0  0  0  0  0  0  0  0  0  0  0  0
    0.9450   22.8540  -26.7210 C   0  0  0  0  0  0  0  0  0  0  0  0
    2.0730   23.6260  -27.0510 C   0  0  0  0  0  0  0  0  0  0  0  0
    2.5970   24.5450  -26.1350 C   0  0  0  0  0  0  0  0  0  0  0  0
    2.0090   24.7000  -24.8720 C   0  0  0  0  0  0  0  0  0  0  0  0
    2.5510   25.7130  -23.9020 C   0  0  0  0  0  0  0  0  0  0  0  0
    1.5350   26.5970  -23.5140 O   0  0  0  0  0  0  0  0  0  0  0  0
    0.8750   23.9430  -24.5440 C   0  0  0  0  0  0  0  0  0  0  0  0
    0.3500   23.0230  -25.4570 C   0  0  0  0  0  0  0  0  0  0  0  0
   -0.7570   22.1960  -28.4470 C   0  0  0  0  0  0  0  0  0  0  0  0
   -2.3210   23.7420  -30.0850 H   0  0  0  0  0  0  0  0  0  0  0  0
   -4.8735   21.2038  -30.9328 H   0  0  0  0  0  0  0  0  0  0  0  0
   -7.1527   18.5686  -32.0078 H   0  0  0  0  0  0  0  0  0  0  0  0
   -8.3212   18.6967  -33.3854 H   0  0  0  0  0  0  0  0  0  0  0  0
   -6.7183   16.8764  -33.7843 H   0  0  0  0  0  0  0  0  0  0  0  0
   -6.4847   18.2201  -34.9715 H   0  0  0  0  0  0  0  0  0  0  0  0
   -4.6852   17.2425  -32.7793 H   0  0  0  0  0  0  0  0  0  0  0  0
   -4.3047   17.9452  -34.4158 H   0  0  0  0  0  0  0  0  0  0  0  0
   -4.7501   19.3305  -31.7777 H   0  0  0  0  0  0  0  0  0  0  0  0
   -3.5319   19.6372  -33.0798 H   0  0  0  0  0  0  0  0  0  0  0  0
   -5.2086   21.4559  -32.9381 H   0  0  0  0  0  0  0  0  0  0  0  0
   -5.2759   20.5547  -34.5216 H   0  0  0  0  0  0  0  0  0  0  0  0
   -7.9157   24.0992  -31.9761 H   0  0  0  0  0  0  0  0  0  0  0  0
   -6.3482   25.9521  -31.4083 H   0  0  0  0  0  0  0  0  0  0  0  0
   -1.0838   19.2942  -30.2330 H   0  0  0  0  0  0  0  0  0  0  0  0
    0.9435   18.7223  -28.9051 H   0  0  0  0  0  0  0  0  0  0  0  0
    1.8897   20.3626  -27.2876 H   0  0  0  0  0  0  0  0  0  0  0  0
    2.5470   23.5066  -28.0364 H   0  0  0  0  0  0  0  0  0  0  0  0
    3.4750   25.1490  -26.4075 H   0  0  0  0  0  0  0  0  0  0  0  0
    2.9413   25.1944  -23.0139 H   0  0  0  0  0  0  0  0  0  0  0  0
    3.3582   26.2814  -24.3871 H   0  0  0  0  0  0  0  0  0  0  0  0
    1.4840   26.5520  -22.5230 H   0  0  0  0  0  0  0  0  0  0  0  0
    0.3956   24.0737  -23.5626 H   0  0  0  0  0  0  0  0  0  0  0  0
   -0.5340   22.4274  -25.1853 H   0  0  0  0  0  0  0  0  0  0  0  0
   -1.2421   23.1739  -28.3115 H   0  0  0  0  0  0  0  0  0  0  0  0
  1  2  2  0
  2  3  1  0
  3  4  1  0
  4  5  2  0
  5  6  1  0
  6  7  1  0
  7  8  2  0
  7  9  2  0
  7 10  1  0
 10 11  1  0
 11 12  1  0
 12 13  1  0
 13 14  1  0
 14 15  1  0
  6 16  2  0
 16 17  1  0
 17 18  2  0
 18 19  1  0
  2 20  1  0
 20 21  2  0
 21 22  1  0
 22 23  2  0
 23 24  1  0
 24 25  1  0
 25 26  2  0
 26 27  1  0
 27 28  2  0
 28 29  1  0
 29 30  1  0
 28 31  1  0
 31 32  2  0
 24 33  2  0
 18  4  1  0
 33 20  1  0
 15 10  1  0
 32 25  1  0
  3 34  1  0
  5 35  1  0
 11 36  1  0
 11 37  1  0
 12 38  1  0
 12 39  1  0
 13 40  1  0
 13 41  1  0
 14 42  1  0
 14 43  1  0
 15 44  1  0
 15 45  1  0
 16 46  1  0
 17 47  1  0
 21 48  1  0
 22 49  1  0
 23 50  1  0
 26 51  1  0
 27 52  1  0
 29 53  1  0
 29 54  1  0
 30 55  1  0
 31 56  1  0
 32 57  1  0
 33 58  1  0
M  CHG  1  19  -1
M  END
>  <UniqueID>  (36) 
34

>  <SMILES>  (36) 
O=C(Nc1cc(S(=O)(=O)N2CCCCC2)ccc1[O-])c1cccc(-c2ccc(CO)cc2)c1

>  <Energy>  (36) 
77.43353386701182

>  <Genealogy>  (36) 
O=C(Nc1cc(S(=O)(=O)N2CCCCC2)ccc1[O-])c1cccc(-c2ccc(CO)cc2)c1 (protonated)
O=C(Nc1cc(S(=O)(=O)N2CCCCC2)ccc1[O-])c1cccc(-c2ccc(CO)cc2)c1 (3D coordinates assigned)
O=C(Nc1cc(S(=O)(=O)N2CCCCC2)ccc1[O-])c1cccc(-c2ccc(CO)cc2)c1 (nonaromatic ring conformer: 77.43353386701182 kcal/mol)

>  <smiles>  (36) 
O=C(Nc1cc(S(=O)(=O)N2CCCCC2)ccc1O)c1cccc(-c2ccc(CO)cc2)c1

>  <score_type>  (36) 
oracle

>  <origin>  (36) 
adgpu

>  <m_score__min__energy>  (36) 
-12.76

>  <m_primary>  (36) 
energy

$$$$
36:0
     RDKit          3D

 49 51  0  0  0  0  0  0  0  0999 V2000
   -1.8820   23.9940  -29.6780 N   0  0  0  0  0  0  0  0  0  0  0  0
   -2.6370   23.0200  -30.3950 C   0  0  0  0  0  0  0  0  0  0  0  0
   -2.0760   21.9400  -30.7230 O   0  0  0  0  0  0  0  0  0  0  0  0
   -4.0630   23.2590  -30.7560 C   0  0  0  0  0  0  0  0  0  0  0  0
   -4.8870   22.1620  -31.0790 C   0  0  0  0  0  0  0  0  0  0  0  0
   -6.2370   22.3420  -31.4330 C   0  0  0  0  0  0  0  0  0  0  0  0
   -7.0790   21.1630  -31.7670 C   0  0  0  0  0  0  0  0  0  0  0  0
   -7.8220   20.6620  -30.8790 O   0  0  0  0  0  0  0  0  0  0  0  0
   -7.1100   20.5800  -33.1590 C   0  0  0  0  0  0  0  0  0  0  0  0
   -6.5490   19.2130  -33.1770 N   0  0  0  0  0  0  0  0  0  0  0  0
   -5.6570   18.9610  -32.0120 C   0  0  0  0  0  0  0  0  0  0  0  0
   -4.1650   18.9230  -32.3740 C   0  0  0  0  0  0  0  0  0  0  0  0
   -3.9300   17.9590  -33.4570 N   0  0  0  0  0  0  0  0  0  0  0  0
   -2.6860   17.2410  -33.5690 C   0  0  0  0  0  0  0  0  0  0  0  0
   -2.6590   16.1390  -34.1830 O   0  0  0  0  0  0  0  0  0  0  0  0
   -1.4160   17.7560  -32.9400 C   0  0  0  0  0  0  0  0  0  0  0  0
   -0.9340   18.9970  -33.6430 C   0  0  0  0  0  0  0  0  0  0  0  0
   -1.2940   20.2670  -33.1610 C   0  0  0  0  0  0  0  0  0  0  0  0
   -0.8730   21.4200  -33.8290 C   0  0  0  0  0  0  0  0  0  0  0  0
   -0.0960   21.3150  -34.9860 C   0  0  0  0  0  0  0  0  0  0  0  0
    0.2570   20.0550  -35.4800 C   0  0  0  0  0  0  0  0  0  0  0  0
   -0.1630   18.8990  -34.8150 C   0  0  0  0  0  0  0  0  0  0  0  0
   -4.9940   17.7200  -34.4390 C   0  0  0  0  0  0  0  0  0  0  0  0
   -5.9370   18.9250  -34.4950 C   0  0  0  0  0  0  0  0  0  0  0  0
   -6.7660   23.6430  -31.4490 C   0  0  0  0  0  0  0  0  0  0  0  0
   -5.9630   24.7370  -31.1320 C   0  0  0  0  0  0  0  0  0  0  0  0
   -4.6210   24.5580  -30.7880 C   0  0  0  0  0  0  0  0  0  0  0  0
   -3.8620   25.6820  -30.4790 O   0  0  0  0  0  0  0  0  0  0  0  0
   -1.8860   24.9970  -29.9660 H   0  0  0  0  0  0  0  0  0  0  0  0
   -4.4667   21.1458  -31.0539 H   0  0  0  0  0  0  0  0  0  0  0  0
   -8.1517   20.5453  -33.5106 H   0  0  0  0  0  0  0  0  0  0  0  0
   -6.5002   21.2161  -33.8174 H   0  0  0  0  0  0  0  0  0  0  0  0
   -5.8151   19.7613  -31.2740 H   0  0  0  0  0  0  0  0  0  0  0  0
   -5.9173   17.9681  -31.6165 H   0  0  0  0  0  0  0  0  0  0  0  0
   -3.8451   19.9230  -32.7020 H   0  0  0  0  0  0  0  0  0  0  0  0
   -3.5887   18.6158  -31.4888 H   0  0  0  0  0  0  0  0  0  0  0  0
   -1.6076   17.9922  -31.8829 H   0  0  0  0  0  0  0  0  0  0  0  0
   -0.6412   16.9799  -33.0256 H   0  0  0  0  0  0  0  0  0  0  0  0
   -1.9100   20.3539  -32.2538 H   0  0  0  0  0  0  0  0  0  0  0  0
   -1.1535   22.4114  -33.4437 H   0  0  0  0  0  0  0  0  0  0  0  0
    0.2380   22.2236  -35.5083 H   0  0  0  0  0  0  0  0  0  0  0  0
    0.8657   19.9734  -36.3926 H   0  0  0  0  0  0  0  0  0  0  0  0
    0.1106   17.9095  -35.2099 H   0  0  0  0  0  0  0  0  0  0  0  0
   -4.5453   17.5625  -35.4309 H   0  0  0  0  0  0  0  0  0  0  0  0
   -5.5655   16.8284  -34.1416 H   0  0  0  0  0  0  0  0  0  0  0  0
   -5.3669   19.8071  -34.8221 H   0  0  0  0  0  0  0  0  0  0  0  0
   -6.7468   18.6899  -35.2014 H   0  0  0  0  0  0  0  0  0  0  0  0
   -7.8221   23.7996  -31.7137 H   0  0  0  0  0  0  0  0  0  0  0  0
   -6.3898   25.7506  -31.1529 H   0  0  0  0  0  0  0  0  0  0  0  0
  1  2  1  0
  2  3  2  0
  2  4  1  0
  4  5  2  0
  5  6  1  0
  6  7  1  0
  7  8  2  0
  7  9  1  0
  9 10  1  0
 10 11  1  0
 11 12  1  0
 12 13  1  0
 13 14  1  0
 14 15  2  0
 14 16  1  0
 16 17  1  0
 17 18  2  0
 18 19  1  0
 19 20  2  0
 20 21  1  0
 21 22  2  0
 13 23  1  0
 23 24  1  0
  6 25  2  0
 25 26  1  0
 26 27  2  0
 27 28  1  0
 27  4  1  0
 24 10  1  0
 22 17  1  0
  1 29  1  0
  5 30  1  0
  9 31  1  0
  9 32  1  0
 11 33  1  0
 11 34  1  0
 12 35  1  0
 12 36  1  0
 16 37  1  0
 16 38  1  0
 18 39  1  0
 19 40  1  0
 20 41  1  0
 21 42  1  0
 22 43  1  0
 23 44  1  0
 23 45  1  0
 24 46  1  0
 24 47  1  0
 25 48  1  0
 26 49  1  0
M  CHG  2   1  -1  28  -1
M  END
>  <UniqueID>  (37) 
35

>  <SMILES>  (37) 
[NH-]C(=O)c1cc(C(=O)CN2CCN(C(=O)Cc3ccccc3)CC2)ccc1[O-]

>  <Energy>  (37) 
62.70031460300479

>  <Genealogy>  (37) 
[NH-]C(=O)c1cc(C(=O)CN2CCN(C(=O)Cc3ccccc3)CC2)ccc1[O-] (protonated)
[NH-]C(=O)c1cc(C(=O)CN2CCN(C(=O)Cc3ccccc3)CC2)ccc1[O-] (3D coordinates assigned)
[NH-]C(=O)c1cc(C(=O)CN2CCN(C(=O)Cc3ccccc3)CC2)ccc1[O-] (nonaromatic ring conformer: 62.70031460300479 kcal/mol)

>  <smiles>  (37) 
NC(=O)c1cc(C(=O)CN2CCN(C(=O)Cc3ccccc3)CC2)ccc1O

>  <score_type>  (37) 
oracle

>  <origin>  (37) 
adgpu

>  <m_score__min__energy>  (37) 
-13.529999999999999

>  <m_primary>  (37) 
energy

$$$$
37:0
     RDKit          3D

 45 47  0  0  0  0  0  0  0  0999 V2000
   -1.9470   25.3070  -27.6120 C   0  0  0  0  0  0  0  0  0  0  0  0
   -2.3610   25.2720  -28.9730 O   0  0  0  0  0  0  0  0  0  0  0  0
   -2.5500   24.0980  -29.7180 C   0  0  0  0  0  0  0  0  0  0  0  0
   -1.7060   22.9790  -29.5750 C   0  0  0  0  0  0  0  0  0  0  0  0
   -1.9250   21.8280  -30.3330 C   0  0  0  0  0  0  0  0  0  0  0  0
   -2.9870   21.7680  -31.2470 C   0  0  0  0  0  0  0  0  0  0  0  0
   -3.2100   20.5450  -32.0440 C   0  0  0  0  0  0  0  0  0  0  0  0
   -4.3680   20.2660  -32.6840 N   0  0  0  0  0  0  0  0  0  0  0  0
   -4.1160   19.0790  -33.2650 C   0  0  0  0  0  0  0  0  0  0  0  0
   -5.1170   18.3090  -34.0770 C   0  0  0  0  0  0  0  0  0  0  0  0
   -6.4080   19.0150  -34.1760 N   0  0  0  0  0  0  0  0  0  0  0  0
   -7.3440   18.6870  -33.0850 C   0  0  0  0  0  0  0  0  0  0  0  0
   -7.8450   19.9180  -32.3860 C   0  0  0  0  0  0  0  0  0  0  0  0
   -8.8150   19.9530  -31.4030 C   0  0  0  0  0  0  0  0  0  0  0  0
   -8.9300   21.2780  -31.0380 C   0  0  0  0  0  0  0  0  0  0  0  0
   -8.0200   21.9600  -31.8210 C   0  0  0  0  0  0  0  0  0  0  0  0
   -7.7840   23.4320  -31.7930 C   0  0  0  0  0  0  0  0  0  0  0  0
   -7.3890   21.1280  -32.6150 O   0  0  0  0  0  0  0  0  0  0  0  0
   -2.8360   18.6750  -32.9590 C   0  0  0  0  0  0  0  0  0  0  0  0
   -2.3030   19.6040  -32.2060 O   0  0  0  0  0  0  0  0  0  0  0  0
   -3.8290   22.8830  -31.3910 C   0  0  0  0  0  0  0  0  0  0  0  0
   -3.6160   24.0490  -30.6290 C   0  0  0  0  0  0  0  0  0  0  0  0
   -4.4400   25.1790  -30.7490 O   0  0  0  0  0  0  0  0  0  0  0  0
   -5.6760   25.3540  -30.0640 C   0  0  0  0  0  0  0  0  0  0  0  0
   -2.8287   25.2325  -26.9585 H   0  0  0  0  0  0  0  0  0  0  0  0
   -1.2705   24.4628  -27.4127 H   0  0  0  0  0  0  0  0  0  0  0  0
   -1.4218   26.2527  -27.4127 H   0  0  0  0  0  0  0  0  0  0  0  0
   -0.8694   23.0128  -28.8616 H   0  0  0  0  0  0  0  0  0  0  0  0
   -1.2592   20.9607  -30.2126 H   0  0  0  0  0  0  0  0  0  0  0  0
   -4.7144   18.1612  -35.0899 H   0  0  0  0  0  0  0  0  0  0  0  0
   -5.2937   17.3464  -33.5749 H   0  0  0  0  0  0  0  0  0  0  0  0
   -6.2360   20.0480  -34.1710 H   0  0  0  0  0  0  0  0  0  0  0  0
   -6.8520   18.7750  -35.0920 H   0  0  0  0  0  0  0  0  0  0  0  0
   -8.2026   18.1426  -33.5050 H   0  0  0  0  0  0  0  0  0  0  0  0
   -6.8059   18.0726  -32.3482 H   0  0  0  0  0  0  0  0  0  0  0  0
   -9.3788   19.1007  -30.9958 H   0  0  0  0  0  0  0  0  0  0  0  0
   -9.6057   21.7028  -30.2810 H   0  0  0  0  0  0  0  0  0  0  0  0
   -7.7290   23.7747  -30.7492 H   0  0  0  0  0  0  0  0  0  0  0  0
   -6.8376   23.6614  -32.3046 H   0  0  0  0  0  0  0  0  0  0  0  0
   -8.6112   23.9458  -32.3046 H   0  0  0  0  0  0  0  0  0  0  0  0
   -2.3507   17.7438  -33.2866 H   0  0  0  0  0  0  0  0  0  0  0  0
   -4.6638   22.8456  -32.1064 H   0  0  0  0  0  0  0  0  0  0  0  0
   -5.5003   25.3291  -28.9784 H   0  0  0  0  0  0  0  0  0  0  0  0
   -6.1154   26.3233  -30.3422 H   0  0  0  0  0  0  0  0  0  0  0  0
   -6.3672   24.5448  -30.3422 H   0  0  0  0  0  0  0  0  0  0  0  0
  1  2  1  0
  2  3  1  0
  3  4  2  0
  4  5  1  0
  5  6  2  0
  6  7  1  0
  7  8  2  0
  8  9  1  0
  9 10  1  0
 10 11  1  0
 11 12  1  0
 12 13  1  0
 13 14  2  0
 14 15  1  0
 15 16  2  0
 16 17  1  0
 16 18  1  0
  9 19  2  0
 19 20  1  0
  6 21  1  0
 21 22  2  0
 22 23  1  0
 23 24  1  0
 22  3  1  0
 20  7  1  0
 18 13  1  0
  1 25  1  0
  1 26  1  0
  1 27  1  0
  4 28  1  0
  5 29  1  0
 10 30  1  0
 10 31  1  0
 11 32  1  0
 11 33  1  0
 12 34  1  0
 12 35  1  0
 14 36  1  0
 15 37  1  0
 17 38  1  0
 17 39  1  0
 17 40  1  0
 19 41  1  0
 21 42  1  0
 24 43  1  0
 24 44  1  0
 24 45  1  0
M  CHG  1  11   1
M  END
>  <UniqueID>  (38) 
36

>  <SMILES>  (38) 
COc1ccc(-c2nc(C[NH2+]Cc3ccc(C)o3)co2)cc1OC

>  <Energy>  (38) 
98.49279158189945

>  <Genealogy>  (38) 
COc1ccc(-c2nc(C[NH2+]Cc3ccc(C)o3)co2)cc1OC (protonated)
COc1ccc(-c2nc(C[NH2+]Cc3ccc(C)o3)co2)cc1OC (3D coordinates assigned)
COc1ccc(-c2nc(C[NH2+]Cc3ccc(C)o3)co2)cc1OC (optimized conformer: 98.49279158189945 kcal/mol)

>  <smiles>  (38) 
COc1ccc(-c2nc(CNCc3ccc(C)o3)co2)cc1OC

>  <score_type>  (38) 
oracle

>  <origin>  (38) 
adgpu

>  <m_score__min__energy>  (38) 
-7.0700000000000003

>  <m_primary>  (38) 
energy

$$$$
38:0
     RDKit          3D

 54 57  0  0  0  0  0  0  0  0999 V2000
   -1.9500   19.0010  -26.0900 C   0  0  0  0  0  0  0  0  0  0  0  0
   -1.9540   19.5590  -27.4830 C   0  0  0  0  0  0  0  0  0  0  0  0
   -0.8100   19.4800  -28.2930 C   0  0  0  0  0  0  0  0  0  0  0  0
   -0.8310   19.9980  -29.5900 C   0  0  0  0  0  0  0  0  0  0  0  0
   -1.9920   20.5980  -30.0940 C   0  0  0  0  0  0  0  0  0  0  0  0
   -1.9800   21.2940  -31.7120 S   0  0  0  0  0  0  0  0  0  0  0  0
   -0.6300   21.9070  -31.9620 O   0  0  0  0  0  0  0  0  0  0  0  0
   -2.2390   20.2380  -32.7500 O   0  0  0  0  0  0  0  0  0  0  0  0
   -3.2010   22.5200  -31.8260 N   0  0  0  0  0  0  0  0  0  0  0  0
   -4.6040   22.2040  -31.8340 C   0  0  0  0  0  0  0  0  0  0  0  0
   -5.0460   21.0040  -32.4410 C   0  0  0  0  0  0  0  0  0  0  0  0
   -6.4060   20.7150  -32.4200 C   0  0  0  0  0  0  0  0  0  0  0  0
   -7.3140   21.5570  -31.8430 C   0  0  0  0  0  0  0  0  0  0  0  0
   -6.9300   22.7520  -31.2420 C   0  0  0  0  0  0  0  0  0  0  0  0
   -5.5570   23.0850  -31.2310 C   0  0  0  0  0  0  0  0  0  0  0  0
   -5.0460   24.5660  -30.4110 S   0  0  0  0  0  0  0  0  0  0  0  0
   -5.4150   25.7510  -31.2600 O   0  0  0  0  0  0  0  0  0  0  0  0
   -5.7330   24.6390  -29.0760 O   0  0  0  0  0  0  0  0  0  0  0  0
   -3.3270   24.5470  -30.1770 N   0  0  0  0  0  0  0  0  0  0  0  0
   -2.6070   24.4490  -28.9380 C   0  0  0  0  0  0  0  0  0  0  0  0
   -2.9170   23.3720  -28.0950 C   0  0  0  0  0  0  0  0  0  0  0  0
   -2.2660   23.2130  -26.8690 C   0  0  0  0  0  0  0  0  0  0  0  0
   -1.2930   24.1280  -26.4710 C   0  0  0  0  0  0  0  0  0  0  0  0
   -0.9610   25.2000  -27.3040 C   0  0  0  0  0  0  0  0  0  0  0  0
   -1.6040   25.3650  -28.5380 C   0  0  0  0  0  0  0  0  0  0  0  0
   -1.2170   26.4270  -29.3430 O   0  0  0  0  0  0  0  0  0  0  0  0
   -8.5470   21.0190  -31.9370 N   0  0  0  0  0  0  0  0  0  0  0  0
   -9.7990   21.5570  -31.4120 C   0  0  0  0  0  0  0  0  0  0  0  0
   -8.3440   19.8350  -32.5700 C   0  0  0  0  0  0  0  0  0  0  0  0
   -9.2670   19.0120  -32.8200 O   0  0  0  0  0  0  0  0  0  0  0  0
   -7.0440   19.6250  -32.8940 N   0  0  0  0  0  0  0  0  0  0  0  0
   -6.4510   18.4410  -33.5100 C   0  0  0  0  0  0  0  0  0  0  0  0
   -3.1380   20.6750  -29.2880 C   0  0  0  0  0  0  0  0  0  0  0  0
   -3.1170   20.1570  -27.9890 C   0  0  0  0  0  0  0  0  0  0  0  0
   -1.9559   19.8274  -25.3640 H   0  0  0  0  0  0  0  0  0  0  0  0
   -2.8437   18.3769  -25.9425 H   0  0  0  0  0  0  0  0  0  0  0  0
   -1.0475   18.3897  -25.9425 H   0  0  0  0  0  0  0  0  0  0  0  0
    0.1053   19.0089  -27.9052 H   0  0  0  0  0  0  0  0  0  0  0  0
    0.0691   19.9344  -30.2191 H   0  0  0  0  0  0  0  0  0  0  0  0
   -2.8850   23.5120  -31.7660 H   0  0  0  0  0  0  0  0  0  0  0  0
   -4.3312   20.3170  -32.9176 H   0  0  0  0  0  0  0  0  0  0  0  0
   -7.6762   23.4201  -30.7872 H   0  0  0  0  0  0  0  0  0  0  0  0
   -3.6818   22.6437  -28.4027 H   0  0  0  0  0  0  0  0  0  0  0  0
   -2.5217   22.3646  -26.2172 H   0  0  0  0  0  0  0  0  0  0  0  0
   -0.7867   24.0066  -25.5020 H   0  0  0  0  0  0  0  0  0  0  0  0
   -0.1901   25.9187  -26.9889 H   0  0  0  0  0  0  0  0  0  0  0  0
   -9.7708   21.5449  -30.3124 H   0  0  0  0  0  0  0  0  0  0  0  0
   -9.9300   22.5909  -31.7641 H   0  0  0  0  0  0  0  0  0  0  0  0
  -10.6392   20.9405  -31.7641 H   0  0  0  0  0  0  0  0  0  0  0  0
   -6.1062   17.7526  -32.7243 H   0  0  0  0  0  0  0  0  0  0  0  0
   -7.2031   17.9371  -34.1348 H   0  0  0  0  0  0  0  0  0  0  0  0
   -5.5970   18.7415  -34.1348 H   0  0  0  0  0  0  0  0  0  0  0  0
   -4.0537   21.1432  -29.6781 H   0  0  0  0  0  0  0  0  0  0  0  0
   -4.0178   20.2191  -27.3608 H   0  0  0  0  0  0  0  0  0  0  0  0
  1  2  1  0
  2  3  2  0
  3  4  1  0
  4  5  2  0
  5  6  1  0
  6  7  2  0
  6  8  2  0
  6  9  1  0
  9 10  1  0
 10 11  2  0
 11 12  1  0
 12 13  2  0
 13 14  1  0
 14 15  2  0
 15 16  1  0
 16 17  2  0
 16 18  2  0
 16 19  1  0
 19 20  1  0
 20 21  2  0
 21 22  1  0
 22 23  2  0
 23 24  1  0
 24 25  2  0
 25 26  1  0
 13 27  1  0
 27 28  1  0
 27 29  1  0
 29 30  2  0
 29 31  1  0
 31 32  1  0
  5 33  1  0
 33 34  2  0
 34  2  1  0
 15 10  1  0
 25 20  1  0
 31 12  1  0
  1 35  1  0
  1 36  1  0
  1 37  1  0
  3 38  1  0
  4 39  1  0
  9 40  1  0
 11 41  1  0
 14 42  1  0
 21 43  1  0
 22 44  1  0
 23 45  1  0
 24 46  1  0
 28 47  1  0
 28 48  1  0
 28 49  1  0
 32 50  1  0
 32 51  1  0
 32 52  1  0
 33 53  1  0
 34 54  1  0
M  CHG  2  19  -1  26  -1
M  END
>  <UniqueID>  (39) 
37

>  <SMILES>  (39) 
Cc1ccc(S(=O)(=O)Nc2cc3c(cc2S(=O)(=O)[N-]c2ccccc2[O-])n(C)c(=O)n3C)cc1

>  <Energy>  (39) 
109.38768174014629

>  <Genealogy>  (39) 
Cc1ccc(S(=O)(=O)Nc2cc3c(cc2S(=O)(=O)[N-]c2ccccc2[O-])n(C)c(=O)n3C)cc1 (protonated)
Cc1ccc(S(=O)(=O)Nc2cc3c(cc2S(=O)(=O)[N-]c2ccccc2[O-])n(C)c(=O)n3C)cc1 (3D coordinates assigned)
Cc1ccc(S(=O)(=O)Nc2cc3c(cc2S(=O)(=O)[N-]c2ccccc2[O-])n(C)c(=O)n3C)cc1 (optimized conformer: 109.38768174014629 kcal/mol)

>  <smiles>  (39) 
Cc1ccc(S(=O)(=O)Nc2cc3c(cc2S(=O)(=O)Nc2ccccc2O)n(C)c(=O)n3C)cc1

>  <score_type>  (39) 
oracle

>  <origin>  (39) 
adgpu

>  <m_score__min__energy>  (39) 
-14.789999999999999

>  <m_primary>  (39) 
energy

$$$$
39:0
     RDKit          3D

 51 54  0  0  0  0  0  0  0  0999 V2000
   -3.4300   21.7370  -32.7960 O   0  0  0  0  0  0  0  0  0  0  0  0
   -4.0890   22.2190  -31.8350 C   0  0  0  0  0  0  0  0  0  0  0  0
   -3.3980   22.7990  -30.7180 N   0  0  0  0  0  0  0  0  0  0  0  0
   -1.9440   22.7470  -30.5840 C   0  0  0  0  0  0  0  0  0  0  0  0
   -1.5000   23.4700  -29.3360 C   0  0  0  0  0  0  0  0  0  0  0  0
   -0.4920   22.9070  -28.5370 C   0  0  0  0  0  0  0  0  0  0  0  0
   -0.0620   23.5560  -27.3780 C   0  0  0  0  0  0  0  0  0  0  0  0
   -0.6300   24.7750  -27.0090 C   0  0  0  0  0  0  0  0  0  0  0  0
   -1.6330   25.3460  -27.7960 C   0  0  0  0  0  0  0  0  0  0  0  0
   -2.0690   24.7020  -28.9570 C   0  0  0  0  0  0  0  0  0  0  0  0
   -3.0680   25.2950  -29.7230 O   0  0  0  0  0  0  0  0  0  0  0  0
   -5.5700   22.1900  -31.8870 C   0  0  0  0  0  0  0  0  0  0  0  0
   -6.3200   23.3790  -31.8390 C   0  0  0  0  0  0  0  0  0  0  0  0
   -7.7160   23.3350  -31.8650 C   0  0  0  0  0  0  0  0  0  0  0  0
   -8.3790   22.1070  -31.9400 C   0  0  0  0  0  0  0  0  0  0  0  0
   -7.6470   20.9150  -31.9910 C   0  0  0  0  0  0  0  0  0  0  0  0
   -8.4880   19.3680  -32.0720 S   0  0  0  0  0  0  0  0  0  0  0  0
   -9.5870   19.4450  -33.0940 O   0  0  0  0  0  0  0  0  0  0  0  0
   -9.1040   19.0840  -30.7310 O   0  0  0  0  0  0  0  0  0  0  0  0
   -7.3660   18.0960  -32.4820 N   0  0  0  0  0  0  0  0  0  0  0  0
   -6.5170   17.7840  -31.3220 C   0  0  0  0  0  0  0  0  0  0  0  0
   -5.6910   16.5300  -31.6150 C   0  0  0  0  0  0  0  0  0  0  0  0
   -5.0070   16.6150  -32.9510 C   0  0  0  0  0  0  0  0  0  0  0  0
   -3.9660   15.7230  -33.2530 C   0  0  0  0  0  0  0  0  0  0  0  0
   -3.3490   15.7590  -34.5040 C   0  0  0  0  0  0  0  0  0  0  0  0
   -3.7670   16.6830  -35.4650 C   0  0  0  0  0  0  0  0  0  0  0  0
   -4.8130   17.5640  -35.1820 C   0  0  0  0  0  0  0  0  0  0  0  0
   -5.4560   17.5230  -33.9340 C   0  0  0  0  0  0  0  0  0  0  0  0
   -6.5330   18.5320  -33.6180 C   0  0  0  0  0  0  0  0  0  0  0  0
   -6.2460   20.9590  -31.9600 C   0  0  0  0  0  0  0  0  0  0  0  0
   -3.9360   23.3070  -29.9820 H   0  0  0  0  0  0  0  0  0  0  0  0
   -1.6235   21.6963  -30.5266 H   0  0  0  0  0  0  0  0  0  0  0  0
   -1.4893   23.2360  -31.4582 H   0  0  0  0  0  0  0  0  0  0  0  0
   -0.0378   21.9478  -28.8262 H   0  0  0  0  0  0  0  0  0  0  0  0
    0.7252   23.1055  -26.7556 H   0  0  0  0  0  0  0  0  0  0  0  0
   -0.2880   25.2873  -26.0976 H   0  0  0  0  0  0  0  0  0  0  0  0
   -2.0813   26.3061  -27.5007 H   0  0  0  0  0  0  0  0  0  0  0  0
   -5.8044   24.3489  -31.7807 H   0  0  0  0  0  0  0  0  0  0  0  0
   -8.2950   24.2695  -31.8263 H   0  0  0  0  0  0  0  0  0  0  0  0
   -9.4784   22.0771  -31.9590 H   0  0  0  0  0  0  0  0  0  0  0  0
   -5.8418   18.6295  -31.1242 H   0  0  0  0  0  0  0  0  0  0  0  0
   -7.1516   17.6067  -30.4412 H   0  0  0  0  0  0  0  0  0  0  0  0
   -4.9285   16.4140  -30.8307 H   0  0  0  0  0  0  0  0  0  0  0  0
   -6.3724   15.6667  -31.6327 H   0  0  0  0  0  0  0  0  0  0  0  0
   -3.6352   14.9924  -32.5001 H   0  0  0  0  0  0  0  0  0  0  0  0
   -2.5323   15.0589  -34.7339 H   0  0  0  0  0  0  0  0  0  0  0  0
   -3.2713   16.7166  -36.4464 H   0  0  0  0  0  0  0  0  0  0  0  0
   -5.1348   18.2934  -35.9400 H   0  0  0  0  0  0  0  0  0  0  0  0
   -6.0599   19.4927  -33.3663 H   0  0  0  0  0  0  0  0  0  0  0  0
   -7.1804   18.6337  -34.5015 H   0  0  0  0  0  0  0  0  0  0  0  0
   -5.6704   20.0222  -31.9931 H   0  0  0  0  0  0  0  0  0  0  0  0
  1  2  2  0
  2  3  1  0
  3  4  1  0
  4  5  1  0
  5  6  2  0
  6  7  1  0
  7  8  2  0
  8  9  1  0
  9 10  2  0
 10 11  1  0
  2 12  1  0
 12 13  2  0
 13 14  1  0
 14 15  2  0
 15 16  1  0
 16 17  1  0
 17 18  2  0
 17 19  2  0
 17 20  1  0
 20 21  1  0
 21 22  1  0
 22 23  1  0
 23 24  2  0
 24 25  1  0
 25 26  2  0
 26 27  1  0
 27 28  2  0
 28 29  1  0
 16 30  2  0
 10  5  1  0
 30 12  1  0
 29 20  1  0
 28 23  1  0
  3 31  1  0
  4 32  1  0
  4 33  1  0
  6 34  1  0
  7 35  1  0
  8 36  1  0
  9 37  1  0
 13 38  1  0
 14 39  1  0
 15 40  1  0
 21 41  1  0
 21 42  1  0
 22 43  1  0
 22 44  1  0
 24 45  1  0
 25 46  1  0
 26 47  1  0
 27 48  1  0
 29 49  1  0
 29 50  1  0
 30 51  1  0
M  CHG  1  11  -1
M  END
>  <UniqueID>  (40) 
38

>  <SMILES>  (40) 
O=C(NCc1ccccc1[O-])c1cccc(S(=O)(=O)N2CCc3ccccc3C2)c1

>  <Energy>  (40) 
57.32576614785136

>  <Genealogy>  (40) 
O=C(NCc1ccccc1[O-])c1cccc(S(=O)(=O)N2CCc3ccccc3C2)c1 (protonated)
O=C(NCc1ccccc1[O-])c1cccc(S(=O)(=O)N2CCc3ccccc3C2)c1 (3D coordinates assigned)
O=C(NCc1ccccc1[O-])c1cccc(S(=O)(=O)N2CCc3ccccc3C2)c1 (nonaromatic ring conformer: 57.32576614785136 kcal/mol)

>  <smiles>  (40) 
O=C(NCc1ccccc1O)c1cccc(S(=O)(=O)N2CCc3ccccc3C2)c1

>  <score_type>  (40) 
oracle

>  <origin>  (40) 
adgpu

>  <m_score__min__energy>  (40) 
-13.609999999999999

>  <m_primary>  (40) 
energy

$$$$
40:0
     RDKit          3D

 67 71  0  0  0  0  0  0  0  0999 V2000
   -0.5540   19.1130  -30.1600 C   0  0  0  0  0  0  0  0  0  0  0  0
   -1.2120   20.4570  -30.1650 C   0  0  0  0  0  0  0  0  0  0  0  0
   -0.8080   21.5430  -29.4200 C   0  0  0  0  0  0  0  0  0  0  0  0
   -1.6360   22.5710  -29.8410 C   0  0  0  0  0  0  0  0  0  0  0  0
   -1.5120   23.9850  -29.4480 C   0  0  0  0  0  0  0  0  0  0  0  0
   -0.4320   24.4030  -28.9550 O   0  0  0  0  0  0  0  0  0  0  0  0
   -2.5710   24.9150  -29.6930 N   0  0  0  0  0  0  0  0  0  0  0  0
   -3.9520   24.5660  -29.8300 C   0  0  0  0  0  0  0  0  0  0  0  0
   -4.8040   25.2830  -30.6890 C   0  0  0  0  0  0  0  0  0  0  0  0
   -6.1220   24.8570  -30.8860 C   0  0  0  0  0  0  0  0  0  0  0  0
   -6.6050   23.7380  -30.2040 C   0  0  0  0  0  0  0  0  0  0  0  0
   -5.7640   23.0260  -29.3440 C   0  0  0  0  0  0  0  0  0  0  0  0
   -4.4370   23.4300  -29.1700 C   0  0  0  0  0  0  0  0  0  0  0  0
   -2.4780   22.1230  -30.7950 N   0  0  0  0  0  0  0  0  0  0  0  0
   -2.2140   20.8400  -30.9850 N   0  0  0  0  0  0  0  0  0  0  0  0
   -2.8210   20.0610  -32.0240 C   0  0  0  0  0  0  0  0  0  0  0  0
   -4.1420   19.6110  -31.8690 C   0  0  0  0  0  0  0  0  0  0  0  0
   -4.7340   18.7940  -32.8430 C   0  0  0  0  0  0  0  0  0  0  0  0
   -6.3840   18.1970  -32.6300 S   0  0  0  0  0  0  0  0  0  0  0  0
   -6.5020   16.8810  -33.3480 O   0  0  0  0  0  0  0  0  0  0  0  0
   -6.6250   17.9400  -31.1690 O   0  0  0  0  0  0  0  0  0  0  0  0
   -7.6150   19.2890  -33.2440 N   0  0  0  0  0  0  0  0  0  0  0  0
   -8.8490   19.2550  -32.4340 C   0  0  0  0  0  0  0  0  0  0  0  0
   -8.7280   20.0630  -31.1220 C   0  0  0  0  0  0  0  0  0  0  0  0
   -7.5710   20.8760  -31.0670 O   0  0  0  0  0  0  0  0  0  0  0  0
   -7.4390   21.6040  -32.2650 C   0  0  0  0  0  0  0  0  0  0  0  0
   -7.1030   20.6660  -33.4400 C   0  0  0  0  0  0  0  0  0  0  0  0
   -3.9950   18.4220  -33.9720 C   0  0  0  0  0  0  0  0  0  0  0  0
   -2.6870   18.8770  -34.1390 C   0  0  0  0  0  0  0  0  0  0  0  0
   -2.0870   19.6930  -33.1680 C   0  0  0  0  0  0  0  0  0  0  0  0
   -0.7560   20.1900  -33.3820 N   0  0  0  0  0  0  0  0  0  0  0  0
    0.4020   19.3120  -33.1570 C   0  0  0  0  0  0  0  0  0  0  0  0
    1.6500   19.8380  -33.8800 C   0  0  0  0  0  0  0  0  0  0  0  0
    1.2770   20.3440  -35.2760 C   0  0  0  0  0  0  0  0  0  0  0  0
    0.2510   21.4980  -35.2230 C   0  0  0  0  0  0  0  0  0  0  0  0
   -0.5540   21.5430  -33.9120 C   0  0  0  0  0  0  0  0  0  0  0  0
   -0.3943   18.7868  -29.1217 H   0  0  0  0  0  0  0  0  0  0  0  0
   -1.1987   18.3872  -30.6773 H   0  0  0  0  0  0  0  0  0  0  0  0
    0.4146   19.1771  -30.6773 H   0  0  0  0  0  0  0  0  0  0  0  0
   -0.0103   21.5845  -28.6637 H   0  0  0  0  0  0  0  0  0  0  0  0
   -4.4336   26.1801  -31.2067 H   0  0  0  0  0  0  0  0  0  0  0  0
   -6.7785   25.4039  -31.5787 H   0  0  0  0  0  0  0  0  0  0  0  0
   -7.6478   23.4168  -30.3437 H   0  0  0  0  0  0  0  0  0  0  0  0
   -6.1465   22.1474  -28.8039 H   0  0  0  0  0  0  0  0  0  0  0  0
   -3.7708   22.8530  -28.5117 H   0  0  0  0  0  0  0  0  0  0  0  0
   -4.7167   19.9014  -30.9771 H   0  0  0  0  0  0  0  0  0  0  0  0
   -7.8650   18.9130  -34.1890 H   0  0  0  0  0  0  0  0  0  0  0  0
   -9.6724   19.6749  -33.0305 H   0  0  0  0  0  0  0  0  0  0  0  0
   -9.0362   18.2061  -32.1604 H   0  0  0  0  0  0  0  0  0  0  0  0
   -9.6131   20.7094  -31.0277 H   0  0  0  0  0  0  0  0  0  0  0  0
   -8.6538   19.3367  -30.2992 H   0  0  0  0  0  0  0  0  0  0  0  0
   -8.3849   22.1238  -32.4774 H   0  0  0  0  0  0  0  0  0  0  0  0
   -6.6212   22.3304  -32.1483 H   0  0  0  0  0  0  0  0  0  0  0  0
   -7.5486   21.0788  -34.3571 H   0  0  0  0  0  0  0  0  0  0  0  0
   -6.0070   20.6037  -33.5093 H   0  0  0  0  0  0  0  0  0  0  0  0
   -4.4479   17.7676  -34.7313 H   0  0  0  0  0  0  0  0  0  0  0  0
   -2.1215   18.5939  -35.0390 H   0  0  0  0  0  0  0  0  0  0  0  0
    0.6082   19.2605  -32.0777 H   0  0  0  0  0  0  0  0  0  0  0  0
    0.1642   18.3148  -33.5559 H   0  0  0  0  0  0  0  0  0  0  0  0
    2.0861   20.6637  -33.2985 H   0  0  0  0  0  0  0  0  0  0  0  0
    2.3802   19.0211  -33.9771 H   0  0  0  0  0  0  0  0  0  0  0  0
    2.1878   20.7024  -35.7781 H   0  0  0  0  0  0  0  0  0  0  0  0
    0.8187   19.5093  -35.8267 H   0  0  0  0  0  0  0  0  0  0  0  0
    0.7914   22.4498  -35.3328 H   0  0  0  0  0  0  0  0  0  0  0  0
   -0.4676   21.3302  -36.0387 H   0  0  0  0  0  0  0  0  0  0  0  0
   -0.0049   22.1429  -33.1713 H   0  0  0  0  0  0  0  0  0  0  0  0
   -1.5365   21.9941  -34.1151 H   0  0  0  0  0  0  0  0  0  0  0  0
  1  2  1  0
  2  3  2  0
  3  4  1  0
  4  5  1  0
  5  6  2  0
  5  7  1  0
  7  8  1  0
  8  9  2  0
  9 10  1  0
 10 11  2  0
 11 12  1  0
 12 13  2  0
  4 14  2  0
 14 15  1  0
 15 16  1  0
 16 17  2  0
 17 18  1  0
 18 19  1  0
 19 20  2  0
 19 21  2  0
 19 22  1  0
 22 23  1  0
 23 24  1  0
 24 25  1  0
 25 26  1  0
 26 27  1  0
 18 28  2  0
 28 29  1  0
 29 30  2  0
 30 31  1  0
 31 32  1  0
 32 33  1  0
 33 34  1  0
 34 35  1  0
 35 36  1  0
 15  2  1  0
 30 16  1  0
 36 31  1  0
 13  8  1  0
 27 22  1  0
  1 37  1  0
  1 38  1  0
  1 39  1  0
  3 40  1  0
  9 41  1  0
 10 42  1  0
 11 43  1  0
 12 44  1  0
 13 45  1  0
 17 46  1  0
 22 47  1  0
 23 48  1  0
 23 49  1  0
 24 50  1  0
 24 51  1  0
 26 52  1  0
 26 53  1  0
 27 54  1  0
 27 55  1  0
 28 56  1  0
 29 57  1  0
 32 58  1  0
 32 59  1  0
 33 60  1  0
 33 61  1  0
 34 62  1  0
 34 63  1  0
 35 64  1  0
 35 65  1  0
 36 66  1  0
 36 67  1  0
M  CHG  2   7  -1  22   1
M  END
>  <UniqueID>  (41) 
39

>  <SMILES>  (41) 
Cc1cc(C(=O)[N-]c2ccccc2)nn1-c1cc(S(=O)(=O)[NH+]2CCOCC2)ccc1N1CCCCC1

>  <Energy>  (41) 
124.31387026651703

>  <Genealogy>  (41) 
Cc1cc(C(=O)[N-]c2ccccc2)nn1-c1cc(S(=O)(=O)[NH+]2CCOCC2)ccc1N1CCCCC1 (protonated)
Cc1cc(C(=O)[N-]c2ccccc2)nn1-c1cc(S(=O)(=O)[NH+]2CCOCC2)ccc1N1CCCCC1 (3D coordinates assigned)
Cc1cc(C(=O)[N-]c2ccccc2)nn1-c1cc(S(=O)(=O)[NH+]2CCOCC2)ccc1N1CCCCC1 (nonaromatic ring conformer: 124.31387026651703 kcal/mol)

>  <smiles>  (41) 
Cc1cc(C(=O)Nc2ccccc2)nn1-c1cc(S(=O)(=O)N2CCOCC2)ccc1N1CCCCC1

>  <score_type>  (41) 
oracle

>  <origin>  (41) 
adgpu

>  <m_score__min__energy>  (41) 
-11.279999999999999

>  <m_primary>  (41) 
energy

$$$$
41:0
     RDKit          3D

 46 48  0  0  0  0  0  0  0  0999 V2000
   -1.2460   21.4110  -26.6950 C   0  0  0  0  0  0  0  0  0  0  0  0
   -0.5050   21.9700  -27.9050 C   0  0  0  0  0  0  0  0  0  0  0  0
   -1.4290   22.8370  -28.7400 C   0  0  0  0  0  0  0  0  0  0  0  0
   -2.5290   22.3040  -29.4560 C   0  0  0  0  0  0  0  0  0  0  0  0
   -2.7210   20.5060  -29.6460 S   0  0  0  0  0  0  0  0  0  0  0  0
   -2.4530   20.4710  -31.4320 C   0  0  0  0  0  0  0  0  0  0  0  0
   -1.3400   21.1350  -31.9710 C   0  0  0  0  0  0  0  0  0  0  0  0
   -1.1000   21.1060  -33.3480 C   0  0  0  0  0  0  0  0  0  0  0  0
   -1.9640   20.4070  -34.1950 C   0  0  0  0  0  0  0  0  0  0  0  0
   -3.0640   19.7310  -33.6640 C   0  0  0  0  0  0  0  0  0  0  0  0
   -3.3050   19.7570  -32.2860 C   0  0  0  0  0  0  0  0  0  0  0  0
   -3.4790   23.1550  -29.9840 N   0  0  0  0  0  0  0  0  0  0  0  0
   -4.7720   22.6250  -30.4710 C   0  0  0  0  0  0  0  0  0  0  0  0
   -5.0500   23.0740  -31.7820 O   0  0  0  0  0  0  0  0  0  0  0  0
   -6.4390   23.2660  -31.9760 C   0  0  0  0  0  0  0  0  0  0  0  0
   -7.1510   21.9440  -32.0920 C   0  0  0  0  0  0  0  0  0  0  0  0
   -6.5270   20.8500  -32.7140 C   0  0  0  0  0  0  0  0  0  0  0  0
   -7.2000   19.6290  -32.8280 C   0  0  0  0  0  0  0  0  0  0  0  0
   -8.4980   19.4930  -32.3260 C   0  0  0  0  0  0  0  0  0  0  0  0
   -9.1240   20.5800  -31.7080 C   0  0  0  0  0  0  0  0  0  0  0  0
   -8.4550   21.8020  -31.5920 C   0  0  0  0  0  0  0  0  0  0  0  0
   -3.2690   24.5120  -29.9540 C   0  0  0  0  0  0  0  0  0  0  0  0
   -4.1050   25.3050  -30.4690 O   0  0  0  0  0  0  0  0  0  0  0  0
   -2.1670   25.0250  -29.3530 N   0  0  0  0  0  0  0  0  0  0  0  0
   -1.2720   24.2310  -28.7180 C   0  0  0  0  0  0  0  0  0  0  0  0
   -0.3060   24.7600  -28.1040 O   0  0  0  0  0  0  0  0  0  0  0  0
   -0.7673   21.7722  -25.7728 H   0  0  0  0  0  0  0  0  0  0  0  0
   -2.2935   21.7458  -26.7197 H   0  0  0  0  0  0  0  0  0  0  0  0
   -1.2117   20.3118  -26.7197 H   0  0  0  0  0  0  0  0  0  0  0  0
    0.3462   22.5755  -27.5603 H   0  0  0  0  0  0  0  0  0  0  0  0
   -0.1489   21.1322  -28.5224 H   0  0  0  0  0  0  0  0  0  0  0  0
   -0.6535   21.6807  -31.3070 H   0  0  0  0  0  0  0  0  0  0  0  0
   -0.2299   21.6341  -33.7652 H   0  0  0  0  0  0  0  0  0  0  0  0
   -1.7776   20.3894  -35.2790 H   0  0  0  0  0  0  0  0  0  0  0  0
   -3.7422   19.1772  -34.3299 H   0  0  0  0  0  0  0  0  0  0  0  0
   -4.1672   19.2146  -31.8708 H   0  0  0  0  0  0  0  0  0  0  0  0
   -4.7320   21.5257  -30.4697 H   0  0  0  0  0  0  0  0  0  0  0  0
   -5.5687   22.9863  -29.8040 H   0  0  0  0  0  0  0  0  0  0  0  0
   -6.8490   23.8225  -31.1203 H   0  0  0  0  0  0  0  0  0  0  0  0
   -6.5899   23.8305  -32.9080 H   0  0  0  0  0  0  0  0  0  0  0  0
   -5.5069   20.9537  -33.1123 H   0  0  0  0  0  0  0  0  0  0  0  0
   -6.7070   18.7739  -33.3136 H   0  0  0  0  0  0  0  0  0  0  0  0
   -9.0259   18.5323  -32.4171 H   0  0  0  0  0  0  0  0  0  0  0  0
  -10.1448   20.4733  -31.3124 H   0  0  0  0  0  0  0  0  0  0  0  0
   -8.9521   22.6552  -31.1073 H   0  0  0  0  0  0  0  0  0  0  0  0
   -2.0300   26.0630  -29.3380 H   0  0  0  0  0  0  0  0  0  0  0  0
  1  2  1  0
  2  3  1  0
  3  4  2  0
  4  5  1  0
  5  6  1  0
  6  7  2  0
  7  8  1  0
  8  9  2  0
  9 10  1  0
 10 11  2  0
  4 12  1  0
 12 13  1  0
 13 14  1  0
 14 15  1  0
 15 16  1  0
 16 17  2  0
 17 18  1  0
 18 19  2  0
 19 20  1  0
 20 21  2  0
 12 22  1  0
 22 23  2  0
 22 24  1  0
 24 25  1  0
 25 26  2  0
 25  3  1  0
 11  6  1  0
 21 16  1  0
  1 27  1  0
  1 28  1  0
  1 29  1  0
  2 30  1  0
  2 31  1  0
  7 32  1  0
  8 33  1  0
  9 34  1  0
 10 35  1  0
 11 36  1  0
 13 37  1  0
 13 38  1  0
 15 39  1  0
 15 40  1  0
 17 41  1  0
 18 42  1  0
 19 43  1  0
 20 44  1  0
 21 45  1  0
 24 46  1  0
M  END
>  <UniqueID>  (42) 
40

>  <SMILES>  (42) 
CCc1c(Sc2ccccc2)n(COCc2ccccc2)c(=O)[nH]c1=O

>  <Energy>  (42) 
57.055400978378984

>  <Genealogy>  (42) 
CCc1c(Sc2ccccc2)n(COCc2ccccc2)c(=O)[nH]c1=O (3D coordinates assigned)
CCc1c(Sc2ccccc2)n(COCc2ccccc2)c(=O)[nH]c1=O (optimized conformer: 57.055400978378984 kcal/mol)

>  <smiles>  (42) 
CCc1c(Sc2ccccc2)n(COCc2ccccc2)c(=O)[nH]c1=O

>  <score_type>  (42) 
oracle

>  <origin>  (42) 
adgpu

>  <m_score__min__energy>  (42) 
-8.3300000000000001

>  <m_primary>  (42) 
energy

$$$$
42:0
     RDKit          3D

 57 60  0  0  0  0  0  0  0  0999 V2000
   -1.4690   21.5340  -33.7980 O   0  0  0  0  0  0  0  0  0  0  0  0
   -1.9880   20.8430  -32.5700 S   0  0  0  0  0  0  0  0  0  0  0  0
   -1.8670   19.3600  -32.7760 O   0  0  0  0  0  0  0  0  0  0  0  0
   -1.0330   21.3280  -31.2050 N   0  0  0  0  0  0  0  0  0  0  0  0
   -1.2660   20.9430  -29.8430 C   0  0  0  0  0  0  0  0  0  0  0  0
   -2.5610   20.8480  -29.2990 C   0  0  0  0  0  0  0  0  0  0  0  0
   -2.7380   20.4800  -27.9590 C   0  0  0  0  0  0  0  0  0  0  0  0
   -1.6290   20.2010  -27.1540 C   0  0  0  0  0  0  0  0  0  0  0  0
   -0.3410   20.2820  -27.6920 C   0  0  0  0  0  0  0  0  0  0  0  0
   -0.1610   20.6510  -29.0310 C   0  0  0  0  0  0  0  0  0  0  0  0
   -3.6690   21.3090  -32.3230 C   0  0  0  0  0  0  0  0  0  0  0  0
   -4.6950   20.5240  -32.8650 C   0  0  0  0  0  0  0  0  0  0  0  0
   -6.0300   20.8950  -32.6880 C   0  0  0  0  0  0  0  0  0  0  0  0
   -6.3480   22.0560  -31.9810 C   0  0  0  0  0  0  0  0  0  0  0  0
   -5.3300   22.8520  -31.4450 C   0  0  0  0  0  0  0  0  0  0  0  0
   -5.7430   24.3390  -30.5940 S   0  0  0  0  0  0  0  0  0  0  0  0
   -7.2310   24.5500  -30.6830 O   0  0  0  0  0  0  0  0  0  0  0  0
   -5.0650   25.5260  -31.2210 O   0  0  0  0  0  0  0  0  0  0  0  0
   -5.2850   24.2230  -28.9240 N   0  0  0  0  0  0  0  0  0  0  0  0
   -3.9230   24.2160  -28.4650 C   0  0  0  0  0  0  0  0  0  0  0  0
   -3.6660   24.1450  -27.0860 C   0  0  0  0  0  0  0  0  0  0  0  0
   -2.3550   24.1560  -26.6060 C   0  0  0  0  0  0  0  0  0  0  0  0
   -1.2760   24.2300  -27.4990 C   0  0  0  0  0  0  0  0  0  0  0  0
    0.3810   24.2870  -26.8900 S   0  0  0  0  0  0  0  0  0  0  0  0
    0.7460   22.9460  -26.3170 O   0  0  0  0  0  0  0  0  0  0  0  0
    1.3170   24.5780  -28.0300 O   0  0  0  0  0  0  0  0  0  0  0  0
    0.5710   25.5130  -25.6570 N   0  0  0  0  0  0  0  0  0  0  0  0
    0.1600   26.8460  -26.1420 C   0  0  0  0  0  0  0  0  0  0  0  0
   -1.2050   27.2660  -25.5780 C   0  0  0  0  0  0  0  0  0  0  0  0
   -1.2310   27.3160  -24.1590 O   0  0  0  0  0  0  0  0  0  0  0  0
   -0.4150   26.3300  -23.5360 C   0  0  0  0  0  0  0  0  0  0  0  0
   -0.1230   25.1080  -24.4210 C   0  0  0  0  0  0  0  0  0  0  0  0
   -1.5240   24.2770  -28.8790 C   0  0  0  0  0  0  0  0  0  0  0  0
   -2.8360   24.2720  -29.3590 C   0  0  0  0  0  0  0  0  0  0  0  0
   -3.9920   22.4700  -31.6100 C   0  0  0  0  0  0  0  0  0  0  0  0
   -3.4370   21.0635  -29.9284 H   0  0  0  0  0  0  0  0  0  0  0  0
   -3.7522   20.4103  -27.5388 H   0  0  0  0  0  0  0  0  0  0  0  0
   -1.7696   19.9185  -26.1002 H   0  0  0  0  0  0  0  0  0  0  0  0
    0.5323   20.0556  -27.0626 H   0  0  0  0  0  0  0  0  0  0  0  0
    0.8548   20.7122  -29.4487 H   0  0  0  0  0  0  0  0  0  0  0  0
   -4.4488   19.6136  -33.4311 H   0  0  0  0  0  0  0  0  0  0  0  0
   -6.8329   20.2706  -33.1069 H   0  0  0  0  0  0  0  0  0  0  0  0
   -7.4005   22.3454  -31.8452 H   0  0  0  0  0  0  0  0  0  0  0  0
   -6.0560   24.2710  -28.2220 H   0  0  0  0  0  0  0  0  0  0  0  0
   -4.5052   24.0801  -26.3778 H   0  0  0  0  0  0  0  0  0  0  0  0
   -2.1676   24.1064  -25.5232 H   0  0  0  0  0  0  0  0  0  0  0  0
    0.9145   27.5846  -25.8335 H   0  0  0  0  0  0  0  0  0  0  0  0
    0.0755   26.7984  -27.2377 H   0  0  0  0  0  0  0  0  0  0  0  0
   -1.4525   28.2644  -25.9679 H   0  0  0  0  0  0  0  0  0  0  0  0
   -1.9368   26.5074  -25.8925 H   0  0  0  0  0  0  0  0  0  0  0  0
    0.5433   26.7963  -23.2635 H   0  0  0  0  0  0  0  0  0  0  0  0
   -0.9722   25.9629  -22.6615 H   0  0  0  0  0  0  0  0  0  0  0  0
    0.5122   24.4030  -23.8648 H   0  0  0  0  0  0  0  0  0  0  0  0
   -1.0768   24.6313  -24.6912 H   0  0  0  0  0  0  0  0  0  0  0  0
   -0.6822   24.3179  -29.5858 H   0  0  0  0  0  0  0  0  0  0  0  0
   -3.0214   24.3121  -30.4425 H   0  0  0  0  0  0  0  0  0  0  0  0
   -3.1903   23.0861  -31.1767 H   0  0  0  0  0  0  0  0  0  0  0  0
  1  2  2  0
  2  3  2  0
  2  4  1  0
  4  5  1  0
  5  6  2  0
  6  7  1  0
  7  8  2  0
  8  9  1  0
  9 10  2  0
  2 11  1  0
 11 12  2  0
 12 13  1  0
 13 14  2  0
 14 15  1  0
 15 16  1  0
 16 17  2  0
 16 18  2  0
 16 19  1  0
 19 20  1  0
 20 21  2  0
 21 22  1  0
 22 23  2  0
 23 24  1  0
 24 25  2  0
 24 26  2  0
 24 27  1  0
 27 28  1  0
 28 29  1  0
 29 30  1  0
 30 31  1  0
 31 32  1  0
 23 33  1  0
 33 34  2  0
 15 35  2  0
 10  5  1  0
 35 11  1  0
 34 20  1  0
 32 27  1  0
  6 36  1  0
  7 37  1  0
  8 38  1  0
  9 39  1  0
 10 40  1  0
 12 41  1  0
 13 42  1  0
 14 43  1  0
 19 44  1  0
 21 45  1  0
 22 46  1  0
 28 47  1  0
 28 48  1  0
 29 49  1  0
 29 50  1  0
 31 51  1  0
 31 52  1  0
 32 53  1  0
 32 54  1  0
 33 55  1  0
 34 56  1  0
 35 57  1  0
M  CHG  1   4  -1
M  END
>  <UniqueID>  (43) 
41

>  <SMILES>  (43) 
O=S(=O)([N-]c1ccccc1)c1cccc(S(=O)(=O)Nc2ccc(S(=O)(=O)N3CCOCC3)cc2)c1

>  <Energy>  (43) 
78.99197673605589

>  <Genealogy>  (43) 
O=S(=O)([N-]c1ccccc1)c1cccc(S(=O)(=O)Nc2ccc(S(=O)(=O)N3CCOCC3)cc2)c1 (protonated)
O=S(=O)([N-]c1ccccc1)c1cccc(S(=O)(=O)Nc2ccc(S(=O)(=O)N3CCOCC3)cc2)c1 (3D coordinates assigned)
O=S(=O)([N-]c1ccccc1)c1cccc(S(=O)(=O)Nc2ccc(S(=O)(=O)N3CCOCC3)cc2)c1 (nonaromatic ring conformer: 78.99197673605589 kcal/mol)

>  <smiles>  (43) 
O=S(=O)(Nc1ccccc1)c1cccc(S(=O)(=O)Nc2ccc(S(=O)(=O)N3CCOCC3)cc2)c1

>  <score_type>  (43) 
oracle

>  <origin>  (43) 
adgpu

>  <m_score__min__energy>  (43) 
-11.6

>  <m_primary>  (43) 
energy

$$$$
43:0
     RDKit          3D

 51 53  0  0  0  0  0  0  0  0999 V2000
   -3.6690   19.5220  -33.3430 C   0  0  0  0  0  0  0  0  0  0  0  0
   -3.0430   20.7620  -33.8150 N   0  0  0  0  0  0  0  0  0  0  0  0
   -3.4840   21.8960  -32.9950 C   0  0  0  0  0  0  0  0  0  0  0  0
   -1.3100   20.6160  -33.7060 S   0  0  0  0  0  0  0  0  0  0  0  0
   -0.8450   19.4680  -34.5550 O   0  0  0  0  0  0  0  0  0  0  0  0
   -0.6560   21.8710  -34.2050 O   0  0  0  0  0  0  0  0  0  0  0  0
   -0.8290   20.3070  -32.0390 C   0  0  0  0  0  0  0  0  0  0  0  0
   -0.5450   19.0060  -31.6090 C   0  0  0  0  0  0  0  0  0  0  0  0
   -0.2040   18.7680  -30.2760 C   0  0  0  0  0  0  0  0  0  0  0  0
   -0.1350   19.8270  -29.3670 C   0  0  0  0  0  0  0  0  0  0  0  0
   -0.3880   21.1450  -29.7890 C   0  0  0  0  0  0  0  0  0  0  0  0
   -0.3740   22.2570  -28.8740 N   0  0  0  0  0  0  0  0  0  0  0  0
    0.5180   22.4030  -27.7560 C   0  0  0  0  0  0  0  0  0  0  0  0
    1.5570   21.6960  -27.6670 O   0  0  0  0  0  0  0  0  0  0  0  0
    0.1810   23.3780  -26.6620 C   0  0  0  0  0  0  0  0  0  0  0  0
   -0.2010   25.0520  -27.2950 S   0  0  0  0  0  0  0  0  0  0  0  0
   -1.7750   24.5930  -28.0140 C   0  0  0  0  0  0  0  0  0  0  0  0
   -2.4970   23.5810  -27.4710 N   0  0  0  0  0  0  0  0  0  0  0  0
   -3.6940   23.2120  -27.9950 C   0  0  0  0  0  0  0  0  0  0  0  0
   -4.3410   22.2720  -27.4640 O   0  0  0  0  0  0  0  0  0  0  0  0
   -4.2060   23.8880  -29.1100 C   0  0  0  0  0  0  0  0  0  0  0  0
   -5.4840   23.5300  -29.6580 N   0  0  0  0  0  0  0  0  0  0  0  0
   -5.6630   23.3220  -31.0940 C   0  0  0  0  0  0  0  0  0  0  0  0
   -6.9000   22.5140  -31.3400 C   0  0  0  0  0  0  0  0  0  0  0  0
   -7.0700   21.5890  -32.3510 C   0  0  0  0  0  0  0  0  0  0  0  0
   -8.3230   21.0520  -32.1530 C   0  0  0  0  0  0  0  0  0  0  0  0
   -8.8380   21.6810  -31.0360 C   0  0  0  0  0  0  0  0  0  0  0  0
   -7.9650   22.5460  -30.5730 O   0  0  0  0  0  0  0  0  0  0  0  0
   -3.4360   24.9250  -29.6640 C   0  0  0  0  0  0  0  0  0  0  0  0
   -3.8660   25.6050  -30.7960 O   0  0  0  0  0  0  0  0  0  0  0  0
   -2.2420   25.2530  -29.1060 N   0  0  0  0  0  0  0  0  0  0  0  0
   -0.7450   21.3720  -31.1300 C   0  0  0  0  0  0  0  0  0  0  0  0
   -3.6751   19.5099  -32.2431 H   0  0  0  0  0  0  0  0  0  0  0  0
   -4.7024   19.4679  -33.7160 H   0  0  0  0  0  0  0  0  0  0  0  0
   -3.0989   18.6584  -33.7160 H   0  0  0  0  0  0  0  0  0  0  0  0
   -3.3841   21.6392  -31.9301 H   0  0  0  0  0  0  0  0  0  0  0  0
   -2.8622   22.7750  -33.2201 H   0  0  0  0  0  0  0  0  0  0  0  0
   -4.5363   22.1240  -33.2201 H   0  0  0  0  0  0  0  0  0  0  0  0
   -0.5904   18.1696  -32.3221 H   0  0  0  0  0  0  0  0  0  0  0  0
    0.0111   17.7428  -29.9402 H   0  0  0  0  0  0  0  0  0  0  0  0
    0.1187   19.6289  -28.3151 H   0  0  0  0  0  0  0  0  0  0  0  0
   -1.0220   23.0490  -29.0670 H   0  0  0  0  0  0  0  0  0  0  0  0
   -0.6950   23.0015  -26.1136 H   0  0  0  0  0  0  0  0  0  0  0  0
    1.0642   23.4639  -26.0119 H   0  0  0  0  0  0  0  0  0  0  0  0
   -6.3390   23.7710  -29.1010 H   0  0  0  0  0  0  0  0  0  0  0  0
   -5.7580   24.2967  -31.5950 H   0  0  0  0  0  0  0  0  0  0  0  0
   -4.7917   22.7826  -31.4940 H   0  0  0  0  0  0  0  0  0  0  0  0
   -6.3550   21.3344  -33.1473 H   0  0  0  0  0  0  0  0  0  0  0  0
   -8.8143   20.2785  -32.7615 H   0  0  0  0  0  0  0  0  0  0  0  0
   -9.8292   21.4867  -30.6004 H   0  0  0  0  0  0  0  0  0  0  0  0
   -0.9607   22.3957  -31.4698 H   0  0  0  0  0  0  0  0  0  0  0  0
  1  2  1  0
  2  3  1  0
  2  4  1  0
  4  5  2  0
  4  6  2  0
  4  7  1  0
  7  8  2  0
  8  9  1  0
  9 10  2  0
 10 11  1  0
 11 12  1  0
 12 13  1  0
 13 14  2  0
 13 15  1  0
 15 16  1  0
 16 17  1  0
 17 18  2  0
 18 19  1  0
 19 20  2  0
 19 21  1  0
 21 22  1  0
 22 23  1  0
 23 24  1  0
 24 25  2  0
 25 26  1  0
 26 27  2  0
 27 28  1  0
 21 29  2  0
 29 30  1  0
 29 31  1  0
 11 32  2  0
 32  7  1  0
 31 17  1  0
 28 24  1  0
  1 33  1  0
  1 34  1  0
  1 35  1  0
  3 36  1  0
  3 37  1  0
  3 38  1  0
  8 39  1  0
  9 40  1  0
 10 41  1  0
 12 42  1  0
 15 43  1  0
 15 44  1  0
 22 45  1  0
 23 46  1  0
 23 47  1  0
 25 48  1  0
 26 49  1  0
 27 50  1  0
 32 51  1  0
M  CHG  2  30  -1  31  -1
M  END
>  <UniqueID>  (44) 
42

>  <SMILES>  (44) 
CN(C)S(=O)(=O)c1cccc(NC(=O)CSc2nc(=O)c(NCc3ccco3)c([O-])[n-]2)c1

>  <Energy>  (44) 
77.98311000357555

>  <Genealogy>  (44) 
CN(C)S(=O)(=O)c1cccc(NC(=O)CSc2nc(=O)c(NCc3ccco3)c([O-])[n-]2)c1 (protonated)
CN(C)S(=O)(=O)c1cccc(NC(=O)CSc2nc(=O)c(NCc3ccco3)c([O-])[n-]2)c1 (3D coordinates assigned)
CN(C)S(=O)(=O)c1cccc(NC(=O)CSc2nc(=O)c(NCc3ccco3)c([O-])[n-]2)c1 (optimized conformer: 77.98311000357555 kcal/mol)

>  <smiles>  (44) 
CN(C)S(=O)(=O)c1cccc(NC(=O)CSc2nc(=O)c(NCc3ccco3)c(O)[nH]2)c1

>  <score_type>  (44) 
oracle

>  <origin>  (44) 
adgpu

>  <m_score__min__energy>  (44) 
-12.550000000000001

>  <m_primary>  (44) 
energy

$$$$
44:0
     RDKit          3D

 38 40  0  0  0  0  0  0  0  0999 V2000
   -1.2540   12.3810  -35.9200 H   0  0  0  0  0  0  0  0  0  0  0  0
   -1.2280   12.6970  -36.9150 N   0  0  0  0  0  0  0  0  0  0  0  0
   -2.5940   13.7280  -37.1500 S   0  0  0  0  0  0  0  0  0  0  0  0
   -3.8560   12.9550  -36.8840 O   0  0  0  0  0  0  0  0  0  0  0  0
   -2.6180   14.2160  -38.5720 O   0  0  0  0  0  0  0  0  0  0  0  0
   -2.4920   15.1000  -36.0510 C   0  0  0  0  0  0  0  0  0  0  0  0
   -1.3620   15.2720  -35.2400 C   0  0  0  0  0  0  0  0  0  0  0  0
   -0.5403   14.5420  -35.2833 H   0  0  0  0  0  0  0  0  0  0  0  0
   -1.2750   16.3680  -34.3760 C   0  0  0  0  0  0  0  0  0  0  0  0
   -0.3834   16.4970  -33.7448 H   0  0  0  0  0  0  0  0  0  0  0  0
   -2.3210   17.3070  -34.3090 C   0  0  0  0  0  0  0  0  0  0  0  0
   -2.2440   18.4490  -33.4350 N   0  0  0  0  0  0  0  0  0  0  0  0
   -1.2050   19.2690  -33.4000 N   0  0  0  0  0  0  0  0  0  0  0  0
   -1.4530   20.2350  -32.4890 C   0  0  0  0  0  0  0  0  0  0  0  0
   -0.5350   21.1530  -32.1770 C   0  0  0  0  0  0  0  0  0  0  0  0
   -0.7640   21.9285  -31.4313 H   0  0  0  0  0  0  0  0  0  0  0  0
    0.4503   21.1338  -32.6657 H   0  0  0  0  0  0  0  0  0  0  0  0
   -2.7250   20.0370  -31.9310 C   0  0  0  0  0  0  0  0  0  0  0  0
   -3.4270   20.7420  -31.0220 C   0  0  0  0  0  0  0  0  0  0  0  0
   -4.3585   20.2950  -30.6445 H   0  0  0  0  0  0  0  0  0  0  0  0
   -3.0470   22.0620  -30.4940 C   0  0  0  0  0  0  0  0  0  0  0  0
   -2.0820   22.1430  -29.4820 C   0  0  0  0  0  0  0  0  0  0  0  0
   -1.5991   21.2268  -29.1115 H   0  0  0  0  0  0  0  0  0  0  0  0
   -1.7300   23.3820  -28.9410 C   0  0  0  0  0  0  0  0  0  0  0  0
   -0.9600   23.4393  -28.1575 H   0  0  0  0  0  0  0  0  0  0  0  0
   -2.3530   24.5490  -29.3920 C   0  0  0  0  0  0  0  0  0  0  0  0
   -1.9880   25.7740  -28.8460 O   0  0  0  0  0  0  0  0  0  0  0  0
   -3.3430   24.4770  -30.3880 C   0  0  0  0  0  0  0  0  0  0  0  0
   -3.9850   25.6290  -30.8440 O   0  0  0  0  0  0  0  0  0  0  0  0
   -4.3630   25.6970  -31.7820 H   0  0  0  0  0  0  0  0  0  0  0  0
   -3.6960   23.2340  -30.9290 C   0  0  0  0  0  0  0  0  0  0  0  0
   -4.6930   23.1650  -31.8990 O   0  0  0  0  0  0  0  0  0  0  0  0
   -3.1720   18.8880  -32.5590 C   0  0  0  0  0  0  0  0  0  0  0  0
   -4.3010   18.3520  -32.3870 O   0  0  0  0  0  0  0  0  0  0  0  0
   -3.4390   17.1390  -35.1430 C   0  0  0  0  0  0  0  0  0  0  0  0
   -4.2541   17.8772  -35.1170 H   0  0  0  0  0  0  0  0  0  0  0  0
   -3.5250   16.0430  -36.0050 C   0  0  0  0  0  0  0  0  0  0  0  0
   -4.4078   15.9208  -36.6498 H   0  0  0  0  0  0  0  0  0  0  0  0
  1  2  1  0
  2  3  1  0
  3  4  2  0
  3  5  2  0
  3  6  1  0
  6  7  2  0
  7  8  1  0
  7  9  1  0
  9 10  1  0
  9 11  2  0
 11 12  1  0
 12 13  1  0
 13 14  1  0
 14 15  2  0
 15 16  1  0
 15 17  1  0
 14 18  1  0
 18 19  2  0
 19 20  1  0
 19 21  1  0
 21 22  2  0
 22 23  1  0
 22 24  1  0
 24 25  1  0
 24 26  2  0
 26 27  1  0
 26 28  1  0
 28 29  1  0
 29 30  1  0
 28 31  2  0
 31 32  1  0
 18 33  1  0
 33 34  2  0
 11 35  1  0
 35 36  1  0
 35 37  2  0
 37 38  1  0
 37  6  1  0
 33 12  1  0
 31 21  1  0
M  CHG  4   2  -1  13  -1  27  -1  32  -1
M  END
>  <UniqueID>  (45) 
43

>  <SMILES>  (45) 
C=c1[n-]n(-c2ccc(S([NH-])(=O)=O)cc2)c(=O)/c1=C/c1ccc([O-])c(O)c1[O-]

>  <Energy>  (45) 
91.1631711709102

>  <Genealogy>  (45) 
C=c1[n-]n(-c2ccc(S([NH-])(=O)=O)cc2)c(=O)c1=Cc1ccc([O-])c(O)c1[O-] (protonated)
C=c1[n-]n(-c2ccc(S([NH-])(=O)=O)cc2)c(=O)/c1=C/c1ccc([O-])c(O)c1[O-] (cis-trans isomerization)
C=c1[n-]n(-c2ccc(S([NH-])(=O)=O)cc2)c(=O)/c1=C/c1ccc([O-])c(O)c1[O-] (3D coordinates assigned)
C=c1[n-]n(-c2ccc(S([NH-])(=O)=O)cc2)c(=O)/c1=C/c1ccc([O-])c(O)c1[O-] (optimized conformer: 91.1631711709102 kcal/mol)

>  <smiles>  (45) 
C=c1[nH]n(-c2ccc(S(N)(=O)=O)cc2)c(=O)c1=Cc1ccc(O)c(O)c1O

>  <score_type>  (45) 
oracle

>  <origin>  (45) 
adgpu

>  <m_score__min__energy>  (45) 
-10.07

>  <m_primary>  (45) 
energy

$$$$
45:0
     RDKit          3D

 53 56  0  0  0  0  0  0  0  0999 V2000
   -3.5180   18.7660  -26.3980 C   0  0  0  0  0  0  0  0  0  0  0  0
   -3.1110   19.5440  -27.5190 O   0  0  0  0  0  0  0  0  0  0  0  0
   -2.1660   20.5820  -27.4690 C   0  0  0  0  0  0  0  0  0  0  0  0
   -0.7970   20.3260  -27.2600 C   0  0  0  0  0  0  0  0  0  0  0  0
    0.1180   21.3760  -27.1990 C   0  0  0  0  0  0  0  0  0  0  0  0
   -0.3170   22.6930  -27.3390 C   0  0  0  0  0  0  0  0  0  0  0  0
   -1.6760   22.9750  -27.5370 C   0  0  0  0  0  0  0  0  0  0  0  0
   -2.6050   21.9140  -27.6310 C   0  0  0  0  0  0  0  0  0  0  0  0
   -4.0840   22.2000  -27.8020 C   0  0  0  0  0  0  0  0  0  0  0  0
   -4.3620   23.5390  -28.3590 N   0  0  2  0  0  0  0  0  0  0  0  0
   -4.1110   23.5790  -30.0940 S   0  0  0  0  0  0  0  0  0  0  0  0
   -4.5710   24.8920  -30.6670 O   0  0  0  0  0  0  0  0  0  0  0  0
   -2.6450   23.4270  -30.3870 O   0  0  0  0  0  0  0  0  0  0  0  0
   -4.9710   22.2510  -30.8720 C   0  0  0  0  0  0  0  0  0  0  0  0
   -4.2720   21.2370  -31.5340 C   0  0  0  0  0  0  0  0  0  0  0  0
   -4.9630   20.1980  -32.1600 C   0  0  0  0  0  0  0  0  0  0  0  0
   -6.3730   20.1650  -32.1520 C   0  0  0  0  0  0  0  0  0  0  0  0
   -7.0750   21.1850  -31.4680 C   0  0  0  0  0  0  0  0  0  0  0  0
   -6.3680   22.2160  -30.8310 C   0  0  0  0  0  0  0  0  0  0  0  0
   -8.5760   21.1300  -31.3190 C   0  0  0  0  0  0  0  0  0  0  0  0
   -9.2320   20.2490  -32.3840 C   0  0  0  0  0  0  0  0  0  0  0  0
   -8.5220   18.9000  -32.4730 C   0  0  0  0  0  0  0  0  0  0  0  0
   -7.1070   19.1010  -32.8090 N   0  0  0  0  0  0  0  0  0  0  0  0
   -6.4920   18.2540  -33.8010 C   0  0  0  0  0  0  0  0  0  0  0  0
   -6.4200   16.7710  -33.6130 C   0  0  0  0  0  0  0  0  0  0  0  0
   -6.0610   18.7540  -34.8760 O   0  0  0  0  0  0  0  0  0  0  0  0
   -3.6140   24.5910  -27.6440 C   0  0  0  0  0  0  0  0  0  0  0  0
   -2.0950   24.4060  -27.7410 C   0  0  0  0  0  0  0  0  0  0  0  0
   -3.2443   19.2891  -25.4698 H   0  0  0  0  0  0  0  0  0  0  0  0
   -4.6079   18.6203  -26.4291 H   0  0  0  0  0  0  0  0  0  0  0  0
   -3.0162   17.7876  -26.4291 H   0  0  0  0  0  0  0  0  0  0  0  0
   -0.4470   19.2896  -27.1440 H   0  0  0  0  0  0  0  0  0  0  0  0
    1.1858   21.1648  -27.0400 H   0  0  0  0  0  0  0  0  0  0  0  0
    0.4109   23.5165  -27.2938 H   0  0  0  0  0  0  0  0  0  0  0  0
   -4.5089   21.4452  -28.4801 H   0  0  0  0  0  0  0  0  0  0  0  0
   -4.5395   22.1637  -26.8014 H   0  0  0  0  0  0  0  0  0  0  0  0
   -5.3800   23.7310  -28.2100 H   0  0  0  0  0  0  0  0  0  0  0  0
   -3.1725   21.2581  -31.5617 H   0  0  0  0  0  0  0  0  0  0  0  0
   -4.4023   19.3972  -32.6644 H   0  0  0  0  0  0  0  0  0  0  0  0
   -6.9176   23.0036  -30.2947 H   0  0  0  0  0  0  0  0  0  0  0  0
   -8.8185   20.7245  -30.3256 H   0  0  0  0  0  0  0  0  0  0  0  0
   -8.9645   22.1519  -31.4408 H   0  0  0  0  0  0  0  0  0  0  0  0
  -10.2872   20.0860  -32.1194 H   0  0  0  0  0  0  0  0  0  0  0  0
   -9.1593   20.7545  -33.3583 H   0  0  0  0  0  0  0  0  0  0  0  0
   -8.5971   18.3838  -31.5046 H   0  0  0  0  0  0  0  0  0  0  0  0
   -8.9973   18.2917  -33.2566 H   0  0  0  0  0  0  0  0  0  0  0  0
   -6.4087   16.5378  -32.5381 H   0  0  0  0  0  0  0  0  0  0  0  0
   -7.2963   16.2990  -34.0814 H   0  0  0  0  0  0  0  0  0  0  0  0
   -5.5021   16.3862  -34.0814 H   0  0  0  0  0  0  0  0  0  0  0  0
   -3.8781   25.5670  -28.0772 H   0  0  0  0  0  0  0  0  0  0  0  0
   -3.8891   24.5304  -26.5807 H   0  0  0  0  0  0  0  0  0  0  0  0
   -1.7625   24.7326  -28.7374 H   0  0  0  0  0  0  0  0  0  0  0  0
   -1.6329   25.0071  -26.9441 H   0  0  0  0  0  0  0  0  0  0  0  0
  1  2  1  0
  2  3  1  0
  3  4  2  0
  4  5  1  0
  5  6  2  0
  6  7  1  0
  7  8  2  0
  8  9  1  0
  9 10  1  0
 10 11  1  0
 11 12  2  0
 11 13  2  0
 11 14  1  0
 14 15  2  0
 15 16  1  0
 16 17  2  0
 17 18  1  0
 18 19  2  0
 18 20  1  0
 20 21  1  0
 21 22  1  0
 22 23  1  0
 23 24  1  0
 24 25  1  0
 24 26  2  0
 10 27  1  0
 27 28  1  0
  8  3  1  0
 19 14  1  0
 28  7  1  0
 23 17  1  0
  1 29  1  0
  1 30  1  0
  1 31  1  0
  4 32  1  0
  5 33  1  0
  6 34  1  0
  9 35  1  0
  9 36  1  0
 10 37  1  6
 15 38  1  0
 16 39  1  0
 19 40  1  0
 20 41  1  0
 20 42  1  0
 21 43  1  0
 21 44  1  0
 22 45  1  0
 22 46  1  0
 25 47  1  0
 25 48  1  0
 25 49  1  0
 27 50  1  0
 27 51  1  0
 28 52  1  0
 28 53  1  0
M  CHG  1  10   1
M  END
>  <UniqueID>  (46) 
44

>  <SMILES>  (46) 
COc1cccc2c1C[N@H+](S(=O)(=O)c1ccc3c(c1)CCCN3C(C)=O)CC2

>  <Energy>  (46) 
63.73625347658714

>  <Genealogy>  (46) 
COc1cccc2c1C[NH+](S(=O)(=O)c1ccc3c(c1)CCCN3C(C)=O)CC2 (protonated)
COc1cccc2c1C[N@H+](S(=O)(=O)c1ccc3c(c1)CCCN3C(C)=O)CC2 (chirality)
COc1cccc2c1C[N@H+](S(=O)(=O)c1ccc3c(c1)CCCN3C(C)=O)CC2 (3D coordinates assigned)
COc1cccc2c1C[N@H+](S(=O)(=O)c1ccc3c(c1)CCCN3C(C)=O)CC2 (nonaromatic ring conformer: 63.73625347658714 kcal/mol)

>  <smiles>  (46) 
COc1cccc2c1CN(S(=O)(=O)c1ccc3c(c1)CCCN3C(C)=O)CC2

>  <score_type>  (46) 
oracle

>  <origin>  (46) 
adgpu

>  <m_score__min__energy>  (46) 
-9.2899999999999991

>  <m_primary>  (46) 
energy

$$$$
46:0
     RDKit          3D

 58 61  0  0  0  0  0  0  0  0999 V2000
   -3.4610   21.7520  -33.3950 O   0  0  0  0  0  0  0  0  0  0  0  0
   -2.9180   21.8710  -32.2610 C   0  0  0  0  0  0  0  0  0  0  0  0
   -3.2830   22.9690  -31.4150 N   0  0  0  0  0  0  0  0  0  0  0  0
   -4.6170   23.4300  -31.1650 C   0  0  0  0  0  0  0  0  0  0  0  0
   -5.6840   22.5650  -31.4390 C   0  0  0  0  0  0  0  0  0  0  0  0
   -7.0070   22.9720  -31.2210 C   0  0  0  0  0  0  0  0  0  0  0  0
   -8.3530   21.8900  -31.5660 S   0  0  0  0  0  0  0  0  0  0  0  0
   -8.8830   21.2990  -30.2870 O   0  0  0  0  0  0  0  0  0  0  0  0
   -9.4460   22.6840  -32.2220 O   0  0  0  0  0  0  0  0  0  0  0  0
   -7.8220   20.6140  -32.6410 N   0  0  0  0  0  0  0  0  0  0  0  0
   -6.9100   19.6990  -31.9450 C   0  0  0  0  0  0  0  0  0  0  0  0
   -7.7310   18.5450  -31.3860 C   0  0  0  0  0  0  0  0  0  0  0  0
   -9.0670   18.6120  -32.1010 C   0  0  0  0  0  0  0  0  0  0  0  0
   -8.9590   19.7890  -33.0600 C   0  0  0  0  0  0  0  0  0  0  0  0
   -7.2640   24.2640  -30.7450 C   0  0  0  0  0  0  0  0  0  0  0  0
   -6.2080   25.1450  -30.5010 C   0  0  0  0  0  0  0  0  0  0  0  0
   -4.8870   24.7420  -30.7240 C   0  0  0  0  0  0  0  0  0  0  0  0
   -3.8610   25.6610  -30.5390 O   0  0  0  0  0  0  0  0  0  0  0  0
   -1.8510   20.9200  -31.8500 C   0  0  0  0  0  0  0  0  0  0  0  0
   -1.5550   20.7580  -30.4820 C   0  0  0  0  0  0  0  0  0  0  0  0
   -0.5710   19.8560  -30.0600 C   0  0  0  0  0  0  0  0  0  0  0  0
   -0.2240   19.6810  -28.3400 S   0  0  0  0  0  0  0  0  0  0  0  0
    1.2630   19.6570  -28.1130 O   0  0  0  0  0  0  0  0  0  0  0  0
   -0.8040   18.3780  -27.8640 O   0  0  0  0  0  0  0  0  0  0  0  0
   -0.9390   21.0070  -27.4570 N   0  0  0  0  0  0  0  0  0  0  0  0
   -0.6250   22.2850  -28.1340 C   0  0  0  0  0  0  0  0  0  0  0  0
   -1.5670   23.4070  -27.6850 C   0  0  0  0  0  0  0  0  0  0  0  0
   -3.0280   23.0830  -28.0460 C   0  0  0  0  0  0  0  0  0  0  0  0
   -3.2890   21.5730  -28.1710 C   0  0  0  0  0  0  0  0  0  0  0  0
   -2.3880   20.7750  -27.2190 C   0  0  0  0  0  0  0  0  0  0  0  0
    0.1420   19.1140  -31.0070 C   0  0  0  0  0  0  0  0  0  0  0  0
   -0.1320   19.2690  -32.3660 C   0  0  0  0  0  0  0  0  0  0  0  0
   -1.1170   20.1640  -32.7950 C   0  0  0  0  0  0  0  0  0  0  0  0
   -1.3450   20.2920  -34.1610 O   0  0  0  0  0  0  0  0  0  0  0  0
   -5.4815   21.5566  -31.8290 H   0  0  0  0  0  0  0  0  0  0  0  0
   -6.1584   19.3143  -32.6500 H   0  0  0  0  0  0  0  0  0  0  0  0
   -6.3905   20.2258  -31.1310 H   0  0  0  0  0  0  0  0  0  0  0  0
   -7.2337   17.5854  -31.5904 H   0  0  0  0  0  0  0  0  0  0  0  0
   -7.8487   18.6199  -30.2949 H   0  0  0  0  0  0  0  0  0  0  0  0
   -9.2529   17.6805  -32.6557 H   0  0  0  0  0  0  0  0  0  0  0  0
   -9.9010   18.7374  -31.3947 H   0  0  0  0  0  0  0  0  0  0  0  0
   -8.7962   19.4220  -34.0841 H   0  0  0  0  0  0  0  0  0  0  0  0
   -9.8862   20.3807  -33.0436 H   0  0  0  0  0  0  0  0  0  0  0  0
   -8.3001   24.5856  -30.5629 H   0  0  0  0  0  0  0  0  0  0  0  0
   -6.4159   26.1601  -30.1319 H   0  0  0  0  0  0  0  0  0  0  0  0
   -2.1050   21.3488  -29.7347 H   0  0  0  0  0  0  0  0  0  0  0  0
    0.4100   22.5707  -27.8951 H   0  0  0  0  0  0  0  0  0  0  0  0
   -0.7526   22.1412  -29.2171 H   0  0  0  0  0  0  0  0  0  0  0  0
   -1.4852   23.5298  -26.5949 H   0  0  0  0  0  0  0  0  0  0  0  0
   -1.2771   24.3338  -28.2018 H   0  0  0  0  0  0  0  0  0  0  0  0
   -3.6826   23.4892  -27.2608 H   0  0  0  0  0  0  0  0  0  0  0  0
   -3.2362   23.5377  -29.0257 H   0  0  0  0  0  0  0  0  0  0  0  0
   -4.3415   21.3689  -27.9248 H   0  0  0  0  0  0  0  0  0  0  0  0
   -3.0661   21.2646  -29.2031 H   0  0  0  0  0  0  0  0  0  0  0  0
   -2.6244   21.0677  -26.1854 H   0  0  0  0  0  0  0  0  0  0  0  0
   -2.5836   19.7077  -27.3994 H   0  0  0  0  0  0  0  0  0  0  0  0
    0.9194   18.4077  -30.6801 H   0  0  0  0  0  0  0  0  0  0  0  0
    0.4315   18.6822  -33.1064 H   0  0  0  0  0  0  0  0  0  0  0  0
  1  2  2  0
  2  3  1  0
  3  4  1  0
  4  5  2  0
  5  6  1  0
  6  7  1  0
  7  8  2  0
  7  9  2  0
  7 10  1  0
 10 11  1  0
 11 12  1  0
 12 13  1  0
 13 14  1  0
  6 15  2  0
 15 16  1  0
 16 17  2  0
 17 18  1  0
  2 19  1  0
 19 20  2  0
 20 21  1  0
 21 22  1  0
 22 23  2  0
 22 24  2  0
 22 25  1  0
 25 26  1  0
 26 27  1  0
 27 28  1  0
 28 29  1  0
 29 30  1  0
 21 31  2  0
 31 32  1  0
 32 33  2  0
 33 34  1  0
 17  4  1  0
 33 19  1  0
 14 10  1  0
 30 25  1  0
  5 35  1  0
 11 36  1  0
 11 37  1  0
 12 38  1  0
 12 39  1  0
 13 40  1  0
 13 41  1  0
 14 42  1  0
 14 43  1  0
 15 44  1  0
 16 45  1  0
 20 46  1  0
 26 47  1  0
 26 48  1  0
 27 49  1  0
 27 50  1  0
 28 51  1  0
 28 52  1  0
 29 53  1  0
 29 54  1  0
 30 55  1  0
 30 56  1  0
 31 57  1  0
 32 58  1  0
M  CHG  3   3  -1  18  -1  34  -1
M  END
>  <UniqueID>  (47) 
45

>  <SMILES>  (47) 
O=C([N-]c1cc(S(=O)(=O)N2CCCC2)ccc1[O-])c1cc(S(=O)(=O)N2CCCCC2)ccc1[O-]

>  <Energy>  (47) 
74.95170560413777

>  <Genealogy>  (47) 
O=C([N-]c1cc(S(=O)(=O)N2CCCC2)ccc1[O-])c1cc(S(=O)(=O)N2CCCCC2)ccc1[O-] (protonated)
O=C([N-]c1cc(S(=O)(=O)N2CCCC2)ccc1[O-])c1cc(S(=O)(=O)N2CCCCC2)ccc1[O-] (3D coordinates assigned)
O=C([N-]c1cc(S(=O)(=O)N2CCCC2)ccc1[O-])c1cc(S(=O)(=O)N2CCCCC2)ccc1[O-] (nonaromatic ring conformer: 74.95170560413777 kcal/mol)

>  <smiles>  (47) 
O=C(Nc1cc(S(=O)(=O)N2CCCC2)ccc1O)c1cc(S(=O)(=O)N2CCCCC2)ccc1O

>  <score_type>  (47) 
oracle

>  <origin>  (47) 
adgpu

>  <m_score__min__energy>  (47) 
-14.84

>  <m_primary>  (47) 
energy

$$$$
47:0
     RDKit          3D

 44 46  0  0  0  0  0  0  0  0999 V2000
   -6.0630   25.4600  -28.9480 O   0  0  0  0  0  0  0  0  0  0  0  0
   -5.3320   25.0110  -30.1820 S   0  0  0  0  0  0  0  0  0  0  0  0
   -5.4530   26.0870  -31.2260 O   0  0  0  0  0  0  0  0  0  0  0  0
   -3.6590   24.7590  -29.7930 N   0  0  0  0  0  0  0  0  0  0  0  0
   -3.5100   24.5430  -28.3570 C   0  0  0  0  0  0  0  0  0  0  0  0
   -2.0900   24.1480  -28.0610 C   0  0  0  0  0  0  0  0  0  0  0  0
   -1.8290   23.0330  -27.2460 C   0  0  0  0  0  0  0  0  0  0  0  0
   -0.5130   22.6760  -26.9390 C   0  0  0  0  0  0  0  0  0  0  0  0
    0.5520   23.4320  -27.4320 C   0  0  0  0  0  0  0  0  0  0  0  0
    0.3030   24.5530  -28.2300 C   0  0  0  0  0  0  0  0  0  0  0  0
   -1.0110   24.9180  -28.5410 C   0  0  0  0  0  0  0  0  0  0  0  0
   -1.2380   26.0450  -29.3240 O   0  0  0  0  0  0  0  0  0  0  0  0
   -6.0540   23.5120  -30.7610 C   0  0  0  0  0  0  0  0  0  0  0  0
   -5.2300   22.4810  -31.2330 C   0  0  0  0  0  0  0  0  0  0  0  0
   -5.7920   21.2960  -31.7150 C   0  0  0  0  0  0  0  0  0  0  0  0
   -7.1840   21.1340  -31.7370 C   0  0  0  0  0  0  0  0  0  0  0  0
   -7.8980   19.6340  -32.3200 S   0  0  0  0  0  0  0  0  0  0  0  0
   -8.8720   19.9310  -33.4270 O   0  0  0  0  0  0  0  0  0  0  0  0
   -8.6410   18.9710  -31.1940 O   0  0  0  0  0  0  0  0  0  0  0  0
   -6.6310   18.5740  -32.8840 N   0  0  0  0  0  0  0  0  0  0  0  0
   -6.0990   19.0210  -34.1710 C   0  0  0  0  0  0  0  0  0  0  0  0
   -5.5640   17.7820  -34.8710 C   0  0  0  0  0  0  0  0  0  0  0  0
   -6.2420   16.6060  -34.1850 C   0  0  0  0  0  0  0  0  0  0  0  0
   -7.1340   17.2210  -33.1180 C   0  0  0  0  0  0  0  0  0  0  0  0
   -8.0080   22.1640  -31.2620 C   0  0  0  0  0  0  0  0  0  0  0  0
   -7.4460   23.3490  -30.7800 C   0  0  0  0  0  0  0  0  0  0  0  0
   -3.7538   25.4705  -27.8182 H   0  0  0  0  0  0  0  0  0  0  0  0
   -4.1915   23.7435  -28.0310 H   0  0  0  0  0  0  0  0  0  0  0  0
   -2.6645   22.4385  -26.8479 H   0  0  0  0  0  0  0  0  0  0  0  0
   -0.3160   21.7972  -26.3074 H   0  0  0  0  0  0  0  0  0  0  0  0
    1.5869   23.1459  -27.1928 H   0  0  0  0  0  0  0  0  0  0  0  0
    1.1433   25.1498  -28.6144 H   0  0  0  0  0  0  0  0  0  0  0  0
   -4.1371   22.6052  -31.2239 H   0  0  0  0  0  0  0  0  0  0  0  0
   -5.1400   20.4879  -32.0782 H   0  0  0  0  0  0  0  0  0  0  0  0
   -6.8963   19.4826  -34.7721 H   0  0  0  0  0  0  0  0  0  0  0  0
   -5.3083   19.7735  -34.0348 H   0  0  0  0  0  0  0  0  0  0  0  0
   -5.8201   17.8035  -35.9406 H   0  0  0  0  0  0  0  0  0  0  0  0
   -4.4678   17.7168  -34.8063 H   0  0  0  0  0  0  0  0  0  0  0  0
   -6.8435   16.0339  -34.9067 H   0  0  0  0  0  0  0  0  0  0  0  0
   -5.5106   15.9066  -33.7537 H   0  0  0  0  0  0  0  0  0  0  0  0
   -8.1757   17.2585  -33.4692 H   0  0  0  0  0  0  0  0  0  0  0  0
   -7.1163   16.6251  -32.1935 H   0  0  0  0  0  0  0  0  0  0  0  0
   -9.1008   22.0388  -31.2688 H   0  0  0  0  0  0  0  0  0  0  0  0
   -8.0978   24.1562  -30.4145 H   0  0  0  0  0  0  0  0  0  0  0  0
  1  2  2  0
  2  3  2  0
  2  4  1  0
  4  5  1  0
  5  6  1  0
  6  7  2  0
  7  8  1  0
  8  9  2  0
  9 10  1  0
 10 11  2  0
 11 12  1  0
  2 13  1  0
 13 14  2  0
 14 15  1  0
 15 16  2  0
 16 17  1  0
 17 18  2  0
 17 19  2  0
 17 20  1  0
 20 21  1  0
 21 22  1  0
 22 23  1  0
 23 24  1  0
 16 25  1  0
 25 26  2  0
 11  6  1  0
 26 13  1  0
 24 20  1  0
  5 27  1  0
  5 28  1  0
  7 29  1  0
  8 30  1  0
  9 31  1  0
 10 32  1  0
 14 33  1  0
 15 34  1  0
 21 35  1  0
 21 36  1  0
 22 37  1  0
 22 38  1  0
 23 39  1  0
 23 40  1  0
 24 41  1  0
 24 42  1  0
 25 43  1  0
 26 44  1  0
M  CHG  2   4  -1  12  -1
M  END
>  <UniqueID>  (48) 
46

>  <SMILES>  (48) 
O=S(=O)([N-]Cc1ccccc1[O-])c1ccc(S(=O)(=O)N2CCCC2)cc1

>  <Energy>  (48) 
44.057195095384984

>  <Genealogy>  (48) 
O=S(=O)([N-]Cc1ccccc1[O-])c1ccc(S(=O)(=O)N2CCCC2)cc1 (protonated)
O=S(=O)([N-]Cc1ccccc1[O-])c1ccc(S(=O)(=O)N2CCCC2)cc1 (3D coordinates assigned)
O=S(=O)([N-]Cc1ccccc1[O-])c1ccc(S(=O)(=O)N2CCCC2)cc1 (nonaromatic ring conformer: 44.057195095384984 kcal/mol)

>  <smiles>  (48) 
O=S(=O)(NCc1ccccc1O)c1ccc(S(=O)(=O)N2CCCC2)cc1

>  <score_type>  (48) 
oracle

>  <origin>  (48) 
adgpu

>  <m_score__min__energy>  (48) 
-13.91

>  <m_primary>  (48) 
energy

$$$$
48:0
     RDKit          3D

 57 59  0  0  0  0  0  0  0  0999 V2000
   -4.0640   13.4880  -34.1490 C   0  0  0  0  0  0  0  0  0  0  0  0
   -3.6770   14.9090  -34.1370 N   0  0  0  0  0  0  0  0  0  0  0  0
   -2.8010   15.1890  -32.9810 C   0  0  0  0  0  0  0  0  0  0  0  0
   -2.2310   16.6050  -33.0930 C   0  0  0  0  0  0  0  0  0  0  0  0
   -3.2750   17.5640  -33.4720 N   0  0  0  0  0  0  0  0  0  0  0  0
   -2.9340   18.9600  -33.5570 C   0  0  0  0  0  0  0  0  0  0  0  0
   -1.8600   19.3600  -34.4200 N   0  0  0  0  0  0  0  0  0  0  0  0
   -3.5950   19.8300  -32.8410 N   0  0  0  0  0  0  0  0  0  0  0  0
   -3.2070   21.5210  -32.7230 S   0  0  0  0  0  0  0  0  0  0  0  0
   -3.8850   22.2600  -33.8420 O   0  0  0  0  0  0  0  0  0  0  0  0
   -1.7220   21.6940  -32.8770 O   0  0  0  0  0  0  0  0  0  0  0  0
   -3.7710   22.1860  -31.1790 C   0  0  0  0  0  0  0  0  0  0  0  0
   -2.9870   21.9700  -30.0320 C   0  0  0  0  0  0  0  0  0  0  0  0
   -3.3920   22.4540  -28.7900 C   0  0  0  0  0  0  0  0  0  0  0  0
   -4.5850   23.1620  -28.6730 C   0  0  0  0  0  0  0  0  0  0  0  0
   -5.3730   23.3970  -29.8000 C   0  0  0  0  0  0  0  0  0  0  0  0
   -4.9760   22.9300  -31.0710 C   0  0  0  0  0  0  0  0  0  0  0  0
   -5.7870   23.2050  -32.2350 N   0  0  0  0  0  0  0  0  0  0  0  0
   -7.2360   23.4260  -32.2070 C   0  0  0  0  0  0  0  0  0  0  0  0
   -7.9410   22.4490  -31.2560 C   0  0  0  0  0  0  0  0  0  0  0  0
   -7.8470   21.0280  -31.7480 C   0  0  0  0  0  0  0  0  0  0  0  0
   -6.9480   20.6930  -32.7750 C   0  0  0  0  0  0  0  0  0  0  0  0
   -6.8830   19.3800  -33.2510 C   0  0  0  0  0  0  0  0  0  0  0  0
   -7.7160   18.3960  -32.7120 C   0  0  0  0  0  0  0  0  0  0  0  0
   -8.6190   18.7240  -31.6950 C   0  0  0  0  0  0  0  0  0  0  0  0
   -8.6880   20.0350  -31.2170 C   0  0  0  0  0  0  0  0  0  0  0  0
   -4.6840   17.1500  -33.4710 C   0  0  0  0  0  0  0  0  0  0  0  0
   -4.8840   15.7770  -34.1500 C   0  0  0  0  0  0  0  0  0  0  0  0
   -4.1626   13.1261  -33.1149 H   0  0  0  0  0  0  0  0  0  0  0  0
   -5.0258   13.3743  -34.6705 H   0  0  0  0  0  0  0  0  0  0  0  0
   -3.2927   12.9023  -34.6705 H   0  0  0  0  0  0  0  0  0  0  0  0
   -3.1320   15.0880  -35.0150 H   0  0  0  0  0  0  0  0  0  0  0  0
   -3.3836   15.1023  -32.0520 H   0  0  0  0  0  0  0  0  0  0  0  0
   -1.9734   14.4644  -32.9687 H   0  0  0  0  0  0  0  0  0  0  0  0
   -1.8071   16.8999  -32.1217 H   0  0  0  0  0  0  0  0  0  0  0  0
   -1.4528   16.6089  -33.8704 H   0  0  0  0  0  0  0  0  0  0  0  0
   -1.3260   18.6440  -34.9580 H   0  0  0  0  0  0  0  0  0  0  0  0
   -1.6610   20.3570  -34.6450 H   0  0  0  0  0  0  0  0  0  0  0  0
   -4.3680   19.4990  -32.2210 H   0  0  0  0  0  0  0  0  0  0  0  0
   -2.0427   21.4122  -30.1163 H   0  0  0  0  0  0  0  0  0  0  0  0
   -2.7687   22.2766  -27.9011 H   0  0  0  0  0  0  0  0  0  0  0  0
   -4.9069   23.5368  -27.6902 H   0  0  0  0  0  0  0  0  0  0  0  0
   -6.3161   23.9536  -29.6965 H   0  0  0  0  0  0  0  0  0  0  0  0
   -5.3390   23.2860  -33.1720 H   0  0  0  0  0  0  0  0  0  0  0  0
   -7.4333   24.4549  -31.8716 H   0  0  0  0  0  0  0  0  0  0  0  0
   -7.6278   23.2601  -33.2214 H   0  0  0  0  0  0  0  0  0  0  0  0
   -7.4704   22.5148  -30.2639 H   0  0  0  0  0  0  0  0  0  0  0  0
   -9.0045   22.7254  -31.2064 H   0  0  0  0  0  0  0  0  0  0  0  0
   -6.2939   21.4657  -33.2054 H   0  0  0  0  0  0  0  0  0  0  0  0
   -6.1745   19.1210  -34.0516 H   0  0  0  0  0  0  0  0  0  0  0  0
   -7.6617   17.3634  -33.0874 H   0  0  0  0  0  0  0  0  0  0  0  0
   -9.2750   17.9493  -31.2715 H   0  0  0  0  0  0  0  0  0  0  0  0
   -9.4035   20.2911  -30.4217 H   0  0  0  0  0  0  0  0  0  0  0  0
   -5.0346   17.0860  -32.4304 H   0  0  0  0  0  0  0  0  0  0  0  0
   -5.2581   17.8969  -34.0390 H   0  0  0  0  0  0  0  0  0  0  0  0
   -5.6947   15.2484  -33.6271 H   0  0  0  0  0  0  0  0  0  0  0  0
   -5.1176   15.9777  -35.2060 H   0  0  0  0  0  0  0  0  0  0  0  0
  1  2  1  0
  2  3  1  0
  3  4  1  0
  4  5  1  0
  5  6  1  0
  6  7  1  0
  6  8  2  3
  8  9  1  0
  9 10  2  0
  9 11  2  0
  9 12  1  0
 12 13  2  0
 13 14  1  0
 14 15  2  0
 15 16  1  0
 16 17  2  0
 17 18  1  0
 18 19  1  0
 19 20  1  0
 20 21  1  0
 21 22  2  0
 22 23  1  0
 23 24  2  0
 24 25  1  0
 25 26  2  0
  5 27  1  0
 27 28  1  0
 28  2  1  0
 17 12  1  0
 26 21  1  0
  1 29  1  0
  1 30  1  0
  1 31  1  0
  2 32  1  0
  3 33  1  0
  3 34  1  0
  4 35  1  0
  4 36  1  0
  7 37  1  0
  7 38  1  0
  8 39  1  0
 13 40  1  0
 14 41  1  0
 15 42  1  0
 16 43  1  0
 18 44  1  0
 19 45  1  0
 19 46  1  0
 20 47  1  0
 20 48  1  0
 22 49  1  0
 23 50  1  0
 24 51  1  0
 25 52  1  0
 26 53  1  0
 27 54  1  0
 27 55  1  0
 28 56  1  0
 28 57  1  0
M  CHG  2   2   1   8   1
M  END
>  <UniqueID>  (49) 
47

>  <SMILES>  (49) 
C[NH+]1CCN(C(N)=[NH+]S(=O)(=O)c2ccccc2NCCc2ccccc2)CC1

>  <Energy>  (49) 
67.69211488586876

>  <Genealogy>  (49) 
C[NH+]1CCN(C(N)=[NH+]S(=O)(=O)c2ccccc2NCCc2ccccc2)CC1 (protonated)
C[NH+]1CCN(C(N)=[NH+]S(=O)(=O)c2ccccc2NCCc2ccccc2)CC1 (3D coordinates assigned)
C[NH+]1CCN(C(N)=[NH+]S(=O)(=O)c2ccccc2NCCc2ccccc2)CC1 (nonaromatic ring conformer: 67.69211488586876 kcal/mol)

>  <smiles>  (49) 
CN1CCN(C(N)=NS(=O)(=O)c2ccccc2NCCc2ccccc2)CC1

>  <score_type>  (49) 
oracle

>  <origin>  (49) 
adgpu

>  <m_score__min__energy>  (49) 
-7.9299999999999997

>  <m_primary>  (49) 
energy

$$$$
49:0
     RDKit          3D

 55 58  0  0  0  0  0  0  0  0999 V2000
   -0.2240   23.1120  -24.1260 C   0  0  0  0  0  0  0  0  0  0  0  0
   -0.4970   24.5420  -24.4620 C   0  0  0  0  0  0  0  0  0  0  0  0
   -0.8320   25.4770  -23.5520 N   0  0  0  0  0  0  0  0  0  0  0  0
   -0.9850   26.5990  -24.1960 O   0  0  0  0  0  0  0  0  0  0  0  0
   -0.7740   26.4420  -25.4830 C   0  0  0  0  0  0  0  0  0  0  0  0
   -0.8250   27.5490  -26.4840 C   0  0  0  0  0  0  0  0  0  0  0  0
   -0.4650   25.1160  -25.7190 C   0  0  0  0  0  0  0  0  0  0  0  0
   -0.0630   24.4770  -27.0160 C   0  0  0  0  0  0  0  0  0  0  0  0
   -1.2390   24.2890  -27.8600 N   0  0  0  0  0  0  0  0  0  0  0  0
   -1.6790   25.1420  -28.8040 C   0  0  0  0  0  0  0  0  0  0  0  0
   -2.7580   24.5530  -29.4160 C   0  0  0  0  0  0  0  0  0  0  0  0
   -3.5530   25.1350  -30.4560 N   0  0  0  0  0  0  0  0  0  0  0  0
   -4.9830   25.0840  -30.5240 C   0  0  0  0  0  0  0  0  0  0  0  0
   -5.6350   26.1390  -30.3020 O   0  0  0  0  0  0  0  0  0  0  0  0
   -5.7090   23.8470  -30.8910 C   0  0  0  0  0  0  0  0  0  0  0  0
   -7.1120   23.8100  -30.8410 C   0  0  0  0  0  0  0  0  0  0  0  0
   -7.8020   22.6440  -31.1880 C   0  0  0  0  0  0  0  0  0  0  0  0
   -7.1000   21.5060  -31.6030 C   0  0  0  0  0  0  0  0  0  0  0  0
   -7.9690   20.0350  -32.0510 S   0  0  0  0  0  0  0  0  0  0  0  0
   -8.6740   19.4920  -30.8390 O   0  0  0  0  0  0  0  0  0  0  0  0
   -9.0110   20.3690  -33.0830 O   0  0  0  0  0  0  0  0  0  0  0  0
   -6.8900   18.8170  -32.6850 N   0  0  0  0  0  0  0  0  0  0  0  0
   -6.4190   19.1970  -34.0250 C   0  0  0  0  0  0  0  0  0  0  0  0
   -5.2840   18.2610  -34.4790 C   0  0  0  0  0  0  0  0  0  0  0  0
   -5.3260   16.8980  -33.7680 C   0  0  0  0  0  0  0  0  0  0  0  0
   -6.7690   16.4510  -33.5210 C   0  0  0  0  0  0  0  0  0  0  0  0
   -7.5660   17.5030  -32.7160 C   0  0  0  0  0  0  0  0  0  0  0  0
   -5.7020   21.5420  -31.6720 C   0  0  0  0  0  0  0  0  0  0  0  0
   -5.0100   22.7060  -31.3250 C   0  0  0  0  0  0  0  0  0  0  0  0
   -2.9430   23.3390  -28.7840 C   0  0  0  0  0  0  0  0  0  0  0  0
   -1.9920   23.1970  -27.8410 N   0  0  0  0  0  0  0  0  0  0  0  0
   -0.2007   22.9902  -23.0330 H   0  0  0  0  0  0  0  0  0  0  0  0
   -1.0173   22.4781  -24.5488 H   0  0  0  0  0  0  0  0  0  0  0  0
    0.7471   22.8149  -24.5488 H   0  0  0  0  0  0  0  0  0  0  0  0
   -0.8695   28.5152  -25.9602 H   0  0  0  0  0  0  0  0  0  0  0  0
    0.0757   27.5149  -27.1146 H   0  0  0  0  0  0  0  0  0  0  0  0
   -1.7187   27.4323  -27.1146 H   0  0  0  0  0  0  0  0  0  0  0  0
    0.6586   25.1255  -27.5344 H   0  0  0  0  0  0  0  0  0  0  0  0
    0.3975   23.4991  -26.8117 H   0  0  0  0  0  0  0  0  0  0  0  0
   -1.2531   26.1281  -29.0412 H   0  0  0  0  0  0  0  0  0  0  0  0
   -7.6716   24.7035  -30.5270 H   0  0  0  0  0  0  0  0  0  0  0  0
   -8.9005   22.6210  -31.1346 H   0  0  0  0  0  0  0  0  0  0  0  0
   -7.2546   19.1257  -34.7369 H   0  0  0  0  0  0  0  0  0  0  0  0
   -6.0393   20.2288  -33.9910 H   0  0  0  0  0  0  0  0  0  0  0  0
   -5.3744   18.0966  -35.5629 H   0  0  0  0  0  0  0  0  0  0  0  0
   -4.3294   18.7433  -34.2218 H   0  0  0  0  0  0  0  0  0  0  0  0
   -4.8202   16.1494  -34.3956 H   0  0  0  0  0  0  0  0  0  0  0  0
   -4.8183   16.9941  -32.7969 H   0  0  0  0  0  0  0  0  0  0  0  0
   -7.2642   16.2946  -34.4907 H   0  0  0  0  0  0  0  0  0  0  0  0
   -6.7432   15.5201  -32.9356 H   0  0  0  0  0  0  0  0  0  0  0  0
   -8.5566   17.6258  -33.1782 H   0  0  0  0  0  0  0  0  0  0  0  0
   -7.6475   17.1424  -31.6800 H   0  0  0  0  0  0  0  0  0  0  0  0
   -5.1463   20.6513  -32.0004 H   0  0  0  0  0  0  0  0  0  0  0  0
   -3.9123   22.7299  -31.3917 H   0  0  0  0  0  0  0  0  0  0  0  0
   -3.7345   22.6101  -29.0126 H   0  0  0  0  0  0  0  0  0  0  0  0
  1  2  1  0
  2  3  2  0
  3  4  1  0
  4  5  1  0
  5  6  1  0
  5  7  2  0
  7  8  1  0
  8  9  1  0
  9 10  1  0
 10 11  2  0
 11 12  1  0
 12 13  1  0
 13 14  2  0
 13 15  1  0
 15 16  2  0
 16 17  1  0
 17 18  2  0
 18 19  1  0
 19 20  2  0
 19 21  2  0
 19 22  1  0
 22 23  1  0
 23 24  1  0
 24 25  1  0
 25 26  1  0
 26 27  1  0
 18 28  1  0
 28 29  2  0
 11 30  1  0
 30 31  2  0
  7  2  1  0
 31  9  1  0
 29 15  1  0
 27 22  1  0
  1 32  1  0
  1 33  1  0
  1 34  1  0
  6 35  1  0
  6 36  1  0
  6 37  1  0
  8 38  1  0
  8 39  1  0
 10 40  1  0
 16 41  1  0
 17 42  1  0
 23 43  1  0
 23 44  1  0
 24 45  1  0
 24 46  1  0
 25 47  1  0
 25 48  1  0
 26 49  1  0
 26 50  1  0
 27 51  1  0
 27 52  1  0
 28 53  1  0
 29 54  1  0
 30 55  1  0
M  CHG  1  12  -1
M  END
>  <UniqueID>  (50) 
48

>  <SMILES>  (50) 
Cc1noc(C)c1Cn1cc([N-]C(=O)c2ccc(S(=O)(=O)N3CCCCC3)cc2)cn1

>  <Energy>  (50) 
122.81224540722569

>  <Genealogy>  (50) 
Cc1noc(C)c1Cn1cc([N-]C(=O)c2ccc(S(=O)(=O)N3CCCCC3)cc2)cn1 (protonated)
Cc1noc(C)c1Cn1cc([N-]C(=O)c2ccc(S(=O)(=O)N3CCCCC3)cc2)cn1 (3D coordinates assigned)
Cc1noc(C)c1Cn1cc([N-]C(=O)c2ccc(S(=O)(=O)N3CCCCC3)cc2)cn1 (nonaromatic ring conformer: 122.81224540722569 kcal/mol)

>  <smiles>  (50) 
Cc1noc(C)c1Cn1cc(NC(=O)c2ccc(S(=O)(=O)N3CCCCC3)cc2)cn1

>  <score_type>  (50) 
oracle

>  <origin>  (50) 
adgpu

>  <m_score__min__energy>  (50) 
-12

>  <m_primary>  (50) 
energy

$$$$
