0:0
     RDKit          3D

 44 46  0  0  0  0  0  0  0  0999 V2000
   -3.7930   25.2900  -30.4730 O   0  0  0  0  0  0  0  0  0  0  0  0
   -4.0440   24.4530  -29.5640 C   0  0  0  0  0  0  0  0  0  0  0  0
   -5.3290   23.6680  -29.6170 C   0  0  0  0  0  0  0  0  0  0  0  0
   -6.5200   24.3960  -30.7980 S   0  0  0  0  0  0  0  0  0  0  0  0
   -7.0440   22.8040  -31.4360 C   0  0  0  0  0  0  0  0  0  0  0  0
   -8.3400   22.3390  -31.1820 C   0  0  0  0  0  0  0  0  0  0  0  0
   -8.7490   21.0980  -31.6800 C   0  0  0  0  0  0  0  0  0  0  0  0
   -7.8650   20.3210  -32.4360 C   0  0  0  0  0  0  0  0  0  0  0  0
   -6.5710   20.7860  -32.6950 C   0  0  0  0  0  0  0  0  0  0  0  0
   -6.1610   22.0280  -32.1970 C   0  0  0  0  0  0  0  0  0  0  0  0
   -3.0390   24.2230  -28.4920 C   0  0  0  0  0  0  0  0  0  0  0  0
   -1.8580   23.4950  -28.7380 C   0  0  0  0  0  0  0  0  0  0  0  0
   -0.9230   23.2930  -27.7190 C   0  0  0  0  0  0  0  0  0  0  0  0
   -1.1500   23.8110  -26.4390 C   0  0  0  0  0  0  0  0  0  0  0  0
    0.0480   23.5750  -25.1680 S   0  0  0  0  0  0  0  0  0  0  0  0
    1.3180   23.0500  -25.7790 O   0  0  0  0  0  0  0  0  0  0  0  0
   -0.4590   22.5650  -24.1760 O   0  0  0  0  0  0  0  0  0  0  0  0
    0.3630   25.1000  -24.3810 N   0  0  0  0  0  0  0  0  0  0  0  0
   -0.8410   25.6500  -23.7560 C   0  0  0  0  0  0  0  0  0  0  0  0
   -0.6640   27.1620  -23.7230 C   0  0  0  0  0  0  0  0  0  0  0  0
    0.4230   27.4670  -24.7450 C   0  0  0  0  0  0  0  0  0  0  0  0
    0.8220   26.1180  -25.3280 C   0  0  0  0  0  0  0  0  0  0  0  0
   -2.3130   24.5480  -26.1890 C   0  0  0  0  0  0  0  0  0  0  0  0
   -3.2500   24.7520  -27.2060 C   0  0  0  0  0  0  0  0  0  0  0  0
   -5.1041   22.6371  -29.9278 H   0  0  0  0  0  0  0  0  0  0  0  0
   -5.7840   23.6882  -28.6157 H   0  0  0  0  0  0  0  0  0  0  0  0
   -9.0371   22.9504  -30.5902 H   0  0  0  0  0  0  0  0  0  0  0  0
   -9.7665   20.7326  -31.4771 H   0  0  0  0  0  0  0  0  0  0  0  0
   -8.1871   19.3445  -32.8268 H   0  0  0  0  0  0  0  0  0  0  0  0
   -5.8760   20.1754  -33.2900 H   0  0  0  0  0  0  0  0  0  0  0  0
   -5.1447   22.3948  -32.4034 H   0  0  0  0  0  0  0  0  0  0  0  0
   -1.6703   23.0823  -29.7402 H   0  0  0  0  0  0  0  0  0  0  0  0
   -0.0042   22.7241  -27.9242 H   0  0  0  0  0  0  0  0  0  0  0  0
    1.0980   24.9520  -23.6480 H   0  0  0  0  0  0  0  0  0  0  0  0
   -1.7300   25.3850  -24.3471 H   0  0  0  0  0  0  0  0  0  0  0  0
   -0.9813   25.2455  -22.7428 H   0  0  0  0  0  0  0  0  0  0  0  0
   -1.6027   27.6650  -23.9985 H   0  0  0  0  0  0  0  0  0  0  0  0
   -0.3917   27.5191  -22.7188 H   0  0  0  0  0  0  0  0  0  0  0  0
    0.0344   28.1273  -25.5343 H   0  0  0  0  0  0  0  0  0  0  0  0
    1.2797   27.9841  -24.2882 H   0  0  0  0  0  0  0  0  0  0  0  0
    0.3413   25.9703  -26.3063 H   0  0  0  0  0  0  0  0  0  0  0  0
    1.9099   26.0574  -25.4787 H   0  0  0  0  0  0  0  0  0  0  0  0
   -2.4905   24.9685  -25.1882 H   0  0  0  0  0  0  0  0  0  0  0  0
   -4.1614   25.3320  -26.9985 H   0  0  0  0  0  0  0  0  0  0  0  0
  1  2  2  0
  2  3  1  0
  3  4  1  0
  4  5  1  0
  5  6  2  0
  6  7  1  0
  7  8  2  0
  8  9  1  0
  9 10  2  0
  2 11  1  0
 11 12  2  0
 12 13  1  0
 13 14  2  0
 14 15  1  0
 15 16  2  0
 15 17  2  0
 15 18  1  0
 18 19  1  0
 19 20  1  0
 20 21  1  0
 21 22  1  0
 14 23  1  0
 23 24  2  0
 10  5  1  0
 24 11  1  0
 22 18  1  0
  3 25  1  0
  3 26  1  0
  6 27  1  0
  7 28  1  0
  8 29  1  0
  9 30  1  0
 10 31  1  0
 12 32  1  0
 13 33  1  0
 18 34  1  0
 19 35  1  0
 19 36  1  0
 20 37  1  0
 20 38  1  0
 21 39  1  0
 21 40  1  0
 22 41  1  0
 22 42  1  0
 23 43  1  0
 24 44  1  0
M  CHG  1  18   1
M  END
>  <UniqueID>  (1) 
1

>  <SMILES>  (1) 
O=C(CSc1ccccc1)c1ccc(S(=O)(=O)[NH+]2CCCC2)cc1

>  <Energy>  (1) 
44.07166241521435

>  <Genealogy>  (1) 
O=C(CSc1ccccc1)c1ccc(S(=O)(=O)[NH+]2CCCC2)cc1 (protonated)
O=C(CSc1ccccc1)c1ccc(S(=O)(=O)[NH+]2CCCC2)cc1 (3D coordinates assigned)
O=C(CSc1ccccc1)c1ccc(S(=O)(=O)[NH+]2CCCC2)cc1 (nonaromatic ring conformer: 44.07166241521435 kcal/mol)

>  <smiles>  (1) 
O=C(CSc1ccccc1)c1ccc(S(=O)(=O)N2CCCC2)cc1

>  <score_type>  (1) 
oracle

>  <origin>  (1) 
adgpu

>  <m_score__min__energy>  (1) 
-9.5

>  <m_primary>  (1) 
energy

$$$$
1:0
     RDKit          3D

 52 55  0  0  0  0  0  0  0  0999 V2000
   -9.6890   21.9240  -30.9230 C   0  0  0  0  0  0  0  0  0  0  0  0
   -9.3130   20.5760  -30.6710 O   0  0  0  0  0  0  0  0  0  0  0  0
   -8.3840   19.8540  -31.4320 C   0  0  0  0  0  0  0  0  0  0  0  0
   -8.6720   18.5960  -31.9750 C   0  0  0  0  0  0  0  0  0  0  0  0
   -7.7160   17.9240  -32.7320 C   0  0  0  0  0  0  0  0  0  0  0  0
   -6.4460   18.4900  -32.9550 C   0  0  0  0  0  0  0  0  0  0  0  0
   -5.4920   17.8290  -33.7400 C   0  0  0  0  0  0  0  0  0  0  0  0
   -5.7790   16.6980  -34.2270 O   0  0  0  0  0  0  0  0  0  0  0  0
   -4.2630   18.3920  -33.9870 N   0  0  0  0  0  0  0  0  0  0  0  0
   -3.3450   17.6480  -34.8740 C   0  0  0  0  0  0  0  0  0  0  0  0
   -3.8930   19.5770  -33.3750 C   0  0  0  0  0  0  0  0  0  0  0  0
   -2.4660   20.1300  -33.5130 C   0  0  0  0  0  0  0  0  0  0  0  0
   -1.5530   19.6760  -32.4380 N   0  0  0  0  0  0  0  0  0  0  0  0
   -1.0540   18.3170  -32.7410 C   0  0  0  0  0  0  0  0  0  0  0  0
   -0.0720   17.8380  -31.6520 C   0  0  0  0  0  0  0  0  0  0  0  0
    0.1890   18.8310  -30.6830 O   0  0  0  0  0  0  0  0  0  0  0  0
    0.6620   19.9980  -31.3180 C   0  0  0  0  0  0  0  0  0  0  0  0
   -0.4090   20.6030  -32.2560 C   0  0  0  0  0  0  0  0  0  0  0  0
   -4.8440   20.2840  -32.5850 C   0  0  0  0  0  0  0  0  0  0  0  0
   -4.5030   21.5830  -31.9570 C   0  0  0  0  0  0  0  0  0  0  0  0
   -5.3290   22.6980  -32.1600 C   0  0  0  0  0  0  0  0  0  0  0  0
   -4.9900   23.9290  -31.5960 C   0  0  0  0  0  0  0  0  0  0  0  0
   -3.8250   24.0560  -30.8330 C   0  0  0  0  0  0  0  0  0  0  0  0
   -3.4890   25.2820  -30.2770 O   0  0  0  0  0  0  0  0  0  0  0  0
   -2.9980   22.9480  -30.6300 C   0  0  0  0  0  0  0  0  0  0  0  0
   -3.3300   21.7160  -31.1970 C   0  0  0  0  0  0  0  0  0  0  0  0
   -6.1330   19.7410  -32.3940 C   0  0  0  0  0  0  0  0  0  0  0  0
   -7.1260   20.4180  -31.6490 C   0  0  0  0  0  0  0  0  0  0  0  0
   -9.8353   22.4486  -29.9673 H   0  0  0  0  0  0  0  0  0  0  0  0
   -8.8961   22.4244  -31.4983 H   0  0  0  0  0  0  0  0  0  0  0  0
  -10.6264   21.9418  -31.4983 H   0  0  0  0  0  0  0  0  0  0  0  0
   -9.6568   18.1371  -31.8030 H   0  0  0  0  0  0  0  0  0  0  0  0
   -7.9555   16.9397  -33.1608 H   0  0  0  0  0  0  0  0  0  0  0  0
   -2.6335   17.0714  -34.2647 H   0  0  0  0  0  0  0  0  0  0  0  0
   -3.9245   16.9616  -35.5088 H   0  0  0  0  0  0  0  0  0  0  0  0
   -2.7935   18.3571  -35.5088 H   0  0  0  0  0  0  0  0  0  0  0  0
   -2.0568   19.8018  -34.4799 H   0  0  0  0  0  0  0  0  0  0  0  0
   -2.5337   21.2255  -33.4407 H   0  0  0  0  0  0  0  0  0  0  0  0
   -2.0750   19.6230  -31.5370 H   0  0  0  0  0  0  0  0  0  0  0  0
   -1.9057   17.6226  -32.7891 H   0  0  0  0  0  0  0  0  0  0  0  0
   -0.5256   18.3426  -33.7054 H   0  0  0  0  0  0  0  0  0  0  0  0
   -0.5038   16.9599  -31.1495 H   0  0  0  0  0  0  0  0  0  0  0  0
    0.8806   17.5947  -32.1454 H   0  0  0  0  0  0  0  0  0  0  0  0
    0.9268   20.7407  -30.5510 H   0  0  0  0  0  0  0  0  0  0  0  0
    1.5413   19.7313  -31.9227 H   0  0  0  0  0  0  0  0  0  0  0  0
   -0.7763   21.5440  -31.8204 H   0  0  0  0  0  0  0  0  0  0  0  0
    0.0519   20.7823  -33.2386 H   0  0  0  0  0  0  0  0  0  0  0  0
   -6.2437   22.6025  -32.7635 H   0  0  0  0  0  0  0  0  0  0  0  0
   -5.6411   24.8017  -31.7522 H   0  0  0  0  0  0  0  0  0  0  0  0
   -2.0856   23.0464  -30.0236 H   0  0  0  0  0  0  0  0  0  0  0  0
   -2.6712   20.8478  -31.0479 H   0  0  0  0  0  0  0  0  0  0  0  0
   -6.9021   21.4107  -31.2314 H   0  0  0  0  0  0  0  0  0  0  0  0
  1  2  1  0
  2  3  1  0
  3  4  2  0
  4  5  1  0
  5  6  2  0
  6  7  1  0
  7  8  2  0
  7  9  1  0
  9 10  1  0
  9 11  1  0
 11 12  1  0
 12 13  1  0
 13 14  1  0
 14 15  1  0
 15 16  1  0
 16 17  1  0
 17 18  1  0
 11 19  2  0
 19 20  1  0
 20 21  2  0
 21 22  1  0
 22 23  2  0
 23 24  1  0
 23 25  1  0
 25 26  2  0
 19 27  1  0
 27 28  2  0
 28  3  1  0
 27  6  1  0
 18 13  1  0
 26 20  1  0
  1 29  1  0
  1 30  1  0
  1 31  1  0
  4 32  1  0
  5 33  1  0
 10 34  1  0
 10 35  1  0
 10 36  1  0
 12 37  1  0
 12 38  1  0
 13 39  1  0
 14 40  1  0
 14 41  1  0
 15 42  1  0
 15 43  1  0
 17 44  1  0
 17 45  1  0
 18 46  1  0
 18 47  1  0
 21 48  1  0
 22 49  1  0
 25 50  1  0
 26 51  1  0
 28 52  1  0
M  CHG  2  13   1  24  -1
M  END
>  <UniqueID>  (2) 
2

>  <SMILES>  (2) 
COc1ccc2c(=O)n(C)c(C[NH+]3CCOCC3)c(-c3ccc([O-])cc3)c2c1

>  <Energy>  (2) 
89.82420408441584

>  <Genealogy>  (2) 
COc1ccc2c(=O)n(C)c(C[NH+]3CCOCC3)c(-c3ccc([O-])cc3)c2c1 (protonated)
COc1ccc2c(=O)n(C)c(C[NH+]3CCOCC3)c(-c3ccc([O-])cc3)c2c1 (3D coordinates assigned)
COc1ccc2c(=O)n(C)c(C[NH+]3CCOCC3)c(-c3ccc([O-])cc3)c2c1 (nonaromatic ring conformer: 89.82420408441584 kcal/mol)

>  <smiles>  (2) 
COc1ccc2c(=O)n(C)c(CN3CCOCC3)c(-c3ccc(O)cc3)c2c1

>  <score_type>  (2) 
oracle

>  <origin>  (2) 
adgpu

>  <m_score__min__energy>  (2) 
-9.9299999999999997

>  <m_primary>  (2) 
energy

$$$$
2:0
     RDKit          3D

 46 47  0  0  0  0  0  0  0  0999 V2000
   -2.7460   20.6080  -27.5370 C   0  0  0  0  0  0  0  0  0  0  0  0
   -2.2210   22.0220  -27.3050 C   0  0  0  0  0  0  0  0  0  0  0  0
   -2.8560   22.9970  -28.2700 C   0  0  0  0  0  0  0  0  0  0  0  0
   -4.2260   22.8790  -28.5500 C   0  0  0  0  0  0  0  0  0  0  0  0
   -4.8660   23.7800  -29.4190 C   0  0  0  0  0  0  0  0  0  0  0  0
   -6.2730   23.6700  -29.7200 N   0  0  0  0  0  0  0  0  0  0  0  0
   -6.8850   24.2550  -30.9160 C   0  0  0  0  0  0  0  0  0  0  0  0
   -7.9840   23.3520  -31.4920 C   0  0  0  0  0  0  0  0  0  0  0  0
   -7.4320   22.0240  -31.9430 C   0  0  0  0  0  0  0  0  0  0  0  0
   -8.2650   20.8980  -31.9910 C   0  0  0  0  0  0  0  0  0  0  0  0
   -7.7690   19.6700  -32.4320 C   0  0  0  0  0  0  0  0  0  0  0  0
   -6.4260   19.5480  -32.8380 C   0  0  0  0  0  0  0  0  0  0  0  0
   -5.8920   18.3310  -33.2900 O   0  0  0  0  0  0  0  0  0  0  0  0
   -5.5210   18.0650  -34.6390 C   0  0  0  0  0  0  0  0  0  0  0  0
   -5.5860   20.6720  -32.7980 C   0  0  0  0  0  0  0  0  0  0  0  0
   -4.2530   20.5220  -33.2130 O   0  0  0  0  0  0  0  0  0  0  0  0
   -3.1670   21.3150  -32.7450 C   0  0  0  0  0  0  0  0  0  0  0  0
   -6.0930   21.9070  -32.3480 C   0  0  0  0  0  0  0  0  0  0  0  0
   -4.0960   24.8050  -29.9960 C   0  0  0  0  0  0  0  0  0  0  0  0
   -4.6210   25.6360  -30.7830 O   0  0  0  0  0  0  0  0  0  0  0  0
   -2.7740   24.9130  -29.7050 N   0  0  0  0  0  0  0  0  0  0  0  0
   -2.1350   24.0580  -28.8620 C   0  0  0  0  0  0  0  0  0  0  0  0
   -0.6690   24.2650  -28.6170 C   0  0  0  0  0  0  0  0  0  0  0  0
   -2.9270   20.1205  -26.5677 H   0  0  0  0  0  0  0  0  0  0  0  0
   -3.6867   20.6548  -28.1053 H   0  0  0  0  0  0  0  0  0  0  0  0
   -2.0027   20.0295  -28.1053 H   0  0  0  0  0  0  0  0  0  0  0  0
   -2.4562   22.3293  -26.2753 H   0  0  0  0  0  0  0  0  0  0  0  0
   -1.1330   22.0245  -27.4671 H   0  0  0  0  0  0  0  0  0  0  0  0
   -4.8073   22.0703  -28.0830 H   0  0  0  0  0  0  0  0  0  0  0  0
   -6.8820   23.1440  -29.0540 H   0  0  0  0  0  0  0  0  0  0  0  0
   -7.3254   25.2277  -30.6514 H   0  0  0  0  0  0  0  0  0  0  0  0
   -6.1018   24.3709  -31.6797 H   0  0  0  0  0  0  0  0  0  0  0  0
   -8.7451   23.1775  -30.7172 H   0  0  0  0  0  0  0  0  0  0  0  0
   -8.4212   23.8572  -32.3658 H   0  0  0  0  0  0  0  0  0  0  0  0
   -9.3165   20.9825  -31.6791 H   0  0  0  0  0  0  0  0  0  0  0  0
   -8.4312   18.7922  -32.4626 H   0  0  0  0  0  0  0  0  0  0  0  0
   -4.6271   17.4241  -34.6539 H   0  0  0  0  0  0  0  0  0  0  0  0
   -6.3480   17.5528  -35.1525 H   0  0  0  0  0  0  0  0  0  0  0  0
   -5.3013   19.0126  -35.1525 H   0  0  0  0  0  0  0  0  0  0  0  0
   -3.1626   21.3182  -31.6450 H   0  0  0  0  0  0  0  0  0  0  0  0
   -2.2200   20.8944  -33.1142 H   0  0  0  0  0  0  0  0  0  0  0  0
   -3.2793   22.3451  -33.1142 H   0  0  0  0  0  0  0  0  0  0  0  0
   -5.4340   22.7871  -32.3137 H   0  0  0  0  0  0  0  0  0  0  0  0
   -0.4785   24.2919  -27.5340 H   0  0  0  0  0  0  0  0  0  0  0  0
   -0.1014   23.4381  -29.0687 H   0  0  0  0  0  0  0  0  0  0  0  0
   -0.3526   25.2167  -29.0687 H   0  0  0  0  0  0  0  0  0  0  0  0
  1  2  1  0
  2  3  1  0
  3  4  1  0
  4  5  2  0
  5  6  1  0
  6  7  1  0
  7  8  1  0
  8  9  1  0
  9 10  2  0
 10 11  1  0
 11 12  2  0
 12 13  1  0
 13 14  1  0
 12 15  1  0
 15 16  1  0
 16 17  1  0
 15 18  2  0
  5 19  1  0
 19 20  2  0
 19 21  1  0
 21 22  1  0
 22 23  1  0
 22  3  2  0
 18  9  1  0
  1 24  1  0
  1 25  1  0
  1 26  1  0
  2 27  1  0
  2 28  1  0
  4 29  1  0
  6 30  1  0
  7 31  1  0
  7 32  1  0
  8 33  1  0
  8 34  1  0
 10 35  1  0
 11 36  1  0
 14 37  1  0
 14 38  1  0
 14 39  1  0
 17 40  1  0
 17 41  1  0
 17 42  1  0
 18 43  1  0
 23 44  1  0
 23 45  1  0
 23 46  1  0
M  CHG  1  21  -1
M  END
>  <UniqueID>  (3) 
3

>  <SMILES>  (3) 
CCc1cc(NCCc2ccc(OC)c(OC)c2)c(=O)[n-]c1C

>  <Energy>  (3) 
40.44865974650423

>  <Genealogy>  (3) 
CCc1cc(NCCc2ccc(OC)c(OC)c2)c(=O)[n-]c1C (protonated)
CCc1cc(NCCc2ccc(OC)c(OC)c2)c(=O)[n-]c1C (3D coordinates assigned)
CCc1cc(NCCc2ccc(OC)c(OC)c2)c(=O)[n-]c1C (optimized conformer: 40.44865974650423 kcal/mol)

>  <smiles>  (3) 
CCc1cc(NCCc2ccc(OC)c(OC)c2)c(=O)[nH]c1C

>  <score_type>  (3) 
oracle

>  <origin>  (3) 
adgpu

>  <m_score__min__energy>  (3) 
-9.3599999999999994

>  <m_primary>  (3) 
energy

$$$$
3:0
     RDKit          3D

 38 40  0  0  0  0  0  0  0  0999 V2000
   -6.1000   17.9480  -34.2670 C   0  0  0  0  0  0  0  0  0  0  0  0
   -5.3290   19.1450  -34.3040 O   0  0  0  0  0  0  0  0  0  0  0  0
   -5.3230   20.1150  -33.2910 C   0  0  0  0  0  0  0  0  0  0  0  0
   -4.1770   20.8640  -32.9680 C   0  0  0  0  0  0  0  0  0  0  0  0
   -4.2220   21.8180  -31.9470 C   0  0  0  0  0  0  0  0  0  0  0  0
   -5.4070   22.0320  -31.2230 C   0  0  0  0  0  0  0  0  0  0  0  0
   -5.4720   23.0560  -30.1560 C   0  0  0  0  0  0  0  0  0  0  0  0
   -6.5990   23.4780  -29.7820 O   0  0  0  0  0  0  0  0  0  0  0  0
   -4.2600   23.6070  -29.5150 C   0  0  0  0  0  0  0  0  0  0  0  0
   -3.5290   22.9990  -28.5040 C   0  0  0  0  0  0  0  0  0  0  0  0
   -2.4560   23.7590  -28.1910 N   0  0  0  0  0  0  0  0  0  0  0  0
   -1.4140   23.4180  -27.2250 C   0  0  0  0  0  0  0  0  0  0  0  0
   -1.2810   24.5150  -26.2050 C   0  0  0  0  0  0  0  0  0  0  0  0
   -0.1080   24.6530  -25.4510 C   0  0  0  0  0  0  0  0  0  0  0  0
   -0.0140   25.6520  -24.4800 C   0  0  0  0  0  0  0  0  0  0  0  0
   -1.1020   26.5000  -24.2660 C   0  0  0  0  0  0  0  0  0  0  0  0
   -2.2390   26.3460  -24.9940 N   0  0  0  0  0  0  0  0  0  0  0  0
   -2.3550   25.3810  -25.9460 C   0  0  0  0  0  0  0  0  0  0  0  0
   -2.4770   24.8250  -29.0140 C   0  0  0  0  0  0  0  0  0  0  0  0
   -1.5110   25.8250  -29.0280 O   0  0  0  0  0  0  0  0  0  0  0  0
   -3.5710   24.7640  -29.8420 C   0  0  0  0  0  0  0  0  0  0  0  0
   -3.8840   25.6680  -30.8490 O   0  0  0  0  0  0  0  0  0  0  0  0
   -6.5540   21.2950  -31.5610 C   0  0  0  0  0  0  0  0  0  0  0  0
   -6.5080   20.3420  -32.5820 C   0  0  0  0  0  0  0  0  0  0  0  0
   -6.2839   17.6625  -33.2207 H   0  0  0  0  0  0  0  0  0  0  0  0
   -7.0608   18.1149  -34.7758 H   0  0  0  0  0  0  0  0  0  0  0  0
   -5.5507   17.1422  -34.7758 H   0  0  0  0  0  0  0  0  0  0  0  0
   -3.2409   20.6983  -33.5214 H   0  0  0  0  0  0  0  0  0  0  0  0
   -3.3230   22.4054  -31.7087 H   0  0  0  0  0  0  0  0  0  0  0  0
   -3.7849   22.0409  -28.0281 H   0  0  0  0  0  0  0  0  0  0  0  0
   -1.6804   22.4790  -26.7178 H   0  0  0  0  0  0  0  0  0  0  0  0
   -0.4567   23.2974  -27.7532 H   0  0  0  0  0  0  0  0  0  0  0  0
    0.7396   23.9736  -25.6242 H   0  0  0  0  0  0  0  0  0  0  0  0
    0.9071   25.7695  -23.8903 H   0  0  0  0  0  0  0  0  0  0  0  0
   -1.0389   27.2938  -23.5072 H   0  0  0  0  0  0  0  0  0  0  0  0
   -3.2917   25.2792  -26.5136 H   0  0  0  0  0  0  0  0  0  0  0  0
   -7.4948   21.4692  -31.0183 H   0  0  0  0  0  0  0  0  0  0  0  0
   -7.4111   19.7652  -32.8306 H   0  0  0  0  0  0  0  0  0  0  0  0
  1  2  1  0
  2  3  1  0
  3  4  2  0
  4  5  1  0
  5  6  2  0
  6  7  1  0
  7  8  2  0
  7  9  1  0
  9 10  2  0
 10 11  1  0
 11 12  1  0
 12 13  1  0
 13 14  2  0
 14 15  1  0
 15 16  2  0
 16 17  1  0
 17 18  2  0
 11 19  1  0
 19 20  1  0
 19 21  2  0
 21 22  1  0
  6 23  1  0
 23 24  2  0
 24  3  1  0
 21  9  1  0
 18 13  1  0
  1 25  1  0
  1 26  1  0
  1 27  1  0
  4 28  1  0
  5 29  1  0
 10 30  1  0
 12 31  1  0
 12 32  1  0
 14 33  1  0
 15 34  1  0
 16 35  1  0
 18 36  1  0
 23 37  1  0
 24 38  1  0
M  CHG  2  20  -1  22  -1
M  END
>  <UniqueID>  (4) 
4

>  <SMILES>  (4) 
COc1ccc(C(=O)c2cn(Cc3cccnc3)c([O-])c2[O-])cc1

>  <Energy>  (4) 
73.60554708328884

>  <Genealogy>  (4) 
COc1ccc(C(=O)c2cn(Cc3cccnc3)c([O-])c2[O-])cc1 (protonated)
COc1ccc(C(=O)c2cn(Cc3cccnc3)c([O-])c2[O-])cc1 (3D coordinates assigned)
COc1ccc(C(=O)c2cn(Cc3cccnc3)c([O-])c2[O-])cc1 (optimized conformer: 73.60554708328884 kcal/mol)

>  <smiles>  (4) 
COc1ccc(C(=O)c2cn(Cc3cccnc3)c(O)c2O)cc1

>  <score_type>  (4) 
oracle

>  <origin>  (4) 
adgpu

>  <m_score__min__energy>  (4) 
-12.91

>  <m_primary>  (4) 
energy

$$$$
4:0
     RDKit          3D

 46 48  0  0  0  0  0  0  0  0999 V2000
   -5.5050   18.8690  -34.1550 C   0  0  0  0  0  0  0  0  0  0  0  0
   -4.3780   19.1160  -33.4770 C   0  0  0  0  0  0  0  0  0  0  0  0
   -3.5800   20.3700  -33.6940 C   0  0  0  0  0  0  0  0  0  0  0  0
   -2.3090   20.3220  -32.8860 C   0  0  0  0  0  0  0  0  0  0  0  0
   -2.3770   20.1340  -31.4950 C   0  0  0  0  0  0  0  0  0  0  0  0
   -1.2090   20.0970  -30.7170 C   0  0  0  0  0  0  0  0  0  0  0  0
   -1.2960   19.8870  -29.2520 C   0  0  0  0  0  0  0  0  0  0  0  0
   -0.8660   18.8120  -28.7550 O   0  0  0  0  0  0  0  0  0  0  0  0
   -1.9050   20.8500  -28.3820 N   0  0  0  0  0  0  0  0  0  0  0  0
   -1.8190   22.2770  -28.5110 C   0  0  0  0  0  0  0  0  0  0  0  0
   -0.9570   23.0420  -27.7060 C   0  0  0  0  0  0  0  0  0  0  0  0
   -0.9020   24.4280  -27.8560 C   0  0  0  0  0  0  0  0  0  0  0  0
   -1.7210   25.0700  -28.7910 C   0  0  0  0  0  0  0  0  0  0  0  0
   -1.6050   26.4450  -28.9580 O   0  0  0  0  0  0  0  0  0  0  0  0
   -2.6310   24.3180  -29.5620 C   0  0  0  0  0  0  0  0  0  0  0  0
   -3.5080   24.9320  -30.5180 N   0  0  0  0  0  0  0  0  0  0  0  0
   -4.9420   24.9410  -30.4660 C   0  0  0  0  0  0  0  0  0  0  0  0
   -5.5250   26.0040  -30.1220 O   0  0  0  0  0  0  0  0  0  0  0  0
   -5.7510   23.7580  -30.8450 C   0  0  0  0  0  0  0  0  0  0  0  0
   -5.4140   22.9800  -31.9680 C   0  0  0  0  0  0  0  0  0  0  0  0
   -6.1840   21.8650  -32.3130 C   0  0  0  0  0  0  0  0  0  0  0  0
   -7.3030   21.5220  -31.5500 C   0  0  0  0  0  0  0  0  0  0  0  0
   -7.6570   22.2970  -30.4430 C   0  0  0  0  0  0  0  0  0  0  0  0
   -6.8900   23.4130  -30.0930 C   0  0  0  0  0  0  0  0  0  0  0  0
   -2.6560   22.9250  -29.4280 C   0  0  0  0  0  0  0  0  0  0  0  0
    0.0350   20.2870  -31.3420 C   0  0  0  0  0  0  0  0  0  0  0  0
    0.1090   20.4930  -32.7210 C   0  0  0  0  0  0  0  0  0  0  0  0
   -1.0560   20.5140  -33.4990 C   0  0  0  0  0  0  0  0  0  0  0  0
   -0.9700   20.7270  -34.8740 O   0  0  0  0  0  0  0  0  0  0  0  0
   -6.0651   17.9402  -33.9713 H   0  0  0  0  0  0  0  0  0  0  0  0
   -5.8713   19.5947  -34.8960 H   0  0  0  0  0  0  0  0  0  0  0  0
   -4.0259   18.3796  -32.7396 H   0  0  0  0  0  0  0  0  0  0  0  0
   -3.3293   20.4615  -34.7611 H   0  0  0  0  0  0  0  0  0  0  0  0
   -4.1773   21.2365  -33.3739 H   0  0  0  0  0  0  0  0  0  0  0  0
   -3.3570   20.0144  -31.0100 H   0  0  0  0  0  0  0  0  0  0  0  0
   -0.3238   22.5462  -26.9554 H   0  0  0  0  0  0  0  0  0  0  0  0
   -0.2114   25.0187  -27.2362 H   0  0  0  0  0  0  0  0  0  0  0  0
   -4.5396   23.2506  -32.5781 H   0  0  0  0  0  0  0  0  0  0  0  0
   -5.9082   21.2566  -33.1870 H   0  0  0  0  0  0  0  0  0  0  0  0
   -7.9050   20.6421  -31.8208 H   0  0  0  0  0  0  0  0  0  0  0  0
   -8.5408   22.0290  -29.8454 H   0  0  0  0  0  0  0  0  0  0  0  0
   -7.1784   24.0245  -29.2253 H   0  0  0  0  0  0  0  0  0  0  0  0
   -3.3417   22.3317  -30.0508 H   0  0  0  0  0  0  0  0  0  0  0  0
    0.9563   20.2734  -30.7412 H   0  0  0  0  0  0  0  0  0  0  0  0
    1.0884   20.6398  -33.1997 H   0  0  0  0  0  0  0  0  0  0  0  0
   -1.4840   21.4720  -35.3290 H   0  0  0  0  0  0  0  0  0  0  0  0
  1  2  2  0
  2  3  1  0
  3  4  1  0
  4  5  2  0
  5  6  1  0
  6  7  1  0
  7  8  2  0
  7  9  1  0
  9 10  1  0
 10 11  2  0
 11 12  1  0
 12 13  2  0
 13 14  1  0
 13 15  1  0
 15 16  1  0
 16 17  1  0
 17 18  2  0
 17 19  1  0
 19 20  2  0
 20 21  1  0
 21 22  2  0
 22 23  1  0
 23 24  2  0
 15 25  2  0
  6 26  2  0
 26 27  1  0
 27 28  2  0
 28 29  1  0
 28  4  1  0
 25 10  1  0
 24 19  1  0
  1 30  1  0
  1 31  1  0
  2 32  1  0
  3 33  1  0
  3 34  1  0
  5 35  1  0
 11 36  1  0
 12 37  1  0
 20 38  1  0
 21 39  1  0
 22 40  1  0
 23 41  1  0
 24 42  1  0
 25 43  1  0
 26 44  1  0
 27 45  1  0
 29 46  1  0
M  CHG  3   9  -1  14  -1  16  -1
M  END
>  <UniqueID>  (5) 
5

>  <SMILES>  (5) 
C=CCc1cc(C(=O)[N-]c2ccc([O-])c([N-]C(=O)c3ccccc3)c2)ccc1O

>  <Energy>  (5) 
61.76072463679761

>  <Genealogy>  (5) 
C=CCc1cc(C(=O)[N-]c2ccc([O-])c([N-]C(=O)c3ccccc3)c2)ccc1O (protonated)
C=CCc1cc(C(=O)[N-]c2ccc([O-])c([N-]C(=O)c3ccccc3)c2)ccc1O (3D coordinates assigned)
C=CCc1cc(C(=O)[N-]c2ccc([O-])c([N-]C(=O)c3ccccc3)c2)ccc1O (optimized conformer: 61.76072463679761 kcal/mol)

>  <smiles>  (5) 
C=CCc1cc(C(=O)Nc2ccc(O)c(NC(=O)c3ccccc3)c2)ccc1O

>  <score_type>  (5) 
oracle

>  <origin>  (5) 
adgpu

>  <m_score__min__energy>  (5) 
-13.99

>  <m_primary>  (5) 
energy

$$$$
5:0
     RDKit          3D

 45 47  0  0  1  0  0  0  0  0999 V2000
   -2.8290   24.5560  -29.4250 C   0  0  0  0  0  0  0  0  0  0  0  0
   -3.6870   24.9450  -30.4690 O   0  0  0  0  0  0  0  0  0  0  0  0
   -4.8460   24.2230  -30.7200 C   0  0  0  0  0  0  0  0  0  0  0  0
   -6.1040   24.7300  -30.4230 C   0  0  0  0  0  0  0  0  0  0  0  0
   -7.2390   23.9740  -30.6900 C   0  0  0  0  0  0  0  0  0  0  0  0
   -7.1440   22.7010  -31.2570 C   0  0  0  0  0  0  0  0  0  0  0  0
   -8.3170   21.9340  -31.5270 N   0  0  0  0  0  0  0  0  0  0  0  0
   -8.2610   20.4120  -32.3230 S   0  0  0  0  0  0  0  0  0  0  0  0
   -7.1500   20.4140  -33.6410 N   0  0  0  0  0  0  0  0  0  0  0  0
   -7.8550   19.3710  -31.3190 O   0  0  0  0  0  0  0  0  0  0  0  0
   -9.6560   20.0820  -32.7690 O   0  0  0  0  0  0  0  0  0  0  0  0
   -5.8900   22.2410  -31.5340 C   0  0  0  0  0  0  0  0  0  0  0  0
   -4.7410   22.9630  -31.2820 C   0  0  0  0  0  0  0  0  0  0  0  0
   -3.4390   22.4670  -31.5760 N   0  0  0  0  0  0  0  0  0  0  0  0
   -3.2170   21.4790  -32.3480 C   0  0  0  0  0  0  0  0  0  0  0  0
   -4.2360   20.8360  -32.9420 N   0  0  0  0  0  0  0  0  0  0  0  0
   -3.9090   19.8040  -33.7410 C   0  0  0  0  0  0  0  0  0  0  0  0
   -4.9860   19.1020  -34.3870 N   0  0  0  0  0  0  0  0  0  0  0  0
   -5.2530   17.9020  -34.0150 C   0  0  0  0  0  0  0  0  0  0  0  0
   -4.6390   17.1280  -33.0380 C   0  0  0  0  0  0  0  0  0  0  0  0
   -5.3200   15.9260  -33.0530 C   0  0  0  0  0  0  0  0  0  0  0  0
   -4.9790   14.8010  -32.1480 C   0  0  0  0  0  0  0  0  0  0  0  0
   -6.2910   15.9720  -33.9860 N   0  0  0  0  0  0  0  0  0  0  0  0
   -6.2420   17.1670  -34.5600 N   0  0  0  0  0  0  0  0  0  0  0  0
   -2.6070   19.4000  -33.9620 C   0  0  0  0  0  0  0  0  0  0  0  0
   -2.3340   18.3470  -34.7820 F   0  0  0  0  0  0  0  0  0  0  0  0
   -1.5740   20.0920  -33.3260 C   0  0  0  0  0  0  0  0  0  0  0  0
   -1.9210   21.1200  -32.5330 N   0  0  0  0  0  0  0  0  0  0  0  0
   -3.3065   24.7725  -28.4580 H   0  0  0  0  0  0  0  0  0  0  0  0
   -2.6255   23.4776  -29.5002 H   0  0  0  0  0  0  0  0  0  0  0  0
   -1.8838   25.1136  -29.5002 H   0  0  0  0  0  0  0  0  0  0  0  0
   -6.2022   25.7304  -29.9762 H   0  0  0  0  0  0  0  0  0  0  0  0
   -8.2305   24.3857  -30.4504 H   0  0  0  0  0  0  0  0  0  0  0  0
   -9.2210   22.3750  -31.1990 H   0  0  0  0  0  0  0  0  0  0  0  0
   -6.1840   20.6040  -33.3500 H   0  0  0  0  0  0  0  0  0  0  0  0
   -7.2680   19.5330  -34.1910 H   0  0  0  0  0  0  0  0  0  0  0  0
   -5.7892   21.2415  -31.9820 H   0  0  0  0  0  0  0  0  0  0  0  0
   -3.7942   17.4108  -32.3927 H   0  0  0  0  0  0  0  0  0  0  0  0
   -5.0782   15.1284  -31.1026 H   0  0  0  0  0  0  0  0  0  0  0  0
   -5.6625   13.9597  -32.3352 H   0  0  0  0  0  0  0  0  0  0  0  0
   -3.9434   14.4808  -32.3352 H   0  0  0  0  0  0  0  0  0  0  0  0
   -6.9630   15.2190  -34.2250 H   0  0  0  0  0  0  0  0  0  0  0  0
   -6.9040   17.4510  -35.3280 H   0  0  0  0  0  0  0  0  0  0  0  0
   -0.5209   19.8076  -33.4681 H   0  0  0  0  0  0  0  0  0  0  0  0
   -1.1490   21.6580  -32.0420 H   0  0  0  0  0  0  0  0  0  0  0  0
  1  2  1  0
  2  3  1  0
  3  4  2  0
  4  5  1  0
  5  6  2  0
  6  7  1  0
  7  8  1  0
  8  9  1  0
  8 10  2  0
  8 11  2  0
  6 12  1  0
 12 13  2  0
 13 14  1  0
 14 15  2  0
 15 16  1  0
 16 17  2  0
 17 18  1  0
 18 19  2  0
 19 20  1  0
 20 21  2  0
 21 22  1  0
 21 23  1  0
 23 24  1  0
 17 25  1  0
 25 26  1  0
 25 27  2  0
 27 28  1  0
 13  3  1  0
 28 15  1  0
 24 19  1  0
  1 29  1  0
  1 30  1  0
  1 31  1  0
  4 32  1  0
  5 33  1  0
  7 34  1  0
  9 35  1  0
  9 36  1  0
 12 37  1  0
 20 38  1  0
 22 39  1  0
 22 40  1  0
 22 41  1  0
 23 42  1  0
 24 43  1  0
 27 44  1  0
 28 45  1  0
M  END
>  <smiles>  (6) 
COc1ccc(NS(N)(=O)=O)cc1N=c1nc(N=c2cc(C)[nH][nH]2)c(F)c[nH]1

>  <score_type>  (6) 
oracle

>  <origin>  (6) 
adgpu

>  <m_score__min__energy>  (6) 
-9.1999999999999993

>  <m_primary>  (6) 
energy

$$$$
6:0
     RDKit          3D

 46 49  0  0  0  0  0  0  0  0999 V2000
   -2.8010   25.2780  -29.3250 O   0  0  0  0  0  0  0  0  0  0  0  0
   -3.9520   24.6670  -29.8230 C   0  0  0  0  0  0  0  0  0  0  0  0
   -5.0950   25.4370  -30.0940 C   0  0  0  0  0  0  0  0  0  0  0  0
   -6.2420   24.8340  -30.6190 C   0  0  0  0  0  0  0  0  0  0  0  0
   -6.2540   23.4590  -30.8750 C   0  0  0  0  0  0  0  0  0  0  0  0
   -5.1210   22.6850  -30.6040 C   0  0  0  0  0  0  0  0  0  0  0  0
   -3.9660   23.2820  -30.0730 C   0  0  0  0  0  0  0  0  0  0  0  0
   -2.8130   22.4720  -29.7880 N   0  0  0  0  0  0  0  0  0  0  0  0
   -2.9890   21.1020  -29.2950 C   0  0  0  0  0  0  0  0  0  0  0  0
   -1.6360   20.3810  -29.2000 C   0  0  0  0  0  0  0  0  0  0  0  0
   -0.8480   20.5040  -30.4500 N   0  0  0  0  0  0  0  0  0  0  0  0
   -1.2800   19.5170  -31.4640 C   0  0  0  0  0  0  0  0  0  0  0  0
   -2.5480   19.9640  -32.1220 C   0  0  0  0  0  0  0  0  0  0  0  0
   -3.7640   19.4680  -31.8090 N   0  0  0  0  0  0  0  0  0  0  0  0
   -4.7600   20.0200  -32.5590 C   0  0  0  0  0  0  0  0  0  0  0  0
   -6.1800   19.6190  -32.3740 C   0  0  0  0  0  0  0  0  0  0  0  0
   -6.5440   18.2760  -32.1450 C   0  0  0  0  0  0  0  0  0  0  0  0
   -7.8880   17.9250  -31.9710 C   0  0  0  0  0  0  0  0  0  0  0  0
   -8.8820   18.9050  -32.0210 C   0  0  0  0  0  0  0  0  0  0  0  0
   -8.5360   20.2380  -32.2420 C   0  0  0  0  0  0  0  0  0  0  0  0
   -9.5020   21.1890  -32.2880 F   0  0  0  0  0  0  0  0  0  0  0  0
   -7.1950   20.5970  -32.4150 C   0  0  0  0  0  0  0  0  0  0  0  0
   -4.3210   20.9740  -33.4840 C   0  0  0  0  0  0  0  0  0  0  0  0
   -2.6500   21.1100  -33.3430 S   0  0  0  0  0  0  0  0  0  0  0  0
   -0.7760   21.8870  -31.0060 C   0  0  0  0  0  0  0  0  0  0  0  0
   -1.4720   22.9430  -30.1370 C   0  0  0  0  0  0  0  0  0  0  0  0
   -2.1020   25.6740  -29.9420 H   0  0  0  0  0  0  0  0  0  0  0  0
   -5.0877   26.5184  -29.8925 H   0  0  0  0  0  0  0  0  0  0  0  0
   -7.1347   25.4408  -30.8307 H   0  0  0  0  0  0  0  0  0  0  0  0
   -7.1560   22.9856  -31.2901 H   0  0  0  0  0  0  0  0  0  0  0  0
   -5.1346   21.6041  -30.8076 H   0  0  0  0  0  0  0  0  0  0  0  0
   -3.4520   21.1338  -28.2977 H   0  0  0  0  0  0  0  0  0  0  0  0
   -3.6334   20.5534  -29.9977 H   0  0  0  0  0  0  0  0  0  0  0  0
   -1.0585   20.8187  -28.3724 H   0  0  0  0  0  0  0  0  0  0  0  0
   -1.8335   19.3126  -29.0285 H   0  0  0  0  0  0  0  0  0  0  0  0
   -0.4937   19.4128  -32.2261 H   0  0  0  0  0  0  0  0  0  0  0  0
   -1.4571   18.5511  -30.9683 H   0  0  0  0  0  0  0  0  0  0  0  0
   -5.7666   17.4989  -32.1028 H   0  0  0  0  0  0  0  0  0  0  0  0
   -8.1620   16.8744  -31.7944 H   0  0  0  0  0  0  0  0  0  0  0  0
   -9.9373   18.6256  -31.8861 H   0  0  0  0  0  0  0  0  0  0  0  0
   -6.9301   21.6511  -32.5844 H   0  0  0  0  0  0  0  0  0  0  0  0
   -4.9579   21.5372  -34.1820 H   0  0  0  0  0  0  0  0  0  0  0  0
    0.2835   22.1650  -31.1071 H   0  0  0  0  0  0  0  0  0  0  0  0
   -1.3021   21.8708  -31.9719 H   0  0  0  0  0  0  0  0  0  0  0  0
   -0.8889   23.1061  -29.2187 H   0  0  0  0  0  0  0  0  0  0  0  0
   -1.5460   23.8889  -30.6936 H   0  0  0  0  0  0  0  0  0  0  0  0
  1  2  1  0
  2  3  2  0
  3  4  1  0
  4  5  2  0
  5  6  1  0
  6  7  2  0
  7  8  1  0
  8  9  1  0
  9 10  1  0
 10 11  1  0
 11 12  1  0
 12 13  1  0
 13 14  2  0
 14 15  1  0
 15 16  1  0
 16 17  2  0
 17 18  1  0
 18 19  2  0
 19 20  1  0
 20 21  1  0
 20 22  2  0
 15 23  2  0
 23 24  1  0
 11 25  1  0
 25 26  1  0
  7  2  1  0
 26  8  1  0
 24 13  1  0
 22 16  1  0
  1 27  1  0
  3 28  1  0
  4 29  1  0
  5 30  1  0
  6 31  1  0
  9 32  1  0
  9 33  1  0
 10 34  1  0
 10 35  1  0
 12 36  1  0
 12 37  1  0
 17 38  1  0
 18 39  1  0
 19 40  1  0
 22 41  1  0
 23 42  1  0
 25 43  1  0
 25 44  1  0
 26 45  1  0
 26 46  1  0
M  END
>  <UniqueID>  (7) 
6

>  <SMILES>  (7) 
Oc1ccccc1N1CCN(Cc2nc(-c3cccc(F)c3)cs2)CC1

>  <Energy>  (7) 
93.63631220601027

>  <Genealogy>  (7) 
Oc1ccccc1N1CCN(Cc2nc(-c3cccc(F)c3)cs2)CC1 (3D coordinates assigned)
Oc1ccccc1N1CCN(Cc2nc(-c3cccc(F)c3)cs2)CC1 (nonaromatic ring conformer: 93.63631220601027 kcal/mol)

>  <smiles>  (7) 
Oc1ccccc1N1CCN(Cc2nc(-c3cccc(F)c3)cs2)CC1

>  <score_type>  (7) 
oracle

>  <origin>  (7) 
adgpu

>  <m_score__min__energy>  (7) 
-9.6600000000000001

>  <m_primary>  (7) 
energy

$$$$
7:0
     RDKit          3D

 47 49  0  0  0  0  0  0  0  0999 V2000
   -9.4980   21.9200  -31.5870 C   0  0  0  0  0  0  0  0  0  0  0  0
   -8.1840   21.2890  -31.9510 C   0  0  0  0  0  0  0  0  0  0  0  0
   -8.0890   19.8960  -32.1000 C   0  0  0  0  0  0  0  0  0  0  0  0
   -6.8750   19.3050  -32.4540 C   0  0  0  0  0  0  0  0  0  0  0  0
   -5.7460   20.0970  -32.6610 C   0  0  0  0  0  0  0  0  0  0  0  0
   -5.8270   21.4840  -32.5170 C   0  0  0  0  0  0  0  0  0  0  0  0
   -7.0480   22.0950  -32.1690 C   0  0  0  0  0  0  0  0  0  0  0  0
   -7.1730   23.4890  -32.0290 O   0  0  0  0  0  0  0  0  0  0  0  0
   -7.0500   24.2110  -30.8030 C   0  0  0  0  0  0  0  0  0  0  0  0
   -5.6190   24.2480  -30.3620 C   0  0  0  0  0  0  0  0  0  0  0  0
   -4.7500   24.7690  -31.1130 O   0  0  0  0  0  0  0  0  0  0  0  0
   -5.2390   23.6490  -29.1160 N   0  0  0  0  0  0  0  0  0  0  0  0
   -3.9450   23.8220  -28.5270 C   0  0  0  0  0  0  0  0  0  0  0  0
   -2.7000   23.5170  -29.0660 C   0  0  0  0  0  0  0  0  0  0  0  0
   -2.4280   22.9160  -30.4130 C   0  0  0  0  0  0  0  0  0  0  0  0
   -1.7460   23.9120  -28.1850 N   0  0  0  0  0  0  0  0  0  0  0  0
   -0.3010   23.7430  -28.3530 C   0  0  0  0  0  0  0  0  0  0  0  0
   -2.3360   24.5020  -27.1460 N   0  0  0  0  0  0  0  0  0  0  0  0
   -1.6690   25.1150  -26.0280 C   0  0  0  0  0  0  0  0  0  0  0  0
   -1.8660   26.4760  -25.7410 C   0  0  0  0  0  0  0  0  0  0  0  0
   -1.2260   27.0640  -24.6470 C   0  0  0  0  0  0  0  0  0  0  0  0
   -0.3920   26.2980  -23.8280 C   0  0  0  0  0  0  0  0  0  0  0  0
   -0.2000   24.9410  -24.1010 C   0  0  0  0  0  0  0  0  0  0  0  0
   -0.8390   24.3490  -25.1940 C   0  0  0  0  0  0  0  0  0  0  0  0
   -3.6710   24.4610  -27.3390 C   0  0  0  0  0  0  0  0  0  0  0  0
   -4.5250   24.9540  -26.5540 O   0  0  0  0  0  0  0  0  0  0  0  0
   -9.5922   21.9652  -30.4920 H   0  0  0  0  0  0  0  0  0  0  0  0
   -9.5431   22.9380  -32.0013 H   0  0  0  0  0  0  0  0  0  0  0  0
  -10.3207   21.3188  -32.0013 H   0  0  0  0  0  0  0  0  0  0  0  0
   -8.9764   19.2668  -31.9368 H   0  0  0  0  0  0  0  0  0  0  0  0
   -6.8088   18.2131  -32.5698 H   0  0  0  0  0  0  0  0  0  0  0  0
   -4.7901   19.6287  -32.9382 H   0  0  0  0  0  0  0  0  0  0  0  0
   -4.9319   22.1032  -32.6763 H   0  0  0  0  0  0  0  0  0  0  0  0
   -7.4110   25.2396  -30.9500 H   0  0  0  0  0  0  0  0  0  0  0  0
   -7.6494   23.7078  -30.0300 H   0  0  0  0  0  0  0  0  0  0  0  0
   -5.8890   22.9540  -28.6830 H   0  0  0  0  0  0  0  0  0  0  0  0
   -1.9775   21.9205  -30.2861 H   0  0  0  0  0  0  0  0  0  0  0  0
   -3.3718   22.8230  -30.9704 H   0  0  0  0  0  0  0  0  0  0  0  0
   -1.7353   23.5637  -30.9704 H   0  0  0  0  0  0  0  0  0  0  0  0
    0.1789   23.6869  -27.3648 H   0  0  0  0  0  0  0  0  0  0  0  0
   -0.1026   22.8155  -28.9102 H   0  0  0  0  0  0  0  0  0  0  0  0
    0.1060   24.5997  -28.9102 H   0  0  0  0  0  0  0  0  0  0  0  0
   -2.5264   27.0809  -26.3798 H   0  0  0  0  0  0  0  0  0  0  0  0
   -1.3788   28.1315  -24.4300 H   0  0  0  0  0  0  0  0  0  0  0  0
    0.1132   26.7631  -22.9687 H   0  0  0  0  0  0  0  0  0  0  0  0
    0.4549   24.3380  -23.4548 H   0  0  0  0  0  0  0  0  0  0  0  0
   -0.6911   23.2789  -25.4016 H   0  0  0  0  0  0  0  0  0  0  0  0
  1  2  1  0
  2  3  2  0
  3  4  1  0
  4  5  2  0
  5  6  1  0
  6  7  2  0
  7  8  1  0
  8  9  1  0
  9 10  1  0
 10 11  2  0
 10 12  1  0
 12 13  1  0
 13 14  2  0
 14 15  1  0
 14 16  1  0
 16 17  1  0
 16 18  1  0
 18 19  1  0
 19 20  2  0
 20 21  1  0
 21 22  2  0
 22 23  1  0
 23 24  2  0
 18 25  1  0
 25 26  2  0
  7  2  1  0
 25 13  1  0
 24 19  1  0
  1 27  1  0
  1 28  1  0
  1 29  1  0
  3 30  1  0
  4 31  1  0
  5 32  1  0
  6 33  1  0
  9 34  1  0
  9 35  1  0
 12 36  1  0
 15 37  1  0
 15 38  1  0
 15 39  1  0
 17 40  1  0
 17 41  1  0
 17 42  1  0
 20 43  1  0
 21 44  1  0
 22 45  1  0
 23 46  1  0
 24 47  1  0
M  END
>  <UniqueID>  (8) 
7

>  <SMILES>  (8) 
Cc1ccccc1OCC(=O)Nc1c(C)n(C)n(-c2ccccc2)c1=O

>  <Energy>  (8) 
91.46142405607634

>  <Genealogy>  (8) 
Cc1ccccc1OCC(=O)Nc1c(C)n(C)n(-c2ccccc2)c1=O (3D coordinates assigned)
Cc1ccccc1OCC(=O)Nc1c(C)n(C)n(-c2ccccc2)c1=O (optimized conformer: 91.46142405607634 kcal/mol)

>  <smiles>  (8) 
Cc1ccccc1OCC(=O)Nc1c(C)n(C)n(-c2ccccc2)c1=O

>  <score_type>  (8) 
oracle

>  <origin>  (8) 
adgpu

>  <m_score__min__energy>  (8) 
-8.9199999999999999

>  <m_primary>  (8) 
energy

$$$$
8:0
     RDKit          3D

 44 47  0  0  0  0  0  0  0  0999 V2000
   -2.7460   25.2980  -29.6710 O   0  0  0  0  0  0  0  0  0  0  0  0
   -2.0280   24.2650  -29.0750 C   0  0  0  0  0  0  0  0  0  0  0  0
   -1.9260   22.9690  -29.5530 C   0  0  0  0  0  0  0  0  0  0  0  0
   -2.5530   22.4170  -30.7280 N   0  0  0  0  0  0  0  0  0  0  0  0
   -3.8840   22.8760  -31.1540 C   0  0  0  0  0  0  0  0  0  0  0  0
   -4.7020   21.7200  -31.7500 C   0  0  0  0  0  0  0  0  0  0  0  0
   -3.8970   20.8720  -32.6420 N   0  0  0  0  0  0  0  0  0  0  0  0
   -4.5310   19.7610  -33.3050 C   0  0  0  0  0  0  0  0  0  0  0  0
   -5.9120   19.5270  -33.1750 C   0  0  0  0  0  0  0  0  0  0  0  0
   -6.4940   18.4520  -33.8480 C   0  0  0  0  0  0  0  0  0  0  0  0
   -5.7070   17.6260  -34.6510 C   0  0  0  0  0  0  0  0  0  0  0  0
   -4.3430   17.8950  -34.7750 C   0  0  0  0  0  0  0  0  0  0  0  0
   -3.7930   18.9460  -34.1110 N   0  0  0  0  0  0  0  0  0  0  0  0
   -2.4920   21.2140  -32.8940 C   0  0  0  0  0  0  0  0  0  0  0  0
   -1.7880   21.4770  -31.5630 C   0  0  0  0  0  0  0  0  0  0  0  0
   -1.0580   22.2990  -28.7060 C   0  0  0  0  0  0  0  0  0  0  0  0
   -0.6930   23.2170  -27.7400 C   0  0  0  0  0  0  0  0  0  0  0  0
    0.1380   22.9240  -26.6620 O   0  0  0  0  0  0  0  0  0  0  0  0
   -1.2770   24.4170  -27.9640 N   0  0  0  0  0  0  0  0  0  0  0  0
   -1.1070   25.6310  -27.2150 C   0  0  0  0  0  0  0  0  0  0  0  0
   -1.5740   25.7170  -25.8920 C   0  0  0  0  0  0  0  0  0  0  0  0
   -1.4230   26.9040  -25.1680 C   0  0  0  0  0  0  0  0  0  0  0  0
   -0.8110   28.0120  -25.7590 C   0  0  0  0  0  0  0  0  0  0  0  0
   -0.3520   27.9380  -27.0770 C   0  0  0  0  0  0  0  0  0  0  0  0
   -0.5020   26.7530  -27.8050 C   0  0  0  0  0  0  0  0  0  0  0  0
   -4.4192   23.2838  -30.2838 H   0  0  0  0  0  0  0  0  0  0  0  0
   -3.7569   23.6491  -31.9261 H   0  0  0  0  0  0  0  0  0  0  0  0
   -5.0910   21.1008  -30.9283 H   0  0  0  0  0  0  0  0  0  0  0  0
   -5.5188   22.1555  -32.3443 H   0  0  0  0  0  0  0  0  0  0  0  0
   -6.5288   20.1868  -32.5472 H   0  0  0  0  0  0  0  0  0  0  0  0
   -7.5716   18.2562  -33.7456 H   0  0  0  0  0  0  0  0  0  0  0  0
   -6.1562   16.7727  -35.1802 H   0  0  0  0  0  0  0  0  0  0  0  0
   -3.7125   17.2559  -35.4106 H   0  0  0  0  0  0  0  0  0  0  0  0
   -1.9980   20.3787  -33.4119 H   0  0  0  0  0  0  0  0  0  0  0  0
   -2.4398   22.1155  -33.5222 H   0  0  0  0  0  0  0  0  0  0  0  0
   -1.6780   20.5255  -31.0221 H   0  0  0  0  0  0  0  0  0  0  0  0
   -0.8043   21.9221  -31.7734 H   0  0  0  0  0  0  0  0  0  0  0  0
   -0.7278   21.2528  -28.7860 H   0  0  0  0  0  0  0  0  0  0  0  0
    0.1820   23.5160  -25.8430 H   0  0  0  0  0  0  0  0  0  0  0  0
   -2.0598   24.8478  -25.4246 H   0  0  0  0  0  0  0  0  0  0  0  0
   -1.7867   26.9652  -24.1317 H   0  0  0  0  0  0  0  0  0  0  0  0
   -0.6903   28.9435  -25.1865 H   0  0  0  0  0  0  0  0  0  0  0  0
    0.1274   28.8120  -27.5421 H   0  0  0  0  0  0  0  0  0  0  0  0
   -0.1446   26.6996  -28.8440 H   0  0  0  0  0  0  0  0  0  0  0  0
  1  2  1  0
  2  3  2  0
  3  4  1  0
  4  5  1  0
  5  6  1  0
  6  7  1  0
  7  8  1  0
  8  9  2  0
  9 10  1  0
 10 11  2  0
 11 12  1  0
 12 13  2  0
  7 14  1  0
 14 15  1  0
  3 16  1  0
 16 17  2  0
 17 18  1  0
 17 19  1  0
 19 20  1  0
 20 21  2  0
 21 22  1  0
 22 23  2  0
 23 24  1  0
 24 25  2  0
 19  2  1  0
 25 20  1  0
 15  4  1  0
 13  8  1  0
  5 26  1  0
  5 27  1  0
  6 28  1  0
  6 29  1  0
  9 30  1  0
 10 31  1  0
 11 32  1  0
 12 33  1  0
 14 34  1  0
 14 35  1  0
 15 36  1  0
 15 37  1  0
 16 38  1  0
 18 39  1  0
 21 40  1  0
 22 41  1  0
 23 42  1  0
 24 43  1  0
 25 44  1  0
M  CHG  1   1  -1
M  END
>  <UniqueID>  (9) 
8

>  <SMILES>  (9) 
[O-]c1c(N2CCN(c3ccccn3)CC2)cc(O)n1-c1ccccc1

>  <Energy>  (9) 
88.88851931047459

>  <Genealogy>  (9) 
[O-]c1c(N2CCN(c3ccccn3)CC2)cc(O)n1-c1ccccc1 (protonated)
[O-]c1c(N2CCN(c3ccccn3)CC2)cc(O)n1-c1ccccc1 (3D coordinates assigned)
[O-]c1c(N2CCN(c3ccccn3)CC2)cc(O)n1-c1ccccc1 (nonaromatic ring conformer: 88.88851931047459 kcal/mol)

>  <smiles>  (9) 
Oc1cc(N2CCN(c3ccccn3)CC2)c(O)n1-c1ccccc1

>  <score_type>  (9) 
oracle

>  <origin>  (9) 
adgpu

>  <m_score__min__energy>  (9) 
-9.5800000000000001

>  <m_primary>  (9) 
energy

$$$$
9:0
     RDKit          3D

 28 29  0  0  0  0  0  0  0  0999 V2000
   -1.9805   21.2889  -33.4670 H   0  0  0  0  0  0  0  0  0  0  0  0
   -0.9390   21.1690  -33.1340 C   0  0  0  0  0  0  0  0  0  0  0  0
   -0.0020   21.5560  -33.8810 O   0  0  0  0  0  0  0  0  0  0  0  0
   -0.6640   20.5580  -31.8210 C   0  0  0  0  0  0  0  0  0  0  0  0
    0.5740   19.9420  -31.5900 C   0  0  0  0  0  0  0  0  0  0  0  0
    1.3341   19.9274  -32.3850 H   0  0  0  0  0  0  0  0  0  0  0  0
    0.8480   19.3470  -30.3570 C   0  0  0  0  0  0  0  0  0  0  0  0
    1.8192   18.8587  -30.1884 H   0  0  0  0  0  0  0  0  0  0  0  0
   -0.1070   19.3690  -29.3350 C   0  0  0  0  0  0  0  0  0  0  0  0
    0.1740   18.7300  -28.1330 O   0  0  0  0  0  0  0  0  0  0  0  0
   -1.3410   20.0170  -29.5390 C   0  0  0  0  0  0  0  0  0  0  0  0
   -2.3780   20.0650  -28.4870 C   0  0  0  0  0  0  0  0  0  0  0  0
   -2.8459   19.1147  -28.1905 H   0  0  0  0  0  0  0  0  0  0  0  0
   -2.7920   21.1810  -27.8660 C   0  0  0  0  0  0  0  0  0  0  0  0
   -3.4947   21.0623  -27.0281 H   0  0  0  0  0  0  0  0  0  0  0  0
   -2.3790   22.5590  -28.2180 C   0  0  0  0  0  0  0  0  0  0  0  0
   -1.2200   23.1470  -27.6760 C   0  0  0  0  0  0  0  0  0  0  0  0
   -0.6051   22.5840  -26.9584 H   0  0  0  0  0  0  0  0  0  0  0  0
   -0.8470   24.4420  -28.0450 C   0  0  0  0  0  0  0  0  0  0  0  0
    0.0491   24.9022  -27.6032 H   0  0  0  0  0  0  0  0  0  0  0  0
   -1.6110   25.1540  -28.9750 C   0  0  0  0  0  0  0  0  0  0  0  0
   -1.2350   26.4430  -29.3360 O   0  0  0  0  0  0  0  0  0  0  0  0
   -2.7480   24.5660  -29.5420 C   0  0  0  0  0  0  0  0  0  0  0  0
   -3.5060   25.2660  -30.4730 O   0  0  0  0  0  0  0  0  0  0  0  0
   -3.1230   23.2710  -29.1720 C   0  0  0  0  0  0  0  0  0  0  0  0
   -4.0077   22.8065  -29.6319 H   0  0  0  0  0  0  0  0  0  0  0  0
   -1.6220   20.5840  -30.7920 C   0  0  0  0  0  0  0  0  0  0  0  0
   -2.6008   21.0531  -30.9706 H   0  0  0  0  0  0  0  0  0  0  0  0
  1  2  1  0
  2  3  2  0
  2  4  1  0
  4  5  2  0
  5  6  1  0
  5  7  1  0
  7  8  1  0
  7  9  2  0
  9 10  1  0
  9 11  1  0
 11 12  1  0
 12 13  1  0
 12 14  2  0
 14 15  1  0
 14 16  1  0
 16 17  2  0
 17 18  1  0
 17 19  1  0
 19 20  1  0
 19 21  2  0
 21 22  1  0
 21 23  1  0
 23 24  1  0
 23 25  2  0
 25 26  1  0
 11 27  2  0
 27 28  1  0
 27  4  1  0
 25 16  1  0
M  CHG  3  10  -1  22  -1  24  -1
M  END
>  <UniqueID>  (10) 
9

>  <SMILES>  (10) 
O=Cc1ccc([O-])c(/C=C\c2ccc([O-])c([O-])c2)c1

>  <Energy>  (10) 
40.11190137710648

>  <Genealogy>  (10) 
O=Cc1ccc([O-])c(C=Cc2ccc([O-])c([O-])c2)c1 (protonated)
O=Cc1ccc([O-])c(/C=C\c2ccc([O-])c([O-])c2)c1 (cis-trans isomerization)
O=Cc1ccc([O-])c(/C=C\c2ccc([O-])c([O-])c2)c1 (3D coordinates assigned)
O=Cc1ccc([O-])c(/C=C\c2ccc([O-])c([O-])c2)c1 (optimized conformer: 40.11190137710648 kcal/mol)

>  <smiles>  (10) 
O=Cc1ccc(O)c(C=Cc2ccc(O)c(O)c2)c1

>  <score_type>  (10) 
oracle

>  <origin>  (10) 
adgpu

>  <m_score__min__energy>  (10) 
-11.91

>  <m_primary>  (10) 
energy

$$$$
10:0
     RDKit          3D

 29 30  0  0  0  0  0  0  0  0999 V2000
    0.2060   24.6890  -27.3020 C   0  0  0  0  0  0  0  0  0  0  0  0
   -1.0070   24.3520  -28.0390 N   0  0  0  0  0  0  0  0  0  0  0  0
   -1.6630   23.1720  -28.0200 C   0  0  0  0  0  0  0  0  0  0  0  0
   -1.3080   22.0980  -27.2130 O   0  0  0  0  0  0  0  0  0  0  0  0
   -2.7210   23.1710  -28.9120 C   0  0  0  0  0  0  0  0  0  0  0  0
   -2.6840   24.4190  -29.5140 C   0  0  0  0  0  0  0  0  0  0  0  0
   -3.5510   24.9100  -30.5390 N   0  0  0  0  0  0  0  0  0  0  0  0
   -5.2770   24.8470  -30.4230 S   0  0  0  0  0  0  0  0  0  0  0  0
   -5.8620   26.0720  -31.0660 O   0  0  0  0  0  0  0  0  0  0  0  0
   -5.6690   24.8200  -28.9710 O   0  0  0  0  0  0  0  0  0  0  0  0
   -5.8840   23.4170  -31.2530 C   0  0  0  0  0  0  0  0  0  0  0  0
   -5.0030   22.5650  -31.9330 C   0  0  0  0  0  0  0  0  0  0  0  0
   -5.4910   21.4360  -32.5990 C   0  0  0  0  0  0  0  0  0  0  0  0
   -6.8630   21.1480  -32.5880 C   0  0  0  0  0  0  0  0  0  0  0  0
   -7.3620   19.9940  -33.2680 N   0  0  0  0  0  0  0  0  0  0  0  0
   -7.7420   21.9990  -31.9030 C   0  0  0  0  0  0  0  0  0  0  0  0
   -7.2540   23.1270  -31.2360 C   0  0  0  0  0  0  0  0  0  0  0  0
   -1.6240   25.1070  -28.9680 C   0  0  0  0  0  0  0  0  0  0  0  0
   -1.2260   26.3910  -29.3240 O   0  0  0  0  0  0  0  0  0  0  0  0
    0.0061   24.6334  -26.2218 H   0  0  0  0  0  0  0  0  0  0  0  0
    1.0037   23.9785  -27.5643 H   0  0  0  0  0  0  0  0  0  0  0  0
    0.5229   25.7092  -27.5643 H   0  0  0  0  0  0  0  0  0  0  0  0
   -3.4359   22.3568  -29.1020 H   0  0  0  0  0  0  0  0  0  0  0  0
   -3.9252   22.7848  -31.9429 H   0  0  0  0  0  0  0  0  0  0  0  0
   -4.7958   20.7717  -33.1333 H   0  0  0  0  0  0  0  0  0  0  0  0
   -7.6690   20.0500  -34.2640 H   0  0  0  0  0  0  0  0  0  0  0  0
   -7.4270   19.0720  -32.7790 H   0  0  0  0  0  0  0  0  0  0  0  0
   -8.8196   21.7784  -31.8903 H   0  0  0  0  0  0  0  0  0  0  0  0
   -7.9480   23.7883  -30.6965 H   0  0  0  0  0  0  0  0  0  0  0  0
  1  2  1  0
  2  3  1  0
  3  4  1  0
  3  5  2  0
  5  6  1  0
  6  7  1  0
  7  8  1  0
  8  9  2  0
  8 10  2  0
  8 11  1  0
 11 12  2  0
 12 13  1  0
 13 14  2  0
 14 15  1  0
 14 16  1  0
 16 17  2  0
  6 18  2  0
 18 19  1  0
 18  2  1  0
 17 11  1  0
  1 20  1  0
  1 21  1  0
  1 22  1  0
  5 23  1  0
 12 24  1  0
 13 25  1  0
 15 26  1  0
 15 27  1  0
 16 28  1  0
 17 29  1  0
M  CHG  3   4  -1   7  -1  19  -1
M  END
>  <UniqueID>  (11) 
10

>  <SMILES>  (11) 
Cn1c([O-])cc([N-]S(=O)(=O)c2ccc(N)cc2)c1[O-]

>  <Energy>  (11) 
58.93060329166044

>  <Genealogy>  (11) 
Cn1c([O-])cc([N-]S(=O)(=O)c2ccc(N)cc2)c1[O-] (protonated)
Cn1c([O-])cc([N-]S(=O)(=O)c2ccc(N)cc2)c1[O-] (3D coordinates assigned)
Cn1c([O-])cc([N-]S(=O)(=O)c2ccc(N)cc2)c1[O-] (optimized conformer: 58.93060329166044 kcal/mol)

>  <smiles>  (11) 
Cn1c(O)cc(NS(=O)(=O)c2ccc(N)cc2)c1O

>  <score_type>  (11) 
oracle

>  <origin>  (11) 
adgpu

>  <m_score__min__energy>  (11) 
-11.31

>  <m_primary>  (11) 
energy

$$$$
11:0
     RDKit          3D

 46 49  0  0  0  0  0  0  0  0999 V2000
   -8.7390   23.2710  -31.9500 O   0  0  0  0  0  0  0  0  0  0  0  0
   -7.7360   22.5380  -31.7290 C   0  0  0  0  0  0  0  0  0  0  0  0
   -7.8500   21.0820  -31.9860 C   0  0  0  0  0  0  0  0  0  0  0  0
   -8.8540   20.3110  -31.3710 C   0  0  0  0  0  0  0  0  0  0  0  0
   -8.9330   18.9350  -31.6050 C   0  0  0  0  0  0  0  0  0  0  0  0
   -8.0080   18.3120  -32.4460 C   0  0  0  0  0  0  0  0  0  0  0  0
   -6.9970   19.0650  -33.0490 C   0  0  0  0  0  0  0  0  0  0  0  0
   -6.9130   20.4410  -32.8170 C   0  0  0  0  0  0  0  0  0  0  0  0
   -6.4920   23.1680  -31.2150 C   0  0  0  0  0  0  0  0  0  0  0  0
   -5.2310   22.8170  -31.7290 C   0  0  0  0  0  0  0  0  0  0  0  0
   -4.0680   23.3970  -31.2160 C   0  0  0  0  0  0  0  0  0  0  0  0
   -4.1440   24.3310  -30.1680 C   0  0  0  0  0  0  0  0  0  0  0  0
   -3.0010   24.9380  -29.6270 O   0  0  0  0  0  0  0  0  0  0  0  0
   -2.2930   24.4630  -28.5140 C   0  0  0  0  0  0  0  0  0  0  0  0
   -1.8680   25.3900  -27.5550 C   0  0  0  0  0  0  0  0  0  0  0  0
   -1.2130   24.9620  -26.3980 C   0  0  0  0  0  0  0  0  0  0  0  0
   -0.9720   23.6030  -26.1930 C   0  0  0  0  0  0  0  0  0  0  0  0
   -1.3620   22.6690  -27.1570 C   0  0  0  0  0  0  0  0  0  0  0  0
   -1.9930   23.0880  -28.3380 C   0  0  0  0  0  0  0  0  0  0  0  0
   -2.3220   22.1070  -29.3340 N   0  0  0  0  0  0  0  0  0  0  0  0
   -1.3990   21.6930  -30.3520 C   0  0  0  0  0  0  0  0  0  0  0  0
   -0.1620   21.8890  -30.2000 O   0  0  0  0  0  0  0  0  0  0  0  0
   -1.8870   21.0650  -31.5890 C   0  0  0  0  0  0  0  0  0  0  0  0
   -1.3110   21.1880  -32.8480 C   0  0  0  0  0  0  0  0  0  0  0  0
   -2.0340   20.5370  -33.8550 C   0  0  0  0  0  0  0  0  0  0  0  0
   -3.1830   19.9050  -33.3980 C   0  0  0  0  0  0  0  0  0  0  0  0
   -3.2960   20.1560  -31.7400 S   0  0  0  0  0  0  0  0  0  0  0  0
   -5.3940   24.6560  -29.6330 C   0  0  0  0  0  0  0  0  0  0  0  0
   -6.5590   24.0860  -30.1530 C   0  0  0  0  0  0  0  0  0  0  0  0
   -9.5812   20.7942  -30.7019 H   0  0  0  0  0  0  0  0  0  0  0  0
   -9.7255   18.3415  -31.1257 H   0  0  0  0  0  0  0  0  0  0  0  0
   -8.0753   17.2302  -32.6334 H   0  0  0  0  0  0  0  0  0  0  0  0
   -6.2656   18.5739  -33.7077 H   0  0  0  0  0  0  0  0  0  0  0  0
   -6.1091   21.0264  -33.2872 H   0  0  0  0  0  0  0  0  0  0  0  0
   -5.1596   22.0794  -32.5420 H   0  0  0  0  0  0  0  0  0  0  0  0
   -3.0885   23.1216  -31.6340 H   0  0  0  0  0  0  0  0  0  0  0  0
   -2.0512   26.4630  -27.7137 H   0  0  0  0  0  0  0  0  0  0  0  0
   -0.8868   25.6971  -25.6476 H   0  0  0  0  0  0  0  0  0  0  0  0
   -0.4745   23.2662  -25.2716 H   0  0  0  0  0  0  0  0  0  0  0  0
   -1.1730   21.5985  -26.9886 H   0  0  0  0  0  0  0  0  0  0  0  0
   -3.2320   21.6020  -29.2450 H   0  0  0  0  0  0  0  0  0  0  0  0
   -0.3792   21.7420  -33.0348 H   0  0  0  0  0  0  0  0  0  0  0  0
   -1.7211   20.5271  -34.9095 H   0  0  0  0  0  0  0  0  0  0  0  0
   -3.8960   19.3381  -34.0146 H   0  0  0  0  0  0  0  0  0  0  0  0
   -5.4610   25.3663  -28.7958 H   0  0  0  0  0  0  0  0  0  0  0  0
   -7.5363   24.3580  -29.7277 H   0  0  0  0  0  0  0  0  0  0  0  0
  1  2  2  0
  2  3  1  0
  3  4  2  0
  4  5  1  0
  5  6  2  0
  6  7  1  0
  7  8  2  0
  2  9  1  0
  9 10  2  0
 10 11  1  0
 11 12  2  0
 12 13  1  0
 13 14  1  0
 14 15  2  0
 15 16  1  0
 16 17  2  0
 17 18  1  0
 18 19  2  0
 19 20  1  0
 20 21  1  0
 21 22  2  0
 21 23  1  0
 23 24  2  0
 24 25  1  0
 25 26  2  0
 26 27  1  0
 12 28  1  0
 28 29  2  0
  8  3  1  0
 29  9  1  0
 19 14  1  0
 27 23  1  0
  4 30  1  0
  5 31  1  0
  6 32  1  0
  7 33  1  0
  8 34  1  0
 10 35  1  0
 11 36  1  0
 15 37  1  0
 16 38  1  0
 17 39  1  0
 18 40  1  0
 20 41  1  0
 24 42  1  0
 25 43  1  0
 26 44  1  0
 28 45  1  0
 29 46  1  0
M  END
>  <UniqueID>  (12) 
11

>  <SMILES>  (12) 
O=C(c1ccccc1)c1ccc(Oc2ccccc2NC(=O)c2cccs2)cc1

>  <Energy>  (12) 
91.3911101091582

>  <Genealogy>  (12) 
O=C(c1ccccc1)c1ccc(Oc2ccccc2NC(=O)c2cccs2)cc1 (3D coordinates assigned)
O=C(c1ccccc1)c1ccc(Oc2ccccc2NC(=O)c2cccs2)cc1 (optimized conformer: 91.3911101091582 kcal/mol)

>  <smiles>  (12) 
O=C(c1ccccc1)c1ccc(Oc2ccccc2NC(=O)c2cccs2)cc1

>  <score_type>  (12) 
oracle

>  <origin>  (12) 
adgpu

>  <m_score__min__energy>  (12) 
-9.8599999999999994

>  <m_primary>  (12) 
energy

$$$$
12:0
     RDKit          3D

 45 48  0  0  0  0  0  0  0  0999 V2000
   -7.2330   17.2610  -33.1030 C   0  0  0  0  0  0  0  0  0  0  0  0
   -6.6720   18.5400  -32.5750 C   0  0  0  0  0  0  0  0  0  0  0  0
   -5.8980   18.5110  -31.5800 O   0  0  0  0  0  0  0  0  0  0  0  0
   -7.0390   19.7870  -33.1860 N   0  0  0  0  0  0  0  0  0  0  0  0
   -6.6260   21.0650  -32.6750 C   0  0  0  0  0  0  0  0  0  0  0  0
   -7.5780   21.9180  -32.0990 C   0  0  0  0  0  0  0  0  0  0  0  0
   -7.1790   23.1050  -31.4800 C   0  0  0  0  0  0  0  0  0  0  0  0
   -5.8220   23.4610  -31.4460 C   0  0  0  0  0  0  0  0  0  0  0  0
   -5.2630   24.7610  -30.3910 S   0  0  0  0  0  0  0  0  0  0  0  0
   -5.9160   26.0440  -30.8180 O   0  0  0  0  0  0  0  0  0  0  0  0
   -5.6260   24.4720  -28.9620 O   0  0  0  0  0  0  0  0  0  0  0  0
   -3.5350   24.9180  -30.5160 N   0  0  0  0  0  0  0  0  0  0  0  0
   -2.6020   24.1680  -29.7250 C   0  0  0  0  0  0  0  0  0  0  0  0
   -2.6140   22.7630  -29.7160 C   0  0  0  0  0  0  0  0  0  0  0  0
   -1.5640   22.0510  -29.1350 C   0  0  0  0  0  0  0  0  0  0  0  0
   -0.5380   22.7350  -28.4580 C   0  0  0  0  0  0  0  0  0  0  0  0
   -0.5880   24.1340  -28.3690 C   0  0  0  0  0  0  0  0  0  0  0  0
   -1.6050   24.8480  -29.0130 C   0  0  0  0  0  0  0  0  0  0  0  0
   -1.6020   26.2370  -28.9660 O   0  0  0  0  0  0  0  0  0  0  0  0
    0.5950   21.9800  -27.8040 C   0  0  0  0  0  0  0  0  0  0  0  0
    0.6580   20.5240  -28.1990 C   0  0  0  0  0  0  0  0  0  0  0  0
    1.7720   19.7510  -27.8350 C   0  0  0  0  0  0  0  0  0  0  0  0
    1.8250   18.3920  -28.1620 C   0  0  0  0  0  0  0  0  0  0  0  0
    0.7650   17.7930  -28.8450 C   0  0  0  0  0  0  0  0  0  0  0  0
   -0.3530   18.5510  -29.2030 C   0  0  0  0  0  0  0  0  0  0  0  0
   -0.4100   19.9130  -28.8860 C   0  0  0  0  0  0  0  0  0  0  0  0
   -1.5220   20.6620  -29.2760 O   0  0  0  0  0  0  0  0  0  0  0  0
   -4.8820   22.6620  -32.1120 C   0  0  0  0  0  0  0  0  0  0  0  0
   -5.2820   21.4700  -32.7240 C   0  0  0  0  0  0  0  0  0  0  0  0
   -7.5181   16.6111  -32.2626 H   0  0  0  0  0  0  0  0  0  0  0  0
   -8.1196   17.4756  -33.7177 H   0  0  0  0  0  0  0  0  0  0  0  0
   -6.4746   16.7541  -33.7177 H   0  0  0  0  0  0  0  0  0  0  0  0
   -7.7870   19.7700  -33.9150 H   0  0  0  0  0  0  0  0  0  0  0  0
   -8.6445   21.6512  -32.1347 H   0  0  0  0  0  0  0  0  0  0  0  0
   -7.9304   23.7623  -31.0181 H   0  0  0  0  0  0  0  0  0  0  0  0
   -3.4566   22.2208  -30.1699 H   0  0  0  0  0  0  0  0  0  0  0  0
    0.1763   24.6729  -27.7899 H   0  0  0  0  0  0  0  0  0  0  0  0
    1.5430   22.4593  -28.0897 H   0  0  0  0  0  0  0  0  0  0  0  0
    0.4205   22.0127  -26.7184 H   0  0  0  0  0  0  0  0  0  0  0  0
    2.6068   20.2161  -27.2903 H   0  0  0  0  0  0  0  0  0  0  0  0
    2.7041   17.7938  -27.8803 H   0  0  0  0  0  0  0  0  0  0  0  0
    0.8099   16.7242  -29.1014 H   0  0  0  0  0  0  0  0  0  0  0  0
   -1.1903   18.0761  -29.7353 H   0  0  0  0  0  0  0  0  0  0  0  0
   -3.8278   22.9734  -32.1532 H   0  0  0  0  0  0  0  0  0  0  0  0
   -4.5409   20.8469  -33.2460 H   0  0  0  0  0  0  0  0  0  0  0  0
  1  2  1  0
  2  3  2  0
  2  4  1  0
  4  5  1  0
  5  6  2  0
  6  7  1  0
  7  8  2  0
  8  9  1  0
  9 10  2  0
  9 11  2  0
  9 12  1  0
 12 13  1  0
 13 14  2  0
 14 15  1  0
 15 16  2  0
 16 17  1  0
 17 18  2  0
 18 19  1  0
 16 20  1  0
 20 21  1  0
 21 22  2  0
 22 23  1  0
 23 24  2  0
 24 25  1  0
 25 26  2  0
 26 27  1  0
  8 28  1  0
 28 29  2  0
 29  5  1  0
 18 13  1  0
 26 21  1  0
 27 15  1  0
  1 30  1  0
  1 31  1  0
  1 32  1  0
  4 33  1  0
  6 34  1  0
  7 35  1  0
 14 36  1  0
 17 37  1  0
 20 38  1  0
 20 39  1  0
 22 40  1  0
 23 41  1  0
 24 42  1  0
 25 43  1  0
 28 44  1  0
 29 45  1  0
M  CHG  2  12  -1  19  -1
M  END
>  <UniqueID>  (13) 
12

>  <SMILES>  (13) 
CC(=O)Nc1ccc(S(=O)(=O)[N-]c2cc3c(cc2[O-])Cc2ccccc2O3)cc1

>  <Energy>  (13) 
59.12963698935729

>  <Genealogy>  (13) 
CC(=O)Nc1ccc(S(=O)(=O)[N-]c2cc3c(cc2[O-])Cc2ccccc2O3)cc1 (protonated)
CC(=O)Nc1ccc(S(=O)(=O)[N-]c2cc3c(cc2[O-])Cc2ccccc2O3)cc1 (3D coordinates assigned)
CC(=O)Nc1ccc(S(=O)(=O)[N-]c2cc3c(cc2[O-])Cc2ccccc2O3)cc1 (nonaromatic ring conformer: 59.12963698935729 kcal/mol)

>  <smiles>  (13) 
CC(=O)Nc1ccc(S(=O)(=O)Nc2cc3c(cc2O)Cc2ccccc2O3)cc1

>  <score_type>  (13) 
oracle

>  <origin>  (13) 
adgpu

>  <m_score__min__energy>  (13) 
-14.029999999999999

>  <m_primary>  (13) 
energy

$$$$
13:0
     RDKit          3D

 56 59  0  0  0  0  0  0  0  0999 V2000
   -4.0800   22.6960  -27.8090 C   0  0  0  0  0  0  0  0  0  0  0  0
   -3.8440   24.1950  -27.9160 C   0  0  0  0  0  0  0  0  0  0  0  0
   -2.8760   24.5910  -29.3670 S   0  0  0  0  0  0  0  0  0  0  0  0
   -1.7470   25.5140  -28.9980 O   0  0  0  0  0  0  0  0  0  0  0  0
   -3.7570   25.2850  -30.3670 O   0  0  0  0  0  0  0  0  0  0  0  0
   -2.2460   23.1460  -30.0890 N   0  0  0  0  0  0  0  0  0  0  0  0
   -2.9010   22.3610  -31.0940 C   0  0  0  0  0  0  0  0  0  0  0  0
   -2.1900   21.7140  -32.1210 C   0  0  0  0  0  0  0  0  0  0  0  0
   -2.8700   20.9530  -33.0750 C   0  0  0  0  0  0  0  0  0  0  0  0
   -4.2670   20.8360  -33.0280 C   0  0  0  0  0  0  0  0  0  0  0  0
   -4.9570   20.0670  -33.9750 O   0  0  0  0  0  0  0  0  0  0  0  0
   -4.9880   18.6650  -33.9930 C   0  0  0  0  0  0  0  0  0  0  0  0
   -6.1040   18.0240  -34.5440 C   0  0  0  0  0  0  0  0  0  0  0  0
   -6.1740   16.6290  -34.5720 C   0  0  0  0  0  0  0  0  0  0  0  0
   -5.1370   15.8580  -34.0240 C   0  0  0  0  0  0  0  0  0  0  0  0
   -5.2030   14.1000  -34.0690 S   0  0  0  0  0  0  0  0  0  0  0  0
   -4.6290   13.4490  -32.5160 C   0  0  0  0  0  0  0  0  0  0  0  0
   -4.3350   13.5720  -35.1780 O   0  0  0  0  0  0  0  0  0  0  0  0
   -6.6210   13.6600  -34.3090 O   0  0  0  0  0  0  0  0  0  0  0  0
   -4.0270   16.4960  -33.4580 C   0  0  0  0  0  0  0  0  0  0  0  0
   -3.9520   17.8910  -33.4370 C   0  0  0  0  0  0  0  0  0  0  0  0
   -4.9850   21.5140  -32.0290 C   0  0  0  0  0  0  0  0  0  0  0  0
   -6.4570   21.4230  -31.9750 C   0  0  0  0  0  0  0  0  0  0  0  0
   -7.2640   22.5650  -32.1690 C   0  0  0  0  0  0  0  0  0  0  0  0
   -8.6390   22.4750  -32.1450 N   0  0  0  0  0  0  0  0  0  0  0  0
   -9.4380   23.6830  -32.3640 C   0  0  0  0  0  0  0  0  0  0  0  0
   -9.2610   21.2580  -31.9680 C   0  0  0  0  0  0  0  0  0  0  0  0
  -10.5190   21.1590  -31.9820 O   0  0  0  0  0  0  0  0  0  0  0  0
   -8.4750   20.1240  -31.7770 C   0  0  0  0  0  0  0  0  0  0  0  0
   -8.8830   18.8520  -31.6200 N   0  0  0  0  0  0  0  0  0  0  0  0
   -7.7550   18.1130  -31.5190 C   0  0  0  0  0  0  0  0  0  0  0  0
   -6.6270   18.9230  -31.6130 C   0  0  0  0  0  0  0  0  0  0  0  0
   -7.1130   20.2070  -31.7760 C   0  0  0  0  0  0  0  0  0  0  0  0
   -4.2960   22.2590  -31.0590 C   0  0  0  0  0  0  0  0  0  0  0  0
   -4.1255   22.4068  -26.7487 H   0  0  0  0  0  0  0  0  0  0  0  0
   -5.0298   22.4383  -28.3005 H   0  0  0  0  0  0  0  0  0  0  0  0
   -3.2553   22.1590  -28.3005 H   0  0  0  0  0  0  0  0  0  0  0  0
   -4.8149   24.7081  -27.9805 H   0  0  0  0  0  0  0  0  0  0  0  0
   -3.2907   24.5266  -27.0250 H   0  0  0  0  0  0  0  0  0  0  0  0
   -1.0952   21.8076  -32.1731 H   0  0  0  0  0  0  0  0  0  0  0  0
   -2.3057   20.4418  -33.8689 H   0  0  0  0  0  0  0  0  0  0  0  0
   -6.9299   18.6218  -34.9570 H   0  0  0  0  0  0  0  0  0  0  0  0
   -7.0450   16.1330  -35.0252 H   0  0  0  0  0  0  0  0  0  0  0  0
   -5.1094   13.9939  -31.6900 H   0  0  0  0  0  0  0  0  0  0  0  0
   -4.8850   12.3813  -32.4489 H   0  0  0  0  0  0  0  0  0  0  0  0
   -3.5377   13.5693  -32.4489 H   0  0  0  0  0  0  0  0  0  0  0  0
   -3.2108   15.8968  -33.0282 H   0  0  0  0  0  0  0  0  0  0  0  0
   -3.0803   18.3862  -32.9844 H   0  0  0  0  0  0  0  0  0  0  0  0
   -6.7881   23.5415  -32.3419 H   0  0  0  0  0  0  0  0  0  0  0  0
   -9.7235   24.1147  -31.3934 H   0  0  0  0  0  0  0  0  0  0  0  0
   -8.8461   24.4162  -32.9315 H   0  0  0  0  0  0  0  0  0  0  0  0
  -10.3443   23.4252  -32.9315 H   0  0  0  0  0  0  0  0  0  0  0  0
   -9.8660   18.4980  -31.6000 H   0  0  0  0  0  0  0  0  0  0  0  0
   -7.7321   17.0219  -31.3815 H   0  0  0  0  0  0  0  0  0  0  0  0
   -5.5738   18.6087  -31.5674 H   0  0  0  0  0  0  0  0  0  0  0  0
   -4.8589   22.7681  -30.2628 H   0  0  0  0  0  0  0  0  0  0  0  0
  1  2  1  0
  2  3  1  0
  3  4  2  0
  3  5  2  0
  3  6  1  0
  6  7  1  0
  7  8  2  0
  8  9  1  0
  9 10  2  0
 10 11  1  0
 11 12  1  0
 12 13  2  0
 13 14  1  0
 14 15  2  0
 15 16  1  0
 16 17  1  0
 16 18  2  0
 16 19  2  0
 15 20  1  0
 20 21  2  0
 10 22  1  0
 22 23  1  0
 23 24  2  0
 24 25  1  0
 25 26  1  0
 25 27  1  0
 27 28  2  0
 27 29  1  0
 29 30  1  0
 30 31  1  0
 31 32  2  0
 32 33  1  0
 22 34  2  0
 34  7  1  0
 21 12  1  0
 33 23  1  0
 33 29  2  0
  1 35  1  0
  1 36  1  0
  1 37  1  0
  2 38  1  0
  2 39  1  0
  8 40  1  0
  9 41  1  0
 13 42  1  0
 14 43  1  0
 17 44  1  0
 17 45  1  0
 17 46  1  0
 20 47  1  0
 21 48  1  0
 24 49  1  0
 26 50  1  0
 26 51  1  0
 26 52  1  0
 30 53  1  0
 31 54  1  0
 32 55  1  0
 34 56  1  0
M  CHG  1   6  -1
M  END
>  <UniqueID>  (14) 
13

>  <SMILES>  (14) 
CCS(=O)(=O)[N-]c1ccc(Oc2ccc(S(C)(=O)=O)cc2)c(-c2cn(C)c(=O)c3[nH]ccc23)c1

>  <Energy>  (14) 
101.71991527655912

>  <Genealogy>  (14) 
CCS(=O)(=O)[N-]c1ccc(Oc2ccc(S(C)(=O)=O)cc2)c(-c2cn(C)c(=O)c3[nH]ccc23)c1 (protonated)
CCS(=O)(=O)[N-]c1ccc(Oc2ccc(S(C)(=O)=O)cc2)c(-c2cn(C)c(=O)c3[nH]ccc23)c1 (3D coordinates assigned)
CCS(=O)(=O)[N-]c1ccc(Oc2ccc(S(C)(=O)=O)cc2)c(-c2cn(C)c(=O)c3[nH]ccc23)c1 (optimized conformer: 101.71991527655912 kcal/mol)

>  <smiles>  (14) 
CCS(=O)(=O)Nc1ccc(Oc2ccc(S(C)(=O)=O)cc2)c(-c2cn(C)c(=O)c3[nH]ccc23)c1

>  <score_type>  (14) 
oracle

>  <origin>  (14) 
adgpu

>  <m_score__min__energy>  (14) 
-11.08

>  <m_primary>  (14) 
energy

$$$$
14:0
     RDKit          3D

 46 48  0  0  0  0  0  0  0  0999 V2000
   -4.3520   17.2400  -35.0170 C   0  0  0  0  0  0  0  0  0  0  0  0
   -3.6180   17.6020  -33.8530 O   0  0  0  0  0  0  0  0  0  0  0  0
   -3.1840   18.9040  -33.5610 C   0  0  0  0  0  0  0  0  0  0  0  0
   -1.8270   19.2070  -33.3240 C   0  0  0  0  0  0  0  0  0  0  0  0
   -1.4370   20.5190  -33.0390 C   0  0  0  0  0  0  0  0  0  0  0  0
   -2.3910   21.5390  -32.9860 C   0  0  0  0  0  0  0  0  0  0  0  0
   -3.7370   21.2480  -33.2140 C   0  0  0  0  0  0  0  0  0  0  0  0
   -4.1370   19.9360  -33.4960 C   0  0  0  0  0  0  0  0  0  0  0  0
   -5.5220   19.6520  -33.6940 N   0  0  0  0  0  0  0  0  0  0  0  0
   -6.6310   19.7010  -32.3680 S   0  0  0  0  0  0  0  0  0  0  0  0
   -7.9560   19.1330  -32.7950 O   0  0  0  0  0  0  0  0  0  0  0  0
   -6.0900   18.8620  -31.2440 O   0  0  0  0  0  0  0  0  0  0  0  0
   -6.8380   21.3630  -31.8220 C   0  0  0  0  0  0  0  0  0  0  0  0
   -7.9460   22.1160  -32.2350 C   0  0  0  0  0  0  0  0  0  0  0  0
   -8.1270   23.4170  -31.7570 C   0  0  0  0  0  0  0  0  0  0  0  0
   -7.2110   23.9680  -30.8570 C   0  0  0  0  0  0  0  0  0  0  0  0
   -6.1090   23.2160  -30.4200 C   0  0  0  0  0  0  0  0  0  0  0  0
   -5.1180   23.8040  -29.4560 C   0  0  0  0  0  0  0  0  0  0  0  0
   -4.2210   24.7680  -30.1660 C   0  0  0  0  0  0  0  0  0  0  0  0
   -4.6380   25.3620  -31.1970 O   0  0  0  0  0  0  0  0  0  0  0  0
   -2.8670   24.9240  -29.7240 N   0  0  0  0  0  0  0  0  0  0  0  0
   -1.9610   23.8780  -29.3410 C   0  0  0  0  0  0  0  0  0  0  0  0
   -2.1300   22.5470  -29.7700 C   0  0  0  0  0  0  0  0  0  0  0  0
   -1.2080   21.5650  -29.3930 C   0  0  0  0  0  0  0  0  0  0  0  0
   -0.1070   21.9030  -28.6010 C   0  0  0  0  0  0  0  0  0  0  0  0
    0.0800   23.2270  -28.1930 C   0  0  0  0  0  0  0  0  0  0  0  0
    1.1560   23.5580  -27.4370 F   0  0  0  0  0  0  0  0  0  0  0  0
   -0.8400   24.2110  -28.5690 C   0  0  0  0  0  0  0  0  0  0  0  0
   -5.9200   21.9170  -30.9200 C   0  0  0  0  0  0  0  0  0  0  0  0
   -5.3020   16.7715  -34.7204 H   0  0  0  0  0  0  0  0  0  0  0  0
   -4.5580   18.1399  -35.6152 H   0  0  0  0  0  0  0  0  0  0  0  0
   -3.7634   16.5288  -35.6152 H   0  0  0  0  0  0  0  0  0  0  0  0
   -1.0724   18.4077  -33.3636 H   0  0  0  0  0  0  0  0  0  0  0  0
   -0.3770   20.7490  -32.8561 H   0  0  0  0  0  0  0  0  0  0  0  0
   -2.0812   22.5710  -32.7646 H   0  0  0  0  0  0  0  0  0  0  0  0
   -4.4863   22.0523  -33.1720 H   0  0  0  0  0  0  0  0  0  0  0  0
   -8.6741   21.6824  -32.9363 H   0  0  0  0  0  0  0  0  0  0  0  0
   -8.9926   24.0085  -32.0901 H   0  0  0  0  0  0  0  0  0  0  0  0
   -7.3539   24.9949  -30.4895 H   0  0  0  0  0  0  0  0  0  0  0  0
   -5.6577   24.3311  -28.6554 H   0  0  0  0  0  0  0  0  0  0  0  0
   -4.5093   22.9947  -29.0266 H   0  0  0  0  0  0  0  0  0  0  0  0
   -2.9889   22.2793  -30.4029 H   0  0  0  0  0  0  0  0  0  0  0  0
   -1.3497   20.5245  -29.7205 H   0  0  0  0  0  0  0  0  0  0  0  0
    0.6121   21.1274  -28.2988 H   0  0  0  0  0  0  0  0  0  0  0  0
   -0.6825   25.2538  -28.2565 H   0  0  0  0  0  0  0  0  0  0  0  0
   -5.0455   21.3308  -30.6013 H   0  0  0  0  0  0  0  0  0  0  0  0
  1  2  1  0
  2  3  1  0
  3  4  2  0
  4  5  1  0
  5  6  2  0
  6  7  1  0
  7  8  2  0
  8  9  1  0
  9 10  1  0
 10 11  2  0
 10 12  2  0
 10 13  1  0
 13 14  2  0
 14 15  1  0
 15 16  2  0
 16 17  1  0
 17 18  1  0
 18 19  1  0
 19 20  2  0
 19 21  1  0
 21 22  1  0
 22 23  2  0
 23 24  1  0
 24 25  2  0
 25 26  1  0
 26 27  1  0
 26 28  2  0
 17 29  2  0
  8  3  1  0
 29 13  1  0
 28 22  1  0
  1 30  1  0
  1 31  1  0
  1 32  1  0
  4 33  1  0
  5 34  1  0
  6 35  1  0
  7 36  1  0
 14 37  1  0
 15 38  1  0
 16 39  1  0
 18 40  1  0
 18 41  1  0
 23 42  1  0
 24 43  1  0
 25 44  1  0
 28 45  1  0
 29 46  1  0
M  CHG  2   9  -1  21  -1
M  END
>  <UniqueID>  (15) 
14

>  <SMILES>  (15) 
COc1ccccc1[N-]S(=O)(=O)c1cccc(CC(=O)[N-]c2cccc(F)c2)c1

>  <Energy>  (15) 
56.82438258745586

>  <Genealogy>  (15) 
COc1ccccc1[N-]S(=O)(=O)c1cccc(CC(=O)[N-]c2cccc(F)c2)c1 (protonated)
COc1ccccc1[N-]S(=O)(=O)c1cccc(CC(=O)[N-]c2cccc(F)c2)c1 (3D coordinates assigned)
COc1ccccc1[N-]S(=O)(=O)c1cccc(CC(=O)[N-]c2cccc(F)c2)c1 (optimized conformer: 56.82438258745586 kcal/mol)

>  <smiles>  (15) 
COc1ccccc1NS(=O)(=O)c1cccc(CC(=O)Nc2cccc(F)c2)c1

>  <score_type>  (15) 
oracle

>  <origin>  (15) 
adgpu

>  <m_score__min__energy>  (15) 
-10.65

>  <m_primary>  (15) 
energy

$$$$
15:0
     RDKit          3D

 49 51  0  0  0  0  0  0  0  0999 V2000
   -1.5690   22.5500  -26.7190 C   0  0  0  0  0  0  0  0  0  0  0  0
   -0.4510   23.3340  -26.3160 O   0  0  0  0  0  0  0  0  0  0  0  0
   -0.5050   24.7070  -26.0200 C   0  0  0  0  0  0  0  0  0  0  0  0
   -0.2410   25.2010  -24.7290 C   0  0  0  0  0  0  0  0  0  0  0  0
   -0.3060   26.5750  -24.4570 C   0  0  0  0  0  0  0  0  0  0  0  0
   -0.0070   27.0440  -23.1360 N   0  0  0  0  0  0  0  0  0  0  0  0
   -0.6610   27.4680  -25.4860 C   0  0  0  0  0  0  0  0  0  0  0  0
   -0.7610   29.2030  -25.2150 Cl  0  0  0  0  0  0  0  0  0  0  0  0
   -0.9320   26.9800  -26.7680 C   0  0  0  0  0  0  0  0  0  0  0  0
   -0.8400   25.6100  -27.0450 C   0  0  0  0  0  0  0  0  0  0  0  0
   -1.0520   25.1390  -28.4250 C   0  0  0  0  0  0  0  0  0  0  0  0
   -0.1180   24.5480  -29.0280 O   0  0  0  0  0  0  0  0  0  0  0  0
   -2.3180   25.2980  -29.0780 N   0  0  0  0  0  0  0  0  0  0  0  0
   -3.0420   24.1830  -29.6800 C   0  0  0  0  0  0  0  0  0  0  0  0
   -4.3230   24.6800  -30.3720 C   0  0  2  0  0  0  0  0  0  0  0  0
   -5.4200   25.0970  -29.3960 C   0  0  0  0  0  0  0  0  0  0  0  0
   -6.7110   24.8960  -30.1720 C   0  0  0  0  0  0  0  0  0  0  0  0
   -6.2950   24.2600  -31.4970 C   0  0  0  0  0  0  0  0  0  0  0  0
   -4.9310   23.7310  -31.3320 N   0  0  0  0  0  0  0  0  0  0  0  0
   -4.9840   22.3200  -30.8610 C   0  0  0  0  0  0  0  0  0  0  0  0
   -6.1120   21.5580  -31.5160 C   0  0  0  0  0  0  0  0  0  0  0  0
   -7.3870   21.5340  -30.9250 C   0  0  0  0  0  0  0  0  0  0  0  0
   -8.4280   20.8180  -31.5230 C   0  0  0  0  0  0  0  0  0  0  0  0
   -8.2090   20.1290  -32.7180 C   0  0  0  0  0  0  0  0  0  0  0  0
   -6.9520   20.1710  -33.3280 C   0  0  0  0  0  0  0  0  0  0  0  0
   -5.9090   20.8920  -32.7370 C   0  0  0  0  0  0  0  0  0  0  0  0
   -2.0973   22.1795  -25.8281 H   0  0  0  0  0  0  0  0  0  0  0  0
   -2.2524   23.1677  -27.3201 H   0  0  0  0  0  0  0  0  0  0  0  0
   -1.2211   21.6970  -27.3201 H   0  0  0  0  0  0  0  0  0  0  0  0
    0.0198   24.4999  -23.9225 H   0  0  0  0  0  0  0  0  0  0  0  0
    0.6450   26.5100  -22.5190 H   0  0  0  0  0  0  0  0  0  0  0  0
   -0.4210   27.9220  -22.7540 H   0  0  0  0  0  0  0  0  0  0  0  0
   -1.2203   27.6789  -27.5670 H   0  0  0  0  0  0  0  0  0  0  0  0
   -2.3967   23.6921  -30.4234 H   0  0  0  0  0  0  0  0  0  0  0  0
   -3.3197   23.4716  -28.8883 H   0  0  0  0  0  0  0  0  0  0  0  0
   -3.9485   25.5519  -30.9283 H   0  0  0  0  0  0  0  0  0  0  0  0
   -5.4032   24.4631  -28.4972 H   0  0  0  0  0  0  0  0  0  0  0  0
   -5.2981   26.1323  -29.0449 H   0  0  0  0  0  0  0  0  0  0  0  0
   -7.3905   24.2286  -29.6217 H   0  0  0  0  0  0  0  0  0  0  0  0
   -7.2475   25.8441  -30.3247 H   0  0  0  0  0  0  0  0  0  0  0  0
   -6.9852   23.4426  -31.7530 H   0  0  0  0  0  0  0  0  0  0  0  0
   -6.3239   25.0039  -32.3068 H   0  0  0  0  0  0  0  0  0  0  0  0
   -4.0314   21.8265  -31.1037 H   0  0  0  0  0  0  0  0  0  0  0  0
   -5.1574   22.3258  -29.7748 H   0  0  0  0  0  0  0  0  0  0  0  0
   -7.5665   22.0811  -29.9877 H   0  0  0  0  0  0  0  0  0  0  0  0
   -9.4216   20.7972  -31.0515 H   0  0  0  0  0  0  0  0  0  0  0  0
   -9.0253   19.5536  -33.1789 H   0  0  0  0  0  0  0  0  0  0  0  0
   -6.7827   19.6363  -34.2742 H   0  0  0  0  0  0  0  0  0  0  0  0
   -4.9265   20.9379  -33.2296 H   0  0  0  0  0  0  0  0  0  0  0  0
  1  2  1  0
  2  3  1  0
  3  4  2  0
  4  5  1  0
  5  6  1  0
  5  7  2  0
  7  8  1  0
  7  9  1  0
  9 10  2  0
 10 11  1  0
 11 12  2  0
 11 13  1  0
 13 14  1  0
 14 15  1  0
 15 16  1  0
 16 17  1  0
 17 18  1  0
 18 19  1  0
 19 20  1  0
 20 21  1  0
 21 22  2  0
 22 23  1  0
 23 24  2  0
 24 25  1  0
 25 26  2  0
 10  3  1  0
 19 15  1  0
 26 21  1  0
  1 27  1  0
  1 28  1  0
  1 29  1  0
  4 30  1  0
  6 31  1  0
  6 32  1  0
  9 33  1  0
 14 34  1  0
 14 35  1  0
 15 36  1  6
 16 37  1  0
 16 38  1  0
 17 39  1  0
 17 40  1  0
 18 41  1  0
 18 42  1  0
 20 43  1  0
 20 44  1  0
 22 45  1  0
 23 46  1  0
 24 47  1  0
 25 48  1  0
 26 49  1  0
M  CHG  1  13  -1
M  END
>  <UniqueID>  (16) 
15

>  <SMILES>  (16) 
COc1cc(N)c(Cl)cc1C(=O)[N-]C[C@@H]1CCCN1Cc1ccccc1

>  <Energy>  (16) 
58.08310099208189

>  <Genealogy>  (16) 
COc1cc(N)c(Cl)cc1C(=O)[N-]CC1CCCN1Cc1ccccc1 (protonated)
COc1cc(N)c(Cl)cc1C(=O)[N-]C[C@@H]1CCCN1Cc1ccccc1 (chirality)
COc1cc(N)c(Cl)cc1C(=O)[N-]C[C@@H]1CCCN1Cc1ccccc1 (3D coordinates assigned)
COc1cc(N)c(Cl)cc1C(=O)[N-]C[C@@H]1CCCN1Cc1ccccc1 (nonaromatic ring conformer: 58.08310099208189 kcal/mol)

>  <smiles>  (16) 
COc1cc(N)c(Cl)cc1C(=O)NCC1CCCN1Cc1ccccc1

>  <score_type>  (16) 
oracle

>  <origin>  (16) 
adgpu

>  <m_score__min__energy>  (16) 
-10.92

>  <m_primary>  (16) 
energy

$$$$
16:0
     RDKit          3D

 45 47  0  0  0  0  0  0  0  0999 V2000
   -6.9830   18.0580  -31.6220 C   0  0  0  0  0  0  0  0  0  0  0  0
   -6.5830   18.2330  -33.0570 C   0  0  0  0  0  0  0  0  0  0  0  0
   -6.8480   17.3170  -33.8790 O   0  0  0  0  0  0  0  0  0  0  0  0
   -5.8750   19.3940  -33.5160 N   0  0  0  0  0  0  0  0  0  0  0  0
   -5.7970   20.6660  -32.8580 C   0  0  0  0  0  0  0  0  0  0  0  0
   -4.5630   21.3310  -32.8110 C   0  0  0  0  0  0  0  0  0  0  0  0
   -4.4510   22.5730  -32.1770 C   0  0  0  0  0  0  0  0  0  0  0  0
   -5.5800   23.1710  -31.6020 C   0  0  0  0  0  0  0  0  0  0  0  0
   -5.4500   24.6910  -30.7220 S   0  0  0  0  0  0  0  0  0  0  0  0
   -5.9020   25.8470  -31.5670 O   0  0  0  0  0  0  0  0  0  0  0  0
   -6.3010   24.6160  -29.4850 O   0  0  0  0  0  0  0  0  0  0  0  0
   -3.7930   24.9190  -30.2690 N   0  0  0  0  0  0  0  0  0  0  0  0
   -3.0860   24.0320  -29.3930 C   0  0  0  0  0  0  0  0  0  0  0  0
   -3.6240   22.7900  -29.0170 C   0  0  0  0  0  0  0  0  0  0  0  0
   -2.9330   21.9610  -28.1330 C   0  0  0  0  0  0  0  0  0  0  0  0
   -1.7100   22.3710  -27.5980 C   0  0  0  0  0  0  0  0  0  0  0  0
   -1.1630   23.6100  -27.9580 C   0  0  0  0  0  0  0  0  0  0  0  0
    0.3150   24.1830  -27.1850 S   0  0  0  0  0  0  0  0  0  0  0  0
    1.1580   24.9050  -28.2010 O   0  0  0  0  0  0  0  0  0  0  0  0
    1.1120   23.0310  -26.6330 O   0  0  0  0  0  0  0  0  0  0  0  0
   -0.1430   25.2550  -25.8660 C   0  0  0  0  0  0  0  0  0  0  0  0
    0.7580   25.5490  -24.8310 C   0  0  0  0  0  0  0  0  0  0  0  0
    0.3990   26.4480  -23.8200 C   0  0  0  0  0  0  0  0  0  0  0  0
   -0.8590   27.0580  -23.8400 C   0  0  0  0  0  0  0  0  0  0  0  0
   -1.7630   26.7670  -24.8690 C   0  0  0  0  0  0  0  0  0  0  0  0
   -1.4060   25.8680  -25.8800 C   0  0  0  0  0  0  0  0  0  0  0  0
   -1.8490   24.4340  -28.8680 C   0  0  0  0  0  0  0  0  0  0  0  0
   -1.3190   25.6690  -29.2300 O   0  0  0  0  0  0  0  0  0  0  0  0
   -6.8240   22.5310  -31.6870 C   0  0  0  0  0  0  0  0  0  0  0  0
   -6.9350   21.2890  -32.3190 C   0  0  0  0  0  0  0  0  0  0  0  0
   -6.1718   18.4129  -30.9693 H   0  0  0  0  0  0  0  0  0  0  0  0
   -7.8953   18.6392  -31.4221 H   0  0  0  0  0  0  0  0  0  0  0  0
   -7.1753   16.9935  -31.4221 H   0  0  0  0  0  0  0  0  0  0  0  0
   -3.6774   20.8729  -33.2757 H   0  0  0  0  0  0  0  0  0  0  0  0
   -3.4761   23.0803  -32.1299 H   0  0  0  0  0  0  0  0  0  0  0  0
   -4.5953   22.4694  -29.4218 H   0  0  0  0  0  0  0  0  0  0  0  0
   -3.3524   20.9823  -27.8568 H   0  0  0  0  0  0  0  0  0  0  0  0
   -1.1744   21.7195  -26.8919 H   0  0  0  0  0  0  0  0  0  0  0  0
    1.7489   25.0717  -24.8142 H   0  0  0  0  0  0  0  0  0  0  0  0
    1.1070   26.6748  -23.0092 H   0  0  0  0  0  0  0  0  0  0  0  0
   -1.1387   27.7670  -23.0468 H   0  0  0  0  0  0  0  0  0  0  0  0
   -2.7536   27.2451  -24.8825 H   0  0  0  0  0  0  0  0  0  0  0  0
   -2.1169   25.6409  -26.6881 H   0  0  0  0  0  0  0  0  0  0  0  0
   -7.7162   23.0077  -31.2549 H   0  0  0  0  0  0  0  0  0  0  0  0
   -7.9164   20.7980  -32.3945 H   0  0  0  0  0  0  0  0  0  0  0  0
  1  2  1  0
  2  3  2  0
  2  4  1  0
  4  5  1  0
  5  6  2  0
  6  7  1  0
  7  8  2  0
  8  9  1  0
  9 10  2  0
  9 11  2  0
  9 12  1  0
 12 13  1  0
 13 14  2  0
 14 15  1  0
 15 16  2  0
 16 17  1  0
 17 18  1  0
 18 19  2  0
 18 20  2  0
 18 21  1  0
 21 22  2  0
 22 23  1  0
 23 24  2  0
 24 25  1  0
 25 26  2  0
 17 27  2  0
 27 28  1  0
  8 29  1  0
 29 30  2  0
 30  5  1  0
 27 13  1  0
 26 21  1  0
  1 31  1  0
  1 32  1  0
  1 33  1  0
  6 34  1  0
  7 35  1  0
 14 36  1  0
 15 37  1  0
 16 38  1  0
 22 39  1  0
 23 40  1  0
 24 41  1  0
 25 42  1  0
 26 43  1  0
 29 44  1  0
 30 45  1  0
M  CHG  3   4  -1  12  -1  28  -1
M  END
>  <UniqueID>  (17) 
16

>  <SMILES>  (17) 
CC(=O)[N-]c1ccc(S(=O)(=O)[N-]c2cccc(S(=O)(=O)c3ccccc3)c2[O-])cc1

>  <Energy>  (17) 
57.143459325017076

>  <Genealogy>  (17) 
CC(=O)[N-]c1ccc(S(=O)(=O)[N-]c2cccc(S(=O)(=O)c3ccccc3)c2[O-])cc1 (protonated)
CC(=O)[N-]c1ccc(S(=O)(=O)[N-]c2cccc(S(=O)(=O)c3ccccc3)c2[O-])cc1 (3D coordinates assigned)
CC(=O)[N-]c1ccc(S(=O)(=O)[N-]c2cccc(S(=O)(=O)c3ccccc3)c2[O-])cc1 (optimized conformer: 57.143459325017076 kcal/mol)

>  <smiles>  (17) 
CC(=O)Nc1ccc(S(=O)(=O)Nc2cccc(S(=O)(=O)c3ccccc3)c2O)cc1

>  <score_type>  (17) 
oracle

>  <origin>  (17) 
adgpu

>  <m_score__min__energy>  (17) 
-14.51

>  <m_primary>  (17) 
energy

$$$$
17:0
     RDKit          3D

 36 38  0  0  0  0  0  0  0  0999 V2000
   -3.3910   15.7160  -36.7530 H   0  0  0  0  0  0  0  0  0  0  0  0
   -2.7740   16.2200  -36.0770 N   0  0  0  0  0  0  0  0  0  0  0  0
   -3.2640   16.9790  -35.1510 C   0  0  0  0  0  0  0  0  0  0  0  0
   -4.6090   17.1380  -35.0390 N   0  0  0  0  0  0  0  0  0  0  0  0
   -5.1300   17.9360  -34.0730 C   0  0  0  0  0  0  0  0  0  0  0  0
   -6.4230   18.0470  -33.9700 N   0  0  0  0  0  0  0  0  0  0  0  0
   -7.1450   18.8740  -33.0420 C   0  0  0  0  0  0  0  0  0  0  0  0
   -8.0110   18.2580  -32.1300 C   0  0  0  0  0  0  0  0  0  0  0  0
   -8.1153   17.1630  -32.1295 H   0  0  0  0  0  0  0  0  0  0  0  0
   -8.7440   19.0260  -31.2200 C   0  0  0  0  0  0  0  0  0  0  0  0
   -9.4075   18.5328  -30.4944 H   0  0  0  0  0  0  0  0  0  0  0  0
   -8.6350   20.4180  -31.2310 C   0  0  0  0  0  0  0  0  0  0  0  0
   -9.1973   21.0174  -30.4999 H   0  0  0  0  0  0  0  0  0  0  0  0
   -7.8110   21.0550  -32.1710 C   0  0  0  0  0  0  0  0  0  0  0  0
   -7.6820   22.5500  -32.1750 C   0  0  0  0  0  0  0  0  0  0  0  0
   -7.6502   22.9181  -31.1389 H   0  0  0  0  0  0  0  0  0  0  0  0
   -6.7558   22.8367  -32.6945 H   0  0  0  0  0  0  0  0  0  0  0  0
   -8.5454   22.9911  -32.6945 H   0  0  0  0  0  0  0  0  0  0  0  0
   -7.0640   20.2800  -33.0730 C   0  0  0  0  0  0  0  0  0  0  0  0
   -6.4117   20.7739  -33.8082 H   0  0  0  0  0  0  0  0  0  0  0  0
   -4.2950   18.5640  -33.2040 N   0  0  0  0  0  0  0  0  0  0  0  0
   -2.9520   18.4110  -33.3100 C   0  0  0  0  0  0  0  0  0  0  0  0
   -1.8730   19.2450  -32.1510 S   0  0  0  0  0  0  0  0  0  0  0  0
   -2.9070   20.7030  -32.1250 C   0  0  0  0  0  0  0  0  0  0  0  0
   -3.6380   21.1160  -33.1830 N   0  0  0  0  0  0  0  0  0  0  0  0
   -4.3450   22.2410  -32.8960 C   0  0  0  0  0  0  0  0  0  0  0  0
   -5.0006   22.7354  -33.6279 H   0  0  0  0  0  0  0  0  0  0  0  0
   -4.1710   22.7140  -31.6030 C   0  0  0  0  0  0  0  0  0  0  0  0
   -4.9330   24.1400  -30.9230 S   0  0  0  0  0  0  0  0  0  0  0  0
   -5.7190   23.7550  -29.7020 O   0  0  0  0  0  0  0  0  0  0  0  0
   -5.8550   24.7520  -31.9390 O   0  0  0  0  0  0  0  0  0  0  0  0
   -3.7230   25.2960  -30.4940 N   0  0  0  0  0  0  0  0  0  0  0  0
   -3.7360   26.0390  -31.2280 H   0  0  0  0  0  0  0  0  0  0  0  0
   -3.1010   21.7060  -30.7870 S   0  0  0  0  0  0  0  0  0  0  0  0
   -2.4340   17.6200  -34.2850 N   0  0  0  0  0  0  0  0  0  0  0  0
   -1.3980   17.5010  -34.3630 H   0  0  0  0  0  0  0  0  0  0  0  0
  1  2  1  0
  2  3  2  0
  3  4  1  0
  4  5  1  0
  5  6  2  3
  6  7  1  0
  7  8  2  0
  8  9  1  0
  8 10  1  0
 10 11  1  0
 10 12  2  0
 12 13  1  0
 12 14  1  0
 14 15  1  0
 15 16  1  0
 15 17  1  0
 15 18  1  0
 14 19  2  0
 19 20  1  0
  5 21  1  0
 21 22  2  0
 22 23  1  0
 23 24  1  0
 24 25  2  0
 25 26  1  0
 26 27  1  0
 26 28  2  0
 28 29  1  0
 29 30  2  0
 29 31  2  0
 29 32  1  0
 32 33  1  0
 28 34  1  0
 22 35  1  0
 35 36  1  0
 35  3  1  0
 19  7  1  0
 34 24  1  0
M  CHG  2   4  -1  32  -1
M  END
>  <UniqueID>  (18) 
17

>  <SMILES>  (18) 
[H]/N=c1\[n-]c(=Nc2cccc(C)c2)nc(Sc2ncc(S([NH-])(=O)=O)s2)[nH]1

>  <Energy>  (18) 
69.25006347005355

>  <Genealogy>  (18) 
Cc1cccc(N=c2nc(Sc3ncc(S([NH-])(=O)=O)s3)[nH]c(=N)[n-]2)c1 (protonated)
[H]/N=c1\[n-]c(=Nc2cccc(C)c2)nc(Sc2ncc(S([NH-])(=O)=O)s2)[nH]1 (cis-trans isomerization)
[H]/N=c1\[n-]c(=Nc2cccc(C)c2)nc(Sc2ncc(S([NH-])(=O)=O)s2)[nH]1 (3D coordinates assigned)
[H]/N=c1\[n-]c(=Nc2cccc(C)c2)nc(Sc2ncc(S([NH-])(=O)=O)s2)[nH]1 (optimized conformer: 69.25006347005355 kcal/mol)

>  <smiles>  (18) 
Cc1cccc(N=c2nc(Sc3ncc(S(N)(=O)=O)s3)[nH]c(=N)[nH]2)c1

>  <score_type>  (18) 
oracle

>  <origin>  (18) 
adgpu

>  <m_score__min__energy>  (18) 
-10.9

>  <m_primary>  (18) 
energy

$$$$
18:0
     RDKit          3D

 51 53  0  0  1  0  0  0  0  0999 V2000
   -2.1690   20.9010  -27.1450 C   0  0  0  0  0  0  0  0  0  0  0  0
   -2.9360   20.7530  -28.3890 N   0  0  0  0  0  0  0  0  0  0  0  0
   -3.0900   21.8050  -29.1220 C   0  0  0  0  0  0  0  0  0  0  0  0
   -2.5540   23.0200  -28.7480 C   0  0  0  0  0  0  0  0  0  0  0  0
   -2.6940   24.1680  -29.5010 C   0  0  0  0  0  0  0  0  0  0  0  0
   -2.1200   25.3220  -29.0340 O   0  0  0  0  0  0  0  0  0  0  0  0
   -1.6240   25.4880  -27.7490 C   0  0  0  0  0  0  0  0  0  0  0  0
   -2.4150   25.4520  -26.6190 C   0  0  0  0  0  0  0  0  0  0  0  0
   -1.8080   25.6310  -25.3840 C   0  0  0  0  0  0  0  0  0  0  0  0
   -0.4430   25.8430  -25.2560 C   0  0  0  0  0  0  0  0  0  0  0  0
    0.3420   25.8780  -26.3870 C   0  0  0  0  0  0  0  0  0  0  0  0
    1.7490   26.0890  -26.3570 N   0  0  0  0  0  0  0  0  0  0  0  0
    2.6550   25.4400  -27.2330 C   0  0  0  0  0  0  0  0  0  0  0  0
    4.0900   25.7380  -27.1060 C   0  0  0  0  0  0  0  0  0  0  0  0
    2.3040   24.6180  -28.1180 O   0  0  0  0  0  0  0  0  0  0  0  0
   -0.2650   25.6990  -27.6290 C   0  0  0  0  0  0  0  0  0  0  0  0
   -3.3910   24.0700  -30.6480 N   0  0  0  0  0  0  0  0  0  0  0  0
   -3.9350   22.8910  -31.0510 C   0  0  0  0  0  0  0  0  0  0  0  0
   -4.5990   22.8470  -32.1660 N   0  0  0  0  0  0  0  0  0  0  0  0
   -5.1720   21.6110  -32.5940 C   0  0  0  0  0  0  0  0  0  0  0  0
   -4.5000   20.7040  -33.3840 C   0  0  0  0  0  0  0  0  0  0  0  0
   -5.1730   19.5430  -33.7260 C   0  0  0  0  0  0  0  0  0  0  0  0
   -6.4690   19.2950  -33.2970 C   0  0  0  0  0  0  0  0  0  0  0  0
   -7.1430   20.2000  -32.5060 C   0  0  0  0  0  0  0  0  0  0  0  0
   -8.7740   19.9380  -31.9380 S   0  0  0  0  0  0  0  0  0  0  0  0
   -9.4830   21.3530  -31.1760 C   0  0  0  0  0  0  0  0  0  0  0  0
   -9.5670   19.4790  -33.1370 O   0  0  0  0  0  0  0  0  0  0  0  0
   -8.7810   18.8010  -30.9700 O   0  0  0  0  0  0  0  0  0  0  0  0
   -6.4640   21.3580  -32.1690 C   0  0  0  0  0  0  0  0  0  0  0  0
   -3.7830   21.7700  -30.2910 N   0  0  0  0  0  0  0  0  0  0  0  0
   -2.8399   20.7715  -26.2830 H   0  0  0  0  0  0  0  0  0  0  0  0
   -1.3762   20.1393  -27.1102 H   0  0  0  0  0  0  0  0  0  0  0  0
   -1.7165   21.9030  -27.1102 H   0  0  0  0  0  0  0  0  0  0  0  0
   -1.9889   23.0763  -27.8060 H   0  0  0  0  0  0  0  0  0  0  0  0
   -3.4997   25.2856  -26.6952 H   0  0  0  0  0  0  0  0  0  0  0  0
   -2.4295   25.6039  -24.4768 H   0  0  0  0  0  0  0  0  0  0  0  0
    0.0074   25.9816  -24.2620 H   0  0  0  0  0  0  0  0  0  0  0  0
    2.0930   26.7680  -25.6320 H   0  0  0  0  0  0  0  0  0  0  0  0
    4.3600   25.7941  -26.0411 H   0  0  0  0  0  0  0  0  0  0  0  0
    4.6741   24.9420  -27.5910 H   0  0  0  0  0  0  0  0  0  0  0  0
    4.3089   26.7008  -27.5910 H   0  0  0  0  0  0  0  0  0  0  0  0
    0.3550   25.7266  -28.5372 H   0  0  0  0  0  0  0  0  0  0  0  0
   -3.4960   24.9250  -31.2100 H   0  0  0  0  0  0  0  0  0  0  0  0
   -3.4727   20.8940  -33.7284 H   0  0  0  0  0  0  0  0  0  0  0  0
   -4.6660   18.7967  -34.3553 H   0  0  0  0  0  0  0  0  0  0  0  0
   -6.9670   18.3600  -33.5934 H   0  0  0  0  0  0  0  0  0  0  0  0
   -9.4295   21.2461  -30.0825 H   0  0  0  0  0  0  0  0  0  0  0  0
   -8.9288   22.2518  -31.4842 H   0  0  0  0  0  0  0  0  0  0  0  0
  -10.5348   21.4471  -31.4842 H   0  0  0  0  0  0  0  0  0  0  0  0
   -6.9704   22.1049  -31.5399 H   0  0  0  0  0  0  0  0  0  0  0  0
   -4.1990   20.8470  -30.5900 H   0  0  0  0  0  0  0  0  0  0  0  0
  1  2  1  0
  2  3  2  0
  3  4  1  0
  4  5  2  0
  5  6  1  0
  6  7  1  0
  7  8  2  0
  8  9  1  0
  9 10  2  0
 10 11  1  0
 11 12  1  0
 12 13  1  0
 13 14  1  0
 13 15  2  0
 11 16  2  0
  5 17  1  0
 17 18  1  0
 18 19  2  0
 19 20  1  0
 20 21  2  0
 21 22  1  0
 22 23  2  0
 23 24  1  0
 24 25  1  0
 25 26  1  0
 25 27  2  0
 25 28  2  0
 24 29  2  0
 18 30  1  0
 30  3  1  0
 16  7  1  0
 29 20  1  0
  1 31  1  0
  1 32  1  0
  1 33  1  0
  4 34  1  0
  8 35  1  0
  9 36  1  0
 10 37  1  0
 12 38  1  0
 14 39  1  0
 14 40  1  0
 14 41  1  0
 16 42  1  0
 17 43  1  0
 21 44  1  0
 22 45  1  0
 23 46  1  0
 26 47  1  0
 26 48  1  0
 26 49  1  0
 29 50  1  0
 30 51  1  0
M  END
>  <smiles>  (19) 
CN=c1cc(Oc2cccc(NC(C)=O)c2)[nH]c(=Nc2cccc(S(C)(=O)=O)c2)[nH]1

>  <score_type>  (19) 
oracle

>  <origin>  (19) 
adgpu

>  <m_score__min__energy>  (19) 
-10.34

>  <m_primary>  (19) 
energy

$$$$
19:0
     RDKit          3D

 40 42  0  0  1  0  0  0  0  0999 V2000
   -7.9330   19.8370  -33.4120 N   0  0  0  0  0  0  0  0  0  0  0  0
   -8.4490   20.7450  -32.0400 S   0  0  0  0  0  0  0  0  0  0  0  0
   -9.7280   21.4820  -32.3250 O   0  0  0  0  0  0  0  0  0  0  0  0
   -8.7450   19.7670  -30.9330 O   0  0  0  0  0  0  0  0  0  0  0  0
   -7.1650   21.8620  -31.5890 C   0  0  0  0  0  0  0  0  0  0  0  0
   -5.8760   21.5130  -31.9620 C   0  0  0  0  0  0  0  0  0  0  0  0
   -4.8670   22.3880  -31.6090 C   0  0  0  0  0  0  0  0  0  0  0  0
   -5.1170   23.5650  -30.9150 C   0  0  0  0  0  0  0  0  0  0  0  0
   -3.9870   24.3760  -30.6150 N   0  0  0  0  0  0  0  0  0  0  0  0
   -3.2370   24.0410  -29.6190 C   0  0  0  0  0  0  0  0  0  0  0  0
   -3.5210   22.9470  -28.8820 N   0  0  0  0  0  0  0  0  0  0  0  0
   -2.6770   22.6820  -27.8650 C   0  0  0  0  0  0  0  0  0  0  0  0
   -1.5840   23.4510  -27.5600 C   0  0  0  0  0  0  0  0  0  0  0  0
   -0.4470   23.0230  -26.1230 Br  0  0  0  0  0  0  0  0  0  0  0  0
   -1.3200   24.5560  -28.3250 C   0  0  0  0  0  0  0  0  0  0  0  0
   -0.3550   25.3470  -28.1580 N   0  0  0  0  0  0  0  0  0  0  0  0
    0.6230   25.2290  -27.1520 C   0  0  0  0  0  0  0  0  0  0  0  0
    0.3970   25.8580  -25.9170 C   0  0  0  0  0  0  0  0  0  0  0  0
    1.3690   25.8060  -24.9100 C   0  0  0  0  0  0  0  0  0  0  0  0
    2.5480   25.1300  -25.1530 C   0  0  0  0  0  0  0  0  0  0  0  0
    2.8040   24.4950  -26.3680 C   0  0  0  0  0  0  0  0  0  0  0  0
    4.0100   23.8190  -26.5790 O   0  0  0  0  0  0  0  0  0  0  0  0
    1.8300   24.5480  -27.3720 C   0  0  0  0  0  0  0  0  0  0  0  0
   -2.1760   24.8210  -29.3550 N   0  0  0  0  0  0  0  0  0  0  0  0
   -6.4050   23.8980  -30.5500 C   0  0  0  0  0  0  0  0  0  0  0  0
   -7.4430   23.0290  -30.8960 C   0  0  0  0  0  0  0  0  0  0  0  0
   -8.5030   18.9620  -33.4540 H   0  0  0  0  0  0  0  0  0  0  0  0
   -8.0790   20.4300  -34.2540 H   0  0  0  0  0  0  0  0  0  0  0  0
   -5.6669   20.5840  -32.5126 H   0  0  0  0  0  0  0  0  0  0  0  0
   -3.8309   22.1445  -31.8868 H   0  0  0  0  0  0  0  0  0  0  0  0
   -4.3590   22.3280  -29.0890 H   0  0  0  0  0  0  0  0  0  0  0  0
   -2.8770   21.7968  -27.2434 H   0  0  0  0  0  0  0  0  0  0  0  0
   -0.5472   26.3937  -25.7398 H   0  0  0  0  0  0  0  0  0  0  0  0
    1.1957   26.2961  -23.9406 H   0  0  0  0  0  0  0  0  0  0  0  0
    3.3111   25.0909  -24.3617 H   0  0  0  0  0  0  0  0  0  0  0  0
    4.6170   24.0580  -27.3570 H   0  0  0  0  0  0  0  0  0  0  0  0
    2.0116   24.0536  -28.3377 H   0  0  0  0  0  0  0  0  0  0  0  0
   -1.9970   25.6700  -29.9650 H   0  0  0  0  0  0  0  0  0  0  0  0
   -6.6104   24.8274  -29.9986 H   0  0  0  0  0  0  0  0  0  0  0  0
   -8.4795   23.2711  -30.6185 H   0  0  0  0  0  0  0  0  0  0  0  0
  1  2  1  0
  2  3  2  0
  2  4  2  0
  2  5  1  0
  5  6  2  0
  6  7  1  0
  7  8  2  0
  8  9  1  0
  9 10  2  0
 10 11  1  0
 11 12  1  0
 12 13  2  0
 13 14  1  0
 13 15  1  0
 15 16  2  0
 16 17  1  0
 17 18  2  0
 18 19  1  0
 19 20  2  0
 20 21  1  0
 21 22  1  0
 21 23  2  0
 15 24  1  0
  8 25  1  0
 25 26  2  0
 26  5  1  0
 24 10  1  0
 23 17  1  0
  1 27  1  0
  1 28  1  0
  6 29  1  0
  7 30  1  0
 11 31  1  0
 12 32  1  0
 18 33  1  0
 19 34  1  0
 20 35  1  0
 22 36  1  0
 23 37  1  0
 24 38  1  0
 25 39  1  0
 26 40  1  0
M  END
>  <smiles>  (20) 
NS(=O)(=O)c1ccc(N=c2[nH]cc(Br)c(=Nc3cccc(O)c3)[nH]2)cc1

>  <score_type>  (20) 
oracle

>  <origin>  (20) 
adgpu

>  <m_score__min__energy>  (20) 
-9.6799999999999997

>  <m_primary>  (20) 
energy

$$$$
20:0
     RDKit          3D

 50 52  0  0  0  0  0  0  0  0999 V2000
   -7.5770   18.2490  -32.2110 C   0  0  0  0  0  0  0  0  0  0  0  0
   -6.8490   18.6890  -33.3530 O   0  0  0  0  0  0  0  0  0  0  0  0
   -5.6250   19.3750  -33.2940 C   0  0  0  0  0  0  0  0  0  0  0  0
   -4.4390   18.6380  -33.4210 C   0  0  0  0  0  0  0  0  0  0  0  0
   -3.1960   19.2750  -33.3570 C   0  0  0  0  0  0  0  0  0  0  0  0
   -3.1230   20.6640  -33.1740 C   0  0  0  0  0  0  0  0  0  0  0  0
   -1.7860   21.3430  -33.0400 C   0  0  0  0  0  0  0  0  0  0  0  0
   -0.3880   20.2050  -33.3870 S   0  0  0  0  0  0  0  0  0  0  0  0
   -0.2020   19.6430  -31.6920 C   0  0  0  0  0  0  0  0  0  0  0  0
    0.3130   18.4120  -31.4520 N   0  0  0  0  0  0  0  0  0  0  0  0
    0.3750   17.9100  -30.1940 C   0  0  0  0  0  0  0  0  0  0  0  0
    0.8700   16.7680  -30.0060 O   0  0  0  0  0  0  0  0  0  0  0  0
   -0.1270   18.6520  -29.1180 C   0  0  0  0  0  0  0  0  0  0  0  0
   -0.0760   17.9670  -27.4920 Cl  0  0  0  0  0  0  0  0  0  0  0  0
   -0.6700   19.9270  -29.3840 C   0  0  0  0  0  0  0  0  0  0  0  0
   -1.3860   20.7270  -28.3240 C   0  0  0  0  0  0  0  0  0  0  0  0
   -2.0300   21.9330  -28.9570 C   0  0  0  0  0  0  0  0  0  0  0  0
   -3.2230   21.7980  -29.6840 C   0  0  0  0  0  0  0  0  0  0  0  0
   -3.8710   22.9240  -30.1940 C   0  0  0  0  0  0  0  0  0  0  0  0
   -3.3360   24.2120  -29.9820 C   0  0  0  0  0  0  0  0  0  0  0  0
   -3.9610   25.3680  -30.4750 O   0  0  0  0  0  0  0  0  0  0  0  0
   -5.3690   25.5870  -30.4810 C   0  0  0  0  0  0  0  0  0  0  0  0
   -2.1450   24.3580  -29.2500 C   0  0  0  0  0  0  0  0  0  0  0  0
   -1.6370   25.6550  -29.0500 O   0  0  0  0  0  0  0  0  0  0  0  0
   -0.9810   26.0910  -27.8630 C   0  0  0  0  0  0  0  0  0  0  0  0
   -1.4990   23.2150  -28.7380 C   0  0  0  0  0  0  0  0  0  0  0  0
   -0.6670   20.4000  -30.6640 N   0  0  0  0  0  0  0  0  0  0  0  0
   -4.3100   21.4070  -33.0560 C   0  0  0  0  0  0  0  0  0  0  0  0
   -5.5530   20.7710  -33.1110 C   0  0  0  0  0  0  0  0  0  0  0  0
   -7.0526   18.5659  -31.2974 H   0  0  0  0  0  0  0  0  0  0  0  0
   -8.5849   18.6893  -32.2267 H   0  0  0  0  0  0  0  0  0  0  0  0
   -7.6558   17.1519  -32.2267 H   0  0  0  0  0  0  0  0  0  0  0  0
   -4.4869   17.5495  -33.5723 H   0  0  0  0  0  0  0  0  0  0  0  0
   -2.2723   18.6851  -33.4504 H   0  0  0  0  0  0  0  0  0  0  0  0
   -1.7431   22.1825  -33.7495 H   0  0  0  0  0  0  0  0  0  0  0  0
   -1.6875   21.6895  -32.0007 H   0  0  0  0  0  0  0  0  0  0  0  0
   -2.1595   20.1027  -27.8530 H   0  0  0  0  0  0  0  0  0  0  0  0
   -0.6647   21.0539  -27.5605 H   0  0  0  0  0  0  0  0  0  0  0  0
   -3.6500   20.7984  -29.8529 H   0  0  0  0  0  0  0  0  0  0  0  0
   -4.8041   22.8065  -30.7645 H   0  0  0  0  0  0  0  0  0  0  0  0
   -5.7356   25.6440  -29.4455 H   0  0  0  0  0  0  0  0  0  0  0  0
   -5.5911   26.5305  -31.0011 H   0  0  0  0  0  0  0  0  0  0  0  0
   -5.8672   24.7555  -31.0011 H   0  0  0  0  0  0  0  0  0  0  0  0
   -1.5318   25.7249  -26.9841 H   0  0  0  0  0  0  0  0  0  0  0  0
    0.0448   25.6944  -27.8442 H   0  0  0  0  0  0  0  0  0  0  0  0
   -0.9495   27.1904  -27.8442 H   0  0  0  0  0  0  0  0  0  0  0  0
   -0.5694   23.3278  -28.1609 H   0  0  0  0  0  0  0  0  0  0  0  0
   -1.0850   21.3330  -30.8750 H   0  0  0  0  0  0  0  0  0  0  0  0
   -4.2602   22.4973  -32.9193 H   0  0  0  0  0  0  0  0  0  0  0  0
   -6.4765   21.3603  -33.0114 H   0  0  0  0  0  0  0  0  0  0  0  0
  1  2  1  0
  2  3  1  0
  3  4  2  0
  4  5  1  0
  5  6  2  0
  6  7  1  0
  7  8  1  0
  8  9  1  0
  9 10  2  0
 10 11  1  0
 11 12  2  0
 11 13  1  0
 13 14  1  0
 13 15  2  0
 15 16  1  0
 16 17  1  0
 17 18  2  0
 18 19  1  0
 19 20  2  0
 20 21  1  0
 21 22  1  0
 20 23  1  0
 23 24  1  0
 24 25  1  0
 23 26  2  0
 15 27  1  0
  6 28  1  0
 28 29  2  0
 29  3  1  0
 27  9  1  0
 26 17  1  0
  1 30  1  0
  1 31  1  0
  1 32  1  0
  4 33  1  0
  5 34  1  0
  7 35  1  0
  7 36  1  0
 16 37  1  0
 16 38  1  0
 18 39  1  0
 19 40  1  0
 22 41  1  0
 22 42  1  0
 22 43  1  0
 25 44  1  0
 25 45  1  0
 25 46  1  0
 26 47  1  0
 27 48  1  0
 28 49  1  0
 29 50  1  0
M  END
>  <UniqueID>  (21) 
18

>  <SMILES>  (21) 
COc1ccc(CSc2nc(=O)c(Cl)c(Cc3ccc(OC)c(OC)c3)[nH]2)cc1

>  <Energy>  (21) 
44.204282614066585

>  <Genealogy>  (21) 
COc1ccc(CSc2nc(=O)c(Cl)c(Cc3ccc(OC)c(OC)c3)[nH]2)cc1 (3D coordinates assigned)
COc1ccc(CSc2nc(=O)c(Cl)c(Cc3ccc(OC)c(OC)c3)[nH]2)cc1 (optimized conformer: 44.204282614066585 kcal/mol)

>  <smiles>  (21) 
COc1ccc(CSc2nc(=O)c(Cl)c(Cc3ccc(OC)c(OC)c3)[nH]2)cc1

>  <score_type>  (21) 
oracle

>  <origin>  (21) 
adgpu

>  <m_score__min__energy>  (21) 
-9.2400000000000002

>  <m_primary>  (21) 
energy

$$$$
21:0
     RDKit          3D

 34 35  0  0  0  0  0  0  0  0999 V2000
   -8.8550   21.7490  -31.1480 C   0  0  0  0  0  0  0  0  0  0  0  0
   -7.8210   21.5610  -32.2630 C   0  0  0  0  0  0  0  0  0  0  0  0
   -6.5240   22.2240  -31.9510 N   0  0  1  0  0  0  0  0  0  0  0  0
   -6.4860   22.7720  -30.5750 C   0  0  0  0  0  0  0  0  0  0  0  0
   -5.2780   23.6300  -30.3360 C   0  0  0  0  0  0  0  0  0  0  0  0
   -4.2120   23.3360  -29.5120 C   0  0  0  0  0  0  0  0  0  0  0  0
   -3.3510   24.4080  -29.6330 C   0  0  0  0  0  0  0  0  0  0  0  0
   -3.8510   25.2910  -30.4690 O   0  0  0  0  0  0  0  0  0  0  0  0
   -5.0090   24.8540  -30.9100 C   0  0  0  0  0  0  0  0  0  0  0  0
   -5.2090   21.0850  -32.1410 S   0  0  0  0  0  0  0  0  0  0  0  0
   -4.1990   21.6350  -33.1100 O   0  0  0  0  0  0  0  0  0  0  0  0
   -4.5180   20.8820  -30.8200 O   0  0  0  0  0  0  0  0  0  0  0  0
   -5.8000   19.5290  -32.7300 C   0  0  0  0  0  0  0  0  0  0  0  0
   -6.4610   18.6500  -31.8590 C   0  0  0  0  0  0  0  0  0  0  0  0
   -6.9420   17.4240  -32.3280 C   0  0  0  0  0  0  0  0  0  0  0  0
   -6.7640   17.0690  -33.6680 C   0  0  0  0  0  0  0  0  0  0  0  0
   -6.1060   17.9400  -34.5410 C   0  0  0  0  0  0  0  0  0  0  0  0
   -5.6240   19.1680  -34.0740 C   0  0  0  0  0  0  0  0  0  0  0  0
   -8.3599   21.6590  -30.1698 H   0  0  0  0  0  0  0  0  0  0  0  0
   -9.3130   22.7451  -31.2368 H   0  0  0  0  0  0  0  0  0  0  0  0
   -9.6344   20.9778  -31.2368 H   0  0  0  0  0  0  0  0  0  0  0  0
   -7.6431   20.4844  -32.4023 H   0  0  0  0  0  0  0  0  0  0  0  0
   -8.2237   22.0239  -33.1760 H   0  0  0  0  0  0  0  0  0  0  0  0
   -6.3340   22.9980  -32.6310 H   0  0  0  0  0  0  0  0  0  0  0  0
   -7.3887   23.3788  -30.4110 H   0  0  0  0  0  0  0  0  0  0  0  0
   -6.4393   21.9236  -29.8764 H   0  0  0  0  0  0  0  0  0  0  0  0
   -4.0767   22.4384  -28.8907 H   0  0  0  0  0  0  0  0  0  0  0  0
   -2.3896   24.5086  -29.1081 H   0  0  0  0  0  0  0  0  0  0  0  0
   -5.6599   25.3808  -31.6233 H   0  0  0  0  0  0  0  0  0  0  0  0
   -6.6013   18.9264  -30.8036 H   0  0  0  0  0  0  0  0  0  0  0  0
   -7.4609   16.7383  -31.6420 H   0  0  0  0  0  0  0  0  0  0  0  0
   -7.1419   16.1037  -34.0358 H   0  0  0  0  0  0  0  0  0  0  0  0
   -5.9670   17.6601  -35.5957 H   0  0  0  0  0  0  0  0  0  0  0  0
   -5.1059   19.8518  -34.7625 H   0  0  0  0  0  0  0  0  0  0  0  0
  1  2  1  0
  2  3  1  0
  3  4  1  0
  4  5  1  0
  5  6  1  0
  6  7  2  0
  7  8  1  0
  8  9  1  0
  3 10  1  0
 10 11  2  0
 10 12  2  0
 10 13  1  0
 13 14  2  0
 14 15  1  0
 15 16  2  0
 16 17  1  0
 17 18  2  0
  9  5  2  0
 18 13  1  0
  1 19  1  0
  1 20  1  0
  1 21  1  0
  2 22  1  0
  2 23  1  0
  3 24  1  6
  4 25  1  0
  4 26  1  0
  6 27  1  0
  7 28  1  0
  9 29  1  0
 14 30  1  0
 15 31  1  0
 16 32  1  0
 17 33  1  0
 18 34  1  0
M  CHG  1   3   1
M  END
>  <UniqueID>  (22) 
19

>  <SMILES>  (22) 
CC[N@@H+](Cc1ccoc1)S(=O)(=O)c1ccccc1

>  <Energy>  (22) 
59.7030312398082

>  <Genealogy>  (22) 
CC[NH+](Cc1ccoc1)S(=O)(=O)c1ccccc1 (protonated)
CC[N@@H+](Cc1ccoc1)S(=O)(=O)c1ccccc1 (chirality)
CC[N@@H+](Cc1ccoc1)S(=O)(=O)c1ccccc1 (3D coordinates assigned)
CC[N@@H+](Cc1ccoc1)S(=O)(=O)c1ccccc1 (optimized conformer: 59.7030312398082 kcal/mol)

>  <smiles>  (22) 
CCN(Cc1ccoc1)S(=O)(=O)c1ccccc1

>  <score_type>  (22) 
oracle

>  <origin>  (22) 
adgpu

>  <m_score__min__energy>  (22) 
-6.7400000000000002

>  <m_primary>  (22) 
energy

$$$$
22:0
     RDKit          3D

 64 67  0  0  0  0  0  0  0  0999 V2000
    0.4310   16.3530  -30.5190 H   0  0  0  0  0  0  0  0  0  0  0  0
   -0.0870   16.4530  -31.4220 N   0  0  0  0  0  0  0  0  0  0  0  0
   -0.6340   17.5710  -31.7840 C   0  0  0  0  0  0  0  0  0  0  0  0
   -0.5210   18.6150  -30.9270 N   0  0  0  0  0  0  0  0  0  0  0  0
   -0.9210   19.9060  -30.9140 C   0  0  0  0  0  0  0  0  0  0  0  0
   -0.6320   20.5780  -29.8310 N   0  0  0  0  0  0  0  0  0  0  0  0
   -0.8950   21.9650  -29.5650 C   0  0  0  0  0  0  0  0  0  0  0  0
    0.1380   22.8310  -29.1750 C   0  0  0  0  0  0  0  0  0  0  0  0
    1.1571   22.4418  -29.0338 H   0  0  0  0  0  0  0  0  0  0  0  0
   -0.1260   24.1860  -28.9660 C   0  0  0  0  0  0  0  0  0  0  0  0
    0.6880   24.8623  -28.6660 H   0  0  0  0  0  0  0  0  0  0  0  0
   -1.4190   24.6870  -29.1360 C   0  0  0  0  0  0  0  0  0  0  0  0
   -1.6590   26.0440  -28.9430 O   0  0  0  0  0  0  0  0  0  0  0  0
   -2.4690   23.8180  -29.4860 C   0  0  0  0  0  0  0  0  0  0  0  0
   -3.8290   24.3350  -29.7150 C   0  0  0  0  0  0  0  0  0  0  0  0
   -4.7830   23.8730  -29.0370 O   0  0  0  0  0  0  0  0  0  0  0  0
   -4.0950   25.3570  -30.6820 N   0  0  0  0  0  0  0  0  0  0  0  0
   -5.3870   26.0100  -30.8390 C   0  0  0  0  0  0  0  0  0  0  0  0
   -5.8121   26.2249  -29.8475 H   0  0  0  0  0  0  0  0  0  0  0  0
   -5.2573   26.9508  -31.3941 H   0  0  0  0  0  0  0  0  0  0  0  0
   -6.0676   25.3476  -31.3941 H   0  0  0  0  0  0  0  0  0  0  0  0
   -2.2000   22.4560  -29.6870 C   0  0  0  0  0  0  0  0  0  0  0  0
   -3.0204   21.7691  -29.9423 H   0  0  0  0  0  0  0  0  0  0  0  0
   -1.6230   20.5200  -31.9630 C   0  0  0  0  0  0  0  0  0  0  0  0
   -1.8668   21.5849  -31.8343 H   0  0  0  0  0  0  0  0  0  0  0  0
   -2.0290   19.9450  -33.1080 N   0  0  0  0  0  0  0  0  0  0  0  0
   -1.9150   18.6990  -33.6120 C   0  0  0  0  0  0  0  0  0  0  0  0
   -2.3655   18.5328  -34.6017 H   0  0  0  0  0  0  0  0  0  0  0  0
   -1.2900   17.5910  -33.0230 C   0  0  0  0  0  0  0  0  0  0  0  0
   -1.3200   16.3610  -33.7200 O   0  0  0  0  0  0  0  0  0  0  0  0
   -2.3430   15.4110  -33.6020 C   0  0  0  0  0  0  0  0  0  0  0  0
   -2.1250   14.2820  -32.8110 C   0  0  0  0  0  0  0  0  0  0  0  0
   -1.1289   14.0875  -32.3869 H   0  0  0  0  0  0  0  0  0  0  0  0
   -3.1800   13.4000  -32.5610 C   0  0  0  0  0  0  0  0  0  0  0  0
   -3.0100   12.2620  -31.6010 C   0  0  0  0  0  0  0  0  0  0  0  0
   -3.0666   12.6407  -30.5698 H   0  0  0  0  0  0  0  0  0  0  0  0
   -3.8076   11.5223  -31.7643 H   0  0  0  0  0  0  0  0  0  0  0  0
   -2.0310   11.7877  -31.7643 H   0  0  0  0  0  0  0  0  0  0  0  0
   -4.3990   13.6370  -33.1110 N   0  0  0  0  0  0  0  0  0  0  0  0
   -4.6340   14.6890  -33.9430 C   0  0  0  0  0  0  0  0  0  0  0  0
   -5.9480   14.8660  -34.4900 N   0  0  0  0  0  0  0  0  0  0  0  0
   -6.3460   14.1300  -35.1150 H   0  0  0  0  0  0  0  0  0  0  0  0
   -6.8300   15.9440  -34.0390 C   0  0  0  0  0  0  0  0  0  0  0  0
   -6.9654   16.6667  -34.8572 H   0  0  0  0  0  0  0  0  0  0  0  0
   -7.7992   15.5119  -33.7492 H   0  0  0  0  0  0  0  0  0  0  0  0
   -6.2250   16.6640  -32.8240 C   0  0  0  0  0  0  0  0  0  0  0  0
   -6.4217   16.0697  -31.9195 H   0  0  0  0  0  0  0  0  0  0  0  0
   -5.1426   16.7741  -32.9864 H   0  0  0  0  0  0  0  0  0  0  0  0
   -6.8250   18.0350  -32.6520 C   0  0  0  0  0  0  0  0  0  0  0  0
   -8.0810   18.1900  -32.0400 C   0  0  0  0  0  0  0  0  0  0  0  0
   -8.6056   17.3111  -31.6370 H   0  0  0  0  0  0  0  0  0  0  0  0
   -8.6670   19.4560  -31.9410 C   0  0  0  0  0  0  0  0  0  0  0  0
   -9.6446   19.5727  -31.4504 H   0  0  0  0  0  0  0  0  0  0  0  0
   -8.0110   20.5720  -32.4650 C   0  0  0  0  0  0  0  0  0  0  0  0
   -8.4764   21.5663  -32.3954 H   0  0  0  0  0  0  0  0  0  0  0  0
   -6.7630   20.4260  -33.0780 C   0  0  0  0  0  0  0  0  0  0  0  0
   -6.2458   21.3067  -33.4864 H   0  0  0  0  0  0  0  0  0  0  0  0
   -6.1710   19.1630  -33.1730 C   0  0  0  0  0  0  0  0  0  0  0  0
   -5.1896   19.0526  -33.6575 H   0  0  0  0  0  0  0  0  0  0  0  0
   -3.5940   15.6050  -34.2250 C   0  0  0  0  0  0  0  0  0  0  0  0
   -3.8480   16.8320  -35.0620 C   0  0  0  0  0  0  0  0  0  0  0  0
   -4.0266   17.6947  -34.4033 H   0  0  0  0  0  0  0  0  0  0  0  0
   -2.9719   17.0306  -35.6969 H   0  0  0  0  0  0  0  0  0  0  0  0
   -4.7309   16.6665  -35.6969 H   0  0  0  0  0  0  0  0  0  0  0  0
  1  2  1  0
  2  3  2  0
  3  4  1  0
  4  5  1  0
  5  6  2  0
  6  7  1  0
  7  8  2  0
  8  9  1  0
  8 10  1  0
 10 11  1  0
 10 12  2  0
 12 13  1  0
 12 14  1  0
 14 15  1  0
 15 16  2  0
 15 17  1  0
 17 18  1  0
 18 19  1  0
 18 20  1  0
 18 21  1  0
 14 22  2  0
 22 23  1  0
  5 24  1  0
 24 25  1  0
 24 26  2  0
 26 27  1  0
 27 28  1  0
 27 29  2  0
 29 30  1  0
 30 31  1  0
 31 32  2  0
 32 33  1  0
 32 34  1  0
 34 35  1  0
 35 36  1  0
 35 37  1  0
 35 38  1  0
 34 39  2  0
 39 40  1  0
 40 41  1  0
 41 42  1  0
 41 43  1  0
 43 44  1  0
 43 45  1  0
 43 46  1  0
 46 47  1  0
 46 48  1  0
 46 49  1  0
 49 50  2  0
 50 51  1  0
 50 52  1  0
 52 53  1  0
 52 54  2  0
 54 55  1  0
 54 56  1  0
 56 57  1  0
 56 58  2  0
 58 59  1  0
 40 60  2  0
 60 61  1  0
 61 62  1  0
 61 63  1  0
 61 64  1  0
 29  3  1  0
 60 31  1  0
 22  7  1  0
 58 49  1  0
M  CHG  3   4  -1  13  -1  17  -1
M  END
>  <UniqueID>  (23) 
20

>  <SMILES>  (23) 
[H]/N=c1\[n-]/c(=N/c2ccc([O-])c(C(=O)[N-]C)c2)cncc1Oc1cc(C)nc(NCCc2ccccc2)c1C

>  <Energy>  (23) 
115.41638249336692

>  <Genealogy>  (23) 
C[N-]C(=O)c1cc(N=c2cncc(Oc3cc(C)nc(NCCc4ccccc4)c3C)c(=N)[n-]2)ccc1[O-] (protonated)
[H]/N=c1\[n-]/c(=N/c2ccc([O-])c(C(=O)[N-]C)c2)cncc1Oc1cc(C)nc(NCCc2ccccc2)c1C (cis-trans isomerization)
[H]/N=c1\[n-]/c(=N/c2ccc([O-])c(C(=O)[N-]C)c2)cncc1Oc1cc(C)nc(NCCc2ccccc2)c1C (3D coordinates assigned)
[H]/N=c1\[n-]/c(=N/c2ccc([O-])c(C(=O)[N-]C)c2)cncc1Oc1cc(C)nc(NCCc2ccccc2)c1C (optimized conformer: 115.41638249336692 kcal/mol)

>  <smiles>  (23) 
CNC(=O)c1cc(N=c2cncc(Oc3cc(C)nc(NCCc4ccccc4)c3C)c(=N)[nH]2)ccc1O

>  <score_type>  (23) 
oracle

>  <origin>  (23) 
adgpu

>  <m_score__min__energy>  (23) 
-12.76

>  <m_primary>  (23) 
energy

$$$$
23:0
     RDKit          3D

 49 51  0  0  0  0  0  0  0  0999 V2000
   -1.7180   19.2650  -33.5660 C   0  0  0  0  0  0  0  0  0  0  0  0
   -2.7160   20.0800  -32.8140 C   0  0  0  0  0  0  0  0  0  0  0  0
   -2.7250   20.0440  -31.5530 O   0  0  0  0  0  0  0  0  0  0  0  0
   -3.6110   20.9500  -33.5240 N   0  0  0  0  0  0  0  0  0  0  0  0
   -4.6820   21.6680  -32.8870 C   0  0  0  0  0  0  0  0  0  0  0  0
   -4.4090   22.8360  -32.1570 C   0  0  0  0  0  0  0  0  0  0  0  0
   -5.4440   23.5770  -31.5640 C   0  0  0  0  0  0  0  0  0  0  0  0
   -5.1550   24.8380  -30.8460 C   0  0  0  0  0  0  0  0  0  0  0  0
   -6.0960   25.6360  -30.5920 O   0  0  0  0  0  0  0  0  0  0  0  0
   -3.8340   25.1650  -30.3920 N   0  0  0  0  0  0  0  0  0  0  0  0
   -3.0550   24.4040  -29.4570 C   0  0  0  0  0  0  0  0  0  0  0  0
   -3.2190   24.5530  -28.0680 C   0  0  0  0  0  0  0  0  0  0  0  0
   -2.4400   23.8030  -27.1820 C   0  0  0  0  0  0  0  0  0  0  0  0
   -1.4930   22.8920  -27.6700 C   0  0  0  0  0  0  0  0  0  0  0  0
   -0.6810   22.0700  -26.7140 C   0  0  0  0  0  0  0  0  0  0  0  0
   -1.3600   22.7120  -29.0560 C   0  0  0  0  0  0  0  0  0  0  0  0
   -2.1390   23.4620  -29.9410 C   0  0  0  0  0  0  0  0  0  0  0  0
   -6.7600   23.1060  -31.6600 C   0  0  0  0  0  0  0  0  0  0  0  0
   -7.0430   21.9380  -32.3690 C   0  0  0  0  0  0  0  0  0  0  0  0
   -6.0140   21.2150  -32.9960 C   0  0  0  0  0  0  0  0  0  0  0  0
   -6.3260   20.0410  -33.7640 N   0  0  0  0  0  0  0  0  0  0  0  0
   -5.9030   18.7180  -33.3880 C   0  0  0  0  0  0  0  0  0  0  0  0
   -4.8370   18.1270  -34.0820 C   0  0  0  0  0  0  0  0  0  0  0  0
   -4.3930   16.8460  -33.7450 C   0  0  0  0  0  0  0  0  0  0  0  0
   -5.0200   16.1330  -32.7190 C   0  0  0  0  0  0  0  0  0  0  0  0
   -4.5620   14.8130  -32.3740 C   0  0  0  0  0  0  0  0  0  0  0  0
   -4.1930   13.7510  -32.0960 N   0  0  0  0  0  0  0  0  0  0  0  0
   -6.1030   16.7000  -32.0360 C   0  0  0  0  0  0  0  0  0  0  0  0
   -6.5540   17.9860  -32.3680 C   0  0  0  0  0  0  0  0  0  0  0  0
   -7.7190   18.5040  -31.6900 C   0  0  0  0  0  0  0  0  0  0  0  0
   -8.6530   18.9190  -31.1460 N   0  0  0  0  0  0  0  0  0  0  0  0
   -1.0678   18.7340  -32.8551 H   0  0  0  0  0  0  0  0  0  0  0  0
   -2.2433   18.5344  -34.1987 H   0  0  0  0  0  0  0  0  0  0  0  0
   -1.1071   19.9257  -34.1987 H   0  0  0  0  0  0  0  0  0  0  0  0
   -3.4320   21.1060  -34.5410 H   0  0  0  0  0  0  0  0  0  0  0  0
   -3.3685   23.1757  -32.0480 H   0  0  0  0  0  0  0  0  0  0  0  0
   -3.9632   25.2625  -27.6773 H   0  0  0  0  0  0  0  0  0  0  0  0
   -2.5708   23.9283  -26.0970 H   0  0  0  0  0  0  0  0  0  0  0  0
   -0.9471   22.3394  -25.6812 H   0  0  0  0  0  0  0  0  0  0  0  0
   -0.8891   21.0027  -26.8798 H   0  0  0  0  0  0  0  0  0  0  0  0
    0.3888   22.2650  -26.8798 H   0  0  0  0  0  0  0  0  0  0  0  0
   -0.6399   21.9779  -29.4467 H   0  0  0  0  0  0  0  0  0  0  0  0
   -2.0319   23.3114  -31.0254 H   0  0  0  0  0  0  0  0  0  0  0  0
   -7.5756   23.6607  -31.1732 H   0  0  0  0  0  0  0  0  0  0  0  0
   -8.0808   21.5800  -32.4377 H   0  0  0  0  0  0  0  0  0  0  0  0
   -6.7460   20.1680  -34.7110 H   0  0  0  0  0  0  0  0  0  0  0  0
   -4.3464   18.6769  -34.8986 H   0  0  0  0  0  0  0  0  0  0  0  0
   -3.5482   16.3974  -34.2882 H   0  0  0  0  0  0  0  0  0  0  0  0
   -6.6023   16.1344  -31.2355 H   0  0  0  0  0  0  0  0  0  0  0  0
  1  2  1  0
  2  3  2  0
  2  4  1  0
  4  5  1  0
  5  6  2  0
  6  7  1  0
  7  8  1  0
  8  9  2  0
  8 10  1  0
 10 11  1  0
 11 12  2  0
 12 13  1  0
 13 14  2  0
 14 15  1  0
 14 16  1  0
 16 17  2  0
  7 18  2  0
 18 19  1  0
 19 20  2  0
 20 21  1  0
 21 22  1  0
 22 23  2  0
 23 24  1  0
 24 25  2  0
 25 26  1  0
 26 27  3  0
 25 28  1  0
 28 29  2  0
 29 30  1  0
 30 31  3  0
 20  5  1  0
 29 22  1  0
 17 11  1  0
  1 32  1  0
  1 33  1  0
  1 34  1  0
  4 35  1  0
  6 36  1  0
 12 37  1  0
 13 38  1  0
 15 39  1  0
 15 40  1  0
 15 41  1  0
 16 42  1  0
 17 43  1  0
 18 44  1  0
 19 45  1  0
 21 46  1  0
 23 47  1  0
 24 48  1  0
 28 49  1  0
M  CHG  1  10  -1
M  END
>  <UniqueID>  (24) 
21

>  <SMILES>  (24) 
CC(=O)Nc1cc(C(=O)[N-]c2ccc(C)cc2)ccc1Nc1ccc(C#N)cc1C#N

>  <Energy>  (24) 
65.16703801442056

>  <Genealogy>  (24) 
CC(=O)Nc1cc(C(=O)[N-]c2ccc(C)cc2)ccc1Nc1ccc(C#N)cc1C#N (protonated)
CC(=O)Nc1cc(C(=O)[N-]c2ccc(C)cc2)ccc1Nc1ccc(C#N)cc1C#N (3D coordinates assigned)
CC(=O)Nc1cc(C(=O)[N-]c2ccc(C)cc2)ccc1Nc1ccc(C#N)cc1C#N (optimized conformer: 65.16703801442056 kcal/mol)

>  <smiles>  (24) 
CC(=O)Nc1cc(C(=O)Nc2ccc(C)cc2)ccc1Nc1ccc(C#N)cc1C#N

>  <score_type>  (24) 
oracle

>  <origin>  (24) 
adgpu

>  <m_score__min__energy>  (24) 
-11.66

>  <m_primary>  (24) 
energy

$$$$
24:0
     RDKit          3D

 44 47  0  0  0  0  0  0  0  0999 V2000
   -1.8090   25.1640  -28.2530 C   0  0  0  0  0  0  0  0  0  0  0  0
   -2.7140   25.2910  -29.3440 O   0  0  0  0  0  0  0  0  0  0  0  0
   -3.4230   24.2220  -29.9130 C   0  0  0  0  0  0  0  0  0  0  0  0
   -3.0490   22.9180  -29.5680 C   0  0  0  0  0  0  0  0  0  0  0  0
   -3.7240   21.8190  -30.1060 C   0  0  0  0  0  0  0  0  0  0  0  0
   -4.7920   22.0150  -30.9920 C   0  0  0  0  0  0  0  0  0  0  0  0
   -5.4970   20.8600  -31.5760 C   0  0  0  0  0  0  0  0  0  0  0  0
   -4.7450   19.8660  -32.1080 N   0  0  0  0  0  0  0  0  0  0  0  0
   -5.2890   18.7620  -32.6740 C   0  0  0  0  0  0  0  0  0  0  0  0
   -4.4450   17.7660  -33.1770 C   0  0  0  0  0  0  0  0  0  0  0  0
   -4.9810   16.6110  -33.7420 C   0  0  0  0  0  0  0  0  0  0  0  0
   -6.3680   16.4270  -33.7940 C   0  0  0  0  0  0  0  0  0  0  0  0
   -6.9420   15.1920  -34.4250 C   0  0  0  0  0  0  0  0  0  0  0  0
   -7.2200   17.4340  -33.3120 C   0  0  0  0  0  0  0  0  0  0  0  0
   -6.6940   18.6190  -32.7500 C   0  0  0  0  0  0  0  0  0  0  0  0
   -7.5170   19.6680  -32.2580 C   0  0  0  0  0  0  0  0  0  0  0  0
   -6.9080   20.7810  -31.6130 C   0  0  0  0  0  0  0  0  0  0  0  0
   -7.7390   21.9330  -31.0760 C   0  0  0  0  0  0  0  0  0  0  0  0
   -9.2010   21.5570  -30.8490 C   0  0  0  0  0  0  0  0  0  0  0  0
   -9.7600   20.8860  -32.0940 C   0  0  0  0  0  0  0  0  0  0  0  0
   -9.0320   19.5670  -32.3590 C   0  0  0  0  0  0  0  0  0  0  0  0
   -5.1630   23.3160  -31.3530 C   0  0  0  0  0  0  0  0  0  0  0  0
   -4.4880   24.4160  -30.8140 C   0  0  0  0  0  0  0  0  0  0  0  0
   -2.3632   25.2418  -27.3060 H   0  0  0  0  0  0  0  0  0  0  0  0
   -1.3070   24.1866  -28.3049 H   0  0  0  0  0  0  0  0  0  0  0  0
   -1.0574   25.9655  -28.3049 H   0  0  0  0  0  0  0  0  0  0  0  0
   -2.2165   22.7569  -28.8673 H   0  0  0  0  0  0  0  0  0  0  0  0
   -3.4166   20.7985  -29.8336 H   0  0  0  0  0  0  0  0  0  0  0  0
   -3.3538   17.8955  -33.1261 H   0  0  0  0  0  0  0  0  0  0  0  0
   -4.3111   15.8395  -34.1494 H   0  0  0  0  0  0  0  0  0  0  0  0
   -7.2660   14.4949  -33.6382 H   0  0  0  0  0  0  0  0  0  0  0  0
   -7.8048   15.4665  -35.0496 H   0  0  0  0  0  0  0  0  0  0  0  0
   -6.1759   14.7094  -35.0496 H   0  0  0  0  0  0  0  0  0  0  0  0
   -8.3100   17.2987  -33.3727 H   0  0  0  0  0  0  0  0  0  0  0  0
   -7.3080   22.2598  -30.1181 H   0  0  0  0  0  0  0  0  0  0  0  0
   -7.7178   22.7341  -31.8296 H   0  0  0  0  0  0  0  0  0  0  0  0
   -9.2718   20.8640  -29.9977 H   0  0  0  0  0  0  0  0  0  0  0  0
   -9.7810   22.4670  -30.6356 H   0  0  0  0  0  0  0  0  0  0  0  0
  -10.8318   20.6859  -31.9481 H   0  0  0  0  0  0  0  0  0  0  0  0
   -9.6151   21.5539  -32.9559 H   0  0  0  0  0  0  0  0  0  0  0  0
   -9.3795   18.8259  -31.6242 H   0  0  0  0  0  0  0  0  0  0  0  0
   -9.2644   19.2763  -33.3941 H   0  0  0  0  0  0  0  0  0  0  0  0
   -5.9883   23.4735  -32.0630 H   0  0  0  0  0  0  0  0  0  0  0  0
   -4.7899   25.4359  -31.0947 H   0  0  0  0  0  0  0  0  0  0  0  0
  1  2  1  0
  2  3  1  0
  3  4  2  0
  4  5  1  0
  5  6  2  0
  6  7  1  0
  7  8  2  0
  8  9  1  0
  9 10  2  0
 10 11  1  0
 11 12  2  0
 12 13  1  0
 12 14  1  0
 14 15  2  0
 15 16  1  0
 16 17  2  0
 17 18  1  0
 18 19  1  0
 19 20  1  0
 20 21  1  0
  6 22  1  0
 22 23  2  0
 23  3  1  0
 17  7  1  0
 15  9  1  0
 21 16  1  0
  1 24  1  0
  1 25  1  0
  1 26  1  0
  4 27  1  0
  5 28  1  0
 10 29  1  0
 11 30  1  0
 13 31  1  0
 13 32  1  0
 13 33  1  0
 14 34  1  0
 18 35  1  0
 18 36  1  0
 19 37  1  0
 19 38  1  0
 20 39  1  0
 20 40  1  0
 21 41  1  0
 21 42  1  0
 22 43  1  0
 23 44  1  0
M  END
>  <UniqueID>  (25) 
22

>  <SMILES>  (25) 
COc1ccc(-c2nc3ccc(C)cc3c3c2CCCC3)cc1

>  <Energy>  (25) 
60.18704097337946

>  <Genealogy>  (25) 
COc1ccc(-c2nc3ccc(C)cc3c3c2CCCC3)cc1 (3D coordinates assigned)
COc1ccc(-c2nc3ccc(C)cc3c3c2CCCC3)cc1 (nonaromatic ring conformer: 60.18704097337946 kcal/mol)

>  <smiles>  (25) 
COc1ccc(-c2nc3ccc(C)cc3c3c2CCCC3)cc1

>  <score_type>  (25) 
oracle

>  <origin>  (25) 
adgpu

>  <m_score__min__energy>  (25) 
-9.4800000000000004

>  <m_primary>  (25) 
energy

$$$$
25:0
     RDKit          3D

 23 24  0  0  0  0  0  0  0  0999 V2000
   -6.8540   15.8800  -33.8370 N   0  0  0  0  0  0  0  0  0  0  0  0
   -6.9990   16.9620  -33.4540 C   0  0  0  0  0  0  0  0  0  0  0  0
   -7.1790   18.3080  -32.9760 C   0  0  0  0  0  0  0  0  0  0  0  0
   -6.4020   19.3480  -33.4990 C   0  0  0  0  0  0  0  0  0  0  0  0
   -6.5780   20.6560  -33.0360 C   0  0  0  0  0  0  0  0  0  0  0  0
   -7.5210   20.9330  -32.0340 C   0  0  0  0  0  0  0  0  0  0  0  0
   -7.7050   22.2860  -31.5930 N   0  0  0  0  0  0  0  0  0  0  0  0
   -6.6260   23.1970  -31.3630 C   0  0  0  0  0  0  0  0  0  0  0  0
   -5.3260   23.3460  -31.8230 C   0  0  0  0  0  0  0  0  0  0  0  0
   -4.4850   22.6550  -32.7430 N   0  0  0  0  0  0  0  0  0  0  0  0
   -5.1810   24.4730  -31.0400 C   0  0  0  0  0  0  0  0  0  0  0  0
   -4.2480   25.2920  -30.8250 O   0  0  0  0  0  0  0  0  0  0  0  0
   -6.4850   24.3450  -30.6090 C   0  0  0  0  0  0  0  0  0  0  0  0
   -7.2350   25.0000  -29.8390 O   0  0  0  0  0  0  0  0  0  0  0  0
   -8.3160   19.8880  -31.5320 C   0  0  0  0  0  0  0  0  0  0  0  0
   -8.1390   18.5820  -31.9950 C   0  0  0  0  0  0  0  0  0  0  0  0
   -5.6519   19.1364  -34.2752 H   0  0  0  0  0  0  0  0  0  0  0  0
   -5.9741   21.4721  -33.4595 H   0  0  0  0  0  0  0  0  0  0  0  0
   -8.6790   22.6440  -31.4630 H   0  0  0  0  0  0  0  0  0  0  0  0
   -3.6820   22.0900  -32.3910 H   0  0  0  0  0  0  0  0  0  0  0  0
   -4.6300   22.7500  -33.7720 H   0  0  0  0  0  0  0  0  0  0  0  0
   -9.0813   20.0997  -30.7708 H   0  0  0  0  0  0  0  0  0  0  0  0
   -8.7555   17.7671  -31.5877 H   0  0  0  0  0  0  0  0  0  0  0  0
  1  2  3  0
  2  3  1  0
  3  4  2  0
  4  5  1  0
  5  6  2  0
  6  7  1  0
  7  8  1  0
  8  9  2  0
  9 10  1  0
  9 11  1  0
 11 12  2  0
 11 13  1  0
 13 14  2  0
  6 15  1  0
 15 16  2  0
 16  3  1  0
 13  8  1  0
  4 17  1  0
  5 18  1  0
  7 19  1  0
 10 20  1  0
 10 21  1  0
 15 22  1  0
 16 23  1  0
M  END
>  <UniqueID>  (26) 
23

>  <SMILES>  (26) 
N#Cc1ccc(Nc2c(N)c(=O)c2=O)cc1

>  <Energy>  (26) 
16.09675604231622

>  <Genealogy>  (26) 
N#Cc1ccc(Nc2c(N)c(=O)c2=O)cc1 (3D coordinates assigned)
N#Cc1ccc(Nc2c(N)c(=O)c2=O)cc1 (optimized conformer: 16.09675604231622 kcal/mol)

>  <smiles>  (26) 
N#Cc1ccc(Nc2c(N)c(=O)c2=O)cc1

>  <score_type>  (26) 
oracle

>  <origin>  (26) 
adgpu

>  <m_score__min__energy>  (26) 
-6.8300000000000001

>  <m_primary>  (26) 
energy

$$$$
26:0
     RDKit          3D

 50 52  0  0  0  0  0  0  0  0999 V2000
   -1.9400   17.8490  -32.7590 C   0  0  0  0  0  0  0  0  0  0  0  0
   -1.4920   19.1970  -32.6700 O   0  0  0  0  0  0  0  0  0  0  0  0
   -2.3230   20.2960  -32.4010 C   0  0  0  0  0  0  0  0  0  0  0  0
   -2.0410   21.2090  -31.3670 C   0  0  0  0  0  0  0  0  0  0  0  0
   -2.8790   22.3050  -31.1290 C   0  0  0  0  0  0  0  0  0  0  0  0
   -2.5000   23.2640  -30.1280 N   0  0  0  0  0  0  0  0  0  0  0  0
   -2.3300   22.8970  -28.7500 C   0  0  0  0  0  0  0  0  0  0  0  0
   -2.8180   21.8100  -28.3320 O   0  0  0  0  0  0  0  0  0  0  0  0
   -1.6130   23.7810  -27.8000 C   0  0  0  0  0  0  0  0  0  0  0  0
   -1.1700   23.2560  -26.5720 C   0  0  0  0  0  0  0  0  0  0  0  0
   -0.4610   24.0540  -25.6620 C   0  0  0  0  0  0  0  0  0  0  0  0
    0.0510   23.4640  -24.3820 C   0  0  0  0  0  0  0  0  0  0  0  0
   -0.1700   25.3840  -25.9930 C   0  0  0  0  0  0  0  0  0  0  0  0
   -0.5980   25.9140  -27.2110 C   0  0  0  0  0  0  0  0  0  0  0  0
   -1.3090   25.1230  -28.1180 C   0  0  0  0  0  0  0  0  0  0  0  0
   -1.6770   25.6760  -29.3390 O   0  0  0  0  0  0  0  0  0  0  0  0
   -4.0540   22.4640  -31.8980 C   0  0  0  0  0  0  0  0  0  0  0  0
   -5.0330   23.5260  -31.5960 C   0  0  0  0  0  0  0  0  0  0  0  0
   -4.6570   24.5780  -31.0100 O   0  0  0  0  0  0  0  0  0  0  0  0
   -6.4040   23.3660  -31.9750 N   0  0  0  0  0  0  0  0  0  0  0  0
   -7.3990   22.7370  -31.1150 C   0  0  0  0  0  0  0  0  0  0  0  0
   -7.8730   21.4560  -31.7290 C   0  0  0  0  0  0  0  0  0  0  0  0
   -9.1870   21.0460  -31.8330 C   0  0  0  0  0  0  0  0  0  0  0  0
   -9.1460   19.8340  -32.4870 C   0  0  0  0  0  0  0  0  0  0  0  0
   -7.8130   19.5830  -32.7450 C   0  0  0  0  0  0  0  0  0  0  0  0
   -7.0780   20.5680  -32.2820 O   0  0  0  0  0  0  0  0  0  0  0  0
   -4.3210   21.5660  -32.9420 C   0  0  0  0  0  0  0  0  0  0  0  0
   -3.4620   20.4820  -33.1980 C   0  0  0  0  0  0  0  0  0  0  0  0
   -3.7080   19.5620  -34.2300 O   0  0  0  0  0  0  0  0  0  0  0  0
   -4.8110   18.6630  -34.2630 C   0  0  0  0  0  0  0  0  0  0  0  0
   -2.0759   17.4402  -31.7469 H   0  0  0  0  0  0  0  0  0  0  0  0
   -2.8975   17.8158  -33.2995 H   0  0  0  0  0  0  0  0  0  0  0  0
   -1.1929   17.2492  -33.2995 H   0  0  0  0  0  0  0  0  0  0  0  0
   -1.1510   21.0593  -30.7382 H   0  0  0  0  0  0  0  0  0  0  0  0
   -2.5620   24.2800  -30.3670 H   0  0  0  0  0  0  0  0  0  0  0  0
   -1.3825   22.2060  -26.3223 H   0  0  0  0  0  0  0  0  0  0  0  0
   -0.4040   23.9883  -23.5288 H   0  0  0  0  0  0  0  0  0  0  0  0
   -0.2120   22.3968  -24.3391 H   0  0  0  0  0  0  0  0  0  0  0  0
    1.1446   23.5741  -24.3391 H   0  0  0  0  0  0  0  0  0  0  0  0
    0.3975   26.0123  -25.2907 H   0  0  0  0  0  0  0  0  0  0  0  0
   -0.3742   26.9620  -27.4591 H   0  0  0  0  0  0  0  0  0  0  0  0
   -6.9501   22.5258  -30.1332 H   0  0  0  0  0  0  0  0  0  0  0  0
   -8.2547   23.4179  -30.9963 H   0  0  0  0  0  0  0  0  0  0  0  0
  -10.0799   21.5760  -31.4698 H   0  0  0  0  0  0  0  0  0  0  0  0
  -10.0021   19.1955  -32.7503 H   0  0  0  0  0  0  0  0  0  0  0  0
   -7.4251   18.6922  -33.2607 H   0  0  0  0  0  0  0  0  0  0  0  0
   -5.2134   21.7114  -33.5684 H   0  0  0  0  0  0  0  0  0  0  0  0
   -5.1138   18.4162  -33.2347 H   0  0  0  0  0  0  0  0  0  0  0  0
   -5.6533   19.1352  -34.7899 H   0  0  0  0  0  0  0  0  0  0  0  0
   -4.5184   17.7428  -34.7899 H   0  0  0  0  0  0  0  0  0  0  0  0
  1  2  1  0
  2  3  1  0
  3  4  2  0
  4  5  1  0
  5  6  1  0
  6  7  1  0
  7  8  2  0
  7  9  1  0
  9 10  2  0
 10 11  1  0
 11 12  1  0
 11 13  2  0
 13 14  1  0
 14 15  2  0
 15 16  1  0
  5 17  2  0
 17 18  1  0
 18 19  2  0
 18 20  1  0
 20 21  1  0
 21 22  1  0
 22 23  2  0
 23 24  1  0
 24 25  2  0
 25 26  1  0
 17 27  1  0
 27 28  2  0
 28 29  1  0
 29 30  1  0
 28  3  1  0
 15  9  1  0
 26 22  1  0
  1 31  1  0
  1 32  1  0
  1 33  1  0
  4 34  1  0
  6 35  1  0
 10 36  1  0
 12 37  1  0
 12 38  1  0
 12 39  1  0
 13 40  1  0
 14 41  1  0
 21 42  1  0
 21 43  1  0
 23 44  1  0
 24 45  1  0
 25 46  1  0
 27 47  1  0
 30 48  1  0
 30 49  1  0
 30 50  1  0
M  CHG  2  16  -1  20  -1
M  END
>  <UniqueID>  (27) 
24

>  <SMILES>  (27) 
COc1cc(NC(=O)c2cc(C)ccc2[O-])c(C(=O)[N-]Cc2ccco2)cc1OC

>  <Energy>  (27) 
82.75319080383387

>  <Genealogy>  (27) 
COc1cc(NC(=O)c2cc(C)ccc2[O-])c(C(=O)[N-]Cc2ccco2)cc1OC (protonated)
COc1cc(NC(=O)c2cc(C)ccc2[O-])c(C(=O)[N-]Cc2ccco2)cc1OC (3D coordinates assigned)
COc1cc(NC(=O)c2cc(C)ccc2[O-])c(C(=O)[N-]Cc2ccco2)cc1OC (optimized conformer: 82.75319080383387 kcal/mol)

>  <smiles>  (27) 
COc1cc(NC(=O)c2cc(C)ccc2O)c(C(=O)NCc2ccco2)cc1OC

>  <score_type>  (27) 
oracle

>  <origin>  (27) 
adgpu

>  <m_score__min__energy>  (27) 
-11.18

>  <m_primary>  (27) 
energy

$$$$
27:0
     RDKit          3D

 43 45  0  0  0  0  0  0  0  0999 V2000
   -7.1820   19.8560  -33.0980 C   0  0  0  0  0  0  0  0  0  0  0  0
   -6.6920   21.0870  -32.3940 C   0  0  0  0  0  0  0  0  0  0  0  0
   -5.3610   21.5080  -32.5390 C   0  0  0  0  0  0  0  0  0  0  0  0
   -4.9220   22.6760  -31.9140 C   0  0  0  0  0  0  0  0  0  0  0  0
   -5.8080   23.4470  -31.1510 C   0  0  0  0  0  0  0  0  0  0  0  0
   -5.2240   24.9020  -30.3470 S   0  0  0  0  0  0  0  0  0  0  0  0
   -5.6300   24.9190  -28.9010 O   0  0  0  0  0  0  0  0  0  0  0  0
   -5.8150   26.1060  -31.0230 O   0  0  0  0  0  0  0  0  0  0  0  0
   -3.5010   24.9630  -30.4750 N   0  0  0  0  0  0  0  0  0  0  0  0
   -2.6000   24.2490  -29.6190 C   0  0  0  0  0  0  0  0  0  0  0  0
   -2.4540   22.8520  -29.6860 C   0  0  0  0  0  0  0  0  0  0  0  0
   -1.5270   22.1970  -28.8730 C   0  0  0  0  0  0  0  0  0  0  0  0
   -0.7290   22.9340  -27.9870 C   0  0  0  0  0  0  0  0  0  0  0  0
    0.5400   22.1470  -27.0530 S   0  0  0  0  0  0  0  0  0  0  0  0
    0.3380   22.3660  -25.5790 O   0  0  0  0  0  0  0  0  0  0  0  0
    1.8700   22.7320  -27.4440 O   0  0  0  0  0  0  0  0  0  0  0  0
    0.5380   20.4430  -27.3980 N   0  0  0  0  0  0  0  0  0  0  0  0
   -0.4560   19.6440  -27.1360 C   0  0  0  0  0  0  0  0  0  0  0  0
   -1.6590   19.9750  -26.5380 C   0  0  0  0  0  0  0  0  0  0  0  0
   -2.3410   18.7700  -26.5190 C   0  0  0  0  0  0  0  0  0  0  0  0
   -3.7160   18.5490  -25.9820 C   0  0  0  0  0  0  0  0  0  0  0  0
   -1.5850   17.8330  -27.0440 O   0  0  0  0  0  0  0  0  0  0  0  0
   -0.4450   18.3320  -27.4250 N   0  0  0  0  0  0  0  0  0  0  0  0
   -0.8890   24.3210  -27.9020 C   0  0  0  0  0  0  0  0  0  0  0  0
   -1.8300   24.9760  -28.7030 C   0  0  0  0  0  0  0  0  0  0  0  0
   -7.1370   23.0350  -31.0110 C   0  0  0  0  0  0  0  0  0  0  0  0
   -7.5830   21.8640  -31.6370 C   0  0  0  0  0  0  0  0  0  0  0  0
   -7.4817   19.1030  -32.3542 H   0  0  0  0  0  0  0  0  0  0  0  0
   -8.0462   20.1134  -33.7280 H   0  0  0  0  0  0  0  0  0  0  0  0
   -6.3773   19.4491  -33.7280 H   0  0  0  0  0  0  0  0  0  0  0  0
   -4.6617   20.9155  -33.1472 H   0  0  0  0  0  0  0  0  0  0  0  0
   -3.8741   22.9929  -32.0212 H   0  0  0  0  0  0  0  0  0  0  0  0
   -3.0747   22.2710  -30.3840 H   0  0  0  0  0  0  0  0  0  0  0  0
   -1.4229   21.1033  -28.9277 H   0  0  0  0  0  0  0  0  0  0  0  0
   -1.9923   20.9558  -26.1680 H   0  0  0  0  0  0  0  0  0  0  0  0
   -3.6854   18.5539  -24.8824 H   0  0  0  0  0  0  0  0  0  0  0  0
   -4.3805   19.3519  -26.3339 H   0  0  0  0  0  0  0  0  0  0  0  0
   -4.0954   17.5783  -26.3339 H   0  0  0  0  0  0  0  0  0  0  0  0
    0.3240   17.7950  -27.8820 H   0  0  0  0  0  0  0  0  0  0  0  0
   -0.2707   24.9004  -27.2006 H   0  0  0  0  0  0  0  0  0  0  0  0
   -1.9654   26.0639  -28.6132 H   0  0  0  0  0  0  0  0  0  0  0  0
   -7.8351   23.6330  -30.4068 H   0  0  0  0  0  0  0  0  0  0  0  0
   -8.6331   21.5527  -31.5353 H   0  0  0  0  0  0  0  0  0  0  0  0
  1  2  1  0
  2  3  2  0
  3  4  1  0
  4  5  2  0
  5  6  1  0
  6  7  2  0
  6  8  2  0
  6  9  1  0
  9 10  1  0
 10 11  2  0
 11 12  1  0
 12 13  2  0
 13 14  1  0
 14 15  2  0
 14 16  2  0
 14 17  1  0
 17 18  2  3
 18 19  1  0
 19 20  2  0
 20 21  1  0
 20 22  1  0
 22 23  1  0
 13 24  1  0
 24 25  2  0
  5 26  1  0
 26 27  2  0
 27  2  1  0
 25 10  1  0
 23 18  1  0
  1 28  1  0
  1 29  1  0
  1 30  1  0
  3 31  1  0
  4 32  1  0
 11 33  1  0
 12 34  1  0
 19 35  1  0
 21 36  1  0
 21 37  1  0
 21 38  1  0
 23 39  1  0
 24 40  1  0
 25 41  1  0
 26 42  1  0
 27 43  1  0
M  CHG  1   9  -1
M  END
>  <UniqueID>  (28) 
25

>  <SMILES>  (28) 
Cc1ccc(S(=O)(=O)[N-]c2ccc(S(=O)(=O)N=c3cc(C)o[nH]3)cc2)cc1

>  <Energy>  (28) 
81.16758399750277

>  <Genealogy>  (28) 
Cc1ccc(S(=O)(=O)[N-]c2ccc(S(=O)(=O)N=c3cc(C)o[nH]3)cc2)cc1 (protonated)
Cc1ccc(S(=O)(=O)[N-]c2ccc(S(=O)(=O)N=c3cc(C)o[nH]3)cc2)cc1 (3D coordinates assigned)
Cc1ccc(S(=O)(=O)[N-]c2ccc(S(=O)(=O)N=c3cc(C)o[nH]3)cc2)cc1 (optimized conformer: 81.16758399750277 kcal/mol)

>  <smiles>  (28) 
Cc1ccc(S(=O)(=O)Nc2ccc(S(=O)(=O)N=c3cc(C)o[nH]3)cc2)cc1

>  <score_type>  (28) 
oracle

>  <origin>  (28) 
adgpu

>  <m_score__min__energy>  (28) 
-10.92

>  <m_primary>  (28) 
energy

$$$$
28:0
     RDKit          3D

 47 49  0  0  0  0  0  0  0  0999 V2000
   -6.6758   21.4085  -29.6240 H   0  0  0  0  0  0  0  0  0  0  0  0
   -6.4050   22.3640  -30.0970 C   0  0  0  0  0  0  0  0  0  0  0  0
   -5.3660   23.0960  -29.6060 N   0  0  0  0  0  0  0  0  0  0  0  0
   -5.0080   24.2930  -30.1560 C   0  0  0  0  0  0  0  0  0  0  0  0
   -4.0060   24.9740  -29.6830 N   0  0  0  0  0  0  0  0  0  0  0  0
   -3.1710   24.5420  -28.5650 C   0  0  0  0  0  0  0  0  0  0  0  0
   -3.4401   23.5141  -28.2805 H   0  0  0  0  0  0  0  0  0  0  0  0
   -3.3294   25.2101  -27.7056 H   0  0  0  0  0  0  0  0  0  0  0  0
   -1.7290   24.5870  -28.9800 C   0  0  0  0  0  0  0  0  0  0  0  0
   -1.2270   25.6830  -29.3470 O   0  0  0  0  0  0  0  0  0  0  0  0
   -0.8900   23.4210  -28.9080 N   0  0  0  0  0  0  0  0  0  0  0  0
   -1.1420   22.2200  -29.6430 C   0  0  0  0  0  0  0  0  0  0  0  0
   -2.0690   22.2350  -30.6950 C   0  0  0  0  0  0  0  0  0  0  0  0
   -2.6133   23.1616  -30.9298 H   0  0  0  0  0  0  0  0  0  0  0  0
   -2.3070   21.0790  -31.4490 C   0  0  0  0  0  0  0  0  0  0  0  0
   -3.4590   21.1240  -32.7890 S   0  0  0  0  0  0  0  0  0  0  0  0
   -2.7060   21.0020  -34.0820 O   0  0  0  0  0  0  0  0  0  0  0  0
   -4.1670   22.4510  -32.7880 O   0  0  0  0  0  0  0  0  0  0  0  0
   -4.6310   19.8290  -32.6810 N   0  0  0  0  0  0  0  0  0  0  0  0
   -5.8520   20.1740  -33.4270 C   0  0  0  0  0  0  0  0  0  0  0  0
   -6.2683   21.1122  -33.0314 H   0  0  0  0  0  0  0  0  0  0  0  0
   -5.6034   20.2972  -34.4914 H   0  0  0  0  0  0  0  0  0  0  0  0
   -6.8970   19.0460  -33.2760 C   0  0  0  0  0  0  0  0  0  0  0  0
   -7.6948   19.3928  -32.6028 H   0  0  0  0  0  0  0  0  0  0  0  0
   -7.2843   18.8146  -34.2792 H   0  0  0  0  0  0  0  0  0  0  0  0
   -6.3410   17.8540  -32.7450 O   0  0  0  0  0  0  0  0  0  0  0  0
   -5.1600   17.5190  -33.4450 C   0  0  0  0  0  0  0  0  0  0  0  0
   -4.8087   16.5323  -33.1088 H   0  0  0  0  0  0  0  0  0  0  0  0
   -5.3814   17.4989  -34.5223 H   0  0  0  0  0  0  0  0  0  0  0  0
   -4.0550   18.5660  -33.1850 C   0  0  0  0  0  0  0  0  0  0  0  0
   -3.3512   18.1686  -32.4389 H   0  0  0  0  0  0  0  0  0  0  0  0
   -3.5362   18.7710  -34.1331 H   0  0  0  0  0  0  0  0  0  0  0  0
   -1.6150   19.9000  -31.1440 C   0  0  0  0  0  0  0  0  0  0  0  0
   -1.7973   18.9900  -31.7346 H   0  0  0  0  0  0  0  0  0  0  0  0
   -0.6940   19.8740  -30.0930 C   0  0  0  0  0  0  0  0  0  0  0  0
   -0.1564   18.9428  -29.8611 H   0  0  0  0  0  0  0  0  0  0  0  0
   -0.4500   21.0280  -29.3310 C   0  0  0  0  0  0  0  0  0  0  0  0
    0.5300   20.9470  -28.1900 C   0  0  0  0  0  0  0  0  0  0  0  0
   -0.0144   20.9920  -27.2352 H   0  0  0  0  0  0  0  0  0  0  0  0
    1.0860   19.9998  -28.2508 H   0  0  0  0  0  0  0  0  0  0  0  0
    1.2340   21.7900  -28.2508 H   0  0  0  0  0  0  0  0  0  0  0  0
   -5.7260   24.7960  -31.2470 C   0  0  0  0  0  0  0  0  0  0  0  0
   -5.4553   25.7673  -31.6867 H   0  0  0  0  0  0  0  0  0  0  0  0
   -6.7910   24.0560  -31.7760 C   0  0  0  0  0  0  0  0  0  0  0  0
   -7.3580   24.4402  -32.6368 H   0  0  0  0  0  0  0  0  0  0  0  0
   -7.1290   22.8270  -31.2040 C   0  0  0  0  0  0  0  0  0  0  0  0
   -8.5780   21.8010  -31.9130 Br  0  0  0  0  0  0  0  0  0  0  0  0
  1  2  1  0
  2  3  1  0
  3  4  1  0
  4  5  2  0
  5  6  1  0
  6  7  1  0
  6  8  1  0
  6  9  1  0
  9 10  2  0
  9 11  1  0
 11 12  1  0
 12 13  2  0
 13 14  1  0
 13 15  1  0
 15 16  1  0
 16 17  2  0
 16 18  2  0
 16 19  1  0
 19 20  1  0
 20 21  1  0
 20 22  1  0
 20 23  1  0
 23 24  1  0
 23 25  1  0
 23 26  1  0
 26 27  1  0
 27 28  1  0
 27 29  1  0
 27 30  1  0
 30 31  1  0
 30 32  1  0
 15 33  2  0
 33 34  1  0
 33 35  1  0
 35 36  1  0
 35 37  2  0
 37 38  1  0
 38 39  1  0
 38 40  1  0
 38 41  1  0
  4 42  1  0
 42 43  1  0
 42 44  2  0
 44 45  1  0
 44 46  1  0
 46 47  1  0
 46  2  2  0
 37 12  1  0
 30 19  1  0
M  CHG  2   3  -1  11  -1
M  END
>  <UniqueID>  (29) 
26

>  <SMILES>  (29) 
Cc1ccc(S(=O)(=O)N2CCOCC2)cc1[N-]C(=O)C/N=c1/ccc(Br)c[n-]1

>  <Energy>  (29) 
59.99467673739862

>  <Genealogy>  (29) 
Cc1ccc(S(=O)(=O)N2CCOCC2)cc1[N-]C(=O)CN=c1ccc(Br)c[n-]1 (protonated)
Cc1ccc(S(=O)(=O)N2CCOCC2)cc1[N-]C(=O)C/N=c1/ccc(Br)c[n-]1 (cis-trans isomerization)
Cc1ccc(S(=O)(=O)N2CCOCC2)cc1[N-]C(=O)C/N=c1/ccc(Br)c[n-]1 (3D coordinates assigned)
Cc1ccc(S(=O)(=O)N2CCOCC2)cc1[N-]C(=O)C/N=c1/ccc(Br)c[n-]1 (nonaromatic ring conformer: 59.99467673739862 kcal/mol)

>  <smiles>  (29) 
Cc1ccc(S(=O)(=O)N2CCOCC2)cc1NC(=O)CN=c1ccc(Br)c[nH]1

>  <score_type>  (29) 
oracle

>  <origin>  (29) 
adgpu

>  <m_score__min__energy>  (29) 
-10.84

>  <m_primary>  (29) 
energy

$$$$
29:0
     RDKit          3D

 57 59  0  0  0  0  0  0  0  0999 V2000
   -0.5380   20.5840  -34.1170 C   0  0  0  0  0  0  0  0  0  0  0  0
   -1.3050   21.3810  -33.1500 N   0  0  0  0  0  0  0  0  0  0  0  0
   -2.7410   21.2730  -33.4350 C   0  0  0  0  0  0  0  0  0  0  0  0
   -0.9750   20.8220  -31.5280 S   0  0  0  0  0  0  0  0  0  0  0  0
   -1.4880   19.4160  -31.3770 O   0  0  0  0  0  0  0  0  0  0  0  0
    0.5100   20.8040  -31.2870 O   0  0  0  0  0  0  0  0  0  0  0  0
   -1.7460   21.8550  -30.3230 C   0  0  0  0  0  0  0  0  0  0  0  0
   -1.6600   21.5330  -28.9640 C   0  0  0  0  0  0  0  0  0  0  0  0
   -2.2030   22.3890  -28.0040 C   0  0  0  0  0  0  0  0  0  0  0  0
   -2.8260   23.5800  -28.3910 C   0  0  0  0  0  0  0  0  0  0  0  0
   -3.5140   24.6140  -27.1450 Cl  0  0  0  0  0  0  0  0  0  0  0  0
   -2.9220   23.9060  -29.7580 C   0  0  0  0  0  0  0  0  0  0  0  0
   -3.5250   25.1330  -30.1910 N   0  0  0  0  0  0  0  0  0  0  0  0
   -4.9410   25.3010  -30.3320 C   0  0  0  0  0  0  0  0  0  0  0  0
   -5.4500   26.4310  -30.1090 O   0  0  0  0  0  0  0  0  0  0  0  0
   -5.8080   24.1710  -30.7230 C   0  0  0  0  0  0  0  0  0  0  0  0
   -6.0260   23.1060  -29.8360 C   0  0  0  0  0  0  0  0  0  0  0  0
   -6.9010   22.0720  -30.1840 C   0  0  0  0  0  0  0  0  0  0  0  0
   -7.5600   22.0860  -31.4230 C   0  0  0  0  0  0  0  0  0  0  0  0
   -8.6980   20.8020  -31.8400 S   0  0  0  0  0  0  0  0  0  0  0  0
   -9.1870   20.1490  -30.5770 O   0  0  0  0  0  0  0  0  0  0  0  0
   -9.8840   21.4220  -32.5240 O   0  0  0  0  0  0  0  0  0  0  0  0
   -8.0040   19.5990  -32.9060 N   0  0  0  0  0  0  0  0  0  0  0  0
   -6.7630   20.0670  -33.5630 C   0  0  0  0  0  0  0  0  0  0  0  0
   -5.4730   19.7480  -32.7830 C   0  0  0  0  0  0  0  0  0  0  0  0
   -4.8550   18.3610  -33.0830 C   0  0  0  0  0  0  0  0  0  0  0  0
   -5.6880   17.1450  -32.6440 C   0  0  0  0  0  0  0  0  0  0  0  0
   -7.1540   17.1940  -33.0960 C   0  0  0  0  0  0  0  0  0  0  0  0
   -8.0530   18.2170  -32.3780 C   0  0  0  0  0  0  0  0  0  0  0  0
   -7.2850   23.1140  -32.3340 C   0  0  0  0  0  0  0  0  0  0  0  0
   -6.4260   24.1560  -31.9820 C   0  0  0  0  0  0  0  0  0  0  0  0
   -2.4000   23.0300  -30.7170 C   0  0  0  0  0  0  0  0  0  0  0  0
    0.1267   19.8933  -33.5775 H   0  0  0  0  0  0  0  0  0  0  0  0
   -1.2304   20.0082  -34.7487 H   0  0  0  0  0  0  0  0  0  0  0  0
    0.0639   21.2538  -34.7487 H   0  0  0  0  0  0  0  0  0  0  0  0
   -3.3005   21.2309  -32.4888 H   0  0  0  0  0  0  0  0  0  0  0  0
   -3.0666   22.1492  -34.0149 H   0  0  0  0  0  0  0  0  0  0  0  0
   -2.9319   20.3580  -34.0149 H   0  0  0  0  0  0  0  0  0  0  0  0
   -1.1632   20.6028  -28.6511 H   0  0  0  0  0  0  0  0  0  0  0  0
   -2.1406   22.1254  -26.9379 H   0  0  0  0  0  0  0  0  0  0  0  0
   -5.5081   23.0843  -28.8658 H   0  0  0  0  0  0  0  0  0  0  0  0
   -7.0738   21.2427  -29.4823 H   0  0  0  0  0  0  0  0  0  0  0  0
   -6.6951   19.5888  -34.5513 H   0  0  0  0  0  0  0  0  0  0  0  0
   -6.8322   21.1632  -33.6221 H   0  0  0  0  0  0  0  0  0  0  0  0
   -4.7253   20.5158  -33.0308 H   0  0  0  0  0  0  0  0  0  0  0  0
   -5.7511   19.7377  -31.7188 H   0  0  0  0  0  0  0  0  0  0  0  0
   -4.7003   18.2889  -34.1697 H   0  0  0  0  0  0  0  0  0  0  0  0
   -3.9275   18.3147  -32.4935 H   0  0  0  0  0  0  0  0  0  0  0  0
   -5.2266   16.2398  -33.0654 H   0  0  0  0  0  0  0  0  0  0  0  0
   -5.6948   17.1454  -31.5440 H   0  0  0  0  0  0  0  0  0  0  0  0
   -7.1663   17.4319  -34.1699 H   0  0  0  0  0  0  0  0  0  0  0  0
   -7.5723   16.2079  -32.8457 H   0  0  0  0  0  0  0  0  0  0  0  0
   -9.0922   17.8639  -32.4520 H   0  0  0  0  0  0  0  0  0  0  0  0
   -7.6737   18.2770  -31.3472 H   0  0  0  0  0  0  0  0  0  0  0  0
   -7.7483   23.0998  -33.3316 H   0  0  0  0  0  0  0  0  0  0  0  0
   -6.2325   24.9701  -32.6960 H   0  0  0  0  0  0  0  0  0  0  0  0
   -2.5038   23.2655  -31.7865 H   0  0  0  0  0  0  0  0  0  0  0  0
  1  2  1  0
  2  3  1  0
  2  4  1  0
  4  5  2  0
  4  6  2  0
  4  7  1  0
  7  8  2  0
  8  9  1  0
  9 10  2  0
 10 11  1  0
 10 12  1  0
 12 13  1  0
 13 14  1  0
 14 15  2  0
 14 16  1  0
 16 17  2  0
 17 18  1  0
 18 19  2  0
 19 20  1  0
 20 21  2  0
 20 22  2  0
 20 23  1  0
 23 24  1  0
 24 25  1  0
 25 26  1  0
 26 27  1  0
 27 28  1  0
 28 29  1  0
 19 30  1  0
 30 31  2  0
 12 32  2  0
 32  7  1  0
 31 16  1  0
 29 23  1  0
  1 33  1  0
  1 34  1  0
  1 35  1  0
  3 36  1  0
  3 37  1  0
  3 38  1  0
  8 39  1  0
  9 40  1  0
 17 41  1  0
 18 42  1  0
 24 43  1  0
 24 44  1  0
 25 45  1  0
 25 46  1  0
 26 47  1  0
 26 48  1  0
 27 49  1  0
 27 50  1  0
 28 51  1  0
 28 52  1  0
 29 53  1  0
 29 54  1  0
 30 55  1  0
 31 56  1  0
 32 57  1  0
M  CHG  1  13  -1
M  END
>  <UniqueID>  (30) 
27

>  <SMILES>  (30) 
CN(C)S(=O)(=O)c1ccc(Cl)c([N-]C(=O)c2ccc(S(=O)(=O)N3CCCCCC3)cc2)c1

>  <Energy>  (30) 
75.56590599223141

>  <Genealogy>  (30) 
CN(C)S(=O)(=O)c1ccc(Cl)c([N-]C(=O)c2ccc(S(=O)(=O)N3CCCCCC3)cc2)c1 (protonated)
CN(C)S(=O)(=O)c1ccc(Cl)c([N-]C(=O)c2ccc(S(=O)(=O)N3CCCCCC3)cc2)c1 (3D coordinates assigned)
CN(C)S(=O)(=O)c1ccc(Cl)c([N-]C(=O)c2ccc(S(=O)(=O)N3CCCCCC3)cc2)c1 (nonaromatic ring conformer: 75.56590599223141 kcal/mol)

>  <smiles>  (30) 
CN(C)S(=O)(=O)c1ccc(Cl)c(NC(=O)c2ccc(S(=O)(=O)N3CCCCCC3)cc2)c1

>  <score_type>  (30) 
oracle

>  <origin>  (30) 
adgpu

>  <m_score__min__energy>  (30) 
-10.4

>  <m_primary>  (30) 
energy

$$$$
30:0
     RDKit          3D

 49 52  0  0  0  0  0  0  0  0999 V2000
   -8.2530   24.1767  -32.2196 H   0  0  0  0  0  0  0  0  0  0  0  0
   -7.6750   23.2500  -32.0890 C   0  0  0  0  0  0  0  0  0  0  0  0
   -8.3130   22.0110  -32.1920 C   0  0  0  0  0  0  0  0  0  0  0  0
   -9.3933   21.9668  -32.3943 H   0  0  0  0  0  0  0  0  0  0  0  0
   -7.5840   20.8260  -32.0390 C   0  0  0  0  0  0  0  0  0  0  0  0
   -8.4010   19.2730  -32.1940 S   0  0  0  0  0  0  0  0  0  0  0  0
   -9.6100   19.4510  -33.0690 O   0  0  0  0  0  0  0  0  0  0  0  0
   -8.8520   18.7880  -30.8430 O   0  0  0  0  0  0  0  0  0  0  0  0
   -7.3130   18.1150  -32.9150 N   0  0  0  0  0  0  0  0  0  0  0  0
   -6.4600   18.7770  -33.9100 C   0  0  0  0  0  0  0  0  0  0  0  0
   -5.7763   19.4710  -33.3992 H   0  0  0  0  0  0  0  0  0  0  0  0
   -7.0947   19.3305  -34.6177 H   0  0  0  0  0  0  0  0  0  0  0  0
   -5.6370   17.7270  -34.6840 C   0  0  0  0  0  0  0  0  0  0  0  0
   -4.6800   18.1821  -34.9791 H   0  0  0  0  0  0  0  0  0  0  0  0
   -6.2365   17.4204  -35.5538 H   0  0  0  0  0  0  0  0  0  0  0  0
   -5.3520   16.5010  -33.8920 N   0  0  0  0  0  0  0  0  0  0  0  0
   -4.4240   16.1300  -34.2080 H   0  0  0  0  0  0  0  0  0  0  0  0
   -6.3360   15.4310  -34.1550 C   0  0  0  0  0  0  0  0  0  0  0  0
   -6.7052   15.0295  -33.1998 H   0  0  0  0  0  0  0  0  0  0  0  0
   -7.1788   15.8413  -34.7305 H   0  0  0  0  0  0  0  0  0  0  0  0
   -5.8566   14.6254  -34.7305 H   0  0  0  0  0  0  0  0  0  0  0  0
   -5.2330   16.7890  -32.4470 C   0  0  0  0  0  0  0  0  0  0  0  0
   -4.3695   17.4521  -32.2902 H   0  0  0  0  0  0  0  0  0  0  0  0
   -5.1079   15.8285  -31.9258 H   0  0  0  0  0  0  0  0  0  0  0  0
   -6.4950   17.4740  -31.8690 C   0  0  0  0  0  0  0  0  0  0  0  0
   -6.1812   18.2411  -31.1458 H   0  0  0  0  0  0  0  0  0  0  0  0
   -7.1096   16.6976  -31.3901 H   0  0  0  0  0  0  0  0  0  0  0  0
   -6.2040   20.8890  -31.8020 C   0  0  0  0  0  0  0  0  0  0  0  0
   -5.6226   19.9613  -31.6953 H   0  0  0  0  0  0  0  0  0  0  0  0
   -5.5650   22.1280  -31.7010 C   0  0  0  0  0  0  0  0  0  0  0  0
   -4.4796   22.1702  -31.5276 H   0  0  0  0  0  0  0  0  0  0  0  0
   -6.2970   23.3160  -31.8190 C   0  0  0  0  0  0  0  0  0  0  0  0
   -5.6020   24.5670  -31.7320 N   0  0  0  0  0  0  0  0  0  0  0  0
   -5.2260   25.2390  -30.5250 C   0  0  0  0  0  0  0  0  0  0  0  0
   -6.1160   25.8270  -29.8550 O   0  0  0  0  0  0  0  0  0  0  0  0
   -3.8460   25.2920  -30.1250 N   0  0  0  0  0  0  0  0  0  0  0  0
   -3.2030   24.3810  -29.4590 C   0  0  0  0  0  0  0  0  0  0  0  0
   -3.7530   23.2110  -29.0450 N   0  0  0  0  0  0  0  0  0  0  0  0
   -2.8350   22.4620  -28.3830 C   0  0  0  0  0  0  0  0  0  0  0  0
   -3.0910   21.2040  -27.8340 C   0  0  0  0  0  0  0  0  0  0  0  0
   -4.0891   20.7489  -27.9160 H   0  0  0  0  0  0  0  0  0  0  0  0
   -2.0490   20.5310  -27.1750 C   0  0  0  0  0  0  0  0  0  0  0  0
   -2.2316   19.5391  -26.7359 H   0  0  0  0  0  0  0  0  0  0  0  0
   -0.7710   21.1170  -27.0720 C   0  0  0  0  0  0  0  0  0  0  0  0
    0.0374   20.5798  -26.5543 H   0  0  0  0  0  0  0  0  0  0  0  0
   -0.5250   22.3830  -27.6270 C   0  0  0  0  0  0  0  0  0  0  0  0
    0.4678   22.8506  -27.5515 H   0  0  0  0  0  0  0  0  0  0  0  0
   -1.5740   23.0300  -28.2760 C   0  0  0  0  0  0  0  0  0  0  0  0
   -1.5750   24.5310  -29.0290 S   0  0  0  0  0  0  0  0  0  0  0  0
  1  2  1  0
  2  3  2  0
  3  4  1  0
  3  5  1  0
  5  6  1  0
  6  7  2  0
  6  8  2  0
  6  9  1  0
  9 10  1  0
 10 11  1  0
 10 12  1  0
 10 13  1  0
 13 14  1  0
 13 15  1  0
 13 16  1  0
 16 17  1  0
 16 18  1  0
 18 19  1  0
 18 20  1  0
 18 21  1  0
 16 22  1  0
 22 23  1  0
 22 24  1  0
 22 25  1  0
 25 26  1  0
 25 27  1  0
  5 28  2  0
 28 29  1  0
 28 30  1  0
 30 31  1  0
 30 32  2  0
 32 33  1  0
 33 34  1  0
 34 35  2  0
 34 36  1  0
 36 37  2  0
 37 38  1  0
 38 39  1  0
 39 40  2  0
 40 41  1  0
 40 42  1  0
 42 43  1  0
 42 44  2  0
 44 45  1  0
 44 46  1  0
 46 47  1  0
 46 48  2  0
 48 49  1  0
 32  2  1  0
 49 37  1  0
 25  9  1  0
 48 39  1  0
M  CHG  3  16   1  33  -1  38  -1
M  END
>  <UniqueID>  (31) 
28

>  <SMILES>  (31) 
C[NH+]1CCN(S(=O)(=O)c2ccc([N-]C(=O)/N=c3\[n-]c4ccccc4s3)cc2)CC1

>  <Energy>  (31) 
100.98848429229781

>  <Genealogy>  (31) 
C[NH+]1CCN(S(=O)(=O)c2ccc([N-]C(=O)N=c3[n-]c4ccccc4s3)cc2)CC1 (protonated)
C[NH+]1CCN(S(=O)(=O)c2ccc([N-]C(=O)/N=c3\[n-]c4ccccc4s3)cc2)CC1 (cis-trans isomerization)
C[NH+]1CCN(S(=O)(=O)c2ccc([N-]C(=O)/N=c3\[n-]c4ccccc4s3)cc2)CC1 (3D coordinates assigned)
C[NH+]1CCN(S(=O)(=O)c2ccc([N-]C(=O)/N=c3\[n-]c4ccccc4s3)cc2)CC1 (nonaromatic ring conformer: 100.98848429229781 kcal/mol)

>  <smiles>  (31) 
CN1CCN(S(=O)(=O)c2ccc(NC(=O)N=c3[nH]c4ccccc4s3)cc2)CC1

>  <score_type>  (31) 
oracle

>  <origin>  (31) 
adgpu

>  <m_score__min__energy>  (31) 
-11.65

>  <m_primary>  (31) 
energy

$$$$
31:0
     RDKit          3D

 45 48  0  0  0  0  0  0  0  0999 V2000
   -6.2960   16.8760  -33.0310 H   0  0  0  0  0  0  0  0  0  0  0  0
   -7.2540   17.1780  -32.7460 N   0  0  0  0  0  0  0  0  0  0  0  0
   -7.5360   18.4230  -32.5400 C   0  0  0  0  0  0  0  0  0  0  0  0
   -6.5810   19.3770  -32.6950 N   0  0  0  0  0  0  0  0  0  0  0  0
   -6.8520   20.6910  -32.4750 C   0  0  0  0  0  0  0  0  0  0  0  0
   -5.8270   21.6280  -32.6530 O   0  0  0  0  0  0  0  0  0  0  0  0
   -4.4590   21.3600  -32.4780 C   0  0  0  0  0  0  0  0  0  0  0  0
   -3.8800   20.1960  -33.0160 C   0  0  0  0  0  0  0  0  0  0  0  0
   -4.4996   19.4998  -33.6003 H   0  0  0  0  0  0  0  0  0  0  0  0
   -2.5290   19.9160  -32.8160 C   0  0  0  0  0  0  0  0  0  0  0  0
   -2.0925   18.9980  -33.2365 H   0  0  0  0  0  0  0  0  0  0  0  0
   -1.7240   20.7980  -32.0820 C   0  0  0  0  0  0  0  0  0  0  0  0
   -0.2950   20.4790  -31.8480 C   0  0  0  0  0  0  0  0  0  0  0  0
    0.4660   20.2880  -32.8340 O   0  0  0  0  0  0  0  0  0  0  0  0
    0.2650   20.4220  -30.5280 N   0  0  0  0  0  0  0  0  0  0  0  0
   -0.3550   19.8470  -29.3690 C   0  0  0  0  0  0  0  0  0  0  0  0
    0.1910   18.7260  -28.7190 C   0  0  0  0  0  0  0  0  0  0  0  0
    1.1239   18.2780  -29.0919 H   0  0  0  0  0  0  0  0  0  0  0  0
   -0.4450   18.1780  -27.6020 C   0  0  0  0  0  0  0  0  0  0  0  0
   -0.0191   17.2919  -27.1085 H   0  0  0  0  0  0  0  0  0  0  0  0
   -1.6290   18.7560  -27.1060 C   0  0  0  0  0  0  0  0  0  0  0  0
   -2.3110   18.2400  -25.9930 O   0  0  0  0  0  0  0  0  0  0  0  0
   -3.6760   18.5090  -25.6930 C   0  0  0  0  0  0  0  0  0  0  0  0
   -3.8132   18.5360  -24.6019 H   0  0  0  0  0  0  0  0  0  0  0  0
   -3.9612   19.4806  -26.1226 H   0  0  0  0  0  0  0  0  0  0  0  0
   -4.3086   17.7182  -26.1226 H   0  0  0  0  0  0  0  0  0  0  0  0
   -2.1530   19.8900  -27.7390 C   0  0  0  0  0  0  0  0  0  0  0  0
   -3.0726   20.3545  -27.3536 H   0  0  0  0  0  0  0  0  0  0  0  0
   -1.5160   20.4360  -28.8570 C   0  0  0  0  0  0  0  0  0  0  0  0
   -1.9303   21.3347  -29.3373 H   0  0  0  0  0  0  0  0  0  0  0  0
   -2.2840   21.9860  -31.5900 C   0  0  0  0  0  0  0  0  0  0  0  0
   -1.6450   22.7041  -31.0552 H   0  0  0  0  0  0  0  0  0  0  0  0
   -3.6500   22.2750  -31.7690 C   0  0  0  0  0  0  0  0  0  0  0  0
   -4.2220   23.5180  -31.1900 C   0  0  0  0  0  0  0  0  0  0  0  0
   -3.4960   24.6010  -30.8480 N   0  0  0  0  0  0  0  0  0  0  0  0
   -4.3150   25.5260  -30.3710 N   0  0  0  0  0  0  0  0  0  0  0  0
   -5.5700   25.0410  -30.4060 C   0  0  0  0  0  0  0  0  0  0  0  0
   -6.4690   25.5815  -30.0747 H   0  0  0  0  0  0  0  0  0  0  0  0
   -5.5550   23.7650  -30.9200 C   0  0  0  0  0  0  0  0  0  0  0  0
   -6.4109   23.0928  -31.0801 H   0  0  0  0  0  0  0  0  0  0  0  0
   -8.1550   21.0750  -32.1120 C   0  0  0  0  0  0  0  0  0  0  0  0
   -8.6220   22.7620  -31.9300 Cl  0  0  0  0  0  0  0  0  0  0  0  0
   -9.1190   20.0780  -31.9560 C   0  0  0  0  0  0  0  0  0  0  0  0
  -10.1436   20.3464  -31.6592 H   0  0  0  0  0  0  0  0  0  0  0  0
   -8.7940   18.7770  -32.1700 N   0  0  0  0  0  0  0  0  0  0  0  0
  1  2  1  0
  2  3  2  0
  3  4  1  0
  4  5  2  0
  5  6  1  0
  6  7  1  0
  7  8  2  0
  8  9  1  0
  8 10  1  0
 10 11  1  0
 10 12  2  0
 12 13  1  0
 13 14  2  0
 13 15  1  0
 15 16  1  0
 16 17  2  0
 17 18  1  0
 17 19  1  0
 19 20  1  0
 19 21  2  0
 21 22  1  0
 22 23  1  0
 23 24  1  0
 23 25  1  0
 23 26  1  0
 21 27  1  0
 27 28  1  0
 27 29  2  0
 29 30  1  0
 12 31  1  0
 31 32  1  0
 31 33  2  0
 33 34  1  0
 34 35  2  0
 35 36  1  0
 36 37  1  0
 37 38  1  0
 37 39  2  0
 39 40  1  0
  5 41  1  0
 41 42  1  0
 41 43  2  0
 43 44  1  0
 43 45  1  0
 45  3  1  0
 33  7  1  0
 39 34  1  0
 29 16  1  0
M  CHG  3  15  -1  36  -1  45  -1
M  END
>  <UniqueID>  (32) 
29

>  <SMILES>  (32) 
[H]/N=c1\nc(Oc2ccc(C(=O)[N-]c3ccc(OC)cc3)cc2-c2cc[n-]n2)c(Cl)c[n-]1

>  <Energy>  (32) 
96.68174673251845

>  <Genealogy>  (32) 
COc1ccc([N-]C(=O)c2ccc(Oc3nc(=N)[n-]cc3Cl)c(-c3cc[n-]n3)c2)cc1 (protonated)
[H]/N=c1\nc(Oc2ccc(C(=O)[N-]c3ccc(OC)cc3)cc2-c2cc[n-]n2)c(Cl)c[n-]1 (cis-trans isomerization)
[H]/N=c1\nc(Oc2ccc(C(=O)[N-]c3ccc(OC)cc3)cc2-c2cc[n-]n2)c(Cl)c[n-]1 (3D coordinates assigned)
[H]/N=c1\nc(Oc2ccc(C(=O)[N-]c3ccc(OC)cc3)cc2-c2cc[n-]n2)c(Cl)c[n-]1 (optimized conformer: 96.68174673251845 kcal/mol)

>  <smiles>  (32) 
COc1ccc(NC(=O)c2ccc(Oc3nc(=N)[nH]cc3Cl)c(-c3cc[nH]n3)c2)cc1

>  <score_type>  (32) 
oracle

>  <origin>  (32) 
adgpu

>  <m_score__min__energy>  (32) 
-11.52

>  <m_primary>  (32) 
energy

$$$$
32:0
     RDKit          3D

 58 61  0  0  1  0  0  0  0  0999 V2000
   -4.5850   13.7630  -32.0950 C   0  0  0  0  0  0  0  0  0  0  0  0
   -4.7930   14.8130  -33.0480 N   0  0  0  0  0  0  0  0  0  0  0  0
   -4.1900   16.0490  -32.7470 C   0  0  0  0  0  0  0  0  0  0  0  0
   -5.0870   17.2390  -32.7890 C   0  0  0  0  0  0  0  0  0  0  0  0
   -5.8320   17.1650  -34.1340 C   0  0  0  0  0  0  0  0  0  0  0  0
   -6.3780   18.4420  -34.3390 N   0  0  0  0  0  0  0  0  0  0  0  0
   -5.6080   19.5900  -34.1110 C   0  0  0  0  0  0  0  0  0  0  0  0
   -6.0140   20.4790  -33.0360 C   0  0  0  0  0  0  0  0  0  0  0  0
   -7.3500   20.6320  -32.7220 C   0  0  0  0  0  0  0  0  0  0  0  0
   -7.7890   21.4650  -31.7110 C   0  0  0  0  0  0  0  0  0  0  0  0
   -6.8670   22.1950  -30.9570 C   0  0  0  0  0  0  0  0  0  0  0  0
   -5.5200   22.0490  -31.2650 C   0  0  0  0  0  0  0  0  0  0  0  0
   -4.4790   22.7810  -30.5220 C   0  0  0  0  0  0  0  0  0  0  0  0
   -4.8120   23.8310  -29.6750 C   0  0  0  0  0  0  0  0  0  0  0  0
   -3.7750   24.4580  -29.0180 C   0  0  0  0  0  0  0  0  0  0  0  0
   -2.4540   24.0910  -29.1660 C   0  0  0  0  0  0  0  0  0  0  0  0
   -1.1830   24.9150  -28.3140 S   0  0  0  0  0  0  0  0  0  0  0  0
    0.1270   24.3250  -28.7670 O   0  0  0  0  0  0  0  0  0  0  0  0
   -1.2340   26.3600  -28.7620 O   0  0  0  0  0  0  0  0  0  0  0  0
   -1.3550   24.8890  -26.6170 N   0  0  0  0  0  0  0  0  0  0  0  0
   -1.0460   25.8830  -25.8530 C   0  0  0  0  0  0  0  0  0  0  0  0
   -1.1940   25.8360  -24.4840 C   0  0  0  0  0  0  0  0  0  0  0  0
   -0.8610   26.9060  -23.6690 C   0  0  0  0  0  0  0  0  0  0  0  0
   -0.3770   28.0150  -24.2710 N   0  0  0  0  0  0  0  0  0  0  0  0
   -0.2300   28.0610  -25.6240 C   0  0  0  0  0  0  0  0  0  0  0  0
   -0.5610   27.0080  -26.4080 N   0  0  0  0  0  0  0  0  0  0  0  0
   -2.1630   23.0420  -30.0150 C   0  0  0  0  0  0  0  0  0  0  0  0
   -3.1540   22.3820  -30.6960 C   0  0  0  0  0  0  0  0  0  0  0  0
   -5.1000   21.2070  -32.2850 C   0  0  0  0  0  0  0  0  0  0  0  0
   -6.7580   16.0120  -33.9830 C   0  0  0  0  0  0  0  0  0  0  0  0
   -5.9450   14.7540  -33.8420 C   0  0  0  0  0  0  0  0  0  0  0  0
   -4.6658   14.1708  -31.0766 H   0  0  0  0  0  0  0  0  0  0  0  0
   -5.3458   12.9816  -32.2385 H   0  0  0  0  0  0  0  0  0  0  0  0
   -3.5838   13.3307  -32.2385 H   0  0  0  0  0  0  0  0  0  0  0  0
   -3.7686   15.9803  -31.7332 H   0  0  0  0  0  0  0  0  0  0  0  0
   -3.4401   16.2138  -33.5347 H   0  0  0  0  0  0  0  0  0  0  0  0
   -5.8025   17.2074  -31.9541 H   0  0  0  0  0  0  0  0  0  0  0  0
   -4.5170   18.1752  -32.6964 H   0  0  0  0  0  0  0  0  0  0  0  0
   -5.2512   16.9647  -35.0464 H   0  0  0  0  0  0  0  0  0  0  0  0
   -6.8320   18.5050  -35.2710 H   0  0  0  0  0  0  0  0  0  0  0  0
   -4.5824   19.2582  -33.8918 H   0  0  0  0  0  0  0  0  0  0  0  0
   -5.7297   20.1895  -35.0252 H   0  0  0  0  0  0  0  0  0  0  0  0
   -8.0956   20.0672  -33.3008 H   0  0  0  0  0  0  0  0  0  0  0  0
   -8.8649   21.5534  -31.4997 H   0  0  0  0  0  0  0  0  0  0  0  0
   -7.1961   22.8626  -30.1471 H   0  0  0  0  0  0  0  0  0  0  0  0
   -5.8561   24.1476  -29.5351 H   0  0  0  0  0  0  0  0  0  0  0  0
   -4.0130   25.2925  -28.3421 H   0  0  0  0  0  0  0  0  0  0  0  0
   -1.5895   24.9190  -24.0229 H   0  0  0  0  0  0  0  0  0  0  0  0
   -0.9854   26.8549  -22.5773 H   0  0  0  0  0  0  0  0  0  0  0  0
   -0.1000   28.8680  -23.7320 H   0  0  0  0  0  0  0  0  0  0  0  0
    0.1668   28.9747  -26.0907 H   0  0  0  0  0  0  0  0  0  0  0  0
   -1.1167   22.7296  -30.1478 H   0  0  0  0  0  0  0  0  0  0  0  0
   -2.9069   21.5489  -31.3705 H   0  0  0  0  0  0  0  0  0  0  0  0
   -4.0257   21.1146  -32.5023 H   0  0  0  0  0  0  0  0  0  0  0  0
   -7.3806   16.1524  -33.0871 H   0  0  0  0  0  0  0  0  0  0  0  0
   -7.4112   15.9386  -34.8650 H   0  0  0  0  0  0  0  0  0  0  0  0
   -6.6021   13.9838  -33.4120 H   0  0  0  0  0  0  0  0  0  0  0  0
   -5.5750   14.5449  -34.8566 H   0  0  0  0  0  0  0  0  0  0  0  0
  1  2  1  0
  2  3  1  0
  3  4  1  0
  4  5  1  0
  5  6  1  0
  6  7  1  0
  7  8  1  0
  8  9  2  0
  9 10  1  0
 10 11  2  0
 11 12  1  0
 12 13  1  0
 13 14  2  0
 14 15  1  0
 15 16  2  0
 16 17  1  0
 17 18  2  0
 17 19  2  0
 17 20  1  0
 20 21  2  0
 21 22  1  0
 22 23  2  0
 23 24  1  0
 24 25  1  0
 25 26  2  0
 16 27  1  0
 27 28  2  0
 12 29  2  0
  5 30  1  0
 30 31  1  0
 31  2  1  0
 29  8  1  0
 28 13  1  0
 26 21  1  0
  1 32  1  0
  1 33  1  0
  1 34  1  0
  3 35  1  0
  3 36  1  0
  4 37  1  0
  4 38  1  0
  5 39  1  0
  6 40  1  0
  7 41  1  0
  7 42  1  0
  9 43  1  0
 10 44  1  0
 11 45  1  0
 14 46  1  0
 15 47  1  0
 22 48  1  0
 23 49  1  0
 24 50  1  0
 25 51  1  0
 27 52  1  0
 28 53  1  0
 29 54  1  0
 30 55  1  0
 30 56  1  0
 31 57  1  0
 31 58  1  0
M  END
>  <smiles>  (33) 
CN1CCC(NCc2cccc(-c3ccc(S(=O)(=O)N=c4cc[nH]cn4)cc3)c2)CC1

>  <score_type>  (33) 
oracle

>  <origin>  (33) 
adgpu

>  <m_score__min__energy>  (33) 
-10.890000000000001

>  <m_primary>  (33) 
energy

$$$$
33:0
     RDKit          3D

 36 38  0  0  0  0  0  0  0  0999 V2000
   -5.6770   26.1420  -30.0910 O   0  0  0  0  0  0  0  0  0  0  0  0
   -5.0750   25.1240  -30.5280 C   0  0  0  0  0  0  0  0  0  0  0  0
   -3.6440   25.0610  -30.4670 N   0  0  0  0  0  0  0  0  0  0  0  0
   -2.8820   24.4050  -29.4440 C   0  0  0  0  0  0  0  0  0  0  0  0
   -3.2000   23.0810  -29.1160 C   0  0  0  0  0  0  0  0  0  0  0  0
   -2.4900   22.4070  -28.1160 C   0  0  0  0  0  0  0  0  0  0  0  0
   -2.8840   20.7420  -27.7300 Cl  0  0  0  0  0  0  0  0  0  0  0  0
   -1.4670   23.0630  -27.4240 C   0  0  0  0  0  0  0  0  0  0  0  0
   -1.1640   24.3940  -27.7210 C   0  0  0  0  0  0  0  0  0  0  0  0
   -1.8750   25.0750  -28.7160 C   0  0  0  0  0  0  0  0  0  0  0  0
   -1.5970   26.4170  -28.9460 O   0  0  0  0  0  0  0  0  0  0  0  0
   -5.8410   24.0170  -31.1460 C   0  0  0  0  0  0  0  0  0  0  0  0
   -5.1820   22.9910  -31.8460 C   0  0  0  0  0  0  0  0  0  0  0  0
   -5.9060   21.9440  -32.4240 C   0  0  0  0  0  0  0  0  0  0  0  0
   -7.3060   21.9050  -32.3150 C   0  0  0  0  0  0  0  0  0  0  0  0
   -8.0900   20.8540  -32.8990 N   0  0  0  0  0  0  0  0  0  0  0  0
   -8.0740   19.1970  -32.3920 S   0  0  0  0  0  0  0  0  0  0  0  0
   -9.4130   18.5790  -32.6760 O   0  0  0  0  0  0  0  0  0  0  0  0
   -7.8060   19.1300  -30.9150 O   0  0  0  0  0  0  0  0  0  0  0  0
   -6.8420   18.3140  -33.2760 C   0  0  0  0  0  0  0  0  0  0  0  0
   -6.0200   18.8350  -34.2630 C   0  0  0  0  0  0  0  0  0  0  0  0
   -5.1580   17.8780  -34.8140 C   0  0  0  0  0  0  0  0  0  0  0  0
   -5.3060   16.6110  -34.2620 C   0  0  0  0  0  0  0  0  0  0  0  0
   -6.5110   16.6780  -33.0890 S   0  0  0  0  0  0  0  0  0  0  0  0
   -7.9650   22.9220  -31.6150 C   0  0  0  0  0  0  0  0  0  0  0  0
   -7.2420   23.9690  -31.0360 C   0  0  0  0  0  0  0  0  0  0  0  0
   -4.0139   22.5671  -29.6484 H   0  0  0  0  0  0  0  0  0  0  0  0
   -0.9007   22.5307  -26.6455 H   0  0  0  0  0  0  0  0  0  0  0  0
   -0.3631   24.9092  -27.1705 H   0  0  0  0  0  0  0  0  0  0  0  0
   -4.0862   23.0123  -31.9398 H   0  0  0  0  0  0  0  0  0  0  0  0
   -5.3768   21.1469  -32.9668 H   0  0  0  0  0  0  0  0  0  0  0  0
   -6.0422   19.8881  -34.5800 H   0  0  0  0  0  0  0  0  0  0  0  0
   -4.4326   18.1076  -35.6084 H   0  0  0  0  0  0  0  0  0  0  0  0
   -4.7325   15.7158  -34.5441 H   0  0  0  0  0  0  0  0  0  0  0  0
   -9.0606   22.8973  -31.5196 H   0  0  0  0  0  0  0  0  0  0  0  0
   -7.7736   24.7621  -30.4897 H   0  0  0  0  0  0  0  0  0  0  0  0
  1  2  2  0
  2  3  1  0
  3  4  1  0
  4  5  2  0
  5  6  1  0
  6  7  1  0
  6  8  2  0
  8  9  1  0
  9 10  2  0
 10 11  1  0
  2 12  1  0
 12 13  2  0
 13 14  1  0
 14 15  2  0
 15 16  1  0
 16 17  1  0
 17 18  2  0
 17 19  2  0
 17 20  1  0
 20 21  2  0
 21 22  1  0
 22 23  2  0
 23 24  1  0
 15 25  1  0
 25 26  2  0
 10  4  1  0
 26 12  1  0
 24 20  1  0
  5 27  1  0
  8 28  1  0
  9 29  1  0
 13 30  1  0
 14 31  1  0
 21 32  1  0
 22 33  1  0
 23 34  1  0
 25 35  1  0
 26 36  1  0
M  CHG  3   3  -1  11  -1  16  -1
M  END
>  <UniqueID>  (34) 
30

>  <SMILES>  (34) 
O=C([N-]c1cc(Cl)ccc1[O-])c1ccc([N-]S(=O)(=O)c2cccs2)cc1

>  <Energy>  (34) 
74.36411554459313

>  <Genealogy>  (34) 
O=C([N-]c1cc(Cl)ccc1[O-])c1ccc([N-]S(=O)(=O)c2cccs2)cc1 (protonated)
O=C([N-]c1cc(Cl)ccc1[O-])c1ccc([N-]S(=O)(=O)c2cccs2)cc1 (3D coordinates assigned)
O=C([N-]c1cc(Cl)ccc1[O-])c1ccc([N-]S(=O)(=O)c2cccs2)cc1 (optimized conformer: 74.36411554459313 kcal/mol)

>  <smiles>  (34) 
O=C(Nc1cc(Cl)ccc1O)c1ccc(NS(=O)(=O)c2cccs2)cc1

>  <score_type>  (34) 
oracle

>  <origin>  (34) 
adgpu

>  <m_score__min__energy>  (34) 
-14.34

>  <m_primary>  (34) 
energy

$$$$
34:0
     RDKit          3D

 42 44  0  0  0  0  0  0  0  0999 V2000
    0.3040   17.4330  -36.0270 C   0  0  0  0  0  0  0  0  0  0  0  0
   -0.7930   17.8840  -35.1080 C   0  0  0  0  0  0  0  0  0  0  0  0
   -1.8450   17.0170  -34.7880 C   0  0  0  0  0  0  0  0  0  0  0  0
   -2.8860   17.4350  -33.9450 C   0  0  0  0  0  0  0  0  0  0  0  0
   -3.9950   16.4780  -33.6020 C   0  0  0  0  0  0  0  0  0  0  0  0
   -2.8860   18.7510  -33.4350 C   0  0  0  0  0  0  0  0  0  0  0  0
   -3.9530   19.1780  -32.5740 N   0  0  0  0  0  0  0  0  0  0  0  0
   -5.2980   19.3370  -33.0400 C   0  0  0  0  0  0  0  0  0  0  0  0
   -5.5660   19.1880  -34.2630 O   0  0  0  0  0  0  0  0  0  0  0  0
   -6.3170   19.7300  -32.1150 N   0  0  0  0  0  0  0  0  0  0  0  0
   -6.8540   21.0540  -31.9510 C   0  0  0  0  0  0  0  0  0  0  0  0
   -8.2290   21.3010  -32.1130 C   0  0  0  0  0  0  0  0  0  0  0  0
   -8.7490   22.5830  -31.9290 C   0  0  0  0  0  0  0  0  0  0  0  0
   -7.9110   23.6370  -31.5670 C   0  0  0  0  0  0  0  0  0  0  0  0
   -6.5420   23.4140  -31.3750 C   0  0  0  0  0  0  0  0  0  0  0  0
   -5.7000   24.4740  -30.9970 C   0  0  0  0  0  0  0  0  0  0  0  0
   -4.3350   24.2520  -30.8010 C   0  0  0  0  0  0  0  0  0  0  0  0
   -3.5080   25.3040  -30.4270 O   0  0  0  0  0  0  0  0  0  0  0  0
   -3.8000   22.9750  -30.9810 C   0  0  0  0  0  0  0  0  0  0  0  0
   -4.6240   21.9110  -31.3580 C   0  0  0  0  0  0  0  0  0  0  0  0
   -6.0030   22.1140  -31.5600 C   0  0  0  0  0  0  0  0  0  0  0  0
   -1.8560   19.6470  -33.8050 C   0  0  0  0  0  0  0  0  0  0  0  0
   -1.8450   21.0750  -33.3260 C   0  0  0  0  0  0  0  0  0  0  0  0
   -0.8090   19.1980  -34.6250 C   0  0  0  0  0  0  0  0  0  0  0  0
    1.1596   17.0813  -35.4318 H   0  0  0  0  0  0  0  0  0  0  0  0
   -0.0632   16.6129  -36.6615 H   0  0  0  0  0  0  0  0  0  0  0  0
    0.6198   18.2742  -36.6615 H   0  0  0  0  0  0  0  0  0  0  0  0
   -1.8555   15.9978  -35.2017 H   0  0  0  0  0  0  0  0  0  0  0  0
   -4.0863   16.3992  -32.5086 H   0  0  0  0  0  0  0  0  0  0  0  0
   -4.9416   16.8475  -34.0233 H   0  0  0  0  0  0  0  0  0  0  0  0
   -3.7680   15.4876  -34.0233 H   0  0  0  0  0  0  0  0  0  0  0  0
   -3.7180   19.5140  -31.6130 H   0  0  0  0  0  0  0  0  0  0  0  0
   -8.9017   20.4751  -32.3876 H   0  0  0  0  0  0  0  0  0  0  0  0
   -9.8250   22.7628  -32.0702 H   0  0  0  0  0  0  0  0  0  0  0  0
   -8.3265   24.6465  -31.4319 H   0  0  0  0  0  0  0  0  0  0  0  0
   -6.1174   25.4818  -30.8550 H   0  0  0  0  0  0  0  0  0  0  0  0
   -2.7244   22.8055  -30.8253 H   0  0  0  0  0  0  0  0  0  0  0  0
   -4.1928   20.9087  -31.4978 H   0  0  0  0  0  0  0  0  0  0  0  0
   -1.8449   21.0928  -32.2261 H   0  0  0  0  0  0  0  0  0  0  0  0
   -0.9429   21.5806  -33.7010 H   0  0  0  0  0  0  0  0  0  0  0  0
   -2.7392   21.5944  -33.7010 H   0  0  0  0  0  0  0  0  0  0  0  0
    0.0074   19.8856  -34.8909 H   0  0  0  0  0  0  0  0  0  0  0  0
  1  2  1  0
  2  3  2  0
  3  4  1  0
  4  5  1  0
  4  6  2  0
  6  7  1  0
  7  8  1  0
  8  9  2  0
  8 10  1  0
 10 11  1  0
 11 12  2  0
 12 13  1  0
 13 14  2  0
 14 15  1  0
 15 16  2  0
 16 17  1  0
 17 18  1  0
 17 19  2  0
 19 20  1  0
 20 21  2  0
  6 22  1  0
 22 23  1  0
 22 24  2  0
 24  2  1  0
 21 11  1  0
 21 15  1  0
  1 25  1  0
  1 26  1  0
  1 27  1  0
  3 28  1  0
  5 29  1  0
  5 30  1  0
  5 31  1  0
  7 32  1  0
 12 33  1  0
 13 34  1  0
 14 35  1  0
 16 36  1  0
 19 37  1  0
 20 38  1  0
 23 39  1  0
 23 40  1  0
 23 41  1  0
 24 42  1  0
M  CHG  2  10  -1  18  -1
M  END
>  <UniqueID>  (35) 
31

>  <SMILES>  (35) 
Cc1cc(C)c(NC(=O)[N-]c2cccc3cc([O-])ccc23)c(C)c1

>  <Energy>  (35) 
56.968411129903345

>  <Genealogy>  (35) 
Cc1cc(C)c(NC(=O)[N-]c2cccc3cc([O-])ccc23)c(C)c1 (protonated)
Cc1cc(C)c(NC(=O)[N-]c2cccc3cc([O-])ccc23)c(C)c1 (3D coordinates assigned)
Cc1cc(C)c(NC(=O)[N-]c2cccc3cc([O-])ccc23)c(C)c1 (optimized conformer: 56.968411129903345 kcal/mol)

>  <smiles>  (35) 
Cc1cc(C)c(NC(=O)Nc2cccc3cc(O)ccc23)c(C)c1

>  <score_type>  (35) 
oracle

>  <origin>  (35) 
adgpu

>  <m_score__min__energy>  (35) 
-10.609999999999999

>  <m_primary>  (35) 
energy

$$$$
35:0
     RDKit          3D

 62 66  0  0  0  0  0  0  0  0999 V2000
   -4.2370   25.6960  -30.8220 O   0  0  0  0  0  0  0  0  0  0  0  0
   -4.8760   24.3600  -30.5610 S   0  0  0  0  0  0  0  0  0  0  0  0
   -6.0160   24.5590  -29.6010 O   0  0  0  0  0  0  0  0  0  0  0  0
   -3.6650   23.2990  -29.8440 C   0  0  0  0  0  0  0  0  0  0  0  0
   -3.9060   22.6570  -28.6230 C   0  0  0  0  0  0  0  0  0  0  0  0
   -2.9410   21.8110  -28.0680 C   0  0  0  0  0  0  0  0  0  0  0  0
   -1.7210   21.5940  -28.7370 C   0  0  0  0  0  0  0  0  0  0  0  0
   -0.7200   20.7560  -28.2230 O   0  0  0  0  0  0  0  0  0  0  0  0
    0.2360   21.1510  -27.2440 C   0  0  0  0  0  0  0  0  0  0  0  0
    0.3210   22.6390  -27.2180 C   0  0  0  0  0  0  0  0  0  0  0  0
   -0.1750   23.4030  -26.2280 N   0  0  0  0  0  0  0  0  0  0  0  0
    0.1260   24.6430  -26.6720 C   0  0  0  0  0  0  0  0  0  0  0  0
   -0.2130   25.8830  -25.9420 C   0  0  0  0  0  0  0  0  0  0  0  0
   -0.5260   25.8410  -24.5710 C   0  0  0  0  0  0  0  0  0  0  0  0
   -0.8510   27.0150  -23.8820 C   0  0  0  0  0  0  0  0  0  0  0  0
   -0.8640   28.2400  -24.5540 C   0  0  0  0  0  0  0  0  0  0  0  0
   -0.5530   28.2930  -25.9150 C   0  0  0  0  0  0  0  0  0  0  0  0
   -0.2280   27.1220  -26.6070 C   0  0  0  0  0  0  0  0  0  0  0  0
    0.7620   24.6220  -27.8610 N   0  0  0  0  0  0  0  0  0  0  0  0
    0.8630   23.3640  -28.1650 O   0  0  0  0  0  0  0  0  0  0  0  0
   -1.4910   22.2300  -29.9620 C   0  0  0  0  0  0  0  0  0  0  0  0
   -2.4560   23.0780  -30.5130 C   0  0  0  0  0  0  0  0  0  0  0  0
   -5.4600   23.6930  -32.0710 N   0  0  0  0  0  0  0  0  0  0  0  0
   -4.9810   22.3180  -32.2990 C   0  0  0  0  0  0  0  0  0  0  0  0
   -5.6980   21.2750  -31.4210 C   0  0  0  0  0  0  0  0  0  0  0  0
   -7.2160   21.5560  -31.2190 C   0  0  0  0  0  0  0  0  0  0  0  0
   -8.0050   20.2910  -31.2280 N   0  0  0  0  0  0  0  0  0  0  0  0
   -7.2180   19.1220  -31.6570 C   0  0  0  0  0  0  0  0  0  0  0  0
   -8.1830   18.1260  -32.2860 C   0  0  0  0  0  0  0  0  0  0  0  0
   -9.4570   18.9040  -32.5520 C   0  0  0  0  0  0  0  0  0  0  0  0
   -9.1380   20.3380  -32.1660 C   0  0  0  0  0  0  0  0  0  0  0  0
   -7.7130   22.5440  -32.2960 C   0  0  0  0  0  0  0  0  0  0  0  0
   -6.9260   23.8660  -32.2310 C   0  0  0  0  0  0  0  0  0  0  0  0
   -4.8590   22.8190  -28.0981 H   0  0  0  0  0  0  0  0  0  0  0  0
   -3.1353   21.3136  -27.1063 H   0  0  0  0  0  0  0  0  0  0  0  0
   -0.0753   20.7825  -26.2554 H   0  0  0  0  0  0  0  0  0  0  0  0
    1.2199   20.7279  -27.4948 H   0  0  0  0  0  0  0  0  0  0  0  0
   -0.5152   24.8793  -24.0372 H   0  0  0  0  0  0  0  0  0  0  0  0
   -1.0964   26.9733  -22.8105 H   0  0  0  0  0  0  0  0  0  0  0  0
   -1.1190   29.1624  -24.0116 H   0  0  0  0  0  0  0  0  0  0  0  0
   -0.5638   29.2577  -26.4433 H   0  0  0  0  0  0  0  0  0  0  0  0
    0.0174   27.1704  -27.6782 H   0  0  0  0  0  0  0  0  0  0  0  0
   -0.5438   22.0614  -30.4953 H   0  0  0  0  0  0  0  0  0  0  0  0
   -2.2643   23.5735  -31.4762 H   0  0  0  0  0  0  0  0  0  0  0  0
   -5.1472   22.0600  -33.3553 H   0  0  0  0  0  0  0  0  0  0  0  0
   -3.9142   22.2938  -32.0320 H   0  0  0  0  0  0  0  0  0  0  0  0
   -5.5886   20.2888  -31.8958 H   0  0  0  0  0  0  0  0  0  0  0  0
   -5.2302   21.3195  -30.4264 H   0  0  0  0  0  0  0  0  0  0  0  0
   -7.3628   22.0170  -30.2311 H   0  0  0  0  0  0  0  0  0  0  0  0
   -8.3770   20.1050  -30.2640 H   0  0  0  0  0  0  0  0  0  0  0  0
   -6.4614   19.4287  -32.3943 H   0  0  0  0  0  0  0  0  0  0  0  0
   -6.6983   18.6692  -30.7997 H   0  0  0  0  0  0  0  0  0  0  0  0
   -7.7698   17.7328  -33.2266 H   0  0  0  0  0  0  0  0  0  0  0  0
   -8.3632   17.2631  -31.6280 H   0  0  0  0  0  0  0  0  0  0  0  0
   -9.7309   18.8430  -33.6156 H   0  0  0  0  0  0  0  0  0  0  0  0
  -10.3083   18.5050  -31.9810 H   0  0  0  0  0  0  0  0  0  0  0  0
   -8.8641   20.9175  -33.0600 H   0  0  0  0  0  0  0  0  0  0  0  0
  -10.0103   20.8224  -31.7029 H   0  0  0  0  0  0  0  0  0  0  0  0
   -7.5775   22.0922  -33.2897 H   0  0  0  0  0  0  0  0  0  0  0  0
   -8.7766   22.7578  -32.1141 H   0  0  0  0  0  0  0  0  0  0  0  0
   -7.1083   24.4224  -33.1622 H   0  0  0  0  0  0  0  0  0  0  0  0
   -7.2808   24.4022  -31.3385 H   0  0  0  0  0  0  0  0  0  0  0  0
  1  2  2  0
  2  3  2  0
  2  4  1  0
  4  5  2  0
  5  6  1  0
  6  7  2  0
  7  8  1  0
  8  9  1  0
  9 10  1  0
 10 11  2  0
 11 12  1  0
 12 13  1  0
 13 14  2  0
 14 15  1  0
 15 16  2  0
 16 17  1  0
 17 18  2  0
 12 19  2  0
 19 20  1  0
  7 21  1  0
 21 22  2  0
  2 23  1  0
 23 24  1  0
 24 25  1  0
 25 26  1  0
 26 27  1  0
 27 28  1  0
 28 29  1  0
 29 30  1  0
 30 31  1  0
 26 32  1  0
 32 33  1  0
 22  4  1  0
 33 23  1  0
 20 10  1  0
 31 27  1  0
 18 13  1  0
  5 34  1  0
  6 35  1  0
  9 36  1  0
  9 37  1  0
 14 38  1  0
 15 39  1  0
 16 40  1  0
 17 41  1  0
 18 42  1  0
 21 43  1  0
 22 44  1  0
 24 45  1  0
 24 46  1  0
 25 47  1  0
 25 48  1  0
 26 49  1  0
 27 50  1  0
 28 51  1  0
 28 52  1  0
 29 53  1  0
 29 54  1  0
 30 55  1  0
 30 56  1  0
 31 57  1  0
 31 58  1  0
 32 59  1  0
 32 60  1  0
 33 61  1  0
 33 62  1  0
M  CHG  1  27   1
M  END
>  <UniqueID>  (36) 
32

>  <SMILES>  (36) 
O=S(=O)(c1ccc(OCc2nc(-c3ccccc3)no2)cc1)N1CCC([NH+]2CCCC2)CC1

>  <Energy>  (36) 
111.72113590468965

>  <Genealogy>  (36) 
O=S(=O)(c1ccc(OCc2nc(-c3ccccc3)no2)cc1)N1CCC([NH+]2CCCC2)CC1 (protonated)
O=S(=O)(c1ccc(OCc2nc(-c3ccccc3)no2)cc1)N1CCC([NH+]2CCCC2)CC1 (3D coordinates assigned)
O=S(=O)(c1ccc(OCc2nc(-c3ccccc3)no2)cc1)N1CCC([NH+]2CCCC2)CC1 (nonaromatic ring conformer: 111.72113590468965 kcal/mol)

>  <smiles>  (36) 
O=S(=O)(c1ccc(OCc2nc(-c3ccccc3)no2)cc1)N1CCC(N2CCCC2)CC1

>  <score_type>  (36) 
oracle

>  <origin>  (36) 
adgpu

>  <m_score__min__energy>  (36) 
-11.140000000000001

>  <m_primary>  (36) 
energy

$$$$
36:0
     RDKit          3D

 27 28  0  0  0  0  0  0  0  0999 V2000
   -2.5290   21.2460  -33.7780 N   0  0  0  0  0  0  0  0  0  0  0  0
   -1.6050   20.7900  -32.7850 C   0  0  0  0  0  0  0  0  0  0  0  0
   -0.2710   20.5390  -33.1280 C   0  0  0  0  0  0  0  0  0  0  0  0
    0.6350   20.1080  -32.1550 C   0  0  0  0  0  0  0  0  0  0  0  0
    0.2140   19.9160  -30.8350 C   0  0  0  0  0  0  0  0  0  0  0  0
    1.1500   19.5520  -29.8740 O   0  0  0  0  0  0  0  0  0  0  0  0
   -1.1370   20.1290  -30.4890 C   0  0  0  0  0  0  0  0  0  0  0  0
   -1.6170   19.9490  -29.1500 N   0  0  0  0  0  0  0  0  0  0  0  0
   -2.3180   20.9320  -28.3770 C   0  0  0  0  0  0  0  0  0  0  0  0
   -3.2060   20.5700  -27.5580 O   0  0  0  0  0  0  0  0  0  0  0  0
   -2.0390   22.3740  -28.5780 C   0  0  0  0  0  0  0  0  0  0  0  0
   -0.9090   22.9710  -27.9890 C   0  0  0  0  0  0  0  0  0  0  0  0
   -0.6450   24.3300  -28.1810 C   0  0  0  0  0  0  0  0  0  0  0  0
   -1.5020   25.1100  -28.9610 C   0  0  0  0  0  0  0  0  0  0  0  0
   -1.2320   26.4610  -29.1470 O   0  0  0  0  0  0  0  0  0  0  0  0
   -2.6280   24.5280  -29.5530 C   0  0  0  0  0  0  0  0  0  0  0  0
   -3.4840   25.2990  -30.3320 O   0  0  0  0  0  0  0  0  0  0  0  0
   -2.8960   23.1680  -29.3640 C   0  0  0  0  0  0  0  0  0  0  0  0
   -2.0300   20.5930  -31.4640 C   0  0  0  0  0  0  0  0  0  0  0  0
   -2.2240   21.9030  -34.5310 H   0  0  0  0  0  0  0  0  0  0  0  0
   -3.5250   20.9300  -33.7670 H   0  0  0  0  0  0  0  0  0  0  0  0
    0.0648   20.6814  -34.1658 H   0  0  0  0  0  0  0  0  0  0  0  0
    1.6836   19.9190  -32.4284 H   0  0  0  0  0  0  0  0  0  0  0  0
   -0.2289   22.3640  -27.3733 H   0  0  0  0  0  0  0  0  0  0  0  0
    0.2410   24.7871  -27.7161 H   0  0  0  0  0  0  0  0  0  0  0  0
   -3.7824   22.7158  -29.8327 H   0  0  0  0  0  0  0  0  0  0  0  0
   -3.0741   20.8046  -31.1902 H   0  0  0  0  0  0  0  0  0  0  0  0
  1  2  1  0
  2  3  2  0
  3  4  1  0
  4  5  2  0
  5  6  1  0
  5  7  1  0
  7  8  1  0
  8  9  1  0
  9 10  2  0
  9 11  1  0
 11 12  2  0
 12 13  1  0
 13 14  2  0
 14 15  1  0
 14 16  1  0
 16 17  1  0
 16 18  2  0
  7 19  2  0
 19  2  1  0
 18 11  1  0
  1 20  1  0
  1 21  1  0
  3 22  1  0
  4 23  1  0
 12 24  1  0
 13 25  1  0
 18 26  1  0
 19 27  1  0
M  CHG  4   6  -1   8  -1  15  -1  17  -1
M  END
>  <UniqueID>  (37) 
33

>  <SMILES>  (37) 
Nc1ccc([O-])c([N-]C(=O)c2ccc([O-])c([O-])c2)c1

>  <Energy>  (37) 
33.888681191960885

>  <Genealogy>  (37) 
Nc1ccc([O-])c([N-]C(=O)c2ccc([O-])c([O-])c2)c1 (protonated)
Nc1ccc([O-])c([N-]C(=O)c2ccc([O-])c([O-])c2)c1 (3D coordinates assigned)
Nc1ccc([O-])c([N-]C(=O)c2ccc([O-])c([O-])c2)c1 (optimized conformer: 33.888681191960885 kcal/mol)

>  <smiles>  (37) 
Nc1ccc(O)c(NC(=O)c2ccc(O)c(O)c2)c1

>  <score_type>  (37) 
oracle

>  <origin>  (37) 
adgpu

>  <m_score__min__energy>  (37) 
-11.880000000000001

>  <m_primary>  (37) 
energy

$$$$
37:0
     RDKit          3D

 48 50  0  0  0  0  0  0  0  0999 V2000
   -0.8460   26.7790  -27.8770 C   0  0  0  0  0  0  0  0  0  0  0  0
   -1.4750   26.0590  -28.9320 O   0  0  0  0  0  0  0  0  0  0  0  0
   -1.5810   24.6600  -28.9880 C   0  0  0  0  0  0  0  0  0  0  0  0
   -0.7030   23.8160  -28.2790 C   0  0  0  0  0  0  0  0  0  0  0  0
   -0.8460   22.4280  -28.3510 C   0  0  0  0  0  0  0  0  0  0  0  0
   -1.8660   21.8690  -29.1200 C   0  0  0  0  0  0  0  0  0  0  0  0
   -2.7430   22.6950  -29.8270 C   0  0  0  0  0  0  0  0  0  0  0  0
   -2.5930   24.0940  -29.7820 C   0  0  0  0  0  0  0  0  0  0  0  0
   -3.4960   24.9640  -30.4810 N   0  0  0  0  0  0  0  0  0  0  0  0
   -4.9180   25.0040  -30.3280 C   0  0  0  0  0  0  0  0  0  0  0  0
   -5.5310   26.0680  -30.6060 O   0  0  0  0  0  0  0  0  0  0  0  0
   -5.6430   23.8180  -29.9730 N   0  0  0  0  0  0  0  0  0  0  0  0
   -6.5970   23.1230  -30.7890 C   0  0  0  0  0  0  0  0  0  0  0  0
   -7.7930   23.7260  -31.2180 C   0  0  0  0  0  0  0  0  0  0  0  0
   -8.7050   23.0040  -31.9920 C   0  0  0  0  0  0  0  0  0  0  0  0
   -8.4390   21.6760  -32.3350 C   0  0  0  0  0  0  0  0  0  0  0  0
   -7.2600   21.0590  -31.8990 C   0  0  0  0  0  0  0  0  0  0  0  0
   -6.9160   19.3840  -32.3400 S   0  0  0  0  0  0  0  0  0  0  0  0
   -6.3780   18.6560  -31.1390 O   0  0  0  0  0  0  0  0  0  0  0  0
   -8.1940   18.7090  -32.7570 O   0  0  0  0  0  0  0  0  0  0  0  0
   -5.7530   19.2900  -33.6430 N   0  0  0  0  0  0  0  0  0  0  0  0
   -4.3770   19.3940  -33.1110 C   0  0  0  0  0  0  0  0  0  0  0  0
   -3.3450   18.9070  -34.1340 C   0  0  0  0  0  0  0  0  0  0  0  0
   -3.5580   17.4200  -34.4700 C   0  0  0  0  0  0  0  0  0  0  0  0
   -5.0110   16.9630  -34.2540 C   0  0  0  0  0  0  0  0  0  0  0  0
   -5.9970   18.1120  -34.5100 C   0  0  0  0  0  0  0  0  0  0  0  0
   -6.3510   21.7830  -31.1140 C   0  0  0  0  0  0  0  0  0  0  0  0
   -1.1896   26.3857  -26.9089 H   0  0  0  0  0  0  0  0  0  0  0  0
    0.2452   26.6629  -27.9535 H   0  0  0  0  0  0  0  0  0  0  0  0
   -1.1076   27.8447  -27.9535 H   0  0  0  0  0  0  0  0  0  0  0  0
    0.0992   24.2523  -27.6656 H   0  0  0  0  0  0  0  0  0  0  0  0
   -0.1528   21.7752  -27.8002 H   0  0  0  0  0  0  0  0  0  0  0  0
   -1.9802   20.7761  -29.1700 H   0  0  0  0  0  0  0  0  0  0  0  0
   -3.5545   22.2502  -30.4216 H   0  0  0  0  0  0  0  0  0  0  0  0
   -8.0109   24.7687  -30.9435 H   0  0  0  0  0  0  0  0  0  0  0  0
   -9.6352   23.4825  -32.3323 H   0  0  0  0  0  0  0  0  0  0  0  0
   -9.1577   21.1136  -32.9492 H   0  0  0  0  0  0  0  0  0  0  0  0
   -4.1673   20.4450  -32.8633 H   0  0  0  0  0  0  0  0  0  0  0  0
   -4.3028   18.7602  -32.2150 H   0  0  0  0  0  0  0  0  0  0  0  0
   -3.4434   19.5011  -35.0545 H   0  0  0  0  0  0  0  0  0  0  0  0
   -2.3406   19.0275  -33.7020 H   0  0  0  0  0  0  0  0  0  0  0  0
   -3.2909   17.2560  -35.5244 H   0  0  0  0  0  0  0  0  0  0  0  0
   -2.9214   16.8325  -33.7921 H   0  0  0  0  0  0  0  0  0  0  0  0
   -5.2343   16.1374  -34.9458 H   0  0  0  0  0  0  0  0  0  0  0  0
   -5.1218   16.6342  -33.2101 H   0  0  0  0  0  0  0  0  0  0  0  0
   -5.9051   18.4251  -35.5605 H   0  0  0  0  0  0  0  0  0  0  0  0
   -7.0052   17.7374  -34.2794 H   0  0  0  0  0  0  0  0  0  0  0  0
   -5.4356   21.2936  -30.7499 H   0  0  0  0  0  0  0  0  0  0  0  0
  1  2  1  0
  2  3  1  0
  3  4  2  0
  4  5  1  0
  5  6  2  0
  6  7  1  0
  7  8  2  0
  8  9  1  0
  9 10  1  0
 10 11  2  0
 10 12  1  0
 12 13  1  0
 13 14  2  0
 14 15  1  0
 15 16  2  0
 16 17  1  0
 17 18  1  0
 18 19  2  0
 18 20  2  0
 18 21  1  0
 21 22  1  0
 22 23  1  0
 23 24  1  0
 24 25  1  0
 25 26  1  0
 17 27  2  0
  8  3  1  0
 27 13  1  0
 26 21  1  0
  1 28  1  0
  1 29  1  0
  1 30  1  0
  4 31  1  0
  5 32  1  0
  6 33  1  0
  7 34  1  0
 14 35  1  0
 15 36  1  0
 16 37  1  0
 22 38  1  0
 22 39  1  0
 23 40  1  0
 23 41  1  0
 24 42  1  0
 24 43  1  0
 25 44  1  0
 25 45  1  0
 26 46  1  0
 26 47  1  0
 27 48  1  0
M  CHG  2   9  -1  12  -1
M  END
>  <UniqueID>  (38) 
34

>  <SMILES>  (38) 
COc1ccccc1[N-]C(=O)[N-]c1cccc(S(=O)(=O)N2CCCCC2)c1

>  <Energy>  (38) 
59.88432304711669

>  <Genealogy>  (38) 
COc1ccccc1[N-]C(=O)[N-]c1cccc(S(=O)(=O)N2CCCCC2)c1 (protonated)
COc1ccccc1[N-]C(=O)[N-]c1cccc(S(=O)(=O)N2CCCCC2)c1 (3D coordinates assigned)
COc1ccccc1[N-]C(=O)[N-]c1cccc(S(=O)(=O)N2CCCCC2)c1 (nonaromatic ring conformer: 59.88432304711669 kcal/mol)

>  <smiles>  (38) 
COc1ccccc1NC(=O)Nc1cccc(S(=O)(=O)N2CCCCC2)c1

>  <score_type>  (38) 
oracle

>  <origin>  (38) 
adgpu

>  <m_score__min__energy>  (38) 
-12.31

>  <m_primary>  (38) 
energy

$$$$
38:0
     RDKit          3D

 28 30  0  0  0  0  0  0  0  0999 V2000
    1.7410   24.9910  -26.7920 O   0  0  0  0  0  0  0  0  0  0  0  0
    0.5630   24.8330  -27.5110 C   0  0  0  0  0  0  0  0  0  0  0  0
    0.3440   23.6670  -28.2480 C   0  0  0  0  0  0  0  0  0  0  0  0
   -0.8410   23.5060  -28.9730 C   0  0  0  0  0  0  0  0  0  0  0  0
   -1.8240   24.5130  -28.9680 C   0  0  0  0  0  0  0  0  0  0  0  0
   -3.0770   24.3260  -29.7420 C   0  0  0  0  0  0  0  0  0  0  0  0
   -3.8480   23.1800  -29.8190 C   0  0  0  0  0  0  0  0  0  0  0  0
   -4.8920   23.5270  -30.6580 C   0  0  0  0  0  0  0  0  0  0  0  0
   -6.0210   22.6640  -31.0880 C   0  0  0  0  0  0  0  0  0  0  0  0
   -5.8500   21.7710  -32.1620 C   0  0  0  0  0  0  0  0  0  0  0  0
   -6.9040   20.9520  -32.5790 C   0  0  0  0  0  0  0  0  0  0  0  0
   -8.1410   21.0160  -31.9320 C   0  0  0  0  0  0  0  0  0  0  0  0
   -9.4610   19.9870  -32.4570 Cl  0  0  0  0  0  0  0  0  0  0  0  0
   -8.3230   21.8980  -30.8640 C   0  0  0  0  0  0  0  0  0  0  0  0
   -7.2720   22.7190  -30.4430 C   0  0  0  0  0  0  0  0  0  0  0  0
   -4.7400   24.8070  -31.0500 N   0  0  0  0  0  0  0  0  0  0  0  0
   -3.6410   25.2910  -30.4940 N   0  0  0  0  0  0  0  0  0  0  0  0
   -1.5930   25.6840  -28.2200 C   0  0  0  0  0  0  0  0  0  0  0  0
   -0.4060   25.8410  -27.4980 C   0  0  0  0  0  0  0  0  0  0  0  0
    1.1055   22.8733  -28.2582 H   0  0  0  0  0  0  0  0  0  0  0  0
   -1.0060   22.5851  -29.5516 H   0  0  0  0  0  0  0  0  0  0  0  0
   -3.6713   22.2129  -29.3255 H   0  0  0  0  0  0  0  0  0  0  0  0
   -4.8798   21.7168  -32.6775 H   0  0  0  0  0  0  0  0  0  0  0  0
   -6.7590   20.2558  -33.4182 H   0  0  0  0  0  0  0  0  0  0  0  0
   -9.2957   21.9469  -30.3527 H   0  0  0  0  0  0  0  0  0  0  0  0
   -7.4233   23.4123  -29.6025 H   0  0  0  0  0  0  0  0  0  0  0  0
   -2.3516   26.4804  -28.2038 H   0  0  0  0  0  0  0  0  0  0  0  0
   -0.2340   26.7599  -26.9183 H   0  0  0  0  0  0  0  0  0  0  0  0
  1  2  1  0
  2  3  2  0
  3  4  1  0
  4  5  2  0
  5  6  1  0
  6  7  2  0
  7  8  1  0
  8  9  1  0
  9 10  2  0
 10 11  1  0
 11 12  2  0
 12 13  1  0
 12 14  1  0
 14 15  2  0
  8 16  2  0
 16 17  1  0
  5 18  1  0
 18 19  2  0
 19  2  1  0
 17  6  1  0
 15  9  1  0
  3 20  1  0
  4 21  1  0
  7 22  1  0
 10 23  1  0
 11 24  1  0
 14 25  1  0
 15 26  1  0
 18 27  1  0
 19 28  1  0
M  CHG  2   1  -1  17  -1
M  END
>  <UniqueID>  (39) 
35

>  <SMILES>  (39) 
[O-]c1ccc(-c2cc(-c3ccc(Cl)cc3)n[n-]2)cc1

>  <Energy>  (39) 
63.26519413009374

>  <Genealogy>  (39) 
[O-]c1ccc(-c2cc(-c3ccc(Cl)cc3)n[n-]2)cc1 (protonated)
[O-]c1ccc(-c2cc(-c3ccc(Cl)cc3)n[n-]2)cc1 (3D coordinates assigned)
[O-]c1ccc(-c2cc(-c3ccc(Cl)cc3)n[n-]2)cc1 (optimized conformer: 63.26519413009374 kcal/mol)

>  <smiles>  (39) 
Oc1ccc(-c2cc(-c3ccc(Cl)cc3)n[nH]2)cc1

>  <score_type>  (39) 
oracle

>  <origin>  (39) 
adgpu

>  <m_score__min__energy>  (39) 
-9.9399999999999995

>  <m_primary>  (39) 
energy

$$$$
39:0
     RDKit          3D

 32 34  0  0  0  0  0  0  0  0999 V2000
   -0.4328   26.0011  -27.8170 H   0  0  0  0  0  0  0  0  0  0  0  0
   -1.4150   25.5130  -27.9010 C   0  0  0  0  0  0  0  0  0  0  0  0
   -1.9620   25.2990  -29.1280 N   0  0  0  0  0  0  0  0  0  0  0  0
   -3.1740   24.7050  -29.2940 C   0  0  0  0  0  0  0  0  0  0  0  0
   -3.6140   24.5290  -30.5090 N   0  0  0  0  0  0  0  0  0  0  0  0
   -4.8950   24.0150  -30.9100 C   0  0  0  0  0  0  0  0  0  0  0  0
   -6.0530   24.6970  -30.5210 C   0  0  0  0  0  0  0  0  0  0  0  0
   -5.9715   25.6346  -29.9515 H   0  0  0  0  0  0  0  0  0  0  0  0
   -7.3120   24.1920  -30.8530 C   0  0  0  0  0  0  0  0  0  0  0  0
   -8.2183   24.7422  -30.5598 H   0  0  0  0  0  0  0  0  0  0  0  0
   -7.4240   22.9890  -31.5570 C   0  0  0  0  0  0  0  0  0  0  0  0
   -8.4181   22.6015  -31.8246 H   0  0  0  0  0  0  0  0  0  0  0  0
   -6.2720   22.2730  -31.9240 C   0  0  0  0  0  0  0  0  0  0  0  0
   -6.3870   20.9900  -32.6520 C   0  0  0  0  0  0  0  0  0  0  0  0
   -7.5260   20.2710  -32.7300 N   0  0  0  0  0  0  0  0  0  0  0  0
   -7.2190   19.2330  -33.4480 O   0  0  0  0  0  0  0  0  0  0  0  0
   -5.9590   19.2980  -33.7950 C   0  0  0  0  0  0  0  0  0  0  0  0
   -5.2700   18.2860  -34.6460 C   0  0  0  0  0  0  0  0  0  0  0  0
   -4.7674   17.5478  -34.0037 H   0  0  0  0  0  0  0  0  0  0  0  0
   -6.0095   17.7763  -35.2811 H   0  0  0  0  0  0  0  0  0  0  0  0
   -4.5247   18.7872  -35.2811 H   0  0  0  0  0  0  0  0  0  0  0  0
   -5.3660   20.4090  -33.3190 N   0  0  0  0  0  0  0  0  0  0  0  0
   -5.0080   22.7870  -31.5830 C   0  0  0  0  0  0  0  0  0  0  0  0
   -4.1007   22.2230  -31.8453 H   0  0  0  0  0  0  0  0  0  0  0  0
   -3.8820   24.2690  -28.1570 C   0  0  0  0  0  0  0  0  0  0  0  0
   -4.8531   23.7645  -28.2687 H   0  0  0  0  0  0  0  0  0  0  0  0
   -3.3420   24.4820  -26.8870 C   0  0  0  0  0  0  0  0  0  0  0  0
   -3.8952   24.1524  -25.9952 H   0  0  0  0  0  0  0  0  0  0  0  0
   -2.0980   25.1140  -26.7420 C   0  0  0  0  0  0  0  0  0  0  0  0
   -1.5270   25.3380  -25.4390 N   0  0  0  0  0  0  0  0  0  0  0  0
   -0.7570   24.4980  -24.9290 O   0  0  0  0  0  0  0  0  0  0  0  0
   -1.8240   26.4810  -24.7330 O   0  0  0  0  0  0  0  0  0  0  0  0
  1  2  1  0
  2  3  1  0
  3  4  1  0
  4  5  2  0
  5  6  1  0
  6  7  2  0
  7  8  1  0
  7  9  1  0
  9 10  1  0
  9 11  2  0
 11 12  1  0
 11 13  1  0
 13 14  1  0
 14 15  2  0
 15 16  1  0
 16 17  1  0
 17 18  1  0
 18 19  1  0
 18 20  1  0
 18 21  1  0
 17 22  2  0
 13 23  2  0
 23 24  1  0
  4 25  1  0
 25 26  1  0
 25 27  2  0
 27 28  1  0
 27 29  1  0
 29 30  1  0
 30 31  2  0
 30 32  1  0
 29  2  2  0
 23  6  1  0
 22 14  1  0
M  CHG  3   3  -1  30   1  32  -1
M  END
>  <UniqueID>  (40) 
36

>  <SMILES>  (40) 
Cc1nc(-c2cccc(/N=c3\ccc([N+](=O)[O-])c[n-]3)c2)no1

>  <Energy>  (40) 
77.88885163912805

>  <Genealogy>  (40) 
Cc1nc(-c2cccc(N=c3ccc([N+](=O)[O-])c[n-]3)c2)no1 (protonated)
Cc1nc(-c2cccc(/N=c3\ccc([N+](=O)[O-])c[n-]3)c2)no1 (cis-trans isomerization)
Cc1nc(-c2cccc(/N=c3\ccc([N+](=O)[O-])c[n-]3)c2)no1 (3D coordinates assigned)
Cc1nc(-c2cccc(/N=c3\ccc([N+](=O)[O-])c[n-]3)c2)no1 (optimized conformer: 77.88885163912805 kcal/mol)

>  <smiles>  (40) 
Cc1nc(-c2cccc(N=c3ccc([N+](=O)[O-])c[nH]3)c2)no1

>  <score_type>  (40) 
oracle

>  <origin>  (40) 
adgpu

>  <m_score__min__energy>  (40) 
-9.4100000000000001

>  <m_primary>  (40) 
energy

$$$$
40:0
     RDKit          3D

 44 46  0  0  0  0  0  0  0  0999 V2000
  -10.1850   20.8750  -32.2910 C   0  0  0  0  0  0  0  0  0  0  0  0
   -8.9140   21.4260  -31.7330 C   0  0  0  0  0  0  0  0  0  0  0  0
   -8.1290   20.6570  -31.1150 O   0  0  0  0  0  0  0  0  0  0  0  0
   -8.6450   22.8330  -31.8160 N   0  0  0  0  0  0  0  0  0  0  0  0
   -7.3840   23.4400  -31.4860 C   0  0  0  0  0  0  0  0  0  0  0  0
   -6.2240   23.0190  -32.1530 C   0  0  0  0  0  0  0  0  0  0  0  0
   -4.9800   23.5650  -31.8260 C   0  0  0  0  0  0  0  0  0  0  0  0
   -4.8710   24.5100  -30.8020 C   0  0  0  0  0  0  0  0  0  0  0  0
   -3.5790   25.0240  -30.4560 N   0  0  0  0  0  0  0  0  0  0  0  0
   -2.7330   24.5260  -29.4100 C   0  0  0  0  0  0  0  0  0  0  0  0
   -1.8760   25.2980  -28.9070 O   0  0  0  0  0  0  0  0  0  0  0  0
   -2.7960   23.0960  -28.9320 C   0  0  0  0  0  0  0  0  0  0  0  0
   -2.5210   22.1620  -30.0310 N   0  0  0  0  0  0  0  0  0  0  0  0
   -3.5430   21.4720  -30.5460 N   0  0  0  0  0  0  0  0  0  0  0  0
   -3.4050   20.6300  -31.6050 C   0  0  0  0  0  0  0  0  0  0  0  0
   -4.6050   19.9420  -32.1460 C   0  0  0  0  0  0  0  0  0  0  0  0
   -5.3290   19.0530  -31.3280 C   0  0  0  0  0  0  0  0  0  0  0  0
   -6.4770   18.4180  -31.8120 C   0  0  0  0  0  0  0  0  0  0  0  0
   -6.9170   18.6630  -33.1130 C   0  0  0  0  0  0  0  0  0  0  0  0
   -6.2190   19.5540  -33.9300 C   0  0  0  0  0  0  0  0  0  0  0  0
   -5.0710   20.1950  -33.4510 C   0  0  0  0  0  0  0  0  0  0  0  0
   -2.1290   20.4560  -32.1590 C   0  0  0  0  0  0  0  0  0  0  0  0
   -1.0520   21.1560  -31.6240 C   0  0  0  0  0  0  0  0  0  0  0  0
   -1.2620   22.0230  -30.5520 C   0  0  0  0  0  0  0  0  0  0  0  0
   -0.2900   22.6680  -30.0740 O   0  0  0  0  0  0  0  0  0  0  0  0
   -6.0280   24.9470  -30.1390 C   0  0  0  0  0  0  0  0  0  0  0  0
   -7.2740   24.4040  -30.4670 C   0  0  0  0  0  0  0  0  0  0  0  0
  -10.8526   20.5856  -31.4660 H   0  0  0  0  0  0  0  0  0  0  0  0
  -10.6765   21.6408  -32.9090 H   0  0  0  0  0  0  0  0  0  0  0  0
   -9.9621   19.9927  -32.9090 H   0  0  0  0  0  0  0  0  0  0  0  0
   -9.4420   23.4640  -32.0630 H   0  0  0  0  0  0  0  0  0  0  0  0
   -6.2942   22.2532  -32.9395 H   0  0  0  0  0  0  0  0  0  0  0  0
   -4.0819   23.2495  -32.3773 H   0  0  0  0  0  0  0  0  0  0  0  0
   -2.0483   22.9485  -28.1388 H   0  0  0  0  0  0  0  0  0  0  0  0
   -3.8080   22.8985  -28.5488 H   0  0  0  0  0  0  0  0  0  0  0  0
   -4.9888   18.8567  -30.3005 H   0  0  0  0  0  0  0  0  0  0  0  0
   -7.0342   17.7239  -31.1656 H   0  0  0  0  0  0  0  0  0  0  0  0
   -7.8142   18.1540  -33.4951 H   0  0  0  0  0  0  0  0  0  0  0  0
   -6.5722   19.7527  -34.9526 H   0  0  0  0  0  0  0  0  0  0  0  0
   -4.5291   20.9009  -34.0976 H   0  0  0  0  0  0  0  0  0  0  0  0
   -1.9807   19.7728  -33.0083 H   0  0  0  0  0  0  0  0  0  0  0  0
   -0.0433   21.0266  -32.0431 H   0  0  0  0  0  0  0  0  0  0  0  0
   -5.9545   25.7191  -29.3589 H   0  0  0  0  0  0  0  0  0  0  0  0
   -8.1734   24.7323  -29.9253 H   0  0  0  0  0  0  0  0  0  0  0  0
  1  2  1  0
  2  3  2  0
  2  4  1  0
  4  5  1  0
  5  6  2  0
  6  7  1  0
  7  8  2  0
  8  9  1  0
  9 10  1  0
 10 11  2  0
 10 12  1  0
 12 13  1  0
 13 14  1  0
 14 15  2  0
 15 16  1  0
 16 17  2  0
 17 18  1  0
 18 19  2  0
 19 20  1  0
 20 21  2  0
 15 22  1  0
 22 23  2  0
 23 24  1  0
 24 25  2  0
  8 26  1  0
 26 27  2  0
 27  5  1  0
 24 13  1  0
 21 16  1  0
  1 28  1  0
  1 29  1  0
  1 30  1  0
  4 31  1  0
  6 32  1  0
  7 33  1  0
 12 34  1  0
 12 35  1  0
 17 36  1  0
 18 37  1  0
 19 38  1  0
 20 39  1  0
 21 40  1  0
 22 41  1  0
 23 42  1  0
 26 43  1  0
 27 44  1  0
M  CHG  1   9  -1
M  END
>  <UniqueID>  (41) 
37

>  <SMILES>  (41) 
CC(=O)Nc1ccc([N-]C(=O)Cn2nc(-c3ccccc3)ccc2=O)cc1

>  <Energy>  (41) 
52.01452557683467

>  <Genealogy>  (41) 
CC(=O)Nc1ccc([N-]C(=O)Cn2nc(-c3ccccc3)ccc2=O)cc1 (protonated)
CC(=O)Nc1ccc([N-]C(=O)Cn2nc(-c3ccccc3)ccc2=O)cc1 (3D coordinates assigned)
CC(=O)Nc1ccc([N-]C(=O)Cn2nc(-c3ccccc3)ccc2=O)cc1 (optimized conformer: 52.01452557683467 kcal/mol)

>  <smiles>  (41) 
CC(=O)Nc1ccc(NC(=O)Cn2nc(-c3ccccc3)ccc2=O)cc1

>  <score_type>  (41) 
oracle

>  <origin>  (41) 
adgpu

>  <m_score__min__energy>  (41) 
-11.130000000000001

>  <m_primary>  (41) 
energy

$$$$
41:0
     RDKit          3D

 36 37  0  0  0  0  0  0  0  0999 V2000
   -8.6390   19.3670  -32.0720 C   0  0  0  0  0  0  0  0  0  0  0  0
   -7.7920   20.6180  -32.2670 C   0  0  0  0  0  0  0  0  0  0  0  0
   -8.6590   22.1050  -31.6490 S   0  0  0  0  0  0  0  0  0  0  0  0
   -7.1650   23.0340  -31.2940 C   0  0  0  0  0  0  0  0  0  0  0  0
   -7.2280   24.1970  -30.5170 C   0  0  0  0  0  0  0  0  0  0  0  0
   -6.0630   24.9110  -30.2280 C   0  0  0  0  0  0  0  0  0  0  0  0
   -4.8170   24.4520  -30.6920 C   0  0  0  0  0  0  0  0  0  0  0  0
   -3.6000   25.1530  -30.4000 N   0  0  0  0  0  0  0  0  0  0  0  0
   -2.6210   24.7680  -29.4250 C   0  0  0  0  0  0  0  0  0  0  0  0
   -2.6620   23.6060  -28.9460 O   0  0  0  0  0  0  0  0  0  0  0  0
   -1.5990   25.6700  -28.9790 N   0  0  0  0  0  0  0  0  0  0  0  0
   -1.3280   26.0270  -27.6160 C   0  0  0  0  0  0  0  0  0  0  0  0
   -1.9790   25.3330  -26.5900 C   0  0  0  0  0  0  0  0  0  0  0  0
   -1.7260   25.6470  -25.2510 C   0  0  0  0  0  0  0  0  0  0  0  0
   -0.8200   26.6660  -24.9240 C   0  0  0  0  0  0  0  0  0  0  0  0
   -0.5750   27.0270  -23.4890 C   0  0  0  0  0  0  0  0  0  0  0  0
   -0.2030   27.3950  -25.9520 C   0  0  0  0  0  0  0  0  0  0  0  0
   -0.4560   27.0810  -27.2900 C   0  0  0  0  0  0  0  0  0  0  0  0
   -4.7630   23.2980  -31.4820 C   0  0  0  0  0  0  0  0  0  0  0  0
   -5.9290   22.5850  -31.7730 C   0  0  0  0  0  0  0  0  0  0  0  0
   -8.7684   19.1758  -30.9965 H   0  0  0  0  0  0  0  0  0  0  0  0
   -9.6238   19.5144  -32.5393 H   0  0  0  0  0  0  0  0  0  0  0  0
   -8.1364   18.5074  -32.5393 H   0  0  0  0  0  0  0  0  0  0  0  0
   -6.8459   20.5001  -31.7184 H   0  0  0  0  0  0  0  0  0  0  0  0
   -7.6024   20.7467  -33.3429 H   0  0  0  0  0  0  0  0  0  0  0  0
   -8.1970   24.5491  -30.1334 H   0  0  0  0  0  0  0  0  0  0  0  0
   -6.1201   25.8359  -29.6352 H   0  0  0  0  0  0  0  0  0  0  0  0
   -2.6944   24.5352  -26.8384 H   0  0  0  0  0  0  0  0  0  0  0  0
   -2.2395   25.0927  -24.4515 H   0  0  0  0  0  0  0  0  0  0  0  0
   -1.0723   26.2942  -22.8365 H   0  0  0  0  0  0  0  0  0  0  0  0
    0.5067   27.0214  -23.2890 H   0  0  0  0  0  0  0  0  0  0  0  0
   -0.9797   28.0301  -23.2890 H   0  0  0  0  0  0  0  0  0  0  0  0
    0.4834   28.2179  -25.7034 H   0  0  0  0  0  0  0  0  0  0  0  0
    0.0282   27.6598  -28.0903 H   0  0  0  0  0  0  0  0  0  0  0  0
   -3.7968   22.9501  -31.8762 H   0  0  0  0  0  0  0  0  0  0  0  0
   -5.8753   21.6690  -32.3797 H   0  0  0  0  0  0  0  0  0  0  0  0
  1  2  1  0
  2  3  1  0
  3  4  1  0
  4  5  2  0
  5  6  1  0
  6  7  2  0
  7  8  1  0
  8  9  1  0
  9 10  2  0
  9 11  1  0
 11 12  1  0
 12 13  2  0
 13 14  1  0
 14 15  2  0
 15 16  1  0
 15 17  1  0
 17 18  2  0
  7 19  1  0
 19 20  2  0
 20  4  1  0
 18 12  1  0
  1 21  1  0
  1 22  1  0
  1 23  1  0
  2 24  1  0
  2 25  1  0
  5 26  1  0
  6 27  1  0
 13 28  1  0
 14 29  1  0
 16 30  1  0
 16 31  1  0
 16 32  1  0
 17 33  1  0
 18 34  1  0
 19 35  1  0
 20 36  1  0
M  CHG  2   8  -1  11  -1
M  END
>  <UniqueID>  (42) 
38

>  <SMILES>  (42) 
CCSc1ccc([N-]C(=O)[N-]c2ccc(C)cc2)cc1

>  <Energy>  (42) 
36.0662743466089

>  <Genealogy>  (42) 
CCSc1ccc([N-]C(=O)[N-]c2ccc(C)cc2)cc1 (protonated)
CCSc1ccc([N-]C(=O)[N-]c2ccc(C)cc2)cc1 (3D coordinates assigned)
CCSc1ccc([N-]C(=O)[N-]c2ccc(C)cc2)cc1 (optimized conformer: 36.0662743466089 kcal/mol)

>  <smiles>  (42) 
CCSc1ccc(NC(=O)Nc2ccc(C)cc2)cc1

>  <score_type>  (42) 
oracle

>  <origin>  (42) 
adgpu

>  <m_score__min__energy>  (42) 
-11.02

>  <m_primary>  (42) 
energy

$$$$
42:0
     RDKit          3D

 53 56  0  0  0  0  0  0  0  0999 V2000
   -2.6730   19.3080  -26.3800 C   0  0  0  0  0  0  0  0  0  0  0  0
   -2.5880   19.8200  -27.8130 C   0  0  0  0  0  0  0  0  0  0  0  0
   -2.2470   21.2760  -27.8350 C   0  0  0  0  0  0  0  0  0  0  0  0
   -2.2350   22.0870  -28.9540 C   0  0  0  0  0  0  0  0  0  0  0  0
   -1.9560   23.3470  -28.4590 C   0  0  0  0  0  0  0  0  0  0  0  0
   -1.9550   24.5810  -29.2690 C   0  0  0  0  0  0  0  0  0  0  0  0
   -0.9340   25.3180  -29.3060 O   0  0  0  0  0  0  0  0  0  0  0  0
   -3.1250   24.9240  -30.0240 N   0  0  0  0  0  0  0  0  0  0  0  0
   -4.1850   24.0380  -30.4100 C   0  0  0  0  0  0  0  0  0  0  0  0
   -5.4570   24.0900  -29.8160 C   0  0  0  0  0  0  0  0  0  0  0  0
   -6.4560   23.1930  -30.2060 C   0  0  0  0  0  0  0  0  0  0  0  0
   -6.2000   22.2170  -31.1870 C   0  0  0  0  0  0  0  0  0  0  0  0
   -7.2330   21.2910  -31.5920 N   0  0  0  0  0  0  0  0  0  0  0  0
   -6.8940   20.1230  -32.4220 C   0  0  0  0  0  0  0  0  0  0  0  0
   -7.8900   18.9830  -32.1870 C   0  0  0  0  0  0  0  0  0  0  0  0
   -9.3440   19.4170  -32.4480 C   0  0  0  0  0  0  0  0  0  0  0  0
   -9.5980   20.9140  -32.1940 C   0  0  0  0  0  0  0  0  0  0  0  0
   -8.6260   21.5060  -31.1680 C   0  0  0  0  0  0  0  0  0  0  0  0
   -4.9160   22.1550  -31.7590 C   0  0  0  0  0  0  0  0  0  0  0  0
   -3.9190   23.0520  -31.3670 C   0  0  0  0  0  0  0  0  0  0  0  0
   -1.8120   23.2600  -27.1130 N   0  0  0  0  0  0  0  0  0  0  0  0
   -1.4660   24.3020  -26.1890 C   0  0  0  0  0  0  0  0  0  0  0  0
   -2.3030   25.4210  -26.0520 C   0  0  0  0  0  0  0  0  0  0  0  0
   -1.9940   26.4240  -25.1280 C   0  0  0  0  0  0  0  0  0  0  0  0
   -0.8560   26.3100  -24.3250 C   0  0  0  0  0  0  0  0  0  0  0  0
   -0.0290   25.1880  -24.4400 C   0  0  0  0  0  0  0  0  0  0  0  0
   -0.3360   24.1830  -25.3610 C   0  0  0  0  0  0  0  0  0  0  0  0
   -2.0020   22.0070  -26.7310 N   0  0  0  0  0  0  0  0  0  0  0  0
   -2.5338   20.1468  -25.6821 H   0  0  0  0  0  0  0  0  0  0  0  0
   -3.6593   18.8509  -26.2118 H   0  0  0  0  0  0  0  0  0  0  0  0
   -1.8873   18.5568  -26.2118 H   0  0  0  0  0  0  0  0  0  0  0  0
   -1.8100   19.2588  -28.3514 H   0  0  0  0  0  0  0  0  0  0  0  0
   -3.5653   19.6784  -28.2976 H   0  0  0  0  0  0  0  0  0  0  0  0
   -2.4081   21.7959  -30.0006 H   0  0  0  0  0  0  0  0  0  0  0  0
   -5.6681   24.8404  -29.0399 H   0  0  0  0  0  0  0  0  0  0  0  0
   -7.4515   23.2507  -29.7417 H   0  0  0  0  0  0  0  0  0  0  0  0
   -6.9218   20.4136  -33.4826 H   0  0  0  0  0  0  0  0  0  0  0  0
   -5.8874   19.7748  -32.1474 H   0  0  0  0  0  0  0  0  0  0  0  0
   -7.6420   18.1512  -32.8627 H   0  0  0  0  0  0  0  0  0  0  0  0
   -7.8126   18.6794  -31.1326 H   0  0  0  0  0  0  0  0  0  0  0  0
   -9.5893   19.1963  -33.4973 H   0  0  0  0  0  0  0  0  0  0  0  0
   -9.9775   18.8592  -31.7427 H   0  0  0  0  0  0  0  0  0  0  0  0
   -9.4837   21.4577  -33.1434 H   0  0  0  0  0  0  0  0  0  0  0  0
  -10.6159   21.0175  -31.7900 H   0  0  0  0  0  0  0  0  0  0  0  0
   -8.8129   22.5859  -31.0738 H   0  0  0  0  0  0  0  0  0  0  0  0
   -8.7838   21.0074  -30.2003 H   0  0  0  0  0  0  0  0  0  0  0  0
   -4.6951   21.3936  -32.5216 H   0  0  0  0  0  0  0  0  0  0  0  0
   -2.9165   22.9826  -31.8144 H   0  0  0  0  0  0  0  0  0  0  0  0
   -3.2058   25.5090  -26.6743 H   0  0  0  0  0  0  0  0  0  0  0  0
   -2.6474   27.3038  -25.0331 H   0  0  0  0  0  0  0  0  0  0  0  0
   -0.6107   27.1025  -23.6027 H   0  0  0  0  0  0  0  0  0  0  0  0
    0.8643   25.0966  -23.8046 H   0  0  0  0  0  0  0  0  0  0  0  0
    0.3089   23.2953  -25.4385 H   0  0  0  0  0  0  0  0  0  0  0  0
  1  2  1  0
  2  3  1  0
  3  4  1  0
  4  5  2  0
  5  6  1  0
  6  7  2  0
  6  8  1  0
  8  9  1  0
  9 10  2  0
 10 11  1  0
 11 12  2  0
 12 13  1  0
 13 14  1  0
 14 15  1  0
 15 16  1  0
 16 17  1  0
 17 18  1  0
 12 19  1  0
 19 20  2  0
  5 21  1  0
 21 22  1  0
 22 23  2  0
 23 24  1  0
 24 25  2  0
 25 26  1  0
 26 27  2  0
 21 28  1  0
 28  3  2  0
 20  9  1  0
 27 22  1  0
 18 13  1  0
  1 29  1  0
  1 30  1  0
  1 31  1  0
  2 32  1  0
  2 33  1  0
  4 34  1  0
 10 35  1  0
 11 36  1  0
 14 37  1  0
 14 38  1  0
 15 39  1  0
 15 40  1  0
 16 41  1  0
 16 42  1  0
 17 43  1  0
 17 44  1  0
 18 45  1  0
 18 46  1  0
 19 47  1  0
 20 48  1  0
 23 49  1  0
 24 50  1  0
 25 51  1  0
 26 52  1  0
 27 53  1  0
M  CHG  1   8  -1
M  END
>  <UniqueID>  (43) 
39

>  <SMILES>  (43) 
CCc1cc(C(=O)[N-]c2ccc(N3CCCCC3)cc2)n(-c2ccccc2)n1

>  <Energy>  (43) 
96.21678574616583

>  <Genealogy>  (43) 
CCc1cc(C(=O)[N-]c2ccc(N3CCCCC3)cc2)n(-c2ccccc2)n1 (protonated)
CCc1cc(C(=O)[N-]c2ccc(N3CCCCC3)cc2)n(-c2ccccc2)n1 (3D coordinates assigned)
CCc1cc(C(=O)[N-]c2ccc(N3CCCCC3)cc2)n(-c2ccccc2)n1 (nonaromatic ring conformer: 96.21678574616583 kcal/mol)

>  <smiles>  (43) 
CCc1cc(C(=O)Nc2ccc(N3CCCCC3)cc2)n(-c2ccccc2)n1

>  <score_type>  (43) 
oracle

>  <origin>  (43) 
adgpu

>  <m_score__min__energy>  (43) 
-11.359999999999999

>  <m_primary>  (43) 
energy

$$$$
43:0
     RDKit          3D

 38 40  0  0  0  0  0  0  0  0999 V2000
   -4.7413   15.7184  -32.4620 H   0  0  0  0  0  0  0  0  0  0  0  0
   -5.3530   16.5340  -32.8750 C   0  0  0  0  0  0  0  0  0  0  0  0
   -6.2260   17.6650  -31.9840 S   0  0  0  0  0  0  0  0  0  0  0  0
   -6.8010   18.4650  -33.3560 C   0  0  0  0  0  0  0  0  0  0  0  0
   -7.5860   19.5030  -33.3820 N   0  0  0  0  0  0  0  0  0  0  0  0
   -8.1320   20.2210  -32.2610 C   0  0  0  0  0  0  0  0  0  0  0  0
   -9.2050   19.8440  -31.7150 O   0  0  0  0  0  0  0  0  0  0  0  0
   -7.4220   21.4090  -31.7330 C   0  0  0  0  0  0  0  0  0  0  0  0
   -6.2870   21.9180  -32.3900 C   0  0  0  0  0  0  0  0  0  0  0  0
   -5.9182   21.4256  -33.3019 H   0  0  0  0  0  0  0  0  0  0  0  0
   -5.6240   23.0440  -31.8940 C   0  0  0  0  0  0  0  0  0  0  0  0
   -4.7398   23.4351  -32.4186 H   0  0  0  0  0  0  0  0  0  0  0  0
   -6.0820   23.6760  -30.7310 C   0  0  0  0  0  0  0  0  0  0  0  0
   -5.2450   25.0820  -30.0790 S   0  0  0  0  0  0  0  0  0  0  0  0
   -5.5790   25.2110  -28.6200 O   0  0  0  0  0  0  0  0  0  0  0  0
   -5.6710   26.3400  -30.7850 O   0  0  0  0  0  0  0  0  0  0  0  0
   -3.5320   24.8760  -30.2570 N   0  0  0  0  0  0  0  0  0  0  0  0
   -2.6920   24.1010  -29.3880 C   0  0  0  0  0  0  0  0  0  0  0  0
   -2.9910   22.7590  -29.0800 C   0  0  0  0  0  0  0  0  0  0  0  0
   -3.8838   22.2849  -29.5138 H   0  0  0  0  0  0  0  0  0  0  0  0
   -2.1610   22.0260  -28.2270 C   0  0  0  0  0  0  0  0  0  0  0  0
   -2.5550   20.3610  -27.8390 Cl  0  0  0  0  0  0  0  0  0  0  0  0
   -1.0240   22.6200  -27.6770 C   0  0  0  0  0  0  0  0  0  0  0  0
   -0.3737   22.0426  -27.0034 H   0  0  0  0  0  0  0  0  0  0  0  0
   -0.7110   23.9470  -27.9810 C   0  0  0  0  0  0  0  0  0  0  0  0
    0.1878   24.4098  -27.5474 H   0  0  0  0  0  0  0  0  0  0  0  0
   -1.5360   24.6930  -28.8360 C   0  0  0  0  0  0  0  0  0  0  0  0
   -1.1970   26.0540  -29.1300 N   0  0  0  0  0  0  0  0  0  0  0  0
   -0.8950   26.7050  -28.3720 H   0  0  0  0  0  0  0  0  0  0  0  0
   -1.2390   26.4290  -30.1020 H   0  0  0  0  0  0  0  0  0  0  0  0
   -7.2090   23.1760  -30.0710 C   0  0  0  0  0  0  0  0  0  0  0  0
   -7.5711   23.6674  -29.1559 H   0  0  0  0  0  0  0  0  0  0  0  0
   -7.8770   22.0540  -30.5700 C   0  0  0  0  0  0  0  0  0  0  0  0
   -8.7668   21.6724  -30.0478 H   0  0  0  0  0  0  0  0  0  0  0  0
   -6.3400   17.8820  -34.4820 N   0  0  0  0  0  0  0  0  0  0  0  0
   -6.5670   18.2120  -35.4480 H   0  0  0  0  0  0  0  0  0  0  0  0
   -5.5410   16.8120  -34.2250 C   0  0  0  0  0  0  0  0  0  0  0  0
   -5.0789   16.2125  -35.0232 H   0  0  0  0  0  0  0  0  0  0  0  0
  1  2  1  0
  2  3  1  0
  3  4  1  0
  4  5  2  0
  5  6  1  0
  6  7  2  0
  6  8  1  0
  8  9  2  0
  9 10  1  0
  9 11  1  0
 11 12  1  0
 11 13  2  0
 13 14  1  0
 14 15  2  0
 14 16  2  0
 14 17  1  0
 17 18  1  0
 18 19  2  0
 19 20  1  0
 19 21  1  0
 21 22  1  0
 21 23  2  0
 23 24  1  0
 23 25  1  0
 25 26  1  0
 25 27  2  0
 27 28  1  0
 28 29  1  0
 28 30  1  0
 13 31  1  0
 31 32  1  0
 31 33  2  0
 33 34  1  0
  4 35  1  0
 35 36  1  0
 35 37  1  0
 37 38  1  0
 37  2  2  0
 33  8  1  0
 27 18  1  0
M  CHG  1  17  -1
M  END
>  <UniqueID>  (44) 
40

>  <SMILES>  (44) 
Nc1ccc(Cl)cc1[N-]S(=O)(=O)c1ccc(C(=O)/N=c2/[nH]ccs2)cc1

>  <Energy>  (44) 
77.82167524346218

>  <Genealogy>  (44) 
Nc1ccc(Cl)cc1[N-]S(=O)(=O)c1ccc(C(=O)N=c2[nH]ccs2)cc1 (protonated)
Nc1ccc(Cl)cc1[N-]S(=O)(=O)c1ccc(C(=O)/N=c2/[nH]ccs2)cc1 (cis-trans isomerization)
Nc1ccc(Cl)cc1[N-]S(=O)(=O)c1ccc(C(=O)/N=c2/[nH]ccs2)cc1 (3D coordinates assigned)
Nc1ccc(Cl)cc1[N-]S(=O)(=O)c1ccc(C(=O)/N=c2/[nH]ccs2)cc1 (optimized conformer: 77.82167524346218 kcal/mol)

>  <smiles>  (44) 
Nc1ccc(Cl)cc1NS(=O)(=O)c1ccc(C(=O)N=c2[nH]ccs2)cc1

>  <score_type>  (44) 
oracle

>  <origin>  (44) 
adgpu

>  <m_score__min__energy>  (44) 
-11.48

>  <m_primary>  (44) 
energy

$$$$
44:0
     RDKit          3D

 49 51  0  0  0  0  0  0  0  0999 V2000
   -2.9700   19.9500  -33.4460 C   0  0  0  0  0  0  0  0  0  0  0  0
   -4.0910   19.4070  -34.1350 O   0  0  0  0  0  0  0  0  0  0  0  0
   -4.5900   18.1080  -33.9480 C   0  0  0  0  0  0  0  0  0  0  0  0
   -3.7350   16.9870  -33.8990 C   0  0  0  0  0  0  0  0  0  0  0  0
   -4.2560   15.7080  -33.7050 C   0  0  0  0  0  0  0  0  0  0  0  0
   -5.6310   15.5270  -33.5630 C   0  0  0  0  0  0  0  0  0  0  0  0
   -6.4910   16.6250  -33.6130 C   0  0  0  0  0  0  0  0  0  0  0  0
   -5.9820   17.9260  -33.7980 C   0  0  0  0  0  0  0  0  0  0  0  0
   -6.8600   19.0670  -33.8460 N   0  0  0  0  0  0  0  0  0  0  0  0
   -7.7830   19.6280  -32.4870 S   0  0  0  0  0  0  0  0  0  0  0  0
   -7.8170   18.5510  -31.4380 O   0  0  0  0  0  0  0  0  0  0  0  0
   -9.1870   19.9270  -32.9280 O   0  0  0  0  0  0  0  0  0  0  0  0
   -7.0680   21.1030  -31.8440 C   0  0  0  0  0  0  0  0  0  0  0  0
   -5.6910   21.3240  -31.9750 C   0  0  0  0  0  0  0  0  0  0  0  0
   -5.1120   22.4850  -31.4540 C   0  0  0  0  0  0  0  0  0  0  0  0
   -5.9050   23.4350  -30.7970 C   0  0  0  0  0  0  0  0  0  0  0  0
   -5.1710   24.9070  -30.1660 S   0  0  0  0  0  0  0  0  0  0  0  0
   -5.8190   26.1150  -30.7840 O   0  0  0  0  0  0  0  0  0  0  0  0
   -5.3860   24.9620  -28.6780 O   0  0  0  0  0  0  0  0  0  0  0  0
   -3.4660   24.9200  -30.4950 N   0  0  0  0  0  0  0  0  0  0  0  0
   -2.7680   24.0820  -29.5220 C   0  0  0  0  0  0  0  0  0  0  0  0
   -2.3650   24.9270  -28.3110 C   0  0  1  0  0  0  0  0  0  0  0  0
   -1.5770   24.1180  -27.2940 C   0  0  0  0  0  0  0  0  0  0  0  0
   -0.6810   25.1490  -26.6850 C   0  0  0  0  0  0  0  0  0  0  0  0
   -0.5280   26.1700  -27.7950 C   0  0  0  0  0  0  0  0  0  0  0  0
   -1.5810   26.0260  -28.7210 O   0  0  0  0  0  0  0  0  0  0  0  0
   -7.2850   23.2190  -30.6750 C   0  0  0  0  0  0  0  0  0  0  0  0
   -7.8640   22.0580  -31.1960 C   0  0  0  0  0  0  0  0  0  0  0  0
   -3.1330   19.8710  -32.3610 H   0  0  0  0  0  0  0  0  0  0  0  0
   -2.0638   19.3910  -33.7223 H   0  0  0  0  0  0  0  0  0  0  0  0
   -2.8469   21.0076  -33.7223 H   0  0  0  0  0  0  0  0  0  0  0  0
   -2.6495   17.1227  -34.0146 H   0  0  0  0  0  0  0  0  0  0  0  0
   -3.5809   14.8405  -33.6640 H   0  0  0  0  0  0  0  0  0  0  0  0
   -6.0389   14.5168  -33.4112 H   0  0  0  0  0  0  0  0  0  0  0  0
   -7.5754   16.4736  -33.5071 H   0  0  0  0  0  0  0  0  0  0  0  0
   -6.8860   19.6640  -34.7020 H   0  0  0  0  0  0  0  0  0  0  0  0
   -5.0632   20.5816  -32.4895 H   0  0  0  0  0  0  0  0  0  0  0  0
   -4.0301   22.6532  -31.5603 H   0  0  0  0  0  0  0  0  0  0  0  0
   -3.4329   23.2687  -29.1958 H   0  0  0  0  0  0  0  0  0  0  0  0
   -1.8662   23.6568  -29.9868 H   0  0  0  0  0  0  0  0  0  0  0  0
   -3.2944   25.2771  -27.8381 H   0  0  0  0  0  0  0  0  0  0  0  0
   -2.2417   23.6729  -26.5389 H   0  0  0  0  0  0  0  0  0  0  0  0
   -1.0332   23.2695  -27.7348 H   0  0  0  0  0  0  0  0  0  0  0  0
   -1.1450   25.5995  -25.7952 H   0  0  0  0  0  0  0  0  0  0  0  0
    0.2793   24.7381  -26.3400 H   0  0  0  0  0  0  0  0  0  0  0  0
   -0.5538   27.1828  -27.3664 H   0  0  0  0  0  0  0  0  0  0  0  0
    0.4322   26.0102  -28.3073 H   0  0  0  0  0  0  0  0  0  0  0  0
   -7.9141   23.9653  -30.1678 H   0  0  0  0  0  0  0  0  0  0  0  0
   -8.9471   21.8934  -31.0972 H   0  0  0  0  0  0  0  0  0  0  0  0
  1  2  1  0
  2  3  1  0
  3  4  2  0
  4  5  1  0
  5  6  2  0
  6  7  1  0
  7  8  2  0
  8  9  1  0
  9 10  1  0
 10 11  2  0
 10 12  2  0
 10 13  1  0
 13 14  2  0
 14 15  1  0
 15 16  2  0
 16 17  1  0
 17 18  2  0
 17 19  2  0
 17 20  1  0
 20 21  1  0
 21 22  1  0
 22 23  1  0
 23 24  1  0
 24 25  1  0
 25 26  1  0
 16 27  1  0
 27 28  2  0
  8  3  1  0
 28 13  1  0
 26 22  1  0
  1 29  1  0
  1 30  1  0
  1 31  1  0
  4 32  1  0
  5 33  1  0
  6 34  1  0
  7 35  1  0
  9 36  1  0
 14 37  1  0
 15 38  1  0
 21 39  1  0
 21 40  1  0
 22 41  1  1
 23 42  1  0
 23 43  1  0
 24 44  1  0
 24 45  1  0
 25 46  1  0
 25 47  1  0
 27 48  1  0
 28 49  1  0
M  CHG  1  20  -1
M  END
>  <UniqueID>  (45) 
41

>  <SMILES>  (45) 
COc1ccccc1NS(=O)(=O)c1ccc(S(=O)(=O)[N-]C[C@H]2CCCO2)cc1

>  <Energy>  (45) 
48.88851747615247

>  <Genealogy>  (45) 
COc1ccccc1NS(=O)(=O)c1ccc(S(=O)(=O)[N-]CC2CCCO2)cc1 (protonated)
COc1ccccc1NS(=O)(=O)c1ccc(S(=O)(=O)[N-]C[C@H]2CCCO2)cc1 (chirality)
COc1ccccc1NS(=O)(=O)c1ccc(S(=O)(=O)[N-]C[C@H]2CCCO2)cc1 (3D coordinates assigned)
COc1ccccc1NS(=O)(=O)c1ccc(S(=O)(=O)[N-]C[C@H]2CCCO2)cc1 (nonaromatic ring conformer: 48.88851747615247 kcal/mol)

>  <smiles>  (45) 
COc1ccccc1NS(=O)(=O)c1ccc(S(=O)(=O)NCC2CCCO2)cc1

>  <score_type>  (45) 
oracle

>  <origin>  (45) 
adgpu

>  <m_score__min__energy>  (45) 
-11.48

>  <m_primary>  (45) 
energy

$$$$
45:0
     RDKit          3D

 49 50  0  0  0  0  0  0  0  0999 V2000
   -2.7350   19.2200  -33.2720 C   0  0  0  0  0  0  0  0  0  0  0  0
   -2.3990   20.7010  -33.4370 C   0  0  0  0  0  0  0  0  0  0  0  0
   -2.4600   21.4430  -32.1100 C   0  0  0  0  0  0  0  0  0  0  0  0
   -1.3880   21.3290  -31.1860 C   0  0  0  0  0  0  0  0  0  0  0  0
   -0.1520   20.5210  -31.4710 C   0  0  0  0  0  0  0  0  0  0  0  0
   -1.4650   21.9440  -29.9800 N   0  0  0  0  0  0  0  0  0  0  0  0
   -2.5380   22.6690  -29.5910 C   0  0  0  0  0  0  0  0  0  0  0  0
   -2.4740   23.4930  -27.9950 S   0  0  0  0  0  0  0  0  0  0  0  0
   -1.2960   24.7570  -28.5640 C   0  0  0  0  0  0  0  0  0  0  0  0
   -3.6360   22.8110  -30.4530 C   0  0  0  0  0  0  0  0  0  0  0  0
   -4.7910   23.5590  -30.0470 N   0  0  0  0  0  0  0  0  0  0  0  0
   -4.9590   24.9630  -30.2620 C   0  0  0  0  0  0  0  0  0  0  0  0
   -6.1670   25.6510  -29.7240 C   0  0  0  0  0  0  0  0  0  0  0  0
   -4.0660   25.6330  -30.8450 O   0  0  0  0  0  0  0  0  0  0  0  0
   -3.5730   22.2630  -31.7560 C   0  0  0  0  0  0  0  0  0  0  0  0
   -4.7230   22.5470  -32.7190 C   0  0  0  0  0  0  0  0  0  0  0  0
   -5.9010   21.6300  -32.4770 C   0  0  0  0  0  0  0  0  0  0  0  0
   -5.8200   20.2650  -32.7990 C   0  0  0  0  0  0  0  0  0  0  0  0
   -6.9200   19.4190  -32.5980 C   0  0  0  0  0  0  0  0  0  0  0  0
   -6.8400   17.9770  -33.0090 C   0  0  0  0  0  0  0  0  0  0  0  0
   -8.1150   19.9460  -32.0860 C   0  0  0  0  0  0  0  0  0  0  0  0
   -8.1990   21.3000  -31.7320 C   0  0  0  0  0  0  0  0  0  0  0  0
   -9.4890   21.8680  -31.2210 C   0  0  0  0  0  0  0  0  0  0  0  0
   -7.0930   22.1390  -31.9340 C   0  0  0  0  0  0  0  0  0  0  0  0
   -2.7909   18.9738  -32.2014 H   0  0  0  0  0  0  0  0  0  0  0  0
   -3.7039   19.0086  -33.7479 H   0  0  0  0  0  0  0  0  0  0  0  0
   -1.9522   18.6112  -33.7479 H   0  0  0  0  0  0  0  0  0  0  0  0
   -1.3836   20.7923  -33.8502 H   0  0  0  0  0  0  0  0  0  0  0  0
   -3.1418   21.1478  -34.1142 H   0  0  0  0  0  0  0  0  0  0  0  0
    0.3138   20.2165  -30.5222 H   0  0  0  0  0  0  0  0  0  0  0  0
   -0.4243   19.6260  -32.0496 H   0  0  0  0  0  0  0  0  0  0  0  0
    0.5585   21.1295  -32.0496 H   0  0  0  0  0  0  0  0  0  0  0  0
   -0.8374   25.2491  -27.6936 H   0  0  0  0  0  0  0  0  0  0  0  0
   -0.5121   24.2808  -29.1712 H   0  0  0  0  0  0  0  0  0  0  0  0
   -1.8262   25.5055  -29.1712 H   0  0  0  0  0  0  0  0  0  0  0  0
   -6.1389   25.6350  -28.6245 H   0  0  0  0  0  0  0  0  0  0  0  0
   -6.1823   26.6933  -30.0753 H   0  0  0  0  0  0  0  0  0  0  0  0
   -7.0713   25.1324  -30.0753 H   0  0  0  0  0  0  0  0  0  0  0  0
   -5.0499   23.5887  -32.5851 H   0  0  0  0  0  0  0  0  0  0  0  0
   -4.3608   22.3735  -33.7430 H   0  0  0  0  0  0  0  0  0  0  0  0
   -4.8860   19.8565  -33.2122 H   0  0  0  0  0  0  0  0  0  0  0  0
   -6.8047   17.3414  -32.1119 H   0  0  0  0  0  0  0  0  0  0  0  0
   -7.7251   17.7168  -33.6081 H   0  0  0  0  0  0  0  0  0  0  0  0
   -5.9316   17.8163  -33.6081 H   0  0  0  0  0  0  0  0  0  0  0  0
   -8.9914   19.2930  -31.9615 H   0  0  0  0  0  0  0  0  0  0  0  0
   -9.4810   21.8645  -30.1210 H   0  0  0  0  0  0  0  0  0  0  0  0
   -9.6043   22.9001  -31.5835 H   0  0  0  0  0  0  0  0  0  0  0  0
  -10.3282   21.2561  -31.5835 H   0  0  0  0  0  0  0  0  0  0  0  0
   -7.1593   23.2036  -31.6653 H   0  0  0  0  0  0  0  0  0  0  0  0
  1  2  1  0
  2  3  1  0
  3  4  2  0
  4  5  1  0
  4  6  1  0
  6  7  2  0
  7  8  1  0
  8  9  1  0
  7 10  1  0
 10 11  1  0
 11 12  1  0
 12 13  1  0
 12 14  2  0
 10 15  2  0
 15 16  1  0
 16 17  1  0
 17 18  2  0
 18 19  1  0
 19 20  1  0
 19 21  2  0
 21 22  1  0
 22 23  1  0
 22 24  2  0
 15  3  1  0
 24 17  1  0
  1 25  1  0
  1 26  1  0
  1 27  1  0
  2 28  1  0
  2 29  1  0
  5 30  1  0
  5 31  1  0
  5 32  1  0
  9 33  1  0
  9 34  1  0
  9 35  1  0
 13 36  1  0
 13 37  1  0
 13 38  1  0
 16 39  1  0
 16 40  1  0
 18 41  1  0
 20 42  1  0
 20 43  1  0
 20 44  1  0
 21 45  1  0
 23 46  1  0
 23 47  1  0
 23 48  1  0
 24 49  1  0
M  CHG  1  11  -1
M  END
>  <UniqueID>  (46) 
42

>  <SMILES>  (46) 
CCc1c(C)nc(SC)c([N-]C(C)=O)c1Cc1cc(C)cc(C)c1

>  <Energy>  (46) 
49.932313620294636

>  <Genealogy>  (46) 
CCc1c(C)nc(SC)c([N-]C(C)=O)c1Cc1cc(C)cc(C)c1 (protonated)
CCc1c(C)nc(SC)c([N-]C(C)=O)c1Cc1cc(C)cc(C)c1 (3D coordinates assigned)
CCc1c(C)nc(SC)c([N-]C(C)=O)c1Cc1cc(C)cc(C)c1 (optimized conformer: 49.932313620294636 kcal/mol)

>  <smiles>  (46) 
CCc1c(C)nc(SC)c(NC(C)=O)c1Cc1cc(C)cc(C)c1

>  <score_type>  (46) 
oracle

>  <origin>  (46) 
adgpu

>  <m_score__min__energy>  (46) 
-9.6799999999999997

>  <m_primary>  (46) 
energy

$$$$
46:0
     RDKit          3D

 40 41  0  0  0  0  0  0  0  0999 V2000
   -0.2480   24.6930  -26.9580 C   0  0  0  0  0  0  0  0  0  0  0  0
   -1.4540   24.0150  -27.5420 C   0  0  0  0  0  0  0  0  0  0  0  0
   -1.9300   22.8190  -26.9870 C   0  0  0  0  0  0  0  0  0  0  0  0
   -3.0370   22.1760  -27.5440 C   0  0  0  0  0  0  0  0  0  0  0  0
   -3.6690   22.7130  -28.6650 C   0  0  0  0  0  0  0  0  0  0  0  0
   -3.1900   23.8970  -29.2540 C   0  0  0  0  0  0  0  0  0  0  0  0
   -3.8670   24.4580  -30.4460 C   0  0  0  0  0  0  0  0  0  0  0  0
   -4.2160   25.6680  -30.4460 O   0  0  0  0  0  0  0  0  0  0  0  0
   -4.1900   23.6500  -31.5850 N   0  0  0  0  0  0  0  0  0  0  0  0
   -5.3440   22.8080  -31.7030 C   0  0  0  0  0  0  0  0  0  0  0  0
   -5.4320   21.3700  -32.5680 S   0  0  0  0  0  0  0  0  0  0  0  0
   -7.0720   21.0870  -32.2960 C   0  0  0  0  0  0  0  0  0  0  0  0
   -7.8220   19.9260  -32.8380 C   0  0  0  0  0  0  0  0  0  0  0  0
   -9.0490   20.0520  -33.1050 O   0  0  0  0  0  0  0  0  0  0  0  0
   -7.1470   18.6790  -33.1350 N   0  0  0  0  0  0  0  0  0  0  0  0
   -6.5500   18.1330  -31.9080 C   0  0  0  0  0  0  0  0  0  0  0  0
   -6.1190   18.8720  -34.1720 C   0  0  0  0  0  0  0  0  0  0  0  0
   -7.5810   22.1460  -31.5220 C   0  0  0  0  0  0  0  0  0  0  0  0
   -9.0190   22.2460  -31.0910 C   0  0  0  0  0  0  0  0  0  0  0  0
   -6.6040   23.1180  -31.2100 C   0  0  0  0  0  0  0  0  0  0  0  0
   -6.8640   24.3190  -30.4570 C   0  0  0  0  0  0  0  0  0  0  0  0
   -7.0730   25.2830  -29.8520 N   0  0  0  0  0  0  0  0  0  0  0  0
   -2.0830   24.5500  -28.6810 C   0  0  0  0  0  0  0  0  0  0  0  0
   -1.5970   25.6880  -29.2440 F   0  0  0  0  0  0  0  0  0  0  0  0
   -0.3051   24.6609  -25.8600 H   0  0  0  0  0  0  0  0  0  0  0  0
    0.6624   24.1745  -27.2931 H   0  0  0  0  0  0  0  0  0  0  0  0
   -0.2179   25.7403  -27.2931 H   0  0  0  0  0  0  0  0  0  0  0  0
   -1.4292   22.3853  -26.1089 H   0  0  0  0  0  0  0  0  0  0  0  0
   -3.4117   21.2432  -27.0973 H   0  0  0  0  0  0  0  0  0  0  0  0
   -4.5479   22.2073  -29.0914 H   0  0  0  0  0  0  0  0  0  0  0  0
   -7.8320   17.9810  -33.5090 H   0  0  0  0  0  0  0  0  0  0  0  0
   -7.0400   18.5811  -31.0310 H   0  0  0  0  0  0  0  0  0  0  0  0
   -6.6877   17.0419  -31.8873 H   0  0  0  0  0  0  0  0  0  0  0  0
   -5.4755   18.3674  -31.8873 H   0  0  0  0  0  0  0  0  0  0  0  0
   -5.1455   19.0548  -33.6937 H   0  0  0  0  0  0  0  0  0  0  0  0
   -6.0562   17.9700  -34.7984 H   0  0  0  0  0  0  0  0  0  0  0  0
   -6.3876   19.7354  -34.7984 H   0  0  0  0  0  0  0  0  0  0  0  0
   -9.0731   22.2498  -29.9923 H   0  0  0  0  0  0  0  0  0  0  0  0
   -9.4553   23.1767  -31.4828 H   0  0  0  0  0  0  0  0  0  0  0  0
   -9.5800   21.3847  -31.4828 H   0  0  0  0  0  0  0  0  0  0  0  0
  1  2  1  0
  2  3  2  0
  3  4  1  0
  4  5  2  0
  5  6  1  0
  6  7  1  0
  7  8  2  0
  7  9  1  0
  9 10  1  0
 10 11  1  0
 11 12  1  0
 12 13  1  0
 13 14  2  0
 13 15  1  0
 15 16  1  0
 15 17  1  0
 12 18  2  0
 18 19  1  0
 18 20  1  0
 20 21  1  0
 21 22  3  0
  6 23  2  0
 23 24  1  0
 23  2  1  0
 20 10  2  0
  1 25  1  0
  1 26  1  0
  1 27  1  0
  3 28  1  0
  4 29  1  0
  5 30  1  0
 15 31  1  0
 16 32  1  0
 16 33  1  0
 16 34  1  0
 17 35  1  0
 17 36  1  0
 17 37  1  0
 19 38  1  0
 19 39  1  0
 19 40  1  0
M  CHG  2   9  -1  15   1
M  END
>  <UniqueID>  (47) 
43

>  <SMILES>  (47) 
Cc1cccc(C(=O)[N-]c2sc(C(=O)[NH+](C)C)c(C)c2C#N)c1F

>  <Energy>  (47) 
74.65268925699384

>  <Genealogy>  (47) 
Cc1cccc(C(=O)[N-]c2sc(C(=O)[NH+](C)C)c(C)c2C#N)c1F (protonated)
Cc1cccc(C(=O)[N-]c2sc(C(=O)[NH+](C)C)c(C)c2C#N)c1F (3D coordinates assigned)
Cc1cccc(C(=O)[N-]c2sc(C(=O)[NH+](C)C)c(C)c2C#N)c1F (optimized conformer: 74.65268925699384 kcal/mol)

>  <smiles>  (47) 
Cc1cccc(C(=O)Nc2sc(C(=O)N(C)C)c(C)c2C#N)c1F

>  <score_type>  (47) 
oracle

>  <origin>  (47) 
adgpu

>  <m_score__min__energy>  (47) 
-9.3399999999999999

>  <m_primary>  (47) 
energy

$$$$
47:0
     RDKit          3D

 48 50  0  0  0  0  0  0  0  0999 V2000
   -4.9047   18.1157  -35.2049 H   0  0  0  0  0  0  0  0  0  0  0  0
   -5.3660   17.9770  -34.2160 C   0  0  0  0  0  0  0  0  0  0  0  0
   -6.4900   18.7270  -33.8580 C   0  0  0  0  0  0  0  0  0  0  0  0
   -6.9145   19.4516  -34.5685 H   0  0  0  0  0  0  0  0  0  0  0  0
   -7.0780   18.5590  -32.5970 C   0  0  0  0  0  0  0  0  0  0  0  0
   -8.4860   19.5150  -32.1410 S   0  0  0  0  0  0  0  0  0  0  0  0
   -9.4920   18.6600  -31.4220 O   0  0  0  0  0  0  0  0  0  0  0  0
   -9.1170   20.0730  -33.3860 O   0  0  0  0  0  0  0  0  0  0  0  0
   -8.0160   20.8270  -31.1080 N   0  0  0  0  0  0  0  0  0  0  0  0
   -6.9230   21.5170  -31.2410 C   0  0  0  0  0  0  0  0  0  0  0  0
   -6.5100   22.7920  -30.2360 S   0  0  0  0  0  0  0  0  0  0  0  0
   -5.0590   23.0990  -31.0420 C   0  0  0  0  0  0  0  0  0  0  0  0
   -4.1320   24.1810  -30.6570 C   0  0  0  0  0  0  0  0  0  0  0  0
   -4.4860   25.3740  -30.8470 O   0  0  0  0  0  0  0  0  0  0  0  0
   -2.8480   23.9360  -30.0650 N   0  0  0  0  0  0  0  0  0  0  0  0
   -2.4100   22.7480  -29.3820 C   0  0  0  0  0  0  0  0  0  0  0  0
   -1.5560   21.7930  -29.9950 C   0  0  0  0  0  0  0  0  0  0  0  0
   -1.1630   21.8620  -31.4470 C   0  0  0  0  0  0  0  0  0  0  0  0
   -0.0824   22.0517  -31.5257 H   0  0  0  0  0  0  0  0  0  0  0  0
   -1.4045   20.9077  -31.9380 H   0  0  0  0  0  0  0  0  0  0  0  0
   -1.7151   22.6769  -31.9380 H   0  0  0  0  0  0  0  0  0  0  0  0
   -1.0790   20.7100  -29.2410 C   0  0  0  0  0  0  0  0  0  0  0  0
   -0.3637   20.0069  -29.6927 H   0  0  0  0  0  0  0  0  0  0  0  0
   -1.5020   20.5130  -27.9210 C   0  0  0  0  0  0  0  0  0  0  0  0
   -0.9590   19.3710  -27.1140 C   0  0  0  0  0  0  0  0  0  0  0  0
   -1.0659   19.5957  -26.0425 H   0  0  0  0  0  0  0  0  0  0  0  0
   -1.5176   18.4543  -27.3539 H   0  0  0  0  0  0  0  0  0  0  0  0
    0.1046   19.2256  -27.3539 H   0  0  0  0  0  0  0  0  0  0  0  0
   -2.4070   21.4100  -27.3460 C   0  0  0  0  0  0  0  0  0  0  0  0
   -2.7435   21.2550  -26.3103 H   0  0  0  0  0  0  0  0  0  0  0  0
   -2.8900   22.5050  -28.0760 C   0  0  0  0  0  0  0  0  0  0  0  0
   -3.8680   23.4490  -27.4270 C   0  0  0  0  0  0  0  0  0  0  0  0
   -3.7846   23.3685  -26.3331 H   0  0  0  0  0  0  0  0  0  0  0  0
   -3.6431   24.4802  -27.7370 H   0  0  0  0  0  0  0  0  0  0  0  0
   -4.8906   23.1877  -27.7370 H   0  0  0  0  0  0  0  0  0  0  0  0
   -4.9650   22.2070  -32.1220 C   0  0  0  0  0  0  0  0  0  0  0  0
   -3.8820   22.2280  -33.1560 C   0  0  0  0  0  0  0  0  0  0  0  0
   -2.9009   22.2470  -32.6590 H   0  0  0  0  0  0  0  0  0  0  0  0
   -3.9574   21.3282  -33.7843 H   0  0  0  0  0  0  0  0  0  0  0  0
   -3.9922   23.1242  -33.7843 H   0  0  0  0  0  0  0  0  0  0  0  0
   -5.9940   21.3190  -32.2060 N   0  0  0  0  0  0  0  0  0  0  0  0
   -6.0530   20.5910  -32.9510 H   0  0  0  0  0  0  0  0  0  0  0  0
   -6.5390   17.6260  -31.7020 C   0  0  0  0  0  0  0  0  0  0  0  0
   -7.0008   17.4839  -30.7138 H   0  0  0  0  0  0  0  0  0  0  0  0
   -5.4160   16.8750  -32.0610 C   0  0  0  0  0  0  0  0  0  0  0  0
   -4.9943   16.1450  -31.3544 H   0  0  0  0  0  0  0  0  0  0  0  0
   -4.8280   17.0510  -33.3180 C   0  0  0  0  0  0  0  0  0  0  0  0
   -3.4170   16.1100  -33.7680 Cl  0  0  0  0  0  0  0  0  0  0  0  0
  1  2  1  0
  2  3  2  0
  3  4  1  0
  3  5  1  0
  5  6  1  0
  6  7  2  0
  6  8  2  0
  6  9  1  0
  9 10  2  0
 10 11  1  0
 11 12  1  0
 12 13  1  0
 13 14  2  0
 13 15  1  0
 15 16  1  0
 16 17  2  0
 17 18  1  0
 18 19  1  0
 18 20  1  0
 18 21  1  0
 17 22  1  0
 22 23  1  0
 22 24  2  0
 24 25  1  0
 25 26  1  0
 25 27  1  0
 25 28  1  0
 24 29  1  0
 29 30  1  0
 29 31  2  0
 31 32  1  0
 32 33  1  0
 32 34  1  0
 32 35  1  0
 12 36  2  0
 36 37  1  0
 37 38  1  0
 37 39  1  0
 37 40  1  0
 36 41  1  0
 41 42  1  0
  5 43  2  0
 43 44  1  0
 43 45  1  0
 45 46  1  0
 45 47  2  0
 47 48  1  0
 47  2  1  0
 41 10  1  0
 31 16  1  0
M  CHG  1  15  -1
M  END
>  <UniqueID>  (48) 
44

>  <SMILES>  (48) 
Cc1cc(C)c([N-]C(=O)c2s/c(=N/S(=O)(=O)c3ccc(Cl)cc3)[nH]c2C)c(C)c1

>  <Energy>  (48) 
91.77034147888278

>  <Genealogy>  (48) 
Cc1cc(C)c([N-]C(=O)c2sc(=NS(=O)(=O)c3ccc(Cl)cc3)[nH]c2C)c(C)c1 (protonated)
Cc1cc(C)c([N-]C(=O)c2s/c(=N/S(=O)(=O)c3ccc(Cl)cc3)[nH]c2C)c(C)c1 (cis-trans isomerization)
Cc1cc(C)c([N-]C(=O)c2s/c(=N/S(=O)(=O)c3ccc(Cl)cc3)[nH]c2C)c(C)c1 (3D coordinates assigned)
Cc1cc(C)c([N-]C(=O)c2s/c(=N/S(=O)(=O)c3ccc(Cl)cc3)[nH]c2C)c(C)c1 (optimized conformer: 91.77034147888278 kcal/mol)

>  <smiles>  (48) 
Cc1cc(C)c(NC(=O)c2sc(=NS(=O)(=O)c3ccc(Cl)cc3)[nH]c2C)c(C)c1

>  <score_type>  (48) 
oracle

>  <origin>  (48) 
adgpu

>  <m_score__min__energy>  (48) 
-10.69

>  <m_primary>  (48) 
energy

$$$$
48:0
     RDKit          3D

 53 55  0  0  0  0  0  0  0  0999 V2000
   -6.4820   19.3700  -33.4580 C   0  0  0  0  0  0  0  0  0  0  0  0
   -6.6900   20.5690  -32.5710 C   0  0  0  0  0  0  0  0  0  0  0  0
   -5.7840   21.6390  -32.6360 C   0  0  0  0  0  0  0  0  0  0  0  0
   -5.9500   22.7600  -31.8240 C   0  0  0  0  0  0  0  0  0  0  0  0
   -7.0170   22.8390  -30.9280 C   0  0  0  0  0  0  0  0  0  0  0  0
   -7.1370   23.9990  -30.1440 O   0  0  0  0  0  0  0  0  0  0  0  0
   -6.3200   25.1660  -30.2640 C   0  0  0  0  0  0  0  0  0  0  0  0
   -4.9170   24.8960  -29.8090 C   0  0  0  0  0  0  0  0  0  0  0  0
   -3.9430   25.3120  -30.4960 O   0  0  0  0  0  0  0  0  0  0  0  0
   -4.6910   24.1060  -28.6360 N   0  0  0  0  0  0  0  0  0  0  0  0
   -3.4220   24.0420  -27.9660 C   0  0  0  0  0  0  0  0  0  0  0  0
   -3.1450   24.9070  -26.8910 C   0  0  0  0  0  0  0  0  0  0  0  0
   -1.9460   24.7950  -26.1850 C   0  0  0  0  0  0  0  0  0  0  0  0
   -1.0140   23.8170  -26.5390 C   0  0  0  0  0  0  0  0  0  0  0  0
   -1.2800   22.9450  -27.5980 C   0  0  0  0  0  0  0  0  0  0  0  0
   -2.4810   23.0470  -28.3170 C   0  0  0  0  0  0  0  0  0  0  0  0
   -2.7170   22.1630  -29.4270 N   0  0  0  0  0  0  0  0  0  0  0  0
   -2.7950   22.7080  -30.7860 C   0  0  0  0  0  0  0  0  0  0  0  0
   -2.5130   21.6140  -31.8270 C   0  0  0  0  0  0  0  0  0  0  0  0
   -1.3890   20.7420  -31.4170 N   0  0  0  0  0  0  0  0  0  0  0  0
   -0.1000   21.4530  -31.4730 C   0  0  0  0  0  0  0  0  0  0  0  0
   -1.5960   20.0730  -30.1050 C   0  0  0  0  0  0  0  0  0  0  0  0
   -2.6970   20.7120  -29.2370 C   0  0  0  0  0  0  0  0  0  0  0  0
   -7.9260   21.7680  -30.8470 C   0  0  0  0  0  0  0  0  0  0  0  0
   -7.7720   20.6330  -31.6620 C   0  0  0  0  0  0  0  0  0  0  0  0
   -8.7800   19.5160  -31.5730 C   0  0  0  0  0  0  0  0  0  0  0  0
   -6.3269   18.4762  -32.8359 H   0  0  0  0  0  0  0  0  0  0  0  0
   -7.3685   19.2255  -34.0930 H   0  0  0  0  0  0  0  0  0  0  0  0
   -5.5986   19.5325  -34.0930 H   0  0  0  0  0  0  0  0  0  0  0  0
   -4.9351   21.5927  -33.3341 H   0  0  0  0  0  0  0  0  0  0  0  0
   -5.2324   23.5910  -31.8903 H   0  0  0  0  0  0  0  0  0  0  0  0
   -6.3007   25.4835  -31.3170 H   0  0  0  0  0  0  0  0  0  0  0  0
   -6.7461   25.9559  -29.6280 H   0  0  0  0  0  0  0  0  0  0  0  0
   -5.4800   23.5240  -28.2690 H   0  0  0  0  0  0  0  0  0  0  0  0
   -3.8778   25.6760  -26.6054 H   0  0  0  0  0  0  0  0  0  0  0  0
   -1.7350   25.4779  -25.3488 H   0  0  0  0  0  0  0  0  0  0  0  0
   -0.0686   23.7329  -25.9830 H   0  0  0  0  0  0  0  0  0  0  0  0
   -0.5438   22.1741  -27.8697 H   0  0  0  0  0  0  0  0  0  0  0  0
   -3.8028   23.1154  -30.9543 H   0  0  0  0  0  0  0  0  0  0  0  0
   -2.0400   23.5008  -30.8929 H   0  0  0  0  0  0  0  0  0  0  0  0
   -3.4158   20.9975  -31.9492 H   0  0  0  0  0  0  0  0  0  0  0  0
   -2.2383   22.1043  -32.7726 H   0  0  0  0  0  0  0  0  0  0  0  0
    0.2553   21.6490  -30.4506 H   0  0  0  0  0  0  0  0  0  0  0  0
    0.6374   20.8340  -32.0051 H   0  0  0  0  0  0  0  0  0  0  0  0
   -0.2302   22.4069  -32.0051 H   0  0  0  0  0  0  0  0  0  0  0  0
   -1.8694   19.0241  -30.2920 H   0  0  0  0  0  0  0  0  0  0  0  0
   -0.6540   20.1748  -29.5462 H   0  0  0  0  0  0  0  0  0  0  0  0
   -3.6734   20.2951  -29.5248 H   0  0  0  0  0  0  0  0  0  0  0  0
   -2.4901   20.4930  -28.1791 H   0  0  0  0  0  0  0  0  0  0  0  0
   -8.7659   21.8194  -30.1385 H   0  0  0  0  0  0  0  0  0  0  0  0
   -8.9842   19.2897  -30.5161 H   0  0  0  0  0  0  0  0  0  0  0  0
   -9.7125   19.8232  -32.0690 H   0  0  0  0  0  0  0  0  0  0  0  0
   -8.3790   18.6198  -32.0690 H   0  0  0  0  0  0  0  0  0  0  0  0
  1  2  1  0
  2  3  2  0
  3  4  1  0
  4  5  2  0
  5  6  1  0
  6  7  1  0
  7  8  1  0
  8  9  2  0
  8 10  1  0
 10 11  1  0
 11 12  2  0
 12 13  1  0
 13 14  2  0
 14 15  1  0
 15 16  2  0
 16 17  1  0
 17 18  1  0
 18 19  1  0
 19 20  1  0
 20 21  1  0
 20 22  1  0
 22 23  1  0
  5 24  1  0
 24 25  2  0
 25 26  1  0
 25  2  1  0
 16 11  1  0
 23 17  1  0
  1 27  1  0
  1 28  1  0
  1 29  1  0
  3 30  1  0
  4 31  1  0
  7 32  1  0
  7 33  1  0
 10 34  1  0
 12 35  1  0
 13 36  1  0
 14 37  1  0
 15 38  1  0
 18 39  1  0
 18 40  1  0
 19 41  1  0
 19 42  1  0
 21 43  1  0
 21 44  1  0
 21 45  1  0
 22 46  1  0
 22 47  1  0
 23 48  1  0
 23 49  1  0
 24 50  1  0
 26 51  1  0
 26 52  1  0
 26 53  1  0
M  END
>  <UniqueID>  (49) 
45

>  <SMILES>  (49) 
Cc1ccc(OCC(=O)Nc2ccccc2N2CCN(C)CC2)cc1C

>  <Energy>  (49) 
68.80065053099727

>  <Genealogy>  (49) 
Cc1ccc(OCC(=O)Nc2ccccc2N2CCN(C)CC2)cc1C (3D coordinates assigned)
Cc1ccc(OCC(=O)Nc2ccccc2N2CCN(C)CC2)cc1C (nonaromatic ring conformer: 68.80065053099727 kcal/mol)

>  <smiles>  (49) 
Cc1ccc(OCC(=O)Nc2ccccc2N2CCN(C)CC2)cc1C

>  <score_type>  (49) 
oracle

>  <origin>  (49) 
adgpu

>  <m_score__min__energy>  (49) 
-8.6500000000000004

>  <m_primary>  (49) 
energy

$$$$
49:0
     RDKit          3D

 35 37  0  0  0  0  0  0  0  0999 V2000
   -4.1540   25.7350  -30.8230 O   0  0  0  0  0  0  0  0  0  0  0  0
   -4.5260   24.5950  -30.4390 C   0  0  0  0  0  0  0  0  0  0  0  0
   -5.6800   24.4640  -29.4980 C   0  0  0  0  0  0  0  0  0  0  0  0
   -6.9280   23.9180  -30.2010 C   0  0  0  0  0  0  0  0  0  0  0  0
   -6.6720   22.7900  -31.2330 C   0  0  1  0  0  0  0  0  0  0  0  0
   -5.7320   21.6680  -30.7270 C   0  0  1  0  0  0  0  0  0  0  0  0
   -5.7400   20.4720  -31.5890 N   0  0  0  0  0  0  0  0  0  0  0  0
   -6.6200   20.0200  -32.4450 C   0  0  0  0  0  0  0  0  0  0  0  0
   -6.3170   18.7360  -33.1420 C   0  0  0  0  0  0  0  0  0  0  0  0
   -5.5950   18.7070  -34.3540 C   0  0  0  0  0  0  0  0  0  0  0  0
   -5.3210   17.4940  -34.9910 C   0  0  0  0  0  0  0  0  0  0  0  0
   -5.7610   16.2920  -34.4330 C   0  0  0  0  0  0  0  0  0  0  0  0
   -6.4740   16.3010  -33.2340 C   0  0  0  0  0  0  0  0  0  0  0  0
   -6.7500   17.5110  -32.5910 C   0  0  0  0  0  0  0  0  0  0  0  0
   -7.8630   20.7910  -32.8240 C   0  0  0  0  0  0  0  0  0  0  0  0
   -8.2360   22.0660  -31.6630 S   0  0  0  0  0  0  0  0  0  0  0  0
   -9.1390   23.0880  -32.2930 O   0  0  0  0  0  0  0  0  0  0  0  0
   -8.9020   21.4750  -30.4520 O   0  0  0  0  0  0  0  0  0  0  0  0
   -4.2820   22.0980  -30.6000 C   0  0  0  0  0  0  0  0  0  0  0  0
   -3.4250   21.2340  -30.2700 O   0  0  0  0  0  0  0  0  0  0  0  0
   -3.8350   23.4280  -30.8950 N   0  0  0  0  0  0  0  0  0  0  0  0
   -5.4004   23.7779  -28.6849 H   0  0  0  0  0  0  0  0  0  0  0  0
   -5.9177   25.4642  -29.1068 H   0  0  0  0  0  0  0  0  0  0  0  0
   -7.6066   23.5244  -29.4299 H   0  0  0  0  0  0  0  0  0  0  0  0
   -7.3465   24.7603  -30.7714 H   0  0  0  0  0  0  0  0  0  0  0  0
   -6.1686   23.2540  -32.0940 H   0  0  0  0  0  0  0  0  0  0  0  0
   -6.1433   21.4323  -29.7344 H   0  0  0  0  0  0  0  0  0  0  0  0
   -5.2444   19.6486  -34.8017 H   0  0  0  0  0  0  0  0  0  0  0  0
   -4.7568   17.4859  -35.9352 H   0  0  0  0  0  0  0  0  0  0  0  0
   -5.5456   15.3390  -34.9383 H   0  0  0  0  0  0  0  0  0  0  0  0
   -6.8197   15.3541  -32.7938 H   0  0  0  0  0  0  0  0  0  0  0  0
   -7.3110   17.5084  -31.6448 H   0  0  0  0  0  0  0  0  0  0  0  0
   -7.7094   21.2466  -33.8134 H   0  0  0  0  0  0  0  0  0  0  0  0
   -8.7075   20.0862  -32.8346 H   0  0  0  0  0  0  0  0  0  0  0  0
   -2.8870   23.5510  -31.3190 H   0  0  0  0  0  0  0  0  0  0  0  0
  1  2  2  0
  2  3  1  0
  3  4  1  0
  4  5  1  0
  5  6  1  0
  6  7  1  0
  7  8  2  0
  8  9  1  0
  9 10  2  0
 10 11  1  0
 11 12  2  0
 12 13  1  0
 13 14  2  0
  8 15  1  0
 15 16  1  0
 16 17  2  0
 16 18  2  0
  6 19  1  0
 19 20  2  0
 19 21  1  0
 21  2  1  0
 16  5  1  0
 14  9  1  0
  3 22  1  0
  3 23  1  0
  4 24  1  0
  4 25  1  0
  5 26  1  6
  6 27  1  1
 10 28  1  0
 11 29  1  0
 12 30  1  0
 13 31  1  0
 14 32  1  0
 15 33  1  0
 15 34  1  0
 21 35  1  0
M  END
>  <UniqueID>  (50) 
46

>  <SMILES>  (50) 
O=C1CC[C@H]2[C@@H](N=C(c3ccccc3)CS2(=O)=O)C(=O)N1

>  <Energy>  (50) 
47.10298828567227

>  <Genealogy>  (50) 
O=C1CC[C@H]2[C@@H](N=C(c3ccccc3)CS2(=O)=O)C(=O)N1 (chirality)
O=C1CC[C@H]2[C@@H](N=C(c3ccccc3)CS2(=O)=O)C(=O)N1 (3D coordinates assigned)
O=C1CC[C@H]2[C@@H](N=C(c3ccccc3)CS2(=O)=O)C(=O)N1 (nonaromatic ring conformer: 47.10298828567227 kcal/mol)

>  <smiles>  (50) 
O=C1CCC2C(N=C(c3ccccc3)CS2(=O)=O)C(=O)N1

>  <score_type>  (50) 
oracle

>  <origin>  (50) 
adgpu

>  <m_score__min__energy>  (50) 
-7.5800000000000001

>  <m_primary>  (50) 
energy

$$$$
