0:0
     RDKit          3D

 33 35  0  0  0  0  0  0  0  0999 V2000
   -5.0210   26.8850  -30.2780 H   0  0  0  0  0  0  0  0  0  0  0  0
   -5.3340   26.0200  -30.7750 N   0  0  0  0  0  0  0  0  0  0  0  0
   -4.6840   24.9040  -30.6690 C   0  0  0  0  0  0  0  0  0  0  0  0
   -3.5690   24.8500  -29.8920 N   0  0  0  0  0  0  0  0  0  0  0  0
   -2.8420   23.7120  -29.7280 C   0  0  0  0  0  0  0  0  0  0  0  0
   -1.6400   23.7270  -28.8570 C   0  0  0  0  0  0  0  0  0  0  0  0
   -1.2420   22.5600  -28.1750 C   0  0  0  0  0  0  0  0  0  0  0  0
   -1.8172   21.6310  -28.3020 H   0  0  0  0  0  0  0  0  0  0  0  0
   -0.1230   22.5730  -27.3390 C   0  0  0  0  0  0  0  0  0  0  0  0
    0.1787   21.6556  -26.8124 H   0  0  0  0  0  0  0  0  0  0  0  0
    0.6130   23.7460  -27.1700 C   0  0  0  0  0  0  0  0  0  0  0  0
    1.4950   23.7525  -26.5127 H   0  0  0  0  0  0  0  0  0  0  0  0
    0.2290   24.9120  -27.8360 C   0  0  0  0  0  0  0  0  0  0  0  0
    0.8089   25.8367  -27.6990 H   0  0  0  0  0  0  0  0  0  0  0  0
   -0.8900   24.9100  -28.6770 C   0  0  0  0  0  0  0  0  0  0  0  0
   -1.2350   26.0830  -29.3400 O   0  0  0  0  0  0  0  0  0  0  0  0
   -3.2450   22.5430  -30.3920 C   0  0  0  0  0  0  0  0  0  0  0  0
   -2.6657   21.6158  -30.2708 H   0  0  0  0  0  0  0  0  0  0  0  0
   -4.3850   22.5540  -31.2100 C   0  0  0  0  0  0  0  0  0  0  0  0
   -4.7740   21.3050  -31.9080 C   0  0  0  0  0  0  0  0  0  0  0  0
   -6.0120   20.6920  -31.6440 C   0  0  0  0  0  0  0  0  0  0  0  0
   -6.6952   21.1350  -30.9044 H   0  0  0  0  0  0  0  0  0  0  0  0
   -6.3790   19.5220  -32.3170 C   0  0  0  0  0  0  0  0  0  0  0  0
   -7.3459   19.0443  -32.1006 H   0  0  0  0  0  0  0  0  0  0  0  0
   -5.5190   18.9590  -33.2640 C   0  0  0  0  0  0  0  0  0  0  0  0
   -5.8860   17.7970  -33.9320 O   0  0  0  0  0  0  0  0  0  0  0  0
   -4.2910   19.5680  -33.5420 C   0  0  0  0  0  0  0  0  0  0  0  0
   -3.6154   19.1262  -34.2893 H   0  0  0  0  0  0  0  0  0  0  0  0
   -3.9210   20.7380  -32.8710 C   0  0  0  0  0  0  0  0  0  0  0  0
   -2.9572   21.2172  -33.0980 H   0  0  0  0  0  0  0  0  0  0  0  0
   -5.1240   23.7510  -31.3450 C   0  0  0  0  0  0  0  0  0  0  0  0
   -6.3420   23.7910  -32.1280 C   0  0  0  0  0  0  0  0  0  0  0  0
   -7.3160   23.8230  -32.7530 N   0  0  0  0  0  0  0  0  0  0  0  0
  1  2  1  0
  2  3  2  0
  3  4  1  0
  4  5  1  0
  5  6  1  0
  6  7  2  0
  7  8  1  0
  7  9  1  0
  9 10  1  0
  9 11  2  0
 11 12  1  0
 11 13  1  0
 13 14  1  0
 13 15  2  0
 15 16  1  0
  5 17  2  0
 17 18  1  0
 17 19  1  0
 19 20  1  0
 20 21  2  0
 21 22  1  0
 21 23  1  0
 23 24  1  0
 23 25  2  0
 25 26  1  0
 25 27  1  0
 27 28  1  0
 27 29  2  0
 29 30  1  0
 19 31  2  0
 31 32  1  0
 32 33  3  0
 31  3  1  0
 15  6  1  0
 29 20  1  0
M  CHG  3   4  -1  16  -1  26  -1
M  END
>  <UniqueID>  (1) 
1

>  <SMILES>  (1) 
[H]/N=c1\[n-]c(-c2ccccc2[O-])cc(-c2ccc([O-])cc2)c1C#N

>  <Energy>  (1) 
50.17534334648309

>  <Genealogy>  (1) 
N#Cc1c(-c2ccc([O-])cc2)cc(-c2ccccc2[O-])[n-]c1=N (protonated)
[H]/N=c1\[n-]c(-c2ccccc2[O-])cc(-c2ccc([O-])cc2)c1C#N (cis-trans isomerization)
[H]/N=c1\[n-]c(-c2ccccc2[O-])cc(-c2ccc([O-])cc2)c1C#N (3D coordinates assigned)
[H]/N=c1\[n-]c(-c2ccccc2[O-])cc(-c2ccc([O-])cc2)c1C#N (optimized conformer: 50.17534334648309 kcal/mol)

>  <smiles>  (1) 
N#Cc1c(-c2ccc(O)cc2)cc(-c2ccccc2O)[nH]c1=N

>  <score_type>  (1) 
oracle

>  <origin>  (1) 
adgpu

>  <m_score__min__energy>  (1) 
-12.25

>  <m_primary>  (1) 
energy

$$$$
1:0
     RDKit          3D

 73 76  0  0  0  0  0  0  0  0999 V2000
    3.0970   16.5820  -25.9740 C   0  0  0  0  0  0  0  0  0  0  0  0
    2.4300   17.1410  -27.1960 C   0  0  0  0  0  0  0  0  0  0  0  0
    2.9720   18.2760  -27.8320 C   0  0  0  0  0  0  0  0  0  0  0  0
    2.3480   18.8150  -28.9600 C   0  0  0  0  0  0  0  0  0  0  0  0
    1.1640   18.2390  -29.4540 C   0  0  0  0  0  0  0  0  0  0  0  0
    0.4090   18.8740  -30.9200 S   0  0  0  0  0  0  0  0  0  0  0  0
   -0.4050   17.7760  -31.5390 O   0  0  0  0  0  0  0  0  0  0  0  0
    1.4980   19.2730  -31.8760 O   0  0  0  0  0  0  0  0  0  0  0  0
   -0.5950   20.3000  -30.5700 C   0  0  0  0  0  0  0  0  0  0  0  0
   -0.7890   20.6650  -29.2260 C   0  0  0  0  0  0  0  0  0  0  0  0
   -1.4980   21.8190  -28.8970 C   0  0  0  0  0  0  0  0  0  0  0  0
   -2.0090   22.6250  -29.9130 C   0  0  0  0  0  0  0  0  0  0  0  0
   -2.8680   24.1080  -29.5230 S   0  0  0  0  0  0  0  0  0  0  0  0
   -4.0170   23.7900  -28.2080 C   0  0  0  0  0  0  0  0  0  0  0  0
   -3.6160   24.6110  -30.7300 O   0  0  0  0  0  0  0  0  0  0  0  0
   -1.8800   25.1560  -29.0890 O   0  0  0  0  0  0  0  0  0  0  0  0
   -1.8370   22.2620  -31.2080 N   0  0  0  0  0  0  0  0  0  0  0  0
   -1.1550   21.1390  -31.5790 C   0  0  0  0  0  0  0  0  0  0  0  0
   -1.0630   20.8070  -33.3170 S   0  0  0  0  0  0  0  0  0  0  0  0
   -0.2890   21.9210  -33.9760 O   0  0  0  0  0  0  0  0  0  0  0  0
   -0.3530   19.5100  -33.5960 O   0  0  0  0  0  0  0  0  0  0  0  0
   -2.6970   20.7720  -34.0360 C   0  0  0  0  0  0  0  0  0  0  0  0
   -3.2960   19.4090  -33.8850 C   0  0  0  0  0  0  0  0  0  0  0  0
   -2.6020   18.2120  -33.8560 C   0  0  0  0  0  0  0  0  0  0  0  0
   -3.5600   17.2270  -33.7280 C   0  0  0  0  0  0  0  0  0  0  0  0
   -4.7730   17.8910  -33.6960 C   0  0  0  0  0  0  0  0  0  0  0  0
   -6.1190   17.2570  -33.5610 C   0  0  0  0  0  0  0  0  0  0  0  0
   -7.1460   18.2970  -33.4720 N   0  0  0  0  0  0  0  0  0  0  0  0
   -7.3790   18.7410  -31.8030 S   0  0  0  0  0  0  0  0  0  0  0  0
   -8.7690   18.3460  -31.3830 O   0  0  0  0  0  0  0  0  0  0  0  0
   -6.4120   17.9680  -30.9490 O   0  0  0  0  0  0  0  0  0  0  0  0
   -7.0660   20.4990  -31.6140 C   0  0  0  0  0  0  0  0  0  0  0  0
   -8.1570   21.4150  -31.7090 C   0  0  0  0  0  0  0  0  0  0  0  0
   -9.5560   20.9670  -32.0610 C   0  0  0  0  0  0  0  0  0  0  0  0
   -7.9490   22.7790  -31.4680 C   0  0  0  0  0  0  0  0  0  0  0  0
   -6.6840   23.2630  -31.1300 C   0  0  0  0  0  0  0  0  0  0  0  0
   -6.4780   24.7250  -30.8380 C   0  0  0  0  0  0  0  0  0  0  0  0
   -5.6030   22.3780  -31.0610 C   0  0  0  0  0  0  0  0  0  0  0  0
   -5.7750   20.9990  -31.2730 C   0  0  0  0  0  0  0  0  0  0  0  0
   -4.5640   20.1100  -31.1140 C   0  0  0  0  0  0  0  0  0  0  0  0
   -4.5850   19.1870  -33.7850 O   0  0  0  0  0  0  0  0  0  0  0  0
    0.6090   17.1170  -28.8070 C   0  0  0  0  0  0  0  0  0  0  0  0
    1.2360   16.5730  -27.6810 C   0  0  0  0  0  0  0  0  0  0  0  0
    2.6126   16.9880  -25.0737 H   0  0  0  0  0  0  0  0  0  0  0  0
    3.0068   15.4857  -25.9761 H   0  0  0  0  0  0  0  0  0  0  0  0
    4.1607   16.8624  -25.9761 H   0  0  0  0  0  0  0  0  0  0  0  0
    3.8892   18.7390  -27.4391 H   0  0  0  0  0  0  0  0  0  0  0  0
    2.7836   19.6913  -29.4624 H   0  0  0  0  0  0  0  0  0  0  0  0
   -0.3768   20.0330  -28.4256 H   0  0  0  0  0  0  0  0  0  0  0  0
   -1.6532   22.0919  -27.8427 H   0  0  0  0  0  0  0  0  0  0  0  0
   -3.5139   23.9293  -27.2398 H   0  0  0  0  0  0  0  0  0  0  0  0
   -4.8642   24.4874  -28.2846 H   0  0  0  0  0  0  0  0  0  0  0  0
   -4.3850   22.7562  -28.2846 H   0  0  0  0  0  0  0  0  0  0  0  0
   -3.3350   21.5084  -33.5255 H   0  0  0  0  0  0  0  0  0  0  0  0
   -2.6250   21.0172  -35.1059 H   0  0  0  0  0  0  0  0  0  0  0  0
   -1.5126   18.0743  -33.9214 H   0  0  0  0  0  0  0  0  0  0  0  0
   -3.3938   16.1415  -33.6647 H   0  0  0  0  0  0  0  0  0  0  0  0
   -6.3148   16.6235  -34.4387 H   0  0  0  0  0  0  0  0  0  0  0  0
   -6.1428   16.6416  -32.6496 H   0  0  0  0  0  0  0  0  0  0  0  0
   -6.7990   19.1500  -33.9670 H   0  0  0  0  0  0  0  0  0  0  0  0
  -10.1257   20.7846  -31.1379 H   0  0  0  0  0  0  0  0  0  0  0  0
  -10.0544   21.7505  -32.6507 H   0  0  0  0  0  0  0  0  0  0  0  0
   -9.5066   20.0397  -32.6507 H   0  0  0  0  0  0  0  0  0  0  0  0
   -8.7943   23.4786  -31.5462 H   0  0  0  0  0  0  0  0  0  0  0  0
   -6.4559   24.8819  -29.7495 H   0  0  0  0  0  0  0  0  0  0  0  0
   -5.5244   25.0555  -31.2756 H   0  0  0  0  0  0  0  0  0  0  0  0
   -7.3031   25.3061  -31.2756 H   0  0  0  0  0  0  0  0  0  0  0  0
   -4.5994   22.7684  -30.8366 H   0  0  0  0  0  0  0  0  0  0  0  0
   -4.3581   19.9588  -30.0441 H   0  0  0  0  0  0  0  0  0  0  0  0
   -4.7576   19.1379  -31.5911 H   0  0  0  0  0  0  0  0  0  0  0  0
   -3.6946   20.5859  -31.5911 H   0  0  0  0  0  0  0  0  0  0  0  0
   -0.3198   16.6677  -29.1884 H   0  0  0  0  0  0  0  0  0  0  0  0
    0.7963   15.7013  -27.1742 H   0  0  0  0  0  0  0  0  0  0  0  0
  1  2  1  0
  2  3  2  0
  3  4  1  0
  4  5  2  0
  5  6  1  0
  6  7  2  0
  6  8  2  0
  6  9  1  0
  9 10  2  0
 10 11  1  0
 11 12  2  0
 12 13  1  0
 13 14  1  0
 13 15  2  0
 13 16  2  0
 12 17  1  0
 17 18  2  0
 18 19  1  0
 19 20  2  0
 19 21  2  0
 19 22  1  0
 22 23  1  0
 23 24  2  0
 24 25  1  0
 25 26  2  0
 26 27  1  0
 27 28  1  0
 28 29  1  0
 29 30  2  0
 29 31  2  0
 29 32  1  0
 32 33  2  0
 33 34  1  0
 33 35  1  0
 35 36  2  0
 36 37  1  0
 36 38  1  0
 38 39  2  0
 39 40  1  0
 26 41  1  0
  5 42  1  0
 42 43  2  0
 43  2  1  0
 18  9  1  0
 41 23  1  0
 39 32  1  0
  1 44  1  0
  1 45  1  0
  1 46  1  0
  3 47  1  0
  4 48  1  0
 10 49  1  0
 11 50  1  0
 14 51  1  0
 14 52  1  0
 14 53  1  0
 22 54  1  0
 22 55  1  0
 24 56  1  0
 25 57  1  0
 27 58  1  0
 27 59  1  0
 28 60  1  0
 34 61  1  0
 34 62  1  0
 34 63  1  0
 35 64  1  0
 37 65  1  0
 37 66  1  0
 37 67  1  0
 38 68  1  0
 40 69  1  0
 40 70  1  0
 40 71  1  0
 42 72  1  0
 43 73  1  0
M  END
>  <UniqueID>  (2) 
2

>  <SMILES>  (2) 
Cc1ccc(S(=O)(=O)c2ccc(S(C)(=O)=O)nc2S(=O)(=O)Cc2ccc(CNS(=O)(=O)c3c(C)cc(C)cc3C)o2)cc1

>  <Energy>  (2) 
96.83127699984664

>  <Genealogy>  (2) 
Cc1ccc(S(=O)(=O)c2ccc(S(C)(=O)=O)nc2S(=O)(=O)Cc2ccc(CNS(=O)(=O)c3c(C)cc(C)cc3C)o2)cc1 (3D coordinates assigned)
Cc1ccc(S(=O)(=O)c2ccc(S(C)(=O)=O)nc2S(=O)(=O)Cc2ccc(CNS(=O)(=O)c3c(C)cc(C)cc3C)o2)cc1 (optimized conformer: 96.83127699984664 kcal/mol)

>  <smiles>  (2) 
Cc1ccc(S(=O)(=O)c2ccc(S(C)(=O)=O)nc2S(=O)(=O)Cc2ccc(CNS(=O)(=O)c3c(C)cc(C)cc3C)o2)cc1

>  <score_type>  (2) 
oracle

>  <origin>  (2) 
adgpu

>  <m_score__min__energy>  (2) 
-12.279999999999999

>  <m_primary>  (2) 
energy

$$$$
2:0
     RDKit          3D

 41 43  0  0  0  0  0  0  0  0999 V2000
   -9.6830   17.3440  -30.8850 H   0  0  0  0  0  0  0  0  0  0  0  0
   -9.3960   18.2990  -31.2030 N   0  0  0  0  0  0  0  0  0  0  0  0
   -8.2490   18.5290  -31.7590 C   0  0  0  0  0  0  0  0  0  0  0  0
   -7.9400   19.7950  -32.1480 N   0  0  0  0  0  0  0  0  0  0  0  0
   -6.7570   20.1040  -32.7440 C   0  0  0  0  0  0  0  0  0  0  0  0
   -6.5190   21.4360  -33.1110 O   0  0  0  0  0  0  0  0  0  0  0  0
   -5.7950   22.3600  -32.3420 C   0  0  0  0  0  0  0  0  0  0  0  0
   -4.4090   22.2010  -32.2330 C   0  0  0  0  0  0  0  0  0  0  0  0
   -3.9117   21.3696  -32.7540 H   0  0  0  0  0  0  0  0  0  0  0  0
   -3.6530   23.0910  -31.4670 C   0  0  0  0  0  0  0  0  0  0  0  0
   -2.5656   22.9503  -31.3792 H   0  0  0  0  0  0  0  0  0  0  0  0
   -4.2740   24.1650  -30.8080 C   0  0  0  0  0  0  0  0  0  0  0  0
   -3.5220   25.0910  -30.0080 N   0  0  0  0  0  0  0  0  0  0  0  0
   -2.3660   24.7750  -29.2220 C   0  0  0  0  0  0  0  0  0  0  0  0
   -2.2020   23.5930  -28.8240 O   0  0  0  0  0  0  0  0  0  0  0  0
   -1.3920   25.7680  -28.8740 N   0  0  0  0  0  0  0  0  0  0  0  0
   -1.2080   26.3380  -27.5700 C   0  0  0  0  0  0  0  0  0  0  0  0
   -0.5010   27.5430  -27.4570 C   0  0  0  0  0  0  0  0  0  0  0  0
   -0.0876   28.0191  -28.3584 H   0  0  0  0  0  0  0  0  0  0  0  0
   -0.3160   28.1470  -26.2050 C   0  0  0  0  0  0  0  0  0  0  0  0
    0.4510   29.4310  -26.0900 C   0  0  0  0  0  0  0  0  0  0  0  0
    0.5977   29.6766  -25.0279 H   0  0  0  0  0  0  0  0  0  0  0  0
    1.4299   29.3184  -26.5789 H   0  0  0  0  0  0  0  0  0  0  0  0
   -0.1122   30.2396  -26.5789 H   0  0  0  0  0  0  0  0  0  0  0  0
   -0.7970   27.5070  -25.0530 C   0  0  0  0  0  0  0  0  0  0  0  0
   -0.6358   27.9626  -24.0648 H   0  0  0  0  0  0  0  0  0  0  0  0
   -1.4800   26.2930  -25.1570 C   0  0  0  0  0  0  0  0  0  0  0  0
   -1.8596   25.7986  -24.2506 H   0  0  0  0  0  0  0  0  0  0  0  0
   -1.6830   25.7040  -26.4080 C   0  0  0  0  0  0  0  0  0  0  0  0
   -2.3030   24.4990  -26.4730 F   0  0  0  0  0  0  0  0  0  0  0  0
   -5.6650   24.3060  -30.8880 C   0  0  0  0  0  0  0  0  0  0  0  0
   -6.2860   25.3200  -30.2330 F   0  0  0  0  0  0  0  0  0  0  0  0
   -6.4230   23.4130  -31.6510 C   0  0  0  0  0  0  0  0  0  0  0  0
   -7.5147   23.5338  -31.7115 H   0  0  0  0  0  0  0  0  0  0  0  0
   -5.7940   19.0930  -32.9430 C   0  0  0  0  0  0  0  0  0  0  0  0
   -4.4920   19.3870  -33.4850 C   0  0  0  0  0  0  0  0  0  0  0  0
   -3.4450   19.6220  -33.9190 N   0  0  0  0  0  0  0  0  0  0  0  0
   -6.0950   17.7830  -32.5540 C   0  0  0  0  0  0  0  0  0  0  0  0
   -5.3605   16.9798  -32.7132 H   0  0  0  0  0  0  0  0  0  0  0  0
   -7.3270   17.4950  -31.9640 C   0  0  0  0  0  0  0  0  0  0  0  0
   -7.5713   16.4656  -31.6630 H   0  0  0  0  0  0  0  0  0  0  0  0
  1  2  1  0
  2  3  2  0
  3  4  1  0
  4  5  1  0
  5  6  1  0
  6  7  1  0
  7  8  2  0
  8  9  1  0
  8 10  1  0
 10 11  1  0
 10 12  2  0
 12 13  1  0
 13 14  1  0
 14 15  2  0
 14 16  1  0
 16 17  1  0
 17 18  2  0
 18 19  1  0
 18 20  1  0
 20 21  1  0
 21 22  1  0
 21 23  1  0
 21 24  1  0
 20 25  2  0
 25 26  1  0
 25 27  1  0
 27 28  1  0
 27 29  2  0
 29 30  1  0
 12 31  1  0
 31 32  1  0
 31 33  2  0
 33 34  1  0
  5 35  2  0
 35 36  1  0
 36 37  3  0
 35 38  1  0
 38 39  1  0
 38 40  2  0
 40 41  1  0
 40  3  1  0
 33  7  1  0
 29 17  1  0
M  CHG  3   4  -1  13  -1  16  -1
M  END
>  <UniqueID>  (3) 
3

>  <SMILES>  (3) 
[H]/N=c1\ccc(C#N)c(Oc2ccc([N-]C(=O)[N-]c3cc(C)ccc3F)c(F)c2)[n-]1

>  <Energy>  (3) 
59.26701684674557

>  <Genealogy>  (3) 
Cc1ccc(F)c([N-]C(=O)[N-]c2ccc(Oc3[n-]c(=N)ccc3C#N)cc2F)c1 (protonated)
[H]/N=c1\ccc(C#N)c(Oc2ccc([N-]C(=O)[N-]c3cc(C)ccc3F)c(F)c2)[n-]1 (cis-trans isomerization)
[H]/N=c1\ccc(C#N)c(Oc2ccc([N-]C(=O)[N-]c3cc(C)ccc3F)c(F)c2)[n-]1 (3D coordinates assigned)
[H]/N=c1\ccc(C#N)c(Oc2ccc([N-]C(=O)[N-]c3cc(C)ccc3F)c(F)c2)[n-]1 (optimized conformer: 59.26701684674557 kcal/mol)

>  <smiles>  (3) 
Cc1ccc(F)c(NC(=O)Nc2ccc(Oc3[nH]c(=N)ccc3C#N)cc2F)c1

>  <score_type>  (3) 
oracle

>  <origin>  (3) 
adgpu

>  <m_score__min__energy>  (3) 
-11.69

>  <m_primary>  (3) 
energy

$$$$
3:0
     RDKit          3D

 41 43  0  0  0  0  0  0  0  0999 V2000
   -6.1440   15.9160  -33.8560 C   0  0  0  0  0  0  0  0  0  0  0  0
   -5.7430   17.2390  -34.4950 C   0  0  0  0  0  0  0  0  0  0  0  0
   -6.4220   18.3810  -33.8060 C   0  0  0  0  0  0  0  0  0  0  0  0
   -7.0640   18.3360  -32.5840 C   0  0  0  0  0  0  0  0  0  0  0  0
   -7.4720   19.6380  -32.4090 C   0  0  0  0  0  0  0  0  0  0  0  0
   -8.1140   20.0790  -31.3710 N   0  0  0  0  0  0  0  0  0  0  0  0
   -8.5700   21.7400  -31.1770 S   0  0  0  0  0  0  0  0  0  0  0  0
   -9.4340   22.1680  -32.3290 O   0  0  0  0  0  0  0  0  0  0  0  0
   -9.3570   21.8930  -29.9050 O   0  0  0  0  0  0  0  0  0  0  0  0
   -7.1190   22.7330  -31.0850 C   0  0  0  0  0  0  0  0  0  0  0  0
   -7.1590   23.9750  -30.4400 C   0  0  0  0  0  0  0  0  0  0  0  0
   -5.9870   24.7190  -30.2710 C   0  0  0  0  0  0  0  0  0  0  0  0
   -4.7610   24.2140  -30.7210 C   0  0  0  0  0  0  0  0  0  0  0  0
   -3.5610   24.9570  -30.4650 N   0  0  0  0  0  0  0  0  0  0  0  0
   -2.5860   24.6290  -29.4650 C   0  0  0  0  0  0  0  0  0  0  0  0
   -1.9010   25.5570  -28.9600 O   0  0  0  0  0  0  0  0  0  0  0  0
   -2.3960   23.2380  -28.9830 C   0  0  0  0  0  0  0  0  0  0  0  0
   -3.2700   22.6990  -28.0220 C   0  0  0  0  0  0  0  0  0  0  0  0
   -3.0860   21.3940  -27.5540 C   0  0  0  0  0  0  0  0  0  0  0  0
   -2.0370   20.6120  -28.0470 C   0  0  0  0  0  0  0  0  0  0  0  0
   -1.1750   21.1330  -29.0150 C   0  0  0  0  0  0  0  0  0  0  0  0
   -1.3560   22.4360  -29.4880 C   0  0  0  0  0  0  0  0  0  0  0  0
   -4.7290   22.9880  -31.4070 C   0  0  0  0  0  0  0  0  0  0  0  0
   -5.9010   22.2510  -31.5850 C   0  0  0  0  0  0  0  0  0  0  0  0
   -7.0980   20.4000  -33.4560 N   0  0  0  0  0  0  0  0  0  0  0  0
   -6.4680   19.6080  -34.2740 O   0  0  0  0  0  0  0  0  0  0  0  0
   -6.1143   16.0139  -32.7608 H   0  0  0  0  0  0  0  0  0  0  0  0
   -7.1632   15.6498  -34.1728 H   0  0  0  0  0  0  0  0  0  0  0  0
   -5.4441   15.1287  -34.1728 H   0  0  0  0  0  0  0  0  0  0  0  0
   -4.6531   17.3642  -34.4147 H   0  0  0  0  0  0  0  0  0  0  0  0
   -6.0468   17.2300  -35.5522 H   0  0  0  0  0  0  0  0  0  0  0  0
   -7.2121   17.4740  -31.9170 H   0  0  0  0  0  0  0  0  0  0  0  0
   -8.1158   24.3670  -30.0648 H   0  0  0  0  0  0  0  0  0  0  0  0
   -6.0284   25.7040  -29.7830 H   0  0  0  0  0  0  0  0  0  0  0  0
   -4.1021   23.3066  -27.6367 H   0  0  0  0  0  0  0  0  0  0  0  0
   -3.7683   20.9817  -26.7961 H   0  0  0  0  0  0  0  0  0  0  0  0
   -1.8907   19.5879  -27.6731 H   0  0  0  0  0  0  0  0  0  0  0  0
   -0.3520   20.5166  -29.4059 H   0  0  0  0  0  0  0  0  0  0  0  0
   -0.6816   22.8365  -30.2593 H   0  0  0  0  0  0  0  0  0  0  0  0
   -3.7768   22.6077  -31.8052 H   0  0  0  0  0  0  0  0  0  0  0  0
   -5.8689   21.2897  -32.1188 H   0  0  0  0  0  0  0  0  0  0  0  0
  1  2  1  0
  2  3  1  0
  3  4  2  0
  4  5  1  0
  5  6  2  3
  6  7  1  0
  7  8  2  0
  7  9  2  0
  7 10  1  0
 10 11  2  0
 11 12  1  0
 12 13  2  0
 13 14  1  0
 14 15  1  0
 15 16  2  0
 15 17  1  0
 17 18  2  0
 18 19  1  0
 19 20  2  0
 20 21  1  0
 21 22  2  0
 13 23  1  0
 23 24  2  0
  5 25  1  0
 25 26  1  0
 26  3  1  0
 24 10  1  0
 22 17  1  0
  1 27  1  0
  1 28  1  0
  1 29  1  0
  2 30  1  0
  2 31  1  0
  4 32  1  0
 11 33  1  0
 12 34  1  0
 18 35  1  0
 19 36  1  0
 20 37  1  0
 21 38  1  0
 22 39  1  0
 23 40  1  0
 24 41  1  0
M  CHG  2  14  -1  25  -1
M  END
>  <UniqueID>  (4) 
4

>  <SMILES>  (4) 
CCc1cc(=NS(=O)(=O)c2ccc([N-]C(=O)c3ccccc3)cc2)[n-]o1

>  <Energy>  (4) 
79.56782330061512

>  <Genealogy>  (4) 
CCc1cc(=NS(=O)(=O)c2ccc([N-]C(=O)c3ccccc3)cc2)[n-]o1 (protonated)
CCc1cc(=NS(=O)(=O)c2ccc([N-]C(=O)c3ccccc3)cc2)[n-]o1 (3D coordinates assigned)
CCc1cc(=NS(=O)(=O)c2ccc([N-]C(=O)c3ccccc3)cc2)[n-]o1 (optimized conformer: 79.56782330061512 kcal/mol)

>  <smiles>  (4) 
CCc1cc(=NS(=O)(=O)c2ccc(NC(=O)c3ccccc3)cc2)[nH]o1

>  <score_type>  (4) 
oracle

>  <origin>  (4) 
adgpu

>  <m_score__min__energy>  (4) 
-11.23

>  <m_primary>  (4) 
energy

$$$$
4:0
     RDKit          3D

 46 50  0  0  0  0  0  0  0  0999 V2000
   -5.2580   19.6410  -33.4210 O   0  0  0  0  0  0  0  0  0  0  0  0
   -5.4160   20.7110  -32.7710 C   0  0  0  0  0  0  0  0  0  0  0  0
   -4.2760   21.5240  -32.4460 N   0  0  0  0  0  0  0  0  0  0  0  0
   -2.9250   21.1130  -32.7120 C   0  0  0  0  0  0  0  0  0  0  0  0
   -2.6530   20.3310  -33.8470 C   0  0  0  0  0  0  0  0  0  0  0  0
   -1.3410   19.9890  -34.1770 C   0  0  0  0  0  0  0  0  0  0  0  0
   -0.2840   20.4370  -33.3860 C   0  0  0  0  0  0  0  0  0  0  0  0
   -0.5360   21.2210  -32.2580 C   0  0  0  0  0  0  0  0  0  0  0  0
   -1.8530   21.5650  -31.9000 C   0  0  0  0  0  0  0  0  0  0  0  0
   -2.0780   22.3540  -30.6640 C   0  0  0  0  0  0  0  0  0  0  0  0
   -1.0580   22.8720  -29.9260 N   0  0  0  0  0  0  0  0  0  0  0  0
   -1.6980   23.4730  -28.9140 C   0  0  0  0  0  0  0  0  0  0  0  0
   -1.1410   24.1740  -27.8490 C   0  0  0  0  0  0  0  0  0  0  0  0
   -2.0160   24.7260  -26.8800 C   0  0  0  0  0  0  0  0  0  0  0  0
   -1.4900   25.4620  -25.7570 N   0  0  0  0  0  0  0  0  0  0  0  0
   -0.8380   24.9480  -24.6920 C   0  0  0  0  0  0  0  0  0  0  0  0
   -0.4870   25.9580  -23.8220 C   0  0  0  0  0  0  0  0  0  0  0  0
   -0.9450   27.1350  -24.3770 C   0  0  0  0  0  0  0  0  0  0  0  0
   -1.5570   26.7980  -25.5670 C   0  0  0  0  0  0  0  0  0  0  0  0
   -3.4200   24.5470  -27.0320 C   0  0  0  0  0  0  0  0  0  0  0  0
   -3.9420   23.8290  -28.1250 C   0  0  0  0  0  0  0  0  0  0  0  0
   -3.0400   23.3080  -29.0450 C   0  0  0  0  0  0  0  0  0  0  0  0
   -3.3120   22.5950  -30.1460 N   0  0  0  0  0  0  0  0  0  0  0  0
   -6.7820   21.1050  -32.3490 C   0  0  0  0  0  0  0  0  0  0  0  0
   -7.0430   22.4370  -31.9750 C   0  0  0  0  0  0  0  0  0  0  0  0
   -8.3280   22.8250  -31.5850 C   0  0  0  0  0  0  0  0  0  0  0  0
   -9.3680   21.8920  -31.5710 C   0  0  0  0  0  0  0  0  0  0  0  0
   -9.1240   20.5700  -31.9530 C   0  0  0  0  0  0  0  0  0  0  0  0
   -7.8410   20.1770  -32.3430 C   0  0  0  0  0  0  0  0  0  0  0  0
   -4.4150   22.4470  -31.9790 H   0  0  0  0  0  0  0  0  0  0  0  0
   -3.4822   19.9850  -34.4816 H   0  0  0  0  0  0  0  0  0  0  0  0
   -1.1408   19.3660  -35.0612 H   0  0  0  0  0  0  0  0  0  0  0  0
    0.7504   20.1725  -33.6508 H   0  0  0  0  0  0  0  0  0  0  0  0
    0.3045   21.5737  -31.6423 H   0  0  0  0  0  0  0  0  0  0  0  0
   -0.0514   24.2965  -27.7614 H   0  0  0  0  0  0  0  0  0  0  0  0
   -0.6192   23.8806  -24.5410 H   0  0  0  0  0  0  0  0  0  0  0  0
    0.0533   25.8470  -22.8703 H   0  0  0  0  0  0  0  0  0  0  0  0
   -0.8424   28.1450  -23.9536 H   0  0  0  0  0  0  0  0  0  0  0  0
   -2.0294   27.5113  -26.2584 H   0  0  0  0  0  0  0  0  0  0  0  0
   -4.1059   24.9750  -26.2861 H   0  0  0  0  0  0  0  0  0  0  0  0
   -5.0258   23.6855  -28.2464 H   0  0  0  0  0  0  0  0  0  0  0  0
   -6.2299   23.1777  -31.9898 H   0  0  0  0  0  0  0  0  0  0  0  0
   -8.5208   23.8666  -31.2886 H   0  0  0  0  0  0  0  0  0  0  0  0
  -10.3778   22.1977  -31.2596 H   0  0  0  0  0  0  0  0  0  0  0  0
   -9.9441   19.8369  -31.9466 H   0  0  0  0  0  0  0  0  0  0  0  0
   -7.6572   19.1360  -32.6473 H   0  0  0  0  0  0  0  0  0  0  0  0
  1  2  2  0
  2  3  1  0
  3  4  1  0
  4  5  2  0
  5  6  1  0
  6  7  2  0
  7  8  1  0
  8  9  2  0
  9 10  1  0
 10 11  2  0
 11 12  1  0
 12 13  2  0
 13 14  1  0
 14 15  1  0
 15 16  1  0
 16 17  2  0
 17 18  1  0
 18 19  2  0
 14 20  2  0
 20 21  1  0
 21 22  2  0
 22 23  1  0
  2 24  1  0
 24 25  2  0
 25 26  1  0
 26 27  2  0
 27 28  1  0
 28 29  2  0
  9  4  1  0
 23 10  1  0
 29 24  1  0
 22 12  1  0
 19 15  1  0
  3 30  1  0
  5 31  1  0
  6 32  1  0
  7 33  1  0
  8 34  1  0
 13 35  1  0
 16 36  1  0
 17 37  1  0
 18 38  1  0
 19 39  1  0
 20 40  1  0
 21 41  1  0
 25 42  1  0
 26 43  1  0
 27 44  1  0
 28 45  1  0
 29 46  1  0
M  CHG  1  23  -1
M  END
>  <UniqueID>  (5) 
5

>  <SMILES>  (5) 
O=C(Nc1ccccc1-c1nc2cc(-n3cccc3)ccc2[n-]1)c1ccccc1

>  <Energy>  (5) 
126.67284823495028

>  <Genealogy>  (5) 
O=C(Nc1ccccc1-c1nc2cc(-n3cccc3)ccc2[n-]1)c1ccccc1 (protonated)
O=C(Nc1ccccc1-c1nc2cc(-n3cccc3)ccc2[n-]1)c1ccccc1 (3D coordinates assigned)
O=C(Nc1ccccc1-c1nc2cc(-n3cccc3)ccc2[n-]1)c1ccccc1 (optimized conformer: 126.67284823495028 kcal/mol)

>  <smiles>  (5) 
O=C(Nc1ccccc1-c1nc2cc(-n3cccc3)ccc2[nH]1)c1ccccc1

>  <score_type>  (5) 
oracle

>  <origin>  (5) 
adgpu

>  <m_score__min__energy>  (5) 
-9.25

>  <m_primary>  (5) 
energy

$$$$
5:0
     RDKit          3D

 54 57  0  0  0  0  0  0  0  0999 V2000
   -8.7500   19.2470  -31.2260 C   0  0  0  0  0  0  0  0  0  0  0  0
   -7.9920   18.8410  -32.4220 N   0  0  0  0  0  0  0  0  0  0  0  0
   -7.7630   19.9840  -33.3460 C   0  0  0  0  0  0  0  0  0  0  0  0
   -6.2910   20.4160  -33.4640 C   0  0  0  0  0  0  0  0  0  0  0  0
   -5.6180   20.2830  -32.1710 N   0  0  0  0  0  0  0  0  0  0  0  0
   -4.9990   21.4220  -31.5580 C   0  0  0  0  0  0  0  0  0  0  0  0
   -3.6020   21.4730  -31.4520 C   0  0  0  0  0  0  0  0  0  0  0  0
   -2.9770   22.5780  -30.8710 C   0  0  0  0  0  0  0  0  0  0  0  0
   -3.7420   23.6560  -30.3940 C   0  0  0  0  0  0  0  0  0  0  0  0
   -3.1290   24.7940  -29.7680 N   0  0  0  0  0  0  0  0  0  0  0  0
   -1.7660   24.8270  -29.3070 C   0  0  0  0  0  0  0  0  0  0  0  0
   -1.0400   23.8010  -29.3830 O   0  0  0  0  0  0  0  0  0  0  0  0
   -1.2160   26.0150  -28.7250 N   0  0  0  0  0  0  0  0  0  0  0  0
   -1.0240   26.2470  -27.3230 C   0  0  0  0  0  0  0  0  0  0  0  0
   -0.7500   27.5320  -26.8210 C   0  0  0  0  0  0  0  0  0  0  0  0
   -0.5380   27.7230  -25.4530 C   0  0  0  0  0  0  0  0  0  0  0  0
   -0.5840   26.6320  -24.5770 C   0  0  0  0  0  0  0  0  0  0  0  0
   -0.3270   26.8790  -22.8200 S   0  0  0  0  0  0  0  0  0  0  0  0
    1.3180   27.5410  -23.0650 C   0  0  0  0  0  0  0  0  0  0  0  0
    1.7580   28.6360  -22.3150 C   0  0  0  0  0  0  0  0  0  0  0  0
    3.0420   29.1410  -22.5330 C   0  0  0  0  0  0  0  0  0  0  0  0
    3.8680   28.5480  -23.4910 C   0  0  0  0  0  0  0  0  0  0  0  0
    3.3940   27.4540  -24.2180 C   0  0  0  0  0  0  0  0  0  0  0  0
    2.1400   26.9780  -23.9920 N   0  0  0  0  0  0  0  0  0  0  0  0
   -0.8240   25.3470  -25.0760 C   0  0  0  0  0  0  0  0  0  0  0  0
   -1.0340   25.1560  -26.4460 C   0  0  0  0  0  0  0  0  0  0  0  0
   -5.1410   23.5870  -30.4690 C   0  0  0  0  0  0  0  0  0  0  0  0
   -5.7720   22.4820  -31.0530 C   0  0  0  0  0  0  0  0  0  0  0  0
   -7.5280   22.4300  -31.0970 Cl  0  0  0  0  0  0  0  0  0  0  0  0
   -5.7040   19.0190  -31.4360 C   0  0  0  0  0  0  0  0  0  0  0  0
   -6.7630   18.1000  -32.0640 C   0  0  0  0  0  0  0  0  0  0  0  0
   -8.1964   18.9505  -30.3229 H   0  0  0  0  0  0  0  0  0  0  0  0
   -8.8858   20.3386  -31.2310 H   0  0  0  0  0  0  0  0  0  0  0  0
   -9.7339   18.7551  -31.2310 H   0  0  0  0  0  0  0  0  0  0  0  0
   -8.1188   19.6955  -34.3461 H   0  0  0  0  0  0  0  0  0  0  0  0
   -8.3111   20.8417  -32.9289 H   0  0  0  0  0  0  0  0  0  0  0  0
   -5.7841   19.7795  -34.2042 H   0  0  0  0  0  0  0  0  0  0  0  0
   -6.2510   21.4683  -33.7820 H   0  0  0  0  0  0  0  0  0  0  0  0
   -2.9944   20.6371  -31.8290 H   0  0  0  0  0  0  0  0  0  0  0  0
   -1.8806   22.6049  -30.7862 H   0  0  0  0  0  0  0  0  0  0  0  0
   -3.6950   25.6710  -29.7090 H   0  0  0  0  0  0  0  0  0  0  0  0
   -0.7024   28.3899  -27.5078 H   0  0  0  0  0  0  0  0  0  0  0  0
   -0.3348   28.7317  -25.0641 H   0  0  0  0  0  0  0  0  0  0  0  0
    1.1004   29.0946  -21.5618 H   0  0  0  0  0  0  0  0  0  0  0  0
    3.4017   30.0031  -21.9521 H   0  0  0  0  0  0  0  0  0  0  0  0
    4.8805   28.9385  -23.6707 H   0  0  0  0  0  0  0  0  0  0  0  0
    4.0351   26.9769  -24.9739 H   0  0  0  0  0  0  0  0  0  0  0  0
   -0.8476   24.4867  -24.3909 H   0  0  0  0  0  0  0  0  0  0  0  0
   -1.2080   24.1424  -26.8363 H   0  0  0  0  0  0  0  0  0  0  0  0
   -5.7488   24.4098  -30.0647 H   0  0  0  0  0  0  0  0  0  0  0  0
   -4.7259   18.5164  -31.4652 H   0  0  0  0  0  0  0  0  0  0  0  0
   -5.9910   19.2322  -30.3957 H   0  0  0  0  0  0  0  0  0  0  0  0
   -6.3445   17.6443  -32.9735 H   0  0  0  0  0  0  0  0  0  0  0  0
   -7.0309   17.3318  -31.3236 H   0  0  0  0  0  0  0  0  0  0  0  0
  1  2  1  0
  2  3  1  0
  3  4  1  0
  4  5  1  0
  5  6  1  0
  6  7  2  0
  7  8  1  0
  8  9  2  0
  9 10  1  0
 10 11  1  0
 11 12  2  0
 11 13  1  0
 13 14  1  0
 14 15  2  0
 15 16  1  0
 16 17  2  0
 17 18  1  0
 18 19  1  0
 19 20  2  0
 20 21  1  0
 21 22  2  0
 22 23  1  0
 23 24  2  0
 17 25  1  0
 25 26  2  0
  9 27  1  0
 27 28  2  0
 28 29  1  0
  5 30  1  0
 30 31  1  0
 31  2  1  0
 28  6  1  0
 26 14  1  0
 24 19  1  0
  1 32  1  0
  1 33  1  0
  1 34  1  0
  3 35  1  0
  3 36  1  0
  4 37  1  0
  4 38  1  0
  7 39  1  0
  8 40  1  0
 10 41  1  0
 15 42  1  0
 16 43  1  0
 20 44  1  0
 21 45  1  0
 22 46  1  0
 23 47  1  0
 25 48  1  0
 26 49  1  0
 27 50  1  0
 30 51  1  0
 30 52  1  0
 31 53  1  0
 31 54  1  0
M  CHG  1  13  -1
M  END
>  <UniqueID>  (6) 
6

>  <SMILES>  (6) 
CN1CCN(c2ccc(NC(=O)[N-]c3ccc(Sc4ccccn4)cc3)cc2Cl)CC1

>  <Energy>  (6) 
75.23056876702877

>  <Genealogy>  (6) 
CN1CCN(c2ccc(NC(=O)[N-]c3ccc(Sc4ccccn4)cc3)cc2Cl)CC1 (protonated)
CN1CCN(c2ccc(NC(=O)[N-]c3ccc(Sc4ccccn4)cc3)cc2Cl)CC1 (3D coordinates assigned)
CN1CCN(c2ccc(NC(=O)[N-]c3ccc(Sc4ccccn4)cc3)cc2Cl)CC1 (nonaromatic ring conformer: 75.23056876702877 kcal/mol)

>  <smiles>  (6) 
CN1CCN(c2ccc(NC(=O)Nc3ccc(Sc4ccccn4)cc3)cc2Cl)CC1

>  <score_type>  (6) 
oracle

>  <origin>  (6) 
adgpu

>  <m_score__min__energy>  (6) 
-11.08

>  <m_primary>  (6) 
energy

$$$$
6:0
     RDKit          3D

 61 64  0  0  0  0  0  0  0  0999 V2000
   -1.0990   22.4350  -27.0610 C   0  0  0  0  0  0  0  0  0  0  0  0
   -1.4950   21.9690  -28.4370 C   0  0  0  0  0  0  0  0  0  0  0  0
   -1.0110   22.6640  -29.5590 C   0  0  0  0  0  0  0  0  0  0  0  0
   -1.3640   22.2650  -30.8480 C   0  0  0  0  0  0  0  0  0  0  0  0
   -2.2210   21.1790  -31.0460 C   0  0  0  0  0  0  0  0  0  0  0  0
   -2.5370   20.7890  -32.3890 N   0  0  0  0  0  0  0  0  0  0  0  0
   -3.5180   19.8190  -32.7840 C   0  0  0  0  0  0  0  0  0  0  0  0
   -3.1490   18.7230  -33.2870 O   0  0  0  0  0  0  0  0  0  0  0  0
   -4.9580   20.0770  -32.5270 C   0  0  0  0  0  0  0  0  0  0  0  0
   -5.3810   21.3840  -32.2220 C   0  0  0  0  0  0  0  0  0  0  0  0
   -6.7250   21.6580  -31.9420 C   0  0  0  0  0  0  0  0  0  0  0  0
   -7.2170   23.3040  -31.5380 S   0  0  0  0  0  0  0  0  0  0  0  0
   -6.5680   24.2420  -32.5160 O   0  0  0  0  0  0  0  0  0  0  0  0
   -8.7090   23.4330  -31.6840 O   0  0  0  0  0  0  0  0  0  0  0  0
   -6.7180   23.7300  -29.9120 N   0  0  0  0  0  0  0  0  0  0  0  0
   -5.4370   23.0760  -29.5490 C   0  0  0  0  0  0  0  0  0  0  0  0
   -4.2220   24.0030  -29.7460 C   0  0  0  0  0  0  0  0  0  0  0  0
   -4.4490   24.8960  -30.8140 O   0  0  0  0  0  0  0  0  0  0  0  0
   -5.4630   25.8260  -30.4720 C   0  0  0  0  0  0  0  0  0  0  0  0
   -6.6560   25.1920  -29.7190 C   0  0  0  0  0  0  0  0  0  0  0  0
   -7.6620   20.6200  -31.9540 C   0  0  0  0  0  0  0  0  0  0  0  0
   -7.2620   19.3210  -32.2640 C   0  0  0  0  0  0  0  0  0  0  0  0
   -5.9210   19.0380  -32.5590 C   0  0  0  0  0  0  0  0  0  0  0  0
   -5.5610   17.7050  -32.9490 N   0  0  0  0  0  0  0  0  0  0  0  0
   -5.5340   17.3700  -34.3730 C   0  0  0  0  0  0  0  0  0  0  0  0
   -4.6380   16.1470  -34.6040 C   0  0  0  0  0  0  0  0  0  0  0  0
   -4.9910   15.0860  -33.7340 O   0  0  0  0  0  0  0  0  0  0  0  0
   -4.7600   15.4660  -32.3910 C   0  0  0  0  0  0  0  0  0  0  0  0
   -5.6950   16.6110  -31.9880 C   0  0  0  0  0  0  0  0  0  0  0  0
   -2.7020   20.4710  -29.9320 C   0  0  0  0  0  0  0  0  0  0  0  0
   -2.3680   20.8720  -28.6260 C   0  0  0  0  0  0  0  0  0  0  0  0
   -2.9020   20.0830  -27.4580 C   0  0  0  0  0  0  0  0  0  0  0  0
   -1.6163   21.8263  -26.3047 H   0  0  0  0  0  0  0  0  0  0  0  0
   -0.0113   22.3280  -26.9365 H   0  0  0  0  0  0  0  0  0  0  0  0
   -1.3801   23.4912  -26.9365 H   0  0  0  0  0  0  0  0  0  0  0  0
   -0.3478   23.5304  -29.4191 H   0  0  0  0  0  0  0  0  0  0  0  0
   -0.9645   22.8097  -31.7161 H   0  0  0  0  0  0  0  0  0  0  0  0
   -4.6454   22.2017  -32.2033 H   0  0  0  0  0  0  0  0  0  0  0  0
   -7.4630   23.3610  -29.2750 H   0  0  0  0  0  0  0  0  0  0  0  0
   -5.4824   22.7745  -28.4921 H   0  0  0  0  0  0  0  0  0  0  0  0
   -5.3057   22.2088  -30.2129 H   0  0  0  0  0  0  0  0  0  0  0  0
   -4.0521   24.5778  -28.8236 H   0  0  0  0  0  0  0  0  0  0  0  0
   -3.3399   23.3882  -29.9781 H   0  0  0  0  0  0  0  0  0  0  0  0
   -5.0206   26.6030  -29.8312 H   0  0  0  0  0  0  0  0  0  0  0  0
   -5.8567   26.2350  -31.4142 H   0  0  0  0  0  0  0  0  0  0  0  0
   -6.5511   25.4042  -28.6448 H   0  0  0  0  0  0  0  0  0  0  0  0
   -7.5822   25.6274  -30.1222 H   0  0  0  0  0  0  0  0  0  0  0  0
   -8.7160   20.8287  -31.7185 H   0  0  0  0  0  0  0  0  0  0  0  0
   -8.0056   18.5105  -32.2773 H   0  0  0  0  0  0  0  0  0  0  0  0
   -6.5551   17.1439  -34.7140 H   0  0  0  0  0  0  0  0  0  0  0  0
   -5.1340   18.2243  -34.9388 H   0  0  0  0  0  0  0  0  0  0  0  0
   -4.7503   15.8106  -35.6453 H   0  0  0  0  0  0  0  0  0  0  0  0
   -3.5955   16.4336  -34.4013 H   0  0  0  0  0  0  0  0  0  0  0  0
   -4.9415   14.6024  -31.7343 H   0  0  0  0  0  0  0  0  0  0  0  0
   -3.7186   15.8060  -32.2919 H   0  0  0  0  0  0  0  0  0  0  0  0
   -6.7347   16.2519  -31.9826 H   0  0  0  0  0  0  0  0  0  0  0  0
   -5.4278   16.9687  -30.9827 H   0  0  0  0  0  0  0  0  0  0  0  0
   -3.3472   19.5930  -30.0829 H   0  0  0  0  0  0  0  0  0  0  0  0
   -2.5815   20.5566  -26.5183 H   0  0  0  0  0  0  0  0  0  0  0  0
   -4.0009   20.0617  -27.5016 H   0  0  0  0  0  0  0  0  0  0  0  0
   -2.5133   19.0549  -27.5016 H   0  0  0  0  0  0  0  0  0  0  0  0
  1  2  1  0
  2  3  2  0
  3  4  1  0
  4  5  2  0
  5  6  1  0
  6  7  1  0
  7  8  2  0
  7  9  1  0
  9 10  2  0
 10 11  1  0
 11 12  1  0
 12 13  2  0
 12 14  2  0
 12 15  1  0
 15 16  1  0
 16 17  1  0
 17 18  1  0
 18 19  1  0
 19 20  1  0
 11 21  2  0
 21 22  1  0
 22 23  2  0
 23 24  1  0
 24 25  1  0
 25 26  1  0
 26 27  1  0
 27 28  1  0
 28 29  1  0
  5 30  1  0
 30 31  2  0
 31 32  1  0
 31  2  1  0
 23  9  1  0
 29 24  1  0
 20 15  1  0
  1 33  1  0
  1 34  1  0
  1 35  1  0
  3 36  1  0
  4 37  1  0
 10 38  1  0
 15 39  1  0
 16 40  1  0
 16 41  1  0
 17 42  1  0
 17 43  1  0
 19 44  1  0
 19 45  1  0
 20 46  1  0
 20 47  1  0
 21 48  1  0
 22 49  1  0
 25 50  1  0
 25 51  1  0
 26 52  1  0
 26 53  1  0
 28 54  1  0
 28 55  1  0
 29 56  1  0
 29 57  1  0
 30 58  1  0
 32 59  1  0
 32 60  1  0
 32 61  1  0
M  CHG  2   6  -1  15   1
M  END
>  <UniqueID>  (7) 
7

>  <SMILES>  (7) 
Cc1ccc([N-]C(=O)c2cc(S(=O)(=O)[NH+]3CCOCC3)ccc2N2CCOCC2)cc1C

>  <Energy>  (7) 
85.3536335882307

>  <Genealogy>  (7) 
Cc1ccc([N-]C(=O)c2cc(S(=O)(=O)[NH+]3CCOCC3)ccc2N2CCOCC2)cc1C (protonated)
Cc1ccc([N-]C(=O)c2cc(S(=O)(=O)[NH+]3CCOCC3)ccc2N2CCOCC2)cc1C (3D coordinates assigned)
Cc1ccc([N-]C(=O)c2cc(S(=O)(=O)[NH+]3CCOCC3)ccc2N2CCOCC2)cc1C (nonaromatic ring conformer: 85.3536335882307 kcal/mol)

>  <smiles>  (7) 
Cc1ccc(NC(=O)c2cc(S(=O)(=O)N3CCOCC3)ccc2N2CCOCC2)cc1C

>  <score_type>  (7) 
oracle

>  <origin>  (7) 
adgpu

>  <m_score__min__energy>  (7) 
-10.77

>  <m_primary>  (7) 
energy

$$$$
7:0
     RDKit          3D

 59 61  0  0  0  0  0  0  0  0999 V2000
    1.2550   29.6080  -34.6770 C   0  0  0  0  0  0  0  0  0  0  0  0
    0.5090   28.7240  -35.5080 O   0  0  0  0  0  0  0  0  0  0  0  0
    0.9070   27.4180  -35.8350 C   0  0  0  0  0  0  0  0  0  0  0  0
    0.1170   26.5660  -36.6320 C   0  0  0  0  0  0  0  0  0  0  0  0
    0.5580   25.2770  -36.9390 C   0  0  0  0  0  0  0  0  0  0  0  0
    1.7750   24.8090  -36.4320 C   0  0  0  0  0  0  0  0  0  0  0  0
    2.2420   23.5050  -36.8060 N   0  0  0  0  0  0  0  0  0  0  0  0
    1.8000   22.3370  -36.4180 C   0  0  0  0  0  0  0  0  0  0  0  0
    2.5050   21.2440  -36.7930 N   0  0  0  0  0  0  0  0  0  0  0  0
    2.1530   19.9920  -36.4180 C   0  0  0  0  0  0  0  0  0  0  0  0
    1.0280   19.7960  -35.6110 C   0  0  0  0  0  0  0  0  0  0  0  0
    0.6870   18.3890  -35.1850 C   0  0  0  0  0  0  0  0  0  0  0  0
    0.2490   20.8800  -35.2640 N   0  0  0  0  0  0  0  0  0  0  0  0
   -0.9570   20.7040  -34.4250 C   0  0  0  0  0  0  0  0  0  0  0  0
   -0.5770   20.5580  -32.9820 C   0  0  0  0  0  0  0  0  0  0  0  0
    0.6420   20.4740  -32.6630 O   0  0  0  0  0  0  0  0  0  0  0  0
   -1.6030   20.5350  -31.9820 N   0  0  0  0  0  0  0  0  0  0  0  0
   -2.8770   21.1930  -32.0260 C   0  0  0  0  0  0  0  0  0  0  0  0
   -3.9390   20.5440  -32.6570 C   0  0  0  0  0  0  0  0  0  0  0  0
   -5.2020   21.1280  -32.7010 C   0  0  0  0  0  0  0  0  0  0  0  0
   -5.4380   22.3750  -32.0980 C   0  0  0  0  0  0  0  0  0  0  0  0
   -6.8370   22.9370  -32.1380 C   0  0  0  0  0  0  0  0  0  0  0  0
   -4.3640   23.0550  -31.4590 C   0  0  0  0  0  0  0  0  0  0  0  0
   -4.5160   24.4030  -30.8480 C   0  0  0  0  0  0  0  0  0  0  0  0
   -5.5370   25.1030  -31.0810 O   0  0  0  0  0  0  0  0  0  0  0  0
   -3.4710   24.9320  -30.0250 N   0  0  0  0  0  0  0  0  0  0  0  0
   -3.2600   24.5040  -28.6470 C   0  0  0  0  0  0  0  0  0  0  0  0
   -1.8280   24.0010  -28.4650 C   0  0  0  0  0  0  0  0  0  0  0  0
   -0.8400   25.1270  -28.5270 C   0  0  0  0  0  0  0  0  0  0  0  0
    0.3470   24.9500  -28.1490 O   0  0  0  0  0  0  0  0  0  0  0  0
   -1.2400   26.3810  -28.9730 O   0  0  0  0  0  0  0  0  0  0  0  0
   -3.0990   22.4380  -31.4110 C   0  0  0  0  0  0  0  0  0  0  0  0
    0.6180   22.1470  -35.6570 C   0  0  0  0  0  0  0  0  0  0  0  0
   -0.1160   23.1330  -35.3650 O   0  0  0  0  0  0  0  0  0  0  0  0
    2.5790   25.6650  -35.6620 C   0  0  0  0  0  0  0  0  0  0  0  0
    2.1370   26.9540  -35.3540 C   0  0  0  0  0  0  0  0  0  0  0  0
    1.0568   29.3731  -33.6208 H   0  0  0  0  0  0  0  0  0  0  0  0
    2.3286   29.4876  -34.8842 H   0  0  0  0  0  0  0  0  0  0  0  0
    0.9558   30.6460  -34.8842 H   0  0  0  0  0  0  0  0  0  0  0  0
   -0.8524   26.9181  -37.0145 H   0  0  0  0  0  0  0  0  0  0  0  0
   -0.0539   24.6272  -37.5819 H   0  0  0  0  0  0  0  0  0  0  0  0
    2.7512   19.1297  -36.7477 H   0  0  0  0  0  0  0  0  0  0  0  0
    0.6731   18.3317  -34.0866 H   0  0  0  0  0  0  0  0  0  0  0  0
   -0.3032   18.1164  -35.5790 H   0  0  0  0  0  0  0  0  0  0  0  0
    1.4425   17.6933  -35.5790 H   0  0  0  0  0  0  0  0  0  0  0  0
   -1.6093   21.5821  -34.5403 H   0  0  0  0  0  0  0  0  0  0  0  0
   -1.4846   19.7942  -34.7474 H   0  0  0  0  0  0  0  0  0  0  0  0
   -3.7767   19.5615  -33.1242 H   0  0  0  0  0  0  0  0  0  0  0  0
   -6.0244   20.6074  -33.2136 H   0  0  0  0  0  0  0  0  0  0  0  0
   -7.2026   23.0839  -31.1110 H   0  0  0  0  0  0  0  0  0  0  0  0
   -6.8296   23.9019  -32.6661 H   0  0  0  0  0  0  0  0  0  0  0  0
   -7.4992   22.2351  -32.6661 H   0  0  0  0  0  0  0  0  0  0  0  0
   -3.4353   25.3542  -27.9714 H   0  0  0  0  0  0  0  0  0  0  0  0
   -3.9599   23.6883  -28.4128 H   0  0  0  0  0  0  0  0  0  0  0  0
   -1.7446   23.5053  -27.4866 H   0  0  0  0  0  0  0  0  0  0  0  0
   -1.6023   23.2975  -29.2799 H   0  0  0  0  0  0  0  0  0  0  0  0
   -2.2722   22.9374  -30.8846 H   0  0  0  0  0  0  0  0  0  0  0  0
    3.5589   25.3198  -35.3006 H   0  0  0  0  0  0  0  0  0  0  0  0
    2.7606   27.6096  -34.7285 H   0  0  0  0  0  0  0  0  0  0  0  0
  1  2  1  0
  2  3  1  0
  3  4  2  0
  4  5  1  0
  5  6  2  0
  6  7  1  0
  7  8  2  3
  8  9  1  0
  9 10  1  0
 10 11  2  0
 11 12  1  0
 11 13  1  0
 13 14  1  0
 14 15  1  0
 15 16  2  0
 15 17  1  0
 17 18  1  0
 18 19  2  0
 19 20  1  0
 20 21  2  0
 21 22  1  0
 21 23  1  0
 23 24  1  0
 24 25  2  0
 24 26  1  0
 26 27  1  0
 27 28  1  0
 28 29  1  0
 29 30  2  0
 29 31  1  0
 23 32  2  0
 13 33  1  0
 33 34  2  0
  6 35  1  0
 35 36  2  0
 36  3  1  0
 33  8  1  0
 32 18  1  0
  1 37  1  0
  1 38  1  0
  1 39  1  0
  4 40  1  0
  5 41  1  0
 10 42  1  0
 12 43  1  0
 12 44  1  0
 12 45  1  0
 14 46  1  0
 14 47  1  0
 19 48  1  0
 20 49  1  0
 22 50  1  0
 22 51  1  0
 22 52  1  0
 27 53  1  0
 27 54  1  0
 28 55  1  0
 28 56  1  0
 32 57  1  0
 35 58  1  0
 36 59  1  0
M  CHG  4   9  -1  17  -1  26  -1  31  -1
M  END
>  <UniqueID>  (8) 
8

>  <SMILES>  (8) 
COc1ccc(N=c2[n-]cc(C)n(CC(=O)[N-]c3ccc(C)c(C(=O)[N-]CCC(=O)[O-])c3)c2=O)cc1

>  <Energy>  (8) 
80.49930312412134

>  <Genealogy>  (8) 
COc1ccc(N=c2[n-]cc(C)n(CC(=O)[N-]c3ccc(C)c(C(=O)[N-]CCC(=O)[O-])c3)c2=O)cc1 (protonated)
COc1ccc(N=c2[n-]cc(C)n(CC(=O)[N-]c3ccc(C)c(C(=O)[N-]CCC(=O)[O-])c3)c2=O)cc1 (3D coordinates assigned)
COc1ccc(N=c2[n-]cc(C)n(CC(=O)[N-]c3ccc(C)c(C(=O)[N-]CCC(=O)[O-])c3)c2=O)cc1 (optimized conformer: 80.49930312412134 kcal/mol)

>  <smiles>  (8) 
COc1ccc(N=c2[nH]cc(C)n(CC(=O)Nc3ccc(C)c(C(=O)NCCC(=O)O)c3)c2=O)cc1

>  <score_type>  (8) 
oracle

>  <origin>  (8) 
adgpu

>  <m_score__min__energy>  (8) 
-13.76

>  <m_primary>  (8) 
energy

$$$$
8:0
     RDKit          3D

 42 45  0  0  0  0  0  0  0  0999 V2000
   -0.1250   22.7960  -24.0760 C   0  0  0  0  0  0  0  0  0  0  0  0
    0.4650   23.3780  -25.2330 O   0  0  0  0  0  0  0  0  0  0  0  0
    0.0290   24.5710  -25.8310 C   0  0  0  0  0  0  0  0  0  0  0  0
    0.2600   25.8330  -25.2510 C   0  0  0  0  0  0  0  0  0  0  0  0
   -0.1800   26.9920  -25.8950 C   0  0  0  0  0  0  0  0  0  0  0  0
   -0.8600   26.9040  -27.1110 C   0  0  0  0  0  0  0  0  0  0  0  0
   -1.1190   25.6570  -27.6910 C   0  0  0  0  0  0  0  0  0  0  0  0
   -1.7980   25.6190  -28.9170 O   0  0  0  0  0  0  0  0  0  0  0  0
   -2.6990   24.6240  -29.3130 C   0  0  0  0  0  0  0  0  0  0  0  0
   -2.8580   23.5860  -28.6140 O   0  0  0  0  0  0  0  0  0  0  0  0
   -3.5160   24.8540  -30.4660 N   0  0  0  0  0  0  0  0  0  0  0  0
   -4.7990   24.2660  -30.7330 C   0  0  0  0  0  0  0  0  0  0  0  0
   -5.9970   24.9050  -30.3790 C   0  0  0  0  0  0  0  0  0  0  0  0
   -7.2220   24.2920  -30.6400 C   0  0  0  0  0  0  0  0  0  0  0  0
   -7.2750   23.0280  -31.2380 C   0  0  0  0  0  0  0  0  0  0  0  0
   -8.8740   22.3710  -31.5810 Cl  0  0  0  0  0  0  0  0  0  0  0  0
   -6.0740   22.3530  -31.5690 C   0  0  0  0  0  0  0  0  0  0  0  0
   -6.0540   20.9990  -32.1810 C   0  0  0  0  0  0  0  0  0  0  0  0
   -5.3710   20.6950  -33.3170 N   0  0  0  0  0  0  0  0  0  0  0  0
   -5.6600   19.4000  -33.5050 C   0  0  0  0  0  0  0  0  0  0  0  0
   -5.2210   18.5670  -34.5310 C   0  0  0  0  0  0  0  0  0  0  0  0
   -5.6640   17.2300  -34.5220 C   0  0  0  0  0  0  0  0  0  0  0  0
   -6.5260   16.7710  -33.4980 C   0  0  0  0  0  0  0  0  0  0  0  0
   -6.9490   17.6450  -32.4780 C   0  0  0  0  0  0  0  0  0  0  0  0
   -6.4870   18.9580  -32.5210 C   0  0  0  0  0  0  0  0  0  0  0  0
   -6.7590   19.9540  -31.6660 N   0  0  0  0  0  0  0  0  0  0  0  0
   -4.8460   22.9920  -31.3070 C   0  0  0  0  0  0  0  0  0  0  0  0
   -0.6550   24.4920  -27.0500 C   0  0  0  0  0  0  0  0  0  0  0  0
    0.3232   23.2381  -23.1740 H   0  0  0  0  0  0  0  0  0  0  0  0
   -1.2079   22.9894  -24.0799 H   0  0  0  0  0  0  0  0  0  0  0  0
    0.0536   21.7106  -24.0799 H   0  0  0  0  0  0  0  0  0  0  0  0
    0.7880   25.9065  -24.2888 H   0  0  0  0  0  0  0  0  0  0  0  0
    0.0099   27.9766  -25.4427 H   0  0  0  0  0  0  0  0  0  0  0  0
   -1.1947   27.8216  -27.6170 H   0  0  0  0  0  0  0  0  0  0  0  0
   -5.9698   25.8921  -29.8943 H   0  0  0  0  0  0  0  0  0  0  0  0
   -8.1564   24.8074  -30.3730 H   0  0  0  0  0  0  0  0  0  0  0  0
   -4.5520   18.9400  -35.3205 H   0  0  0  0  0  0  0  0  0  0  0  0
   -5.3385   16.5398  -35.3143 H   0  0  0  0  0  0  0  0  0  0  0  0
   -6.8677   15.7254  -33.4987 H   0  0  0  0  0  0  0  0  0  0  0  0
   -7.6201   17.3029  -31.6763 H   0  0  0  0  0  0  0  0  0  0  0  0
   -3.9062   22.4788  -31.5589 H   0  0  0  0  0  0  0  0  0  0  0  0
   -0.8319   23.5095  -27.5120 H   0  0  0  0  0  0  0  0  0  0  0  0
  1  2  1  0
  2  3  1  0
  3  4  2  0
  4  5  1  0
  5  6  2  0
  6  7  1  0
  7  8  1  0
  8  9  1  0
  9 10  2  0
  9 11  1  0
 11 12  1  0
 12 13  2  0
 13 14  1  0
 14 15  2  0
 15 16  1  0
 15 17  1  0
 17 18  1  0
 18 19  2  0
 19 20  1  0
 20 21  2  0
 21 22  1  0
 22 23  2  0
 23 24  1  0
 24 25  2  0
 25 26  1  0
 17 27  2  0
  7 28  2  0
 28  3  1  0
 27 12  1  0
 26 18  1  0
 25 20  1  0
  1 29  1  0
  1 30  1  0
  1 31  1  0
  4 32  1  0
  5 33  1  0
  6 34  1  0
 13 35  1  0
 14 36  1  0
 21 37  1  0
 22 38  1  0
 23 39  1  0
 24 40  1  0
 27 41  1  0
 28 42  1  0
M  CHG  2  11  -1  26  -1
M  END
>  <UniqueID>  (9) 
9

>  <SMILES>  (9) 
COc1cccc(OC(=O)[N-]c2ccc(Cl)c(-c3nc4ccccc4[n-]3)c2)c1

>  <Energy>  (9) 
93.45691733816325

>  <Genealogy>  (9) 
COc1cccc(OC(=O)[N-]c2ccc(Cl)c(-c3nc4ccccc4[n-]3)c2)c1 (protonated)
COc1cccc(OC(=O)[N-]c2ccc(Cl)c(-c3nc4ccccc4[n-]3)c2)c1 (3D coordinates assigned)
COc1cccc(OC(=O)[N-]c2ccc(Cl)c(-c3nc4ccccc4[n-]3)c2)c1 (optimized conformer: 93.45691733816325 kcal/mol)

>  <smiles>  (9) 
COc1cccc(OC(=O)Nc2ccc(Cl)c(-c3nc4ccccc4[nH]3)c2)c1

>  <score_type>  (9) 
oracle

>  <origin>  (9) 
adgpu

>  <m_score__min__energy>  (9) 
-10.960000000000001

>  <m_primary>  (9) 
energy

$$$$
9:0
     RDKit          3D

 40 42  0  0  0  0  0  0  0  0999 V2000
   -5.1750   21.8800  -33.3220 H   0  0  0  0  0  0  0  0  0  0  0  0
   -4.7800   20.9870  -33.5920 O   0  0  0  0  0  0  0  0  0  0  0  0
   -5.4880   19.7970  -33.4330 C   0  0  0  0  0  0  0  0  0  0  0  0
   -4.8300   18.5680  -33.5890 C   0  0  0  0  0  0  0  0  0  0  0  0
   -3.7710   18.5475  -33.8858 H   0  0  0  0  0  0  0  0  0  0  0  0
   -5.5140   17.3700  -33.3690 C   0  0  0  0  0  0  0  0  0  0  0  0
   -4.9923   16.4092  -33.4900 H   0  0  0  0  0  0  0  0  0  0  0  0
   -6.8580   17.3910  -32.9960 C   0  0  0  0  0  0  0  0  0  0  0  0
   -7.3945   16.4469  -32.8206 H   0  0  0  0  0  0  0  0  0  0  0  0
   -7.5230   18.6100  -32.8450 C   0  0  0  0  0  0  0  0  0  0  0  0
   -8.5786   18.6212  -32.5360 H   0  0  0  0  0  0  0  0  0  0  0  0
   -6.8560   19.8180  -33.0840 C   0  0  0  0  0  0  0  0  0  0  0  0
   -7.5680   21.0480  -32.8780 N   0  0  0  0  0  0  0  0  0  0  0  0
   -7.2250   21.9840  -32.0460 C   0  0  0  0  0  0  0  0  0  0  0  0
   -6.0890   21.9710  -31.3150 N   0  0  0  0  0  0  0  0  0  0  0  0
   -5.9640   23.1000  -30.5690 C   0  0  0  0  0  0  0  0  0  0  0  0
   -4.7550   23.3540  -29.7220 C   0  0  0  0  0  0  0  0  0  0  0  0
   -4.0830   22.4850  -29.7783 H   0  0  0  0  0  0  0  0  0  0  0  0
   -5.0736   23.5161  -28.6817 H   0  0  0  0  0  0  0  0  0  0  0  0
   -4.0270   24.5770  -30.2080 C   0  0  0  0  0  0  0  0  0  0  0  0
   -4.5410   25.2710  -31.1240 O   0  0  0  0  0  0  0  0  0  0  0  0
   -2.7180   24.9210  -29.7320 N   0  0  0  0  0  0  0  0  0  0  0  0
   -2.0500   24.3250  -28.6140 C   0  0  0  0  0  0  0  0  0  0  0  0
   -2.0320   24.9500  -27.3580 C   0  0  0  0  0  0  0  0  0  0  0  0
   -2.5662   25.9003  -27.2114 H   0  0  0  0  0  0  0  0  0  0  0  0
   -1.3380   24.3700  -26.2920 C   0  0  0  0  0  0  0  0  0  0  0  0
   -1.3421   24.8575  -25.3059 H   0  0  0  0  0  0  0  0  0  0  0  0
   -0.6340   23.1650  -26.4750 C   0  0  0  0  0  0  0  0  0  0  0  0
    0.0920   22.5550  -25.4430 O   0  0  0  0  0  0  0  0  0  0  0  0
   -0.1290   22.7890  -24.0560 C   0  0  0  0  0  0  0  0  0  0  0  0
    0.5077   22.1148  -23.4644 H   0  0  0  0  0  0  0  0  0  0  0  0
    0.1202   23.8332  -23.8160 H   0  0  0  0  0  0  0  0  0  0  0  0
   -1.1857   22.5998  -23.8160 H   0  0  0  0  0  0  0  0  0  0  0  0
   -0.6470   22.5520  -27.7330 C   0  0  0  0  0  0  0  0  0  0  0  0
   -0.1090   21.6045  -27.8838 H   0  0  0  0  0  0  0  0  0  0  0  0
   -1.3380   23.1340  -28.7990 C   0  0  0  0  0  0  0  0  0  0  0  0
   -1.3224   22.6539  -29.7886 H   0  0  0  0  0  0  0  0  0  0  0  0
   -6.9940   24.0280  -30.7220 C   0  0  0  0  0  0  0  0  0  0  0  0
   -7.0696   25.0005  -30.2136 H   0  0  0  0  0  0  0  0  0  0  0  0
   -8.1010   23.3970  -31.8220 S   0  0  0  0  0  0  0  0  0  0  0  0
  1  2  1  0
  2  3  1  0
  3  4  2  0
  4  5  1  0
  4  6  1  0
  6  7  1  0
  6  8  2  0
  8  9  1  0
  8 10  1  0
 10 11  1  0
 10 12  2  0
 12 13  1  0
 13 14  2  0
 14 15  1  0
 15 16  1  0
 16 17  1  0
 17 18  1  0
 17 19  1  0
 17 20  1  0
 20 21  2  0
 20 22  1  0
 22 23  1  0
 23 24  2  0
 24 25  1  0
 24 26  1  0
 26 27  1  0
 26 28  2  0
 28 29  1  0
 29 30  1  0
 30 31  1  0
 30 32  1  0
 30 33  1  0
 28 34  1  0
 34 35  1  0
 34 36  2  0
 36 37  1  0
 16 38  2  0
 38 39  1  0
 38 40  1  0
 12  3  1  0
 40 14  1  0
 36 23  1  0
M  CHG  2  15  -1  22  -1
M  END
>  <UniqueID>  (10) 
10

>  <SMILES>  (10) 
COc1ccc([N-]C(=O)Cc2cs/c(=N/c3ccccc3O)[n-]2)cc1

>  <Energy>  (10) 
76.61220626773212

>  <Genealogy>  (10) 
COc1ccc([N-]C(=O)Cc2csc(=Nc3ccccc3O)[n-]2)cc1 (protonated)
COc1ccc([N-]C(=O)Cc2cs/c(=N/c3ccccc3O)[n-]2)cc1 (cis-trans isomerization)
COc1ccc([N-]C(=O)Cc2cs/c(=N/c3ccccc3O)[n-]2)cc1 (3D coordinates assigned)
COc1ccc([N-]C(=O)Cc2cs/c(=N/c3ccccc3O)[n-]2)cc1 (optimized conformer: 76.61220626773212 kcal/mol)

>  <smiles>  (10) 
COc1ccc(NC(=O)Cc2csc(=Nc3ccccc3O)[nH]2)cc1

>  <score_type>  (10) 
oracle

>  <origin>  (10) 
adgpu

>  <m_score__min__energy>  (10) 
-9.8900000000000006

>  <m_primary>  (10) 
energy

$$$$
10:0
     RDKit          3D

 40 42  0  0  0  0  0  0  0  0999 V2000
   -1.7170   22.7900  -30.2400 C   0  0  0  0  0  0  0  0  0  0  0  0
   -3.1600   23.0330  -30.5810 C   0  0  0  0  0  0  0  0  0  0  0  0
   -3.9250   22.0190  -31.1760 C   0  0  0  0  0  0  0  0  0  0  0  0
   -5.2710   22.2390  -31.4960 C   0  0  0  0  0  0  0  0  0  0  0  0
   -6.2240   20.9550  -32.2300 S   0  0  0  0  0  0  0  0  0  0  0  0
   -6.4170   19.8250  -31.2570 O   0  0  0  0  0  0  0  0  0  0  0  0
   -7.5710   21.4990  -32.6180 O   0  0  0  0  0  0  0  0  0  0  0  0
   -5.4260   20.3500  -33.6470 N   0  0  0  0  0  0  0  0  0  0  0  0
   -5.1010   18.9620  -33.8390 C   0  0  0  0  0  0  0  0  0  0  0  0
   -6.1070   18.0330  -34.1690 C   0  0  0  0  0  0  0  0  0  0  0  0
   -5.8160   16.6720  -34.2640 C   0  0  0  0  0  0  0  0  0  0  0  0
   -4.5220   16.2140  -34.0230 C   0  0  0  0  0  0  0  0  0  0  0  0
   -3.5110   17.1190  -33.7000 C   0  0  0  0  0  0  0  0  0  0  0  0
   -3.7810   18.4960  -33.6170 C   0  0  0  0  0  0  0  0  0  0  0  0
   -2.7010   19.4060  -33.3440 N   0  0  0  0  0  0  0  0  0  0  0  0
   -1.8180   19.3310  -32.3340 C   0  0  0  0  0  0  0  0  0  0  0  0
   -0.9080   20.3520  -32.4890 C   0  0  0  0  0  0  0  0  0  0  0  0
   -1.2040   21.0570  -33.6000 N   0  0  0  0  0  0  0  0  0  0  0  0
   -2.3000   20.4490  -34.1000 C   0  0  0  0  0  0  0  0  0  0  0  0
   -5.8530   23.4840  -31.2310 C   0  0  0  0  0  0  0  0  0  0  0  0
   -5.1010   24.5090  -30.6380 C   0  0  0  0  0  0  0  0  0  0  0  0
   -5.7310   25.8440  -30.3570 C   0  0  0  0  0  0  0  0  0  0  0  0
   -3.7510   24.2810  -30.3140 C   0  0  0  0  0  0  0  0  0  0  0  0
   -2.9970   25.2950  -29.7290 O   0  0  0  0  0  0  0  0  0  0  0  0
   -1.5970   22.7698  -29.1468 H   0  0  0  0  0  0  0  0  0  0  0  0
   -1.3980   21.8255  -30.6618 H   0  0  0  0  0  0  0  0  0  0  0  0
   -1.0997   23.5968  -30.6618 H   0  0  0  0  0  0  0  0  0  0  0  0
   -3.4646   21.0438  -31.3930 H   0  0  0  0  0  0  0  0  0  0  0  0
   -5.1970   21.0440  -34.3920 H   0  0  0  0  0  0  0  0  0  0  0  0
   -7.1329   18.3844  -34.3537 H   0  0  0  0  0  0  0  0  0  0  0  0
   -6.6099   15.9585  -34.5298 H   0  0  0  0  0  0  0  0  0  0  0  0
   -4.2980   15.1390  -34.0875 H   0  0  0  0  0  0  0  0  0  0  0  0
   -2.4921   16.7514  -33.5083 H   0  0  0  0  0  0  0  0  0  0  0  0
   -1.8217   18.5850  -31.5256 H   0  0  0  0  0  0  0  0  0  0  0  0
   -0.0678   20.5610  -31.8105 H   0  0  0  0  0  0  0  0  0  0  0  0
   -2.8096   20.7681  -35.0211 H   0  0  0  0  0  0  0  0  0  0  0  0
   -6.9076   23.6600  -31.4896 H   0  0  0  0  0  0  0  0  0  0  0  0
   -5.8020   25.9944  -29.2696 H   0  0  0  0  0  0  0  0  0  0  0  0
   -5.1139   26.6407  -30.7978 H   0  0  0  0  0  0  0  0  0  0  0  0
   -6.7384   25.8741  -30.7978 H   0  0  0  0  0  0  0  0  0  0  0  0
  1  2  1  0
  2  3  2  0
  3  4  1  0
  4  5  1  0
  5  6  2  0
  5  7  2  0
  5  8  1  0
  8  9  1  0
  9 10  2  0
 10 11  1  0
 11 12  2  0
 12 13  1  0
 13 14  2  0
 14 15  1  0
 15 16  1  0
 16 17  2  0
 17 18  1  0
 18 19  2  0
  4 20  2  0
 20 21  1  0
 21 22  1  0
 21 23  2  0
 23 24  1  0
 23  2  1  0
 14  9  1  0
 19 15  1  0
  1 25  1  0
  1 26  1  0
  1 27  1  0
  3 28  1  0
  8 29  1  0
 10 30  1  0
 11 31  1  0
 12 32  1  0
 13 33  1  0
 16 34  1  0
 17 35  1  0
 19 36  1  0
 20 37  1  0
 22 38  1  0
 22 39  1  0
 22 40  1  0
M  CHG  1  24  -1
M  END
>  <UniqueID>  (11) 
11

>  <SMILES>  (11) 
Cc1cc(S(=O)(=O)Nc2ccccc2-n2ccnc2)cc(C)c1[O-]

>  <Energy>  (11) 
80.80706547041386

>  <Genealogy>  (11) 
Cc1cc(S(=O)(=O)Nc2ccccc2-n2ccnc2)cc(C)c1[O-] (protonated)
Cc1cc(S(=O)(=O)Nc2ccccc2-n2ccnc2)cc(C)c1[O-] (3D coordinates assigned)
Cc1cc(S(=O)(=O)Nc2ccccc2-n2ccnc2)cc(C)c1[O-] (optimized conformer: 80.80706547041386 kcal/mol)

>  <smiles>  (11) 
Cc1cc(S(=O)(=O)Nc2ccccc2-n2ccnc2)cc(C)c1O

>  <score_type>  (11) 
oracle

>  <origin>  (11) 
adgpu

>  <m_score__min__energy>  (11) 
-10.93

>  <m_primary>  (11) 
energy

$$$$
11:0
     RDKit          3D

 35 38  0  0  0  0  0  0  0  0999 V2000
   -3.4840   25.2940  -30.4710 O   0  0  0  0  0  0  0  0  0  0  0  0
   -4.6910   24.6210  -30.6130 C   0  0  0  0  0  0  0  0  0  0  0  0
   -5.8910   25.2670  -30.3010 C   0  0  0  0  0  0  0  0  0  0  0  0
   -7.1050   24.5930  -30.4480 C   0  0  0  0  0  0  0  0  0  0  0  0
   -7.1240   23.2700  -30.9000 C   0  0  0  0  0  0  0  0  0  0  0  0
   -5.9220   22.6020  -31.2090 C   0  0  0  0  0  0  0  0  0  0  0  0
   -5.9190   21.2010  -31.6990 C   0  0  0  0  0  0  0  0  0  0  0  0
   -7.0700   20.3970  -31.6500 C   0  0  0  0  0  0  0  0  0  0  0  0
   -7.0160   19.0840  -32.1200 C   0  0  0  0  0  0  0  0  0  0  0  0
   -5.8190   18.5630  -32.6340 C   0  0  0  0  0  0  0  0  0  0  0  0
   -5.7490   17.1660  -33.1360 C   0  0  0  0  0  0  0  0  0  0  0  0
   -6.8710   16.5770  -33.7830 C   0  0  0  0  0  0  0  0  0  0  0  0
   -6.8160   15.2560  -34.2610 C   0  0  0  0  0  0  0  0  0  0  0  0
   -5.6320   14.5480  -34.0790 C   0  0  0  0  0  0  0  0  0  0  0  0
   -5.2940   13.2600  -34.4340 C   0  0  0  0  0  0  0  0  0  0  0  0
   -3.9840   13.0960  -33.9970 C   0  0  0  0  0  0  0  0  0  0  0  0
   -3.5310   14.2240  -33.4010 N   0  0  0  0  0  0  0  0  0  0  0  0
   -4.5460   15.1010  -33.4590 C   0  0  0  0  0  0  0  0  0  0  0  0
   -4.5650   16.4070  -32.9730 C   0  0  0  0  0  0  0  0  0  0  0  0
   -4.6880   19.3940  -32.6560 C   0  0  0  0  0  0  0  0  0  0  0  0
   -4.7660   20.6710  -32.1950 N   0  0  0  0  0  0  0  0  0  0  0  0
   -4.7060   23.2980  -31.0680 C   0  0  0  0  0  0  0  0  0  0  0  0
   -5.8788   26.3059  -29.9398 H   0  0  0  0  0  0  0  0  0  0  0  0
   -8.0489   25.1042  -30.2076 H   0  0  0  0  0  0  0  0  0  0  0  0
   -8.0845   22.7464  -31.0153 H   0  0  0  0  0  0  0  0  0  0  0  0
   -8.0091   20.8003  -31.2432 H   0  0  0  0  0  0  0  0  0  0  0  0
   -7.9171   18.4540  -32.0873 H   0  0  0  0  0  0  0  0  0  0  0  0
   -7.7933   17.1627  -33.9108 H   0  0  0  0  0  0  0  0  0  0  0  0
   -7.6808   14.7971  -34.7625 H   0  0  0  0  0  0  0  0  0  0  0  0
   -5.9241   12.5214  -34.9512 H   0  0  0  0  0  0  0  0  0  0  0  0
   -3.3956   12.1746  -34.1191 H   0  0  0  0  0  0  0  0  0  0  0  0
   -2.5870   14.3770  -32.9840 H   0  0  0  0  0  0  0  0  0  0  0  0
   -3.6831   16.8369  -32.4757 H   0  0  0  0  0  0  0  0  0  0  0  0
   -3.7344   19.0106  -33.0479 H   0  0  0  0  0  0  0  0  0  0  0  0
   -3.7592   22.7969  -31.3179 H   0  0  0  0  0  0  0  0  0  0  0  0
  1  2  1  0
  2  3  2  0
  3  4  1  0
  4  5  2  0
  5  6  1  0
  6  7  1  0
  7  8  2  0
  8  9  1  0
  9 10  2  0
 10 11  1  0
 11 12  2  0
 12 13  1  0
 13 14  2  0
 14 15  1  0
 15 16  2  0
 16 17  1  0
 17 18  1  0
 18 19  2  0
 10 20  1  0
 20 21  2  0
  6 22  2  0
 22  2  1  0
 21  7  1  0
 19 11  1  0
 18 14  1  0
  3 23  1  0
  4 24  1  0
  5 25  1  0
  8 26  1  0
  9 27  1  0
 12 28  1  0
 13 29  1  0
 15 30  1  0
 16 31  1  0
 17 32  1  0
 19 33  1  0
 20 34  1  0
 22 35  1  0
M  CHG  1   1  -1
M  END
>  <UniqueID>  (12) 
12

>  <SMILES>  (12) 
[O-]c1cccc(-c2ccc(-c3ccc4cc[nH]c4c3)cn2)c1

>  <Energy>  (12) 
82.35793822266655

>  <Genealogy>  (12) 
[O-]c1cccc(-c2ccc(-c3ccc4cc[nH]c4c3)cn2)c1 (protonated)
[O-]c1cccc(-c2ccc(-c3ccc4cc[nH]c4c3)cn2)c1 (3D coordinates assigned)
[O-]c1cccc(-c2ccc(-c3ccc4cc[nH]c4c3)cn2)c1 (optimized conformer: 82.35793822266655 kcal/mol)

>  <smiles>  (12) 
Oc1cccc(-c2ccc(-c3ccc4cc[nH]c4c3)cn2)c1

>  <score_type>  (12) 
oracle

>  <origin>  (12) 
adgpu

>  <m_score__min__energy>  (12) 
-10.880000000000001

>  <m_primary>  (12) 
energy

$$$$
12:0
     RDKit          3D

 45 47  0  0  0  0  0  0  0  0999 V2000
   -2.6540   20.8880  -27.5690 C   0  0  0  0  0  0  0  0  0  0  0  0
   -1.9410   20.6380  -28.8540 C   0  0  0  0  0  0  0  0  0  0  0  0
   -2.4670   20.8400  -30.1160 C   0  0  0  0  0  0  0  0  0  0  0  0
   -1.4560   20.4960  -30.9860 C   0  0  0  0  0  0  0  0  0  0  0  0
   -1.5270   20.5580  -32.7400 S   0  0  0  0  0  0  0  0  0  0  0  0
   -2.4190   21.6940  -33.1570 O   0  0  0  0  0  0  0  0  0  0  0  0
   -0.1410   20.7550  -33.2840 O   0  0  0  0  0  0  0  0  0  0  0  0
   -2.1790   19.0640  -33.3320 N   0  0  0  0  0  0  0  0  0  0  0  0
   -3.5670   18.8100  -33.5820 C   0  0  0  0  0  0  0  0  0  0  0  0
   -3.9990   17.9810  -34.6310 C   0  0  0  0  0  0  0  0  0  0  0  0
   -5.3620   17.7570  -34.8340 C   0  0  0  0  0  0  0  0  0  0  0  0
   -6.3060   18.3640  -34.0020 C   0  0  0  0  0  0  0  0  0  0  0  0
   -5.8940   19.2110  -32.9600 C   0  0  0  0  0  0  0  0  0  0  0  0
   -6.9030   19.8460  -32.0770 C   0  0  0  0  0  0  0  0  0  0  0  0
   -7.8260   19.1310  -31.5970 O   0  0  0  0  0  0  0  0  0  0  0  0
   -6.8670   21.2900  -31.7380 C   0  0  0  0  0  0  0  0  0  0  0  0
   -8.0200   22.0780  -31.8940 C   0  0  0  0  0  0  0  0  0  0  0  0
   -7.9960   23.4390  -31.5780 C   0  0  0  0  0  0  0  0  0  0  0  0
   -6.8190   24.0300  -31.1110 C   0  0  0  0  0  0  0  0  0  0  0  0
   -5.6550   23.2650  -30.9740 C   0  0  0  0  0  0  0  0  0  0  0  0
   -4.1670   23.9930  -30.3760 S   0  0  0  0  0  0  0  0  0  0  0  0
   -4.2540   25.7090  -30.5590 N   0  0  0  0  0  0  0  0  0  0  0  0
   -2.9880   23.4720  -31.1490 O   0  0  0  0  0  0  0  0  0  0  0  0
   -3.9850   23.6480  -28.9240 O   0  0  0  0  0  0  0  0  0  0  0  0
   -5.6800   21.9000  -31.2930 C   0  0  0  0  0  0  0  0  0  0  0  0
   -4.5180   19.4130  -32.7480 C   0  0  0  0  0  0  0  0  0  0  0  0
   -0.3810   20.1080  -30.2070 C   0  0  0  0  0  0  0  0  0  0  0  0
    0.9550   19.6550  -30.6980 C   0  0  0  0  0  0  0  0  0  0  0  0
   -0.7010   20.2070  -28.9370 O   0  0  0  0  0  0  0  0  0  0  0  0
   -1.9857   20.6537  -26.7273 H   0  0  0  0  0  0  0  0  0  0  0  0
   -2.9540   21.9450  -27.5158 H   0  0  0  0  0  0  0  0  0  0  0  0
   -3.5484   20.2498  -27.5158 H   0  0  0  0  0  0  0  0  0  0  0  0
   -3.4754   21.1982  -30.3707 H   0  0  0  0  0  0  0  0  0  0  0  0
   -3.2608   17.5069  -35.2945 H   0  0  0  0  0  0  0  0  0  0  0  0
   -5.6938   17.1004  -35.6518 H   0  0  0  0  0  0  0  0  0  0  0  0
   -7.3779   18.1776  -34.1639 H   0  0  0  0  0  0  0  0  0  0  0  0
   -8.9479   21.6203  -32.2675 H   0  0  0  0  0  0  0  0  0  0  0  0
   -8.9054   24.0463  -31.6971 H   0  0  0  0  0  0  0  0  0  0  0  0
   -6.8073   25.0987  -30.8505 H   0  0  0  0  0  0  0  0  0  0  0  0
   -3.4930   25.9860  -31.2180 H   0  0  0  0  0  0  0  0  0  0  0  0
   -4.7630   21.3005  -31.1944 H   0  0  0  0  0  0  0  0  0  0  0  0
   -4.1845   20.0522  -31.9172 H   0  0  0  0  0  0  0  0  0  0  0  0
    1.6058   19.4343  -29.8391 H   0  0  0  0  0  0  0  0  0  0  0  0
    0.8331   18.7480  -31.3083 H   0  0  0  0  0  0  0  0  0  0  0  0
    1.4099   20.4491  -31.3083 H   0  0  0  0  0  0  0  0  0  0  0  0
  1  2  1  0
  2  3  2  0
  3  4  1  0
  4  5  1  0
  5  6  2  0
  5  7  2  0
  5  8  1  0
  8  9  1  0
  9 10  2  0
 10 11  1  0
 11 12  2  0
 12 13  1  0
 13 14  1  0
 14 15  2  0
 14 16  1  0
 16 17  2  0
 17 18  1  0
 18 19  2  0
 19 20  1  0
 20 21  1  0
 21 22  1  0
 21 23  2  0
 21 24  2  0
 20 25  2  0
 13 26  2  0
  4 27  2  0
 27 28  1  0
 27 29  1  0
 29  2  1  0
 26  9  1  0
 25 16  1  0
  1 30  1  0
  1 31  1  0
  1 32  1  0
  3 33  1  0
 10 34  1  0
 11 35  1  0
 12 36  1  0
 17 37  1  0
 18 38  1  0
 19 39  1  0
 22 40  1  0
 25 41  1  0
 26 42  1  0
 28 43  1  0
 28 44  1  0
 28 45  1  0
M  CHG  2   8  -1  22  -1
M  END
>  <UniqueID>  (13) 
13

>  <SMILES>  (13) 
Cc1cc(S(=O)(=O)[N-]c2cccc(C(=O)c3cccc(S([NH-])(=O)=O)c3)c2)c(C)o1

>  <Energy>  (13) 
80.45322397342653

>  <Genealogy>  (13) 
Cc1cc(S(=O)(=O)[N-]c2cccc(C(=O)c3cccc(S([NH-])(=O)=O)c3)c2)c(C)o1 (protonated)
Cc1cc(S(=O)(=O)[N-]c2cccc(C(=O)c3cccc(S([NH-])(=O)=O)c3)c2)c(C)o1 (3D coordinates assigned)
Cc1cc(S(=O)(=O)[N-]c2cccc(C(=O)c3cccc(S([NH-])(=O)=O)c3)c2)c(C)o1 (optimized conformer: 80.45322397342653 kcal/mol)

>  <smiles>  (13) 
Cc1cc(S(=O)(=O)Nc2cccc(C(=O)c3cccc(S(N)(=O)=O)c3)c2)c(C)o1

>  <score_type>  (13) 
oracle

>  <origin>  (13) 
adgpu

>  <m_score__min__energy>  (13) 
-11.779999999999999

>  <m_primary>  (13) 
energy

$$$$
13:0
     RDKit          3D

 59 62  0  0  0  0  0  0  0  0999 V2000
   -0.7770   26.0880  -23.6650 C   0  0  0  0  0  0  0  0  0  0  0  0
   -0.8780   26.0200  -25.1600 C   0  0  0  0  0  0  0  0  0  0  0  0
    0.0560   26.6880  -25.9630 C   0  0  0  0  0  0  0  0  0  0  0  0
   -0.0660   26.6630  -27.3530 C   0  0  0  0  0  0  0  0  0  0  0  0
   -1.1260   25.9790  -27.9590 C   0  0  0  0  0  0  0  0  0  0  0  0
   -1.2410   26.0150  -29.3440 O   0  0  0  0  0  0  0  0  0  0  0  0
   -2.0720   25.2950  -27.1660 C   0  0  0  0  0  0  0  0  0  0  0  0
   -3.2040   24.5530  -27.7730 C   0  0  0  0  0  0  0  0  0  0  0  0
   -3.9690   23.8750  -27.0310 O   0  0  0  0  0  0  0  0  0  0  0  0
   -3.3930   24.5370  -29.1970 N   0  0  0  0  0  0  0  0  0  0  0  0
   -4.6360   24.1970  -29.8350 C   0  0  0  0  0  0  0  0  0  0  0  0
   -5.0970   24.8980  -30.9650 C   0  0  0  0  0  0  0  0  0  0  0  0
   -6.2980   24.5340  -31.5810 C   0  0  0  0  0  0  0  0  0  0  0  0
   -7.0440   23.4600  -31.0840 C   0  0  0  0  0  0  0  0  0  0  0  0
   -8.5750   22.9720  -31.8780 S   0  0  0  0  0  0  0  0  0  0  0  0
   -8.0670   21.2580  -32.0220 C   0  0  0  0  0  0  0  0  0  0  0  0
   -8.8740   20.2470  -31.4950 C   0  0  0  0  0  0  0  0  0  0  0  0
   -8.4800   18.9130  -31.6080 C   0  0  0  0  0  0  0  0  0  0  0  0
   -7.2810   18.5840  -32.2470 C   0  0  0  0  0  0  0  0  0  0  0  0
   -6.4550   19.5920  -32.7820 C   0  0  0  0  0  0  0  0  0  0  0  0
   -5.2060   19.2250  -33.5040 C   0  0  0  0  0  0  0  0  0  0  0  0
   -4.3830   20.1290  -33.8200 O   0  0  0  0  0  0  0  0  0  0  0  0
   -4.8830   17.8570  -33.8090 N   0  0  0  0  0  0  0  0  0  0  0  0
   -3.5270   17.3760  -33.5280 C   0  0  0  0  0  0  0  0  0  0  0  0
   -3.4040   15.8730  -33.8230 C   0  0  0  0  0  0  0  0  0  0  0  0
   -4.6300   15.1360  -33.4520 N   0  0  0  0  0  0  0  0  0  0  0  0
   -4.8500   15.1320  -31.9940 C   0  0  0  0  0  0  0  0  0  0  0  0
   -5.8300   15.6000  -34.1960 C   0  0  0  0  0  0  0  0  0  0  0  0
   -5.7440   17.0620  -34.6870 C   0  0  0  0  0  0  0  0  0  0  0  0
   -6.8700   20.9330  -32.6730 C   0  0  0  0  0  0  0  0  0  0  0  0
   -6.5860   22.7520  -29.9680 C   0  0  0  0  0  0  0  0  0  0  0  0
   -5.3820   23.1100  -29.3540 C   0  0  0  0  0  0  0  0  0  0  0  0
   -1.9470   25.3420  -25.7640 C   0  0  0  0  0  0  0  0  0  0  0  0
   -1.6098   25.5273  -23.2154 H   0  0  0  0  0  0  0  0  0  0  0  0
    0.1780   25.6482  -23.3416 H   0  0  0  0  0  0  0  0  0  0  0  0
   -0.8252   27.1383  -23.3416 H   0  0  0  0  0  0  0  0  0  0  0  0
    0.8887   27.2343  -25.4959 H   0  0  0  0  0  0  0  0  0  0  0  0
    0.6756   27.1842  -27.9762 H   0  0  0  0  0  0  0  0  0  0  0  0
   -2.5530   24.6790  -29.8020 H   0  0  0  0  0  0  0  0  0  0  0  0
   -4.5091   25.7369  -31.3657 H   0  0  0  0  0  0  0  0  0  0  0  0
   -6.6569   25.0929  -32.4578 H   0  0  0  0  0  0  0  0  0  0  0  0
   -9.8184   20.5019  -30.9918 H   0  0  0  0  0  0  0  0  0  0  0  0
   -9.1156   18.1171  -31.1925 H   0  0  0  0  0  0  0  0  0  0  0  0
   -6.9800   17.5295  -32.3328 H   0  0  0  0  0  0  0  0  0  0  0  0
   -2.8124   17.9260  -34.1580 H   0  0  0  0  0  0  0  0  0  0  0  0
   -3.3095   17.5431  -32.4628 H   0  0  0  0  0  0  0  0  0  0  0  0
   -3.2184   15.7358  -34.8985 H   0  0  0  0  0  0  0  0  0  0  0  0
   -2.5725   15.4750  -33.2229 H   0  0  0  0  0  0  0  0  0  0  0  0
   -3.8794   15.1496  -31.4767 H   0  0  0  0  0  0  0  0  0  0  0  0
   -5.4337   16.0197  -31.7088 H   0  0  0  0  0  0  0  0  0  0  0  0
   -5.4010   14.2237  -31.7088 H   0  0  0  0  0  0  0  0  0  0  0  0
   -5.9657   14.9491  -35.0723 H   0  0  0  0  0  0  0  0  0  0  0  0
   -6.6756   15.5513  -33.4942 H   0  0  0  0  0  0  0  0  0  0  0  0
   -5.3306   17.0761  -35.7063 H   0  0  0  0  0  0  0  0  0  0  0  0
   -6.7544   17.4967  -34.6769 H   0  0  0  0  0  0  0  0  0  0  0  0
   -6.2488   21.7325  -33.1029 H   0  0  0  0  0  0  0  0  0  0  0  0
   -7.1747   21.9112  -29.5723 H   0  0  0  0  0  0  0  0  0  0  0  0
   -5.0174   22.5364  -28.4891 H   0  0  0  0  0  0  0  0  0  0  0  0
   -2.6972   24.8407  -25.1348 H   0  0  0  0  0  0  0  0  0  0  0  0
  1  2  1  0
  2  3  2  0
  3  4  1  0
  4  5  2  0
  5  6  1  0
  5  7  1  0
  7  8  1  0
  8  9  2  0
  8 10  1  0
 10 11  1  0
 11 12  2  0
 12 13  1  0
 13 14  2  0
 14 15  1  0
 15 16  1  0
 16 17  2  0
 17 18  1  0
 18 19  2  0
 19 20  1  0
 20 21  1  0
 21 22  2  0
 21 23  1  0
 23 24  1  0
 24 25  1  0
 25 26  1  0
 26 27  1  0
 26 28  1  0
 28 29  1  0
 20 30  2  0
 14 31  1  0
 31 32  2  0
  7 33  2  0
 33  2  1  0
 32 11  1  0
 30 16  1  0
 29 23  1  0
  1 34  1  0
  1 35  1  0
  1 36  1  0
  3 37  1  0
  4 38  1  0
 10 39  1  0
 12 40  1  0
 13 41  1  0
 17 42  1  0
 18 43  1  0
 19 44  1  0
 24 45  1  0
 24 46  1  0
 25 47  1  0
 25 48  1  0
 27 49  1  0
 27 50  1  0
 27 51  1  0
 28 52  1  0
 28 53  1  0
 29 54  1  0
 29 55  1  0
 30 56  1  0
 31 57  1  0
 32 58  1  0
 33 59  1  0
M  CHG  1   6  -1
M  END
>  <UniqueID>  (14) 
14

>  <SMILES>  (14) 
Cc1ccc([O-])c(C(=O)Nc2ccc(Sc3cccc(C(=O)N4CCN(C)CC4)c3)cc2)c1

>  <Energy>  (14) 
75.47496631535199

>  <Genealogy>  (14) 
Cc1ccc([O-])c(C(=O)Nc2ccc(Sc3cccc(C(=O)N4CCN(C)CC4)c3)cc2)c1 (protonated)
Cc1ccc([O-])c(C(=O)Nc2ccc(Sc3cccc(C(=O)N4CCN(C)CC4)c3)cc2)c1 (3D coordinates assigned)
Cc1ccc([O-])c(C(=O)Nc2ccc(Sc3cccc(C(=O)N4CCN(C)CC4)c3)cc2)c1 (nonaromatic ring conformer: 75.47496631535199 kcal/mol)

>  <smiles>  (14) 
Cc1ccc(O)c(C(=O)Nc2ccc(Sc3cccc(C(=O)N4CCN(C)CC4)c3)cc2)c1

>  <score_type>  (14) 
oracle

>  <origin>  (14) 
adgpu

>  <m_score__min__energy>  (14) 
-14.17

>  <m_primary>  (14) 
energy

$$$$
14:0
     RDKit          3D

 52 55  0  0  0  0  0  0  0  0999 V2000
   -6.5140   17.7930  -33.4750 C   0  0  0  0  0  0  0  0  0  0  0  0
   -6.0780   18.1830  -34.6760 C   0  0  0  0  0  0  0  0  0  0  0  0
   -4.7770   17.6870  -35.2430 C   0  0  0  0  0  0  0  0  0  0  0  0
   -3.6510   17.8560  -34.2500 C   0  0  0  0  0  0  0  0  0  0  0  0
   -3.2840   19.1550  -33.8570 C   0  0  0  0  0  0  0  0  0  0  0  0
   -2.2490   19.3570  -32.9340 C   0  0  0  0  0  0  0  0  0  0  0  0
   -1.8900   20.6530  -32.5400 C   0  0  0  0  0  0  0  0  0  0  0  0
   -0.8930   20.8440  -31.5820 C   0  0  0  0  0  0  0  0  0  0  0  0
   -0.2450   19.7430  -30.9970 C   0  0  0  0  0  0  0  0  0  0  0  0
    0.7320   19.9490  -29.8590 C   0  0  0  0  0  0  0  0  0  0  0  0
    0.0920   20.1930  -28.5400 N   0  0  0  0  0  0  0  0  0  0  0  0
   -1.2530   19.6160  -28.3490 C   0  0  0  0  0  0  0  0  0  0  0  0
   -2.3970   20.4940  -28.8960 C   0  0  0  0  0  0  0  0  0  0  0  0
   -2.0770   21.9660  -28.9790 C   0  0  0  0  0  0  0  0  0  0  0  0
   -3.0210   22.8310  -29.5520 C   0  0  0  0  0  0  0  0  0  0  0  0
   -2.7480   24.2050  -29.6870 C   0  0  0  0  0  0  0  0  0  0  0  0
   -3.6630   25.0960  -30.2690 O   0  0  0  0  0  0  0  0  0  0  0  0
   -5.0760   24.9210  -30.2560 C   0  0  0  0  0  0  0  0  0  0  0  0
   -1.5230   24.7070  -29.2280 C   0  0  0  0  0  0  0  0  0  0  0  0
   -1.2380   26.0620  -29.3480 O   0  0  0  0  0  0  0  0  0  0  0  0
   -0.5790   23.8510  -28.6550 C   0  0  0  0  0  0  0  0  0  0  0  0
   -0.8370   22.4770  -28.5510 C   0  0  0  0  0  0  0  0  0  0  0  0
    0.2140   21.5550  -27.9910 C   0  0  0  0  0  0  0  0  0  0  0  0
   -0.5470   18.4490  -31.4500 C   0  0  0  0  0  0  0  0  0  0  0  0
   -1.5660   18.2470  -32.3910 C   0  0  0  0  0  0  0  0  0  0  0  0
   -1.9340   16.9510  -32.7770 C   0  0  0  0  0  0  0  0  0  0  0  0
   -2.9760   16.7450  -33.6880 C   0  0  0  0  0  0  0  0  0  0  0  0
   -3.3140   15.4290  -34.0070 O   0  0  0  0  0  0  0  0  0  0  0  0
   -7.4704   18.1734  -33.0869 H   0  0  0  0  0  0  0  0  0  0  0  0
   -5.9166   17.0915  -32.8742 H   0  0  0  0  0  0  0  0  0  0  0  0
   -6.6864   18.8850  -35.2651 H   0  0  0  0  0  0  0  0  0  0  0  0
   -4.8777   16.6207  -35.4938 H   0  0  0  0  0  0  0  0  0  0  0  0
   -4.5410   18.2752  -36.1421 H   0  0  0  0  0  0  0  0  0  0  0  0
   -3.8146   20.0216  -34.2783 H   0  0  0  0  0  0  0  0  0  0  0  0
   -2.3952   21.5220  -32.9868 H   0  0  0  0  0  0  0  0  0  0  0  0
   -0.6123   21.8646  -31.2826 H   0  0  0  0  0  0  0  0  0  0  0  0
    1.3593   19.0492  -29.7763 H   0  0  0  0  0  0  0  0  0  0  0  0
    1.3106   20.8528  -30.1004 H   0  0  0  0  0  0  0  0  0  0  0  0
   -1.2880   18.6436  -28.8620 H   0  0  0  0  0  0  0  0  0  0  0  0
   -1.4103   19.5290  -27.2638 H   0  0  0  0  0  0  0  0  0  0  0  0
   -2.6472   20.1401  -29.9070 H   0  0  0  0  0  0  0  0  0  0  0  0
   -3.2307   20.3967  -28.1850 H   0  0  0  0  0  0  0  0  0  0  0  0
   -3.9850   22.4311  -29.8995 H   0  0  0  0  0  0  0  0  0  0  0  0
   -5.4305   24.8771  -29.2156 H   0  0  0  0  0  0  0  0  0  0  0  0
   -5.5550   25.7667  -30.7712 H   0  0  0  0  0  0  0  0  0  0  0  0
   -5.3342   23.9840  -30.7712 H   0  0  0  0  0  0  0  0  0  0  0  0
    0.3729   24.2579  -28.2830 H   0  0  0  0  0  0  0  0  0  0  0  0
    1.2081   21.9531  -28.2424 H   0  0  0  0  0  0  0  0  0  0  0  0
    0.0761   21.4993  -26.9011 H   0  0  0  0  0  0  0  0  0  0  0  0
    0.0194   17.5886  -31.0642 H   0  0  0  0  0  0  0  0  0  0  0  0
   -1.3978   16.0861  -32.3592 H   0  0  0  0  0  0  0  0  0  0  0  0
   -2.6320   14.6890  -34.1180 H   0  0  0  0  0  0  0  0  0  0  0  0
  1  2  2  0
  2  3  1  0
  3  4  1  0
  4  5  2  0
  5  6  1  0
  6  7  2  0
  7  8  1  0
  8  9  2  0
  9 10  1  0
 10 11  1  0
 11 12  1  0
 12 13  1  0
 13 14  1  0
 14 15  2  0
 15 16  1  0
 16 17  1  0
 17 18  1  0
 16 19  2  0
 19 20  1  0
 19 21  1  0
 21 22  2  0
 22 23  1  0
  9 24  1  0
 24 25  2  0
 25 26  1  0
 26 27  2  0
 27 28  1  0
 27  4  1  0
 25  6  1  0
 23 11  1  0
 22 14  1  0
  1 29  1  0
  1 30  1  0
  2 31  1  0
  3 32  1  0
  3 33  1  0
  5 34  1  0
  7 35  1  0
  8 36  1  0
 10 37  1  0
 10 38  1  0
 12 39  1  0
 12 40  1  0
 13 41  1  0
 13 42  1  0
 15 43  1  0
 18 44  1  0
 18 45  1  0
 18 46  1  0
 21 47  1  0
 23 48  1  0
 23 49  1  0
 24 50  1  0
 26 51  1  0
 28 52  1  0
M  CHG  1  20  -1
M  END
>  <UniqueID>  (15) 
15

>  <SMILES>  (15) 
C=CCc1cc2ccc(CN3CCc4cc(OC)c([O-])cc4C3)cc2cc1O

>  <Energy>  (15) 
63.21867890672965

>  <Genealogy>  (15) 
C=CCc1cc2ccc(CN3CCc4cc(OC)c([O-])cc4C3)cc2cc1O (protonated)
C=CCc1cc2ccc(CN3CCc4cc(OC)c([O-])cc4C3)cc2cc1O (3D coordinates assigned)
C=CCc1cc2ccc(CN3CCc4cc(OC)c([O-])cc4C3)cc2cc1O (nonaromatic ring conformer: 63.21867890672965 kcal/mol)

>  <smiles>  (15) 
C=CCc1cc2ccc(CN3CCc4cc(OC)c(O)cc4C3)cc2cc1O

>  <score_type>  (15) 
oracle

>  <origin>  (15) 
adgpu

>  <m_score__min__energy>  (15) 
-10.550000000000001

>  <m_primary>  (15) 
energy

$$$$
15:0
     RDKit          3D

 41 43  0  0  0  0  0  0  0  0999 V2000
   -4.1110   22.2680  -27.6640 N   0  0  0  0  0  0  0  0  0  0  0  0
   -2.3810   22.2220  -27.6770 S   0  0  0  0  0  0  0  0  0  0  0  0
   -1.9110   21.3160  -26.5740 O   0  0  0  0  0  0  0  0  0  0  0  0
   -1.9140   21.6850  -29.0010 O   0  0  0  0  0  0  0  0  0  0  0  0
   -1.7090   23.8390  -27.4340 C   0  0  0  0  0  0  0  0  0  0  0  0
   -1.1270   24.1760  -26.2000 C   0  0  0  0  0  0  0  0  0  0  0  0
   -0.5860   25.4470  -25.9960 C   0  0  0  0  0  0  0  0  0  0  0  0
   -0.6220   26.3940  -27.0200 C   0  0  0  0  0  0  0  0  0  0  0  0
   -1.2090   26.0770  -28.2460 C   0  0  0  0  0  0  0  0  0  0  0  0
   -1.7600   24.8010  -28.4670 C   0  0  0  0  0  0  0  0  0  0  0  0
   -2.3800   24.4560  -29.7150 N   0  0  0  0  0  0  0  0  0  0  0  0
   -4.0860   24.4650  -30.0300 S   0  0  0  0  0  0  0  0  0  0  0  0
   -4.8260   24.5370  -28.7260 O   0  0  0  0  0  0  0  0  0  0  0  0
   -4.4270   25.6760  -30.8540 O   0  0  0  0  0  0  0  0  0  0  0  0
   -4.5480   22.9870  -30.8660 C   0  0  0  0  0  0  0  0  0  0  0  0
   -5.8940   22.6000  -30.9020 C   0  0  0  0  0  0  0  0  0  0  0  0
   -6.2710   21.4230  -31.5550 C   0  0  0  0  0  0  0  0  0  0  0  0
   -5.3060   20.6150  -32.1840 C   0  0  0  0  0  0  0  0  0  0  0  0
   -5.7050   19.3690  -32.8860 C   0  0  0  0  0  0  0  0  0  0  0  0
   -5.1700   19.0550  -34.1500 C   0  0  0  0  0  0  0  0  0  0  0  0
   -5.5420   17.8760  -34.8040 C   0  0  0  0  0  0  0  0  0  0  0  0
   -6.4500   16.9990  -34.2060 C   0  0  0  0  0  0  0  0  0  0  0  0
   -6.9910   17.3010  -32.9540 C   0  0  0  0  0  0  0  0  0  0  0  0
   -6.6220   18.4770  -32.2950 C   0  0  0  0  0  0  0  0  0  0  0  0
   -3.9560   21.0120  -32.1440 C   0  0  0  0  0  0  0  0  0  0  0  0
   -3.5820   22.1890  -31.4910 C   0  0  0  0  0  0  0  0  0  0  0  0
   -4.3900   23.1260  -27.1360 H   0  0  0  0  0  0  0  0  0  0  0  0
   -4.4200   22.4100  -28.6510 H   0  0  0  0  0  0  0  0  0  0  0  0
   -1.0974   23.4333  -25.3891 H   0  0  0  0  0  0  0  0  0  0  0  0
   -0.1312   25.7018  -25.0274 H   0  0  0  0  0  0  0  0  0  0  0  0
   -0.1872   27.3918  -26.8609 H   0  0  0  0  0  0  0  0  0  0  0  0
   -1.2412   26.8310  -29.0463 H   0  0  0  0  0  0  0  0  0  0  0  0
   -6.6570   23.2247  -30.4146 H   0  0  0  0  0  0  0  0  0  0  0  0
   -7.3300   21.1262  -31.5773 H   0  0  0  0  0  0  0  0  0  0  0  0
   -4.4547   19.7416  -34.6263 H   0  0  0  0  0  0  0  0  0  0  0  0
   -5.1187   17.6389  -35.7912 H   0  0  0  0  0  0  0  0  0  0  0  0
   -6.7389   16.0708  -34.7208 H   0  0  0  0  0  0  0  0  0  0  0  0
   -7.7090   16.6117  -32.4857 H   0  0  0  0  0  0  0  0  0  0  0  0
   -7.0502   18.7078  -31.3084 H   0  0  0  0  0  0  0  0  0  0  0  0
   -3.1897   20.3907  -32.6306 H   0  0  0  0  0  0  0  0  0  0  0  0
   -2.5243   22.4901  -31.4677 H   0  0  0  0  0  0  0  0  0  0  0  0
  1  2  1  0
  2  3  2  0
  2  4  2  0
  2  5  1  0
  5  6  2  0
  6  7  1  0
  7  8  2  0
  8  9  1  0
  9 10  2  0
 10 11  1  0
 11 12  1  0
 12 13  2  0
 12 14  2  0
 12 15  1  0
 15 16  2  0
 16 17  1  0
 17 18  2  0
 18 19  1  0
 19 20  2  0
 20 21  1  0
 21 22  2  0
 22 23  1  0
 23 24  2  0
 18 25  1  0
 25 26  2  0
 10  5  1  0
 26 15  1  0
 24 19  1  0
  1 27  1  0
  1 28  1  0
  6 29  1  0
  7 30  1  0
  8 31  1  0
  9 32  1  0
 16 33  1  0
 17 34  1  0
 20 35  1  0
 21 36  1  0
 22 37  1  0
 23 38  1  0
 24 39  1  0
 25 40  1  0
 26 41  1  0
M  CHG  1  11  -1
M  END
>  <UniqueID>  (16) 
16

>  <SMILES>  (16) 
NS(=O)(=O)c1ccccc1[N-]S(=O)(=O)c1ccc(-c2ccccc2)cc1

>  <Energy>  (16) 
51.74716412630134

>  <Genealogy>  (16) 
NS(=O)(=O)c1ccccc1[N-]S(=O)(=O)c1ccc(-c2ccccc2)cc1 (protonated)
NS(=O)(=O)c1ccccc1[N-]S(=O)(=O)c1ccc(-c2ccccc2)cc1 (3D coordinates assigned)
NS(=O)(=O)c1ccccc1[N-]S(=O)(=O)c1ccc(-c2ccccc2)cc1 (optimized conformer: 51.74716412630134 kcal/mol)

>  <smiles>  (16) 
NS(=O)(=O)c1ccccc1NS(=O)(=O)c1ccc(-c2ccccc2)cc1

>  <score_type>  (16) 
oracle

>  <origin>  (16) 
adgpu

>  <m_score__min__energy>  (16) 
-10.41

>  <m_primary>  (16) 
energy

$$$$
16:0
     RDKit          3D

 53 56  0  0  0  0  0  0  0  0999 V2000
   -7.4910   19.1200  -32.0360 C   0  0  0  0  0  0  0  0  0  0  0  0
   -7.5600   20.6120  -31.8960 C   0  0  0  0  0  0  0  0  0  0  0  0
   -8.7750   21.2810  -32.1080 C   0  0  0  0  0  0  0  0  0  0  0  0
   -8.8540   22.6650  -31.9430 C   0  0  0  0  0  0  0  0  0  0  0  0
   -7.7260   23.3910  -31.5530 C   0  0  0  0  0  0  0  0  0  0  0  0
   -6.5030   22.7370  -31.3240 C   0  0  0  0  0  0  0  0  0  0  0  0
   -5.3090   23.5060  -30.9080 C   0  0  0  0  0  0  0  0  0  0  0  0
   -5.0710   24.7800  -31.2750 N   0  0  0  0  0  0  0  0  0  0  0  0
   -3.9260   25.1130  -30.7100 N   0  0  0  0  0  0  0  0  0  0  0  0
   -3.4830   24.0490  -30.0130 C   0  0  0  0  0  0  0  0  0  0  0  0
   -2.2220   24.0010  -29.2360 C   0  0  0  0  0  0  0  0  0  0  0  0
   -1.6450   25.1690  -28.7000 C   0  0  0  0  0  0  0  0  0  0  0  0
   -0.4550   25.1000  -27.9680 C   0  0  0  0  0  0  0  0  0  0  0  0
    0.1770   23.8690  -27.7670 C   0  0  0  0  0  0  0  0  0  0  0  0
    1.7030   23.7820  -26.8250 S   0  0  0  0  0  0  0  0  0  0  0  0
    1.8100   25.5810  -26.4930 C   0  0  0  0  0  0  0  0  0  0  0  0
    1.8290   25.9080  -24.9930 C   0  0  0  0  0  0  0  0  0  0  0  0
    1.1830   27.2110  -24.7040 N   0  0  0  0  0  0  0  0  0  0  0  0
    0.3740   27.7330  -25.8390 C   0  0  0  0  0  0  0  0  0  0  0  0
   -1.1510   27.6150  -25.6360 C   0  0  0  0  0  0  0  0  0  0  0  0
   -1.5040   26.3610  -24.8400 C   0  0  0  0  0  0  0  0  0  0  0  0
   -0.8360   26.3730  -23.4560 C   0  0  0  0  0  0  0  0  0  0  0  0
    0.4490   27.2260  -23.4190 C   0  0  0  0  0  0  0  0  0  0  0  0
   -0.3950   22.7030  -28.2830 C   0  0  0  0  0  0  0  0  0  0  0  0
   -1.5840   22.7660  -29.0130 C   0  0  0  0  0  0  0  0  0  0  0  0
   -4.3340   23.0080  -30.1160 N   0  0  0  0  0  0  0  0  0  0  0  0
   -6.4310   21.3420  -31.4920 C   0  0  0  0  0  0  0  0  0  0  0  0
   -7.4697   18.6586  -31.0377 H   0  0  0  0  0  0  0  0  0  0  0  0
   -8.3736   18.7622  -32.5865 H   0  0  0  0  0  0  0  0  0  0  0  0
   -6.5792   18.8452  -32.5865 H   0  0  0  0  0  0  0  0  0  0  0  0
   -9.6687   20.7128  -32.4054 H   0  0  0  0  0  0  0  0  0  0  0  0
   -9.8068   23.1852  -32.1205 H   0  0  0  0  0  0  0  0  0  0  0  0
   -7.7953   24.4812  -31.4243 H   0  0  0  0  0  0  0  0  0  0  0  0
   -3.4740   26.0470  -30.8210 H   0  0  0  0  0  0  0  0  0  0  0  0
   -2.1335   26.1418  -28.8581 H   0  0  0  0  0  0  0  0  0  0  0  0
   -0.0150   26.0170  -27.5492 H   0  0  0  0  0  0  0  0  0  0  0  0
    2.7329   25.9685  -26.9491 H   0  0  0  0  0  0  0  0  0  0  0  0
    0.9139   26.0516  -26.9237 H   0  0  0  0  0  0  0  0  0  0  0  0
    1.2923   25.1165  -24.4494 H   0  0  0  0  0  0  0  0  0  0  0  0
    2.8788   25.9684  -24.6700 H   0  0  0  0  0  0  0  0  0  0  0  0
    0.6221   28.7954  -25.9795 H   0  0  0  0  0  0  0  0  0  0  0  0
    0.6247   27.1172  -26.7153 H   0  0  0  0  0  0  0  0  0  0  0  0
   -1.5103   28.4999  -25.0903 H   0  0  0  0  0  0  0  0  0  0  0  0
   -1.6309   27.5486  -26.6236 H   0  0  0  0  0  0  0  0  0  0  0  0
   -2.5954   26.3137  -24.7109 H   0  0  0  0  0  0  0  0  0  0  0  0
   -1.1398   25.4834  -25.3942 H   0  0  0  0  0  0  0  0  0  0  0  0
   -1.5496   26.7809  -22.7250 H   0  0  0  0  0  0  0  0  0  0  0  0
   -0.5528   25.3375  -23.2163 H   0  0  0  0  0  0  0  0  0  0  0  0
    0.1749   28.2648  -23.1826 H   0  0  0  0  0  0  0  0  0  0  0  0
    1.1113   26.7952  -22.6536 H   0  0  0  0  0  0  0  0  0  0  0  0
    0.0931   21.7319  -28.1136 H   0  0  0  0  0  0  0  0  0  0  0  0
   -2.0256   21.8431  -29.4170 H   0  0  0  0  0  0  0  0  0  0  0  0
   -5.4817   20.8187  -31.3051 H   0  0  0  0  0  0  0  0  0  0  0  0
  1  2  1  0
  2  3  2  0
  3  4  1  0
  4  5  2  0
  5  6  1  0
  6  7  1  0
  7  8  2  0
  8  9  1  0
  9 10  1  0
 10 11  1  0
 11 12  2  0
 12 13  1  0
 13 14  2  0
 14 15  1  0
 15 16  1  0
 16 17  1  0
 17 18  1  0
 18 19  1  0
 19 20  1  0
 20 21  1  0
 21 22  1  0
 22 23  1  0
 14 24  1  0
 24 25  2  0
 10 26  2  0
  6 27  2  0
 27  2  1  0
 26  7  1  0
 25 11  1  0
 23 18  1  0
  1 28  1  0
  1 29  1  0
  1 30  1  0
  3 31  1  0
  4 32  1  0
  5 33  1  0
  9 34  1  0
 12 35  1  0
 13 36  1  0
 16 37  1  0
 16 38  1  0
 17 39  1  0
 17 40  1  0
 19 41  1  0
 19 42  1  0
 20 43  1  0
 20 44  1  0
 21 45  1  0
 21 46  1  0
 22 47  1  0
 22 48  1  0
 23 49  1  0
 23 50  1  0
 24 51  1  0
 25 52  1  0
 27 53  1  0
M  END
>  <UniqueID>  (17) 
17

>  <SMILES>  (17) 
Cc1cccc(-c2n[nH]c(-c3ccc(SCCN4CCCCC4)cc3)n2)c1

>  <Energy>  (17) 
93.69113530905545

>  <Genealogy>  (17) 
Cc1cccc(-c2n[nH]c(-c3ccc(SCCN4CCCCC4)cc3)n2)c1 (3D coordinates assigned)
Cc1cccc(-c2n[nH]c(-c3ccc(SCCN4CCCCC4)cc3)n2)c1 (nonaromatic ring conformer: 93.69113530905545 kcal/mol)

>  <smiles>  (17) 
Cc1cccc(-c2n[nH]c(-c3ccc(SCCN4CCCCC4)cc3)n2)c1

>  <score_type>  (17) 
oracle

>  <origin>  (17) 
adgpu

>  <m_score__min__energy>  (17) 
-10.119999999999999

>  <m_primary>  (17) 
energy

$$$$
17:0
     RDKit          3D

 35 37  0  0  0  0  0  0  0  0999 V2000
   -3.2930   21.3550  -32.7040 C   0  0  0  0  0  0  0  0  0  0  0  0
   -3.4710   22.6030  -32.0430 O   0  0  0  0  0  0  0  0  0  0  0  0
   -4.6970   23.0660  -31.5370 C   0  0  0  0  0  0  0  0  0  0  0  0
   -5.9090   22.3900  -31.7760 C   0  0  0  0  0  0  0  0  0  0  0  0
   -7.1090   22.8890  -31.2580 C   0  0  0  0  0  0  0  0  0  0  0  0
   -7.1100   24.0630  -30.5030 C   0  0  0  0  0  0  0  0  0  0  0  0
   -5.9140   24.7390  -30.2580 C   0  0  0  0  0  0  0  0  0  0  0  0
   -4.7080   24.2420  -30.7670 C   0  0  0  0  0  0  0  0  0  0  0  0
   -3.4900   24.9280  -30.4790 N   0  0  0  0  0  0  0  0  0  0  0  0
   -2.6660   24.6750  -28.9790 S   0  0  0  0  0  0  0  0  0  0  0  0
   -1.5380   25.6610  -28.8630 O   0  0  0  0  0  0  0  0  0  0  0  0
   -3.6180   24.8990  -27.8370 O   0  0  0  0  0  0  0  0  0  0  0  0
   -2.0240   23.0370  -28.9200 C   0  0  0  0  0  0  0  0  0  0  0  0
   -1.0500   22.6350  -29.8450 C   0  0  0  0  0  0  0  0  0  0  0  0
   -0.4800   21.3630  -29.7630 C   0  0  0  0  0  0  0  0  0  0  0  0
   -0.8730   20.4820  -28.7520 C   0  0  0  0  0  0  0  0  0  0  0  0
   -0.3190   19.2740  -28.6680 O   0  0  0  0  0  0  0  0  0  0  0  0
   -0.6510   18.4000  -27.7200 C   0  0  0  0  0  0  0  0  0  0  0  0
   -0.0930   17.2720  -27.6910 O   0  0  0  0  0  0  0  0  0  0  0  0
   -1.6130   18.7270  -26.7590 C   0  0  0  0  0  0  0  0  0  0  0  0
   -2.2200   19.9820  -26.8100 C   0  0  0  0  0  0  0  0  0  0  0  0
   -1.8550   20.8800  -27.8170 C   0  0  0  0  0  0  0  0  0  0  0  0
   -2.4280   22.1560  -27.9060 C   0  0  0  0  0  0  0  0  0  0  0  0
   -3.1791   20.5567  -31.9558 H   0  0  0  0  0  0  0  0  0  0  0  0
   -4.1703   21.1451  -33.3335 H   0  0  0  0  0  0  0  0  0  0  0  0
   -2.3920   21.3987  -33.3335 H   0  0  0  0  0  0  0  0  0  0  0  0
   -5.9122   21.4658  -32.3725 H   0  0  0  0  0  0  0  0  0  0  0  0
   -8.0525   22.3557  -31.4459 H   0  0  0  0  0  0  0  0  0  0  0  0
   -8.0552   24.4560  -30.1004 H   0  0  0  0  0  0  0  0  0  0  0  0
   -5.9187   25.6645  -29.6636 H   0  0  0  0  0  0  0  0  0  0  0  0
   -0.7330   23.3259  -30.6401 H   0  0  0  0  0  0  0  0  0  0  0  0
    0.2799   21.0538  -30.4957 H   0  0  0  0  0  0  0  0  0  0  0  0
   -1.8868   18.0057  -25.9750 H   0  0  0  0  0  0  0  0  0  0  0  0
   -2.9789   20.2623  -26.0646 H   0  0  0  0  0  0  0  0  0  0  0  0
   -3.1945   22.4665  -27.1807 H   0  0  0  0  0  0  0  0  0  0  0  0
  1  2  1  0
  2  3  1  0
  3  4  2  0
  4  5  1  0
  5  6  2  0
  6  7  1  0
  7  8  2  0
  8  9  1  0
  9 10  1  0
 10 11  2  0
 10 12  2  0
 10 13  1  0
 13 14  2  0
 14 15  1  0
 15 16  2  0
 16 17  1  0
 17 18  1  0
 18 19  2  0
 18 20  1  0
 20 21  2  0
 21 22  1  0
 22 23  2  0
  8  3  1  0
 23 13  1  0
 22 16  1  0
  1 24  1  0
  1 25  1  0
  1 26  1  0
  4 27  1  0
  5 28  1  0
  6 29  1  0
  7 30  1  0
 14 31  1  0
 15 32  1  0
 20 33  1  0
 21 34  1  0
 23 35  1  0
M  CHG  1   9  -1
M  END
>  <UniqueID>  (18) 
18

>  <SMILES>  (18) 
COc1ccccc1[N-]S(=O)(=O)c1ccc2oc(=O)ccc2c1

>  <Energy>  (18) 
48.78570564809617

>  <Genealogy>  (18) 
COc1ccccc1[N-]S(=O)(=O)c1ccc2oc(=O)ccc2c1 (protonated)
COc1ccccc1[N-]S(=O)(=O)c1ccc2oc(=O)ccc2c1 (3D coordinates assigned)
COc1ccccc1[N-]S(=O)(=O)c1ccc2oc(=O)ccc2c1 (optimized conformer: 48.78570564809617 kcal/mol)

>  <smiles>  (18) 
COc1ccccc1NS(=O)(=O)c1ccc2oc(=O)ccc2c1

>  <score_type>  (18) 
oracle

>  <origin>  (18) 
adgpu

>  <m_score__min__energy>  (18) 
-10.42

>  <m_primary>  (18) 
energy

$$$$
18:0
     RDKit          3D

 50 53  0  0  1  0  0  0  0  0999 V2000
   -5.3710   25.8930  -30.4660 C   0  0  0  0  0  0  0  0  0  0  0  0
   -4.0200   25.5390  -30.4560 O   0  0  0  0  0  0  0  0  0  0  0  0
   -3.4460   24.4450  -29.8740 C   0  0  0  0  0  0  0  0  0  0  0  0
   -2.6190   24.5100  -28.7710 C   0  0  0  0  0  0  0  0  0  0  0  0
   -2.0970   23.3540  -28.2680 N   0  0  0  0  0  0  0  0  0  0  0  0
   -2.3550   22.1540  -28.8020 C   0  0  0  0  0  0  0  0  0  0  0  0
   -1.7890   20.9300  -28.2520 C   0  0  0  0  0  0  0  0  0  0  0  0
   -2.3930   20.1870  -27.2620 C   0  0  0  0  0  0  0  0  0  0  0  0
   -1.8360   19.0210  -26.7500 C   0  0  0  0  0  0  0  0  0  0  0  0
   -0.6290   18.5820  -27.2470 C   0  0  0  0  0  0  0  0  0  0  0  0
   -0.0720   17.4080  -26.7300 O   0  0  0  0  0  0  0  0  0  0  0  0
    0.0040   19.2910  -28.2310 C   0  0  0  0  0  0  0  0  0  0  0  0
   -0.5720   20.4450  -28.7200 C   0  0  0  0  0  0  0  0  0  0  0  0
   -3.1530   22.0700  -29.8690 N   0  0  0  0  0  0  0  0  0  0  0  0
   -3.6860   23.1870  -30.3930 C   0  0  0  0  0  0  0  0  0  0  0  0
   -4.4510   23.0750  -31.4210 N   0  0  0  0  0  0  0  0  0  0  0  0
   -4.7350   21.8060  -32.0010 C   0  0  0  0  0  0  0  0  0  0  0  0
   -5.9780   21.2150  -31.9210 C   0  0  0  0  0  0  0  0  0  0  0  0
   -6.2120   19.9850  -32.4940 C   0  0  0  0  0  0  0  0  0  0  0  0
   -5.2260   19.2820  -33.1750 C   0  0  0  0  0  0  0  0  0  0  0  0
   -5.4820   18.0220  -33.7580 N   0  0  0  0  0  0  0  0  0  0  0  0
   -4.7910   17.5020  -34.9190 C   0  0  0  0  0  0  0  0  0  0  0  0
   -4.6340   16.0020  -34.7850 C   0  0  0  0  0  0  0  0  0  0  0  0
   -5.8010   15.3280  -34.5340 O   0  0  0  0  0  0  0  0  0  0  0  0
   -6.8730   16.1300  -34.2110 C   0  0  0  0  0  0  0  0  0  0  0  0
   -6.5050   17.1790  -33.1670 C   0  0  0  0  0  0  0  0  0  0  0  0
   -3.9870   19.8950  -33.2410 C   0  0  0  0  0  0  0  0  0  0  0  0
   -3.7390   21.1270  -32.6700 C   0  0  0  0  0  0  0  0  0  0  0  0
   -5.7329   25.9878  -29.4316 H   0  0  0  0  0  0  0  0  0  0  0  0
   -5.4944   26.8538  -30.9872 H   0  0  0  0  0  0  0  0  0  0  0  0
   -5.9497   25.1162  -30.9872 H   0  0  0  0  0  0  0  0  0  0  0  0
   -2.3844   25.4783  -28.3048 H   0  0  0  0  0  0  0  0  0  0  0  0
   -1.4820   23.4800  -27.4360 H   0  0  0  0  0  0  0  0  0  0  0  0
   -3.3572   20.5310  -26.8594 H   0  0  0  0  0  0  0  0  0  0  0  0
   -2.3519   18.4569  -25.9591 H   0  0  0  0  0  0  0  0  0  0  0  0
   -0.6570   16.6680  -26.3330 H   0  0  0  0  0  0  0  0  0  0  0  0
    0.9678   18.9424  -28.6304 H   0  0  0  0  0  0  0  0  0  0  0  0
   -0.0489   21.0033  -29.5104 H   0  0  0  0  0  0  0  0  0  0  0  0
   -6.7927   21.7323  -31.3930 H   0  0  0  0  0  0  0  0  0  0  0  0
   -7.2158   19.5431  -32.4095 H   0  0  0  0  0  0  0  0  0  0  0  0
   -5.3728   17.7301  -35.8243 H   0  0  0  0  0  0  0  0  0  0  0  0
   -3.7977   17.9688  -34.9933 H   0  0  0  0  0  0  0  0  0  0  0  0
   -4.2094   15.6159  -35.7234 H   0  0  0  0  0  0  0  0  0  0  0  0
   -3.9818   15.8324  -33.9156 H   0  0  0  0  0  0  0  0  0  0  0  0
   -7.2217   16.6408  -35.1207 H   0  0  0  0  0  0  0  0  0  0  0  0
   -7.6617   15.4904  -33.7880 H   0  0  0  0  0  0  0  0  0  0  0  0
   -7.3884   17.7813  -32.9083 H   0  0  0  0  0  0  0  0  0  0  0  0
   -6.1393   16.7046  -32.2444 H   0  0  0  0  0  0  0  0  0  0  0  0
   -3.1695   19.3814  -33.7681 H   0  0  0  0  0  0  0  0  0  0  0  0
   -2.7361   21.5717  -32.7496 H   0  0  0  0  0  0  0  0  0  0  0  0
  1  2  1  0
  2  3  1  0
  3  4  2  0
  4  5  1  0
  5  6  1  0
  6  7  1  0
  7  8  2  0
  8  9  1  0
  9 10  2  0
 10 11  1  0
 10 12  1  0
 12 13  2  0
  6 14  2  0
 14 15  1  0
 15 16  2  0
 16 17  1  0
 17 18  2  0
 18 19  1  0
 19 20  2  0
 20 21  1  0
 21 22  1  0
 22 23  1  0
 23 24  1  0
 24 25  1  0
 25 26  1  0
 20 27  1  0
 27 28  2  0
 15  3  1  0
 28 17  1  0
 13  7  1  0
 26 21  1  0
  1 29  1  0
  1 30  1  0
  1 31  1  0
  4 32  1  0
  5 33  1  0
  8 34  1  0
  9 35  1  0
 11 36  1  0
 12 37  1  0
 13 38  1  0
 18 39  1  0
 19 40  1  0
 22 41  1  0
 22 42  1  0
 23 43  1  0
 23 44  1  0
 25 45  1  0
 25 46  1  0
 26 47  1  0
 26 48  1  0
 27 49  1  0
 28 50  1  0
M  END
>  <smiles>  (19) 
COc1c[nH]c(-c2ccc(O)cc2)nc1=Nc1ccc(N2CCOCC2)cc1

>  <score_type>  (19) 
oracle

>  <origin>  (19) 
adgpu

>  <m_score__min__energy>  (19) 
-8.4000000000000004

>  <m_primary>  (19) 
energy

$$$$
19:0
     RDKit          3D

 38 41  0  0  0  0  0  0  0  0999 V2000
   -9.8640   23.2820  -32.3860 O   0  0  0  0  0  0  0  0  0  0  0  0
   -8.7020   22.9260  -32.0590 C   0  0  0  0  0  0  0  0  0  0  0  0
   -8.3830   21.5680  -31.9910 C   0  0  0  0  0  0  0  0  0  0  0  0
   -7.0850   21.1790  -31.6330 C   0  0  0  0  0  0  0  0  0  0  0  0
   -6.7680   19.7040  -31.5390 C   0  0  0  0  0  0  0  0  0  0  0  0
   -5.9540   19.2880  -32.6760 N   0  0  0  0  0  0  0  0  0  0  0  0
   -6.4210   19.0950  -33.8970 N   0  0  0  0  0  0  0  0  0  0  0  0
   -5.4310   18.6910  -34.6760 N   0  0  0  0  0  0  0  0  0  0  0  0
   -4.3510   18.6540  -33.8680 C   0  0  0  0  0  0  0  0  0  0  0  0
   -2.9980   18.1860  -34.2960 C   0  0  0  0  0  0  0  0  0  0  0  0
   -1.9510   19.1740  -33.8620 C   0  0  0  0  0  0  0  0  0  0  0  0
   -2.2500   20.5460  -33.8070 C   0  0  0  0  0  0  0  0  0  0  0  0
   -1.2650   21.4670  -33.4370 C   0  0  0  0  0  0  0  0  0  0  0  0
    0.0250   21.0270  -33.1280 C   0  0  0  0  0  0  0  0  0  0  0  0
    0.3330   19.6650  -33.1940 C   0  0  0  0  0  0  0  0  0  0  0  0
   -0.6480   18.7410  -33.5640 C   0  0  0  0  0  0  0  0  0  0  0  0
   -4.6640   19.0090  -32.6080 N   0  0  0  0  0  0  0  0  0  0  0  0
   -6.1380   22.1850  -31.3290 C   0  0  0  0  0  0  0  0  0  0  0  0
   -4.8130   21.8990  -30.9360 C   0  0  0  0  0  0  0  0  0  0  0  0
   -3.9220   22.9380  -30.6500 C   0  0  0  0  0  0  0  0  0  0  0  0
   -4.3340   24.2690  -30.7500 C   0  0  0  0  0  0  0  0  0  0  0  0
   -3.4410   25.2950  -30.4650 O   0  0  0  0  0  0  0  0  0  0  0  0
   -5.6430   24.5680  -31.1360 C   0  0  0  0  0  0  0  0  0  0  0  0
   -6.5460   23.5390  -31.4220 C   0  0  0  0  0  0  0  0  0  0  0  0
   -7.7880   23.8470  -31.7800 O   0  0  0  0  0  0  0  0  0  0  0  0
   -9.1458   20.8084  -32.2170 H   0  0  0  0  0  0  0  0  0  0  0  0
   -6.2163   19.5100  -30.6073 H   0  0  0  0  0  0  0  0  0  0  0  0
   -7.7091   19.1345  -31.5450 H   0  0  0  0  0  0  0  0  0  0  0  0
   -2.7887   17.2084  -33.8372 H   0  0  0  0  0  0  0  0  0  0  0  0
   -2.9771   18.0959  -35.3921 H   0  0  0  0  0  0  0  0  0  0  0  0
   -3.2625   20.8967  -34.0559 H   0  0  0  0  0  0  0  0  0  0  0  0
   -1.5058   22.5392  -33.3891 H   0  0  0  0  0  0  0  0  0  0  0  0
    0.7977   21.7522  -32.8330 H   0  0  0  0  0  0  0  0  0  0  0  0
    1.3496   19.3199  -32.9542 H   0  0  0  0  0  0  0  0  0  0  0  0
   -0.3992   17.6711  -33.6221 H   0  0  0  0  0  0  0  0  0  0  0  0
   -4.4797   20.8539  -30.8543 H   0  0  0  0  0  0  0  0  0  0  0  0
   -2.8910   22.7060  -30.3446 H   0  0  0  0  0  0  0  0  0  0  0  0
   -5.9647   25.6169  -31.2153 H   0  0  0  0  0  0  0  0  0  0  0  0
  1  2  2  0
  2  3  1  0
  3  4  2  0
  4  5  1  0
  5  6  1  0
  6  7  1  0
  7  8  2  0
  8  9  1  0
  9 10  1  0
 10 11  1  0
 11 12  2  0
 12 13  1  0
 13 14  2  0
 14 15  1  0
 15 16  2  0
  9 17  2  0
  4 18  1  0
 18 19  2  0
 19 20  1  0
 20 21  2  0
 21 22  1  0
 21 23  1  0
 23 24  2  0
 24 25  1  0
 25  2  1  0
 17  6  1  0
 24 18  1  0
 16 11  1  0
  3 26  1  0
  5 27  1  0
  5 28  1  0
 10 29  1  0
 10 30  1  0
 12 31  1  0
 13 32  1  0
 14 33  1  0
 15 34  1  0
 16 35  1  0
 19 36  1  0
 20 37  1  0
 23 38  1  0
M  CHG  1  22  -1
M  END
>  <UniqueID>  (20) 
19

>  <SMILES>  (20) 
O=c1cc(Cn2nnc(Cc3ccccc3)n2)c2ccc([O-])cc2o1

>  <Energy>  (20) 
84.16109110246461

>  <Genealogy>  (20) 
O=c1cc(Cn2nnc(Cc3ccccc3)n2)c2ccc([O-])cc2o1 (protonated)
O=c1cc(Cn2nnc(Cc3ccccc3)n2)c2ccc([O-])cc2o1 (3D coordinates assigned)
O=c1cc(Cn2nnc(Cc3ccccc3)n2)c2ccc([O-])cc2o1 (optimized conformer: 84.16109110246461 kcal/mol)

>  <smiles>  (20) 
O=c1cc(Cn2nnc(Cc3ccccc3)n2)c2ccc(O)cc2o1

>  <score_type>  (20) 
oracle

>  <origin>  (20) 
adgpu

>  <m_score__min__energy>  (20) 
-10.73

>  <m_primary>  (20) 
energy

$$$$
20:0
     RDKit          3D

 31 33  0  0  0  0  0  0  0  0999 V2000
   -5.2940   25.7830  -30.4700 C   0  0  0  0  0  0  0  0  0  0  0  0
   -3.9530   25.3080  -30.5210 O   0  0  0  0  0  0  0  0  0  0  0  0
   -3.3760   24.3390  -29.6760 C   0  0  0  0  0  0  0  0  0  0  0  0
   -4.0000   23.0750  -29.5780 C   0  0  0  0  0  0  0  0  0  0  0  0
   -5.2000   22.7310  -30.3740 C   0  0  0  0  0  0  0  0  0  0  0  0
   -6.4750   22.8570  -29.7960 C   0  0  0  0  0  0  0  0  0  0  0  0
   -7.6180   22.5150  -30.5240 C   0  0  0  0  0  0  0  0  0  0  0  0
   -7.4990   22.0300  -31.8290 C   0  0  0  0  0  0  0  0  0  0  0  0
   -6.2360   21.8790  -32.4050 C   0  0  0  0  0  0  0  0  0  0  0  0
   -5.0890   22.2210  -31.6810 C   0  0  0  0  0  0  0  0  0  0  0  0
   -3.5270   22.1540  -28.7410 O   0  0  0  0  0  0  0  0  0  0  0  0
   -2.4530   22.3420  -27.9860 C   0  0  0  0  0  0  0  0  0  0  0  0
   -2.0190   21.3180  -27.1360 C   0  0  0  0  0  0  0  0  0  0  0  0
   -0.8860   21.5000  -26.3390 C   0  0  0  0  0  0  0  0  0  0  0  0
   -0.1810   22.7060  -26.3870 C   0  0  0  0  0  0  0  0  0  0  0  0
   -0.6070   23.7360  -27.2320 C   0  0  0  0  0  0  0  0  0  0  0  0
   -1.7480   23.5630  -28.0390 C   0  0  0  0  0  0  0  0  0  0  0  0
   -2.2200   24.5720  -28.8960 C   0  0  0  0  0  0  0  0  0  0  0  0
   -1.6100   25.6730  -28.9550 O   0  0  0  0  0  0  0  0  0  0  0  0
   -5.6044   25.8929  -29.4204 H   0  0  0  0  0  0  0  0  0  0  0  0
   -5.3570   26.7582  -30.9751 H   0  0  0  0  0  0  0  0  0  0  0  0
   -5.9568   25.0649  -30.9751 H   0  0  0  0  0  0  0  0  0  0  0  0
   -6.5738   23.2269  -28.7648 H   0  0  0  0  0  0  0  0  0  0  0  0
   -8.6130   22.6278  -30.0688 H   0  0  0  0  0  0  0  0  0  0  0  0
   -8.4001   21.7672  -32.4025 H   0  0  0  0  0  0  0  0  0  0  0  0
   -6.1428   21.4904  -33.4299 H   0  0  0  0  0  0  0  0  0  0  0  0
   -4.0957   22.0907  -32.1353 H   0  0  0  0  0  0  0  0  0  0  0  0
   -2.5714   20.3676  -27.0954 H   0  0  0  0  0  0  0  0  0  0  0  0
   -0.5482   20.6927  -25.6725 H   0  0  0  0  0  0  0  0  0  0  0  0
    0.7111   22.8454  -25.7587 H   0  0  0  0  0  0  0  0  0  0  0  0
   -0.0493   24.6835  -27.2663 H   0  0  0  0  0  0  0  0  0  0  0  0
  1  2  1  0
  2  3  1  0
  3  4  2  0
  4  5  1  0
  5  6  2  0
  6  7  1  0
  7  8  2  0
  8  9  1  0
  9 10  2  0
  4 11  1  0
 11 12  1  0
 12 13  2  0
 13 14  1  0
 14 15  2  0
 15 16  1  0
 16 17  2  0
 17 18  1  0
 18 19  2  0
 18  3  1  0
 10  5  1  0
 17 12  1  0
  1 20  1  0
  1 21  1  0
  1 22  1  0
  6 23  1  0
  7 24  1  0
  8 25  1  0
  9 26  1  0
 10 27  1  0
 13 28  1  0
 14 29  1  0
 15 30  1  0
 16 31  1  0
M  END
>  <UniqueID>  (21) 
20

>  <SMILES>  (21) 
COc1c(-c2ccccc2)oc2ccccc2c1=O

>  <Energy>  (21) 
46.64995242265707

>  <Genealogy>  (21) 
COc1c(-c2ccccc2)oc2ccccc2c1=O (3D coordinates assigned)
COc1c(-c2ccccc2)oc2ccccc2c1=O (optimized conformer: 46.64995242265707 kcal/mol)

>  <smiles>  (21) 
COc1c(-c2ccccc2)oc2ccccc2c1=O

>  <score_type>  (21) 
oracle

>  <origin>  (21) 
adgpu

>  <m_score__min__energy>  (21) 
-7.2199999999999998

>  <m_primary>  (21) 
energy

$$$$
21:0
     RDKit          3D

 60 63  0  0  0  0  0  0  0  0999 V2000
    0.5930   18.1960  -31.1820 C   0  0  0  0  0  0  0  0  0  0  0  0
    0.4670   17.7960  -29.7460 C   0  0  0  0  0  0  0  0  0  0  0  0
    1.1540   16.6800  -29.2580 C   0  0  0  0  0  0  0  0  0  0  0  0
    1.0300   16.3610  -27.9070 C   0  0  0  0  0  0  0  0  0  0  0  0
    0.2600   17.1320  -27.0970 N   0  0  0  0  0  0  0  0  0  0  0  0
   -0.4040   18.2180  -27.5830 C   0  0  0  0  0  0  0  0  0  0  0  0
   -1.1730   19.0320  -26.7430 O   0  0  0  0  0  0  0  0  0  0  0  0
   -1.6170   20.3240  -27.0560 C   0  0  0  0  0  0  0  0  0  0  0  0
   -0.9990   21.4740  -26.5310 C   0  0  0  0  0  0  0  0  0  0  0  0
   -1.4800   22.7450  -26.8590 C   0  0  0  0  0  0  0  0  0  0  0  0
   -2.6010   22.8850  -27.6980 C   0  0  0  0  0  0  0  0  0  0  0  0
   -3.1040   24.1710  -28.0800 N   0  0  0  0  0  0  0  0  0  0  0  0
   -2.7210   24.9150  -29.2420 C   0  0  0  0  0  0  0  0  0  0  0  0
   -1.5700   25.4220  -29.2930 O   0  0  0  0  0  0  0  0  0  0  0  0
   -3.6220   25.0540  -30.3490 N   0  0  0  0  0  0  0  0  0  0  0  0
   -4.6810   24.1370  -30.6480 C   0  0  0  0  0  0  0  0  0  0  0  0
   -5.9340   24.3680  -30.0770 C   0  0  0  0  0  0  0  0  0  0  0  0
   -7.0070   23.5310  -30.3680 C   0  0  0  0  0  0  0  0  0  0  0  0
   -6.8490   22.4490  -31.2370 C   0  0  0  0  0  0  0  0  0  0  0  0
   -8.2610   21.4410  -31.5440 Cl  0  0  0  0  0  0  0  0  0  0  0  0
   -5.5850   22.1820  -31.8130 C   0  0  0  0  0  0  0  0  0  0  0  0
   -5.3710   20.7920  -32.9030 S   0  0  0  0  0  0  0  0  0  0  0  0
   -4.2210   21.0200  -33.8440 O   0  0  0  0  0  0  0  0  0  0  0  0
   -6.6140   20.6180  -33.7320 O   0  0  0  0  0  0  0  0  0  0  0  0
   -5.0730   19.3020  -31.9430 C   0  0  0  0  0  0  0  0  0  0  0  0
   -6.4070   18.5800  -31.6520 C   0  0  0  0  0  0  0  0  0  0  0  0
   -6.1660   17.0900  -31.3880 C   0  0  0  0  0  0  0  0  0  0  0  0
   -5.6120   16.4040  -32.5820 N   0  0  0  0  0  0  0  0  0  0  0  0
   -4.9330   15.1580  -32.1900 C   0  0  0  0  0  0  0  0  0  0  0  0
   -4.7380   17.2550  -33.4300 C   0  0  0  0  0  0  0  0  0  0  0  0
   -4.0460   18.3740  -32.6360 C   0  0  0  0  0  0  0  0  0  0  0  0
   -4.4860   23.0070  -31.4760 C   0  0  0  0  0  0  0  0  0  0  0  0
   -3.2100   22.6700  -31.9310 O   0  0  0  0  0  0  0  0  0  0  0  0
   -3.2090   21.7380  -28.2230 C   0  0  0  0  0  0  0  0  0  0  0  0
   -2.7310   20.4670  -27.8900 C   0  0  0  0  0  0  0  0  0  0  0  0
   -0.2860   18.5450  -28.8970 N   0  0  0  0  0  0  0  0  0  0  0  0
    0.9230   19.2436  -31.2432 H   0  0  0  0  0  0  0  0  0  0  0  0
    1.3310   17.5494  -31.6793 H   0  0  0  0  0  0  0  0  0  0  0  0
   -0.3823   18.0891  -31.6793 H   0  0  0  0  0  0  0  0  0  0  0  0
    1.7782   16.0677  -29.9254 H   0  0  0  0  0  0  0  0  0  0  0  0
    1.5553   15.4856  -27.4974 H   0  0  0  0  0  0  0  0  0  0  0  0
   -0.1336   21.3725  -25.8596 H   0  0  0  0  0  0  0  0  0  0  0  0
   -0.9800   23.6396  -26.4595 H   0  0  0  0  0  0  0  0  0  0  0  0
   -6.0740   25.2175  -29.3924 H   0  0  0  0  0  0  0  0  0  0  0  0
   -7.9883   23.7232  -29.9096 H   0  0  0  0  0  0  0  0  0  0  0  0
   -4.6284   19.5911  -30.9793 H   0  0  0  0  0  0  0  0  0  0  0  0
   -6.8777   19.0327  -30.7668 H   0  0  0  0  0  0  0  0  0  0  0  0
   -7.0652   18.6837  -32.5272 H   0  0  0  0  0  0  0  0  0  0  0  0
   -5.4551   16.9859  -30.5551 H   0  0  0  0  0  0  0  0  0  0  0  0
   -7.1318   16.6245  -31.1421 H   0  0  0  0  0  0  0  0  0  0  0  0
   -4.8960   15.0902  -31.0927 H   0  0  0  0  0  0  0  0  0  0  0  0
   -5.4865   14.2966  -32.5922 H   0  0  0  0  0  0  0  0  0  0  0  0
   -3.9092   15.1562  -32.5922 H   0  0  0  0  0  0  0  0  0  0  0  0
   -3.9657   16.6194  -33.8878 H   0  0  0  0  0  0  0  0  0  0  0  0
   -5.3755   17.7324  -34.1887 H   0  0  0  0  0  0  0  0  0  0  0  0
   -3.4006   17.9207  -31.8692 H   0  0  0  0  0  0  0  0  0  0  0  0
   -3.4557   18.9797  -33.3394 H   0  0  0  0  0  0  0  0  0  0  0  0
   -3.0490   22.1110  -32.7590 H   0  0  0  0  0  0  0  0  0  0  0  0
   -4.0686   21.8376  -28.9021 H   0  0  0  0  0  0  0  0  0  0  0  0
   -3.2345   19.5730  -28.2866 H   0  0  0  0  0  0  0  0  0  0  0  0
  1  2  1  0
  2  3  2  0
  3  4  1  0
  4  5  2  0
  5  6  1  0
  6  7  1  0
  7  8  1  0
  8  9  2  0
  9 10  1  0
 10 11  2  0
 11 12  1  0
 12 13  1  0
 13 14  2  0
 13 15  1  0
 15 16  1  0
 16 17  2  0
 17 18  1  0
 18 19  2  0
 19 20  1  0
 19 21  1  0
 21 22  1  0
 22 23  2  0
 22 24  2  0
 22 25  1  0
 25 26  1  0
 26 27  1  0
 27 28  1  0
 28 29  1  0
 28 30  1  0
 30 31  1  0
 21 32  2  0
 32 33  1  0
 11 34  1  0
 34 35  2  0
  6 36  2  0
 36  2  1  0
 35  8  1  0
 32 16  1  0
 31 25  1  0
  1 37  1  0
  1 38  1  0
  1 39  1  0
  3 40  1  0
  4 41  1  0
  9 42  1  0
 10 43  1  0
 17 44  1  0
 18 45  1  0
 25 46  1  0
 26 47  1  0
 26 48  1  0
 27 49  1  0
 27 50  1  0
 29 51  1  0
 29 52  1  0
 29 53  1  0
 30 54  1  0
 30 55  1  0
 31 56  1  0
 31 57  1  0
 33 58  1  0
 34 59  1  0
 35 60  1  0
M  CHG  2  12  -1  15  -1
M  END
>  <UniqueID>  (22) 
21

>  <SMILES>  (22) 
Cc1ccnc(Oc2ccc([N-]C(=O)[N-]c3ccc(Cl)c(S(=O)(=O)C4CCN(C)CC4)c3O)cc2)n1

>  <Energy>  (22) 
86.59517134559822

>  <Genealogy>  (22) 
Cc1ccnc(Oc2ccc([N-]C(=O)[N-]c3ccc(Cl)c(S(=O)(=O)C4CCN(C)CC4)c3O)cc2)n1 (protonated)
Cc1ccnc(Oc2ccc([N-]C(=O)[N-]c3ccc(Cl)c(S(=O)(=O)C4CCN(C)CC4)c3O)cc2)n1 (3D coordinates assigned)
Cc1ccnc(Oc2ccc([N-]C(=O)[N-]c3ccc(Cl)c(S(=O)(=O)C4CCN(C)CC4)c3O)cc2)n1 (nonaromatic ring conformer: 86.59517134559822 kcal/mol)

>  <smiles>  (22) 
Cc1ccnc(Oc2ccc(NC(=O)Nc3ccc(Cl)c(S(=O)(=O)C4CCN(C)CC4)c3O)cc2)n1

>  <score_type>  (22) 
oracle

>  <origin>  (22) 
adgpu

>  <m_score__min__energy>  (22) 
-13.609999999999999

>  <m_primary>  (22) 
energy

$$$$
22:0
     RDKit          3D

 36 37  0  0  0  0  0  0  0  0999 V2000
   -3.3780   19.2380  -33.0220 C   0  0  0  0  0  0  0  0  0  0  0  0
   -2.7780   20.4190  -33.6580 N   0  0  0  0  0  0  0  0  0  0  0  0
   -3.2000   21.6360  -32.9530 C   0  0  0  0  0  0  0  0  0  0  0  0
   -1.0370   20.2910  -33.6020 S   0  0  0  0  0  0  0  0  0  0  0  0
   -0.4230   21.6510  -33.8050 O   0  0  0  0  0  0  0  0  0  0  0  0
   -0.5580   19.3700  -34.6880 O   0  0  0  0  0  0  0  0  0  0  0  0
   -0.5360   19.6320  -32.0480 C   0  0  0  0  0  0  0  0  0  0  0  0
    0.2370   18.4650  -31.9840 C   0  0  0  0  0  0  0  0  0  0  0  0
    0.6110   17.9390  -30.7450 C   0  0  0  0  0  0  0  0  0  0  0  0
    0.2240   18.5790  -29.5620 C   0  0  0  0  0  0  0  0  0  0  0  0
    0.7120   17.8890  -28.0190 Cl  0  0  0  0  0  0  0  0  0  0  0  0
   -0.5330   19.7620  -29.6130 C   0  0  0  0  0  0  0  0  0  0  0  0
   -0.9330   20.3910  -28.3860 N   0  0  0  0  0  0  0  0  0  0  0  0
   -2.2150   20.9670  -28.1000 C   0  0  0  0  0  0  0  0  0  0  0  0
   -2.9910   20.4040  -27.2810 O   0  0  0  0  0  0  0  0  0  0  0  0
   -2.6490   22.1960  -28.8050 C   0  0  0  0  0  0  0  0  0  0  0  0
   -3.8100   22.1930  -29.6000 C   0  0  0  0  0  0  0  0  0  0  0  0
   -4.2170   23.3540  -30.2640 C   0  0  0  0  0  0  0  0  0  0  0  0
   -3.4710   24.5300  -30.1460 C   0  0  0  0  0  0  0  0  0  0  0  0
   -3.8810   25.6800  -30.8110 O   0  0  0  0  0  0  0  0  0  0  0  0
   -2.3140   24.5450  -29.3610 C   0  0  0  0  0  0  0  0  0  0  0  0
   -1.5670   25.7120  -29.2390 O   0  0  0  0  0  0  0  0  0  0  0  0
   -1.9040   23.3860  -28.6930 C   0  0  0  0  0  0  0  0  0  0  0  0
   -0.9310   20.2690  -30.8640 C   0  0  0  0  0  0  0  0  0  0  0  0
   -3.3244   19.3435  -31.9284 H   0  0  0  0  0  0  0  0  0  0  0  0
   -4.4301   19.1500  -33.3308 H   0  0  0  0  0  0  0  0  0  0  0  0
   -2.8286   18.3364  -33.3308 H   0  0  0  0  0  0  0  0  0  0  0  0
   -3.1422   21.4694  -31.8672 H   0  0  0  0  0  0  0  0  0  0  0  0
   -2.5384   22.4694  -33.2318 H   0  0  0  0  0  0  0  0  0  0  0  0
   -4.2355   21.8809  -33.2318 H   0  0  0  0  0  0  0  0  0  0  0  0
    0.5499   17.9622  -32.9110 H   0  0  0  0  0  0  0  0  0  0  0  0
    1.2117   17.0187  -30.6990 H   0  0  0  0  0  0  0  0  0  0  0  0
   -4.4014   21.2709  -29.6997 H   0  0  0  0  0  0  0  0  0  0  0  0
   -5.1274   23.3419  -30.8813 H   0  0  0  0  0  0  0  0  0  0  0  0
   -0.9935   23.4043  -28.0761 H   0  0  0  0  0  0  0  0  0  0  0  0
   -1.5569   21.1722  -30.9128 H   0  0  0  0  0  0  0  0  0  0  0  0
  1  2  1  0
  2  3  1  0
  2  4  1  0
  4  5  2  0
  4  6  2  0
  4  7  1  0
  7  8  2  0
  8  9  1  0
  9 10  2  0
 10 11  1  0
 10 12  1  0
 12 13  1  0
 13 14  1  0
 14 15  2  0
 14 16  1  0
 16 17  2  0
 17 18  1  0
 18 19  2  0
 19 20  1  0
 19 21  1  0
 21 22  1  0
 21 23  2  0
 12 24  2  0
 24  7  1  0
 23 16  1  0
  1 25  1  0
  1 26  1  0
  1 27  1  0
  3 28  1  0
  3 29  1  0
  3 30  1  0
  8 31  1  0
  9 32  1  0
 17 33  1  0
 18 34  1  0
 23 35  1  0
 24 36  1  0
M  CHG  3  13  -1  20  -1  22  -1
M  END
>  <UniqueID>  (23) 
22

>  <SMILES>  (23) 
CN(C)S(=O)(=O)c1ccc(Cl)c([N-]C(=O)c2ccc([O-])c([O-])c2)c1

>  <Energy>  (23) 
39.243784383107595

>  <Genealogy>  (23) 
CN(C)S(=O)(=O)c1ccc(Cl)c([N-]C(=O)c2ccc([O-])c([O-])c2)c1 (protonated)
CN(C)S(=O)(=O)c1ccc(Cl)c([N-]C(=O)c2ccc([O-])c([O-])c2)c1 (3D coordinates assigned)
CN(C)S(=O)(=O)c1ccc(Cl)c([N-]C(=O)c2ccc([O-])c([O-])c2)c1 (optimized conformer: 39.243784383107595 kcal/mol)

>  <smiles>  (23) 
CN(C)S(=O)(=O)c1ccc(Cl)c(NC(=O)c2ccc(O)c(O)c2)c1

>  <score_type>  (23) 
oracle

>  <origin>  (23) 
adgpu

>  <m_score__min__energy>  (23) 
-13.4

>  <m_primary>  (23) 
energy

$$$$
23:0
     RDKit          3D

 45 48  0  0  0  0  0  0  0  0999 V2000
   -3.0710   20.0490  -31.1120 O   0  0  0  0  0  0  0  0  0  0  0  0
   -3.4650   21.0950  -30.5260 C   0  0  0  0  0  0  0  0  0  0  0  0
   -4.2880   22.0130  -31.2160 C   0  0  0  0  0  0  0  0  0  0  0  0
   -4.6050   21.7890  -32.6820 C   0  0  0  0  0  0  0  0  0  0  0  0
   -4.7380   20.3550  -32.9630 N   0  0  0  0  0  0  0  0  0  0  0  0
   -6.0500   19.9430  -32.6540 N   0  0  0  0  0  0  0  0  0  0  0  0
   -7.1540   20.0960  -33.4050 C   0  0  0  0  0  0  0  0  0  0  0  0
   -8.2030   19.4780  -32.8280 N   0  0  0  0  0  0  0  0  0  0  0  0
   -7.7630   18.9160  -31.7080 N   0  0  0  0  0  0  0  0  0  0  0  0
   -6.4480   19.1970  -31.6110 C   0  0  0  0  0  0  0  0  0  0  0  0
   -4.7170   23.1770  -30.5420 C   0  0  0  0  0  0  0  0  0  0  0  0
   -5.7460   24.4280  -31.3350 S   0  0  0  0  0  0  0  0  0  0  0  0
   -7.2240   23.4080  -31.2910 C   0  0  0  0  0  0  0  0  0  0  0  0
   -8.1500   23.4510  -32.3420 C   0  0  0  0  0  0  0  0  0  0  0  0
   -9.2980   22.6530  -32.2990 C   0  0  0  0  0  0  0  0  0  0  0  0
   -9.5280   21.8160  -31.2040 C   0  0  0  0  0  0  0  0  0  0  0  0
   -8.6140   21.7800  -30.1470 C   0  0  0  0  0  0  0  0  0  0  0  0
   -7.4660   22.5780  -30.1870 C   0  0  0  0  0  0  0  0  0  0  0  0
   -4.3160   23.3940  -29.2240 C   0  0  0  0  0  0  0  0  0  0  0  0
   -3.5180   22.4570  -28.5760 C   0  0  0  0  0  0  0  0  0  0  0  0
   -3.1000   21.3290  -29.2220 N   0  0  0  0  0  0  0  0  0  0  0  0
   -2.2590   20.3980  -28.5110 C   0  0  0  0  0  0  0  0  0  0  0  0
   -2.7570   19.7030  -27.3960 C   0  0  0  0  0  0  0  0  0  0  0  0
   -1.9380   18.8080  -26.7010 C   0  0  0  0  0  0  0  0  0  0  0  0
   -0.6180   18.6020  -27.1100 C   0  0  0  0  0  0  0  0  0  0  0  0
   -0.1130   19.2940  -28.2150 C   0  0  0  0  0  0  0  0  0  0  0  0
   -0.9280   20.1910  -28.9130 C   0  0  0  0  0  0  0  0  0  0  0  0
   -5.5490   22.2961  -32.9303 H   0  0  0  0  0  0  0  0  0  0  0  0
   -3.7850   22.1975  -33.2909 H   0  0  0  0  0  0  0  0  0  0  0  0
   -4.0640   19.8070  -32.3780 H   0  0  0  0  0  0  0  0  0  0  0  0
   -4.5550   20.1640  -33.9750 H   0  0  0  0  0  0  0  0  0  0  0  0
   -7.1953   20.6475  -34.3558 H   0  0  0  0  0  0  0  0  0  0  0  0
   -5.7934   18.8623  -30.7928 H   0  0  0  0  0  0  0  0  0  0  0  0
   -7.9737   24.1135  -33.2023 H   0  0  0  0  0  0  0  0  0  0  0  0
  -10.0204   22.6844  -33.1280 H   0  0  0  0  0  0  0  0  0  0  0  0
  -10.4286   21.1852  -31.1738 H   0  0  0  0  0  0  0  0  0  0  0  0
   -8.7977   21.1238  -29.2834 H   0  0  0  0  0  0  0  0  0  0  0  0
   -6.7516   22.5544  -29.3509 H   0  0  0  0  0  0  0  0  0  0  0  0
   -4.6309   24.3066  -28.6967 H   0  0  0  0  0  0  0  0  0  0  0  0
   -3.2201   22.6267  -27.5308 H   0  0  0  0  0  0  0  0  0  0  0  0
   -3.7948   19.8636  -27.0688 H   0  0  0  0  0  0  0  0  0  0  0  0
   -2.3338   18.2648  -25.8302 H   0  0  0  0  0  0  0  0  0  0  0  0
    0.0237   17.8957  -26.5629 H   0  0  0  0  0  0  0  0  0  0  0  0
    0.9267   19.1327  -28.5358 H   0  0  0  0  0  0  0  0  0  0  0  0
   -0.5261   20.7364  -29.7796 H   0  0  0  0  0  0  0  0  0  0  0  0
  1  2  2  0
  2  3  1  0
  3  4  1  0
  4  5  1  0
  5  6  1  0
  6  7  1  0
  7  8  2  0
  8  9  1  0
  9 10  2  0
  3 11  2  0
 11 12  1  0
 12 13  1  0
 13 14  2  0
 14 15  1  0
 15 16  2  0
 16 17  1  0
 17 18  2  0
 11 19  1  0
 19 20  2  0
 20 21  1  0
 21 22  1  0
 22 23  2  0
 23 24  1  0
 24 25  2  0
 25 26  1  0
 26 27  2  0
 21  2  1  0
 27 22  1  0
 10  6  1  0
 18 13  1  0
  4 28  1  0
  4 29  1  0
  5 30  1  0
  5 31  1  0
  7 32  1  0
 10 33  1  0
 14 34  1  0
 15 35  1  0
 16 36  1  0
 17 37  1  0
 18 38  1  0
 19 39  1  0
 20 40  1  0
 23 41  1  0
 24 42  1  0
 25 43  1  0
 26 44  1  0
 27 45  1  0
M  CHG  1   5   1
M  END
>  <UniqueID>  (24) 
23

>  <SMILES>  (24) 
O=c1c(C[NH2+]n2cnnc2)c(Sc2ccccc2)ccn1-c1ccccc1

>  <Energy>  (24) 
91.76036251421945

>  <Genealogy>  (24) 
O=c1c(C[NH2+]n2cnnc2)c(Sc2ccccc2)ccn1-c1ccccc1 (protonated)
O=c1c(C[NH2+]n2cnnc2)c(Sc2ccccc2)ccn1-c1ccccc1 (3D coordinates assigned)
O=c1c(C[NH2+]n2cnnc2)c(Sc2ccccc2)ccn1-c1ccccc1 (optimized conformer: 91.76036251421945 kcal/mol)

>  <smiles>  (24) 
O=c1c(CNn2cnnc2)c(Sc2ccccc2)ccn1-c1ccccc1

>  <score_type>  (24) 
oracle

>  <origin>  (24) 
adgpu

>  <m_score__min__energy>  (24) 
-7.3700000000000001

>  <m_primary>  (24) 
energy

$$$$
24:0
     RDKit          3D

 44 46  0  0  0  0  0  0  0  0999 V2000
   -1.4140   24.6230  -28.5810 C   0  0  0  0  0  0  0  0  0  0  0  0
   -2.4280   25.2640  -29.3480 O   0  0  0  0  0  0  0  0  0  0  0  0
   -3.7080   24.7350  -29.5670 C   0  0  0  0  0  0  0  0  0  0  0  0
   -4.6250   25.3200  -30.4620 C   0  0  0  0  0  0  0  0  0  0  0  0
   -5.8890   24.7520  -30.6480 C   0  0  0  0  0  0  0  0  0  0  0  0
   -6.2580   23.5970  -29.9430 C   0  0  0  0  0  0  0  0  0  0  0  0
   -7.6010   22.9600  -30.1830 C   0  0  0  0  0  0  0  0  0  0  0  0
   -8.0450   22.9730  -31.9590 S   0  0  0  0  0  0  0  0  0  0  0  0
   -7.6660   21.2430  -32.2230 C   0  0  0  0  0  0  0  0  0  0  0  0
   -8.6060   20.3010  -31.9690 N   0  0  0  0  0  0  0  0  0  0  0  0
   -8.3720   18.9880  -32.2200 C   0  0  0  0  0  0  0  0  0  0  0  0
   -9.2800   18.1490  -31.9750 O   0  0  0  0  0  0  0  0  0  0  0  0
   -7.1340   18.5810  -32.7570 C   0  0  0  0  0  0  0  0  0  0  0  0
   -6.8750   17.1300  -33.0840 C   0  0  0  0  0  0  0  0  0  0  0  0
   -6.1710   19.5860  -33.0200 C   0  0  0  0  0  0  0  0  0  0  0  0
   -4.8530   19.2990  -33.6910 C   0  0  0  0  0  0  0  0  0  0  0  0
   -3.7440   20.0930  -33.0480 C   0  0  0  0  0  0  0  0  0  0  0  0
   -2.6160   20.4680  -33.7980 C   0  0  0  0  0  0  0  0  0  0  0  0
   -1.5780   21.1890  -33.1990 C   0  0  0  0  0  0  0  0  0  0  0  0
   -1.6610   21.5450  -31.8510 C   0  0  0  0  0  0  0  0  0  0  0  0
   -2.7840   21.1850  -31.1000 C   0  0  0  0  0  0  0  0  0  0  0  0
   -3.8240   20.4630  -31.6950 C   0  0  0  0  0  0  0  0  0  0  0  0
   -6.4690   20.8830  -32.7440 N   0  0  0  0  0  0  0  0  0  0  0  0
   -5.3440   23.0150  -29.0520 C   0  0  0  0  0  0  0  0  0  0  0  0
   -4.0800   23.5820  -28.8670 C   0  0  0  0  0  0  0  0  0  0  0  0
   -1.6251   24.7564  -27.5097 H   0  0  0  0  0  0  0  0  0  0  0  0
   -1.3967   23.5495  -28.8204 H   0  0  0  0  0  0  0  0  0  0  0  0
   -0.4369   25.0678  -28.8204 H   0  0  0  0  0  0  0  0  0  0  0  0
   -4.3455   26.2276  -31.0170 H   0  0  0  0  0  0  0  0  0  0  0  0
   -6.5980   25.2135  -31.3511 H   0  0  0  0  0  0  0  0  0  0  0  0
   -7.5703   21.9185  -29.8303 H   0  0  0  0  0  0  0  0  0  0  0  0
   -8.3591   23.5382  -29.6345 H   0  0  0  0  0  0  0  0  0  0  0  0
   -6.7726   16.5565  -32.1509 H   0  0  0  0  0  0  0  0  0  0  0  0
   -7.7160   16.7303  -33.6697 H   0  0  0  0  0  0  0  0  0  0  0  0
   -5.9477   17.0460  -33.6697 H   0  0  0  0  0  0  0  0  0  0  0  0
   -4.6280   18.2260  -33.6011 H   0  0  0  0  0  0  0  0  0  0  0  0
   -4.9254   19.5861  -34.7504 H   0  0  0  0  0  0  0  0  0  0  0  0
   -2.5493   20.1931  -34.8610 H   0  0  0  0  0  0  0  0  0  0  0  0
   -0.6957   21.4759  -33.7899 H   0  0  0  0  0  0  0  0  0  0  0  0
   -0.8424   22.1089  -31.3800 H   0  0  0  0  0  0  0  0  0  0  0  0
   -2.8499   21.4699  -30.0396 H   0  0  0  0  0  0  0  0  0  0  0  0
   -4.7072   20.1841  -31.1017 H   0  0  0  0  0  0  0  0  0  0  0  0
   -5.6235   22.1079  -28.4962 H   0  0  0  0  0  0  0  0  0  0  0  0
   -3.3716   23.1178  -28.1651 H   0  0  0  0  0  0  0  0  0  0  0  0
  1  2  1  0
  2  3  1  0
  3  4  2  0
  4  5  1  0
  5  6  2  0
  6  7  1  0
  7  8  1  0
  8  9  1  0
  9 10  2  0
 10 11  1  0
 11 12  2  0
 11 13  1  0
 13 14  1  0
 13 15  2  0
 15 16  1  0
 16 17  1  0
 17 18  2  0
 18 19  1  0
 19 20  2  0
 20 21  1  0
 21 22  2  0
 15 23  1  0
  6 24  1  0
 24 25  2  0
 25  3  1  0
 23  9  1  0
 22 17  1  0
  1 26  1  0
  1 27  1  0
  1 28  1  0
  4 29  1  0
  5 30  1  0
  7 31  1  0
  7 32  1  0
 14 33  1  0
 14 34  1  0
 14 35  1  0
 16 36  1  0
 16 37  1  0
 18 38  1  0
 19 39  1  0
 20 40  1  0
 21 41  1  0
 22 42  1  0
 24 43  1  0
 25 44  1  0
M  CHG  1  23  -1
M  END
>  <UniqueID>  (25) 
24

>  <SMILES>  (25) 
COc1ccc(CSc2nc(=O)c(C)c(Cc3ccccc3)[n-]2)cc1

>  <Energy>  (25) 
41.44664956292221

>  <Genealogy>  (25) 
COc1ccc(CSc2nc(=O)c(C)c(Cc3ccccc3)[n-]2)cc1 (protonated)
COc1ccc(CSc2nc(=O)c(C)c(Cc3ccccc3)[n-]2)cc1 (3D coordinates assigned)
COc1ccc(CSc2nc(=O)c(C)c(Cc3ccccc3)[n-]2)cc1 (optimized conformer: 41.44664956292221 kcal/mol)

>  <smiles>  (25) 
COc1ccc(CSc2nc(=O)c(C)c(Cc3ccccc3)[nH]2)cc1

>  <score_type>  (25) 
oracle

>  <origin>  (25) 
adgpu

>  <m_score__min__energy>  (25) 
-9

>  <m_primary>  (25) 
energy

$$$$
25:0
     RDKit          3D

 54 56  0  0  0  0  0  0  0  0999 V2000
   -1.2340   26.4320  -27.7970 C   0  0  0  0  0  0  0  0  0  0  0  0
   -1.9570   25.4240  -28.4890 O   0  0  0  0  0  0  0  0  0  0  0  0
   -1.8380   24.0360  -28.3050 C   0  0  0  0  0  0  0  0  0  0  0  0
   -2.9230   23.1890  -28.2030 C   0  0  0  0  0  0  0  0  0  0  0  0
   -4.3770   23.5530  -28.2920 C   0  0  0  0  0  0  0  0  0  0  0  0
   -4.5750   24.6650  -29.2370 N   0  0  0  0  0  0  0  0  0  0  0  0
   -4.3520   24.2700  -30.6380 C   0  0  0  0  0  0  0  0  0  0  0  0
   -5.3490   23.2370  -31.0770 C   0  0  0  0  0  0  0  0  0  0  0  0
   -6.7140   23.4280  -31.1720 C   0  0  0  0  0  0  0  0  0  0  0  0
   -7.2370   22.2490  -31.6710 C   0  0  0  0  0  0  0  0  0  0  0  0
   -8.6900   21.9990  -31.9310 C   0  0  0  0  0  0  0  0  0  0  0  0
   -6.2470   21.3510  -31.8840 N   0  0  0  0  0  0  0  0  0  0  0  0
   -6.3950   20.0320  -32.4270 C   0  0  0  0  0  0  0  0  0  0  0  0
   -7.0760   19.0410  -31.7050 C   0  0  0  0  0  0  0  0  0  0  0  0
   -7.2120   17.7540  -32.2320 C   0  0  0  0  0  0  0  0  0  0  0  0
   -6.6580   17.4390  -33.4820 C   0  0  0  0  0  0  0  0  0  0  0  0
   -6.8380   16.0680  -34.0630 C   0  0  0  0  0  0  0  0  0  0  0  0
   -5.9910   18.4350  -34.2120 C   0  0  0  0  0  0  0  0  0  0  0  0
   -5.8540   19.7210  -33.6830 C   0  0  0  0  0  0  0  0  0  0  0  0
   -5.0890   21.9460  -31.5190 C   0  0  0  0  0  0  0  0  0  0  0  0
   -3.7450   21.2780  -31.5590 C   0  0  0  0  0  0  0  0  0  0  0  0
   -2.3690   21.9380  -27.9980 C   0  0  0  0  0  0  0  0  0  0  0  0
   -3.1090   20.6510  -27.8280 C   0  0  0  0  0  0  0  0  0  0  0  0
   -1.0250   22.0310  -28.0070 N   0  0  0  0  0  0  0  0  0  0  0  0
   -0.7010   23.3030  -28.1910 N   0  0  0  0  0  0  0  0  0  0  0  0
    0.6890   23.7470  -28.2250 C   0  0  0  0  0  0  0  0  0  0  0  0
   -1.3418   26.2816  -26.7127 H   0  0  0  0  0  0  0  0  0  0  0  0
   -0.1703   26.3740  -28.0712 H   0  0  0  0  0  0  0  0  0  0  0  0
   -1.6300   27.4210  -28.0712 H   0  0  0  0  0  0  0  0  0  0  0  0
   -4.9482   22.6787  -28.6374 H   0  0  0  0  0  0  0  0  0  0  0  0
   -4.7262   23.8661  -27.2970 H   0  0  0  0  0  0  0  0  0  0  0  0
   -3.8650   25.4000  -29.0110 H   0  0  0  0  0  0  0  0  0  0  0  0
   -4.4486   25.1576  -31.2806 H   0  0  0  0  0  0  0  0  0  0  0  0
   -3.3438   23.8381  -30.7215 H   0  0  0  0  0  0  0  0  0  0  0  0
   -7.2732   24.3366  -30.9042 H   0  0  0  0  0  0  0  0  0  0  0  0
   -9.2234   21.9072  -30.9733 H   0  0  0  0  0  0  0  0  0  0  0  0
   -9.1094   22.8382  -32.5053 H   0  0  0  0  0  0  0  0  0  0  0  0
   -8.8048   21.0679  -32.5053 H   0  0  0  0  0  0  0  0  0  0  0  0
   -7.5047   19.2778  -30.7201 H   0  0  0  0  0  0  0  0  0  0  0  0
   -7.7558   16.9845  -31.6644 H   0  0  0  0  0  0  0  0  0  0  0  0
   -6.9343   15.3345  -33.2489 H   0  0  0  0  0  0  0  0  0  0  0  0
   -7.7464   16.0489  -34.6831 H   0  0  0  0  0  0  0  0  0  0  0  0
   -5.9654   15.8151  -34.6831 H   0  0  0  0  0  0  0  0  0  0  0  0
   -5.5749   18.2026  -35.2034 H   0  0  0  0  0  0  0  0  0  0  0  0
   -5.3190   20.4936  -34.2547 H   0  0  0  0  0  0  0  0  0  0  0  0
   -3.3920   21.1026  -30.5320 H   0  0  0  0  0  0  0  0  0  0  0  0
   -3.8289   20.3167  -32.0871 H   0  0  0  0  0  0  0  0  0  0  0  0
   -3.0294   21.9253  -32.0871 H   0  0  0  0  0  0  0  0  0  0  0  0
   -3.2318   20.4375  -26.7559 H   0  0  0  0  0  0  0  0  0  0  0  0
   -4.0986   20.7317  -28.3015 H   0  0  0  0  0  0  0  0  0  0  0  0
   -2.5414   19.8364  -28.3015 H   0  0  0  0  0  0  0  0  0  0  0  0
    1.0612   23.8659  -27.1967 H   0  0  0  0  0  0  0  0  0  0  0  0
    1.3000   22.9993  -28.7519 H   0  0  0  0  0  0  0  0  0  0  0  0
    0.7534   24.7104  -28.7519 H   0  0  0  0  0  0  0  0  0  0  0  0
  1  2  1  0
  2  3  1  0
  3  4  2  0
  4  5  1  0
  5  6  1  0
  6  7  1  0
  7  8  1  0
  8  9  1  0
  9 10  2  0
 10 11  1  0
 10 12  1  0
 12 13  1  0
 13 14  2  0
 14 15  1  0
 15 16  2  0
 16 17  1  0
 16 18  1  0
 18 19  2  0
 12 20  1  0
 20 21  1  0
  4 22  1  0
 22 23  1  0
 22 24  2  0
 24 25  1  0
 25 26  1  0
 25  3  1  0
 20  8  2  0
 19 13  1  0
  1 27  1  0
  1 28  1  0
  1 29  1  0
  5 30  1  0
  5 31  1  0
  6 32  1  0
  7 33  1  0
  7 34  1  0
  9 35  1  0
 11 36  1  0
 11 37  1  0
 11 38  1  0
 14 39  1  0
 15 40  1  0
 17 41  1  0
 17 42  1  0
 17 43  1  0
 18 44  1  0
 19 45  1  0
 21 46  1  0
 21 47  1  0
 21 48  1  0
 23 49  1  0
 23 50  1  0
 23 51  1  0
 26 52  1  0
 26 53  1  0
 26 54  1  0
M  END
>  <UniqueID>  (26) 
25

>  <SMILES>  (26) 
COc1c(CNCc2cc(C)n(-c3ccc(C)cc3)c2C)c(C)nn1C

>  <Energy>  (26) 
109.2967127179825

>  <Genealogy>  (26) 
COc1c(CNCc2cc(C)n(-c3ccc(C)cc3)c2C)c(C)nn1C (3D coordinates assigned)
COc1c(CNCc2cc(C)n(-c3ccc(C)cc3)c2C)c(C)nn1C (optimized conformer: 109.2967127179825 kcal/mol)

>  <smiles>  (26) 
COc1c(CNCc2cc(C)n(-c3ccc(C)cc3)c2C)c(C)nn1C

>  <score_type>  (26) 
oracle

>  <origin>  (26) 
adgpu

>  <m_score__min__energy>  (26) 
-9.5099999999999998

>  <m_primary>  (26) 
energy

$$$$
26:0
     RDKit          3D

 20 21  0  0  0  0  0  0  0  0999 V2000
   -9.1350   18.8360  -33.3560 H   0  0  0  0  0  0  0  0  0  0  0  0
   -8.2080   19.2300  -33.0790 N   0  0  0  0  0  0  0  0  0  0  0  0
   -8.1150   20.3960  -32.5250 C   0  0  0  0  0  0  0  0  0  0  0  0
   -9.4170   21.4010  -32.1880 S   0  0  0  0  0  0  0  0  0  0  0  0
   -8.4370   22.6080  -31.5370 C   0  0  0  0  0  0  0  0  0  0  0  0
   -8.7855   23.5693  -31.1315 H   0  0  0  0  0  0  0  0  0  0  0  0
   -7.1060   22.1820  -31.5990 C   0  0  0  0  0  0  0  0  0  0  0  0
   -5.9640   22.9930  -31.1070 C   0  0  0  0  0  0  0  0  0  0  0  0
   -6.0950   24.3850  -30.9440 C   0  0  0  0  0  0  0  0  0  0  0  0
   -7.0504   24.8755  -31.1822 H   0  0  0  0  0  0  0  0  0  0  0  0
   -5.0180   25.1490  -30.4810 C   0  0  0  0  0  0  0  0  0  0  0  0
   -5.1293   26.2364  -30.3578 H   0  0  0  0  0  0  0  0  0  0  0  0
   -3.8020   24.5340  -30.1750 C   0  0  0  0  0  0  0  0  0  0  0  0
   -2.7350   25.2940  -29.7140 O   0  0  0  0  0  0  0  0  0  0  0  0
   -3.6590   23.1530  -30.3330 C   0  0  0  0  0  0  0  0  0  0  0  0
   -2.7012   22.6687  -30.0921 H   0  0  0  0  0  0  0  0  0  0  0  0
   -4.7320   22.3860  -30.7970 C   0  0  0  0  0  0  0  0  0  0  0  0
   -4.6127   21.2995  -30.9209 H   0  0  0  0  0  0  0  0  0  0  0  0
   -6.9420   20.9460  -32.1540 N   0  0  0  0  0  0  0  0  0  0  0  0
   -6.0190   20.4790  -32.3030 H   0  0  0  0  0  0  0  0  0  0  0  0
  1  2  1  0
  2  3  2  0
  3  4  1  0
  4  5  1  0
  5  6  1  0
  5  7  2  0
  7  8  1  0
  8  9  2  0
  9 10  1  0
  9 11  1  0
 11 12  1  0
 11 13  2  0
 13 14  1  0
 13 15  1  0
 15 16  1  0
 15 17  2  0
 17 18  1  0
  7 19  1  0
 19 20  1  0
 19  3  1  0
 17  8  1  0
M  CHG  1  14  -1
M  END
>  <UniqueID>  (27) 
26

>  <SMILES>  (27) 
[H]/N=c1/[nH]c(-c2ccc([O-])cc2)cs1

>  <Energy>  (27) 
53.919158484068326

>  <Genealogy>  (27) 
N=c1[nH]c(-c2ccc([O-])cc2)cs1 (protonated)
[H]/N=c1/[nH]c(-c2ccc([O-])cc2)cs1 (cis-trans isomerization)
[H]/N=c1/[nH]c(-c2ccc([O-])cc2)cs1 (3D coordinates assigned)
[H]/N=c1/[nH]c(-c2ccc([O-])cc2)cs1 (optimized conformer: 53.919158484068326 kcal/mol)

>  <smiles>  (27) 
N=c1[nH]c(-c2ccc(O)cc2)cs1

>  <score_type>  (27) 
oracle

>  <origin>  (27) 
adgpu

>  <m_score__min__energy>  (27) 
-8.9700000000000006

>  <m_primary>  (27) 
energy

$$$$
27:0
     RDKit          3D

 52 54  0  0  0  0  0  0  0  0999 V2000
   -7.0220   17.2900  -32.3910 C   0  0  0  0  0  0  0  0  0  0  0  0
   -7.1830   18.3220  -33.4320 N   0  0  0  0  0  0  0  0  0  0  0  0
   -5.9390   18.5340  -34.1950 C   0  0  0  0  0  0  0  0  0  0  0  0
   -4.8690   19.2870  -33.3910 C   0  0  0  0  0  0  0  0  0  0  0  0
   -5.4330   20.5000  -32.7890 N   0  0  0  0  0  0  0  0  0  0  0  0
   -4.6550   21.7200  -32.7310 C   0  0  0  0  0  0  0  0  0  0  0  0
   -3.7400   21.9240  -33.5750 O   0  0  0  0  0  0  0  0  0  0  0  0
   -4.9190   22.7560  -31.7110 C   0  0  0  0  0  0  0  0  0  0  0  0
   -6.2450   23.1550  -31.4770 C   0  0  0  0  0  0  0  0  0  0  0  0
   -6.5260   24.1420  -30.5320 C   0  0  0  0  0  0  0  0  0  0  0  0
   -5.4900   24.7400  -29.8120 C   0  0  0  0  0  0  0  0  0  0  0  0
   -4.1620   24.3370  -30.0060 C   0  0  0  0  0  0  0  0  0  0  0  0
   -3.1180   25.0070  -29.2830 N   0  0  0  0  0  0  0  0  0  0  0  0
   -2.2230   24.3270  -28.4060 C   0  0  0  0  0  0  0  0  0  0  0  0
   -1.3120   23.2870  -28.5190 C   0  0  0  0  0  0  0  0  0  0  0  0
   -0.8730   22.4050  -29.5550 N   0  0  0  0  0  0  0  0  0  0  0  0
   -0.5020   21.0160  -29.2900 C   0  0  0  0  0  0  0  0  0  0  0  0
   -1.1970   20.0620  -30.2760 C   0  0  0  0  0  0  0  0  0  0  0  0
   -0.6900   20.2090  -31.7090 C   0  0  0  0  0  0  0  0  0  0  0  0
   -0.9360   21.5080  -32.1730 O   0  0  0  0  0  0  0  0  0  0  0  0
   -1.0380   23.3920  -27.1680 C   0  0  0  0  0  0  0  0  0  0  0  0
   -0.2850   22.7850  -26.3610 O   0  0  0  0  0  0  0  0  0  0  0  0
   -1.9520   24.4170  -27.0560 C   0  0  0  0  0  0  0  0  0  0  0  0
   -2.3680   25.1390  -26.1110 O   0  0  0  0  0  0  0  0  0  0  0  0
   -3.8650   23.3570  -30.9770 C   0  0  0  0  0  0  0  0  0  0  0  0
   -2.5300   23.0410  -31.2390 O   0  0  0  0  0  0  0  0  0  0  0  0
   -6.7000   20.3730  -32.0640 C   0  0  0  0  0  0  0  0  0  0  0  0
   -7.7240   19.5880  -32.8950 C   0  0  0  0  0  0  0  0  0  0  0  0
   -7.0948   17.7568  -31.3976 H   0  0  0  0  0  0  0  0  0  0  0  0
   -7.8130   16.5333  -32.4994 H   0  0  0  0  0  0  0  0  0  0  0  0
   -6.0381   16.8102  -32.4994 H   0  0  0  0  0  0  0  0  0  0  0  0
   -5.5343   17.5537  -34.4869 H   0  0  0  0  0  0  0  0  0  0  0  0
   -6.1889   19.1496  -35.0717 H   0  0  0  0  0  0  0  0  0  0  0  0
   -4.4880   18.6316  -32.5940 H   0  0  0  0  0  0  0  0  0  0  0  0
   -4.0529   19.5749  -34.0700 H   0  0  0  0  0  0  0  0  0  0  0  0
   -7.0654   22.6874  -32.0411 H   0  0  0  0  0  0  0  0  0  0  0  0
   -7.5668   24.4500  -30.3536 H   0  0  0  0  0  0  0  0  0  0  0  0
   -5.7182   25.5344  -29.0861 H   0  0  0  0  0  0  0  0  0  0  0  0
   -3.0470   26.0450  -29.3430 H   0  0  0  0  0  0  0  0  0  0  0  0
   -0.5320   22.8500  -30.4370 H   0  0  0  0  0  0  0  0  0  0  0  0
    0.5879   20.9088  -29.3934 H   0  0  0  0  0  0  0  0  0  0  0  0
   -0.8196   20.7572  -28.2692 H   0  0  0  0  0  0  0  0  0  0  0  0
   -1.0199   19.0276  -29.9463 H   0  0  0  0  0  0  0  0  0  0  0  0
   -2.2674   20.3155  -30.2789 H   0  0  0  0  0  0  0  0  0  0  0  0
    0.3918   20.0117  -31.7348 H   0  0  0  0  0  0  0  0  0  0  0  0
   -1.2157   19.4894  -32.3538 H   0  0  0  0  0  0  0  0  0  0  0  0
   -1.8310   21.4830  -32.5980 H   0  0  0  0  0  0  0  0  0  0  0  0
   -2.2130   22.6670  -32.1230 H   0  0  0  0  0  0  0  0  0  0  0  0
   -6.5222   19.8438  -31.1162 H   0  0  0  0  0  0  0  0  0  0  0  0
   -7.0990   21.3796  -31.8700 H   0  0  0  0  0  0  0  0  0  0  0  0
   -8.5897   19.3566  -32.2570 H   0  0  0  0  0  0  0  0  0  0  0  0
   -8.0029   20.2170  -33.7533 H   0  0  0  0  0  0  0  0  0  0  0  0
  1  2  1  0
  2  3  1  0
  3  4  1  0
  4  5  1  0
  5  6  1  0
  6  7  2  0
  6  8  1  0
  8  9  2  0
  9 10  1  0
 10 11  2  0
 11 12  1  0
 12 13  1  0
 13 14  1  0
 14 15  2  0
 15 16  1  0
 16 17  1  0
 17 18  1  0
 18 19  1  0
 19 20  1  0
 15 21  1  0
 21 22  2  0
 21 23  1  0
 23 24  2  0
 12 25  2  0
 25 26  1  0
  5 27  1  0
 27 28  1  0
 28  2  1  0
 25  8  1  0
 23 14  1  0
  1 29  1  0
  1 30  1  0
  1 31  1  0
  3 32  1  0
  3 33  1  0
  4 34  1  0
  4 35  1  0
  9 36  1  0
 10 37  1  0
 11 38  1  0
 13 39  1  0
 16 40  1  0
 17 41  1  0
 17 42  1  0
 18 43  1  0
 18 44  1  0
 19 45  1  0
 19 46  1  0
 20 47  1  0
 26 48  1  0
 27 49  1  0
 27 50  1  0
 28 51  1  0
 28 52  1  0
M  END
>  <UniqueID>  (28) 
27

>  <SMILES>  (28) 
CN1CCN(C(=O)c2cccc(Nc3c(NCCCO)c(=O)c3=O)c2O)CC1

>  <Energy>  (28) 
56.72584949416168

>  <Genealogy>  (28) 
CN1CCN(C(=O)c2cccc(Nc3c(NCCCO)c(=O)c3=O)c2O)CC1 (3D coordinates assigned)
CN1CCN(C(=O)c2cccc(Nc3c(NCCCO)c(=O)c3=O)c2O)CC1 (nonaromatic ring conformer: 56.72584949416168 kcal/mol)

>  <smiles>  (28) 
CN1CCN(C(=O)c2cccc(Nc3c(NCCCO)c(=O)c3=O)c2O)CC1

>  <score_type>  (28) 
oracle

>  <origin>  (28) 
adgpu

>  <m_score__min__energy>  (28) 
-9.0299999999999994

>  <m_primary>  (28) 
energy

$$$$
28:0
     RDKit          3D

 39 41  0  0  1  0  0  0  0  0999 V2000
   -0.9690   26.4600  -26.4390 C   0  0  0  0  0  0  0  0  0  0  0  0
   -0.5620   25.6520  -27.9950 S   0  0  0  0  0  0  0  0  0  0  0  0
   -1.8450   24.5080  -28.5000 C   0  0  0  0  0  0  0  0  0  0  0  0
   -2.6900   24.9240  -29.4610 N   0  0  0  0  0  0  0  0  0  0  0  0
   -3.6890   24.1300  -29.9050 C   0  0  0  0  0  0  0  0  0  0  0  0
   -4.5200   24.4920  -30.8250 N   0  0  0  0  0  0  0  0  0  0  0  0
   -5.5460   23.5590  -31.2190 C   0  0  0  0  0  0  0  0  0  0  0  0
   -6.8260   23.6250  -30.7030 C   0  0  0  0  0  0  0  0  0  0  0  0
   -7.7390   22.6820  -31.1470 C   0  0  0  0  0  0  0  0  0  0  0  0
   -7.4190   21.7070  -32.0660 C   0  0  0  0  0  0  0  0  0  0  0  0
   -6.1320   21.6690  -32.5620 C   0  0  0  0  0  0  0  0  0  0  0  0
   -5.7190   20.7240  -33.4870 O   0  0  0  0  0  0  0  0  0  0  0  0
   -6.0000   19.3890  -33.4140 C   0  0  0  0  0  0  0  0  0  0  0  0
   -6.5310   18.7540  -32.3060 C   0  0  0  0  0  0  0  0  0  0  0  0
   -6.7920   17.3810  -32.3060 C   0  0  0  0  0  0  0  0  0  0  0  0
   -6.5060   16.6530  -33.4500 C   0  0  0  0  0  0  0  0  0  0  0  0
   -5.9900   17.2710  -34.5280 N   0  0  0  0  0  0  0  0  0  0  0  0
   -5.7410   18.6040  -34.5170 C   0  0  0  0  0  0  0  0  0  0  0  0
   -5.1690   22.5940  -32.1490 C   0  0  0  0  0  0  0  0  0  0  0  0
   -3.8060   22.8630  -29.3280 C   0  0  0  0  0  0  0  0  0  0  0  0
   -2.9440   22.4290  -28.3440 C   0  0  0  0  0  0  0  0  0  0  0  0
   -3.0960   21.0730  -27.7490 C   0  0  0  0  0  0  0  0  0  0  0  0
   -1.9780   23.2820  -27.9590 N   0  0  0  0  0  0  0  0  0  0  0  0
   -0.6486   25.8239  -25.6007 H   0  0  0  0  0  0  0  0  0  0  0  0
   -0.4514   27.4290  -26.3827 H   0  0  0  0  0  0  0  0  0  0  0  0
   -2.0557   26.6209  -26.3827 H   0  0  0  0  0  0  0  0  0  0  0  0
   -7.1087   24.3947  -29.9697 H   0  0  0  0  0  0  0  0  0  0  0  0
   -8.7637   22.7133  -30.7483 H   0  0  0  0  0  0  0  0  0  0  0  0
   -8.1716   20.9761  -32.3966 H   0  0  0  0  0  0  0  0  0  0  0  0
   -6.7530   19.3432  -31.4040 H   0  0  0  0  0  0  0  0  0  0  0  0
   -7.2150   16.8891  -31.4177 H   0  0  0  0  0  0  0  0  0  0  0  0
   -6.7007   15.5707  -33.4767 H   0  0  0  0  0  0  0  0  0  0  0  0
   -5.3187   19.0740  -35.4174 H   0  0  0  0  0  0  0  0  0  0  0  0
   -4.1440   22.5605  -32.5468 H   0  0  0  0  0  0  0  0  0  0  0  0
   -4.6089   22.1927  -29.6687 H   0  0  0  0  0  0  0  0  0  0  0  0
   -3.0873   21.1509  -26.6518 H   0  0  0  0  0  0  0  0  0  0  0  0
   -4.0491   20.6331  -28.0778 H   0  0  0  0  0  0  0  0  0  0  0  0
   -2.2640   20.4330  -28.0778 H   0  0  0  0  0  0  0  0  0  0  0  0
   -1.3090   22.9720  -27.2090 H   0  0  0  0  0  0  0  0  0  0  0  0
  1  2  1  0
  2  3  1  0
  3  4  2  0
  4  5  1  0
  5  6  2  0
  6  7  1  0
  7  8  2  0
  8  9  1  0
  9 10  2  0
 10 11  1  0
 11 12  1  0
 12 13  1  0
 13 14  2  0
 14 15  1  0
 15 16  2  0
 16 17  1  0
 17 18  2  0
 11 19  2  0
  5 20  1  0
 20 21  2  0
 21 22  1  0
 21 23  1  0
 23  3  1  0
 19  7  1  0
 18 13  1  0
  1 24  1  0
  1 25  1  0
  1 26  1  0
  8 27  1  0
  9 28  1  0
 10 29  1  0
 14 30  1  0
 15 31  1  0
 16 32  1  0
 18 33  1  0
 19 34  1  0
 20 35  1  0
 22 36  1  0
 22 37  1  0
 22 38  1  0
 23 39  1  0
M  END
>  <smiles>  (29) 
CSc1nc(=Nc2cccc(Oc3cccnc3)c2)cc(C)[nH]1

>  <score_type>  (29) 
oracle

>  <origin>  (29) 
adgpu

>  <m_score__min__energy>  (29) 
-8.0800000000000001

>  <m_primary>  (29) 
energy

$$$$
29:0
     RDKit          3D

 43 45  0  0  0  0  0  0  0  0999 V2000
   -4.9890   17.4340  -35.1360 C   0  0  0  0  0  0  0  0  0  0  0  0
   -5.6630   17.7010  -33.9100 O   0  0  0  0  0  0  0  0  0  0  0  0
   -5.9690   18.9860  -33.4340 C   0  0  0  0  0  0  0  0  0  0  0  0
   -7.2770   19.3540  -33.0630 C   0  0  0  0  0  0  0  0  0  0  0  0
   -7.5450   20.6430  -32.5990 C   0  0  0  0  0  0  0  0  0  0  0  0
   -6.5140   21.5920  -32.5080 C   0  0  0  0  0  0  0  0  0  0  0  0
   -6.7430   22.9200  -32.0140 N   0  0  0  0  0  0  0  0  0  0  0  0
   -6.5580   23.3730  -30.6670 C   0  0  0  0  0  0  0  0  0  0  0  0
   -7.5340   23.4490  -29.8720 O   0  0  0  0  0  0  0  0  0  0  0  0
   -5.2250   23.8030  -30.2280 C   0  0  0  0  0  0  0  0  0  0  0  0
   -4.5410   23.3360  -29.1260 C   0  0  0  0  0  0  0  0  0  0  0  0
   -3.3550   24.0440  -29.1480 C   0  0  0  0  0  0  0  0  0  0  0  0
   -2.2800   23.9920  -28.1350 C   0  0  0  0  0  0  0  0  0  0  0  0
   -2.2770   22.9290  -27.2170 C   0  0  0  0  0  0  0  0  0  0  0  0
   -1.2440   22.7930  -26.2880 C   0  0  0  0  0  0  0  0  0  0  0  0
   -0.1870   23.7120  -26.2660 C   0  0  0  0  0  0  0  0  0  0  0  0
    0.9070   23.5810  -25.2490 C   0  0  0  0  0  0  0  0  0  0  0  0
   -0.2040   24.8000  -27.1500 C   0  0  0  0  0  0  0  0  0  0  0  0
   -1.2460   24.9590  -28.0710 C   0  0  0  0  0  0  0  0  0  0  0  0
   -1.2420   26.1030  -28.8710 O   0  0  0  0  0  0  0  0  0  0  0  0
   -3.3590   24.8990  -30.1910 N   0  0  0  0  0  0  0  0  0  0  0  0
   -4.4940   24.7450  -30.8550 N   0  0  0  0  0  0  0  0  0  0  0  0
   -5.2090   21.2200  -32.8530 C   0  0  0  0  0  0  0  0  0  0  0  0
   -4.9300   19.9220  -33.3240 C   0  0  0  0  0  0  0  0  0  0  0  0
   -3.6340   19.5270  -33.6910 O   0  0  0  0  0  0  0  0  0  0  0  0
   -2.4580   20.2920  -33.4520 C   0  0  0  0  0  0  0  0  0  0  0  0
   -3.9855   17.0365  -34.9237 H   0  0  0  0  0  0  0  0  0  0  0  0
   -5.5612   16.6946  -35.7156 H   0  0  0  0  0  0  0  0  0  0  0  0
   -4.8997   18.3647  -35.7156 H   0  0  0  0  0  0  0  0  0  0  0  0
   -8.0931   18.6204  -33.1394 H   0  0  0  0  0  0  0  0  0  0  0  0
   -8.5686   20.9166  -32.3033 H   0  0  0  0  0  0  0  0  0  0  0  0
   -4.8642   22.5767  -28.3987 H   0  0  0  0  0  0  0  0  0  0  0  0
   -3.0971   22.1961  -27.2302 H   0  0  0  0  0  0  0  0  0  0  0  0
   -1.2601   21.9601  -25.5697 H   0  0  0  0  0  0  0  0  0  0  0  0
    0.4761   23.6326  -24.2382 H   0  0  0  0  0  0  0  0  0  0  0  0
    1.4170   22.6154  -25.3813 H   0  0  0  0  0  0  0  0  0  0  0  0
    1.6305   24.3989  -25.3813 H   0  0  0  0  0  0  0  0  0  0  0  0
    0.6114   25.5377  -27.1195 H   0  0  0  0  0  0  0  0  0  0  0  0
   -1.6130   26.1220  -29.8120 H   0  0  0  0  0  0  0  0  0  0  0  0
   -4.3919   21.9499  -32.7551 H   0  0  0  0  0  0  0  0  0  0  0  0
   -2.3010   20.3941  -32.3681 H   0  0  0  0  0  0  0  0  0  0  0  0
   -1.5923   19.7837  -33.9016 H   0  0  0  0  0  0  0  0  0  0  0  0
   -2.5718   21.2895  -33.9016 H   0  0  0  0  0  0  0  0  0  0  0  0
  1  2  1  0
  2  3  1  0
  3  4  2  0
  4  5  1  0
  5  6  2  0
  6  7  1  0
  7  8  1  0
  8  9  2  0
  8 10  1  0
 10 11  1  0
 11 12  2  0
 12 13  1  0
 13 14  2  0
 14 15  1  0
 15 16  2  0
 16 17  1  0
 16 18  1  0
 18 19  2  0
 19 20  1  0
 12 21  1  0
 21 22  1  0
  6 23  1  0
 23 24  2  0
 24 25  1  0
 25 26  1  0
 24  3  1  0
 22 10  2  0
 19 13  1  0
  1 27  1  0
  1 28  1  0
  1 29  1  0
  4 30  1  0
  5 31  1  0
 11 32  1  0
 14 33  1  0
 15 34  1  0
 17 35  1  0
 17 36  1  0
 17 37  1  0
 18 38  1  0
 20 39  1  0
 23 40  1  0
 26 41  1  0
 26 42  1  0
 26 43  1  0
M  CHG  2   7  -1  21  -1
M  END
>  <UniqueID>  (30) 
28

>  <SMILES>  (30) 
COc1ccc([N-]C(=O)c2cc(-c3ccc(C)cc3O)[n-]n2)cc1OC

>  <Energy>  (30) 
81.79951831321719

>  <Genealogy>  (30) 
COc1ccc([N-]C(=O)c2cc(-c3ccc(C)cc3O)[n-]n2)cc1OC (protonated)
COc1ccc([N-]C(=O)c2cc(-c3ccc(C)cc3O)[n-]n2)cc1OC (3D coordinates assigned)
COc1ccc([N-]C(=O)c2cc(-c3ccc(C)cc3O)[n-]n2)cc1OC (optimized conformer: 81.79951831321719 kcal/mol)

>  <smiles>  (30) 
COc1ccc(NC(=O)c2cc(-c3ccc(C)cc3O)[nH]n2)cc1OC

>  <score_type>  (30) 
oracle

>  <origin>  (30) 
adgpu

>  <m_score__min__energy>  (30) 
-10.949999999999999

>  <m_primary>  (30) 
energy

$$$$
30:0
     RDKit          3D

 41 44  0  0  0  0  0  0  0  0999 V2000
    1.1930   19.1810  -36.5450 O   0  0  0  0  0  0  0  0  0  0  0  0
    0.3320   19.6880  -35.5810 C   0  0  0  0  0  0  0  0  0  0  0  0
    0.3690   21.0470  -35.2540 C   0  0  0  0  0  0  0  0  0  0  0  0
   -0.4960   21.5600  -34.2840 C   0  0  0  0  0  0  0  0  0  0  0  0
   -1.4110   20.7160  -33.6260 C   0  0  0  0  0  0  0  0  0  0  0  0
   -2.3310   21.2580  -32.5930 C   0  0  0  0  0  0  0  0  0  0  0  0
   -3.7200   21.0900  -32.7150 C   0  0  0  0  0  0  0  0  0  0  0  0
   -4.5800   21.6220  -31.7380 C   0  0  0  0  0  0  0  0  0  0  0  0
   -6.0550   21.4740  -31.8340 C   0  0  0  0  0  0  0  0  0  0  0  0
   -6.8900   22.5490  -31.4760 C   0  0  0  0  0  0  0  0  0  0  0  0
   -8.2810   22.4290  -31.5670 C   0  0  0  0  0  0  0  0  0  0  0  0
   -8.8530   21.2410  -32.0240 C   0  0  0  0  0  0  0  0  0  0  0  0
   -8.0360   20.1710  -32.3950 C   0  0  0  0  0  0  0  0  0  0  0  0
   -6.6450   20.2840  -32.3050 C   0  0  0  0  0  0  0  0  0  0  0  0
   -4.0440   22.2720  -30.6700 N   0  0  0  0  0  0  0  0  0  0  0  0
   -2.7040   22.4390  -30.5040 C   0  0  0  0  0  0  0  0  0  0  0  0
   -2.2090   23.1800  -29.3200 C   0  0  0  0  0  0  0  0  0  0  0  0
   -1.4620   22.4950  -28.3460 C   0  0  0  0  0  0  0  0  0  0  0  0
   -0.9840   23.1650  -27.2160 C   0  0  0  0  0  0  0  0  0  0  0  0
   -1.2390   24.5270  -27.0500 C   0  0  0  0  0  0  0  0  0  0  0  0
   -1.9630   25.2260  -28.0190 C   0  0  0  0  0  0  0  0  0  0  0  0
   -2.4420   24.5650  -29.1560 C   0  0  0  0  0  0  0  0  0  0  0  0
   -3.1170   25.2980  -30.1260 O   0  0  0  0  0  0  0  0  0  0  0  0
   -1.8250   21.9480  -31.4810 C   0  0  0  0  0  0  0  0  0  0  0  0
   -1.4390   19.3490  -33.9620 C   0  0  0  0  0  0  0  0  0  0  0  0
   -0.5710   18.8410  -34.9340 C   0  0  0  0  0  0  0  0  0  0  0  0
    1.0811   21.7141  -35.7618 H   0  0  0  0  0  0  0  0  0  0  0  0
   -0.4619   22.6304  -34.0327 H   0  0  0  0  0  0  0  0  0  0  0  0
   -4.1348   20.5426  -33.5742 H   0  0  0  0  0  0  0  0  0  0  0  0
   -6.4455   23.4908  -31.1219 H   0  0  0  0  0  0  0  0  0  0  0  0
   -8.9249   23.2726  -31.2778 H   0  0  0  0  0  0  0  0  0  0  0  0
   -9.9469   21.1475  -32.0920 H   0  0  0  0  0  0  0  0  0  0  0  0
   -8.4879   19.2365  -32.7591 H   0  0  0  0  0  0  0  0  0  0  0  0
   -6.0075   19.4388  -32.6037 H   0  0  0  0  0  0  0  0  0  0  0  0
   -1.2518   21.4229  -28.4740 H   0  0  0  0  0  0  0  0  0  0  0  0
   -0.4061   22.6179  -26.4566 H   0  0  0  0  0  0  0  0  0  0  0  0
   -0.8698   25.0504  -26.1557 H   0  0  0  0  0  0  0  0  0  0  0  0
   -2.1575   26.3007  -27.8878 H   0  0  0  0  0  0  0  0  0  0  0  0
   -0.7412   22.1037  -31.3755 H   0  0  0  0  0  0  0  0  0  0  0  0
   -2.1479   18.6764  -33.4570 H   0  0  0  0  0  0  0  0  0  0  0  0
   -0.5995   17.7715  -35.1897 H   0  0  0  0  0  0  0  0  0  0  0  0
  1  2  1  0
  2  3  2  0
  3  4  1  0
  4  5  2  0
  5  6  1  0
  6  7  2  0
  7  8  1  0
  8  9  1  0
  9 10  2  0
 10 11  1  0
 11 12  2  0
 12 13  1  0
 13 14  2  0
  8 15  2  0
 15 16  1  0
 16 17  1  0
 17 18  2  0
 18 19  1  0
 19 20  2  0
 20 21  1  0
 21 22  2  0
 22 23  1  0
 16 24  2  0
  5 25  1  0
 25 26  2  0
 26  2  1  0
 24  6  1  0
 14  9  1  0
 22 17  1  0
  3 27  1  0
  4 28  1  0
  7 29  1  0
 10 30  1  0
 11 31  1  0
 12 32  1  0
 13 33  1  0
 14 34  1  0
 18 35  1  0
 19 36  1  0
 20 37  1  0
 21 38  1  0
 24 39  1  0
 25 40  1  0
 26 41  1  0
M  CHG  2   1  -1  23  -1
M  END
>  <UniqueID>  (31) 
29

>  <SMILES>  (31) 
[O-]c1ccc(-c2cc(-c3ccccc3)nc(-c3ccccc3[O-])c2)cc1

>  <Energy>  (31) 
61.583773206166086

>  <Genealogy>  (31) 
[O-]c1ccc(-c2cc(-c3ccccc3)nc(-c3ccccc3[O-])c2)cc1 (protonated)
[O-]c1ccc(-c2cc(-c3ccccc3)nc(-c3ccccc3[O-])c2)cc1 (3D coordinates assigned)
[O-]c1ccc(-c2cc(-c3ccccc3)nc(-c3ccccc3[O-])c2)cc1 (optimized conformer: 61.583773206166086 kcal/mol)

>  <smiles>  (31) 
Oc1ccc(-c2cc(-c3ccccc3)nc(-c3ccccc3O)c2)cc1

>  <score_type>  (31) 
oracle

>  <origin>  (31) 
adgpu

>  <m_score__min__energy>  (31) 
-11.789999999999999

>  <m_primary>  (31) 
energy

$$$$
31:0
     RDKit          3D

 50 53  0  0  0  0  0  0  0  0999 V2000
   -1.2250   26.4190  -29.7160 H   0  0  0  0  0  0  0  0  0  0  0  0
   -1.0160   26.4020  -28.6920 N   0  0  0  0  0  0  0  0  0  0  0  0
   -0.9590   24.7440  -28.2140 S   0  0  0  0  0  0  0  0  0  0  0  0
    0.3630   24.1490  -28.6130 O   0  0  0  0  0  0  0  0  0  0  0  0
   -1.1020   24.6450  -26.7210 O   0  0  0  0  0  0  0  0  0  0  0  0
   -2.2690   23.8690  -28.9990 C   0  0  0  0  0  0  0  0  0  0  0  0
   -2.4170   22.4910  -28.7940 C   0  0  0  0  0  0  0  0  0  0  0  0
   -1.7312   21.9610  -28.1167 H   0  0  0  0  0  0  0  0  0  0  0  0
   -3.4330   21.7870  -29.4470 C   0  0  0  0  0  0  0  0  0  0  0  0
   -3.5505   20.7072  -29.2731 H   0  0  0  0  0  0  0  0  0  0  0  0
   -4.3040   22.4530  -30.3240 C   0  0  0  0  0  0  0  0  0  0  0  0
   -5.3050   21.7150  -31.0570 N   0  0  0  0  0  0  0  0  0  0  0  0
   -4.9540   20.6520  -31.8630 C   0  0  0  0  0  0  0  0  0  0  0  0
   -3.5490   20.2580  -32.1050 C   0  0  0  0  0  0  0  0  0  0  0  0
   -3.1086   19.4565  -31.4937 H   0  0  0  0  0  0  0  0  0  0  0  0
   -2.7950   20.8450  -33.0440 C   0  0  0  0  0  0  0  0  0  0  0  0
   -3.2649   21.6030  -33.6879 H   0  0  0  0  0  0  0  0  0  0  0  0
   -1.3650   20.5310  -33.2640 C   0  0  0  0  0  0  0  0  0  0  0  0
   -0.7470   19.3870  -32.7230 C   0  0  0  0  0  0  0  0  0  0  0  0
   -1.3337   18.6857  -32.1115 H   0  0  0  0  0  0  0  0  0  0  0  0
    0.6080   19.1380  -32.9590 C   0  0  0  0  0  0  0  0  0  0  0  0
    1.0821   18.2420  -32.5320 H   0  0  0  0  0  0  0  0  0  0  0  0
    1.3650   20.0230  -33.7360 C   0  0  0  0  0  0  0  0  0  0  0  0
    3.0690   19.7000  -34.0440 S   0  0  0  0  0  0  0  0  0  0  0  0
    3.8180   19.6330  -32.7420 O   0  0  0  0  0  0  0  0  0  0  0  0
    3.6530   20.8040  -34.8780 O   0  0  0  0  0  0  0  0  0  0  0  0
    3.2320   18.1960  -34.8810 N   0  0  0  0  0  0  0  0  0  0  0  0
    3.8130   17.5730  -34.2770 H   0  0  0  0  0  0  0  0  0  0  0  0
    2.2800   17.7690  -34.9280 H   0  0  0  0  0  0  0  0  0  0  0  0
    0.7510   21.1510  -34.2940 C   0  0  0  0  0  0  0  0  0  0  0  0
    1.3374   21.8421  -34.9173 H   0  0  0  0  0  0  0  0  0  0  0  0
   -0.6040   21.4020  -34.0620 C   0  0  0  0  0  0  0  0  0  0  0  0
   -1.0787   22.2886  -34.5077 H   0  0  0  0  0  0  0  0  0  0  0  0
   -5.9190   19.9030  -32.4550 N   0  0  0  0  0  0  0  0  0  0  0  0
   -7.2350   20.1900  -32.3130 C   0  0  0  0  0  0  0  0  0  0  0  0
   -8.1980   19.3980  -32.9500 C   0  0  0  0  0  0  0  0  0  0  0  0
   -7.8862   18.5379  -33.5608 H   0  0  0  0  0  0  0  0  0  0  0  0
   -9.5550   19.7000  -32.8100 C   0  0  0  0  0  0  0  0  0  0  0  0
  -10.3106   19.0780  -33.3122 H   0  0  0  0  0  0  0  0  0  0  0  0
   -9.9540   20.7910  -32.0330 C   0  0  0  0  0  0  0  0  0  0  0  0
  -11.0233   21.0260  -31.9260 H   0  0  0  0  0  0  0  0  0  0  0  0
   -8.9980   21.5850  -31.3910 C   0  0  0  0  0  0  0  0  0  0  0  0
   -9.3165   22.4414  -30.7786 H   0  0  0  0  0  0  0  0  0  0  0  0
   -7.6290   21.2890  -31.5280 C   0  0  0  0  0  0  0  0  0  0  0  0
   -6.6280   22.0440  -30.8940 C   0  0  0  0  0  0  0  0  0  0  0  0
   -6.9530   23.0180  -30.1560 O   0  0  0  0  0  0  0  0  0  0  0  0
   -4.1620   23.8370  -30.5160 C   0  0  0  0  0  0  0  0  0  0  0  0
   -4.8533   24.3709  -31.1847 H   0  0  0  0  0  0  0  0  0  0  0  0
   -3.1460   24.5390  -29.8610 C   0  0  0  0  0  0  0  0  0  0  0  0
   -3.0350   25.6213  -30.0232 H   0  0  0  0  0  0  0  0  0  0  0  0
  1  2  1  0
  2  3  1  0
  3  4  2  0
  3  5  2  0
  3  6  1  0
  6  7  2  0
  7  8  1  0
  7  9  1  0
  9 10  1  0
  9 11  2  0
 11 12  1  0
 12 13  1  0
 13 14  1  0
 14 15  1  0
 14 16  2  0
 16 17  1  0
 16 18  1  0
 18 19  2  0
 19 20  1  0
 19 21  1  0
 21 22  1  0
 21 23  2  0
 23 24  1  0
 24 25  2  0
 24 26  2  0
 24 27  1  0
 27 28  1  0
 27 29  1  0
 23 30  1  0
 30 31  1  0
 30 32  2  0
 32 33  1  0
 13 34  2  0
 34 35  1  0
 35 36  2  0
 36 37  1  0
 36 38  1  0
 38 39  1  0
 38 40  2  0
 40 41  1  0
 40 42  1  0
 42 43  1  0
 42 44  2  0
 44 45  1  0
 45 46  2  0
 11 47  1  0
 47 48  1  0
 47 49  2  0
 49 50  1  0
 49  6  1  0
 45 12  1  0
 32 18  1  0
 44 35  1  0
M  CHG  1   2  -1
M  END
>  <UniqueID>  (32) 
30

>  <SMILES>  (32) 
[NH-]S(=O)(=O)c1ccc(-n2c(/C=C/c3ccc(S(N)(=O)=O)cc3)nc3ccccc3c2=O)cc1

>  <Energy>  (32) 
73.87153817282088

>  <Genealogy>  (32) 
[NH-]S(=O)(=O)c1ccc(-n2c(C=Cc3ccc(S(N)(=O)=O)cc3)nc3ccccc3c2=O)cc1 (protonated)
[NH-]S(=O)(=O)c1ccc(-n2c(/C=C/c3ccc(S(N)(=O)=O)cc3)nc3ccccc3c2=O)cc1 (cis-trans isomerization)
[NH-]S(=O)(=O)c1ccc(-n2c(/C=C/c3ccc(S(N)(=O)=O)cc3)nc3ccccc3c2=O)cc1 (3D coordinates assigned)
[NH-]S(=O)(=O)c1ccc(-n2c(/C=C/c3ccc(S(N)(=O)=O)cc3)nc3ccccc3c2=O)cc1 (optimized conformer: 73.87153817282088 kcal/mol)

>  <smiles>  (32) 
NS(=O)(=O)c1ccc(C=Cc2nc3ccccc3c(=O)n2-c2ccc(S(N)(=O)=O)cc2)cc1

>  <score_type>  (32) 
oracle

>  <origin>  (32) 
adgpu

>  <m_score__min__energy>  (32) 
-11.01

>  <m_primary>  (32) 
energy

$$$$
32:0
     RDKit          3D

 28 30  0  0  0  0  0  0  0  0999 V2000
    0.9750   24.1990  -26.8670 C   0  0  0  0  0  0  0  0  0  0  0  0
    0.5890   24.2510  -28.2360 O   0  0  0  0  0  0  0  0  0  0  0  0
   -0.5190   23.6060  -28.8190 C   0  0  0  0  0  0  0  0  0  0  0  0
   -0.4850   22.2080  -28.8610 C   0  0  0  0  0  0  0  0  0  0  0  0
    0.6090   21.5250  -28.3420 O   0  0  0  0  0  0  0  0  0  0  0  0
   -1.5360   21.4870  -29.4190 C   0  0  0  0  0  0  0  0  0  0  0  0
   -2.6540   22.1440  -29.9530 C   0  0  0  0  0  0  0  0  0  0  0  0
   -2.7140   23.5560  -29.9230 C   0  0  0  0  0  0  0  0  0  0  0  0
   -1.6410   24.2860  -29.3540 C   0  0  0  0  0  0  0  0  0  0  0  0
   -1.6960   25.6750  -29.3230 O   0  0  0  0  0  0  0  0  0  0  0  0
   -3.9110   24.2420  -30.4940 C   0  0  0  0  0  0  0  0  0  0  0  0
   -3.9900   25.5000  -30.4820 O   0  0  0  0  0  0  0  0  0  0  0  0
   -5.0180   23.4520  -31.0840 C   0  0  0  0  0  0  0  0  0  0  0  0
   -6.1480   24.0960  -31.6230 C   0  0  0  0  0  0  0  0  0  0  0  0
   -7.1900   23.3490  -32.1780 C   0  0  0  0  0  0  0  0  0  0  0  0
   -7.1190   21.9570  -32.2000 C   0  0  0  0  0  0  0  0  0  0  0  0
   -6.0050   21.3040  -31.6680 C   0  0  0  0  0  0  0  0  0  0  0  0
   -4.9470   22.0440  -31.1070 C   0  0  0  0  0  0  0  0  0  0  0  0
   -3.7640   21.3570  -30.5420 C   0  0  0  0  0  0  0  0  0  0  0  0
   -3.7010   20.0970  -30.5640 O   0  0  0  0  0  0  0  0  0  0  0  0
    0.0859   24.3188  -26.2305 H   0  0  0  0  0  0  0  0  0  0  0  0
    1.4488   23.2289  -26.6562 H   0  0  0  0  0  0  0  0  0  0  0  0
    1.6886   25.0091  -26.6562 H   0  0  0  0  0  0  0  0  0  0  0  0
   -1.4894   20.3882  -29.4416 H   0  0  0  0  0  0  0  0  0  0  0  0
   -6.2108   25.1941  -31.6070 H   0  0  0  0  0  0  0  0  0  0  0  0
   -8.0684   23.8604  -32.5986 H   0  0  0  0  0  0  0  0  0  0  0  0
   -7.9417   21.3720  -32.6371 H   0  0  0  0  0  0  0  0  0  0  0  0
   -5.9540   20.2054  -31.6874 H   0  0  0  0  0  0  0  0  0  0  0  0
  1  2  1  0
  2  3  1  0
  3  4  2  0
  4  5  1  0
  4  6  1  0
  6  7  2  0
  7  8  1  0
  8  9  2  0
  9 10  1  0
  8 11  1  0
 11 12  2  0
 11 13  1  0
 13 14  2  0
 14 15  1  0
 15 16  2  0
 16 17  1  0
 17 18  2  0
 18 19  1  0
 19 20  2  0
  9  3  1  0
 18 13  1  0
 19  7  1  0
  1 21  1  0
  1 22  1  0
  1 23  1  0
  6 24  1  0
 14 25  1  0
 15 26  1  0
 16 27  1  0
 17 28  1  0
M  CHG  2   5  -1  10  -1
M  END
>  <UniqueID>  (33) 
31

>  <SMILES>  (33) 
COc1c([O-])cc2c(c1[O-])C(=O)c1ccccc1C2=O

>  <Energy>  (33) 
40.47326681031011

>  <Genealogy>  (33) 
COc1c([O-])cc2c(c1[O-])C(=O)c1ccccc1C2=O (protonated)
COc1c([O-])cc2c(c1[O-])C(=O)c1ccccc1C2=O (3D coordinates assigned)
COc1c([O-])cc2c(c1[O-])C(=O)c1ccccc1C2=O (nonaromatic ring conformer: 40.47326681031011 kcal/mol)

>  <smiles>  (33) 
COc1c(O)cc2c(c1O)C(=O)c1ccccc1C2=O

>  <score_type>  (33) 
oracle

>  <origin>  (33) 
adgpu

>  <m_score__min__energy>  (33) 
-10.890000000000001

>  <m_primary>  (33) 
energy

$$$$
33:0
     RDKit          3D

 35 38  0  0  0  0  0  0  0  0999 V2000
   -2.6740   19.6250  -32.0830 O   0  0  0  0  0  0  0  0  0  0  0  0
   -3.6740   20.0690  -32.7100 C   0  0  0  0  0  0  0  0  0  0  0  0
   -4.0560   21.4480  -32.5780 N   0  0  0  0  0  0  0  0  0  0  0  0
   -3.5790   22.3170  -31.5350 C   0  0  0  0  0  0  0  0  0  0  0  0
   -2.2450   22.2160  -31.1130 C   0  0  0  0  0  0  0  0  0  0  0  0
   -1.7510   23.0610  -30.1170 C   0  0  0  0  0  0  0  0  0  0  0  0
   -2.5780   24.0350  -29.5320 C   0  0  0  0  0  0  0  0  0  0  0  0
   -2.0560   24.9310  -28.4760 C   0  0  0  0  0  0  0  0  0  0  0  0
   -2.3360   24.7580  -27.1550 N   0  0  0  0  0  0  0  0  0  0  0  0
   -1.6740   25.7700  -26.5780 C   0  0  0  0  0  0  0  0  0  0  0  0
   -1.6070   26.0840  -25.2230 C   0  0  0  0  0  0  0  0  0  0  0  0
   -0.8420   27.2050  -24.8490 C   0  0  0  0  0  0  0  0  0  0  0  0
   -0.1730   27.9730  -25.8300 C   0  0  0  0  0  0  0  0  0  0  0  0
   -0.2640   27.6240  -27.1910 C   0  0  0  0  0  0  0  0  0  0  0  0
   -1.0300   26.5090  -27.5220 C   0  0  0  0  0  0  0  0  0  0  0  0
   -1.2550   25.9980  -28.7410 N   0  0  0  0  0  0  0  0  0  0  0  0
   -3.9090   24.1500  -29.9710 C   0  0  0  0  0  0  0  0  0  0  0  0
   -4.4020   23.3040  -30.9680 C   0  0  0  0  0  0  0  0  0  0  0  0
   -4.4180   19.1680  -33.6070 C   0  0  0  0  0  0  0  0  0  0  0  0
   -3.8730   18.1210  -34.3430 C   0  0  0  0  0  0  0  0  0  0  0  0
   -4.8210   17.4230  -35.1020 C   0  0  0  0  0  0  0  0  0  0  0  0
   -6.1140   17.9120  -34.9660 C   0  0  0  0  0  0  0  0  0  0  0  0
   -6.0760   19.2130  -33.9020 S   0  0  0  0  0  0  0  0  0  0  0  0
   -4.6420   21.8720  -33.3320 H   0  0  0  0  0  0  0  0  0  0  0  0
   -1.5832   21.4656  -31.5700 H   0  0  0  0  0  0  0  0  0  0  0  0
   -0.7060   22.9634  -29.7877 H   0  0  0  0  0  0  0  0  0  0  0  0
   -2.1333   25.4774  -24.4713 H   0  0  0  0  0  0  0  0  0  0  0  0
   -0.7642   27.4850  -23.7881 H   0  0  0  0  0  0  0  0  0  0  0  0
    0.4217   28.8478  -25.5282 H   0  0  0  0  0  0  0  0  0  0  0  0
    0.2516   28.2111  -27.9653 H   0  0  0  0  0  0  0  0  0  0  0  0
   -4.5668   24.9114  -29.5264 H   0  0  0  0  0  0  0  0  0  0  0  0
   -5.4416   23.4117  -31.3111 H   0  0  0  0  0  0  0  0  0  0  0  0
   -2.8030   17.8663  -34.3302 H   0  0  0  0  0  0  0  0  0  0  0  0
   -4.5656   16.5680  -35.7453 H   0  0  0  0  0  0  0  0  0  0  0  0
   -7.0090   17.5160  -35.4682 H   0  0  0  0  0  0  0  0  0  0  0  0
  1  2  2  0
  2  3  1  0
  3  4  1  0
  4  5  2  0
  5  6  1  0
  6  7  2  0
  7  8  1  0
  8  9  2  0
  9 10  1  0
 10 11  2  0
 11 12  1  0
 12 13  2  0
 13 14  1  0
 14 15  2  0
 15 16  1  0
  7 17  1  0
 17 18  2  0
  2 19  1  0
 19 20  2  0
 20 21  1  0
 21 22  2  0
 22 23  1  0
 18  4  1  0
 23 19  1  0
 16  8  1  0
 15 10  1  0
  3 24  1  0
  5 25  1  0
  6 26  1  0
 11 27  1  0
 12 28  1  0
 13 29  1  0
 14 30  1  0
 17 31  1  0
 18 32  1  0
 20 33  1  0
 21 34  1  0
 22 35  1  0
M  CHG  1  16  -1
M  END
>  <UniqueID>  (34) 
32

>  <SMILES>  (34) 
O=C(Nc1ccc(-c2nc3ccccc3[n-]2)cc1)c1cccs1

>  <Energy>  (34) 
104.30917984912519

>  <Genealogy>  (34) 
O=C(Nc1ccc(-c2nc3ccccc3[n-]2)cc1)c1cccs1 (protonated)
O=C(Nc1ccc(-c2nc3ccccc3[n-]2)cc1)c1cccs1 (3D coordinates assigned)
O=C(Nc1ccc(-c2nc3ccccc3[n-]2)cc1)c1cccs1 (optimized conformer: 104.30917984912519 kcal/mol)

>  <smiles>  (34) 
O=C(Nc1ccc(-c2nc3ccccc3[nH]2)cc1)c1cccs1

>  <score_type>  (34) 
oracle

>  <origin>  (34) 
adgpu

>  <m_score__min__energy>  (34) 
-7.9000000000000004

>  <m_primary>  (34) 
energy

$$$$
34:0
     RDKit          3D

 40 42  0  0  0  0  0  0  0  0999 V2000
   -1.2350   26.2550  -29.3380 O   0  0  0  0  0  0  0  0  0  0  0  0
   -1.6170   24.9680  -28.9730 C   0  0  0  0  0  0  0  0  0  0  0  0
   -2.9170   24.5270  -29.2450 C   0  0  0  0  0  0  0  0  0  0  0  0
   -3.3290   23.2430  -28.8520 C   0  0  0  0  0  0  0  0  0  0  0  0
   -4.7370   22.7740  -29.1290 C   0  0  0  0  0  0  0  0  0  0  0  0
   -5.3020   23.2570  -30.4100 N   0  0  0  0  0  0  0  0  0  0  0  0
   -6.7400   23.0940  -30.6280 C   0  0  0  0  0  0  0  0  0  0  0  0
   -7.1150   21.7220  -31.1960 C   0  0  0  0  0  0  0  0  0  0  0  0
   -6.0780   21.0680  -32.0210 N   0  0  0  0  0  0  0  0  0  0  0  0
   -6.3490   19.7350  -32.5630 C   0  0  0  0  0  0  0  0  0  0  0  0
   -7.3140   18.8810  -31.9720 C   0  0  0  0  0  0  0  0  0  0  0  0
   -7.5560   17.6030  -32.4820 C   0  0  0  0  0  0  0  0  0  0  0  0
   -6.8500   17.1440  -33.5910 C   0  0  0  0  0  0  0  0  0  0  0  0
   -5.9010   17.9630  -34.1970 C   0  0  0  0  0  0  0  0  0  0  0  0
   -5.6510   19.2430  -33.6950 C   0  0  0  0  0  0  0  0  0  0  0  0
   -4.7650   21.6910  -32.2970 C   0  0  0  0  0  0  0  0  0  0  0  0
   -4.5140   23.0490  -31.6260 C   0  0  0  0  0  0  0  0  0  0  0  0
   -2.3960   22.3800  -28.2550 C   0  0  0  0  0  0  0  0  0  0  0  0
   -1.0970   22.8200  -27.9830 C   0  0  0  0  0  0  0  0  0  0  0  0
   -0.7070   24.1190  -28.3340 C   0  0  0  0  0  0  0  0  0  0  0  0
    0.5840   24.5690  -28.0560 O   0  0  0  0  0  0  0  0  0  0  0  0
   -3.6205   25.1900  -29.7698 H   0  0  0  0  0  0  0  0  0  0  0  0
   -4.7361   21.6741  -29.1464 H   0  0  0  0  0  0  0  0  0  0  0  0
   -5.3691   23.1898  -28.3305 H   0  0  0  0  0  0  0  0  0  0  0  0
   -7.2562   23.2264  -29.6657 H   0  0  0  0  0  0  0  0  0  0  0  0
   -7.0446   23.8477  -31.3690 H   0  0  0  0  0  0  0  0  0  0  0  0
   -7.3443   21.0567  -30.3505 H   0  0  0  0  0  0  0  0  0  0  0  0
   -7.9682   21.8971  -31.8678 H   0  0  0  0  0  0  0  0  0  0  0  0
   -7.8818   19.2305  -31.0971 H   0  0  0  0  0  0  0  0  0  0  0  0
   -8.3076   16.9565  -32.0054 H   0  0  0  0  0  0  0  0  0  0  0  0
   -7.0417   16.1361  -33.9876 H   0  0  0  0  0  0  0  0  0  0  0  0
   -5.3456   17.6009  -35.0747 H   0  0  0  0  0  0  0  0  0  0  0  0
   -4.9002   19.8795  -34.1862 H   0  0  0  0  0  0  0  0  0  0  0  0
   -3.9836   20.9964  -31.9551 H   0  0  0  0  0  0  0  0  0  0  0  0
   -4.7491   21.8858  -33.3795 H   0  0  0  0  0  0  0  0  0  0  0  0
   -3.4475   23.1159  -31.3649 H   0  0  0  0  0  0  0  0  0  0  0  0
   -4.8187   23.8246  -32.3441 H   0  0  0  0  0  0  0  0  0  0  0  0
   -2.6890   21.3510  -27.9996 H   0  0  0  0  0  0  0  0  0  0  0  0
   -0.3801   22.1451  -27.4926 H   0  0  0  0  0  0  0  0  0  0  0  0
    0.8600   25.5270  -28.2370 H   0  0  0  0  0  0  0  0  0  0  0  0
  1  2  1  0
  2  3  2  0
  3  4  1  0
  4  5  1  0
  5  6  1  0
  6  7  1  0
  7  8  1  0
  8  9  1  0
  9 10  1  0
 10 11  2  0
 11 12  1  0
 12 13  2  0
 13 14  1  0
 14 15  2  0
  9 16  1  0
 16 17  1  0
  4 18  2  0
 18 19  1  0
 19 20  2  0
 20 21  1  0
 20  2  1  0
 17  6  1  0
 15 10  1  0
  3 22  1  0
  5 23  1  0
  5 24  1  0
  7 25  1  0
  7 26  1  0
  8 27  1  0
  8 28  1  0
 11 29  1  0
 12 30  1  0
 13 31  1  0
 14 32  1  0
 15 33  1  0
 16 34  1  0
 16 35  1  0
 17 36  1  0
 17 37  1  0
 18 38  1  0
 19 39  1  0
 21 40  1  0
M  CHG  1   1  -1
M  END
>  <UniqueID>  (35) 
33

>  <SMILES>  (35) 
[O-]c1cc(CN2CCN(c3ccccc3)CC2)ccc1O

>  <Energy>  (35) 
58.41209466088134

>  <Genealogy>  (35) 
[O-]c1cc(CN2CCN(c3ccccc3)CC2)ccc1O (protonated)
[O-]c1cc(CN2CCN(c3ccccc3)CC2)ccc1O (3D coordinates assigned)
[O-]c1cc(CN2CCN(c3ccccc3)CC2)ccc1O (nonaromatic ring conformer: 58.41209466088134 kcal/mol)

>  <smiles>  (35) 
Oc1ccc(CN2CCN(c3ccccc3)CC2)cc1O

>  <score_type>  (35) 
oracle

>  <origin>  (35) 
adgpu

>  <m_score__min__energy>  (35) 
-10.4

>  <m_primary>  (35) 
energy

$$$$
35:0
     RDKit          3D

 51 53  0  0  0  0  0  0  0  0999 V2000
   -5.6100   22.5390  -32.2460 C   0  0  0  0  0  0  0  0  0  0  0  0
   -6.8160   21.6670  -32.0980 C   0  0  0  0  0  0  0  0  0  0  0  0
   -8.0830   22.2360  -31.9090 C   0  0  0  0  0  0  0  0  0  0  0  0
   -9.1960   21.4040  -31.7850 C   0  0  0  0  0  0  0  0  0  0  0  0
   -9.0390   20.0190  -31.8550 C   0  0  0  0  0  0  0  0  0  0  0  0
   -7.7600   19.4810  -32.0510 C   0  0  0  0  0  0  0  0  0  0  0  0
   -7.5600   17.9940  -32.1110 C   0  0  0  0  0  0  0  0  0  0  0  0
   -6.2780   17.6710  -32.7730 N   0  0  0  0  0  0  0  0  0  0  0  0
   -6.4440   17.5840  -34.2440 C   0  0  0  0  0  0  0  0  0  0  0  0
   -5.2840   18.2090  -35.0390 C   0  0  0  0  0  0  0  0  0  0  0  0
   -3.8860   17.6660  -34.6770 C   0  0  0  0  0  0  0  0  0  0  0  0
   -3.6000   17.5530  -33.2170 N   0  0  2  0  0  0  0  0  0  0  0  0
   -2.1280   17.6190  -33.0110 C   0  0  0  0  0  0  0  0  0  0  0  0
   -1.5030   18.8700  -33.6200 C   0  0  0  0  0  0  0  0  0  0  0  0
   -0.6180   18.6970  -34.7020 C   0  0  0  0  0  0  0  0  0  0  0  0
   -0.0340   19.7940  -35.3340 C   0  0  0  0  0  0  0  0  0  0  0  0
   -0.3110   21.0830  -34.8880 C   0  0  0  0  0  0  0  0  0  0  0  0
   -1.1570   21.2810  -33.7980 C   0  0  0  0  0  0  0  0  0  0  0  0
   -1.7590   20.1890  -33.1370 C   0  0  0  0  0  0  0  0  0  0  0  0
   -2.6180   20.4490  -31.9100 C   0  0  0  0  0  0  0  0  0  0  0  0
   -3.9210   20.0530  -32.1460 F   0  0  0  0  0  0  0  0  0  0  0  0
   -2.6400   21.7910  -31.5710 F   0  0  0  0  0  0  0  0  0  0  0  0
   -2.1100   19.7480  -30.8320 F   0  0  0  0  0  0  0  0  0  0  0  0
   -4.1690   16.3180  -32.6110 C   0  0  0  0  0  0  0  0  0  0  0  0
   -5.6600   16.4550  -32.1980 C   0  0  0  0  0  0  0  0  0  0  0  0
   -6.6880   20.3130  -32.1650 N   0  0  0  0  0  0  0  0  0  0  0  0
   -5.2312   22.8129  -31.2503 H   0  0  0  0  0  0  0  0  0  0  0  0
   -4.8297   21.9949  -32.7983 H   0  0  0  0  0  0  0  0  0  0  0  0
   -5.8822   23.4505  -32.7983 H   0  0  0  0  0  0  0  0  0  0  0  0
   -8.1987   23.3288  -31.8589 H   0  0  0  0  0  0  0  0  0  0  0  0
  -10.1949   21.8386  -31.6324 H   0  0  0  0  0  0  0  0  0  0  0  0
   -9.9112   19.3558  -31.7572 H   0  0  0  0  0  0  0  0  0  0  0  0
   -7.5520   17.5881  -31.0886 H   0  0  0  0  0  0  0  0  0  0  0  0
   -8.3820   17.5472  -32.6895 H   0  0  0  0  0  0  0  0  0  0  0  0
   -6.5223   16.5225  -34.5218 H   0  0  0  0  0  0  0  0  0  0  0  0
   -7.3497   18.1542  -34.4980 H   0  0  0  0  0  0  0  0  0  0  0  0
   -5.4593   18.0176  -36.1079 H   0  0  0  0  0  0  0  0  0  0  0  0
   -5.2759   19.2794  -34.7857 H   0  0  0  0  0  0  0  0  0  0  0  0
   -3.7860   16.6644  -35.1206 H   0  0  0  0  0  0  0  0  0  0  0  0
   -3.1659   18.3986  -35.0704 H   0  0  0  0  0  0  0  0  0  0  0  0
   -4.0090   18.3930  -32.7480 H   0  0  0  0  0  0  0  0  0  0  0  0
   -1.9235   17.6141  -31.9302 H   0  0  0  0  0  0  0  0  0  0  0  0
   -1.6832   16.7475  -33.5136 H   0  0  0  0  0  0  0  0  0  0  0  0
   -0.3841   17.6813  -35.0536 H   0  0  0  0  0  0  0  0  0  0  0  0
    0.6457   19.6407  -36.1852 H   0  0  0  0  0  0  0  0  0  0  0  0
    0.1390   21.9480  -35.3972 H   0  0  0  0  0  0  0  0  0  0  0  0
   -1.3585   22.3041  -33.4477 H   0  0  0  0  0  0  0  0  0  0  0  0
   -4.0851   15.5014  -33.3432 H   0  0  0  0  0  0  0  0  0  0  0  0
   -3.5980   16.1182  -31.6923 H   0  0  0  0  0  0  0  0  0  0  0  0
   -6.2112   15.5724  -32.5545 H   0  0  0  0  0  0  0  0  0  0  0  0
   -5.7064   16.5325  -31.1017 H   0  0  0  0  0  0  0  0  0  0  0  0
  1  2  1  0
  2  3  2  0
  3  4  1  0
  4  5  2  0
  5  6  1  0
  6  7  1  0
  7  8  1  0
  8  9  1  0
  9 10  1  0
 10 11  1  0
 11 12  1  0
 12 13  1  0
 13 14  1  0
 14 15  2  0
 15 16  1  0
 16 17  2  0
 17 18  1  0
 18 19  2  0
 19 20  1  0
 20 21  1  0
 20 22  1  0
 20 23  1  0
 12 24  1  0
 24 25  1  0
  6 26  2  0
 26  2  1  0
 25  8  1  0
 19 14  1  0
  1 27  1  0
  1 28  1  0
  1 29  1  0
  3 30  1  0
  4 31  1  0
  5 32  1  0
  7 33  1  0
  7 34  1  0
  9 35  1  0
  9 36  1  0
 10 37  1  0
 10 38  1  0
 11 39  1  0
 11 40  1  0
 12 41  1  1
 13 42  1  0
 13 43  1  0
 15 44  1  0
 16 45  1  0
 17 46  1  0
 18 47  1  0
 24 48  1  0
 24 49  1  0
 25 50  1  0
 25 51  1  0
M  CHG  1  12   1
M  END
>  <UniqueID>  (36) 
34

>  <SMILES>  (36) 
Cc1cccc(CN2CCC[N@H+](Cc3ccccc3C(F)(F)F)CC2)n1

>  <Energy>  (36) 
72.89709060743698

>  <Genealogy>  (36) 
Cc1cccc(CN2CCC[NH+](Cc3ccccc3C(F)(F)F)CC2)n1 (protonated)
Cc1cccc(CN2CCC[N@H+](Cc3ccccc3C(F)(F)F)CC2)n1 (chirality)
Cc1cccc(CN2CCC[N@H+](Cc3ccccc3C(F)(F)F)CC2)n1 (3D coordinates assigned)
Cc1cccc(CN2CCC[N@H+](Cc3ccccc3C(F)(F)F)CC2)n1 (nonaromatic ring conformer: 72.89709060743698 kcal/mol)

>  <smiles>  (36) 
Cc1cccc(CN2CCCN(Cc3ccccc3C(F)(F)F)CC2)n1

>  <score_type>  (36) 
oracle

>  <origin>  (36) 
adgpu

>  <m_score__min__energy>  (36) 
-5.21

>  <m_primary>  (36) 
energy

$$$$
36:0
     RDKit          3D

 35 37  0  0  0  0  0  0  0  0999 V2000
   -1.7670   21.7020  -33.6500 O   0  0  0  0  0  0  0  0  0  0  0  0
   -2.1470   21.0790  -32.6260 C   0  0  0  0  0  0  0  0  0  0  0  0
   -3.3180   20.2550  -32.7060 N   0  0  0  0  0  0  0  0  0  0  0  0
   -4.6650   20.6990  -32.4870 C   0  0  0  0  0  0  0  0  0  0  0  0
   -4.9700   22.0570  -32.3170 C   0  0  0  0  0  0  0  0  0  0  0  0
   -6.2840   22.4570  -32.0750 C   0  0  0  0  0  0  0  0  0  0  0  0
   -7.3130   21.5120  -32.0180 C   0  0  0  0  0  0  0  0  0  0  0  0
   -8.9470   22.0870  -31.6950 Cl  0  0  0  0  0  0  0  0  0  0  0  0
   -7.0290   20.1420  -32.2210 C   0  0  0  0  0  0  0  0  0  0  0  0
   -8.1330   19.1070  -32.1660 C   0  0  0  0  0  0  0  0  0  0  0  0
   -9.0960   19.4060  -33.1110 F   0  0  0  0  0  0  0  0  0  0  0  0
   -8.7420   19.0690  -30.9230 F   0  0  0  0  0  0  0  0  0  0  0  0
   -7.6090   17.8550  -32.4290 F   0  0  0  0  0  0  0  0  0  0  0  0
   -5.6960   19.7530  -32.4620 C   0  0  0  0  0  0  0  0  0  0  0  0
   -1.3970   21.2110  -31.4110 N   0  0  0  0  0  0  0  0  0  0  0  0
   -1.9530   21.2150  -30.0850 C   0  0  0  0  0  0  0  0  0  0  0  0
   -1.7580   20.1180  -29.2290 C   0  0  0  0  0  0  0  0  0  0  0  0
   -2.3130   20.1070  -27.9490 C   0  0  0  0  0  0  0  0  0  0  0  0
   -3.0580   21.1950  -27.4970 C   0  0  0  0  0  0  0  0  0  0  0  0
   -3.2510   22.3110  -28.3240 C   0  0  0  0  0  0  0  0  0  0  0  0
   -4.0000   23.4060  -27.8690 C   0  0  0  0  0  0  0  0  0  0  0  0
   -4.1980   24.5150  -28.6960 C   0  0  0  0  0  0  0  0  0  0  0  0
   -3.6530   24.5390  -29.9810 C   0  0  0  0  0  0  0  0  0  0  0  0
   -3.8580   25.6440  -30.7990 O   0  0  0  0  0  0  0  0  0  0  0  0
   -2.9040   23.4550  -30.4470 C   0  0  0  0  0  0  0  0  0  0  0  0
   -2.6900   22.3300  -29.6280 C   0  0  0  0  0  0  0  0  0  0  0  0
   -4.1699   22.8097  -32.3747 H   0  0  0  0  0  0  0  0  0  0  0  0
   -6.5124   23.5229  -31.9280 H   0  0  0  0  0  0  0  0  0  0  0  0
   -5.4629   18.6916  -32.6327 H   0  0  0  0  0  0  0  0  0  0  0  0
   -1.1618   19.2593  -29.5714 H   0  0  0  0  0  0  0  0  0  0  0  0
   -2.1621   19.2363  -27.2939 H   0  0  0  0  0  0  0  0  0  0  0  0
   -3.4960   21.1781  -26.4881 H   0  0  0  0  0  0  0  0  0  0  0  0
   -4.4330   23.3919  -26.8579 H   0  0  0  0  0  0  0  0  0  0  0  0
   -4.7851   25.3716  -28.3333 H   0  0  0  0  0  0  0  0  0  0  0  0
   -2.4786   23.4810  -31.4611 H   0  0  0  0  0  0  0  0  0  0  0  0
  1  2  2  0
  2  3  1  0
  3  4  1  0
  4  5  2  0
  5  6  1  0
  6  7  2  0
  7  8  1  0
  7  9  1  0
  9 10  1  0
 10 11  1  0
 10 12  1  0
 10 13  1  0
  9 14  2  0
  2 15  1  0
 15 16  1  0
 16 17  2  0
 17 18  1  0
 18 19  2  0
 19 20  1  0
 20 21  2  0
 21 22  1  0
 22 23  2  0
 23 24  1  0
 23 25  1  0
 25 26  2  0
 14  4  1  0
 26 16  1  0
 26 20  1  0
  5 27  1  0
  6 28  1  0
 14 29  1  0
 17 30  1  0
 18 31  1  0
 19 32  1  0
 21 33  1  0
 22 34  1  0
 25 35  1  0
M  CHG  3   3  -1  15  -1  24  -1
M  END
>  <UniqueID>  (37) 
35

>  <SMILES>  (37) 
O=C([N-]c1ccc(Cl)c(C(F)(F)F)c1)[N-]c1cccc2ccc([O-])cc12

>  <Energy>  (37) 
51.050119006744765

>  <Genealogy>  (37) 
O=C([N-]c1ccc(Cl)c(C(F)(F)F)c1)[N-]c1cccc2ccc([O-])cc12 (protonated)
O=C([N-]c1ccc(Cl)c(C(F)(F)F)c1)[N-]c1cccc2ccc([O-])cc12 (3D coordinates assigned)
O=C([N-]c1ccc(Cl)c(C(F)(F)F)c1)[N-]c1cccc2ccc([O-])cc12 (optimized conformer: 51.050119006744765 kcal/mol)

>  <smiles>  (37) 
O=C(Nc1ccc(Cl)c(C(F)(F)F)c1)Nc1cccc2ccc(O)cc12

>  <score_type>  (37) 
oracle

>  <origin>  (37) 
adgpu

>  <m_score__min__energy>  (37) 
-11.289999999999999

>  <m_primary>  (37) 
energy

$$$$
37:0
     RDKit          3D

 43 46  0  0  0  0  0  0  0  0999 V2000
   -4.2560   17.9280  -33.4880 C   0  0  0  0  0  0  0  0  0  0  0  0
   -4.8100   19.2830  -33.3980 N   0  0  0  0  0  0  0  0  0  0  0  0
   -6.0810   19.5830  -34.0740 C   0  0  0  0  0  0  0  0  0  0  0  0
   -7.1210   20.0000  -33.0690 C   0  0  0  0  0  0  0  0  0  0  0  0
   -7.9990   19.0510  -32.5170 C   0  0  0  0  0  0  0  0  0  0  0  0
   -8.9810   19.4480  -31.6030 C   0  0  0  0  0  0  0  0  0  0  0  0
   -9.0960   20.7920  -31.2370 C   0  0  0  0  0  0  0  0  0  0  0  0
   -8.2320   21.7430  -31.7870 C   0  0  0  0  0  0  0  0  0  0  0  0
   -7.2500   21.3510  -32.7030 C   0  0  0  0  0  0  0  0  0  0  0  0
   -4.1500   20.3010  -32.6100 C   0  0  0  0  0  0  0  0  0  0  0  0
   -3.8430   20.0670  -31.4100 O   0  0  0  0  0  0  0  0  0  0  0  0
   -3.8610   21.6730  -33.1600 C   0  0  0  0  0  0  0  0  0  0  0  0
   -3.9830   22.6750  -32.1070 N   0  0  0  0  0  0  0  0  0  0  0  0
   -5.0370   23.4570  -31.9370 N   0  0  0  0  0  0  0  0  0  0  0  0
   -4.8320   24.2260  -30.8810 N   0  0  0  0  0  0  0  0  0  0  0  0
   -3.6160   23.8680  -30.4220 C   0  0  0  0  0  0  0  0  0  0  0  0
   -2.9650   24.4590  -29.2490 C   0  0  0  0  0  0  0  0  0  0  0  0
   -3.3180   24.2210  -27.9240 C   0  0  0  0  0  0  0  0  0  0  0  0
   -2.4350   24.9860  -27.1980 C   0  0  0  0  0  0  0  0  0  0  0  0
   -2.2980   25.1650  -25.8220 C   0  0  0  0  0  0  0  0  0  0  0  0
   -1.2750   26.0230  -25.3740 C   0  0  0  0  0  0  0  0  0  0  0  0
   -0.4290   26.6760  -26.3000 C   0  0  0  0  0  0  0  0  0  0  0  0
   -0.5970   26.4740  -27.6830 C   0  0  0  0  0  0  0  0  0  0  0  0
   -1.6170   25.6190  -28.0960 C   0  0  0  0  0  0  0  0  0  0  0  0
   -1.9450   25.2960  -29.3230 O   0  0  0  0  0  0  0  0  0  0  0  0
   -3.0700   22.8930  -31.1760 N   0  0  0  0  0  0  0  0  0  0  0  0
   -4.0934   17.5303  -32.4754 H   0  0  0  0  0  0  0  0  0  0  0  0
   -4.9609   17.2788  -34.0281 H   0  0  0  0  0  0  0  0  0  0  0  0
   -3.2982   17.9586  -34.0281 H   0  0  0  0  0  0  0  0  0  0  0  0
   -5.9249   20.3992  -34.7947 H   0  0  0  0  0  0  0  0  0  0  0  0
   -6.4301   18.6804  -34.5969 H   0  0  0  0  0  0  0  0  0  0  0  0
   -7.9136   17.9927  -32.8047 H   0  0  0  0  0  0  0  0  0  0  0  0
   -9.6637   18.7011  -31.1717 H   0  0  0  0  0  0  0  0  0  0  0  0
   -9.8668   21.1014  -30.5158 H   0  0  0  0  0  0  0  0  0  0  0  0
   -8.3242   22.8007  -31.4993 H   0  0  0  0  0  0  0  0  0  0  0  0
   -6.5759   22.1032  -33.1387 H   0  0  0  0  0  0  0  0  0  0  0  0
   -2.8383   21.6940  -33.5646 H   0  0  0  0  0  0  0  0  0  0  0  0
   -4.5852   21.8998  -33.9563 H   0  0  0  0  0  0  0  0  0  0  0  0
   -4.1195   23.5702  -27.5443 H   0  0  0  0  0  0  0  0  0  0  0  0
   -2.9650   24.6544  -25.1118 H   0  0  0  0  0  0  0  0  0  0  0  0
   -1.1330   26.1864  -24.2955 H   0  0  0  0  0  0  0  0  0  0  0  0
    0.3649   27.3456  -25.9376 H   0  0  0  0  0  0  0  0  0  0  0  0
    0.0554   26.9746  -28.4136 H   0  0  0  0  0  0  0  0  0  0  0  0
  1  2  1  0
  2  3  1  0
  3  4  1  0
  4  5  2  0
  5  6  1  0
  6  7  2  0
  7  8  1  0
  8  9  2  0
  2 10  1  0
 10 11  2  0
 10 12  1  0
 12 13  1  0
 13 14  1  0
 14 15  2  0
 15 16  1  0
 16 17  1  0
 17 18  2  0
 18 19  1  0
 19 20  2  0
 20 21  1  0
 21 22  2  0
 22 23  1  0
 23 24  2  0
 24 25  1  0
 16 26  2  0
  9  4  1  0
 26 13  1  0
 25 17  1  0
 24 19  1  0
  1 27  1  0
  1 28  1  0
  1 29  1  0
  3 30  1  0
  3 31  1  0
  5 32  1  0
  6 33  1  0
  7 34  1  0
  8 35  1  0
  9 36  1  0
 12 37  1  0
 12 38  1  0
 18 39  1  0
 20 40  1  0
 21 41  1  0
 22 42  1  0
 23 43  1  0
M  END
>  <UniqueID>  (38) 
36

>  <SMILES>  (38) 
CN(Cc1ccccc1)C(=O)Cn1nnc(-c2cc3ccccc3o2)n1

>  <Energy>  (38) 
114.61676877946762

>  <Genealogy>  (38) 
CN(Cc1ccccc1)C(=O)Cn1nnc(-c2cc3ccccc3o2)n1 (3D coordinates assigned)
CN(Cc1ccccc1)C(=O)Cn1nnc(-c2cc3ccccc3o2)n1 (optimized conformer: 114.61676877946762 kcal/mol)

>  <smiles>  (38) 
CN(Cc1ccccc1)C(=O)Cn1nnc(-c2cc3ccccc3o2)n1

>  <score_type>  (38) 
oracle

>  <origin>  (38) 
adgpu

>  <m_score__min__energy>  (38) 
-9.7400000000000002

>  <m_primary>  (38) 
energy

$$$$
38:0
     RDKit          3D

 53 55  0  0  0  0  0  0  0  0999 V2000
   -9.5083   22.5583  -30.2907 H   0  0  0  0  0  0  0  0  0  0  0  0
   -8.6340   22.2900  -30.9020 C   0  0  0  0  0  0  0  0  0  0  0  0
   -7.4930   23.0940  -30.8750 C   0  0  0  0  0  0  0  0  0  0  0  0
   -7.4662   23.9838  -30.2288 H   0  0  0  0  0  0  0  0  0  0  0  0
   -6.3850   22.7750  -31.6640 C   0  0  0  0  0  0  0  0  0  0  0  0
   -5.2610   23.6140  -31.6100 O   0  0  0  0  0  0  0  0  0  0  0  0
   -4.1420   23.4070  -30.7900 C   0  0  0  0  0  0  0  0  0  0  0  0
   -3.0980   22.6470  -31.2150 N   0  0  0  0  0  0  0  0  0  0  0  0
   -1.9740   22.4660  -30.4740 C   0  0  0  0  0  0  0  0  0  0  0  0
   -0.9270   21.6580  -30.9370 O   0  0  0  0  0  0  0  0  0  0  0  0
   -0.9250   20.9330  -32.1400 C   0  0  0  0  0  0  0  0  0  0  0  0
   -1.9310   20.0030  -32.4640 C   0  0  0  0  0  0  0  0  0  0  0  0
   -2.7686   19.8405  -31.7697 H   0  0  0  0  0  0  0  0  0  0  0  0
   -1.8730   19.2820  -33.6660 C   0  0  0  0  0  0  0  0  0  0  0  0
   -2.9490   18.2950  -34.0040 C   0  0  0  0  0  0  0  0  0  0  0  0
   -3.3846   17.8954  -33.0763 H   0  0  0  0  0  0  0  0  0  0  0  0
   -3.7332   18.7944  -34.5919 H   0  0  0  0  0  0  0  0  0  0  0  0
   -2.5189   17.4707  -34.5919 H   0  0  0  0  0  0  0  0  0  0  0  0
   -0.8400   19.5390  -34.5770 C   0  0  0  0  0  0  0  0  0  0  0  0
   -0.8135   19.0043  -35.5380 H   0  0  0  0  0  0  0  0  0  0  0  0
    0.1600   20.4730  -34.2720 C   0  0  0  0  0  0  0  0  0  0  0  0
    1.2570   20.7570  -35.2530 C   0  0  0  0  0  0  0  0  0  0  0  0
    2.1825   20.9966  -34.7089 H   0  0  0  0  0  0  0  0  0  0  0  0
    1.4219   19.8719  -35.8850 H   0  0  0  0  0  0  0  0  0  0  0  0
    0.9717   21.6109  -35.8850 H   0  0  0  0  0  0  0  0  0  0  0  0
    0.1020   21.1750  -33.0580 C   0  0  0  0  0  0  0  0  0  0  0  0
    0.8732   21.9242  -32.8259 H   0  0  0  0  0  0  0  0  0  0  0  0
   -1.8760   23.0680  -29.2150 C   0  0  0  0  0  0  0  0  0  0  0  0
   -0.7520   22.8930  -28.4730 F   0  0  0  0  0  0  0  0  0  0  0  0
   -2.9420   23.8450  -28.7310 C   0  0  0  0  0  0  0  0  0  0  0  0
   -2.8370   24.5270  -27.3970 C   0  0  0  0  0  0  0  0  0  0  0  0
   -2.9515   23.7831  -26.5948 H   0  0  0  0  0  0  0  0  0  0  0  0
   -1.8536   25.0120  -27.3096 H   0  0  0  0  0  0  0  0  0  0  0  0
   -3.6290   25.2854  -27.3096 H   0  0  0  0  0  0  0  0  0  0  0  0
   -4.0780   24.0300  -29.5400 C   0  0  0  0  0  0  0  0  0  0  0  0
   -5.1070   24.8120  -29.1250 F   0  0  0  0  0  0  0  0  0  0  0  0
   -6.4160   21.6130  -32.4590 C   0  0  0  0  0  0  0  0  0  0  0  0
   -5.5419   21.3484  -33.0721 H   0  0  0  0  0  0  0  0  0  0  0  0
   -7.5560   20.7870  -32.4760 C   0  0  0  0  0  0  0  0  0  0  0  0
   -7.6160   19.5930  -33.2800 N   0  0  0  0  0  0  0  0  0  0  0  0
   -8.4960   19.3930  -33.8070 H   0  0  0  0  0  0  0  0  0  0  0  0
   -6.4700   18.7880  -33.5970 C   0  0  0  0  0  0  0  0  0  0  0  0
   -6.0380   18.7140  -34.9570 N   0  0  0  0  0  0  0  0  0  0  0  0
   -5.2110   18.1380  -35.2330 H   0  0  0  0  0  0  0  0  0  0  0  0
   -6.5680   19.2210  -35.6990 H   0  0  0  0  0  0  0  0  0  0  0  0
   -5.8780   18.0620  -32.6870 N   0  0  0  0  0  0  0  0  0  0  0  0
   -5.0550   17.4780  -32.9590 H   0  0  0  0  0  0  0  0  0  0  0  0
   -6.3570   17.9450  -31.3100 C   0  0  0  0  0  0  0  0  0  0  0  0
   -5.5286   18.1473  -30.6152 H   0  0  0  0  0  0  0  0  0  0  0  0
   -7.1644   18.6723  -31.1396 H   0  0  0  0  0  0  0  0  0  0  0  0
   -6.7382   16.9273  -31.1396 H   0  0  0  0  0  0  0  0  0  0  0  0
   -8.6690   21.1470  -31.7020 C   0  0  0  0  0  0  0  0  0  0  0  0
   -9.5754   20.5243  -31.7257 H   0  0  0  0  0  0  0  0  0  0  0  0
  1  2  1  0
  2  3  2  0
  3  4  1  0
  3  5  1  0
  5  6  1  0
  6  7  1  0
  7  8  2  0
  8  9  1  0
  9 10  1  0
 10 11  1  0
 11 12  2  0
 12 13  1  0
 12 14  1  0
 14 15  1  0
 15 16  1  0
 15 17  1  0
 15 18  1  0
 14 19  2  0
 19 20  1  0
 19 21  1  0
 21 22  1  0
 22 23  1  0
 22 24  1  0
 22 25  1  0
 21 26  2  0
 26 27  1  0
  9 28  2  0
 28 29  1  0
 28 30  1  0
 30 31  1  0
 31 32  1  0
 31 33  1  0
 31 34  1  0
 30 35  2  0
 35 36  1  0
  5 37  2  0
 37 38  1  0
 37 39  1  0
 39 40  1  0
 40 41  1  0
 40 42  1  0
 42 43  1  0
 43 44  1  0
 43 45  1  0
 42 46  2  0
 46 47  1  0
 46 48  1  0
 48 49  1  0
 48 50  1  0
 48 51  1  0
 39 52  2  0
 52 53  1  0
 52  2  1  0
 35  7  1  0
 26 11  1  0
M  CHG  1  46   1
M  END
>  <UniqueID>  (39) 
37

>  <SMILES>  (39) 
C/[NH+]=C(/N)Nc1cccc(Oc2nc(Oc3cc(C)cc(C)c3)c(F)c(C)c2F)c1

>  <Energy>  (39) 
63.667939382218954

>  <Genealogy>  (39) 
C[NH+]=C(N)Nc1cccc(Oc2nc(Oc3cc(C)cc(C)c3)c(F)c(C)c2F)c1 (protonated)
C/[NH+]=C(/N)Nc1cccc(Oc2nc(Oc3cc(C)cc(C)c3)c(F)c(C)c2F)c1 (cis-trans isomerization)
C/[NH+]=C(/N)Nc1cccc(Oc2nc(Oc3cc(C)cc(C)c3)c(F)c(C)c2F)c1 (3D coordinates assigned)
C/[NH+]=C(/N)Nc1cccc(Oc2nc(Oc3cc(C)cc(C)c3)c(F)c(C)c2F)c1 (optimized conformer: 63.667939382218954 kcal/mol)

>  <smiles>  (39) 
CN=C(N)Nc1cccc(Oc2nc(Oc3cc(C)cc(C)c3)c(F)c(C)c2F)c1

>  <score_type>  (39) 
oracle

>  <origin>  (39) 
adgpu

>  <m_score__min__energy>  (39) 
-10.02

>  <m_primary>  (39) 
energy

$$$$
39:0
     RDKit          3D

 44 46  0  0  0  0  0  0  0  0999 V2000
   -3.6624   22.2993  -31.7858 H   0  0  0  0  0  0  0  0  0  0  0  0
   -4.7530   22.4130  -31.6980 C   0  0  0  0  0  0  0  0  0  0  0  0
   -5.5900   21.3370  -31.9950 C   0  0  0  0  0  0  0  0  0  0  0  0
   -5.1563   20.3769  -32.3115 H   0  0  0  0  0  0  0  0  0  0  0  0
   -6.9790   21.4740  -31.8920 C   0  0  0  0  0  0  0  0  0  0  0  0
   -8.0070   20.0600  -32.0940 S   0  0  0  0  0  0  0  0  0  0  0  0
   -8.6300   20.0940  -33.4600 O   0  0  0  0  0  0  0  0  0  0  0  0
   -9.0960   20.0390  -31.0570 O   0  0  0  0  0  0  0  0  0  0  0  0
   -7.0430   18.6260  -31.9360 N   0  0  0  0  0  0  0  0  0  0  0  0
   -6.4370   18.0400  -32.9240 C   0  0  0  0  0  0  0  0  0  0  0  0
   -5.7070   16.8770  -32.8190 C   0  0  0  0  0  0  0  0  0  0  0  0
   -5.5041   16.2753  -31.9208 H   0  0  0  0  0  0  0  0  0  0  0  0
   -5.2910   16.6500  -34.1190 C   0  0  0  0  0  0  0  0  0  0  0  0
   -4.4870   15.4890  -34.5950 C   0  0  0  0  0  0  0  0  0  0  0  0
   -4.1006   14.9310  -33.7293 H   0  0  0  0  0  0  0  0  0  0  0  0
   -5.1219   14.8282  -35.2035 H   0  0  0  0  0  0  0  0  0  0  0  0
   -3.6451   15.8508  -35.2035 H   0  0  0  0  0  0  0  0  0  0  0  0
   -5.7490   17.6080  -34.8970 O   0  0  0  0  0  0  0  0  0  0  0  0
   -6.4400   18.4640  -34.2040 N   0  0  0  0  0  0  0  0  0  0  0  0
   -6.8950   19.3130  -34.6050 H   0  0  0  0  0  0  0  0  0  0  0  0
   -7.5290   22.7160  -31.5490 C   0  0  0  0  0  0  0  0  0  0  0  0
   -8.6212   22.8415  -31.5118 H   0  0  0  0  0  0  0  0  0  0  0  0
   -6.6920   23.7960  -31.2540 C   0  0  0  0  0  0  0  0  0  0  0  0
   -7.1287   24.7717  -30.9946 H   0  0  0  0  0  0  0  0  0  0  0  0
   -5.2980   23.6420  -31.2870 C   0  0  0  0  0  0  0  0  0  0  0  0
   -4.4550   24.7190  -30.8420 N   0  0  0  0  0  0  0  0  0  0  0  0
   -4.2570   25.5040  -31.5030 H   0  0  0  0  0  0  0  0  0  0  0  0
   -4.0880   24.9110  -29.4350 C   0  0  0  0  0  0  0  0  0  0  0  0
   -4.9344   24.6183  -28.7963 H   0  0  0  0  0  0  0  0  0  0  0  0
   -3.8404   25.9703  -29.2719 H   0  0  0  0  0  0  0  0  0  0  0  0
   -2.8840   24.0660  -29.0850 C   0  0  0  0  0  0  0  0  0  0  0  0
   -3.0470   22.7090  -28.7630 C   0  0  0  0  0  0  0  0  0  0  0  0
   -4.0426   22.2465  -28.8330 H   0  0  0  0  0  0  0  0  0  0  0  0
   -1.9520   21.9420  -28.3540 C   0  0  0  0  0  0  0  0  0  0  0  0
   -2.0897   20.8789  -28.1072 H   0  0  0  0  0  0  0  0  0  0  0  0
   -0.6790   22.5220  -28.2570 C   0  0  0  0  0  0  0  0  0  0  0  0
    0.5010   21.6910  -27.8500 C   0  0  0  0  0  0  0  0  0  0  0  0
    0.5594   21.6499  -26.7523 H   0  0  0  0  0  0  0  0  0  0  0  0
    0.3875   20.6724  -28.2496 H   0  0  0  0  0  0  0  0  0  0  0  0
    1.4217   22.1411  -28.2496 H   0  0  0  0  0  0  0  0  0  0  0  0
   -0.5070   23.8700  -28.6080 C   0  0  0  0  0  0  0  0  0  0  0  0
    0.4946   24.3227  -28.5642 H   0  0  0  0  0  0  0  0  0  0  0  0
   -1.6010   24.6410  -29.0130 C   0  0  0  0  0  0  0  0  0  0  0  0
   -1.4070   25.9800  -29.3360 O   0  0  0  0  0  0  0  0  0  0  0  0
  1  2  1  0
  2  3  2  0
  3  4  1  0
  3  5  1  0
  5  6  1  0
  6  7  2  0
  6  8  2  0
  6  9  1  0
  9 10  2  0
 10 11  1  0
 11 12  1  0
 11 13  2  0
 13 14  1  0
 14 15  1  0
 14 16  1  0
 14 17  1  0
 13 18  1  0
 18 19  1  0
 19 20  1  0
  5 21  2  0
 21 22  1  0
 21 23  1  0
 23 24  1  0
 23 25  2  0
 25 26  1  0
 26 27  1  0
 26 28  1  0
 28 29  1  0
 28 30  1  0
 28 31  1  0
 31 32  2  0
 32 33  1  0
 32 34  1  0
 34 35  1  0
 34 36  2  0
 36 37  1  0
 37 38  1  0
 37 39  1  0
 37 40  1  0
 36 41  1  0
 41 42  1  0
 41 43  2  0
 43 44  1  0
 25  2  1  0
 43 31  1  0
 19 10  1  0
M  CHG  1  44  -1
M  END
>  <UniqueID>  (40) 
38

>  <SMILES>  (40) 
Cc1ccc(CNc2ccc(S(=O)(=O)/N=c3/cc(C)o[nH]3)cc2)c([O-])c1

>  <Energy>  (40) 
78.10769898617728

>  <Genealogy>  (40) 
Cc1ccc(CNc2ccc(S(=O)(=O)N=c3cc(C)o[nH]3)cc2)c([O-])c1 (protonated)
Cc1ccc(CNc2ccc(S(=O)(=O)/N=c3/cc(C)o[nH]3)cc2)c([O-])c1 (cis-trans isomerization)
Cc1ccc(CNc2ccc(S(=O)(=O)/N=c3/cc(C)o[nH]3)cc2)c([O-])c1 (3D coordinates assigned)
Cc1ccc(CNc2ccc(S(=O)(=O)/N=c3/cc(C)o[nH]3)cc2)c([O-])c1 (optimized conformer: 78.10769898617728 kcal/mol)

>  <smiles>  (40) 
Cc1ccc(CNc2ccc(S(=O)(=O)N=c3cc(C)o[nH]3)cc2)c(O)c1

>  <score_type>  (40) 
oracle

>  <origin>  (40) 
adgpu

>  <m_score__min__energy>  (40) 
-12.06

>  <m_primary>  (40) 
energy

$$$$
40:0
     RDKit          3D

 60 63  0  0  1  0  0  0  0  0999 V2000
    0.4520   17.0730  -27.5060 C   0  0  0  0  0  0  0  0  0  0  0  0
   -0.0780   18.4380  -27.8040 C   0  0  0  0  0  0  0  0  0  0  0  0
   -1.3090   18.9260  -27.3880 C   0  0  0  0  0  0  0  0  0  0  0  0
   -1.3680   20.2070  -27.8900 C   0  0  0  0  0  0  0  0  0  0  0  0
   -2.3870   20.9770  -27.6960 N   0  0  0  0  0  0  0  0  0  0  0  0
   -2.2890   22.2820  -28.2860 C   0  0  0  0  0  0  0  0  0  0  0  0
   -1.2240   23.0880  -27.9620 C   0  0  0  0  0  0  0  0  0  0  0  0
   -1.0900   24.3370  -28.5060 C   0  0  0  0  0  0  0  0  0  0  0  0
   -0.1020   25.0890  -28.2070 N   0  0  0  0  0  0  0  0  0  0  0  0
    0.9620   24.7420  -27.2960 C   0  0  0  0  0  0  0  0  0  0  0  0
    0.2820   24.6810  -25.9120 C   0  0  0  0  0  0  0  0  0  0  0  0
    0.1590   25.9920  -25.4230 N   0  0  0  0  0  0  0  0  0  0  0  0
   -0.8700   26.8240  -25.8950 C   0  0  0  0  0  0  0  0  0  0  0  0
   -1.0380   27.9990  -24.9380 C   0  0  0  0  0  0  0  0  0  0  0  0
   -1.1780   27.5180  -23.6500 O   0  0  0  0  0  0  0  0  0  0  0  0
   -0.0560   26.8940  -23.1630 C   0  0  0  0  0  0  0  0  0  0  0  0
    0.8480   26.3700  -24.2560 C   0  0  0  0  0  0  0  0  0  0  0  0
   -2.0630   24.7200  -29.3740 N   0  0  0  0  0  0  0  0  0  0  0  0
   -3.1020   23.9360  -29.6920 C   0  0  0  0  0  0  0  0  0  0  0  0
   -3.9880   24.3490  -30.5130 N   0  0  0  0  0  0  0  0  0  0  0  0
   -5.0870   23.5110  -30.8450 C   0  0  0  0  0  0  0  0  0  0  0  0
   -6.3520   23.7330  -30.3170 C   0  0  0  0  0  0  0  0  0  0  0  0
   -7.3960   22.9050  -30.6590 C   0  0  0  0  0  0  0  0  0  0  0  0
   -7.1740   21.8590  -31.5230 C   0  0  0  0  0  0  0  0  0  0  0  0
   -8.4760   20.7730  -32.0080 S   0  0  0  0  0  0  0  0  0  0  0  0
   -7.9670   19.9450  -33.4410 N   0  0  0  0  0  0  0  0  0  0  0  0
   -9.7280   21.5510  -32.3600 O   0  0  0  0  0  0  0  0  0  0  0  0
   -8.8330   19.8370  -30.9060 O   0  0  0  0  0  0  0  0  0  0  0  0
   -5.9250   21.5950  -32.0770 C   0  0  0  0  0  0  0  0  0  0  0  0
   -4.8850   22.4440  -31.7180 C   0  0  0  0  0  0  0  0  0  0  0  0
   -3.2320   22.7130  -29.1590 N   0  0  0  0  0  0  0  0  0  0  0  0
   -0.2390   20.4920  -28.5760 N   0  0  0  0  0  0  0  0  0  0  0  0
    0.5240   19.4160  -28.5120 N   0  0  0  0  0  0  0  0  0  0  0  0
    0.5072   16.9309  -26.4166 H   0  0  0  0  0  0  0  0  0  0  0  0
   -0.2178   16.3166  -27.9410 H   0  0  0  0  0  0  0  0  0  0  0  0
    1.4567   16.9667  -27.9410 H   0  0  0  0  0  0  0  0  0  0  0  0
   -2.0700   18.4043  -26.7891 H   0  0  0  0  0  0  0  0  0  0  0  0
   -0.4661   22.7231  -27.2532 H   0  0  0  0  0  0  0  0  0  0  0  0
    1.3962   23.7662  -27.5591 H   0  0  0  0  0  0  0  0  0  0  0  0
    1.7891   25.4666  -27.3238 H   0  0  0  0  0  0  0  0  0  0  0  0
   -0.7142   24.2244  -26.0068 H   0  0  0  0  0  0  0  0  0  0  0  0
    0.8840   24.0734  -25.2203 H   0  0  0  0  0  0  0  0  0  0  0  0
   -0.6113   27.1983  -26.8965 H   0  0  0  0  0  0  0  0  0  0  0  0
   -1.8098   26.2554  -25.9533 H   0  0  0  0  0  0  0  0  0  0  0  0
   -0.1523   28.6490  -24.9940 H   0  0  0  0  0  0  0  0  0  0  0  0
   -1.9310   28.5780  -25.2160 H   0  0  0  0  0  0  0  0  0  0  0  0
    0.5102   27.6148  -22.5548 H   0  0  0  0  0  0  0  0  0  0  0  0
   -0.3904   26.0304  -22.5693 H   0  0  0  0  0  0  0  0  0  0  0  0
    1.5698   27.1577  -24.5179 H   0  0  0  0  0  0  0  0  0  0  0  0
    1.3387   25.4669  -23.8639 H   0  0  0  0  0  0  0  0  0  0  0  0
   -1.9940   25.6780  -29.8130 H   0  0  0  0  0  0  0  0  0  0  0  0
   -6.5194   24.5714  -29.6249 H   0  0  0  0  0  0  0  0  0  0  0  0
   -8.4001   23.0784  -30.2446 H   0  0  0  0  0  0  0  0  0  0  0  0
   -8.3530   20.4040  -34.2950 H   0  0  0  0  0  0  0  0  0  0  0  0
   -8.3580   18.9890  -33.4230 H   0  0  0  0  0  0  0  0  0  0  0  0
   -5.7681   20.7530  -32.7673 H   0  0  0  0  0  0  0  0  0  0  0  0
   -3.8808   22.2699  -32.1319 H   0  0  0  0  0  0  0  0  0  0  0  0
   -4.0600   22.1090  -29.4210 H   0  0  0  0  0  0  0  0  0  0  0  0
   -0.0250   21.3960  -29.0570 H   0  0  0  0  0  0  0  0  0  0  0  0
    1.4630   19.3780  -28.9670 H   0  0  0  0  0  0  0  0  0  0  0  0
  1  2  1  0
  2  3  2  0
  3  4  1  0
  4  5  2  0
  5  6  1  0
  6  7  2  0
  7  8  1  0
  8  9  2  0
  9 10  1  0
 10 11  1  0
 11 12  1  0
 12 13  1  0
 13 14  1  0
 14 15  1  0
 15 16  1  0
 16 17  1  0
  8 18  1  0
 18 19  1  0
 19 20  2  0
 20 21  1  0
 21 22  2  0
 22 23  1  0
 23 24  2  0
 24 25  1  0
 25 26  1  0
 25 27  2  0
 25 28  2  0
 24 29  1  0
 29 30  2  0
 19 31  1  0
  4 32  1  0
 32 33  1  0
 33  2  1  0
 31  6  1  0
 17 12  1  0
 30 21  1  0
  1 34  1  0
  1 35  1  0
  1 36  1  0
  3 37  1  0
  7 38  1  0
 10 39  1  0
 10 40  1  0
 11 41  1  0
 11 42  1  0
 13 43  1  0
 13 44  1  0
 14 45  1  0
 14 46  1  0
 16 47  1  0
 16 48  1  0
 17 49  1  0
 17 50  1  0
 18 51  1  0
 22 52  1  0
 23 53  1  0
 26 54  1  0
 26 55  1  0
 29 56  1  0
 30 57  1  0
 31 58  1  0
 32 59  1  0
 33 60  1  0
M  END
>  <smiles>  (41) 
Cc1cc(=Nc2cc(=NCCN3CCOCC3)[nH]c(=Nc3ccc(S(N)(=O)=O)cc3)[nH]2)[nH][nH]1

>  <score_type>  (41) 
oracle

>  <origin>  (41) 
adgpu

>  <m_score__min__energy>  (41) 
-10.279999999999999

>  <m_primary>  (41) 
energy

$$$$
41:0
     RDKit          3D

 53 56  0  0  1  0  0  0  0  0999 V2000
    2.2840   21.0570  -35.0020 C   0  0  0  0  0  0  0  0  0  0  0  0
    0.9910   21.5740  -34.4900 C   0  0  0  0  0  0  0  0  0  0  0  0
    0.5780   22.6510  -35.0440 O   0  0  0  0  0  0  0  0  0  0  0  0
    0.2210   20.9290  -33.4360 C   0  0  0  0  0  0  0  0  0  0  0  0
    0.7150   19.9380  -32.6210 C   0  0  0  0  0  0  0  0  0  0  0  0
   -0.0740   19.3800  -31.6410 C   0  0  0  0  0  0  0  0  0  0  0  0
   -1.3830   19.7620  -31.4070 C   0  0  0  0  0  0  0  0  0  0  0  0
   -1.8740   20.7660  -32.2370 C   0  0  0  0  0  0  0  0  0  0  0  0
   -3.1960   21.2610  -32.1560 N   0  0  0  0  0  0  0  0  0  0  0  0
   -3.6460   22.1370  -31.3750 C   0  0  0  0  0  0  0  0  0  0  0  0
   -4.9520   22.4750  -31.4620 N   0  0  0  0  0  0  0  0  0  0  0  0
   -5.4890   23.3980  -30.6540 C   0  0  0  0  0  0  0  0  0  0  0  0
   -7.2370   23.7350  -30.8180 S   0  0  0  0  0  0  0  0  0  0  0  0
   -7.8680   22.9750  -32.3540 C   0  0  0  0  0  0  0  0  0  0  0  0
   -7.9370   21.5030  -32.1910 C   0  0  0  0  0  0  0  0  0  0  0  0
   -7.1050   20.7690  -33.0550 C   0  0  0  0  0  0  0  0  0  0  0  0
   -7.0950   19.3930  -33.0000 C   0  0  0  0  0  0  0  0  0  0  0  0
   -7.9030   18.7470  -32.0960 C   0  0  0  0  0  0  0  0  0  0  0  0
   -8.7240   19.4900  -31.2460 C   0  0  0  0  0  0  0  0  0  0  0  0
   -8.7530   20.8680  -31.2810 C   0  0  0  0  0  0  0  0  0  0  0  0
   -4.7100   24.0020  -29.7390 N   0  0  0  0  0  0  0  0  0  0  0  0
   -3.3880   23.6800  -29.6290 C   0  0  0  0  0  0  0  0  0  0  0  0
   -2.6390   24.3700  -28.5920 C   0  0  0  0  0  0  0  0  0  0  0  0
   -1.4300   24.9710  -28.9640 C   0  0  0  0  0  0  0  0  0  0  0  0
   -0.6650   25.6280  -28.0290 C   0  0  0  0  0  0  0  0  0  0  0  0
   -1.0530   25.7190  -26.7040 C   0  0  0  0  0  0  0  0  0  0  0  0
   -2.2610   25.1130  -26.3590 C   0  0  0  0  0  0  0  0  0  0  0  0
   -3.0500   24.4480  -27.2760 C   0  0  0  0  0  0  0  0  0  0  0  0
   -4.2560   23.8390  -26.9460 O   0  0  0  0  0  0  0  0  0  0  0  0
   -2.8200   22.7180  -30.4670 C   0  0  0  0  0  0  0  0  0  0  0  0
   -1.4410   22.4550  -30.2820 C   0  0  0  0  0  0  0  0  0  0  0  0
   -0.2980   22.2570  -30.1230 N   0  0  0  0  0  0  0  0  0  0  0  0
   -1.0730   21.3350  -33.2360 C   0  0  0  0  0  0  0  0  0  0  0  0
    2.9358   20.7964  -34.1551 H   0  0  0  0  0  0  0  0  0  0  0  0
    2.1039   20.1617  -35.6152 H   0  0  0  0  0  0  0  0  0  0  0  0
    2.7708   21.8296  -35.6152 H   0  0  0  0  0  0  0  0  0  0  0  0
    1.7495   19.5882  -32.7533 H   0  0  0  0  0  0  0  0  0  0  0  0
    0.3588   18.5890  -31.0109 H   0  0  0  0  0  0  0  0  0  0  0  0
   -1.9954   19.3026  -30.6171 H   0  0  0  0  0  0  0  0  0  0  0  0
   -5.5370   22.0010  -32.1810 H   0  0  0  0  0  0  0  0  0  0  0  0
   -8.8731   23.3666  -32.5697 H   0  0  0  0  0  0  0  0  0  0  0  0
   -7.1906   23.2182  -33.1859 H   0  0  0  0  0  0  0  0  0  0  0  0
   -6.4613   21.2946  -33.7757 H   0  0  0  0  0  0  0  0  0  0  0  0
   -6.4453   18.8158  -33.6744 H   0  0  0  0  0  0  0  0  0  0  0  0
   -7.9030   17.6483  -32.0422 H   0  0  0  0  0  0  0  0  0  0  0  0
   -9.3667   18.9606  -30.5272 H   0  0  0  0  0  0  0  0  0  0  0  0
   -9.4054   21.4406  -30.6054 H   0  0  0  0  0  0  0  0  0  0  0  0
   -1.0907   24.9173  -30.0090 H   0  0  0  0  0  0  0  0  0  0  0  0
    0.2808   26.0937  -28.3429 H   0  0  0  0  0  0  0  0  0  0  0  0
   -0.4381   26.2442  -25.9583 H   0  0  0  0  0  0  0  0  0  0  0  0
   -2.5987   25.1672  -25.3135 H   0  0  0  0  0  0  0  0  0  0  0  0
   -5.0480   23.8550  -27.5760 H   0  0  0  0  0  0  0  0  0  0  0  0
   -1.4924   22.1262  -33.8749 H   0  0  0  0  0  0  0  0  0  0  0  0
  1  2  1  0
  2  3  2  0
  2  4  1  0
  4  5  2  0
  5  6  1  0
  6  7  2  0
  7  8  1  0
  8  9  1  0
  9 10  2  0
 10 11  1  0
 11 12  1  0
 12 13  1  0
 13 14  1  0
 14 15  1  0
 15 16  2  0
 16 17  1  0
 17 18  2  0
 18 19  1  0
 19 20  2  0
 12 21  2  0
 21 22  1  0
 22 23  1  0
 23 24  2  0
 24 25  1  0
 25 26  2  0
 26 27  1  0
 27 28  2  0
 28 29  1  0
 22 30  2  0
 30 31  1  0
 31 32  3  0
  8 33  2  0
 33  4  1  0
 30 10  1  0
 20 15  1  0
 28 23  1  0
  1 34  1  0
  1 35  1  0
  1 36  1  0
  5 37  1  0
  6 38  1  0
  7 39  1  0
 11 40  1  0
 14 41  1  0
 14 42  1  0
 16 43  1  0
 17 44  1  0
 18 45  1  0
 19 46  1  0
 20 47  1  0
 24 48  1  0
 25 49  1  0
 26 50  1  0
 27 51  1  0
 29 52  1  0
 33 53  1  0
M  END
>  <smiles>  (42) 
CC(=O)c1cccc(N=c2[nH]c(SCc3ccccc3)nc(-c3ccccc3O)c2C#N)c1

>  <score_type>  (42) 
oracle

>  <origin>  (42) 
adgpu

>  <m_score__min__energy>  (42) 
-11.31

>  <m_primary>  (42) 
energy

$$$$
42:0
     RDKit          3D

 41 43  0  0  0  0  0  0  0  0999 V2000
   -3.4920   20.5880  -27.4600 C   0  0  0  0  0  0  0  0  0  0  0  0
   -3.0280   21.9120  -27.9910 C   0  0  0  0  0  0  0  0  0  0  0  0
   -1.7880   22.4320  -27.5990 C   0  0  0  0  0  0  0  0  0  0  0  0
   -1.3740   23.6810  -28.0600 C   0  0  0  0  0  0  0  0  0  0  0  0
   -2.1930   24.4330  -28.9080 C   0  0  0  0  0  0  0  0  0  0  0  0
   -1.7380   25.6730  -29.3420 O   0  0  0  0  0  0  0  0  0  0  0  0
   -3.4550   23.9320  -29.3050 C   0  0  0  0  0  0  0  0  0  0  0  0
   -4.3570   24.7040  -30.2020 C   0  0  0  0  0  0  0  0  0  0  0  0
   -3.9050   25.6530  -30.8970 O   0  0  0  0  0  0  0  0  0  0  0  0
   -5.7390   24.3320  -30.3190 N   0  0  0  0  0  0  0  0  0  0  0  0
   -6.2490   23.0370  -30.6640 C   0  0  0  0  0  0  0  0  0  0  0  0
   -5.4930   22.1080  -31.4000 C   0  0  0  0  0  0  0  0  0  0  0  0
   -6.0380   20.8660  -31.7400 C   0  0  0  0  0  0  0  0  0  0  0  0
   -7.3470   20.5410  -31.3580 C   0  0  0  0  0  0  0  0  0  0  0  0
   -8.0510   18.9890  -31.7940 S   0  0  0  0  0  0  0  0  0  0  0  0
   -8.7090   19.1100  -33.1410 O   0  0  0  0  0  0  0  0  0  0  0  0
   -9.0800   18.5930  -30.7700 O   0  0  0  0  0  0  0  0  0  0  0  0
   -6.7870   17.7990  -31.8470 N   0  0  0  0  0  0  0  0  0  0  0  0
   -6.0100   17.5410  -32.8580 C   0  0  0  0  0  0  0  0  0  0  0  0
   -6.1060   18.2260  -34.0870 C   0  0  0  0  0  0  0  0  0  0  0  0
   -5.2350   17.8950  -35.1280 C   0  0  0  0  0  0  0  0  0  0  0  0
   -4.2820   16.8930  -34.9480 C   0  0  0  0  0  0  0  0  0  0  0  0
   -4.2130   16.2320  -33.7210 C   0  0  0  0  0  0  0  0  0  0  0  0
   -5.0680   16.5670  -32.7180 N   0  0  0  0  0  0  0  0  0  0  0  0
   -8.1110   21.4780  -30.6510 C   0  0  0  0  0  0  0  0  0  0  0  0
   -7.5670   22.7200  -30.3130 C   0  0  0  0  0  0  0  0  0  0  0  0
   -3.8610   22.6690  -28.8280 C   0  0  0  0  0  0  0  0  0  0  0  0
   -3.4840   20.6108  -26.3603 H   0  0  0  0  0  0  0  0  0  0  0  0
   -4.5137   20.3882  -27.8152 H   0  0  0  0  0  0  0  0  0  0  0  0
   -2.8185   19.7941  -27.8152 H   0  0  0  0  0  0  0  0  0  0  0  0
   -1.1388   21.8533  -26.9254 H   0  0  0  0  0  0  0  0  0  0  0  0
   -0.3949   24.0782  -27.7541 H   0  0  0  0  0  0  0  0  0  0  0  0
   -4.4679   22.3593  -31.7099 H   0  0  0  0  0  0  0  0  0  0  0  0
   -5.4374   20.1413  -32.3093 H   0  0  0  0  0  0  0  0  0  0  0  0
   -6.8605   19.0145  -34.2249 H   0  0  0  0  0  0  0  0  0  0  0  0
   -5.3010   18.4248  -36.0897 H   0  0  0  0  0  0  0  0  0  0  0  0
   -3.5931   16.6269  -35.7632 H   0  0  0  0  0  0  0  0  0  0  0  0
   -3.4664   15.4394  -33.5650 H   0  0  0  0  0  0  0  0  0  0  0  0
   -9.1438   21.2352  -30.3605 H   0  0  0  0  0  0  0  0  0  0  0  0
   -8.1784   23.4538  -29.7674 H   0  0  0  0  0  0  0  0  0  0  0  0
   -4.8453   22.2714  -29.1164 H   0  0  0  0  0  0  0  0  0  0  0  0
  1  2  1  0
  2  3  2  0
  3  4  1  0
  4  5  2  0
  5  6  1  0
  5  7  1  0
  7  8  1  0
  8  9  2  0
  8 10  1  0
 10 11  1  0
 11 12  2  0
 12 13  1  0
 13 14  2  0
 14 15  1  0
 15 16  2  0
 15 17  2  0
 15 18  1  0
 18 19  2  3
 19 20  1  0
 20 21  2  0
 21 22  1  0
 22 23  2  0
 23 24  1  0
 14 25  1  0
 25 26  2  0
  7 27  2  0
 27  2  1  0
 26 11  1  0
 24 19  1  0
  1 28  1  0
  1 29  1  0
  1 30  1  0
  3 31  1  0
  4 32  1  0
 12 33  1  0
 13 34  1  0
 20 35  1  0
 21 36  1  0
 22 37  1  0
 23 38  1  0
 25 39  1  0
 26 40  1  0
 27 41  1  0
M  CHG  3   6  -1  10  -1  24  -1
M  END
>  <UniqueID>  (43) 
39

>  <SMILES>  (43) 
Cc1ccc([O-])c(C(=O)[N-]c2ccc(S(=O)(=O)N=c3cccc[n-]3)cc2)c1

>  <Energy>  (43) 
56.369207263495184

>  <Genealogy>  (43) 
Cc1ccc([O-])c(C(=O)[N-]c2ccc(S(=O)(=O)N=c3cccc[n-]3)cc2)c1 (protonated)
Cc1ccc([O-])c(C(=O)[N-]c2ccc(S(=O)(=O)N=c3cccc[n-]3)cc2)c1 (3D coordinates assigned)
Cc1ccc([O-])c(C(=O)[N-]c2ccc(S(=O)(=O)N=c3cccc[n-]3)cc2)c1 (optimized conformer: 56.369207263495184 kcal/mol)

>  <smiles>  (43) 
Cc1ccc(O)c(C(=O)Nc2ccc(S(=O)(=O)N=c3cccc[nH]3)cc2)c1

>  <score_type>  (43) 
oracle

>  <origin>  (43) 
adgpu

>  <m_score__min__energy>  (43) 
-13.449999999999999

>  <m_primary>  (43) 
energy

$$$$
43:0
     RDKit          3D

 42 45  0  0  0  0  0  0  0  0999 V2000
   -6.4810   19.5840  -33.9140 C   0  0  0  0  0  0  0  0  0  0  0  0
   -6.8550   20.6480  -32.9250 C   0  0  0  0  0  0  0  0  0  0  0  0
   -8.1330   20.6580  -32.3500 C   0  0  0  0  0  0  0  0  0  0  0  0
   -8.4700   21.6190  -31.3860 C   0  0  0  0  0  0  0  0  0  0  0  0
   -9.8490   21.6440  -30.7960 C   0  0  0  0  0  0  0  0  0  0  0  0
   -7.5280   22.5900  -31.0170 C   0  0  0  0  0  0  0  0  0  0  0  0
   -6.2450   22.5920  -31.5890 C   0  0  0  0  0  0  0  0  0  0  0  0
   -5.2640   23.5660  -31.1980 N   0  0  0  0  0  0  0  0  0  0  0  0
   -5.4020   24.8710  -31.3560 N   0  0  0  0  0  0  0  0  0  0  0  0
   -4.3410   25.4780  -30.8470 N   0  0  0  0  0  0  0  0  0  0  0  0
   -3.5050   24.5830  -30.3380 N   0  0  0  0  0  0  0  0  0  0  0  0
   -4.0910   23.3920  -30.5610 C   0  0  0  0  0  0  0  0  0  0  0  0
   -3.4380   21.8340  -29.9470 S   0  0  0  0  0  0  0  0  0  0  0  0
   -2.0570   21.7710  -31.1370 C   0  0  0  0  0  0  0  0  0  0  0  0
   -2.3540   20.8000  -32.2320 C   0  0  0  0  0  0  0  0  0  0  0  0
   -2.0230   20.9900  -33.5220 N   0  0  0  0  0  0  0  0  0  0  0  0
   -2.4730   19.9310  -34.1780 N   0  0  0  0  0  0  0  0  0  0  0  0
   -3.0630   19.1380  -33.2620 C   0  0  0  0  0  0  0  0  0  0  0  0
   -3.7050   17.8450  -33.5650 C   0  0  0  0  0  0  0  0  0  0  0  0
   -3.3310   17.1080  -34.7030 C   0  0  0  0  0  0  0  0  0  0  0  0
   -3.9440   15.8830  -34.9830 C   0  0  0  0  0  0  0  0  0  0  0  0
   -4.9340   15.3840  -34.1330 C   0  0  0  0  0  0  0  0  0  0  0  0
   -5.3120   16.1090  -33.0010 C   0  0  0  0  0  0  0  0  0  0  0  0
   -4.7020   17.3350  -32.7160 C   0  0  0  0  0  0  0  0  0  0  0  0
   -2.9940   19.6690  -32.0630 O   0  0  0  0  0  0  0  0  0  0  0  0
   -5.9080   21.6020  -32.5220 C   0  0  0  0  0  0  0  0  0  0  0  0
   -6.1628   18.6788  -33.3760 H   0  0  0  0  0  0  0  0  0  0  0  0
   -7.3503   19.3486  -34.5456 H   0  0  0  0  0  0  0  0  0  0  0  0
   -5.6556   19.9443  -34.5456 H   0  0  0  0  0  0  0  0  0  0  0  0
   -8.8763   19.9074  -32.6568 H   0  0  0  0  0  0  0  0  0  0  0  0
   -9.7782   21.6427  -29.6983 H   0  0  0  0  0  0  0  0  0  0  0  0
  -10.3737   22.5518  -31.1285 H   0  0  0  0  0  0  0  0  0  0  0  0
  -10.4063   20.7558  -31.1285 H   0  0  0  0  0  0  0  0  0  0  0  0
   -7.7957   23.3558  -30.2741 H   0  0  0  0  0  0  0  0  0  0  0  0
   -1.9069   22.7707  -31.5706 H   0  0  0  0  0  0  0  0  0  0  0  0
   -1.1479   21.4458  -30.6100 H   0  0  0  0  0  0  0  0  0  0  0  0
   -2.5526   17.4971  -35.3758 H   0  0  0  0  0  0  0  0  0  0  0  0
   -3.6462   15.3111  -35.8742 H   0  0  0  0  0  0  0  0  0  0  0  0
   -5.4156   14.4203  -34.3553 H   0  0  0  0  0  0  0  0  0  0  0  0
   -6.0912   15.7151  -32.3319 H   0  0  0  0  0  0  0  0  0  0  0  0
   -5.0040   17.9025  -31.8234 H   0  0  0  0  0  0  0  0  0  0  0  0
   -4.8919   21.5725  -32.9423 H   0  0  0  0  0  0  0  0  0  0  0  0
  1  2  1  0
  2  3  2  0
  3  4  1  0
  4  5  1  0
  4  6  2  0
  6  7  1  0
  7  8  1  0
  8  9  1  0
  9 10  2  0
 10 11  1  0
 11 12  2  0
 12 13  1  0
 13 14  1  0
 14 15  1  0
 15 16  2  0
 16 17  1  0
 17 18  2  0
 18 19  1  0
 19 20  2  0
 20 21  1  0
 21 22  2  0
 22 23  1  0
 23 24  2  0
 18 25  1  0
  7 26  2  0
 26  2  1  0
 12  8  1  0
 25 15  1  0
 24 19  1  0
  1 27  1  0
  1 28  1  0
  1 29  1  0
  3 30  1  0
  5 31  1  0
  5 32  1  0
  5 33  1  0
  6 34  1  0
 14 35  1  0
 14 36  1  0
 20 37  1  0
 21 38  1  0
 22 39  1  0
 23 40  1  0
 24 41  1  0
 26 42  1  0
M  END
>  <UniqueID>  (44) 
40

>  <SMILES>  (44) 
Cc1cc(C)cc(-n2nnnc2SCc2nnc(-c3ccccc3)o2)c1

>  <Energy>  (44) 
119.22050648698496

>  <Genealogy>  (44) 
Cc1cc(C)cc(-n2nnnc2SCc2nnc(-c3ccccc3)o2)c1 (3D coordinates assigned)
Cc1cc(C)cc(-n2nnnc2SCc2nnc(-c3ccccc3)o2)c1 (optimized conformer: 119.22050648698496 kcal/mol)

>  <smiles>  (44) 
Cc1cc(C)cc(-n2nnnc2SCc2nnc(-c3ccccc3)o2)c1

>  <score_type>  (44) 
oracle

>  <origin>  (44) 
adgpu

>  <m_score__min__energy>  (44) 
-10.130000000000001

>  <m_primary>  (44) 
energy

$$$$
44:0
     RDKit          3D

 44 47  0  0  0  0  0  0  0  0999 V2000
   -6.6340   21.1830  -30.6410 H   0  0  0  0  0  0  0  0  0  0  0  0
   -6.8790   22.0060  -31.1760 O   0  0  0  0  0  0  0  0  0  0  0  0
   -6.3750   23.2670  -30.8630 C   0  0  0  0  0  0  0  0  0  0  0  0
   -7.1540   24.3350  -30.4640 C   0  0  0  0  0  0  0  0  0  0  0  0
   -8.2431   24.3365  -30.3098 H   0  0  0  0  0  0  0  0  0  0  0  0
   -6.2900   25.4030  -30.2970 C   0  0  0  0  0  0  0  0  0  0  0  0
   -6.5535   26.4249  -29.9865 H   0  0  0  0  0  0  0  0  0  0  0  0
   -5.0310   24.9260  -30.5990 C   0  0  0  0  0  0  0  0  0  0  0  0
   -3.8640   25.6790  -30.5360 O   0  0  0  0  0  0  0  0  0  0  0  0
   -5.0730   23.6230  -30.9410 N   0  0  0  0  0  0  0  0  0  0  0  0
   -3.9520   22.7910  -31.2810 C   0  0  0  0  0  0  0  0  0  0  0  0
   -3.9900   21.9930  -32.4330 C   0  0  0  0  0  0  0  0  0  0  0  0
   -4.8852   21.9961  -33.0722 H   0  0  0  0  0  0  0  0  0  0  0  0
   -2.8970   21.1950  -32.7720 C   0  0  0  0  0  0  0  0  0  0  0  0
   -2.9363   20.5665  -33.6739 H   0  0  0  0  0  0  0  0  0  0  0  0
   -1.7520   21.1910  -31.9700 C   0  0  0  0  0  0  0  0  0  0  0  0
   -0.8956   20.5567  -32.2424 H   0  0  0  0  0  0  0  0  0  0  0  0
   -1.6890   21.9940  -30.8160 C   0  0  0  0  0  0  0  0  0  0  0  0
   -0.4730   21.9980  -29.9660 C   0  0  0  0  0  0  0  0  0  0  0  0
    0.1570   20.9220  -29.7770 O   0  0  0  0  0  0  0  0  0  0  0  0
   -0.0250   23.2270  -29.3680 N   0  0  0  0  0  0  0  0  0  0  0  0
   -0.6050   23.9130  -28.4260 C   0  0  0  0  0  0  0  0  0  0  0  0
   -0.0760   25.0590  -27.9500 N   0  0  0  0  0  0  0  0  0  0  0  0
   -0.8380   25.6150  -26.9670 C   0  0  0  0  0  0  0  0  0  0  0  0
   -0.4420   26.8860  -26.3060 C   0  0  0  0  0  0  0  0  0  0  0  0
   -0.1540   26.8990  -24.9290 C   0  0  0  0  0  0  0  0  0  0  0  0
   -0.2215   25.9662  -24.3500 H   0  0  0  0  0  0  0  0  0  0  0  0
    0.2170   28.0850  -24.2890 C   0  0  0  0  0  0  0  0  0  0  0  0
    0.4430   28.0778  -23.2125 H   0  0  0  0  0  0  0  0  0  0  0  0
    0.3030   29.2870  -25.0130 C   0  0  0  0  0  0  0  0  0  0  0  0
    0.6700   30.5020  -24.4160 O   0  0  0  0  0  0  0  0  0  0  0  0
    1.4800   30.6130  -23.2510 C   0  0  0  0  0  0  0  0  0  0  0  0
    0.8476   30.5263  -22.3551 H   0  0  0  0  0  0  0  0  0  0  0  0
    2.2311   29.8094  -23.2487 H   0  0  0  0  0  0  0  0  0  0  0  0
    1.9873   31.5891  -23.2487 H   0  0  0  0  0  0  0  0  0  0  0  0
    0.0110   29.2790  -26.3810 C   0  0  0  0  0  0  0  0  0  0  0  0
    0.0732   30.2142  -26.9569 H   0  0  0  0  0  0  0  0  0  0  0  0
   -0.3590   28.0940  -27.0230 C   0  0  0  0  0  0  0  0  0  0  0  0
   -0.5875   28.1057  -28.0989 H   0  0  0  0  0  0  0  0  0  0  0  0
   -1.9990   24.8960  -26.6590 C   0  0  0  0  0  0  0  0  0  0  0  0
   -2.7469   25.1719  -25.9010 H   0  0  0  0  0  0  0  0  0  0  0  0
   -2.0520   23.5370  -27.6490 S   0  0  0  0  0  0  0  0  0  0  0  0
   -2.7970   22.7950  -30.4820 C   0  0  0  0  0  0  0  0  0  0  0  0
   -2.7579   23.4311  -29.5854 H   0  0  0  0  0  0  0  0  0  0  0  0
  1  2  1  0
  2  3  1  0
  3  4  2  0
  4  5  1  0
  4  6  1  0
  6  7  1  0
  6  8  2  0
  8  9  1  0
  8 10  1  0
 10 11  1  0
 11 12  2  0
 12 13  1  0
 12 14  1  0
 14 15  1  0
 14 16  2  0
 16 17  1  0
 16 18  1  0
 18 19  1  0
 19 20  2  0
 19 21  1  0
 21 22  2  0
 22 23  1  0
 23 24  1  0
 24 25  1  0
 25 26  2  0
 26 27  1  0
 26 28  1  0
 28 29  1  0
 28 30  2  0
 30 31  1  0
 31 32  1  0
 32 33  1  0
 32 34  1  0
 32 35  1  0
 30 36  1  0
 36 37  1  0
 36 38  2  0
 38 39  1  0
 24 40  2  0
 40 41  1  0
 40 42  1  0
 18 43  2  0
 43 44  1  0
 10  3  1  0
 43 11  1  0
 42 22  1  0
 38 25  1  0
M  CHG  2   9  -1  23  -1
M  END
>  <UniqueID>  (45) 
41

>  <SMILES>  (45) 
COc1ccc(-c2cs/c(=N\C(=O)c3cccc(-n4c([O-])ccc4O)c3)[n-]2)cc1

>  <Energy>  (45) 
118.38980890629838

>  <Genealogy>  (45) 
COc1ccc(-c2csc(=NC(=O)c3cccc(-n4c([O-])ccc4O)c3)[n-]2)cc1 (protonated)
COc1ccc(-c2cs/c(=N\C(=O)c3cccc(-n4c([O-])ccc4O)c3)[n-]2)cc1 (cis-trans isomerization)
COc1ccc(-c2cs/c(=N\C(=O)c3cccc(-n4c([O-])ccc4O)c3)[n-]2)cc1 (3D coordinates assigned)
COc1ccc(-c2cs/c(=N\C(=O)c3cccc(-n4c([O-])ccc4O)c3)[n-]2)cc1 (optimized conformer: 118.38980890629838 kcal/mol)

>  <smiles>  (45) 
COc1ccc(-c2csc(=NC(=O)c3cccc(-n4c(O)ccc4O)c3)[nH]2)cc1

>  <score_type>  (45) 
oracle

>  <origin>  (45) 
adgpu

>  <m_score__min__energy>  (45) 
-10.630000000000001

>  <m_primary>  (45) 
energy

$$$$
45:0
     RDKit          3D

 50 53  0  0  0  0  0  0  0  0999 V2000
   -0.3100   22.6660  -23.9440 C   0  0  0  0  0  0  0  0  0  0  0  0
   -0.5150   23.8770  -24.8190 C   0  0  0  0  0  0  0  0  0  0  0  0
   -0.4250   25.1470  -24.2300 C   0  0  0  0  0  0  0  0  0  0  0  0
   -0.5960   26.2980  -24.9970 C   0  0  0  0  0  0  0  0  0  0  0  0
   -0.4860   27.8790  -24.2420 Cl  0  0  0  0  0  0  0  0  0  0  0  0
   -0.8350   26.1970  -26.3650 C   0  0  0  0  0  0  0  0  0  0  0  0
   -0.9300   24.9420  -26.9900 C   0  0  0  0  0  0  0  0  0  0  0  0
   -1.1090   24.9130  -28.4620 C   0  0  0  0  0  0  0  0  0  0  0  0
   -0.1550   24.5380  -29.1980 O   0  0  0  0  0  0  0  0  0  0  0  0
   -2.3610   25.2950  -29.0470 N   0  0  0  0  0  0  0  0  0  0  0  0
   -3.1760   24.5040  -29.9220 C   0  0  0  0  0  0  0  0  0  0  0  0
   -2.7390   23.2270  -30.2850 C   0  0  0  0  0  0  0  0  0  0  0  0
   -3.5050   22.4410  -31.1470 C   0  0  0  0  0  0  0  0  0  0  0  0
   -4.6990   22.9510  -31.6630 C   0  0  0  0  0  0  0  0  0  0  0  0
   -5.4680   22.1610  -32.5220 O   0  0  0  0  0  0  0  0  0  0  0  0
   -6.8110   21.8610  -32.2830 C   0  0  0  0  0  0  0  0  0  0  0  0
   -7.6790   22.8930  -32.1000 N   0  0  0  0  0  0  0  0  0  0  0  0
   -9.0100   22.6960  -31.9250 C   0  0  0  0  0  0  0  0  0  0  0  0
   -9.5310   21.4060  -31.9550 C   0  0  0  0  0  0  0  0  0  0  0  0
   -8.6700   20.3230  -32.1240 C   0  0  0  0  0  0  0  0  0  0  0  0
   -7.2810   20.5240  -32.2260 C   0  0  0  0  0  0  0  0  0  0  0  0
   -6.3420   19.3350  -32.4040 C   0  0  0  0  0  0  0  0  0  0  0  0
   -6.1110   18.8710  -33.8490 C   0  0  0  0  0  0  0  0  0  0  0  0
   -6.6590   17.4970  -33.5040 C   0  0  0  0  0  0  0  0  0  0  0  0
   -6.9590   17.9660  -32.0910 C   0  0  0  0  0  0  0  0  0  0  0  0
   -5.1010   24.2060  -31.3180 N   0  0  0  0  0  0  0  0  0  0  0  0
   -4.3760   24.9880  -30.4740 C   0  0  0  0  0  0  0  0  0  0  0  0
   -0.8270   23.7600  -26.2000 C   0  0  0  0  0  0  0  0  0  0  0  0
   -1.0550   22.3970  -26.8190 C   0  0  0  0  0  0  0  0  0  0  0  0
   -0.3606   22.9649  -22.8866 H   0  0  0  0  0  0  0  0  0  0  0  0
   -1.0955   21.9250  -24.1536 H   0  0  0  0  0  0  0  0  0  0  0  0
    0.6756   22.2248  -24.1536 H   0  0  0  0  0  0  0  0  0  0  0  0
   -0.2176   25.2352  -23.1533 H   0  0  0  0  0  0  0  0  0  0  0  0
   -0.9510   27.1119  -26.9646 H   0  0  0  0  0  0  0  0  0  0  0  0
   -1.7881   22.8402  -29.8899 H   0  0  0  0  0  0  0  0  0  0  0  0
   -3.1715   21.4284  -31.4179 H   0  0  0  0  0  0  0  0  0  0  0  0
   -9.6766   23.5552  -31.7596 H   0  0  0  0  0  0  0  0  0  0  0  0
  -10.6133   21.2423  -31.8462 H   0  0  0  0  0  0  0  0  0  0  0  0
   -9.0794   19.3035  -32.1780 H   0  0  0  0  0  0  0  0  0  0  0  0
   -5.5084   19.7342  -31.8076 H   0  0  0  0  0  0  0  0  0  0  0  0
   -6.7072   19.4165  -34.5953 H   0  0  0  0  0  0  0  0  0  0  0  0
   -5.1178   18.9713  -34.3110 H   0  0  0  0  0  0  0  0  0  0  0  0
   -7.5513   17.2124  -34.0809 H   0  0  0  0  0  0  0  0  0  0  0  0
   -6.0485   16.5976  -33.6725 H   0  0  0  0  0  0  0  0  0  0  0  0
   -8.0316   18.0030  -31.8499 H   0  0  0  0  0  0  0  0  0  0  0  0
   -6.6049   17.3836  -31.2276 H   0  0  0  0  0  0  0  0  0  0  0  0
   -4.7281   25.9994  -30.2229 H   0  0  0  0  0  0  0  0  0  0  0  0
   -1.1802   21.6488  -26.0224 H   0  0  0  0  0  0  0  0  0  0  0  0
   -1.9611   22.4242  -27.4421 H   0  0  0  0  0  0  0  0  0  0  0  0
   -0.1894   22.1278  -27.4421 H   0  0  0  0  0  0  0  0  0  0  0  0
  1  2  1  0
  2  3  2  0
  3  4  1  0
  4  5  1  0
  4  6  2  0
  6  7  1  0
  7  8  1  0
  8  9  2  0
  8 10  1  0
 10 11  1  0
 11 12  2  0
 12 13  1  0
 13 14  2  0
 14 15  1  0
 15 16  1  0
 16 17  2  0
 17 18  1  0
 18 19  2  0
 19 20  1  0
 20 21  2  0
 21 22  1  0
 22 23  1  0
 23 24  1  0
 24 25  1  0
 14 26  1  0
 26 27  2  0
  7 28  2  0
 28 29  1  0
 28  2  1  0
 27 11  1  0
 21 16  1  0
 25 22  1  0
  1 30  1  0
  1 31  1  0
  1 32  1  0
  3 33  1  0
  6 34  1  0
 12 35  1  0
 13 36  1  0
 18 37  1  0
 19 38  1  0
 20 39  1  0
 22 40  1  0
 23 41  1  0
 23 42  1  0
 24 43  1  0
 24 44  1  0
 25 45  1  0
 25 46  1  0
 27 47  1  0
 29 48  1  0
 29 49  1  0
 29 50  1  0
M  CHG  1  10  -1
M  END
>  <UniqueID>  (46) 
42

>  <SMILES>  (46) 
Cc1cc(Cl)cc(C(=O)[N-]c2ccc(Oc3ncccc3C3CCC3)nc2)c1C

>  <Energy>  (46) 
135.66681901437576

>  <Genealogy>  (46) 
Cc1cc(Cl)cc(C(=O)[N-]c2ccc(Oc3ncccc3C3CCC3)nc2)c1C (protonated)
Cc1cc(Cl)cc(C(=O)[N-]c2ccc(Oc3ncccc3C3CCC3)nc2)c1C (3D coordinates assigned)
Cc1cc(Cl)cc(C(=O)[N-]c2ccc(Oc3ncccc3C3CCC3)nc2)c1C (nonaromatic ring conformer: 135.66681901437576 kcal/mol)

>  <smiles>  (46) 
Cc1cc(Cl)cc(C(=O)Nc2ccc(Oc3ncccc3C3CCC3)nc2)c1C

>  <score_type>  (46) 
oracle

>  <origin>  (46) 
adgpu

>  <m_score__min__energy>  (46) 
-12.02

>  <m_primary>  (46) 
energy

$$$$
46:0
     RDKit          3D

 17 18  0  0  0  0  0  0  0  0999 V2000
   -8.5010   20.5340  -32.3410 C   0  0  0  0  0  0  0  0  0  0  0  0
   -7.1650   20.4200  -32.7270 C   0  0  0  0  0  0  0  0  0  0  0  0
   -6.2460   21.4200  -32.3890 C   0  0  0  0  0  0  0  0  0  0  0  0
   -6.6610   22.5510  -31.6570 C   0  0  0  0  0  0  0  0  0  0  0  0
   -5.7300   23.5930  -31.2980 N   0  0  0  0  0  0  0  0  0  0  0  0
   -5.9720   24.8850  -31.0090 C   0  0  0  0  0  0  0  0  0  0  0  0
   -4.8170   25.5130  -30.7260 N   0  0  0  0  0  0  0  0  0  0  0  0
   -3.8760   24.5880  -30.8460 N   0  0  0  0  0  0  0  0  0  0  0  0
   -4.4220   23.4320  -31.1910 N   0  0  0  0  0  0  0  0  0  0  0  0
   -8.0120   22.6520  -31.2740 C   0  0  0  0  0  0  0  0  0  0  0  0
   -8.9240   21.6500  -31.6140 C   0  0  0  0  0  0  0  0  0  0  0  0
   -9.2206   19.7462  -32.6087 H   0  0  0  0  0  0  0  0  0  0  0  0
   -6.8329   19.5411  -33.2990 H   0  0  0  0  0  0  0  0  0  0  0  0
   -5.1942   21.3229  -32.6962 H   0  0  0  0  0  0  0  0  0  0  0  0
   -6.9657   25.3567  -31.0049 H   0  0  0  0  0  0  0  0  0  0  0  0
   -8.3524   23.5277  -30.7019 H   0  0  0  0  0  0  0  0  0  0  0  0
   -9.9770   21.7396  -31.3089 H   0  0  0  0  0  0  0  0  0  0  0  0
  1  2  2  0
  2  3  1  0
  3  4  2  0
  4  5  1  0
  5  6  1  0
  6  7  2  0
  7  8  1  0
  8  9  2  0
  4 10  1  0
 10 11  2  0
 11  1  1  0
  9  5  1  0
  1 12  1  0
  2 13  1  0
  3 14  1  0
  6 15  1  0
 10 16  1  0
 11 17  1  0
M  END
>  <UniqueID>  (47) 
43

>  <SMILES>  (47) 
c1ccc(-n2cnnn2)cc1

>  <Energy>  (47) 
59.42461996227739

>  <Genealogy>  (47) 
c1ccc(-n2cnnn2)cc1 (3D coordinates assigned)
c1ccc(-n2cnnn2)cc1 (optimized conformer: 59.42461996227739 kcal/mol)

>  <smiles>  (47) 
c1ccc(-n2cnnn2)cc1

>  <score_type>  (47) 
oracle

>  <origin>  (47) 
adgpu

>  <m_score__min__energy>  (47) 
-6.2599999999999998

>  <m_primary>  (47) 
energy

$$$$
47:0
     RDKit          3D

 59 62  0  0  0  0  0  0  0  0999 V2000
   -0.6196   24.9374  -28.0141 H   0  0  0  0  0  0  0  0  0  0  0  0
   -1.7050   24.7990  -28.1270 C   0  0  0  0  0  0  0  0  0  0  0  0
   -2.2830   24.9410  -29.3480 N   0  0  0  0  0  0  0  0  0  0  0  0
   -3.6210   24.7770  -29.5430 C   0  0  0  0  0  0  0  0  0  0  0  0
   -4.0950   24.9300  -30.7490 N   0  0  0  0  0  0  0  0  0  0  0  0
   -5.4840   24.7770  -31.1870 C   0  0  0  0  0  0  0  0  0  0  0  0
   -5.5719   25.1272  -32.2260 H   0  0  0  0  0  0  0  0  0  0  0  0
   -6.1244   25.3710  -30.5184 H   0  0  0  0  0  0  0  0  0  0  0  0
   -5.9380   23.3130  -31.1140 C   0  0  0  0  0  0  0  0  0  0  0  0
   -6.1242   23.0498  -30.0623 H   0  0  0  0  0  0  0  0  0  0  0  0
   -5.1424   22.6862  -31.5432 H   0  0  0  0  0  0  0  0  0  0  0  0
   -7.2220   23.0740  -31.9210 C   0  0  0  0  0  0  0  0  0  0  0  0
   -7.1038   23.5125  -32.9229 H   0  0  0  0  0  0  0  0  0  0  0  0
   -8.0620   23.5456  -31.3900 H   0  0  0  0  0  0  0  0  0  0  0  0
   -7.5130   21.5760  -32.0610 C   0  0  0  0  0  0  0  0  0  0  0  0
   -7.8712   21.3706  -33.0806 H   0  0  0  0  0  0  0  0  0  0  0  0
   -8.2799   21.2923  -31.3252 H   0  0  0  0  0  0  0  0  0  0  0  0
   -6.3320   20.8120  -31.8150 O   0  0  0  0  0  0  0  0  0  0  0  0
   -5.7230   19.9280  -32.7250 C   0  0  0  0  0  0  0  0  0  0  0  0
   -6.4700   19.0990  -33.5870 C   0  0  0  0  0  0  0  0  0  0  0  0
   -7.5692   19.1300  -33.5598 H   0  0  0  0  0  0  0  0  0  0  0  0
   -5.8200   18.2380  -34.4760 C   0  0  0  0  0  0  0  0  0  0  0  0
   -6.4095   17.5945  -35.1456 H   0  0  0  0  0  0  0  0  0  0  0  0
   -4.4260   18.1920  -34.5170 C   0  0  0  0  0  0  0  0  0  0  0  0
   -3.9185   17.5146  -35.2196 H   0  0  0  0  0  0  0  0  0  0  0  0
   -3.6750   19.0060  -33.6660 C   0  0  0  0  0  0  0  0  0  0  0  0
   -2.5762   18.9706  -33.7021 H   0  0  0  0  0  0  0  0  0  0  0  0
   -4.3170   19.8680  -32.7660 C   0  0  0  0  0  0  0  0  0  0  0  0
   -3.5050   20.7250  -31.8800 C   0  0  0  0  0  0  0  0  0  0  0  0
   -2.4590   21.5280  -32.3750 C   0  0  0  0  0  0  0  0  0  0  0  0
   -2.1230   21.5360  -33.7750 N   0  0  0  0  0  0  0  0  0  0  0  0
   -2.8480   21.8320  -34.4660 H   0  0  0  0  0  0  0  0  0  0  0  0
   -0.8740   21.0520  -34.2980 C   0  0  0  0  0  0  0  0  0  0  0  0
   -0.5860   19.6800  -34.2320 C   0  0  0  0  0  0  0  0  0  0  0  0
   -1.3096   18.9906  -33.7724 H   0  0  0  0  0  0  0  0  0  0  0  0
    0.6150   19.1850  -34.7470 C   0  0  0  0  0  0  0  0  0  0  0  0
    0.8392   18.1103  -34.6781 H   0  0  0  0  0  0  0  0  0  0  0  0
    1.5320   20.0500  -35.3490 C   0  0  0  0  0  0  0  0  0  0  0  0
    2.4838   19.6578  -35.7368 H   0  0  0  0  0  0  0  0  0  0  0  0
    1.2410   21.4190  -35.4600 C   0  0  0  0  0  0  0  0  0  0  0  0
    2.2330   22.3530  -36.0890 C   0  0  0  0  0  0  0  0  0  0  0  0
    2.7919   22.8792  -35.3011 H   0  0  0  0  0  0  0  0  0  0  0  0
    2.9328   21.7783  -36.7135 H   0  0  0  0  0  0  0  0  0  0  0  0
    1.7015   23.0861  -36.7135 H   0  0  0  0  0  0  0  0  0  0  0  0
    0.0410   21.9160  -34.9280 C   0  0  0  0  0  0  0  0  0  0  0  0
   -0.1861   22.9896  -35.0041 H   0  0  0  0  0  0  0  0  0  0  0  0
   -1.7430   22.2850  -31.4990 N   0  0  0  0  0  0  0  0  0  0  0  0
   -2.0120   22.3040  -30.1930 N   0  0  0  0  0  0  0  0  0  0  0  0
   -1.4320   22.9050  -29.5650 H   0  0  0  0  0  0  0  0  0  0  0  0
   -3.0210   21.5580  -29.6700 C   0  0  0  0  0  0  0  0  0  0  0  0
   -3.2620   21.5910  -28.4350 O   0  0  0  0  0  0  0  0  0  0  0  0
   -3.7880   20.7540  -30.5120 C   0  0  0  0  0  0  0  0  0  0  0  0
   -4.6093   20.1474  -30.1027 H   0  0  0  0  0  0  0  0  0  0  0  0
   -4.4390   24.4560  -28.4390 C   0  0  0  0  0  0  0  0  0  0  0  0
   -5.5231   24.3243  -28.5709 H   0  0  0  0  0  0  0  0  0  0  0  0
   -3.8590   24.3070  -27.1770 C   0  0  0  0  0  0  0  0  0  0  0  0
   -4.4869   24.0546  -26.3098 H   0  0  0  0  0  0  0  0  0  0  0  0
   -2.4850   24.4780  -27.0160 C   0  0  0  0  0  0  0  0  0  0  0  0
   -2.0216   24.3613  -26.0252 H   0  0  0  0  0  0  0  0  0  0  0  0
  1  2  1  0
  2  3  1  0
  3  4  1  0
  4  5  2  0
  5  6  1  0
  6  7  1  0
  6  8  1  0
  6  9  1  0
  9 10  1  0
  9 11  1  0
  9 12  1  0
 12 13  1  0
 12 14  1  0
 12 15  1  0
 15 16  1  0
 15 17  1  0
 15 18  1  0
 18 19  1  0
 19 20  2  0
 20 21  1  0
 20 22  1  0
 22 23  1  0
 22 24  2  0
 24 25  1  0
 24 26  1  0
 26 27  1  0
 26 28  2  0
 28 29  1  0
 29 30  1  0
 30 31  1  0
 31 32  1  0
 31 33  1  0
 33 34  2  0
 34 35  1  0
 34 36  1  0
 36 37  1  0
 36 38  2  0
 38 39  1  0
 38 40  1  0
 40 41  1  0
 41 42  1  0
 41 43  1  0
 41 44  1  0
 40 45  2  0
 45 46  1  0
 30 47  2  0
 47 48  1  0
 48 49  1  0
 48 50  1  0
 50 51  2  0
 50 52  1  0
 52 53  1  0
  4 54  1  0
 54 55  1  0
 54 56  2  0
 56 57  1  0
 56 58  1  0
 58 59  1  0
 58  2  2  0
 28 19  1  0
 52 29  2  0
 45 33  1  0
M  CHG  1   3  -1
M  END
>  <UniqueID>  (48) 
44

>  <SMILES>  (48) 
Cc1cccc(Nc2n[nH]c(=O)cc2-c2ccccc2OCCCC/N=c2\cccc[n-]2)c1

>  <Energy>  (48) 
73.21011056789318

>  <Genealogy>  (48) 
Cc1cccc(Nc2n[nH]c(=O)cc2-c2ccccc2OCCCCN=c2cccc[n-]2)c1 (protonated)
Cc1cccc(Nc2n[nH]c(=O)cc2-c2ccccc2OCCCC/N=c2\cccc[n-]2)c1 (cis-trans isomerization)
Cc1cccc(Nc2n[nH]c(=O)cc2-c2ccccc2OCCCC/N=c2\cccc[n-]2)c1 (3D coordinates assigned)
Cc1cccc(Nc2n[nH]c(=O)cc2-c2ccccc2OCCCC/N=c2\cccc[n-]2)c1 (optimized conformer: 73.21011056789318 kcal/mol)

>  <smiles>  (48) 
Cc1cccc(Nc2n[nH]c(=O)cc2-c2ccccc2OCCCCN=c2cccc[nH]2)c1

>  <score_type>  (48) 
oracle

>  <origin>  (48) 
adgpu

>  <m_score__min__energy>  (48) 
-11.960000000000001

>  <m_primary>  (48) 
energy

$$$$
