0:0
     RDKit          3D

 25 26  0  0  0  0  0  0  0  0999 V2000
   -3.1740   22.8970  -30.5490 C   0  0  0  0  0  0  0  0  0  0  0  0
   -4.1580   24.0170  -30.4550 C   0  0  0  0  0  0  0  0  0  0  0  0
   -3.8580   25.2990  -30.7550 N   0  0  0  0  0  0  0  0  0  0  0  0
   -4.9230   26.0390  -30.4860 N   0  0  0  0  0  0  0  0  0  0  0  0
   -5.8920   25.2460  -30.0020 C   0  0  0  0  0  0  0  0  0  0  0  0
   -7.0220   25.6600  -29.6290 O   0  0  0  0  0  0  0  0  0  0  0  0
   -5.4560   23.9400  -29.9680 C   0  0  0  0  0  0  0  0  0  0  0  0
   -6.1800   22.7460  -29.4150 C   0  0  0  0  0  0  0  0  0  0  0  0
   -6.9470   22.0460  -30.5050 C   0  0  0  0  0  0  0  0  0  0  0  0
   -8.3460   21.9490  -30.4320 C   0  0  0  0  0  0  0  0  0  0  0  0
   -9.0580   21.2750  -31.4300 C   0  0  0  0  0  0  0  0  0  0  0  0
   -8.3790   20.6900  -32.5020 C   0  0  0  0  0  0  0  0  0  0  0  0
   -9.0710   20.0360  -33.4670 F   0  0  0  0  0  0  0  0  0  0  0  0
   -6.9870   20.7780  -32.5780 C   0  0  0  0  0  0  0  0  0  0  0  0
   -6.2710   21.4520  -31.5830 C   0  0  0  0  0  0  0  0  0  0  0  0
   -2.8894   22.5731  -29.5370 H   0  0  0  0  0  0  0  0  0  0  0  0
   -3.6287   22.0538  -31.0896 H   0  0  0  0  0  0  0  0  0  0  0  0
   -2.2793   23.2394  -31.0896 H   0  0  0  0  0  0  0  0  0  0  0  0
   -4.9730   27.0740  -30.6190 H   0  0  0  0  0  0  0  0  0  0  0  0
   -5.4491   22.0481  -28.9806 H   0  0  0  0  0  0  0  0  0  0  0  0
   -6.8862   23.0834  -28.6420 H   0  0  0  0  0  0  0  0  0  0  0  0
   -8.8838   22.4044  -29.5874 H   0  0  0  0  0  0  0  0  0  0  0  0
  -10.1542   21.2055  -31.3707 H   0  0  0  0  0  0  0  0  0  0  0  0
   -6.4529   20.3165  -33.4217 H   0  0  0  0  0  0  0  0  0  0  0  0
   -5.1747   21.5169  -31.6453 H   0  0  0  0  0  0  0  0  0  0  0  0
  1  2  1  0
  2  3  1  0
  3  4  1  0
  4  5  1  0
  5  6  2  0
  5  7  1  0
  7  8  1  0
  8  9  1  0
  9 10  2  0
 10 11  1  0
 11 12  2  0
 12 13  1  0
 12 14  1  0
 14 15  2  0
  7  2  2  0
 15  9  1  0
  1 16  1  0
  1 17  1  0
  1 18  1  0
  4 19  1  0
  8 20  1  0
  8 21  1  0
 10 22  1  0
 11 23  1  0
 14 24  1  0
 15 25  1  0
M  CHG  1   3  -1
M  END
>  <UniqueID>  (1) 
1

>  <SMILES>  (1) 
Cc1[n-][nH]c(=O)c1Cc1ccc(F)cc1

>  <Energy>  (1) 
54.1189105391823

>  <Genealogy>  (1) 
Cc1[n-][nH]c(=O)c1Cc1ccc(F)cc1 (protonated)
Cc1[n-][nH]c(=O)c1Cc1ccc(F)cc1 (3D coordinates assigned)
Cc1[n-][nH]c(=O)c1Cc1ccc(F)cc1 (optimized conformer: 54.1189105391823 kcal/mol)

>  <smiles>  (1) 
Cc1[nH][nH]c(=O)c1Cc1ccc(F)cc1

>  <score_type>  (1) 
oracle

>  <origin>  (1) 
adgpu

>  <m_score__min__energy>  (1) 
-7.8399999999999999

>  <m_primary>  (1) 
energy

$$$$
1:0
     RDKit          3D

 38 40  0  0  0  0  0  0  0  0999 V2000
   -1.6040   25.6920  -29.0050 N   0  0  0  0  0  0  0  0  0  0  0  0
   -2.5240   24.2670  -29.3380 S   0  0  0  0  0  0  0  0  0  0  0  0
   -3.4600   24.5440  -30.4810 O   0  0  0  0  0  0  0  0  0  0  0  0
   -3.3280   23.8760  -28.1300 O   0  0  0  0  0  0  0  0  0  0  0  0
   -1.4580   22.9700  -29.7790 N   0  0  0  0  0  0  0  0  0  0  0  0
   -1.8190   21.8970  -30.6670 C   0  0  0  0  0  0  0  0  0  0  0  0
   -2.8970   22.0030  -31.5660 C   0  0  0  0  0  0  0  0  0  0  0  0
   -3.2160   20.9400  -32.4160 C   0  0  0  0  0  0  0  0  0  0  0  0
   -2.4560   19.7600  -32.3970 C   0  0  0  0  0  0  0  0  0  0  0  0
   -2.7830   18.6570  -33.2600 N   0  0  0  0  0  0  0  0  0  0  0  0
   -1.8570   17.9300  -33.8670 N   0  0  0  0  0  0  0  0  0  0  0  0
   -2.4840   16.9340  -34.5240 C   0  0  0  0  0  0  0  0  0  0  0  0
   -1.7880   15.9410  -35.3990 C   0  0  0  0  0  0  0  0  0  0  0  0
   -0.6930   16.5300  -36.0040 F   0  0  0  0  0  0  0  0  0  0  0  0
   -2.6610   15.4970  -36.3730 F   0  0  0  0  0  0  0  0  0  0  0  0
   -1.3600   14.8650  -34.6430 F   0  0  0  0  0  0  0  0  0  0  0  0
   -3.8510   17.0400  -34.3500 C   0  0  0  0  0  0  0  0  0  0  0  0
   -4.0080   18.1500  -33.5430 C   0  0  0  0  0  0  0  0  0  0  0  0
   -5.3120   18.7390  -33.1630 C   0  0  0  0  0  0  0  0  0  0  0  0
   -5.8070   19.8770  -33.8240 C   0  0  0  0  0  0  0  0  0  0  0  0
   -7.0440   20.4200  -33.4630 C   0  0  0  0  0  0  0  0  0  0  0  0
   -7.8040   19.8250  -32.4520 C   0  0  0  0  0  0  0  0  0  0  0  0
   -9.4920   20.5680  -31.9610 Br  0  0  0  0  0  0  0  0  0  0  0  0
   -7.3270   18.6810  -31.8030 C   0  0  0  0  0  0  0  0  0  0  0  0
   -6.0900   18.1360  -32.1610 C   0  0  0  0  0  0  0  0  0  0  0  0
   -1.3980   19.6440  -31.4850 C   0  0  0  0  0  0  0  0  0  0  0  0
   -1.0790   20.7050  -30.6340 C   0  0  0  0  0  0  0  0  0  0  0  0
   -1.2400   26.0400  -29.9190 H   0  0  0  0  0  0  0  0  0  0  0  0
   -0.4970   22.9900  -29.3700 H   0  0  0  0  0  0  0  0  0  0  0  0
   -3.4918   22.9277  -31.5999 H   0  0  0  0  0  0  0  0  0  0  0  0
   -4.0690   21.0289  -33.1049 H   0  0  0  0  0  0  0  0  0  0  0  0
   -4.6360   16.3882  -34.7610 H   0  0  0  0  0  0  0  0  0  0  0  0
   -5.2186   20.3422  -34.6286 H   0  0  0  0  0  0  0  0  0  0  0  0
   -7.4199   21.3176  -33.9759 H   0  0  0  0  0  0  0  0  0  0  0  0
   -7.9260   18.2096  -31.0099 H   0  0  0  0  0  0  0  0  0  0  0  0
   -5.7243   17.2302  -31.6552 H   0  0  0  0  0  0  0  0  0  0  0  0
   -0.8154   18.7121  -31.4391 H   0  0  0  0  0  0  0  0  0  0  0  0
   -0.2391   20.6051  -29.9308 H   0  0  0  0  0  0  0  0  0  0  0  0
  1  2  1  0
  2  3  2  0
  2  4  2  0
  2  5  1  0
  5  6  1  0
  6  7  2  0
  7  8  1  0
  8  9  2  0
  9 10  1  0
 10 11  1  0
 11 12  2  0
 12 13  1  0
 13 14  1  0
 13 15  1  0
 13 16  1  0
 12 17  1  0
 17 18  2  0
 18 19  1  0
 19 20  2  0
 20 21  1  0
 21 22  2  0
 22 23  1  0
 22 24  1  0
 24 25  2  0
  9 26  1  0
 26 27  2  0
 27  6  1  0
 18 10  1  0
 25 19  1  0
  1 28  1  0
  5 29  1  0
  7 30  1  0
  8 31  1  0
 17 32  1  0
 20 33  1  0
 21 34  1  0
 24 35  1  0
 25 36  1  0
 26 37  1  0
 27 38  1  0
M  CHG  1   1  -1
M  END
>  <UniqueID>  (2) 
2

>  <SMILES>  (2) 
[NH-]S(=O)(=O)Nc1ccc(-n2nc(C(F)(F)F)cc2-c2ccc(Br)cc2)cc1

>  <Energy>  (2) 
79.00368948495245

>  <Genealogy>  (2) 
[NH-]S(=O)(=O)Nc1ccc(-n2nc(C(F)(F)F)cc2-c2ccc(Br)cc2)cc1 (protonated)
[NH-]S(=O)(=O)Nc1ccc(-n2nc(C(F)(F)F)cc2-c2ccc(Br)cc2)cc1 (3D coordinates assigned)
[NH-]S(=O)(=O)Nc1ccc(-n2nc(C(F)(F)F)cc2-c2ccc(Br)cc2)cc1 (optimized conformer: 79.00368948495245 kcal/mol)

>  <smiles>  (2) 
NS(=O)(=O)Nc1ccc(-n2nc(C(F)(F)F)cc2-c2ccc(Br)cc2)cc1

>  <score_type>  (2) 
oracle

>  <origin>  (2) 
adgpu

>  <m_score__min__energy>  (2) 
-10.41

>  <m_primary>  (2) 
energy

$$$$
2:0
     RDKit          3D

 30 32  0  0  0  0  0  0  0  0999 V2000
   -1.7495   22.4350  -31.8475 H   0  0  0  0  0  0  0  0  0  0  0  0
   -2.0310   21.5270  -32.4010 C   0  0  0  0  0  0  0  0  0  0  0  0
   -1.2887   21.0141  -33.0302 H   0  0  0  0  0  0  0  0  0  0  0  0
   -3.2750   21.0470  -32.3090 C   0  0  0  0  0  0  0  0  0  0  0  0
   -4.3890   21.6420  -31.6730 C   0  0  0  0  0  0  0  0  0  0  0  0
   -4.4660   22.7210  -30.8670 C   0  0  0  0  0  0  0  0  0  0  0  0
   -5.4609   23.1623  -30.7072 H   0  0  0  0  0  0  0  0  0  0  0  0
   -3.3290   23.3550  -30.1850 C   0  0  0  0  0  0  0  0  0  0  0  0
   -2.2370   22.5750  -29.1600 S   0  0  0  0  0  0  0  0  0  0  0  0
   -1.5150   24.0200  -28.6960 C   0  0  0  0  0  0  0  0  0  0  0  0
   -0.5480   24.1030  -27.8950 O   0  0  0  0  0  0  0  0  0  0  0  0
   -2.0940   25.0980  -29.2640 N   0  0  0  0  0  0  0  0  0  0  0  0
   -3.1170   24.7280  -30.0790 C   0  0  0  0  0  0  0  0  0  0  0  0
   -3.8900   25.6650  -30.7520 O   0  0  0  0  0  0  0  0  0  0  0  0
   -5.4720   20.8550  -32.0520 C   0  0  0  0  0  0  0  0  0  0  0  0
   -6.8350   20.9490  -31.7500 C   0  0  0  0  0  0  0  0  0  0  0  0
   -7.2180   21.7660  -31.1209 H   0  0  0  0  0  0  0  0  0  0  0  0
   -7.7100   19.9650  -32.2750 C   0  0  0  0  0  0  0  0  0  0  0  0
   -9.0900   19.9820  -32.0280 O   0  0  0  0  0  0  0  0  0  0  0  0
   -9.8700   21.1670  -31.9070 C   0  0  0  0  0  0  0  0  0  0  0  0
  -10.0224   21.3985  -30.8425 H   0  0  0  0  0  0  0  0  0  0  0  0
   -9.3449   22.0028  -32.3925 H   0  0  0  0  0  0  0  0  0  0  0  0
  -10.8453   21.0152  -32.3925 H   0  0  0  0  0  0  0  0  0  0  0  0
   -7.1880   18.9240  -33.0750 C   0  0  0  0  0  0  0  0  0  0  0  0
   -7.8674   18.1614  -33.4834 H   0  0  0  0  0  0  0  0  0  0  0  0
   -5.8150   18.8490  -33.3560 C   0  0  0  0  0  0  0  0  0  0  0  0
   -5.4076   18.0390  -33.9788 H   0  0  0  0  0  0  0  0  0  0  0  0
   -4.9830   19.8320  -32.8220 C   0  0  0  0  0  0  0  0  0  0  0  0
   -3.6540   19.9320  -32.9770 N   0  0  0  0  0  0  0  0  0  0  0  0
   -3.0480   19.3020  -33.5520 H   0  0  0  0  0  0  0  0  0  0  0  0
  1  2  1  0
  2  3  1  0
  2  4  2  0
  4  5  1  0
  5  6  2  0
  6  7  1  0
  6  8  1  0
  8  9  1  0
  9 10  1  0
 10 11  2  0
 10 12  1  0
 12 13  1  0
 13 14  1  0
  5 15  1  0
 15 16  2  0
 16 17  1  0
 16 18  1  0
 18 19  1  0
 19 20  1  0
 20 21  1  0
 20 22  1  0
 20 23  1  0
 18 24  2  0
 24 25  1  0
 24 26  1  0
 26 27  1  0
 26 28  2  0
 28 29  1  0
 29 30  1  0
 29  4  1  0
 13  8  2  0
 28 15  1  0
M  CHG  2  12  -1  14  -1
M  END
>  <UniqueID>  (3) 
3

>  <SMILES>  (3) 
C=c1[nH]c2ccc(OC)cc2/c1=C/c1sc(=O)[n-]c1[O-]

>  <Energy>  (3) 
109.53930263699587

>  <Genealogy>  (3) 
C=c1[nH]c2ccc(OC)cc2c1=Cc1sc(=O)[n-]c1[O-] (protonated)
C=c1[nH]c2ccc(OC)cc2/c1=C/c1sc(=O)[n-]c1[O-] (cis-trans isomerization)
C=c1[nH]c2ccc(OC)cc2/c1=C/c1sc(=O)[n-]c1[O-] (3D coordinates assigned)
C=c1[nH]c2ccc(OC)cc2/c1=C/c1sc(=O)[n-]c1[O-] (optimized conformer: 109.53930263699587 kcal/mol)

>  <smiles>  (3) 
C=c1[nH]c2ccc(OC)cc2c1=Cc1sc(=O)[nH]c1O

>  <score_type>  (3) 
oracle

>  <origin>  (3) 
adgpu

>  <m_score__min__energy>  (3) 
-11.51

>  <m_primary>  (3) 
energy

$$$$
3:0
     RDKit          3D

 47 49  0  0  0  0  0  0  0  0999 V2000
   -2.6630   22.6180  -30.1500 C   0  0  0  0  0  0  0  0  0  0  0  0
   -2.9170   24.0800  -29.7670 C   0  0  0  0  0  0  0  0  0  0  0  0
   -3.2620   24.1810  -28.2830 C   0  0  0  0  0  0  0  0  0  0  0  0
   -4.0050   24.6090  -30.5280 O   0  0  0  0  0  0  0  0  0  0  0  0
   -5.2390   23.9760  -30.7470 C   0  0  0  0  0  0  0  0  0  0  0  0
   -5.9780   23.3620  -29.7160 C   0  0  0  0  0  0  0  0  0  0  0  0
   -7.1930   22.7300  -29.9990 C   0  0  0  0  0  0  0  0  0  0  0  0
   -7.6790   22.6820  -31.3140 C   0  0  0  0  0  0  0  0  0  0  0  0
   -8.9510   21.9340  -31.6270 C   0  0  0  0  0  0  0  0  0  0  0  0
   -9.0290   20.6680  -30.8780 N   0  0  0  0  0  0  0  0  0  0  0  0
   -9.1300   19.4910  -31.7590 C   0  0  0  0  0  0  0  0  0  0  0  0
   -7.7730   19.1060  -32.2610 C   0  0  0  0  0  0  0  0  0  0  0  0
   -7.2670   17.8270  -32.3220 C   0  0  0  0  0  0  0  0  0  0  0  0
   -6.0160   17.9200  -32.6970 O   0  0  0  0  0  0  0  0  0  0  0  0
   -5.7490   19.2000  -32.8550 C   0  0  0  0  0  0  0  0  0  0  0  0
   -4.4210   19.7180  -33.2390 C   0  0  0  0  0  0  0  0  0  0  0  0
   -3.4660   18.8730  -33.8290 C   0  0  0  0  0  0  0  0  0  0  0  0
   -2.2150   19.3730  -34.2030 C   0  0  0  0  0  0  0  0  0  0  0  0
   -1.9040   20.7220  -33.9900 C   0  0  0  0  0  0  0  0  0  0  0  0
   -0.6610   21.2320  -34.3580 O   0  0  0  0  0  0  0  0  0  0  0  0
   -2.8520   21.5690  -33.4070 C   0  0  0  0  0  0  0  0  0  0  0  0
   -4.1050   21.0720  -33.0360 C   0  0  0  0  0  0  0  0  0  0  0  0
   -6.8150   19.9880  -32.5990 N   0  0  0  0  0  0  0  0  0  0  0  0
   -6.9520   23.3080  -32.3380 C   0  0  0  0  0  0  0  0  0  0  0  0
   -5.7420   23.9480  -32.0530 C   0  0  0  0  0  0  0  0  0  0  0  0
   -2.5579   22.0129  -29.2375 H   0  0  0  0  0  0  0  0  0  0  0  0
   -3.5093   22.2421  -30.7437 H   0  0  0  0  0  0  0  0  0  0  0  0
   -1.7395   22.5496  -30.7437 H   0  0  0  0  0  0  0  0  0  0  0  0
   -2.0036   24.6556  -29.9777 H   0  0  0  0  0  0  0  0  0  0  0  0
   -2.3775   23.9221  -27.6825 H   0  0  0  0  0  0  0  0  0  0  0  0
   -3.5762   25.2088  -28.0487 H   0  0  0  0  0  0  0  0  0  0  0  0
   -4.0809   23.4849  -28.0487 H   0  0  0  0  0  0  0  0  0  0  0  0
   -5.5974   23.3799  -28.6841 H   0  0  0  0  0  0  0  0  0  0  0  0
   -7.7712   22.2677  -29.1854 H   0  0  0  0  0  0  0  0  0  0  0  0
   -9.8118   22.5632  -31.3567 H   0  0  0  0  0  0  0  0  0  0  0  0
   -8.9596   21.7010  -32.7020 H   0  0  0  0  0  0  0  0  0  0  0  0
   -9.9040   20.7070  -30.3040 H   0  0  0  0  0  0  0  0  0  0  0  0
   -9.5613   18.6506  -31.1953 H   0  0  0  0  0  0  0  0  0  0  0  0
   -9.7744   19.7370  -32.6159 H   0  0  0  0  0  0  0  0  0  0  0  0
   -7.8128   16.8988  -32.0973 H   0  0  0  0  0  0  0  0  0  0  0  0
   -3.7038   17.8123  -33.9976 H   0  0  0  0  0  0  0  0  0  0  0  0
   -1.4732   18.7053  -34.6656 H   0  0  0  0  0  0  0  0  0  0  0  0
   -0.5690   21.9210  -35.0960 H   0  0  0  0  0  0  0  0  0  0  0  0
   -2.6111   22.6292  -33.2399 H   0  0  0  0  0  0  0  0  0  0  0  0
   -4.8478   21.7448  -32.5826 H   0  0  0  0  0  0  0  0  0  0  0  0
   -7.3355   23.2952  -33.3689 H   0  0  0  0  0  0  0  0  0  0  0  0
   -5.1795   24.4345  -32.8635 H   0  0  0  0  0  0  0  0  0  0  0  0
  1  2  1  0
  2  3  1  0
  2  4  1  0
  4  5  1  0
  5  6  2  0
  6  7  1  0
  7  8  2  0
  8  9  1  0
  9 10  1  0
 10 11  1  0
 11 12  1  0
 12 13  2  0
 13 14  1  0
 14 15  1  0
 15 16  1  0
 16 17  2  0
 17 18  1  0
 18 19  2  0
 19 20  1  0
 19 21  1  0
 21 22  2  0
 15 23  2  0
  8 24  1  0
 24 25  2  0
 25  5  1  0
 23 12  1  0
 22 16  1  0
  1 26  1  0
  1 27  1  0
  1 28  1  0
  2 29  1  0
  3 30  1  0
  3 31  1  0
  3 32  1  0
  6 33  1  0
  7 34  1  0
  9 35  1  0
  9 36  1  0
 10 37  1  0
 11 38  1  0
 11 39  1  0
 13 40  1  0
 17 41  1  0
 18 42  1  0
 20 43  1  0
 21 44  1  0
 22 45  1  0
 24 46  1  0
 25 47  1  0
M  END
>  <UniqueID>  (4) 
4

>  <SMILES>  (4) 
CC(C)Oc1ccc(CNCc2coc(-c3ccc(O)cc3)n2)cc1

>  <Energy>  (4) 
67.59497135203894

>  <Genealogy>  (4) 
CC(C)Oc1ccc(CNCc2coc(-c3ccc(O)cc3)n2)cc1 (3D coordinates assigned)
CC(C)Oc1ccc(CNCc2coc(-c3ccc(O)cc3)n2)cc1 (optimized conformer: 67.59497135203894 kcal/mol)

>  <smiles>  (4) 
CC(C)Oc1ccc(CNCc2coc(-c3ccc(O)cc3)n2)cc1

>  <score_type>  (4) 
oracle

>  <origin>  (4) 
adgpu

>  <m_score__min__energy>  (4) 
-8.4499999999999993

>  <m_primary>  (4) 
energy

$$$$
4:0
     RDKit          3D

 28 30  0  0  0  0  0  0  0  0999 V2000
   -6.2800   16.6980  -34.0250 C   0  0  0  0  0  0  0  0  0  0  0  0
   -7.2420   17.6070  -33.5010 O   0  0  0  0  0  0  0  0  0  0  0  0
   -6.9310   18.8620  -32.9550 C   0  0  0  0  0  0  0  0  0  0  0  0
   -5.7960   19.5300  -33.4280 C   0  0  0  0  0  0  0  0  0  0  0  0
   -5.4430   20.7810  -32.9150 C   0  0  0  0  0  0  0  0  0  0  0  0
   -6.2160   21.3770  -31.9080 C   0  0  0  0  0  0  0  0  0  0  0  0
   -5.8660   22.7140  -31.3850 C   0  0  0  0  0  0  0  0  0  0  0  0
   -6.7530   23.7920  -31.4650 C   0  0  0  0  0  0  0  0  0  0  0  0
   -6.0150   25.1770  -30.8400 S   0  0  0  0  0  0  0  0  0  0  0  0
   -4.5770   24.4090  -30.4520 C   0  0  0  0  0  0  0  0  0  0  0  0
   -3.4910   24.9670  -29.8650 N   0  0  0  0  0  0  0  0  0  0  0  0
   -2.4130   24.1760  -29.5890 C   0  0  0  0  0  0  0  0  0  0  0  0
   -1.0810   24.8110  -28.8850 S   0  0  0  0  0  0  0  0  0  0  0  0
   -2.4440   22.8440  -29.8890 N   0  0  0  0  0  0  0  0  0  0  0  0
   -3.5300   22.2670  -30.4750 C   0  0  0  0  0  0  0  0  0  0  0  0
   -3.5290   21.0290  -30.7000 O   0  0  0  0  0  0  0  0  0  0  0  0
   -4.6350   23.0700  -30.7920 C   0  0  0  0  0  0  0  0  0  0  0  0
   -7.3650   20.7200  -31.4440 C   0  0  0  0  0  0  0  0  0  0  0  0
   -7.7180   19.4680  -31.9580 C   0  0  0  0  0  0  0  0  0  0  0  0
   -5.7547   16.2017  -33.1957 H   0  0  0  0  0  0  0  0  0  0  0  0
   -6.7878   15.9421  -34.6421 H   0  0  0  0  0  0  0  0  0  0  0  0
   -5.5541   17.2478  -34.6421 H   0  0  0  0  0  0  0  0  0  0  0  0
   -5.1766   19.0666  -34.2100 H   0  0  0  0  0  0  0  0  0  0  0  0
   -4.5545   21.3008  -33.3029 H   0  0  0  0  0  0  0  0  0  0  0  0
   -7.7738   23.7453  -31.8721 H   0  0  0  0  0  0  0  0  0  0  0  0
   -3.4880   25.9850  -29.6260 H   0  0  0  0  0  0  0  0  0  0  0  0
   -7.9913   21.1915  -30.6724 H   0  0  0  0  0  0  0  0  0  0  0  0
   -8.6149   18.9546  -31.5812 H   0  0  0  0  0  0  0  0  0  0  0  0
  1  2  1  0
  2  3  1  0
  3  4  2  0
  4  5  1  0
  5  6  2  0
  6  7  1  0
  7  8  2  0
  8  9  1  0
  9 10  1  0
 10 11  1  0
 11 12  1  0
 12 13  2  0
 12 14  1  0
 14 15  1  0
 15 16  2  0
 15 17  1  0
  6 18  1  0
 18 19  2  0
 19  3  1  0
 17  7  1  0
 17 10  2  0
  1 20  1  0
  1 21  1  0
  1 22  1  0
  4 23  1  0
  5 24  1  0
  8 25  1  0
 11 26  1  0
 18 27  1  0
 19 28  1  0
M  CHG  1  14  -1
M  END
>  <UniqueID>  (5) 
5

>  <SMILES>  (5) 
COc1ccc(-c2csc3[nH]c(=S)[n-]c(=O)c23)cc1

>  <Energy>  (5) 
70.7115232523677

>  <Genealogy>  (5) 
COc1ccc(-c2csc3[nH]c(=S)[n-]c(=O)c23)cc1 (protonated)
COc1ccc(-c2csc3[nH]c(=S)[n-]c(=O)c23)cc1 (3D coordinates assigned)
COc1ccc(-c2csc3[nH]c(=S)[n-]c(=O)c23)cc1 (optimized conformer: 70.7115232523677 kcal/mol)

>  <smiles>  (5) 
COc1ccc(-c2csc3[nH]c(=S)[nH]c(=O)c23)cc1

>  <score_type>  (5) 
oracle

>  <origin>  (5) 
adgpu

>  <m_score__min__energy>  (5) 
-8.3200000000000003

>  <m_primary>  (5) 
energy

$$$$
5:0
     RDKit          3D

 57 61  0  0  0  0  0  0  0  0999 V2000
   -3.9410   25.2450  -30.7290 N   0  0  0  0  0  0  0  0  0  0  0  0
   -5.3510   25.2010  -30.5210 C   0  0  0  0  0  0  0  0  0  0  0  0
   -5.9170   26.1700  -29.9430 O   0  0  0  0  0  0  0  0  0  0  0  0
   -6.1470   24.0370  -30.9780 C   0  0  0  0  0  0  0  0  0  0  0  0
   -7.5500   24.1090  -31.0250 C   0  0  0  0  0  0  0  0  0  0  0  0
   -8.3000   23.0140  -31.4550 C   0  0  0  0  0  0  0  0  0  0  0  0
   -7.6640   21.8330  -31.8430 C   0  0  0  0  0  0  0  0  0  0  0  0
   -6.2630   21.7330  -31.8050 C   0  0  0  0  0  0  0  0  0  0  0  0
   -5.6040   20.4690  -32.2190 C   0  0  0  0  0  0  0  0  0  0  0  0
   -6.1710   19.2040  -32.2590 C   0  0  0  0  0  0  0  0  0  0  0  0
   -5.1630   18.3850  -32.7290 C   0  0  0  0  0  0  0  0  0  0  0  0
   -5.3250   16.9480  -33.0490 C   0  0  0  0  0  0  0  0  0  0  0  0
   -4.4550   15.9870  -32.5110 C   0  0  0  0  0  0  0  0  0  0  0  0
   -4.6290   14.6410  -32.8370 C   0  0  0  0  0  0  0  0  0  0  0  0
   -5.6250   14.2660  -33.6820 N   0  0  0  0  0  0  0  0  0  0  0  0
   -6.4710   15.1770  -34.2330 C   0  0  0  0  0  0  0  0  0  0  0  0
   -6.3330   16.5340  -33.9330 C   0  0  0  0  0  0  0  0  0  0  0  0
   -4.0560   19.1370  -32.9370 N   0  0  0  0  0  0  0  0  0  0  0  0
   -2.7510   18.7010  -33.3550 C   0  0  0  0  0  0  0  0  0  0  0  0
   -2.6280   17.7720  -34.3970 C   0  0  0  0  0  0  0  0  0  0  0  0
   -1.3670   17.3350  -34.8070 C   0  0  0  0  0  0  0  0  0  0  0  0
   -0.2170   17.8290  -34.1870 C   0  0  0  0  0  0  0  0  0  0  0  0
   -0.3150   18.7780  -33.1540 C   0  0  0  0  0  0  0  0  0  0  0  0
    0.9030   19.2960  -32.4870 C   0  0  0  0  0  0  0  0  0  0  0  0
    1.9020   19.6310  -33.1790 O   0  0  0  0  0  0  0  0  0  0  0  0
    0.9190   19.4790  -31.0650 N   0  0  0  0  0  0  0  0  0  0  0  0
   -0.1000   20.1030  -30.2720 C   0  0  0  0  0  0  0  0  0  0  0  0
   -0.6570   21.3470  -30.6200 C   0  0  0  0  0  0  0  0  0  0  0  0
   -1.6280   21.9320  -29.8060 C   0  0  0  0  0  0  0  0  0  0  0  0
   -2.0500   21.2900  -28.6390 C   0  0  0  0  0  0  0  0  0  0  0  0
   -1.5050   20.0470  -28.2770 C   0  0  0  0  0  0  0  0  0  0  0  0
   -1.9180   19.3680  -26.9950 C   0  0  0  0  0  0  0  0  0  0  0  0
   -1.2440   18.1710  -26.8290 F   0  0  0  0  0  0  0  0  0  0  0  0
   -3.2770   19.1190  -27.0270 F   0  0  0  0  0  0  0  0  0  0  0  0
   -1.6330   20.1780  -25.9080 F   0  0  0  0  0  0  0  0  0  0  0  0
   -0.5070   19.4770  -29.0870 C   0  0  0  0  0  0  0  0  0  0  0  0
   -1.5900   19.2230  -32.7570 C   0  0  0  0  0  0  0  0  0  0  0  0
   -4.3220   20.3970  -32.6350 N   0  0  0  0  0  0  0  0  0  0  0  0
   -5.5120   22.8430  -31.3700 C   0  0  0  0  0  0  0  0  0  0  0  0
   -3.4950   26.0530  -31.2180 H   0  0  0  0  0  0  0  0  0  0  0  0
   -8.0600   25.0349  -30.7207 H   0  0  0  0  0  0  0  0  0  0  0  0
   -9.3974   23.0813  -31.4885 H   0  0  0  0  0  0  0  0  0  0  0  0
   -8.2639   20.9751  -32.1807 H   0  0  0  0  0  0  0  0  0  0  0  0
   -7.1952   18.9169  -31.9788 H   0  0  0  0  0  0  0  0  0  0  0  0
   -3.6413   16.2926  -31.8368 H   0  0  0  0  0  0  0  0  0  0  0  0
   -3.9581   13.8817  -32.4088 H   0  0  0  0  0  0  0  0  0  0  0  0
   -7.2659   14.8443  -34.9166 H   0  0  0  0  0  0  0  0  0  0  0  0
   -7.0098   17.2731  -34.3865 H   0  0  0  0  0  0  0  0  0  0  0  0
   -3.5296   17.3851  -34.8944 H   0  0  0  0  0  0  0  0  0  0  0  0
   -1.2789   16.5997  -35.6204 H   0  0  0  0  0  0  0  0  0  0  0  0
    0.7727   17.4730  -34.5092 H   0  0  0  0  0  0  0  0  0  0  0  0
   -0.3266   21.8596  -31.5354 H   0  0  0  0  0  0  0  0  0  0  0  0
   -2.0632   22.9031  -30.0845 H   0  0  0  0  0  0  0  0  0  0  0  0
   -2.8126   21.7602  -28.0007 H   0  0  0  0  0  0  0  0  0  0  0  0
   -0.0400   18.5275  -28.7863 H   0  0  0  0  0  0  0  0  0  0  0  0
   -1.6793   19.9871  -31.9707 H   0  0  0  0  0  0  0  0  0  0  0  0
   -4.4146   22.7758  -31.3362 H   0  0  0  0  0  0  0  0  0  0  0  0
  1  2  1  0
  2  3  2  0
  2  4  1  0
  4  5  2  0
  5  6  1  0
  6  7  2  0
  7  8  1  0
  8  9  1  0
  9 10  1  0
 10 11  2  0
 11 12  1  0
 12 13  2  0
 13 14  1  0
 14 15  2  0
 15 16  1  0
 16 17  2  0
 11 18  1  0
 18 19  1  0
 19 20  2  0
 20 21  1  0
 21 22  2  0
 22 23  1  0
 23 24  1  0
 24 25  2  0
 24 26  1  0
 26 27  1  0
 27 28  2  0
 28 29  1  0
 29 30  2  0
 30 31  1  0
 31 32  1  0
 32 33  1  0
 32 34  1  0
 32 35  1  0
 31 36  2  0
 23 37  2  0
 18 38  1  0
  8 39  2  0
 39  4  1  0
 38  9  2  0
 17 12  1  0
 37 19  1  0
 36 27  1  0
  1 40  1  0
  5 41  1  0
  6 42  1  0
  7 43  1  0
 10 44  1  0
 13 45  1  0
 14 46  1  0
 16 47  1  0
 17 48  1  0
 20 49  1  0
 21 50  1  0
 22 51  1  0
 28 52  1  0
 29 53  1  0
 30 54  1  0
 36 55  1  0
 37 56  1  0
 39 57  1  0
M  CHG  2   1  -1  26  -1
M  END
>  <UniqueID>  (6) 
6

>  <SMILES>  (6) 
[NH-]C(=O)c1cccc(-c2cc(-c3ccncc3)n(-c3cccc(C(=O)[N-]c4cccc(C(F)(F)F)c4)c3)n2)c1

>  <Energy>  (6) 
110.39179348502577

>  <Genealogy>  (6) 
[NH-]C(=O)c1cccc(-c2cc(-c3ccncc3)n(-c3cccc(C(=O)[N-]c4cccc(C(F)(F)F)c4)c3)n2)c1 (protonated)
[NH-]C(=O)c1cccc(-c2cc(-c3ccncc3)n(-c3cccc(C(=O)[N-]c4cccc(C(F)(F)F)c4)c3)n2)c1 (3D coordinates assigned)
[NH-]C(=O)c1cccc(-c2cc(-c3ccncc3)n(-c3cccc(C(=O)[N-]c4cccc(C(F)(F)F)c4)c3)n2)c1 (optimized conformer: 110.39179348502577 kcal/mol)

>  <smiles>  (6) 
NC(=O)c1cccc(-c2cc(-c3ccncc3)n(-c3cccc(C(=O)Nc4cccc(C(F)(F)F)c4)c3)n2)c1

>  <score_type>  (6) 
oracle

>  <origin>  (6) 
adgpu

>  <m_score__min__energy>  (6) 
-13.140000000000001

>  <m_primary>  (6) 
energy

$$$$
6:0
     RDKit          3D

 33 34  0  0  0  0  0  0  0  0999 V2000
   -4.0137   21.9764  -27.3628 H   0  0  0  0  0  0  0  0  0  0  0  0
   -3.4040   22.7060  -27.9160 C   0  0  0  0  0  0  0  0  0  0  0  0
   -3.9950   23.5570  -28.7980 N   0  0  0  0  0  0  0  0  0  0  0  0
   -3.2760   24.4760  -29.5060 C   0  0  0  0  0  0  0  0  0  0  0  0
   -3.8590   25.2790  -30.3470 N   0  0  0  0  0  0  0  0  0  0  0  0
   -5.2920   25.2920  -30.6490 C   0  0  0  0  0  0  0  0  0  0  0  0
   -5.5548   26.2613  -31.0978 H   0  0  0  0  0  0  0  0  0  0  0  0
   -5.8458   25.1341  -29.7118 H   0  0  0  0  0  0  0  0  0  0  0  0
   -5.6650   24.1730  -31.6250 C   0  0  0  0  0  0  0  0  0  0  0  0
   -5.5273   24.5327  -32.6554 H   0  0  0  0  0  0  0  0  0  0  0  0
   -6.7147   23.8920  -31.4541 H   0  0  0  0  0  0  0  0  0  0  0  0
   -4.8200   22.9890  -31.4110 N   0  0  0  0  0  0  0  0  0  0  0  0
   -3.9160   23.3170  -30.9960 H   0  0  0  0  0  0  0  0  0  0  0  0
   -4.4960   22.3260  -32.6810 C   0  0  0  0  0  0  0  0  0  0  0  0
   -3.4237   22.0815  -32.6998 H   0  0  0  0  0  0  0  0  0  0  0  0
   -4.7419   23.0035  -33.5120 H   0  0  0  0  0  0  0  0  0  0  0  0
   -5.2970   21.0600  -32.8270 C   0  0  0  0  0  0  0  0  0  0  0  0
   -4.6870   19.8720  -33.2620 C   0  0  0  0  0  0  0  0  0  0  0  0
   -3.6102   19.8595  -33.4864 H   0  0  0  0  0  0  0  0  0  0  0  0
   -5.4430   18.7050  -33.4110 C   0  0  0  0  0  0  0  0  0  0  0  0
   -4.9590   17.7767  -33.7485 H   0  0  0  0  0  0  0  0  0  0  0  0
   -6.8120   18.7160  -33.1320 C   0  0  0  0  0  0  0  0  0  0  0  0
   -7.4048   17.7971  -33.2513 H   0  0  0  0  0  0  0  0  0  0  0  0
   -7.4290   19.8950  -32.7010 C   0  0  0  0  0  0  0  0  0  0  0  0
   -9.1490   19.9090  -32.3560 Cl  0  0  0  0  0  0  0  0  0  0  0  0
   -6.6750   21.0650  -32.5500 C   0  0  0  0  0  0  0  0  0  0  0  0
   -7.1629   21.9916  -32.2133 H   0  0  0  0  0  0  0  0  0  0  0  0
   -1.8900   24.5580  -29.3230 C   0  0  0  0  0  0  0  0  0  0  0  0
   -1.2994   25.2976  -29.8835 H   0  0  0  0  0  0  0  0  0  0  0  0
   -1.2640   23.6930  -28.4230 C   0  0  0  0  0  0  0  0  0  0  0  0
   -0.1756   23.7471  -28.2734 H   0  0  0  0  0  0  0  0  0  0  0  0
   -2.0220   22.7590  -27.7130 C   0  0  0  0  0  0  0  0  0  0  0  0
   -1.1820   21.5680  -26.4790 Br  0  0  0  0  0  0  0  0  0  0  0  0
  1  2  1  0
  2  3  1  0
  3  4  1  0
  4  5  2  0
  5  6  1  0
  6  7  1  0
  6  8  1  0
  6  9  1  0
  9 10  1  0
  9 11  1  0
  9 12  1  0
 12 13  1  0
 12 14  1  0
 14 15  1  0
 14 16  1  0
 14 17  1  0
 17 18  2  0
 18 19  1  0
 18 20  1  0
 20 21  1  0
 20 22  2  0
 22 23  1  0
 22 24  1  0
 24 25  1  0
 24 26  2  0
 26 27  1  0
  4 28  1  0
 28 29  1  0
 28 30  2  0
 30 31  1  0
 30 32  1  0
 32 33  1  0
 32  2  2  0
 26 17  1  0
M  CHG  1   3  -1
M  END
>  <UniqueID>  (7) 
7

>  <SMILES>  (7) 
Clc1cccc(CNCC/N=c2/ccc(Br)c[n-]2)c1

>  <Energy>  (7) 
31.418832441327616

>  <Genealogy>  (7) 
Clc1cccc(CNCCN=c2ccc(Br)c[n-]2)c1 (protonated)
Clc1cccc(CNCC/N=c2/ccc(Br)c[n-]2)c1 (cis-trans isomerization)
Clc1cccc(CNCC/N=c2/ccc(Br)c[n-]2)c1 (3D coordinates assigned)
Clc1cccc(CNCC/N=c2/ccc(Br)c[n-]2)c1 (optimized conformer: 31.418832441327616 kcal/mol)

>  <smiles>  (7) 
Clc1cccc(CNCCN=c2ccc(Br)c[nH]2)c1

>  <score_type>  (7) 
oracle

>  <origin>  (7) 
adgpu

>  <m_score__min__energy>  (7) 
-9.1699999999999999

>  <m_primary>  (7) 
energy

$$$$
7:0
     RDKit          3D

 42 44  0  0  0  0  0  0  0  0999 V2000
   -3.2980   15.9390  -32.7790 C   0  0  0  0  0  0  0  0  0  0  0  0
   -4.6380   15.5610  -33.3560 C   0  0  0  0  0  0  0  0  0  0  0  0
   -4.7580   14.3290  -34.0220 C   0  0  0  0  0  0  0  0  0  0  0  0
   -5.9670   13.9520  -34.6090 C   0  0  0  0  0  0  0  0  0  0  0  0
   -7.0720   14.7980  -34.5370 C   0  0  0  0  0  0  0  0  0  0  0  0
   -6.9780   16.0170  -33.8620 C   0  0  0  0  0  0  0  0  0  0  0  0
   -5.7760   16.4010  -33.2460 C   0  0  0  0  0  0  0  0  0  0  0  0
   -5.7430   17.6860  -32.5170 C   0  0  0  0  0  0  0  0  0  0  0  0
   -5.9200   17.6840  -31.2690 O   0  0  0  0  0  0  0  0  0  0  0  0
   -5.5020   18.9170  -33.2210 N   0  0  0  0  0  0  0  0  0  0  0  0
   -5.4500   20.2070  -32.5920 C   0  0  0  0  0  0  0  0  0  0  0  0
   -6.6250   20.7580  -32.0590 C   0  0  0  0  0  0  0  0  0  0  0  0
   -6.6090   22.0220  -31.4640 C   0  0  0  0  0  0  0  0  0  0  0  0
   -5.4210   22.7620  -31.4140 C   0  0  0  0  0  0  0  0  0  0  0  0
   -5.4120   24.3620  -30.6770 S   0  0  0  0  0  0  0  0  0  0  0  0
   -6.1280   24.3430  -29.3550 O   0  0  0  0  0  0  0  0  0  0  0  0
   -6.1130   25.3210  -31.5960 O   0  0  0  0  0  0  0  0  0  0  0  0
   -3.7780   24.9030  -30.4330 N   0  0  0  0  0  0  0  0  0  0  0  0
   -3.0810   24.7950  -29.3390 C   0  0  0  0  0  0  0  0  0  0  0  0
   -3.5940   24.2060  -28.1650 C   0  0  0  0  0  0  0  0  0  0  0  0
   -2.7840   24.1190  -27.0300 C   0  0  0  0  0  0  0  0  0  0  0  0
   -1.4810   24.6150  -27.0650 C   0  0  0  0  0  0  0  0  0  0  0  0
   -1.0030   25.1940  -28.2400 C   0  0  0  0  0  0  0  0  0  0  0  0
   -1.8050   25.2690  -29.3360 N   0  0  0  0  0  0  0  0  0  0  0  0
   -4.2490   22.2260  -31.9610 C   0  0  0  0  0  0  0  0  0  0  0  0
   -4.2640   20.9600  -32.5550 C   0  0  0  0  0  0  0  0  0  0  0  0
   -3.3541   15.9232  -31.6805 H   0  0  0  0  0  0  0  0  0  0  0  0
   -2.5371   15.2205  -33.1177 H   0  0  0  0  0  0  0  0  0  0  0  0
   -3.0248   16.9493  -33.1177 H   0  0  0  0  0  0  0  0  0  0  0  0
   -3.8905   13.6553  -34.0812 H   0  0  0  0  0  0  0  0  0  0  0  0
   -6.0476   12.9860  -35.1290 H   0  0  0  0  0  0  0  0  0  0  0  0
   -8.0197   14.5052  -35.0125 H   0  0  0  0  0  0  0  0  0  0  0  0
   -7.8529   16.6819  -33.8125 H   0  0  0  0  0  0  0  0  0  0  0  0
   -5.4310   18.8850  -34.2620 H   0  0  0  0  0  0  0  0  0  0  0  0
   -7.5660   20.1905  -32.1099 H   0  0  0  0  0  0  0  0  0  0  0  0
   -7.5322   22.4372  -31.0335 H   0  0  0  0  0  0  0  0  0  0  0  0
   -4.6232   23.8183  -28.1430 H   0  0  0  0  0  0  0  0  0  0  0  0
   -3.1736   23.6597  -26.1096 H   0  0  0  0  0  0  0  0  0  0  0  0
   -0.8373   24.5502  -26.1753 H   0  0  0  0  0  0  0  0  0  0  0  0
    0.0224   25.5900  -28.2805 H   0  0  0  0  0  0  0  0  0  0  0  0
   -3.3130   22.8027  -31.9234 H   0  0  0  0  0  0  0  0  0  0  0  0
   -3.3426   20.5515  -32.9956 H   0  0  0  0  0  0  0  0  0  0  0  0
  1  2  1  0
  2  3  2  0
  3  4  1  0
  4  5  2  0
  5  6  1  0
  6  7  2  0
  7  8  1  0
  8  9  2  0
  8 10  1  0
 10 11  1  0
 11 12  2  0
 12 13  1  0
 13 14  2  0
 14 15  1  0
 15 16  2  0
 15 17  2  0
 15 18  1  0
 18 19  2  3
 19 20  1  0
 20 21  2  0
 21 22  1  0
 22 23  2  0
 23 24  1  0
 14 25  1  0
 25 26  2  0
  7  2  1  0
 26 11  1  0
 24 19  1  0
  1 27  1  0
  1 28  1  0
  1 29  1  0
  3 30  1  0
  4 31  1  0
  5 32  1  0
  6 33  1  0
 10 34  1  0
 12 35  1  0
 13 36  1  0
 20 37  1  0
 21 38  1  0
 22 39  1  0
 23 40  1  0
 25 41  1  0
 26 42  1  0
M  CHG  1  24  -1
M  END
>  <UniqueID>  (8) 
8

>  <SMILES>  (8) 
Cc1ccccc1C(=O)Nc1ccc(S(=O)(=O)N=c2cccc[n-]2)cc1

>  <Energy>  (8) 
60.684010452488955

>  <Genealogy>  (8) 
Cc1ccccc1C(=O)Nc1ccc(S(=O)(=O)N=c2cccc[n-]2)cc1 (protonated)
Cc1ccccc1C(=O)Nc1ccc(S(=O)(=O)N=c2cccc[n-]2)cc1 (3D coordinates assigned)
Cc1ccccc1C(=O)Nc1ccc(S(=O)(=O)N=c2cccc[n-]2)cc1 (optimized conformer: 60.684010452488955 kcal/mol)

>  <smiles>  (8) 
Cc1ccccc1C(=O)Nc1ccc(S(=O)(=O)N=c2cccc[nH]2)cc1

>  <score_type>  (8) 
oracle

>  <origin>  (8) 
adgpu

>  <m_score__min__energy>  (8) 
-9.9399999999999995

>  <m_primary>  (8) 
energy

$$$$
8:0
     RDKit          3D

 28 29  0  0  0  0  0  0  0  0999 V2000
   -5.4970   26.1290  -30.5150 O   0  0  0  0  0  0  0  0  0  0  0  0
   -4.6270   25.2270  -30.6220 C   0  0  0  0  0  0  0  0  0  0  0  0
   -4.7750   24.1740  -31.5860 N   0  0  0  0  0  0  0  0  0  0  0  0
   -5.8760   23.2590  -31.7070 C   0  0  0  0  0  0  0  0  0  0  0  0
   -7.1550   23.5700  -31.2070 C   0  0  0  0  0  0  0  0  0  0  0  0
   -8.1990   22.6480  -31.3210 C   0  0  0  0  0  0  0  0  0  0  0  0
   -7.9760   21.4080  -31.9210 C   0  0  0  0  0  0  0  0  0  0  0  0
   -6.7050   21.0800  -32.3980 C   0  0  0  0  0  0  0  0  0  0  0  0
   -5.6540   21.9980  -32.2850 C   0  0  0  0  0  0  0  0  0  0  0  0
   -4.0630   21.5510  -32.8890 Cl  0  0  0  0  0  0  0  0  0  0  0  0
   -3.4720   25.2710  -29.7800 N   0  0  0  0  0  0  0  0  0  0  0  0
   -2.8330   24.1070  -29.2400 C   0  0  0  0  0  0  0  0  0  0  0  0
   -2.0390   23.3230  -30.0880 C   0  0  0  0  0  0  0  0  0  0  0  0
   -1.3850   22.1780  -29.6050 C   0  0  0  0  0  0  0  0  0  0  0  0
   -0.5340   21.3670  -30.5050 C   0  0  0  0  0  0  0  0  0  0  0  0
   -0.5150   21.5930  -31.7450 O   0  0  0  0  0  0  0  0  0  0  0  0
    0.2550   20.3430  -29.9950 O   0  0  0  0  0  0  0  0  0  0  0  0
   -1.5520   21.8150  -28.2580 C   0  0  0  0  0  0  0  0  0  0  0  0
   -2.3680   22.5730  -27.4160 C   0  0  0  0  0  0  0  0  0  0  0  0
   -3.0180   23.7130  -27.9000 C   0  0  0  0  0  0  0  0  0  0  0  0
   -4.1210   24.5670  -26.8260 Cl  0  0  0  0  0  0  0  0  0  0  0  0
   -7.3331   24.5425  -30.7248 H   0  0  0  0  0  0  0  0  0  0  0  0
   -9.1985   22.9002  -30.9370 H   0  0  0  0  0  0  0  0  0  0  0  0
   -8.8021   20.6882  -32.0184 H   0  0  0  0  0  0  0  0  0  0  0  0
   -6.5294   20.0988  -32.8632 H   0  0  0  0  0  0  0  0  0  0  0  0
   -1.9268   23.6079  -31.1445 H   0  0  0  0  0  0  0  0  0  0  0  0
   -1.0360   20.9270  -27.8639 H   0  0  0  0  0  0  0  0  0  0  0  0
   -2.5004   22.2720  -26.3663 H   0  0  0  0  0  0  0  0  0  0  0  0
  1  2  2  0
  2  3  1  0
  3  4  1  0
  4  5  2  0
  5  6  1  0
  6  7  2  0
  7  8  1  0
  8  9  2  0
  9 10  1  0
  2 11  1  0
 11 12  1  0
 12 13  2  0
 13 14  1  0
 14 15  1  0
 15 16  2  0
 15 17  1  0
 14 18  2  0
 18 19  1  0
 19 20  2  0
 20 21  1  0
  9  4  1  0
 20 12  1  0
  5 22  1  0
  6 23  1  0
  7 24  1  0
  8 25  1  0
 13 26  1  0
 18 27  1  0
 19 28  1  0
M  CHG  3   3  -1  11  -1  17  -1
M  END
>  <UniqueID>  (9) 
9

>  <SMILES>  (9) 
O=C([N-]c1ccccc1Cl)[N-]c1cc(C(=O)[O-])ccc1Cl

>  <Energy>  (9) 
39.70991878430558

>  <Genealogy>  (9) 
O=C([N-]c1ccccc1Cl)[N-]c1cc(C(=O)[O-])ccc1Cl (protonated)
O=C([N-]c1ccccc1Cl)[N-]c1cc(C(=O)[O-])ccc1Cl (3D coordinates assigned)
O=C([N-]c1ccccc1Cl)[N-]c1cc(C(=O)[O-])ccc1Cl (optimized conformer: 39.70991878430558 kcal/mol)

>  <smiles>  (9) 
O=C(Nc1ccccc1Cl)Nc1cc(C(=O)O)ccc1Cl

>  <score_type>  (9) 
oracle

>  <origin>  (9) 
adgpu

>  <m_score__min__energy>  (9) 
-10.220000000000001

>  <m_primary>  (9) 
energy

$$$$
9:0
     RDKit          3D

 59 61  0  0  0  0  0  0  0  0999 V2000
   -0.9880   26.7940  -24.0090 C   0  0  0  0  0  0  0  0  0  0  0  0
   -1.1710   25.5030  -24.8060 C   0  0  0  0  0  0  0  0  0  0  0  0
   -2.0460   25.6800  -26.0620 C   0  0  0  0  0  0  0  0  0  0  0  0
   -1.2730   25.7960  -27.3910 C   0  0  0  0  0  0  0  0  0  0  0  0
   -1.6900   24.7550  -28.4430 C   0  0  0  0  0  0  0  0  0  0  0  0
   -2.6460   25.2800  -29.3630 O   0  0  0  0  0  0  0  0  0  0  0  0
   -3.7880   24.6110  -29.8290 C   0  0  0  0  0  0  0  0  0  0  0  0
   -4.8530   25.2720  -30.4700 C   0  0  0  0  0  0  0  0  0  0  0  0
   -5.9700   24.5510  -30.9040 C   0  0  0  0  0  0  0  0  0  0  0  0
   -6.0430   23.1590  -30.7130 C   0  0  0  0  0  0  0  0  0  0  0  0
   -7.2260   22.3910  -31.1800 C   0  0  0  0  0  0  0  0  0  0  0  0
   -8.3930   23.0580  -31.5950 C   0  0  0  0  0  0  0  0  0  0  0  0
   -9.4990   22.3350  -32.0490 C   0  0  0  0  0  0  0  0  0  0  0  0
   -9.4560   20.9390  -32.0950 C   0  0  0  0  0  0  0  0  0  0  0  0
   -8.3070   20.2550  -31.6720 C   0  0  0  0  0  0  0  0  0  0  0  0
   -8.2390   18.7530  -31.7600 C   0  0  0  0  0  0  0  0  0  0  0  0
   -7.0220   18.3430  -32.4720 N   0  0  0  0  0  0  0  0  0  0  0  0
   -6.6260   19.0270  -33.5850 C   0  0  0  0  0  0  0  0  0  0  0  0
   -5.4580   18.6720  -34.2610 C   0  0  0  0  0  0  0  0  0  0  0  0
   -4.6660   17.6040  -33.7980 C   0  0  0  0  0  0  0  0  0  0  0  0
   -3.4490   17.2120  -34.4930 N   0  0  0  0  0  0  0  0  0  0  0  0
   -2.1880   17.9260  -34.2520 C   0  0  0  0  0  0  0  0  0  0  0  0
   -3.4580   16.0940  -35.4460 C   0  0  0  0  0  0  0  0  0  0  0  0
   -5.0900   16.9280  -32.6380 C   0  0  0  0  0  0  0  0  0  0  0  0
   -6.2650   17.3130  -31.9900 C   0  0  0  0  0  0  0  0  0  0  0  0
   -7.1940   20.9840  -31.2230 C   0  0  0  0  0  0  0  0  0  0  0  0
   -4.9720   22.5050  -30.0800 C   0  0  0  0  0  0  0  0  0  0  0  0
   -3.8580   23.2270  -29.6450 C   0  0  0  0  0  0  0  0  0  0  0  0
   -1.0200   26.5682  -22.9329 H   0  0  0  0  0  0  0  0  0  0  0  0
   -0.0169   27.2455  -24.2602 H   0  0  0  0  0  0  0  0  0  0  0  0
   -1.7954   27.4976  -24.2602 H   0  0  0  0  0  0  0  0  0  0  0  0
   -0.1800   25.1427  -25.1190 H   0  0  0  0  0  0  0  0  0  0  0  0
   -1.6851   24.7854  -24.1497 H   0  0  0  0  0  0  0  0  0  0  0  0
   -2.7175   24.8117  -26.1338 H   0  0  0  0  0  0  0  0  0  0  0  0
   -2.5749   26.6358  -25.9327 H   0  0  0  0  0  0  0  0  0  0  0  0
   -1.4472   26.7991  -27.8074 H   0  0  0  0  0  0  0  0  0  0  0  0
   -0.2125   25.6141  -27.1623 H   0  0  0  0  0  0  0  0  0  0  0  0
   -0.7972   24.4366  -29.0012 H   0  0  0  0  0  0  0  0  0  0  0  0
   -2.1534   23.9069  -27.9176 H   0  0  0  0  0  0  0  0  0  0  0  0
   -4.8064   26.3593  -30.6300 H   0  0  0  0  0  0  0  0  0  0  0  0
   -6.7993   25.0772  -31.3994 H   0  0  0  0  0  0  0  0  0  0  0  0
   -8.4351   24.1567  -31.5618 H   0  0  0  0  0  0  0  0  0  0  0  0
  -10.4066   22.8664  -32.3713 H   0  0  0  0  0  0  0  0  0  0  0  0
  -10.3255   20.3752  -32.4639 H   0  0  0  0  0  0  0  0  0  0  0  0
   -8.2266   18.3294  -30.7449 H   0  0  0  0  0  0  0  0  0  0  0  0
   -9.1182   18.3847  -32.3090 H   0  0  0  0  0  0  0  0  0  0  0  0
   -7.2339   19.8667  -33.9528 H   0  0  0  0  0  0  0  0  0  0  0  0
   -5.1547   19.2291  -35.1597 H   0  0  0  0  0  0  0  0  0  0  0  0
   -2.0213   18.0204  -33.1688 H   0  0  0  0  0  0  0  0  0  0  0  0
   -1.3567   17.3646  -34.7034 H   0  0  0  0  0  0  0  0  0  0  0  0
   -2.2418   18.9277  -34.7034 H   0  0  0  0  0  0  0  0  0  0  0  0
   -3.4657   15.1422  -34.8946 H   0  0  0  0  0  0  0  0  0  0  0  0
   -4.3557   16.1586  -36.0785 H   0  0  0  0  0  0  0  0  0  0  0  0
   -2.5594   16.1441  -36.0785 H   0  0  0  0  0  0  0  0  0  0  0  0
   -4.4933   16.0936  -32.2409 H   0  0  0  0  0  0  0  0  0  0  0  0
   -6.5847   16.7814  -31.0816 H   0  0  0  0  0  0  0  0  0  0  0  0
   -6.2875   20.4502  -30.9015 H   0  0  0  0  0  0  0  0  0  0  0  0
   -5.0113   21.4165  -29.9260 H   0  0  0  0  0  0  0  0  0  0  0  0
   -3.0270   22.7009  -29.1524 H   0  0  0  0  0  0  0  0  0  0  0  0
  1  2  1  0
  2  3  1  0
  3  4  1  0
  4  5  1  0
  5  6  1  0
  6  7  1  0
  7  8  2  0
  8  9  1  0
  9 10  2  0
 10 11  1  0
 11 12  2  0
 12 13  1  0
 13 14  2  0
 14 15  1  0
 15 16  1  0
 16 17  1  0
 17 18  2  0
 18 19  1  0
 19 20  2  0
 20 21  1  0
 21 22  1  0
 21 23  1  0
 20 24  1  0
 24 25  2  0
 15 26  2  0
 10 27  1  0
 27 28  2  0
 28  7  1  0
 26 11  1  0
 25 17  1  0
  1 29  1  0
  1 30  1  0
  1 31  1  0
  2 32  1  0
  2 33  1  0
  3 34  1  0
  3 35  1  0
  4 36  1  0
  4 37  1  0
  5 38  1  0
  5 39  1  0
  8 40  1  0
  9 41  1  0
 12 42  1  0
 13 43  1  0
 14 44  1  0
 16 45  1  0
 16 46  1  0
 18 47  1  0
 19 48  1  0
 22 49  1  0
 22 50  1  0
 22 51  1  0
 23 52  1  0
 23 53  1  0
 23 54  1  0
 24 55  1  0
 25 56  1  0
 26 57  1  0
 27 58  1  0
 28 59  1  0
M  CHG  1  17   1
M  END
>  <UniqueID>  (10) 
10

>  <SMILES>  (10) 
CCCCCOc1ccc(-c2cccc(C[n+]3ccc(N(C)C)cc3)c2)cc1

>  <Energy>  (10) 
60.422969674271954

>  <Genealogy>  (10) 
CCCCCOc1ccc(-c2cccc(C[n+]3ccc(N(C)C)cc3)c2)cc1 (3D coordinates assigned)
CCCCCOc1ccc(-c2cccc(C[n+]3ccc(N(C)C)cc3)c2)cc1 (optimized conformer: 60.422969674271954 kcal/mol)

>  <smiles>  (10) 
CCCCCOc1ccc(-c2cccc(C[n+]3ccc(N(C)C)cc3)c2)cc1

>  <score_type>  (10) 
oracle

>  <origin>  (10) 
adgpu

>  <m_score__min__energy>  (10) 
-9.2699999999999996

>  <m_primary>  (10) 
energy

$$$$
10:0
     RDKit          3D

 22 23  0  0  0  0  0  0  0  0999 V2000
   -6.0380   16.6730  -30.8370 N   0  0  0  0  0  0  0  0  0  0  0  0
   -6.4660   17.7940  -31.6100 C   0  0  0  0  0  0  0  0  0  0  0  0
   -5.8200   18.1930  -32.7770 C   0  0  0  0  0  0  0  0  0  0  0  0
   -6.6300   19.5420  -33.3710 S   0  0  0  0  0  0  0  0  0  0  0  0
   -7.7540   19.5500  -32.1210 C   0  0  0  0  0  0  0  0  0  0  0  0
   -9.0750   20.7410  -31.9510 S   0  0  0  0  0  0  0  0  0  0  0  0
   -7.9380   22.0700  -31.5730 C   0  0  0  0  0  0  0  0  0  0  0  0
   -7.6770   22.4190  -30.2450 C   0  0  0  0  0  0  0  0  0  0  0  0
   -6.7820   23.4550  -29.9740 C   0  0  0  0  0  0  0  0  0  0  0  0
   -6.1520   24.1380  -31.0260 C   0  0  0  0  0  0  0  0  0  0  0  0
   -5.2270   25.2070  -30.7580 N   0  0  0  0  0  0  0  0  0  0  0  0
   -5.6390   26.3500  -30.4710 O   0  0  0  0  0  0  0  0  0  0  0  0
   -3.8690   24.9860  -30.8130 O   0  0  0  0  0  0  0  0  0  0  0  0
   -6.4490   23.7530  -32.3460 C   0  0  0  0  0  0  0  0  0  0  0  0
   -7.3260   22.7400  -32.5840 N   0  0  0  0  0  0  0  0  0  0  0  0
   -7.5380   18.5450  -31.2460 N   0  0  0  0  0  0  0  0  0  0  0  0
   -5.6410   15.8260  -31.3020 H   0  0  0  0  0  0  0  0  0  0  0  0
   -6.1200   16.6900  -29.7970 H   0  0  0  0  0  0  0  0  0  0  0  0
   -4.9394   17.7129  -33.2287 H   0  0  0  0  0  0  0  0  0  0  0  0
   -8.1719   21.8827  -29.4219 H   0  0  0  0  0  0  0  0  0  0  0  0
   -6.5696   23.7373  -28.9323 H   0  0  0  0  0  0  0  0  0  0  0  0
   -5.9705   24.2728  -33.1891 H   0  0  0  0  0  0  0  0  0  0  0  0
  1  2  1  0
  2  3  2  0
  3  4  1  0
  4  5  1  0
  5  6  1  0
  6  7  1  0
  7  8  2  0
  8  9  1  0
  9 10  2  0
 10 11  1  0
 11 12  2  0
 11 13  1  0
 10 14  1  0
 14 15  2  0
  5 16  2  0
 16  2  1  0
 15  7  1  0
  1 17  1  0
  1 18  1  0
  3 19  1  0
  8 20  1  0
  9 21  1  0
 14 22  1  0
M  CHG  2  11   1  13  -1
M  END
>  <UniqueID>  (11) 
11

>  <SMILES>  (11) 
Nc1csc(Sc2ccc([N+](=O)[O-])cn2)n1

>  <Energy>  (11) 
48.63911255063424

>  <Genealogy>  (11) 
Nc1csc(Sc2ccc([N+](=O)[O-])cn2)n1 (3D coordinates assigned)
Nc1csc(Sc2ccc([N+](=O)[O-])cn2)n1 (optimized conformer: 48.63911255063424 kcal/mol)

>  <smiles>  (11) 
Nc1csc(Sc2ccc([N+](=O)[O-])cn2)n1

>  <score_type>  (11) 
oracle

>  <origin>  (11) 
adgpu

>  <m_score__min__energy>  (11) 
-7.3200000000000003

>  <m_primary>  (11) 
energy

$$$$
11:0
     RDKit          3D

 51 53  0  0  0  0  0  0  0  0999 V2000
    2.6000   24.8780  -24.0740 C   0  0  0  0  0  0  0  0  0  0  0  0
    2.4590   25.8300  -25.2240 C   0  0  0  0  0  0  0  0  0  0  0  0
    2.5920   27.0640  -25.0100 O   0  0  0  0  0  0  0  0  0  0  0  0
    2.2160   25.3780  -26.5620 N   0  0  0  0  0  0  0  0  0  0  0  0
    0.9330   25.2040  -27.1830 C   0  0  0  0  0  0  0  0  0  0  0  0
    0.0310   26.2710  -27.3160 C   0  0  0  0  0  0  0  0  0  0  0  0
   -1.2070   26.0740  -27.9370 C   0  0  0  0  0  0  0  0  0  0  0  0
   -1.5590   24.8080  -28.4370 C   0  0  0  0  0  0  0  0  0  0  0  0
   -2.8250   24.5800  -29.0830 N   0  0  0  0  0  0  0  0  0  0  0  0
   -3.0330   23.5800  -30.0950 C   0  0  0  0  0  0  0  0  0  0  0  0
   -2.0470   23.1190  -30.7300 O   0  0  0  0  0  0  0  0  0  0  0  0
   -4.4000   23.1190  -30.4410 C   0  0  0  0  0  0  0  0  0  0  0  0
   -4.7020   22.6510  -31.7340 C   0  0  0  0  0  0  0  0  0  0  0  0
   -5.9980   22.2300  -32.0520 C   0  0  0  0  0  0  0  0  0  0  0  0
   -7.0090   22.2730  -31.0850 C   0  0  0  0  0  0  0  0  0  0  0  0
   -8.6530   21.7750  -31.4710 S   0  0  0  0  0  0  0  0  0  0  0  0
   -9.4590   21.5760  -30.2170 O   0  0  0  0  0  0  0  0  0  0  0  0
   -9.2930   22.8590  -32.2940 O   0  0  0  0  0  0  0  0  0  0  0  0
   -8.6020   20.2830  -32.3640 N   0  0  0  0  0  0  0  0  0  0  0  0
   -9.8650   19.6410  -32.7230 C   0  0  0  0  0  0  0  0  0  0  0  0
   -7.3490   19.6160  -32.5950 C   0  0  0  0  0  0  0  0  0  0  0  0
   -6.7880   18.7850  -31.6090 C   0  0  0  0  0  0  0  0  0  0  0  0
   -5.5710   18.1350  -31.8390 C   0  0  0  0  0  0  0  0  0  0  0  0
   -4.9040   18.3030  -33.0590 C   0  0  0  0  0  0  0  0  0  0  0  0
   -3.6530   17.6310  -33.2960 C   0  0  0  0  0  0  0  0  0  0  0  0
   -2.6470   17.0890  -33.4830 N   0  0  0  0  0  0  0  0  0  0  0  0
   -5.4600   19.1230  -34.0490 C   0  0  0  0  0  0  0  0  0  0  0  0
   -6.6760   19.7770  -33.8190 C   0  0  0  0  0  0  0  0  0  0  0  0
   -6.7210   22.7490  -29.8010 C   0  0  0  0  0  0  0  0  0  0  0  0
   -5.4280   23.1690  -29.4810 C   0  0  0  0  0  0  0  0  0  0  0  0
   -0.6300   23.7600  -28.3510 C   0  0  0  0  0  0  0  0  0  0  0  0
    0.6080   23.9590  -27.7330 C   0  0  0  0  0  0  0  0  0  0  0  0
    2.5180   25.4320  -23.1272 H   0  0  0  0  0  0  0  0  0  0  0  0
    1.8043   24.1203  -24.1256 H   0  0  0  0  0  0  0  0  0  0  0  0
    3.5812   24.3834  -24.1256 H   0  0  0  0  0  0  0  0  0  0  0  0
    0.2985   27.2659  -26.9305 H   0  0  0  0  0  0  0  0  0  0  0  0
   -1.9094   26.9149  -28.0347 H   0  0  0  0  0  0  0  0  0  0  0  0
   -3.5980   25.2570  -28.8920 H   0  0  0  0  0  0  0  0  0  0  0  0
   -3.9133   22.6160  -32.5000 H   0  0  0  0  0  0  0  0  0  0  0  0
   -6.2229   21.8642  -33.0647 H   0  0  0  0  0  0  0  0  0  0  0  0
  -10.4089   19.3645  -31.8077 H   0  0  0  0  0  0  0  0  0  0  0  0
  -10.4753   20.3383  -33.3157 H   0  0  0  0  0  0  0  0  0  0  0  0
   -9.6613   18.7370  -33.3157 H   0  0  0  0  0  0  0  0  0  0  0  0
   -7.3096   18.6452  -30.6507 H   0  0  0  0  0  0  0  0  0  0  0  0
   -5.1370   17.4907  -31.0602 H   0  0  0  0  0  0  0  0  0  0  0  0
   -4.9399   19.2534  -35.0095 H   0  0  0  0  0  0  0  0  0  0  0  0
   -7.1074   20.4204  -34.6000 H   0  0  0  0  0  0  0  0  0  0  0  0
   -7.5154   22.7925  -29.0414 H   0  0  0  0  0  0  0  0  0  0  0  0
   -5.2111   23.5423  -28.4693 H   0  0  0  0  0  0  0  0  0  0  0  0
   -0.8776   22.7748  -28.7729 H   0  0  0  0  0  0  0  0  0  0  0  0
    1.3311   23.1319  -27.6787 H   0  0  0  0  0  0  0  0  0  0  0  0
  1  2  1  0
  2  3  2  0
  2  4  1  0
  4  5  1  0
  5  6  2  0
  6  7  1  0
  7  8  2  0
  8  9  1  0
  9 10  1  0
 10 11  2  0
 10 12  1  0
 12 13  2  0
 13 14  1  0
 14 15  2  0
 15 16  1  0
 16 17  2  0
 16 18  2  0
 16 19  1  0
 19 20  1  0
 19 21  1  0
 21 22  2  0
 22 23  1  0
 23 24  2  0
 24 25  1  0
 25 26  3  0
 24 27  1  0
 27 28  2  0
 15 29  1  0
 29 30  2  0
  8 31  1  0
 31 32  2  0
 32  5  1  0
 30 12  1  0
 28 21  1  0
  1 33  1  0
  1 34  1  0
  1 35  1  0
  6 36  1  0
  7 37  1  0
  9 38  1  0
 13 39  1  0
 14 40  1  0
 20 41  1  0
 20 42  1  0
 20 43  1  0
 22 44  1  0
 23 45  1  0
 27 46  1  0
 28 47  1  0
 29 48  1  0
 30 49  1  0
 31 50  1  0
 32 51  1  0
M  CHG  1   4  -1
M  END
>  <UniqueID>  (12) 
12

>  <SMILES>  (12) 
CC(=O)[N-]c1ccc(NC(=O)c2ccc(S(=O)(=O)N(C)c3ccc(C#N)cc3)cc2)cc1

>  <Energy>  (12) 
66.50753197182897

>  <Genealogy>  (12) 
CC(=O)[N-]c1ccc(NC(=O)c2ccc(S(=O)(=O)N(C)c3ccc(C#N)cc3)cc2)cc1 (protonated)
CC(=O)[N-]c1ccc(NC(=O)c2ccc(S(=O)(=O)N(C)c3ccc(C#N)cc3)cc2)cc1 (3D coordinates assigned)
CC(=O)[N-]c1ccc(NC(=O)c2ccc(S(=O)(=O)N(C)c3ccc(C#N)cc3)cc2)cc1 (optimized conformer: 66.50753197182897 kcal/mol)

>  <smiles>  (12) 
CC(=O)Nc1ccc(NC(=O)c2ccc(S(=O)(=O)N(C)c3ccc(C#N)cc3)cc2)cc1

>  <score_type>  (12) 
oracle

>  <origin>  (12) 
adgpu

>  <m_score__min__energy>  (12) 
-9.2100000000000009

>  <m_primary>  (12) 
energy

$$$$
12:0
     RDKit          3D

 72 76  0  0  0  0  0  0  0  0999 V2000
   -5.2477   19.1628  -33.3895 H   0  0  0  0  0  0  0  0  0  0  0  0
   -4.6170   20.0180  -33.1050 C   0  0  0  0  0  0  0  0  0  0  0  0
   -5.1740   21.0920  -32.4080 C   0  0  0  0  0  0  0  0  0  0  0  0
   -6.2358   21.0685  -32.1216 H   0  0  0  0  0  0  0  0  0  0  0  0
   -4.3810   22.2040  -32.0710 C   0  0  0  0  0  0  0  0  0  0  0  0
   -4.8980   23.3070  -31.3090 N   0  0  0  0  0  0  0  0  0  0  0  0
   -4.1560   24.1650  -30.4360 C   0  0  0  0  0  0  0  0  0  0  0  0
   -3.8690   25.3410  -30.7910 O   0  0  0  0  0  0  0  0  0  0  0  0
   -3.7470   23.6710  -29.1530 N   0  0  0  0  0  0  0  0  0  0  0  0
   -4.1830   22.7810  -28.8180 H   0  0  0  0  0  0  0  0  0  0  0  0
   -2.9340   24.4180  -28.2320 C   0  0  0  0  0  0  0  0  0  0  0  0
   -3.3700   24.5870  -26.9110 C   0  0  0  0  0  0  0  0  0  0  0  0
   -4.3242   24.1437  -26.5900 H   0  0  0  0  0  0  0  0  0  0  0  0
   -2.6010   25.3150  -25.9980 C   0  0  0  0  0  0  0  0  0  0  0  0
   -2.9624   25.4542  -24.9684 H   0  0  0  0  0  0  0  0  0  0  0  0
   -1.3700   25.8700  -26.3860 C   0  0  0  0  0  0  0  0  0  0  0  0
   -0.5490   26.6620  -25.3870 C   0  0  0  0  0  0  0  0  0  0  0  0
    0.5133   26.4796  -25.6067 H   0  0  0  0  0  0  0  0  0  0  0  0
   -0.8120   26.1920  -23.9520 C   0  0  0  0  0  0  0  0  0  0  0  0
   -0.4008   26.9269  -23.2443 H   0  0  0  0  0  0  0  0  0  0  0  0
   -1.8958   26.0945  -23.7909 H   0  0  0  0  0  0  0  0  0  0  0  0
   -0.3282   25.2173  -23.7909 H   0  0  0  0  0  0  0  0  0  0  0  0
   -0.8110   28.1650  -25.5320 C   0  0  0  0  0  0  0  0  0  0  0  0
   -0.8905   28.6213  -24.5343 H   0  0  0  0  0  0  0  0  0  0  0  0
    0.0195   28.6305  -26.0829 H   0  0  0  0  0  0  0  0  0  0  0  0
   -1.7501   28.3220  -26.0829 H   0  0  0  0  0  0  0  0  0  0  0  0
   -0.9140   25.6610  -27.7010 C   0  0  0  0  0  0  0  0  0  0  0  0
    0.0605   26.0658  -28.0117 H   0  0  0  0  0  0  0  0  0  0  0  0
   -1.6900   24.9430  -28.6150 C   0  0  0  0  0  0  0  0  0  0  0  0
   -1.3237   24.7884  -29.6406 H   0  0  0  0  0  0  0  0  0  0  0  0
   -3.0220   22.2010  -32.4070 C   0  0  0  0  0  0  0  0  0  0  0  0
   -2.3970   23.0684  -32.1481 H   0  0  0  0  0  0  0  0  0  0  0  0
   -2.4480   21.1090  -33.0680 C   0  0  0  0  0  0  0  0  0  0  0  0
   -1.0760   21.1420  -33.3550 O   0  0  0  0  0  0  0  0  0  0  0  0
   -0.1090   20.3510  -32.7190 C   0  0  0  0  0  0  0  0  0  0  0  0
    0.8150   19.6630  -33.4380 N   0  0  0  0  0  0  0  0  0  0  0  0
    1.7320   18.8770  -32.8170 C   0  0  0  0  0  0  0  0  0  0  0  0
    2.7290   18.1760  -33.5910 N   0  0  0  0  0  0  0  0  0  0  0  0
    4.1560   18.2550  -33.2420 C   0  0  0  0  0  0  0  0  0  0  0  0
    4.3257   19.1597  -32.6398 H   0  0  0  0  0  0  0  0  0  0  0  0
    4.4206   17.3488  -32.6774 H   0  0  0  0  0  0  0  0  0  0  0  0
    5.0520   18.3160  -34.5000 C   0  0  0  0  0  0  0  0  0  0  0  0
    5.3021   19.3696  -34.6934 H   0  0  0  0  0  0  0  0  0  0  0  0
    5.9361   17.6975  -34.2858 H   0  0  0  0  0  0  0  0  0  0  0  0
    4.4330   17.7580  -35.7170 N   0  0  0  0  0  0  0  0  0  0  0  0
    3.9160   18.5220  -36.2140 H   0  0  0  0  0  0  0  0  0  0  0  0
    3.4890   16.6800  -35.4110 C   0  0  0  0  0  0  0  0  0  0  0  0
    3.1344   16.2289  -36.3495 H   0  0  0  0  0  0  0  0  0  0  0  0
    3.9956   15.9188  -34.7995 H   0  0  0  0  0  0  0  0  0  0  0  0
    2.2930   17.2370  -34.6320 C   0  0  0  0  0  0  0  0  0  0  0  0
    1.6226   17.7604  -35.3296 H   0  0  0  0  0  0  0  0  0  0  0  0
    1.7708   16.3983  -34.1484 H   0  0  0  0  0  0  0  0  0  0  0  0
    1.7060   18.7710  -31.4600 N   0  0  0  0  0  0  0  0  0  0  0  0
    0.7780   19.4430  -30.7330 C   0  0  0  0  0  0  0  0  0  0  0  0
    0.7990   19.3410  -29.4350 N   0  0  0  0  0  0  0  0  0  0  0  0
   -0.1160   19.9480  -28.5060 C   0  0  0  0  0  0  0  0  0  0  0  0
   -0.0960   21.3280  -28.2300 C   0  0  0  0  0  0  0  0  0  0  0  0
    0.6434   21.9751  -28.7245 H   0  0  0  0  0  0  0  0  0  0  0  0
   -1.0120   21.8790  -27.3300 C   0  0  0  0  0  0  0  0  0  0  0  0
   -0.9787   22.9548  -27.1028 H   0  0  0  0  0  0  0  0  0  0  0  0
   -1.9700   21.0670  -26.7180 C   0  0  0  0  0  0  0  0  0  0  0  0
   -2.6768   21.5015  -25.9958 H   0  0  0  0  0  0  0  0  0  0  0  0
   -2.0330   19.6990  -27.0220 C   0  0  0  0  0  0  0  0  0  0  0  0
   -3.0410   18.8180  -26.3450 C   0  0  0  0  0  0  0  0  0  0  0  0
   -2.9350   18.9107  -25.2540 H   0  0  0  0  0  0  0  0  0  0  0  0
   -4.0546   19.1249  -26.6423 H   0  0  0  0  0  0  0  0  0  0  0  0
   -2.8725   17.7724  -26.6423 H   0  0  0  0  0  0  0  0  0  0  0  0
   -1.0990   19.1460  -27.9130 C   0  0  0  0  0  0  0  0  0  0  0  0
   -1.1399   18.0721  -28.1475 H   0  0  0  0  0  0  0  0  0  0  0  0
   -0.1230   20.2410  -31.3680 N   0  0  0  0  0  0  0  0  0  0  0  0
   -3.2620   20.0260  -33.4420 C   0  0  0  0  0  0  0  0  0  0  0  0
   -2.8307   19.1828  -34.0014 H   0  0  0  0  0  0  0  0  0  0  0  0
  1  2  1  0
  2  3  2  0
  3  4  1  0
  3  5  1  0
  5  6  1  0
  6  7  1  0
  7  8  2  0
  7  9  1  0
  9 10  1  0
  9 11  1  0
 11 12  2  0
 12 13  1  0
 12 14  1  0
 14 15  1  0
 14 16  2  0
 16 17  1  0
 17 18  1  0
 17 19  1  0
 19 20  1  0
 19 21  1  0
 19 22  1  0
 17 23  1  0
 23 24  1  0
 23 25  1  0
 23 26  1  0
 16 27  1  0
 27 28  1  0
 27 29  2  0
 29 30  1  0
  5 31  2  0
 31 32  1  0
 31 33  1  0
 33 34  1  0
 34 35  1  0
 35 36  2  0
 36 37  1  0
 37 38  1  0
 38 39  1  0
 39 40  1  0
 39 41  1  0
 39 42  1  0
 42 43  1  0
 42 44  1  0
 42 45  1  0
 45 46  1  0
 45 47  1  0
 47 48  1  0
 47 49  1  0
 47 50  1  0
 50 51  1  0
 50 52  1  0
 37 53  2  0
 53 54  1  0
 54 55  2  0
 55 56  1  0
 56 57  2  0
 57 58  1  0
 57 59  1  0
 59 60  1  0
 59 61  2  0
 61 62  1  0
 61 63  1  0
 63 64  1  0
 64 65  1  0
 64 66  1  0
 64 67  1  0
 63 68  2  0
 68 69  1  0
 54 70  1  0
 33 71  2  0
 71 72  1  0
 71  2  1  0
 29 11  1  0
 70 35  1  0
 50 38  1  0
 68 56  1  0
M  CHG  2   6  -1  70  -1
M  END
>  <UniqueID>  (13) 
13

>  <SMILES>  (13) 
Cc1cccc(/N=c2/nc(N3CCNCC3)nc(Oc3cccc([N-]C(=O)Nc4ccc(C(C)C)cc4)c3)[n-]2)c1

>  <Energy>  (13) 
95.75754029521936

>  <Genealogy>  (13) 
Cc1cccc(N=c2nc(N3CCNCC3)nc(Oc3cccc([N-]C(=O)Nc4ccc(C(C)C)cc4)c3)[n-]2)c1 (protonated)
Cc1cccc(/N=c2/nc(N3CCNCC3)nc(Oc3cccc([N-]C(=O)Nc4ccc(C(C)C)cc4)c3)[n-]2)c1 (cis-trans isomerization)
Cc1cccc(/N=c2/nc(N3CCNCC3)nc(Oc3cccc([N-]C(=O)Nc4ccc(C(C)C)cc4)c3)[n-]2)c1 (3D coordinates assigned)
Cc1cccc(/N=c2/nc(N3CCNCC3)nc(Oc3cccc([N-]C(=O)Nc4ccc(C(C)C)cc4)c3)[n-]2)c1 (nonaromatic ring conformer: 95.75754029521936 kcal/mol)

>  <smiles>  (13) 
Cc1cccc(N=c2nc(N3CCNCC3)nc(Oc3cccc(NC(=O)Nc4ccc(C(C)C)cc4)c3)[nH]2)c1

>  <score_type>  (13) 
oracle

>  <origin>  (13) 
adgpu

>  <m_score__min__energy>  (13) 
-12.369999999999999

>  <m_primary>  (13) 
energy

$$$$
13:0
     RDKit          3D

 46 49  0  0  0  0  0  0  0  0999 V2000
   -7.0510   24.3170  -30.5370 C   0  0  0  0  0  0  0  0  0  0  0  0
   -6.0980   23.3150  -31.1050 C   0  0  0  0  0  0  0  0  0  0  0  0
   -6.4960   22.2130  -31.7080 O   0  0  0  0  0  0  0  0  0  0  0  0
   -5.4300   21.5520  -32.0860 C   0  0  0  0  0  0  0  0  0  0  0  0
   -4.2890   22.2180  -31.7340 C   0  0  0  0  0  0  0  0  0  0  0  0
   -4.7020   23.3810  -31.0870 C   0  0  0  0  0  0  0  0  0  0  0  0
   -3.8760   24.4560  -30.4940 C   0  0  0  0  0  0  0  0  0  0  0  0
   -4.1670   25.6640  -30.6960 O   0  0  0  0  0  0  0  0  0  0  0  0
   -2.7300   24.1180  -29.7020 N   0  0  0  0  0  0  0  0  0  0  0  0
   -2.7040   23.9640  -28.2470 C   0  0  1  0  0  0  0  0  0  0  0  0
   -3.9730   24.5480  -27.6070 C   0  0  0  0  0  0  0  0  0  0  0  0
   -2.4020   22.5240  -27.8660 C   0  0  0  0  0  0  0  0  0  0  0  0
   -2.9200   21.4240  -28.5810 C   0  0  0  0  0  0  0  0  0  0  0  0
   -2.5770   20.1170  -28.2170 C   0  0  0  0  0  0  0  0  0  0  0  0
   -1.7100   19.8920  -27.1460 C   0  0  0  0  0  0  0  0  0  0  0  0
   -1.1790   20.9730  -26.4390 C   0  0  0  0  0  0  0  0  0  0  0  0
   -1.5170   22.2800  -26.7990 C   0  0  0  0  0  0  0  0  0  0  0  0
   -3.0330   21.7070  -32.0810 C   0  0  0  0  0  0  0  0  0  0  0  0
   -1.9920   22.3590  -31.8030 O   0  0  0  0  0  0  0  0  0  0  0  0
   -2.9540   20.4960  -32.7420 N   0  0  0  0  0  0  0  0  0  0  0  0
   -1.6290   19.9400  -33.0820 C   0  0  0  0  0  0  0  0  0  0  0  0
   -4.1110   19.8090  -33.1000 C   0  0  0  0  0  0  0  0  0  0  0  0
   -4.0730   18.5820  -33.8050 C   0  0  0  0  0  0  0  0  0  0  0  0
   -5.2540   17.9200  -34.1580 C   0  0  0  0  0  0  0  0  0  0  0  0
   -6.4940   18.4620  -33.8200 C   0  0  0  0  0  0  0  0  0  0  0  0
   -6.5660   19.6690  -33.1280 C   0  0  0  0  0  0  0  0  0  0  0  0
   -5.3890   20.3430  -32.7690 C   0  0  0  0  0  0  0  0  0  0  0  0
   -7.0132   24.2772  -29.4384 H   0  0  0  0  0  0  0  0  0  0  0  0
   -6.7697   25.3245  -30.8773 H   0  0  0  0  0  0  0  0  0  0  0  0
   -8.0713   24.0866  -30.8773 H   0  0  0  0  0  0  0  0  0  0  0  0
   -1.8774   24.5564  -27.8278 H   0  0  0  0  0  0  0  0  0  0  0  0
   -3.8834   24.5068  -26.5114 H   0  0  0  0  0  0  0  0  0  0  0  0
   -4.0965   25.5935  -27.9257 H   0  0  0  0  0  0  0  0  0  0  0  0
   -4.8475   23.9618  -27.9257 H   0  0  0  0  0  0  0  0  0  0  0  0
   -3.5980   21.5946  -29.4302 H   0  0  0  0  0  0  0  0  0  0  0  0
   -2.9914   19.2650  -28.7759 H   0  0  0  0  0  0  0  0  0  0  0  0
   -1.4453   18.8636  -26.8592 H   0  0  0  0  0  0  0  0  0  0  0  0
   -0.4935   20.7951  -25.5973 H   0  0  0  0  0  0  0  0  0  0  0  0
   -1.0874   23.1265  -26.2432 H   0  0  0  0  0  0  0  0  0  0  0  0
   -1.0798   19.7095  -32.1572 H   0  0  0  0  0  0  0  0  0  0  0  0
   -1.7576   19.0200  -33.6710 H   0  0  0  0  0  0  0  0  0  0  0  0
   -1.0626   20.6763  -33.6710 H   0  0  0  0  0  0  0  0  0  0  0  0
   -3.1022   18.1433  -34.0789 H   0  0  0  0  0  0  0  0  0  0  0  0
   -5.2043   16.9670  -34.7050 H   0  0  0  0  0  0  0  0  0  0  0  0
   -7.4178   17.9349  -34.1007 H   0  0  0  0  0  0  0  0  0  0  0  0
   -7.5456   20.0936  -32.8631 H   0  0  0  0  0  0  0  0  0  0  0  0
  1  2  1  0
  2  3  1  0
  3  4  1  0
  4  5  2  0
  5  6  1  0
  6  7  1  0
  7  8  2  0
  7  9  1  0
  9 10  1  0
 10 11  1  0
 10 12  1  0
 12 13  2  0
 13 14  1  0
 14 15  2  0
 15 16  1  0
 16 17  2  0
  5 18  1  0
 18 19  2  0
 18 20  1  0
 20 21  1  0
 20 22  1  0
 22 23  2  0
 23 24  1  0
 24 25  2  0
 25 26  1  0
 26 27  2  0
  6  2  2  0
 17 12  1  0
 27 22  1  0
 27  4  1  0
  1 28  1  0
  1 29  1  0
  1 30  1  0
 10 31  1  1
 11 32  1  0
 11 33  1  0
 11 34  1  0
 13 35  1  0
 14 36  1  0
 15 37  1  0
 16 38  1  0
 17 39  1  0
 21 40  1  0
 21 41  1  0
 21 42  1  0
 23 43  1  0
 24 44  1  0
 25 45  1  0
 26 46  1  0
M  CHG  1   9  -1
M  END
>  <UniqueID>  (14) 
14

>  <SMILES>  (14) 
Cc1oc2c(c1C(=O)[N-][C@@H](C)c1ccccc1)c(=O)n(C)c1ccccc21

>  <Energy>  (14) 
96.45910429079018

>  <Genealogy>  (14) 
Cc1oc2c(c1C(=O)[N-]C(C)c1ccccc1)c(=O)n(C)c1ccccc21 (protonated)
Cc1oc2c(c1C(=O)[N-][C@@H](C)c1ccccc1)c(=O)n(C)c1ccccc21 (chirality)
Cc1oc2c(c1C(=O)[N-][C@@H](C)c1ccccc1)c(=O)n(C)c1ccccc21 (3D coordinates assigned)
Cc1oc2c(c1C(=O)[N-][C@@H](C)c1ccccc1)c(=O)n(C)c1ccccc21 (optimized conformer: 96.45910429079018 kcal/mol)

>  <smiles>  (14) 
Cc1oc2c(c1C(=O)NC(C)c1ccccc1)c(=O)n(C)c1ccccc21

>  <score_type>  (14) 
oracle

>  <origin>  (14) 
adgpu

>  <m_score__min__energy>  (14) 
-10.82

>  <m_primary>  (14) 
energy

$$$$
14:0
     RDKit          3D

 41 43  0  0  0  0  0  0  0  0999 V2000
   -8.3090   18.3160  -31.9550 C   0  0  0  0  0  0  0  0  0  0  0  0
   -6.9290   18.0980  -32.3680 N   0  0  0  0  0  0  0  0  0  0  0  0
   -6.1730   18.9890  -33.1980 C   0  0  0  0  0  0  0  0  0  0  0  0
   -6.4330   19.0350  -34.4300 O   0  0  0  0  0  0  0  0  0  0  0  0
   -5.1300   19.8800  -32.6540 C   0  0  0  0  0  0  0  0  0  0  0  0
   -4.8340   19.8510  -31.2820 C   0  0  0  0  0  0  0  0  0  0  0  0
   -3.8580   20.6990  -30.7520 C   0  0  0  0  0  0  0  0  0  0  0  0
   -3.1830   21.6060  -31.5770 C   0  0  0  0  0  0  0  0  0  0  0  0
   -2.1980   22.4260  -31.0100 O   0  0  0  0  0  0  0  0  0  0  0  0
   -2.2050   22.9360  -29.7020 C   0  0  0  0  0  0  0  0  0  0  0  0
   -1.5660   22.2550  -28.6520 C   0  0  0  0  0  0  0  0  0  0  0  0
   -1.6240   22.7740  -27.3570 C   0  0  0  0  0  0  0  0  0  0  0  0
   -2.2860   23.9330  -27.1160 N   0  0  0  0  0  0  0  0  0  0  0  0
   -2.8920   24.6280  -28.1140 C   0  0  0  0  0  0  0  0  0  0  0  0
   -2.8390   24.1670  -29.4340 C   0  0  0  0  0  0  0  0  0  0  0  0
   -3.4880   24.9390  -30.4570 N   0  0  0  0  0  0  0  0  0  0  0  0
   -4.8920   25.2180  -30.5600 C   0  0  0  0  0  0  0  0  0  0  0  0
   -5.2740   26.4150  -30.4710 O   0  0  0  0  0  0  0  0  0  0  0  0
   -5.8940   24.1540  -30.8090 C   0  0  0  0  0  0  0  0  0  0  0  0
   -6.5300   23.5210  -29.7250 C   0  0  0  0  0  0  0  0  0  0  0  0
   -7.4620   22.5040  -29.9500 C   0  0  0  0  0  0  0  0  0  0  0  0
   -7.7760   22.1150  -31.2550 C   0  0  0  0  0  0  0  0  0  0  0  0
   -8.6800   21.1270  -31.4690 F   0  0  0  0  0  0  0  0  0  0  0  0
   -7.1630   22.7500  -32.3380 C   0  0  0  0  0  0  0  0  0  0  0  0
   -6.2300   23.7680  -32.1190 C   0  0  0  0  0  0  0  0  0  0  0  0
   -3.4790   21.6390  -32.9500 C   0  0  0  0  0  0  0  0  0  0  0  0
   -4.4550   20.7900  -33.4820 C   0  0  0  0  0  0  0  0  0  0  0  0
   -8.3659   18.3250  -30.8565 H   0  0  0  0  0  0  0  0  0  0  0  0
   -8.6614   19.2809  -32.3483 H   0  0  0  0  0  0  0  0  0  0  0  0
   -8.9417   17.5067  -32.3483 H   0  0  0  0  0  0  0  0  0  0  0  0
   -5.3733   19.1570  -30.6206 H   0  0  0  0  0  0  0  0  0  0  0  0
   -3.6186   20.6534  -29.6793 H   0  0  0  0  0  0  0  0  0  0  0  0
   -1.0234   21.3187  -28.8490 H   0  0  0  0  0  0  0  0  0  0  0  0
   -1.1315   22.2415  -26.5301 H   0  0  0  0  0  0  0  0  0  0  0  0
   -3.4283   25.5601  -27.8824 H   0  0  0  0  0  0  0  0  0  0  0  0
   -6.2925   23.8280  -28.6958 H   0  0  0  0  0  0  0  0  0  0  0  0
   -7.9497   22.0085  -29.0976 H   0  0  0  0  0  0  0  0  0  0  0  0
   -7.4150   22.4483  -33.3654 H   0  0  0  0  0  0  0  0  0  0  0  0
   -5.7563   24.2696  -32.9757 H   0  0  0  0  0  0  0  0  0  0  0  0
   -2.9408   22.3356  -33.6096 H   0  0  0  0  0  0  0  0  0  0  0  0
   -4.6946   20.8358  -34.5546 H   0  0  0  0  0  0  0  0  0  0  0  0
  1  2  1  0
  2  3  1  0
  3  4  2  0
  3  5  1  0
  5  6  2  0
  6  7  1  0
  7  8  2  0
  8  9  1  0
  9 10  1  0
 10 11  2  0
 11 12  1  0
 12 13  2  0
 13 14  1  0
 14 15  2  0
 15 16  1  0
 16 17  1  0
 17 18  2  0
 17 19  1  0
 19 20  2  0
 20 21  1  0
 21 22  2  0
 22 23  1  0
 22 24  1  0
 24 25  2  0
  8 26  1  0
 26 27  2  0
 27  5  1  0
 15 10  1  0
 25 19  1  0
  1 28  1  0
  1 29  1  0
  1 30  1  0
  6 31  1  0
  7 32  1  0
 11 33  1  0
 12 34  1  0
 14 35  1  0
 20 36  1  0
 21 37  1  0
 24 38  1  0
 25 39  1  0
 26 40  1  0
 27 41  1  0
M  CHG  2   2  -1  16  -1
M  END
>  <UniqueID>  (15) 
15

>  <SMILES>  (15) 
C[N-]C(=O)c1ccc(Oc2ccncc2[N-]C(=O)c2ccc(F)cc2)cc1

>  <Energy>  (15) 
61.92969127838344

>  <Genealogy>  (15) 
C[N-]C(=O)c1ccc(Oc2ccncc2[N-]C(=O)c2ccc(F)cc2)cc1 (protonated)
C[N-]C(=O)c1ccc(Oc2ccncc2[N-]C(=O)c2ccc(F)cc2)cc1 (3D coordinates assigned)
C[N-]C(=O)c1ccc(Oc2ccncc2[N-]C(=O)c2ccc(F)cc2)cc1 (optimized conformer: 61.92969127838344 kcal/mol)

>  <smiles>  (15) 
CNC(=O)c1ccc(Oc2ccncc2NC(=O)c2ccc(F)cc2)cc1

>  <score_type>  (15) 
oracle

>  <origin>  (15) 
adgpu

>  <m_score__min__energy>  (15) 
-9.2799999999999994

>  <m_primary>  (15) 
energy

$$$$
15:0
     RDKit          3D

 41 43  0  0  0  0  0  0  0  0999 V2000
    0.7723   21.3698  -32.4007 H   0  0  0  0  0  0  0  0  0  0  0  0
   -0.2960   21.1470  -32.5390 C   0  0  0  0  0  0  0  0  0  0  0  0
   -0.9640   20.2430  -33.7950 S   0  0  0  0  0  0  0  0  0  0  0  0
   -2.5300   20.4030  -33.2180 C   0  0  0  0  0  0  0  0  0  0  0  0
   -3.5690   19.9040  -33.8240 N   0  0  0  0  0  0  0  0  0  0  0  0
   -4.9230   19.9160  -33.3500 C   0  0  0  0  0  0  0  0  0  0  0  0
   -5.5890   18.7390  -33.2220 N   0  0  0  0  0  0  0  0  0  0  0  0
   -6.8480   18.6920  -32.7140 C   0  0  0  0  0  0  0  0  0  0  0  0
   -7.5730   17.3910  -32.6330 C   0  0  0  0  0  0  0  0  0  0  0  0
   -7.7238   17.1204  -31.5775 H   0  0  0  0  0  0  0  0  0  0  0  0
   -8.5495   17.4838  -33.1309 H   0  0  0  0  0  0  0  0  0  0  0  0
   -6.9804   16.6094  -33.1309 H   0  0  0  0  0  0  0  0  0  0  0  0
   -7.4650   19.8390  -32.3260 N   0  0  0  0  0  0  0  0  0  0  0  0
   -6.8410   21.0460  -32.4110 C   0  0  0  0  0  0  0  0  0  0  0  0
   -7.5640   22.2830  -31.9120 C   0  0  0  0  0  0  0  0  0  0  0  0
   -8.5957   22.2284  -32.2895 H   0  0  0  0  0  0  0  0  0  0  0  0
   -6.9800   23.6000  -32.4990 C   0  0  0  0  0  0  0  0  0  0  0  0
   -7.7830   24.1272  -33.0349 H   0  0  0  0  0  0  0  0  0  0  0  0
   -6.1491   23.3155  -33.1613 H   0  0  0  0  0  0  0  0  0  0  0  0
   -6.4030   24.5470  -31.4380 C   0  0  0  0  0  0  0  0  0  0  0  0
   -7.2276   25.0869  -30.9497 H   0  0  0  0  0  0  0  0  0  0  0  0
   -5.7207   25.2552  -31.9309 H   0  0  0  0  0  0  0  0  0  0  0  0
   -5.6490   23.7950  -30.4210 N   0  0  0  0  0  0  0  0  0  0  0  0
   -4.3180   24.2100  -30.0390 C   0  0  0  0  0  0  0  0  0  0  0  0
   -3.8380   25.2900  -30.4780 O   0  0  0  0  0  0  0  0  0  0  0  0
   -3.4700   23.3690  -29.1320 C   0  0  0  0  0  0  0  0  0  0  0  0
   -3.7080   23.6051  -28.0843 H   0  0  0  0  0  0  0  0  0  0  0  0
   -3.6724   22.3048  -29.3232 H   0  0  0  0  0  0  0  0  0  0  0  0
   -2.4075   23.5802  -29.3232 H   0  0  0  0  0  0  0  0  0  0  0  0
   -6.3030   22.6740  -29.7250 C   0  0  0  0  0  0  0  0  0  0  0  0
   -6.4803   22.9610  -28.6780 H   0  0  0  0  0  0  0  0  0  0  0  0
   -5.6391   21.7994  -29.7910 H   0  0  0  0  0  0  0  0  0  0  0  0
   -7.6460   22.3000  -30.3710 C   0  0  0  0  0  0  0  0  0  0  0  0
   -8.4042   23.0355  -30.0642 H   0  0  0  0  0  0  0  0  0  0  0  0
   -7.9134   21.2874  -30.0347 H   0  0  0  0  0  0  0  0  0  0  0  0
   -5.5300   21.0990  -32.9090 C   0  0  0  0  0  0  0  0  0  0  0  0
   -4.9874   22.0549  -32.9524 H   0  0  0  0  0  0  0  0  0  0  0  0
   -2.5700   21.1530  -32.0910 N   0  0  0  0  0  0  0  0  0  0  0  0
   -3.4340   21.4420  -31.5830 H   0  0  0  0  0  0  0  0  0  0  0  0
   -1.3310   21.5620  -31.7080 C   0  0  0  0  0  0  0  0  0  0  0  0
   -1.1605   22.1740  -30.8100 H   0  0  0  0  0  0  0  0  0  0  0  0
  1  2  1  0
  2  3  1  0
  3  4  1  0
  4  5  2  0
  5  6  1  0
  6  7  2  0
  7  8  1  0
  8  9  1  0
  9 10  1  0
  9 11  1  0
  9 12  1  0
  8 13  2  0
 13 14  1  0
 14 15  1  0
 15 16  1  0
 15 17  1  0
 17 18  1  0
 17 19  1  0
 17 20  1  0
 20 21  1  0
 20 22  1  0
 20 23  1  0
 23 24  1  0
 24 25  2  0
 24 26  1  0
 26 27  1  0
 26 28  1  0
 26 29  1  0
 23 30  1  0
 30 31  1  0
 30 32  1  0
 30 33  1  0
 33 34  1  0
 33 35  1  0
 14 36  2  0
 36 37  1  0
  4 38  1  0
 38 39  1  0
 38 40  1  0
 40 41  1  0
 40  2  2  0
 36  6  1  0
 33 15  1  0
M  END
>  <UniqueID>  (16) 
16

>  <SMILES>  (16) 
CC(=O)N1CCC(c2cc(/N=c3\[nH]ccs3)nc(C)n2)CC1

>  <Energy>  (16) 
80.40431396854822

>  <Genealogy>  (16) 
CC(=O)N1CCC(c2cc(/N=c3\[nH]ccs3)nc(C)n2)CC1 (cis-trans isomerization)
CC(=O)N1CCC(c2cc(/N=c3\[nH]ccs3)nc(C)n2)CC1 (3D coordinates assigned)
CC(=O)N1CCC(c2cc(/N=c3\[nH]ccs3)nc(C)n2)CC1 (nonaromatic ring conformer: 80.40431396854822 kcal/mol)

>  <smiles>  (16) 
CC(=O)N1CCC(c2cc(N=c3[nH]ccs3)nc(C)n2)CC1

>  <score_type>  (16) 
oracle

>  <origin>  (16) 
adgpu

>  <m_score__min__energy>  (16) 
-8.0199999999999996

>  <m_primary>  (16) 
energy

$$$$
16:0
     RDKit          3D

 32 34  0  0  0  0  0  0  0  0999 V2000
   -5.8044   19.7258  -34.8496 H   0  0  0  0  0  0  0  0  0  0  0  0
   -6.3740   19.3190  -34.0010 C   0  0  0  0  0  0  0  0  0  0  0  0
   -7.1440   20.1000  -33.1980 N   0  0  0  0  0  0  0  0  0  0  0  0
   -7.7410   19.3700  -32.2300 C   0  0  0  0  0  0  0  0  0  0  0  0
   -8.5300   19.8690  -31.3300 N   0  0  0  0  0  0  0  0  0  0  0  0
   -8.9280   21.5540  -31.2450 S   0  0  0  0  0  0  0  0  0  0  0  0
   -9.8610   21.8010  -30.0930 O   0  0  0  0  0  0  0  0  0  0  0  0
   -9.5880   21.9660  -32.5330 O   0  0  0  0  0  0  0  0  0  0  0  0
   -7.4580   22.4900  -31.0070 C   0  0  0  0  0  0  0  0  0  0  0  0
   -6.5650   22.6760  -32.0700 C   0  0  0  0  0  0  0  0  0  0  0  0
   -6.7863   22.2396  -33.0552 H   0  0  0  0  0  0  0  0  0  0  0  0
   -5.3930   23.4150  -31.8820 C   0  0  0  0  0  0  0  0  0  0  0  0
   -4.7049   23.5706  -32.7259 H   0  0  0  0  0  0  0  0  0  0  0  0
   -5.0880   23.9590  -30.6270 C   0  0  0  0  0  0  0  0  0  0  0  0
   -3.8850   24.7270  -30.4840 N   0  0  0  0  0  0  0  0  0  0  0  0
   -2.7600   24.4070  -29.6560 C   0  0  0  0  0  0  0  0  0  0  0  0
   -1.9400   25.2990  -29.3120 O   0  0  0  0  0  0  0  0  0  0  0  0
   -2.5920   23.0350  -29.1570 C   0  0  0  0  0  0  0  0  0  0  0  0
   -1.7990   22.0460  -29.7040 C   0  0  0  0  0  0  0  0  0  0  0  0
   -1.1735   22.1556  -30.6021 H   0  0  0  0  0  0  0  0  0  0  0  0
   -1.9090   20.9550  -28.9840 O   0  0  0  0  0  0  0  0  0  0  0  0
   -2.7400   21.1800  -27.9900 C   0  0  0  0  0  0  0  0  0  0  0  0
   -3.0249   20.4431  -27.2246 H   0  0  0  0  0  0  0  0  0  0  0  0
   -3.2010   22.4790  -28.0510 C   0  0  0  0  0  0  0  0  0  0  0  0
   -3.9058   22.9683  -27.3626 H   0  0  0  0  0  0  0  0  0  0  0  0
   -5.9960   23.7850  -29.5660 C   0  0  0  0  0  0  0  0  0  0  0  0
   -5.7825   24.2317  -28.5837 H   0  0  0  0  0  0  0  0  0  0  0  0
   -7.1680   23.0470  -29.7550 C   0  0  0  0  0  0  0  0  0  0  0  0
   -7.8656   22.9030  -28.9168 H   0  0  0  0  0  0  0  0  0  0  0  0
   -7.3470   17.7420  -32.3250 S   0  0  0  0  0  0  0  0  0  0  0  0
   -6.3590   17.9670  -33.6710 C   0  0  0  0  0  0  0  0  0  0  0  0
   -5.7986   17.1808  -34.1982 H   0  0  0  0  0  0  0  0  0  0  0  0
  1  2  1  0
  2  3  1  0
  3  4  1  0
  4  5  2  0
  5  6  1  0
  6  7  2  0
  6  8  2  0
  6  9  1  0
  9 10  2  0
 10 11  1  0
 10 12  1  0
 12 13  1  0
 12 14  2  0
 14 15  1  0
 15 16  1  0
 16 17  2  0
 16 18  1  0
 18 19  2  0
 19 20  1  0
 19 21  1  0
 21 22  1  0
 22 23  1  0
 22 24  2  0
 24 25  1  0
 14 26  1  0
 26 27  1  0
 26 28  2  0
 28 29  1  0
  4 30  1  0
 30 31  1  0
 31 32  1  0
 31  2  2  0
 28  9  1  0
 24 18  1  0
M  CHG  2   3  -1  15  -1
M  END
>  <UniqueID>  (17) 
17

>  <SMILES>  (17) 
O=C([N-]c1ccc(S(=O)(=O)/N=c2\[n-]ccs2)cc1)c1ccoc1

>  <Energy>  (17) 
97.06649059463744

>  <Genealogy>  (17) 
O=C([N-]c1ccc(S(=O)(=O)N=c2[n-]ccs2)cc1)c1ccoc1 (protonated)
O=C([N-]c1ccc(S(=O)(=O)/N=c2\[n-]ccs2)cc1)c1ccoc1 (cis-trans isomerization)
O=C([N-]c1ccc(S(=O)(=O)/N=c2\[n-]ccs2)cc1)c1ccoc1 (3D coordinates assigned)
O=C([N-]c1ccc(S(=O)(=O)/N=c2\[n-]ccs2)cc1)c1ccoc1 (optimized conformer: 97.06649059463744 kcal/mol)

>  <smiles>  (17) 
O=C(Nc1ccc(S(=O)(=O)N=c2[nH]ccs2)cc1)c1ccoc1

>  <score_type>  (17) 
oracle

>  <origin>  (17) 
adgpu

>  <m_score__min__energy>  (17) 
-9.7300000000000004

>  <m_primary>  (17) 
energy

$$$$
17:0
     RDKit          3D

 37 39  0  0  0  0  0  0  0  0999 V2000
    1.1940   25.7770  -26.7760 C   0  0  0  0  0  0  0  0  0  0  0  0
    1.1770   24.9130  -27.9080 O   0  0  0  0  0  0  0  0  0  0  0  0
    0.2140   23.9190  -28.1350 C   0  0  0  0  0  0  0  0  0  0  0  0
    0.3820   22.6790  -27.5120 C   0  0  0  0  0  0  0  0  0  0  0  0
   -0.5540   21.6600  -27.6990 C   0  0  0  0  0  0  0  0  0  0  0  0
   -1.6650   21.8690  -28.5160 C   0  0  0  0  0  0  0  0  0  0  0  0
   -1.8520   23.1010  -29.1670 C   0  0  0  0  0  0  0  0  0  0  0  0
   -3.0430   23.3090  -30.0280 C   0  0  0  0  0  0  0  0  0  0  0  0
   -3.4340   22.3610  -30.9880 C   0  0  0  0  0  0  0  0  0  0  0  0
   -4.5680   22.6190  -31.7680 C   0  0  0  0  0  0  0  0  0  0  0  0
   -4.9930   21.6590  -32.8400 C   0  0  0  0  0  0  0  0  0  0  0  0
   -6.3250   21.0550  -32.4930 C   0  0  0  0  0  0  0  0  0  0  0  0
   -6.5350   19.6730  -32.6370 C   0  0  0  0  0  0  0  0  0  0  0  0
   -7.7610   19.1050  -32.2770 C   0  0  0  0  0  0  0  0  0  0  0  0
   -8.7820   19.9090  -31.7640 C   0  0  0  0  0  0  0  0  0  0  0  0
   -8.5770   21.2830  -31.6050 C   0  0  0  0  0  0  0  0  0  0  0  0
   -7.3520   21.8550  -31.9640 C   0  0  0  0  0  0  0  0  0  0  0  0
   -5.2590   23.7750  -31.5870 N   0  0  0  0  0  0  0  0  0  0  0  0
   -4.8810   24.6760  -30.6460 C   0  0  0  0  0  0  0  0  0  0  0  0
   -5.7370   26.0500  -30.4430 S   0  0  0  0  0  0  0  0  0  0  0  0
   -3.7860   24.4400  -29.8770 N   0  0  0  0  0  0  0  0  0  0  0  0
   -0.9080   24.1290  -28.9610 C   0  0  0  0  0  0  0  0  0  0  0  0
    1.1822   25.1753  -25.8553 H   0  0  0  0  0  0  0  0  0  0  0  0
    2.1045   26.3939  -26.7992 H   0  0  0  0  0  0  0  0  0  0  0  0
    0.3085   26.4292  -26.7992 H   0  0  0  0  0  0  0  0  0  0  0  0
    1.2579   22.5048  -26.8698 H   0  0  0  0  0  0  0  0  0  0  0  0
   -0.4148   20.6894  -27.2005 H   0  0  0  0  0  0  0  0  0  0  0  0
   -2.4011   21.0630  -28.6521 H   0  0  0  0  0  0  0  0  0  0  0  0
   -2.8598   21.4328  -31.1246 H   0  0  0  0  0  0  0  0  0  0  0  0
   -5.0747   22.1950  -33.7971 H   0  0  0  0  0  0  0  0  0  0  0  0
   -4.2445   20.8573  -32.9232 H   0  0  0  0  0  0  0  0  0  0  0  0
   -5.7316   19.0354  -33.0346 H   0  0  0  0  0  0  0  0  0  0  0  0
   -7.9218   18.0236  -32.3979 H   0  0  0  0  0  0  0  0  0  0  0  0
   -9.7472   19.4611  -31.4852 H   0  0  0  0  0  0  0  0  0  0  0  0
   -9.3799   21.9147  -31.1972 H   0  0  0  0  0  0  0  0  0  0  0  0
   -7.1920   22.9352  -31.8317 H   0  0  0  0  0  0  0  0  0  0  0  0
   -1.0493   25.1041  -29.4501 H   0  0  0  0  0  0  0  0  0  0  0  0
  1  2  1  0
  2  3  1  0
  3  4  2  0
  4  5  1  0
  5  6  2  0
  6  7  1  0
  7  8  1  0
  8  9  1  0
  9 10  2  0
 10 11  1  0
 11 12  1  0
 12 13  2  0
 13 14  1  0
 14 15  2  0
 15 16  1  0
 16 17  2  0
 10 18  1  0
 18 19  1  0
 19 20  2  0
 19 21  1  0
  7 22  2  0
 22  3  1  0
 21  8  2  0
 17 12  1  0
  1 23  1  0
  1 24  1  0
  1 25  1  0
  4 26  1  0
  5 27  1  0
  6 28  1  0
  9 29  1  0
 11 30  1  0
 11 31  1  0
 13 32  1  0
 14 33  1  0
 15 34  1  0
 16 35  1  0
 17 36  1  0
 22 37  1  0
M  CHG  1  18  -1
M  END
>  <UniqueID>  (18) 
18

>  <SMILES>  (18) 
COc1cccc(-c2cc(Cc3ccccc3)[n-]c(=S)n2)c1

>  <Energy>  (18) 
41.503629085305455

>  <Genealogy>  (18) 
COc1cccc(-c2cc(Cc3ccccc3)[n-]c(=S)n2)c1 (protonated)
COc1cccc(-c2cc(Cc3ccccc3)[n-]c(=S)n2)c1 (3D coordinates assigned)
COc1cccc(-c2cc(Cc3ccccc3)[n-]c(=S)n2)c1 (optimized conformer: 41.503629085305455 kcal/mol)

>  <smiles>  (18) 
COc1cccc(-c2cc(Cc3ccccc3)[nH]c(=S)n2)c1

>  <score_type>  (18) 
oracle

>  <origin>  (18) 
adgpu

>  <m_score__min__energy>  (18) 
-8.6999999999999993

>  <m_primary>  (18) 
energy

$$$$
18:0
     RDKit          3D

 51 53  0  0  0  0  0  0  0  0999 V2000
    3.4900   24.1750  -25.8860 N   0  0  0  0  0  0  0  0  0  0  0  0
    3.1460   24.7640  -24.2970 S   0  0  0  0  0  0  0  0  0  0  0  0
    4.2440   25.6960  -23.8680 O   0  0  0  0  0  0  0  0  0  0  0  0
    3.0880   23.6090  -23.3340 O   0  0  0  0  0  0  0  0  0  0  0  0
    1.5920   25.6070  -24.3080 C   0  0  0  0  0  0  0  0  0  0  0  0
    1.4800   26.8680  -23.7020 C   0  0  0  0  0  0  0  0  0  0  0  0
    0.2600   27.5480  -23.7050 C   0  0  0  0  0  0  0  0  0  0  0  0
   -0.8570   26.9760  -24.3140 C   0  0  0  0  0  0  0  0  0  0  0  0
   -0.7580   25.7250  -24.9270 C   0  0  0  0  0  0  0  0  0  0  0  0
    0.4650   25.0240  -24.9280 C   0  0  0  0  0  0  0  0  0  0  0  0
    0.5870   23.7330  -25.5480 N   0  0  0  0  0  0  0  0  0  0  0  0
    0.7910   23.4560  -27.2490 S   0  0  0  0  0  0  0  0  0  0  0  0
    1.5940   24.5850  -27.8370 O   0  0  0  0  0  0  0  0  0  0  0  0
    1.5300   22.1630  -27.4540 O   0  0  0  0  0  0  0  0  0  0  0  0
   -0.7850   23.3370  -28.0260 C   0  0  0  0  0  0  0  0  0  0  0  0
   -1.9390   23.7040  -27.3230 C   0  0  0  0  0  0  0  0  0  0  0  0
   -3.1860   23.6800  -27.9550 C   0  0  0  0  0  0  0  0  0  0  0  0
   -3.2900   23.2960  -29.3030 C   0  0  0  0  0  0  0  0  0  0  0  0
   -4.5540   23.2970  -29.9860 N   0  0  0  0  0  0  0  0  0  0  0  0
   -5.0130   24.3840  -30.8030 C   0  0  0  0  0  0  0  0  0  0  0  0
   -4.3540   25.4570  -30.8740 O   0  0  0  0  0  0  0  0  0  0  0  0
   -6.2360   24.2360  -31.5360 N   0  0  0  0  0  0  0  0  0  0  0  0
   -6.9130   23.0050  -31.8370 C   0  0  0  0  0  0  0  0  0  0  0  0
   -8.2870   22.9190  -31.5840 C   0  0  0  0  0  0  0  0  0  0  0  0
   -8.9780   21.7300  -31.8340 C   0  0  0  0  0  0  0  0  0  0  0  0
   -8.3000   20.6130  -32.3310 C   0  0  0  0  0  0  0  0  0  0  0  0
   -6.9180   20.6730  -32.5770 C   0  0  0  0  0  0  0  0  0  0  0  0
   -6.1880   19.4930  -33.1030 C   0  0  0  0  0  0  0  0  0  0  0  0
   -6.2790   19.1610  -34.4950 N   0  0  0  0  0  0  0  0  0  0  0  0
   -5.4510   18.7620  -32.3190 N   0  0  0  0  0  0  0  0  0  0  0  0
   -6.2290   21.8710  -32.3160 C   0  0  0  0  0  0  0  0  0  0  0  0
   -2.1370   22.8800  -29.9880 C   0  0  0  0  0  0  0  0  0  0  0  0
   -0.8900   22.9080  -29.3560 C   0  0  0  0  0  0  0  0  0  0  0  0
    2.6610   23.6140  -26.1890 H   0  0  0  0  0  0  0  0  0  0  0  0
    2.3585   27.3236  -23.2217 H   0  0  0  0  0  0  0  0  0  0  0  0
    0.1800   28.5354  -23.2268 H   0  0  0  0  0  0  0  0  0  0  0  0
   -1.8179   27.5114  -24.3114 H   0  0  0  0  0  0  0  0  0  0  0  0
   -1.6408   25.2835  -25.4126 H   0  0  0  0  0  0  0  0  0  0  0  0
   -1.8643   24.0123  -26.2697 H   0  0  0  0  0  0  0  0  0  0  0  0
   -4.0894   23.9628  -27.3948 H   0  0  0  0  0  0  0  0  0  0  0  0
   -5.0760   22.3940  -30.0530 H   0  0  0  0  0  0  0  0  0  0  0  0
   -8.8258   23.7917  -31.1864 H   0  0  0  0  0  0  0  0  0  0  0  0
  -10.0591   21.6730  -31.6390 H   0  0  0  0  0  0  0  0  0  0  0  0
   -8.8514   19.6823  -32.5305 H   0  0  0  0  0  0  0  0  0  0  0  0
   -5.7290   18.3680  -34.8930 H   0  0  0  0  0  0  0  0  0  0  0  0
   -6.9350   19.6690  -35.1280 H   0  0  0  0  0  0  0  0  0  0  0  0
   -5.3230   18.9960  -31.3090 H   0  0  0  0  0  0  0  0  0  0  0  0
   -4.9300   17.9350  -32.6900 H   0  0  0  0  0  0  0  0  0  0  0  0
   -5.1438   21.9228  -32.4879 H   0  0  0  0  0  0  0  0  0  0  0  0
   -2.2152   22.5300  -31.0279 H   0  0  0  0  0  0  0  0  0  0  0  0
    0.0103   22.5927  -29.9038 H   0  0  0  0  0  0  0  0  0  0  0  0
  1  2  1  0
  2  3  2  0
  2  4  2  0
  2  5  1  0
  5  6  2  0
  6  7  1  0
  7  8  2  0
  8  9  1  0
  9 10  2  0
 10 11  1  0
 11 12  1  0
 12 13  2  0
 12 14  2  0
 12 15  1  0
 15 16  2  0
 16 17  1  0
 17 18  2  0
 18 19  1  0
 19 20  1  0
 20 21  2  0
 20 22  1  0
 22 23  1  0
 23 24  2  0
 24 25  1  0
 25 26  2  0
 26 27  1  0
 27 28  1  0
 28 29  1  0
 28 30  2  0
 27 31  2  0
 18 32  1  0
 32 33  2  0
 10  5  1  0
 33 15  1  0
 31 23  1  0
  1 34  1  0
  6 35  1  0
  7 36  1  0
  8 37  1  0
  9 38  1  0
 16 39  1  0
 17 40  1  0
 19 41  1  0
 24 42  1  0
 25 43  1  0
 26 44  1  0
 29 45  1  0
 29 46  1  0
 30 47  1  0
 30 48  1  0
 31 49  1  0
 32 50  1  0
 33 51  1  0
M  CHG  4   1  -1  11  -1  22  -1  30   1
M  END
>  <UniqueID>  (19) 
19

>  <SMILES>  (19) 
[NH-]S(=O)(=O)c1ccccc1[N-]S(=O)(=O)c1ccc(NC(=O)[N-]c2cccc(C(N)=[NH2+])c2)cc1

>  <Energy>  (19) 
66.50712871431132

>  <Genealogy>  (19) 
[NH-]S(=O)(=O)c1ccccc1[N-]S(=O)(=O)c1ccc(NC(=O)[N-]c2cccc(C(N)=[NH2+])c2)cc1 (protonated)
[NH-]S(=O)(=O)c1ccccc1[N-]S(=O)(=O)c1ccc(NC(=O)[N-]c2cccc(C(N)=[NH2+])c2)cc1 (3D coordinates assigned)
[NH-]S(=O)(=O)c1ccccc1[N-]S(=O)(=O)c1ccc(NC(=O)[N-]c2cccc(C(N)=[NH2+])c2)cc1 (optimized conformer: 66.50712871431132 kcal/mol)

>  <smiles>  (19) 
N=C(N)c1cccc(NC(=O)Nc2ccc(S(=O)(=O)Nc3ccccc3S(N)(=O)=O)cc2)c1

>  <score_type>  (19) 
oracle

>  <origin>  (19) 
adgpu

>  <m_score__min__energy>  (19) 
-12.949999999999999

>  <m_primary>  (19) 
energy

$$$$
19:0
     RDKit          3D

 45 47  0  0  0  0  0  0  0  0999 V2000
   -3.4980   18.8560  -26.3510 C   0  0  0  0  0  0  0  0  0  0  0  0
   -2.1050   19.4140  -26.6190 C   0  0  0  0  0  0  0  0  0  0  0  0
   -1.9890   19.8620  -27.9690 O   0  0  0  0  0  0  0  0  0  0  0  0
   -2.6550   20.9680  -28.5220 C   0  0  0  0  0  0  0  0  0  0  0  0
   -3.0610   20.8920  -29.8600 C   0  0  0  0  0  0  0  0  0  0  0  0
   -3.7290   21.9610  -30.4640 C   0  0  0  0  0  0  0  0  0  0  0  0
   -3.9960   23.1260  -29.7350 C   0  0  0  0  0  0  0  0  0  0  0  0
   -4.8590   24.4610  -30.4970 S   0  0  0  0  0  0  0  0  0  0  0  0
   -3.8790   25.5490  -30.8350 O   0  0  0  0  0  0  0  0  0  0  0  0
   -5.8850   25.0210  -29.5520 O   0  0  0  0  0  0  0  0  0  0  0  0
   -5.6360   23.9220  -31.9540 N   0  0  0  0  0  0  0  0  0  0  0  0
   -7.0780   23.8180  -31.7390 C   0  0  0  0  0  0  0  0  0  0  0  0
   -7.3800   22.6900  -30.7520 C   0  0  0  0  0  0  0  0  0  0  0  0
   -7.7680   21.4320  -31.4700 C   0  0  0  0  0  0  0  0  0  0  0  0
   -9.0840   20.9840  -31.5610 C   0  0  0  0  0  0  0  0  0  0  0  0
   -9.0650   19.5210  -32.3870 S   0  0  0  0  0  0  0  0  0  0  0  0
   -7.3900   19.5120  -32.5870 C   0  0  0  0  0  0  0  0  0  0  0  0
   -6.6030   18.4560  -33.2640 C   0  0  0  0  0  0  0  0  0  0  0  0
   -5.6410   18.8020  -34.2310 C   0  0  0  0  0  0  0  0  0  0  0  0
   -4.8930   17.8110  -34.8730 C   0  0  0  0  0  0  0  0  0  0  0  0
   -5.0970   16.4650  -34.5610 C   0  0  0  0  0  0  0  0  0  0  0  0
   -6.0490   16.1080  -33.6040 C   0  0  0  0  0  0  0  0  0  0  0  0
   -6.7990   17.0960  -32.9570 C   0  0  0  0  0  0  0  0  0  0  0  0
   -6.8370   20.6130  -32.0300 N   0  0  0  0  0  0  0  0  0  0  0  0
   -3.6020   23.2080  -28.3930 C   0  0  0  0  0  0  0  0  0  0  0  0
   -2.9360   22.1380  -27.7880 C   0  0  0  0  0  0  0  0  0  0  0  0
   -3.6638   18.7896  -25.2656 H   0  0  0  0  0  0  0  0  0  0  0  0
   -4.2517   19.5216  -26.7970 H   0  0  0  0  0  0  0  0  0  0  0  0
   -3.5837   17.8541  -26.7970 H   0  0  0  0  0  0  0  0  0  0  0  0
   -1.9190   20.2601  -25.9411 H   0  0  0  0  0  0  0  0  0  0  0  0
   -1.3670   18.6164  -26.4478 H   0  0  0  0  0  0  0  0  0  0  0  0
   -2.8522   19.9819  -30.4415 H   0  0  0  0  0  0  0  0  0  0  0  0
   -4.0457   21.8867  -31.5148 H   0  0  0  0  0  0  0  0  0  0  0  0
   -7.4551   24.7681  -31.3327 H   0  0  0  0  0  0  0  0  0  0  0  0
   -7.5711   23.6002  -32.6979 H   0  0  0  0  0  0  0  0  0  0  0  0
   -6.4839   22.4949  -30.1447 H   0  0  0  0  0  0  0  0  0  0  0  0
   -8.2203   23.0007  -30.1138 H   0  0  0  0  0  0  0  0  0  0  0  0
   -9.9736   21.4951  -31.1643 H   0  0  0  0  0  0  0  0  0  0  0  0
   -5.4765   19.8599  -34.4835 H   0  0  0  0  0  0  0  0  0  0  0  0
   -4.1418   18.0919  -35.6259 H   0  0  0  0  0  0  0  0  0  0  0  0
   -4.5082   15.6869  -35.0687 H   0  0  0  0  0  0  0  0  0  0  0  0
   -6.2096   15.0479  -33.3583 H   0  0  0  0  0  0  0  0  0  0  0  0
   -7.5469   16.8083  -32.2034 H   0  0  0  0  0  0  0  0  0  0  0  0
   -3.8175   24.1176  -27.8132 H   0  0  0  0  0  0  0  0  0  0  0  0
   -2.6298   22.2096  -26.7339 H   0  0  0  0  0  0  0  0  0  0  0  0
  1  2  1  0
  2  3  1  0
  3  4  1  0
  4  5  2  0
  5  6  1  0
  6  7  2  0
  7  8  1  0
  8  9  2  0
  8 10  2  0
  8 11  1  0
 11 12  1  0
 12 13  1  0
 13 14  1  0
 14 15  2  0
 15 16  1  0
 16 17  1  0
 17 18  1  0
 18 19  2  0
 19 20  1  0
 20 21  2  0
 21 22  1  0
 22 23  2  0
 17 24  2  0
  7 25  1  0
 25 26  2  0
 26  4  1  0
 24 14  1  0
 23 18  1  0
  1 27  1  0
  1 28  1  0
  1 29  1  0
  2 30  1  0
  2 31  1  0
  5 32  1  0
  6 33  1  0
 12 34  1  0
 12 35  1  0
 13 36  1  0
 13 37  1  0
 15 38  1  0
 19 39  1  0
 20 40  1  0
 21 41  1  0
 22 42  1  0
 23 43  1  0
 25 44  1  0
 26 45  1  0
M  CHG  1  11  -1
M  END
>  <UniqueID>  (20) 
20

>  <SMILES>  (20) 
CCOc1ccc(S(=O)(=O)[N-]CCc2csc(-c3ccccc3)n2)cc1

>  <Energy>  (20) 
70.43660545747916

>  <Genealogy>  (20) 
CCOc1ccc(S(=O)(=O)[N-]CCc2csc(-c3ccccc3)n2)cc1 (protonated)
CCOc1ccc(S(=O)(=O)[N-]CCc2csc(-c3ccccc3)n2)cc1 (3D coordinates assigned)
CCOc1ccc(S(=O)(=O)[N-]CCc2csc(-c3ccccc3)n2)cc1 (optimized conformer: 70.43660545747916 kcal/mol)

>  <smiles>  (20) 
CCOc1ccc(S(=O)(=O)NCCc2csc(-c3ccccc3)n2)cc1

>  <score_type>  (20) 
oracle

>  <origin>  (20) 
adgpu

>  <m_score__min__energy>  (20) 
-9.9600000000000009

>  <m_primary>  (20) 
energy

$$$$
20:0
     RDKit          3D

 39 41  0  0  0  0  0  0  0  0999 V2000
   -1.6000   25.6370  -26.8450 C   0  0  0  0  0  0  0  0  0  0  0  0
   -2.8380   25.2900  -26.2990 C   0  0  0  0  0  0  0  0  0  0  0  0
   -3.7560   24.5540  -27.0540 C   0  0  0  0  0  0  0  0  0  0  0  0
   -3.4480   24.1710  -28.3720 C   0  0  0  0  0  0  0  0  0  0  0  0
   -4.4590   23.4040  -29.1960 C   0  0  0  0  0  0  0  0  0  0  0  0
   -4.5410   23.8500  -30.6050 N   0  0  0  0  0  0  0  0  0  0  0  0
   -5.8650   24.3670  -31.0330 C   0  0  0  0  0  0  0  0  0  0  0  0
   -6.3690   23.7270  -32.3310 C   0  0  0  0  0  0  0  0  0  0  0  0
   -6.0680   22.2960  -32.3120 N   0  0  0  0  0  0  0  0  0  0  0  0
   -7.1100   21.2970  -32.3280 C   0  0  0  0  0  0  0  0  0  0  0  0
   -6.8080   19.9600  -32.6480 C   0  0  0  0  0  0  0  0  0  0  0  0
   -7.8080   18.9820  -32.6270 C   0  0  0  0  0  0  0  0  0  0  0  0
   -9.1160   19.3270  -32.2830 C   0  0  0  0  0  0  0  0  0  0  0  0
   -9.4280   20.6480  -31.9580 C   0  0  0  0  0  0  0  0  0  0  0  0
   -8.4320   21.6300  -31.9790 C   0  0  0  0  0  0  0  0  0  0  0  0
   -4.6630   21.8930  -32.1860 C   0  0  0  0  0  0  0  0  0  0  0  0
   -3.8020   23.0250  -31.5880 C   0  0  0  0  0  0  0  0  0  0  0  0
   -2.1870   24.4980  -28.9000 C   0  0  0  0  0  0  0  0  0  0  0  0
   -1.2730   25.2350  -28.1410 C   0  0  0  0  0  0  0  0  0  0  0  0
   -0.8835   26.2265  -26.2542 H   0  0  0  0  0  0  0  0  0  0  0  0
   -3.0910   25.5964  -25.2733 H   0  0  0  0  0  0  0  0  0  0  0  0
   -4.7246   24.2728  -26.6149 H   0  0  0  0  0  0  0  0  0  0  0  0
   -4.1806   22.3399  -29.1844 H   0  0  0  0  0  0  0  0  0  0  0  0
   -5.4453   23.5853  -28.7440 H   0  0  0  0  0  0  0  0  0  0  0  0
   -6.5949   24.1631  -30.2357 H   0  0  0  0  0  0  0  0  0  0  0  0
   -5.7512   25.4448  -31.2212 H   0  0  0  0  0  0  0  0  0  0  0  0
   -7.4561   23.8729  -32.4148 H   0  0  0  0  0  0  0  0  0  0  0  0
   -5.8710   24.1973  -33.1917 H   0  0  0  0  0  0  0  0  0  0  0  0
   -5.7781   19.6821  -32.9166 H   0  0  0  0  0  0  0  0  0  0  0  0
   -7.5633   17.9403  -32.8818 H   0  0  0  0  0  0  0  0  0  0  0  0
   -9.9016   18.5571  -32.2680 H   0  0  0  0  0  0  0  0  0  0  0  0
  -10.4589   20.9174  -31.6849 H   0  0  0  0  0  0  0  0  0  0  0  0
   -8.6838   22.6693  -31.7210 H   0  0  0  0  0  0  0  0  0  0  0  0
   -4.6012   21.0122  -31.5300 H   0  0  0  0  0  0  0  0  0  0  0  0
   -4.2790   21.6608  -33.1903 H   0  0  0  0  0  0  0  0  0  0  0  0
   -2.9313   22.5770  -31.0869 H   0  0  0  0  0  0  0  0  0  0  0  0
   -3.5018   23.6850  -32.4152 H   0  0  0  0  0  0  0  0  0  0  0  0
   -1.9179   24.1723  -29.9156 H   0  0  0  0  0  0  0  0  0  0  0  0
   -0.2935   25.4988  -28.5664 H   0  0  0  0  0  0  0  0  0  0  0  0
  1  2  2  0
  2  3  1  0
  3  4  2  0
  4  5  1  0
  5  6  1  0
  6  7  1  0
  7  8  1  0
  8  9  1  0
  9 10  1  0
 10 11  2  0
 11 12  1  0
 12 13  2  0
 13 14  1  0
 14 15  2  0
  9 16  1  0
 16 17  1  0
  4 18  1  0
 18 19  2  0
 19  1  1  0
 17  6  1  0
 15 10  1  0
  1 20  1  0
  2 21  1  0
  3 22  1  0
  5 23  1  0
  5 24  1  0
  7 25  1  0
  7 26  1  0
  8 27  1  0
  8 28  1  0
 11 29  1  0
 12 30  1  0
 13 31  1  0
 14 32  1  0
 15 33  1  0
 16 34  1  0
 16 35  1  0
 17 36  1  0
 17 37  1  0
 18 38  1  0
 19 39  1  0
M  END
>  <UniqueID>  (21) 
21

>  <SMILES>  (21) 
c1ccc(CN2CCN(c3ccccc3)CC2)cc1

>  <Energy>  (21) 
54.27727482109078

>  <Genealogy>  (21) 
c1ccc(CN2CCN(c3ccccc3)CC2)cc1 (3D coordinates assigned)
c1ccc(CN2CCN(c3ccccc3)CC2)cc1 (nonaromatic ring conformer: 54.27727482109078 kcal/mol)

>  <smiles>  (21) 
c1ccc(CN2CCN(c3ccccc3)CC2)cc1

>  <score_type>  (21) 
oracle

>  <origin>  (21) 
adgpu

>  <m_score__min__energy>  (21) 
-7.4900000000000002

>  <m_primary>  (21) 
energy

$$$$
21:0
     RDKit          3D

 50 52  0  0  0  0  0  0  0  0999 V2000
    1.5570   17.7470  -27.8280 C   0  0  0  0  0  0  0  0  0  0  0  0
    1.4400   19.1070  -28.2340 O   0  0  0  0  0  0  0  0  0  0  0  0
    1.0010   19.5400  -29.4960 C   0  0  0  0  0  0  0  0  0  0  0  0
   -0.2470   20.1780  -29.6450 C   0  0  0  0  0  0  0  0  0  0  0  0
   -0.6930   20.6090  -30.9030 C   0  0  0  0  0  0  0  0  0  0  0  0
   -2.0040   21.2830  -31.0630 C   0  0  0  0  0  0  0  0  0  0  0  0
   -2.8960   20.7240  -31.7580 O   0  0  0  0  0  0  0  0  0  0  0  0
   -2.2660   22.5580  -30.4480 N   0  0  0  0  0  0  0  0  0  0  0  0
   -3.5360   23.2290  -30.5170 C   0  0  0  0  0  0  0  0  0  0  0  0
   -4.6980   22.5400  -30.9110 C   0  0  0  0  0  0  0  0  0  0  0  0
   -5.9440   23.1920  -30.9520 C   0  0  0  0  0  0  0  0  0  0  0  0
   -7.1630   22.4600  -31.3780 C   0  0  0  0  0  0  0  0  0  0  0  0
   -8.3660   23.1520  -31.6070 C   0  0  0  0  0  0  0  0  0  0  0  0
   -9.5120   22.4650  -32.0070 C   0  0  0  0  0  0  0  0  0  0  0  0
   -9.4760   21.0810  -32.1860 C   0  0  0  0  0  0  0  0  0  0  0  0
   -8.2860   20.3650  -31.9660 C   0  0  0  0  0  0  0  0  0  0  0  0
   -8.2430   18.9380  -32.1540 N   0  0  0  0  0  0  0  0  0  0  0  0
   -9.0670   18.1950  -31.5820 O   0  0  0  0  0  0  0  0  0  0  0  0
   -7.2910   18.3680  -32.9680 O   0  0  0  0  0  0  0  0  0  0  0  0
   -7.1340   21.0650  -31.5620 C   0  0  0  0  0  0  0  0  0  0  0  0
   -6.0160   24.5440  -30.5770 C   0  0  0  0  0  0  0  0  0  0  0  0
   -4.8710   25.2260  -30.1630 C   0  0  0  0  0  0  0  0  0  0  0  0
   -3.6360   24.5750  -30.1270 C   0  0  0  0  0  0  0  0  0  0  0  0
   -2.5070   25.2720  -29.7120 O   0  0  0  0  0  0  0  0  0  0  0  0
    0.1320   20.4220  -32.0190 C   0  0  0  0  0  0  0  0  0  0  0  0
    1.3800   19.7880  -31.8930 C   0  0  0  0  0  0  0  0  0  0  0  0
    2.2200   19.5800  -33.0010 O   0  0  0  0  0  0  0  0  0  0  0  0
    1.9200   19.9860  -34.3320 C   0  0  0  0  0  0  0  0  0  0  0  0
    1.8190   19.3410  -30.6370 C   0  0  0  0  0  0  0  0  0  0  0  0
    3.0770   18.7090  -30.5960 O   0  0  0  0  0  0  0  0  0  0  0  0
    4.2540   19.1980  -29.9620 C   0  0  0  0  0  0  0  0  0  0  0  0
    1.5618   17.6914  -26.7294 H   0  0  0  0  0  0  0  0  0  0  0  0
    0.7050   17.1726  -28.2205 H   0  0  0  0  0  0  0  0  0  0  0  0
    2.4946   17.3265  -28.2205 H   0  0  0  0  0  0  0  0  0  0  0  0
   -0.8810   20.3404  -28.7609 H   0  0  0  0  0  0  0  0  0  0  0  0
   -1.4930   23.0530  -29.9510 H   0  0  0  0  0  0  0  0  0  0  0  0
   -4.6313   21.4782  -31.1905 H   0  0  0  0  0  0  0  0  0  0  0  0
   -8.4032   24.2428  -31.4696 H   0  0  0  0  0  0  0  0  0  0  0  0
  -10.4479   23.0159  -32.1821 H   0  0  0  0  0  0  0  0  0  0  0  0
  -10.3846   20.5470  -32.5012 H   0  0  0  0  0  0  0  0  0  0  0  0
   -6.1979   20.5142  -31.3876 H   0  0  0  0  0  0  0  0  0  0  0  0
   -6.9821   25.0689  -30.6100 H   0  0  0  0  0  0  0  0  0  0  0  0
   -4.9416   26.2821  -29.8634 H   0  0  0  0  0  0  0  0  0  0  0  0
   -0.2007   20.7756  -33.0061 H   0  0  0  0  0  0  0  0  0  0  0  0
    1.2665   20.8705  -34.3071 H   0  0  0  0  0  0  0  0  0  0  0  0
    2.8532   20.2344  -34.8587 H   0  0  0  0  0  0  0  0  0  0  0  0
    1.4085   19.1669  -34.8587 H   0  0  0  0  0  0  0  0  0  0  0  0
    4.1306   19.1467  -28.8701 H   0  0  0  0  0  0  0  0  0  0  0  0
    5.1150   18.5832  -30.2630 H   0  0  0  0  0  0  0  0  0  0  0  0
    4.4259   20.2420  -30.2630 H   0  0  0  0  0  0  0  0  0  0  0  0
  1  2  1  0
  2  3  1  0
  3  4  2  0
  4  5  1  0
  5  6  1  0
  6  7  2  0
  6  8  1  0
  8  9  1  0
  9 10  2  0
 10 11  1  0
 11 12  1  0
 12 13  2  0
 13 14  1  0
 14 15  2  0
 15 16  1  0
 16 17  1  0
 17 18  2  0
 17 19  1  0
 16 20  2  0
 11 21  2  0
 21 22  1  0
 22 23  2  0
 23 24  1  0
  5 25  2  0
 25 26  1  0
 26 27  1  0
 27 28  1  0
 26 29  2  0
 29 30  1  0
 30 31  1  0
 29  3  1  0
 23  9  1  0
 20 12  1  0
  1 32  1  0
  1 33  1  0
  1 34  1  0
  4 35  1  0
  8 36  1  0
 10 37  1  0
 13 38  1  0
 14 39  1  0
 15 40  1  0
 20 41  1  0
 21 42  1  0
 22 43  1  0
 25 44  1  0
 28 45  1  0
 28 46  1  0
 28 47  1  0
 31 48  1  0
 31 49  1  0
 31 50  1  0
M  CHG  3  17   1  19  -1  24  -1
M  END
>  <UniqueID>  (22) 
22

>  <SMILES>  (22) 
COc1cc(C(=O)Nc2cc(-c3cccc([N+](=O)[O-])c3)ccc2[O-])cc(OC)c1OC

>  <Energy>  (22) 
68.16639102448957

>  <Genealogy>  (22) 
COc1cc(C(=O)Nc2cc(-c3cccc([N+](=O)[O-])c3)ccc2[O-])cc(OC)c1OC (protonated)
COc1cc(C(=O)Nc2cc(-c3cccc([N+](=O)[O-])c3)ccc2[O-])cc(OC)c1OC (3D coordinates assigned)
COc1cc(C(=O)Nc2cc(-c3cccc([N+](=O)[O-])c3)ccc2[O-])cc(OC)c1OC (optimized conformer: 68.16639102448957 kcal/mol)

>  <smiles>  (22) 
COc1cc(C(=O)Nc2cc(-c3cccc([N+](=O)[O-])c3)ccc2O)cc(OC)c1OC

>  <score_type>  (22) 
oracle

>  <origin>  (22) 
adgpu

>  <m_score__min__energy>  (22) 
-11.1

>  <m_primary>  (22) 
energy

$$$$
22:0
     RDKit          3D

 22 24  0  0  0  0  0  0  0  0999 V2000
   -6.8620   24.8840  -30.0940 C   0  0  0  0  0  0  0  0  0  0  0  0
   -5.5390   25.3640  -30.2020 C   0  0  0  0  0  0  0  0  0  0  0  0
   -4.5830   24.6280  -30.8430 N   0  0  0  0  0  0  0  0  0  0  0  0
   -4.9180   23.4190  -31.3610 C   0  0  0  0  0  0  0  0  0  0  0  0
   -4.1030   22.6050  -32.0480 N   0  0  0  0  0  0  0  0  0  0  0  0
   -4.8620   21.5430  -32.4000 C   0  0  0  0  0  0  0  0  0  0  0  0
   -6.1640   21.6850  -31.9200 C   0  0  0  0  0  0  0  0  0  0  0  0
   -7.2640   20.7160  -32.1000 C   0  0  0  0  0  0  0  0  0  0  0  0
   -8.6180   21.0750  -32.2080 C   0  0  0  0  0  0  0  0  0  0  0  0
   -9.4720   19.9900  -32.3440 C   0  0  0  0  0  0  0  0  0  0  0  0
   -8.5470   18.5890  -32.3130 S   0  0  0  0  0  0  0  0  0  0  0  0
   -7.0560   19.3400  -32.1280 C   0  0  0  0  0  0  0  0  0  0  0  0
   -6.1830   22.9050  -31.2600 C   0  0  0  0  0  0  0  0  0  0  0  0
   -7.1980   23.6330  -30.6410 C   0  0  0  0  0  0  0  0  0  0  0  0
   -7.6277   25.4867  -29.5836 H   0  0  0  0  0  0  0  0  0  0  0  0
   -5.2754   26.3390  -29.7663 H   0  0  0  0  0  0  0  0  0  0  0  0
   -3.0960   22.7630  -32.2750 H   0  0  0  0  0  0  0  0  0  0  0  0
   -4.5019   20.6840  -32.9852 H   0  0  0  0  0  0  0  0  0  0  0  0
   -8.9679   22.1176  -32.1867 H   0  0  0  0  0  0  0  0  0  0  0  0
  -10.5655   20.0391  -32.4532 H   0  0  0  0  0  0  0  0  0  0  0  0
   -6.0838   18.8324  -32.0436 H   0  0  0  0  0  0  0  0  0  0  0  0
   -8.2248   23.2428  -30.5826 H   0  0  0  0  0  0  0  0  0  0  0  0
  1  2  2  0
  2  3  1  0
  3  4  2  0
  4  5  1  0
  5  6  1  0
  6  7  2  0
  7  8  1  0
  8  9  1  0
  9 10  2  0
 10 11  1  0
 11 12  1  0
  7 13  1  0
 13 14  2  0
 14  1  1  0
 13  4  1  0
 12  8  2  0
  1 15  1  0
  2 16  1  0
  5 17  1  0
  6 18  1  0
  9 19  1  0
 10 20  1  0
 12 21  1  0
 14 22  1  0
M  END
>  <UniqueID>  (23) 
23

>  <SMILES>  (23) 
c1cnc2[nH]cc(-c3ccsc3)c2c1

>  <Energy>  (23) 
88.57988566152

>  <Genealogy>  (23) 
c1cnc2[nH]cc(-c3ccsc3)c2c1 (3D coordinates assigned)
c1cnc2[nH]cc(-c3ccsc3)c2c1 (optimized conformer: 88.57988566152 kcal/mol)

>  <smiles>  (23) 
c1cnc2[nH]cc(-c3ccsc3)c2c1

>  <score_type>  (23) 
oracle

>  <origin>  (23) 
adgpu

>  <m_score__min__energy>  (23) 
-6.7300000000000004

>  <m_primary>  (23) 
energy

$$$$
23:0
     RDKit          3D

 41 44  0  0  0  0  0  0  0  0999 V2000
   -2.9580   25.4040  -29.4500 H   0  0  0  0  0  0  0  0  0  0  0  0
   -3.8490   25.3440  -29.9910 N   0  0  0  0  0  0  0  0  0  0  0  0
   -4.1330   24.2120  -30.8090 C   0  0  0  0  0  0  0  0  0  0  0  0
   -5.1140   24.2420  -31.5990 O   0  0  0  0  0  0  0  0  0  0  0  0
   -3.2880   23.0140  -30.7360 C   0  0  0  0  0  0  0  0  0  0  0  0
   -2.6160   22.6360  -29.6300 N   0  0  0  0  0  0  0  0  0  0  0  0
   -1.9570   21.5230  -29.9150 N   0  0  0  0  0  0  0  0  0  0  0  0
   -1.1340   20.8410  -28.9520 C   0  0  0  0  0  0  0  0  0  0  0  0
   -1.5820   20.1660  -27.8350 C   0  0  0  0  0  0  0  0  0  0  0  0
   -2.6332   20.0665  -27.5267 H   0  0  0  0  0  0  0  0  0  0  0  0
   -0.5230   19.6490  -27.1840 N   0  0  0  0  0  0  0  0  0  0  0  0
    0.5690   19.9780  -27.8570 N   0  0  0  0  0  0  0  0  0  0  0  0
    1.5360   19.7020  -27.5750 H   0  0  0  0  0  0  0  0  0  0  0  0
    0.2400   20.7030  -28.9410 C   0  0  0  0  0  0  0  0  0  0  0  0
    0.9394   21.1123  -29.6848 H   0  0  0  0  0  0  0  0  0  0  0  0
   -2.2110   21.1810  -31.1990 C   0  0  0  0  0  0  0  0  0  0  0  0
   -1.6870   20.1450  -31.7920 N   0  0  0  0  0  0  0  0  0  0  0  0
   -1.9680   19.6820  -33.1240 C   0  0  0  0  0  0  0  0  0  0  0  0
   -1.0630   19.7740  -33.9930 O   0  0  0  0  0  0  0  0  0  0  0  0
   -3.2390   18.9930  -33.4610 C   0  0  0  0  0  0  0  0  0  0  0  0
   -4.4520   19.5360  -33.0040 C   0  0  0  0  0  0  0  0  0  0  0  0
   -4.4387   20.4486  -32.3901 H   0  0  0  0  0  0  0  0  0  0  0  0
   -5.6810   18.9330  -33.3180 C   0  0  0  0  0  0  0  0  0  0  0  0
   -6.9530   19.5290  -32.8480 C   0  0  0  0  0  0  0  0  0  0  0  0
   -8.0510   18.7330  -32.7110 N   0  0  0  0  0  0  0  0  0  0  0  0
   -9.2470   19.2170  -32.2800 C   0  0  0  0  0  0  0  0  0  0  0  0
  -10.1094   18.5417  -32.1790 H   0  0  0  0  0  0  0  0  0  0  0  0
   -9.3800   20.5700  -31.9660 C   0  0  0  0  0  0  0  0  0  0  0  0
  -10.3432   20.9668  -31.6127 H   0  0  0  0  0  0  0  0  0  0  0  0
   -8.2780   21.4140  -32.1050 C   0  0  0  0  0  0  0  0  0  0  0  0
   -8.3704   22.4835  -31.8648 H   0  0  0  0  0  0  0  0  0  0  0  0
   -7.0580   20.9010  -32.5490 C   0  0  0  0  0  0  0  0  0  0  0  0
   -6.0080   21.7450  -32.7250 F   0  0  0  0  0  0  0  0  0  0  0  0
   -5.6860   17.7420  -34.0630 C   0  0  0  0  0  0  0  0  0  0  0  0
   -6.8540   17.1320  -34.3890 F   0  0  0  0  0  0  0  0  0  0  0  0
   -4.4850   17.1870  -34.5120 C   0  0  0  0  0  0  0  0  0  0  0  0
   -4.5000   16.2566  -35.0987 H   0  0  0  0  0  0  0  0  0  0  0  0
   -3.2640   17.8040  -34.2220 C   0  0  0  0  0  0  0  0  0  0  0  0
   -1.8000   17.0850  -34.8860 Cl  0  0  0  0  0  0  0  0  0  0  0  0
   -3.0550   22.1220  -31.7660 C   0  0  0  0  0  0  0  0  0  0  0  0
   -3.4471   22.1522  -32.7933 H   0  0  0  0  0  0  0  0  0  0  0  0
  1  2  1  0
  2  3  1  0
  3  4  2  0
  3  5  1  0
  5  6  1  0
  6  7  1  0
  7  8  1  0
  8  9  1  0
  9 10  1  0
  9 11  2  0
 11 12  1  0
 12 13  1  0
 12 14  1  0
 14 15  1  0
  7 16  1  0
 16 17  2  0
 17 18  1  0
 18 19  2  0
 18 20  1  0
 20 21  2  0
 21 22  1  0
 21 23  1  0
 23 24  1  0
 24 25  2  0
 25 26  1  0
 26 27  1  0
 26 28  2  0
 28 29  1  0
 28 30  1  0
 30 31  1  0
 30 32  2  0
 32 33  1  0
 23 34  2  0
 34 35  1  0
 34 36  1  0
 36 37  1  0
 36 38  2  0
 38 39  1  0
 16 40  1  0
 40 41  1  0
 40  5  2  0
 14  8  2  0
 38 20  1  0
 32 24  1  0
M  CHG  2   2  -1   6  -1
M  END
>  <UniqueID>  (24) 
24

>  <SMILES>  (24) 
[NH-]C(=O)c1c/c(=N\C(=O)c2cc(-c3ncccc3F)c(F)cc2Cl)n(-c2cn[nH]c2)[n-]1

>  <Energy>  (24) 
124.65862773208582

>  <Genealogy>  (24) 
[NH-]C(=O)c1cc(=NC(=O)c2cc(-c3ncccc3F)c(F)cc2Cl)n(-c2cn[nH]c2)[n-]1 (protonated)
[NH-]C(=O)c1c/c(=N\C(=O)c2cc(-c3ncccc3F)c(F)cc2Cl)n(-c2cn[nH]c2)[n-]1 (cis-trans isomerization)
[NH-]C(=O)c1c/c(=N\C(=O)c2cc(-c3ncccc3F)c(F)cc2Cl)n(-c2cn[nH]c2)[n-]1 (3D coordinates assigned)
[NH-]C(=O)c1c/c(=N\C(=O)c2cc(-c3ncccc3F)c(F)cc2Cl)n(-c2cn[nH]c2)[n-]1 (optimized conformer: 124.65862773208582 kcal/mol)

>  <smiles>  (24) 
NC(=O)c1cc(=NC(=O)c2cc(-c3ncccc3F)c(F)cc2Cl)n(-c2cn[nH]c2)[nH]1

>  <score_type>  (24) 
oracle

>  <origin>  (24) 
adgpu

>  <m_score__min__energy>  (24) 
-12.18

>  <m_primary>  (24) 
energy

$$$$
24:0
     RDKit          3D

 40 41  0  0  0  0  0  0  0  0999 V2000
   -6.7650   16.6070  -33.5340 C   0  0  0  0  0  0  0  0  0  0  0  0
   -6.0740   17.5020  -34.5570 C   0  0  0  0  0  0  0  0  0  0  0  0
   -5.6000   18.7700  -33.9160 C   0  0  0  0  0  0  0  0  0  0  0  0
   -4.3770   18.9010  -33.6390 O   0  0  0  0  0  0  0  0  0  0  0  0
   -6.5170   19.8550  -33.7080 N   0  0  0  0  0  0  0  0  0  0  0  0
   -6.2190   21.0300  -32.9330 C   0  0  0  0  0  0  0  0  0  0  0  0
   -4.8910   21.4750  -32.8420 C   0  0  0  0  0  0  0  0  0  0  0  0
   -4.5770   22.6260  -32.1140 C   0  0  0  0  0  0  0  0  0  0  0  0
   -5.5880   23.3520  -31.4730 C   0  0  0  0  0  0  0  0  0  0  0  0
   -5.2030   24.7920  -30.5360 S   0  0  0  0  0  0  0  0  0  0  0  0
   -5.7390   26.0260  -31.2050 O   0  0  0  0  0  0  0  0  0  0  0  0
   -5.8230   24.6650  -29.1730 O   0  0  0  0  0  0  0  0  0  0  0  0
   -3.4830   24.9400  -30.3660 N   0  0  0  0  0  0  0  0  0  0  0  0
   -2.6990   24.3260  -29.3320 C   0  0  0  0  0  0  0  0  0  0  0  0
   -1.7240   25.0940  -28.6870 C   0  0  0  0  0  0  0  0  0  0  0  0
   -0.9420   24.5400  -27.6720 C   0  0  0  0  0  0  0  0  0  0  0  0
   -1.1240   23.1990  -27.2830 C   0  0  0  0  0  0  0  0  0  0  0  0
   -0.3590   22.6050  -26.2660 O   0  0  0  0  0  0  0  0  0  0  0  0
   -0.2130   23.1370  -24.9530 C   0  0  0  0  0  0  0  0  0  0  0  0
   -2.1020   22.4290  -27.9310 C   0  0  0  0  0  0  0  0  0  0  0  0
   -2.3600   20.7510  -27.4750 Cl  0  0  0  0  0  0  0  0  0  0  0  0
   -2.8820   22.9860  -28.9490 C   0  0  0  0  0  0  0  0  0  0  0  0
   -6.9180   22.9290  -31.5820 C   0  0  0  0  0  0  0  0  0  0  0  0
   -7.2350   21.7810  -32.3130 C   0  0  0  0  0  0  0  0  0  0  0  0
   -6.5060   16.9425  -32.5190 H   0  0  0  0  0  0  0  0  0  0  0  0
   -7.8547   16.6653  -33.6725 H   0  0  0  0  0  0  0  0  0  0  0  0
   -6.4329   15.5675  -33.6725 H   0  0  0  0  0  0  0  0  0  0  0  0
   -5.2112   16.9670  -34.9806 H   0  0  0  0  0  0  0  0  0  0  0  0
   -6.7935   17.7539  -35.3500 H   0  0  0  0  0  0  0  0  0  0  0  0
   -7.4290   19.8240  -34.2190 H   0  0  0  0  0  0  0  0  0  0  0  0
   -4.0913   20.9137  -33.3474 H   0  0  0  0  0  0  0  0  0  0  0  0
   -3.5321   22.9626  -32.0444 H   0  0  0  0  0  0  0  0  0  0  0  0
   -1.5723   26.1428  -28.9819 H   0  0  0  0  0  0  0  0  0  0  0  0
   -0.1787   25.1550  -27.1729 H   0  0  0  0  0  0  0  0  0  0  0  0
   -0.4285   22.3519  -24.2132 H   0  0  0  0  0  0  0  0  0  0  0  0
    0.8172   23.4973  -24.8158 H   0  0  0  0  0  0  0  0  0  0  0  0
   -0.9150   23.9727  -24.8158 H   0  0  0  0  0  0  0  0  0  0  0  0
   -3.6431   22.3722  -29.4530 H   0  0  0  0  0  0  0  0  0  0  0  0
   -7.7171   23.5029  -31.0900 H   0  0  0  0  0  0  0  0  0  0  0  0
   -8.2840   21.4627  -32.4043 H   0  0  0  0  0  0  0  0  0  0  0  0
  1  2  1  0
  2  3  1  0
  3  4  2  0
  3  5  1  0
  5  6  1  0
  6  7  2  0
  7  8  1  0
  8  9  2  0
  9 10  1  0
 10 11  2  0
 10 12  2  0
 10 13  1  0
 13 14  1  0
 14 15  2  0
 15 16  1  0
 16 17  2  0
 17 18  1  0
 18 19  1  0
 17 20  1  0
 20 21  1  0
 20 22  2  0
  9 23  1  0
 23 24  2  0
 24  6  1  0
 22 14  1  0
  1 25  1  0
  1 26  1  0
  1 27  1  0
  2 28  1  0
  2 29  1  0
  5 30  1  0
  7 31  1  0
  8 32  1  0
 15 33  1  0
 16 34  1  0
 19 35  1  0
 19 36  1  0
 19 37  1  0
 22 38  1  0
 23 39  1  0
 24 40  1  0
M  CHG  1  13  -1
M  END
>  <UniqueID>  (25) 
25

>  <SMILES>  (25) 
CCC(=O)Nc1ccc(S(=O)(=O)[N-]c2ccc(OC)c(Cl)c2)cc1

>  <Energy>  (25) 
41.686430136632175

>  <Genealogy>  (25) 
CCC(=O)Nc1ccc(S(=O)(=O)[N-]c2ccc(OC)c(Cl)c2)cc1 (protonated)
CCC(=O)Nc1ccc(S(=O)(=O)[N-]c2ccc(OC)c(Cl)c2)cc1 (3D coordinates assigned)
CCC(=O)Nc1ccc(S(=O)(=O)[N-]c2ccc(OC)c(Cl)c2)cc1 (optimized conformer: 41.686430136632175 kcal/mol)

>  <smiles>  (25) 
CCC(=O)Nc1ccc(S(=O)(=O)Nc2ccc(OC)c(Cl)c2)cc1

>  <score_type>  (25) 
oracle

>  <origin>  (25) 
adgpu

>  <m_score__min__energy>  (25) 
-9.4900000000000002

>  <m_primary>  (25) 
energy

$$$$
25:0
     RDKit          3D

 40 42  0  0  0  0  0  0  0  0999 V2000
   -3.8790   26.1840  -29.9240 H   0  0  0  0  0  0  0  0  0  0  0  0
   -3.8420   25.2960  -30.4750 N   0  0  0  0  0  0  0  0  0  0  0  0
   -4.8820   24.5370  -30.6050 C   0  0  0  0  0  0  0  0  0  0  0  0
   -6.0610   24.8880  -30.0200 N   0  0  0  0  0  0  0  0  0  0  0  0
   -7.1730   24.1180  -30.1390 C   0  0  0  0  0  0  0  0  0  0  0  0
   -8.1100   24.4294  -29.6541 H   0  0  0  0  0  0  0  0  0  0  0  0
   -7.1310   22.9320  -30.8750 C   0  0  0  0  0  0  0  0  0  0  0  0
   -8.0329   22.3098  -30.9722 H   0  0  0  0  0  0  0  0  0  0  0  0
   -5.9310   22.5370  -31.4910 C   0  0  0  0  0  0  0  0  0  0  0  0
   -5.8630   21.2790  -32.2780 C   0  0  0  0  0  0  0  0  0  0  0  0
   -4.6420   20.8380  -32.8210 C   0  0  0  0  0  0  0  0  0  0  0  0
   -3.7286   21.4302  -32.6627 H   0  0  0  0  0  0  0  0  0  0  0  0
   -4.5810   19.6530  -33.5600 C   0  0  0  0  0  0  0  0  0  0  0  0
   -3.6229   19.3258  -33.9901 H   0  0  0  0  0  0  0  0  0  0  0  0
   -5.7300   18.8810  -33.7560 C   0  0  0  0  0  0  0  0  0  0  0  0
   -5.6390   17.6870  -34.5470 N   0  0  0  0  0  0  0  0  0  0  0  0
   -5.3560   16.3740  -34.0520 C   0  0  0  0  0  0  0  0  0  0  0  0
   -6.2050   15.4620  -34.2360 O   0  0  0  0  0  0  0  0  0  0  0  0
   -4.1140   16.0880  -33.3860 N   0  0  0  0  0  0  0  0  0  0  0  0
   -3.4390   16.8660  -33.2180 H   0  0  0  0  0  0  0  0  0  0  0  0
   -3.8100   14.8130  -32.8030 C   0  0  0  0  0  0  0  0  0  0  0  0
   -4.8530   14.0320  -32.2830 C   0  0  0  0  0  0  0  0  0  0  0  0
   -5.8894   14.3954  -32.3445 H   0  0  0  0  0  0  0  0  0  0  0  0
   -4.5850   12.7910  -31.6850 C   0  0  0  0  0  0  0  0  0  0  0  0
   -5.7120   11.9360  -31.1820 C   0  0  0  0  0  0  0  0  0  0  0  0
   -5.7104   11.9372  -30.0820 H   0  0  0  0  0  0  0  0  0  0  0  0
   -6.6685   12.3377  -31.5477 H   0  0  0  0  0  0  0  0  0  0  0  0
   -5.5828   10.9067  -31.5477 H   0  0  0  0  0  0  0  0  0  0  0  0
   -3.2640   12.3260  -31.6210 C   0  0  0  0  0  0  0  0  0  0  0  0
   -3.0504   11.3395  -31.1838 H   0  0  0  0  0  0  0  0  0  0  0  0
   -2.2180   13.1120  -32.1110 C   0  0  0  0  0  0  0  0  0  0  0  0
   -1.1815   12.7507  -32.0394 H   0  0  0  0  0  0  0  0  0  0  0  0
   -2.4830   14.3560  -32.6920 C   0  0  0  0  0  0  0  0  0  0  0  0
   -1.4470   15.1280  -33.1020 F   0  0  0  0  0  0  0  0  0  0  0  0
   -6.9570   19.3300  -33.2430 C   0  0  0  0  0  0  0  0  0  0  0  0
   -7.8724   18.7479  -33.4251 H   0  0  0  0  0  0  0  0  0  0  0  0
   -7.0210   20.5130  -32.5020 C   0  0  0  0  0  0  0  0  0  0  0  0
   -7.9847   20.8478  -32.0907 H   0  0  0  0  0  0  0  0  0  0  0  0
   -4.7970   23.3560  -31.3500 C   0  0  0  0  0  0  0  0  0  0  0  0
   -3.8465   23.0692  -31.8237 H   0  0  0  0  0  0  0  0  0  0  0  0
  1  2  1  0
  2  3  2  0
  3  4  1  0
  4  5  1  0
  5  6  1  0
  5  7  2  0
  7  8  1  0
  7  9  1  0
  9 10  1  0
 10 11  2  0
 11 12  1  0
 11 13  1  0
 13 14  1  0
 13 15  2  0
 15 16  1  0
 16 17  1  0
 17 18  2  0
 17 19  1  0
 19 20  1  0
 19 21  1  0
 21 22  2  0
 22 23  1  0
 22 24  1  0
 24 25  1  0
 25 26  1  0
 25 27  1  0
 25 28  1  0
 24 29  2  0
 29 30  1  0
 29 31  1  0
 31 32  1  0
 31 33  2  0
 33 34  1  0
 15 35  1  0
 35 36  1  0
 35 37  2  0
 37 38  1  0
  9 39  2  0
 39 40  1  0
 39  3  1  0
 37 10  1  0
 33 21  1  0
M  CHG  2   4  -1  16  -1
M  END
>  <UniqueID>  (26) 
26

>  <SMILES>  (26) 
[H]/N=c1/cc(-c2ccc([N-]C(=O)Nc3cc(C)ccc3F)cc2)cc[n-]1

>  <Energy>  (26) 
57.28628580037045

>  <Genealogy>  (26) 
Cc1ccc(F)c(NC(=O)[N-]c2ccc(-c3cc[n-]c(=N)c3)cc2)c1 (protonated)
[H]/N=c1/cc(-c2ccc([N-]C(=O)Nc3cc(C)ccc3F)cc2)cc[n-]1 (cis-trans isomerization)
[H]/N=c1/cc(-c2ccc([N-]C(=O)Nc3cc(C)ccc3F)cc2)cc[n-]1 (3D coordinates assigned)
[H]/N=c1/cc(-c2ccc([N-]C(=O)Nc3cc(C)ccc3F)cc2)cc[n-]1 (optimized conformer: 57.28628580037045 kcal/mol)

>  <smiles>  (26) 
Cc1ccc(F)c(NC(=O)Nc2ccc(-c3cc[nH]c(=N)c3)cc2)c1

>  <score_type>  (26) 
oracle

>  <origin>  (26) 
adgpu

>  <m_score__min__energy>  (26) 
-10.050000000000001

>  <m_primary>  (26) 
energy

$$$$
26:0
     RDKit          3D

 39 41  0  0  0  0  0  0  0  0999 V2000
   -4.6859   23.1010  -28.1974 H   0  0  0  0  0  0  0  0  0  0  0  0
   -3.6490   22.7340  -28.2050 C   0  0  0  0  0  0  0  0  0  0  0  0
   -3.1140   21.2860  -27.5410 S   0  0  0  0  0  0  0  0  0  0  0  0
   -1.5020   21.4700  -27.9720 C   0  0  0  0  0  0  0  0  0  0  0  0
   -0.3910   20.5570  -27.5720 C   0  0  0  0  0  0  0  0  0  0  0  0
   -0.3328   20.5092  -26.4746 H   0  0  0  0  0  0  0  0  0  0  0  0
   -0.5809   19.5506  -27.9733 H   0  0  0  0  0  0  0  0  0  0  0  0
    0.5595   20.9384  -27.9733 H   0  0  0  0  0  0  0  0  0  0  0  0
   -1.3500   22.6850  -28.6250 C   0  0  0  0  0  0  0  0  0  0  0  0
   -0.3830   23.0575  -28.9940 H   0  0  0  0  0  0  0  0  0  0  0  0
   -2.5560   23.3910  -28.7670 C   0  0  0  0  0  0  0  0  0  0  0  0
   -2.6510   24.7350  -29.3760 C   0  0  0  0  0  0  0  0  0  0  0  0
   -1.8950   25.6560  -28.9650 O   0  0  0  0  0  0  0  0  0  0  0  0
   -3.5430   25.0080  -30.4640 N   0  0  0  0  0  0  0  0  0  0  0  0
   -4.6600   24.1920  -30.8420 C   0  0  0  0  0  0  0  0  0  0  0  0
   -5.9500   24.5880  -30.4700 C   0  0  0  0  0  0  0  0  0  0  0  0
   -6.0957   25.5249  -29.9124 H   0  0  0  0  0  0  0  0  0  0  0  0
   -7.0540   23.7980  -30.8040 C   0  0  0  0  0  0  0  0  0  0  0  0
   -8.0665   24.1226  -30.5222 H   0  0  0  0  0  0  0  0  0  0  0  0
   -6.8740   22.5970  -31.4950 C   0  0  0  0  0  0  0  0  0  0  0  0
   -7.7448   21.9780  -31.7568 H   0  0  0  0  0  0  0  0  0  0  0  0
   -5.5850   22.1800  -31.8550 C   0  0  0  0  0  0  0  0  0  0  0  0
   -5.3460   20.6390  -32.6700 S   0  0  0  0  0  0  0  0  0  0  0  0
   -6.3450   20.4730  -33.7820 O   0  0  0  0  0  0  0  0  0  0  0  0
   -5.5250   19.5240  -31.6800 O   0  0  0  0  0  0  0  0  0  0  0  0
   -3.7440   20.5600  -33.3250 N   0  0  0  0  0  0  0  0  0  0  0  0
   -2.6940   20.3840  -32.5860 C   0  0  0  0  0  0  0  0  0  0  0  0
   -2.7070   20.2590  -31.2780 O   0  0  0  0  0  0  0  0  0  0  0  0
   -1.4920   20.1140  -30.8360 N   0  0  0  0  0  0  0  0  0  0  0  0
   -1.2310   20.0010  -29.8320 H   0  0  0  0  0  0  0  0  0  0  0  0
   -0.6540   20.1380  -31.8930 C   0  0  0  0  0  0  0  0  0  0  0  0
    0.8330   20.0290  -31.8030 C   0  0  0  0  0  0  0  0  0  0  0  0
    1.1357   20.0068  -30.7457 H   0  0  0  0  0  0  0  0  0  0  0  0
    1.1635   19.1042  -32.2985 H   0  0  0  0  0  0  0  0  0  0  0  0
    1.2948   20.8957  -32.2985 H   0  0  0  0  0  0  0  0  0  0  0  0
   -1.3970   20.3110  -33.0440 C   0  0  0  0  0  0  0  0  0  0  0  0
   -0.8270   20.4140  -34.7000 Cl  0  0  0  0  0  0  0  0  0  0  0  0
   -4.4800   22.9740  -31.5220 C   0  0  0  0  0  0  0  0  0  0  0  0
   -3.4667   22.6433  -31.7936 H   0  0  0  0  0  0  0  0  0  0  0  0
  1  2  1  0
  2  3  1  0
  3  4  1  0
  4  5  1  0
  5  6  1  0
  5  7  1  0
  5  8  1  0
  4  9  2  0
  9 10  1  0
  9 11  1  0
 11 12  1  0
 12 13  2  0
 12 14  1  0
 14 15  1  0
 15 16  2  0
 16 17  1  0
 16 18  1  0
 18 19  1  0
 18 20  2  0
 20 21  1  0
 20 22  1  0
 22 23  1  0
 23 24  2  0
 23 25  2  0
 23 26  1  0
 26 27  2  0
 27 28  1  0
 28 29  1  0
 29 30  1  0
 29 31  1  0
 31 32  1  0
 32 33  1  0
 32 34  1  0
 32 35  1  0
 31 36  2  0
 36 37  1  0
 22 38  2  0
 38 39  1  0
 11  2  2  0
 38 15  1  0
 36 27  1  0
M  CHG  1  14  -1
M  END
>  <UniqueID>  (27) 
27

>  <SMILES>  (27) 
Cc1cc(C(=O)[N-]c2cccc(S(=O)(=O)/N=c3\o[nH]c(C)c3Cl)c2)cs1

>  <Energy>  (27) 
100.61253514799756

>  <Genealogy>  (27) 
Cc1cc(C(=O)[N-]c2cccc(S(=O)(=O)N=c3o[nH]c(C)c3Cl)c2)cs1 (protonated)
Cc1cc(C(=O)[N-]c2cccc(S(=O)(=O)/N=c3\o[nH]c(C)c3Cl)c2)cs1 (cis-trans isomerization)
Cc1cc(C(=O)[N-]c2cccc(S(=O)(=O)/N=c3\o[nH]c(C)c3Cl)c2)cs1 (3D coordinates assigned)
Cc1cc(C(=O)[N-]c2cccc(S(=O)(=O)/N=c3\o[nH]c(C)c3Cl)c2)cs1 (optimized conformer: 100.61253514799756 kcal/mol)

>  <smiles>  (27) 
Cc1cc(C(=O)Nc2cccc(S(=O)(=O)N=c3o[nH]c(C)c3Cl)c2)cs1

>  <score_type>  (27) 
oracle

>  <origin>  (27) 
adgpu

>  <m_score__min__energy>  (27) 
-10.81

>  <m_primary>  (27) 
energy

$$$$
27:0
     RDKit          3D

 32 34  0  0  0  0  0  0  0  0999 V2000
   -2.0110   20.8690  -27.9610 H   0  0  0  0  0  0  0  0  0  0  0  0
   -2.7720   21.3020  -28.5310 N   0  0  0  0  0  0  0  0  0  0  0  0
   -2.8150   22.5720  -28.7950 C   0  0  0  0  0  0  0  0  0  0  0  0
   -1.8100   23.4240  -28.3100 C   0  0  0  0  0  0  0  0  0  0  0  0
   -0.9860   23.0172  -27.7054 H   0  0  0  0  0  0  0  0  0  0  0  0
   -1.8600   24.7910  -28.5980 C   0  0  0  0  0  0  0  0  0  0  0  0
   -0.8390   25.6750  -28.1060 C   0  0  0  0  0  0  0  0  0  0  0  0
   -0.0170   26.3870  -27.7100 N   0  0  0  0  0  0  0  0  0  0  0  0
   -2.8770   25.2930  -29.3440 N   0  0  0  0  0  0  0  0  0  0  0  0
   -3.8690   24.5020  -29.8340 C   0  0  0  0  0  0  0  0  0  0  0  0
   -4.8950   25.0700  -30.5950 C   0  0  0  0  0  0  0  0  0  0  0  0
   -4.8958   26.1519  -30.7935 H   0  0  0  0  0  0  0  0  0  0  0  0
   -5.9190   24.2680  -31.1040 C   0  0  0  0  0  0  0  0  0  0  0  0
   -6.7266   24.7232  -31.6961 H   0  0  0  0  0  0  0  0  0  0  0  0
   -5.9240   22.8860  -30.8650 C   0  0  0  0  0  0  0  0  0  0  0  0
   -7.0180   22.0460  -31.4030 C   0  0  0  0  0  0  0  0  0  0  0  0
   -8.3360   22.3130  -30.9940 C   0  0  0  0  0  0  0  0  0  0  0  0
   -8.5344   23.1467  -30.3043 H   0  0  0  0  0  0  0  0  0  0  0  0
   -9.3950   21.5300  -31.4550 C   0  0  0  0  0  0  0  0  0  0  0  0
  -10.4226   21.7487  -31.1290 H   0  0  0  0  0  0  0  0  0  0  0  0
   -9.1520   20.4700  -32.3290 C   0  0  0  0  0  0  0  0  0  0  0  0
   -9.9869   19.8469  -32.6821 H   0  0  0  0  0  0  0  0  0  0  0  0
   -7.8510   20.1990  -32.7560 C   0  0  0  0  0  0  0  0  0  0  0  0
   -7.6664   19.3594  -33.4423 H   0  0  0  0  0  0  0  0  0  0  0  0
   -6.7750   20.9890  -32.3170 C   0  0  0  0  0  0  0  0  0  0  0  0
   -5.3900   20.6760  -32.8210 C   0  0  0  0  0  0  0  0  0  0  0  0
   -4.7146   20.5234  -31.9663 H   0  0  0  0  0  0  0  0  0  0  0  0
   -5.4201   19.7620  -33.4323 H   0  0  0  0  0  0  0  0  0  0  0  0
   -5.0242   21.5141  -33.4323 H   0  0  0  0  0  0  0  0  0  0  0  0
   -4.9030   22.3130  -30.0890 C   0  0  0  0  0  0  0  0  0  0  0  0
   -4.9143   21.2325  -29.8833 H   0  0  0  0  0  0  0  0  0  0  0  0
   -3.8640   23.1130  -29.5720 C   0  0  0  0  0  0  0  0  0  0  0  0
  1  2  1  0
  2  3  2  0
  3  4  1  0
  4  5  1  0
  4  6  2  0
  6  7  1  0
  7  8  3  0
  6  9  1  0
  9 10  1  0
 10 11  2  0
 11 12  1  0
 11 13  1  0
 13 14  1  0
 13 15  2  0
 15 16  1  0
 16 17  2  0
 17 18  1  0
 17 19  1  0
 19 20  1  0
 19 21  2  0
 21 22  1  0
 21 23  1  0
 23 24  1  0
 23 25  2  0
 25 26  1  0
 26 27  1  0
 26 28  1  0
 26 29  1  0
 15 30  1  0
 30 31  1  0
 30 32  2  0
 32  3  1  0
 32 10  1  0
 25 16  1  0
M  CHG  1   9  -1
M  END
>  <UniqueID>  (28) 
28

>  <SMILES>  (28) 
[H]/N=c1\cc(C#N)[n-]c2ccc(-c3ccccc3C)cc12

>  <Energy>  (28) 
46.194898939406116

>  <Genealogy>  (28) 
Cc1ccccc1-c1ccc2[n-]c(C#N)cc(=N)c2c1 (protonated)
[H]/N=c1\cc(C#N)[n-]c2ccc(-c3ccccc3C)cc12 (cis-trans isomerization)
[H]/N=c1\cc(C#N)[n-]c2ccc(-c3ccccc3C)cc12 (3D coordinates assigned)
[H]/N=c1\cc(C#N)[n-]c2ccc(-c3ccccc3C)cc12 (optimized conformer: 46.194898939406116 kcal/mol)

>  <smiles>  (28) 
Cc1ccccc1-c1ccc2[nH]c(C#N)cc(=N)c2c1

>  <score_type>  (28) 
oracle

>  <origin>  (28) 
adgpu

>  <m_score__min__energy>  (28) 
-9.75

>  <m_primary>  (28) 
energy

$$$$
28:0
     RDKit          3D

 46 49  0  0  0  0  0  0  0  0999 V2000
    0.3450   27.8950  -23.3530 N   0  0  0  0  0  0  0  0  0  0  0  0
   -0.0980   27.2870  -24.2320 C   0  0  0  0  0  0  0  0  0  0  0  0
   -0.6500   26.5300  -25.3250 C   0  0  0  0  0  0  0  0  0  0  0  0
   -1.9460   26.0120  -25.2370 C   0  0  0  0  0  0  0  0  0  0  0  0
   -2.4830   25.2770  -26.2980 C   0  0  0  0  0  0  0  0  0  0  0  0
   -1.7300   25.0500  -27.4670 C   0  0  0  0  0  0  0  0  0  0  0  0
   -2.2770   24.2690  -28.6080 C   0  0  0  0  0  0  0  0  0  0  0  0
   -1.5040   23.4900  -29.4770 C   0  0  0  0  0  0  0  0  0  0  0  0
   -2.5320   22.7830  -30.6040 S   0  0  0  0  0  0  0  0  0  0  0  0
   -3.9140   23.4840  -29.9490 C   0  0  0  0  0  0  0  0  0  0  0  0
   -5.2530   23.3130  -30.4460 N   0  0  0  0  0  0  0  0  0  0  0  0
   -6.1490   22.3020  -29.8720 C   0  0  0  0  0  0  0  0  0  0  0  0
   -7.6110   22.7450  -30.0300 C   0  0  0  0  0  0  0  0  0  0  0  0
   -7.9870   23.0530  -31.4400 N   0  0  0  0  0  0  0  0  0  0  0  0
   -8.7280   21.9530  -32.0290 C   0  0  0  0  0  0  0  0  0  0  0  0
   -9.9190   22.1400  -32.4070 O   0  0  0  0  0  0  0  0  0  0  0  0
   -8.1370   20.5960  -32.1790 C   0  0  0  0  0  0  0  0  0  0  0  0
   -8.7010   19.4680  -31.5490 C   0  0  0  0  0  0  0  0  0  0  0  0
   -8.1290   18.2030  -31.7140 C   0  0  0  0  0  0  0  0  0  0  0  0
   -6.9940   18.0450  -32.5110 C   0  0  0  0  0  0  0  0  0  0  0  0
   -6.4310   19.1510  -33.1510 C   0  0  0  0  0  0  0  0  0  0  0  0
   -6.9990   20.4180  -32.9900 C   0  0  0  0  0  0  0  0  0  0  0  0
   -6.8410   23.4030  -32.3190 C   0  0  0  0  0  0  0  0  0  0  0  0
   -5.7300   24.1380  -31.5620 C   0  0  0  0  0  0  0  0  0  0  0  0
   -3.6130   24.2550  -28.8810 N   0  0  0  0  0  0  0  0  0  0  0  0
   -0.4240   25.5720  -27.5400 C   0  0  0  0  0  0  0  0  0  0  0  0
    0.1110   26.3070  -26.4780 C   0  0  0  0  0  0  0  0  0  0  0  0
   -2.5446   26.1834  -24.3302 H   0  0  0  0  0  0  0  0  0  0  0  0
   -3.5028   24.8722  -26.2195 H   0  0  0  0  0  0  0  0  0  0  0  0
   -0.4124   23.3624  -29.4305 H   0  0  0  0  0  0  0  0  0  0  0  0
   -6.0000   21.3450  -30.3936 H   0  0  0  0  0  0  0  0  0  0  0  0
   -5.9213   22.1835  -28.8024 H   0  0  0  0  0  0  0  0  0  0  0  0
   -8.2617   21.9371  -29.6640 H   0  0  0  0  0  0  0  0  0  0  0  0
   -7.7340   23.6722  -29.4510 H   0  0  0  0  0  0  0  0  0  0  0  0
   -8.6130   23.8900  -31.3900 H   0  0  0  0  0  0  0  0  0  0  0  0
   -9.5979   19.5840  -30.9229 H   0  0  0  0  0  0  0  0  0  0  0  0
   -8.5745   17.3301  -31.2145 H   0  0  0  0  0  0  0  0  0  0  0  0
   -6.5431   17.0493  -32.6349 H   0  0  0  0  0  0  0  0  0  0  0  0
   -5.5393   19.0250  -33.7827 H   0  0  0  0  0  0  0  0  0  0  0  0
   -6.5533   21.2840  -33.5013 H   0  0  0  0  0  0  0  0  0  0  0  0
   -6.4263   22.4774  -32.7447 H   0  0  0  0  0  0  0  0  0  0  0  0
   -7.2137   24.0756  -33.1056 H   0  0  0  0  0  0  0  0  0  0  0  0
   -4.8945   24.3412  -32.2480 H   0  0  0  0  0  0  0  0  0  0  0  0
   -6.1271   25.0849  -31.1674 H   0  0  0  0  0  0  0  0  0  0  0  0
    0.1814   25.3996  -28.4421 H   0  0  0  0  0  0  0  0  0  0  0  0
    1.1318   26.7107  -26.5488 H   0  0  0  0  0  0  0  0  0  0  0  0
  1  2  3  0
  2  3  1  0
  3  4  2  0
  4  5  1  0
  5  6  2  0
  6  7  1  0
  7  8  2  0
  8  9  1  0
  9 10  1  0
 10 11  1  0
 11 12  1  0
 12 13  1  0
 13 14  1  0
 14 15  1  0
 15 16  2  0
 15 17  1  0
 17 18  2  0
 18 19  1  0
 19 20  2  0
 20 21  1  0
 21 22  2  0
 14 23  1  0
 23 24  1  0
 10 25  2  0
  6 26  1  0
 26 27  2  0
 27  3  1  0
 25  7  1  0
 24 11  1  0
 22 17  1  0
  4 28  1  0
  5 29  1  0
  8 30  1  0
 12 31  1  0
 12 32  1  0
 13 33  1  0
 13 34  1  0
 14 35  1  0
 18 36  1  0
 19 37  1  0
 20 38  1  0
 21 39  1  0
 22 40  1  0
 23 41  1  0
 23 42  1  0
 24 43  1  0
 24 44  1  0
 26 45  1  0
 27 46  1  0
M  CHG  1  14   1
M  END
>  <UniqueID>  (29) 
29

>  <SMILES>  (29) 
N#Cc1ccc(-c2csc(N3CC[NH+](C(=O)c4ccccc4)CC3)n2)cc1

>  <Energy>  (29) 
93.04170317218825

>  <Genealogy>  (29) 
N#Cc1ccc(-c2csc(N3CC[NH+](C(=O)c4ccccc4)CC3)n2)cc1 (protonated)
N#Cc1ccc(-c2csc(N3CC[NH+](C(=O)c4ccccc4)CC3)n2)cc1 (3D coordinates assigned)
N#Cc1ccc(-c2csc(N3CC[NH+](C(=O)c4ccccc4)CC3)n2)cc1 (nonaromatic ring conformer: 93.04170317218825 kcal/mol)

>  <smiles>  (29) 
N#Cc1ccc(-c2csc(N3CCN(C(=O)c4ccccc4)CC3)n2)cc1

>  <score_type>  (29) 
oracle

>  <origin>  (29) 
adgpu

>  <m_score__min__energy>  (29) 
-8.3599999999999994

>  <m_primary>  (29) 
energy

$$$$
29:0
     RDKit          3D

 45 47  0  0  0  0  0  0  0  0999 V2000
   -8.8880   20.7310  -31.8770 C   0  0  0  0  0  0  0  0  0  0  0  0
   -8.7780   22.1200  -31.5830 O   0  0  0  0  0  0  0  0  0  0  0  0
   -7.5780   22.7670  -31.2580 C   0  0  0  0  0  0  0  0  0  0  0  0
   -7.0040   22.6960  -29.9740 C   0  0  0  0  0  0  0  0  0  0  0  0
   -5.8060   23.3610  -29.6980 C   0  0  0  0  0  0  0  0  0  0  0  0
   -5.1580   24.1040  -30.7010 C   0  0  0  0  0  0  0  0  0  0  0  0
   -3.9250   24.7970  -30.4640 N   0  0  0  0  0  0  0  0  0  0  0  0
   -2.7770   24.4000  -29.2280 S   0  0  0  0  0  0  0  0  0  0  0  0
   -3.4250   24.5570  -27.8810 O   0  0  0  0  0  0  0  0  0  0  0  0
   -1.6110   25.3440  -29.3160 O   0  0  0  0  0  0  0  0  0  0  0  0
   -2.1940   22.7540  -29.4620 C   0  0  0  0  0  0  0  0  0  0  0  0
   -2.5230   21.7670  -28.5270 C   0  0  0  0  0  0  0  0  0  0  0  0
   -2.0530   20.4630  -28.6920 C   0  0  0  0  0  0  0  0  0  0  0  0
   -1.2520   20.1370  -29.7900 C   0  0  0  0  0  0  0  0  0  0  0  0
   -0.9160   21.1190  -30.7410 C   0  0  0  0  0  0  0  0  0  0  0  0
   -0.0890   20.8220  -31.8810 N   0  0  0  0  0  0  0  0  0  0  0  0
   -0.6900   20.6700  -33.5030 S   0  0  0  0  0  0  0  0  0  0  0  0
   -0.4060   21.9390  -34.2570 O   0  0  0  0  0  0  0  0  0  0  0  0
    0.0120   19.5280  -34.1820 O   0  0  0  0  0  0  0  0  0  0  0  0
   -2.4310   20.4040  -33.4790 C   0  0  0  0  0  0  0  0  0  0  0  0
   -3.2920   21.4410  -33.0940 C   0  0  0  0  0  0  0  0  0  0  0  0
   -4.6750   21.2320  -33.0660 C   0  0  0  0  0  0  0  0  0  0  0  0
   -5.2020   19.9870  -33.4240 C   0  0  0  0  0  0  0  0  0  0  0  0
   -6.5420   19.7850  -33.3960 F   0  0  0  0  0  0  0  0  0  0  0  0
   -4.3460   18.9530  -33.8160 C   0  0  0  0  0  0  0  0  0  0  0  0
   -2.9630   19.1600  -33.8450 C   0  0  0  0  0  0  0  0  0  0  0  0
   -1.3930   22.4280  -30.5650 C   0  0  0  0  0  0  0  0  0  0  0  0
   -5.7320   24.1740  -31.9760 C   0  0  0  0  0  0  0  0  0  0  0  0
   -6.9310   23.5110  -32.2510 C   0  0  0  0  0  0  0  0  0  0  0  0
   -8.9332   20.1599  -30.9380 H   0  0  0  0  0  0  0  0  0  0  0  0
   -9.8032   20.5510  -32.4601 H   0  0  0  0  0  0  0  0  0  0  0  0
   -8.0125   20.4092  -32.4601 H   0  0  0  0  0  0  0  0  0  0  0  0
   -7.5012   22.1140  -29.1840 H   0  0  0  0  0  0  0  0  0  0  0  0
   -5.3676   23.3029  -28.6908 H   0  0  0  0  0  0  0  0  0  0  0  0
   -3.1527   22.0187  -27.6609 H   0  0  0  0  0  0  0  0  0  0  0  0
   -2.3140   19.6891  -27.9551 H   0  0  0  0  0  0  0  0  0  0  0  0
   -0.8824   19.1081  -29.9116 H   0  0  0  0  0  0  0  0  0  0  0  0
    0.9460   20.7720  -31.7560 H   0  0  0  0  0  0  0  0  0  0  0  0
   -2.8793   22.4212  -32.8133 H   0  0  0  0  0  0  0  0  0  0  0  0
   -5.3482   22.0472  -32.7623 H   0  0  0  0  0  0  0  0  0  0  0  0
   -4.7610   17.9753  -34.1020 H   0  0  0  0  0  0  0  0  0  0  0  0
   -2.2920   18.3455  -34.1554 H   0  0  0  0  0  0  0  0  0  0  0  0
   -1.1355   23.2050  -31.2999 H   0  0  0  0  0  0  0  0  0  0  0  0
   -5.2356   24.7551  -32.7671 H   0  0  0  0  0  0  0  0  0  0  0  0
   -7.3703   23.5745  -33.2575 H   0  0  0  0  0  0  0  0  0  0  0  0
  1  2  1  0
  2  3  1  0
  3  4  2  0
  4  5  1  0
  5  6  2  0
  6  7  1  0
  7  8  1  0
  8  9  2  0
  8 10  2  0
  8 11  1  0
 11 12  2  0
 12 13  1  0
 13 14  2  0
 14 15  1  0
 15 16  1  0
 16 17  1  0
 17 18  2  0
 17 19  2  0
 17 20  1  0
 20 21  2  0
 21 22  1  0
 22 23  2  0
 23 24  1  0
 23 25  1  0
 25 26  2  0
 15 27  2  0
  6 28  1  0
 28 29  2  0
 29  3  1  0
 27 11  1  0
 26 20  1  0
  1 30  1  0
  1 31  1  0
  1 32  1  0
  4 33  1  0
  5 34  1  0
 12 35  1  0
 13 36  1  0
 14 37  1  0
 16 38  1  0
 21 39  1  0
 22 40  1  0
 25 41  1  0
 26 42  1  0
 27 43  1  0
 28 44  1  0
 29 45  1  0
M  CHG  1   7  -1
M  END
>  <UniqueID>  (30) 
30

>  <SMILES>  (30) 
COc1ccc([N-]S(=O)(=O)c2cccc(NS(=O)(=O)c3ccc(F)cc3)c2)cc1

>  <Energy>  (30) 
52.69082105481186

>  <Genealogy>  (30) 
COc1ccc([N-]S(=O)(=O)c2cccc(NS(=O)(=O)c3ccc(F)cc3)c2)cc1 (protonated)
COc1ccc([N-]S(=O)(=O)c2cccc(NS(=O)(=O)c3ccc(F)cc3)c2)cc1 (3D coordinates assigned)
COc1ccc([N-]S(=O)(=O)c2cccc(NS(=O)(=O)c3ccc(F)cc3)c2)cc1 (optimized conformer: 52.69082105481186 kcal/mol)

>  <smiles>  (30) 
COc1ccc(NS(=O)(=O)c2cccc(NS(=O)(=O)c3ccc(F)cc3)c2)cc1

>  <score_type>  (30) 
oracle

>  <origin>  (30) 
adgpu

>  <m_score__min__energy>  (30) 
-11.01

>  <m_primary>  (30) 
energy

$$$$
30:0
     RDKit          3D

 61 64  0  0  0  0  0  0  0  0999 V2000
   -3.8610   21.9530  -33.2590 C   0  0  0  0  0  0  0  0  0  0  0  0
   -3.4220   21.6160  -31.8590 C   0  0  0  0  0  0  0  0  0  0  0  0
   -2.4450   20.6210  -31.6800 C   0  0  0  0  0  0  0  0  0  0  0  0
   -2.0070   20.2760  -30.4010 C   0  0  0  0  0  0  0  0  0  0  0  0
   -2.5140   20.9390  -29.2810 C   0  0  0  0  0  0  0  0  0  0  0  0
   -1.9830   20.4810  -27.6670 S   0  0  0  0  0  0  0  0  0  0  0  0
   -3.0530   19.6770  -26.9830 O   0  0  0  0  0  0  0  0  0  0  0  0
   -1.7210   21.7100  -26.8410 O   0  0  0  0  0  0  0  0  0  0  0  0
   -0.5070   19.5330  -27.8020 C   0  0  0  0  0  0  0  0  0  0  0  0
    0.6890   20.1390  -28.2140 C   0  0  0  0  0  0  0  0  0  0  0  0
    1.8640   19.3840  -28.3040 C   0  0  0  0  0  0  0  0  0  0  0  0
    1.8490   18.0240  -27.9770 C   0  0  0  0  0  0  0  0  0  0  0  0
    0.6610   17.4190  -27.5550 C   0  0  0  0  0  0  0  0  0  0  0  0
   -0.5140   18.1720  -27.4640 C   0  0  0  0  0  0  0  0  0  0  0  0
   -3.4750   21.9420  -29.4460 C   0  0  0  0  0  0  0  0  0  0  0  0
   -3.9300   22.2980  -30.7260 C   0  0  0  0  0  0  0  0  0  0  0  0
   -5.1550   23.5720  -30.8640 S   0  0  0  0  0  0  0  0  0  0  0  0
   -5.8560   23.7150  -29.5390 O   0  0  0  0  0  0  0  0  0  0  0  0
   -4.5180   24.8890  -31.2100 O   0  0  0  0  0  0  0  0  0  0  0  0
   -6.3200   23.1810  -32.0890 N   0  0  0  0  0  0  0  0  0  0  0  0
   -7.1810   22.0300  -32.0460 C   0  0  0  0  0  0  0  0  0  0  0  0
   -8.5700   22.2210  -31.9770 C   0  0  0  0  0  0  0  0  0  0  0  0
   -9.4340   21.1260  -31.9300 C   0  0  0  0  0  0  0  0  0  0  0  0
   -8.9230   19.8270  -31.9580 C   0  0  0  0  0  0  0  0  0  0  0  0
   -7.5410   19.6170  -32.0320 C   0  0  0  0  0  0  0  0  0  0  0  0
   -6.8960   17.9750  -32.0830 S   0  0  0  0  0  0  0  0  0  0  0  0
   -6.6140   17.5100  -30.6810 O   0  0  0  0  0  0  0  0  0  0  0  0
   -7.9310   17.0580  -32.6750 O   0  0  0  0  0  0  0  0  0  0  0  0
   -5.4290   17.8830  -33.0230 N   0  0  0  0  0  0  0  0  0  0  0  0
   -5.7420   17.9210  -34.4680 C   0  0  0  0  0  0  0  0  0  0  0  0
   -4.5180   17.5730  -35.3440 C   0  0  0  0  0  0  0  0  0  0  0  0
   -3.2100   17.6470  -34.5490 C   0  0  0  0  0  0  0  0  0  0  0  0
   -3.2630   16.7350  -33.3100 C   0  0  0  0  0  0  0  0  0  0  0  0
   -4.6680   16.6700  -32.6840 C   0  0  0  0  0  0  0  0  0  0  0  0
   -6.6730   20.7160  -32.0760 C   0  0  0  0  0  0  0  0  0  0  0  0
   -4.7330   22.6224  -33.2187 H   0  0  0  0  0  0  0  0  0  0  0  0
   -3.0385   22.4539  -33.7906 H   0  0  0  0  0  0  0  0  0  0  0  0
   -4.1323   21.0290  -33.7906 H   0  0  0  0  0  0  0  0  0  0  0  0
   -2.0217   20.1094  -32.5570 H   0  0  0  0  0  0  0  0  0  0  0  0
   -1.2596   19.4789  -30.2742 H   0  0  0  0  0  0  0  0  0  0  0  0
    0.7035   21.2095  -28.4668 H   0  0  0  0  0  0  0  0  0  0  0  0
    2.7997   19.8603  -28.6320 H   0  0  0  0  0  0  0  0  0  0  0  0
    2.7720   17.4303  -28.0518 H   0  0  0  0  0  0  0  0  0  0  0  0
    0.6507   16.3503  -27.2945 H   0  0  0  0  0  0  0  0  0  0  0  0
   -1.4462   17.6954  -27.1264 H   0  0  0  0  0  0  0  0  0  0  0  0
   -3.8791   22.4580  -28.5626 H   0  0  0  0  0  0  0  0  0  0  0  0
   -6.4280   23.8660  -32.8700 H   0  0  0  0  0  0  0  0  0  0  0  0
   -8.9805   23.2414  -31.9598 H   0  0  0  0  0  0  0  0  0  0  0  0
  -10.5206   21.2868  -31.8707 H   0  0  0  0  0  0  0  0  0  0  0  0
   -9.6078   18.9669  -31.9218 H   0  0  0  0  0  0  0  0  0  0  0  0
   -6.5427   17.1958  -34.6754 H   0  0  0  0  0  0  0  0  0  0  0  0
   -6.0529   18.9462  -34.7174 H   0  0  0  0  0  0  0  0  0  0  0  0
   -4.6392   16.5524  -35.7359 H   0  0  0  0  0  0  0  0  0  0  0  0
   -4.4631   18.3065  -36.1619 H   0  0  0  0  0  0  0  0  0  0  0  0
   -2.3785   17.3281  -35.1947 H   0  0  0  0  0  0  0  0  0  0  0  0
   -3.0628   18.6842  -34.2137 H   0  0  0  0  0  0  0  0  0  0  0  0
   -2.9619   15.7195  -33.6066 H   0  0  0  0  0  0  0  0  0  0  0  0
   -2.5810   17.1558  -32.5564 H   0  0  0  0  0  0  0  0  0  0  0  0
   -5.1984   15.7876  -33.0713 H   0  0  0  0  0  0  0  0  0  0  0  0
   -4.5721   16.5989  -31.5905 H   0  0  0  0  0  0  0  0  0  0  0  0
   -5.5869   20.5518  -32.1344 H   0  0  0  0  0  0  0  0  0  0  0  0
  1  2  1  0
  2  3  2  0
  3  4  1  0
  4  5  2  0
  5  6  1  0
  6  7  2  0
  6  8  2  0
  6  9  1  0
  9 10  2  0
 10 11  1  0
 11 12  2  0
 12 13  1  0
 13 14  2  0
  5 15  1  0
 15 16  2  0
 16 17  1  0
 17 18  2  0
 17 19  2  0
 17 20  1  0
 20 21  1  0
 21 22  2  0
 22 23  1  0
 23 24  2  0
 24 25  1  0
 25 26  1  0
 26 27  2  0
 26 28  2  0
 26 29  1  0
 29 30  1  0
 30 31  1  0
 31 32  1  0
 32 33  1  0
 33 34  1  0
 25 35  2  0
 16  2  1  0
 35 21  1  0
 14  9  1  0
 34 29  1  0
  1 36  1  0
  1 37  1  0
  1 38  1  0
  3 39  1  0
  4 40  1  0
 10 41  1  0
 11 42  1  0
 12 43  1  0
 13 44  1  0
 14 45  1  0
 15 46  1  0
 20 47  1  0
 22 48  1  0
 23 49  1  0
 24 50  1  0
 30 51  1  0
 30 52  1  0
 31 53  1  0
 31 54  1  0
 32 55  1  0
 32 56  1  0
 33 57  1  0
 33 58  1  0
 34 59  1  0
 34 60  1  0
 35 61  1  0
M  END
>  <UniqueID>  (31) 
31

>  <SMILES>  (31) 
Cc1ccc(S(=O)(=O)c2ccccc2)cc1S(=O)(=O)Nc1cccc(S(=O)(=O)N2CCCCC2)c1

>  <Energy>  (31) 
66.8279539102972

>  <Genealogy>  (31) 
Cc1ccc(S(=O)(=O)c2ccccc2)cc1S(=O)(=O)Nc1cccc(S(=O)(=O)N2CCCCC2)c1 (3D coordinates assigned)
Cc1ccc(S(=O)(=O)c2ccccc2)cc1S(=O)(=O)Nc1cccc(S(=O)(=O)N2CCCCC2)c1 (nonaromatic ring conformer: 66.8279539102972 kcal/mol)

>  <smiles>  (31) 
Cc1ccc(S(=O)(=O)c2ccccc2)cc1S(=O)(=O)Nc1cccc(S(=O)(=O)N2CCCCC2)c1

>  <score_type>  (31) 
oracle

>  <origin>  (31) 
adgpu

>  <m_score__min__energy>  (31) 
-12.380000000000001

>  <m_primary>  (31) 
energy

$$$$
31:0
     RDKit          3D

 52 55  0  0  0  0  0  0  0  0999 V2000
   -1.4080   15.4720  -34.8350 C   0  0  0  0  0  0  0  0  0  0  0  0
   -2.1250   14.1590  -35.8010 S   0  0  0  0  0  0  0  0  0  0  0  0
   -2.6560   14.6940  -37.1020 O   0  0  0  0  0  0  0  0  0  0  0  0
   -1.0550   13.1460  -36.0960 O   0  0  0  0  0  0  0  0  0  0  0  0
   -3.3990   13.3840  -34.9120 N   0  0  0  0  0  0  0  0  0  0  0  0
   -4.6920   13.9690  -34.6670 C   0  0  0  0  0  0  0  0  0  0  0  0
   -5.8420   13.2090  -34.9230 C   0  0  0  0  0  0  0  0  0  0  0  0
   -7.1110   13.7450  -34.6970 C   0  0  0  0  0  0  0  0  0  0  0  0
   -7.2480   15.0480  -34.2150 C   0  0  0  0  0  0  0  0  0  0  0  0
   -6.1120   15.8330  -33.9580 C   0  0  0  0  0  0  0  0  0  0  0  0
   -6.2540   17.2200  -33.4460 C   0  0  0  0  0  0  0  0  0  0  0  0
   -6.5290   17.4550  -32.0870 C   0  0  0  0  0  0  0  0  0  0  0  0
   -6.6610   18.7600  -31.6050 C   0  0  0  0  0  0  0  0  0  0  0  0
   -6.5240   19.8550  -32.4720 C   0  0  0  0  0  0  0  0  0  0  0  0
   -6.6450   21.2010  -31.9690 N   0  0  0  0  0  0  0  0  0  0  0  0
   -5.5180   21.8450  -31.5350 C   0  0  0  0  0  0  0  0  0  0  0  0
   -5.5780   23.1630  -31.0510 C   0  0  0  0  0  0  0  0  0  0  0  0
   -4.3600   23.8680  -30.5780 C   0  0  0  0  0  0  0  0  0  0  0  0
   -4.2870   25.1220  -30.6970 O   0  0  0  0  0  0  0  0  0  0  0  0
   -3.2120   23.1390  -29.9890 C   0  0  0  0  0  0  0  0  0  0  0  0
   -2.3740   22.3800  -30.8260 C   0  0  0  0  0  0  0  0  0  0  0  0
   -1.2730   21.6990  -30.3000 C   0  0  0  0  0  0  0  0  0  0  0  0
   -0.9940   21.7720  -28.9340 C   0  0  0  0  0  0  0  0  0  0  0  0
   -1.8140   22.5250  -28.0930 C   0  0  0  0  0  0  0  0  0  0  0  0
   -2.9200   23.2120  -28.6090 C   0  0  0  0  0  0  0  0  0  0  0  0
   -3.9430   24.1040  -27.4850 Cl  0  0  0  0  0  0  0  0  0  0  0  0
   -6.8270   23.7980  -30.9980 C   0  0  0  0  0  0  0  0  0  0  0  0
   -7.9680   23.1320  -31.4360 C   0  0  0  0  0  0  0  0  0  0  0  0
   -7.8650   21.8270  -31.9200 C   0  0  0  0  0  0  0  0  0  0  0  0
   -8.9120   21.2280  -32.2940 O   0  0  0  0  0  0  0  0  0  0  0  0
   -6.2450   19.6250  -33.8280 C   0  0  0  0  0  0  0  0  0  0  0  0
   -6.1150   18.3200  -34.3120 C   0  0  0  0  0  0  0  0  0  0  0  0
   -4.8360   15.2870  -34.1930 C   0  0  0  0  0  0  0  0  0  0  0  0
   -1.5300   15.2486  -33.7649 H   0  0  0  0  0  0  0  0  0  0  0  0
   -0.3373   15.5588  -35.0717 H   0  0  0  0  0  0  0  0  0  0  0  0
   -1.9138   16.4197  -35.0717 H   0  0  0  0  0  0  0  0  0  0  0  0
   -3.1660   12.4730  -34.4580 H   0  0  0  0  0  0  0  0  0  0  0  0
   -5.7435   12.1822  -35.3050 H   0  0  0  0  0  0  0  0  0  0  0  0
   -8.0061   13.1385  -34.8994 H   0  0  0  0  0  0  0  0  0  0  0  0
   -8.2511   15.4622  -34.0355 H   0  0  0  0  0  0  0  0  0  0  0  0
   -6.6411   16.6049  -31.3980 H   0  0  0  0  0  0  0  0  0  0  0  0
   -6.8736   18.9301  -30.5392 H   0  0  0  0  0  0  0  0  0  0  0  0
   -4.5503   21.3229  -31.5655 H   0  0  0  0  0  0  0  0  0  0  0  0
   -2.5872   22.3221  -31.9036 H   0  0  0  0  0  0  0  0  0  0  0  0
   -0.6259   21.1052  -30.9624 H   0  0  0  0  0  0  0  0  0  0  0  0
   -0.1272   21.2356  -28.5205 H   0  0  0  0  0  0  0  0  0  0  0  0
   -1.5903   22.5794  -27.0174 H   0  0  0  0  0  0  0  0  0  0  0  0
   -6.9052   24.8242  -30.6096 H   0  0  0  0  0  0  0  0  0  0  0  0
   -8.9471   23.6322  -31.4008 H   0  0  0  0  0  0  0  0  0  0  0  0
   -6.1279   20.4768  -34.5142 H   0  0  0  0  0  0  0  0  0  0  0  0
   -5.9024   18.1519  -35.3781 H   0  0  0  0  0  0  0  0  0  0  0  0
   -3.9406   15.8974  -34.0041 H   0  0  0  0  0  0  0  0  0  0  0  0
  1  2  1  0
  2  3  2  0
  2  4  2  0
  2  5  1  0
  5  6  1  0
  6  7  2  0
  7  8  1  0
  8  9  2  0
  9 10  1  0
 10 11  1  0
 11 12  2  0
 12 13  1  0
 13 14  2  0
 14 15  1  0
 15 16  1  0
 16 17  2  0
 17 18  1  0
 18 19  2  0
 18 20  1  0
 20 21  2  0
 21 22  1  0
 22 23  2  0
 23 24  1  0
 24 25  2  0
 25 26  1  0
 17 27  1  0
 27 28  2  0
 28 29  1  0
 29 30  2  0
 14 31  1  0
 31 32  2  0
 10 33  2  0
 33  6  1  0
 32 11  1  0
 29 15  1  0
 25 20  1  0
  1 34  1  0
  1 35  1  0
  1 36  1  0
  5 37  1  0
  7 38  1  0
  8 39  1  0
  9 40  1  0
 12 41  1  0
 13 42  1  0
 16 43  1  0
 21 44  1  0
 22 45  1  0
 23 46  1  0
 24 47  1  0
 27 48  1  0
 28 49  1  0
 31 50  1  0
 32 51  1  0
 33 52  1  0
M  END
>  <UniqueID>  (32) 
32

>  <SMILES>  (32) 
CS(=O)(=O)Nc1cccc(-c2ccc(-n3cc(C(=O)c4ccccc4Cl)ccc3=O)cc2)c1

>  <Energy>  (32) 
77.48692141867365

>  <Genealogy>  (32) 
CS(=O)(=O)Nc1cccc(-c2ccc(-n3cc(C(=O)c4ccccc4Cl)ccc3=O)cc2)c1 (3D coordinates assigned)
CS(=O)(=O)Nc1cccc(-c2ccc(-n3cc(C(=O)c4ccccc4Cl)ccc3=O)cc2)c1 (optimized conformer: 77.48692141867365 kcal/mol)

>  <smiles>  (32) 
CS(=O)(=O)Nc1cccc(-c2ccc(-n3cc(C(=O)c4ccccc4Cl)ccc3=O)cc2)c1

>  <score_type>  (32) 
oracle

>  <origin>  (32) 
adgpu

>  <m_score__min__energy>  (32) 
-10.26

>  <m_primary>  (32) 
energy

$$$$
32:0
     RDKit          3D

 51 54  0  0  0  0  0  0  0  0999 V2000
   -4.2500   25.6680  -30.8420 O   0  0  0  0  0  0  0  0  0  0  0  0
   -5.2960   24.9570  -30.0290 S   0  0  0  0  0  0  0  0  0  0  0  0
   -6.3770   25.9320  -29.6510 O   0  0  0  0  0  0  0  0  0  0  0  0
   -4.5620   24.3330  -28.5830 N   0  0  0  0  0  0  0  0  0  0  0  0
   -3.2920   24.1070  -28.3950 C   0  0  0  0  0  0  0  0  0  0  0  0
   -2.8730   23.6540  -27.1380 C   0  0  0  0  0  0  0  0  0  0  0  0
   -1.5150   23.4480  -26.8950 C   0  0  0  0  0  0  0  0  0  0  0  0
   -0.5850   23.6850  -27.9060 C   0  0  0  0  0  0  0  0  0  0  0  0
    0.7380   23.4960  -27.6800 F   0  0  0  0  0  0  0  0  0  0  0  0
   -1.0300   24.1210  -29.1540 C   0  0  0  0  0  0  0  0  0  0  0  0
   -2.3600   24.3200  -29.3780 N   0  0  0  0  0  0  0  0  0  0  0  0
   -5.9600   23.6350  -30.9860 C   0  0  0  0  0  0  0  0  0  0  0  0
   -5.1020   22.7560  -31.6630 C   0  0  0  0  0  0  0  0  0  0  0  0
   -5.6220   21.6470  -32.3310 C   0  0  0  0  0  0  0  0  0  0  0  0
   -7.0060   21.4110  -32.3390 C   0  0  0  0  0  0  0  0  0  0  0  0
   -7.5330   20.2620  -32.9390 O   0  0  0  0  0  0  0  0  0  0  0  0
   -6.8210   19.0580  -33.0530 C   0  0  0  0  0  0  0  0  0  0  0  0
   -6.7650   18.1890  -31.9570 C   0  0  0  0  0  0  0  0  0  0  0  0
   -6.0600   16.9830  -32.0470 C   0  0  0  0  0  0  0  0  0  0  0  0
   -5.3800   16.6490  -33.2290 C   0  0  0  0  0  0  0  0  0  0  0  0
   -4.4750   15.1420  -33.3250 S   0  0  0  0  0  0  0  0  0  0  0  0
   -5.0950   14.2240  -34.3370 O   0  0  0  0  0  0  0  0  0  0  0  0
   -4.5020   14.4790  -31.9780 O   0  0  0  0  0  0  0  0  0  0  0  0
   -2.8220   15.4420  -33.7600 N   0  0  0  0  0  0  0  0  0  0  0  0
   -2.0930   16.6430  -33.4740 C   0  0  0  0  0  0  0  0  0  0  0  0
   -1.1850   16.7320  -32.4020 C   0  0  0  0  0  0  0  0  0  0  0  0
   -0.4980   17.9270  -32.1580 C   0  0  0  0  0  0  0  0  0  0  0  0
   -0.7080   19.0340  -32.9820 C   0  0  0  0  0  0  0  0  0  0  0  0
   -1.6030   18.9520  -34.0550 C   0  0  0  0  0  0  0  0  0  0  0  0
   -2.2980   17.7620  -34.2920 C   0  0  0  0  0  0  0  0  0  0  0  0
   -5.4120   17.5300  -34.3170 C   0  0  0  0  0  0  0  0  0  0  0  0
   -6.1310   18.7230  -34.2340 C   0  0  0  0  0  0  0  0  0  0  0  0
   -7.8660   22.3290  -31.7320 C   0  0  0  0  0  0  0  0  0  0  0  0
   -7.3470   23.4310  -31.0440 C   0  0  0  0  0  0  0  0  0  0  0  0
   -3.6114   23.4615  -26.3458 H   0  0  0  0  0  0  0  0  0  0  0  0
   -1.1786   23.0992  -25.9075 H   0  0  0  0  0  0  0  0  0  0  0  0
   -0.3050   24.3050  -29.9606 H   0  0  0  0  0  0  0  0  0  0  0  0
   -2.6350   24.6400  -30.3310 H   0  0  0  0  0  0  0  0  0  0  0  0
   -4.0177   22.9412  -31.6673 H   0  0  0  0  0  0  0  0  0  0  0  0
   -4.9451   20.9549  -32.8534 H   0  0  0  0  0  0  0  0  0  0  0  0
   -7.2774   18.4550  -31.0207 H   0  0  0  0  0  0  0  0  0  0  0  0
   -6.0387   16.2949  -31.1890 H   0  0  0  0  0  0  0  0  0  0  0  0
   -1.0148   15.8596  -31.7539 H   0  0  0  0  0  0  0  0  0  0  0  0
    0.2075   17.9937  -31.3167 H   0  0  0  0  0  0  0  0  0  0  0  0
   -0.1689   19.9729  -32.7876 H   0  0  0  0  0  0  0  0  0  0  0  0
   -1.7593   19.8216  -34.7103 H   0  0  0  0  0  0  0  0  0  0  0  0
   -3.0114   17.7039  -35.1273 H   0  0  0  0  0  0  0  0  0  0  0  0
   -4.8685   17.2807  -35.2403 H   0  0  0  0  0  0  0  0  0  0  0  0
   -6.1590   19.4057  -35.0960 H   0  0  0  0  0  0  0  0  0  0  0  0
   -8.9547   22.1851  -31.7951 H   0  0  0  0  0  0  0  0  0  0  0  0
   -8.0274   24.1387  -30.5477 H   0  0  0  0  0  0  0  0  0  0  0  0
  1  2  2  0
  2  3  2  0
  2  4  1  0
  4  5  2  3
  5  6  1  0
  6  7  2  0
  7  8  1  0
  8  9  1  0
  8 10  2  0
 10 11  1  0
  2 12  1  0
 12 13  2  0
 13 14  1  0
 14 15  2  0
 15 16  1  0
 16 17  1  0
 17 18  2  0
 18 19  1  0
 19 20  2  0
 20 21  1  0
 21 22  2  0
 21 23  2  0
 21 24  1  0
 24 25  1  0
 25 26  2  0
 26 27  1  0
 27 28  2  0
 28 29  1  0
 29 30  2  0
 20 31  1  0
 31 32  2  0
 15 33  1  0
 33 34  2  0
 11  5  1  0
 34 12  1  0
 32 17  1  0
 30 25  1  0
  6 35  1  0
  7 36  1  0
 10 37  1  0
 11 38  1  0
 13 39  1  0
 14 40  1  0
 18 41  1  0
 19 42  1  0
 26 43  1  0
 27 44  1  0
 28 45  1  0
 29 46  1  0
 30 47  1  0
 31 48  1  0
 32 49  1  0
 33 50  1  0
 34 51  1  0
M  CHG  1  24  -1
M  END
>  <UniqueID>  (33) 
33

>  <SMILES>  (33) 
O=S(=O)(N=c1ccc(F)c[nH]1)c1ccc(Oc2ccc(S(=O)(=O)[N-]c3ccccc3)cc2)cc1

>  <Energy>  (33) 
71.42901700844506

>  <Genealogy>  (33) 
O=S(=O)(N=c1ccc(F)c[nH]1)c1ccc(Oc2ccc(S(=O)(=O)[N-]c3ccccc3)cc2)cc1 (protonated)
O=S(=O)(N=c1ccc(F)c[nH]1)c1ccc(Oc2ccc(S(=O)(=O)[N-]c3ccccc3)cc2)cc1 (3D coordinates assigned)
O=S(=O)(N=c1ccc(F)c[nH]1)c1ccc(Oc2ccc(S(=O)(=O)[N-]c3ccccc3)cc2)cc1 (optimized conformer: 71.42901700844506 kcal/mol)

>  <smiles>  (33) 
O=S(=O)(N=c1ccc(F)c[nH]1)c1ccc(Oc2ccc(S(=O)(=O)Nc3ccccc3)cc2)cc1

>  <score_type>  (33) 
oracle

>  <origin>  (33) 
adgpu

>  <m_score__min__energy>  (33) 
-10.43

>  <m_primary>  (33) 
energy

$$$$
33:0
     RDKit          3D

 35 37  0  0  0  0  0  0  0  0999 V2000
   -3.1100   20.6490  -27.3160 O   0  0  0  0  0  0  0  0  0  0  0  0
   -2.4320   20.9680  -28.3280 C   0  0  0  0  0  0  0  0  0  0  0  0
   -2.0230   19.9320  -29.2340 N   0  0  0  0  0  0  0  0  0  0  0  0
   -1.2380   20.1070  -30.4220 C   0  0  0  0  0  0  0  0  0  0  0  0
   -0.0010   19.4630  -30.5910 C   0  0  0  0  0  0  0  0  0  0  0  0
    0.7350   19.6470  -31.7640 C   0  0  0  0  0  0  0  0  0  0  0  0
    0.2420   20.4650  -32.7960 C   0  0  0  0  0  0  0  0  0  0  0  0
    1.0260   20.6640  -34.0420 C   0  0  0  0  0  0  0  0  0  0  0  0
    1.6500   19.5740  -34.6760 C   0  0  0  0  0  0  0  0  0  0  0  0
    2.3870   19.7630  -35.8490 C   0  0  0  0  0  0  0  0  0  0  0  0
    2.9870   18.7020  -36.4440 F   0  0  0  0  0  0  0  0  0  0  0  0
    2.5100   21.0410  -36.4030 C   0  0  0  0  0  0  0  0  0  0  0  0
    3.2450   21.2190  -37.5700 O   0  0  0  0  0  0  0  0  0  0  0  0
    1.8930   22.1350  -35.7820 C   0  0  0  0  0  0  0  0  0  0  0  0
    2.0320   23.7460  -36.4670 Cl  0  0  0  0  0  0  0  0  0  0  0  0
    1.1550   21.9460  -34.6070 C   0  0  0  0  0  0  0  0  0  0  0  0
   -1.0100   21.0860  -32.6310 C   0  0  0  0  0  0  0  0  0  0  0  0
   -1.7440   20.9010  -31.4550 C   0  0  0  0  0  0  0  0  0  0  0  0
   -2.1250   22.3970  -28.5780 C   0  0  0  0  0  0  0  0  0  0  0  0
   -1.0010   22.9910  -27.9800 C   0  0  0  0  0  0  0  0  0  0  0  0
   -0.7060   24.3380  -28.2090 C   0  0  0  0  0  0  0  0  0  0  0  0
   -1.5340   25.1090  -29.0300 C   0  0  0  0  0  0  0  0  0  0  0  0
   -1.2340   26.4460  -29.2560 O   0  0  0  0  0  0  0  0  0  0  0  0
   -2.6660   24.5310  -29.6170 C   0  0  0  0  0  0  0  0  0  0  0  0
   -3.4990   25.2940  -30.4270 O   0  0  0  0  0  0  0  0  0  0  0  0
   -2.9630   23.1840  -29.3890 C   0  0  0  0  0  0  0  0  0  0  0  0
    0.3898   18.8109  -29.7960 H   0  0  0  0  0  0  0  0  0  0  0  0
    1.7082   19.1479  -31.8813 H   0  0  0  0  0  0  0  0  0  0  0  0
    1.5574   18.5659  -34.2458 H   0  0  0  0  0  0  0  0  0  0  0  0
    0.6721   22.8070  -34.1217 H   0  0  0  0  0  0  0  0  0  0  0  0
   -1.4142   21.7215  -33.4327 H   0  0  0  0  0  0  0  0  0  0  0  0
   -2.7260   21.3836  -31.3423 H   0  0  0  0  0  0  0  0  0  0  0  0
   -0.3488   22.3921  -27.3273 H   0  0  0  0  0  0  0  0  0  0  0  0
    0.1801   24.7925  -27.7419 H   0  0  0  0  0  0  0  0  0  0  0  0
   -3.8577   22.7366  -29.8467 H   0  0  0  0  0  0  0  0  0  0  0  0
  1  2  2  0
  2  3  1  0
  3  4  1  0
  4  5  2  0
  5  6  1  0
  6  7  2  0
  7  8  1  0
  8  9  2  0
  9 10  1  0
 10 11  1  0
 10 12  2  0
 12 13  1  0
 12 14  1  0
 14 15  1  0
 14 16  2  0
  7 17  1  0
 17 18  2  0
  2 19  1  0
 19 20  2  0
 20 21  1  0
 21 22  2  0
 22 23  1  0
 22 24  1  0
 24 25  1  0
 24 26  2  0
 18  4  1  0
 26 19  1  0
 16  8  1  0
  5 27  1  0
  6 28  1  0
  9 29  1  0
 16 30  1  0
 17 31  1  0
 18 32  1  0
 20 33  1  0
 21 34  1  0
 26 35  1  0
M  CHG  4   3  -1  13  -1  23  -1  25  -1
M  END
>  <UniqueID>  (34) 
34

>  <SMILES>  (34) 
O=C([N-]c1ccc(-c2cc(F)c([O-])c(Cl)c2)cc1)c1ccc([O-])c([O-])c1

>  <Energy>  (34) 
51.23125669708509

>  <Genealogy>  (34) 
O=C([N-]c1ccc(-c2cc(F)c([O-])c(Cl)c2)cc1)c1ccc([O-])c([O-])c1 (protonated)
O=C([N-]c1ccc(-c2cc(F)c([O-])c(Cl)c2)cc1)c1ccc([O-])c([O-])c1 (3D coordinates assigned)
O=C([N-]c1ccc(-c2cc(F)c([O-])c(Cl)c2)cc1)c1ccc([O-])c([O-])c1 (optimized conformer: 51.23125669708509 kcal/mol)

>  <smiles>  (34) 
O=C(Nc1ccc(-c2cc(F)c(O)c(Cl)c2)cc1)c1ccc(O)c(O)c1

>  <score_type>  (34) 
oracle

>  <origin>  (34) 
adgpu

>  <m_score__min__energy>  (34) 
-13.42

>  <m_primary>  (34) 
energy

$$$$
34:0
     RDKit          3D

 36 37  0  0  0  0  0  0  0  0999 V2000
   -8.7140   19.2450  -31.9560 C   0  0  0  0  0  0  0  0  0  0  0  0
   -7.4980   19.7850  -32.6990 C   0  0  0  0  0  0  0  0  0  0  0  0
   -7.1500   21.1680  -32.2170 C   0  0  0  0  0  0  0  0  0  0  0  0
   -8.1620   22.1080  -31.9690 C   0  0  0  0  0  0  0  0  0  0  0  0
   -7.8340   23.3970  -31.5400 C   0  0  0  0  0  0  0  0  0  0  0  0
   -6.4950   23.7640  -31.3800 C   0  0  0  0  0  0  0  0  0  0  0  0
   -5.4730   22.8510  -31.6660 C   0  0  0  0  0  0  0  0  0  0  0  0
   -4.1090   23.2530  -31.4830 N   0  0  0  0  0  0  0  0  0  0  0  0
   -3.6340   24.1580  -30.4790 C   0  0  0  0  0  0  0  0  0  0  0  0
   -3.8620   25.3890  -30.6180 O   0  0  0  0  0  0  0  0  0  0  0  0
   -2.8860   23.6760  -29.3490 N   0  0  0  0  0  0  0  0  0  0  0  0
   -2.4710   24.4970  -28.2460 C   0  0  0  0  0  0  0  0  0  0  0  0
   -3.2650   24.5480  -27.0910 C   0  0  0  0  0  0  0  0  0  0  0  0
   -2.8750   25.3210  -25.9940 C   0  0  0  0  0  0  0  0  0  0  0  0
   -1.6800   26.0530  -26.0350 C   0  0  0  0  0  0  0  0  0  0  0  0
   -1.2400   26.8500  -24.8430 C   0  0  0  0  0  0  0  0  0  0  0  0
   -0.8600   25.9710  -27.1710 C   0  0  0  0  0  0  0  0  0  0  0  0
   -1.2520   25.1980  -28.2690 C   0  0  0  0  0  0  0  0  0  0  0  0
   -5.8060   21.5440  -32.0620 C   0  0  0  0  0  0  0  0  0  0  0  0
   -8.5444   19.3203  -30.8718 H   0  0  0  0  0  0  0  0  0  0  0  0
   -9.6022   19.8333  -32.2300 H   0  0  0  0  0  0  0  0  0  0  0  0
   -8.8731   18.1916  -32.2300 H   0  0  0  0  0  0  0  0  0  0  0  0
   -6.6423   19.1161  -32.5250 H   0  0  0  0  0  0  0  0  0  0  0  0
   -7.7327   19.8336  -33.7726 H   0  0  0  0  0  0  0  0  0  0  0  0
   -9.2164   21.8295  -32.1127 H   0  0  0  0  0  0  0  0  0  0  0  0
   -8.6315   24.1243  -31.3278 H   0  0  0  0  0  0  0  0  0  0  0  0
   -6.2429   24.7751  -31.0277 H   0  0  0  0  0  0  0  0  0  0  0  0
   -2.7070   22.6490  -29.2720 H   0  0  0  0  0  0  0  0  0  0  0  0
   -4.2028   23.9746  -27.0482 H   0  0  0  0  0  0  0  0  0  0  0  0
   -3.5080   25.3552  -25.0950 H   0  0  0  0  0  0  0  0  0  0  0  0
   -1.5308   26.3233  -23.9221 H   0  0  0  0  0  0  0  0  0  0  0  0
   -0.1470   26.9715  -24.8663 H   0  0  0  0  0  0  0  0  0  0  0  0
   -1.7195   27.8397  -24.8663 H   0  0  0  0  0  0  0  0  0  0  0  0
    0.0947   26.5167  -27.1981 H   0  0  0  0  0  0  0  0  0  0  0  0
   -0.6032   25.1381  -29.1553 H   0  0  0  0  0  0  0  0  0  0  0  0
   -5.0083   20.8108  -32.2518 H   0  0  0  0  0  0  0  0  0  0  0  0
  1  2  1  0
  2  3  1  0
  3  4  2  0
  4  5  1  0
  5  6  2  0
  6  7  1  0
  7  8  1  0
  8  9  1  0
  9 10  2  0
  9 11  1  0
 11 12  1  0
 12 13  2  0
 13 14  1  0
 14 15  2  0
 15 16  1  0
 15 17  1  0
 17 18  2  0
  7 19  2  0
 19  3  1  0
 18 12  1  0
  1 20  1  0
  1 21  1  0
  1 22  1  0
  2 23  1  0
  2 24  1  0
  4 25  1  0
  5 26  1  0
  6 27  1  0
 11 28  1  0
 13 29  1  0
 14 30  1  0
 16 31  1  0
 16 32  1  0
 16 33  1  0
 17 34  1  0
 18 35  1  0
 19 36  1  0
M  CHG  1   8  -1
M  END
>  <UniqueID>  (35) 
35

>  <SMILES>  (35) 
CCc1cccc([N-]C(=O)Nc2ccc(C)cc2)c1

>  <Energy>  (35) 
39.85759486161175

>  <Genealogy>  (35) 
CCc1cccc([N-]C(=O)Nc2ccc(C)cc2)c1 (protonated)
CCc1cccc([N-]C(=O)Nc2ccc(C)cc2)c1 (3D coordinates assigned)
CCc1cccc([N-]C(=O)Nc2ccc(C)cc2)c1 (optimized conformer: 39.85759486161175 kcal/mol)

>  <smiles>  (35) 
CCc1cccc(NC(=O)Nc2ccc(C)cc2)c1

>  <score_type>  (35) 
oracle

>  <origin>  (35) 
adgpu

>  <m_score__min__energy>  (35) 
-8.8800000000000008

>  <m_primary>  (35) 
energy

$$$$
35:0
     RDKit          3D

 28 30  0  0  0  0  0  0  0  0999 V2000
   -9.6910   20.7540  -32.7030 O   0  0  0  0  0  0  0  0  0  0  0  0
   -8.5510   21.3940  -32.2310 C   0  0  0  0  0  0  0  0  0  0  0  0
   -8.6470   22.6720  -31.6750 C   0  0  0  0  0  0  0  0  0  0  0  0
   -7.5020   23.3190  -31.1990 C   0  0  0  0  0  0  0  0  0  0  0  0
   -6.2430   22.6900  -31.2740 C   0  0  0  0  0  0  0  0  0  0  0  0
   -5.0150   23.3570  -30.7760 C   0  0  0  0  0  0  0  0  0  0  0  0
   -4.0280   22.8060  -29.9780 C   0  0  0  0  0  0  0  0  0  0  0  0
   -3.1100   23.8330  -29.7980 C   0  0  0  0  0  0  0  0  0  0  0  0
   -1.8350   23.8180  -29.0220 C   0  0  0  0  0  0  0  0  0  0  0  0
   -1.2910   22.5690  -28.6530 C   0  0  0  0  0  0  0  0  0  0  0  0
   -0.1010   22.4900  -27.9270 C   0  0  0  0  0  0  0  0  0  0  0  0
    0.5710   23.6530  -27.5540 C   0  0  0  0  0  0  0  0  0  0  0  0
    1.7550   23.5730  -26.8320 O   0  0  0  0  0  0  0  0  0  0  0  0
    0.0520   24.8990  -27.9080 C   0  0  0  0  0  0  0  0  0  0  0  0
   -1.1400   24.9930  -28.6370 C   0  0  0  0  0  0  0  0  0  0  0  0
   -1.6080   26.2590  -28.9600 O   0  0  0  0  0  0  0  0  0  0  0  0
   -3.5490   24.9220  -30.4620 N   0  0  0  0  0  0  0  0  0  0  0  0
   -4.6980   24.6360  -31.0530 N   0  0  0  0  0  0  0  0  0  0  0  0
   -6.1620   21.4020  -31.8370 C   0  0  0  0  0  0  0  0  0  0  0  0
   -7.3090   20.7590  -32.3120 C   0  0  0  0  0  0  0  0  0  0  0  0
   -9.6254   23.1706  -31.6114 H   0  0  0  0  0  0  0  0  0  0  0  0
   -7.5847   24.3256  -30.7632 H   0  0  0  0  0  0  0  0  0  0  0  0
   -3.9808   21.7832  -29.5759 H   0  0  0  0  0  0  0  0  0  0  0  0
   -1.8122   21.6443  -28.9416 H   0  0  0  0  0  0  0  0  0  0  0  0
    0.3074   21.5073  -27.6486 H   0  0  0  0  0  0  0  0  0  0  0  0
    0.5838   25.8153  -27.6119 H   0  0  0  0  0  0  0  0  0  0  0  0
   -5.1871   20.8969  -31.9037 H   0  0  0  0  0  0  0  0  0  0  0  0
   -7.2336   19.7527  -32.7497 H   0  0  0  0  0  0  0  0  0  0  0  0
  1  2  1  0
  2  3  2  0
  3  4  1  0
  4  5  2  0
  5  6  1  0
  6  7  2  0
  7  8  1  0
  8  9  1  0
  9 10  2  0
 10 11  1  0
 11 12  2  0
 12 13  1  0
 12 14  1  0
 14 15  2  0
 15 16  1  0
  8 17  2  0
 17 18  1  0
  5 19  1  0
 19 20  2  0
 20  2  1  0
 18  6  1  0
 15  9  1  0
  3 21  1  0
  4 22  1  0
  7 23  1  0
 10 24  1  0
 11 25  1  0
 14 26  1  0
 19 27  1  0
 20 28  1  0
M  CHG  4   1  -1  13  -1  16  -1  18  -1
M  END
>  <UniqueID>  (36) 
36

>  <SMILES>  (36) 
[O-]c1ccc(-c2cc(-c3ccc([O-])cc3[O-])n[n-]2)cc1

>  <Energy>  (36) 
66.87868103852963

>  <Genealogy>  (36) 
[O-]c1ccc(-c2cc(-c3ccc([O-])cc3[O-])n[n-]2)cc1 (protonated)
[O-]c1ccc(-c2cc(-c3ccc([O-])cc3[O-])n[n-]2)cc1 (3D coordinates assigned)
[O-]c1ccc(-c2cc(-c3ccc([O-])cc3[O-])n[n-]2)cc1 (optimized conformer: 66.87868103852963 kcal/mol)

>  <smiles>  (36) 
Oc1ccc(-c2cc(-c3ccc(O)cc3O)n[nH]2)cc1

>  <score_type>  (36) 
oracle

>  <origin>  (36) 
adgpu

>  <m_score__min__energy>  (36) 
-11.76

>  <m_primary>  (36) 
energy

$$$$
36:0
     RDKit          3D

 40 41  0  0  0  0  0  0  0  0999 V2000
   -8.5210   20.7630  -31.2270 C   0  0  0  0  0  0  0  0  0  0  0  0
   -8.2850   22.1140  -31.6100 O   0  0  0  0  0  0  0  0  0  0  0  0
   -7.1200   22.8390  -31.3220 C   0  0  0  0  0  0  0  0  0  0  0  0
   -7.1860   24.1790  -30.8920 C   0  0  0  0  0  0  0  0  0  0  0  0
   -6.0230   24.8870  -30.5850 C   0  0  0  0  0  0  0  0  0  0  0  0
   -4.7720   24.2680  -30.6980 C   0  0  0  0  0  0  0  0  0  0  0  0
   -3.5580   24.9880  -30.4480 N   0  0  0  0  0  0  0  0  0  0  0  0
   -2.6170   24.6830  -29.4080 C   0  0  0  0  0  0  0  0  0  0  0  0
   -2.6670   23.5570  -28.8520 O   0  0  0  0  0  0  0  0  0  0  0  0
   -1.6230   25.6270  -28.9840 N   0  0  0  0  0  0  0  0  0  0  0  0
   -1.3710   26.0280  -27.6290 C   0  0  0  0  0  0  0  0  0  0  0  0
   -0.4700   27.0630  -27.3220 C   0  0  0  0  0  0  0  0  0  0  0  0
   -0.2770   27.4580  -25.9950 C   0  0  0  0  0  0  0  0  0  0  0  0
   -0.9610   26.8060  -24.9650 C   0  0  0  0  0  0  0  0  0  0  0  0
   -1.8320   25.7540  -25.2610 C   0  0  0  0  0  0  0  0  0  0  0  0
   -2.0300   25.3600  -26.5880 C   0  0  0  0  0  0  0  0  0  0  0  0
   -4.7000   22.9290  -31.0860 C   0  0  0  0  0  0  0  0  0  0  0  0
   -5.8530   22.2160  -31.4400 C   0  0  0  0  0  0  0  0  0  0  0  0
   -5.6670   20.9000  -31.9010 O   0  0  0  0  0  0  0  0  0  0  0  0
   -5.2740   20.4980  -33.2160 C   0  0  0  0  0  0  0  0  0  0  0  0
   -6.1660   19.3370  -33.6530 C   0  0  0  0  0  0  0  0  0  0  0  0
   -3.8020   20.0650  -33.2330 C   0  0  0  0  0  0  0  0  0  0  0  0
   -8.5338   20.6899  -30.1295 H   0  0  0  0  0  0  0  0  0  0  0  0
   -9.4905   20.4323  -31.6278 H   0  0  0  0  0  0  0  0  0  0  0  0
   -7.7210   20.1232  -31.6278 H   0  0  0  0  0  0  0  0  0  0  0  0
   -8.1645   24.6725  -30.7972 H   0  0  0  0  0  0  0  0  0  0  0  0
   -6.0893   25.9338  -30.2535 H   0  0  0  0  0  0  0  0  0  0  0  0
    0.0850   27.5637  -28.1290 H   0  0  0  0  0  0  0  0  0  0  0  0
    0.4132   28.2820  -25.7613 H   0  0  0  0  0  0  0  0  0  0  0  0
   -0.8137   27.1210  -23.9214 H   0  0  0  0  0  0  0  0  0  0  0  0
   -2.3626   25.2352  -24.4490 H   0  0  0  0  0  0  0  0  0  0  0  0
   -2.7057   24.5224  -26.8157 H   0  0  0  0  0  0  0  0  0  0  0  0
   -3.7224   22.4256  -31.1143 H   0  0  0  0  0  0  0  0  0  0  0  0
   -5.3861   21.3450  -33.9088 H   0  0  0  0  0  0  0  0  0  0  0  0
   -6.5608   18.8232  -32.7641 H   0  0  0  0  0  0  0  0  0  0  0  0
   -7.0019   19.7232  -34.2548 H   0  0  0  0  0  0  0  0  0  0  0  0
   -5.5775   18.6288  -34.2548 H   0  0  0  0  0  0  0  0  0  0  0  0
   -3.4392   19.9583  -32.2000 H   0  0  0  0  0  0  0  0  0  0  0  0
   -3.7092   19.1015  -33.7556 H   0  0  0  0  0  0  0  0  0  0  0  0
   -3.2023   20.8248  -33.7556 H   0  0  0  0  0  0  0  0  0  0  0  0
  1  2  1  0
  2  3  1  0
  3  4  2  0
  4  5  1  0
  5  6  2  0
  6  7  1  0
  7  8  1  0
  8  9  2  0
  8 10  1  0
 10 11  1  0
 11 12  2  0
 12 13  1  0
 13 14  2  0
 14 15  1  0
 15 16  2  0
  6 17  1  0
 17 18  2  0
 18 19  1  0
 19 20  1  0
 20 21  1  0
 20 22  1  0
 18  3  1  0
 16 11  1  0
  1 23  1  0
  1 24  1  0
  1 25  1  0
  4 26  1  0
  5 27  1  0
 12 28  1  0
 13 29  1  0
 14 30  1  0
 15 31  1  0
 16 32  1  0
 17 33  1  0
 20 34  1  0
 21 35  1  0
 21 36  1  0
 21 37  1  0
 22 38  1  0
 22 39  1  0
 22 40  1  0
M  CHG  2   7  -1  10  -1
M  END
>  <UniqueID>  (37) 
37

>  <SMILES>  (37) 
COc1ccc([N-]C(=O)[N-]c2ccccc2)cc1OC(C)C

>  <Energy>  (37) 
45.9036715426277

>  <Genealogy>  (37) 
COc1ccc([N-]C(=O)[N-]c2ccccc2)cc1OC(C)C (protonated)
COc1ccc([N-]C(=O)[N-]c2ccccc2)cc1OC(C)C (3D coordinates assigned)
COc1ccc([N-]C(=O)[N-]c2ccccc2)cc1OC(C)C (optimized conformer: 45.9036715426277 kcal/mol)

>  <smiles>  (37) 
COc1ccc(NC(=O)Nc2ccccc2)cc1OC(C)C

>  <score_type>  (37) 
oracle

>  <origin>  (37) 
adgpu

>  <m_score__min__energy>  (37) 
-9.9800000000000004

>  <m_primary>  (37) 
energy

$$$$
37:0
     RDKit          3D

 45 47  0  0  0  0  0  0  0  0999 V2000
   -2.3700   18.6170  -26.4350 C   0  0  0  0  0  0  0  0  0  0  0  0
   -2.1330   19.8140  -27.3060 C   0  0  0  0  0  0  0  0  0  0  0  0
   -0.9380   19.9480  -28.0300 C   0  0  0  0  0  0  0  0  0  0  0  0
   -0.7510   21.0350  -28.8880 C   0  0  0  0  0  0  0  0  0  0  0  0
   -1.7560   22.0050  -29.0380 C   0  0  0  0  0  0  0  0  0  0  0  0
   -1.6250   23.0890  -30.0780 C   0  0  0  0  0  0  0  0  0  0  0  0
   -2.9280   23.5340  -30.5820 N   0  0  0  0  0  0  0  0  0  0  0  0
   -3.4580   24.6890  -30.2160 N   0  0  0  0  0  0  0  0  0  0  0  0
   -4.6130   24.8580  -30.8340 N   0  0  0  0  0  0  0  0  0  0  0  0
   -4.8580   23.8190  -31.6160 N   0  0  0  0  0  0  0  0  0  0  0  0
   -3.8080   22.9860  -31.4630 C   0  0  0  0  0  0  0  0  0  0  0  0
   -3.7620   21.6540  -32.2030 C   0  0  1  0  0  0  0  0  0  0  0  0
   -3.7530   20.3790  -31.3530 C   0  0  0  0  0  0  0  0  0  0  0  0
   -4.7730   21.5920  -33.2830 N   0  0  0  0  0  0  0  0  0  0  0  0
   -5.9220   20.7740  -32.9590 C   0  0  0  0  0  0  0  0  0  0  0  0
   -5.9920   19.4400  -33.3980 C   0  0  0  0  0  0  0  0  0  0  0  0
   -7.0450   18.6150  -32.9940 C   0  0  0  0  0  0  0  0  0  0  0  0
   -8.0520   19.1120  -32.1550 C   0  0  0  0  0  0  0  0  0  0  0  0
   -9.1310   18.1980  -31.6570 C   0  0  0  0  0  0  0  0  0  0  0  0
   -7.9950   20.4480  -31.7280 C   0  0  0  0  0  0  0  0  0  0  0  0
   -6.9410   21.2720  -32.1280 C   0  0  0  0  0  0  0  0  0  0  0  0
   -2.9590   21.8540  -28.3300 C   0  0  0  0  0  0  0  0  0  0  0  0
   -3.1420   20.7740  -27.4630 C   0  0  0  0  0  0  0  0  0  0  0  0
   -2.3109   18.9153  -25.3779 H   0  0  0  0  0  0  0  0  0  0  0  0
   -3.3675   18.2032  -26.6440 H   0  0  0  0  0  0  0  0  0  0  0  0
   -1.6054   17.8543  -26.6440 H   0  0  0  0  0  0  0  0  0  0  0  0
   -0.1448   19.1936  -27.9215 H   0  0  0  0  0  0  0  0  0  0  0  0
    0.1897   21.1318  -29.4499 H   0  0  0  0  0  0  0  0  0  0  0  0
   -1.1062   23.9491  -29.6296 H   0  0  0  0  0  0  0  0  0  0  0  0
   -1.0582   22.6766  -30.9257 H   0  0  0  0  0  0  0  0  0  0  0  0
   -2.7549   21.6542  -32.6455 H   0  0  0  0  0  0  0  0  0  0  0  0
   -3.7549   20.6492  -30.2867 H   0  0  0  0  0  0  0  0  0  0  0  0
   -4.6469   19.7800  -31.5811 H   0  0  0  0  0  0  0  0  0  0  0  0
   -2.8507   19.7926  -31.5811 H   0  0  0  0  0  0  0  0  0  0  0  0
   -4.3250   21.2340  -34.1590 H   0  0  0  0  0  0  0  0  0  0  0  0
   -5.0940   22.5640  -33.5070 H   0  0  0  0  0  0  0  0  0  0  0  0
   -5.2121   19.0429  -34.0644 H   0  0  0  0  0  0  0  0  0  0  0  0
   -7.0839   17.5703  -33.3361 H   0  0  0  0  0  0  0  0  0  0  0  0
   -9.1320   18.1971  -30.5570 H   0  0  0  0  0  0  0  0  0  0  0  0
  -10.1068   18.5484  -32.0243 H   0  0  0  0  0  0  0  0  0  0  0  0
   -8.9458   17.1778  -32.0243 H   0  0  0  0  0  0  0  0  0  0  0  0
   -8.7847   20.8479  -31.0749 H   0  0  0  0  0  0  0  0  0  0  0  0
   -6.9077   22.3184  -31.7905 H   0  0  0  0  0  0  0  0  0  0  0  0
   -3.7642   22.5923  -28.4591 H   0  0  0  0  0  0  0  0  0  0  0  0
   -4.0825   20.6766  -26.9009 H   0  0  0  0  0  0  0  0  0  0  0  0
  1  2  1  0
  2  3  2  0
  3  4  1  0
  4  5  2  0
  5  6  1  0
  6  7  1  0
  7  8  1  0
  8  9  2  0
  9 10  1  0
 10 11  2  0
 11 12  1  0
 12 13  1  0
 12 14  1  0
 14 15  1  0
 15 16  2  0
 16 17  1  0
 17 18  2  0
 18 19  1  0
 18 20  1  0
 20 21  2  0
  5 22  1  0
 22 23  2  0
 23  2  1  0
 11  7  1  0
 21 15  1  0
  1 24  1  0
  1 25  1  0
  1 26  1  0
  3 27  1  0
  4 28  1  0
  6 29  1  0
  6 30  1  0
 12 31  1  6
 13 32  1  0
 13 33  1  0
 13 34  1  0
 14 35  1  0
 14 36  1  0
 16 37  1  0
 17 38  1  0
 19 39  1  0
 19 40  1  0
 19 41  1  0
 20 42  1  0
 21 43  1  0
 22 44  1  0
 23 45  1  0
M  CHG  1  14   1
M  END
>  <UniqueID>  (38) 
38

>  <SMILES>  (38) 
Cc1ccc(Cn2nnnc2[C@@H](C)[NH2+]c2ccc(C)cc2)cc1

>  <Energy>  (38) 
88.6061304726958

>  <Genealogy>  (38) 
Cc1ccc(Cn2nnnc2C(C)[NH2+]c2ccc(C)cc2)cc1 (protonated)
Cc1ccc(Cn2nnnc2[C@@H](C)[NH2+]c2ccc(C)cc2)cc1 (chirality)
Cc1ccc(Cn2nnnc2[C@@H](C)[NH2+]c2ccc(C)cc2)cc1 (3D coordinates assigned)
Cc1ccc(Cn2nnnc2[C@@H](C)[NH2+]c2ccc(C)cc2)cc1 (optimized conformer: 88.6061304726958 kcal/mol)

>  <smiles>  (38) 
Cc1ccc(Cn2nnnc2C(C)Nc2ccc(C)cc2)cc1

>  <score_type>  (38) 
oracle

>  <origin>  (38) 
adgpu

>  <m_score__min__energy>  (38) 
-8.6300000000000008

>  <m_primary>  (38) 
energy

$$$$
38:0
     RDKit          3D

 36 37  0  0  0  0  0  0  0  0999 V2000
   -6.3098   22.2383  -29.8845 H   0  0  0  0  0  0  0  0  0  0  0  0
   -5.3470   22.7700  -29.9020 C   0  0  0  0  0  0  0  0  0  0  0  0
   -4.9630   23.4350  -31.1610 C   0  0  0  0  0  0  0  0  0  0  0  0
   -5.0040   24.6930  -31.2230 O   0  0  0  0  0  0  0  0  0  0  0  0
   -4.4450   22.6800  -32.2630 N   0  0  0  0  0  0  0  0  0  0  0  0
   -4.9500   21.4210  -32.7300 C   0  0  0  0  0  0  0  0  0  0  0  0
   -6.3370   21.2280  -32.7400 C   0  0  0  0  0  0  0  0  0  0  0  0
   -7.0010   22.0260  -32.3763 H   0  0  0  0  0  0  0  0  0  0  0  0
   -6.8840   20.0330  -33.2070 C   0  0  0  0  0  0  0  0  0  0  0  0
   -7.9742   19.8866  -33.1982 H   0  0  0  0  0  0  0  0  0  0  0  0
   -6.0490   19.0240  -33.6850 C   0  0  0  0  0  0  0  0  0  0  0  0
   -6.4807   18.0763  -34.0393 H   0  0  0  0  0  0  0  0  0  0  0  0
   -4.6650   19.2140  -33.7150 C   0  0  0  0  0  0  0  0  0  0  0  0
   -4.0123   18.4162  -34.0991 H   0  0  0  0  0  0  0  0  0  0  0  0
   -4.0990   20.4220  -33.2560 C   0  0  0  0  0  0  0  0  0  0  0  0
   -2.7170   20.6690  -33.3260 O   0  0  0  0  0  0  0  0  0  0  0  0
   -1.8990   21.1670  -32.2680 C   0  0  0  0  0  0  0  0  0  0  0  0
   -2.2126   20.7040  -31.3207 H   0  0  0  0  0  0  0  0  0  0  0  0
   -2.0150   22.2596  -32.2159 H   0  0  0  0  0  0  0  0  0  0  0  0
   -0.4320   20.8420  -32.5220 C   0  0  0  0  0  0  0  0  0  0  0  0
    0.0897   20.7264  -31.5605 H   0  0  0  0  0  0  0  0  0  0  0  0
   -0.3577   19.9056  -33.0944 H   0  0  0  0  0  0  0  0  0  0  0  0
    0.0309   21.6594  -33.0944 H   0  0  0  0  0  0  0  0  0  0  0  0
   -4.6170   22.7610  -28.7760 C   0  0  0  0  0  0  0  0  0  0  0  0
   -5.0872   22.3485  -27.8711 H   0  0  0  0  0  0  0  0  0  0  0  0
   -3.2320   23.2610  -28.6550 C   0  0  0  0  0  0  0  0  0  0  0  0
   -2.2260   22.3970  -28.1970 C   0  0  0  0  0  0  0  0  0  0  0  0
   -2.4766   21.3629  -27.9180 H   0  0  0  0  0  0  0  0  0  0  0  0
   -0.9060   22.8460  -28.0940 C   0  0  0  0  0  0  0  0  0  0  0  0
   -0.1241   22.1688  -27.7197 H   0  0  0  0  0  0  0  0  0  0  0  0
   -0.5770   24.1520  -28.4650 C   0  0  0  0  0  0  0  0  0  0  0  0
    0.4607   24.5052  -28.3732 H   0  0  0  0  0  0  0  0  0  0  0  0
   -1.5670   25.0100  -28.9530 C   0  0  0  0  0  0  0  0  0  0  0  0
   -1.2370   26.3050  -29.3330 O   0  0  0  0  0  0  0  0  0  0  0  0
   -2.8880   24.5640  -29.0620 C   0  0  0  0  0  0  0  0  0  0  0  0
   -3.6609   25.2337  -29.4672 H   0  0  0  0  0  0  0  0  0  0  0  0
  1  2  1  0
  2  3  1  0
  3  4  2  0
  3  5  1  0
  5  6  1  0
  6  7  2  0
  7  8  1  0
  7  9  1  0
  9 10  1  0
  9 11  2  0
 11 12  1  0
 11 13  1  0
 13 14  1  0
 13 15  2  0
 15 16  1  0
 16 17  1  0
 17 18  1  0
 17 19  1  0
 17 20  1  0
 20 21  1  0
 20 22  1  0
 20 23  1  0
  2 24  2  0
 24 25  1  0
 24 26  1  0
 26 27  2  0
 27 28  1  0
 27 29  1  0
 29 30  1  0
 29 31  2  0
 31 32  1  0
 31 33  1  0
 33 34  1  0
 33 35  2  0
 35 36  1  0
 15  6  1  0
 35 26  1  0
M  CHG  2   5  -1  34  -1
M  END
>  <UniqueID>  (39) 
39

>  <SMILES>  (39) 
CCOc1ccccc1[N-]C(=O)/C=C\c1cccc([O-])c1

>  <Energy>  (39) 
45.34443200196613

>  <Genealogy>  (39) 
CCOc1ccccc1[N-]C(=O)C=Cc1cccc([O-])c1 (protonated)
CCOc1ccccc1[N-]C(=O)/C=C\c1cccc([O-])c1 (cis-trans isomerization)
CCOc1ccccc1[N-]C(=O)/C=C\c1cccc([O-])c1 (3D coordinates assigned)
CCOc1ccccc1[N-]C(=O)/C=C\c1cccc([O-])c1 (optimized conformer: 45.34443200196613 kcal/mol)

>  <smiles>  (39) 
CCOc1ccccc1NC(=O)C=Cc1cccc(O)c1

>  <score_type>  (39) 
oracle

>  <origin>  (39) 
adgpu

>  <m_score__min__energy>  (39) 
-10.470000000000001

>  <m_primary>  (39) 
energy

$$$$
39:0
     RDKit          3D

 58 61  0  0  0  0  0  0  0  0999 V2000
   -4.2570   12.6620  -34.1250 H   0  0  0  0  0  0  0  0  0  0  0  0
   -4.0030   13.6160  -33.8930 O   0  0  0  0  0  0  0  0  0  0  0  0
   -4.9420   14.6470  -33.9140 C   0  0  0  0  0  0  0  0  0  0  0  0
   -4.5600   15.9630  -33.6170 C   0  0  0  0  0  0  0  0  0  0  0  0
   -3.5121   16.1835  -33.3656 H   0  0  0  0  0  0  0  0  0  0  0  0
   -5.5070   17.0040  -33.6380 C   0  0  0  0  0  0  0  0  0  0  0  0
   -5.1100   18.3960  -33.3100 C   0  0  0  0  0  0  0  0  0  0  0  0
   -3.7600   18.7840  -33.3660 C   0  0  0  0  0  0  0  0  0  0  0  0
   -3.0032   18.0664  -33.7157 H   0  0  0  0  0  0  0  0  0  0  0  0
   -3.3640   20.0770  -32.9810 C   0  0  0  0  0  0  0  0  0  0  0  0
   -1.9290   20.4830  -33.0180 C   0  0  0  0  0  0  0  0  0  0  0  0
   -1.4260   21.0470  -34.2080 C   0  0  0  0  0  0  0  0  0  0  0  0
   -2.1041   21.2134  -35.0580 H   0  0  0  0  0  0  0  0  0  0  0  0
   -0.0810   21.3970  -34.3230 C   0  0  0  0  0  0  0  0  0  0  0  0
    0.2910   21.8471  -35.2552 H   0  0  0  0  0  0  0  0  0  0  0  0
    0.7930   21.1780  -33.2600 C   0  0  0  0  0  0  0  0  0  0  0  0
    1.8555   21.4453  -33.3578 H   0  0  0  0  0  0  0  0  0  0  0  0
    0.3210   20.6200  -32.0720 C   0  0  0  0  0  0  0  0  0  0  0  0
    1.0195   20.4363  -31.2424 H   0  0  0  0  0  0  0  0  0  0  0  0
   -1.0360   20.2900  -31.9230 C   0  0  0  0  0  0  0  0  0  0  0  0
   -1.4480   19.7210  -30.6200 C   0  0  0  0  0  0  0  0  0  0  0  0
   -1.4801   18.6248  -30.5347 H   0  0  0  0  0  0  0  0  0  0  0  0
   -1.7850   20.4330  -29.5360 C   0  0  0  0  0  0  0  0  0  0  0  0
   -2.1617   19.8789  -28.6636 H   0  0  0  0  0  0  0  0  0  0  0  0
   -1.6910   21.9030  -29.4190 C   0  0  0  0  0  0  0  0  0  0  0  0
   -0.6690   22.5200  -28.6800 C   0  0  0  0  0  0  0  0  0  0  0  0
    0.1145   21.9067  -28.2110 H   0  0  0  0  0  0  0  0  0  0  0  0
   -0.6430   23.9070  -28.5380 C   0  0  0  0  0  0  0  0  0  0  0  0
    0.1658   24.3847  -27.9657 H   0  0  0  0  0  0  0  0  0  0  0  0
   -1.6420   24.6920  -29.1210 C   0  0  0  0  0  0  0  0  0  0  0  0
   -1.6130   26.0720  -28.9520 O   0  0  0  0  0  0  0  0  0  0  0  0
   -2.6690   24.0960  -29.8640 C   0  0  0  0  0  0  0  0  0  0  0  0
   -3.6400   24.9210  -30.4510 O   0  0  0  0  0  0  0  0  0  0  0  0
   -5.0450   24.7130  -30.3410 C   0  0  0  0  0  0  0  0  0  0  0  0
   -5.3274   24.6712  -29.2787 H   0  0  0  0  0  0  0  0  0  0  0  0
   -5.5778   25.5421  -30.8297 H   0  0  0  0  0  0  0  0  0  0  0  0
   -5.3147   23.7651  -30.8297 H   0  0  0  0  0  0  0  0  0  0  0  0
   -2.6960   22.6940  -29.9990 C   0  0  0  0  0  0  0  0  0  0  0  0
   -3.5102   22.2154  -30.5628 H   0  0  0  0  0  0  0  0  0  0  0  0
   -4.3510   21.0040  -32.6020 C   0  0  0  0  0  0  0  0  0  0  0  0
   -4.0541   22.0159  -32.2890 H   0  0  0  0  0  0  0  0  0  0  0  0
   -5.7080   20.6550  -32.6180 C   0  0  0  0  0  0  0  0  0  0  0  0
   -6.7620   21.6810  -32.3010 C   0  0  0  0  0  0  0  0  0  0  0  0
   -6.8387   22.3904  -33.1382 H   0  0  0  0  0  0  0  0  0  0  0  0
   -6.4762   22.2083  -31.3789 H   0  0  0  0  0  0  0  0  0  0  0  0
   -8.0950   21.0240  -32.0880 C   0  0  0  0  0  0  0  0  0  0  0  0
   -8.2222   19.9682  -32.3693 H   0  0  0  0  0  0  0  0  0  0  0  0
   -9.1310   21.6870  -31.5660 C   0  0  0  0  0  0  0  0  0  0  0  0
  -10.0948   21.1766  -31.4227 H   0  0  0  0  0  0  0  0  0  0  0  0
   -9.0201   22.7432  -31.2795 H   0  0  0  0  0  0  0  0  0  0  0  0
   -6.0790   19.3410  -32.9350 C   0  0  0  0  0  0  0  0  0  0  0  0
   -7.1381   19.0474  -32.8897 H   0  0  0  0  0  0  0  0  0  0  0  0
   -6.8420   16.7040  -33.9650 C   0  0  0  0  0  0  0  0  0  0  0  0
   -7.5929   17.5076  -33.9863 H   0  0  0  0  0  0  0  0  0  0  0  0
   -7.2210   15.3920  -34.2630 C   0  0  0  0  0  0  0  0  0  0  0  0
   -8.2671   15.1678  -34.5186 H   0  0  0  0  0  0  0  0  0  0  0  0
   -6.2740   14.3640  -34.2370 C   0  0  0  0  0  0  0  0  0  0  0  0
   -6.6610   13.0620  -34.5320 O   0  0  0  0  0  0  0  0  0  0  0  0
  1  2  1  0
  2  3  1  0
  3  4  2  0
  4  5  1  0
  4  6  1  0
  6  7  1  0
  7  8  2  0
  8  9  1  0
  8 10  1  0
 10 11  1  0
 11 12  2  0
 12 13  1  0
 12 14  1  0
 14 15  1  0
 14 16  2  0
 16 17  1  0
 16 18  1  0
 18 19  1  0
 18 20  2  0
 20 21  1  0
 21 22  1  0
 21 23  2  0
 23 24  1  0
 23 25  1  0
 25 26  2  0
 26 27  1  0
 26 28  1  0
 28 29  1  0
 28 30  2  0
 30 31  1  0
 30 32  1  0
 32 33  1  0
 33 34  1  0
 34 35  1  0
 34 36  1  0
 34 37  1  0
 32 38  2  0
 38 39  1  0
 10 40  2  0
 40 41  1  0
 40 42  1  0
 42 43  1  0
 43 44  1  0
 43 45  1  0
 43 46  1  0
 46 47  1  0
 46 48  2  0
 48 49  1  0
 48 50  1  0
 42 51  2  0
 51 52  1  0
  6 53  2  0
 53 54  1  0
 53 55  1  0
 55 56  1  0
 55 57  2  0
 57 58  1  0
 57  3  1  0
 51  7  1  0
 20 11  1  0
 38 25  1  0
M  CHG  2  31  -1  58  -1
M  END
>  <UniqueID>  (40) 
40

>  <SMILES>  (40) 
C=CCc1cc(-c2ccc([O-])c(O)c2)cc(-c2ccccc2/C=C\c2ccc([O-])c(OC)c2)c1

>  <Energy>  (40) 
76.00555182412504

>  <Genealogy>  (40) 
C=CCc1cc(-c2ccc([O-])c(O)c2)cc(-c2ccccc2C=Cc2ccc([O-])c(OC)c2)c1 (protonated)
C=CCc1cc(-c2ccc([O-])c(O)c2)cc(-c2ccccc2/C=C\c2ccc([O-])c(OC)c2)c1 (cis-trans isomerization)
C=CCc1cc(-c2ccc([O-])c(O)c2)cc(-c2ccccc2/C=C\c2ccc([O-])c(OC)c2)c1 (3D coordinates assigned)
C=CCc1cc(-c2ccc([O-])c(O)c2)cc(-c2ccccc2/C=C\c2ccc([O-])c(OC)c2)c1 (optimized conformer: 76.00555182412504 kcal/mol)

>  <smiles>  (40) 
C=CCc1cc(-c2ccc(O)c(O)c2)cc(-c2ccccc2C=Cc2ccc(O)c(OC)c2)c1

>  <score_type>  (40) 
oracle

>  <origin>  (40) 
adgpu

>  <m_score__min__energy>  (40) 
-13.48

>  <m_primary>  (40) 
energy

$$$$
40:0
     RDKit          3D

 47 49  0  0  0  0  0  0  0  0999 V2000
   -0.6140   19.5040  -32.9540 C   0  0  0  0  0  0  0  0  0  0  0  0
   -1.1490   20.6220  -32.1180 C   0  0  0  0  0  0  0  0  0  0  0  0
   -1.2440   21.7770  -32.6150 O   0  0  0  0  0  0  0  0  0  0  0  0
   -1.5170   20.3830  -30.7520 N   0  0  0  0  0  0  0  0  0  0  0  0
   -2.2990   21.2930  -29.9600 C   0  0  0  0  0  0  0  0  0  0  0  0
   -2.4040   21.0930  -28.5740 C   0  0  0  0  0  0  0  0  0  0  0  0
   -3.1900   21.9450  -27.7930 C   0  0  0  0  0  0  0  0  0  0  0  0
   -3.8940   22.9950  -28.3900 C   0  0  0  0  0  0  0  0  0  0  0  0
   -3.8220   23.1870  -29.7780 C   0  0  0  0  0  0  0  0  0  0  0  0
   -4.7780   24.4350  -30.5710 S   0  0  0  0  0  0  0  0  0  0  0  0
   -3.8970   25.6250  -30.8330 O   0  0  0  0  0  0  0  0  0  0  0  0
   -5.9380   24.8610  -29.7140 O   0  0  0  0  0  0  0  0  0  0  0  0
   -5.3670   23.8120  -32.0770 N   0  0  0  0  0  0  0  0  0  0  0  0
   -5.9770   22.5220  -32.2210 C   0  0  0  0  0  0  0  0  0  0  0  0
   -7.3130   22.2200  -32.0230 C   0  0  0  0  0  0  0  0  0  0  0  0
   -8.3920   23.1910  -31.6490 C   0  0  0  0  0  0  0  0  0  0  0  0
   -7.5120   20.9180  -32.3470 N   0  0  0  0  0  0  0  0  0  0  0  0
   -8.8020   20.2220  -32.3340 C   0  0  0  0  0  0  0  0  0  0  0  0
   -6.3560   20.3920  -32.7430 N   0  0  0  0  0  0  0  0  0  0  0  0
   -6.1480   19.0460  -33.2010 C   0  0  0  0  0  0  0  0  0  0  0  0
   -5.7360   18.7990  -34.5200 C   0  0  0  0  0  0  0  0  0  0  0  0
   -5.4990   17.4870  -34.9510 C   0  0  0  0  0  0  0  0  0  0  0  0
   -5.6730   16.4190  -34.0680 C   0  0  0  0  0  0  0  0  0  0  0  0
   -6.0780   16.6600  -32.7490 C   0  0  0  0  0  0  0  0  0  0  0  0
   -6.3110   17.9710  -32.3150 C   0  0  0  0  0  0  0  0  0  0  0  0
   -5.4070   21.3450  -32.6680 C   0  0  0  0  0  0  0  0  0  0  0  0
   -4.2000   21.1680  -32.9810 O   0  0  0  0  0  0  0  0  0  0  0  0
   -3.0270   22.3380  -30.5590 C   0  0  0  0  0  0  0  0  0  0  0  0
   -0.2325   18.7067  -32.2992 H   0  0  0  0  0  0  0  0  0  0  0  0
   -1.4181   19.1037  -33.5889 H   0  0  0  0  0  0  0  0  0  0  0  0
    0.2022   19.8790  -33.5889 H   0  0  0  0  0  0  0  0  0  0  0  0
   -1.1590   19.5110  -30.2970 H   0  0  0  0  0  0  0  0  0  0  0  0
   -1.8640   20.2602  -28.0998 H   0  0  0  0  0  0  0  0  0  0  0  0
   -3.2548   21.7890  -26.7060 H   0  0  0  0  0  0  0  0  0  0  0  0
   -4.5040   23.6702  -27.7719 H   0  0  0  0  0  0  0  0  0  0  0  0
   -8.4636   23.2554  -30.5532 H   0  0  0  0  0  0  0  0  0  0  0  0
   -8.1513   24.1827  -32.0597 H   0  0  0  0  0  0  0  0  0  0  0  0
   -9.3529   22.8474  -32.0597 H   0  0  0  0  0  0  0  0  0  0  0  0
   -9.1166   20.0523  -31.2937 H   0  0  0  0  0  0  0  0  0  0  0  0
   -9.5552   20.8362  -32.8493 H   0  0  0  0  0  0  0  0  0  0  0  0
   -8.7023   19.2553  -32.8493 H   0  0  0  0  0  0  0  0  0  0  0  0
   -5.5987   19.6383  -35.2176 H   0  0  0  0  0  0  0  0  0  0  0  0
   -5.1757   17.2981  -35.9853 H   0  0  0  0  0  0  0  0  0  0  0  0
   -5.4920   15.3888  -34.4083 H   0  0  0  0  0  0  0  0  0  0  0  0
   -6.2132   15.8187  -32.0533 H   0  0  0  0  0  0  0  0  0  0  0  0
   -6.6226   18.1581  -31.2768 H   0  0  0  0  0  0  0  0  0  0  0  0
   -2.9714   22.4891  -31.6472 H   0  0  0  0  0  0  0  0  0  0  0  0
  1  2  1  0
  2  3  2  0
  2  4  1  0
  4  5  1  0
  5  6  2  0
  6  7  1  0
  7  8  2  0
  8  9  1  0
  9 10  1  0
 10 11  2  0
 10 12  2  0
 10 13  1  0
 13 14  1  0
 14 15  2  0
 15 16  1  0
 15 17  1  0
 17 18  1  0
 17 19  1  0
 19 20  1  0
 20 21  2  0
 21 22  1  0
 22 23  2  0
 23 24  1  0
 24 25  2  0
 19 26  1  0
 26 27  2  0
  9 28  2  0
 28  5  1  0
 26 14  1  0
 25 20  1  0
  1 29  1  0
  1 30  1  0
  1 31  1  0
  4 32  1  0
  6 33  1  0
  7 34  1  0
  8 35  1  0
 16 36  1  0
 16 37  1  0
 16 38  1  0
 18 39  1  0
 18 40  1  0
 18 41  1  0
 21 42  1  0
 22 43  1  0
 23 44  1  0
 24 45  1  0
 25 46  1  0
 28 47  1  0
M  CHG  1  13  -1
M  END
>  <UniqueID>  (41) 
41

>  <SMILES>  (41) 
CC(=O)Nc1cccc(S(=O)(=O)[N-]c2c(C)n(C)n(-c3ccccc3)c2=O)c1

>  <Energy>  (41) 
94.86783231824968

>  <Genealogy>  (41) 
CC(=O)Nc1cccc(S(=O)(=O)[N-]c2c(C)n(C)n(-c3ccccc3)c2=O)c1 (protonated)
CC(=O)Nc1cccc(S(=O)(=O)[N-]c2c(C)n(C)n(-c3ccccc3)c2=O)c1 (3D coordinates assigned)
CC(=O)Nc1cccc(S(=O)(=O)[N-]c2c(C)n(C)n(-c3ccccc3)c2=O)c1 (optimized conformer: 94.86783231824968 kcal/mol)

>  <smiles>  (41) 
CC(=O)Nc1cccc(S(=O)(=O)Nc2c(C)n(C)n(-c3ccccc3)c2=O)c1

>  <score_type>  (41) 
oracle

>  <origin>  (41) 
adgpu

>  <m_score__min__energy>  (41) 
-10.35

>  <m_primary>  (41) 
energy

$$$$
41:0
     RDKit          3D

 42 44  0  0  0  0  0  0  0  0999 V2000
    0.5410   20.8080  -34.9380 C   0  0  0  0  0  0  0  0  0  0  0  0
    0.0160   19.5960  -34.4080 O   0  0  0  0  0  0  0  0  0  0  0  0
   -1.3460   19.3630  -34.1630 C   0  0  0  0  0  0  0  0  0  0  0  0
   -2.1760   20.4640  -33.9220 C   0  0  0  0  0  0  0  0  0  0  0  0
   -3.5390   20.2840  -33.6710 C   0  0  0  0  0  0  0  0  0  0  0  0
   -4.0930   18.9950  -33.6510 C   0  0  0  0  0  0  0  0  0  0  0  0
   -5.5360   18.8000  -33.3800 C   0  0  0  0  0  0  0  0  0  0  0  0
   -6.4250   19.6460  -32.7220 C   0  0  0  0  0  0  0  0  0  0  0  0
   -6.0910   20.9050  -32.0220 C   0  0  0  0  0  0  0  0  0  0  0  0
   -5.0150   20.9480  -31.1220 C   0  0  0  0  0  0  0  0  0  0  0  0
   -4.6840   22.1410  -30.4720 C   0  0  0  0  0  0  0  0  0  0  0  0
   -5.4290   23.3030  -30.7110 C   0  0  0  0  0  0  0  0  0  0  0  0
   -4.9970   24.8100  -29.9130 S   0  0  0  0  0  0  0  0  0  0  0  0
   -6.4790   25.6660  -29.4300 C   0  0  0  0  0  0  0  0  0  0  0  0
   -4.2020   25.6730  -30.8520 O   0  0  0  0  0  0  0  0  0  0  0  0
   -4.1640   24.5230  -28.6970 O   0  0  0  0  0  0  0  0  0  0  0  0
   -6.4990   23.2650  -31.6160 C   0  0  0  0  0  0  0  0  0  0  0  0
   -6.8300   22.0720  -32.2650 C   0  0  0  0  0  0  0  0  0  0  0  0
   -7.6510   19.0690  -32.7440 N   0  0  0  0  0  0  0  0  0  0  0  0
   -8.8860   19.5740  -32.1550 C   0  0  0  0  0  0  0  0  0  0  0  0
   -7.5690   17.9410  -33.3840 O   0  0  0  0  0  0  0  0  0  0  0  0
   -6.3350   17.7410  -33.7770 C   0  0  0  0  0  0  0  0  0  0  0  0
   -5.9620   16.7360  -34.4390 O   0  0  0  0  0  0  0  0  0  0  0  0
   -3.2640   17.8900  -33.9010 C   0  0  0  0  0  0  0  0  0  0  0  0
   -1.9010   18.0700  -34.1530 C   0  0  0  0  0  0  0  0  0  0  0  0
    0.8298   21.4746  -34.1121 H   0  0  0  0  0  0  0  0  0  0  0  0
    1.4237   20.5861  -35.5558 H   0  0  0  0  0  0  0  0  0  0  0  0
   -0.2246   21.3001  -35.5558 H   0  0  0  0  0  0  0  0  0  0  0  0
   -1.7521   21.4790  -33.9302 H   0  0  0  0  0  0  0  0  0  0  0  0
   -4.1813   21.1580  -33.4880 H   0  0  0  0  0  0  0  0  0  0  0  0
   -4.4287   20.0380  -30.9268 H   0  0  0  0  0  0  0  0  0  0  0  0
   -3.8365   22.1671  -29.7712 H   0  0  0  0  0  0  0  0  0  0  0  0
   -6.5407   25.7016  -28.3323 H   0  0  0  0  0  0  0  0  0  0  0  0
   -6.4573   26.6907  -29.8295 H   0  0  0  0  0  0  0  0  0  0  0  0
   -7.3558   25.1352  -29.8295 H   0  0  0  0  0  0  0  0  0  0  0  0
   -7.0802   24.1772  -31.8161 H   0  0  0  0  0  0  0  0  0  0  0  0
   -7.6742   22.0484  -32.9698 H   0  0  0  0  0  0  0  0  0  0  0  0
   -8.8088   19.5424  -31.0582 H   0  0  0  0  0  0  0  0  0  0  0  0
   -9.0504   20.6115  -32.4813 H   0  0  0  0  0  0  0  0  0  0  0  0
   -9.7303   18.9489  -32.4813 H   0  0  0  0  0  0  0  0  0  0  0  0
   -3.6899   16.8758  -33.8986 H   0  0  0  0  0  0  0  0  0  0  0  0
   -1.2595   17.1972  -34.3443 H   0  0  0  0  0  0  0  0  0  0  0  0
  1  2  1  0
  2  3  1  0
  3  4  2  0
  4  5  1  0
  5  6  2  0
  6  7  1  0
  7  8  2  0
  8  9  1  0
  9 10  2  0
 10 11  1  0
 11 12  2  0
 12 13  1  0
 13 14  1  0
 13 15  2  0
 13 16  2  0
 12 17  1  0
 17 18  2  0
  8 19  1  0
 19 20  1  0
 19 21  1  0
 21 22  1  0
 22 23  2  0
  6 24  1  0
 24 25  2  0
 25  3  1  0
 22  7  1  0
 18  9  1  0
  1 26  1  0
  1 27  1  0
  1 28  1  0
  4 29  1  0
  5 30  1  0
 10 31  1  0
 11 32  1  0
 14 33  1  0
 14 34  1  0
 14 35  1  0
 17 36  1  0
 18 37  1  0
 20 38  1  0
 20 39  1  0
 20 40  1  0
 24 41  1  0
 25 42  1  0
M  END
>  <UniqueID>  (42) 
42

>  <SMILES>  (42) 
COc1ccc(-c2c(-c3ccc(S(C)(=O)=O)cc3)n(C)oc2=O)cc1

>  <Energy>  (42) 
82.81330440205723

>  <Genealogy>  (42) 
COc1ccc(-c2c(-c3ccc(S(C)(=O)=O)cc3)n(C)oc2=O)cc1 (3D coordinates assigned)
COc1ccc(-c2c(-c3ccc(S(C)(=O)=O)cc3)n(C)oc2=O)cc1 (optimized conformer: 82.81330440205723 kcal/mol)

>  <smiles>  (42) 
COc1ccc(-c2c(-c3ccc(S(C)(=O)=O)cc3)n(C)oc2=O)cc1

>  <score_type>  (42) 
oracle

>  <origin>  (42) 
adgpu

>  <m_score__min__energy>  (42) 
-8.5199999999999996

>  <m_primary>  (42) 
energy

$$$$
42:0
     RDKit          3D

 41 43  0  0  0  0  0  0  0  0999 V2000
   -3.8840   24.7920  -30.4730 O   0  0  0  0  0  0  0  0  0  0  0  0
   -4.2630   23.7940  -29.7990 C   0  0  0  0  0  0  0  0  0  0  0  0
   -3.7950   23.6200  -28.4480 N   0  0  0  0  0  0  0  0  0  0  0  0
   -2.8280   24.4800  -27.8220 C   0  0  0  0  0  0  0  0  0  0  0  0
   -3.0750   25.0600  -26.5630 C   0  0  0  0  0  0  0  0  0  0  0  0
   -2.1330   25.9170  -25.9830 C   0  0  0  0  0  0  0  0  0  0  0  0
   -2.3780   26.4700  -24.7690 F   0  0  0  0  0  0  0  0  0  0  0  0
   -0.9460   26.2120  -26.6580 C   0  0  0  0  0  0  0  0  0  0  0  0
   -0.7020   25.6590  -27.9170 C   0  0  0  0  0  0  0  0  0  0  0  0
   -1.6410   24.8030  -28.5030 C   0  0  0  0  0  0  0  0  0  0  0  0
   -1.3870   24.2730  -29.7260 F   0  0  0  0  0  0  0  0  0  0  0  0
   -5.1960   22.8240  -30.4220 C   0  0  0  0  0  0  0  0  0  0  0  0
   -4.7540   21.5210  -30.7130 C   0  0  0  0  0  0  0  0  0  0  0  0
   -5.6180   20.5940  -31.3010 C   0  0  0  0  0  0  0  0  0  0  0  0
   -6.9370   20.9510  -31.6090 C   0  0  0  0  0  0  0  0  0  0  0  0
   -8.0270   19.7780  -32.3590 S   0  0  0  0  0  0  0  0  0  0  0  0
   -8.6800   18.9580  -31.2820 O   0  0  0  0  0  0  0  0  0  0  0  0
   -9.1080   20.5180  -33.0990 O   0  0  0  0  0  0  0  0  0  0  0  0
   -7.2090   18.7080  -33.4730 N   0  0  0  0  0  0  0  0  0  0  0  0
   -6.6100   17.5620  -32.7930 C   0  0  0  0  0  0  0  0  0  0  0  0
   -5.4620   17.0920  -33.6730 C   0  0  0  0  0  0  0  0  0  0  0  0
   -5.1350   18.2760  -34.5720 C   0  0  0  0  0  0  0  0  0  0  0  0
   -6.1080   19.3720  -34.1650 C   0  0  0  0  0  0  0  0  0  0  0  0
   -7.3750   22.2550  -31.3450 C   0  0  0  0  0  0  0  0  0  0  0  0
   -6.5140   23.1850  -30.7550 C   0  0  0  0  0  0  0  0  0  0  0  0
   -4.1990   22.8560  -27.8630 H   0  0  0  0  0  0  0  0  0  0  0  0
   -4.0130   24.8384  -26.0328 H   0  0  0  0  0  0  0  0  0  0  0  0
   -0.2032   26.8801  -26.1977 H   0  0  0  0  0  0  0  0  0  0  0  0
    0.2307   25.8970  -28.4493 H   0  0  0  0  0  0  0  0  0  0  0  0
   -3.7202   21.2296  -30.4758 H   0  0  0  0  0  0  0  0  0  0  0  0
   -5.2604   19.5778  -31.5234 H   0  0  0  0  0  0  0  0  0  0  0  0
   -6.2332   17.8610  -31.8037 H   0  0  0  0  0  0  0  0  0  0  0  0
   -7.3473   16.7605  -32.6378 H   0  0  0  0  0  0  0  0  0  0  0  0
   -4.5905   16.8226  -33.0583 H   0  0  0  0  0  0  0  0  0  0  0  0
   -5.7301   16.1973  -34.2541 H   0  0  0  0  0  0  0  0  0  0  0  0
   -4.0971   18.6044  -34.4139 H   0  0  0  0  0  0  0  0  0  0  0  0
   -5.2296   18.0195  -35.6375 H   0  0  0  0  0  0  0  0  0  0  0  0
   -5.6139   20.0896  -33.4935 H   0  0  0  0  0  0  0  0  0  0  0  0
   -6.4670   19.9326  -35.0407 H   0  0  0  0  0  0  0  0  0  0  0  0
   -8.4029   22.5491  -31.6035 H   0  0  0  0  0  0  0  0  0  0  0  0
   -6.8695   24.2056  -30.5499 H   0  0  0  0  0  0  0  0  0  0  0  0
  1  2  2  0
  2  3  1  0
  3  4  1  0
  4  5  2  0
  5  6  1  0
  6  7  1  0
  6  8  2  0
  8  9  1  0
  9 10  2  0
 10 11  1  0
  2 12  1  0
 12 13  2  0
 13 14  1  0
 14 15  2  0
 15 16  1  0
 16 17  2  0
 16 18  2  0
 16 19  1  0
 19 20  1  0
 20 21  1  0
 21 22  1  0
 22 23  1  0
 15 24  1  0
 24 25  2  0
 10  4  1  0
 25 12  1  0
 23 19  1  0
  3 26  1  0
  5 27  1  0
  8 28  1  0
  9 29  1  0
 13 30  1  0
 14 31  1  0
 20 32  1  0
 20 33  1  0
 21 34  1  0
 21 35  1  0
 22 36  1  0
 22 37  1  0
 23 38  1  0
 23 39  1  0
 24 40  1  0
 25 41  1  0
M  END
>  <UniqueID>  (43) 
43

>  <SMILES>  (43) 
O=C(Nc1cc(F)ccc1F)c1ccc(S(=O)(=O)N2CCCC2)cc1

>  <Energy>  (43) 
50.84841475415637

>  <Genealogy>  (43) 
O=C(Nc1cc(F)ccc1F)c1ccc(S(=O)(=O)N2CCCC2)cc1 (3D coordinates assigned)
O=C(Nc1cc(F)ccc1F)c1ccc(S(=O)(=O)N2CCCC2)cc1 (nonaromatic ring conformer: 50.84841475415637 kcal/mol)

>  <smiles>  (43) 
O=C(Nc1cc(F)ccc1F)c1ccc(S(=O)(=O)N2CCCC2)cc1

>  <score_type>  (43) 
oracle

>  <origin>  (43) 
adgpu

>  <m_score__min__energy>  (43) 
-8.8399999999999999

>  <m_primary>  (43) 
energy

$$$$
43:0
     RDKit          3D

 50 53  0  0  0  0  0  0  0  0999 V2000
    1.2840   19.4090  -34.3250 C   0  0  0  0  0  0  0  0  0  0  0  0
    0.3610   19.9640  -33.2820 C   0  0  0  0  0  0  0  0  0  0  0  0
    0.6960   19.8560  -31.9060 C   0  0  0  0  0  0  0  0  0  0  0  0
   -0.1470   20.3990  -30.9140 C   0  0  0  0  0  0  0  0  0  0  0  0
    0.2100   20.3270  -29.4600 C   0  0  0  0  0  0  0  0  0  0  0  0
   -1.2880   21.0760  -31.3480 C   0  0  0  0  0  0  0  0  0  0  0  0
   -2.2040   21.6840  -30.6430 O   0  0  0  0  0  0  0  0  0  0  0  0
   -3.0770   22.1720  -31.5120 C   0  0  0  0  0  0  0  0  0  0  0  0
   -4.2780   22.9450  -31.0990 C   0  0  0  0  0  0  0  0  0  0  0  0
   -5.5140   22.6120  -31.6850 C   0  0  0  0  0  0  0  0  0  0  0  0
   -6.6890   23.3000  -31.3500 C   0  0  0  0  0  0  0  0  0  0  0  0
   -7.9340   22.8950  -31.9470 N   0  0  0  0  0  0  0  0  0  0  0  0
   -8.7920   21.8730  -31.4170 C   0  0  0  0  0  0  0  0  0  0  0  0
   -8.7200   21.5390  -30.2030 O   0  0  0  0  0  0  0  0  0  0  0  0
   -9.7770   21.1830  -32.3160 C   0  0  0  0  0  0  0  0  0  0  0  0
   -9.4940   19.6780  -32.4080 C   0  0  0  0  0  0  0  0  0  0  0  0
   -8.0160   19.3870  -32.4890 C   0  0  0  0  0  0  0  0  0  0  0  0
   -7.2130   20.0430  -33.4380 C   0  0  0  0  0  0  0  0  0  0  0  0
   -5.8590   19.7210  -33.5580 C   0  0  0  0  0  0  0  0  0  0  0  0
   -5.2950   18.7450  -32.7320 C   0  0  0  0  0  0  0  0  0  0  0  0
   -6.0850   18.0890  -31.7850 C   0  0  0  0  0  0  0  0  0  0  0  0
   -7.4430   18.4060  -31.6640 C   0  0  0  0  0  0  0  0  0  0  0  0
   -6.6340   24.3170  -30.3860 C   0  0  0  0  0  0  0  0  0  0  0  0
   -5.4190   24.6620  -29.7970 C   0  0  0  0  0  0  0  0  0  0  0  0
   -4.2390   23.9930  -30.1440 C   0  0  0  0  0  0  0  0  0  0  0  0
   -2.7610   24.5240  -29.3450 Cl  0  0  0  0  0  0  0  0  0  0  0  0
   -2.7450   21.8940  -32.8020 N   0  0  0  0  0  0  0  0  0  0  0  0
   -1.6060   21.1960  -32.6640 C   0  0  0  0  0  0  0  0  0  0  0  0
   -0.8070   20.6580  -33.6680 C   0  0  0  0  0  0  0  0  0  0  0  0
    2.1280   18.9015  -33.8351 H   0  0  0  0  0  0  0  0  0  0  0  0
    0.7378   18.6894  -34.9526 H   0  0  0  0  0  0  0  0  0  0  0  0
    1.6634   20.2289  -34.9526 H   0  0  0  0  0  0  0  0  0  0  0  0
    1.6232   19.3432  -31.6106 H   0  0  0  0  0  0  0  0  0  0  0  0
   -0.6888   20.5083  -28.8523 H   0  0  0  0  0  0  0  0  0  0  0  0
    0.6128   19.3295  -29.2303 H   0  0  0  0  0  0  0  0  0  0  0  0
    0.9680   21.0904  -29.2303 H   0  0  0  0  0  0  0  0  0  0  0  0
   -5.5589   21.7954  -32.4207 H   0  0  0  0  0  0  0  0  0  0  0  0
   -8.2370   23.3780  -32.8220 H   0  0  0  0  0  0  0  0  0  0  0  0
  -10.7911   21.3325  -31.9170 H   0  0  0  0  0  0  0  0  0  0  0  0
   -9.6859   21.6141  -33.3239 H   0  0  0  0  0  0  0  0  0  0  0  0
   -9.9053   19.1837  -31.5155 H   0  0  0  0  0  0  0  0  0  0  0  0
   -9.9669   19.2979  -33.3255 H   0  0  0  0  0  0  0  0  0  0  0  0
   -7.6526   20.8131  -34.0889 H   0  0  0  0  0  0  0  0  0  0  0  0
   -5.2359   20.2364  -34.3037 H   0  0  0  0  0  0  0  0  0  0  0  0
   -4.2285   18.4932  -32.8276 H   0  0  0  0  0  0  0  0  0  0  0  0
   -5.6395   17.3226  -31.1337 H   0  0  0  0  0  0  0  0  0  0  0  0
   -8.0634   17.8848  -30.9200 H   0  0  0  0  0  0  0  0  0  0  0  0
   -7.5538   24.8447  -30.0935 H   0  0  0  0  0  0  0  0  0  0  0  0
   -5.3867   25.4694  -29.0507 H   0  0  0  0  0  0  0  0  0  0  0  0
   -1.0764   20.7696  -34.7286 H   0  0  0  0  0  0  0  0  0  0  0  0
  1  2  1  0
  2  3  2  0
  3  4  1  0
  4  5  1  0
  4  6  2  0
  6  7  1  0
  7  8  1  0
  8  9  1  0
  9 10  2  0
 10 11  1  0
 11 12  1  0
 12 13  1  0
 13 14  2  0
 13 15  1  0
 15 16  1  0
 16 17  1  0
 17 18  2  0
 18 19  1  0
 19 20  2  0
 20 21  1  0
 21 22  2  0
 11 23  2  0
 23 24  1  0
 24 25  2  0
 25 26  1  0
  8 27  2  0
 27 28  1  0
 28 29  2  0
 29  2  1  0
 28  6  1  0
 25  9  1  0
 22 17  1  0
  1 30  1  0
  1 31  1  0
  1 32  1  0
  3 33  1  0
  5 34  1  0
  5 35  1  0
  5 36  1  0
 10 37  1  0
 12 38  1  0
 15 39  1  0
 15 40  1  0
 16 41  1  0
 16 42  1  0
 18 43  1  0
 19 44  1  0
 20 45  1  0
 21 46  1  0
 22 47  1  0
 23 48  1  0
 24 49  1  0
 29 50  1  0
M  END
>  <UniqueID>  (44) 
44

>  <SMILES>  (44) 
Cc1cc(C)c2oc(-c3cc(NC(=O)CCc4ccccc4)ccc3Cl)nc2c1

>  <Energy>  (44) 
91.45902417220525

>  <Genealogy>  (44) 
Cc1cc(C)c2oc(-c3cc(NC(=O)CCc4ccccc4)ccc3Cl)nc2c1 (3D coordinates assigned)
Cc1cc(C)c2oc(-c3cc(NC(=O)CCc4ccccc4)ccc3Cl)nc2c1 (optimized conformer: 91.45902417220525 kcal/mol)

>  <smiles>  (44) 
Cc1cc(C)c2oc(-c3cc(NC(=O)CCc4ccccc4)ccc3Cl)nc2c1

>  <score_type>  (44) 
oracle

>  <origin>  (44) 
adgpu

>  <m_score__min__energy>  (44) 
-9.8399999999999999

>  <m_primary>  (44) 
energy

$$$$
44:0
     RDKit          3D

 54 57  0  0  0  0  0  0  0  0999 V2000
   -6.8450   16.9370  -33.3950 C   0  0  0  0  0  0  0  0  0  0  0  0
   -6.4180   18.1010  -34.0950 O   0  0  0  0  0  0  0  0  0  0  0  0
   -6.0990   19.3220  -33.4810 C   0  0  0  0  0  0  0  0  0  0  0  0
   -4.7910   19.8400  -33.4650 C   0  0  0  0  0  0  0  0  0  0  0  0
   -4.5240   21.0590  -32.8370 C   0  0  0  0  0  0  0  0  0  0  0  0
   -5.5520   21.7870  -32.2100 C   0  0  0  0  0  0  0  0  0  0  0  0
   -5.2440   23.0820  -31.5490 C   0  0  0  0  0  0  0  0  0  0  0  0
   -6.0820   24.2040  -31.5740 C   0  0  0  0  0  0  0  0  0  0  0  0
   -5.3480   25.4330  -30.6880 S   0  0  0  0  0  0  0  0  0  0  0  0
   -4.0080   24.4990  -30.3130 C   0  0  0  0  0  0  0  0  0  0  0  0
   -3.0150   24.9250  -29.5920 N   0  0  0  0  0  0  0  0  0  0  0  0
   -1.8440   24.1720  -29.2370 C   0  0  0  0  0  0  0  0  0  0  0  0
   -0.6930   24.6750  -29.3470 O   0  0  0  0  0  0  0  0  0  0  0  0
   -2.0070   22.7680  -28.6950 C   0  0  2  0  0  0  0  0  0  0  0  0
   -2.3020   22.8130  -27.1790 C   0  0  0  0  0  0  0  0  0  0  0  0
   -1.0560   23.1450  -26.3420 C   0  0  0  0  0  0  0  0  0  0  0  0
    0.2280   22.4980  -26.8920 C   0  0  0  0  0  0  0  0  0  0  0  0
   -0.0840   21.3790  -27.8900 C   0  0  0  0  0  0  0  0  0  0  0  0
   -0.8360   21.9000  -29.0530 N   0  0  1  0  0  0  0  0  0  0  0  0
   -1.3300   20.5600  -30.0690 S   0  0  0  0  0  0  0  0  0  0  0  0
   -0.8570   19.2700  -29.4550 O   0  0  0  0  0  0  0  0  0  0  0  0
   -2.8320   20.5140  -30.1440 O   0  0  0  0  0  0  0  0  0  0  0  0
   -0.6740   20.7020  -31.7030 C   0  0  0  0  0  0  0  0  0  0  0  0
   -1.3750   21.4210  -32.6830 C   0  0  0  0  0  0  0  0  0  0  0  0
   -0.8510   21.5450  -33.9740 C   0  0  0  0  0  0  0  0  0  0  0  0
    0.3700   20.9460  -34.2950 C   0  0  0  0  0  0  0  0  0  0  0  0
    1.0670   20.2190  -33.3250 C   0  0  0  0  0  0  0  0  0  0  0  0
    0.5470   20.0940  -32.0330 C   0  0  0  0  0  0  0  0  0  0  0  0
   -4.0930   23.2590  -30.8400 N   0  0  0  0  0  0  0  0  0  0  0  0
   -6.8600   21.2640  -32.2350 C   0  0  0  0  0  0  0  0  0  0  0  0
   -7.1250   20.0450  -32.8640 C   0  0  0  0  0  0  0  0  0  0  0  0
   -6.7794   17.1159  -32.3116 H   0  0  0  0  0  0  0  0  0  0  0  0
   -7.8860   16.7072  -33.6663 H   0  0  0  0  0  0  0  0  0  0  0  0
   -6.1996   16.0886  -33.6663 H   0  0  0  0  0  0  0  0  0  0  0  0
   -3.9753   19.2829  -33.9489 H   0  0  0  0  0  0  0  0  0  0  0  0
   -3.4976   21.4545  -32.8326 H   0  0  0  0  0  0  0  0  0  0  0  0
   -7.0537   24.2707  -32.0852 H   0  0  0  0  0  0  0  0  0  0  0  0
   -2.8768   22.2958  -29.1750 H   0  0  0  0  0  0  0  0  0  0  0  0
   -3.0667   23.5813  -26.9919 H   0  0  0  0  0  0  0  0  0  0  0  0
   -2.6479   21.8132  -26.8779 H   0  0  0  0  0  0  0  0  0  0  0  0
   -0.9216   24.2367  -26.3313 H   0  0  0  0  0  0  0  0  0  0  0  0
   -1.2211   22.7417  -25.3320 H   0  0  0  0  0  0  0  0  0  0  0  0
    0.8276   23.2694  -27.3974 H   0  0  0  0  0  0  0  0  0  0  0  0
    0.7801   22.0600  -26.0474 H   0  0  0  0  0  0  0  0  0  0  0  0
    0.8599   20.9365  -28.2409 H   0  0  0  0  0  0  0  0  0  0  0  0
   -0.7007   20.6210  -27.3850 H   0  0  0  0  0  0  0  0  0  0  0  0
   -0.1510   22.4400  -29.6350 H   0  0  0  0  0  0  0  0  0  0  0  0
   -2.3394   21.8885  -32.4353 H   0  0  0  0  0  0  0  0  0  0  0  0
   -1.4008   22.1148  -34.7376 H   0  0  0  0  0  0  0  0  0  0  0  0
    0.7825   21.0463  -35.3098 H   0  0  0  0  0  0  0  0  0  0  0  0
    2.0264   19.7444  -33.5788 H   0  0  0  0  0  0  0  0  0  0  0  0
    1.0962   19.5179  -31.2737 H   0  0  0  0  0  0  0  0  0  0  0  0
   -7.6791   21.8199  -31.7554 H   0  0  0  0  0  0  0  0  0  0  0  0
   -8.1515   19.6497  -32.8741 H   0  0  0  0  0  0  0  0  0  0  0  0
  1  2  1  0
  2  3  1  0
  3  4  2  0
  4  5  1  0
  5  6  2  0
  6  7  1  0
  7  8  2  0
  8  9  1  0
  9 10  1  0
 10 11  2  3
 11 12  1  0
 12 13  2  0
 12 14  1  0
 14 15  1  0
 15 16  1  0
 16 17  1  0
 17 18  1  0
 18 19  1  0
 19 20  1  0
 20 21  2  0
 20 22  2  0
 20 23  1  0
 23 24  2  0
 24 25  1  0
 25 26  2  0
 26 27  1  0
 27 28  2  0
 10 29  1  0
  6 30  1  0
 30 31  2  0
 31  3  1  0
 29  7  1  0
 19 14  1  0
 28 23  1  0
  1 32  1  0
  1 33  1  0
  1 34  1  0
  4 35  1  0
  5 36  1  0
  8 37  1  0
 14 38  1  6
 15 39  1  0
 15 40  1  0
 16 41  1  0
 16 42  1  0
 17 43  1  0
 17 44  1  0
 18 45  1  0
 18 46  1  0
 19 47  1  6
 24 48  1  0
 25 49  1  0
 26 50  1  0
 27 51  1  0
 28 52  1  0
 30 53  1  0
 31 54  1  0
M  CHG  2  19   1  29  -1
M  END
>  <UniqueID>  (45) 
45

>  <SMILES>  (45) 
COc1ccc(-c2csc(=NC(=O)[C@@H]3CCCC[N@H+]3S(=O)(=O)c3ccccc3)[n-]2)cc1

>  <Energy>  (45) 
98.34186155738189

>  <Genealogy>  (45) 
COc1ccc(-c2csc(=NC(=O)C3CCCC[NH+]3S(=O)(=O)c3ccccc3)[n-]2)cc1 (protonated)
COc1ccc(-c2csc(=NC(=O)[C@@H]3CCCC[N@H+]3S(=O)(=O)c3ccccc3)[n-]2)cc1 (chirality)
COc1ccc(-c2csc(=NC(=O)[C@@H]3CCCC[N@H+]3S(=O)(=O)c3ccccc3)[n-]2)cc1 (3D coordinates assigned)
COc1ccc(-c2csc(=NC(=O)[C@@H]3CCCC[N@H+]3S(=O)(=O)c3ccccc3)[n-]2)cc1 (nonaromatic ring conformer: 98.34186155738189 kcal/mol)

>  <smiles>  (45) 
COc1ccc(-c2csc(=NC(=O)C3CCCCN3S(=O)(=O)c3ccccc3)[nH]2)cc1

>  <score_type>  (45) 
oracle

>  <origin>  (45) 
adgpu

>  <m_score__min__energy>  (45) 
-9.4000000000000004

>  <m_primary>  (45) 
energy

$$$$
45:0
     RDKit          3D

 50 52  0  0  0  0  0  0  0  0999 V2000
  -10.3648   23.1268  -32.4965 H   0  0  0  0  0  0  0  0  0  0  0  0
   -9.4740   22.5720  -32.1670 C   0  0  0  0  0  0  0  0  0  0  0  0
   -8.2600   23.2420  -31.9920 C   0  0  0  0  0  0  0  0  0  0  0  0
   -8.1957   24.3227  -32.1869 H   0  0  0  0  0  0  0  0  0  0  0  0
   -7.1260   22.5390  -31.5690 C   0  0  0  0  0  0  0  0  0  0  0  0
   -5.8770   23.2330  -31.3810 C   0  0  0  0  0  0  0  0  0  0  0  0
   -4.8750   23.7890  -31.2300 N   0  0  0  0  0  0  0  0  0  0  0  0
   -7.2070   21.1620  -31.3250 C   0  0  0  0  0  0  0  0  0  0  0  0
   -6.3173   20.6121  -30.9845 H   0  0  0  0  0  0  0  0  0  0  0  0
   -8.4220   20.4810  -31.5140 C   0  0  0  0  0  0  0  0  0  0  0  0
   -8.5210   19.0140  -31.2160 C   0  0  0  0  0  0  0  0  0  0  0  0
   -9.5456   18.7726  -30.8966 H   0  0  0  0  0  0  0  0  0  0  0  0
   -7.8166   18.7538  -30.4122 H   0  0  0  0  0  0  0  0  0  0  0  0
   -8.1930   18.2520  -32.4180 N   0  0  0  0  0  0  0  0  0  0  0  0
   -7.0250   18.2620  -32.9900 C   0  0  0  0  0  0  0  0  0  0  0  0
   -6.0080   19.0100  -32.4800 N   0  0  0  0  0  0  0  0  0  0  0  0
   -4.7760   19.0370  -33.0580 C   0  0  0  0  0  0  0  0  0  0  0  0
   -3.7090   19.8780  -32.4580 C   0  0  0  0  0  0  0  0  0  0  0  0
   -3.7630   20.2830  -31.1120 C   0  0  0  0  0  0  0  0  0  0  0  0
   -4.6085   19.9688  -30.4824 H   0  0  0  0  0  0  0  0  0  0  0  0
   -2.7540   21.0800  -30.5670 C   0  0  0  0  0  0  0  0  0  0  0  0
   -2.8121   21.3872  -29.5124 H   0  0  0  0  0  0  0  0  0  0  0  0
   -1.6630   21.4940  -31.3550 C   0  0  0  0  0  0  0  0  0  0  0  0
   -0.6190   22.2940  -30.8520 O   0  0  0  0  0  0  0  0  0  0  0  0
   -0.4770   22.7790  -29.5140 C   0  0  0  0  0  0  0  0  0  0  0  0
    0.5115   23.2494  -29.4065 H   0  0  0  0  0  0  0  0  0  0  0  0
   -0.5808   21.9287  -28.8239 H   0  0  0  0  0  0  0  0  0  0  0  0
   -1.5660   23.8160  -29.1750 C   0  0  0  0  0  0  0  0  0  0  0  0
   -2.0665   24.0841  -30.1172 H   0  0  0  0  0  0  0  0  0  0  0  0
   -2.5880   23.2120  -28.2030 C   0  0  0  0  0  0  0  0  0  0  0  0
   -2.2666   23.4019  -27.1683 H   0  0  0  0  0  0  0  0  0  0  0  0
   -3.5720   23.6737  -28.3719 H   0  0  0  0  0  0  0  0  0  0  0  0
   -2.6581   22.1273  -28.3719 H   0  0  0  0  0  0  0  0  0  0  0  0
   -0.9770   25.1030  -28.5840 C   0  0  0  0  0  0  0  0  0  0  0  0
   -1.0025   25.0473  -27.4857 H   0  0  0  0  0  0  0  0  0  0  0  0
    0.0636   25.2186  -28.9212 H   0  0  0  0  0  0  0  0  0  0  0  0
   -1.5697   25.9661  -28.9212 H   0  0  0  0  0  0  0  0  0  0  0  0
   -1.6140   21.1020  -32.7040 C   0  0  0  0  0  0  0  0  0  0  0  0
   -0.5150   21.5120  -33.5410 C   0  0  0  0  0  0  0  0  0  0  0  0
    0.3680   21.8410  -34.2140 N   0  0  0  0  0  0  0  0  0  0  0  0
   -2.6280   20.3050  -33.2480 C   0  0  0  0  0  0  0  0  0  0  0  0
   -2.5781   20.0094  -34.3064 H   0  0  0  0  0  0  0  0  0  0  0  0
   -4.5600   18.2810  -34.2210 C   0  0  0  0  0  0  0  0  0  0  0  0
   -3.5801   18.2901  -34.7207 H   0  0  0  0  0  0  0  0  0  0  0  0
   -5.6090   17.5190  -34.7310 C   0  0  0  0  0  0  0  0  0  0  0  0
   -5.4580   16.9156  -35.6383 H   0  0  0  0  0  0  0  0  0  0  0  0
   -6.8180   17.5190  -34.1110 N   0  0  0  0  0  0  0  0  0  0  0  0
   -7.5940   16.9420  -34.5090 H   0  0  0  0  0  0  0  0  0  0  0  0
   -9.5580   21.1980  -31.9240 C   0  0  0  0  0  0  0  0  0  0  0  0
  -10.5176   20.6763  -32.0544 H   0  0  0  0  0  0  0  0  0  0  0  0
  1  2  1  0
  2  3  2  0
  3  4  1  0
  3  5  1  0
  5  6  1  0
  6  7  3  0
  5  8  2  0
  8  9  1  0
  8 10  1  0
 10 11  1  0
 11 12  1  0
 11 13  1  0
 11 14  1  0
 14 15  2  0
 15 16  1  0
 16 17  2  0
 17 18  1  0
 18 19  2  0
 19 20  1  0
 19 21  1  0
 21 22  1  0
 21 23  2  0
 23 24  1  0
 24 25  1  0
 25 26  1  0
 25 27  1  0
 25 28  1  0
 28 29  1  0
 28 30  1  0
 30 31  1  0
 30 32  1  0
 30 33  1  0
 28 34  1  0
 34 35  1  0
 34 36  1  0
 34 37  1  0
 23 38  1  0
 38 39  1  0
 39 40  3  0
 38 41  2  0
 41 42  1  0
 17 43  1  0
 43 44  1  0
 43 45  2  0
 45 46  1  0
 45 47  1  0
 47 48  1  0
 10 49  2  0
 49 50  1  0
 49  2  1  0
 47 15  1  0
 41 18  1  0
M  END
>  <UniqueID>  (46) 
46

>  <SMILES>  (46) 
CC(C)COc1ccc(-c2cc[nH]/c(=N/Cc3cccc(C#N)c3)n2)cc1C#N

>  <Energy>  (46) 
50.66998953787371

>  <Genealogy>  (46) 
CC(C)COc1ccc(-c2cc[nH]/c(=N/Cc3cccc(C#N)c3)n2)cc1C#N (cis-trans isomerization)
CC(C)COc1ccc(-c2cc[nH]/c(=N/Cc3cccc(C#N)c3)n2)cc1C#N (3D coordinates assigned)
CC(C)COc1ccc(-c2cc[nH]/c(=N/Cc3cccc(C#N)c3)n2)cc1C#N (optimized conformer: 50.66998953787371 kcal/mol)

>  <smiles>  (46) 
CC(C)COc1ccc(-c2cc[nH]c(=NCc3cccc(C#N)c3)n2)cc1C#N

>  <score_type>  (46) 
oracle

>  <origin>  (46) 
adgpu

>  <m_score__min__energy>  (46) 
-9.9399999999999995

>  <m_primary>  (46) 
energy

$$$$
46:0
     RDKit          3D

 34 35  0  0  0  0  0  0  0  0999 V2000
   -7.0660   17.3050  -33.1040 C   0  0  0  0  0  0  0  0  0  0  0  0
   -7.2960   18.7460  -32.7610 C   0  0  0  0  0  0  0  0  0  0  0  0
   -6.2910   19.6990  -32.9870 C   0  0  0  0  0  0  0  0  0  0  0  0
   -6.5060   21.0410  -32.6620 C   0  0  0  0  0  0  0  0  0  0  0  0
   -7.7310   21.4490  -32.1090 C   0  0  0  0  0  0  0  0  0  0  0  0
   -7.9380   22.8770  -31.6800 C   0  0  0  0  0  0  0  0  0  0  0  0
   -7.3040   23.1320  -30.3830 N   0  0  0  0  0  0  0  0  0  0  0  0
   -6.0310   24.3140  -30.5130 S   0  0  0  0  0  0  0  0  0  0  0  0
   -5.6270   24.4670  -31.9530 O   0  0  0  0  0  0  0  0  0  0  0  0
   -6.5390   25.6360  -30.0130 O   0  0  0  0  0  0  0  0  0  0  0  0
   -4.6460   23.8360  -29.5340 C   0  0  0  0  0  0  0  0  0  0  0  0
   -4.7360   22.7580  -28.6480 C   0  0  0  0  0  0  0  0  0  0  0  0
   -3.6580   22.4410  -27.8220 C   0  0  0  0  0  0  0  0  0  0  0  0
   -2.4760   23.1900  -27.8710 C   0  0  0  0  0  0  0  0  0  0  0  0
   -1.2130   22.7700  -26.7160 Cl  0  0  0  0  0  0  0  0  0  0  0  0
   -2.3600   24.2670  -28.7830 C   0  0  0  0  0  0  0  0  0  0  0  0
   -1.1340   25.1010  -28.8860 C   0  0  0  0  0  0  0  0  0  0  0  0
   -1.2290   26.3540  -28.9880 O   0  0  0  0  0  0  0  0  0  0  0  0
    0.1300   24.5260  -28.9010 O   0  0  0  0  0  0  0  0  0  0  0  0
   -3.4590   24.5720  -29.6110 C   0  0  0  0  0  0  0  0  0  0  0  0
   -8.7520   20.5030  -31.9300 C   0  0  0  0  0  0  0  0  0  0  0  0
   -8.5380   19.1610  -32.2570 C   0  0  0  0  0  0  0  0  0  0  0  0
   -6.9723   16.7182  -32.1783 H   0  0  0  0  0  0  0  0  0  0  0  0
   -7.9154   16.9281  -33.6927 H   0  0  0  0  0  0  0  0  0  0  0  0
   -6.1415   17.2113  -33.6927 H   0  0  0  0  0  0  0  0  0  0  0  0
   -5.3296   19.3882  -33.4219 H   0  0  0  0  0  0  0  0  0  0  0  0
   -5.7122   21.7813  -32.8401 H   0  0  0  0  0  0  0  0  0  0  0  0
   -7.4979   23.5466  -32.4336 H   0  0  0  0  0  0  0  0  0  0  0  0
   -9.0182   23.0618  -31.5849 H   0  0  0  0  0  0  0  0  0  0  0  0
   -5.6578   22.1595  -28.6025 H   0  0  0  0  0  0  0  0  0  0  0  0
   -3.7371   21.5938  -27.1248 H   0  0  0  0  0  0  0  0  0  0  0  0
   -3.3821   25.4018  -30.3290 H   0  0  0  0  0  0  0  0  0  0  0  0
   -9.7266   20.8195  -31.5299 H   0  0  0  0  0  0  0  0  0  0  0  0
   -9.3461   18.4276  -32.1187 H   0  0  0  0  0  0  0  0  0  0  0  0
  1  2  1  0
  2  3  2  0
  3  4  1  0
  4  5  2  0
  5  6  1  0
  6  7  1  0
  7  8  1  0
  8  9  2  0
  8 10  2  0
  8 11  1  0
 11 12  2  0
 12 13  1  0
 13 14  2  0
 14 15  1  0
 14 16  1  0
 16 17  1  0
 17 18  2  0
 17 19  1  0
 16 20  2  0
  5 21  1  0
 21 22  2  0
 22  2  1  0
 20 11  1  0
  1 23  1  0
  1 24  1  0
  1 25  1  0
  3 26  1  0
  4 27  1  0
  6 28  1  0
  6 29  1  0
 12 30  1  0
 13 31  1  0
 20 32  1  0
 21 33  1  0
 22 34  1  0
M  CHG  2   7  -1  19  -1
M  END
>  <UniqueID>  (47) 
47

>  <SMILES>  (47) 
Cc1ccc(C[N-]S(=O)(=O)c2ccc(Cl)c(C(=O)[O-])c2)cc1

>  <Energy>  (47) 
32.37666065834717

>  <Genealogy>  (47) 
Cc1ccc(C[N-]S(=O)(=O)c2ccc(Cl)c(C(=O)[O-])c2)cc1 (protonated)
Cc1ccc(C[N-]S(=O)(=O)c2ccc(Cl)c(C(=O)[O-])c2)cc1 (3D coordinates assigned)
Cc1ccc(C[N-]S(=O)(=O)c2ccc(Cl)c(C(=O)[O-])c2)cc1 (optimized conformer: 32.37666065834717 kcal/mol)

>  <smiles>  (47) 
Cc1ccc(CNS(=O)(=O)c2ccc(Cl)c(C(=O)O)c2)cc1

>  <score_type>  (47) 
oracle

>  <origin>  (47) 
adgpu

>  <m_score__min__energy>  (47) 
-10.66

>  <m_primary>  (47) 
energy

$$$$
47:0
     RDKit          3D

 49 53  0  0  0  0  0  0  0  0999 V2000
   -4.1430   19.7700  -30.9930 O   0  0  0  0  0  0  0  0  0  0  0  0
   -4.4950   20.8680  -31.5030 C   0  0  0  0  0  0  0  0  0  0  0  0
   -5.3230   20.8470  -32.7620 C   0  0  0  0  0  0  0  0  0  0  0  0
   -6.7960   20.7490  -32.4740 C   0  0  0  0  0  0  0  0  0  0  0  0
   -7.5420   19.5790  -32.6880 C   0  0  0  0  0  0  0  0  0  0  0  0
   -8.8800   19.7030  -32.3430 C   0  0  0  0  0  0  0  0  0  0  0  0
   -9.1250   21.2600  -31.7570 S   0  0  0  0  0  0  0  0  0  0  0  0
   -7.5420   21.7920  -31.9340 C   0  0  0  0  0  0  0  0  0  0  0  0
   -4.0940   22.1260  -30.8390 C   0  0  0  0  0  0  0  0  0  0  0  0
   -4.4250   23.4040  -31.2620 C   0  0  0  0  0  0  0  0  0  0  0  0
   -5.2250   23.7540  -32.3460 O   0  0  0  0  0  0  0  0  0  0  0  0
   -3.7860   24.2860  -30.4260 C   0  0  0  0  0  0  0  0  0  0  0  0
   -3.8780   25.6710  -30.5050 O   0  0  0  0  0  0  0  0  0  0  0  0
   -3.0660   23.6230  -29.4990 N   0  0  0  0  0  0  0  0  0  0  0  0
   -2.3220   24.2280  -28.4270 C   0  0  0  0  0  0  0  0  0  0  0  0
   -2.9520   24.5240  -27.2110 C   0  0  0  0  0  0  0  0  0  0  0  0
   -2.2350   25.1200  -26.1700 C   0  0  0  0  0  0  0  0  0  0  0  0
   -0.8700   25.4260  -26.3210 C   0  0  0  0  0  0  0  0  0  0  0  0
   -0.1170   26.0660  -25.2090 C   0  0  0  0  0  0  0  0  0  0  0  0
   -0.6520   26.6920  -24.0820 C   0  0  0  0  0  0  0  0  0  0  0  0
    0.3170   27.2030  -23.2080 C   0  0  0  0  0  0  0  0  0  0  0  0
    1.6210   26.9870  -23.6290 C   0  0  0  0  0  0  0  0  0  0  0  0
    1.5630   26.1630  -25.0900 S   0  0  0  0  0  0  0  0  0  0  0  0
   -0.2430   25.1190  -27.5440 C   0  0  0  0  0  0  0  0  0  0  0  0
   -0.9610   24.5240  -28.5830 C   0  0  0  0  0  0  0  0  0  0  0  0
   -3.2460   22.2980  -29.7400 C   0  0  0  0  0  0  0  0  0  0  0  0
   -2.6410   21.2170  -28.9320 C   0  0  0  0  0  0  0  0  0  0  0  0
   -3.1170   20.9360  -27.6440 C   0  0  0  0  0  0  0  0  0  0  0  0
   -2.5240   19.9240  -26.8880 C   0  0  0  0  0  0  0  0  0  0  0  0
   -1.4520   19.2080  -27.4240 C   0  0  0  0  0  0  0  0  0  0  0  0
   -0.9940   19.4990  -28.6690 N   0  0  0  0  0  0  0  0  0  0  0  0
   -1.5560   20.4780  -29.4260 C   0  0  0  0  0  0  0  0  0  0  0  0
   -5.1334   21.7724  -33.3257 H   0  0  0  0  0  0  0  0  0  0  0  0
   -5.0331   19.9578  -33.3410 H   0  0  0  0  0  0  0  0  0  0  0  0
   -7.1071   18.6524  -33.0908 H   0  0  0  0  0  0  0  0  0  0  0  0
   -9.6466   18.9197  -32.4364 H   0  0  0  0  0  0  0  0  0  0  0  0
   -7.1617   22.7897  -31.6695 H   0  0  0  0  0  0  0  0  0  0  0  0
   -5.0300   23.4210  -33.2800 H   0  0  0  0  0  0  0  0  0  0  0  0
   -4.0173   24.2859  -27.0749 H   0  0  0  0  0  0  0  0  0  0  0  0
   -2.7432   25.3524  -25.2225 H   0  0  0  0  0  0  0  0  0  0  0  0
   -1.7331   26.7764  -23.8971 H   0  0  0  0  0  0  0  0  0  0  0  0
    0.0666   27.7272  -22.2739 H   0  0  0  0  0  0  0  0  0  0  0  0
    2.5324   27.3005  -23.0988 H   0  0  0  0  0  0  0  0  0  0  0  0
    0.8235   25.3504  -27.6821 H   0  0  0  0  0  0  0  0  0  0  0  0
   -0.4552   24.2859  -29.5304 H   0  0  0  0  0  0  0  0  0  0  0  0
   -3.9571   21.5126  -27.2295 H   0  0  0  0  0  0  0  0  0  0  0  0
   -2.8976   19.6927  -25.8796 H   0  0  0  0  0  0  0  0  0  0  0  0
   -0.9779   18.4074  -26.8373 H   0  0  0  0  0  0  0  0  0  0  0  0
   -1.1587   20.6915  -30.4293 H   0  0  0  0  0  0  0  0  0  0  0  0
  1  2  2  0
  2  3  1  0
  3  4  1  0
  4  5  1  0
  5  6  2  0
  6  7  1  0
  7  8  1  0
  2  9  1  0
  9 10  1  0
 10 11  1  0
 10 12  2  0
 12 13  1  0
 12 14  1  0
 14 15  1  0
 15 16  2  0
 16 17  1  0
 17 18  2  0
 18 19  1  0
 19 20  2  0
 20 21  1  0
 21 22  2  0
 22 23  1  0
 18 24  1  0
 24 25  2  0
 14 26  1  0
 26 27  1  0
 27 28  2  0
 28 29  1  0
 29 30  2  0
 30 31  1  0
 31 32  2  0
  8  4  2  0
 26  9  2  0
 32 27  1  0
 25 15  1  0
 23 19  1  0
  3 33  1  0
  3 34  1  0
  5 35  1  0
  6 36  1  0
  8 37  1  0
 11 38  1  0
 16 39  1  0
 17 40  1  0
 20 41  1  0
 21 42  1  0
 22 43  1  0
 24 44  1  0
 25 45  1  0
 28 46  1  0
 29 47  1  0
 30 48  1  0
 32 49  1  0
M  CHG  1  13  -1
M  END
>  <UniqueID>  (48) 
48

>  <SMILES>  (48) 
O=C(Cc1ccsc1)c1c(O)c([O-])n(-c2ccc(-c3cccs3)cc2)c1-c1cccnc1

>  <Energy>  (48) 
150.40579457042674

>  <Genealogy>  (48) 
O=C(Cc1ccsc1)c1c(O)c([O-])n(-c2ccc(-c3cccs3)cc2)c1-c1cccnc1 (protonated)
O=C(Cc1ccsc1)c1c(O)c([O-])n(-c2ccc(-c3cccs3)cc2)c1-c1cccnc1 (3D coordinates assigned)
O=C(Cc1ccsc1)c1c(O)c([O-])n(-c2ccc(-c3cccs3)cc2)c1-c1cccnc1 (optimized conformer: 150.40579457042674 kcal/mol)

>  <smiles>  (48) 
O=C(Cc1ccsc1)c1c(O)c(O)n(-c2ccc(-c3cccs3)cc2)c1-c1cccnc1

>  <score_type>  (48) 
oracle

>  <origin>  (48) 
adgpu

>  <m_score__min__energy>  (48) 
-13.42

>  <m_primary>  (48) 
energy

$$$$
48:0
     RDKit          3D

 40 42  0  0  0  0  0  0  0  0999 V2000
   -1.8580   25.5000  -28.9760 O   0  0  0  0  0  0  0  0  0  0  0  0
   -2.9880   24.5880  -29.3660 S   0  0  0  0  0  0  0  0  0  0  0  0
   -3.8990   24.4280  -28.1800 O   0  0  0  0  0  0  0  0  0  0  0  0
   -3.8710   25.3110  -30.6820 N   0  0  0  0  0  0  0  0  0  0  0  0
   -5.2890   25.4700  -30.3550 C   0  0  0  0  0  0  0  0  0  0  0  0
   -6.0800   24.2510  -30.7490 C   0  0  0  0  0  0  0  0  0  0  0  0
   -6.8100   23.5420  -29.7790 C   0  0  0  0  0  0  0  0  0  0  0  0
   -7.5350   22.4010  -30.1390 C   0  0  0  0  0  0  0  0  0  0  0  0
   -7.5360   21.9620  -31.4650 C   0  0  0  0  0  0  0  0  0  0  0  0
   -6.8140   22.6630  -32.4360 C   0  0  0  0  0  0  0  0  0  0  0  0
   -6.0900   23.8050  -32.0800 C   0  0  0  0  0  0  0  0  0  0  0  0
   -2.3140   23.0280  -29.8330 C   0  0  0  0  0  0  0  0  0  0  0  0
   -1.1260   22.5550  -29.2650 C   0  0  0  0  0  0  0  0  0  0  0  0
   -0.6360   21.3410  -29.6250 N   0  0  0  0  0  0  0  0  0  0  0  0
   -1.2690   20.5520  -30.5320 C   0  0  0  0  0  0  0  0  0  0  0  0
   -2.4660   20.9780  -31.1330 C   0  0  0  0  0  0  0  0  0  0  0  0
   -3.1680   20.1240  -32.1240 C   0  0  0  0  0  0  0  0  0  0  0  0
   -4.5170   20.3520  -32.4450 C   0  0  0  0  0  0  0  0  0  0  0  0
   -5.1650   19.5410  -33.3780 C   0  0  0  0  0  0  0  0  0  0  0  0
   -4.4630   18.4960  -33.9900 C   0  0  0  0  0  0  0  0  0  0  0  0
   -5.1400   17.6120  -34.9960 C   0  0  0  0  0  0  0  0  0  0  0  0
   -6.0730   18.3470  -35.7060 F   0  0  0  0  0  0  0  0  0  0  0  0
   -4.2180   17.0850  -35.8810 F   0  0  0  0  0  0  0  0  0  0  0  0
   -5.7790   16.5730  -34.3450 F   0  0  0  0  0  0  0  0  0  0  0  0
   -3.1570   18.2860  -33.6670 N   0  0  0  0  0  0  0  0  0  0  0  0
   -2.5020   19.0630  -32.7640 C   0  0  0  0  0  0  0  0  0  0  0  0
   -2.9810   22.2330  -30.7700 C   0  0  0  0  0  0  0  0  0  0  0  0
   -5.3914   25.6291  -29.2714 H   0  0  0  0  0  0  0  0  0  0  0  0
   -5.6799   26.3335  -30.9131 H   0  0  0  0  0  0  0  0  0  0  0  0
   -6.8111   23.8854  -28.7340 H   0  0  0  0  0  0  0  0  0  0  0  0
   -8.1048   21.8490  -29.3770 H   0  0  0  0  0  0  0  0  0  0  0  0
   -8.1054   21.0637  -31.7458 H   0  0  0  0  0  0  0  0  0  0  0  0
   -6.8156   22.3160  -33.4798 H   0  0  0  0  0  0  0  0  0  0  0  0
   -5.5257   24.3565  -32.8464 H   0  0  0  0  0  0  0  0  0  0  0  0
   -0.5884   23.1673  -28.5260 H   0  0  0  0  0  0  0  0  0  0  0  0
   -0.8420   19.5737  -30.7976 H   0  0  0  0  0  0  0  0  0  0  0  0
   -5.0645   21.1730  -31.9590 H   0  0  0  0  0  0  0  0  0  0  0  0
   -6.2202   19.7218  -33.6307 H   0  0  0  0  0  0  0  0  0  0  0  0
   -1.4458   18.8610  -32.5326 H   0  0  0  0  0  0  0  0  0  0  0  0
   -3.9152   22.5929  -31.2258 H   0  0  0  0  0  0  0  0  0  0  0  0
  1  2  2  0
  2  3  2  0
  2  4  1  0
  4  5  1  0
  5  6  1  0
  6  7  2  0
  7  8  1  0
  8  9  2  0
  9 10  1  0
 10 11  2  0
  2 12  1  0
 12 13  2  0
 13 14  1  0
 14 15  2  0
 15 16  1  0
 16 17  1  0
 17 18  2  0
 18 19  1  0
 19 20  2  0
 20 21  1  0
 21 22  1  0
 21 23  1  0
 21 24  1  0
 20 25  1  0
 25 26  2  0
 16 27  2  0
 11  6  1  0
 27 12  1  0
 26 17  1  0
  5 28  1  0
  5 29  1  0
  7 30  1  0
  8 31  1  0
  9 32  1  0
 10 33  1  0
 11 34  1  0
 13 35  1  0
 15 36  1  0
 18 37  1  0
 19 38  1  0
 26 39  1  0
 27 40  1  0
M  CHG  1   4  -1
M  END
>  <UniqueID>  (49) 
49

>  <SMILES>  (49) 
O=S(=O)([N-]Cc1ccccc1)c1cncc(-c2ccc(C(F)(F)F)nc2)c1

>  <Energy>  (49) 
47.28546899826942

>  <Genealogy>  (49) 
O=S(=O)([N-]Cc1ccccc1)c1cncc(-c2ccc(C(F)(F)F)nc2)c1 (protonated)
O=S(=O)([N-]Cc1ccccc1)c1cncc(-c2ccc(C(F)(F)F)nc2)c1 (3D coordinates assigned)
O=S(=O)([N-]Cc1ccccc1)c1cncc(-c2ccc(C(F)(F)F)nc2)c1 (optimized conformer: 47.28546899826942 kcal/mol)

>  <smiles>  (49) 
O=S(=O)(NCc1ccccc1)c1cncc(-c2ccc(C(F)(F)F)nc2)c1

>  <score_type>  (49) 
oracle

>  <origin>  (49) 
adgpu

>  <m_score__min__energy>  (49) 
-9.5399999999999991

>  <m_primary>  (49) 
energy

$$$$
49:0
     RDKit          3D

 49 51  0  0  0  0  0  0  0  0999 V2000
   -1.6120   20.2830  -26.7450 C   0  0  0  0  0  0  0  0  0  0  0  0
   -0.9810   21.1950  -27.6370 O   0  0  0  0  0  0  0  0  0  0  0  0
   -1.6490   22.2120  -28.3380 C   0  0  0  0  0  0  0  0  0  0  0  0
   -2.7420   21.8590  -29.1330 C   0  0  0  0  0  0  0  0  0  0  0  0
   -3.4420   22.8300  -29.8500 C   0  0  0  0  0  0  0  0  0  0  0  0
   -3.0710   24.1820  -29.7690 C   0  0  0  0  0  0  0  0  0  0  0  0
   -3.7590   25.2020  -30.5100 N   0  0  0  0  0  0  0  0  0  0  0  0
   -5.1620   25.4990  -30.4740 C   0  0  0  0  0  0  0  0  0  0  0  0
   -5.5740   26.6890  -30.4590 O   0  0  0  0  0  0  0  0  0  0  0  0
   -6.1330   24.4050  -30.5010 C   0  0  0  0  0  0  0  0  0  0  0  0
   -6.9220   24.1180  -31.5550 N   0  0  0  0  0  0  0  0  0  0  0  0
   -7.6140   23.0580  -31.0840 C   0  0  0  0  0  0  0  0  0  0  0  0
   -8.6140   22.3010  -31.9060 C   0  0  0  0  0  0  0  0  0  0  0  0
   -8.1100   20.9260  -32.2650 C   0  0  0  0  0  0  0  0  0  0  0  0
   -8.8770   19.7940  -31.9600 C   0  0  0  0  0  0  0  0  0  0  0  0
   -8.3940   18.5160  -32.2470 C   0  0  0  0  0  0  0  0  0  0  0  0
   -7.1300   18.3500  -32.8440 C   0  0  0  0  0  0  0  0  0  0  0  0
   -6.6100   17.0810  -33.1480 O   0  0  0  0  0  0  0  0  0  0  0  0
   -5.4680   16.5050  -32.5200 C   0  0  0  0  0  0  0  0  0  0  0  0
   -6.3530   19.4790  -33.1510 C   0  0  0  0  0  0  0  0  0  0  0  0
   -5.0980   19.2830  -33.7470 O   0  0  0  0  0  0  0  0  0  0  0  0
   -3.9080   19.9700  -33.3700 C   0  0  0  0  0  0  0  0  0  0  0  0
   -6.8470   20.7650  -32.8540 C   0  0  0  0  0  0  0  0  0  0  0  0
   -7.2460   22.7160  -29.8310 N   0  0  0  0  0  0  0  0  0  0  0  0
   -6.3360   23.5800  -29.5030 O   0  0  0  0  0  0  0  0  0  0  0  0
   -1.9580   24.5480  -28.9920 C   0  0  0  0  0  0  0  0  0  0  0  0
   -1.5850   25.9020  -28.9530 O   0  0  0  0  0  0  0  0  0  0  0  0
   -0.8650   26.5130  -27.8880 C   0  0  0  0  0  0  0  0  0  0  0  0
   -1.2540   23.5600  -28.2730 C   0  0  0  0  0  0  0  0  0  0  0  0
   -1.4047   20.5826  -25.7071 H   0  0  0  0  0  0  0  0  0  0  0  0
   -2.6981   20.2918  -26.9193 H   0  0  0  0  0  0  0  0  0  0  0  0
   -1.2209   19.2698  -26.9193 H   0  0  0  0  0  0  0  0  0  0  0  0
   -3.0537   20.8059  -29.1944 H   0  0  0  0  0  0  0  0  0  0  0  0
   -4.2911   22.5341  -30.4837 H   0  0  0  0  0  0  0  0  0  0  0  0
   -9.5462   22.2006  -31.3308 H   0  0  0  0  0  0  0  0  0  0  0  0
   -8.7860   22.8588  -32.8384 H   0  0  0  0  0  0  0  0  0  0  0  0
   -9.8653   19.9128  -31.4918 H   0  0  0  0  0  0  0  0  0  0  0  0
   -9.0047   17.6336  -32.0052 H   0  0  0  0  0  0  0  0  0  0  0  0
   -5.5822   16.5626  -31.4275 H   0  0  0  0  0  0  0  0  0  0  0  0
   -5.3745   15.4519  -32.8239 H   0  0  0  0  0  0  0  0  0  0  0  0
   -4.5656   17.0558  -32.8239 H   0  0  0  0  0  0  0  0  0  0  0  0
   -3.8394   20.0096  -32.2729 H   0  0  0  0  0  0  0  0  0  0  0  0
   -3.0339   19.4376  -33.7730 H   0  0  0  0  0  0  0  0  0  0  0  0
   -3.9320   20.9932  -33.7730 H   0  0  0  0  0  0  0  0  0  0  0  0
   -6.2369   21.6504  -33.0861 H   0  0  0  0  0  0  0  0  0  0  0  0
   -1.2712   26.1683  -26.9256 H   0  0  0  0  0  0  0  0  0  0  0  0
    0.1974   26.2366  -27.9577 H   0  0  0  0  0  0  0  0  0  0  0  0
   -0.9648   27.6062  -27.9577 H   0  0  0  0  0  0  0  0  0  0  0  0
   -0.3891   23.8461  -27.6565 H   0  0  0  0  0  0  0  0  0  0  0  0
  1  2  1  0
  2  3  1  0
  3  4  2  0
  4  5  1  0
  5  6  2  0
  6  7  1  0
  7  8  1  0
  8  9  2  0
  8 10  1  0
 10 11  2  0
 11 12  1  0
 12 13  1  0
 13 14  1  0
 14 15  2  0
 15 16  1  0
 16 17  2  0
 17 18  1  0
 18 19  1  0
 17 20  1  0
 20 21  1  0
 21 22  1  0
 20 23  2  0
 12 24  2  0
 24 25  1  0
  6 26  1  0
 26 27  1  0
 27 28  1  0
 26 29  2  0
 29  3  1  0
 25 10  1  0
 23 14  1  0
  1 30  1  0
  1 31  1  0
  1 32  1  0
  4 33  1  0
  5 34  1  0
 13 35  1  0
 13 36  1  0
 15 37  1  0
 16 38  1  0
 19 39  1  0
 19 40  1  0
 19 41  1  0
 22 42  1  0
 22 43  1  0
 22 44  1  0
 23 45  1  0
 28 46  1  0
 28 47  1  0
 28 48  1  0
 29 49  1  0
M  CHG  1   7  -1
M  END
>  <UniqueID>  (50) 
50

>  <SMILES>  (50) 
COc1ccc([N-]C(=O)c2nc(Cc3ccc(OC)c(OC)c3)no2)c(OC)c1

>  <Energy>  (50) 
83.58260287285607

>  <Genealogy>  (50) 
COc1ccc([N-]C(=O)c2nc(Cc3ccc(OC)c(OC)c3)no2)c(OC)c1 (protonated)
COc1ccc([N-]C(=O)c2nc(Cc3ccc(OC)c(OC)c3)no2)c(OC)c1 (3D coordinates assigned)
COc1ccc([N-]C(=O)c2nc(Cc3ccc(OC)c(OC)c3)no2)c(OC)c1 (optimized conformer: 83.58260287285607 kcal/mol)

>  <smiles>  (50) 
COc1ccc(NC(=O)c2nc(Cc3ccc(OC)c(OC)c3)no2)c(OC)c1

>  <score_type>  (50) 
oracle

>  <origin>  (50) 
adgpu

>  <m_score__min__energy>  (50) 
-10.76

>  <m_primary>  (50) 
energy

$$$$
