0:0
     RDKit          3D

 62 65  0  0  0  0  0  0  0  0999 V2000
   -9.3350   20.8100  -31.9640 C   0  0  0  0  0  0  0  0  0  0  0  0
   -8.0800   21.6380  -31.8820 C   0  0  0  0  0  0  0  0  0  0  0  0
   -8.2040   22.9980  -31.5550 C   0  0  0  0  0  0  0  0  0  0  0  0
   -7.0820   23.8150  -31.4520 C   0  0  0  0  0  0  0  0  0  0  0  0
   -5.8000   23.2850  -31.6510 C   0  0  0  0  0  0  0  0  0  0  0  0
   -4.6280   24.1100  -31.5770 N   0  0  0  0  0  0  0  0  0  0  0  0
   -4.3290   25.0630  -30.5520 C   0  0  0  0  0  0  0  0  0  0  0  0
   -5.0640   26.0790  -30.4340 O   0  0  0  0  0  0  0  0  0  0  0  0
   -3.1490   24.9230  -29.7500 N   0  0  0  0  0  0  0  0  0  0  0  0
   -2.7380   23.7490  -29.0340 C   0  0  0  0  0  0  0  0  0  0  0  0
   -3.4750   22.5690  -29.1990 C   0  0  0  0  0  0  0  0  0  0  0  0
   -3.1150   21.4080  -28.5120 C   0  0  0  0  0  0  0  0  0  0  0  0
   -2.0130   21.4120  -27.6470 C   0  0  0  0  0  0  0  0  0  0  0  0
   -1.5600   19.9480  -26.7740 S   0  0  0  0  0  0  0  0  0  0  0  0
   -1.6160   20.2280  -25.2980 O   0  0  0  0  0  0  0  0  0  0  0  0
   -2.5690   18.8730  -27.0710 O   0  0  0  0  0  0  0  0  0  0  0  0
    0.0400   19.3650  -27.1840 N   0  0  0  0  0  0  0  0  0  0  0  0
    0.7950   20.2840  -28.0580 C   0  0  0  0  0  0  0  0  0  0  0  0
    0.5980   19.9800  -29.5490 C   0  0  0  0  0  0  0  0  0  0  0  0
    0.8630   18.6220  -29.8240 O   0  0  0  0  0  0  0  0  0  0  0  0
   -0.0890   17.8240  -29.1550 C   0  0  0  0  0  0  0  0  0  0  0  0
    0.0600   17.9590  -27.6340 C   0  0  0  0  0  0  0  0  0  0  0  0
   -1.3010   22.6020  -27.4440 C   0  0  0  0  0  0  0  0  0  0  0  0
   -1.6590   23.7650  -28.1310 C   0  0  0  0  0  0  0  0  0  0  0  0
   -5.6580   21.9340  -31.9940 C   0  0  0  0  0  0  0  0  0  0  0  0
   -4.3800   21.4390  -32.2350 O   0  0  0  0  0  0  0  0  0  0  0  0
   -6.7870   21.0870  -32.0900 C   0  0  0  0  0  0  0  0  0  0  0  0
   -6.5620   19.3690  -32.5090 S   0  0  0  0  0  0  0  0  0  0  0  0
   -7.8500   18.7920  -33.0290 O   0  0  0  0  0  0  0  0  0  0  0  0
   -6.1730   18.5790  -31.2900 O   0  0  0  0  0  0  0  0  0  0  0  0
   -5.2820   19.1980  -33.7600 C   0  0  0  0  0  0  0  0  0  0  0  0
   -3.9500   18.7680  -33.1170 C   0  0  0  0  0  0  0  0  0  0  0  0
   -3.0490   18.1030  -34.1680 C   0  0  0  0  0  0  0  0  0  0  0  0
   -3.5980   16.9310  -34.7650 O   0  0  0  0  0  0  0  0  0  0  0  0
   -5.0180   16.8550  -34.7120 C   0  0  0  0  0  0  0  0  0  0  0  0
   -5.7090   18.2180  -34.8760 C   0  0  0  0  0  0  0  0  0  0  0  0
   -9.6877   20.5773  -30.9484 H   0  0  0  0  0  0  0  0  0  0  0  0
  -10.1116   21.3736  -32.5017 H   0  0  0  0  0  0  0  0  0  0  0  0
   -9.1224   19.8742  -32.5017 H   0  0  0  0  0  0  0  0  0  0  0  0
   -9.2026   23.4239  -31.3777 H   0  0  0  0  0  0  0  0  0  0  0  0
   -7.2021   24.8820  -31.2132 H   0  0  0  0  0  0  0  0  0  0  0  0
   -4.3432   22.5571  -29.8744 H   0  0  0  0  0  0  0  0  0  0  0  0
   -3.6991   20.4863  -28.6505 H   0  0  0  0  0  0  0  0  0  0  0  0
    0.4584   21.3126  -27.8612 H   0  0  0  0  0  0  0  0  0  0  0  0
    1.8636   20.1549  -27.8313 H   0  0  0  0  0  0  0  0  0  0  0  0
   -0.4409   20.2083  -29.8291 H   0  0  0  0  0  0  0  0  0  0  0  0
    1.2970   20.5997  -30.1299 H   0  0  0  0  0  0  0  0  0  0  0  0
   -1.0992   18.1454  -29.4484 H   0  0  0  0  0  0  0  0  0  0  0  0
    0.0739   16.7724  -29.4335 H   0  0  0  0  0  0  0  0  0  0  0  0
   -0.7692   17.4223  -27.1498 H   0  0  0  0  0  0  0  0  0  0  0  0
    1.0358   17.5341  -27.3559 H   0  0  0  0  0  0  0  0  0  0  0  0
   -0.4559   22.6206  -26.7401 H   0  0  0  0  0  0  0  0  0  0  0  0
   -1.0959   24.6953  -27.9655 H   0  0  0  0  0  0  0  0  0  0  0  0
   -5.1336   20.1814  -34.2300 H   0  0  0  0  0  0  0  0  0  0  0  0
   -3.4406   19.6531  -32.7082 H   0  0  0  0  0  0  0  0  0  0  0  0
   -4.1545   18.0489  -32.3101 H   0  0  0  0  0  0  0  0  0  0  0  0
   -2.8543   18.8351  -34.9655 H   0  0  0  0  0  0  0  0  0  0  0  0
   -2.1371   17.7860  -33.6408 H   0  0  0  0  0  0  0  0  0  0  0  0
   -5.3619   16.1905  -35.5183 H   0  0  0  0  0  0  0  0  0  0  0  0
   -5.2857   16.4731  -33.7158 H   0  0  0  0  0  0  0  0  0  0  0  0
   -5.4348   18.6443  -35.8523 H   0  0  0  0  0  0  0  0  0  0  0  0
   -6.7967   18.0676  -34.8106 H   0  0  0  0  0  0  0  0  0  0  0  0
  1  2  1  0
  2  3  2  0
  3  4  1  0
  4  5  2  0
  5  6  1  0
  6  7  1  0
  7  8  2  0
  7  9  1  0
  9 10  1  0
 10 11  2  0
 11 12  1  0
 12 13  2  0
 13 14  1  0
 14 15  2  0
 14 16  2  0
 14 17  1  0
 17 18  1  0
 18 19  1  0
 19 20  1  0
 20 21  1  0
 21 22  1  0
 13 23  1  0
 23 24  2  0
  5 25  1  0
 25 26  1  0
 25 27  2  0
 27 28  1  0
 28 29  2  0
 28 30  2  0
 28 31  1  0
 31 32  1  0
 32 33  1  0
 33 34  1  0
 34 35  1  0
 35 36  1  0
 27  2  1  0
 36 31  1  0
 24 10  1  0
 22 17  1  0
  1 37  1  0
  1 38  1  0
  1 39  1  0
  3 40  1  0
  4 41  1  0
 11 42  1  0
 12 43  1  0
 18 44  1  0
 18 45  1  0
 19 46  1  0
 19 47  1  0
 21 48  1  0
 21 49  1  0
 22 50  1  0
 22 51  1  0
 23 52  1  0
 24 53  1  0
 31 54  1  0
 32 55  1  0
 32 56  1  0
 33 57  1  0
 33 58  1  0
 35 59  1  0
 35 60  1  0
 36 61  1  0
 36 62  1  0
M  CHG  3   6  -1   9  -1  26  -1
M  END
>  <UniqueID>  (1) 
1

>  <SMILES>  (1) 
Cc1ccc([N-]C(=O)[N-]c2ccc(S(=O)(=O)N3CCOCC3)cc2)c([O-])c1S(=O)(=O)C1CCOCC1

>  <Energy>  (1) 
87.4953597464207

>  <Genealogy>  (1) 
Cc1ccc([N-]C(=O)[N-]c2ccc(S(=O)(=O)N3CCOCC3)cc2)c([O-])c1S(=O)(=O)C1CCOCC1 (protonated)
Cc1ccc([N-]C(=O)[N-]c2ccc(S(=O)(=O)N3CCOCC3)cc2)c([O-])c1S(=O)(=O)C1CCOCC1 (3D coordinates assigned)
Cc1ccc([N-]C(=O)[N-]c2ccc(S(=O)(=O)N3CCOCC3)cc2)c([O-])c1S(=O)(=O)C1CCOCC1 (nonaromatic ring conformer: 87.4953597464207 kcal/mol)

>  <smiles>  (1) 
Cc1ccc(NC(=O)Nc2ccc(S(=O)(=O)N3CCOCC3)cc2)c(O)c1S(=O)(=O)C1CCOCC1

>  <score_type>  (1) 
oracle

>  <origin>  (1) 
adgpu

>  <m_score__min__energy>  (1) 
-17.370000000000001

>  <m_primary>  (1) 
energy

$$$$
1:0
     RDKit          3D

 43 46  0  0  0  0  0  0  0  0999 V2000
    0.0260   18.6240  -28.2630 C   0  0  0  0  0  0  0  0  0  0  0  0
    0.9950   18.9120  -29.2650 O   0  0  0  0  0  0  0  0  0  0  0  0
    0.6900   19.2030  -30.6030 C   0  0  0  0  0  0  0  0  0  0  0  0
    1.7300   19.1990  -31.5380 C   0  0  0  0  0  0  0  0  0  0  0  0
    1.4760   19.4760  -32.8830 C   0  0  0  0  0  0  0  0  0  0  0  0
    0.1770   19.7580  -33.3080 C   0  0  0  0  0  0  0  0  0  0  0  0
   -0.8820   19.7700  -32.3850 C   0  0  0  0  0  0  0  0  0  0  0  0
   -2.2650   20.0140  -32.8320 C   0  0  0  0  0  0  0  0  0  0  0  0
   -2.6620   21.0860  -33.5490 N   0  0  0  0  0  0  0  0  0  0  0  0
   -3.9460   20.9020  -33.8150 N   0  0  0  0  0  0  0  0  0  0  0  0
   -4.2790   19.7270  -33.2510 C   0  0  0  0  0  0  0  0  0  0  0  0
   -5.9000   18.9800  -33.3670 S   0  0  0  0  0  0  0  0  0  0  0  0
   -6.4030   19.4360  -31.6680 C   0  0  0  0  0  0  0  0  0  0  0  0
   -6.8210   20.8920  -31.6030 C   0  0  0  0  0  0  0  0  0  0  0  0
   -8.1420   21.1980  -31.9590 C   0  0  0  0  0  0  0  0  0  0  0  0
   -8.5660   22.5260  -31.9750 C   0  0  0  0  0  0  0  0  0  0  0  0
   -9.7530   22.8030  -32.2880 O   0  0  0  0  0  0  0  0  0  0  0  0
   -7.7240   23.5040  -31.6710 O   0  0  0  0  0  0  0  0  0  0  0  0
   -6.4580   23.2830  -31.3330 C   0  0  0  0  0  0  0  0  0  0  0  0
   -5.6350   24.3740  -31.0460 C   0  0  0  0  0  0  0  0  0  0  0  0
   -4.2950   24.1830  -30.7130 C   0  0  0  0  0  0  0  0  0  0  0  0
   -3.4930   25.2880  -30.4500 O   0  0  0  0  0  0  0  0  0  0  0  0
   -3.7630   22.8850  -30.6510 C   0  0  0  0  0  0  0  0  0  0  0  0
   -2.3180   22.6770  -30.2940 C   0  0  0  0  0  0  0  0  0  0  0  0
   -4.5940   21.7810  -30.9020 C   0  0  0  0  0  0  0  0  0  0  0  0
   -5.9450   21.9620  -31.2720 C   0  0  0  0  0  0  0  0  0  0  0  0
   -3.2610   19.1830  -32.6360 O   0  0  0  0  0  0  0  0  0  0  0  0
   -0.6190   19.4930  -31.0330 C   0  0  0  0  0  0  0  0  0  0  0  0
    0.4762   18.7578  -27.2683 H   0  0  0  0  0  0  0  0  0  0  0  0
   -0.8294   19.3067  -28.3732 H   0  0  0  0  0  0  0  0  0  0  0  0
   -0.3177   17.5849  -28.3732 H   0  0  0  0  0  0  0  0  0  0  0  0
    2.7564   18.9759  -31.2114 H   0  0  0  0  0  0  0  0  0  0  0  0
    2.3021   19.4719  -33.6094 H   0  0  0  0  0  0  0  0  0  0  0  0
   -0.0183   19.9716  -34.3692 H   0  0  0  0  0  0  0  0  0  0  0  0
   -7.2490   18.8038  -31.3604 H   0  0  0  0  0  0  0  0  0  0  0  0
   -5.5469   19.2844  -30.9941 H   0  0  0  0  0  0  0  0  0  0  0  0
   -8.8421   20.3924  -32.2250 H   0  0  0  0  0  0  0  0  0  0  0  0
   -6.0477   25.3930  -31.0830 H   0  0  0  0  0  0  0  0  0  0  0  0
   -2.2093   22.6614  -29.1995 H   0  0  0  0  0  0  0  0  0  0  0  0
   -1.9715   21.7197  -30.7106 H   0  0  0  0  0  0  0  0  0  0  0  0
   -1.7156   23.4977  -30.7106 H   0  0  0  0  0  0  0  0  0  0  0  0
   -4.1878   20.7630  -30.8093 H   0  0  0  0  0  0  0  0  0  0  0  0
   -1.4428   19.5028  -30.3041 H   0  0  0  0  0  0  0  0  0  0  0  0
  1  2  1  0
  2  3  1  0
  3  4  2  0
  4  5  1  0
  5  6  2  0
  6  7  1  0
  7  8  1  0
  8  9  2  0
  9 10  1  0
 10 11  2  0
 11 12  1  0
 12 13  1  0
 13 14  1  0
 14 15  2  0
 15 16  1  0
 16 17  2  0
 16 18  1  0
 18 19  1  0
 19 20  2  0
 20 21  1  0
 21 22  1  0
 21 23  2  0
 23 24  1  0
 23 25  1  0
 25 26  2  0
 11 27  1  0
  7 28  2  0
 28  3  1  0
 27  8  1  0
 26 14  1  0
 26 19  1  0
  1 29  1  0
  1 30  1  0
  1 31  1  0
  4 32  1  0
  5 33  1  0
  6 34  1  0
 13 35  1  0
 13 36  1  0
 15 37  1  0
 20 38  1  0
 24 39  1  0
 24 40  1  0
 24 41  1  0
 25 42  1  0
 28 43  1  0
M  CHG  1  22  -1
M  END
>  <UniqueID>  (2) 
2

>  <SMILES>  (2) 
COc1cccc(-c2nnc(SCc3cc(=O)oc4cc([O-])c(C)cc34)o2)c1

>  <Energy>  (2) 
79.77985403789882

>  <Genealogy>  (2) 
COc1cccc(-c2nnc(SCc3cc(=O)oc4cc([O-])c(C)cc34)o2)c1 (protonated)
COc1cccc(-c2nnc(SCc3cc(=O)oc4cc([O-])c(C)cc34)o2)c1 (3D coordinates assigned)
COc1cccc(-c2nnc(SCc3cc(=O)oc4cc([O-])c(C)cc34)o2)c1 (optimized conformer: 79.77985403789882 kcal/mol)

>  <smiles>  (2) 
COc1cccc(-c2nnc(SCc3cc(=O)oc4cc(O)c(C)cc34)o2)c1

>  <score_type>  (2) 
oracle

>  <origin>  (2) 
adgpu

>  <m_score__min__energy>  (2) 
-11.460000000000001

>  <m_primary>  (2) 
energy

$$$$
2:0
     RDKit          3D

 47 50  0  0  0  0  0  0  0  0999 V2000
    0.6950   23.2160  -27.2140 O   0  0  0  0  0  0  0  0  0  0  0  0
   -0.2820   23.9950  -27.0550 C   0  0  0  0  0  0  0  0  0  0  0  0
   -0.3000   24.9050  -25.8940 C   0  0  0  0  0  0  0  0  0  0  0  0
   -0.0420   24.5400  -24.5870 C   0  0  0  0  0  0  0  0  0  0  0  0
   -0.1610   25.6910  -23.8340 C   0  0  0  0  0  0  0  0  0  0  0  0
   -0.4740   26.7080  -24.7140 C   0  0  0  0  0  0  0  0  0  0  0  0
   -0.5520   26.2270  -25.9670 N   0  0  0  0  0  0  0  0  0  0  0  0
   -1.3910   23.9730  -28.0280 C   0  0  0  0  0  0  0  0  0  0  0  0
   -1.8070   25.0180  -28.8320 C   0  0  0  0  0  0  0  0  0  0  0  0
   -1.3060   26.3170  -28.8590 O   0  0  0  0  0  0  0  0  0  0  0  0
   -2.8290   24.5400  -29.6150 C   0  0  0  0  0  0  0  0  0  0  0  0
   -3.4960   25.2760  -30.5880 O   0  0  0  0  0  0  0  0  0  0  0  0
   -3.0830   23.2450  -29.3310 N   0  0  0  0  0  0  0  0  0  0  0  0
   -4.0450   22.3880  -30.0370 C   0  0  0  0  0  0  0  0  0  0  0  0
   -5.4150   23.0690  -30.1760 C   0  0  0  0  0  0  0  0  0  0  0  0
   -6.4040   22.1980  -30.9030 C   0  0  0  0  0  0  0  0  0  0  0  0
   -5.9850   21.3860  -31.9720 C   0  0  0  0  0  0  0  0  0  0  0  0
   -6.9130   20.6120  -32.6740 C   0  0  0  0  0  0  0  0  0  0  0  0
   -8.2630   20.6370  -32.3130 C   0  0  0  0  0  0  0  0  0  0  0  0
   -8.6880   21.4400  -31.2510 C   0  0  0  0  0  0  0  0  0  0  0  0
   -7.7640   22.2210  -30.5490 C   0  0  0  0  0  0  0  0  0  0  0  0
   -2.1930   22.8830  -28.3700 C   0  0  0  0  0  0  0  0  0  0  0  0
   -1.9780   21.4990  -27.9000 C   0  0  0  0  0  0  0  0  0  0  0  0
   -0.7160   20.9000  -28.0370 C   0  0  0  0  0  0  0  0  0  0  0  0
   -0.4960   19.6020  -27.5640 C   0  0  0  0  0  0  0  0  0  0  0  0
   -1.5340   18.8990  -26.9460 C   0  0  0  0  0  0  0  0  0  0  0  0
   -2.7900   19.4930  -26.7990 C   0  0  0  0  0  0  0  0  0  0  0  0
   -3.0110   20.7890  -27.2710 C   0  0  0  0  0  0  0  0  0  0  0  0
    0.2082   23.5338  -24.2197 H   0  0  0  0  0  0  0  0  0  0  0  0
   -0.0317   25.7805  -22.7453 H   0  0  0  0  0  0  0  0  0  0  0  0
   -0.6359   27.7586  -24.4311 H   0  0  0  0  0  0  0  0  0  0  0  0
   -0.7510   26.7850  -26.8270 H   0  0  0  0  0  0  0  0  0  0  0  0
   -1.2380   26.8410  -29.7230 H   0  0  0  0  0  0  0  0  0  0  0  0
   -3.6542   22.1645  -31.0407 H   0  0  0  0  0  0  0  0  0  0  0  0
   -4.1775   21.4659  -29.4521 H   0  0  0  0  0  0  0  0  0  0  0  0
   -5.8061   23.2892  -29.1717 H   0  0  0  0  0  0  0  0  0  0  0  0
   -5.2794   23.9912  -30.7600 H   0  0  0  0  0  0  0  0  0  0  0  0
   -4.9228   21.3600  -32.2567 H   0  0  0  0  0  0  0  0  0  0  0  0
   -6.5804   19.9820  -33.5121 H   0  0  0  0  0  0  0  0  0  0  0  0
   -8.9912   20.0245  -32.8649 H   0  0  0  0  0  0  0  0  0  0  0  0
   -9.7505   21.4579  -30.9668 H   0  0  0  0  0  0  0  0  0  0  0  0
   -8.1030   22.8555  -29.7168 H   0  0  0  0  0  0  0  0  0  0  0  0
    0.1036   21.4537  -28.5184 H   0  0  0  0  0  0  0  0  0  0  0  0
    0.4933   19.1349  -27.6784 H   0  0  0  0  0  0  0  0  0  0  0  0
   -1.3620   17.8777  -26.5753 H   0  0  0  0  0  0  0  0  0  0  0  0
   -3.6058   18.9395  -26.3110 H   0  0  0  0  0  0  0  0  0  0  0  0
   -3.9999   21.2549  -27.1488 H   0  0  0  0  0  0  0  0  0  0  0  0
  1  2  2  0
  2  3  1  0
  3  4  2  0
  4  5  1  0
  5  6  2  0
  6  7  1  0
  2  8  1  0
  8  9  1  0
  9 10  1  0
  9 11  2  0
 11 12  1  0
 11 13  1  0
 13 14  1  0
 14 15  1  0
 15 16  1  0
 16 17  2  0
 17 18  1  0
 18 19  2  0
 19 20  1  0
 20 21  2  0
 13 22  1  0
 22 23  1  0
 23 24  2  0
 24 25  1  0
 25 26  2  0
 26 27  1  0
 27 28  2  0
  7  3  1  0
 22  8  2  0
 28 23  1  0
 21 16  1  0
  4 29  1  0
  5 30  1  0
  6 31  1  0
  7 32  1  0
 10 33  1  0
 14 34  1  0
 14 35  1  0
 15 36  1  0
 15 37  1  0
 17 38  1  0
 18 39  1  0
 19 40  1  0
 20 41  1  0
 21 42  1  0
 24 43  1  0
 25 44  1  0
 26 45  1  0
 27 46  1  0
 28 47  1  0
M  CHG  1  12  -1
M  END
>  <UniqueID>  (3) 
3

>  <SMILES>  (3) 
O=C(c1ccc[nH]1)c1c(O)c([O-])n(CCc2ccccc2)c1-c1ccccc1

>  <Energy>  (3) 
109.30479092110377

>  <Genealogy>  (3) 
O=C(c1ccc[nH]1)c1c(O)c([O-])n(CCc2ccccc2)c1-c1ccccc1 (protonated)
O=C(c1ccc[nH]1)c1c(O)c([O-])n(CCc2ccccc2)c1-c1ccccc1 (3D coordinates assigned)
O=C(c1ccc[nH]1)c1c(O)c([O-])n(CCc2ccccc2)c1-c1ccccc1 (optimized conformer: 109.30479092110377 kcal/mol)

>  <smiles>  (3) 
O=C(c1ccc[nH]1)c1c(O)c(O)n(CCc2ccccc2)c1-c1ccccc1

>  <score_type>  (3) 
oracle

>  <origin>  (3) 
adgpu

>  <m_score__min__energy>  (3) 
-12.32

>  <m_primary>  (3) 
energy

$$$$
3:0
     RDKit          3D

 54 57  0  0  0  0  0  0  0  0999 V2000
    0.4630   28.4750  -26.3230 N   0  0  0  0  0  0  0  0  0  0  0  0
   -0.5520   27.6830  -25.7070 C   0  0  0  0  0  0  0  0  0  0  0  0
   -0.8680   27.9160  -24.5100 O   0  0  0  0  0  0  0  0  0  0  0  0
   -1.2280   26.6040  -26.4640 C   0  0  0  0  0  0  0  0  0  0  0  0
   -0.8120   26.2680  -27.7640 C   0  0  0  0  0  0  0  0  0  0  0  0
   -1.4570   25.2530  -28.4760 C   0  0  0  0  0  0  0  0  0  0  0  0
   -2.5180   24.5410  -27.9000 C   0  0  0  0  0  0  0  0  0  0  0  0
   -3.1800   23.5170  -28.6620 N   0  0  0  0  0  0  0  0  0  0  0  0
   -3.5750   23.6790  -30.0340 C   0  0  0  0  0  0  0  0  0  0  0  0
   -3.7930   24.8360  -30.4870 O   0  0  0  0  0  0  0  0  0  0  0  0
   -3.7720   22.5010  -30.9130 C   0  0  0  0  0  0  0  0  0  0  0  0
   -3.5790   21.1950  -30.4290 C   0  0  0  0  0  0  0  0  0  0  0  0
   -3.7430   20.0930  -31.2720 C   0  0  0  0  0  0  0  0  0  0  0  0
   -4.1020   20.2710  -32.6160 C   0  0  0  0  0  0  0  0  0  0  0  0
   -4.2230   19.1340  -33.4920 N   0  0  0  0  0  0  0  0  0  0  0  0
   -3.0320   18.4780  -34.0480 C   0  0  0  0  0  0  0  0  0  0  0  0
   -1.7880   19.2770  -33.7470 C   0  0  0  0  0  0  0  0  0  0  0  0
   -1.4890   20.4130  -34.5180 C   0  0  0  0  0  0  0  0  0  0  0  0
   -0.3260   21.1480  -34.2740 C   0  0  0  0  0  0  0  0  0  0  0  0
    0.5480   20.7560  -33.2580 C   0  0  0  0  0  0  0  0  0  0  0  0
    0.2610   19.6290  -32.4840 C   0  0  0  0  0  0  0  0  0  0  0  0
   -0.9020   18.8890  -32.7240 C   0  0  0  0  0  0  0  0  0  0  0  0
   -1.1550   17.7960  -31.9600 F   0  0  0  0  0  0  0  0  0  0  0  0
   -5.7960   18.5380  -33.9360 S   0  0  0  0  0  0  0  0  0  0  0  0
   -6.1130   18.9250  -35.3540 O   0  0  0  0  0  0  0  0  0  0  0  0
   -5.8130   17.0380  -33.8440 O   0  0  0  0  0  0  0  0  0  0  0  0
   -7.0130   19.2030  -32.8630 C   0  0  0  0  0  0  0  0  0  0  0  0
   -7.8340   18.4700  -32.0190 C   0  0  0  0  0  0  0  0  0  0  0  0
   -8.6970   19.2730  -31.2650 C   0  0  0  0  0  0  0  0  0  0  0  0
   -8.5570   20.6320  -31.5180 C   0  0  0  0  0  0  0  0  0  0  0  0
   -7.3540   20.8370  -32.6780 S   0  0  0  0  0  0  0  0  0  0  0  0
   -4.2930   21.5730  -33.1040 C   0  0  0  0  0  0  0  0  0  0  0  0
   -4.1270   22.6770  -32.2630 C   0  0  0  0  0  0  0  0  0  0  0  0
   -2.9470   24.8840  -26.6070 C   0  0  0  0  0  0  0  0  0  0  0  0
   -2.3060   25.9010  -25.8950 C   0  0  0  0  0  0  0  0  0  0  0  0
    1.0740   28.0780  -27.0720 H   0  0  0  0  0  0  0  0  0  0  0  0
    0.0281   26.8084  -28.2247 H   0  0  0  0  0  0  0  0  0  0  0  0
   -1.1290   25.0107  -29.4976 H   0  0  0  0  0  0  0  0  0  0  0  0
   -3.4900   22.6540  -28.1600 H   0  0  0  0  0  0  0  0  0  0  0  0
   -3.2964   21.0396  -29.3773 H   0  0  0  0  0  0  0  0  0  0  0  0
   -3.5893   19.0774  -30.8783 H   0  0  0  0  0  0  0  0  0  0  0  0
   -2.9327   17.4761  -33.6049 H   0  0  0  0  0  0  0  0  0  0  0  0
   -3.1478   18.4053  -35.1395 H   0  0  0  0  0  0  0  0  0  0  0  0
   -2.1750   20.7258  -35.3190 H   0  0  0  0  0  0  0  0  0  0  0  0
   -0.0988   22.0358  -34.8825 H   0  0  0  0  0  0  0  0  0  0  0  0
    1.4634   21.3352  -33.0669 H   0  0  0  0  0  0  0  0  0  0  0  0
    0.9510   19.3226  -31.6840 H   0  0  0  0  0  0  0  0  0  0  0  0
   -7.8093   17.3725  -31.9496 H   0  0  0  0  0  0  0  0  0  0  0  0
   -9.4181   18.8667  -30.5405 H   0  0  0  0  0  0  0  0  0  0  0  0
   -9.1344   21.4377  -31.0411 H   0  0  0  0  0  0  0  0  0  0  0  0
   -4.5754   21.7257  -34.1561 H   0  0  0  0  0  0  0  0  0  0  0  0
   -4.2752   23.6921  -32.6600 H   0  0  0  0  0  0  0  0  0  0  0  0
   -3.7932   24.3483  -26.1521 H   0  0  0  0  0  0  0  0  0  0  0  0
   -2.6471   26.1544  -24.8804 H   0  0  0  0  0  0  0  0  0  0  0  0
  1  2  1  0
  2  3  2  0
  2  4  1  0
  4  5  2  0
  5  6  1  0
  6  7  2  0
  7  8  1  0
  8  9  1  0
  9 10  2  0
  9 11  1  0
 11 12  2  0
 12 13  1  0
 13 14  2  0
 14 15  1  0
 15 16  1  0
 16 17  1  0
 17 18  2  0
 18 19  1  0
 19 20  2  0
 20 21  1  0
 21 22  2  0
 22 23  1  0
 15 24  1  0
 24 25  2  0
 24 26  2  0
 24 27  1  0
 27 28  2  0
 28 29  1  0
 29 30  2  0
 30 31  1  0
 14 32  1  0
 32 33  2  0
  7 34  1  0
 34 35  2  0
 35  4  1  0
 33 11  1  0
 22 17  1  0
 31 27  1  0
  1 36  1  0
  5 37  1  0
  6 38  1  0
  8 39  1  0
 12 40  1  0
 13 41  1  0
 16 42  1  0
 16 43  1  0
 18 44  1  0
 19 45  1  0
 20 46  1  0
 21 47  1  0
 28 48  1  0
 29 49  1  0
 30 50  1  0
 32 51  1  0
 33 52  1  0
 34 53  1  0
 35 54  1  0
M  CHG  1   1  -1
M  END
>  <UniqueID>  (4) 
4

>  <SMILES>  (4) 
[NH-]C(=O)c1ccc(NC(=O)c2ccc(N(Cc3ccccc3F)S(=O)(=O)c3cccs3)cc2)cc1

>  <Energy>  (4) 
93.86131828296034

>  <Genealogy>  (4) 
[NH-]C(=O)c1ccc(NC(=O)c2ccc(N(Cc3ccccc3F)S(=O)(=O)c3cccs3)cc2)cc1 (protonated)
[NH-]C(=O)c1ccc(NC(=O)c2ccc(N(Cc3ccccc3F)S(=O)(=O)c3cccs3)cc2)cc1 (3D coordinates assigned)
[NH-]C(=O)c1ccc(NC(=O)c2ccc(N(Cc3ccccc3F)S(=O)(=O)c3cccs3)cc2)cc1 (optimized conformer: 93.86131828296034 kcal/mol)

>  <smiles>  (4) 
NC(=O)c1ccc(NC(=O)c2ccc(N(Cc3ccccc3F)S(=O)(=O)c3cccs3)cc2)cc1

>  <score_type>  (4) 
oracle

>  <origin>  (4) 
adgpu

>  <m_score__min__energy>  (4) 
-10.25

>  <m_primary>  (4) 
energy

$$$$
4:0
     RDKit          3D

 30 31  0  0  0  0  0  0  0  0999 V2000
   -1.4770   20.1700  -28.5980 H   0  0  0  0  0  0  0  0  0  0  0  0
   -2.0510   20.7920  -29.1560 O   0  0  0  0  0  0  0  0  0  0  0  0
   -1.8730   22.1740  -29.1280 C   0  0  0  0  0  0  0  0  0  0  0  0
   -0.7340   22.7130  -28.5140 C   0  0  0  0  0  0  0  0  0  0  0  0
   -0.0004   22.0438  -28.0406 H   0  0  0  0  0  0  0  0  0  0  0  0
   -0.5240   24.0930  -28.4990 C   0  0  0  0  0  0  0  0  0  0  0  0
    0.6080   24.6160  -27.8870 O   0  0  0  0  0  0  0  0  0  0  0  0
   -1.4490   24.9450  -29.1020 C   0  0  0  0  0  0  0  0  0  0  0  0
   -1.2777   26.0316  -29.0961 H   0  0  0  0  0  0  0  0  0  0  0  0
   -2.5930   24.4240  -29.7140 C   0  0  0  0  0  0  0  0  0  0  0  0
   -3.4920   25.2970  -30.3180 O   0  0  0  0  0  0  0  0  0  0  0  0
   -2.8300   23.0330  -29.7160 C   0  0  0  0  0  0  0  0  0  0  0  0
   -4.0890   22.4770  -30.3500 C   0  0  0  0  0  0  0  0  0  0  0  0
   -4.3982   21.5774  -29.7976 H   0  0  0  0  0  0  0  0  0  0  0  0
   -4.8655   23.2549  -30.3063 H   0  0  0  0  0  0  0  0  0  0  0  0
   -3.8740   22.1110  -31.7970 C   0  0  0  0  0  0  0  0  0  0  0  0
   -2.8378   22.0508  -32.1613 H   0  0  0  0  0  0  0  0  0  0  0  0
   -4.8580   21.8540  -32.6700 C   0  0  0  0  0  0  0  0  0  0  0  0
   -4.5830   21.6476  -33.7149 H   0  0  0  0  0  0  0  0  0  0  0  0
   -6.2860   21.8320  -32.3110 C   0  0  0  0  0  0  0  0  0  0  0  0
   -7.0030   20.6260  -32.2940 C   0  0  0  0  0  0  0  0  0  0  0  0
   -6.4957   19.6818  -32.5411 H   0  0  0  0  0  0  0  0  0  0  0  0
   -8.3630   20.6230  -31.9630 C   0  0  0  0  0  0  0  0  0  0  0  0
   -8.9222   19.6759  -31.9444 H   0  0  0  0  0  0  0  0  0  0  0  0
   -9.0110   21.8230  -31.6560 C   0  0  0  0  0  0  0  0  0  0  0  0
  -10.0773   21.8186  -31.3860 H   0  0  0  0  0  0  0  0  0  0  0  0
   -8.3040   23.0290  -31.6920 C   0  0  0  0  0  0  0  0  0  0  0  0
   -8.8163   23.9730  -31.4546 H   0  0  0  0  0  0  0  0  0  0  0  0
   -6.9480   23.0370  -32.0290 C   0  0  0  0  0  0  0  0  0  0  0  0
   -6.3986   23.9890  -32.0733 H   0  0  0  0  0  0  0  0  0  0  0  0
  1  2  1  0
  2  3  1  0
  3  4  2  0
  4  5  1  0
  4  6  1  0
  6  7  1  0
  6  8  2  0
  8  9  1  0
  8 10  1  0
 10 11  1  0
 10 12  2  0
 12 13  1  0
 13 14  1  0
 13 15  1  0
 13 16  1  0
 16 17  1  0
 16 18  2  0
 18 19  1  0
 18 20  1  0
 20 21  2  0
 21 22  1  0
 21 23  1  0
 23 24  1  0
 23 25  2  0
 25 26  1  0
 25 27  1  0
 27 28  1  0
 27 29  2  0
 29 30  1  0
 12  3  1  0
 29 20  1  0
M  CHG  2   7  -1  11  -1
M  END
>  <UniqueID>  (5) 
5

>  <SMILES>  (5) 
[O-]c1cc([O-])c(C/C=C\c2ccccc2)c(O)c1

>  <Energy>  (5) 
35.531903688617

>  <Genealogy>  (5) 
[O-]c1cc([O-])c(CC=Cc2ccccc2)c(O)c1 (protonated)
[O-]c1cc([O-])c(C/C=C\c2ccccc2)c(O)c1 (cis-trans isomerization)
[O-]c1cc([O-])c(C/C=C\c2ccccc2)c(O)c1 (3D coordinates assigned)
[O-]c1cc([O-])c(C/C=C\c2ccccc2)c(O)c1 (optimized conformer: 35.531903688617 kcal/mol)

>  <smiles>  (5) 
Oc1cc(O)c(CC=Cc2ccccc2)c(O)c1

>  <score_type>  (5) 
oracle

>  <origin>  (5) 
adgpu

>  <m_score__min__energy>  (5) 
-10

>  <m_primary>  (5) 
energy

$$$$
5:0
     RDKit          3D

 45 47  0  0  0  0  0  0  0  0999 V2000
   -3.1110   18.6760  -25.8860 C   0  0  0  0  0  0  0  0  0  0  0  0
   -2.6470   18.7940  -27.2260 O   0  0  0  0  0  0  0  0  0  0  0  0
   -1.2930   18.8220  -27.6020 C   0  0  0  0  0  0  0  0  0  0  0  0
   -0.3790   17.8490  -27.1490 C   0  0  0  0  0  0  0  0  0  0  0  0
    0.9540   17.8810  -27.5650 C   0  0  0  0  0  0  0  0  0  0  0  0
    1.3920   18.8790  -28.4360 C   0  0  0  0  0  0  0  0  0  0  0  0
    0.5000   19.8520  -28.8890 C   0  0  0  0  0  0  0  0  0  0  0  0
   -0.8430   19.8400  -28.4730 C   0  0  0  0  0  0  0  0  0  0  0  0
   -1.7650   20.8930  -28.9620 C   0  0  0  0  0  0  0  0  0  0  0  0
   -2.7710   21.4000  -28.1210 C   0  0  0  0  0  0  0  0  0  0  0  0
   -3.6410   22.3930  -28.5790 C   0  0  0  0  0  0  0  0  0  0  0  0
   -3.5190   22.8910  -29.8830 C   0  0  0  0  0  0  0  0  0  0  0  0
   -4.6000   24.1640  -30.4390 S   0  0  0  0  0  0  0  0  0  0  0  0
   -5.5490   24.5740  -29.3480 O   0  0  0  0  0  0  0  0  0  0  0  0
   -3.7790   25.3540  -30.8470 O   0  0  0  0  0  0  0  0  0  0  0  0
   -5.5100   23.6060  -31.8040 N   0  0  0  0  0  0  0  0  0  0  0  0
   -5.5290   22.2560  -32.2950 C   0  0  0  0  0  0  0  0  0  0  0  0
   -4.4230   21.7060  -32.9690 C   0  0  0  0  0  0  0  0  0  0  0  0
   -4.4680   20.3980  -33.4550 C   0  0  0  0  0  0  0  0  0  0  0  0
   -5.6150   19.6240  -33.2740 C   0  0  0  0  0  0  0  0  0  0  0  0
   -6.7180   20.1550  -32.6040 C   0  0  0  0  0  0  0  0  0  0  0  0
   -6.6830   21.4670  -32.1040 C   0  0  0  0  0  0  0  0  0  0  0  0
   -8.1060   22.1260  -31.2870 S   0  0  0  0  0  0  0  0  0  0  0  0
   -7.6120   23.2600  -30.0790 N   0  0  0  0  0  0  0  0  0  0  0  0
   -8.8840   21.0100  -30.6470 O   0  0  0  0  0  0  0  0  0  0  0  0
   -8.9960   22.8230  -32.2770 O   0  0  0  0  0  0  0  0  0  0  0  0
   -2.5290   22.3790  -30.7300 C   0  0  0  0  0  0  0  0  0  0  0  0
   -1.6590   21.3850  -30.2750 C   0  0  0  0  0  0  0  0  0  0  0  0
   -2.2841   18.8863  -25.1918 H   0  0  0  0  0  0  0  0  0  0  0  0
   -3.9252   19.3957  -25.7152 H   0  0  0  0  0  0  0  0  0  0  0  0
   -3.4825   17.6548  -25.7152 H   0  0  0  0  0  0  0  0  0  0  0  0
   -0.7181   17.0588  -26.4629 H   0  0  0  0  0  0  0  0  0  0  0  0
    1.6598   17.1179  -27.2052 H   0  0  0  0  0  0  0  0  0  0  0  0
    2.4412   18.8989  -28.7659 H   0  0  0  0  0  0  0  0  0  0  0  0
    0.8506   20.6350  -29.5774 H   0  0  0  0  0  0  0  0  0  0  0  0
   -2.8739   21.0128  -27.0965 H   0  0  0  0  0  0  0  0  0  0  0  0
   -4.4243   22.7850  -27.9136 H   0  0  0  0  0  0  0  0  0  0  0  0
   -3.5160   22.3113  -33.1141 H   0  0  0  0  0  0  0  0  0  0  0  0
   -3.5985   19.9771  -33.9811 H   0  0  0  0  0  0  0  0  0  0  0  0
   -5.6497   18.5945  -33.6598 H   0  0  0  0  0  0  0  0  0  0  0  0
   -7.6209   19.5419  -32.4666 H   0  0  0  0  0  0  0  0  0  0  0  0
   -6.8050   22.8360  -29.5670 H   0  0  0  0  0  0  0  0  0  0  0  0
   -7.2440   24.0980  -30.5800 H   0  0  0  0  0  0  0  0  0  0  0  0
   -2.4357   22.7606  -31.7574 H   0  0  0  0  0  0  0  0  0  0  0  0
   -0.8864   20.9848  -30.9480 H   0  0  0  0  0  0  0  0  0  0  0  0
  1  2  1  0
  2  3  1  0
  3  4  2  0
  4  5  1  0
  5  6  2  0
  6  7  1  0
  7  8  2  0
  8  9  1  0
  9 10  2  0
 10 11  1  0
 11 12  2  0
 12 13  1  0
 13 14  2  0
 13 15  2  0
 13 16  1  0
 16 17  1  0
 17 18  2  0
 18 19  1  0
 19 20  2  0
 20 21  1  0
 21 22  2  0
 22 23  1  0
 23 24  1  0
 23 25  2  0
 23 26  2  0
 12 27  1  0
 27 28  2  0
  8  3  1  0
 28  9  1  0
 22 17  1  0
  1 29  1  0
  1 30  1  0
  1 31  1  0
  4 32  1  0
  5 33  1  0
  6 34  1  0
  7 35  1  0
 10 36  1  0
 11 37  1  0
 18 38  1  0
 19 39  1  0
 20 40  1  0
 21 41  1  0
 24 42  1  0
 24 43  1  0
 27 44  1  0
 28 45  1  0
M  CHG  1  16  -1
M  END
>  <UniqueID>  (6) 
6

>  <SMILES>  (6) 
COc1ccccc1-c1ccc(S(=O)(=O)[N-]c2ccccc2S(N)(=O)=O)cc1

>  <Energy>  (6) 
55.621966076180655

>  <Genealogy>  (6) 
COc1ccccc1-c1ccc(S(=O)(=O)[N-]c2ccccc2S(N)(=O)=O)cc1 (protonated)
COc1ccccc1-c1ccc(S(=O)(=O)[N-]c2ccccc2S(N)(=O)=O)cc1 (3D coordinates assigned)
COc1ccccc1-c1ccc(S(=O)(=O)[N-]c2ccccc2S(N)(=O)=O)cc1 (optimized conformer: 55.621966076180655 kcal/mol)

>  <smiles>  (6) 
COc1ccccc1-c1ccc(S(=O)(=O)Nc2ccccc2S(N)(=O)=O)cc1

>  <score_type>  (6) 
oracle

>  <origin>  (6) 
adgpu

>  <m_score__min__energy>  (6) 
-10.16

>  <m_primary>  (6) 
energy

$$$$
6:0
     RDKit          3D

 45 48  0  0  0  0  0  0  0  0999 V2000
   -9.0950   19.4660  -32.0550 C   0  0  0  0  0  0  0  0  0  0  0  0
   -8.8940   20.7880  -32.5450 O   0  0  0  0  0  0  0  0  0  0  0  0
   -8.2080   21.7940  -31.8490 C   0  0  0  0  0  0  0  0  0  0  0  0
   -8.1650   21.7250  -30.4520 C   0  0  0  0  0  0  0  0  0  0  0  0
   -7.4740   22.6900  -29.7130 C   0  0  0  0  0  0  0  0  0  0  0  0
   -6.8220   23.7480  -30.3650 C   0  0  0  0  0  0  0  0  0  0  0  0
   -6.0830   24.7970  -29.5730 C   0  0  0  0  0  0  0  0  0  0  0  0
   -5.2550   25.7320  -30.4640 C   0  0  0  0  0  0  0  0  0  0  0  0
   -3.8540   25.3160  -30.5200 N   0  0  0  0  0  0  0  0  0  0  0  0
   -3.2950   24.1010  -29.9960 C   0  0  0  0  0  0  0  0  0  0  0  0
   -2.9710   24.0650  -28.7800 O   0  0  0  0  0  0  0  0  0  0  0  0
   -3.0880   22.8960  -30.8260 C   0  0  0  0  0  0  0  0  0  0  0  0
   -1.8690   22.2000  -30.8010 C   0  0  0  0  0  0  0  0  0  0  0  0
   -1.6740   21.0910  -31.6280 C   0  0  0  0  0  0  0  0  0  0  0  0
   -2.7050   20.6470  -32.4610 C   0  0  0  0  0  0  0  0  0  0  0  0
   -3.9620   21.2710  -32.4130 C   0  0  0  0  0  0  0  0  0  0  0  0
   -4.1440   22.3990  -31.6070 C   0  0  0  0  0  0  0  0  0  0  0  0
   -5.0570   20.7520  -33.1130 O   0  0  0  0  0  0  0  0  0  0  0  0
   -5.1250   19.4130  -33.5170 C   0  0  0  0  0  0  0  0  0  0  0  0
   -6.3800   18.8240  -33.7110 C   0  0  0  0  0  0  0  0  0  0  0  0
   -6.4800   17.4560  -33.9780 C   0  0  0  0  0  0  0  0  0  0  0  0
   -5.3250   16.6720  -34.0590 C   0  0  0  0  0  0  0  0  0  0  0  0
   -4.0670   17.2620  -33.9050 C   0  0  0  0  0  0  0  0  0  0  0  0
   -3.9620   18.6350  -33.6580 C   0  0  0  0  0  0  0  0  0  0  0  0
   -2.3520   19.4220  -33.7230 S   0  0  0  0  0  0  0  0  0  0  0  0
   -6.8760   23.8290  -31.7660 C   0  0  0  0  0  0  0  0  0  0  0  0
   -7.5600   22.8580  -32.5040 C   0  0  0  0  0  0  0  0  0  0  0  0
   -9.0931   19.4784  -30.9551 H   0  0  0  0  0  0  0  0  0  0  0  0
  -10.0615   19.0842  -32.4157 H   0  0  0  0  0  0  0  0  0  0  0  0
   -8.2856   18.8142  -32.4157 H   0  0  0  0  0  0  0  0  0  0  0  0
   -8.6794   20.9043  -29.9307 H   0  0  0  0  0  0  0  0  0  0  0  0
   -7.4412   22.6196  -28.6157 H   0  0  0  0  0  0  0  0  0  0  0  0
   -6.8156   25.3988  -29.0151 H   0  0  0  0  0  0  0  0  0  0  0  0
   -5.3877   24.2771  -28.8975 H   0  0  0  0  0  0  0  0  0  0  0  0
   -5.6728   25.7191  -31.4815 H   0  0  0  0  0  0  0  0  0  0  0  0
   -5.2979   26.7445  -30.0363 H   0  0  0  0  0  0  0  0  0  0  0  0
   -1.0641   22.5292  -30.1274 H   0  0  0  0  0  0  0  0  0  0  0  0
   -0.7073   20.5662  -31.6236 H   0  0  0  0  0  0  0  0  0  0  0  0
   -5.1224   22.9012  -31.5845 H   0  0  0  0  0  0  0  0  0  0  0  0
   -7.2898   19.4396  -33.6531 H   0  0  0  0  0  0  0  0  0  0  0  0
   -7.4682   16.9955  -34.1246 H   0  0  0  0  0  0  0  0  0  0  0  0
   -5.4063   15.5907  -34.2439 H   0  0  0  0  0  0  0  0  0  0  0  0
   -3.1586   16.6459  -33.9781 H   0  0  0  0  0  0  0  0  0  0  0  0
   -6.3776   24.6607  -32.2855 H   0  0  0  0  0  0  0  0  0  0  0  0
   -7.5918   22.9260  -33.6014 H   0  0  0  0  0  0  0  0  0  0  0  0
  1  2  1  0
  2  3  1  0
  3  4  2  0
  4  5  1  0
  5  6  2  0
  6  7  1  0
  7  8  1  0
  8  9  1  0
  9 10  1  0
 10 11  2  0
 10 12  1  0
 12 13  2  0
 13 14  1  0
 14 15  2  0
 15 16  1  0
 16 17  2  0
 16 18  1  0
 18 19  1  0
 19 20  2  0
 20 21  1  0
 21 22  2  0
 22 23  1  0
 23 24  2  0
 24 25  1  0
  6 26  1  0
 26 27  2  0
 27  3  1  0
 17 12  1  0
 24 19  1  0
 25 15  1  0
  1 28  1  0
  1 29  1  0
  1 30  1  0
  4 31  1  0
  5 32  1  0
  7 33  1  0
  7 34  1  0
  8 35  1  0
  8 36  1  0
 13 37  1  0
 14 38  1  0
 17 39  1  0
 20 40  1  0
 21 41  1  0
 22 42  1  0
 23 43  1  0
 26 44  1  0
 27 45  1  0
M  CHG  1   9  -1
M  END
>  <UniqueID>  (7) 
7

>  <SMILES>  (7) 
COc1ccc(CC[N-]C(=O)c2ccc3c(c2)Oc2ccccc2S3)cc1

>  <Energy>  (7) 
61.95977844186442

>  <Genealogy>  (7) 
COc1ccc(CC[N-]C(=O)c2ccc3c(c2)Oc2ccccc2S3)cc1 (protonated)
COc1ccc(CC[N-]C(=O)c2ccc3c(c2)Oc2ccccc2S3)cc1 (3D coordinates assigned)
COc1ccc(CC[N-]C(=O)c2ccc3c(c2)Oc2ccccc2S3)cc1 (nonaromatic ring conformer: 61.95977844186442 kcal/mol)

>  <smiles>  (7) 
COc1ccc(CCNC(=O)c2ccc3c(c2)Oc2ccccc2S3)cc1

>  <score_type>  (7) 
oracle

>  <origin>  (7) 
adgpu

>  <m_score__min__energy>  (7) 
-10.75

>  <m_primary>  (7) 
energy

$$$$
7:0
     RDKit          3D

 52 55  0  0  0  0  0  0  0  0999 V2000
   -7.6000   17.5860  -32.7390 C   0  0  0  0  0  0  0  0  0  0  0  0
   -7.7730   19.0360  -32.4290 C   0  0  0  0  0  0  0  0  0  0  0  0
   -9.0190   19.6530  -32.3730 C   0  0  0  0  0  0  0  0  0  0  0  0
   -8.7720   21.2570  -31.9380 S   0  0  0  0  0  0  0  0  0  0  0  0
   -7.0970   21.1000  -31.8280 C   0  0  0  0  0  0  0  0  0  0  0  0
   -6.1460   22.1780  -31.4650 C   0  0  0  0  0  0  0  0  0  0  0  0
   -6.5440   23.5220  -31.5440 C   0  0  0  0  0  0  0  0  0  0  0  0
   -5.6540   24.5440  -31.2090 C   0  0  0  0  0  0  0  0  0  0  0  0
   -4.3580   24.2410  -30.7840 C   0  0  0  0  0  0  0  0  0  0  0  0
   -3.4900   25.2840  -30.4730 O   0  0  0  0  0  0  0  0  0  0  0  0
   -3.9430   22.8980  -30.6790 C   0  0  0  0  0  0  0  0  0  0  0  0
   -2.5340   22.5450  -30.2280 C   0  0  0  0  0  0  0  0  0  0  0  0
   -1.9500   23.4800  -29.2310 N   0  0  2  0  0  0  0  0  0  0  0  0
   -0.5370   23.1760  -28.9200 C   0  0  0  0  0  0  0  0  0  0  0  0
    0.1320   24.3620  -28.2010 C   0  0  0  0  0  0  0  0  0  0  0  0
   -0.8590   25.1340  -27.2780 C   0  0  2  0  0  0  0  0  0  0  0  0
   -0.2160   25.7980  -26.1150 N   0  0  0  0  0  0  0  0  0  0  0  0
   -0.5630   27.2150  -25.9030 C   0  0  0  0  0  0  0  0  0  0  0  0
   -1.0520   27.3630  -24.4710 C   0  0  0  0  0  0  0  0  0  0  0  0
   -0.5180   26.1440  -23.7570 C   0  0  0  0  0  0  0  0  0  0  0  0
   -0.4240   25.0900  -24.8430 C   0  0  0  0  0  0  0  0  0  0  0  0
   -2.0230   24.2370  -26.8140 C   0  0  0  0  0  0  0  0  0  0  0  0
   -2.7740   23.5850  -27.9980 C   0  0  0  0  0  0  0  0  0  0  0  0
   -4.8400   21.8780  -31.0420 C   0  0  0  0  0  0  0  0  0  0  0  0
   -6.7150   19.8350  -32.1180 N   0  0  0  0  0  0  0  0  0  0  0  0
   -7.5320   17.0160  -31.8007 H   0  0  0  0  0  0  0  0  0  0  0  0
   -8.4621   17.2304  -33.3224 H   0  0  0  0  0  0  0  0  0  0  0  0
   -6.6784   17.4432  -33.3224 H   0  0  0  0  0  0  0  0  0  0  0  0
   -9.9896   19.1770  -32.5766 H   0  0  0  0  0  0  0  0  0  0  0  0
   -7.5639   23.7714  -31.8720 H   0  0  0  0  0  0  0  0  0  0  0  0
   -5.9749   25.5938  -31.2800 H   0  0  0  0  0  0  0  0  0  0  0  0
   -2.5584   21.5397  -29.7822 H   0  0  0  0  0  0  0  0  0  0  0  0
   -1.8965   22.6055  -31.1224 H   0  0  0  0  0  0  0  0  0  0  0  0
   -1.9700   24.4210  -29.6960 H   0  0  0  0  0  0  0  0  0  0  0  0
   -0.4934   22.2894  -28.2704 H   0  0  0  0  0  0  0  0  0  0  0  0
   -0.0014   22.9872  -29.8620 H   0  0  0  0  0  0  0  0  0  0  0  0
    0.9616   23.9806  -27.5876 H   0  0  0  0  0  0  0  0  0  0  0  0
    0.4881   25.0627  -28.9706 H   0  0  0  0  0  0  0  0  0  0  0  0
   -1.2602   25.9415  -27.9081 H   0  0  0  0  0  0  0  0  0  0  0  0
    0.3239   27.8457  -26.0629 H   0  0  0  0  0  0  0  0  0  0  0  0
   -1.3439   27.5300  -26.6108 H   0  0  0  0  0  0  0  0  0  0  0  0
   -0.6544   28.2833  -24.0182 H   0  0  0  0  0  0  0  0  0  0  0  0
   -2.1480   27.4348  -24.4102 H   0  0  0  0  0  0  0  0  0  0  0  0
    0.4725   26.3478  -23.3241 H   0  0  0  0  0  0  0  0  0  0  0  0
   -1.1590   25.8310  -22.9196 H   0  0  0  0  0  0  0  0  0  0  0  0
    0.4225   24.4165  -24.6431 H   0  0  0  0  0  0  0  0  0  0  0  0
   -1.3396   24.4814  -24.8786 H   0  0  0  0  0  0  0  0  0  0  0  0
   -1.6205   23.4413  -26.1699 H   0  0  0  0  0  0  0  0  0  0  0  0
   -2.7393   24.8715  -26.2715 H   0  0  0  0  0  0  0  0  0  0  0  0
   -3.0856   22.5733  -27.6991 H   0  0  0  0  0  0  0  0  0  0  0  0
   -3.6328   24.2305  -28.2341 H   0  0  0  0  0  0  0  0  0  0  0  0
   -4.5143   20.8284  -30.9941 H   0  0  0  0  0  0  0  0  0  0  0  0
  1  2  1  0
  2  3  2  0
  3  4  1  0
  4  5  1  0
  5  6  1  0
  6  7  2  0
  7  8  1  0
  8  9  2  0
  9 10  1  0
  9 11  1  0
 11 12  1  0
 12 13  1  0
 13 14  1  0
 14 15  1  0
 15 16  1  0
 16 17  1  0
 17 18  1  0
 18 19  1  0
 19 20  1  0
 20 21  1  0
 16 22  1  0
 22 23  1  0
 11 24  2  0
  5 25  2  0
 25  2  1  0
 24  6  1  0
 23 13  1  0
 21 17  1  0
  1 26  1  0
  1 27  1  0
  1 28  1  0
  3 29  1  0
  7 30  1  0
  8 31  1  0
 12 32  1  0
 12 33  1  0
 13 34  1  6
 14 35  1  0
 14 36  1  0
 15 37  1  0
 15 38  1  0
 16 39  1  6
 18 40  1  0
 18 41  1  0
 19 42  1  0
 19 43  1  0
 20 44  1  0
 20 45  1  0
 21 46  1  0
 21 47  1  0
 22 48  1  0
 22 49  1  0
 23 50  1  0
 23 51  1  0
 24 52  1  0
M  CHG  2  10  -1  13   1
M  END
>  <UniqueID>  (8) 
8

>  <SMILES>  (8) 
Cc1csc(-c2ccc([O-])c(C[NH+]3CCC(N4CCCC4)CC3)c2)n1

>  <Energy>  (8) 
100.61088739200403

>  <Genealogy>  (8) 
Cc1csc(-c2ccc([O-])c(C[NH+]3CCC(N4CCCC4)CC3)c2)n1 (protonated)
Cc1csc(-c2ccc([O-])c(C[NH+]3CCC(N4CCCC4)CC3)c2)n1 (3D coordinates assigned)
Cc1csc(-c2ccc([O-])c(C[NH+]3CCC(N4CCCC4)CC3)c2)n1 (nonaromatic ring conformer: 100.61088739200403 kcal/mol)

>  <smiles>  (8) 
Cc1csc(-c2ccc(O)c(CN3CCC(N4CCCC4)CC3)c2)n1

>  <score_type>  (8) 
oracle

>  <origin>  (8) 
adgpu

>  <m_score__min__energy>  (8) 
-11.59

>  <m_primary>  (8) 
energy

$$$$
8:0
     RDKit          3D

 45 47  0  0  0  0  0  0  0  0999 V2000
   -5.1670   23.6380  -29.5180 O   0  0  0  0  0  0  0  0  0  0  0  0
   -4.4350   23.8660  -30.8110 S   0  0  0  0  0  0  0  0  0  0  0  0
   -3.9490   25.2880  -30.8390 O   0  0  0  0  0  0  0  0  0  0  0  0
   -5.5140   23.5690  -32.1330 N   0  0  0  0  0  0  0  0  0  0  0  0
   -6.6850   22.7610  -31.9960 C   0  0  0  0  0  0  0  0  0  0  0  0
   -7.9670   23.3330  -31.9660 C   0  0  0  0  0  0  0  0  0  0  0  0
   -9.0990   22.5180  -31.9020 C   0  0  0  0  0  0  0  0  0  0  0  0
   -8.9600   21.1280  -31.8880 C   0  0  0  0  0  0  0  0  0  0  0  0
   -7.6850   20.5470  -31.9220 C   0  0  0  0  0  0  0  0  0  0  0  0
   -7.5100   18.7950  -32.0380 S   0  0  0  0  0  0  0  0  0  0  0  0
   -6.6530   18.3050  -30.9040 O   0  0  0  0  0  0  0  0  0  0  0  0
   -8.8620   18.1500  -31.9130 O   0  0  0  0  0  0  0  0  0  0  0  0
   -6.7830   18.3340  -33.5620 N   0  0  0  0  0  0  0  0  0  0  0  0
   -5.4180   18.8940  -33.6720 C   0  0  0  0  0  0  0  0  0  0  0  0
   -4.6020   18.1750  -34.7510 C   0  0  0  0  0  0  0  0  0  0  0  0
   -4.4130   16.6890  -34.4020 C   0  0  0  0  0  0  0  0  0  0  0  0
   -5.5480   16.1360  -33.5220 C   0  0  0  0  0  0  0  0  0  0  0  0
   -6.8710   16.8690  -33.7900 C   0  0  0  0  0  0  0  0  0  0  0  0
   -6.5490   21.3700  -31.9390 C   0  0  0  0  0  0  0  0  0  0  0  0
   -3.0840   22.7420  -30.9240 C   0  0  0  0  0  0  0  0  0  0  0  0
   -2.1800   22.6190  -29.8600 C   0  0  0  0  0  0  0  0  0  0  0  0
   -1.1480   21.6790  -29.9190 C   0  0  0  0  0  0  0  0  0  0  0  0
   -1.0190   20.8410  -31.0350 C   0  0  0  0  0  0  0  0  0  0  0  0
   -0.0020   19.8900  -31.0870 O   0  0  0  0  0  0  0  0  0  0  0  0
   -1.9250   20.9580  -32.0990 C   0  0  0  0  0  0  0  0  0  0  0  0
   -1.8000   19.9040  -33.4980 Cl  0  0  0  0  0  0  0  0  0  0  0  0
   -2.9500   21.9090  -32.0440 C   0  0  0  0  0  0  0  0  0  0  0  0
   -8.0799   24.4269  -31.9930 H   0  0  0  0  0  0  0  0  0  0  0  0
  -10.1008   22.9707  -31.8626 H   0  0  0  0  0  0  0  0  0  0  0  0
   -9.8537   20.4878  -31.8502 H   0  0  0  0  0  0  0  0  0  0  0  0
   -5.4890   19.9612  -33.9292 H   0  0  0  0  0  0  0  0  0  0  0  0
   -4.9097   18.7572  -32.7061 H   0  0  0  0  0  0  0  0  0  0  0  0
   -5.1294   18.2541  -35.7131 H   0  0  0  0  0  0  0  0  0  0  0  0
   -3.6111   18.6485  -34.8141 H   0  0  0  0  0  0  0  0  0  0  0  0
   -4.3783   16.1098  -35.3365 H   0  0  0  0  0  0  0  0  0  0  0  0
   -3.4766   16.5983  -33.8319 H   0  0  0  0  0  0  0  0  0  0  0  0
   -5.6810   15.0660  -33.7396 H   0  0  0  0  0  0  0  0  0  0  0  0
   -5.2747   16.2882  -32.4674 H   0  0  0  0  0  0  0  0  0  0  0  0
   -7.1619   16.6946  -34.8364 H   0  0  0  0  0  0  0  0  0  0  0  0
   -7.6146   16.4716  -33.0835 H   0  0  0  0  0  0  0  0  0  0  0  0
   -5.5462   20.9191  -31.9073 H   0  0  0  0  0  0  0  0  0  0  0  0
   -2.2834   23.2647  -28.9755 H   0  0  0  0  0  0  0  0  0  0  0  0
   -0.4340   21.5963  -29.0863 H   0  0  0  0  0  0  0  0  0  0  0  0
    0.3720   19.5620  -31.9700 H   0  0  0  0  0  0  0  0  0  0  0  0
   -3.6543   22.0036  -32.8837 H   0  0  0  0  0  0  0  0  0  0  0  0
  1  2  2  0
  2  3  2  0
  2  4  1  0
  4  5  1  0
  5  6  2  0
  6  7  1  0
  7  8  2  0
  8  9  1  0
  9 10  1  0
 10 11  2  0
 10 12  2  0
 10 13  1  0
 13 14  1  0
 14 15  1  0
 15 16  1  0
 16 17  1  0
 17 18  1  0
  9 19  2  0
  2 20  1  0
 20 21  2  0
 21 22  1  0
 22 23  2  0
 23 24  1  0
 23 25  1  0
 25 26  1  0
 25 27  2  0
 19  5  1  0
 27 20  1  0
 18 13  1  0
  6 28  1  0
  7 29  1  0
  8 30  1  0
 14 31  1  0
 14 32  1  0
 15 33  1  0
 15 34  1  0
 16 35  1  0
 16 36  1  0
 17 37  1  0
 17 38  1  0
 18 39  1  0
 18 40  1  0
 19 41  1  0
 21 42  1  0
 22 43  1  0
 24 44  1  0
 27 45  1  0
M  CHG  1   4  -1
M  END
>  <UniqueID>  (9) 
9

>  <SMILES>  (9) 
O=S(=O)([N-]c1cccc(S(=O)(=O)N2CCCCC2)c1)c1ccc(O)c(Cl)c1

>  <Energy>  (9) 
53.33515632430905

>  <Genealogy>  (9) 
O=S(=O)([N-]c1cccc(S(=O)(=O)N2CCCCC2)c1)c1ccc(O)c(Cl)c1 (protonated)
O=S(=O)([N-]c1cccc(S(=O)(=O)N2CCCCC2)c1)c1ccc(O)c(Cl)c1 (3D coordinates assigned)
O=S(=O)([N-]c1cccc(S(=O)(=O)N2CCCCC2)c1)c1ccc(O)c(Cl)c1 (nonaromatic ring conformer: 53.33515632430905 kcal/mol)

>  <smiles>  (9) 
O=S(=O)(Nc1cccc(S(=O)(=O)N2CCCCC2)c1)c1ccc(O)c(Cl)c1

>  <score_type>  (9) 
oracle

>  <origin>  (9) 
adgpu

>  <m_score__min__energy>  (9) 
-10.82

>  <m_primary>  (9) 
energy

$$$$
9:0
     RDKit          3D

 55 58  0  0  0  0  0  0  0  0999 V2000
   -3.8640   25.6690  -30.8090 O   0  0  0  0  0  0  0  0  0  0  0  0
   -4.2790   24.5410  -30.4260 C   0  0  0  0  0  0  0  0  0  0  0  0
   -5.6820   24.2640  -30.4670 N   0  0  0  0  0  0  0  0  0  0  0  0
   -6.3060   23.0630  -30.9430 C   0  0  0  0  0  0  0  0  0  0  0  0
   -7.6780   23.0830  -31.2150 C   0  0  0  0  0  0  0  0  0  0  0  0
   -8.3330   21.9240  -31.6420 C   0  0  0  0  0  0  0  0  0  0  0  0
   -7.6260   20.7230  -31.7750 C   0  0  0  0  0  0  0  0  0  0  0  0
   -8.4530   19.2630  -32.3080 S   0  0  0  0  0  0  0  0  0  0  0  0
   -9.6270   19.6550  -33.1650 O   0  0  0  0  0  0  0  0  0  0  0  0
   -8.9700   18.5110  -31.1110 O   0  0  0  0  0  0  0  0  0  0  0  0
   -7.3620   18.2570  -33.2300 N   0  0  0  0  0  0  0  0  0  0  0  0
   -6.4650   19.1030  -34.0560 C   0  0  0  0  0  0  0  0  0  0  0  0
   -5.1950   18.3610  -34.5310 C   0  0  0  0  0  0  0  0  0  0  0  0
   -5.3820   16.8450  -34.5100 C   0  0  0  0  0  0  0  0  0  0  0  0
   -5.7560   16.3540  -33.1030 C   0  0  0  0  0  0  0  0  0  0  0  0
   -6.5990   17.3820  -32.3180 C   0  0  0  0  0  0  0  0  0  0  0  0
   -6.2540   20.6960  -31.4900 C   0  0  0  0  0  0  0  0  0  0  0  0
   -5.5970   21.8560  -31.0700 C   0  0  0  0  0  0  0  0  0  0  0  0
   -3.3000   23.5420  -29.8960 C   0  0  0  0  0  0  0  0  0  0  0  0
   -2.5710   22.7780  -30.8320 C   0  0  0  0  0  0  0  0  0  0  0  0
   -1.7040   21.7660  -30.4180 C   0  0  0  0  0  0  0  0  0  0  0  0
   -1.5550   21.4840  -29.0640 C   0  0  0  0  0  0  0  0  0  0  0  0
   -2.2540   22.2290  -28.1150 C   0  0  0  0  0  0  0  0  0  0  0  0
   -2.1010   21.9200  -26.8020 F   0  0  0  0  0  0  0  0  0  0  0  0
   -3.1060   23.2780  -28.5070 C   0  0  0  0  0  0  0  0  0  0  0  0
   -3.9440   24.1970  -27.1980 S   0  0  0  0  0  0  0  0  0  0  0  0
   -2.5000   25.1870  -26.7880 C   0  0  0  0  0  0  0  0  0  0  0  0
   -2.3120   25.6780  -25.4860 C   0  0  0  0  0  0  0  0  0  0  0  0
   -1.1820   26.4410  -25.1820 C   0  0  0  0  0  0  0  0  0  0  0  0
   -0.2290   26.7080  -26.1700 C   0  0  0  0  0  0  0  0  0  0  0  0
   -0.4070   26.2150  -27.4650 C   0  0  0  0  0  0  0  0  0  0  0  0
   -1.5370   25.4490  -27.7710 C   0  0  0  0  0  0  0  0  0  0  0  0
   -8.2456   24.0172  -31.0921 H   0  0  0  0  0  0  0  0  0  0  0  0
   -9.4077   21.9559  -31.8743 H   0  0  0  0  0  0  0  0  0  0  0  0
   -7.9530   17.6620  -33.8600 H   0  0  0  0  0  0  0  0  0  0  0  0
   -7.0226   19.4434  -34.9410 H   0  0  0  0  0  0  0  0  0  0  0  0
   -6.1365   19.9429  -33.4262 H   0  0  0  0  0  0  0  0  0  0  0  0
   -4.9616   18.6767  -35.5585 H   0  0  0  0  0  0  0  0  0  0  0  0
   -4.3743   18.6137  -33.8435 H   0  0  0  0  0  0  0  0  0  0  0  0
   -6.1846   16.5721  -35.2110 H   0  0  0  0  0  0  0  0  0  0  0  0
   -4.4339   16.3716  -34.8051 H   0  0  0  0  0  0  0  0  0  0  0  0
   -6.3344   15.4231  -33.1973 H   0  0  0  0  0  0  0  0  0  0  0  0
   -4.8204   16.1969  -32.5462 H   0  0  0  0  0  0  0  0  0  0  0  0
   -7.3023   16.8448  -31.6647 H   0  0  0  0  0  0  0  0  0  0  0  0
   -5.9178   18.0088  -31.7238 H   0  0  0  0  0  0  0  0  0  0  0  0
   -5.6913   19.7570  -31.5974 H   0  0  0  0  0  0  0  0  0  0  0  0
   -4.5222   21.8242  -30.8382 H   0  0  0  0  0  0  0  0  0  0  0  0
   -2.6882   22.9837  -31.9062 H   0  0  0  0  0  0  0  0  0  0  0  0
   -1.1370   21.1899  -31.1641 H   0  0  0  0  0  0  0  0  0  0  0  0
   -0.8854   20.6729  -28.7418 H   0  0  0  0  0  0  0  0  0  0  0  0
   -3.0553   25.4616  -24.7046 H   0  0  0  0  0  0  0  0  0  0  0  0
   -1.0416   26.8325  -24.1637 H   0  0  0  0  0  0  0  0  0  0  0  0
    0.6614   27.3066  -25.9273 H   0  0  0  0  0  0  0  0  0  0  0  0
    0.3405   26.4289  -28.2432 H   0  0  0  0  0  0  0  0  0  0  0  0
   -1.6698   25.0508  -28.7878 H   0  0  0  0  0  0  0  0  0  0  0  0
  1  2  2  0
  2  3  1  0
  3  4  1  0
  4  5  2  0
  5  6  1  0
  6  7  2  0
  7  8  1  0
  8  9  2  0
  8 10  2  0
  8 11  1  0
 11 12  1  0
 12 13  1  0
 13 14  1  0
 14 15  1  0
 15 16  1  0
  7 17  1  0
 17 18  2  0
  2 19  1  0
 19 20  2  0
 20 21  1  0
 21 22  2  0
 22 23  1  0
 23 24  1  0
 23 25  2  0
 25 26  1  0
 26 27  1  0
 27 28  2  0
 28 29  1  0
 29 30  2  0
 30 31  1  0
 31 32  2  0
 18  4  1  0
 25 19  1  0
 32 27  1  0
 16 11  1  0
  5 33  1  0
  6 34  1  0
 11 35  1  0
 12 36  1  0
 12 37  1  0
 13 38  1  0
 13 39  1  0
 14 40  1  0
 14 41  1  0
 15 42  1  0
 15 43  1  0
 16 44  1  0
 16 45  1  0
 17 46  1  0
 18 47  1  0
 20 48  1  0
 21 49  1  0
 22 50  1  0
 28 51  1  0
 29 52  1  0
 30 53  1  0
 31 54  1  0
 32 55  1  0
M  CHG  2   3  -1  11   1
M  END
>  <UniqueID>  (10) 
10

>  <SMILES>  (10) 
O=C([N-]c1ccc(S(=O)(=O)[NH+]2CCCCC2)cc1)c1cccc(F)c1Sc1ccccc1

>  <Energy>  (10) 
67.29437214384248

>  <Genealogy>  (10) 
O=C([N-]c1ccc(S(=O)(=O)[NH+]2CCCCC2)cc1)c1cccc(F)c1Sc1ccccc1 (protonated)
O=C([N-]c1ccc(S(=O)(=O)[NH+]2CCCCC2)cc1)c1cccc(F)c1Sc1ccccc1 (3D coordinates assigned)
O=C([N-]c1ccc(S(=O)(=O)[NH+]2CCCCC2)cc1)c1cccc(F)c1Sc1ccccc1 (nonaromatic ring conformer: 67.29437214384248 kcal/mol)

>  <smiles>  (10) 
O=C(Nc1ccc(S(=O)(=O)N2CCCCC2)cc1)c1cccc(F)c1Sc1ccccc1

>  <score_type>  (10) 
oracle

>  <origin>  (10) 
adgpu

>  <m_score__min__energy>  (10) 
-11.67

>  <m_primary>  (10) 
energy

$$$$
10:0
     RDKit          3D

 34 36  0  0  0  0  0  0  0  0999 V2000
   -6.7750   16.3470  -33.3780 C   0  0  0  0  0  0  0  0  0  0  0  0
   -7.1330   17.7510  -32.9700 C   0  0  0  0  0  0  0  0  0  0  0  0
   -8.1270   17.9530  -31.9950 C   0  0  0  0  0  0  0  0  0  0  0  0
   -8.4800   19.2430  -31.5960 C   0  0  0  0  0  0  0  0  0  0  0  0
   -7.8510   20.3540  -32.1720 C   0  0  0  0  0  0  0  0  0  0  0  0
   -8.2990   21.9880  -31.6920 S   0  0  0  0  0  0  0  0  0  0  0  0
   -9.5880   22.4080  -32.3410 O   0  0  0  0  0  0  0  0  0  0  0  0
   -8.4760   22.0240  -30.2000 O   0  0  0  0  0  0  0  0  0  0  0  0
   -7.0440   23.0950  -32.1430 N   0  0  0  0  0  0  0  0  0  0  0  0
   -5.7260   23.1200  -31.5810 C   0  0  0  0  0  0  0  0  0  0  0  0
   -4.8260   22.0280  -31.7160 C   0  0  0  0  0  0  0  0  0  0  0  0
   -3.5410   22.0830  -31.1470 C   0  0  0  0  0  0  0  0  0  0  0  0
   -3.1850   23.2390  -30.4590 C   0  0  0  0  0  0  0  0  0  0  0  0
   -2.0240   23.5020  -29.8410 N   0  0  0  0  0  0  0  0  0  0  0  0
   -2.2360   24.7540  -29.3640 C   0  0  0  0  0  0  0  0  0  0  0  0
   -1.3630   25.3820  -28.7090 O   0  0  0  0  0  0  0  0  0  0  0  0
   -3.4550   25.2840  -29.6400 N   0  0  0  0  0  0  0  0  0  0  0  0
   -4.0360   24.2960  -30.3380 C   0  0  0  0  0  0  0  0  0  0  0  0
   -5.3160   24.2770  -30.8850 C   0  0  0  0  0  0  0  0  0  0  0  0
   -6.8560   20.1660  -33.1380 C   0  0  0  0  0  0  0  0  0  0  0  0
   -6.4770   18.8710  -33.5370 C   0  0  0  0  0  0  0  0  0  0  0  0
   -5.3980   18.7040  -34.5770 C   0  0  0  0  0  0  0  0  0  0  0  0
   -6.6183   15.7326  -32.4791 H   0  0  0  0  0  0  0  0  0  0  0  0
   -7.5928   15.9193  -33.9765 H   0  0  0  0  0  0  0  0  0  0  0  0
   -5.8522   16.3631  -33.9765 H   0  0  0  0  0  0  0  0  0  0  0  0
   -8.6307   17.0859  -31.5429 H   0  0  0  0  0  0  0  0  0  0  0  0
   -9.2538   19.3875  -30.8276 H   0  0  0  0  0  0  0  0  0  0  0  0
   -5.1377   21.1309  -32.2711 H   0  0  0  0  0  0  0  0  0  0  0  0
   -2.8406   21.2402  -31.2426 H   0  0  0  0  0  0  0  0  0  0  0  0
   -5.9893   25.1402  -30.7776 H   0  0  0  0  0  0  0  0  0  0  0  0
   -6.3648   21.0402  -33.5903 H   0  0  0  0  0  0  0  0  0  0  0  0
   -4.4288   18.5540  -34.0789 H   0  0  0  0  0  0  0  0  0  0  0  0
   -5.6264   17.8305  -35.2054 H   0  0  0  0  0  0  0  0  0  0  0  0
   -5.3517   19.6057  -35.2054 H   0  0  0  0  0  0  0  0  0  0  0  0
  1  2  1  0
  2  3  2  0
  3  4  1  0
  4  5  2  0
  5  6  1  0
  6  7  2  0
  6  8  2  0
  6  9  1  0
  9 10  1  0
 10 11  2  0
 11 12  1  0
 12 13  2  0
 13 14  1  0
 14 15  1  0
 15 16  2  0
 15 17  1  0
 17 18  1  0
 18 19  2  0
  5 20  1  0
 20 21  2  0
 21 22  1  0
 21  2  1  0
 19 10  1  0
 18 13  1  0
  1 23  1  0
  1 24  1  0
  1 25  1  0
  3 26  1  0
  4 27  1  0
 11 28  1  0
 12 29  1  0
 19 30  1  0
 20 31  1  0
 22 32  1  0
 22 33  1  0
 22 34  1  0
M  CHG  3   9  -1  14  -1  17  -1
M  END
>  <UniqueID>  (11) 
11

>  <SMILES>  (11) 
Cc1ccc(S(=O)(=O)[N-]c2ccc3[n-]c(=O)[n-]c3c2)cc1C

>  <Energy>  (11) 
74.90661500060136

>  <Genealogy>  (11) 
Cc1ccc(S(=O)(=O)[N-]c2ccc3[n-]c(=O)[n-]c3c2)cc1C (protonated)
Cc1ccc(S(=O)(=O)[N-]c2ccc3[n-]c(=O)[n-]c3c2)cc1C (3D coordinates assigned)
Cc1ccc(S(=O)(=O)[N-]c2ccc3[n-]c(=O)[n-]c3c2)cc1C (optimized conformer: 74.90661500060136 kcal/mol)

>  <smiles>  (11) 
Cc1ccc(S(=O)(=O)Nc2ccc3[nH]c(=O)[nH]c3c2)cc1C

>  <score_type>  (11) 
oracle

>  <origin>  (11) 
adgpu

>  <m_score__min__energy>  (11) 
-11.1

>  <m_primary>  (11) 
energy

$$$$
11:0
     RDKit          3D

 39 41  0  0  0  0  0  0  0  0999 V2000
   -0.8740   28.4960  -28.0430 H   0  0  0  0  0  0  0  0  0  0  0  0
   -0.5660   28.0460  -27.1900 O   0  0  0  0  0  0  0  0  0  0  0  0
   -0.7220   26.6740  -26.9910 C   0  0  0  0  0  0  0  0  0  0  0  0
   -0.5440   26.1160  -25.7180 C   0  0  0  0  0  0  0  0  0  0  0  0
   -0.2783   26.7620  -24.8683 H   0  0  0  0  0  0  0  0  0  0  0  0
   -0.7030   24.7420  -25.5250 C   0  0  0  0  0  0  0  0  0  0  0  0
   -0.5532   24.3102  -24.5244 H   0  0  0  0  0  0  0  0  0  0  0  0
   -1.0530   23.9070  -26.6000 C   0  0  0  0  0  0  0  0  0  0  0  0
   -1.2210   22.4470  -26.4070 C   0  0  0  0  0  0  0  0  0  0  0  0
   -0.6080   21.8730  -25.4690 O   0  0  0  0  0  0  0  0  0  0  0  0
   -2.1070   21.6680  -27.2230 N   0  0  0  0  0  0  0  0  0  0  0  0
   -2.9870   22.1730  -28.2380 C   0  0  0  0  0  0  0  0  0  0  0  0
   -2.8120   21.8490  -29.5960 C   0  0  0  0  0  0  0  0  0  0  0  0
   -1.9771   21.2013  -29.9016 H   0  0  0  0  0  0  0  0  0  0  0  0
   -3.6950   22.3470  -30.5580 C   0  0  0  0  0  0  0  0  0  0  0  0
   -3.5434   22.1035  -31.6199 H   0  0  0  0  0  0  0  0  0  0  0  0
   -4.7720   23.1550  -30.1740 C   0  0  0  0  0  0  0  0  0  0  0  0
   -5.8890   23.7680  -31.3910 S   0  0  0  0  0  0  0  0  0  0  0  0
   -5.4390   23.2990  -32.7450 O   0  0  0  0  0  0  0  0  0  0  0  0
   -5.9160   25.2710  -31.3760 O   0  0  0  0  0  0  0  0  0  0  0  0
   -7.4900   23.1710  -31.0860 N   0  0  0  0  0  0  0  0  0  0  0  0
   -7.8990   21.9790  -31.3990 C   0  0  0  0  0  0  0  0  0  0  0  0
   -9.1510   21.5510  -31.1560 N   0  0  0  0  0  0  0  0  0  0  0  0
   -9.2150   20.3290  -31.6000 O   0  0  0  0  0  0  0  0  0  0  0  0
   -8.0660   19.9500  -32.1120 C   0  0  0  0  0  0  0  0  0  0  0  0
   -7.8110   18.6150  -32.7240 C   0  0  0  0  0  0  0  0  0  0  0  0
   -7.6684   17.8684  -31.9289 H   0  0  0  0  0  0  0  0  0  0  0  0
   -8.6704   18.3272  -33.3474 H   0  0  0  0  0  0  0  0  0  0  0  0
   -6.9060   18.6642  -33.3474 H   0  0  0  0  0  0  0  0  0  0  0  0
   -7.1610   20.9840  -32.0140 C   0  0  0  0  0  0  0  0  0  0  0  0
   -6.1118   21.0115  -32.3432 H   0  0  0  0  0  0  0  0  0  0  0  0
   -4.9610   23.4620  -28.8200 C   0  0  0  0  0  0  0  0  0  0  0  0
   -5.8068   24.0949  -28.5133 H   0  0  0  0  0  0  0  0  0  0  0  0
   -4.0760   22.9650  -27.8580 C   0  0  0  0  0  0  0  0  0  0  0  0
   -4.2372   23.1984  -26.7952 H   0  0  0  0  0  0  0  0  0  0  0  0
   -1.2140   24.4710  -27.8780 C   0  0  0  0  0  0  0  0  0  0  0  0
   -1.4667   23.8254  -28.7320 H   0  0  0  0  0  0  0  0  0  0  0  0
   -1.0550   25.8480  -28.0710 C   0  0  0  0  0  0  0  0  0  0  0  0
   -1.2280   26.3920  -29.3380 O   0  0  0  0  0  0  0  0  0  0  0  0
  1  2  1  0
  2  3  1  0
  3  4  2  0
  4  5  1  0
  4  6  1  0
  6  7  1  0
  6  8  2  0
  8  9  1  0
  9 10  2  0
  9 11  1  0
 11 12  1  0
 12 13  2  0
 13 14  1  0
 13 15  1  0
 15 16  1  0
 15 17  2  0
 17 18  1  0
 18 19  2  0
 18 20  2  0
 18 21  1  0
 21 22  2  0
 22 23  1  0
 23 24  1  0
 24 25  1  0
 25 26  1  0
 26 27  1  0
 26 28  1  0
 26 29  1  0
 25 30  2  0
 30 31  1  0
 17 32  1  0
 32 33  1  0
 32 34  2  0
 34 35  1  0
  8 36  1  0
 36 37  1  0
 36 38  2  0
 38 39  1  0
 38  3  1  0
 34 12  1  0
 30 22  1  0
M  CHG  3  11  -1  23  -1  39  -1
M  END
>  <UniqueID>  (12) 
12

>  <SMILES>  (12) 
Cc1c/c(=N\S(=O)(=O)c2ccc([N-]C(=O)c3ccc(O)c([O-])c3)cc2)[n-]o1

>  <Energy>  (12) 
81.32086640703271

>  <Genealogy>  (12) 
Cc1cc(=NS(=O)(=O)c2ccc([N-]C(=O)c3ccc(O)c([O-])c3)cc2)[n-]o1 (protonated)
Cc1c/c(=N\S(=O)(=O)c2ccc([N-]C(=O)c3ccc(O)c([O-])c3)cc2)[n-]o1 (cis-trans isomerization)
Cc1c/c(=N\S(=O)(=O)c2ccc([N-]C(=O)c3ccc(O)c([O-])c3)cc2)[n-]o1 (3D coordinates assigned)
Cc1c/c(=N\S(=O)(=O)c2ccc([N-]C(=O)c3ccc(O)c([O-])c3)cc2)[n-]o1 (optimized conformer: 81.32086640703271 kcal/mol)

>  <smiles>  (12) 
Cc1cc(=NS(=O)(=O)c2ccc(NC(=O)c3ccc(O)c(O)c3)cc2)[nH]o1

>  <score_type>  (12) 
oracle

>  <origin>  (12) 
adgpu

>  <m_score__min__energy>  (12) 
-11.859999999999999

>  <m_primary>  (12) 
energy

$$$$
12:0
     RDKit          3D

 32 34  0  0  0  0  0  0  0  0999 V2000
   -5.1350   20.5680  -32.8510 C   0  0  0  0  0  0  0  0  0  0  0  0
   -6.4150   21.1790  -32.3450 C   0  0  0  0  0  0  0  0  0  0  0  0
   -7.6350   20.5800  -32.7030 C   0  0  0  0  0  0  0  0  0  0  0  0
   -8.8140   21.1260  -32.3090 N   0  0  0  0  0  0  0  0  0  0  0  0
   -8.8620   22.2560  -31.5600 C   0  0  0  0  0  0  0  0  0  0  0  0
   -7.6820   22.8810  -31.1610 C   0  0  0  0  0  0  0  0  0  0  0  0
   -6.4390   22.3400  -31.5300 C   0  0  0  0  0  0  0  0  0  0  0  0
   -5.2130   23.0210  -31.0520 C   0  0  0  0  0  0  0  0  0  0  0  0
   -4.9960   24.3470  -31.2110 N   0  0  0  0  0  0  0  0  0  0  0  0
   -3.8720   24.7800  -30.6420 N   0  0  0  0  0  0  0  0  0  0  0  0
   -3.1800   23.8070  -30.0080 C   0  0  0  0  0  0  0  0  0  0  0  0
   -1.9380   24.0350  -29.3130 N   0  0  0  0  0  0  0  0  0  0  0  0
   -1.7170   25.2950  -28.5930 C   0  0  0  0  0  0  0  0  0  0  0  0
   -0.6350   25.1200  -27.5230 C   0  0  0  0  0  0  0  0  0  0  0  0
    0.5230   24.5230  -28.0700 O   0  0  0  0  0  0  0  0  0  0  0  0
    0.2240   23.2010  -28.4740 C   0  0  0  0  0  0  0  0  0  0  0  0
   -0.7740   23.2010  -29.6350 C   0  0  0  0  0  0  0  0  0  0  0  0
   -3.9800   22.3250  -30.1310 S   0  0  0  0  0  0  0  0  0  0  0  0
   -4.5089   20.2691  -31.9974 H   0  0  0  0  0  0  0  0  0  0  0  0
   -5.3675   19.6838  -33.4626 H   0  0  0  0  0  0  0  0  0  0  0  0
   -4.5937   21.3048  -33.4626 H   0  0  0  0  0  0  0  0  0  0  0  0
   -7.6346   19.6610  -33.3075 H   0  0  0  0  0  0  0  0  0  0  0  0
   -9.8339   22.6797  -31.2671 H   0  0  0  0  0  0  0  0  0  0  0  0
   -7.7239   23.7990  -30.5564 H   0  0  0  0  0  0  0  0  0  0  0  0
   -1.3980   26.0686  -29.3070 H   0  0  0  0  0  0  0  0  0  0  0  0
   -2.6557   25.5939  -28.1036 H   0  0  0  0  0  0  0  0  0  0  0  0
   -0.3721   26.1059  -27.1120 H   0  0  0  0  0  0  0  0  0  0  0  0
   -1.0270   24.4656  -26.7305 H   0  0  0  0  0  0  0  0  0  0  0  0
    1.1510   22.7034  -28.7951 H   0  0  0  0  0  0  0  0  0  0  0  0
   -0.2232   22.6647  -27.6241 H   0  0  0  0  0  0  0  0  0  0  0  0
   -0.2821   23.5983  -30.5351 H   0  0  0  0  0  0  0  0  0  0  0  0
   -1.1135   22.1698  -29.8119 H   0  0  0  0  0  0  0  0  0  0  0  0
  1  2  1  0
  2  3  2  0
  3  4  1  0
  4  5  2  0
  5  6  1  0
  6  7  2  0
  7  8  1  0
  8  9  2  0
  9 10  1  0
 10 11  2  0
 11 12  1  0
 12 13  1  0
 13 14  1  0
 14 15  1  0
 15 16  1  0
 16 17  1  0
 11 18  1  0
  7  2  1  0
 18  8  1  0
 17 12  1  0
  1 19  1  0
  1 20  1  0
  1 21  1  0
  3 22  1  0
  5 23  1  0
  6 24  1  0
 13 25  1  0
 13 26  1  0
 14 27  1  0
 14 28  1  0
 16 29  1  0
 16 30  1  0
 17 31  1  0
 17 32  1  0
M  END
>  <UniqueID>  (13) 
13

>  <SMILES>  (13) 
Cc1cnccc1-c1nnc(N2CCOCC2)s1

>  <Energy>  (13) 
75.37961487456599

>  <Genealogy>  (13) 
Cc1cnccc1-c1nnc(N2CCOCC2)s1 (3D coordinates assigned)
Cc1cnccc1-c1nnc(N2CCOCC2)s1 (nonaromatic ring conformer: 75.37961487456599 kcal/mol)

>  <smiles>  (13) 
Cc1cnccc1-c1nnc(N2CCOCC2)s1

>  <score_type>  (13) 
oracle

>  <origin>  (13) 
adgpu

>  <m_score__min__energy>  (13) 
-7.3499999999999996

>  <m_primary>  (13) 
energy

$$$$
13:0
     RDKit          3D

 39 41  0  0  0  0  0  0  0  0999 V2000
   -5.4300   16.8100  -33.6800 N   0  0  0  0  0  0  0  0  0  0  0  0
   -6.3800   17.7970  -33.2670 C   0  0  0  0  0  0  0  0  0  0  0  0
   -7.3620   17.4760  -32.3190 C   0  0  0  0  0  0  0  0  0  0  0  0
   -8.2890   18.4410  -31.9120 C   0  0  0  0  0  0  0  0  0  0  0  0
   -8.2380   19.7330  -32.4480 C   0  0  0  0  0  0  0  0  0  0  0  0
   -9.4080   20.9790  -31.9050 S   0  0  0  0  0  0  0  0  0  0  0  0
   -8.1040   22.1110  -31.4250 C   0  0  0  0  0  0  0  0  0  0  0  0
   -7.7190   22.2090  -30.0830 C   0  0  0  0  0  0  0  0  0  0  0  0
   -6.6710   23.0590  -29.7140 C   0  0  0  0  0  0  0  0  0  0  0  0
   -6.0040   23.8160  -30.6880 C   0  0  0  0  0  0  0  0  0  0  0  0
   -4.6410   24.8400  -30.2450 S   0  0  0  0  0  0  0  0  0  0  0  0
   -4.9980   26.2940  -30.3810 O   0  0  0  0  0  0  0  0  0  0  0  0
   -3.4880   24.5330  -31.1580 O   0  0  0  0  0  0  0  0  0  0  0  0
   -4.1690   24.5200  -28.6060 N   0  0  0  0  0  0  0  0  0  0  0  0
   -3.0250   24.8200  -28.0600 C   0  0  0  0  0  0  0  0  0  0  0  0
   -2.8260   24.5060  -26.7080 C   0  0  0  0  0  0  0  0  0  0  0  0
   -1.6170   24.8320  -26.0930 C   0  0  0  0  0  0  0  0  0  0  0  0
   -0.6150   25.4650  -26.8270 C   0  0  0  0  0  0  0  0  0  0  0  0
   -0.8370   25.7600  -28.1720 C   0  0  0  0  0  0  0  0  0  0  0  0
   -2.0210   25.4350  -28.7620 N   0  0  0  0  0  0  0  0  0  0  0  0
   -6.4060   23.7330  -32.0280 C   0  0  0  0  0  0  0  0  0  0  0  0
   -7.4530   22.8830  -32.3950 C   0  0  0  0  0  0  0  0  0  0  0  0
   -7.2620   20.0550  -33.4000 C   0  0  0  0  0  0  0  0  0  0  0  0
   -6.3350   19.0900  -33.8070 C   0  0  0  0  0  0  0  0  0  0  0  0
   -5.6600   15.7930  -33.6340 H   0  0  0  0  0  0  0  0  0  0  0  0
   -4.4880   17.0910  -34.0330 H   0  0  0  0  0  0  0  0  0  0  0  0
   -7.4034   16.4622  -31.8941 H   0  0  0  0  0  0  0  0  0  0  0  0
   -9.0591   18.1843  -31.1697 H   0  0  0  0  0  0  0  0  0  0  0  0
   -8.2413   21.6167  -29.3172 H   0  0  0  0  0  0  0  0  0  0  0  0
   -6.3698   23.1337  -28.6587 H   0  0  0  0  0  0  0  0  0  0  0  0
   -3.6198   24.0048  -26.1347 H   0  0  0  0  0  0  0  0  0  0  0  0
   -1.4548   24.5903  -25.0322 H   0  0  0  0  0  0  0  0  0  0  0  0
    0.3406   25.7290  -26.3504 H   0  0  0  0  0  0  0  0  0  0  0  0
   -0.0516   26.2579  -28.7596 H   0  0  0  0  0  0  0  0  0  0  0  0
   -2.1260   25.6720  -29.7710 H   0  0  0  0  0  0  0  0  0  0  0  0
   -5.8965   24.3380  -32.7924 H   0  0  0  0  0  0  0  0  0  0  0  0
   -7.7661   22.8204  -33.4476 H   0  0  0  0  0  0  0  0  0  0  0  0
   -7.2247   21.0677  -33.8278 H   0  0  0  0  0  0  0  0  0  0  0  0
   -5.5683   19.3463  -34.5530 H   0  0  0  0  0  0  0  0  0  0  0  0
  1  2  1  0
  2  3  2  0
  3  4  1  0
  4  5  2  0
  5  6  1  0
  6  7  1  0
  7  8  2  0
  8  9  1  0
  9 10  2  0
 10 11  1  0
 11 12  2  0
 11 13  2  0
 11 14  1  0
 14 15  2  3
 15 16  1  0
 16 17  2  0
 17 18  1  0
 18 19  2  0
 19 20  1  0
 10 21  1  0
 21 22  2  0
  5 23  1  0
 23 24  2  0
 24  2  1  0
 22  7  1  0
 20 15  1  0
  1 25  1  0
  1 26  1  0
  3 27  1  0
  4 28  1  0
  8 29  1  0
  9 30  1  0
 16 31  1  0
 17 32  1  0
 18 33  1  0
 19 34  1  0
 20 35  1  0
 21 36  1  0
 22 37  1  0
 23 38  1  0
 24 39  1  0
M  END
>  <UniqueID>  (14) 
14

>  <SMILES>  (14) 
Nc1ccc(Sc2ccc(S(=O)(=O)N=c3cccc[nH]3)cc2)cc1

>  <Energy>  (14) 
40.75611575795718

>  <Genealogy>  (14) 
Nc1ccc(Sc2ccc(S(=O)(=O)N=c3cccc[nH]3)cc2)cc1 (3D coordinates assigned)
Nc1ccc(Sc2ccc(S(=O)(=O)N=c3cccc[nH]3)cc2)cc1 (optimized conformer: 40.75611575795718 kcal/mol)

>  <smiles>  (14) 
Nc1ccc(Sc2ccc(S(=O)(=O)N=c3cccc[nH]3)cc2)cc1

>  <score_type>  (14) 
oracle

>  <origin>  (14) 
adgpu

>  <m_score__min__energy>  (14) 
-9.9600000000000009

>  <m_primary>  (14) 
energy

$$$$
14:0
     RDKit          3D

 45 48  0  0  0  0  0  0  0  0999 V2000
   -9.1060   18.1890  -31.6880 C   0  0  0  0  0  0  0  0  0  0  0  0
   -7.8920   18.9680  -32.0990 C   0  0  0  0  0  0  0  0  0  0  0  0
   -6.7010   18.3020  -32.4220 C   0  0  0  0  0  0  0  0  0  0  0  0
   -5.5810   19.0250  -32.8420 C   0  0  0  0  0  0  0  0  0  0  0  0
   -5.6430   20.4250  -32.9680 C   0  0  0  0  0  0  0  0  0  0  0  0
   -4.5010   21.1920  -33.3850 N   0  0  0  0  0  0  0  0  0  0  0  0
   -3.2750   21.2560  -32.6440 C   0  0  0  0  0  0  0  0  0  0  0  0
   -2.9760   22.1420  -31.6160 C   0  0  0  0  0  0  0  0  0  0  0  0
   -3.8950   23.0930  -30.9510 C   0  0  0  0  0  0  0  0  0  0  0  0
   -3.6000   23.5580  -29.6580 C   0  0  0  0  0  0  0  0  0  0  0  0
   -4.4610   24.4490  -29.0100 C   0  0  0  0  0  0  0  0  0  0  0  0
   -5.6360   24.8800  -29.6410 C   0  0  0  0  0  0  0  0  0  0  0  0
   -6.5160   25.7900  -28.9780 N   0  0  0  0  0  0  0  0  0  0  0  0
   -5.9450   24.4060  -30.9230 C   0  0  0  0  0  0  0  0  0  0  0  0
   -5.0840   23.5150  -31.5720 C   0  0  0  0  0  0  0  0  0  0  0  0
   -1.6680   22.0180  -31.2800 N   0  0  0  0  0  0  0  0  0  0  0  0
   -1.2100   21.0670  -32.1220 C   0  0  0  0  0  0  0  0  0  0  0  0
    0.1030   20.6050  -32.1840 C   0  0  0  0  0  0  0  0  0  0  0  0
    0.4140   19.6480  -33.1620 C   0  0  0  0  0  0  0  0  0  0  0  0
   -0.5740   19.2000  -34.0680 C   0  0  0  0  0  0  0  0  0  0  0  0
   -0.2460   18.1630  -35.0990 C   0  0  0  0  0  0  0  0  0  0  0  0
   -1.8850   19.6980  -33.9490 C   0  0  0  0  0  0  0  0  0  0  0  0
   -2.1470   20.5980  -32.9650 N   0  0  0  0  0  0  0  0  0  0  0  0
   -6.8360   21.0860  -32.6450 C   0  0  0  0  0  0  0  0  0  0  0  0
   -7.9570   20.3630  -32.2250 C   0  0  0  0  0  0  0  0  0  0  0  0
   -9.1636   18.1520  -30.5901 H   0  0  0  0  0  0  0  0  0  0  0  0
  -10.0074   18.6777  -32.0862 H   0  0  0  0  0  0  0  0  0  0  0  0
   -9.0373   17.1659  -32.0862 H   0  0  0  0  0  0  0  0  0  0  0  0
   -6.6480   17.2060  -32.3445 H   0  0  0  0  0  0  0  0  0  0  0  0
   -4.6452   18.4962  -33.0755 H   0  0  0  0  0  0  0  0  0  0  0  0
   -4.5870   21.7950  -34.2340 H   0  0  0  0  0  0  0  0  0  0  0  0
   -2.6844   23.2183  -29.1517 H   0  0  0  0  0  0  0  0  0  0  0  0
   -4.2153   24.8130  -28.0015 H   0  0  0  0  0  0  0  0  0  0  0  0
   -6.2630   26.7990  -28.8740 H   0  0  0  0  0  0  0  0  0  0  0  0
   -7.4270   25.4640  -28.5850 H   0  0  0  0  0  0  0  0  0  0  0  0
   -6.8686   24.7360  -31.4211 H   0  0  0  0  0  0  0  0  0  0  0  0
   -5.3387   23.1419  -32.5749 H   0  0  0  0  0  0  0  0  0  0  0  0
    0.8702   20.9780  -31.4895 H   0  0  0  0  0  0  0  0  0  0  0  0
    1.4349   19.2432  -33.2240 H   0  0  0  0  0  0  0  0  0  0  0  0
    0.0494   17.2290  -34.5986 H   0  0  0  0  0  0  0  0  0  0  0  0
   -1.1297   17.9786  -35.7276 H   0  0  0  0  0  0  0  0  0  0  0  0
    0.5830   18.5203  -35.7276 H   0  0  0  0  0  0  0  0  0  0  0  0
   -2.6781   19.3669  -34.6356 H   0  0  0  0  0  0  0  0  0  0  0  0
   -6.8910   22.1819  -32.7225 H   0  0  0  0  0  0  0  0  0  0  0  0
   -8.8936   20.8909  -31.9925 H   0  0  0  0  0  0  0  0  0  0  0  0
  1  2  1  0
  2  3  2  0
  3  4  1  0
  4  5  2  0
  5  6  1  0
  6  7  1  0
  7  8  2  0
  8  9  1  0
  9 10  2  0
 10 11  1  0
 11 12  2  0
 12 13  1  0
 12 14  1  0
 14 15  2  0
  8 16  1  0
 16 17  2  0
 17 18  1  0
 18 19  2  0
 19 20  1  0
 20 21  1  0
 20 22  2  0
 22 23  1  0
  5 24  1  0
 24 25  2  0
 25  2  1  0
 23  7  1  0
 15  9  1  0
 23 17  1  0
  1 26  1  0
  1 27  1  0
  1 28  1  0
  3 29  1  0
  4 30  1  0
  6 31  1  0
 10 32  1  0
 11 33  1  0
 13 34  1  0
 13 35  1  0
 14 36  1  0
 15 37  1  0
 18 38  1  0
 19 39  1  0
 21 40  1  0
 21 41  1  0
 21 42  1  0
 22 43  1  0
 24 44  1  0
 25 45  1  0
M  END
>  <UniqueID>  (15) 
15

>  <SMILES>  (15) 
Cc1ccc(Nc2c(-c3ccc(N)cc3)nc3ccc(C)cn23)cc1

>  <Energy>  (15) 
91.01056448340452

>  <Genealogy>  (15) 
Cc1ccc(Nc2c(-c3ccc(N)cc3)nc3ccc(C)cn23)cc1 (3D coordinates assigned)
Cc1ccc(Nc2c(-c3ccc(N)cc3)nc3ccc(C)cn23)cc1 (optimized conformer: 91.01056448340452 kcal/mol)

>  <smiles>  (15) 
Cc1ccc(Nc2c(-c3ccc(N)cc3)nc3ccc(C)cn23)cc1

>  <score_type>  (15) 
oracle

>  <origin>  (15) 
adgpu

>  <m_score__min__energy>  (15) 
-8.5199999999999996

>  <m_primary>  (15) 
energy

$$$$
15:0
     RDKit          3D

 28 29  0  0  0  0  0  0  0  0999 V2000
   -5.5470   19.0540  -33.2010 C   0  0  0  0  0  0  0  0  0  0  0  0
   -6.2550   20.2820  -32.7310 C   0  0  0  0  0  0  0  0  0  0  0  0
   -5.7030   21.5120  -32.7290 N   0  0  0  0  0  0  0  0  0  0  0  0
   -6.6270   22.3630  -32.3110 N   0  0  0  0  0  0  0  0  0  0  0  0
   -6.4130   23.8080  -32.2470 C   0  0  0  0  0  0  0  0  0  0  0  0
   -5.4970   24.1430  -31.1070 C   0  0  0  0  0  0  0  0  0  0  0  0
   -4.4730   25.0190  -31.2180 N   0  0  0  0  0  0  0  0  0  0  0  0
   -3.9030   25.0760  -30.0260 N   0  0  0  0  0  0  0  0  0  0  0  0
   -4.5710   24.2480  -29.2060 C   0  0  0  0  0  0  0  0  0  0  0  0
   -4.2050   24.0500  -27.6210 S   0  0  0  0  0  0  0  0  0  0  0  0
   -5.5760   23.6270  -29.8590 N   0  0  0  0  0  0  0  0  0  0  0  0
   -6.5720   22.6930  -29.3300 C   0  0  0  0  0  0  0  0  0  0  0  0
   -7.7780   21.7000  -32.0600 C   0  0  0  0  0  0  0  0  0  0  0  0
   -9.0750   22.3420  -31.6680 C   0  0  0  0  0  0  0  0  0  0  0  0
   -7.5760   20.3600  -32.3290 C   0  0  0  0  0  0  0  0  0  0  0  0
   -8.8480   18.9340  -32.2410 Br  0  0  0  0  0  0  0  0  0  0  0  0
   -5.2101   18.4697  -32.3320 H   0  0  0  0  0  0  0  0  0  0  0  0
   -6.2328   18.4453  -33.8086 H   0  0  0  0  0  0  0  0  0  0  0  0
   -4.6766   19.3425  -33.8086 H   0  0  0  0  0  0  0  0  0  0  0  0
   -5.9615   24.1511  -33.1896 H   0  0  0  0  0  0  0  0  0  0  0  0
   -7.3799   24.3088  -32.0914 H   0  0  0  0  0  0  0  0  0  0  0  0
   -3.0840   25.6780  -29.7870 H   0  0  0  0  0  0  0  0  0  0  0  0
   -6.5481   22.7154  -28.2305 H   0  0  0  0  0  0  0  0  0  0  0  0
   -7.5724   22.9861  -29.6811 H   0  0  0  0  0  0  0  0  0  0  0  0
   -6.3437   21.6758  -29.6811 H   0  0  0  0  0  0  0  0  0  0  0  0
   -9.1492   22.3787  -30.5711 H   0  0  0  0  0  0  0  0  0  0  0  0
   -9.1153   23.3641  -32.0726 H   0  0  0  0  0  0  0  0  0  0  0  0
   -9.9121   21.7542  -32.0726 H   0  0  0  0  0  0  0  0  0  0  0  0
  1  2  1  0
  2  3  2  0
  3  4  1  0
  4  5  1  0
  5  6  1  0
  6  7  2  0
  7  8  1  0
  8  9  1  0
  9 10  2  0
  9 11  1  0
 11 12  1  0
  4 13  1  0
 13 14  1  0
 13 15  2  0
 15 16  1  0
 15  2  1  0
 11  6  1  0
  1 17  1  0
  1 18  1  0
  1 19  1  0
  5 20  1  0
  5 21  1  0
  8 22  1  0
 12 23  1  0
 12 24  1  0
 12 25  1  0
 14 26  1  0
 14 27  1  0
 14 28  1  0
M  END
>  <UniqueID>  (16) 
16

>  <SMILES>  (16) 
Cc1nn(Cc2n[nH]c(=S)n2C)c(C)c1Br

>  <Energy>  (16) 
90.90248576233225

>  <Genealogy>  (16) 
Cc1nn(Cc2n[nH]c(=S)n2C)c(C)c1Br (3D coordinates assigned)
Cc1nn(Cc2n[nH]c(=S)n2C)c(C)c1Br (optimized conformer: 90.90248576233225 kcal/mol)

>  <smiles>  (16) 
Cc1nn(Cc2n[nH]c(=S)n2C)c(C)c1Br

>  <score_type>  (16) 
oracle

>  <origin>  (16) 
adgpu

>  <m_score__min__energy>  (16) 
-7.5199999999999996

>  <m_primary>  (16) 
energy

$$$$
16:0
     RDKit          3D

 47 49  0  0  0  0  0  0  0  0999 V2000
   -6.7430   18.1030  -32.9330 C   0  0  0  0  0  0  0  0  0  0  0  0
   -7.7880   19.1090  -33.0930 N   0  0  0  0  0  0  0  0  0  0  0  0
   -7.8640   20.3150  -32.3070 C   0  0  0  0  0  0  0  0  0  0  0  0
   -8.7470   20.4340  -31.2150 C   0  0  0  0  0  0  0  0  0  0  0  0
   -8.7950   21.6170  -30.4720 C   0  0  0  0  0  0  0  0  0  0  0  0
   -7.9670   22.6910  -30.8070 C   0  0  0  0  0  0  0  0  0  0  0  0
   -7.0860   22.5840  -31.8890 C   0  0  0  0  0  0  0  0  0  0  0  0
   -6.0200   23.9630  -32.3080 S   0  0  0  0  0  0  0  0  0  0  0  0
   -4.5450   23.0880  -31.7960 C   0  0  0  0  0  0  0  0  0  0  0  0
   -4.2500   21.8300  -32.3260 C   0  0  0  0  0  0  0  0  0  0  0  0
   -3.0970   21.1670  -31.9030 C   0  0  0  0  0  0  0  0  0  0  0  0
   -2.2580   21.7610  -30.9570 C   0  0  0  0  0  0  0  0  0  0  0  0
   -2.5860   23.0260  -30.4400 C   0  0  0  0  0  0  0  0  0  0  0  0
   -1.7410   23.6760  -29.4140 C   0  0  0  0  0  0  0  0  0  0  0  0
   -0.7990   23.0320  -28.8790 O   0  0  0  0  0  0  0  0  0  0  0  0
   -1.9720   25.0460  -29.0490 N   0  0  0  0  0  0  0  0  0  0  0  0
   -1.4950   25.6380  -27.8280 C   0  0  0  0  0  0  0  0  0  0  0  0
   -1.9650   25.1530  -26.5990 C   0  0  0  0  0  0  0  0  0  0  0  0
   -1.4890   25.6830  -25.3960 C   0  0  0  0  0  0  0  0  0  0  0  0
   -0.5240   26.7050  -25.4000 C   0  0  0  0  0  0  0  0  0  0  0  0
   -0.0150   27.2570  -24.1190 C   0  0  0  0  0  0  0  0  0  0  0  0
    0.1630   28.6720  -23.9690 N   0  0  0  0  0  0  0  0  0  0  0  0
    0.2780   26.4670  -23.1290 N   0  0  0  0  0  0  0  0  0  0  0  0
   -0.0390   27.1780  -26.6330 C   0  0  0  0  0  0  0  0  0  0  0  0
   -0.5170   26.6470  -27.8340 C   0  0  0  0  0  0  0  0  0  0  0  0
   -3.7160   23.6500  -30.8760 N   0  0  0  0  0  0  0  0  0  0  0  0
   -7.0370   21.4020  -32.6370 C   0  0  0  0  0  0  0  0  0  0  0  0
   -6.5624   17.9291  -31.8620 H   0  0  0  0  0  0  0  0  0  0  0  0
   -7.0624   17.1638  -33.4082 H   0  0  0  0  0  0  0  0  0  0  0  0
   -5.8166   18.4579  -33.4082 H   0  0  0  0  0  0  0  0  0  0  0  0
   -8.5050   18.9450  -33.8370 H   0  0  0  0  0  0  0  0  0  0  0  0
   -9.4016   19.5918  -30.9461 H   0  0  0  0  0  0  0  0  0  0  0  0
   -9.4868   21.7025  -29.6210 H   0  0  0  0  0  0  0  0  0  0  0  0
   -8.0075   23.6207  -30.2204 H   0  0  0  0  0  0  0  0  0  0  0  0
   -4.9180   21.3675  -33.0675 H   0  0  0  0  0  0  0  0  0  0  0  0
   -2.8490   20.1774  -32.3142 H   0  0  0  0  0  0  0  0  0  0  0  0
   -1.3482   21.2429  -30.6196 H   0  0  0  0  0  0  0  0  0  0  0  0
   -2.4700   25.6640  -29.7290 H   0  0  0  0  0  0  0  0  0  0  0  0
   -2.7149   24.3484  -26.5813 H   0  0  0  0  0  0  0  0  0  0  0  0
   -1.8723   25.2975  -24.4397 H   0  0  0  0  0  0  0  0  0  0  0  0
   -0.1310   29.3350  -24.7210 H   0  0  0  0  0  0  0  0  0  0  0  0
    0.5390   29.0720  -23.0810 H   0  0  0  0  0  0  0  0  0  0  0  0
    0.1970   25.4290  -23.2130 H   0  0  0  0  0  0  0  0  0  0  0  0
    0.6370   26.8510  -22.2260 H   0  0  0  0  0  0  0  0  0  0  0  0
    0.7222   27.9718  -26.6518 H   0  0  0  0  0  0  0  0  0  0  0  0
   -0.1248   27.0216  -28.7910 H   0  0  0  0  0  0  0  0  0  0  0  0
   -6.3461   21.3234  -33.4893 H   0  0  0  0  0  0  0  0  0  0  0  0
  1  2  1  0
  2  3  1  0
  3  4  2  0
  4  5  1  0
  5  6  2  0
  6  7  1  0
  7  8  1  0
  8  9  1  0
  9 10  2  0
 10 11  1  0
 11 12  2  0
 12 13  1  0
 13 14  1  0
 14 15  2  0
 14 16  1  0
 16 17  1  0
 17 18  2  0
 18 19  1  0
 19 20  2  0
 20 21  1  0
 21 22  1  0
 21 23  2  0
 20 24  1  0
 24 25  2  0
 13 26  2  0
  7 27  2  0
 27  3  1  0
 26  9  1  0
 25 17  1  0
  1 28  1  0
  1 29  1  0
  1 30  1  0
  2 31  1  0
  4 32  1  0
  5 33  1  0
  6 34  1  0
 10 35  1  0
 11 36  1  0
 12 37  1  0
 16 38  1  0
 18 39  1  0
 19 40  1  0
 22 41  1  0
 22 42  1  0
 23 43  1  0
 23 44  1  0
 24 45  1  0
 25 46  1  0
 27 47  1  0
M  CHG  1  23   1
M  END
>  <UniqueID>  (17) 
17

>  <SMILES>  (17) 
CNc1cccc(Sc2cccc(C(=O)Nc3ccc(C(N)=[NH2+])cc3)n2)c1

>  <Energy>  (17) 
49.809276537254924

>  <Genealogy>  (17) 
CNc1cccc(Sc2cccc(C(=O)Nc3ccc(C(N)=[NH2+])cc3)n2)c1 (protonated)
CNc1cccc(Sc2cccc(C(=O)Nc3ccc(C(N)=[NH2+])cc3)n2)c1 (3D coordinates assigned)
CNc1cccc(Sc2cccc(C(=O)Nc3ccc(C(N)=[NH2+])cc3)n2)c1 (optimized conformer: 49.809276537254924 kcal/mol)

>  <smiles>  (17) 
CNc1cccc(Sc2cccc(C(=O)Nc3ccc(C(=N)N)cc3)n2)c1

>  <score_type>  (17) 
oracle

>  <origin>  (17) 
adgpu

>  <m_score__min__energy>  (17) 
-11.01

>  <m_primary>  (17) 
energy

$$$$
17:0
     RDKit          3D

 77 80  0  0  0  0  0  0  0  0999 V2000
    0.3570   17.4280  -27.9480 C   0  0  0  0  0  0  0  0  0  0  0  0
    0.8680   18.2060  -29.1660 C   0  0  0  0  0  0  0  0  0  0  0  0
    1.8620   19.2790  -28.7300 C   0  0  0  0  0  0  0  0  0  0  0  0
   -0.2220   18.8410  -29.8390 O   0  0  0  0  0  0  0  0  0  0  0  0
   -0.8910   20.0020  -29.4140 C   0  0  0  0  0  0  0  0  0  0  0  0
   -1.6220   20.0560  -28.2100 C   0  0  0  0  0  0  0  0  0  0  0  0
   -2.2900   21.2250  -27.8390 C   0  0  0  0  0  0  0  0  0  0  0  0
   -2.2390   22.3630  -28.6580 C   0  0  0  0  0  0  0  0  0  0  0  0
   -2.9870   23.6180  -28.2860 C   0  0  0  0  0  0  0  0  0  0  0  0
   -2.7310   24.7270  -29.2750 C   0  0  0  0  0  0  0  0  0  0  0  0
   -1.9100   25.6380  -28.9770 O   0  0  0  0  0  0  0  0  0  0  0  0
   -3.5220   24.8780  -30.4600 N   0  0  0  0  0  0  0  0  0  0  0  0
   -4.7380   24.1900  -30.7750 C   0  0  0  0  0  0  0  0  0  0  0  0
   -4.7300   22.7920  -30.8400 C   0  0  0  0  0  0  0  0  0  0  0  0
   -5.9110   22.0890  -31.0810 C   0  0  0  0  0  0  0  0  0  0  0  0
   -7.1180   22.7770  -31.2600 C   0  0  0  0  0  0  0  0  0  0  0  0
   -8.6100   21.8660  -31.4760 S   0  0  0  0  0  0  0  0  0  0  0  0
   -9.6630   22.7810  -32.0350 O   0  0  0  0  0  0  0  0  0  0  0  0
   -9.1000   21.3100  -30.1680 O   0  0  0  0  0  0  0  0  0  0  0  0
   -8.3200   20.5740  -32.5970 N   0  0  0  0  0  0  0  0  0  0  0  0
   -7.0640   19.8930  -32.7250 C   0  0  0  0  0  0  0  0  0  0  0  0
   -6.7130   18.8240  -31.8860 C   0  0  0  0  0  0  0  0  0  0  0  0
   -5.4630   18.2140  -32.0030 C   0  0  0  0  0  0  0  0  0  0  0  0
   -4.5260   18.6890  -32.9360 C   0  0  0  0  0  0  0  0  0  0  0  0
   -3.1600   18.0530  -33.0460 C   0  0  0  0  0  0  0  0  0  0  0  0
   -2.0360   19.0920  -33.1460 C   0  0  0  0  0  0  0  0  0  0  0  0
   -0.7860   18.5620  -32.5800 N   0  0  0  0  0  0  0  0  0  0  0  0
    0.2120   18.3050  -33.6300 C   0  0  0  0  0  0  0  0  0  0  0  0
    1.4740   19.1450  -33.3700 C   0  0  2  0  0  0  0  0  0  0  0  0
    1.6520   19.3860  -31.9960 O   0  0  0  0  0  0  0  0  0  0  0  0
    1.4550   20.4440  -34.1570 C   0  0  0  0  0  0  0  0  0  0  0  0
    2.6280   20.9190  -34.7630 C   0  0  0  0  0  0  0  0  0  0  0  0
    2.5990   22.0790  -35.5350 C   0  0  0  0  0  0  0  0  0  0  0  0
    1.3930   22.7610  -35.7030 C   0  0  0  0  0  0  0  0  0  0  0  0
    0.2610   22.2940  -35.1150 N   0  0  0  0  0  0  0  0  0  0  0  0
    0.2610   21.1640  -34.3580 C   0  0  0  0  0  0  0  0  0  0  0  0
   -4.8980   19.7220  -33.8080 C   0  0  0  0  0  0  0  0  0  0  0  0
   -6.1610   20.3150  -33.7060 C   0  0  0  0  0  0  0  0  0  0  0  0
   -7.1320   24.1770  -31.1820 C   0  0  0  0  0  0  0  0  0  0  0  0
   -5.9530   24.8770  -30.9160 C   0  0  0  0  0  0  0  0  0  0  0  0
   -1.5040   22.3130  -29.8520 C   0  0  0  0  0  0  0  0  0  0  0  0
   -0.8340   21.1460  -30.2320 C   0  0  0  0  0  0  0  0  0  0  0  0
   -0.1170   21.1390  -31.4290 O   0  0  0  0  0  0  0  0  0  0  0  0
    0.6871   17.9307  -27.0269 H   0  0  0  0  0  0  0  0  0  0  0  0
   -0.7421   17.3906  -27.9715 H   0  0  0  0  0  0  0  0  0  0  0  0
    0.7593   16.4045  -27.9715 H   0  0  0  0  0  0  0  0  0  0  0  0
    1.3623   17.4946  -29.8439 H   0  0  0  0  0  0  0  0  0  0  0  0
    1.8995   19.3194  -27.6314 H   0  0  0  0  0  0  0  0  0  0  0  0
    2.8603   19.0351  -29.1222 H   0  0  0  0  0  0  0  0  0  0  0  0
    1.5426   20.2558  -29.1222 H   0  0  0  0  0  0  0  0  0  0  0  0
   -1.6666   19.1712  -27.5580 H   0  0  0  0  0  0  0  0  0  0  0  0
   -2.8598   21.2537  -26.8985 H   0  0  0  0  0  0  0  0  0  0  0  0
   -4.0648   23.3990  -28.2655 H   0  0  0  0  0  0  0  0  0  0  0  0
   -2.6360   23.9490  -27.2975 H   0  0  0  0  0  0  0  0  0  0  0  0
   -3.7866   22.2439  -30.7002 H   0  0  0  0  0  0  0  0  0  0  0  0
   -5.8941   20.9902  -31.1306 H   0  0  0  0  0  0  0  0  0  0  0  0
   -7.4278   18.4645  -31.1312 H   0  0  0  0  0  0  0  0  0  0  0  0
   -5.2102   17.3570  -31.3614 H   0  0  0  0  0  0  0  0  0  0  0  0
   -2.9875   17.4310  -32.1553 H   0  0  0  0  0  0  0  0  0  0  0  0
   -3.1436   17.4523  -33.9674 H   0  0  0  0  0  0  0  0  0  0  0  0
   -1.8737   19.3477  -34.2035 H   0  0  0  0  0  0  0  0  0  0  0  0
   -2.3300   19.9868  -32.5777 H   0  0  0  0  0  0  0  0  0  0  0  0
   -0.4010   19.2800  -31.9240 H   0  0  0  0  0  0  0  0  0  0  0  0
    0.4775   17.2375  -33.6274 H   0  0  0  0  0  0  0  0  0  0  0  0
   -0.2114   18.5806  -34.6071 H   0  0  0  0  0  0  0  0  0  0  0  0
    2.3353   18.5592  -33.7234 H   0  0  0  0  0  0  0  0  0  0  0  0
    0.8220   19.1190  -31.5260 H   0  0  0  0  0  0  0  0  0  0  0  0
    3.5739   20.3739  -34.6283 H   0  0  0  0  0  0  0  0  0  0  0  0
    3.5188   22.4538  -36.0078 H   0  0  0  0  0  0  0  0  0  0  0  0
    1.3591   23.6767  -36.3116 H   0  0  0  0  0  0  0  0  0  0  0  0
   -0.6751   20.8109  -33.9009 H   0  0  0  0  0  0  0  0  0  0  0  0
   -4.1922   20.0684  -34.5773 H   0  0  0  0  0  0  0  0  0  0  0  0
   -6.4456   21.1181  -34.4017 H   0  0  0  0  0  0  0  0  0  0  0  0
   -8.0739   24.7253  -31.3307 H   0  0  0  0  0  0  0  0  0  0  0  0
   -5.9773   25.9722  -30.8166 H   0  0  0  0  0  0  0  0  0  0  0  0
   -1.4542   23.2026  -30.4970 H   0  0  0  0  0  0  0  0  0  0  0  0
    0.3090   20.2980  -31.7960 H   0  0  0  0  0  0  0  0  0  0  0  0
  1  2  1  0
  2  3  1  0
  2  4  1  0
  4  5  1  0
  5  6  2  0
  6  7  1  0
  7  8  2  0
  8  9  1  0
  9 10  1  0
 10 11  2  0
 10 12  1  0
 12 13  1  0
 13 14  2  0
 14 15  1  0
 15 16  2  0
 16 17  1  0
 17 18  2  0
 17 19  2  0
 17 20  1  0
 20 21  1  0
 21 22  2  0
 22 23  1  0
 23 24  2  0
 24 25  1  0
 25 26  1  0
 26 27  1  0
 27 28  1  0
 28 29  1  0
 29 30  1  0
 29 31  1  0
 31 32  2  0
 32 33  1  0
 33 34  2  0
 34 35  1  0
 35 36  2  0
 24 37  1  0
 37 38  2  0
 16 39  1  0
 39 40  2  0
  8 41  1  0
 41 42  2  0
 42 43  1  0
 42  5  1  0
 40 13  1  0
 38 21  1  0
 36 31  1  0
  1 44  1  0
  1 45  1  0
  1 46  1  0
  2 47  1  0
  3 48  1  0
  3 49  1  0
  3 50  1  0
  6 51  1  0
  7 52  1  0
  9 53  1  0
  9 54  1  0
 14 55  1  0
 15 56  1  0
 22 57  1  0
 23 58  1  0
 25 59  1  0
 25 60  1  0
 26 61  1  0
 26 62  1  0
 27 63  1  0
 28 64  1  0
 28 65  1  0
 29 66  1  6
 30 67  1  0
 32 68  1  0
 33 69  1  0
 34 70  1  0
 36 71  1  0
 37 72  1  0
 38 73  1  0
 39 74  1  0
 40 75  1  0
 41 76  1  0
 43 77  1  0
M  CHG  2  12  -1  20  -1
M  END
>  <UniqueID>  (18) 
18

>  <SMILES>  (18) 
CC(C)Oc1ccc(CC(=O)[N-]c2ccc(S(=O)(=O)[N-]c3ccc(CCNC[C@H](O)c4cccnc4)cc3)cc2)cc1O

>  <Energy>  (18) 
77.0564676587841

>  <Genealogy>  (18) 
CC(C)Oc1ccc(CC(=O)[N-]c2ccc(S(=O)(=O)[N-]c3ccc(CCNCC(O)c4cccnc4)cc3)cc2)cc1O (protonated)
CC(C)Oc1ccc(CC(=O)[N-]c2ccc(S(=O)(=O)[N-]c3ccc(CCNC[C@H](O)c4cccnc4)cc3)cc2)cc1O (chirality)
CC(C)Oc1ccc(CC(=O)[N-]c2ccc(S(=O)(=O)[N-]c3ccc(CCNC[C@H](O)c4cccnc4)cc3)cc2)cc1O (3D coordinates assigned)
CC(C)Oc1ccc(CC(=O)[N-]c2ccc(S(=O)(=O)[N-]c3ccc(CCNC[C@H](O)c4cccnc4)cc3)cc2)cc1O (optimized conformer: 77.0564676587841 kcal/mol)

>  <smiles>  (18) 
CC(C)Oc1ccc(CC(=O)Nc2ccc(S(=O)(=O)Nc3ccc(CCNCC(O)c4cccnc4)cc3)cc2)cc1O

>  <score_type>  (18) 
oracle

>  <origin>  (18) 
adgpu

>  <m_score__min__energy>  (18) 
-12.52

>  <m_primary>  (18) 
energy

$$$$
18:0
     RDKit          3D

 50 52  0  0  0  0  0  0  0  0999 V2000
   -2.8020   21.6690  -27.4950 C   0  0  0  0  0  0  0  0  0  0  0  0
   -1.8670   21.8780  -28.6410 C   0  0  0  0  0  0  0  0  0  0  0  0
   -1.0460   20.9270  -29.1260 N   0  0  0  0  0  0  0  0  0  0  0  0
   -0.4130   21.4490  -30.1380 O   0  0  0  0  0  0  0  0  0  0  0  0
   -0.7840   22.6910  -30.3500 C   0  0  0  0  0  0  0  0  0  0  0  0
   -1.7320   23.0160  -29.4070 C   0  0  0  0  0  0  0  0  0  0  0  0
   -2.5580   24.5560  -29.2180 S   0  0  0  0  0  0  0  0  0  0  0  0
   -1.5490   25.6640  -29.3120 O   0  0  0  0  0  0  0  0  0  0  0  0
   -3.2350   24.6240  -27.8780 O   0  0  0  0  0  0  0  0  0  0  0  0
   -3.7420   24.7500  -30.4680 N   0  0  0  0  0  0  0  0  0  0  0  0
   -4.7290   23.7710  -30.8240 C   0  0  0  0  0  0  0  0  0  0  0  0
   -4.5170   22.3940  -30.6340 C   0  0  0  0  0  0  0  0  0  0  0  0
   -5.4970   21.4720  -31.0110 C   0  0  0  0  0  0  0  0  0  0  0  0
   -6.7100   21.9130  -31.5600 C   0  0  0  0  0  0  0  0  0  0  0  0
   -7.9650   20.7460  -31.9860 S   0  0  0  0  0  0  0  0  0  0  0  0
   -9.0730   21.4580  -32.7100 O   0  0  0  0  0  0  0  0  0  0  0  0
   -8.5390   20.1480  -30.7270 O   0  0  0  0  0  0  0  0  0  0  0  0
   -7.3370   19.4730  -33.0120 N   0  0  2  0  0  0  0  0  0  0  0  0
   -7.1580   18.2290  -32.2200 C   0  0  0  0  0  0  0  0  0  0  0  0
   -6.2330   17.2060  -32.9160 C   0  0  1  0  0  0  0  0  0  0  0  0
   -6.8990   16.6140  -34.1680 C   0  0  0  0  0  0  0  0  0  0  0  0
   -4.8390   17.8140  -33.2320 C   0  0  0  0  0  0  0  0  0  0  0  0
   -4.8190   19.3540  -33.1300 C   0  0  1  0  0  0  0  0  0  0  0  0
   -3.5810   19.9380  -33.8200 C   0  0  0  0  0  0  0  0  0  0  0  0
   -6.1160   19.9290  -33.7320 C   0  0  0  0  0  0  0  0  0  0  0  0
   -6.9230   23.2860  -31.7440 C   0  0  0  0  0  0  0  0  0  0  0  0
   -5.9380   24.2070  -31.3790 C   0  0  0  0  0  0  0  0  0  0  0  0
   -2.2550   21.7913  -26.5485 H   0  0  0  0  0  0  0  0  0  0  0  0
   -3.6157   22.4074  -27.5463 H   0  0  0  0  0  0  0  0  0  0  0  0
   -3.2238   20.6544  -27.5463 H   0  0  0  0  0  0  0  0  0  0  0  0
   -0.4041   23.3540  -31.1413 H   0  0  0  0  0  0  0  0  0  0  0  0
   -3.5760   22.0412  -30.1868 H   0  0  0  0  0  0  0  0  0  0  0  0
   -5.3163   20.3953  -30.8766 H   0  0  0  0  0  0  0  0  0  0  0  0
   -8.0800   19.2910  -33.7270 H   0  0  0  0  0  0  0  0  0  0  0  0
   -8.1434   17.7648  -32.0666 H   0  0  0  0  0  0  0  0  0  0  0  0
   -6.6863   18.5078  -31.2662 H   0  0  0  0  0  0  0  0  0  0  0  0
   -6.0660   16.3773  -32.2122 H   0  0  0  0  0  0  0  0  0  0  0  0
   -7.6894   15.9114  -33.8654 H   0  0  0  0  0  0  0  0  0  0  0  0
   -7.3388   17.4247  -34.7674 H   0  0  0  0  0  0  0  0  0  0  0  0
   -6.1455   16.0821  -34.7674 H   0  0  0  0  0  0  0  0  0  0  0  0
   -4.5540   17.5261  -34.2547 H   0  0  0  0  0  0  0  0  0  0  0  0
   -4.1316   17.4242  -32.4852 H   0  0  0  0  0  0  0  0  0  0  0  0
   -4.7641   19.6391  -32.0690 H   0  0  0  0  0  0  0  0  0  0  0  0
   -2.8627   20.2769  -33.0590 H   0  0  0  0  0  0  0  0  0  0  0  0
   -3.1128   19.1658  -34.4481 H   0  0  0  0  0  0  0  0  0  0  0  0
   -3.8792   20.7904  -34.4481 H   0  0  0  0  0  0  0  0  0  0  0  0
   -6.1876   19.6103  -34.7824 H   0  0  0  0  0  0  0  0  0  0  0  0
   -6.0668   21.0241  -33.6407 H   0  0  0  0  0  0  0  0  0  0  0  0
   -7.8699   23.6400  -32.1777 H   0  0  0  0  0  0  0  0  0  0  0  0
   -6.1137   25.2825  -31.5288 H   0  0  0  0  0  0  0  0  0  0  0  0
  1  2  1  0
  2  3  2  0
  3  4  1  0
  4  5  1  0
  5  6  2  0
  6  7  1  0
  7  8  2  0
  7  9  2  0
  7 10  1  0
 10 11  1  0
 11 12  2  0
 12 13  1  0
 13 14  2  0
 14 15  1  0
 15 16  2  0
 15 17  2  0
 15 18  1  0
 18 19  1  0
 19 20  1  0
 20 21  1  0
 20 22  1  0
 22 23  1  0
 23 24  1  0
 23 25  1  0
 14 26  1  0
 26 27  2  0
  6  2  1  0
 27 11  1  0
 25 18  1  0
  1 28  1  0
  1 29  1  0
  1 30  1  0
  5 31  1  0
 12 32  1  0
 13 33  1  0
 18 34  1  6
 19 35  1  0
 19 36  1  0
 20 37  1  1
 21 38  1  0
 21 39  1  0
 21 40  1  0
 22 41  1  0
 22 42  1  0
 23 43  1  1
 24 44  1  0
 24 45  1  0
 24 46  1  0
 25 47  1  0
 25 48  1  0
 26 49  1  0
 27 50  1  0
M  CHG  2  10  -1  18   1
M  END
>  <UniqueID>  (19) 
19

>  <SMILES>  (19) 
Cc1nocc1S(=O)(=O)[N-]c1ccc(S(=O)(=O)[NH+]2C[C@H](C)C[C@H](C)C2)cc1

>  <Energy>  (19) 
85.9959880875058

>  <Genealogy>  (19) 
Cc1nocc1S(=O)(=O)[N-]c1ccc(S(=O)(=O)[NH+]2CC(C)CC(C)C2)cc1 (protonated)
Cc1nocc1S(=O)(=O)[N-]c1ccc(S(=O)(=O)[NH+]2C[C@H](C)C[C@H](C)C2)cc1 (chirality)
Cc1nocc1S(=O)(=O)[N-]c1ccc(S(=O)(=O)[NH+]2C[C@H](C)C[C@H](C)C2)cc1 (3D coordinates assigned)
Cc1nocc1S(=O)(=O)[N-]c1ccc(S(=O)(=O)[NH+]2C[C@H](C)C[C@H](C)C2)cc1 (nonaromatic ring conformer: 85.9959880875058 kcal/mol)

>  <smiles>  (19) 
Cc1nocc1S(=O)(=O)Nc1ccc(S(=O)(=O)N2CC(C)CC(C)C2)cc1

>  <score_type>  (19) 
oracle

>  <origin>  (19) 
adgpu

>  <m_score__min__energy>  (19) 
-10.35

>  <m_primary>  (19) 
energy

$$$$
19:0
     RDKit          3D

 56 59  0  0  0  0  0  0  0  0999 V2000
   -5.9300   26.1440  -29.7270 O   0  0  0  0  0  0  0  0  0  0  0  0
   -5.2690   25.1980  -30.2340 C   0  0  0  0  0  0  0  0  0  0  0  0
   -3.8360   25.2810  -30.2490 N   0  0  0  0  0  0  0  0  0  0  0  0
   -2.9950   24.5900  -29.3170 C   0  0  0  0  0  0  0  0  0  0  0  0
   -3.4770   24.2220  -28.0510 C   0  0  0  0  0  0  0  0  0  0  0  0
   -2.7340   23.3640  -27.2390 C   0  0  0  0  0  0  0  0  0  0  0  0
   -1.5040   22.8640  -27.6850 C   0  0  0  0  0  0  0  0  0  0  0  0
   -0.6870   21.6010  -26.7650 S   0  0  0  0  0  0  0  0  0  0  0  0
    0.5490   22.1680  -26.1230 O   0  0  0  0  0  0  0  0  0  0  0  0
   -1.6000   21.1140  -25.6740 O   0  0  0  0  0  0  0  0  0  0  0  0
   -0.2420   20.2570  -27.7920 N   0  0  0  0  0  0  0  0  0  0  0  0
   -0.7420   18.9900  -27.2300 C   0  0  0  0  0  0  0  0  0  0  0  0
   -0.1220   17.7810  -27.9620 C   0  0  0  0  0  0  0  0  0  0  0  0
    0.4820   18.1810  -29.1760 O   0  0  0  0  0  0  0  0  0  0  0  0
    1.5850   19.0310  -28.9090 C   0  0  0  0  0  0  0  0  0  0  0  0
    1.2180   20.1930  -27.9610 C   0  0  0  0  0  0  0  0  0  0  0  0
   -0.9800   23.3050  -28.9090 C   0  0  0  0  0  0  0  0  0  0  0  0
   -1.7180   24.1760  -29.7160 C   0  0  0  0  0  0  0  0  0  0  0  0
   -5.9840   24.0330  -30.8100 C   0  0  0  0  0  0  0  0  0  0  0  0
   -5.5810   23.4840  -32.0410 C   0  0  0  0  0  0  0  0  0  0  0  0
   -6.1740   22.3150  -32.5230 C   0  0  0  0  0  0  0  0  0  0  0  0
   -7.2050   21.7000  -31.8040 C   0  0  0  0  0  0  0  0  0  0  0  0
   -7.9070   20.1910  -32.3780 S   0  0  0  0  0  0  0  0  0  0  0  0
   -9.3880   20.2340  -32.1220 O   0  0  0  0  0  0  0  0  0  0  0  0
   -7.6620   20.0520  -33.8560 O   0  0  0  0  0  0  0  0  0  0  0  0
   -7.1980   18.8350  -31.5260 N   0  0  0  0  0  0  0  0  0  0  0  0
   -5.7350   18.8650  -31.6350 C   0  0  0  0  0  0  0  0  0  0  0  0
   -5.3230   17.9660  -32.7930 C   0  0  0  0  0  0  0  0  0  0  0  0
   -6.5630   17.1740  -33.1620 C   0  0  0  0  0  0  0  0  0  0  0  0
   -7.6120   17.5670  -32.1350 C   0  0  0  0  0  0  0  0  0  0  0  0
   -7.6460   22.2700  -30.6020 C   0  0  0  0  0  0  0  0  0  0  0  0
   -7.0420   23.4320  -30.1090 C   0  0  0  0  0  0  0  0  0  0  0  0
   -4.4434   24.6111  -27.6979 H   0  0  0  0  0  0  0  0  0  0  0  0
   -3.1150   23.0799  -26.2470 H   0  0  0  0  0  0  0  0  0  0  0  0
   -0.4776   18.9398  -26.1634 H   0  0  0  0  0  0  0  0  0  0  0  0
   -1.8341   18.9557  -27.3567 H   0  0  0  0  0  0  0  0  0  0  0  0
    0.6396   17.3206  -27.3155 H   0  0  0  0  0  0  0  0  0  0  0  0
   -0.9212   17.0599  -28.1883 H   0  0  0  0  0  0  0  0  0  0  0  0
    2.3851   18.4358  -28.4447 H   0  0  0  0  0  0  0  0  0  0  0  0
    1.9099   19.4683  -29.8646 H   0  0  0  0  0  0  0  0  0  0  0  0
    1.6920   20.0290  -26.9820 H   0  0  0  0  0  0  0  0  0  0  0  0
    1.5753   21.1398  -28.3922 H   0  0  0  0  0  0  0  0  0  0  0  0
    0.0140   22.9647  -29.2348 H   0  0  0  0  0  0  0  0  0  0  0  0
   -1.2952   24.5365  -30.6654 H   0  0  0  0  0  0  0  0  0  0  0  0
   -4.7933   23.9789  -32.6280 H   0  0  0  0  0  0  0  0  0  0  0  0
   -5.8294   21.8762  -33.4710 H   0  0  0  0  0  0  0  0  0  0  0  0
   -5.3973   19.8945  -31.8250 H   0  0  0  0  0  0  0  0  0  0  0  0
   -5.2780   18.5108  -30.6992 H   0  0  0  0  0  0  0  0  0  0  0  0
   -4.9869   18.5717  -33.6475 H   0  0  0  0  0  0  0  0  0  0  0  0
   -4.4881   17.3056  -32.5160 H   0  0  0  0  0  0  0  0  0  0  0  0
   -6.8997   17.4360  -34.1759 H   0  0  0  0  0  0  0  0  0  0  0  0
   -6.3728   16.0906  -33.1591 H   0  0  0  0  0  0  0  0  0  0  0  0
   -8.5881   17.6904  -32.6270 H   0  0  0  0  0  0  0  0  0  0  0  0
   -7.7047   16.7862  -31.3658 H   0  0  0  0  0  0  0  0  0  0  0  0
   -8.4703   21.8020  -30.0438 H   0  0  0  0  0  0  0  0  0  0  0  0
   -7.3976   23.8768  -29.1679 H   0  0  0  0  0  0  0  0  0  0  0  0
  1  2  2  0
  2  3  1  0
  3  4  1  0
  4  5  2  0
  5  6  1  0
  6  7  2  0
  7  8  1  0
  8  9  2  0
  8 10  2  0
  8 11  1  0
 11 12  1  0
 12 13  1  0
 13 14  1  0
 14 15  1  0
 15 16  1  0
  7 17  1  0
 17 18  2  0
  2 19  1  0
 19 20  2  0
 20 21  1  0
 21 22  2  0
 22 23  1  0
 23 24  2  0
 23 25  2  0
 23 26  1  0
 26 27  1  0
 27 28  1  0
 28 29  1  0
 29 30  1  0
 22 31  1  0
 31 32  2  0
 18  4  1  0
 32 19  1  0
 16 11  1  0
 30 26  1  0
  5 33  1  0
  6 34  1  0
 12 35  1  0
 12 36  1  0
 13 37  1  0
 13 38  1  0
 15 39  1  0
 15 40  1  0
 16 41  1  0
 16 42  1  0
 17 43  1  0
 18 44  1  0
 20 45  1  0
 21 46  1  0
 27 47  1  0
 27 48  1  0
 28 49  1  0
 28 50  1  0
 29 51  1  0
 29 52  1  0
 30 53  1  0
 30 54  1  0
 31 55  1  0
 32 56  1  0
M  CHG  1   3  -1
M  END
>  <UniqueID>  (20) 
20

>  <SMILES>  (20) 
O=C([N-]c1ccc(S(=O)(=O)N2CCOCC2)cc1)c1ccc(S(=O)(=O)N2CCCC2)cc1

>  <Energy>  (20) 
72.09466101375054

>  <Genealogy>  (20) 
O=C([N-]c1ccc(S(=O)(=O)N2CCOCC2)cc1)c1ccc(S(=O)(=O)N2CCCC2)cc1 (protonated)
O=C([N-]c1ccc(S(=O)(=O)N2CCOCC2)cc1)c1ccc(S(=O)(=O)N2CCCC2)cc1 (3D coordinates assigned)
O=C([N-]c1ccc(S(=O)(=O)N2CCOCC2)cc1)c1ccc(S(=O)(=O)N2CCCC2)cc1 (nonaromatic ring conformer: 72.09466101375054 kcal/mol)

>  <smiles>  (20) 
O=C(Nc1ccc(S(=O)(=O)N2CCOCC2)cc1)c1ccc(S(=O)(=O)N2CCCC2)cc1

>  <score_type>  (20) 
oracle

>  <origin>  (20) 
adgpu

>  <m_score__min__energy>  (20) 
-12.640000000000001

>  <m_primary>  (20) 
energy

$$$$
20:0
     RDKit          3D

 32 33  0  0  0  0  0  0  0  0999 V2000
   -8.0330   18.7210  -31.9100 C   0  0  0  0  0  0  0  0  0  0  0  0
   -7.0660   18.6490  -33.0520 C   0  0  0  0  0  0  0  0  0  0  0  0
   -6.8760   17.5410  -33.6200 O   0  0  0  0  0  0  0  0  0  0  0  0
   -6.3190   19.7910  -33.4910 N   0  0  0  0  0  0  0  0  0  0  0  0
   -6.0920   20.9990  -32.7530 C   0  0  0  0  0  0  0  0  0  0  0  0
   -4.7760   21.4340  -32.5520 C   0  0  0  0  0  0  0  0  0  0  0  0
   -4.5210   22.6170  -31.8540 C   0  0  0  0  0  0  0  0  0  0  0  0
   -5.5810   23.3890  -31.3640 C   0  0  0  0  0  0  0  0  0  0  0  0
   -5.2520   24.8700  -30.4700 S   0  0  0  0  0  0  0  0  0  0  0  0
   -5.8270   26.0330  -31.2290 O   0  0  0  0  0  0  0  0  0  0  0  0
   -5.8780   24.8170  -29.1050 O   0  0  0  0  0  0  0  0  0  0  0  0
   -3.5410   25.0930  -30.3010 N   0  0  0  0  0  0  0  0  0  0  0  0
   -2.7040   24.3970  -29.3650 C   0  0  0  0  0  0  0  0  0  0  0  0
   -3.0050   23.0950  -28.9210 C   0  0  0  0  0  0  0  0  0  0  0  0
   -2.1600   22.4470  -28.0140 C   0  0  0  0  0  0  0  0  0  0  0  0
   -1.0140   23.0900  -27.5430 C   0  0  0  0  0  0  0  0  0  0  0  0
   -0.7100   24.3830  -27.9750 C   0  0  0  0  0  0  0  0  0  0  0  0
   -1.5510   25.0360  -28.8830 C   0  0  0  0  0  0  0  0  0  0  0  0
   -1.2350   26.3220  -29.3070 O   0  0  0  0  0  0  0  0  0  0  0  0
   -6.9010   22.9770  -31.5940 C   0  0  0  0  0  0  0  0  0  0  0  0
   -7.1560   21.7920  -32.2910 C   0  0  0  0  0  0  0  0  0  0  0  0
   -7.4813   18.6799  -30.9592 H   0  0  0  0  0  0  0  0  0  0  0  0
   -8.5972   19.6636  -31.9661 H   0  0  0  0  0  0  0  0  0  0  0  0
   -8.7305   17.8723  -31.9661 H   0  0  0  0  0  0  0  0  0  0  0  0
   -3.9379   20.8405  -32.9462 H   0  0  0  0  0  0  0  0  0  0  0  0
   -3.4835   22.9430  -31.6888 H   0  0  0  0  0  0  0  0  0  0  0  0
   -3.9079   22.5857  -29.2888 H   0  0  0  0  0  0  0  0  0  0  0  0
   -2.3989   21.4294  -27.6714 H   0  0  0  0  0  0  0  0  0  0  0  0
   -0.3499   22.5780  -26.8311 H   0  0  0  0  0  0  0  0  0  0  0  0
    0.1922   24.8889  -27.6008 H   0  0  0  0  0  0  0  0  0  0  0  0
   -7.7384   23.5875  -31.2252 H   0  0  0  0  0  0  0  0  0  0  0  0
   -8.1938   21.4793  -32.4784 H   0  0  0  0  0  0  0  0  0  0  0  0
  1  2  1  0
  2  3  2  0
  2  4  1  0
  4  5  1  0
  5  6  2  0
  6  7  1  0
  7  8  2  0
  8  9  1  0
  9 10  2  0
  9 11  2  0
  9 12  1  0
 12 13  1  0
 13 14  2  0
 14 15  1  0
 15 16  2  0
 16 17  1  0
 17 18  2  0
 18 19  1  0
  8 20  1  0
 20 21  2  0
 21  5  1  0
 18 13  1  0
  1 22  1  0
  1 23  1  0
  1 24  1  0
  6 25  1  0
  7 26  1  0
 14 27  1  0
 15 28  1  0
 16 29  1  0
 17 30  1  0
 20 31  1  0
 21 32  1  0
M  CHG  3   4  -1  12  -1  19  -1
M  END
>  <UniqueID>  (21) 
21

>  <SMILES>  (21) 
CC(=O)[N-]c1ccc(S(=O)(=O)[N-]c2ccccc2[O-])cc1

>  <Energy>  (21) 
39.18270898064697

>  <Genealogy>  (21) 
CC(=O)[N-]c1ccc(S(=O)(=O)[N-]c2ccccc2[O-])cc1 (protonated)
CC(=O)[N-]c1ccc(S(=O)(=O)[N-]c2ccccc2[O-])cc1 (3D coordinates assigned)
CC(=O)[N-]c1ccc(S(=O)(=O)[N-]c2ccccc2[O-])cc1 (optimized conformer: 39.18270898064697 kcal/mol)

>  <smiles>  (21) 
CC(=O)Nc1ccc(S(=O)(=O)Nc2ccccc2O)cc1

>  <score_type>  (21) 
oracle

>  <origin>  (21) 
adgpu

>  <m_score__min__energy>  (21) 
-12.35

>  <m_primary>  (21) 
energy

$$$$
21:0
     RDKit          3D

 46 49  0  0  0  0  0  0  0  0999 V2000
   -3.0050   23.5750  -27.4410 O   0  0  0  0  0  0  0  0  0  0  0  0
   -2.5310   24.6080  -27.9850 C   0  0  0  0  0  0  0  0  0  0  0  0
   -1.5710   25.4660  -27.2270 C   0  0  0  0  0  0  0  0  0  0  0  0
    0.1390   25.2200  -27.8150 S   0  0  0  0  0  0  0  0  0  0  0  0
   -0.1440   23.5670  -28.4490 C   0  0  0  0  0  0  0  0  0  0  0  0
    0.1980   22.4830  -27.6920 N   0  0  0  0  0  0  0  0  0  0  0  0
    0.0380   21.2180  -28.1690 C   0  0  0  0  0  0  0  0  0  0  0  0
    0.3540   20.2280  -27.4600 O   0  0  0  0  0  0  0  0  0  0  0  0
   -0.4780   21.0440  -29.4520 C   0  0  0  0  0  0  0  0  0  0  0  0
   -0.8240   22.1380  -30.1860 C   0  0  0  0  0  0  0  0  0  0  0  0
   -0.6640   23.3940  -29.6990 N   0  0  0  0  0  0  0  0  0  0  0  0
   -1.3680   21.7820  -31.5150 C   0  0  0  0  0  0  0  0  0  0  0  0
   -1.2620   20.2440  -31.5530 C   0  0  0  0  0  0  0  0  0  0  0  0
   -0.7250   19.7800  -30.1830 C   0  0  0  0  0  0  0  0  0  0  0  0
   -2.8220   24.9190  -29.3520 N   0  0  0  0  0  0  0  0  0  0  0  0
   -3.9490   24.4580  -30.1110 C   0  0  0  0  0  0  0  0  0  0  0  0
   -3.9670   23.1300  -30.5500 C   0  0  0  0  0  0  0  0  0  0  0  0
   -5.0530   22.6390  -31.2770 C   0  0  0  0  0  0  0  0  0  0  0  0
   -6.1150   23.4820  -31.6200 C   0  0  0  0  0  0  0  0  0  0  0  0
   -7.1960   22.9480  -32.3360 O   0  0  0  0  0  0  0  0  0  0  0  0
   -7.5700   21.5970  -32.3420 C   0  0  0  0  0  0  0  0  0  0  0  0
   -6.8140   20.6250  -33.0250 C   0  0  0  0  0  0  0  0  0  0  0  0
   -7.2140   19.2840  -33.0050 C   0  0  0  0  0  0  0  0  0  0  0  0
   -8.3580   18.9030  -32.2960 C   0  0  0  0  0  0  0  0  0  0  0  0
   -9.0980   19.8610  -31.5980 C   0  0  0  0  0  0  0  0  0  0  0  0
   -8.6990   21.2030  -31.6140 C   0  0  0  0  0  0  0  0  0  0  0  0
   -6.0920   24.8220  -31.1970 C   0  0  0  0  0  0  0  0  0  0  0  0
   -5.0120   25.3100  -30.4560 C   0  0  0  0  0  0  0  0  0  0  0  0
   -1.8488   26.5217  -27.3626 H   0  0  0  0  0  0  0  0  0  0  0  0
   -1.6178   25.1864  -26.1642 H   0  0  0  0  0  0  0  0  0  0  0  0
   -0.9240   24.2220  -30.2820 H   0  0  0  0  0  0  0  0  0  0  0  0
   -2.4151   22.1055  -31.6098 H   0  0  0  0  0  0  0  0  0  0  0  0
   -0.8273   22.2672  -32.3410 H   0  0  0  0  0  0  0  0  0  0  0  0
   -2.2534   19.8040  -31.7360 H   0  0  0  0  0  0  0  0  0  0  0  0
   -0.5884   19.9228  -32.3612 H   0  0  0  0  0  0  0  0  0  0  0  0
   -1.4701   19.1636  -29.6587 H   0  0  0  0  0  0  0  0  0  0  0  0
    0.1769   19.1562  -30.2695 H   0  0  0  0  0  0  0  0  0  0  0  0
   -3.1192   22.4677  -30.3207 H   0  0  0  0  0  0  0  0  0  0  0  0
   -5.0736   21.5823  -31.5820 H   0  0  0  0  0  0  0  0  0  0  0  0
   -5.9081   20.9200  -33.5748 H   0  0  0  0  0  0  0  0  0  0  0  0
   -6.6276   18.5281  -33.5479 H   0  0  0  0  0  0  0  0  0  0  0  0
   -8.6750   17.8497  -32.2879 H   0  0  0  0  0  0  0  0  0  0  0  0
   -9.9944   19.5607  -31.0357 H   0  0  0  0  0  0  0  0  0  0  0  0
   -9.2758   21.9519  -31.0514 H   0  0  0  0  0  0  0  0  0  0  0  0
   -6.9282   25.4902  -31.4504 H   0  0  0  0  0  0  0  0  0  0  0  0
   -4.9941   26.3641  -30.1420 H   0  0  0  0  0  0  0  0  0  0  0  0
  1  2  2  0
  2  3  1  0
  3  4  1  0
  4  5  1  0
  5  6  2  0
  6  7  1  0
  7  8  2  0
  7  9  1  0
  9 10  2  0
 10 11  1  0
 10 12  1  0
 12 13  1  0
 13 14  1  0
  2 15  1  0
 15 16  1  0
 16 17  2  0
 17 18  1  0
 18 19  2  0
 19 20  1  0
 20 21  1  0
 21 22  2  0
 22 23  1  0
 23 24  2  0
 24 25  1  0
 25 26  2  0
 19 27  1  0
 27 28  2  0
 11  5  1  0
 28 16  1  0
 14  9  1  0
 26 21  1  0
  3 29  1  0
  3 30  1  0
 11 31  1  0
 12 32  1  0
 12 33  1  0
 13 34  1  0
 13 35  1  0
 14 36  1  0
 14 37  1  0
 17 38  1  0
 18 39  1  0
 22 40  1  0
 23 41  1  0
 24 42  1  0
 25 43  1  0
 26 44  1  0
 27 45  1  0
 28 46  1  0
M  CHG  1  15  -1
M  END
>  <UniqueID>  (22) 
22

>  <SMILES>  (22) 
O=C(CSc1nc(=O)c2c([nH]1)CCC2)[N-]c1ccc(Oc2ccccc2)cc1

>  <Energy>  (22) 
61.531045242865055

>  <Genealogy>  (22) 
O=C(CSc1nc(=O)c2c([nH]1)CCC2)[N-]c1ccc(Oc2ccccc2)cc1 (protonated)
O=C(CSc1nc(=O)c2c([nH]1)CCC2)[N-]c1ccc(Oc2ccccc2)cc1 (3D coordinates assigned)
O=C(CSc1nc(=O)c2c([nH]1)CCC2)[N-]c1ccc(Oc2ccccc2)cc1 (nonaromatic ring conformer: 61.531045242865055 kcal/mol)

>  <smiles>  (22) 
O=C(CSc1nc(=O)c2c([nH]1)CCC2)Nc1ccc(Oc2ccccc2)cc1

>  <score_type>  (22) 
oracle

>  <origin>  (22) 
adgpu

>  <m_score__min__energy>  (22) 
-10.98

>  <m_primary>  (22) 
energy

$$$$
22:0
     RDKit          3D

 53 56  0  0  0  0  0  0  0  0999 V2000
   -9.1780   19.2840  -32.4140 C   0  0  0  0  0  0  0  0  0  0  0  0
   -8.0390   20.1520  -32.1450 N   0  0  0  0  0  0  0  0  0  0  0  0
   -8.2100   21.5480  -31.8530 C   0  0  0  0  0  0  0  0  0  0  0  0
   -9.3540   22.0690  -31.9660 O   0  0  0  0  0  0  0  0  0  0  0  0
   -7.0650   22.3940  -31.4400 C   0  0  0  0  0  0  0  0  0  0  0  0
   -7.2420   23.7770  -31.2610 C   0  0  0  0  0  0  0  0  0  0  0  0
   -6.1740   24.5830  -30.8590 C   0  0  0  0  0  0  0  0  0  0  0  0
   -4.9180   24.0190  -30.6320 C   0  0  0  0  0  0  0  0  0  0  0  0
   -4.7190   22.6400  -30.8120 C   0  0  0  0  0  0  0  0  0  0  0  0
   -3.4770   22.0330  -30.5670 O   0  0  0  0  0  0  0  0  0  0  0  0
   -2.5160   21.7240  -31.5400 C   0  0  0  0  0  0  0  0  0  0  0  0
   -2.8630   21.4960  -32.8830 C   0  0  0  0  0  0  0  0  0  0  0  0
   -1.8770   21.1740  -33.8200 C   0  0  0  0  0  0  0  0  0  0  0  0
   -0.5350   21.0810  -33.4360 C   0  0  0  0  0  0  0  0  0  0  0  0
    0.4420   20.7290  -34.4260 N   0  0  0  0  0  0  0  0  0  0  0  0
    0.6260   21.3520  -35.7040 C   0  0  0  0  0  0  0  0  0  0  0  0
    0.6000   20.6700  -36.7630 O   0  0  0  0  0  0  0  0  0  0  0  0
    0.8990   22.7920  -35.7700 C   0  0  0  0  0  0  0  0  0  0  0  0
    2.1440   23.3900  -35.6970 C   0  0  0  0  0  0  0  0  0  0  0  0
    1.8810   24.7390  -35.8270 C   0  0  0  0  0  0  0  0  0  0  0  0
    2.9200   25.8180  -35.8600 C   0  0  0  0  0  0  0  0  0  0  0  0
    0.5430   24.9130  -35.9470 N   0  0  0  0  0  0  0  0  0  0  0  0
   -0.1780   26.1460  -36.1100 C   0  0  0  0  0  0  0  0  0  0  0  0
   -0.1410   27.1150  -35.0930 C   0  0  0  0  0  0  0  0  0  0  0  0
   -0.8210   28.3270  -35.2460 C   0  0  0  0  0  0  0  0  0  0  0  0
   -1.5330   28.5870  -36.4200 C   0  0  0  0  0  0  0  0  0  0  0  0
   -1.5570   27.6390  -37.4470 C   0  0  0  0  0  0  0  0  0  0  0  0
   -0.8780   26.4250  -37.2970 C   0  0  0  0  0  0  0  0  0  0  0  0
   -0.0550   23.7310  -35.9270 N   0  0  0  0  0  0  0  0  0  0  0  0
   -0.1930   21.2680  -32.0840 C   0  0  0  0  0  0  0  0  0  0  0  0
   -1.1800   21.5880  -31.1470 C   0  0  0  0  0  0  0  0  0  0  0  0
   -5.7970   21.8330  -31.1960 C   0  0  0  0  0  0  0  0  0  0  0  0
   -9.6169   18.9495  -31.4624 H   0  0  0  0  0  0  0  0  0  0  0  0
   -9.9329   19.8380  -32.9913 H   0  0  0  0  0  0  0  0  0  0  0  0
   -8.8441   18.4092  -32.9913 H   0  0  0  0  0  0  0  0  0  0  0  0
   -7.0800   19.7430  -32.2170 H   0  0  0  0  0  0  0  0  0  0  0  0
   -8.2293   24.2282  -31.4389 H   0  0  0  0  0  0  0  0  0  0  0  0
   -6.3235   25.6640  -30.7212 H   0  0  0  0  0  0  0  0  0  0  0  0
   -4.0809   24.6563  -30.3110 H   0  0  0  0  0  0  0  0  0  0  0  0
   -3.9143   21.5713  -33.1977 H   0  0  0  0  0  0  0  0  0  0  0  0
   -2.1585   20.9923  -34.8677 H   0  0  0  0  0  0  0  0  0  0  0  0
    3.1210   22.9020  -35.5654 H   0  0  0  0  0  0  0  0  0  0  0  0
    3.1901   26.0985  -34.8312 H   0  0  0  0  0  0  0  0  0  0  0  0
    3.8133   25.4509  -36.3865 H   0  0  0  0  0  0  0  0  0  0  0  0
    2.5194   26.6968  -36.3865 H   0  0  0  0  0  0  0  0  0  0  0  0
    0.4262   26.9188  -34.1712 H   0  0  0  0  0  0  0  0  0  0  0  0
   -0.7955   29.0767  -34.4414 H   0  0  0  0  0  0  0  0  0  0  0  0
   -2.0745   29.5375  -36.5359 H   0  0  0  0  0  0  0  0  0  0  0  0
   -2.1105   27.8478  -38.3744 H   0  0  0  0  0  0  0  0  0  0  0  0
   -0.8919   25.6856  -38.1113 H   0  0  0  0  0  0  0  0  0  0  0  0
    0.8539   21.1621  -31.7634 H   0  0  0  0  0  0  0  0  0  0  0  0
   -0.9041   21.7340  -30.0922 H   0  0  0  0  0  0  0  0  0  0  0  0
   -5.6515   20.7485  -31.3083 H   0  0  0  0  0  0  0  0  0  0  0  0
  1  2  1  0
  2  3  1  0
  3  4  2  0
  3  5  1  0
  5  6  2  0
  6  7  1  0
  7  8  2  0
  8  9  1  0
  9 10  1  0
 10 11  1  0
 11 12  2  0
 12 13  1  0
 13 14  2  0
 14 15  1  0
 15 16  1  0
 16 17  2  0
 16 18  1  0
 18 19  1  0
 19 20  2  0
 20 21  1  0
 20 22  1  0
 22 23  1  0
 23 24  2  0
 24 25  1  0
 25 26  2  0
 26 27  1  0
 27 28  2  0
 22 29  1  0
 14 30  1  0
 30 31  2  0
  9 32  2  0
 32  5  1  0
 31 11  1  0
 29 18  2  0
 28 23  1  0
  1 33  1  0
  1 34  1  0
  1 35  1  0
  2 36  1  0
  6 37  1  0
  7 38  1  0
  8 39  1  0
 12 40  1  0
 13 41  1  0
 19 42  1  0
 21 43  1  0
 21 44  1  0
 21 45  1  0
 24 46  1  0
 25 47  1  0
 26 48  1  0
 27 49  1  0
 28 50  1  0
 30 51  1  0
 31 52  1  0
 32 53  1  0
M  CHG  1  15  -1
M  END
>  <UniqueID>  (23) 
23

>  <SMILES>  (23) 
CNC(=O)c1cccc(Oc2ccc([N-]C(=O)c3cc(C)n(-c4ccccc4)n3)cc2)c1

>  <Energy>  (23) 
100.37869591048718

>  <Genealogy>  (23) 
CNC(=O)c1cccc(Oc2ccc([N-]C(=O)c3cc(C)n(-c4ccccc4)n3)cc2)c1 (protonated)
CNC(=O)c1cccc(Oc2ccc([N-]C(=O)c3cc(C)n(-c4ccccc4)n3)cc2)c1 (3D coordinates assigned)
CNC(=O)c1cccc(Oc2ccc([N-]C(=O)c3cc(C)n(-c4ccccc4)n3)cc2)c1 (optimized conformer: 100.37869591048718 kcal/mol)

>  <smiles>  (23) 
CNC(=O)c1cccc(Oc2ccc(NC(=O)c3cc(C)n(-c4ccccc4)n3)cc2)c1

>  <score_type>  (23) 
oracle

>  <origin>  (23) 
adgpu

>  <m_score__min__energy>  (23) 
-11.529999999999999

>  <m_primary>  (23) 
energy

$$$$
23:0
     RDKit          3D

 43 45  0  0  0  0  0  0  0  0999 V2000
   -3.4410   20.9830  -32.1600 C   0  0  0  0  0  0  0  0  0  0  0  0
   -4.6250   20.1810  -32.6110 C   0  0  0  0  0  0  0  0  0  0  0  0
   -4.5950   19.5080  -33.8380 C   0  0  0  0  0  0  0  0  0  0  0  0
   -5.7370   18.8190  -34.2490 C   0  0  0  0  0  0  0  0  0  0  0  0
   -5.7400   18.1930  -35.3410 O   0  0  0  0  0  0  0  0  0  0  0  0
   -6.8500   18.8290  -33.4730 N   0  0  0  0  0  0  0  0  0  0  0  0
   -6.8730   19.5000  -32.2930 C   0  0  0  0  0  0  0  0  0  0  0  0
   -8.3810   19.5420  -31.3220 S   0  0  0  0  0  0  0  0  0  0  0  0
   -8.9410   21.1550  -31.9780 C   0  0  0  0  0  0  0  0  0  0  0  0
   -7.9590   22.2460  -31.6450 C   0  0  0  0  0  0  0  0  0  0  0  0
   -7.7600   22.6310  -30.3110 C   0  0  0  0  0  0  0  0  0  0  0  0
   -6.8020   23.5970  -29.9900 C   0  0  0  0  0  0  0  0  0  0  0  0
   -6.0300   24.1980  -31.0000 C   0  0  0  0  0  0  0  0  0  0  0  0
   -5.0050   25.2090  -30.6490 C   0  0  0  0  0  0  0  0  0  0  0  0
   -5.3640   26.3890  -30.3920 O   0  0  0  0  0  0  0  0  0  0  0  0
   -3.6140   24.8770  -30.5380 N   0  0  0  0  0  0  0  0  0  0  0  0
   -3.0460   23.8840  -29.6680 C   0  0  0  0  0  0  0  0  0  0  0  0
   -1.9660   23.0870  -30.0890 C   0  0  0  0  0  0  0  0  0  0  0  0
   -1.4110   22.1360  -29.2290 C   0  0  0  0  0  0  0  0  0  0  0  0
   -1.9180   21.9810  -27.9380 C   0  0  0  0  0  0  0  0  0  0  0  0
   -2.9750   22.7820  -27.5010 C   0  0  0  0  0  0  0  0  0  0  0  0
   -3.5420   23.7400  -28.3550 C   0  0  0  0  0  0  0  0  0  0  0  0
   -4.6270   24.5490  -27.8850 N   0  0  0  0  0  0  0  0  0  0  0  0
   -6.2210   23.7980  -32.3340 C   0  0  0  0  0  0  0  0  0  0  0  0
   -7.1830   22.8370  -32.6540 C   0  0  0  0  0  0  0  0  0  0  0  0
   -5.7650   20.1650  -31.8640 N   0  0  0  0  0  0  0  0  0  0  0  0
   -3.4097   21.0042  -31.0606 H   0  0  0  0  0  0  0  0  0  0  0  0
   -2.5187   20.5230  -32.5443 H   0  0  0  0  0  0  0  0  0  0  0  0
   -3.5260   22.0102  -32.5443 H   0  0  0  0  0  0  0  0  0  0  0  0
   -3.6910   19.5219  -34.4646 H   0  0  0  0  0  0  0  0  0  0  0  0
   -9.0410   21.0831  -33.0711 H   0  0  0  0  0  0  0  0  0  0  0  0
   -9.9083   21.4029  -31.5166 H   0  0  0  0  0  0  0  0  0  0  0  0
   -8.3610   22.1703  -29.5132 H   0  0  0  0  0  0  0  0  0  0  0  0
   -6.6510   23.8890  -28.9403 H   0  0  0  0  0  0  0  0  0  0  0  0
   -1.5558   23.2133  -31.1018 H   0  0  0  0  0  0  0  0  0  0  0  0
   -0.5739   21.5090  -29.5697 H   0  0  0  0  0  0  0  0  0  0  0  0
   -1.4846   21.2272  -27.2642 H   0  0  0  0  0  0  0  0  0  0  0  0
   -3.3659   22.6611  -26.4799 H   0  0  0  0  0  0  0  0  0  0  0  0
   -4.9290   25.3940  -28.4200 H   0  0  0  0  0  0  0  0  0  0  0  0
   -5.1390   24.3210  -27.0050 H   0  0  0  0  0  0  0  0  0  0  0  0
   -5.6088   24.2447  -33.1313 H   0  0  0  0  0  0  0  0  0  0  0  0
   -7.3332   22.5418  -33.7029 H   0  0  0  0  0  0  0  0  0  0  0  0
   -5.8010   20.6870  -30.9580 H   0  0  0  0  0  0  0  0  0  0  0  0
  1  2  1  0
  2  3  2  0
  3  4  1  0
  4  5  2  0
  4  6  1  0
  6  7  2  0
  7  8  1  0
  8  9  1  0
  9 10  1  0
 10 11  2  0
 11 12  1  0
 12 13  2  0
 13 14  1  0
 14 15  2  0
 14 16  1  0
 16 17  1  0
 17 18  2  0
 18 19  1  0
 19 20  2  0
 20 21  1  0
 21 22  2  0
 22 23  1  0
 13 24  1  0
 24 25  2  0
  7 26  1  0
 26  2  1  0
 25 10  1  0
 22 17  1  0
  1 27  1  0
  1 28  1  0
  1 29  1  0
  3 30  1  0
  9 31  1  0
  9 32  1  0
 11 33  1  0
 12 34  1  0
 18 35  1  0
 19 36  1  0
 20 37  1  0
 21 38  1  0
 23 39  1  0
 23 40  1  0
 24 41  1  0
 25 42  1  0
 26 43  1  0
M  CHG  1  16  -1
M  END
>  <UniqueID>  (24) 
24

>  <SMILES>  (24) 
Cc1cc(=O)nc(SCc2ccc(C(=O)[N-]c3ccccc3N)cc2)[nH]1

>  <Energy>  (24) 
45.98233872022869

>  <Genealogy>  (24) 
Cc1cc(=O)nc(SCc2ccc(C(=O)[N-]c3ccccc3N)cc2)[nH]1 (protonated)
Cc1cc(=O)nc(SCc2ccc(C(=O)[N-]c3ccccc3N)cc2)[nH]1 (3D coordinates assigned)
Cc1cc(=O)nc(SCc2ccc(C(=O)[N-]c3ccccc3N)cc2)[nH]1 (optimized conformer: 45.98233872022869 kcal/mol)

>  <smiles>  (24) 
Cc1cc(=O)nc(SCc2ccc(C(=O)Nc3ccccc3N)cc2)[nH]1

>  <score_type>  (24) 
oracle

>  <origin>  (24) 
adgpu

>  <m_score__min__energy>  (24) 
-11.19

>  <m_primary>  (24) 
energy

$$$$
24:0
     RDKit          3D

 53 55  0  0  0  0  0  0  0  0999 V2000
   -3.8770   16.8400  -33.1880 C   0  0  0  0  0  0  0  0  0  0  0  0
   -4.9880   16.0750  -33.7400 N   0  0  0  0  0  0  0  0  0  0  0  0
   -6.3590   16.5050  -33.7340 C   0  0  0  0  0  0  0  0  0  0  0  0
   -7.2360   15.7360  -34.2120 O   0  0  0  0  0  0  0  0  0  0  0  0
   -6.7660   17.8310  -33.2240 C   0  0  0  0  0  0  0  0  0  0  0  0
   -7.5640   17.9480  -32.0770 C   0  0  0  0  0  0  0  0  0  0  0  0
   -7.9070   19.2060  -31.5800 C   0  0  0  0  0  0  0  0  0  0  0  0
   -7.5010   20.3750  -32.2510 C   0  0  0  0  0  0  0  0  0  0  0  0
   -7.7760   21.6670  -31.7700 O   0  0  0  0  0  0  0  0  0  0  0  0
   -6.8200   22.6310  -31.4200 C   0  0  0  0  0  0  0  0  0  0  0  0
   -7.1260   23.7050  -30.5650 C   0  0  0  0  0  0  0  0  0  0  0  0
   -6.1180   24.5890  -30.1660 C   0  0  0  0  0  0  0  0  0  0  0  0
   -4.8040   24.4150  -30.6240 C   0  0  0  0  0  0  0  0  0  0  0  0
   -3.7390   25.2570  -30.1620 N   0  0  0  0  0  0  0  0  0  0  0  0
   -2.6470   24.8330  -29.3370 C   0  0  0  0  0  0  0  0  0  0  0  0
   -1.6240   25.5560  -29.2650 O   0  0  0  0  0  0  0  0  0  0  0  0
   -2.6800   23.6010  -28.5980 N   0  0  0  0  0  0  0  0  0  0  0  0
   -1.5740   22.6950  -28.4520 C   0  0  0  0  0  0  0  0  0  0  0  0
   -1.1910   21.8200  -29.4900 C   0  0  0  0  0  0  0  0  0  0  0  0
   -1.8940   21.9440  -31.1450 S   0  0  0  0  0  0  0  0  0  0  0  0
   -2.9770   20.4840  -31.0260 C   0  0  0  0  0  0  0  0  0  0  0  0
   -0.1060   20.9590  -29.2930 C   0  0  0  0  0  0  0  0  0  0  0  0
    0.5890   20.9780  -28.0770 C   0  0  0  0  0  0  0  0  0  0  0  0
    1.7570   20.0710  -27.8470 C   0  0  0  0  0  0  0  0  0  0  0  0
    0.2570   21.8910  -27.1290 N   0  0  0  0  0  0  0  0  0  0  0  0
   -0.7840   22.7490  -27.2880 C   0  0  0  0  0  0  0  0  0  0  0  0
   -1.1420   23.9300  -25.9840 S   0  0  0  0  0  0  0  0  0  0  0  0
   -0.1150   23.0870  -24.7430 C   0  0  0  0  0  0  0  0  0  0  0  0
   -4.5300   23.4180  -31.5680 C   0  0  0  0  0  0  0  0  0  0  0  0
   -5.5330   22.5280  -31.9610 C   0  0  0  0  0  0  0  0  0  0  0  0
   -6.7430   20.2540  -33.4230 C   0  0  0  0  0  0  0  0  0  0  0  0
   -6.3730   18.9930  -33.9010 C   0  0  0  0  0  0  0  0  0  0  0  0
   -3.9210   16.8097  -32.0893 H   0  0  0  0  0  0  0  0  0  0  0  0
   -2.9264   16.4041  -33.5290 H   0  0  0  0  0  0  0  0  0  0  0  0
   -3.9451   17.8836  -33.5290 H   0  0  0  0  0  0  0  0  0  0  0  0
   -7.9220   17.0422  -31.5657 H   0  0  0  0  0  0  0  0  0  0  0  0
   -8.4994   19.2848  -30.6565 H   0  0  0  0  0  0  0  0  0  0  0  0
   -8.1572   23.8497  -30.2104 H   0  0  0  0  0  0  0  0  0  0  0  0
   -6.3569   25.4237  -29.4905 H   0  0  0  0  0  0  0  0  0  0  0  0
   -3.1546   20.2446  -29.9672 H   0  0  0  0  0  0  0  0  0  0  0  0
   -3.9365   20.6980  -31.5195 H   0  0  0  0  0  0  0  0  0  0  0  0
   -2.4938   19.6278  -31.5195 H   0  0  0  0  0  0  0  0  0  0  0  0
    0.2009   20.2680  -30.0920 H   0  0  0  0  0  0  0  0  0  0  0  0
    1.9173   19.9465  -26.7659 H   0  0  0  0  0  0  0  0  0  0  0  0
    1.5552   19.0905  -28.3030 H   0  0  0  0  0  0  0  0  0  0  0  0
    2.6570   20.5093  -28.3030 H   0  0  0  0  0  0  0  0  0  0  0  0
   -0.4551   23.3661  -23.7348 H   0  0  0  0  0  0  0  0  0  0  0  0
   -0.2041   21.9982  -24.8717 H   0  0  0  0  0  0  0  0  0  0  0  0
    0.9356   23.3866  -24.8717 H   0  0  0  0  0  0  0  0  0  0  0  0
   -3.5224   23.3351  -32.0015 H   0  0  0  0  0  0  0  0  0  0  0  0
   -5.3103   21.7430  -32.6987 H   0  0  0  0  0  0  0  0  0  0  0  0
   -6.4368   21.1573  -33.9710 H   0  0  0  0  0  0  0  0  0  0  0  0
   -5.7682   18.9127  -34.8163 H   0  0  0  0  0  0  0  0  0  0  0  0
  1  2  1  0
  2  3  1  0
  3  4  2  0
  3  5  1  0
  5  6  2  0
  6  7  1  0
  7  8  2  0
  8  9  1  0
  9 10  1  0
 10 11  2  0
 11 12  1  0
 12 13  2  0
 13 14  1  0
 14 15  1  0
 15 16  2  0
 15 17  1  0
 17 18  1  0
 18 19  2  0
 19 20  1  0
 20 21  1  0
 19 22  1  0
 22 23  2  0
 23 24  1  0
 23 25  1  0
 25 26  2  0
 26 27  1  0
 27 28  1  0
 13 29  1  0
 29 30  2  0
  8 31  1  0
 31 32  2  0
 32  5  1  0
 30 10  1  0
 26 18  1  0
  1 33  1  0
  1 34  1  0
  1 35  1  0
  6 36  1  0
  7 37  1  0
 11 38  1  0
 12 39  1  0
 21 40  1  0
 21 41  1  0
 21 42  1  0
 22 43  1  0
 24 44  1  0
 24 45  1  0
 24 46  1  0
 28 47  1  0
 28 48  1  0
 28 49  1  0
 29 50  1  0
 30 51  1  0
 31 52  1  0
 32 53  1  0
M  CHG  3   2  -1  14  -1  17  -1
M  END
>  <UniqueID>  (25) 
25

>  <SMILES>  (25) 
C[N-]C(=O)c1ccc(Oc2ccc([N-]C(=O)[N-]c3c(SC)cc(C)nc3SC)cc2)cc1

>  <Energy>  (25) 
69.39627926374774

>  <Genealogy>  (25) 
C[N-]C(=O)c1ccc(Oc2ccc([N-]C(=O)[N-]c3c(SC)cc(C)nc3SC)cc2)cc1 (protonated)
C[N-]C(=O)c1ccc(Oc2ccc([N-]C(=O)[N-]c3c(SC)cc(C)nc3SC)cc2)cc1 (3D coordinates assigned)
C[N-]C(=O)c1ccc(Oc2ccc([N-]C(=O)[N-]c3c(SC)cc(C)nc3SC)cc2)cc1 (optimized conformer: 69.39627926374774 kcal/mol)

>  <smiles>  (25) 
CNC(=O)c1ccc(Oc2ccc(NC(=O)Nc3c(SC)cc(C)nc3SC)cc2)cc1

>  <score_type>  (25) 
oracle

>  <origin>  (25) 
adgpu

>  <m_score__min__energy>  (25) 
-11.470000000000001

>  <m_primary>  (25) 
energy

$$$$
25:0
     RDKit          3D

 42 44  0  0  0  0  0  0  0  0999 V2000
   -5.6210   20.0910  -33.4130 C   0  0  0  0  0  0  0  0  0  0  0  0
   -4.5140   20.9740  -32.8470 C   0  0  0  0  0  0  0  0  0  0  0  0
   -4.6140   21.0540  -31.3900 N   0  0  0  0  0  0  0  0  0  0  0  0
   -4.5170   22.3010  -30.6760 C   0  0  0  0  0  0  0  0  0  0  0  0
   -3.3140   22.6960  -30.1850 N   0  0  0  0  0  0  0  0  0  0  0  0
   -3.1600   23.8400  -29.4670 C   0  0  0  0  0  0  0  0  0  0  0  0
   -1.8520   24.1960  -28.9680 N   0  0  0  0  0  0  0  0  0  0  0  0
   -0.7000   23.3490  -29.2990 C   0  0  0  0  0  0  0  0  0  0  0  0
    0.3810   23.4780  -28.2220 C   0  0  0  0  0  0  0  0  0  0  0  0
    0.6880   24.8350  -27.9800 O   0  0  0  0  0  0  0  0  0  0  0  0
   -0.4370   25.4810  -27.4160 C   0  0  0  0  0  0  0  0  0  0  0  0
   -1.5960   25.5320  -28.4160 C   0  0  0  0  0  0  0  0  0  0  0  0
   -4.2470   24.6300  -29.2320 N   0  0  0  0  0  0  0  0  0  0  0  0
   -5.4780   24.2900  -29.7020 C   0  0  0  0  0  0  0  0  0  0  0  0
   -6.4580   25.0510  -29.4800 O   0  0  0  0  0  0  0  0  0  0  0  0
   -5.6500   23.1090  -30.4450 C   0  0  0  0  0  0  0  0  0  0  0  0
   -6.9840   22.7560  -30.9830 C   0  0  0  0  0  0  0  0  0  0  0  0
   -7.6550   23.6380  -31.8470 C   0  0  0  0  0  0  0  0  0  0  0  0
   -8.9200   23.3090  -32.3430 C   0  0  0  0  0  0  0  0  0  0  0  0
   -9.5250   22.1030  -31.9750 C   0  0  0  0  0  0  0  0  0  0  0  0
   -8.8650   21.2250  -31.1090 C   0  0  0  0  0  0  0  0  0  0  0  0
   -7.6000   21.5510  -30.6110 C   0  0  0  0  0  0  0  0  0  0  0  0
   -6.1881   19.6387  -32.5861 H   0  0  0  0  0  0  0  0  0  0  0  0
   -6.2968   20.7008  -34.0306 H   0  0  0  0  0  0  0  0  0  0  0  0
   -5.1767   19.2966  -34.0306 H   0  0  0  0  0  0  0  0  0  0  0  0
   -3.5370   20.5483  -33.1195 H   0  0  0  0  0  0  0  0  0  0  0  0
   -4.6182   21.9858  -33.2658 H   0  0  0  0  0  0  0  0  0  0  0  0
   -4.7770   20.1600  -30.8760 H   0  0  0  0  0  0  0  0  0  0  0  0
   -1.0266   22.3005  -29.3617 H   0  0  0  0  0  0  0  0  0  0  0  0
   -0.2837   23.6722  -30.2645 H   0  0  0  0  0  0  0  0  0  0  0  0
    0.0188   23.0185  -27.2905 H   0  0  0  0  0  0  0  0  0  0  0  0
    1.2904   22.9677  -28.5721 H   0  0  0  0  0  0  0  0  0  0  0  0
   -0.7580   24.9288  -26.5204 H   0  0  0  0  0  0  0  0  0  0  0  0
   -0.1551   26.5109  -27.1517 H   0  0  0  0  0  0  0  0  0  0  0  0
   -2.5007   25.8928  -27.9048 H   0  0  0  0  0  0  0  0  0  0  0  0
   -1.3300   26.2135  -29.2374 H   0  0  0  0  0  0  0  0  0  0  0  0
   -4.1460   25.5280  -28.7080 H   0  0  0  0  0  0  0  0  0  0  0  0
   -7.1837   24.5897  -32.1338 H   0  0  0  0  0  0  0  0  0  0  0  0
   -9.4400   23.9994  -33.0234 H   0  0  0  0  0  0  0  0  0  0  0  0
  -10.5200   21.8449  -32.3666 H   0  0  0  0  0  0  0  0  0  0  0  0
   -9.3418   20.2769  -30.8195 H   0  0  0  0  0  0  0  0  0  0  0  0
   -7.0860   20.8611  -29.9256 H   0  0  0  0  0  0  0  0  0  0  0  0
  1  2  1  0
  2  3  1  0
  3  4  1  0
  4  5  1  0
  5  6  2  0
  6  7  1  0
  7  8  1  0
  8  9  1  0
  9 10  1  0
 10 11  1  0
 11 12  1  0
  6 13  1  0
 13 14  1  0
 14 15  2  0
 14 16  1  0
 16 17  1  0
 17 18  2  0
 18 19  1  0
 19 20  2  0
 20 21  1  0
 21 22  2  0
 16  4  2  0
 22 17  1  0
 12  7  1  0
  1 23  1  0
  1 24  1  0
  1 25  1  0
  2 26  1  0
  2 27  1  0
  3 28  1  0
  8 29  1  0
  8 30  1  0
  9 31  1  0
  9 32  1  0
 11 33  1  0
 11 34  1  0
 12 35  1  0
 12 36  1  0
 13 37  1  0
 18 38  1  0
 19 39  1  0
 20 40  1  0
 21 41  1  0
 22 42  1  0
M  END
>  <UniqueID>  (26) 
26

>  <SMILES>  (26) 
CCNc1nc(N2CCOCC2)[nH]c(=O)c1-c1ccccc1

>  <Energy>  (26) 
51.567097476510106

>  <Genealogy>  (26) 
CCNc1nc(N2CCOCC2)[nH]c(=O)c1-c1ccccc1 (3D coordinates assigned)
CCNc1nc(N2CCOCC2)[nH]c(=O)c1-c1ccccc1 (nonaromatic ring conformer: 51.567097476510106 kcal/mol)

>  <smiles>  (26) 
CCNc1nc(N2CCOCC2)[nH]c(=O)c1-c1ccccc1

>  <score_type>  (26) 
oracle

>  <origin>  (26) 
adgpu

>  <m_score__min__energy>  (26) 
-7.21

>  <m_primary>  (26) 
energy

$$$$
26:0
     RDKit          3D

 63 66  0  0  0  0  0  0  0  0999 V2000
    1.4140   19.2310  -31.2390 C   0  0  0  0  0  0  0  0  0  0  0  0
    1.7170   18.8790  -32.6910 C   0  0  0  0  0  0  0  0  0  0  0  0
    0.6320   19.3190  -33.5840 N   0  0  0  0  0  0  0  0  0  0  0  0
    0.2350   20.7070  -33.6530 C   0  0  0  0  0  0  0  0  0  0  0  0
    0.9960   21.5380  -34.2180 O   0  0  0  0  0  0  0  0  0  0  0  0
   -1.0470   21.1860  -33.0850 C   0  0  0  0  0  0  0  0  0  0  0  0
   -1.0880   21.6950  -31.7770 C   0  0  0  0  0  0  0  0  0  0  0  0
   -2.2870   22.1750  -31.2400 C   0  0  0  0  0  0  0  0  0  0  0  0
   -3.4660   22.1550  -32.0040 C   0  0  0  0  0  0  0  0  0  0  0  0
   -4.7100   22.6460  -31.4740 N   0  0  0  0  0  0  0  0  0  0  0  0
   -4.8500   23.9010  -30.7880 C   0  0  0  0  0  0  0  0  0  0  0  0
   -3.9070   24.7430  -30.7860 O   0  0  0  0  0  0  0  0  0  0  0  0
   -6.1120   24.2100  -30.0400 C   0  0  0  0  0  0  0  0  0  0  0  0
   -7.2510   23.4060  -30.6110 C   0  0  0  0  0  0  0  0  0  0  0  0
   -7.7880   22.3260  -29.8910 C   0  0  0  0  0  0  0  0  0  0  0  0
   -8.8740   21.6120  -30.4020 C   0  0  0  0  0  0  0  0  0  0  0  0
   -9.4360   21.9740  -31.6290 C   0  0  0  0  0  0  0  0  0  0  0  0
   -8.9180   23.0550  -32.3440 C   0  0  0  0  0  0  0  0  0  0  0  0
   -7.8330   23.7760  -31.8360 C   0  0  0  0  0  0  0  0  0  0  0  0
   -3.4370   21.5900  -33.2860 C   0  0  0  0  0  0  0  0  0  0  0  0
   -2.2400   21.1120  -33.8240 C   0  0  0  0  0  0  0  0  0  0  0  0
   -0.2580   18.3230  -34.1240 C   0  0  0  0  0  0  0  0  0  0  0  0
   -1.3900   17.8900  -33.4010 C   0  0  0  0  0  0  0  0  0  0  0  0
   -1.6170   18.4270  -32.0850 N   0  0  0  0  0  0  0  0  0  0  0  0
   -2.2580   16.9750  -33.9650 N   0  0  0  0  0  0  0  0  0  0  0  0
   -3.4210   16.4510  -33.2140 C   0  0  0  0  0  0  0  0  0  0  0  0
   -4.5400   17.4620  -33.1860 C   0  0  0  0  0  0  0  0  0  0  0  0
   -4.7080   18.3590  -34.2590 C   0  0  0  0  0  0  0  0  0  0  0  0
   -5.7370   19.3040  -34.2360 C   0  0  0  0  0  0  0  0  0  0  0  0
   -6.6110   19.3600  -33.1450 C   0  0  0  0  0  0  0  0  0  0  0  0
   -6.4560   18.4690  -32.0780 C   0  0  0  0  0  0  0  0  0  0  0  0
   -5.4220   17.5260  -32.0920 C   0  0  0  0  0  0  0  0  0  0  0  0
   -2.0000   16.4920  -35.2290 C   0  0  0  0  0  0  0  0  0  0  0  0
   -2.7720   15.6570  -35.7740 O   0  0  0  0  0  0  0  0  0  0  0  0
   -0.9050   16.9030  -35.9160 N   0  0  0  0  0  0  0  0  0  0  0  0
   -0.0350   17.7970  -35.3990 C   0  0  0  0  0  0  0  0  0  0  0  0
    0.9710   18.1470  -36.0750 O   0  0  0  0  0  0  0  0  0  0  0  0
    1.9855   18.5670  -30.5738 H   0  0  0  0  0  0  0  0  0  0  0  0
    1.6996   20.2759  -31.0477 H   0  0  0  0  0  0  0  0  0  0  0  0
    0.3382   19.1040  -31.0477 H   0  0  0  0  0  0  0  0  0  0  0  0
    2.6522   19.3735  -32.9923 H   0  0  0  0  0  0  0  0  0  0  0  0
    1.8123   17.7861  -32.7715 H   0  0  0  0  0  0  0  0  0  0  0  0
   -0.1707   21.7164  -31.1703 H   0  0  0  0  0  0  0  0  0  0  0  0
   -2.3070   22.5704  -30.2137 H   0  0  0  0  0  0  0  0  0  0  0  0
   -5.5780   22.0930  -31.6640 H   0  0  0  0  0  0  0  0  0  0  0  0
   -5.9798   23.9538  -28.9784 H   0  0  0  0  0  0  0  0  0  0  0  0
   -6.3390   25.2820  -30.1360 H   0  0  0  0  0  0  0  0  0  0  0  0
   -7.3519   22.0419  -28.9219 H   0  0  0  0  0  0  0  0  0  0  0  0
   -9.2876   20.7632  -29.8376 H   0  0  0  0  0  0  0  0  0  0  0  0
  -10.2877   21.4063  -32.0319 H   0  0  0  0  0  0  0  0  0  0  0  0
   -9.3639   23.3401  -33.3083 H   0  0  0  0  0  0  0  0  0  0  0  0
   -7.4340   24.6345  -32.3961 H   0  0  0  0  0  0  0  0  0  0  0  0
   -4.3645   21.5224  -33.8734 H   0  0  0  0  0  0  0  0  0  0  0  0
   -2.2310   20.6746  -34.8332 H   0  0  0  0  0  0  0  0  0  0  0  0
   -1.1100   18.0840  -31.2420 H   0  0  0  0  0  0  0  0  0  0  0  0
   -2.3890   19.1050  -31.9080 H   0  0  0  0  0  0  0  0  0  0  0  0
   -3.7785   15.5307  -33.6989 H   0  0  0  0  0  0  0  0  0  0  0  0
   -3.1083   16.2424  -32.1802 H   0  0  0  0  0  0  0  0  0  0  0  0
   -4.0250   18.3153  -35.1202 H   0  0  0  0  0  0  0  0  0  0  0  0
   -5.8599   20.0039  -35.0757 H   0  0  0  0  0  0  0  0  0  0  0  0
   -7.4202   20.1049  -33.1263 H   0  0  0  0  0  0  0  0  0  0  0  0
   -7.1492   18.5096  -31.2249 H   0  0  0  0  0  0  0  0  0  0  0  0
   -5.2988   16.8337  -31.2461 H   0  0  0  0  0  0  0  0  0  0  0  0
  1  2  1  0
  2  3  1  0
  3  4  1  0
  4  5  2  0
  4  6  1  0
  6  7  2  0
  7  8  1  0
  8  9  2  0
  9 10  1  0
 10 11  1  0
 11 12  2  0
 11 13  1  0
 13 14  1  0
 14 15  2  0
 15 16  1  0
 16 17  2  0
 17 18  1  0
 18 19  2  0
  9 20  1  0
 20 21  2  0
  3 22  1  0
 22 23  2  0
 23 24  1  0
 23 25  1  0
 25 26  1  0
 26 27  1  0
 27 28  2  0
 28 29  1  0
 29 30  2  0
 30 31  1  0
 31 32  2  0
 25 33  1  0
 33 34  2  0
 33 35  1  0
 35 36  1  0
 36 37  2  0
 21  6  1  0
 36 22  1  0
 19 14  1  0
 32 27  1  0
  1 38  1  0
  1 39  1  0
  1 40  1  0
  2 41  1  0
  2 42  1  0
  7 43  1  0
  8 44  1  0
 10 45  1  0
 13 46  1  0
 13 47  1  0
 15 48  1  0
 16 49  1  0
 17 50  1  0
 18 51  1  0
 19 52  1  0
 20 53  1  0
 21 54  1  0
 24 55  1  0
 24 56  1  0
 26 57  1  0
 26 58  1  0
 28 59  1  0
 29 60  1  0
 30 61  1  0
 31 62  1  0
 32 63  1  0
M  CHG  1  35  -1
M  END
>  <UniqueID>  (27) 
27

>  <SMILES>  (27) 
CCN(C(=O)c1ccc(NC(=O)Cc2ccccc2)cc1)c1c(N)n(Cc2ccccc2)c(=O)[n-]c1=O

>  <Energy>  (27) 
85.92462279787226

>  <Genealogy>  (27) 
CCN(C(=O)c1ccc(NC(=O)Cc2ccccc2)cc1)c1c(N)n(Cc2ccccc2)c(=O)[n-]c1=O (protonated)
CCN(C(=O)c1ccc(NC(=O)Cc2ccccc2)cc1)c1c(N)n(Cc2ccccc2)c(=O)[n-]c1=O (3D coordinates assigned)
CCN(C(=O)c1ccc(NC(=O)Cc2ccccc2)cc1)c1c(N)n(Cc2ccccc2)c(=O)[n-]c1=O (optimized conformer: 85.92462279787226 kcal/mol)

>  <smiles>  (27) 
CCN(C(=O)c1ccc(NC(=O)Cc2ccccc2)cc1)c1c(N)n(Cc2ccccc2)c(=O)[nH]c1=O

>  <score_type>  (27) 
oracle

>  <origin>  (27) 
adgpu

>  <m_score__min__energy>  (27) 
-9.8900000000000006

>  <m_primary>  (27) 
energy

$$$$
27:0
     RDKit          3D

 53 56  0  0  1  0  0  0  0  0999 V2000
   -0.0710   26.5800  -25.4100 C   0  0  0  0  0  0  0  0  0  0  0  0
    0.7220   26.2050  -26.6250 C   0  0  0  0  0  0  0  0  0  0  0  0
   -0.1140   26.2290  -27.7870 N   0  0  0  0  0  0  0  0  0  0  0  0
   -0.8260   25.1910  -28.0680 C   0  0  0  0  0  0  0  0  0  0  0  0
   -1.6180   25.1790  -29.1450 N   0  0  0  0  0  0  0  0  0  0  0  0
   -2.3960   24.1180  -29.5020 C   0  0  0  0  0  0  0  0  0  0  0  0
   -3.0850   24.2170  -30.5110 N   0  0  0  0  0  0  0  0  0  0  0  0
   -3.9460   23.3840  -31.1350 C   0  0  0  0  0  0  0  0  0  0  0  0
   -3.4990   22.3450  -31.9880 C   0  0  0  0  0  0  0  0  0  0  0  0
   -4.4170   21.4570  -32.5060 C   0  0  0  0  0  0  0  0  0  0  0  0
   -5.7720   21.5320  -32.2280 C   0  0  0  0  0  0  0  0  0  0  0  0
   -6.8290   20.3150  -32.9720 S   0  0  0  0  0  0  0  0  0  0  0  0
   -5.9740   18.7870  -33.2990 C   0  0  0  0  0  0  0  0  0  0  0  0
   -5.2560   18.5200  -34.4280 N   0  0  0  0  0  0  0  0  0  0  0  0
   -4.7460   17.2570  -34.3490 C   0  0  0  0  0  0  0  0  0  0  0  0
   -3.9000   16.5800  -35.3830 C   0  0  0  0  0  0  0  0  0  0  0  0
   -5.1670   16.7280  -33.1240 C   0  0  0  0  0  0  0  0  0  0  0  0
   -4.8290   15.3630  -32.6390 C   0  0  0  0  0  0  0  0  0  0  0  0
   -5.8990   17.6760  -32.5260 N   0  0  0  0  0  0  0  0  0  0  0  0
   -6.5190   17.5160  -31.2300 C   0  0  0  0  0  0  0  0  0  0  0  0
   -6.2040   22.5390  -31.4010 C   0  0  0  0  0  0  0  0  0  0  0  0
   -7.8860   22.6720  -31.0280 Cl  0  0  0  0  0  0  0  0  0  0  0  0
   -5.3280   23.4740  -30.8420 C   0  0  0  0  0  0  0  0  0  0  0  0
   -2.3830   22.9940  -28.7310 C   0  0  0  0  0  0  0  0  0  0  0  0
   -3.1330   21.8930  -29.0250 C   0  0  0  0  0  0  0  0  0  0  0  0
   -3.0760   20.7620  -28.1910 C   0  0  0  0  0  0  0  0  0  0  0  0
   -2.2470   20.8530  -27.1150 C   0  0  0  0  0  0  0  0  0  0  0  0
   -1.4790   21.9440  -26.7920 C   0  0  0  0  0  0  0  0  0  0  0  0
   -1.5520   23.0330  -27.6190 C   0  0  0  0  0  0  0  0  0  0  0  0
   -0.7980   24.0970  -27.2990 N   0  0  0  0  0  0  0  0  0  0  0  0
    0.4951   26.3123  -24.5056 H   0  0  0  0  0  0  0  0  0  0  0  0
   -0.2611   27.6634  -25.4162 H   0  0  0  0  0  0  0  0  0  0  0  0
   -1.0291   26.0395  -25.4162 H   0  0  0  0  0  0  0  0  0  0  0  0
    1.5469   26.9208  -26.7559 H   0  0  0  0  0  0  0  0  0  0  0  0
    1.1238   25.1896  -26.4924 H   0  0  0  0  0  0  0  0  0  0  0  0
   -1.6170   26.0540  -29.7280 H   0  0  0  0  0  0  0  0  0  0  0  0
   -2.4313   22.2481  -32.2341 H   0  0  0  0  0  0  0  0  0  0  0  0
   -4.0586   20.6550  -33.1680 H   0  0  0  0  0  0  0  0  0  0  0  0
   -3.1339   15.9669  -34.8859 H   0  0  0  0  0  0  0  0  0  0  0  0
   -4.5336   15.9367  -36.0113 H   0  0  0  0  0  0  0  0  0  0  0  0
   -3.4112   17.3392  -36.0113 H   0  0  0  0  0  0  0  0  0  0  0  0
   -4.8270   15.3548  -31.5390 H   0  0  0  0  0  0  0  0  0  0  0  0
   -5.5769   14.6465  -33.0097 H   0  0  0  0  0  0  0  0  0  0  0  0
   -3.8332   15.0783  -33.0097 H   0  0  0  0  0  0  0  0  0  0  0  0
   -5.7760   17.7078  -30.4419 H   0  0  0  0  0  0  0  0  0  0  0  0
   -7.3508   18.2289  -31.1310 H   0  0  0  0  0  0  0  0  0  0  0  0
   -6.9020   16.4896  -31.1310 H   0  0  0  0  0  0  0  0  0  0  0  0
   -5.7075   24.2690  -30.1833 H   0  0  0  0  0  0  0  0  0  0  0  0
   -3.7816   21.8899  -29.9134 H   0  0  0  0  0  0  0  0  0  0  0  0
   -3.6666   19.8570  -28.3961 H   0  0  0  0  0  0  0  0  0  0  0  0
   -2.1876   19.9796  -26.4489 H   0  0  0  0  0  0  0  0  0  0  0  0
   -0.8303   21.9435  -25.9036 H   0  0  0  0  0  0  0  0  0  0  0  0
   -0.1840   24.0910  -26.4550 H   0  0  0  0  0  0  0  0  0  0  0  0
  1  2  1  0
  2  3  1  0
  3  4  2  0
  4  5  1  0
  5  6  1  0
  6  7  2  0
  7  8  1  0
  8  9  2  0
  9 10  1  0
 10 11  2  0
 11 12  1  0
 12 13  1  0
 13 14  2  0
 14 15  1  0
 15 16  1  0
 15 17  2  0
 17 18  1  0
 17 19  1  0
 19 20  1  0
 11 21  1  0
 21 22  1  0
 21 23  2  0
  6 24  1  0
 24 25  2  0
 25 26  1  0
 26 27  2  0
 27 28  1  0
 28 29  2  0
 29 30  1  0
 30  4  1  0
 23  8  1  0
 29 24  1  0
 19 13  1  0
  1 31  1  0
  1 32  1  0
  1 33  1  0
  2 34  1  0
  2 35  1  0
  5 36  1  0
  9 37  1  0
 10 38  1  0
 16 39  1  0
 16 40  1  0
 16 41  1  0
 18 42  1  0
 18 43  1  0
 18 44  1  0
 20 45  1  0
 20 46  1  0
 20 47  1  0
 23 48  1  0
 25 49  1  0
 26 50  1  0
 27 51  1  0
 28 52  1  0
 30 53  1  0
M  END
>  <smiles>  (28) 
CCN=c1[nH]c(=Nc2ccc(Sc3nc(C)c(C)n3C)c(Cl)c2)c2ccccc2[nH]1

>  <score_type>  (28) 
oracle

>  <origin>  (28) 
adgpu

>  <m_score__min__energy>  (28) 
-9.8399999999999999

>  <m_primary>  (28) 
energy

$$$$
28:0
     RDKit          3D

 48 52  0  0  0  0  0  0  0  0999 V2000
   -0.8580   25.9850  -23.9670 C   0  0  0  0  0  0  0  0  0  0  0  0
   -1.2370   25.8180  -25.3750 C   0  0  0  0  0  0  0  0  0  0  0  0
   -0.5220   26.3930  -26.4260 C   0  0  0  0  0  0  0  0  0  0  0  0
   -0.8790   26.2360  -27.7370 C   0  0  0  0  0  0  0  0  0  0  0  0
   -1.9830   25.4850  -28.0500 C   0  0  0  0  0  0  0  0  0  0  0  0
   -2.4300   25.2640  -29.3440 O   0  0  0  0  0  0  0  0  0  0  0  0
   -2.7640   24.0250  -29.8330 C   0  0  0  0  0  0  0  0  0  0  0  0
   -2.1210   22.8510  -29.4840 C   0  0  0  0  0  0  0  0  0  0  0  0
   -2.5270   21.6450  -30.0270 C   0  0  0  0  0  0  0  0  0  0  0  0
   -3.5720   21.5780  -30.9220 C   0  0  0  0  0  0  0  0  0  0  0  0
   -4.0340   20.3420  -31.5170 C   0  0  0  0  0  0  0  0  0  0  0  0
   -3.2420   19.6900  -32.3810 N   0  0  0  0  0  0  0  0  0  0  0  0
   -3.5960   18.5530  -32.9650 C   0  0  0  0  0  0  0  0  0  0  0  0
   -2.8000   17.9660  -33.7880 N   0  0  0  0  0  0  0  0  0  0  0  0
   -4.8200   17.9830  -32.7010 C   0  0  0  0  0  0  0  0  0  0  0  0
   -5.3030   16.7570  -33.2780 C   0  0  0  0  0  0  0  0  0  0  0  0
   -6.2420   16.2340  -33.7270 N   0  0  0  0  0  0  0  0  0  0  0  0
   -6.4450   15.0440  -34.2120 C   0  0  0  0  0  0  0  0  0  0  0  0
   -7.5990   14.4490  -34.7470 C   0  0  0  0  0  0  0  0  0  0  0  0
   -7.5300   13.1600  -35.1920 C   0  0  0  0  0  0  0  0  0  0  0  0
   -6.4040   12.3680  -35.1650 C   0  0  0  0  0  0  0  0  0  0  0  0
   -5.2450   12.9560  -34.6320 C   0  0  0  0  0  0  0  0  0  0  0  0
   -5.3350   14.2180  -34.2020 C   0  0  0  0  0  0  0  0  0  0  0  0
   -4.0420   15.3370  -33.4400 S   0  0  0  0  0  0  0  0  0  0  0  0
   -5.6400   18.6450  -31.8150 C   0  0  0  0  0  0  0  0  0  0  0  0
   -6.9120   18.0810  -31.5220 N   0  0  0  0  0  0  0  0  0  0  0  0
   -5.2250   19.8130  -31.2420 N   0  0  0  0  0  0  0  0  0  0  0  0
   -4.1840   22.7830  -31.2390 C   0  0  0  0  0  0  0  0  0  0  0  0
   -3.7870   23.9540  -30.7090 N   0  0  0  0  0  0  0  0  0  0  0  0
   -2.6850   24.9190  -26.9920 C   0  0  0  0  0  0  0  0  0  0  0  0
   -2.3140   25.0880  -25.7130 N   0  0  0  0  0  0  0  0  0  0  0  0
   -1.6738   25.6255  -23.3226 H   0  0  0  0  0  0  0  0  0  0  0  0
    0.0541   25.4054  -23.7616 H   0  0  0  0  0  0  0  0  0  0  0  0
   -0.6702   27.0492  -23.7616 H   0  0  0  0  0  0  0  0  0  0  0  0
    0.3660   26.9979  -26.1905 H   0  0  0  0  0  0  0  0  0  0  0  0
   -0.2855   26.7082  -28.5337 H   0  0  0  0  0  0  0  0  0  0  0  0
   -1.2832   22.8764  -28.7716 H   0  0  0  0  0  0  0  0  0  0  0  0
   -2.0048   20.7210  -29.7382 H   0  0  0  0  0  0  0  0  0  0  0  0
   -1.8750   18.3660  -34.0080 H   0  0  0  0  0  0  0  0  0  0  0  0
   -8.5423   15.0117  -34.8066 H   0  0  0  0  0  0  0  0  0  0  0  0
   -8.4486   12.7184  -35.6057 H   0  0  0  0  0  0  0  0  0  0  0  0
   -6.4116   11.3337  -35.5395 H   0  0  0  0  0  0  0  0  0  0  0  0
   -4.2987   12.3985  -34.5709 H   0  0  0  0  0  0  0  0  0  0  0  0
   -7.4950   18.4480  -30.7400 H   0  0  0  0  0  0  0  0  0  0  0  0
   -7.2570   17.2840  -32.1080 H   0  0  0  0  0  0  0  0  0  0  0  0
   -5.8860   20.2530  -30.5910 H   0  0  0  0  0  0  0  0  0  0  0  0
   -5.0240   22.7802  -31.9493 H   0  0  0  0  0  0  0  0  0  0  0  0
   -3.5756   24.3114  -27.2105 H   0  0  0  0  0  0  0  0  0  0  0  0
  1  2  1  0
  2  3  2  0
  3  4  1  0
  4  5  2  0
  5  6  1  0
  6  7  1  0
  7  8  2  0
  8  9  1  0
  9 10  2  0
 10 11  1  0
 11 12  2  0
 12 13  1  0
 13 14  2  3
 13 15  1  0
 15 16  1  0
 16 17  2  0
 17 18  1  0
 18 19  2  0
 19 20  1  0
 20 21  2  0
 21 22  1  0
 22 23  2  0
 23 24  1  0
 15 25  2  0
 25 26  1  0
 25 27  1  0
 10 28  1  0
 28 29  2  0
  5 30  1  0
 30 31  2  0
 31  2  1  0
 29  7  1  0
 27 11  1  0
 24 16  1  0
 23 18  1  0
  1 32  1  0
  1 33  1  0
  1 34  1  0
  3 35  1  0
  4 36  1  0
  8 37  1  0
  9 38  1  0
 14 39  1  0
 19 40  1  0
 20 41  1  0
 21 42  1  0
 22 43  1  0
 26 44  1  0
 26 45  1  0
 27 46  1  0
 28 47  1  0
 30 48  1  0
M  END
>  <smiles>  (29) 
Cc1ccc(Oc2ccc(-c3nc(=N)c(-c4nc5ccccc5s4)c(N)[nH]3)cn2)cn1

>  <score_type>  (29) 
oracle

>  <origin>  (29) 
adgpu

>  <m_score__min__energy>  (29) 
-9.1500000000000004

>  <m_primary>  (29) 
energy

$$$$
29:0
     RDKit          3D

 39 42  0  0  1  0  0  0  0  0999 V2000
   -3.5790   24.9250  -30.4730 O   0  0  0  0  0  0  0  0  0  0  0  0
   -3.0170   24.0570  -29.3970 S   0  0  0  0  0  0  0  0  0  0  0  0
   -3.0600   22.5120  -29.7450 N   0  0  0  0  0  0  0  0  0  0  0  0
   -4.2300   22.0950  -30.4360 C   0  0  0  0  0  0  0  0  0  0  0  0
   -4.1700   20.9130  -31.1080 C   0  0  0  0  0  0  0  0  0  0  0  0
   -5.3470   20.5290  -31.7810 C   0  0  0  0  0  0  0  0  0  0  0  0
   -6.4390   21.3420  -31.7170 C   0  0  0  0  0  0  0  0  0  0  0  0
   -7.6070   21.0050  -32.3600 C   0  0  0  0  0  0  0  0  0  0  0  0
   -7.6900   19.9560  -33.0080 N   0  0  0  0  0  0  0  0  0  0  0  0
   -6.8860   18.9020  -33.3230 C   0  0  0  0  0  0  0  0  0  0  0  0
   -6.1180   18.9790  -34.5130 C   0  0  0  0  0  0  0  0  0  0  0  0
   -5.2140   17.9880  -34.8290 C   0  0  0  0  0  0  0  0  0  0  0  0
   -5.0440   16.9020  -33.9880 C   0  0  0  0  0  0  0  0  0  0  0  0
   -3.7730   15.5610  -34.4880 Br  0  0  0  0  0  0  0  0  0  0  0  0
   -5.7800   16.8070  -32.8280 C   0  0  0  0  0  0  0  0  0  0  0  0
   -6.6960   17.7810  -32.4760 C   0  0  0  0  0  0  0  0  0  0  0  0
   -7.4310   17.7000  -31.3290 F   0  0  0  0  0  0  0  0  0  0  0  0
   -8.6930   21.8140  -32.2960 N   0  0  0  0  0  0  0  0  0  0  0  0
   -8.6380   22.9570  -31.6030 C   0  0  0  0  0  0  0  0  0  0  0  0
   -7.5270   23.3420  -30.9540 N   0  0  0  0  0  0  0  0  0  0  0  0
   -6.4580   22.5280  -31.0270 C   0  0  0  0  0  0  0  0  0  0  0  0
   -5.3260   22.9170  -30.3670 C   0  0  0  0  0  0  0  0  0  0  0  0
   -1.4830   24.5980  -28.7380 C   0  0  0  0  0  0  0  0  0  0  0  0
   -2.1230   24.9200  -27.4050 C   0  0  0  0  0  0  0  0  0  0  0  0
   -3.5330   24.4780  -27.7700 C   0  0  0  0  0  0  0  0  0  0  0  0
   -3.2595   20.2959  -31.1247 H   0  0  0  0  0  0  0  0  0  0  0  0
   -5.3839   19.5878  -32.3491 H   0  0  0  0  0  0  0  0  0  0  0  0
   -6.2451   19.8371  -35.1894 H   0  0  0  0  0  0  0  0  0  0  0  0
   -4.6243   18.0605  -35.7547 H   0  0  0  0  0  0  0  0  0  0  0  0
   -5.6363   15.9387  -32.1681 H   0  0  0  0  0  0  0  0  0  0  0  0
   -9.5292   23.6006  -31.5636 H   0  0  0  0  0  0  0  0  0  0  0  0
   -7.5440   24.2320  -30.4370 H   0  0  0  0  0  0  0  0  0  0  0  0
   -5.2949   23.8585  -29.7990 H   0  0  0  0  0  0  0  0  0  0  0  0
   -0.7205   23.8071  -28.6838 H   0  0  0  0  0  0  0  0  0  0  0  0
   -0.9083   25.3733  -29.2659 H   0  0  0  0  0  0  0  0  0  0  0  0
   -1.6969   24.3309  -26.5795 H   0  0  0  0  0  0  0  0  0  0  0  0
   -2.0078   25.9505  -27.0377 H   0  0  0  0  0  0  0  0  0  0  0  0
   -3.8964   23.6215  -27.1832 H   0  0  0  0  0  0  0  0  0  0  0  0
   -4.3770   25.1685  -27.6256 H   0  0  0  0  0  0  0  0  0  0  0  0
  1  2  2  0
  2  3  2  0
  3  4  1  0
  4  5  2  0
  5  6  1  0
  6  7  2  0
  7  8  1  0
  8  9  2  0
  9 10  1  0
 10 11  2  0
 11 12  1  0
 12 13  2  0
 13 14  1  0
 13 15  1  0
 15 16  2  0
 16 17  1  0
  8 18  1  0
 18 19  2  0
 19 20  1  0
 20 21  1  0
 21 22  2  0
  2 23  1  0
 23 24  1  0
 24 25  1  0
 25  2  1  0
 22  4  1  0
 21  7  1  0
 16 10  1  0
  5 26  1  0
  6 27  1  0
 11 28  1  0
 12 29  1  0
 15 30  1  0
 19 31  1  0
 20 32  1  0
 22 33  1  0
 23 34  1  0
 23 35  1  0
 24 36  1  0
 24 37  1  0
 25 38  1  0
 25 39  1  0
M  END
>  <smiles>  (30) 
O=S1(=Nc2ccc3c(=Nc4ccc(Br)cc4F)nc[nH]c3c2)CCC1

>  <score_type>  (30) 
oracle

>  <origin>  (30) 
adgpu

>  <m_score__min__energy>  (30) 
-9.0600000000000005

>  <m_primary>  (30) 
energy

$$$$
30:0
     RDKit          3D

 63 66  0  0  0  0  0  0  0  0999 V2000
   -5.3520   25.1940  -30.2630 C   0  0  0  0  0  0  0  0  0  0  0  0
   -3.9360   25.3060  -30.3420 O   0  0  0  0  0  0  0  0  0  0  0  0
   -3.0720   24.2280  -30.1100 C   0  0  0  0  0  0  0  0  0  0  0  0
   -3.0430   23.0350  -30.8150 C   0  0  0  0  0  0  0  0  0  0  0  0
   -2.0470   22.2820  -30.2110 C   0  0  0  0  0  0  0  0  0  0  0  0
   -1.6840   20.9270  -30.5120 N   0  0  0  0  0  0  0  0  0  0  0  0
   -0.7610   20.1500  -29.7300 C   0  0  0  0  0  0  0  0  0  0  0  0
   -0.5000   20.4870  -28.5420 O   0  0  0  0  0  0  0  0  0  0  0  0
   -0.1530   18.9200  -30.2900 C   0  0  0  0  0  0  0  0  0  0  0  0
    0.0810   17.8070  -29.4630 C   0  0  0  0  0  0  0  0  0  0  0  0
    0.6620   16.6510  -29.9870 C   0  0  0  0  0  0  0  0  0  0  0  0
    1.0180   16.5920  -31.3350 C   0  0  0  0  0  0  0  0  0  0  0  0
    0.7880   17.6860  -32.1790 C   0  0  0  0  0  0  0  0  0  0  0  0
    1.2090   17.5970  -33.5480 N   0  0  0  0  0  0  0  0  0  0  0  0
    0.5430   18.1390  -34.6980 C   0  0  0  0  0  0  0  0  0  0  0  0
    1.0650   18.0430  -35.8380 O   0  0  0  0  0  0  0  0  0  0  0  0
   -0.6580   18.9040  -34.5480 N   0  0  0  0  0  0  0  0  0  0  0  0
   -1.9690   18.3850  -34.2730 C   0  0  0  0  0  0  0  0  0  0  0  0
   -2.4170   17.1810  -34.8380 C   0  0  0  0  0  0  0  0  0  0  0  0
   -3.6960   16.7080  -34.5590 C   0  0  0  0  0  0  0  0  0  0  0  0
   -4.5530   17.4200  -33.7150 C   0  0  0  0  0  0  0  0  0  0  0  0
   -6.1460   16.7220  -33.4390 Cl  0  0  0  0  0  0  0  0  0  0  0  0
   -4.1290   18.6510  -33.1510 C   0  0  0  0  0  0  0  0  0  0  0  0
   -5.1630   19.5830  -32.0330 S   0  0  0  0  0  0  0  0  0  0  0  0
   -4.3240   20.2950  -31.0110 O   0  0  0  0  0  0  0  0  0  0  0  0
   -6.0690   18.6400  -31.2870 O   0  0  0  0  0  0  0  0  0  0  0  0
   -6.1780   20.7990  -32.9000 C   0  0  2  0  0  0  0  0  0  0  0  0
   -6.0090   22.1970  -32.3250 C   0  0  0  0  0  0  0  0  0  0  0  0
   -7.1830   22.3880  -31.3670 C   0  0  0  0  0  0  0  0  0  0  0  0
   -8.0420   21.1970  -31.4730 N   0  0  0  0  0  0  0  0  0  0  0  0
   -9.4710   21.5370  -31.4560 C   0  0  0  0  0  0  0  0  0  0  0  0
   -7.6600   20.5240  -32.7160 C   0  0  0  0  0  0  0  0  0  0  0  0
   -2.8380   19.1310  -33.4640 C   0  0  0  0  0  0  0  0  0  0  0  0
   -2.4010   20.3550  -32.9720 O   0  0  0  0  0  0  0  0  0  0  0  0
    0.2200   18.8580  -31.6460 C   0  0  0  0  0  0  0  0  0  0  0  0
   -1.5260   23.0270  -29.1750 C   0  0  0  0  0  0  0  0  0  0  0  0
   -2.1420   24.2230  -29.1320 N   0  0  0  0  0  0  0  0  0  0  0  0
   -1.9340   25.2590  -28.1290 C   0  0  0  0  0  0  0  0  0  0  0  0
   -5.6595   25.1697  -29.2071 H   0  0  0  0  0  0  0  0  0  0  0  0
   -5.8165   26.0582  -30.7604 H   0  0  0  0  0  0  0  0  0  0  0  0
   -5.6749   24.2675  -30.7604 H   0  0  0  0  0  0  0  0  0  0  0  0
   -3.6737   22.7475  -31.6691 H   0  0  0  0  0  0  0  0  0  0  0  0
   -2.1760   20.4620  -31.3090 H   0  0  0  0  0  0  0  0  0  0  0  0
   -0.1949   17.8475  -28.3989 H   0  0  0  0  0  0  0  0  0  0  0  0
    0.8399   15.7832  -29.3348 H   0  0  0  0  0  0  0  0  0  0  0  0
    1.4826   15.6798  -31.7377 H   0  0  0  0  0  0  0  0  0  0  0  0
   -1.7546   16.6087  -35.5041 H   0  0  0  0  0  0  0  0  0  0  0  0
   -4.0362   15.7631  -35.0078 H   0  0  0  0  0  0  0  0  0  0  0  0
   -5.8538   20.7298  -33.9489 H   0  0  0  0  0  0  0  0  0  0  0  0
   -5.0544   22.2777  -31.7844 H   0  0  0  0  0  0  0  0  0  0  0  0
   -5.9962   22.9640  -33.1133 H   0  0  0  0  0  0  0  0  0  0  0  0
   -6.8130   22.4931  -30.3365 H   0  0  0  0  0  0  0  0  0  0  0  0
   -7.7480   23.2961  -31.6243 H   0  0  0  0  0  0  0  0  0  0  0  0
   -9.8160   21.6191  -30.4147 H   0  0  0  0  0  0  0  0  0  0  0  0
   -9.6256   22.4970  -31.9703 H   0  0  0  0  0  0  0  0  0  0  0  0
  -10.0414   20.7495  -31.9703 H   0  0  0  0  0  0  0  0  0  0  0  0
   -7.8413   19.4420  -32.6365 H   0  0  0  0  0  0  0  0  0  0  0  0
   -8.2478   20.8903  -33.5706 H   0  0  0  0  0  0  0  0  0  0  0  0
    0.0662   19.7331  -32.2945 H   0  0  0  0  0  0  0  0  0  0  0  0
   -0.7312   22.6959  -28.4904 H   0  0  0  0  0  0  0  0  0  0  0  0
   -2.0222   24.8197  -27.1244 H   0  0  0  0  0  0  0  0  0  0  0  0
   -0.9308   25.6929  -28.2527 H   0  0  0  0  0  0  0  0  0  0  0  0
   -2.6920   26.0465  -28.2527 H   0  0  0  0  0  0  0  0  0  0  0  0
  1  2  1  0
  2  3  1  0
  3  4  2  0
  4  5  1  0
  5  6  1  0
  6  7  1  0
  7  8  2  0
  7  9  1  0
  9 10  2  0
 10 11  1  0
 11 12  2  0
 12 13  1  0
 13 14  1  0
 14 15  1  0
 15 16  2  0
 15 17  1  0
 17 18  1  0
 18 19  2  0
 19 20  1  0
 20 21  2  0
 21 22  1  0
 21 23  1  0
 23 24  1  0
 24 25  2  0
 24 26  2  0
 24 27  1  0
 27 28  1  0
 28 29  1  0
 29 30  1  0
 30 31  1  0
 30 32  1  0
 23 33  2  0
 33 34  1  0
 13 35  2  0
  5 36  2  0
 36 37  1  0
 37 38  1  0
 37  3  1  0
 35  9  1  0
 33 18  1  0
 32 27  1  0
  1 39  1  0
  1 40  1  0
  1 41  1  0
  4 42  1  0
  6 43  1  0
 10 44  1  0
 11 45  1  0
 12 46  1  0
 19 47  1  0
 20 48  1  0
 27 49  1  6
 28 50  1  0
 28 51  1  0
 29 52  1  0
 29 53  1  0
 31 54  1  0
 31 55  1  0
 31 56  1  0
 32 57  1  0
 32 58  1  0
 35 59  1  0
 36 60  1  0
 38 61  1  0
 38 62  1  0
 38 63  1  0
M  CHG  3  14  -1  17  -1  34  -1
M  END
>  <UniqueID>  (31) 
28

>  <SMILES>  (31) 
COc1cc(NC(=O)c2cccc([N-]C(=O)[N-]c3ccc(Cl)c(S(=O)(=O)[C@@H]4CCN(C)C4)c3[O-])c2)cn1C

>  <Energy>  (31) 
105.52096904531696

>  <Genealogy>  (31) 
COc1cc(NC(=O)c2cccc([N-]C(=O)[N-]c3ccc(Cl)c(S(=O)(=O)C4CCN(C)C4)c3[O-])c2)cn1C (protonated)
COc1cc(NC(=O)c2cccc([N-]C(=O)[N-]c3ccc(Cl)c(S(=O)(=O)[C@@H]4CCN(C)C4)c3[O-])c2)cn1C (chirality)
COc1cc(NC(=O)c2cccc([N-]C(=O)[N-]c3ccc(Cl)c(S(=O)(=O)[C@@H]4CCN(C)C4)c3[O-])c2)cn1C (3D coordinates assigned)
COc1cc(NC(=O)c2cccc([N-]C(=O)[N-]c3ccc(Cl)c(S(=O)(=O)[C@@H]4CCN(C)C4)c3[O-])c2)cn1C (nonaromatic ring conformer: 105.52096904531696 kcal/mol)

>  <smiles>  (31) 
COc1cc(NC(=O)c2cccc(NC(=O)Nc3ccc(Cl)c(S(=O)(=O)C4CCN(C)C4)c3O)c2)cn1C

>  <score_type>  (31) 
oracle

>  <origin>  (31) 
adgpu

>  <m_score__min__energy>  (31) 
-16.550000000000001

>  <m_primary>  (31) 
energy

$$$$
31:0
     RDKit          3D

 49 51  0  0  0  0  0  0  0  0999 V2000
   -0.8850   26.8590  -23.6430 C   0  0  0  0  0  0  0  0  0  0  0  0
    0.5690   26.4620  -23.8780 C   0  0  0  0  0  0  0  0  0  0  0  0
    0.6680   25.4910  -24.9190 O   0  0  0  0  0  0  0  0  0  0  0  0
   -0.1810   25.3980  -26.0350 C   0  0  0  0  0  0  0  0  0  0  0  0
   -1.1910   24.4310  -26.0160 C   0  0  0  0  0  0  0  0  0  0  0  0
   -2.0640   24.2920  -27.0980 C   0  0  0  0  0  0  0  0  0  0  0  0
   -1.9320   25.1110  -28.2290 C   0  0  0  0  0  0  0  0  0  0  0  0
   -2.8570   24.9620  -29.3190 N   0  0  0  0  0  0  0  0  0  0  0  0
   -3.0820   23.7340  -30.0250 C   0  0  0  0  0  0  0  0  0  0  0  0
   -2.5860   22.6540  -29.6060 O   0  0  0  0  0  0  0  0  0  0  0  0
   -3.8710   23.7550  -31.2220 N   0  0  0  0  0  0  0  0  0  0  0  0
   -5.2330   23.3200  -31.3570 C   0  0  0  0  0  0  0  0  0  0  0  0
   -6.3190   24.1760  -31.1010 C   0  0  0  0  0  0  0  0  0  0  0  0
   -7.6280   23.7170  -31.2650 C   0  0  0  0  0  0  0  0  0  0  0  0
   -7.8660   22.4110  -31.6990 C   0  0  0  0  0  0  0  0  0  0  0  0
   -6.7920   21.5590  -31.9900 C   0  0  0  0  0  0  0  0  0  0  0  0
   -7.0910   19.9080  -32.5480 S   0  0  0  0  0  0  0  0  0  0  0  0
   -8.4890   19.8220  -33.0930 O   0  0  0  0  0  0  0  0  0  0  0  0
   -6.9910   18.9720  -31.3770 O   0  0  0  0  0  0  0  0  0  0  0  0
   -5.9680   19.3940  -33.7840 N   0  0  0  0  0  0  0  0  0  0  0  0
   -6.1880   18.0060  -34.1840 C   0  0  0  0  0  0  0  0  0  0  0  0
   -4.8610   17.5020  -34.7280 C   0  0  0  0  0  0  0  0  0  0  0  0
   -3.8090   18.4470  -34.1650 C   0  0  0  0  0  0  0  0  0  0  0  0
   -4.5810   19.4540  -33.3260 C   0  0  0  0  0  0  0  0  0  0  0  0
   -5.4780   22.0190  -31.8160 C   0  0  0  0  0  0  0  0  0  0  0  0
   -0.9350   26.1010  -28.2400 C   0  0  0  0  0  0  0  0  0  0  0  0
   -0.0630   26.2410  -27.1570 C   0  0  0  0  0  0  0  0  0  0  0  0
   -1.0804   26.9123  -22.5618 H   0  0  0  0  0  0  0  0  0  0  0  0
   -1.0750   27.8419  -24.0989 H   0  0  0  0  0  0  0  0  0  0  0  0
   -1.5481   26.1090  -24.0989 H   0  0  0  0  0  0  0  0  0  0  0  0
    1.1451   27.3550  -24.1620 H   0  0  0  0  0  0  0  0  0  0  0  0
    0.9695   26.0264  -22.9507 H   0  0  0  0  0  0  0  0  0  0  0  0
   -1.2992   23.7735  -25.1408 H   0  0  0  0  0  0  0  0  0  0  0  0
   -2.8609   23.5345  -27.0626 H   0  0  0  0  0  0  0  0  0  0  0  0
   -3.4750   25.7710  -29.5570 H   0  0  0  0  0  0  0  0  0  0  0  0
   -6.1372   25.2094  -30.7708 H   0  0  0  0  0  0  0  0  0  0  0  0
   -8.4743   24.3865  -31.0516 H   0  0  0  0  0  0  0  0  0  0  0  0
   -8.8989   22.0503  -31.8127 H   0  0  0  0  0  0  0  0  0  0  0  0
   -6.4970   17.4043  -33.3166 H   0  0  0  0  0  0  0  0  0  0  0  0
   -6.9841   17.9295  -34.9392 H   0  0  0  0  0  0  0  0  0  0  0  0
   -4.6731   16.4719  -34.3909 H   0  0  0  0  0  0  0  0  0  0  0  0
   -4.8494   17.4850  -35.8278 H   0  0  0  0  0  0  0  0  0  0  0  0
   -3.0906   17.8957  -33.5406 H   0  0  0  0  0  0  0  0  0  0  0  0
   -3.2291   18.9361  -34.9615 H   0  0  0  0  0  0  0  0  0  0  0  0
   -4.5202   19.1878  -32.2604 H   0  0  0  0  0  0  0  0  0  0  0  0
   -4.1672   20.4671  -33.4374 H   0  0  0  0  0  0  0  0  0  0  0  0
   -4.6327   21.3524  -32.0419 H   0  0  0  0  0  0  0  0  0  0  0  0
   -0.8402   26.7707  -29.1074 H   0  0  0  0  0  0  0  0  0  0  0  0
    0.7196   27.0136  -27.1810 H   0  0  0  0  0  0  0  0  0  0  0  0
  1  2  1  0
  2  3  1  0
  3  4  1  0
  4  5  2  0
  5  6  1  0
  6  7  2  0
  7  8  1  0
  8  9  1  0
  9 10  2  0
  9 11  1  0
 11 12  1  0
 12 13  2  0
 13 14  1  0
 14 15  2  0
 15 16  1  0
 16 17  1  0
 17 18  2  0
 17 19  2  0
 17 20  1  0
 20 21  1  0
 21 22  1  0
 22 23  1  0
 23 24  1  0
 16 25  2  0
  7 26  1  0
 26 27  2  0
 27  4  1  0
 25 12  1  0
 24 20  1  0
  1 28  1  0
  1 29  1  0
  1 30  1  0
  2 31  1  0
  2 32  1  0
  5 33  1  0
  6 34  1  0
  8 35  1  0
 13 36  1  0
 14 37  1  0
 15 38  1  0
 21 39  1  0
 21 40  1  0
 22 41  1  0
 22 42  1  0
 23 43  1  0
 23 44  1  0
 24 45  1  0
 24 46  1  0
 25 47  1  0
 26 48  1  0
 27 49  1  0
M  CHG  1  11  -1
M  END
>  <UniqueID>  (32) 
29

>  <SMILES>  (32) 
CCOc1ccc(NC(=O)[N-]c2cccc(S(=O)(=O)N3CCCC3)c2)cc1

>  <Energy>  (32) 
55.701303468418736

>  <Genealogy>  (32) 
CCOc1ccc(NC(=O)[N-]c2cccc(S(=O)(=O)N3CCCC3)c2)cc1 (protonated)
CCOc1ccc(NC(=O)[N-]c2cccc(S(=O)(=O)N3CCCC3)c2)cc1 (3D coordinates assigned)
CCOc1ccc(NC(=O)[N-]c2cccc(S(=O)(=O)N3CCCC3)c2)cc1 (nonaromatic ring conformer: 55.701303468418736 kcal/mol)

>  <smiles>  (32) 
CCOc1ccc(NC(=O)Nc2cccc(S(=O)(=O)N3CCCC3)c2)cc1

>  <score_type>  (32) 
oracle

>  <origin>  (32) 
adgpu

>  <m_score__min__energy>  (32) 
-10.67

>  <m_primary>  (32) 
energy

$$$$
32:0
     RDKit          3D

 43 45  0  0  0  0  0  0  0  0999 V2000
   -2.8510   16.4290  -33.7230 C   0  0  0  0  0  0  0  0  0  0  0  0
   -3.5580   17.5350  -34.2770 O   0  0  0  0  0  0  0  0  0  0  0  0
   -4.7510   18.0660  -33.7560 C   0  0  0  0  0  0  0  0  0  0  0  0
   -5.9840   17.4110  -33.9310 C   0  0  0  0  0  0  0  0  0  0  0  0
   -7.1600   17.9590  -33.4180 C   0  0  0  0  0  0  0  0  0  0  0  0
   -7.1340   19.1690  -32.7040 C   0  0  0  0  0  0  0  0  0  0  0  0
   -8.3840   19.7500  -32.1580 C   0  0  0  0  0  0  0  0  0  0  0  0
   -9.5000   19.3930  -32.6260 O   0  0  0  0  0  0  0  0  0  0  0  0
   -8.3250   20.6790  -31.0640 N   0  0  0  0  0  0  0  0  0  0  0  0
   -7.6690   21.9540  -31.0550 C   0  0  0  0  0  0  0  0  0  0  0  0
   -7.4220   22.6610  -29.8610 C   0  0  0  0  0  0  0  0  0  0  0  0
   -6.8020   23.9140  -29.9010 C   0  0  0  0  0  0  0  0  0  0  0  0
   -6.4450   24.4810  -31.1290 C   0  0  0  0  0  0  0  0  0  0  0  0
   -5.8380   25.6960  -31.1650 F   0  0  0  0  0  0  0  0  0  0  0  0
   -6.7120   23.7960  -32.3190 C   0  0  0  0  0  0  0  0  0  0  0  0
   -7.3270   22.5410  -32.2820 C   0  0  0  0  0  0  0  0  0  0  0  0
   -5.9030   19.8210  -32.5210 C   0  0  0  0  0  0  0  0  0  0  0  0
   -4.7170   19.2830  -33.0430 C   0  0  0  0  0  0  0  0  0  0  0  0
   -3.2120   20.1780  -32.7950 S   0  0  0  0  0  0  0  0  0  0  0  0
   -2.0100   19.4040  -33.2680 O   0  0  0  0  0  0  0  0  0  0  0  0
   -3.2890   21.4680  -33.5650 O   0  0  0  0  0  0  0  0  0  0  0  0
   -3.0160   20.5370  -31.1090 N   0  0  0  0  0  0  0  0  0  0  0  0
   -2.7250   21.8360  -30.5710 C   0  0  0  0  0  0  0  0  0  0  0  0
   -3.7090   22.8310  -30.6540 C   0  0  0  0  0  0  0  0  0  0  0  0
   -3.4760   24.1060  -30.1250 C   0  0  0  0  0  0  0  0  0  0  0  0
   -2.2530   24.4010  -29.5170 C   0  0  0  0  0  0  0  0  0  0  0  0
   -2.0210   25.6710  -28.9960 O   0  0  0  0  0  0  0  0  0  0  0  0
   -1.2600   23.4190  -29.4400 C   0  0  0  0  0  0  0  0  0  0  0  0
   -1.4940   22.1380  -29.9590 C   0  0  0  0  0  0  0  0  0  0  0  0
   -2.8862   16.4841  -32.6249 H   0  0  0  0  0  0  0  0  0  0  0  0
   -3.3172   15.4907  -34.0582 H   0  0  0  0  0  0  0  0  0  0  0  0
   -1.8037   16.4582  -34.0582 H   0  0  0  0  0  0  0  0  0  0  0  0
   -6.0211   16.4573  -34.4778 H   0  0  0  0  0  0  0  0  0  0  0  0
   -8.1167   17.4389  -33.5739 H   0  0  0  0  0  0  0  0  0  0  0  0
   -7.7177   22.2260  -28.8949 H   0  0  0  0  0  0  0  0  0  0  0  0
   -6.5948   24.4544  -28.9656 H   0  0  0  0  0  0  0  0  0  0  0  0
   -6.4378   24.2452  -33.2849 H   0  0  0  0  0  0  0  0  0  0  0  0
   -7.5440   22.0107  -33.2210 H   0  0  0  0  0  0  0  0  0  0  0  0
   -5.8686   20.7668  -31.9604 H   0  0  0  0  0  0  0  0  0  0  0  0
   -4.6712   22.6083  -31.1383 H   0  0  0  0  0  0  0  0  0  0  0  0
   -4.2576   24.8775  -30.1881 H   0  0  0  0  0  0  0  0  0  0  0  0
   -0.2928   23.6525  -28.9709 H   0  0  0  0  0  0  0  0  0  0  0  0
   -0.7132   21.3665  -29.8878 H   0  0  0  0  0  0  0  0  0  0  0  0
  1  2  1  0
  2  3  1  0
  3  4  2  0
  4  5  1  0
  5  6  2  0
  6  7  1  0
  7  8  2  0
  7  9  1  0
  9 10  1  0
 10 11  2  0
 11 12  1  0
 12 13  2  0
 13 14  1  0
 13 15  1  0
 15 16  2  0
  6 17  1  0
 17 18  2  0
 18 19  1  0
 19 20  2  0
 19 21  2  0
 19 22  1  0
 22 23  1  0
 23 24  2  0
 24 25  1  0
 25 26  2  0
 26 27  1  0
 26 28  1  0
 28 29  2  0
 18  3  1  0
 29 23  1  0
 16 10  1  0
  1 30  1  0
  1 31  1  0
  1 32  1  0
  4 33  1  0
  5 34  1  0
 11 35  1  0
 12 36  1  0
 15 37  1  0
 16 38  1  0
 17 39  1  0
 24 40  1  0
 25 41  1  0
 28 42  1  0
 29 43  1  0
M  CHG  3   9  -1  22  -1  27  -1
M  END
>  <UniqueID>  (33) 
30

>  <SMILES>  (33) 
COc1ccc(C(=O)[N-]c2ccc(F)cc2)cc1S(=O)(=O)[N-]c1ccc([O-])cc1

>  <Energy>  (33) 
54.141393267230576

>  <Genealogy>  (33) 
COc1ccc(C(=O)[N-]c2ccc(F)cc2)cc1S(=O)(=O)[N-]c1ccc([O-])cc1 (protonated)
COc1ccc(C(=O)[N-]c2ccc(F)cc2)cc1S(=O)(=O)[N-]c1ccc([O-])cc1 (3D coordinates assigned)
COc1ccc(C(=O)[N-]c2ccc(F)cc2)cc1S(=O)(=O)[N-]c1ccc([O-])cc1 (optimized conformer: 54.141393267230576 kcal/mol)

>  <smiles>  (33) 
COc1ccc(C(=O)Nc2ccc(F)cc2)cc1S(=O)(=O)Nc1ccc(O)cc1

>  <score_type>  (33) 
oracle

>  <origin>  (33) 
adgpu

>  <m_score__min__energy>  (33) 
-11.25

>  <m_primary>  (33) 
energy

$$$$
33:0
     RDKit          3D

 36 39  0  0  0  0  0  0  0  0999 V2000
   -5.8520   14.1930  -34.4980 C   0  0  0  0  0  0  0  0  0  0  0  0
   -5.1180   15.0780  -33.4840 C   0  0  0  0  0  0  0  0  0  0  0  0
   -4.9610   14.3280  -32.1530 C   0  0  0  0  0  0  0  0  0  0  0  0
   -3.7460   15.4300  -34.0190 C   0  0  0  0  0  0  0  0  0  0  0  0
   -3.2050   16.6370  -33.8250 C   0  0  0  0  0  0  0  0  0  0  0  0
   -3.9780   17.7240  -33.1830 C   0  0  0  0  0  0  0  0  0  0  0  0
   -5.3440   17.4970  -32.9510 C   0  0  0  0  0  0  0  0  0  0  0  0
   -6.1570   18.5080  -32.4350 C   0  0  0  0  0  0  0  0  0  0  0  0
   -5.6120   19.7620  -32.1200 C   0  0  0  0  0  0  0  0  0  0  0  0
   -6.3970   20.8030  -31.5950 C   0  0  0  0  0  0  0  0  0  0  0  0
   -7.6330   20.6340  -31.3940 O   0  0  0  0  0  0  0  0  0  0  0  0
   -5.7920   22.0350  -31.2920 C   0  0  0  0  0  0  0  0  0  0  0  0
   -6.5200   23.1180  -30.7650 C   0  0  0  0  0  0  0  0  0  0  0  0
   -5.8740   24.3260  -30.4790 C   0  0  0  0  0  0  0  0  0  0  0  0
   -4.5030   24.4630  -30.7170 C   0  0  0  0  0  0  0  0  0  0  0  0
   -3.8670   25.6650  -30.4320 O   0  0  0  0  0  0  0  0  0  0  0  0
   -3.7710   23.3940  -31.2410 C   0  0  0  0  0  0  0  0  0  0  0  0
   -4.4070   22.1820  -31.5310 C   0  0  0  0  0  0  0  0  0  0  0  0
   -3.6990   21.1730  -32.0290 O   0  0  0  0  0  0  0  0  0  0  0  0
   -4.2330   19.9920  -32.3290 C   0  0  0  0  0  0  0  0  0  0  0  0
   -3.4140   18.9800  -32.8530 C   0  0  0  0  0  0  0  0  0  0  0  0
   -2.0540   19.2590  -33.0200 O   0  0  0  0  0  0  0  0  0  0  0  0
   -5.9060   16.2540  -33.2600 O   0  0  0  0  0  0  0  0  0  0  0  0
   -6.4655   13.4533  -33.9627 H   0  0  0  0  0  0  0  0  0  0  0  0
   -6.4999   14.8187  -35.1294 H   0  0  0  0  0  0  0  0  0  0  0  0
   -5.1173   13.6720  -35.1294 H   0  0  0  0  0  0  0  0  0  0  0  0
   -5.1077   15.0287  -31.3178 H   0  0  0  0  0  0  0  0  0  0  0  0
   -5.7105   13.5251  -32.0939 H   0  0  0  0  0  0  0  0  0  0  0  0
   -3.9523   13.8931  -32.0939 H   0  0  0  0  0  0  0  0  0  0  0  0
   -3.1799   14.6732  -34.5817 H   0  0  0  0  0  0  0  0  0  0  0  0
   -2.1702   16.8252  -34.1472 H   0  0  0  0  0  0  0  0  0  0  0  0
   -7.2290   18.3207  -32.2748 H   0  0  0  0  0  0  0  0  0  0  0  0
   -7.5990   23.0147  -30.5775 H   0  0  0  0  0  0  0  0  0  0  0  0
   -6.4462   25.1698  -30.0660 H   0  0  0  0  0  0  0  0  0  0  0  0
   -2.6924   23.5057  -31.4258 H   0  0  0  0  0  0  0  0  0  0  0  0
   -1.6280   20.1460  -32.7910 H   0  0  0  0  0  0  0  0  0  0  0  0
  1  2  1  0
  2  3  1  0
  2  4  1  0
  4  5  2  0
  5  6  1  0
  6  7  2  0
  7  8  1  0
  8  9  2  0
  9 10  1  0
 10 11  2  0
 10 12  1  0
 12 13  2  0
 13 14  1  0
 14 15  2  0
 15 16  1  0
 15 17  1  0
 17 18  2  0
 18 19  1  0
 19 20  1  0
 20 21  2  0
 21 22  1  0
  7 23  1  0
 23  2  1  0
 21  6  1  0
 20  9  1  0
 18 12  1  0
  1 24  1  0
  1 25  1  0
  1 26  1  0
  3 27  1  0
  3 28  1  0
  3 29  1  0
  4 30  1  0
  5 31  1  0
  8 32  1  0
 13 33  1  0
 14 34  1  0
 17 35  1  0
 22 36  1  0
M  CHG  1  16  -1
M  END
>  <UniqueID>  (34) 
31

>  <SMILES>  (34) 
CC1(C)C=Cc2c(cc3c(=O)c4ccc([O-])cc4oc3c2O)O1

>  <Energy>  (34) 
50.217252502314174

>  <Genealogy>  (34) 
CC1(C)C=Cc2c(cc3c(=O)c4ccc([O-])cc4oc3c2O)O1 (protonated)
CC1(C)C=Cc2c(cc3c(=O)c4ccc([O-])cc4oc3c2O)O1 (3D coordinates assigned)
CC1(C)C=Cc2c(cc3c(=O)c4ccc([O-])cc4oc3c2O)O1 (nonaromatic ring conformer: 50.217252502314174 kcal/mol)

>  <smiles>  (34) 
CC1(C)C=Cc2c(cc3c(=O)c4ccc(O)cc4oc3c2O)O1

>  <score_type>  (34) 
oracle

>  <origin>  (34) 
adgpu

>  <m_score__min__energy>  (34) 
-9.4299999999999997

>  <m_primary>  (34) 
energy

$$$$
34:0
     RDKit          3D

 74 77  0  0  0  0  0  0  0  0999 V2000
   -0.8360   27.6350  -35.3320 C   0  0  0  0  0  0  0  0  0  0  0  0
    0.5080   26.9280  -35.4630 C   0  0  0  0  0  0  0  0  0  0  0  0
    0.6910   26.4170  -36.8270 N   0  0  0  0  0  0  0  0  0  0  0  0
   -0.1220   26.9700  -37.9130 C   0  0  0  0  0  0  0  0  0  0  0  0
    1.5070   25.2540  -37.0520 C   0  0  0  0  0  0  0  0  0  0  0  0
    2.3560   25.2670  -37.9890 O   0  0  0  0  0  0  0  0  0  0  0  0
    1.3340   24.0250  -36.2390 C   0  0  0  0  0  0  0  0  0  0  0  0
    2.4550   23.3620  -35.7070 C   0  0  0  0  0  0  0  0  0  0  0  0
    2.3040   22.1620  -35.0060 C   0  0  0  0  0  0  0  0  0  0  0  0
    1.0270   21.6090  -34.8140 C   0  0  0  0  0  0  0  0  0  0  0  0
    0.8440   20.3290  -34.1910 N   0  0  0  0  0  0  0  0  0  0  0  0
   -0.0610   19.3100  -34.6370 C   0  0  0  0  0  0  0  0  0  0  0  0
    0.3010   18.5020  -35.5340 O   0  0  0  0  0  0  0  0  0  0  0  0
   -1.4150   19.2080  -34.0420 C   0  0  0  0  0  0  0  0  0  0  0  0
   -2.2210   18.0830  -34.2910 C   0  0  0  0  0  0  0  0  0  0  0  0
   -3.4600   17.9440  -33.6570 C   0  0  0  0  0  0  0  0  0  0  0  0
   -3.9090   18.9230  -32.7720 C   0  0  0  0  0  0  0  0  0  0  0  0
   -3.1280   20.0580  -32.5270 C   0  0  0  0  0  0  0  0  0  0  0  0
   -3.5830   21.0510  -31.6050 N   0  0  0  0  0  0  0  0  0  0  0  0
   -3.4590   20.8200  -30.1630 C   0  0  0  0  0  0  0  0  0  0  0  0
   -3.1630   22.1160  -29.4460 C   0  0  0  0  0  0  0  0  0  0  0  0
   -4.1650   22.6840  -28.6490 C   0  0  0  0  0  0  0  0  0  0  0  0
   -3.9160   23.8300  -27.9040 C   0  0  0  0  0  0  0  0  0  0  0  0
   -2.6660   24.4380  -27.9530 C   0  0  0  0  0  0  0  0  0  0  0  0
   -1.6430   23.9150  -28.7680 C   0  0  0  0  0  0  0  0  0  0  0  0
   -0.3940   24.5480  -28.8440 O   0  0  0  0  0  0  0  0  0  0  0  0
    0.6090   24.5040  -27.8330 C   0  0  0  0  0  0  0  0  0  0  0  0
   -1.8920   22.7350  -29.5220 C   0  0  0  0  0  0  0  0  0  0  0  0
   -0.9240   22.1400  -30.3550 O   0  0  0  0  0  0  0  0  0  0  0  0
   -0.2250   20.9230  -30.1140 C   0  0  0  0  0  0  0  0  0  0  0  0
   -4.5310   22.3690  -32.2150 S   0  0  0  0  0  0  0  0  0  0  0  0
   -4.2450   23.6180  -31.4310 O   0  0  0  0  0  0  0  0  0  0  0  0
   -4.1670   22.6320  -33.6490 O   0  0  0  0  0  0  0  0  0  0  0  0
   -6.2410   21.9540  -32.1130 C   0  0  0  0  0  0  0  0  0  0  0  0
   -6.6520   20.6530  -32.4410 C   0  0  0  0  0  0  0  0  0  0  0  0
   -7.9980   20.2920  -32.3400 C   0  0  0  0  0  0  0  0  0  0  0  0
   -8.9430   21.2290  -31.9170 C   0  0  0  0  0  0  0  0  0  0  0  0
   -8.5430   22.5270  -31.5880 C   0  0  0  0  0  0  0  0  0  0  0  0
   -7.1950   22.8910  -31.6780 C   0  0  0  0  0  0  0  0  0  0  0  0
   -6.8290   24.1480  -31.3360 F   0  0  0  0  0  0  0  0  0  0  0  0
   -1.8900   20.2050  -33.1700 C   0  0  0  0  0  0  0  0  0  0  0  0
   -0.0900   22.2670  -35.3420 C   0  0  0  0  0  0  0  0  0  0  0  0
    0.0600   23.4660  -36.0440 C   0  0  0  0  0  0  0  0  0  0  0  0
   -1.0804   27.7636  -34.2672 H   0  0  0  0  0  0  0  0  0  0  0  0
   -0.7806   28.6207  -35.8171 H   0  0  0  0  0  0  0  0  0  0  0  0
   -1.6169   27.0309  -35.8171 H   0  0  0  0  0  0  0  0  0  0  0  0
    1.3148   27.6391  -35.2318 H   0  0  0  0  0  0  0  0  0  0  0  0
    0.5342   26.0821  -34.7604 H   0  0  0  0  0  0  0  0  0  0  0  0
   -0.9612   27.5408  -37.4887 H   0  0  0  0  0  0  0  0  0  0  0  0
    0.4975   27.6348  -38.5328 H   0  0  0  0  0  0  0  0  0  0  0  0
   -0.5128   26.1496  -38.5328 H   0  0  0  0  0  0  0  0  0  0  0  0
    3.4585   23.7914  -35.8438 H   0  0  0  0  0  0  0  0  0  0  0  0
    3.1893   21.6484  -34.6029 H   0  0  0  0  0  0  0  0  0  0  0  0
   -1.8747   17.3068  -34.9893 H   0  0  0  0  0  0  0  0  0  0  0  0
   -4.0821   17.0593  -33.8574 H   0  0  0  0  0  0  0  0  0  0  0  0
   -4.8782   18.8032  -32.2657 H   0  0  0  0  0  0  0  0  0  0  0  0
   -4.4015   20.4012  -29.7806 H   0  0  0  0  0  0  0  0  0  0  0  0
   -2.6327   20.1163  -29.9840 H   0  0  0  0  0  0  0  0  0  0  0  0
   -5.1605   22.2174  -28.6125 H   0  0  0  0  0  0  0  0  0  0  0  0
   -4.7096   24.2576  -27.2737 H   0  0  0  0  0  0  0  0  0  0  0  0
   -2.4742   25.3370  -27.3488 H   0  0  0  0  0  0  0  0  0  0  0  0
    0.1319   24.5249  -26.8421 H   0  0  0  0  0  0  0  0  0  0  0  0
    1.1953   23.5793  -27.9382 H   0  0  0  0  0  0  0  0  0  0  0  0
    1.2741   25.3738  -27.9382 H   0  0  0  0  0  0  0  0  0  0  0  0
   -0.1324   20.7618  -29.0298 H   0  0  0  0  0  0  0  0  0  0  0  0
   -0.7801   20.0862  -30.5630 H   0  0  0  0  0  0  0  0  0  0  0  0
    0.7775   20.9809  -30.5630 H   0  0  0  0  0  0  0  0  0  0  0  0
   -5.9109   19.9138  -32.7793 H   0  0  0  0  0  0  0  0  0  0  0  0
   -8.3134   19.2692  -32.5938 H   0  0  0  0  0  0  0  0  0  0  0  0
  -10.0032   20.9452  -31.8427 H   0  0  0  0  0  0  0  0  0  0  0  0
   -9.2896   23.2642  -31.2575 H   0  0  0  0  0  0  0  0  0  0  0  0
   -1.2858   21.1067  -32.9912 H   0  0  0  0  0  0  0  0  0  0  0  0
   -1.0930   21.8372  -35.2033 H   0  0  0  0  0  0  0  0  0  0  0  0
   -0.8270   23.9764  -36.4473 H   0  0  0  0  0  0  0  0  0  0  0  0
  1  2  1  0
  2  3  1  0
  3  4  1  0
  3  5  1  0
  5  6  2  0
  5  7  1  0
  7  8  2  0
  8  9  1  0
  9 10  2  0
 10 11  1  0
 11 12  1  0
 12 13  2  0
 12 14  1  0
 14 15  2  0
 15 16  1  0
 16 17  2  0
 17 18  1  0
 18 19  1  0
 19 20  1  0
 20 21  1  0
 21 22  2  0
 22 23  1  0
 23 24  2  0
 24 25  1  0
 25 26  1  0
 26 27  1  0
 25 28  2  0
 28 29  1  0
 29 30  1  0
 19 31  1  0
 31 32  2  0
 31 33  2  0
 31 34  1  0
 34 35  2  0
 35 36  1  0
 36 37  2  0
 37 38  1  0
 38 39  2  0
 39 40  1  0
 18 41  2  0
 10 42  1  0
 42 43  2  0
 43  7  1  0
 41 14  1  0
 28 21  1  0
 39 34  1  0
  1 44  1  0
  1 45  1  0
  1 46  1  0
  2 47  1  0
  2 48  1  0
  4 49  1  0
  4 50  1  0
  4 51  1  0
  8 52  1  0
  9 53  1  0
 15 54  1  0
 16 55  1  0
 17 56  1  0
 20 57  1  0
 20 58  1  0
 22 59  1  0
 23 60  1  0
 24 61  1  0
 27 62  1  0
 27 63  1  0
 27 64  1  0
 30 65  1  0
 30 66  1  0
 30 67  1  0
 35 68  1  0
 36 69  1  0
 37 70  1  0
 38 71  1  0
 41 72  1  0
 42 73  1  0
 43 74  1  0
M  CHG  1  11  -1
M  END
>  <UniqueID>  (35) 
32

>  <SMILES>  (35) 
CCN(C)C(=O)c1ccc([N-]C(=O)c2cccc(N(Cc3cccc(OC)c3OC)S(=O)(=O)c3ccccc3F)c2)cc1

>  <Energy>  (35) 
93.6212727214617

>  <Genealogy>  (35) 
CCN(C)C(=O)c1ccc([N-]C(=O)c2cccc(N(Cc3cccc(OC)c3OC)S(=O)(=O)c3ccccc3F)c2)cc1 (protonated)
CCN(C)C(=O)c1ccc([N-]C(=O)c2cccc(N(Cc3cccc(OC)c3OC)S(=O)(=O)c3ccccc3F)c2)cc1 (3D coordinates assigned)
CCN(C)C(=O)c1ccc([N-]C(=O)c2cccc(N(Cc3cccc(OC)c3OC)S(=O)(=O)c3ccccc3F)c2)cc1 (optimized conformer: 93.6212727214617 kcal/mol)

>  <smiles>  (35) 
CCN(C)C(=O)c1ccc(NC(=O)c2cccc(N(Cc3cccc(OC)c3OC)S(=O)(=O)c3ccccc3F)c2)cc1

>  <score_type>  (35) 
oracle

>  <origin>  (35) 
adgpu

>  <m_score__min__energy>  (35) 
-11.300000000000001

>  <m_primary>  (35) 
energy

$$$$
35:0
     RDKit          3D

 48 51  0  0  0  0  0  0  0  0999 V2000
    0.1040   18.4720  -30.9330 N   0  0  0  0  0  0  0  0  0  0  0  0
   -0.7150   19.2430  -31.2050 C   0  0  0  0  0  0  0  0  0  0  0  0
   -1.7330   20.2030  -31.5440 C   0  0  0  0  0  0  0  0  0  0  0  0
   -2.4410   20.8630  -30.5310 C   0  0  0  0  0  0  0  0  0  0  0  0
   -3.4320   21.7940  -30.8610 C   0  0  0  0  0  0  0  0  0  0  0  0
   -3.7100   22.0870  -32.2040 C   0  0  0  0  0  0  0  0  0  0  0  0
   -4.7410   23.0330  -32.5210 N   0  0  0  0  0  0  0  0  0  0  0  0
   -5.4070   23.8310  -31.5350 C   0  0  0  0  0  0  0  0  0  0  0  0
   -6.6810   23.8890  -30.9950 C   0  0  0  0  0  0  0  0  0  0  0  0
   -7.9040   23.1820  -31.2300 N   0  0  0  0  0  0  0  0  0  0  0  0
   -7.9630   21.7990  -31.6100 C   0  0  0  0  0  0  0  0  0  0  0  0
   -7.2230   21.3560  -32.7140 C   0  0  0  0  0  0  0  0  0  0  0  0
   -7.2400   20.0090  -33.0860 C   0  0  0  0  0  0  0  0  0  0  0  0
   -7.9730   19.0730  -32.3360 C   0  0  0  0  0  0  0  0  0  0  0  0
   -7.9800   17.6070  -32.7280 C   0  0  0  0  0  0  0  0  0  0  0  0
   -6.6620   16.9300  -32.6280 N   0  0  0  0  0  0  0  0  0  0  0  0
   -5.6880   17.6390  -31.7910 C   0  0  0  0  0  0  0  0  0  0  0  0
   -4.7300   18.3810  -32.7140 C   0  0  0  0  0  0  0  0  0  0  0  0
   -4.9250   17.7670  -34.0890 C   0  0  0  0  0  0  0  0  0  0  0  0
   -6.0050   16.7060  -33.9210 C   0  0  0  0  0  0  0  0  0  0  0  0
   -8.7210   19.5200  -31.2340 C   0  0  0  0  0  0  0  0  0  0  0  0
   -8.7040   20.8670  -30.8650 C   0  0  0  0  0  0  0  0  0  0  0  0
   -6.2920   24.9550  -30.2030 C   0  0  0  0  0  0  0  0  0  0  0  0
   -6.8590   25.6920  -29.3540 O   0  0  0  0  0  0  0  0  0  0  0  0
   -5.0270   24.9010  -30.7500 C   0  0  0  0  0  0  0  0  0  0  0  0
   -3.9650   25.5590  -30.5990 O   0  0  0  0  0  0  0  0  0  0  0  0
   -3.0160   21.4010  -33.2150 C   0  0  0  0  0  0  0  0  0  0  0  0
   -2.0260   20.4700  -32.8870 C   0  0  0  0  0  0  0  0  0  0  0  0
   -2.2176   20.6491  -29.4754 H   0  0  0  0  0  0  0  0  0  0  0  0
   -3.9960   22.2988  -30.0628 H   0  0  0  0  0  0  0  0  0  0  0  0
   -5.0670   23.1130  -33.5110 H   0  0  0  0  0  0  0  0  0  0  0  0
   -8.7990   23.6840  -31.0320 H   0  0  0  0  0  0  0  0  0  0  0  0
   -6.6237   22.0743  -33.2928 H   0  0  0  0  0  0  0  0  0  0  0  0
   -6.6763   19.6792  -33.9711 H   0  0  0  0  0  0  0  0  0  0  0  0
   -8.6864   17.0800  -32.0697 H   0  0  0  0  0  0  0  0  0  0  0  0
   -8.2671   17.5713  -33.7893 H   0  0  0  0  0  0  0  0  0  0  0  0
   -6.2078   18.3553  -31.1378 H   0  0  0  0  0  0  0  0  0  0  0  0
   -5.1368   16.9278  -31.1583 H   0  0  0  0  0  0  0  0  0  0  0  0
   -4.9719   19.4539  -32.7353 H   0  0  0  0  0  0  0  0  0  0  0  0
   -3.6878   18.2916  -32.3738 H   0  0  0  0  0  0  0  0  0  0  0  0
   -5.2497   18.5335  -34.8081 H   0  0  0  0  0  0  0  0  0  0  0  0
   -3.9901   17.3351  -34.4755 H   0  0  0  0  0  0  0  0  0  0  0  0
   -6.7414   16.7907  -34.7338 H   0  0  0  0  0  0  0  0  0  0  0  0
   -5.5616   15.6999  -33.9557 H   0  0  0  0  0  0  0  0  0  0  0  0
   -9.3247   18.8037  -30.6574 H   0  0  0  0  0  0  0  0  0  0  0  0
   -9.2745   21.2000  -29.9854 H   0  0  0  0  0  0  0  0  0  0  0  0
   -3.2531   21.5977  -34.2710 H   0  0  0  0  0  0  0  0  0  0  0  0
   -1.4771   19.9471  -33.6841 H   0  0  0  0  0  0  0  0  0  0  0  0
  1  2  3  0
  2  3  1  0
  3  4  2  0
  4  5  1  0
  5  6  2  0
  6  7  1  0
  7  8  1  0
  8  9  2  0
  9 10  1  0
 10 11  1  0
 11 12  2  0
 12 13  1  0
 13 14  2  0
 14 15  1  0
 15 16  1  0
 16 17  1  0
 17 18  1  0
 18 19  1  0
 19 20  1  0
 14 21  1  0
 21 22  2  0
  9 23  1  0
 23 24  2  0
 23 25  1  0
 25 26  2  0
  6 27  1  0
 27 28  2  0
 28  3  1  0
 25  8  1  0
 22 11  1  0
 20 16  1  0
  4 29  1  0
  5 30  1  0
  7 31  1  0
 10 32  1  0
 12 33  1  0
 13 34  1  0
 15 35  1  0
 15 36  1  0
 17 37  1  0
 17 38  1  0
 18 39  1  0
 18 40  1  0
 19 41  1  0
 19 42  1  0
 20 43  1  0
 20 44  1  0
 21 45  1  0
 22 46  1  0
 27 47  1  0
 28 48  1  0
M  END
>  <UniqueID>  (36) 
33

>  <SMILES>  (36) 
N#Cc1ccc(Nc2c(Nc3ccc(CN4CCCC4)cc3)c(=O)c2=O)cc1

>  <Energy>  (36) 
52.24067617892382

>  <Genealogy>  (36) 
N#Cc1ccc(Nc2c(Nc3ccc(CN4CCCC4)cc3)c(=O)c2=O)cc1 (3D coordinates assigned)
N#Cc1ccc(Nc2c(Nc3ccc(CN4CCCC4)cc3)c(=O)c2=O)cc1 (nonaromatic ring conformer: 52.24067617892382 kcal/mol)

>  <smiles>  (36) 
N#Cc1ccc(Nc2c(Nc3ccc(CN4CCCC4)cc3)c(=O)c2=O)cc1

>  <score_type>  (36) 
oracle

>  <origin>  (36) 
adgpu

>  <m_score__min__energy>  (36) 
-9.5199999999999996

>  <m_primary>  (36) 
energy

$$$$
36:0
     RDKit          3D

 57 60  0  0  0  0  0  0  0  0999 V2000
   -2.1130   25.2800  -29.2390 N   0  0  0  0  0  0  0  0  0  0  0  0
   -3.4990   24.4320  -29.8240 S   0  0  0  0  0  0  0  0  0  0  0  0
   -4.2060   25.2760  -30.8480 O   0  0  0  0  0  0  0  0  0  0  0  0
   -4.4450   24.1620  -28.6870 O   0  0  0  0  0  0  0  0  0  0  0  0
   -2.9900   22.9090  -30.5460 C   0  0  0  0  0  0  0  0  0  0  0  0
   -3.2860   22.6320  -31.8880 C   0  0  0  0  0  0  0  0  0  0  0  0
   -2.8850   21.4220  -32.4630 C   0  0  0  0  0  0  0  0  0  0  0  0
   -2.1780   20.4740  -31.7020 C   0  0  0  0  0  0  0  0  0  0  0  0
   -1.7570   19.2210  -32.2690 N   0  0  0  0  0  0  0  0  0  0  0  0
   -0.6750   19.1000  -33.2100 C   0  0  0  0  0  0  0  0  0  0  0  0
    0.1310   20.0600  -33.3600 O   0  0  0  0  0  0  0  0  0  0  0  0
   -0.4530   17.8390  -33.9680 C   0  0  0  0  0  0  0  0  0  0  0  0
    0.8110   17.5650  -34.5200 C   0  0  0  0  0  0  0  0  0  0  0  0
    1.0380   16.3810  -35.2250 C   0  0  0  0  0  0  0  0  0  0  0  0
    0.0120   15.4470  -35.3920 C   0  0  0  0  0  0  0  0  0  0  0  0
    0.3680   13.9690  -36.2830 Cl  0  0  0  0  0  0  0  0  0  0  0  0
   -1.2650   15.7070  -34.8520 C   0  0  0  0  0  0  0  0  0  0  0  0
   -2.5650   14.5160  -34.9930 S   0  0  0  0  0  0  0  0  0  0  0  0
   -3.0380   14.4320  -36.4200 O   0  0  0  0  0  0  0  0  0  0  0  0
   -2.0670   13.1680  -34.5490 O   0  0  0  0  0  0  0  0  0  0  0  0
   -3.8750   15.0270  -33.9750 N   0  0  0  0  0  0  0  0  0  0  0  0
   -4.6290   16.2410  -34.1070 C   0  0  0  0  0  0  0  0  0  0  0  0
   -4.5830   17.0240  -35.2760 C   0  0  0  0  0  0  0  0  0  0  0  0
   -5.3410   18.1960  -35.3670 C   0  0  0  0  0  0  0  0  0  0  0  0
   -6.1540   18.5950  -34.3030 C   0  0  0  0  0  0  0  0  0  0  0  0
   -6.2230   17.8170  -33.1370 C   0  0  0  0  0  0  0  0  0  0  0  0
   -7.2510   18.3080  -31.7860 S   0  0  0  0  0  0  0  0  0  0  0  0
   -8.6130   17.6940  -31.9480 O   0  0  0  0  0  0  0  0  0  0  0  0
   -6.6460   17.8070  -30.5050 O   0  0  0  0  0  0  0  0  0  0  0  0
   -7.4370   20.0610  -31.6950 C   0  0  0  0  0  0  0  0  0  0  0  0
   -8.7150   20.6280  -31.5930 C   0  0  0  0  0  0  0  0  0  0  0  0
   -8.8650   22.0180  -31.5290 C   0  0  0  0  0  0  0  0  0  0  0  0
   -7.7380   22.8460  -31.5670 C   0  0  0  0  0  0  0  0  0  0  0  0
   -6.4610   22.2860  -31.6750 C   0  0  0  0  0  0  0  0  0  0  0  0
   -6.3100   20.8970  -31.7420 C   0  0  0  0  0  0  0  0  0  0  0  0
   -5.4550   16.6400  -33.0450 C   0  0  0  0  0  0  0  0  0  0  0  0
   -5.5040   15.8600  -31.8930 O   0  0  0  0  0  0  0  0  0  0  0  0
   -1.4920   16.9080  -34.1570 C   0  0  0  0  0  0  0  0  0  0  0  0
   -1.9170   20.7410  -30.3490 C   0  0  0  0  0  0  0  0  0  0  0  0
   -2.3140   21.9530  -29.7760 C   0  0  0  0  0  0  0  0  0  0  0  0
   -1.6130   25.6560  -30.0770 H   0  0  0  0  0  0  0  0  0  0  0  0
   -3.8359   23.3694  -32.4911 H   0  0  0  0  0  0  0  0  0  0  0  0
   -3.1238   21.2107  -33.5158 H   0  0  0  0  0  0  0  0  0  0  0  0
   -2.1540   18.3480  -31.8530 H   0  0  0  0  0  0  0  0  0  0  0  0
    1.6287   18.2901  -34.3953 H   0  0  0  0  0  0  0  0  0  0  0  0
    2.0320   16.1821  -35.6521 H   0  0  0  0  0  0  0  0  0  0  0  0
   -3.9494   16.7134  -36.1199 H   0  0  0  0  0  0  0  0  0  0  0  0
   -5.2968   18.8067  -36.2809 H   0  0  0  0  0  0  0  0  0  0  0  0
   -6.7417   19.5217  -34.3795 H   0  0  0  0  0  0  0  0  0  0  0  0
   -9.6024   19.9786  -31.5632 H   0  0  0  0  0  0  0  0  0  0  0  0
   -9.8693   22.4596  -31.4488 H   0  0  0  0  0  0  0  0  0  0  0  0
   -7.8563   23.9382  -31.5119 H   0  0  0  0  0  0  0  0  0  0  0  0
   -5.5755   22.9378  -31.7072 H   0  0  0  0  0  0  0  0  0  0  0  0
   -5.3052   20.4584  -31.8318 H   0  0  0  0  0  0  0  0  0  0  0  0
   -2.4936   17.1228  -33.7561 H   0  0  0  0  0  0  0  0  0  0  0  0
   -1.3964   19.9913  -29.7350 H   0  0  0  0  0  0  0  0  0  0  0  0
   -2.0950   22.1568  -28.7174 H   0  0  0  0  0  0  0  0  0  0  0  0
  1  2  1  0
  2  3  2  0
  2  4  2  0
  2  5  1  0
  5  6  2  0
  6  7  1  0
  7  8  2  0
  8  9  1  0
  9 10  1  0
 10 11  2  0
 10 12  1  0
 12 13  2  0
 13 14  1  0
 14 15  2  0
 15 16  1  0
 15 17  1  0
 17 18  1  0
 18 19  2  0
 18 20  2  0
 18 21  1  0
 21 22  1  0
 22 23  2  0
 23 24  1  0
 24 25  2  0
 25 26  1  0
 26 27  1  0
 27 28  2  0
 27 29  2  0
 27 30  1  0
 30 31  2  0
 31 32  1  0
 32 33  2  0
 33 34  1  0
 34 35  2  0
 26 36  2  0
 36 37  1  0
 17 38  2  0
  8 39  1  0
 39 40  2  0
 40  5  1  0
 38 12  1  0
 36 22  1  0
 35 30  1  0
  1 41  1  0
  6 42  1  0
  7 43  1  0
  9 44  1  0
 13 45  1  0
 14 46  1  0
 23 47  1  0
 24 48  1  0
 25 49  1  0
 31 50  1  0
 32 51  1  0
 33 52  1  0
 34 53  1  0
 35 54  1  0
 38 55  1  0
 39 56  1  0
 40 57  1  0
M  CHG  3   1  -1  21  -1  37  -1
M  END
>  <UniqueID>  (37) 
34

>  <SMILES>  (37) 
[NH-]S(=O)(=O)c1ccc(NC(=O)c2ccc(Cl)c(S(=O)(=O)[N-]c3cccc(S(=O)(=O)c4ccccc4)c3[O-])c2)cc1

>  <Energy>  (37) 
77.54074369772599

>  <Genealogy>  (37) 
[NH-]S(=O)(=O)c1ccc(NC(=O)c2ccc(Cl)c(S(=O)(=O)[N-]c3cccc(S(=O)(=O)c4ccccc4)c3[O-])c2)cc1 (protonated)
[NH-]S(=O)(=O)c1ccc(NC(=O)c2ccc(Cl)c(S(=O)(=O)[N-]c3cccc(S(=O)(=O)c4ccccc4)c3[O-])c2)cc1 (3D coordinates assigned)
[NH-]S(=O)(=O)c1ccc(NC(=O)c2ccc(Cl)c(S(=O)(=O)[N-]c3cccc(S(=O)(=O)c4ccccc4)c3[O-])c2)cc1 (optimized conformer: 77.54074369772599 kcal/mol)

>  <smiles>  (37) 
NS(=O)(=O)c1ccc(NC(=O)c2ccc(Cl)c(S(=O)(=O)Nc3cccc(S(=O)(=O)c4ccccc4)c3O)c2)cc1

>  <score_type>  (37) 
oracle

>  <origin>  (37) 
adgpu

>  <m_score__min__energy>  (37) 
-15.84

>  <m_primary>  (37) 
energy

$$$$
37:0
     RDKit          3D

 58 61  0  0  0  0  0  0  0  0999 V2000
   -0.2890   21.3740  -27.2850 O   0  0  0  0  0  0  0  0  0  0  0  0
   -1.4030   21.2240  -27.8560 C   0  0  0  0  0  0  0  0  0  0  0  0
   -2.0530   19.9450  -27.8200 N   0  0  0  0  0  0  0  0  0  0  0  0
   -1.5320   18.8350  -27.0250 C   0  0  0  0  0  0  0  0  0  0  0  0
   -0.3730   18.1940  -27.7400 C   0  0  0  0  0  0  0  0  0  0  0  0
    0.2760   17.0870  -27.1670 C   0  0  0  0  0  0  0  0  0  0  0  0
    1.3720   16.5030  -27.8100 C   0  0  0  0  0  0  0  0  0  0  0  0
    1.8280   17.0230  -29.0270 C   0  0  0  0  0  0  0  0  0  0  0  0
    1.1920   18.1290  -29.6000 C   0  0  0  0  0  0  0  0  0  0  0  0
    0.0990   18.7190  -28.9560 C   0  0  0  0  0  0  0  0  0  0  0  0
   -2.0400   22.3880  -28.5130 C   0  0  0  0  0  0  0  0  0  0  0  0
   -2.0100   23.6650  -27.9280 C   0  0  0  0  0  0  0  0  0  0  0  0
   -2.6230   24.7480  -28.5650 C   0  0  0  0  0  0  0  0  0  0  0  0
   -3.2630   24.5720  -29.7970 C   0  0  0  0  0  0  0  0  0  0  0  0
   -3.8670   25.6580  -30.4220 O   0  0  0  0  0  0  0  0  0  0  0  0
   -3.2890   23.3100  -30.4010 C   0  0  0  0  0  0  0  0  0  0  0  0
   -3.9290   23.1520  -31.6400 O   0  0  0  0  0  0  0  0  0  0  0  0
   -4.7180   22.0400  -31.9630 C   0  0  0  0  0  0  0  0  0  0  0  0
   -4.1690   20.7480  -31.9890 C   0  0  0  0  0  0  0  0  0  0  0  0
   -4.9860   19.6410  -32.2250 C   0  0  0  0  0  0  0  0  0  0  0  0
   -6.3620   19.8130  -32.4300 C   0  0  0  0  0  0  0  0  0  0  0  0
   -7.4180   18.4050  -32.5590 S   0  0  0  0  0  0  0  0  0  0  0  0
   -7.6000   17.7900  -31.2000 O   0  0  0  0  0  0  0  0  0  0  0  0
   -8.7670   18.8450  -33.0560 O   0  0  0  0  0  0  0  0  0  0  0  0
   -6.7510   17.2110  -33.6490 N   0  0  0  0  0  0  0  0  0  0  0  0
   -6.1030   17.8400  -34.8290 C   0  0  0  0  0  0  0  0  0  0  0  0
   -4.5670   17.8280  -34.7500 C   0  0  0  0  0  0  0  0  0  0  0  0
   -4.0210   16.3930  -34.6180 C   0  0  0  0  0  0  0  0  0  0  0  0
   -2.8120   16.4370  -33.9450 F   0  0  0  0  0  0  0  0  0  0  0  0
   -3.7940   15.8740  -35.8810 F   0  0  0  0  0  0  0  0  0  0  0  0
   -4.9930   15.4630  -33.8630 C   0  0  0  0  0  0  0  0  0  0  0  0
   -5.8920   16.2570  -32.9090 C   0  0  0  0  0  0  0  0  0  0  0  0
   -6.8980   21.1070  -32.4680 C   0  0  0  0  0  0  0  0  0  0  0  0
   -6.0750   22.2180  -32.2500 C   0  0  0  0  0  0  0  0  0  0  0  0
   -2.6960   22.2170  -29.7410 C   0  0  0  0  0  0  0  0  0  0  0  0
   -2.9990   19.8320  -28.2440 H   0  0  0  0  0  0  0  0  0  0  0  0
   -1.1947   19.2123  -26.0483 H   0  0  0  0  0  0  0  0  0  0  0  0
   -2.3266   18.0883  -26.8802 H   0  0  0  0  0  0  0  0  0  0  0  0
   -0.0793   16.6785  -26.2095 H   0  0  0  0  0  0  0  0  0  0  0  0
    1.8757   15.6351  -27.3594 H   0  0  0  0  0  0  0  0  0  0  0  0
    2.6881   16.5609  -29.5336 H   0  0  0  0  0  0  0  0  0  0  0  0
    1.5512   18.5351  -30.5571 H   0  0  0  0  0  0  0  0  0  0  0  0
   -0.3925   19.5961  -29.4022 H   0  0  0  0  0  0  0  0  0  0  0  0
   -1.5016   23.8134  -26.9639 H   0  0  0  0  0  0  0  0  0  0  0  0
   -2.6022   25.7427  -28.0958 H   0  0  0  0  0  0  0  0  0  0  0  0
   -3.0907   20.6075  -31.8227 H   0  0  0  0  0  0  0  0  0  0  0  0
   -4.5492   18.6318  -32.2501 H   0  0  0  0  0  0  0  0  0  0  0  0
   -6.4117   17.2923  -35.7316 H   0  0  0  0  0  0  0  0  0  0  0  0
   -6.4223   18.8922  -34.8572 H   0  0  0  0  0  0  0  0  0  0  0  0
   -4.1582   18.2836  -35.6640 H   0  0  0  0  0  0  0  0  0  0  0  0
   -4.2621   18.3972  -33.8595 H   0  0  0  0  0  0  0  0  0  0  0  0
   -5.6233   14.9341  -34.5930 H   0  0  0  0  0  0  0  0  0  0  0  0
   -4.4021   14.7487  -33.2709 H   0  0  0  0  0  0  0  0  0  0  0  0
   -6.5315   15.5561  -32.3524 H   0  0  0  0  0  0  0  0  0  0  0  0
   -5.2507   16.8279  -32.2214 H   0  0  0  0  0  0  0  0  0  0  0  0
   -7.9698   21.2503  -32.6699 H   0  0  0  0  0  0  0  0  0  0  0  0
   -6.4963   23.2327  -32.3045 H   0  0  0  0  0  0  0  0  0  0  0  0
   -2.7478   21.2160  -30.1941 H   0  0  0  0  0  0  0  0  0  0  0  0
  1  2  2  0
  2  3  1  0
  3  4  1  0
  4  5  1  0
  5  6  2  0
  6  7  1  0
  7  8  2  0
  8  9  1  0
  9 10  2  0
  2 11  1  0
 11 12  2  0
 12 13  1  0
 13 14  2  0
 14 15  1  0
 14 16  1  0
 16 17  1  0
 17 18  1  0
 18 19  2  0
 19 20  1  0
 20 21  2  0
 21 22  1  0
 22 23  2  0
 22 24  2  0
 22 25  1  0
 25 26  1  0
 26 27  1  0
 27 28  1  0
 28 29  1  0
 28 30  1  0
 28 31  1  0
 31 32  1  0
 21 33  1  0
 33 34  2  0
 16 35  2  0
 10  5  1  0
 35 11  1  0
 34 18  1  0
 32 25  1  0
  3 36  1  0
  4 37  1  0
  4 38  1  0
  6 39  1  0
  7 40  1  0
  8 41  1  0
  9 42  1  0
 10 43  1  0
 12 44  1  0
 13 45  1  0
 19 46  1  0
 20 47  1  0
 26 48  1  0
 26 49  1  0
 27 50  1  0
 27 51  1  0
 31 52  1  0
 31 53  1  0
 32 54  1  0
 32 55  1  0
 33 56  1  0
 34 57  1  0
 35 58  1  0
M  CHG  1  15  -1
M  END
>  <UniqueID>  (38) 
35

>  <SMILES>  (38) 
O=C(NCc1ccccc1)c1ccc([O-])c(Oc2ccc(S(=O)(=O)N3CCC(F)(F)CC3)cc2)c1

>  <Energy>  (38) 
72.50652420473901

>  <Genealogy>  (38) 
O=C(NCc1ccccc1)c1ccc([O-])c(Oc2ccc(S(=O)(=O)N3CCC(F)(F)CC3)cc2)c1 (protonated)
O=C(NCc1ccccc1)c1ccc([O-])c(Oc2ccc(S(=O)(=O)N3CCC(F)(F)CC3)cc2)c1 (3D coordinates assigned)
O=C(NCc1ccccc1)c1ccc([O-])c(Oc2ccc(S(=O)(=O)N3CCC(F)(F)CC3)cc2)c1 (nonaromatic ring conformer: 72.50652420473901 kcal/mol)

>  <smiles>  (38) 
O=C(NCc1ccccc1)c1ccc(O)c(Oc2ccc(S(=O)(=O)N3CCC(F)(F)CC3)cc2)c1

>  <score_type>  (38) 
oracle

>  <origin>  (38) 
adgpu

>  <m_score__min__energy>  (38) 
-13.470000000000001

>  <m_primary>  (38) 
energy

$$$$
38:0
     RDKit          3D

 41 43  0  0  0  0  0  0  0  0999 V2000
   -3.4570   14.1910  -33.5120 C   0  0  0  0  0  0  0  0  0  0  0  0
   -4.3360   15.3700  -33.2140 C   0  0  0  0  0  0  0  0  0  0  0  0
   -4.9740   15.4850  -31.9750 C   0  0  0  0  0  0  0  0  0  0  0  0
   -5.7890   16.5410  -31.7240 N   0  0  0  0  0  0  0  0  0  0  0  0
   -6.0360   17.5110  -32.6470 C   0  0  0  0  0  0  0  0  0  0  0  0
   -6.9340   18.6230  -32.2660 C   0  0  0  0  0  0  0  0  0  0  0  0
   -8.3120   18.4220  -32.1160 C   0  0  0  0  0  0  0  0  0  0  0  0
   -9.1220   19.4650  -31.8030 N   0  0  0  0  0  0  0  0  0  0  0  0
   -8.6220   20.7190  -31.6490 C   0  0  0  0  0  0  0  0  0  0  0  0
   -9.5270   21.8420  -31.2670 C   0  0  0  0  0  0  0  0  0  0  0  0
   -7.2890   20.9380  -31.7900 N   0  0  0  0  0  0  0  0  0  0  0  0
   -6.4360   19.9240  -32.1020 C   0  0  0  0  0  0  0  0  0  0  0  0
   -5.0660   20.1680  -32.2490 O   0  0  0  0  0  0  0  0  0  0  0  0
   -4.5460   21.2650  -32.9910 C   0  0  0  0  0  0  0  0  0  0  0  0
   -4.4440   22.4660  -32.0910 C   0  0  0  0  0  0  0  0  0  0  0  0
   -5.4920   23.3980  -32.0490 C   0  0  0  0  0  0  0  0  0  0  0  0
   -5.4040   24.5000  -31.1960 C   0  0  0  0  0  0  0  0  0  0  0  0
   -4.3110   24.6640  -30.4050 N   0  0  0  0  0  0  0  0  0  0  0  0
   -3.2830   23.7750  -30.4150 C   0  0  0  0  0  0  0  0  0  0  0  0
   -3.3260   22.6560  -31.2530 C   0  0  0  0  0  0  0  0  0  0  0  0
   -1.9810   21.5210  -31.2240 Cl  0  0  0  0  0  0  0  0  0  0  0  0
   -5.4560   17.4080  -33.9340 C   0  0  0  0  0  0  0  0  0  0  0  0
   -5.7310   18.4110  -35.0240 C   0  0  0  0  0  0  0  0  0  0  0  0
   -4.5920   16.3330  -34.1970 C   0  0  0  0  0  0  0  0  0  0  0  0
   -3.1191   13.7378  -32.5684 H   0  0  0  0  0  0  0  0  0  0  0  0
   -4.0238   13.4486  -34.0930 H   0  0  0  0  0  0  0  0  0  0  0  0
   -2.5837   14.5223  -34.0930 H   0  0  0  0  0  0  0  0  0  0  0  0
   -4.8151   14.7183  -31.2024 H   0  0  0  0  0  0  0  0  0  0  0  0
   -8.7384   17.4172  -32.2521 H   0  0  0  0  0  0  0  0  0  0  0  0
   -9.5828   21.9112  -30.1706 H   0  0  0  0  0  0  0  0  0  0  0  0
   -9.1334   22.7849  -31.6744 H   0  0  0  0  0  0  0  0  0  0  0  0
  -10.5320   21.6578  -31.6744 H   0  0  0  0  0  0  0  0  0  0  0  0
   -3.5484   21.0085  -33.3769 H   0  0  0  0  0  0  0  0  0  0  0  0
   -5.2145   21.4909  -33.8348 H   0  0  0  0  0  0  0  0  0  0  0  0
   -6.3789   23.2612  -32.6852 H   0  0  0  0  0  0  0  0  0  0  0  0
   -6.2205   25.2365  -31.1642 H   0  0  0  0  0  0  0  0  0  0  0  0
   -2.4133   23.9363  -29.7611 H   0  0  0  0  0  0  0  0  0  0  0  0
   -5.9963   19.3787  -34.5734 H   0  0  0  0  0  0  0  0  0  0  0  0
   -4.8325   18.5308  -35.6472 H   0  0  0  0  0  0  0  0  0  0  0  0
   -6.5649   18.0558  -35.6472 H   0  0  0  0  0  0  0  0  0  0  0  0
   -4.1125   16.2469  -35.1833 H   0  0  0  0  0  0  0  0  0  0  0  0
  1  2  1  0
  2  3  2  0
  3  4  1  0
  4  5  2  0
  5  6  1  0
  6  7  2  0
  7  8  1  0
  8  9  2  0
  9 10  1  0
  9 11  1  0
 11 12  2  0
 12 13  1  0
 13 14  1  0
 14 15  1  0
 15 16  2  0
 16 17  1  0
 17 18  2  0
 18 19  1  0
 19 20  2  0
 20 21  1  0
  5 22  1  0
 22 23  1  0
 22 24  2  0
 24  2  1  0
 12  6  1  0
 20 15  1  0
  1 25  1  0
  1 26  1  0
  1 27  1  0
  3 28  1  0
  7 29  1  0
 10 30  1  0
 10 31  1  0
 10 32  1  0
 14 33  1  0
 14 34  1  0
 16 35  1  0
 17 36  1  0
 19 37  1  0
 23 38  1  0
 23 39  1  0
 23 40  1  0
 24 41  1  0
M  END
>  <UniqueID>  (39) 
36

>  <SMILES>  (39) 
Cc1cnc(-c2cnc(C)nc2OCc2ccncc2Cl)c(C)c1

>  <Energy>  (39) 
48.391851518899344

>  <Genealogy>  (39) 
Cc1cnc(-c2cnc(C)nc2OCc2ccncc2Cl)c(C)c1 (3D coordinates assigned)
Cc1cnc(-c2cnc(C)nc2OCc2ccncc2Cl)c(C)c1 (optimized conformer: 48.391851518899344 kcal/mol)

>  <smiles>  (39) 
Cc1cnc(-c2cnc(C)nc2OCc2ccncc2Cl)c(C)c1

>  <score_type>  (39) 
oracle

>  <origin>  (39) 
adgpu

>  <m_score__min__energy>  (39) 
-7.7800000000000002

>  <m_primary>  (39) 
energy

$$$$
39:0
     RDKit          3D

 64 68  0  0  0  0  0  0  0  0999 V2000
   -3.9610   24.9960  -30.5280 O   0  0  0  0  0  0  0  0  0  0  0  0
   -4.3370   23.9420  -29.9460 C   0  0  0  0  0  0  0  0  0  0  0  0
   -4.1180   23.7910  -28.5330 N   0  0  0  0  0  0  0  0  0  0  0  0
   -3.1540   24.5550  -27.7880 C   0  0  0  0  0  0  0  0  0  0  0  0
   -3.3990   24.9500  -26.4610 C   0  0  0  0  0  0  0  0  0  0  0  0
   -2.4570   25.7140  -25.7650 C   0  0  0  0  0  0  0  0  0  0  0  0
   -1.2630   26.1000  -26.3880 C   0  0  0  0  0  0  0  0  0  0  0  0
   -0.0820   27.0870  -25.5300 S   0  0  0  0  0  0  0  0  0  0  0  0
   -0.7470   28.3720  -25.1240 O   0  0  0  0  0  0  0  0  0  0  0  0
    1.0640   27.4170  -26.4450 O   0  0  0  0  0  0  0  0  0  0  0  0
    0.4890   26.2540  -24.0980 N   0  0  0  0  0  0  0  0  0  0  0  0
    0.0980   24.8330  -24.0940 C   0  0  0  0  0  0  0  0  0  0  0  0
    0.9280   23.9920  -25.0930 C   0  0  0  0  0  0  0  0  0  0  0  0
    2.1310   24.6220  -25.5020 O   0  0  0  0  0  0  0  0  0  0  0  0
    2.7650   25.2260  -24.3980 C   0  0  0  0  0  0  0  0  0  0  0  0
    1.9450   26.4330  -23.9040 C   0  0  0  0  0  0  0  0  0  0  0  0
   -1.0270   25.7310  -27.7170 C   0  0  0  0  0  0  0  0  0  0  0  0
   -1.9680   24.9680  -28.4140 C   0  0  0  0  0  0  0  0  0  0  0  0
   -5.0490   22.8970  -30.7190 C   0  0  0  0  0  0  0  0  0  0  0  0
   -4.3480   22.0280  -31.5750 C   0  0  0  0  0  0  0  0  0  0  0  0
   -5.0300   21.0450  -32.2990 C   0  0  0  0  0  0  0  0  0  0  0  0
   -6.4190   20.9170  -32.1840 C   0  0  0  0  0  0  0  0  0  0  0  0
   -7.2550   19.6500  -33.0800 S   0  0  0  0  0  0  0  0  0  0  0  0
   -8.7350   19.9150  -33.0830 O   0  0  0  0  0  0  0  0  0  0  0  0
   -6.7680   19.6780  -34.5020 O   0  0  0  0  0  0  0  0  0  0  0  0
   -6.9120   18.0780  -32.3870 N   0  0  0  0  0  0  0  0  0  0  0  0
   -7.2360   16.9600  -33.2930 C   0  0  0  0  0  0  0  0  0  0  0  0
   -6.3420   16.9300  -34.5390 C   0  0  0  0  0  0  0  0  0  0  0  0
   -4.8940   17.1790  -34.2120 C   0  0  0  0  0  0  0  0  0  0  0  0
   -3.9190   16.9250  -35.1890 C   0  0  0  0  0  0  0  0  0  0  0  0
   -2.5740   17.2020  -34.9320 C   0  0  0  0  0  0  0  0  0  0  0  0
   -2.1930   17.7420  -33.7040 C   0  0  0  0  0  0  0  0  0  0  0  0
   -3.1560   18.0110  -32.7290 C   0  0  0  0  0  0  0  0  0  0  0  0
   -4.5130   17.7500  -32.9780 C   0  0  0  0  0  0  0  0  0  0  0  0
   -5.5270   17.9930  -31.8860 C   0  0  0  0  0  0  0  0  0  0  0  0
   -7.1250   21.7840  -31.3410 C   0  0  0  0  0  0  0  0  0  0  0  0
   -6.4470   22.7700  -30.6180 C   0  0  0  0  0  0  0  0  0  0  0  0
   -4.7800   23.1870  -27.9970 H   0  0  0  0  0  0  0  0  0  0  0  0
   -4.3372   24.6563  -25.9674 H   0  0  0  0  0  0  0  0  0  0  0  0
   -2.6541   26.0129  -24.7249 H   0  0  0  0  0  0  0  0  0  0  0  0
    0.2466   24.4282  -23.0820 H   0  0  0  0  0  0  0  0  0  0  0  0
   -0.9570   24.7737  -24.3999 H   0  0  0  0  0  0  0  0  0  0  0  0
    1.1819   23.0344  -24.6149 H   0  0  0  0  0  0  0  0  0  0  0  0
    0.3108   23.8587  -25.9937 H   0  0  0  0  0  0  0  0  0  0  0  0
    2.8548   24.4911  -23.5845 H   0  0  0  0  0  0  0  0  0  0  0  0
    3.7628   25.5731  -24.7046 H   0  0  0  0  0  0  0  0  0  0  0  0
    2.1418   26.5764  -22.8313 H   0  0  0  0  0  0  0  0  0  0  0  0
    2.2533   27.3077  -24.4955 H   0  0  0  0  0  0  0  0  0  0  0  0
   -0.0971   26.0427  -28.2152 H   0  0  0  0  0  0  0  0  0  0  0  0
   -1.7775   24.6892  -29.4609 H   0  0  0  0  0  0  0  0  0  0  0  0
   -3.2567   22.1224  -31.6754 H   0  0  0  0  0  0  0  0  0  0  0  0
   -4.4716   20.3685  -32.9627 H   0  0  0  0  0  0  0  0  0  0  0  0
   -7.1081   16.0147  -32.7452 H   0  0  0  0  0  0  0  0  0  0  0  0
   -8.2736   17.0966  -33.6316 H   0  0  0  0  0  0  0  0  0  0  0  0
   -6.4320   15.9423  -35.0147 H   0  0  0  0  0  0  0  0  0  0  0  0
   -6.6770   17.7332  -35.2117 H   0  0  0  0  0  0  0  0  0  0  0  0
   -4.2153   16.5058  -36.1619 H   0  0  0  0  0  0  0  0  0  0  0  0
   -1.8142   16.9938  -35.6997 H   0  0  0  0  0  0  0  0  0  0  0  0
   -1.1329   17.9563  -33.5031 H   0  0  0  0  0  0  0  0  0  0  0  0
   -2.8493   18.4302  -31.7593 H   0  0  0  0  0  0  0  0  0  0  0  0
   -5.4670   17.1662  -31.1630 H   0  0  0  0  0  0  0  0  0  0  0  0
   -5.2858   18.9627  -31.4261 H   0  0  0  0  0  0  0  0  0  0  0  0
   -8.2169   21.6890  -31.2473 H   0  0  0  0  0  0  0  0  0  0  0  0
   -7.0109   23.4522  -29.9648 H   0  0  0  0  0  0  0  0  0  0  0  0
  1  2  2  0
  2  3  1  0
  3  4  1  0
  4  5  2  0
  5  6  1  0
  6  7  2  0
  7  8  1  0
  8  9  2  0
  8 10  2  0
  8 11  1  0
 11 12  1  0
 12 13  1  0
 13 14  1  0
 14 15  1  0
 15 16  1  0
  7 17  1  0
 17 18  2  0
  2 19  1  0
 19 20  2  0
 20 21  1  0
 21 22  2  0
 22 23  1  0
 23 24  2  0
 23 25  2  0
 23 26  1  0
 26 27  1  0
 27 28  1  0
 28 29  1  0
 29 30  2  0
 30 31  1  0
 31 32  2  0
 32 33  1  0
 33 34  2  0
 34 35  1  0
 22 36  1  0
 36 37  2  0
 18  4  1  0
 37 19  1  0
 16 11  1  0
 35 26  1  0
 34 29  1  0
  3 38  1  0
  5 39  1  0
  6 40  1  0
 12 41  1  0
 12 42  1  0
 13 43  1  0
 13 44  1  0
 15 45  1  0
 15 46  1  0
 16 47  1  0
 16 48  1  0
 17 49  1  0
 18 50  1  0
 20 51  1  0
 21 52  1  0
 27 53  1  0
 27 54  1  0
 28 55  1  0
 28 56  1  0
 30 57  1  0
 31 58  1  0
 32 59  1  0
 33 60  1  0
 35 61  1  0
 35 62  1  0
 36 63  1  0
 37 64  1  0
M  END
>  <UniqueID>  (40) 
37

>  <SMILES>  (40) 
O=C(Nc1ccc(S(=O)(=O)N2CCOCC2)cc1)c1ccc(S(=O)(=O)N2CCc3ccccc3C2)cc1

>  <Energy>  (40) 
89.65890647991127

>  <Genealogy>  (40) 
O=C(Nc1ccc(S(=O)(=O)N2CCOCC2)cc1)c1ccc(S(=O)(=O)N2CCc3ccccc3C2)cc1 (3D coordinates assigned)
O=C(Nc1ccc(S(=O)(=O)N2CCOCC2)cc1)c1ccc(S(=O)(=O)N2CCc3ccccc3C2)cc1 (nonaromatic ring conformer: 89.65890647991127 kcal/mol)

>  <smiles>  (40) 
O=C(Nc1ccc(S(=O)(=O)N2CCOCC2)cc1)c1ccc(S(=O)(=O)N2CCc3ccccc3C2)cc1

>  <score_type>  (40) 
oracle

>  <origin>  (40) 
adgpu

>  <m_score__min__energy>  (40) 
-10.58

>  <m_primary>  (40) 
energy

$$$$
40:0
     RDKit          3D

 45 48  0  0  0  0  0  0  0  0999 V2000
   -0.5780   21.5280  -31.3350 C   0  0  0  0  0  0  0  0  0  0  0  0
   -0.3330   20.3780  -32.6690 S   0  0  0  0  0  0  0  0  0  0  0  0
    0.2420   21.0960  -33.8550 O   0  0  0  0  0  0  0  0  0  0  0  0
    0.6310   19.3120  -32.2330 O   0  0  0  0  0  0  0  0  0  0  0  0
   -1.8760   19.6560  -33.1130 C   0  0  0  0  0  0  0  0  0  0  0  0
   -2.9520   20.4800  -33.4630 C   0  0  0  0  0  0  0  0  0  0  0  0
   -4.1840   19.9170  -33.8120 C   0  0  0  0  0  0  0  0  0  0  0  0
   -4.3500   18.5280  -33.8310 C   0  0  0  0  0  0  0  0  0  0  0  0
   -5.6370   17.9950  -34.1770 N   0  0  0  0  0  0  0  0  0  0  0  0
   -6.7760   17.8700  -33.3120 C   0  0  0  0  0  0  0  0  0  0  0  0
   -7.2900   16.7390  -33.1040 O   0  0  0  0  0  0  0  0  0  0  0  0
   -7.3820   19.0800  -32.7070 C   0  0  0  0  0  0  0  0  0  0  0  0
   -8.7750   19.1870  -32.5660 C   0  0  0  0  0  0  0  0  0  0  0  0
   -9.3440   20.3300  -32.0040 C   0  0  0  0  0  0  0  0  0  0  0  0
   -8.5330   21.3780  -31.5690 C   0  0  0  0  0  0  0  0  0  0  0  0
   -7.1340   21.2940  -31.6830 C   0  0  0  0  0  0  0  0  0  0  0  0
   -6.2880   22.4220  -31.2100 C   0  0  0  0  0  0  0  0  0  0  0  0
   -6.7330   23.7750  -31.2830 C   0  0  0  0  0  0  0  0  0  0  0  0
   -5.9280   24.7910  -30.8470 N   0  0  0  0  0  0  0  0  0  0  0  0
   -4.7070   24.4760  -30.3530 C   0  0  0  0  0  0  0  0  0  0  0  0
   -3.7860   25.3290  -29.8810 N   0  0  0  0  0  0  0  0  0  0  0  0
   -2.7390   24.5440  -29.5170 C   0  0  0  0  0  0  0  0  0  0  0  0
   -1.4940   25.0690  -28.9420 C   0  0  0  0  0  0  0  0  0  0  0  0
   -1.2720   26.3090  -28.9290 O   0  0  0  0  0  0  0  0  0  0  0  0
   -0.5520   24.2010  -28.4050 O   0  0  0  0  0  0  0  0  0  0  0  0
   -3.0050   23.1920  -29.7630 C   0  0  0  0  0  0  0  0  0  0  0  0
   -4.2710   23.1940  -30.2950 C   0  0  0  0  0  0  0  0  0  0  0  0
   -5.0380   22.1590  -30.7130 N   0  0  0  0  0  0  0  0  0  0  0  0
   -6.5680   20.1440  -32.2670 C   0  0  0  0  0  0  0  0  0  0  0  0
   -3.2780   17.7020  -33.4480 C   0  0  0  0  0  0  0  0  0  0  0  0
   -2.0470   18.2650  -33.0950 C   0  0  0  0  0  0  0  0  0  0  0  0
   -0.4664   21.0042  -30.3742 H   0  0  0  0  0  0  0  0  0  0  0  0
    0.1689   22.3327  -31.4028 H   0  0  0  0  0  0  0  0  0  0  0  0
   -1.5880   21.9585  -31.4028 H   0  0  0  0  0  0  0  0  0  0  0  0
   -2.8284   21.5730  -33.4636 H   0  0  0  0  0  0  0  0  0  0  0  0
   -5.0287   20.5713  -34.0735 H   0  0  0  0  0  0  0  0  0  0  0  0
   -9.4224   18.3633  -32.9012 H   0  0  0  0  0  0  0  0  0  0  0  0
  -10.4368   20.4051  -31.9035 H   0  0  0  0  0  0  0  0  0  0  0  0
   -8.9916   22.2778  -31.1331 H   0  0  0  0  0  0  0  0  0  0  0  0
   -7.7285   24.0025  -31.6920 H   0  0  0  0  0  0  0  0  0  0  0  0
   -3.8620   26.3670  -29.8120 H   0  0  0  0  0  0  0  0  0  0  0  0
   -2.3512   22.3278  -29.5739 H   0  0  0  0  0  0  0  0  0  0  0  0
   -5.4761   20.0750  -32.3814 H   0  0  0  0  0  0  0  0  0  0  0  0
   -3.4080   16.6099  -33.4260 H   0  0  0  0  0  0  0  0  0  0  0  0
   -1.2103   17.6137  -32.8023 H   0  0  0  0  0  0  0  0  0  0  0  0
  1  2  1  0
  2  3  2  0
  2  4  2  0
  2  5  1  0
  5  6  2  0
  6  7  1  0
  7  8  2  0
  8  9  1  0
  9 10  1  0
 10 11  2  0
 10 12  1  0
 12 13  2  0
 13 14  1  0
 14 15  2  0
 15 16  1  0
 16 17  1  0
 17 18  2  0
 18 19  1  0
 19 20  2  0
 20 21  1  0
 21 22  1  0
 22 23  1  0
 23 24  2  0
 23 25  1  0
 22 26  2  0
 26 27  1  0
 27 28  2  0
 16 29  2  0
  8 30  1  0
 30 31  2  0
 31  5  1  0
 29 12  1  0
 28 17  1  0
 27 20  1  0
  1 32  1  0
  1 33  1  0
  1 34  1  0
  6 35  1  0
  7 36  1  0
 13 37  1  0
 14 38  1  0
 15 39  1  0
 18 40  1  0
 21 41  1  0
 26 42  1  0
 29 43  1  0
 30 44  1  0
 31 45  1  0
M  CHG  2   9  -1  25  -1
M  END
>  <UniqueID>  (41) 
38

>  <SMILES>  (41) 
CS(=O)(=O)c1ccc([N-]C(=O)c2cccc(-c3cnc4[nH]c(C(=O)[O-])cc4n3)c2)cc1

>  <Energy>  (41) 
92.52204959725934

>  <Genealogy>  (41) 
CS(=O)(=O)c1ccc([N-]C(=O)c2cccc(-c3cnc4[nH]c(C(=O)[O-])cc4n3)c2)cc1 (protonated)
CS(=O)(=O)c1ccc([N-]C(=O)c2cccc(-c3cnc4[nH]c(C(=O)[O-])cc4n3)c2)cc1 (3D coordinates assigned)
CS(=O)(=O)c1ccc([N-]C(=O)c2cccc(-c3cnc4[nH]c(C(=O)[O-])cc4n3)c2)cc1 (optimized conformer: 92.52204959725934 kcal/mol)

>  <smiles>  (41) 
CS(=O)(=O)c1ccc(NC(=O)c2cccc(-c3cnc4[nH]c(C(=O)O)cc4n3)c2)cc1

>  <score_type>  (41) 
oracle

>  <origin>  (41) 
adgpu

>  <m_score__min__energy>  (41) 
-12.26

>  <m_primary>  (41) 
energy

$$$$
41:0
     RDKit          3D

 60 63  0  0  0  0  0  0  0  0999 V2000
   -6.4230   17.7900  -34.0390 C   0  0  0  0  0  0  0  0  0  0  0  0
   -6.1000   19.0030  -33.2860 N   0  0  0  0  0  0  0  0  0  0  0  0
   -4.7700   19.5520  -33.3720 C   0  0  0  0  0  0  0  0  0  0  0  0
   -3.6540   18.7030  -33.4100 C   0  0  0  0  0  0  0  0  0  0  0  0
   -2.3660   19.2280  -33.5230 C   0  0  0  0  0  0  0  0  0  0  0  0
   -2.1750   20.6100  -33.6170 C   0  0  0  0  0  0  0  0  0  0  0  0
   -0.8490   21.1490  -33.7460 C   0  0  0  0  0  0  0  0  0  0  0  0
    0.2170   21.5820  -33.8510 N   0  0  0  0  0  0  0  0  0  0  0  0
   -3.2760   21.4640  -33.5930 C   0  0  0  0  0  0  0  0  0  0  0  0
   -4.5660   20.9410  -33.4770 C   0  0  0  0  0  0  0  0  0  0  0  0
   -7.3710   19.8310  -32.4120 S   0  0  0  0  0  0  0  0  0  0  0  0
   -8.5290   20.1040  -33.3360 O   0  0  0  0  0  0  0  0  0  0  0  0
   -7.8550   18.9620  -31.2810 O   0  0  0  0  0  0  0  0  0  0  0  0
   -6.8020   21.3740  -31.7700 C   0  0  0  0  0  0  0  0  0  0  0  0
   -5.7490   21.3990  -30.8410 C   0  0  0  0  0  0  0  0  0  0  0  0
   -5.2290   22.6150  -30.4020 C   0  0  0  0  0  0  0  0  0  0  0  0
   -5.7850   23.8290  -30.8500 C   0  0  0  0  0  0  0  0  0  0  0  0
   -5.1820   25.1040  -30.4270 C   0  0  0  0  0  0  0  0  0  0  0  0
   -5.9040   26.0160  -29.9600 O   0  0  0  0  0  0  0  0  0  0  0  0
   -3.7650   25.3030  -30.5220 N   0  0  0  0  0  0  0  0  0  0  0  0
   -2.8450   24.5560  -29.7170 C   0  0  0  0  0  0  0  0  0  0  0  0
   -2.3930   25.0780  -28.4970 C   0  0  0  0  0  0  0  0  0  0  0  0
   -1.5440   24.3220  -27.6890 C   0  0  0  0  0  0  0  0  0  0  0  0
   -1.1080   23.0610  -28.1090 C   0  0  0  0  0  0  0  0  0  0  0  0
   -1.5200   22.5510  -29.3440 C   0  0  0  0  0  0  0  0  0  0  0  0
   -0.9150   21.0090  -29.9320 S   0  0  0  0  0  0  0  0  0  0  0  0
    0.2560   21.2280  -30.8470 O   0  0  0  0  0  0  0  0  0  0  0  0
   -2.0160   20.3350  -30.6990 O   0  0  0  0  0  0  0  0  0  0  0  0
   -0.4360   20.0150  -28.5770 N   0  0  0  0  0  0  0  0  0  0  0  0
    0.3620   18.8670  -29.0520 C   0  0  0  0  0  0  0  0  0  0  0  0
    0.7050   17.9570  -27.8670 C   0  0  0  0  0  0  0  0  0  0  0  0
   -0.4790   17.4890  -27.2470 O   0  0  0  0  0  0  0  0  0  0  0  0
   -1.2100   18.5910  -26.7280 C   0  0  0  0  0  0  0  0  0  0  0  0
   -1.6310   19.5440  -27.8560 C   0  0  0  0  0  0  0  0  0  0  0  0
   -2.3960   23.2960  -30.1430 C   0  0  0  0  0  0  0  0  0  0  0  0
   -6.8840   23.8060  -31.7280 C   0  0  0  0  0  0  0  0  0  0  0  0
   -7.3840   22.5850  -32.1890 C   0  0  0  0  0  0  0  0  0  0  0  0
   -6.6412   16.9706  -33.3383 H   0  0  0  0  0  0  0  0  0  0  0  0
   -7.3032   17.9750  -34.6723 H   0  0  0  0  0  0  0  0  0  0  0  0
   -5.5674   17.5128  -34.6723 H   0  0  0  0  0  0  0  0  0  0  0  0
   -3.7954   17.6138  -33.3502 H   0  0  0  0  0  0  0  0  0  0  0  0
   -1.4981   18.5524  -33.5382 H   0  0  0  0  0  0  0  0  0  0  0  0
   -3.1289   22.5517  -33.6655 H   0  0  0  0  0  0  0  0  0  0  0  0
   -5.4307   21.6209  -33.4676 H   0  0  0  0  0  0  0  0  0  0  0  0
   -5.3332   20.4552  -30.4585 H   0  0  0  0  0  0  0  0  0  0  0  0
   -4.3803   22.6268  -29.7023 H   0  0  0  0  0  0  0  0  0  0  0  0
   -2.7075   26.0825  -28.1774 H   0  0  0  0  0  0  0  0  0  0  0  0
   -1.2158   24.7192  -26.7171 H   0  0  0  0  0  0  0  0  0  0  0  0
   -0.4396   22.4693  -27.4663 H   0  0  0  0  0  0  0  0  0  0  0  0
   -0.2183   18.2992  -29.7942 H   0  0  0  0  0  0  0  0  0  0  0  0
    1.2909   19.2326  -29.5141 H   0  0  0  0  0  0  0  0  0  0  0  0
    1.2900   17.0978  -28.2269 H   0  0  0  0  0  0  0  0  0  0  0  0
    1.2900   18.5308  -27.1332 H   0  0  0  0  0  0  0  0  0  0  0  0
   -2.1094   18.2184  -26.2158 H   0  0  0  0  0  0  0  0  0  0  0  0
   -0.5684   19.1399  -26.0229 H   0  0  0  0  0  0  0  0  0  0  0  0
   -2.2947   19.0136  -28.5547 H   0  0  0  0  0  0  0  0  0  0  0  0
   -2.1619   20.4063  -27.4265 H   0  0  0  0  0  0  0  0  0  0  0  0
   -2.7338   22.8921  -31.1088 H   0  0  0  0  0  0  0  0  0  0  0  0
   -7.3496   24.7486  -32.0515 H   0  0  0  0  0  0  0  0  0  0  0  0
   -8.2372   22.5704  -32.8832 H   0  0  0  0  0  0  0  0  0  0  0  0
  1  2  1  0
  2  3  1  0
  3  4  2  0
  4  5  1  0
  5  6  2  0
  6  7  1  0
  7  8  3  0
  6  9  1  0
  9 10  2  0
  2 11  1  0
 11 12  2  0
 11 13  2  0
 11 14  1  0
 14 15  2  0
 15 16  1  0
 16 17  2  0
 17 18  1  0
 18 19  2  0
 18 20  1  0
 20 21  1  0
 21 22  2  0
 22 23  1  0
 23 24  2  0
 24 25  1  0
 25 26  1  0
 26 27  2  0
 26 28  2  0
 26 29  1  0
 29 30  1  0
 30 31  1  0
 31 32  1  0
 32 33  1  0
 33 34  1  0
 25 35  2  0
 17 36  1  0
 36 37  2  0
 10  3  1  0
 37 14  1  0
 35 21  1  0
 34 29  1  0
  1 38  1  0
  1 39  1  0
  1 40  1  0
  4 41  1  0
  5 42  1  0
  9 43  1  0
 10 44  1  0
 15 45  1  0
 16 46  1  0
 22 47  1  0
 23 48  1  0
 24 49  1  0
 30 50  1  0
 30 51  1  0
 31 52  1  0
 31 53  1  0
 33 54  1  0
 33 55  1  0
 34 56  1  0
 34 57  1  0
 35 58  1  0
 36 59  1  0
 37 60  1  0
M  CHG  1  20  -1
M  END
>  <UniqueID>  (42) 
39

>  <SMILES>  (42) 
CN(c1ccc(C#N)cc1)S(=O)(=O)c1ccc(C(=O)[N-]c2cccc(S(=O)(=O)N3CCOCC3)c2)cc1

>  <Energy>  (42) 
73.64198619056229

>  <Genealogy>  (42) 
CN(c1ccc(C#N)cc1)S(=O)(=O)c1ccc(C(=O)[N-]c2cccc(S(=O)(=O)N3CCOCC3)c2)cc1 (protonated)
CN(c1ccc(C#N)cc1)S(=O)(=O)c1ccc(C(=O)[N-]c2cccc(S(=O)(=O)N3CCOCC3)c2)cc1 (3D coordinates assigned)
CN(c1ccc(C#N)cc1)S(=O)(=O)c1ccc(C(=O)[N-]c2cccc(S(=O)(=O)N3CCOCC3)c2)cc1 (nonaromatic ring conformer: 73.64198619056229 kcal/mol)

>  <smiles>  (42) 
CN(c1ccc(C#N)cc1)S(=O)(=O)c1ccc(C(=O)Nc2cccc(S(=O)(=O)N3CCOCC3)c2)cc1

>  <score_type>  (42) 
oracle

>  <origin>  (42) 
adgpu

>  <m_score__min__energy>  (42) 
-13.390000000000001

>  <m_primary>  (42) 
energy

$$$$
42:0
     RDKit          3D

 53 55  0  0  0  0  0  0  0  0999 V2000
   -2.4380   18.9470  -26.3820 C   0  0  0  0  0  0  0  0  0  0  0  0
   -1.0940   19.3790  -26.7840 N   0  0  0  0  0  0  0  0  0  0  0  0
   -0.8700   19.0810  -28.2040 C   0  0  0  0  0  0  0  0  0  0  0  0
   -0.9160   21.0940  -26.5020 S   0  0  0  0  0  0  0  0  0  0  0  0
   -1.2350   21.4020  -25.0650 O   0  0  0  0  0  0  0  0  0  0  0  0
    0.5110   21.4950  -26.7560 O   0  0  0  0  0  0  0  0  0  0  0  0
   -1.9770   22.0400  -27.5480 C   0  0  0  0  0  0  0  0  0  0  0  0
   -1.5150   23.2260  -28.1310 C   0  0  0  0  0  0  0  0  0  0  0  0
   -2.3470   23.9690  -28.9740 C   0  0  0  0  0  0  0  0  0  0  0  0
   -3.6530   23.5350  -29.2370 C   0  0  0  0  0  0  0  0  0  0  0  0
   -4.7000   24.4420  -30.3260 S   0  0  0  0  0  0  0  0  0  0  0  0
   -3.9770   25.6540  -30.8430 O   0  0  0  0  0  0  0  0  0  0  0  0
   -5.9310   24.8970  -29.5940 O   0  0  0  0  0  0  0  0  0  0  0  0
   -5.1180   23.4380  -31.6760 N   0  0  0  0  0  0  0  0  0  0  0  0
   -6.3630   22.7450  -31.7710 C   0  0  0  0  0  0  0  0  0  0  0  0
   -7.5830   23.4150  -31.5950 C   0  0  0  0  0  0  0  0  0  0  0  0
   -8.7860   22.7060  -31.6510 C   0  0  0  0  0  0  0  0  0  0  0  0
   -8.7780   21.3270  -31.8760 C   0  0  0  0  0  0  0  0  0  0  0  0
   -7.5650   20.6530  -32.0650 C   0  0  0  0  0  0  0  0  0  0  0  0
   -7.5600   18.9030  -32.2520 S   0  0  0  0  0  0  0  0  0  0  0  0
   -8.9400   18.4180  -32.6040 O   0  0  0  0  0  0  0  0  0  0  0  0
   -7.1480   18.2760  -30.9500 O   0  0  0  0  0  0  0  0  0  0  0  0
   -6.4270   18.4610  -33.5050 N   0  0  0  0  0  0  0  0  0  0  0  0
   -6.4810   17.0080  -33.7470 C   0  0  0  0  0  0  0  0  0  0  0  0
   -5.3000   16.5550  -34.6270 C   0  0  0  0  0  0  0  0  0  0  0  0
   -4.6600   17.6640  -35.2270 O   0  0  0  0  0  0  0  0  0  0  0  0
   -4.0670   18.4730  -34.2260 C   0  0  0  0  0  0  0  0  0  0  0  0
   -5.0680   18.8640  -33.1180 C   0  0  0  0  0  0  0  0  0  0  0  0
   -6.3590   21.3690  -32.0250 C   0  0  0  0  0  0  0  0  0  0  0  0
   -4.1190   22.3520  -28.6450 C   0  0  0  0  0  0  0  0  0  0  0  0
   -3.2840   21.6050  -27.8090 C   0  0  0  0  0  0  0  0  0  0  0  0
   -2.5033   18.9260  -25.2841 H   0  0  0  0  0  0  0  0  0  0  0  0
   -3.1838   19.6507  -26.7803 H   0  0  0  0  0  0  0  0  0  0  0  0
   -2.6341   17.9406  -26.7803 H   0  0  0  0  0  0  0  0  0  0  0  0
   -0.2113   18.2047  -28.2953 H   0  0  0  0  0  0  0  0  0  0  0  0
   -1.8334   18.8678  -28.6903 H   0  0  0  0  0  0  0  0  0  0  0  0
   -0.3975   19.9471  -28.6903 H   0  0  0  0  0  0  0  0  0  0  0  0
   -0.4924   23.5750  -27.9249 H   0  0  0  0  0  0  0  0  0  0  0  0
   -1.9750   24.8973  -29.4322 H   0  0  0  0  0  0  0  0  0  0  0  0
   -7.5927   24.4997  -31.4127 H   0  0  0  0  0  0  0  0  0  0  0  0
   -9.7413   23.2347  -31.5176 H   0  0  0  0  0  0  0  0  0  0  0  0
   -9.7260   20.7698  -31.9047 H   0  0  0  0  0  0  0  0  0  0  0  0
   -6.4356   16.4800  -32.7831 H   0  0  0  0  0  0  0  0  0  0  0  0
   -7.4201   16.7724  -34.2691 H   0  0  0  0  0  0  0  0  0  0  0  0
   -4.5730   16.0146  -34.0029 H   0  0  0  0  0  0  0  0  0  0  0  0
   -5.6866   15.9011  -35.4226 H   0  0  0  0  0  0  0  0  0  0  0  0
   -3.2341   17.9176  -33.7701 H   0  0  0  0  0  0  0  0  0  0  0  0
   -3.7181   19.3993  -34.7057 H   0  0  0  0  0  0  0  0  0  0  0  0
   -4.7907   18.3583  -32.1813 H   0  0  0  0  0  0  0  0  0  0  0  0
   -5.0412   19.9543  -32.9748 H   0  0  0  0  0  0  0  0  0  0  0  0
   -5.4060   20.8462  -32.1941 H   0  0  0  0  0  0  0  0  0  0  0  0
   -5.1464   22.0104  -28.8395 H   0  0  0  0  0  0  0  0  0  0  0  0
   -3.6533   20.6737  -27.3549 H   0  0  0  0  0  0  0  0  0  0  0  0
  1  2  1  0
  2  3  1  0
  2  4  1  0
  4  5  2  0
  4  6  2  0
  4  7  1  0
  7  8  2  0
  8  9  1  0
  9 10  2  0
 10 11  1  0
 11 12  2  0
 11 13  2  0
 11 14  1  0
 14 15  1  0
 15 16  2  0
 16 17  1  0
 17 18  2  0
 18 19  1  0
 19 20  1  0
 20 21  2  0
 20 22  2  0
 20 23  1  0
 23 24  1  0
 24 25  1  0
 25 26  1  0
 26 27  1  0
 27 28  1  0
 19 29  2  0
 10 30  1  0
 30 31  2  0
 31  7  1  0
 29 15  1  0
 28 23  1  0
  1 32  1  0
  1 33  1  0
  1 34  1  0
  3 35  1  0
  3 36  1  0
  3 37  1  0
  8 38  1  0
  9 39  1  0
 16 40  1  0
 17 41  1  0
 18 42  1  0
 24 43  1  0
 24 44  1  0
 25 45  1  0
 25 46  1  0
 27 47  1  0
 27 48  1  0
 28 49  1  0
 28 50  1  0
 29 51  1  0
 30 52  1  0
 31 53  1  0
M  CHG  1  14  -1
M  END
>  <UniqueID>  (43) 
40

>  <SMILES>  (43) 
CN(C)S(=O)(=O)c1ccc(S(=O)(=O)[N-]c2cccc(S(=O)(=O)N3CCOCC3)c2)cc1

>  <Energy>  (43) 
63.53674938020712

>  <Genealogy>  (43) 
CN(C)S(=O)(=O)c1ccc(S(=O)(=O)[N-]c2cccc(S(=O)(=O)N3CCOCC3)c2)cc1 (protonated)
CN(C)S(=O)(=O)c1ccc(S(=O)(=O)[N-]c2cccc(S(=O)(=O)N3CCOCC3)c2)cc1 (3D coordinates assigned)
CN(C)S(=O)(=O)c1ccc(S(=O)(=O)[N-]c2cccc(S(=O)(=O)N3CCOCC3)c2)cc1 (nonaromatic ring conformer: 63.53674938020712 kcal/mol)

>  <smiles>  (43) 
CN(C)S(=O)(=O)c1ccc(S(=O)(=O)Nc2cccc(S(=O)(=O)N3CCOCC3)c2)cc1

>  <score_type>  (43) 
oracle

>  <origin>  (43) 
adgpu

>  <m_score__min__energy>  (43) 
-11.6

>  <m_primary>  (43) 
energy

$$$$
43:0
     RDKit          3D

 21 22  0  0  0  0  0  0  0  0999 V2000
   -7.1320   25.1200  -29.8400 N   0  0  0  0  0  0  0  0  0  0  0  0
   -6.3810   24.3540  -30.2740 C   0  0  0  0  0  0  0  0  0  0  0  0
   -5.4490   23.3990  -30.8190 C   0  0  0  0  0  0  0  0  0  0  0  0
   -5.4860   23.1190  -32.1910 C   0  0  0  0  0  0  0  0  0  0  0  0
   -4.6110   22.1780  -32.7430 C   0  0  0  0  0  0  0  0  0  0  0  0
   -3.6950   21.5060  -31.9250 C   0  0  0  0  0  0  0  0  0  0  0  0
   -2.8220   20.5630  -32.4630 O   0  0  0  0  0  0  0  0  0  0  0  0
   -3.6560   21.7810  -30.5550 C   0  0  0  0  0  0  0  0  0  0  0  0
   -4.5200   22.7320  -29.9950 C   0  0  0  0  0  0  0  0  0  0  0  0
   -4.4220   23.0570  -28.2270 S   0  0  0  0  0  0  0  0  0  0  0  0
   -2.8860   23.9640  -28.3770 C   0  0  0  0  0  0  0  0  0  0  0  0
   -1.5680   23.8050  -27.3410 S   0  0  0  0  0  0  0  0  0  0  0  0
   -0.6740   24.9560  -28.1810 C   0  0  0  0  0  0  0  0  0  0  0  0
    0.4940   25.3080  -27.8730 O   0  0  0  0  0  0  0  0  0  0  0  0
   -1.3440   25.4730  -29.2330 N   0  0  0  0  0  0  0  0  0  0  0  0
   -2.5800   24.9200  -29.3400 C   0  0  0  0  0  0  0  0  0  0  0  0
   -3.4670   25.3010  -30.3380 O   0  0  0  0  0  0  0  0  0  0  0  0
   -6.2066   23.6417  -32.8372 H   0  0  0  0  0  0  0  0  0  0  0  0
   -4.6426   21.9655  -33.8218 H   0  0  0  0  0  0  0  0  0  0  0  0
   -1.9030   20.4050  -32.0660 H   0  0  0  0  0  0  0  0  0  0  0  0
   -2.9416   21.2468  -29.9114 H   0  0  0  0  0  0  0  0  0  0  0  0
  1  2  3  0
  2  3  1  0
  3  4  2  0
  4  5  1  0
  5  6  2  0
  6  7  1  0
  6  8  1  0
  8  9  2  0
  9 10  1  0
 10 11  1  0
 11 12  1  0
 12 13  1  0
 13 14  2  0
 13 15  1  0
 15 16  1  0
 16 17  1  0
  9  3  1  0
 16 11  2  0
  4 18  1  0
  5 19  1  0
  7 20  1  0
  8 21  1  0
M  CHG  2  15  -1  17  -1
M  END
>  <UniqueID>  (44) 
41

>  <SMILES>  (44) 
N#Cc1ccc(O)cc1Sc1sc(=O)[n-]c1[O-]

>  <Energy>  (44) 
48.94328525038079

>  <Genealogy>  (44) 
N#Cc1ccc(O)cc1Sc1sc(=O)[n-]c1[O-] (protonated)
N#Cc1ccc(O)cc1Sc1sc(=O)[n-]c1[O-] (3D coordinates assigned)
N#Cc1ccc(O)cc1Sc1sc(=O)[n-]c1[O-] (optimized conformer: 48.94328525038079 kcal/mol)

>  <smiles>  (44) 
N#Cc1ccc(O)cc1Sc1sc(=O)[nH]c1O

>  <score_type>  (44) 
oracle

>  <origin>  (44) 
adgpu

>  <m_score__min__energy>  (44) 
-10.85

>  <m_primary>  (44) 
energy

$$$$
44:0
     RDKit          3D

 84 88  0  0  0  0  0  0  0  0999 V2000
    2.9940   18.5910  -28.5270 H   0  0  0  0  0  0  0  0  0  0  0  0
    2.3780   18.9510  -27.8420 O   0  0  0  0  0  0  0  0  0  0  0  0
    1.3820   19.7000  -28.5000 C   0  0  2  0  0  0  0  0  0  0  0  0
    1.6872   20.7568  -28.5098 H   0  0  0  0  0  0  0  0  0  0  0  0
    0.0670   19.6120  -27.7470 C   0  0  0  0  0  0  0  0  0  0  0  0
   -0.6340   18.3960  -27.6400 C   0  0  0  0  0  0  0  0  0  0  0  0
   -0.2198   17.4845  -28.0956 H   0  0  0  0  0  0  0  0  0  0  0  0
   -1.8200   18.3410  -26.9770 N   0  0  0  0  0  0  0  0  0  0  0  0
   -2.3630   19.4410  -26.3940 C   0  0  0  0  0  0  0  0  0  0  0  0
   -3.3219   19.3636  -25.8607 H   0  0  0  0  0  0  0  0  0  0  0  0
   -1.7060   20.6680  -26.4710 C   0  0  0  0  0  0  0  0  0  0  0  0
   -2.1428   21.5613  -26.0006 H   0  0  0  0  0  0  0  0  0  0  0  0
   -0.4890   20.7540  -27.1500 C   0  0  0  0  0  0  0  0  0  0  0  0
    0.0351   21.7188  -27.2172 H   0  0  0  0  0  0  0  0  0  0  0  0
    1.2400   19.2650  -29.9720 C   0  0  0  0  0  0  0  0  0  0  0  0
    1.0006   20.1440  -30.5885 H   0  0  0  0  0  0  0  0  0  0  0  0
    0.4344   18.5199  -30.0485 H   0  0  0  0  0  0  0  0  0  0  0  0
    2.4980   18.6620  -30.4520 N   0  0  0  0  0  0  0  0  0  0  0  0
    2.3880   17.6270  -30.5550 H   0  0  0  0  0  0  0  0  0  0  0  0
    3.0160   19.2580  -31.6980 C   0  0  0  0  0  0  0  0  0  0  0  0
    4.1149   19.2685  -31.6502 H   0  0  0  0  0  0  0  0  0  0  0  0
    2.5964   20.2719  -31.7748 H   0  0  0  0  0  0  0  0  0  0  0  0
    2.5880   18.4880  -32.9620 C   0  0  0  0  0  0  0  0  0  0  0  0
    2.8195   17.4217  -32.8228 H   0  0  0  0  0  0  0  0  0  0  0  0
    3.1384   18.9084  -33.8166 H   0  0  0  0  0  0  0  0  0  0  0  0
    1.1180   18.6320  -33.2430 C   0  0  0  0  0  0  0  0  0  0  0  0
    0.1860   17.8890  -32.4980 C   0  0  0  0  0  0  0  0  0  0  0  0
    0.5313   17.2390  -31.6805 H   0  0  0  0  0  0  0  0  0  0  0  0
   -1.1780   17.9730  -32.7920 C   0  0  0  0  0  0  0  0  0  0  0  0
   -1.9045   17.3992  -32.1979 H   0  0  0  0  0  0  0  0  0  0  0  0
   -1.6200   18.7860  -33.8410 C   0  0  0  0  0  0  0  0  0  0  0  0
   -3.0120   18.8190  -34.1580 N   0  0  0  0  0  0  0  0  0  0  0  0
   -4.1970   19.4610  -33.0720 S   0  0  0  0  0  0  0  0  0  0  0  0
   -5.2390   20.2050  -33.8590 O   0  0  0  0  0  0  0  0  0  0  0  0
   -4.8660   18.3260  -32.3490 O   0  0  0  0  0  0  0  0  0  0  0  0
   -3.4650   20.5530  -31.8980 C   0  0  0  0  0  0  0  0  0  0  0  0
   -2.4440   21.4270  -32.2960 C   0  0  0  0  0  0  0  0  0  0  0  0
   -2.0891   21.4189  -33.3371 H   0  0  0  0  0  0  0  0  0  0  0  0
   -1.8760   22.3090  -31.3720 C   0  0  0  0  0  0  0  0  0  0  0  0
   -1.0620   22.9803  -31.6830 H   0  0  0  0  0  0  0  0  0  0  0  0
   -2.3410   22.3400  -30.0510 C   0  0  0  0  0  0  0  0  0  0  0  0
   -1.8240   23.3130  -29.1320 N   0  0  0  0  0  0  0  0  0  0  0  0
   -0.5810   23.2620  -28.6810 N   0  0  0  0  0  0  0  0  0  0  0  0
   -0.4500   24.1800  -27.6990 C   0  0  0  0  0  0  0  0  0  0  0  0
    0.8320   24.4400  -26.9270 C   0  0  0  0  0  0  0  0  0  0  0  0
    0.6200   24.1780  -25.4200 C   0  0  0  0  0  0  0  0  0  0  0  0
    1.2063   24.9026  -24.8358 H   0  0  0  0  0  0  0  0  0  0  0  0
   -0.4469   24.2874  -25.1753 H   0  0  0  0  0  0  0  0  0  0  0  0
    0.9496   23.1574  -25.1753 H   0  0  0  0  0  0  0  0  0  0  0  0
    1.2530   25.9070  -27.1260 C   0  0  0  0  0  0  0  0  0  0  0  0
    1.3903   26.3854  -26.1450 H   0  0  0  0  0  0  0  0  0  0  0  0
    2.1981   25.9443  -27.6876 H   0  0  0  0  0  0  0  0  0  0  0  0
    0.4715   26.4398  -27.6876 H   0  0  0  0  0  0  0  0  0  0  0  0
    1.9440   23.5060  -27.4430 C   0  0  0  0  0  0  0  0  0  0  0  0
    2.4744   23.0605  -26.5885 H   0  0  0  0  0  0  0  0  0  0  0  0
    1.4980   22.7077  -28.0544 H   0  0  0  0  0  0  0  0  0  0  0  0
    2.6533   24.0832  -28.0544 H   0  0  0  0  0  0  0  0  0  0  0  0
   -1.6620   24.8250  -27.5020 C   0  0  0  0  0  0  0  0  0  0  0  0
   -1.9004   25.6031  -26.7619 H   0  0  0  0  0  0  0  0  0  0  0  0
   -2.4980   24.2700  -28.4430 C   0  0  0  0  0  0  0  0  0  0  0  0
   -3.7270   24.6580  -28.6360 N   0  0  0  0  0  0  0  0  0  0  0  0
   -4.5700   24.2860  -29.7320 C   0  0  0  0  0  0  0  0  0  0  0  0
   -4.1610   24.4430  -30.9140 O   0  0  0  0  0  0  0  0  0  0  0  0
   -5.8660   23.7290  -29.4700 N   0  0  0  0  0  0  0  0  0  0  0  0
   -6.1490   23.6280  -28.4680 H   0  0  0  0  0  0  0  0  0  0  0  0
   -6.5990   22.9710  -30.4500 C   0  0  0  0  0  0  0  0  0  0  0  0
   -6.1760   22.9020  -31.7900 C   0  0  0  0  0  0  0  0  0  0  0  0
   -5.2785   23.4518  -32.1098 H   0  0  0  0  0  0  0  0  0  0  0  0
   -6.8910   22.1380  -32.7170 C   0  0  0  0  0  0  0  0  0  0  0  0
   -6.5525   22.0844  -33.7622 H   0  0  0  0  0  0  0  0  0  0  0  0
   -8.0340   21.4430  -32.3180 C   0  0  0  0  0  0  0  0  0  0  0  0
   -8.5892   20.8333  -33.0460 H   0  0  0  0  0  0  0  0  0  0  0  0
   -8.4730   21.5220  -30.9930 C   0  0  0  0  0  0  0  0  0  0  0  0
   -9.3791   20.9816  -30.6815 H   0  0  0  0  0  0  0  0  0  0  0  0
   -7.7620   22.2870  -30.0630 C   0  0  0  0  0  0  0  0  0  0  0  0
   -8.1157   22.3530  -29.0235 H   0  0  0  0  0  0  0  0  0  0  0  0
   -3.3240   21.4270  -29.6420 C   0  0  0  0  0  0  0  0  0  0  0  0
   -3.6530   21.4096  -28.5925 H   0  0  0  0  0  0  0  0  0  0  0  0
   -3.8860   20.5410  -30.5610 C   0  0  0  0  0  0  0  0  0  0  0  0
   -4.6611   19.8314  -30.2360 H   0  0  0  0  0  0  0  0  0  0  0  0
   -0.6980   19.5580  -34.5630 C   0  0  0  0  0  0  0  0  0  0  0  0
   -1.0497   20.2309  -35.3590 H   0  0  0  0  0  0  0  0  0  0  0  0
    0.6670   19.4740  -34.2730 C   0  0  0  0  0  0  0  0  0  0  0  0
    1.3890   20.0682  -34.8523 H   0  0  0  0  0  0  0  0  0  0  0  0
  1  2  1  0
  2  3  1  0
  3  4  1  6
  3  5  1  0
  5  6  2  0
  6  7  1  0
  6  8  1  0
  8  9  2  0
  9 10  1  0
  9 11  1  0
 11 12  1  0
 11 13  2  0
 13 14  1  0
  3 15  1  0
 15 16  1  0
 15 17  1  0
 15 18  1  0
 18 19  1  0
 18 20  1  0
 20 21  1  0
 20 22  1  0
 20 23  1  0
 23 24  1  0
 23 25  1  0
 23 26  1  0
 26 27  2  0
 27 28  1  0
 27 29  1  0
 29 30  1  0
 29 31  2  0
 31 32  1  0
 32 33  1  0
 33 34  2  0
 33 35  2  0
 33 36  1  0
 36 37  2  0
 37 38  1  0
 37 39  1  0
 39 40  1  0
 39 41  2  0
 41 42  1  0
 42 43  1  0
 43 44  1  0
 44 45  1  0
 45 46  1  0
 46 47  1  0
 46 48  1  0
 46 49  1  0
 45 50  1  0
 50 51  1  0
 50 52  1  0
 50 53  1  0
 45 54  1  0
 54 55  1  0
 54 56  1  0
 54 57  1  0
 44 58  2  0
 58 59  1  0
 58 60  1  0
 60 61  2  0
 61 62  1  0
 62 63  2  0
 62 64  1  0
 64 65  1  0
 64 66  1  0
 66 67  2  0
 67 68  1  0
 67 69  1  0
 69 70  1  0
 69 71  2  0
 71 72  1  0
 71 73  1  0
 73 74  1  0
 73 75  2  0
 75 76  1  0
 41 77  1  0
 77 78  1  0
 77 79  2  0
 79 80  1  0
 31 81  1  0
 81 82  1  0
 81 83  2  0
 83 84  1  0
 13  5  1  0
 83 26  1  0
 79 36  1  0
 60 42  1  0
 75 66  1  0
M  CHG  2  32  -1  43  -1
M  END
>  <UniqueID>  (45) 
42

>  <SMILES>  (45) 
CC(C)(C)c1c/c(=N/C(=O)Nc2ccccc2)n(-c2ccc(S(=O)(=O)[N-]c3ccc(CCNC[C@H](O)c4cccnc4)cc3)cc2)[n-]1

>  <Energy>  (45) 
140.91536894570515

>  <Genealogy>  (45) 
CC(C)(C)c1cc(=NC(=O)Nc2ccccc2)n(-c2ccc(S(=O)(=O)[N-]c3ccc(CCNCC(O)c4cccnc4)cc3)cc2)[n-]1 (protonated)
CC(C)(C)c1cc(=NC(=O)Nc2ccccc2)n(-c2ccc(S(=O)(=O)[N-]c3ccc(CCNC[C@H](O)c4cccnc4)cc3)cc2)[n-]1 (chirality)
CC(C)(C)c1c/c(=N/C(=O)Nc2ccccc2)n(-c2ccc(S(=O)(=O)[N-]c3ccc(CCNC[C@H](O)c4cccnc4)cc3)cc2)[n-]1 (cis-trans isomerization)
CC(C)(C)c1c/c(=N/C(=O)Nc2ccccc2)n(-c2ccc(S(=O)(=O)[N-]c3ccc(CCNC[C@H](O)c4cccnc4)cc3)cc2)[n-]1 (3D coordinates assigned)
CC(C)(C)c1c/c(=N/C(=O)Nc2ccccc2)n(-c2ccc(S(=O)(=O)[N-]c3ccc(CCNC[C@H](O)c4cccnc4)cc3)cc2)[n-]1 (optimized conformer: 140.91536894570515 kcal/mol)

>  <smiles>  (45) 
CC(C)(C)c1cc(=NC(=O)Nc2ccccc2)n(-c2ccc(S(=O)(=O)Nc3ccc(CCNCC(O)c4cccnc4)cc3)cc2)[nH]1

>  <score_type>  (45) 
oracle

>  <origin>  (45) 
adgpu

>  <m_score__min__energy>  (45) 
-11.24

>  <m_primary>  (45) 
energy

$$$$
45:0
     RDKit          3D

 41 42  0  0  0  0  0  0  0  0999 V2000
   -6.1220   17.4690  -31.6300 C   0  0  0  0  0  0  0  0  0  0  0  0
   -6.7250   17.8170  -32.9230 N   0  0  0  0  0  0  0  0  0  0  0  0
   -7.6690   18.9290  -32.7580 C   0  0  0  0  0  0  0  0  0  0  0  0
   -5.4730   18.2620  -34.0580 S   0  0  0  0  0  0  0  0  0  0  0  0
   -4.5710   17.0800  -34.2870 O   0  0  0  0  0  0  0  0  0  0  0  0
   -6.0960   18.6320  -35.3760 O   0  0  0  0  0  0  0  0  0  0  0  0
   -4.5140   19.6220  -33.4700 C   0  0  0  0  0  0  0  0  0  0  0  0
   -3.1190   19.5220  -33.3950 C   0  0  0  0  0  0  0  0  0  0  0  0
   -2.3640   20.5870  -32.9020 C   0  0  0  0  0  0  0  0  0  0  0  0
   -2.9980   21.7600  -32.4820 C   0  0  0  0  0  0  0  0  0  0  0  0
   -4.3930   21.8830  -32.5630 C   0  0  0  0  0  0  0  0  0  0  0  0
   -5.0230   23.0810  -32.0740 N   0  0  0  0  0  0  0  0  0  0  0  0
   -6.4180   23.1790  -31.7460 C   0  0  0  0  0  0  0  0  0  0  0  0
   -7.2680   22.5260  -32.4080 O   0  0  0  0  0  0  0  0  0  0  0  0
   -6.8930   24.1190  -30.7120 C   0  0  0  0  0  0  0  0  0  0  0  0
   -6.1580   24.5690  -29.6830 C   0  0  0  0  0  0  0  0  0  0  0  0
   -4.8110   24.0750  -29.3190 C   0  0  0  0  0  0  0  0  0  0  0  0
   -4.6500   23.0740  -28.3440 C   0  0  0  0  0  0  0  0  0  0  0  0
   -3.3720   22.6260  -27.9970 C   0  0  0  0  0  0  0  0  0  0  0  0
   -2.2460   23.1870  -28.6030 C   0  0  0  0  0  0  0  0  0  0  0  0
   -2.3940   24.2020  -29.5500 C   0  0  0  0  0  0  0  0  0  0  0  0
   -3.6700   24.6530  -29.9050 C   0  0  0  0  0  0  0  0  0  0  0  0
   -3.7960   25.6670  -30.8500 O   0  0  0  0  0  0  0  0  0  0  0  0
   -5.1480   20.8000  -33.0510 C   0  0  0  0  0  0  0  0  0  0  0  0
   -6.7623   17.8385  -30.8155 H   0  0  0  0  0  0  0  0  0  0  0  0
   -6.0249   16.3760  -31.5530 H   0  0  0  0  0  0  0  0  0  0  0  0
   -5.1271   17.9318  -31.5530 H   0  0  0  0  0  0  0  0  0  0  0  0
   -7.8293   19.1179  -31.6863 H   0  0  0  0  0  0  0  0  0  0  0  0
   -7.2578   19.8324  -33.2320 H   0  0  0  0  0  0  0  0  0  0  0  0
   -8.6272   18.6699  -33.2320 H   0  0  0  0  0  0  0  0  0  0  0  0
   -2.6169   18.6009  -33.7258 H   0  0  0  0  0  0  0  0  0  0  0  0
   -1.2687   20.5034  -32.8438 H   0  0  0  0  0  0  0  0  0  0  0  0
   -2.3986   22.5926  -32.0851 H   0  0  0  0  0  0  0  0  0  0  0  0
   -4.4340   23.9340  -31.9490 H   0  0  0  0  0  0  0  0  0  0  0  0
   -7.9296   24.4786  -30.7908 H   0  0  0  0  0  0  0  0  0  0  0  0
   -6.5904   25.3672  -29.0617 H   0  0  0  0  0  0  0  0  0  0  0  0
   -5.5339   22.6416  -27.8522 H   0  0  0  0  0  0  0  0  0  0  0  0
   -3.2534   21.8310  -27.2461 H   0  0  0  0  0  0  0  0  0  0  0  0
   -1.2414   22.8288  -28.3339 H   0  0  0  0  0  0  0  0  0  0  0  0
   -1.5046   24.6486  -30.0186 H   0  0  0  0  0  0  0  0  0  0  0  0
   -6.2439   20.8786  -33.1040 H   0  0  0  0  0  0  0  0  0  0  0  0
  1  2  1  0
  2  3  1  0
  2  4  1  0
  4  5  2  0
  4  6  2  0
  4  7  1  0
  7  8  2  0
  8  9  1  0
  9 10  2  0
 10 11  1  0
 11 12  1  0
 12 13  1  0
 13 14  2  0
 13 15  1  0
 15 16  2  3
 16 17  1  0
 17 18  2  0
 18 19  1  0
 19 20  2  0
 20 21  1  0
 21 22  2  0
 22 23  1  0
 11 24  2  0
 24  7  1  0
 22 17  1  0
  1 25  1  0
  1 26  1  0
  1 27  1  0
  3 28  1  0
  3 29  1  0
  3 30  1  0
  8 31  1  0
  9 32  1  0
 10 33  1  0
 12 34  1  0
 15 35  1  0
 16 36  1  0
 18 37  1  0
 19 38  1  0
 20 39  1  0
 21 40  1  0
 24 41  1  0
M  CHG  1  23  -1
M  END
>  <UniqueID>  (46) 
43

>  <SMILES>  (46) 
CN(C)S(=O)(=O)c1cccc(NC(=O)C=Cc2ccccc2[O-])c1

>  <Energy>  (46) 
48.30056365128157

>  <Genealogy>  (46) 
CN(C)S(=O)(=O)c1cccc(NC(=O)C=Cc2ccccc2[O-])c1 (protonated)
CN(C)S(=O)(=O)c1cccc(NC(=O)C=Cc2ccccc2[O-])c1 (3D coordinates assigned)
CN(C)S(=O)(=O)c1cccc(NC(=O)C=Cc2ccccc2[O-])c1 (optimized conformer: 48.30056365128157 kcal/mol)

>  <smiles>  (46) 
CN(C)S(=O)(=O)c1cccc(NC(=O)C=Cc2ccccc2O)c1

>  <score_type>  (46) 
oracle

>  <origin>  (46) 
adgpu

>  <m_score__min__energy>  (46) 
-11.630000000000001

>  <m_primary>  (46) 
energy

$$$$
46:0
     RDKit          3D

 46 47  0  0  0  0  0  0  0  0999 V2000
   -4.3000   19.5000  -33.7570 C   0  0  0  0  0  0  0  0  0  0  0  0
   -5.4070   20.2660  -33.2980 O   0  0  0  0  0  0  0  0  0  0  0  0
   -6.5770   19.7250  -32.7390 C   0  0  0  0  0  0  0  0  0  0  0  0
   -6.7910   18.3330  -32.6730 C   0  0  0  0  0  0  0  0  0  0  0  0
   -7.9640   17.8230  -32.1130 C   0  0  0  0  0  0  0  0  0  0  0  0
   -8.9350   18.6900  -31.6120 C   0  0  0  0  0  0  0  0  0  0  0  0
   -8.7370   20.0710  -31.6710 C   0  0  0  0  0  0  0  0  0  0  0  0
   -7.5630   20.5990  -32.2330 C   0  0  0  0  0  0  0  0  0  0  0  0
   -7.3900   22.1000  -32.3290 C   0  0  0  0  0  0  0  0  0  0  0  0
   -5.9680   22.4810  -32.4030 N   0  0  0  0  0  0  0  0  0  0  0  0
   -5.7430   23.8600  -31.9380 C   0  0  0  0  0  0  0  0  0  0  0  0
   -5.0550   23.8570  -30.6020 C   0  0  0  0  0  0  0  0  0  0  0  0
   -5.3820   24.5970  -29.4750 C   0  0  0  0  0  0  0  0  0  0  0  0
   -6.4300   25.6580  -29.3860 C   0  0  0  0  0  0  0  0  0  0  0  0
   -4.6640   24.1640  -28.4170 N   0  0  0  0  0  0  0  0  0  0  0  0
   -3.8890   23.1750  -28.8360 N   0  0  0  0  0  0  0  0  0  0  0  0
   -3.0040   22.4180  -27.9570 C   0  0  0  0  0  0  0  0  0  0  0  0
   -4.1130   22.9530  -30.1470 C   0  0  0  0  0  0  0  0  0  0  0  0
   -3.5530   21.8660  -30.9010 N   0  0  0  0  0  0  0  0  0  0  0  0
   -3.8210   20.4830  -30.5120 C   0  0  0  0  0  0  0  0  0  0  0  0
   -2.7440   22.1260  -32.0890 C   0  0  0  0  0  0  0  0  0  0  0  0
   -3.7394   19.1121  -32.8937 H   0  0  0  0  0  0  0  0  0  0  0  0
   -4.6633   18.6592  -34.3661 H   0  0  0  0  0  0  0  0  0  0  0  0
   -3.6412   20.1363  -34.3661 H   0  0  0  0  0  0  0  0  0  0  0  0
   -6.0286   17.6440  -33.0654 H   0  0  0  0  0  0  0  0  0  0  0  0
   -8.1226   16.7355  -32.0668 H   0  0  0  0  0  0  0  0  0  0  0  0
   -9.8575   18.2855  -31.1700 H   0  0  0  0  0  0  0  0  0  0  0  0
   -9.5060   20.7503  -31.2745 H   0  0  0  0  0  0  0  0  0  0  0  0
   -7.9033   22.4610  -33.2324 H   0  0  0  0  0  0  0  0  0  0  0  0
   -7.8200   22.5534  -31.4237 H   0  0  0  0  0  0  0  0  0  0  0  0
   -5.4200   21.8320  -31.7930 H   0  0  0  0  0  0  0  0  0  0  0  0
   -5.6230   22.3670  -33.3850 H   0  0  0  0  0  0  0  0  0  0  0  0
   -5.1143   24.3906  -32.6682 H   0  0  0  0  0  0  0  0  0  0  0  0
   -6.7148   24.3656  -31.8376 H   0  0  0  0  0  0  0  0  0  0  0  0
   -6.6438   25.8744  -28.3289 H   0  0  0  0  0  0  0  0  0  0  0  0
   -6.0699   26.5715  -29.8818 H   0  0  0  0  0  0  0  0  0  0  0  0
   -7.3479   25.3092  -29.8818 H   0  0  0  0  0  0  0  0  0  0  0  0
   -3.2564   22.6339  -26.9083 H   0  0  0  0  0  0  0  0  0  0  0  0
   -3.1280   21.3422  -28.1500 H   0  0  0  0  0  0  0  0  0  0  0  0
   -1.9604   22.7072  -28.1500 H   0  0  0  0  0  0  0  0  0  0  0  0
   -3.8357   20.4070  -29.4147 H   0  0  0  0  0  0  0  0  0  0  0  0
   -4.7962   20.1714  -30.9142 H   0  0  0  0  0  0  0  0  0  0  0  0
   -3.0328   19.8296  -30.9142 H   0  0  0  0  0  0  0  0  0  0  0  0
   -1.7379   22.4494  -31.7839 H   0  0  0  0  0  0  0  0  0  0  0  0
   -2.6676   21.2072  -32.6889 H   0  0  0  0  0  0  0  0  0  0  0  0
   -3.2173   22.9173  -32.6889 H   0  0  0  0  0  0  0  0  0  0  0  0
  1  2  1  0
  2  3  1  0
  3  4  2  0
  4  5  1  0
  5  6  2  0
  6  7  1  0
  7  8  2  0
  8  9  1  0
  9 10  1  0
 10 11  1  0
 11 12  1  0
 12 13  1  0
 13 14  1  0
 13 15  2  0
 15 16  1  0
 16 17  1  0
 16 18  1  0
 18 19  1  0
 19 20  1  0
 19 21  1  0
  8  3  1  0
 18 12  2  0
  1 22  1  0
  1 23  1  0
  1 24  1  0
  4 25  1  0
  5 26  1  0
  6 27  1  0
  7 28  1  0
  9 29  1  0
  9 30  1  0
 10 31  1  0
 10 32  1  0
 11 33  1  0
 11 34  1  0
 14 35  1  0
 14 36  1  0
 14 37  1  0
 17 38  1  0
 17 39  1  0
 17 40  1  0
 20 41  1  0
 20 42  1  0
 20 43  1  0
 21 44  1  0
 21 45  1  0
 21 46  1  0
M  CHG  1  10   1
M  END
>  <UniqueID>  (47) 
44

>  <SMILES>  (47) 
COc1ccccc1C[NH2+]Cc1c(C)nn(C)c1N(C)C

>  <Energy>  (47) 
73.63720588287684

>  <Genealogy>  (47) 
COc1ccccc1C[NH2+]Cc1c(C)nn(C)c1N(C)C (protonated)
COc1ccccc1C[NH2+]Cc1c(C)nn(C)c1N(C)C (3D coordinates assigned)
COc1ccccc1C[NH2+]Cc1c(C)nn(C)c1N(C)C (optimized conformer: 73.63720588287684 kcal/mol)

>  <smiles>  (47) 
COc1ccccc1CNCc1c(C)nn(C)c1N(C)C

>  <score_type>  (47) 
oracle

>  <origin>  (47) 
adgpu

>  <m_score__min__energy>  (47) 
-6.1600000000000001

>  <m_primary>  (47) 
energy

$$$$
47:0
     RDKit          3D

 24 26  0  0  0  0  0  0  0  0999 V2000
   -5.8010   24.8550  -29.3550 C   0  0  0  0  0  0  0  0  0  0  0  0
   -5.0660   25.6100  -30.2450 C   0  0  0  0  0  0  0  0  0  0  0  0
   -4.6260   24.8450  -31.2180 O   0  0  0  0  0  0  0  0  0  0  0  0
   -5.0490   23.6180  -31.0140 C   0  0  0  0  0  0  0  0  0  0  0  0
   -4.7050   22.4880  -31.9010 C   0  0  0  0  0  0  0  0  0  0  0  0
   -3.4030   22.3560  -32.2680 N   0  0  0  0  0  0  0  0  0  0  0  0
   -2.9750   21.3100  -33.0190 C   0  0  0  0  0  0  0  0  0  0  0  0
   -3.8530   20.3580  -33.4190 N   0  0  0  0  0  0  0  0  0  0  0  0
   -5.1680   20.4430  -33.0950 C   0  0  0  0  0  0  0  0  0  0  0  0
   -5.6460   21.5250  -32.3430 C   0  0  0  0  0  0  0  0  0  0  0  0
   -7.1040   21.6550  -32.1250 C   0  0  0  0  0  0  0  0  0  0  0  0
   -7.7890   22.8820  -32.1670 C   0  0  0  0  0  0  0  0  0  0  0  0
   -9.1560   22.7640  -31.9670 C   0  0  0  0  0  0  0  0  0  0  0  0
   -9.5130   21.1350  -31.7570 S   0  0  0  0  0  0  0  0  0  0  0  0
   -7.9410   20.5630  -31.9150 C   0  0  0  0  0  0  0  0  0  0  0  0
   -5.7860   23.5670  -29.8440 C   0  0  0  0  0  0  0  0  0  0  0  0
   -6.2984   25.2094  -28.4401 H   0  0  0  0  0  0  0  0  0  0  0  0
   -4.8768   26.6898  -30.1538 H   0  0  0  0  0  0  0  0  0  0  0  0
   -1.9150   21.2346  -33.3033 H   0  0  0  0  0  0  0  0  0  0  0  0
   -5.8637   19.6573  -33.4248 H   0  0  0  0  0  0  0  0  0  0  0  0
   -7.2875   23.8453  -32.3421 H   0  0  0  0  0  0  0  0  0  0  0  0
   -9.8802   23.5918  -31.9489 H   0  0  0  0  0  0  0  0  0  0  0  0
   -7.6281   19.5098  -31.8618 H   0  0  0  0  0  0  0  0  0  0  0  0
   -6.2614   22.6815  -29.3969 H   0  0  0  0  0  0  0  0  0  0  0  0
  1  2  2  0
  2  3  1  0
  3  4  1  0
  4  5  1  0
  5  6  2  0
  6  7  1  0
  7  8  2  0
  8  9  1  0
  9 10  2  0
 10 11  1  0
 11 12  1  0
 12 13  2  0
 13 14  1  0
 14 15  1  0
  4 16  2  0
 16  1  1  0
 10  5  1  0
 15 11  2  0
  1 17  1  0
  2 18  1  0
  7 19  1  0
  9 20  1  0
 12 21  1  0
 13 22  1  0
 15 23  1  0
 16 24  1  0
M  END
>  <UniqueID>  (48) 
45

>  <SMILES>  (48) 
c1coc(-c2ncncc2-c2ccsc2)c1

>  <Energy>  (48) 
89.15166660930801

>  <Genealogy>  (48) 
c1coc(-c2ncncc2-c2ccsc2)c1 (3D coordinates assigned)
c1coc(-c2ncncc2-c2ccsc2)c1 (optimized conformer: 89.15166660930801 kcal/mol)

>  <smiles>  (48) 
c1coc(-c2ncncc2-c2ccsc2)c1

>  <score_type>  (48) 
oracle

>  <origin>  (48) 
adgpu

>  <m_score__min__energy>  (48) 
-6.5499999999999998

>  <m_primary>  (48) 
energy

$$$$
