0:0
     RDKit          3D

 71 76  0  0  0  0  0  0  0  0999 V2000
   -6.8250   20.1430  -33.0880 C   0  0  0  0  0  0  0  0  0  0  0  0
   -5.9450   18.9850  -33.4590 C   0  0  0  0  0  0  0  0  0  0  0  0
   -6.5120   17.7640  -33.8500 C   0  0  0  0  0  0  0  0  0  0  0  0
   -5.6920   16.6780  -34.1570 C   0  0  0  0  0  0  0  0  0  0  0  0
   -4.2940   16.7890  -34.0660 C   0  0  0  0  0  0  0  0  0  0  0  0
   -3.4360   15.5870  -34.3590 C   0  0  0  0  0  0  0  0  0  0  0  0
   -3.7140   17.9990  -33.6280 C   0  0  0  0  0  0  0  0  0  0  0  0
   -2.3120   18.0770  -33.4950 O   0  0  0  0  0  0  0  0  0  0  0  0
   -1.5250   19.1960  -33.7950 C   0  0  0  0  0  0  0  0  0  0  0  0
   -0.7380   19.1620  -34.9550 C   0  0  0  0  0  0  0  0  0  0  0  0
    0.0530   20.2590  -35.3110 C   0  0  0  0  0  0  0  0  0  0  0  0
    0.0760   21.3940  -34.5010 C   0  0  0  0  0  0  0  0  0  0  0  0
   -0.6890   21.4330  -33.3280 C   0  0  0  0  0  0  0  0  0  0  0  0
   -1.4790   20.3310  -32.9540 C   0  0  0  0  0  0  0  0  0  0  0  0
   -2.1450   20.3260  -31.6820 N   0  0  0  0  0  0  0  0  0  0  0  0
   -2.8460   21.4730  -31.1800 C   0  0  0  0  0  0  0  0  0  0  0  0
   -4.0700   21.7890  -31.6760 N   0  0  0  0  0  0  0  0  0  0  0  0
   -4.7850   22.8350  -31.2000 C   0  0  0  0  0  0  0  0  0  0  0  0
   -6.0460   23.1170  -31.7360 C   0  0  0  0  0  0  0  0  0  0  0  0
   -6.7940   24.1860  -31.2400 C   0  0  0  0  0  0  0  0  0  0  0  0
   -6.2840   24.9790  -30.2100 C   0  0  0  0  0  0  0  0  0  0  0  0
   -5.0210   24.7090  -29.6690 C   0  0  0  0  0  0  0  0  0  0  0  0
   -4.2500   23.6300  -30.1580 C   0  0  0  0  0  0  0  0  0  0  0  0
   -3.0050   23.3220  -29.6520 N   0  0  0  0  0  0  0  0  0  0  0  0
   -2.4170   24.1120  -28.6000 C   0  0  0  0  0  0  0  0  0  0  0  0
   -1.2500   24.8490  -28.8440 C   0  0  0  0  0  0  0  0  0  0  0  0
   -0.6820   25.6240  -27.8300 C   0  0  0  0  0  0  0  0  0  0  0  0
   -1.2710   25.6640  -26.5560 C   0  0  0  0  0  0  0  0  0  0  0  0
   -0.7010   26.4770  -25.5140 N   0  0  0  0  0  0  0  0  0  0  0  0
    0.5580   27.2010  -25.7260 C   0  0  0  0  0  0  0  0  0  0  0  0
    1.5570   26.8880  -24.5960 C   0  0  0  0  0  0  0  0  0  0  0  0
    0.9080   26.5060  -23.3210 N   0  0  0  0  0  0  0  0  0  0  0  0
   -0.4140   27.1220  -23.1490 C   0  0  0  0  0  0  0  0  0  0  0  0
   -1.3820   26.6010  -24.2200 C   0  0  0  0  0  0  0  0  0  0  0  0
   -2.4420   24.9230  -26.3160 C   0  0  0  0  0  0  0  0  0  0  0  0
   -3.0090   24.1470  -27.3310 C   0  0  0  0  0  0  0  0  0  0  0  0
   -4.1460   23.4470  -27.0860 F   0  0  0  0  0  0  0  0  0  0  0  0
   -2.3050   22.2490  -30.1430 C   0  0  0  0  0  0  0  0  0  0  0  0
   -1.1670   21.9600  -29.6760 O   0  0  0  0  0  0  0  0  0  0  0  0
   -4.5490   19.1000  -33.3550 C   0  0  0  0  0  0  0  0  0  0  0  0
   -6.8849   20.2218  -31.9925 H   0  0  0  0  0  0  0  0  0  0  0  0
   -6.4024   21.0713  -33.4998 H   0  0  0  0  0  0  0  0  0  0  0  0
   -7.8326   19.9845  -33.4998 H   0  0  0  0  0  0  0  0  0  0  0  0
   -7.6053   17.6621  -33.9148 H   0  0  0  0  0  0  0  0  0  0  0  0
   -6.1437   15.7262  -34.4732 H   0  0  0  0  0  0  0  0  0  0  0  0
   -3.1098   15.1300  -33.4131 H   0  0  0  0  0  0  0  0  0  0  0  0
   -4.0167   14.8546  -34.9390 H   0  0  0  0  0  0  0  0  0  0  0  0
   -2.5547   15.8982  -34.9390 H   0  0  0  0  0  0  0  0  0  0  0  0
   -0.7428   18.2643  -35.5908 H   0  0  0  0  0  0  0  0  0  0  0  0
    0.6569   20.2266  -36.2298 H   0  0  0  0  0  0  0  0  0  0  0  0
    0.6948   22.2586  -34.7831 H   0  0  0  0  0  0  0  0  0  0  0  0
   -0.6717   22.3322  -32.6947 H   0  0  0  0  0  0  0  0  0  0  0  0
   -2.1790   19.4320  -31.1410 H   0  0  0  0  0  0  0  0  0  0  0  0
   -6.4486   22.4955  -32.5494 H   0  0  0  0  0  0  0  0  0  0  0  0
   -7.7866   24.4041  -31.6611 H   0  0  0  0  0  0  0  0  0  0  0  0
   -6.8773   25.8199  -29.8217 H   0  0  0  0  0  0  0  0  0  0  0  0
   -4.6267   25.3401  -28.8590 H   0  0  0  0  0  0  0  0  0  0  0  0
   -0.7796   24.8170  -29.8378 H   0  0  0  0  0  0  0  0  0  0  0  0
    0.2302   26.2052  -28.0304 H   0  0  0  0  0  0  0  0  0  0  0  0
    0.9934   26.8958  -26.6890 H   0  0  0  0  0  0  0  0  0  0  0  0
    0.3511   28.2814  -25.7289 H   0  0  0  0  0  0  0  0  0  0  0  0
    2.2010   26.0576  -24.9211 H   0  0  0  0  0  0  0  0  0  0  0  0
    2.1273   27.8090  -24.4048 H   0  0  0  0  0  0  0  0  0  0  0  0
    1.5210   26.7960  -22.5260 H   0  0  0  0  0  0  0  0  0  0  0  0
    0.8090   25.4630  -23.2750 H   0  0  0  0  0  0  0  0  0  0  0  0
   -0.8053   26.8712  -22.1520 H   0  0  0  0  0  0  0  0  0  0  0  0
   -0.3186   28.2132  -23.2501 H   0  0  0  0  0  0  0  0  0  0  0  0
   -1.7618   25.6147  -23.9152 H   0  0  0  0  0  0  0  0  0  0  0  0
   -2.2139   27.3132  -24.3234 H   0  0  0  0  0  0  0  0  0  0  0  0
   -2.9147   24.9543  -25.3232 H   0  0  0  0  0  0  0  0  0  0  0  0
   -4.1030   20.0604  -33.0571 H   0  0  0  0  0  0  0  0  0  0  0  0
  1  2  1  0
  2  3  2  0
  3  4  1  0
  4  5  2  0
  5  6  1  0
  5  7  1  0
  7  8  1  0
  8  9  1  0
  9 10  2  0
 10 11  1  0
 11 12  2  0
 12 13  1  0
 13 14  2  0
 14 15  1  0
 15 16  1  0
 16 17  2  0
 17 18  1  0
 18 19  2  0
 19 20  1  0
 20 21  2  0
 21 22  1  0
 22 23  2  0
 23 24  1  0
 24 25  1  0
 25 26  2  0
 26 27  1  0
 27 28  2  0
 28 29  1  0
 29 30  1  0
 30 31  1  0
 31 32  1  0
 32 33  1  0
 33 34  1  0
 28 35  1  0
 35 36  2  0
 36 37  1  0
 24 38  1  0
 38 39  2  0
  7 40  2  0
 40  2  1  0
 14  9  1  0
 38 16  1  0
 23 18  1  0
 36 25  1  0
 34 29  1  0
  1 41  1  0
  1 42  1  0
  1 43  1  0
  3 44  1  0
  4 45  1  0
  6 46  1  0
  6 47  1  0
  6 48  1  0
 10 49  1  0
 11 50  1  0
 12 51  1  0
 13 52  1  0
 15 53  1  0
 19 54  1  0
 20 55  1  0
 21 56  1  0
 22 57  1  0
 26 58  1  0
 27 59  1  0
 30 60  1  0
 30 61  1  0
 31 62  1  0
 31 63  1  0
 32 64  1  0
 32 65  1  0
 33 66  1  0
 33 67  1  0
 34 68  1  0
 34 69  1  0
 35 70  1  0
 40 71  1  0
M  CHG  1  32   1
M  END
>  <UniqueID>  (1) 
1

>  <SMILES>  (1) 
Cc1ccc(C)c(Oc2ccccc2Nc2nc3ccccc3n(-c3ccc(N4CC[NH2+]CC4)cc3F)c2=O)c1

>  <Energy>  (1) 
111.73498311567968

>  <Genealogy>  (1) 
Cc1ccc(C)c(Oc2ccccc2Nc2nc3ccccc3n(-c3ccc(N4CC[NH2+]CC4)cc3F)c2=O)c1 (protonated)
Cc1ccc(C)c(Oc2ccccc2Nc2nc3ccccc3n(-c3ccc(N4CC[NH2+]CC4)cc3F)c2=O)c1 (3D coordinates assigned)
Cc1ccc(C)c(Oc2ccccc2Nc2nc3ccccc3n(-c3ccc(N4CC[NH2+]CC4)cc3F)c2=O)c1 (nonaromatic ring conformer: 111.73498311567968 kcal/mol)

>  <smiles>  (1) 
Cc1ccc(C)c(Oc2ccccc2Nc2nc3ccccc3n(-c3ccc(N4CCNCC4)cc3F)c2=O)c1

>  <score_type>  (1) 
oracle

>  <origin>  (1) 
adgpu

>  <m_score__min__energy>  (1) 
-12.529999999999999

>  <m_primary>  (1) 
energy

$$$$
1:0
     RDKit          3D

 43 45  0  0  0  0  0  0  0  0999 V2000
   -9.2000   21.8750  -32.2880 C   0  0  0  0  0  0  0  0  0  0  0  0
   -8.5940   20.5040  -32.2420 C   0  0  0  0  0  0  0  0  0  0  0  0
   -9.2750   19.4500  -31.6140 C   0  0  0  0  0  0  0  0  0  0  0  0
   -8.6960   18.1810  -31.5440 C   0  0  0  0  0  0  0  0  0  0  0  0
   -7.4280   17.9580  -32.0870 C   0  0  0  0  0  0  0  0  0  0  0  0
   -6.7260   19.0060  -32.7010 C   0  0  0  0  0  0  0  0  0  0  0  0
   -5.3850   18.7650  -33.2780 C   0  0  0  0  0  0  0  0  0  0  0  0
   -5.0170   17.7250  -34.1130 C   0  0  0  0  0  0  0  0  0  0  0  0
   -5.8800   16.5960  -34.5820 C   0  0  0  0  0  0  0  0  0  0  0  0
   -3.7200   17.8560  -34.4610 N   0  0  0  0  0  0  0  0  0  0  0  0
   -3.3210   18.9850  -33.8360 C   0  0  0  0  0  0  0  0  0  0  0  0
   -1.9220   19.5060  -33.9360 C   0  0  0  0  0  0  0  0  0  0  0  0
   -4.3110   19.5690  -33.1210 N   0  0  0  0  0  0  0  0  0  0  0  0
   -4.2120   20.7430  -32.2940 C   0  0  0  0  0  0  0  0  0  0  0  0
   -3.4560   20.7160  -31.1140 C   0  0  0  0  0  0  0  0  0  0  0  0
   -3.3440   21.8640  -30.3230 C   0  0  0  0  0  0  0  0  0  0  0  0
   -3.9900   23.0480  -30.7010 C   0  0  0  0  0  0  0  0  0  0  0  0
   -3.8290   24.4990  -29.7170 S   0  0  0  0  0  0  0  0  0  0  0  0
   -4.7940   24.3430  -28.2920 N   0  0  0  0  0  0  0  0  0  0  0  0
   -4.2820   25.6980  -30.5000 O   0  0  0  0  0  0  0  0  0  0  0  0
   -2.3900   24.6920  -29.3290 O   0  0  0  0  0  0  0  0  0  0  0  0
   -4.7400   23.0790  -31.8840 C   0  0  0  0  0  0  0  0  0  0  0  0
   -4.8520   21.9320  -32.6760 C   0  0  0  0  0  0  0  0  0  0  0  0
   -7.3130   20.2790  -32.7710 C   0  0  0  0  0  0  0  0  0  0  0  0
   -9.3610   22.2393  -31.2626 H   0  0  0  0  0  0  0  0  0  0  0  0
   -8.5203   22.5588  -32.8175 H   0  0  0  0  0  0  0  0  0  0  0  0
  -10.1632   21.8326  -32.8175 H   0  0  0  0  0  0  0  0  0  0  0  0
  -10.2686   19.6239  -31.1752 H   0  0  0  0  0  0  0  0  0  0  0  0
   -9.2391   17.3556  -31.0605 H   0  0  0  0  0  0  0  0  0  0  0  0
   -6.9780   16.9557  -32.0328 H   0  0  0  0  0  0  0  0  0  0  0  0
   -6.2888   16.0611  -33.7121 H   0  0  0  0  0  0  0  0  0  0  0  0
   -6.7063   16.9939  -35.1893 H   0  0  0  0  0  0  0  0  0  0  0  0
   -5.2792   15.9030  -35.1893 H   0  0  0  0  0  0  0  0  0  0  0  0
   -1.5142   19.6579  -32.9257 H   0  0  0  0  0  0  0  0  0  0  0  0
   -1.2982   18.7799  -34.4779 H   0  0  0  0  0  0  0  0  0  0  0  0
   -1.9251   20.4633  -34.4779 H   0  0  0  0  0  0  0  0  0  0  0  0
   -2.9490   19.7887  -30.8090 H   0  0  0  0  0  0  0  0  0  0  0  0
   -2.7461   21.8370  -29.4001 H   0  0  0  0  0  0  0  0  0  0  0  0
   -4.8890   25.2990  -27.8810 H   0  0  0  0  0  0  0  0  0  0  0  0
   -5.7500   24.0530  -28.6000 H   0  0  0  0  0  0  0  0  0  0  0  0
   -5.2422   24.0084  -32.1907 H   0  0  0  0  0  0  0  0  0  0  0  0
   -5.4443   21.9619  -33.6024 H   0  0  0  0  0  0  0  0  0  0  0  0
   -6.7650   21.1071  -33.2442 H   0  0  0  0  0  0  0  0  0  0  0  0
  1  2  1  0
  2  3  2  0
  3  4  1  0
  4  5  2  0
  5  6  1  0
  6  7  1  0
  7  8  2  0
  8  9  1  0
  8 10  1  0
 10 11  2  0
 11 12  1  0
 11 13  1  0
 13 14  1  0
 14 15  2  0
 15 16  1  0
 16 17  2  0
 17 18  1  0
 18 19  1  0
 18 20  2  0
 18 21  2  0
 17 22  1  0
 22 23  2  0
  6 24  2  0
 24  2  1  0
 13  7  1  0
 23 14  1  0
  1 25  1  0
  1 26  1  0
  1 27  1  0
  3 28  1  0
  4 29  1  0
  5 30  1  0
  9 31  1  0
  9 32  1  0
  9 33  1  0
 12 34  1  0
 12 35  1  0
 12 36  1  0
 15 37  1  0
 16 38  1  0
 19 39  1  0
 19 40  1  0
 22 41  1  0
 23 42  1  0
 24 43  1  0
M  END
>  <UniqueID>  (2) 
2

>  <SMILES>  (2) 
Cc1cccc(-c2c(C)nc(C)n2-c2ccc(S(N)(=O)=O)cc2)c1

>  <Energy>  (2) 
80.56562205613157

>  <Genealogy>  (2) 
Cc1cccc(-c2c(C)nc(C)n2-c2ccc(S(N)(=O)=O)cc2)c1 (3D coordinates assigned)
Cc1cccc(-c2c(C)nc(C)n2-c2ccc(S(N)(=O)=O)cc2)c1 (optimized conformer: 80.56562205613157 kcal/mol)

>  <smiles>  (2) 
Cc1cccc(-c2c(C)nc(C)n2-c2ccc(S(N)(=O)=O)cc2)c1

>  <score_type>  (2) 
oracle

>  <origin>  (2) 
adgpu

>  <m_score__min__energy>  (2) 
-9.9700000000000006

>  <m_primary>  (2) 
energy

$$$$
2:0
     RDKit          3D

 57 60  0  0  0  0  0  0  0  0999 V2000
   -5.6350   18.2120  -33.1840 C   0  0  0  0  0  0  0  0  0  0  0  0
   -6.8130   19.0490  -32.7510 C   0  0  0  0  0  0  0  0  0  0  0  0
   -8.0130   18.3930  -32.4340 C   0  0  0  0  0  0  0  0  0  0  0  0
   -9.1220   19.1130  -32.0070 C   0  0  0  0  0  0  0  0  0  0  0  0
   -9.0530   20.4960  -31.8790 C   0  0  0  0  0  0  0  0  0  0  0  0
   -7.8770   21.1930  -32.2000 C   0  0  0  0  0  0  0  0  0  0  0  0
   -7.8610   22.9570  -31.9470 S   0  0  0  0  0  0  0  0  0  0  0  0
   -7.1880   23.6270  -33.1150 O   0  0  0  0  0  0  0  0  0  0  0  0
   -9.2850   23.4480  -31.9200 O   0  0  0  0  0  0  0  0  0  0  0  0
   -7.0670   23.3270  -30.4170 N   0  0  0  0  0  0  0  0  0  0  0  0
   -5.9830   22.3600  -30.0710 C   0  0  0  0  0  0  0  0  0  0  0  0
   -4.5720   22.9660  -30.1080 C   0  0  0  0  0  0  0  0  0  0  0  0
   -4.5230   24.1740  -29.2750 N   0  0  0  0  0  0  0  0  0  0  0  0
   -3.3410   24.5420  -28.5310 C   0  0  0  0  0  0  0  0  0  0  0  0
   -3.3170   24.5370  -27.1300 C   0  0  0  0  0  0  0  0  0  0  0  0
   -2.1530   24.9040  -26.4610 C   0  0  0  0  0  0  0  0  0  0  0  0
   -1.0070   25.2520  -27.1980 C   0  0  0  0  0  0  0  0  0  0  0  0
    0.2330   25.6450  -26.5580 N   0  0  0  0  0  0  0  0  0  0  0  0
    0.2260   26.5840  -25.4220 C   0  0  0  0  0  0  0  0  0  0  0  0
    1.5600   26.5760  -24.6660 C   0  0  0  0  0  0  0  0  0  0  0  0
    2.6480   26.6490  -25.5590 O   0  0  0  0  0  0  0  0  0  0  0  0
    2.7020   25.4580  -26.3120 C   0  0  0  0  0  0  0  0  0  0  0  0
    1.5010   25.3600  -27.2570 C   0  0  0  0  0  0  0  0  0  0  0  0
   -1.0870   25.2270  -28.5580 N   0  0  0  0  0  0  0  0  0  0  0  0
   -2.2060   24.8860  -29.1980 N   0  0  0  0  0  0  0  0  0  0  0  0
   -5.7090   25.0360  -29.2100 C   0  0  0  0  0  0  0  0  0  0  0  0
   -6.6390   24.7460  -30.3910 C   0  0  0  0  0  0  0  0  0  0  0  0
   -6.7430   20.4700  -32.6730 C   0  0  0  0  0  0  0  0  0  0  0  0
   -5.4570   21.1880  -33.0170 C   0  0  0  0  0  0  0  0  0  0  0  0
   -5.1060   17.8361  -32.2958 H   0  0  0  0  0  0  0  0  0  0  0  0
   -5.9902   17.3626  -33.7860 H   0  0  0  0  0  0  0  0  0  0  0  0
   -4.9498   18.8269  -33.7860 H   0  0  0  0  0  0  0  0  0  0  0  0
   -8.0759   17.2985  -32.5245 H   0  0  0  0  0  0  0  0  0  0  0  0
  -10.0583   18.5869  -31.7692 H   0  0  0  0  0  0  0  0  0  0  0  0
   -9.9322   21.0519  -31.5212 H   0  0  0  0  0  0  0  0  0  0  0  0
   -7.8080   23.2320  -29.6830 H   0  0  0  0  0  0  0  0  0  0  0  0
   -6.1697   21.9793  -29.0560 H   0  0  0  0  0  0  0  0  0  0  0  0
   -6.0091   21.5660  -30.8318 H   0  0  0  0  0  0  0  0  0  0  0  0
   -3.8493   22.2302  -29.7257 H   0  0  0  0  0  0  0  0  0  0  0  0
   -4.3200   23.2318  -31.1452 H   0  0  0  0  0  0  0  0  0  0  0  0
   -4.2127   24.2448  -26.5623 H   0  0  0  0  0  0  0  0  0  0  0  0
   -2.1296   24.9217  -25.3614 H   0  0  0  0  0  0  0  0  0  0  0  0
    0.0380   27.5994  -25.8010 H   0  0  0  0  0  0  0  0  0  0  0  0
   -0.5636   26.2690  -24.7239 H   0  0  0  0  0  0  0  0  0  0  0  0
    1.5936   27.4407  -23.9869 H   0  0  0  0  0  0  0  0  0  0  0  0
    1.6352   25.6366  -24.0986 H   0  0  0  0  0  0  0  0  0  0  0  0
    3.6291   25.4468  -26.9040 H   0  0  0  0  0  0  0  0  0  0  0  0
    2.6795   24.6019  -25.6217 H   0  0  0  0  0  0  0  0  0  0  0  0
    1.6293   26.0861  -28.0733 H   0  0  0  0  0  0  0  0  0  0  0  0
    1.4544   24.3327  -27.6475 H   0  0  0  0  0  0  0  0  0  0  0  0
   -6.2460   24.8448  -28.2692 H   0  0  0  0  0  0  0  0  0  0  0  0
   -5.3908   26.0881  -29.2538 H   0  0  0  0  0  0  0  0  0  0  0  0
   -7.5301   25.3856  -30.3083 H   0  0  0  0  0  0  0  0  0  0  0  0
   -6.0884   24.9549  -31.3201 H   0  0  0  0  0  0  0  0  0  0  0  0
   -4.9393   21.4770  -32.0905 H   0  0  0  0  0  0  0  0  0  0  0  0
   -4.8104   20.5204  -33.6053 H   0  0  0  0  0  0  0  0  0  0  0  0
   -5.6860   22.0888  -33.6053 H   0  0  0  0  0  0  0  0  0  0  0  0
  1  2  1  0
  2  3  2  0
  3  4  1  0
  4  5  2  0
  5  6  1  0
  6  7  1  0
  7  8  2  0
  7  9  2  0
  7 10  1  0
 10 11  1  0
 11 12  1  0
 12 13  1  0
 13 14  1  0
 14 15  2  0
 15 16  1  0
 16 17  2  0
 17 18  1  0
 18 19  1  0
 19 20  1  0
 20 21  1  0
 21 22  1  0
 22 23  1  0
 17 24  1  0
 24 25  2  0
 13 26  1  0
 26 27  1  0
  6 28  2  0
 28 29  1  0
 28  2  1  0
 27 10  1  0
 25 14  1  0
 23 18  1  0
  1 30  1  0
  1 31  1  0
  1 32  1  0
  3 33  1  0
  4 34  1  0
  5 35  1  0
 10 36  1  0
 11 37  1  0
 11 38  1  0
 12 39  1  0
 12 40  1  0
 15 41  1  0
 16 42  1  0
 19 43  1  0
 19 44  1  0
 20 45  1  0
 20 46  1  0
 22 47  1  0
 22 48  1  0
 23 49  1  0
 23 50  1  0
 26 51  1  0
 26 52  1  0
 27 53  1  0
 27 54  1  0
 29 55  1  0
 29 56  1  0
 29 57  1  0
M  CHG  1  10   1
M  END
>  <UniqueID>  (3) 
3

>  <SMILES>  (3) 
Cc1cccc(S(=O)(=O)[NH+]2CCN(c3ccc(N4CCOCC4)nn3)CC2)c1C

>  <Energy>  (3) 
81.38202907822497

>  <Genealogy>  (3) 
Cc1cccc(S(=O)(=O)[NH+]2CCN(c3ccc(N4CCOCC4)nn3)CC2)c1C (protonated)
Cc1cccc(S(=O)(=O)[NH+]2CCN(c3ccc(N4CCOCC4)nn3)CC2)c1C (3D coordinates assigned)
Cc1cccc(S(=O)(=O)[NH+]2CCN(c3ccc(N4CCOCC4)nn3)CC2)c1C (nonaromatic ring conformer: 81.38202907822497 kcal/mol)

>  <smiles>  (3) 
Cc1cccc(S(=O)(=O)N2CCN(c3ccc(N4CCOCC4)nn3)CC2)c1C

>  <score_type>  (3) 
oracle

>  <origin>  (3) 
adgpu

>  <m_score__min__energy>  (3) 
-9.0899999999999999

>  <m_primary>  (3) 
energy

$$$$
3:0
     RDKit          3D

 45 48  0  0  0  0  0  0  0  0999 V2000
   -5.7420   17.9430  -34.9420 C   0  0  0  0  0  0  0  0  0  0  0  0
   -5.7780   19.3580  -34.5920 N   0  0  0  0  0  0  0  0  0  0  0  0
   -6.6500   19.5750  -33.1040 S   0  0  0  0  0  0  0  0  0  0  0  0
   -6.4180   18.3870  -32.2160 O   0  0  0  0  0  0  0  0  0  0  0  0
   -8.1200   19.6650  -33.4120 O   0  0  0  0  0  0  0  0  0  0  0  0
   -6.1140   21.0430  -32.2640 C   0  0  0  0  0  0  0  0  0  0  0  0
   -7.0790   21.8900  -31.7010 C   0  0  0  0  0  0  0  0  0  0  0  0
   -6.7050   23.0790  -31.0740 C   0  0  0  0  0  0  0  0  0  0  0  0
   -5.3560   23.4570  -31.0040 C   0  0  0  0  0  0  0  0  0  0  0  0
   -4.9770   24.7290  -30.3400 C   0  0  0  0  0  0  0  0  0  0  0  0
   -5.6170   25.1630  -29.1370 N   0  0  0  0  0  0  0  0  0  0  0  0
   -4.0620   25.4400  -30.8330 O   0  0  0  0  0  0  0  0  0  0  0  0
   -4.3830   22.6010  -31.5470 C   0  0  0  0  0  0  0  0  0  0  0  0
   -4.7470   21.3950  -32.1660 C   0  0  0  0  0  0  0  0  0  0  0  0
   -3.6770   20.5330  -32.7060 C   0  0  0  0  0  0  0  0  0  0  0  0
   -3.7670   19.1390  -32.5970 C   0  0  0  0  0  0  0  0  0  0  0  0
   -2.7540   18.3290  -33.1130 C   0  0  0  0  0  0  0  0  0  0  0  0
   -1.6410   18.9030  -33.7330 C   0  0  0  0  0  0  0  0  0  0  0  0
   -1.5280   20.3010  -33.8380 C   0  0  0  0  0  0  0  0  0  0  0  0
   -0.3520   20.9120  -34.4960 C   0  0  0  0  0  0  0  0  0  0  0  0
    0.7530   20.1990  -34.8450 N   0  0  0  0  0  0  0  0  0  0  0  0
    1.5450   21.1310  -35.3940 C   0  0  0  0  0  0  0  0  0  0  0  0
    2.8190   20.9610  -35.9300 C   0  0  0  0  0  0  0  0  0  0  0  0
    3.4640   22.0970  -36.4550 C   0  0  0  0  0  0  0  0  0  0  0  0
    2.8240   23.3580  -36.4280 C   0  0  0  0  0  0  0  0  0  0  0  0
    1.5350   23.4910  -35.8770 C   0  0  0  0  0  0  0  0  0  0  0  0
    0.9300   22.3440  -35.3670 C   0  0  0  0  0  0  0  0  0  0  0  0
   -0.2810   22.2370  -34.8020 N   0  0  0  0  0  0  0  0  0  0  0  0
   -2.5510   21.1110  -33.3110 C   0  0  0  0  0  0  0  0  0  0  0  0
   -5.7266   17.3383  -34.0232 H   0  0  0  0  0  0  0  0  0  0  0  0
   -6.6340   17.6888  -35.5334 H   0  0  0  0  0  0  0  0  0  0  0  0
   -4.8383   17.7344  -35.5334 H   0  0  0  0  0  0  0  0  0  0  0  0
   -8.1425   21.6142  -31.7542 H   0  0  0  0  0  0  0  0  0  0  0  0
   -7.4757   23.7264  -30.6302 H   0  0  0  0  0  0  0  0  0  0  0  0
   -6.2620   24.5420  -28.6020 H   0  0  0  0  0  0  0  0  0  0  0  0
   -5.3720   26.0910  -28.7230 H   0  0  0  0  0  0  0  0  0  0  0  0
   -3.3207   22.8800  -31.4861 H   0  0  0  0  0  0  0  0  0  0  0  0
   -4.6376   18.6820  -32.1038 H   0  0  0  0  0  0  0  0  0  0  0  0
   -2.8322   17.2348  -33.0313 H   0  0  0  0  0  0  0  0  0  0  0  0
   -0.8489   18.2580  -34.1412 H   0  0  0  0  0  0  0  0  0  0  0  0
    3.3043   19.9739  -35.9427 H   0  0  0  0  0  0  0  0  0  0  0  0
    4.4707   22.0034  -36.8883 H   0  0  0  0  0  0  0  0  0  0  0  0
    3.3362   24.2400  -36.8399 H   0  0  0  0  0  0  0  0  0  0  0  0
    1.0243   24.4649  -35.8501 H   0  0  0  0  0  0  0  0  0  0  0  0
   -2.4671   22.2060  -33.3739 H   0  0  0  0  0  0  0  0  0  0  0  0
  1  2  1  0
  2  3  1  0
  3  4  2  0
  3  5  2  0
  3  6  1  0
  6  7  2  0
  7  8  1  0
  8  9  2  0
  9 10  1  0
 10 11  1  0
 10 12  2  0
  9 13  1  0
 13 14  2  0
 14 15  1  0
 15 16  2  0
 16 17  1  0
 17 18  2  0
 18 19  1  0
 19 20  1  0
 20 21  2  0
 21 22  1  0
 22 23  2  0
 23 24  1  0
 24 25  2  0
 25 26  1  0
 26 27  2  0
 27 28  1  0
 19 29  2  0
 14  6  1  0
 29 15  1  0
 28 20  1  0
 27 22  1  0
  1 30  1  0
  1 31  1  0
  1 32  1  0
  7 33  1  0
  8 34  1  0
 11 35  1  0
 11 36  1  0
 13 37  1  0
 16 38  1  0
 17 39  1  0
 18 40  1  0
 23 41  1  0
 24 42  1  0
 25 43  1  0
 26 44  1  0
 29 45  1  0
M  CHG  2   2  -1  28  -1
M  END
>  <UniqueID>  (4) 
4

>  <SMILES>  (4) 
C[N-]S(=O)(=O)c1ccc(C(N)=O)cc1-c1cccc(-c2nc3ccccc3[n-]2)c1

>  <Energy>  (4) 
91.74847064237915

>  <Genealogy>  (4) 
C[N-]S(=O)(=O)c1ccc(C(N)=O)cc1-c1cccc(-c2nc3ccccc3[n-]2)c1 (protonated)
C[N-]S(=O)(=O)c1ccc(C(N)=O)cc1-c1cccc(-c2nc3ccccc3[n-]2)c1 (3D coordinates assigned)
C[N-]S(=O)(=O)c1ccc(C(N)=O)cc1-c1cccc(-c2nc3ccccc3[n-]2)c1 (optimized conformer: 91.74847064237915 kcal/mol)

>  <smiles>  (4) 
CNS(=O)(=O)c1ccc(C(N)=O)cc1-c1cccc(-c2nc3ccccc3[nH]2)c1

>  <score_type>  (4) 
oracle

>  <origin>  (4) 
adgpu

>  <m_score__min__energy>  (4) 
-10.69

>  <m_primary>  (4) 
energy

$$$$
4:0
     RDKit          3D

 41 43  0  0  0  0  0  0  0  0999 V2000
   -9.1991   22.0990  -31.5332 H   0  0  0  0  0  0  0  0  0  0  0  0
   -8.2710   21.5910  -31.8340 C   0  0  0  0  0  0  0  0  0  0  0  0
   -7.1260   22.1210  -31.3510 C   0  0  0  0  0  0  0  0  0  0  0  0
   -7.1760   22.9390  -30.2800 N   0  0  0  0  0  0  0  0  0  0  0  0
   -5.8990   23.2450  -30.0030 C   0  0  0  0  0  0  0  0  0  0  0  0
   -5.5637   23.8905  -29.1778 H   0  0  0  0  0  0  0  0  0  0  0  0
   -5.0720   22.6220  -30.9170 C   0  0  0  0  0  0  0  0  0  0  0  0
   -3.7210   22.6620  -30.9410 C   0  0  0  0  0  0  0  0  0  0  0  0
   -3.2130   22.0403  -31.6929 H   0  0  0  0  0  0  0  0  0  0  0  0
   -2.8670   23.4700  -30.0430 C   0  0  0  0  0  0  0  0  0  0  0  0
   -1.9110   22.9930  -29.2240 N   0  0  0  0  0  0  0  0  0  0  0  0
   -1.4700   24.0940  -28.5790 C   0  0  0  0  0  0  0  0  0  0  0  0
   -0.5530   24.0530  -27.7180 O   0  0  0  0  0  0  0  0  0  0  0  0
   -2.0920   25.2400  -28.9250 N   0  0  0  0  0  0  0  0  0  0  0  0
   -2.9770   24.8260  -29.8460 C   0  0  0  0  0  0  0  0  0  0  0  0
   -3.8670   25.6730  -30.4950 O   0  0  0  0  0  0  0  0  0  0  0  0
   -5.8440   21.9200  -31.7900 N   0  0  0  0  0  0  0  0  0  0  0  0
   -5.3870   21.3790  -33.0860 C   0  0  0  0  0  0  0  0  0  0  0  0
   -6.2170   21.4411  -33.8051 H   0  0  0  0  0  0  0  0  0  0  0  0
   -4.5222   21.9775  -33.4083 H   0  0  0  0  0  0  0  0  0  0  0  0
   -4.9340   19.9360  -32.9930 C   0  0  0  0  0  0  0  0  0  0  0  0
   -5.8520   18.9230  -32.6450 C   0  0  0  0  0  0  0  0  0  0  0  0
   -6.9053   19.1818  -32.4617 H   0  0  0  0  0  0  0  0  0  0  0  0
   -5.4360   17.5940  -32.5310 C   0  0  0  0  0  0  0  0  0  0  0  0
   -6.1663   16.8100  -32.2820 H   0  0  0  0  0  0  0  0  0  0  0  0
   -4.0980   17.2590  -32.7320 C   0  0  0  0  0  0  0  0  0  0  0  0
   -3.7756   16.2103  -32.6533 H   0  0  0  0  0  0  0  0  0  0  0  0
   -3.1680   18.2540  -33.0330 C   0  0  0  0  0  0  0  0  0  0  0  0
   -2.1108   17.9876  -33.1794 H   0  0  0  0  0  0  0  0  0  0  0  0
   -3.5710   19.5890  -33.1500 C   0  0  0  0  0  0  0  0  0  0  0  0
   -2.3290   20.7960  -33.4760 Cl  0  0  0  0  0  0  0  0  0  0  0  0
   -8.4390   20.3930  -32.7320 C   0  0  0  0  0  0  0  0  0  0  0  0
   -7.4598   19.9118  -32.8719 H   0  0  0  0  0  0  0  0  0  0  0  0
   -8.8483   20.7383  -33.6929 H   0  0  0  0  0  0  0  0  0  0  0  0
   -9.4160   19.3700  -32.1340 C   0  0  0  0  0  0  0  0  0  0  0  0
   -9.9012   18.8218  -32.9550 H   0  0  0  0  0  0  0  0  0  0  0  0
  -10.1523   19.9198  -31.5294 H   0  0  0  0  0  0  0  0  0  0  0  0
   -8.7140   18.3670  -31.2200 C   0  0  0  0  0  0  0  0  0  0  0  0
   -8.9013   18.6346  -30.1696 H   0  0  0  0  0  0  0  0  0  0  0  0
   -9.1035   17.3571  -31.4162 H   0  0  0  0  0  0  0  0  0  0  0  0
   -7.6318   18.3871  -31.4162 H   0  0  0  0  0  0  0  0  0  0  0  0
  1  2  1  0
  2  3  2  3
  3  4  1  0
  4  5  2  0
  5  6  1  0
  5  7  1  0
  7  8  2  0
  8  9  1  0
  8 10  1  0
 10 11  1  0
 11 12  1  0
 12 13  2  0
 12 14  1  0
 14 15  1  0
 15 16  1  0
  7 17  1  0
 17 18  1  0
 18 19  1  0
 18 20  1  0
 18 21  1  0
 21 22  2  0
 22 23  1  0
 22 24  1  0
 24 25  1  0
 24 26  2  0
 26 27  1  0
 26 28  1  0
 28 29  1  0
 28 30  2  0
 30 31  1  0
  2 32  1  0
 32 33  1  0
 32 34  1  0
 32 35  1  0
 35 36  1  0
 35 37  1  0
 35 38  1  0
 38 39  1  0
 38 40  1  0
 38 41  1  0
 17  3  1  0
 30 21  1  0
 15 10  2  0
M  CHG  3  11  -1  14  -1  16  -1
M  END
>  <UniqueID>  (5) 
5

>  <SMILES>  (5) 
CCCC=c1nc/c(=C\c2[n-]c(=O)[n-]c2[O-])n1Cc1ccccc1Cl

>  <Energy>  (5) 
114.60083608065956

>  <Genealogy>  (5) 
CCCC=c1ncc(=Cc2[n-]c(=O)[n-]c2[O-])n1Cc1ccccc1Cl (protonated)
CCCC=c1nc/c(=C\c2[n-]c(=O)[n-]c2[O-])n1Cc1ccccc1Cl (cis-trans isomerization)
CCCC=c1nc/c(=C\c2[n-]c(=O)[n-]c2[O-])n1Cc1ccccc1Cl (3D coordinates assigned)
CCCC=c1nc/c(=C\c2[n-]c(=O)[n-]c2[O-])n1Cc1ccccc1Cl (optimized conformer: 114.60083608065956 kcal/mol)

>  <smiles>  (5) 
CCCC=c1ncc(=Cc2[nH]c(=O)[nH]c2O)n1Cc1ccccc1Cl

>  <score_type>  (5) 
oracle

>  <origin>  (5) 
adgpu

>  <m_score__min__energy>  (5) 
-14.09

>  <m_primary>  (5) 
energy

$$$$
5:0
     RDKit          3D

 49 51  0  0  0  0  0  0  0  0999 V2000
    3.4390   18.3770  -34.7230 C   0  0  0  0  0  0  0  0  0  0  0  0
    2.4120   19.4060  -34.5200 N   0  0  0  0  0  0  0  0  0  0  0  0
    2.8970   20.7040  -35.0070 C   0  0  0  0  0  0  0  0  0  0  0  0
    0.9660   18.9660  -35.3940 S   0  0  0  0  0  0  0  0  0  0  0  0
    0.8260   17.4690  -35.4440 O   0  0  0  0  0  0  0  0  0  0  0  0
    1.0430   19.4870  -36.8020 O   0  0  0  0  0  0  0  0  0  0  0  0
   -0.4420   19.6770  -34.6090 C   0  0  0  0  0  0  0  0  0  0  0  0
   -0.4230   21.0080  -34.1730 C   0  0  0  0  0  0  0  0  0  0  0  0
   -1.5520   21.5660  -33.5650 C   0  0  0  0  0  0  0  0  0  0  0  0
   -2.7210   20.8070  -33.4030 C   0  0  0  0  0  0  0  0  0  0  0  0
   -3.8610   21.3970  -32.7560 N   0  0  0  0  0  0  0  0  0  0  0  0
   -3.7760   22.2480  -31.6010 C   0  0  0  0  0  0  0  0  0  0  0  0
   -2.7280   22.2470  -30.9010 O   0  0  0  0  0  0  0  0  0  0  0  0
   -4.9280   23.1030  -31.2170 C   0  0  0  0  0  0  0  0  0  0  0  0
   -6.2330   22.6440  -31.4820 C   0  0  0  0  0  0  0  0  0  0  0  0
   -7.3460   23.3980  -31.1100 C   0  0  0  0  0  0  0  0  0  0  0  0
   -7.1770   24.6220  -30.4650 C   0  0  0  0  0  0  0  0  0  0  0  0
   -5.8950   25.0970  -30.1930 C   0  0  0  0  0  0  0  0  0  0  0  0
   -4.7630   24.3510  -30.5630 C   0  0  0  0  0  0  0  0  0  0  0  0
   -3.4570   24.8700  -30.2640 N   0  0  0  0  0  0  0  0  0  0  0  0
   -2.7300   24.5320  -29.0690 C   0  0  0  0  0  0  0  0  0  0  0  0
   -3.1510   23.4370  -28.2980 C   0  0  0  0  0  0  0  0  0  0  0  0
   -2.4650   23.0840  -27.1330 C   0  0  0  0  0  0  0  0  0  0  0  0
   -1.3580   23.8270  -26.7200 C   0  0  0  0  0  0  0  0  0  0  0  0
   -0.9410   24.9320  -27.4640 C   0  0  0  0  0  0  0  0  0  0  0  0
   -1.6250   25.2960  -28.6300 C   0  0  0  0  0  0  0  0  0  0  0  0
   -1.2130   26.4260  -29.3280 O   0  0  0  0  0  0  0  0  0  0  0  0
   -2.7300   19.4660  -33.8280 C   0  0  0  0  0  0  0  0  0  0  0  0
   -1.6000   18.9090  -34.4330 C   0  0  0  0  0  0  0  0  0  0  0  0
    3.7968   18.0185  -33.7466 H   0  0  0  0  0  0  0  0  0  0  0  0
    3.0092   17.5363  -35.2873 H   0  0  0  0  0  0  0  0  0  0  0  0
    4.2806   18.8052  -35.2873 H   0  0  0  0  0  0  0  0  0  0  0  0
    3.1384   21.3502  -34.1502 H   0  0  0  0  0  0  0  0  0  0  0  0
    3.7992   20.5526  -35.6178 H   0  0  0  0  0  0  0  0  0  0  0  0
    2.1166   21.1813  -35.6178 H   0  0  0  0  0  0  0  0  0  0  0  0
    0.4832   21.6165  -34.3093 H   0  0  0  0  0  0  0  0  0  0  0  0
   -1.5234   22.6072  -33.2113 H   0  0  0  0  0  0  0  0  0  0  0  0
   -4.8130   21.1060  -33.0800 H   0  0  0  0  0  0  0  0  0  0  0  0
   -6.3763   21.6783  -31.9889 H   0  0  0  0  0  0  0  0  0  0  0  0
   -8.3585   23.0261  -31.3260 H   0  0  0  0  0  0  0  0  0  0  0  0
   -8.0562   25.2138  -30.1703 H   0  0  0  0  0  0  0  0  0  0  0  0
   -5.7683   26.0641  -29.6844 H   0  0  0  0  0  0  0  0  0  0  0  0
   -3.1180   25.6770  -30.8330 H   0  0  0  0  0  0  0  0  0  0  0  0
   -4.0277   22.8523  -28.6134 H   0  0  0  0  0  0  0  0  0  0  0  0
   -2.7979   22.2191  -26.5404 H   0  0  0  0  0  0  0  0  0  0  0  0
   -0.8138   23.5416  -25.8076 H   0  0  0  0  0  0  0  0  0  0  0  0
   -0.0716   25.5190  -27.1329 H   0  0  0  0  0  0  0  0  0  0  0  0
   -3.6314   18.8524  -33.6833 H   0  0  0  0  0  0  0  0  0  0  0  0
   -1.6201   17.8629  -34.7724 H   0  0  0  0  0  0  0  0  0  0  0  0
  1  2  1  0
  2  3  1  0
  2  4  1  0
  4  5  2  0
  4  6  2  0
  4  7  1  0
  7  8  2  0
  8  9  1  0
  9 10  2  0
 10 11  1  0
 11 12  1  0
 12 13  2  0
 12 14  1  0
 14 15  2  0
 15 16  1  0
 16 17  2  0
 17 18  1  0
 18 19  2  0
 19 20  1  0
 20 21  1  0
 21 22  2  0
 22 23  1  0
 23 24  2  0
 24 25  1  0
 25 26  2  0
 26 27  1  0
 10 28  1  0
 28 29  2  0
 29  7  1  0
 19 14  1  0
 26 21  1  0
  1 30  1  0
  1 31  1  0
  1 32  1  0
  3 33  1  0
  3 34  1  0
  3 35  1  0
  8 36  1  0
  9 37  1  0
 11 38  1  0
 15 39  1  0
 16 40  1  0
 17 41  1  0
 18 42  1  0
 20 43  1  0
 22 44  1  0
 23 45  1  0
 24 46  1  0
 25 47  1  0
 28 48  1  0
 29 49  1  0
M  CHG  1  27  -1
M  END
>  <UniqueID>  (6) 
6

>  <SMILES>  (6) 
CN(C)S(=O)(=O)c1ccc(NC(=O)c2ccccc2Nc2ccccc2[O-])cc1

>  <Energy>  (6) 
65.75267018348056

>  <Genealogy>  (6) 
CN(C)S(=O)(=O)c1ccc(NC(=O)c2ccccc2Nc2ccccc2[O-])cc1 (protonated)
CN(C)S(=O)(=O)c1ccc(NC(=O)c2ccccc2Nc2ccccc2[O-])cc1 (3D coordinates assigned)
CN(C)S(=O)(=O)c1ccc(NC(=O)c2ccccc2Nc2ccccc2[O-])cc1 (optimized conformer: 65.75267018348056 kcal/mol)

>  <smiles>  (6) 
CN(C)S(=O)(=O)c1ccc(NC(=O)c2ccccc2Nc2ccccc2O)cc1

>  <score_type>  (6) 
oracle

>  <origin>  (6) 
adgpu

>  <m_score__min__energy>  (6) 
-11.16

>  <m_primary>  (6) 
energy

$$$$
6:0
     RDKit          3D

 58 61  0  0  0  0  0  0  0  0999 V2000
   -0.1420   21.9210  -26.4840 C   0  0  0  0  0  0  0  0  0  0  0  0
   -1.2790   22.5360  -27.2570 C   0  0  0  0  0  0  0  0  0  0  0  0
   -2.4130   21.7430  -27.5030 C   0  0  0  0  0  0  0  0  0  0  0  0
   -3.5080   22.2560  -28.1910 C   0  0  0  0  0  0  0  0  0  0  0  0
   -3.5110   23.5780  -28.6310 C   0  0  0  0  0  0  0  0  0  0  0  0
   -4.6610   24.0590  -29.3390 N   0  0  0  0  0  0  0  0  0  0  0  0
   -4.6500   24.6230  -30.6570 C   0  0  0  0  0  0  0  0  0  0  0  0
   -4.6020   25.8710  -30.8140 O   0  0  0  0  0  0  0  0  0  0  0  0
   -4.6820   23.7780  -31.8120 N   0  0  0  0  0  0  0  0  0  0  0  0
   -5.4070   22.5460  -31.9420 C   0  0  0  0  0  0  0  0  0  0  0  0
   -4.7170   21.3380  -31.7850 C   0  0  0  0  0  0  0  0  0  0  0  0
   -5.3830   20.1180  -31.9230 C   0  0  0  0  0  0  0  0  0  0  0  0
   -6.7470   20.0900  -32.2440 C   0  0  0  0  0  0  0  0  0  0  0  0
   -7.5870   18.5480  -32.4360 S   0  0  0  0  0  0  0  0  0  0  0  0
   -7.5340   17.7930  -31.1360 O   0  0  0  0  0  0  0  0  0  0  0  0
   -9.0310   18.8080  -32.7640 O   0  0  0  0  0  0  0  0  0  0  0  0
   -6.8710   17.5730  -33.6990 N   0  0  0  0  0  0  0  0  0  0  0  0
   -6.1510   16.4040  -33.1470 C   0  0  0  0  0  0  0  0  0  0  0  0
   -4.6220   16.5890  -33.2030 C   0  0  0  0  0  0  0  0  0  0  0  0
   -4.1320   16.8080  -34.5170 O   0  0  0  0  0  0  0  0  0  0  0  0
   -5.0260   17.5370  -35.3510 C   0  0  0  0  0  0  0  0  0  0  0  0
   -6.0320   18.4070  -34.5820 C   0  0  0  0  0  0  0  0  0  0  0  0
   -7.4360   21.2970  -32.4230 C   0  0  0  0  0  0  0  0  0  0  0  0
   -6.7710   22.5180  -32.2840 C   0  0  0  0  0  0  0  0  0  0  0  0
   -2.3690   24.3780  -28.4340 C   0  0  0  0  0  0  0  0  0  0  0  0
   -2.3320   25.6630  -28.9690 O   0  0  0  0  0  0  0  0  0  0  0  0
   -1.2520   23.8770  -27.7310 C   0  0  0  0  0  0  0  0  0  0  0  0
    0.1470   24.9620  -27.5180 S   0  0  0  0  0  0  0  0  0  0  0  0
   -0.0750   26.3200  -28.1210 O   0  0  0  0  0  0  0  0  0  0  0  0
    1.3410   24.3460  -28.1920 O   0  0  0  0  0  0  0  0  0  0  0  0
    0.4940   25.1310  -25.7640 C   0  0  0  0  0  0  0  0  0  0  0  0
   -0.6830   24.7560  -24.8700 C   0  0  0  0  0  0  0  0  0  0  0  0
   -0.7670   26.1930  -24.3790 C   0  0  0  0  0  0  0  0  0  0  0  0
    0.4100   26.5720  -25.2680 C   0  0  0  0  0  0  0  0  0  0  0  0
   -0.3334   22.0245  -25.4057 H   0  0  0  0  0  0  0  0  0  0  0  0
   -0.0584   20.8547  -26.7409 H   0  0  0  0  0  0  0  0  0  0  0  0
    0.7962   22.4347  -26.7409 H   0  0  0  0  0  0  0  0  0  0  0  0
   -2.4351   20.7025  -27.1467 H   0  0  0  0  0  0  0  0  0  0  0  0
   -4.3782   21.6129  -28.3891 H   0  0  0  0  0  0  0  0  0  0  0  0
   -3.6422   21.3497  -31.5512 H   0  0  0  0  0  0  0  0  0  0  0  0
   -4.8347   19.1753  -31.7791 H   0  0  0  0  0  0  0  0  0  0  0  0
   -6.4536   16.2629  -32.0989 H   0  0  0  0  0  0  0  0  0  0  0  0
   -6.4098   15.5261  -33.7572 H   0  0  0  0  0  0  0  0  0  0  0  0
   -4.3518   17.4547  -32.5805 H   0  0  0  0  0  0  0  0  0  0  0  0
   -4.1668   15.6573  -32.8360 H   0  0  0  0  0  0  0  0  0  0  0  0
   -4.4318   18.1921  -36.0051 H   0  0  0  0  0  0  0  0  0  0  0  0
   -5.6124   16.7950  -35.9127 H   0  0  0  0  0  0  0  0  0  0  0  0
   -5.4839   19.1408  -33.9727 H   0  0  0  0  0  0  0  0  0  0  0  0
   -6.6811   18.9223  -35.3053 H   0  0  0  0  0  0  0  0  0  0  0  0
   -8.5068   21.2832  -32.6744 H   0  0  0  0  0  0  0  0  0  0  0  0
   -7.3160   23.4603  -32.4425 H   0  0  0  0  0  0  0  0  0  0  0  0
    1.4391   24.5714  -25.7034 H   0  0  0  0  0  0  0  0  0  0  0  0
   -1.5736   24.4161  -25.4189 H   0  0  0  0  0  0  0  0  0  0  0  0
   -0.5955   23.9266  -24.1528 H   0  0  0  0  0  0  0  0  0  0  0  0
   -1.7072   26.7013  -24.6393 H   0  0  0  0  0  0  0  0  0  0  0  0
   -0.7419   26.4134  -23.3016 H   0  0  0  0  0  0  0  0  0  0  0  0
    0.1643   27.3037  -26.0517 H   0  0  0  0  0  0  0  0  0  0  0  0
    1.2945   27.0680  -24.8417 H   0  0  0  0  0  0  0  0  0  0  0  0
  1  2  1  0
  2  3  2  0
  3  4  1  0
  4  5  2  0
  5  6  1  0
  6  7  1  0
  7  8  2  0
  7  9  1  0
  9 10  1  0
 10 11  2  0
 11 12  1  0
 12 13  2  0
 13 14  1  0
 14 15  2  0
 14 16  2  0
 14 17  1  0
 17 18  1  0
 18 19  1  0
 19 20  1  0
 20 21  1  0
 21 22  1  0
 13 23  1  0
 23 24  2  0
  5 25  1  0
 25 26  1  0
 25 27  2  0
 27 28  1  0
 28 29  2  0
 28 30  2  0
 28 31  1  0
 31 32  1  0
 32 33  1  0
 33 34  1  0
 27  2  1  0
 34 31  1  0
 24 10  1  0
 22 17  1  0
  1 35  1  0
  1 36  1  0
  1 37  1  0
  3 38  1  0
  4 39  1  0
 11 40  1  0
 12 41  1  0
 18 42  1  0
 18 43  1  0
 19 44  1  0
 19 45  1  0
 21 46  1  0
 21 47  1  0
 22 48  1  0
 22 49  1  0
 23 50  1  0
 24 51  1  0
 31 52  1  0
 32 53  1  0
 32 54  1  0
 33 55  1  0
 33 56  1  0
 34 57  1  0
 34 58  1  0
M  CHG  3   6  -1   9  -1  26  -1
M  END
>  <UniqueID>  (7) 
7

>  <SMILES>  (7) 
Cc1ccc([N-]C(=O)[N-]c2ccc(S(=O)(=O)N3CCOCC3)cc2)c([O-])c1S(=O)(=O)C1CCC1

>  <Energy>  (7) 
142.61355033975985

>  <Genealogy>  (7) 
Cc1ccc([N-]C(=O)[N-]c2ccc(S(=O)(=O)N3CCOCC3)cc2)c([O-])c1S(=O)(=O)C1CCC1 (protonated)
Cc1ccc([N-]C(=O)[N-]c2ccc(S(=O)(=O)N3CCOCC3)cc2)c([O-])c1S(=O)(=O)C1CCC1 (3D coordinates assigned)
Cc1ccc([N-]C(=O)[N-]c2ccc(S(=O)(=O)N3CCOCC3)cc2)c([O-])c1S(=O)(=O)C1CCC1 (nonaromatic ring conformer: 142.61355033975985 kcal/mol)

>  <smiles>  (7) 
Cc1ccc(NC(=O)Nc2ccc(S(=O)(=O)N3CCOCC3)cc2)c(O)c1S(=O)(=O)C1CCC1

>  <score_type>  (7) 
oracle

>  <origin>  (7) 
adgpu

>  <m_score__min__energy>  (7) 
-17.149999999999999

>  <m_primary>  (7) 
energy

$$$$
7:0
     RDKit          3D

 64 68  0  0  1  0  0  0  0  0999 V2000
   -2.7050   21.0840  -32.0850 C   0  0  0  0  0  0  0  0  0  0  0  0
   -3.5930   21.0650  -33.1870 O   0  0  0  0  0  0  0  0  0  0  0  0
   -4.9400   20.8190  -33.0370 C   0  0  0  0  0  0  0  0  0  0  0  0
   -5.7750   21.6410  -32.2550 C   0  0  0  0  0  0  0  0  0  0  0  0
   -7.0990   21.3330  -32.1520 C   0  0  0  0  0  0  0  0  0  0  0  0
   -7.9220   22.1250  -31.3950 C   0  0  0  0  0  0  0  0  0  0  0  0
   -7.5290   23.0590  -30.7270 N   0  0  0  0  0  0  0  0  0  0  0  0
   -6.3060   23.6030  -30.4930 C   0  0  0  0  0  0  0  0  0  0  0  0
   -5.8250   24.7810  -31.1240 C   0  0  0  0  0  0  0  0  0  0  0  0
   -4.6150   25.3000  -30.7140 C   0  0  0  0  0  0  0  0  0  0  0  0
   -3.8450   24.7330  -29.7210 C   0  0  0  0  0  0  0  0  0  0  0  0
   -2.6230   25.2620  -29.3100 O   0  0  0  0  0  0  0  0  0  0  0  0
   -1.5190   24.3780  -28.9850 C   0  0  0  0  0  0  0  0  0  0  0  0
   -1.4990   24.2040  -27.5510 C   0  0  0  0  0  0  0  0  0  0  0  0
   -1.3150   23.1390  -26.8350 C   0  0  0  0  0  0  0  0  0  0  0  0
   -1.0580   21.7860  -27.2370 C   0  0  0  0  0  0  0  0  0  0  0  0
   -0.4540   21.3250  -28.3650 C   0  0  0  0  0  0  0  0  0  0  0  0
   -0.3830   19.9750  -28.7180 C   0  0  0  0  0  0  0  0  0  0  0  0
   -0.9400   19.0150  -27.9100 C   0  0  0  0  0  0  0  0  0  0  0  0
   -1.5550   19.4760  -26.7580 C   0  0  0  0  0  0  0  0  0  0  0  0
   -1.6260   20.7980  -26.4120 C   0  0  0  0  0  0  0  0  0  0  0  0
   -4.3160   23.5730  -29.0990 C   0  0  0  0  0  0  0  0  0  0  0  0
   -5.5050   23.0250  -29.4700 C   0  0  0  0  0  0  0  0  0  0  0  0
   -9.2490   21.7880  -31.3270 N   0  0  0  0  0  0  0  0  0  0  0  0
   -9.7620   20.7270  -31.9580 C   0  0  0  0  0  0  0  0  0  0  0  0
   -8.9750   19.9370  -32.7000 N   0  0  0  0  0  0  0  0  0  0  0  0
   -7.6700   20.2610  -32.7750 C   0  0  0  0  0  0  0  0  0  0  0  0
   -6.8790   19.4420  -33.5450 C   0  0  0  0  0  0  0  0  0  0  0  0
   -5.5500   19.7610  -33.6380 C   0  0  0  0  0  0  0  0  0  0  0  0
   -4.7480   18.9370  -34.4120 O   0  0  0  0  0  0  0  0  0  0  0  0
   -5.3330   17.7490  -34.9560 C   0  0  0  0  0  0  0  0  0  0  0  0
   -4.8420   16.6310  -34.1380 C   0  0  0  0  0  0  0  0  0  0  0  0
   -3.9170   15.7080  -34.5720 C   0  0  0  0  0  0  0  0  0  0  0  0
   -3.5340   14.7030  -33.7120 C   0  0  0  0  0  0  0  0  0  0  0  0
   -4.0500   14.5990  -32.4370 C   0  0  0  0  0  0  0  0  0  0  0  0
   -4.9750   15.5120  -31.9840 C   0  0  0  0  0  0  0  0  0  0  0  0
   -5.3580   16.5170  -32.8470 C   0  0  0  0  0  0  0  0  0  0  0  0
   -3.2822   21.0716  -31.1487 H   0  0  0  0  0  0  0  0  0  0  0  0
   -2.0521   20.1996  -32.1249 H   0  0  0  0  0  0  0  0  0  0  0  0
   -2.0905   21.9955  -32.1249 H   0  0  0  0  0  0  0  0  0  0  0  0
   -5.3645   22.5190  -31.7348 H   0  0  0  0  0  0  0  0  0  0  0  0
   -6.4046   25.2684  -31.9218 H   0  0  0  0  0  0  0  0  0  0  0  0
   -4.2454   26.2128  -31.2042 H   0  0  0  0  0  0  0  0  0  0  0  0
   -1.6613   23.4050  -29.4779 H   0  0  0  0  0  0  0  0  0  0  0  0
   -0.5680   24.8076  -29.3329 H   0  0  0  0  0  0  0  0  0  0  0  0
   -1.6672   25.1245  -26.9728 H   0  0  0  0  0  0  0  0  0  0  0  0
   -1.3636   23.2978  -25.7476 H   0  0  0  0  0  0  0  0  0  0  0  0
    0.0070   22.0602  -29.0410 H   0  0  0  0  0  0  0  0  0  0  0  0
    0.1224   19.6795  -29.6493 H   0  0  0  0  0  0  0  0  0  0  0  0
   -0.9002   17.9450  -28.1622 H   0  0  0  0  0  0  0  0  0  0  0  0
   -2.0123   18.7377  -26.0829 H   0  0  0  0  0  0  0  0  0  0  0  0
   -2.1319   21.0910  -25.4802 H   0  0  0  0  0  0  0  0  0  0  0  0
   -3.7211   23.0998  -28.3039 H   0  0  0  0  0  0  0  0  0  0  0  0
   -5.8553   22.1121  -28.9660 H   0  0  0  0  0  0  0  0  0  0  0  0
   -9.9190   22.3620  -30.7640 H   0  0  0  0  0  0  0  0  0  0  0  0
  -10.8349   20.5018  -31.8675 H   0  0  0  0  0  0  0  0  0  0  0  0
   -7.2958   18.5668  -34.0649 H   0  0  0  0  0  0  0  0  0  0  0  0
   -6.4302   17.8064  -34.9021 H   0  0  0  0  0  0  0  0  0  0  0  0
   -5.0597   17.6188  -36.0135 H   0  0  0  0  0  0  0  0  0  0  0  0
   -3.4927   15.7721  -35.5848 H   0  0  0  0  0  0  0  0  0  0  0  0
   -2.7954   13.9619  -34.0515 H   0  0  0  0  0  0  0  0  0  0  0  0
   -3.7204   13.7818  -31.7786 H   0  0  0  0  0  0  0  0  0  0  0  0
   -5.3940   15.4424  -30.9693 H   0  0  0  0  0  0  0  0  0  0  0  0
   -6.0976   17.2559  -32.5049 H   0  0  0  0  0  0  0  0  0  0  0  0
  1  2  1  0
  2  3  1  0
  3  4  2  0
  4  5  1  0
  5  6  1  0
  6  7  2  0
  7  8  1  0
  8  9  2  0
  9 10  1  0
 10 11  2  0
 11 12  1  0
 12 13  1  0
 13 14  1  0
 14 15  2  0
 15 16  1  0
 16 17  2  0
 17 18  1  0
 18 19  2  0
 19 20  1  0
 20 21  2  0
 11 22  1  0
 22 23  2  0
  6 24  1  0
 24 25  1  0
 25 26  2  0
 26 27  1  0
 27 28  1  0
 28 29  2  0
 29 30  1  0
 30 31  1  0
 31 32  1  0
 32 33  2  0
 33 34  1  0
 34 35  2  0
 35 36  1  0
 36 37  2  0
 29  3  1  0
 37 32  1  0
 27  5  2  0
 23  8  1  0
 21 16  1  0
  1 38  1  0
  1 39  1  0
  1 40  1  0
  4 41  1  0
  9 42  1  0
 10 43  1  0
 13 44  1  0
 13 45  1  0
 14 46  1  0
 15 47  1  0
 17 48  1  0
 18 49  1  0
 19 50  1  0
 20 51  1  0
 21 52  1  0
 22 53  1  0
 23 54  1  0
 24 55  1  0
 25 56  1  0
 28 57  1  0
 31 58  1  0
 31 59  1  0
 33 60  1  0
 34 61  1  0
 35 62  1  0
 36 63  1  0
 37 64  1  0
M  END
>  <smiles>  (8) 
COc1cc2c(=Nc3ccc(OCC=Cc4ccccc4)cc3)[nH]cnc2cc1OCc1ccccc1

>  <score_type>  (8) 
oracle

>  <origin>  (8) 
adgpu

>  <m_score__min__energy>  (8) 
-10.640000000000001

>  <m_primary>  (8) 
energy

$$$$
8:0
     RDKit          3D

 41 44  0  0  0  0  0  0  0  0999 V2000
   -9.4610   23.3940  -32.3310 C   0  0  0  0  0  0  0  0  0  0  0  0
   -9.3930   22.1480  -31.4500 C   0  0  0  0  0  0  0  0  0  0  0  0
   -8.3200   21.1880  -31.8980 C   0  0  0  0  0  0  0  0  0  0  0  0
   -8.5370   19.8540  -32.0220 N   0  0  0  0  0  0  0  0  0  0  0  0
   -7.3810   19.3940  -32.5280 C   0  0  0  0  0  0  0  0  0  0  0  0
   -6.4990   20.4150  -32.7230 C   0  0  0  0  0  0  0  0  0  0  0  0
   -7.0830   21.5680  -32.3250 N   0  0  0  0  0  0  0  0  0  0  0  0
   -6.5740   22.9400  -32.4320 C   0  0  0  0  0  0  0  0  0  0  0  0
   -5.9100   23.3580  -31.1460 C   0  0  0  0  0  0  0  0  0  0  0  0
   -6.2730   24.5600  -30.5140 C   0  0  0  0  0  0  0  0  0  0  0  0
   -5.6420   24.9530  -29.3300 C   0  0  0  0  0  0  0  0  0  0  0  0
   -4.6430   24.1540  -28.7650 C   0  0  0  0  0  0  0  0  0  0  0  0
   -4.0230   24.5590  -27.5860 O   0  0  0  0  0  0  0  0  0  0  0  0
   -4.2780   22.9540  -29.3900 C   0  0  0  0  0  0  0  0  0  0  0  0
   -4.9070   22.5590  -30.5750 C   0  0  0  0  0  0  0  0  0  0  0  0
   -5.1650   20.1760  -33.3120 C   0  0  0  0  0  0  0  0  0  0  0  0
   -4.3480   21.1170  -33.4910 O   0  0  0  0  0  0  0  0  0  0  0  0
   -4.8090   18.7780  -33.6890 C   0  0  0  0  0  0  0  0  0  0  0  0
   -3.5540   18.4890  -34.2550 C   0  0  0  0  0  0  0  0  0  0  0  0
   -3.2220   17.1800  -34.6080 C   0  0  0  0  0  0  0  0  0  0  0  0
   -4.1350   16.1430  -34.4010 C   0  0  0  0  0  0  0  0  0  0  0  0
   -5.3860   16.4080  -33.8400 C   0  0  0  0  0  0  0  0  0  0  0  0
   -5.7380   17.7200  -33.4800 C   0  0  0  0  0  0  0  0  0  0  0  0
   -7.0710   18.0070  -32.8850 C   0  0  0  0  0  0  0  0  0  0  0  0
   -7.9180   17.0940  -32.6900 O   0  0  0  0  0  0  0  0  0  0  0  0
   -9.5099   24.2903  -31.6953 H   0  0  0  0  0  0  0  0  0  0  0  0
   -8.5642   23.4434  -32.9661 H   0  0  0  0  0  0  0  0  0  0  0  0
  -10.3578   23.3455  -32.9661 H   0  0  0  0  0  0  0  0  0  0  0  0
   -9.1816   22.4572  -30.4157 H   0  0  0  0  0  0  0  0  0  0  0  0
  -10.3605   21.6299  -31.5247 H   0  0  0  0  0  0  0  0  0  0  0  0
   -5.8415   22.9916  -33.2510 H   0  0  0  0  0  0  0  0  0  0  0  0
   -7.4168   23.6175  -32.6339 H   0  0  0  0  0  0  0  0  0  0  0  0
   -7.0572   25.1943  -30.9531 H   0  0  0  0  0  0  0  0  0  0  0  0
   -5.9325   25.8945  -28.8409 H   0  0  0  0  0  0  0  0  0  0  0  0
   -4.2070   25.4670  -27.1770 H   0  0  0  0  0  0  0  0  0  0  0  0
   -3.4947   22.3211  -28.9474 H   0  0  0  0  0  0  0  0  0  0  0  0
   -4.6142   21.6172  -31.0622 H   0  0  0  0  0  0  0  0  0  0  0  0
   -2.8295   19.3000  -34.4205 H   0  0  0  0  0  0  0  0  0  0  0  0
   -2.2384   16.9642  -35.0506 H   0  0  0  0  0  0  0  0  0  0  0  0
   -3.8673   15.1135  -34.6811 H   0  0  0  0  0  0  0  0  0  0  0  0
   -6.0991   15.5861  -33.6791 H   0  0  0  0  0  0  0  0  0  0  0  0
  1  2  1  0
  2  3  1  0
  3  4  2  0
  4  5  1  0
  5  6  2  0
  6  7  1  0
  7  8  1  0
  8  9  1  0
  9 10  2  0
 10 11  1  0
 11 12  2  0
 12 13  1  0
 12 14  1  0
 14 15  2  0
  6 16  1  0
 16 17  2  0
 16 18  1  0
 18 19  2  0
 19 20  1  0
 20 21  2  0
 21 22  1  0
 22 23  2  0
 23 24  1  0
 24 25  2  0
  7  3  1  0
 15  9  1  0
 23 18  1  0
 24  5  1  0
  1 26  1  0
  1 27  1  0
  1 28  1  0
  2 29  1  0
  2 30  1  0
  8 31  1  0
  8 32  1  0
 10 33  1  0
 11 34  1  0
 13 35  1  0
 14 36  1  0
 15 37  1  0
 19 38  1  0
 20 39  1  0
 21 40  1  0
 22 41  1  0
M  END
>  <UniqueID>  (9) 
8

>  <SMILES>  (9) 
CCc1nc2c(n1Cc1ccc(O)cc1)C(=O)c1ccccc1C2=O

>  <Energy>  (9) 
78.76843337206472

>  <Genealogy>  (9) 
CCc1nc2c(n1Cc1ccc(O)cc1)C(=O)c1ccccc1C2=O (3D coordinates assigned)
CCc1nc2c(n1Cc1ccc(O)cc1)C(=O)c1ccccc1C2=O (nonaromatic ring conformer: 78.76843337206472 kcal/mol)

>  <smiles>  (9) 
CCc1nc2c(n1Cc1ccc(O)cc1)C(=O)c1ccccc1C2=O

>  <score_type>  (9) 
oracle

>  <origin>  (9) 
adgpu

>  <m_score__min__energy>  (9) 
-8.7799999999999994

>  <m_primary>  (9) 
energy

$$$$
9:0
     RDKit          3D

 50 52  0  0  0  0  0  0  0  0999 V2000
   -3.6470   17.0650  -34.1710 C   0  0  0  0  0  0  0  0  0  0  0  0
   -4.9180   17.7030  -33.6860 C   0  0  0  0  0  0  0  0  0  0  0  0
   -5.6510   17.1070  -32.6500 C   0  0  0  0  0  0  0  0  0  0  0  0
   -6.8270   17.7040  -32.1840 C   0  0  0  0  0  0  0  0  0  0  0  0
   -7.2840   18.9020  -32.7510 C   0  0  0  0  0  0  0  0  0  0  0  0
   -8.7760   19.6270  -32.1560 S   0  0  0  0  0  0  0  0  0  0  0  0
   -9.0920   19.1060  -30.7810 O   0  0  0  0  0  0  0  0  0  0  0  0
   -9.9040   19.2560  -33.0810 O   0  0  0  0  0  0  0  0  0  0  0  0
   -8.6560   21.3590  -32.1160 N   0  0  0  0  0  0  0  0  0  0  0  0
   -7.5440   22.0860  -31.5640 C   0  0  0  0  0  0  0  0  0  0  0  0
   -7.5360   22.5400  -30.2300 C   0  0  0  0  0  0  0  0  0  0  0  0
   -6.4310   23.2310  -29.7240 C   0  0  0  0  0  0  0  0  0  0  0  0
   -5.3050   23.4590  -30.5290 C   0  0  0  0  0  0  0  0  0  0  0  0
   -4.1330   24.1730  -29.9760 C   0  0  0  0  0  0  0  0  0  0  0  0
   -3.8170   25.2920  -30.4670 O   0  0  0  0  0  0  0  0  0  0  0  0
   -3.3580   23.6310  -28.8840 N   0  0  0  0  0  0  0  0  0  0  0  0
   -3.5180   22.2200  -28.5330 C   0  0  0  0  0  0  0  0  0  0  0  0
   -2.4880   24.4660  -28.0930 C   0  0  0  0  0  0  0  0  0  0  0  0
   -1.1830   24.7200  -28.5460 C   0  0  0  0  0  0  0  0  0  0  0  0
   -0.2960   25.4690  -27.7710 C   0  0  0  0  0  0  0  0  0  0  0  0
   -0.7020   25.9750  -26.5360 C   0  0  0  0  0  0  0  0  0  0  0  0
   -2.0050   25.7560  -26.0830 C   0  0  0  0  0  0  0  0  0  0  0  0
   -2.9170   25.0260  -26.8630 C   0  0  0  0  0  0  0  0  0  0  0  0
   -4.3260   24.8550  -26.3630 C   0  0  0  0  0  0  0  0  0  0  0  0
   -5.3170   23.0180  -31.8620 C   0  0  0  0  0  0  0  0  0  0  0  0
   -6.4250   22.3340  -32.3720 C   0  0  0  0  0  0  0  0  0  0  0  0
   -6.5540   19.4990  -33.7900 C   0  0  0  0  0  0  0  0  0  0  0  0
   -5.3740   18.9080  -34.2500 C   0  0  0  0  0  0  0  0  0  0  0  0
   -3.0377   16.7591  -33.3078 H   0  0  0  0  0  0  0  0  0  0  0  0
   -3.8894   16.1817  -34.7801 H   0  0  0  0  0  0  0  0  0  0  0  0
   -3.0835   17.7871  -34.7801 H   0  0  0  0  0  0  0  0  0  0  0  0
   -5.2998   16.1659  -32.2017 H   0  0  0  0  0  0  0  0  0  0  0  0
   -7.3955   17.2316  -31.3694 H   0  0  0  0  0  0  0  0  0  0  0  0
   -9.4840   21.8880  -32.4690 H   0  0  0  0  0  0  0  0  0  0  0  0
   -8.4047   22.3495  -29.5827 H   0  0  0  0  0  0  0  0  0  0  0  0
   -6.4446   23.5985  -28.6873 H   0  0  0  0  0  0  0  0  0  0  0  0
   -3.5301   22.1136  -27.4382 H   0  0  0  0  0  0  0  0  0  0  0  0
   -4.4646   21.8439  -28.9484 H   0  0  0  0  0  0  0  0  0  0  0  0
   -2.6797   21.6415  -28.9484 H   0  0  0  0  0  0  0  0  0  0  0  0
   -0.8572   24.3254  -29.5197 H   0  0  0  0  0  0  0  0  0  0  0  0
    0.7244   25.6605  -28.1345 H   0  0  0  0  0  0  0  0  0  0  0  0
    0.0052   26.5475  -25.9179 H   0  0  0  0  0  0  0  0  0  0  0  0
   -2.3192   26.1581  -25.1085 H   0  0  0  0  0  0  0  0  0  0  0  0
   -4.3272   24.8548  -25.2630 H   0  0  0  0  0  0  0  0  0  0  0  0
   -4.9486   25.6842  -26.7303 H   0  0  0  0  0  0  0  0  0  0  0  0
   -4.7321   23.9010  -26.7303 H   0  0  0  0  0  0  0  0  0  0  0  0
   -4.4491   23.2118  -32.5094 H   0  0  0  0  0  0  0  0  0  0  0  0
   -6.4187   21.9875  -33.4160 H   0  0  0  0  0  0  0  0  0  0  0  0
   -6.9115   20.4350  -34.2439 H   0  0  0  0  0  0  0  0  0  0  0  0
   -4.7996   19.3873  -35.0564 H   0  0  0  0  0  0  0  0  0  0  0  0
  1  2  1  0
  2  3  2  0
  3  4  1  0
  4  5  2  0
  5  6  1  0
  6  7  2  0
  6  8  2  0
  6  9  1  0
  9 10  1  0
 10 11  2  0
 11 12  1  0
 12 13  2  0
 13 14  1  0
 14 15  2  0
 14 16  1  0
 16 17  1  0
 16 18  1  0
 18 19  2  0
 19 20  1  0
 20 21  2  0
 21 22  1  0
 22 23  2  0
 23 24  1  0
 13 25  1  0
 25 26  2  0
  5 27  1  0
 27 28  2  0
 28  2  1  0
 26 10  1  0
 23 18  1  0
  1 29  1  0
  1 30  1  0
  1 31  1  0
  3 32  1  0
  4 33  1  0
  9 34  1  0
 11 35  1  0
 12 36  1  0
 17 37  1  0
 17 38  1  0
 17 39  1  0
 19 40  1  0
 20 41  1  0
 21 42  1  0
 22 43  1  0
 24 44  1  0
 24 45  1  0
 24 46  1  0
 25 47  1  0
 26 48  1  0
 27 49  1  0
 28 50  1  0
M  END
>  <UniqueID>  (10) 
9

>  <SMILES>  (10) 
Cc1ccc(S(=O)(=O)Nc2ccc(C(=O)N(C)c3ccccc3C)cc2)cc1

>  <Energy>  (10) 
64.53053673580732

>  <Genealogy>  (10) 
Cc1ccc(S(=O)(=O)Nc2ccc(C(=O)N(C)c3ccccc3C)cc2)cc1 (3D coordinates assigned)
Cc1ccc(S(=O)(=O)Nc2ccc(C(=O)N(C)c3ccccc3C)cc2)cc1 (optimized conformer: 64.53053673580732 kcal/mol)

>  <smiles>  (10) 
Cc1ccc(S(=O)(=O)Nc2ccc(C(=O)N(C)c3ccccc3C)cc2)cc1

>  <score_type>  (10) 
oracle

>  <origin>  (10) 
adgpu

>  <m_score__min__energy>  (10) 
-10.41

>  <m_primary>  (10) 
energy

$$$$
10:0
     RDKit          3D

 48 51  0  0  0  0  0  0  0  0999 V2000
   -2.0360   23.3850  -27.8010 C   0  0  0  0  0  0  0  0  0  0  0  0
   -1.6840   24.5110  -28.7110 C   0  0  0  0  0  0  0  0  0  0  0  0
   -0.4720   24.7440  -28.9690 O   0  0  0  0  0  0  0  0  0  0  0  0
   -2.7280   25.2510  -29.3550 N   0  0  0  0  0  0  0  0  0  0  0  0
   -3.8370   24.7030  -30.0840 C   0  0  0  0  0  0  0  0  0  0  0  0
   -5.0120   25.4580  -30.1850 C   0  0  0  0  0  0  0  0  0  0  0  0
   -6.1090   24.9730  -30.9030 C   0  0  0  0  0  0  0  0  0  0  0  0
   -6.0360   23.7260  -31.5490 C   0  0  0  0  0  0  0  0  0  0  0  0
   -7.1320   23.1920  -32.3040 N   0  0  0  0  0  0  0  0  0  0  0  0
   -8.2730   22.0240  -31.7200 S   0  0  0  0  0  0  0  0  0  0  0  0
   -9.6180   22.2980  -32.3330 O   0  0  0  0  0  0  0  0  0  0  0  0
   -8.3880   22.1460  -30.2250 O   0  0  0  0  0  0  0  0  0  0  0  0
   -7.7560   20.4070  -32.1870 C   0  0  0  0  0  0  0  0  0  0  0  0
   -6.6850   20.2520  -33.0740 C   0  0  0  0  0  0  0  0  0  0  0  0
   -6.2560   18.9760  -33.4470 C   0  0  0  0  0  0  0  0  0  0  0  0
   -6.8940   17.8300  -32.9340 C   0  0  0  0  0  0  0  0  0  0  0  0
   -6.4550   16.4660  -33.3200 C   0  0  0  0  0  0  0  0  0  0  0  0
   -5.2750   15.8340  -32.9450 C   0  0  0  0  0  0  0  0  0  0  0  0
   -5.2790   14.6230  -33.5210 N   0  0  0  0  0  0  0  0  0  0  0  0
   -4.3500   13.6360  -33.4710 C   0  0  0  0  0  0  0  0  0  0  0  0
   -4.6030   12.4570  -34.1840 C   0  0  0  0  0  0  0  0  0  0  0  0
   -5.7970   12.3310  -34.9200 C   0  0  0  0  0  0  0  0  0  0  0  0
   -6.7390   13.3800  -34.9390 C   0  0  0  0  0  0  0  0  0  0  0  0
   -8.0100   13.2770  -35.7310 C   0  0  0  0  0  0  0  0  0  0  0  0
   -6.4240   14.5360  -34.2150 C   0  0  0  0  0  0  0  0  0  0  0  0
   -7.1820   15.6480  -34.1230 N   0  0  0  0  0  0  0  0  0  0  0  0
   -7.9680   17.9950  -32.0410 C   0  0  0  0  0  0  0  0  0  0  0  0
   -8.3960   19.2730  -31.6720 C   0  0  0  0  0  0  0  0  0  0  0  0
   -4.8520   22.9840  -31.4680 C   0  0  0  0  0  0  0  0  0  0  0  0
   -3.7560   23.4670  -30.7480 C   0  0  0  0  0  0  0  0  0  0  0  0
   -1.9336   23.7125  -26.7559 H   0  0  0  0  0  0  0  0  0  0  0  0
   -3.0744   23.0736  -27.9876 H   0  0  0  0  0  0  0  0  0  0  0  0
   -1.3599   22.5376  -27.9876 H   0  0  0  0  0  0  0  0  0  0  0  0
   -5.0723   26.4411  -29.6952 H   0  0  0  0  0  0  0  0  0  0  0  0
   -7.0320   25.5685  -30.9629 H   0  0  0  0  0  0  0  0  0  0  0  0
   -6.1780   21.1399  -33.4798 H   0  0  0  0  0  0  0  0  0  0  0  0
   -5.4141   18.8655  -34.1462 H   0  0  0  0  0  0  0  0  0  0  0  0
   -4.4875   16.2486  -32.2985 H   0  0  0  0  0  0  0  0  0  0  0  0
   -3.4253   13.7577  -32.8878 H   0  0  0  0  0  0  0  0  0  0  0  0
   -3.8731   11.6342  -34.1691 H   0  0  0  0  0  0  0  0  0  0  0  0
   -5.9961   11.4078  -35.4840 H   0  0  0  0  0  0  0  0  0  0  0  0
   -8.8659   13.2076  -35.0435 H   0  0  0  0  0  0  0  0  0  0  0  0
   -8.1203   14.1692  -36.3650 H   0  0  0  0  0  0  0  0  0  0  0  0
   -7.9752   12.3787  -36.3650 H   0  0  0  0  0  0  0  0  0  0  0  0
   -8.4756   17.1101  -31.6294 H   0  0  0  0  0  0  0  0  0  0  0  0
   -9.2387   19.3886  -30.9745 H   0  0  0  0  0  0  0  0  0  0  0  0
   -4.7835   22.0108  -31.9762 H   0  0  0  0  0  0  0  0  0  0  0  0
   -2.8279   22.8785  -30.7009 H   0  0  0  0  0  0  0  0  0  0  0  0
  1  2  1  0
  2  3  2  0
  2  4  1  0
  4  5  1  0
  5  6  2  0
  6  7  1  0
  7  8  2  0
  8  9  1  0
  9 10  1  0
 10 11  2  0
 10 12  2  0
 10 13  1  0
 13 14  2  0
 14 15  1  0
 15 16  2  0
 16 17  1  0
 17 18  2  0
 18 19  1  0
 19 20  1  0
 20 21  2  0
 21 22  1  0
 22 23  2  0
 23 24  1  0
 23 25  1  0
 25 26  2  0
 16 27  1  0
 27 28  2  0
  8 29  1  0
 29 30  2  0
 30  5  1  0
 28 13  1  0
 26 17  1  0
 25 19  1  0
  1 31  1  0
  1 32  1  0
  1 33  1  0
  6 34  1  0
  7 35  1  0
 14 36  1  0
 15 37  1  0
 18 38  1  0
 20 39  1  0
 21 40  1  0
 22 41  1  0
 24 42  1  0
 24 43  1  0
 24 44  1  0
 27 45  1  0
 28 46  1  0
 29 47  1  0
 30 48  1  0
M  CHG  2   4  -1   9  -1
M  END
>  <UniqueID>  (11) 
10

>  <SMILES>  (11) 
CC(=O)[N-]c1ccc([N-]S(=O)(=O)c2ccc(-c3cn4cccc(C)c4n3)cc2)cc1

>  <Energy>  (11) 
92.4016997387293

>  <Genealogy>  (11) 
CC(=O)[N-]c1ccc([N-]S(=O)(=O)c2ccc(-c3cn4cccc(C)c4n3)cc2)cc1 (protonated)
CC(=O)[N-]c1ccc([N-]S(=O)(=O)c2ccc(-c3cn4cccc(C)c4n3)cc2)cc1 (3D coordinates assigned)
CC(=O)[N-]c1ccc([N-]S(=O)(=O)c2ccc(-c3cn4cccc(C)c4n3)cc2)cc1 (optimized conformer: 92.4016997387293 kcal/mol)

>  <smiles>  (11) 
CC(=O)Nc1ccc(NS(=O)(=O)c2ccc(-c3cn4cccc(C)c4n3)cc2)cc1

>  <score_type>  (11) 
oracle

>  <origin>  (11) 
adgpu

>  <m_score__min__energy>  (11) 
-11.609999999999999

>  <m_primary>  (11) 
energy

$$$$
11:0
     RDKit          3D

 39 41  0  0  0  0  0  0  0  0999 V2000
   -1.9961   24.5536  -25.9826 H   0  0  0  0  0  0  0  0  0  0  0  0
   -2.4550   24.5770  -26.9820 C   0  0  0  0  0  0  0  0  0  0  0  0
   -1.6800   24.8640  -28.1110 C   0  0  0  0  0  0  0  0  0  0  0  0
   -0.2150   25.1310  -27.9740 C   0  0  0  0  0  0  0  0  0  0  0  0
    0.0507   25.1794  -26.9077 H   0  0  0  0  0  0  0  0  0  0  0  0
    0.3520   24.3214  -28.4568 H   0  0  0  0  0  0  0  0  0  0  0  0
    0.0299   26.0886  -28.4568 H   0  0  0  0  0  0  0  0  0  0  0  0
   -2.2570   24.8680  -29.3430 N   0  0  0  0  0  0  0  0  0  0  0  0
   -3.5800   24.6080  -29.5350 C   0  0  0  0  0  0  0  0  0  0  0  0
   -4.0460   24.6580  -30.7530 N   0  0  0  0  0  0  0  0  0  0  0  0
   -5.3730   24.3600  -31.2210 C   0  0  0  0  0  0  0  0  0  0  0  0
   -6.1050   25.3160  -31.5890 O   0  0  0  0  0  0  0  0  0  0  0  0
   -5.8460   22.9670  -31.4100 C   0  0  0  0  0  0  0  0  0  0  0  0
   -7.1780   22.6520  -31.0810 C   0  0  0  0  0  0  0  0  0  0  0  0
   -7.8457   23.4393  -30.7010 H   0  0  0  0  0  0  0  0  0  0  0  0
   -7.6600   21.3510  -31.2320 C   0  0  0  0  0  0  0  0  0  0  0  0
   -8.7050   21.1196  -30.9782 H   0  0  0  0  0  0  0  0  0  0  0  0
   -6.8190   20.3440  -31.7040 C   0  0  0  0  0  0  0  0  0  0  0  0
   -7.1991   19.3179  -31.8170 H   0  0  0  0  0  0  0  0  0  0  0  0
   -5.4950   20.6380  -32.0330 C   0  0  0  0  0  0  0  0  0  0  0  0
   -4.8335   19.8378  -32.3963 H   0  0  0  0  0  0  0  0  0  0  0  0
   -5.0000   21.9430  -31.9050 C   0  0  0  0  0  0  0  0  0  0  0  0
   -3.2860   22.2460  -32.3870 S   0  0  0  0  0  0  0  0  0  0  0  0
   -2.5960   21.5950  -30.8550 C   0  0  0  0  0  0  0  0  0  0  0  0
   -3.4280   21.4910  -29.7300 C   0  0  0  0  0  0  0  0  0  0  0  0
   -4.4837   21.7915  -29.8021 H   0  0  0  0  0  0  0  0  0  0  0  0
   -2.9260   21.0090  -28.5200 C   0  0  0  0  0  0  0  0  0  0  0  0
   -3.5818   20.9456  -27.6391 H   0  0  0  0  0  0  0  0  0  0  0  0
   -1.5910   20.6070  -28.4270 C   0  0  0  0  0  0  0  0  0  0  0  0
   -1.1934   20.2370  -27.4704 H   0  0  0  0  0  0  0  0  0  0  0  0
   -0.7610   20.6750  -29.5490 C   0  0  0  0  0  0  0  0  0  0  0  0
    0.2867   20.3480  -29.4754 H   0  0  0  0  0  0  0  0  0  0  0  0
   -1.2570   21.1580  -30.7680 C   0  0  0  0  0  0  0  0  0  0  0  0
   -0.3860   21.1790  -31.9160 C   0  0  0  0  0  0  0  0  0  0  0  0
    0.3150   21.1930  -32.8370 N   0  0  0  0  0  0  0  0  0  0  0  0
   -4.3890   24.3380  -28.4110 C   0  0  0  0  0  0  0  0  0  0  0  0
   -5.4641   24.1422  -28.5369 H   0  0  0  0  0  0  0  0  0  0  0  0
   -3.8170   24.3210  -27.1400 C   0  0  0  0  0  0  0  0  0  0  0  0
   -4.4408   24.1053  -26.2600 H   0  0  0  0  0  0  0  0  0  0  0  0
  1  2  1  0
  2  3  2  0
  3  4  1  0
  4  5  1  0
  4  6  1  0
  4  7  1  0
  3  8  1  0
  8  9  1  0
  9 10  2  0
 10 11  1  0
 11 12  2  0
 11 13  1  0
 13 14  2  0
 14 15  1  0
 14 16  1  0
 16 17  1  0
 16 18  2  0
 18 19  1  0
 18 20  1  0
 20 21  1  0
 20 22  2  0
 22 23  1  0
 23 24  1  0
 24 25  2  0
 25 26  1  0
 25 27  1  0
 27 28  1  0
 27 29  2  0
 29 30  1  0
 29 31  1  0
 31 32  1  0
 31 33  2  0
 33 34  1  0
 34 35  3  0
  9 36  1  0
 36 37  1  0
 36 38  2  0
 38 39  1  0
 38  2  1  0
 22 13  1  0
 33 24  1  0
M  CHG  1   8  -1
M  END
>  <UniqueID>  (12) 
11

>  <SMILES>  (12) 
Cc1ccc/c(=N\C(=O)c2ccccc2Sc2ccccc2C#N)[n-]1

>  <Energy>  (12) 
48.46874954368715

>  <Genealogy>  (12) 
Cc1cccc(=NC(=O)c2ccccc2Sc2ccccc2C#N)[n-]1 (protonated)
Cc1ccc/c(=N\C(=O)c2ccccc2Sc2ccccc2C#N)[n-]1 (cis-trans isomerization)
Cc1ccc/c(=N\C(=O)c2ccccc2Sc2ccccc2C#N)[n-]1 (3D coordinates assigned)
Cc1ccc/c(=N\C(=O)c2ccccc2Sc2ccccc2C#N)[n-]1 (optimized conformer: 48.46874954368715 kcal/mol)

>  <smiles>  (12) 
Cc1cccc(=NC(=O)c2ccccc2Sc2ccccc2C#N)[nH]1

>  <score_type>  (12) 
oracle

>  <origin>  (12) 
adgpu

>  <m_score__min__energy>  (12) 
-10.08

>  <m_primary>  (12) 
energy

$$$$
12:0
     RDKit          3D

 50 52  0  0  0  0  0  0  0  0999 V2000
    3.6270   21.9770  -37.3030 N   0  0  0  0  0  0  0  0  0  0  0  0
    2.7360   23.0240  -36.2580 S   0  0  0  0  0  0  0  0  0  0  0  0
    3.6910   23.7910  -35.3880 O   0  0  0  0  0  0  0  0  0  0  0  0
    1.9450   24.0020  -37.0820 O   0  0  0  0  0  0  0  0  0  0  0  0
    1.6460   22.0720  -35.2550 C   0  0  0  0  0  0  0  0  0  0  0  0
    0.2610   22.2970  -35.3020 C   0  0  0  0  0  0  0  0  0  0  0  0
   -0.6050   21.5360  -34.5090 C   0  0  0  0  0  0  0  0  0  0  0  0
   -0.0940   20.5460  -33.6540 C   0  0  0  0  0  0  0  0  0  0  0  0
   -1.0270   19.6770  -32.8480 C   0  0  0  0  0  0  0  0  0  0  0  0
   -2.3900   19.5440  -33.5400 C   0  0  0  0  0  0  0  0  0  0  0  0
   -3.4240   20.2600  -32.7960 N   0  0  0  0  0  0  0  0  0  0  0  0
   -4.7830   20.4230  -33.2240 C   0  0  0  0  0  0  0  0  0  0  0  0
   -5.2200   19.6950  -34.1540 O   0  0  0  0  0  0  0  0  0  0  0  0
   -5.6910   21.3920  -32.5780 C   0  0  0  0  0  0  0  0  0  0  0  0
   -5.1410   22.5080  -31.9280 C   0  0  0  0  0  0  0  0  0  0  0  0
   -5.9640   23.4250  -31.2640 C   0  0  0  0  0  0  0  0  0  0  0  0
   -5.2700   24.8310  -30.4630 S   0  0  0  0  0  0  0  0  0  0  0  0
   -5.7720   26.0990  -31.0930 O   0  0  0  0  0  0  0  0  0  0  0  0
   -5.6780   24.8280  -29.0180 O   0  0  0  0  0  0  0  0  0  0  0  0
   -3.5410   24.7940  -30.5700 N   0  0  0  0  0  0  0  0  0  0  0  0
   -2.6840   24.0080  -29.7290 C   0  0  0  0  0  0  0  0  0  0  0  0
   -2.7720   22.6030  -29.6890 C   0  0  0  0  0  0  0  0  0  0  0  0
   -1.8830   21.8670  -28.8990 C   0  0  0  0  0  0  0  0  0  0  0  0
   -0.9030   22.5220  -28.1420 C   0  0  0  0  0  0  0  0  0  0  0  0
   -0.8250   23.9130  -28.1620 C   0  0  0  0  0  0  0  0  0  0  0  0
   -1.7090   24.6580  -28.9510 C   0  0  0  0  0  0  0  0  0  0  0  0
   -1.6010   26.0460  -28.9740 O   0  0  0  0  0  0  0  0  0  0  0  0
   -7.3470   23.2190  -31.2370 C   0  0  0  0  0  0  0  0  0  0  0  0
   -7.9050   22.1090  -31.8760 C   0  0  0  0  0  0  0  0  0  0  0  0
   -7.0900   21.1940  -32.5520 C   0  0  0  0  0  0  0  0  0  0  0  0
   -7.6960   20.1170  -33.1990 O   0  0  0  0  0  0  0  0  0  0  0  0
    1.2930   20.3270  -33.6050 C   0  0  0  0  0  0  0  0  0  0  0  0
    2.1580   21.0900  -34.3960 C   0  0  0  0  0  0  0  0  0  0  0  0
    2.9560   21.2680  -37.6680 H   0  0  0  0  0  0  0  0  0  0  0  0
   -0.1452   23.0750  -35.9652 H   0  0  0  0  0  0  0  0  0  0  0  0
   -1.6895   21.7138  -34.5554 H   0  0  0  0  0  0  0  0  0  0  0  0
   -0.5812   18.6776  -32.7363 H   0  0  0  0  0  0  0  0  0  0  0  0
   -1.1779   20.1439  -31.8635 H   0  0  0  0  0  0  0  0  0  0  0  0
   -2.3212   19.9627  -34.5549 H   0  0  0  0  0  0  0  0  0  0  0  0
   -2.6607   18.4787  -33.5818 H   0  0  0  0  0  0  0  0  0  0  0  0
   -4.0521   22.6634  -31.9406 H   0  0  0  0  0  0  0  0  0  0  0  0
   -3.5409   22.0838  -30.2799 H   0  0  0  0  0  0  0  0  0  0  0  0
   -1.9536   20.7696  -28.8720 H   0  0  0  0  0  0  0  0  0  0  0  0
   -0.1963   21.9392  -27.5329 H   0  0  0  0  0  0  0  0  0  0  0  0
   -0.0655   24.4278  -27.5552 H   0  0  0  0  0  0  0  0  0  0  0  0
   -7.9975   23.9332  -30.7110 H   0  0  0  0  0  0  0  0  0  0  0  0
   -8.9935   21.9530  -31.8475 H   0  0  0  0  0  0  0  0  0  0  0  0
   -7.3810   19.7660  -34.0940 H   0  0  0  0  0  0  0  0  0  0  0  0
    1.7009   19.5509  -32.9407 H   0  0  0  0  0  0  0  0  0  0  0  0
    3.2434   20.9189  -34.3438 H   0  0  0  0  0  0  0  0  0  0  0  0
  1  2  1  0
  2  3  2  0
  2  4  2  0
  2  5  1  0
  5  6  2  0
  6  7  1  0
  7  8  2  0
  8  9  1  0
  9 10  1  0
 10 11  1  0
 11 12  1  0
 12 13  2  0
 12 14  1  0
 14 15  2  0
 15 16  1  0
 16 17  1  0
 17 18  2  0
 17 19  2  0
 17 20  1  0
 20 21  1  0
 21 22  2  0
 22 23  1  0
 23 24  2  0
 24 25  1  0
 25 26  2  0
 26 27  1  0
 16 28  2  0
 28 29  1  0
 29 30  2  0
 30 31  1  0
  8 32  1  0
 32 33  2  0
 33  5  1  0
 30 14  1  0
 26 21  1  0
  1 34  1  0
  6 35  1  0
  7 36  1  0
  9 37  1  0
  9 38  1  0
 10 39  1  0
 10 40  1  0
 15 41  1  0
 22 42  1  0
 23 43  1  0
 24 44  1  0
 25 45  1  0
 28 46  1  0
 29 47  1  0
 31 48  1  0
 32 49  1  0
 33 50  1  0
M  CHG  4   1  -1  11  -1  20  -1  27  -1
M  END
>  <UniqueID>  (13) 
12

>  <SMILES>  (13) 
[NH-]S(=O)(=O)c1ccc(CC[N-]C(=O)c2cc(S(=O)(=O)[N-]c3ccccc3[O-])ccc2O)cc1

>  <Energy>  (13) 
59.081520689482836

>  <Genealogy>  (13) 
[NH-]S(=O)(=O)c1ccc(CC[N-]C(=O)c2cc(S(=O)(=O)[N-]c3ccccc3[O-])ccc2O)cc1 (protonated)
[NH-]S(=O)(=O)c1ccc(CC[N-]C(=O)c2cc(S(=O)(=O)[N-]c3ccccc3[O-])ccc2O)cc1 (3D coordinates assigned)
[NH-]S(=O)(=O)c1ccc(CC[N-]C(=O)c2cc(S(=O)(=O)[N-]c3ccccc3[O-])ccc2O)cc1 (optimized conformer: 59.081520689482836 kcal/mol)

>  <smiles>  (13) 
NS(=O)(=O)c1ccc(CCNC(=O)c2cc(S(=O)(=O)Nc3ccccc3O)ccc2O)cc1

>  <score_type>  (13) 
oracle

>  <origin>  (13) 
adgpu

>  <m_score__min__energy>  (13) 
-14.460000000000001

>  <m_primary>  (13) 
energy

$$$$
13:0
     RDKit          3D

 46 48  0  0  0  0  0  0  0  0999 V2000
   -1.2500   26.0470  -25.1810 C   0  0  0  0  0  0  0  0  0  0  0  0
   -1.9420   25.5010  -26.3940 C   0  0  0  0  0  0  0  0  0  0  0  0
   -3.2440   24.9900  -26.2950 C   0  0  0  0  0  0  0  0  0  0  0  0
   -3.8770   24.4460  -27.4160 C   0  0  0  0  0  0  0  0  0  0  0  0
   -3.2140   24.3960  -28.6540 C   0  0  0  0  0  0  0  0  0  0  0  0
   -3.8570   23.8290  -29.8120 N   0  0  0  0  0  0  0  0  0  0  0  0
   -3.2880   22.9950  -30.7080 C   0  0  0  0  0  0  0  0  0  0  0  0
   -4.2110   22.6580  -31.6850 C   0  0  0  0  0  0  0  0  0  0  0  0
   -3.9870   21.7300  -32.8490 C   0  0  1  0  0  0  0  0  0  0  0  0
   -2.6980   21.9200  -33.3750 O   0  0  0  0  0  0  0  0  0  0  0  0
   -4.1820   20.3310  -32.4480 N   0  0  0  0  0  0  0  0  0  0  0  0
   -5.4410   19.6350  -32.5460 C   0  0  0  0  0  0  0  0  0  0  0  0
   -6.6090   20.2710  -32.0940 C   0  0  0  0  0  0  0  0  0  0  0  0
   -7.8540   19.6340  -32.1890 C   0  0  0  0  0  0  0  0  0  0  0  0
   -9.0900   20.3130  -31.6740 C   0  0  0  0  0  0  0  0  0  0  0  0
   -7.9290   18.3350  -32.7080 C   0  0  0  0  0  0  0  0  0  0  0  0
   -6.7710   17.6790  -33.1480 C   0  0  0  0  0  0  0  0  0  0  0  0
   -6.8650   16.3070  -33.7490 C   0  0  0  0  0  0  0  0  0  0  0  0
   -5.5340   18.3380  -33.0840 C   0  0  0  0  0  0  0  0  0  0  0  0
   -5.3910   23.3100  -31.3760 C   0  0  0  0  0  0  0  0  0  0  0  0
   -5.1300   24.0240  -30.2240 C   0  0  0  0  0  0  0  0  0  0  0  0
   -6.0410   24.8580  -29.5820 O   0  0  0  0  0  0  0  0  0  0  0  0
   -1.8980   24.8830  -28.7430 C   0  0  0  0  0  0  0  0  0  0  0  0
   -1.2670   25.4280  -27.6210 C   0  0  0  0  0  0  0  0  0  0  0  0
   -1.7394   25.6608  -24.2747 H   0  0  0  0  0  0  0  0  0  0  0  0
   -0.1951   25.7353  -25.1892 H   0  0  0  0  0  0  0  0  0  0  0  0
   -1.3078   27.1455  -25.1892 H   0  0  0  0  0  0  0  0  0  0  0  0
   -3.7702   25.0175  -25.3294 H   0  0  0  0  0  0  0  0  0  0  0  0
   -4.9012   24.0543  -27.3286 H   0  0  0  0  0  0  0  0  0  0  0  0
   -2.2486   22.6370  -30.6685 H   0  0  0  0  0  0  0  0  0  0  0  0
   -4.7258   21.9637  -33.6298 H   0  0  0  0  0  0  0  0  0  0  0  0
   -2.7720   21.8910  -34.3650 H   0  0  0  0  0  0  0  0  0  0  0  0
   -3.3600   19.8000  -32.0740 H   0  0  0  0  0  0  0  0  0  0  0  0
   -6.5460   21.2801  -31.6607 H   0  0  0  0  0  0  0  0  0  0  0  0
   -9.0801   20.3075  -30.5741 H   0  0  0  0  0  0  0  0  0  0  0  0
   -9.1153   21.3517  -32.0353 H   0  0  0  0  0  0  0  0  0  0  0  0
   -9.9802   19.7773  -32.0353 H   0  0  0  0  0  0  0  0  0  0  0  0
   -8.9025   17.8267  -32.7706 H   0  0  0  0  0  0  0  0  0  0  0  0
   -6.9164   15.5575  -32.9455 H   0  0  0  0  0  0  0  0  0  0  0  0
   -7.7698   16.2404  -34.3710 H   0  0  0  0  0  0  0  0  0  0  0  0
   -5.9777   16.1176  -34.3710 H   0  0  0  0  0  0  0  0  0  0  0  0
   -4.6291   17.8365  -33.4576 H   0  0  0  0  0  0  0  0  0  0  0  0
   -6.3392   23.2682  -31.9321 H   0  0  0  0  0  0  0  0  0  0  0  0
   -6.2630   24.7310  -28.6030 H   0  0  0  0  0  0  0  0  0  0  0  0
   -1.3614   24.8348  -29.7020 H   0  0  0  0  0  0  0  0  0  0  0  0
   -0.2355   25.8016  -27.7010 H   0  0  0  0  0  0  0  0  0  0  0  0
  1  2  1  0
  2  3  2  0
  3  4  1  0
  4  5  2  0
  5  6  1  0
  6  7  1  0
  7  8  2  0
  8  9  1  0
  9 10  1  0
  9 11  1  0
 11 12  1  0
 12 13  2  0
 13 14  1  0
 14 15  1  0
 14 16  2  0
 16 17  1  0
 17 18  1  0
 17 19  2  0
  8 20  1  0
 20 21  2  0
 21 22  1  0
  5 23  1  0
 23 24  2  0
 24  2  1  0
 21  6  1  0
 19 12  1  0
  1 25  1  0
  1 26  1  0
  1 27  1  0
  3 28  1  0
  4 29  1  0
  7 30  1  0
  9 31  1  6
 10 32  1  0
 11 33  1  0
 13 34  1  0
 15 35  1  0
 15 36  1  0
 15 37  1  0
 16 38  1  0
 18 39  1  0
 18 40  1  0
 18 41  1  0
 19 42  1  0
 20 43  1  0
 22 44  1  0
 23 45  1  0
 24 46  1  0
M  END
>  <UniqueID>  (14) 
13

>  <SMILES>  (14) 
Cc1ccc(-n2cc([C@@H](O)Nc3cc(C)cc(C)c3)cc2O)cc1

>  <Energy>  (14) 
77.11172160784828

>  <Genealogy>  (14) 
Cc1ccc(-n2cc([C@@H](O)Nc3cc(C)cc(C)c3)cc2O)cc1 (chirality)
Cc1ccc(-n2cc([C@@H](O)Nc3cc(C)cc(C)c3)cc2O)cc1 (3D coordinates assigned)
Cc1ccc(-n2cc([C@@H](O)Nc3cc(C)cc(C)c3)cc2O)cc1 (optimized conformer: 77.11172160784828 kcal/mol)

>  <smiles>  (14) 
Cc1ccc(-n2cc(C(O)Nc3cc(C)cc(C)c3)cc2O)cc1

>  <score_type>  (14) 
oracle

>  <origin>  (14) 
adgpu

>  <m_score__min__energy>  (14) 
-8.7599999999999998

>  <m_primary>  (14) 
energy

$$$$
14:0
     RDKit          3D

 51 54  0  0  0  0  0  0  0  0999 V2000
    1.1460   19.5920  -30.9290 N   0  0  0  0  0  0  0  0  0  0  0  0
    0.4200   19.6620  -29.3620 S   0  0  0  0  0  0  0  0  0  0  0  0
   -0.4320   18.4430  -29.1490 O   0  0  0  0  0  0  0  0  0  0  0  0
    1.4970   19.6880  -28.3130 O   0  0  0  0  0  0  0  0  0  0  0  0
   -0.5670   21.1130  -29.2360 C   0  0  0  0  0  0  0  0  0  0  0  0
   -1.1300   21.4800  -28.0050 C   0  0  0  0  0  0  0  0  0  0  0  0
   -1.9240   22.6260  -27.9090 C   0  0  0  0  0  0  0  0  0  0  0  0
   -2.1530   23.4270  -29.0400 C   0  0  0  0  0  0  0  0  0  0  0  0
   -2.9880   24.5900  -28.9800 N   0  0  0  0  0  0  0  0  0  0  0  0
   -4.0850   24.9070  -29.8480 C   0  0  0  0  0  0  0  0  0  0  0  0
   -3.8650   25.6220  -30.8600 O   0  0  0  0  0  0  0  0  0  0  0  0
   -5.5000   24.5140  -29.5270 C   0  0  0  0  0  0  0  0  0  0  0  0
   -6.5420   24.5000  -31.0280 S   0  0  0  0  0  0  0  0  0  0  0  0
   -5.8690   22.9760  -31.6860 C   0  0  0  0  0  0  0  0  0  0  0  0
   -6.6010   21.9050  -32.1400 C   0  0  0  0  0  0  0  0  0  0  0  0
   -5.7360   20.9570  -32.5420 N   0  0  0  0  0  0  0  0  0  0  0  0
   -6.0970   19.6300  -32.9660 C   0  0  0  0  0  0  0  0  0  0  0  0
   -5.6630   19.1320  -34.2070 C   0  0  0  0  0  0  0  0  0  0  0  0
   -6.0070   17.8370  -34.6060 C   0  0  0  0  0  0  0  0  0  0  0  0
   -6.7760   17.0270  -33.7660 C   0  0  0  0  0  0  0  0  0  0  0  0
   -7.1980   17.5080  -32.5240 C   0  0  0  0  0  0  0  0  0  0  0  0
   -6.8550   18.8030  -32.1220 C   0  0  0  0  0  0  0  0  0  0  0  0
   -4.5030   21.4860  -32.3390 C   0  0  0  0  0  0  0  0  0  0  0  0
   -3.2220   20.8380  -32.6990 C   0  0  0  0  0  0  0  0  0  0  0  0
   -2.9520   19.5340  -32.2540 C   0  0  0  0  0  0  0  0  0  0  0  0
   -1.7400   18.9150  -32.5750 C   0  0  0  0  0  0  0  0  0  0  0  0
   -0.7800   19.5960  -33.3290 C   0  0  0  0  0  0  0  0  0  0  0  0
    0.4220   18.9660  -33.6430 O   0  0  0  0  0  0  0  0  0  0  0  0
   -1.0340   20.9040  -33.7580 C   0  0  0  0  0  0  0  0  0  0  0  0
   -2.2450   21.5260  -33.4390 C   0  0  0  0  0  0  0  0  0  0  0  0
   -4.5520   22.7290  -31.8110 N   0  0  0  0  0  0  0  0  0  0  0  0
   -1.6220   23.0360  -30.2750 C   0  0  0  0  0  0  0  0  0  0  0  0
   -0.8270   21.8890  -30.3720 C   0  0  0  0  0  0  0  0  0  0  0  0
    0.6190   18.8750  -31.4770 H   0  0  0  0  0  0  0  0  0  0  0  0
   -0.9460   20.8640  -27.1124 H   0  0  0  0  0  0  0  0  0  0  0  0
   -2.3719   22.9022  -26.9430 H   0  0  0  0  0  0  0  0  0  0  0  0
   -5.5002   23.5084  -29.0813 H   0  0  0  0  0  0  0  0  0  0  0  0
   -5.9141   25.2515  -28.8237 H   0  0  0  0  0  0  0  0  0  0  0  0
   -7.6984   21.8356  -32.1693 H   0  0  0  0  0  0  0  0  0  0  0  0
   -5.0503   19.7638  -34.8668 H   0  0  0  0  0  0  0  0  0  0  0  0
   -5.6721   17.4554  -35.5818 H   0  0  0  0  0  0  0  0  0  0  0  0
   -7.0493   16.0097  -34.0830 H   0  0  0  0  0  0  0  0  0  0  0  0
   -7.8001   16.8681  -31.8622 H   0  0  0  0  0  0  0  0  0  0  0  0
   -7.1808   19.1754  -31.1396 H   0  0  0  0  0  0  0  0  0  0  0  0
   -3.6977   18.9966  -31.6498 H   0  0  0  0  0  0  0  0  0  0  0  0
   -1.5413   17.8886  -32.2330 H   0  0  0  0  0  0  0  0  0  0  0  0
    1.1170   18.7670  -32.9340 H   0  0  0  0  0  0  0  0  0  0  0  0
   -0.2787   21.4441  -34.3478 H   0  0  0  0  0  0  0  0  0  0  0  0
   -2.4339   22.5583  -33.7686 H   0  0  0  0  0  0  0  0  0  0  0  0
   -1.8311   23.6341  -31.1742 H   0  0  0  0  0  0  0  0  0  0  0  0
   -0.4046   21.5957  -31.3444 H   0  0  0  0  0  0  0  0  0  0  0  0
  1  2  1  0
  2  3  2  0
  2  4  2  0
  2  5  1  0
  5  6  2  0
  6  7  1  0
  7  8  2  0
  8  9  1  0
  9 10  1  0
 10 11  2  0
 10 12  1  0
 12 13  1  0
 13 14  1  0
 14 15  2  0
 15 16  1  0
 16 17  1  0
 17 18  2  0
 18 19  1  0
 19 20  2  0
 20 21  1  0
 21 22  2  0
 16 23  1  0
 23 24  1  0
 24 25  2  0
 25 26  1  0
 26 27  2  0
 27 28  1  0
 27 29  1  0
 29 30  2  0
 23 31  2  0
  8 32  1  0
 32 33  2  0
 33  5  1  0
 31 14  1  0
 22 17  1  0
 30 24  1  0
  1 34  1  0
  6 35  1  0
  7 36  1  0
 12 37  1  0
 12 38  1  0
 15 39  1  0
 18 40  1  0
 19 41  1  0
 20 42  1  0
 21 43  1  0
 22 44  1  0
 25 45  1  0
 26 46  1  0
 28 47  1  0
 29 48  1  0
 30 49  1  0
 32 50  1  0
 33 51  1  0
M  CHG  2   1  -1   9  -1
M  END
>  <UniqueID>  (15) 
14

>  <SMILES>  (15) 
[NH-]S(=O)(=O)c1ccc([N-]C(=O)CSc2cn(-c3ccccc3)c(-c3ccc(O)cc3)n2)cc1

>  <Energy>  (15) 
95.00091720798268

>  <Genealogy>  (15) 
[NH-]S(=O)(=O)c1ccc([N-]C(=O)CSc2cn(-c3ccccc3)c(-c3ccc(O)cc3)n2)cc1 (protonated)
[NH-]S(=O)(=O)c1ccc([N-]C(=O)CSc2cn(-c3ccccc3)c(-c3ccc(O)cc3)n2)cc1 (3D coordinates assigned)
[NH-]S(=O)(=O)c1ccc([N-]C(=O)CSc2cn(-c3ccccc3)c(-c3ccc(O)cc3)n2)cc1 (optimized conformer: 95.00091720798268 kcal/mol)

>  <smiles>  (15) 
NS(=O)(=O)c1ccc(NC(=O)CSc2cn(-c3ccccc3)c(-c3ccc(O)cc3)n2)cc1

>  <score_type>  (15) 
oracle

>  <origin>  (15) 
adgpu

>  <m_score__min__energy>  (15) 
-11.67

>  <m_primary>  (15) 
energy

$$$$
15:0
     RDKit          3D

 55 59  0  0  0  0  0  0  0  0999 V2000
   -0.5950   21.4790  -27.4820 C   0  0  0  0  0  0  0  0  0  0  0  0
   -1.4610   22.5120  -28.1560 C   0  0  0  0  0  0  0  0  0  0  0  0
   -2.6470   22.0860  -28.7700 C   0  0  0  0  0  0  0  0  0  0  0  0
   -3.4760   22.9890  -29.4280 C   0  0  0  0  0  0  0  0  0  0  0  0
   -3.1330   24.3490  -29.5090 C   0  0  0  0  0  0  0  0  0  0  0  0
   -3.9520   25.2960  -30.2330 N   0  0  0  0  0  0  0  0  0  0  0  0
   -5.4210   25.3230  -30.2370 C   0  0  2  0  0  0  0  0  0  0  0  0
   -5.9080   25.4260  -28.9270 O   0  0  0  0  0  0  0  0  0  0  0  0
   -5.9920   24.1040  -30.9110 C   0  0  0  0  0  0  0  0  0  0  0  0
   -7.3020   23.6590  -30.8640 C   0  0  0  0  0  0  0  0  0  0  0  0
   -7.3160   22.4710  -31.5600 C   0  0  0  0  0  0  0  0  0  0  0  0
   -8.4400   21.6720  -31.7320 O   0  0  0  0  0  0  0  0  0  0  0  0
   -6.0850   22.1630  -32.0180 N   0  0  0  0  0  0  0  0  0  0  0  0
   -5.6940   20.9870  -32.7500 C   0  0  0  0  0  0  0  0  0  0  0  0
   -6.6550   20.2400  -33.4540 C   0  0  0  0  0  0  0  0  0  0  0  0
   -6.2810   19.1040  -34.1830 C   0  0  0  0  0  0  0  0  0  0  0  0
   -4.9460   18.6970  -34.1960 C   0  0  0  0  0  0  0  0  0  0  0  0
   -3.9780   19.4370  -33.5040 C   0  0  0  0  0  0  0  0  0  0  0  0
   -4.3500   20.5700  -32.7720 C   0  0  0  0  0  0  0  0  0  0  0  0
   -2.6440   19.0240  -33.5520 O   0  0  0  0  0  0  0  0  0  0  0  0
   -2.2040   18.0520  -34.5060 C   0  0  0  0  0  0  0  0  0  0  0  0
   -3.2680   16.9610  -34.6880 C   0  0  0  0  0  0  0  0  0  0  0  0
   -4.5540   17.5510  -34.8950 O   0  0  0  0  0  0  0  0  0  0  0  0
   -5.2670   23.1530  -31.6080 C   0  0  0  0  0  0  0  0  0  0  0  0
   -1.9520   24.7910  -28.8800 C   0  0  0  0  0  0  0  0  0  0  0  0
   -1.5980   26.1350  -28.9720 O   0  0  0  0  0  0  0  0  0  0  0  0
   -1.1280   23.8910  -28.1670 C   0  0  0  0  0  0  0  0  0  0  0  0
    0.3230   24.5000  -27.3350 S   0  0  0  0  0  0  0  0  0  0  0  0
    0.2520   25.9950  -27.1970 O   0  0  0  0  0  0  0  0  0  0  0  0
    1.5550   24.1790  -28.1350 O   0  0  0  0  0  0  0  0  0  0  0  0
    0.4490   23.6970  -25.7360 C   0  0  0  0  0  0  0  0  0  0  0  0
   -0.5160   24.1760  -24.6610 C   0  0  0  0  0  0  0  0  0  0  0  0
    0.9390   24.6150  -24.6260 C   0  0  0  0  0  0  0  0  0  0  0  0
   -0.6823   21.5831  -26.3904 H   0  0  0  0  0  0  0  0  0  0  0  0
   -0.9236   20.4730  -27.7818 H   0  0  0  0  0  0  0  0  0  0  0  0
    0.4530   21.6270  -27.7818 H   0  0  0  0  0  0  0  0  0  0  0  0
   -2.9262   21.0227  -28.7310 H   0  0  0  0  0  0  0  0  0  0  0  0
   -4.4095   22.6345  -29.8895 H   0  0  0  0  0  0  0  0  0  0  0  0
   -3.4800   26.0520  -30.7780 H   0  0  0  0  0  0  0  0  0  0  0  0
   -5.7404   26.2059  -30.8101 H   0  0  0  0  0  0  0  0  0  0  0  0
   -5.1340   25.6720  -28.3560 H   0  0  0  0  0  0  0  0  0  0  0  0
   -8.1541   24.1517  -30.3730 H   0  0  0  0  0  0  0  0  0  0  0  0
   -7.7100   20.5506  -33.4320 H   0  0  0  0  0  0  0  0  0  0  0  0
   -7.0370   18.5345  -34.7435 H   0  0  0  0  0  0  0  0  0  0  0  0
   -3.5905   21.1359  -32.2126 H   0  0  0  0  0  0  0  0  0  0  0  0
   -2.0241   18.5474  -35.4715 H   0  0  0  0  0  0  0  0  0  0  0  0
   -1.2761   17.5879  -34.1405 H   0  0  0  0  0  0  0  0  0  0  0  0
   -3.0080   16.3425  -35.5597 H   0  0  0  0  0  0  0  0  0  0  0  0
   -3.3015   16.3393  -33.7811 H   0  0  0  0  0  0  0  0  0  0  0  0
   -4.1846   23.1983  -31.7989 H   0  0  0  0  0  0  0  0  0  0  0  0
    0.7258   22.7081  -26.1302 H   0  0  0  0  0  0  0  0  0  0  0  0
   -1.3035   24.9016  -24.9126 H   0  0  0  0  0  0  0  0  0  0  0  0
   -1.1969   23.6830  -23.9515 H   0  0  0  0  0  0  0  0  0  0  0  0
    1.2042   25.6583  -24.8522 H   0  0  0  0  0  0  0  0  0  0  0  0
    1.7467   24.5712  -23.8805 H   0  0  0  0  0  0  0  0  0  0  0  0
  1  2  1  0
  2  3  2  0
  3  4  1  0
  4  5  2  0
  5  6  1  0
  6  7  1  0
  7  8  1  0
  7  9  1  0
  9 10  1  0
 10 11  2  0
 11 12  1  0
 11 13  1  0
 13 14  1  0
 14 15  2  0
 15 16  1  0
 16 17  2  0
 17 18  1  0
 18 19  2  0
 18 20  1  0
 20 21  1  0
 21 22  1  0
 22 23  1  0
 13 24  1  0
  5 25  1  0
 25 26  1  0
 25 27  2  0
 27 28  1  0
 28 29  2  0
 28 30  2  0
 28 31  1  0
 31 32  1  0
 32 33  1  0
 27  2  1  0
 33 31  1  0
 24  9  2  0
 19 14  1  0
 23 17  1  0
  1 34  1  0
  1 35  1  0
  1 36  1  0
  3 37  1  0
  4 38  1  0
  6 39  1  0
  7 40  1  6
  8 41  1  0
 10 42  1  0
 15 43  1  0
 16 44  1  0
 19 45  1  0
 21 46  1  0
 21 47  1  0
 22 48  1  0
 22 49  1  0
 24 50  1  0
 31 51  1  0
 32 52  1  0
 32 53  1  0
 33 54  1  0
 33 55  1  0
M  CHG  2  12  -1  26  -1
M  END
>  <UniqueID>  (16) 
15

>  <SMILES>  (16) 
Cc1ccc(N[C@H](O)c2cc([O-])n(-c3ccc4c(c3)OCCO4)c2)c([O-])c1S(=O)(=O)C1CC1

>  <Energy>  (16) 
360.4226565312445

>  <Genealogy>  (16) 
Cc1ccc(NC(O)c2cc([O-])n(-c3ccc4c(c3)OCCO4)c2)c([O-])c1S(=O)(=O)C1CC1 (protonated)
Cc1ccc(N[C@H](O)c2cc([O-])n(-c3ccc4c(c3)OCCO4)c2)c([O-])c1S(=O)(=O)C1CC1 (chirality)
Cc1ccc(N[C@H](O)c2cc([O-])n(-c3ccc4c(c3)OCCO4)c2)c([O-])c1S(=O)(=O)C1CC1 (3D coordinates assigned)
Cc1ccc(N[C@H](O)c2cc([O-])n(-c3ccc4c(c3)OCCO4)c2)c([O-])c1S(=O)(=O)C1CC1 (nonaromatic ring conformer: 360.4226565312445 kcal/mol)

>  <smiles>  (16) 
Cc1ccc(NC(O)c2cc(O)n(-c3ccc4c(c3)OCCO4)c2)c(O)c1S(=O)(=O)C1CC1

>  <score_type>  (16) 
oracle

>  <origin>  (16) 
adgpu

>  <m_score__min__energy>  (16) 
-13.949999999999999

>  <m_primary>  (16) 
energy

$$$$
16:0
     RDKit          3D

 65 68  0  0  0  0  0  0  0  0999 V2000
   -7.8580   22.8720  -31.1340 C   0  0  0  0  0  0  0  0  0  0  0  0
   -6.5370   22.4040  -31.6900 C   0  0  0  0  0  0  0  0  0  0  0  0
   -6.5480   21.3230  -32.5860 C   0  0  0  0  0  0  0  0  0  0  0  0
   -5.3660   20.8500  -33.1490 C   0  0  0  0  0  0  0  0  0  0  0  0
   -4.1480   21.4600  -32.8500 C   0  0  0  0  0  0  0  0  0  0  0  0
   -2.9470   20.9390  -33.4370 N   0  0  0  0  0  0  0  0  0  0  0  0
   -2.2670   19.7800  -32.9270 C   0  0  0  0  0  0  0  0  0  0  0  0
   -2.7800   19.0970  -32.0010 O   0  0  0  0  0  0  0  0  0  0  0  0
   -1.0170   19.3570  -33.4840 N   0  0  0  0  0  0  0  0  0  0  0  0
   -0.0540   20.2070  -34.1210 C   0  0  0  0  0  0  0  0  0  0  0  0
   -0.4920   21.1280  -35.0800 C   0  0  0  0  0  0  0  0  0  0  0  0
    0.4260   21.9520  -35.7390 C   0  0  0  0  0  0  0  0  0  0  0  0
    1.7940   21.8520  -35.4560 C   0  0  0  0  0  0  0  0  0  0  0  0
    2.9390   22.8790  -36.3140 S   0  0  0  0  0  0  0  0  0  0  0  0
    3.8860   23.4890  -35.3190 O   0  0  0  0  0  0  0  0  0  0  0  0
    3.7350   22.0690  -37.3000 O   0  0  0  0  0  0  0  0  0  0  0  0
    2.1000   24.1470  -37.1550 N   0  0  0  0  0  0  0  0  0  0  0  0
    1.7390   25.2080  -36.2180 C   0  0  0  0  0  0  0  0  0  0  0  0
    1.0720   26.3530  -36.9810 C   0  0  0  0  0  0  0  0  0  0  0  0
   -0.2600   26.6460  -36.4190 N   0  0  0  0  0  0  0  0  0  0  0  0
   -0.2010   27.2200  -35.0630 C   0  0  0  0  0  0  0  0  0  0  0  0
   -1.2600   28.3160  -34.9710 C   0  0  0  0  0  0  0  0  0  0  0  0
   -1.9540   28.3230  -36.3160 C   0  0  0  0  0  0  0  0  0  0  0  0
   -0.9850   27.6190  -37.2410 C   0  0  0  0  0  0  0  0  0  0  0  0
    2.2400   20.9090  -34.5190 C   0  0  0  0  0  0  0  0  0  0  0  0
    1.3210   20.0860  -33.8590 C   0  0  0  0  0  0  0  0  0  0  0  0
   -4.1100   22.5300  -31.9380 C   0  0  0  0  0  0  0  0  0  0  0  0
   -2.8800   23.0780  -31.5900 O   0  0  0  0  0  0  0  0  0  0  0  0
   -5.3020   23.0270  -31.3610 C   0  0  0  0  0  0  0  0  0  0  0  0
   -5.2070   24.3940  -30.2140 S   0  0  0  0  0  0  0  0  0  0  0  0
   -4.3040   25.4540  -30.7780 O   0  0  0  0  0  0  0  0  0  0  0  0
   -6.5610   25.0220  -30.0370 O   0  0  0  0  0  0  0  0  0  0  0  0
   -4.5870   23.9180  -28.5900 C   0  0  0  0  0  0  0  0  0  0  0  0
   -4.2430   22.4370  -28.4340 C   0  0  0  0  0  0  0  0  0  0  0  0
   -2.7790   22.8000  -28.2210 C   0  0  0  0  0  0  0  0  0  0  0  0
   -3.1200   24.2770  -28.3610 C   0  0  0  0  0  0  0  0  0  0  0  0
   -7.8188   22.8581  -30.0348 H   0  0  0  0  0  0  0  0  0  0  0  0
   -8.0596   23.8963  -31.4808 H   0  0  0  0  0  0  0  0  0  0  0  0
   -8.6594   22.2031  -31.4808 H   0  0  0  0  0  0  0  0  0  0  0  0
   -7.5032   20.8436  -32.8465 H   0  0  0  0  0  0  0  0  0  0  0  0
   -5.3928   19.9897  -33.8340 H   0  0  0  0  0  0  0  0  0  0  0  0
   -2.4960   21.5020  -34.1920 H   0  0  0  0  0  0  0  0  0  0  0  0
   -1.5636   21.2040  -35.3164 H   0  0  0  0  0  0  0  0  0  0  0  0
    0.0722   22.6815  -36.4825 H   0  0  0  0  0  0  0  0  0  0  0  0
    1.0406   24.8119  -35.4661 H   0  0  0  0  0  0  0  0  0  0  0  0
    2.6446   25.5790  -35.7158 H   0  0  0  0  0  0  0  0  0  0  0  0
    1.7014   27.2520  -36.9063 H   0  0  0  0  0  0  0  0  0  0  0  0
    0.9549   26.0564  -38.0338 H   0  0  0  0  0  0  0  0  0  0  0  0
   -0.4064   26.4382  -34.3169 H   0  0  0  0  0  0  0  0  0  0  0  0
    0.7984   27.6352  -34.8658 H   0  0  0  0  0  0  0  0  0  0  0  0
   -1.9783   28.0900  -34.1691 H   0  0  0  0  0  0  0  0  0  0  0  0
   -0.8150   29.2943  -34.7368 H   0  0  0  0  0  0  0  0  0  0  0  0
   -2.9087   27.7789  -36.2646 H   0  0  0  0  0  0  0  0  0  0  0  0
   -2.1975   29.3398  -36.6577 H   0  0  0  0  0  0  0  0  0  0  0  0
   -1.5320   27.1050  -38.0451 H   0  0  0  0  0  0  0  0  0  0  0  0
   -0.2953   28.3334  -37.7142 H   0  0  0  0  0  0  0  0  0  0  0  0
    3.3145   20.8161  -34.3024 H   0  0  0  0  0  0  0  0  0  0  0  0
    1.6765   19.3411  -33.1319 H   0  0  0  0  0  0  0  0  0  0  0  0
   -5.3836   24.3628  -27.9755 H   0  0  0  0  0  0  0  0  0  0  0  0
   -4.7170   21.9548  -27.5664 H   0  0  0  0  0  0  0  0  0  0  0  0
   -4.5300   21.7137  -29.2115 H   0  0  0  0  0  0  0  0  0  0  0  0
   -2.3875   22.5220  -27.2313 H   0  0  0  0  0  0  0  0  0  0  0  0
   -1.9978   22.3485  -28.8502 H   0  0  0  0  0  0  0  0  0  0  0  0
   -2.9392   24.8677  -27.4508 H   0  0  0  0  0  0  0  0  0  0  0  0
   -2.5816   24.9060  -29.0852 H   0  0  0  0  0  0  0  0  0  0  0  0
  1  2  1  0
  2  3  2  0
  3  4  1  0
  4  5  2  0
  5  6  1  0
  6  7  1  0
  7  8  2  0
  7  9  1  0
  9 10  1  0
 10 11  2  0
 11 12  1  0
 12 13  2  0
 13 14  1  0
 14 15  2  0
 14 16  2  0
 14 17  1  0
 17 18  1  0
 18 19  1  0
 19 20  1  0
 20 21  1  0
 21 22  1  0
 22 23  1  0
 23 24  1  0
 13 25  1  0
 25 26  2  0
  5 27  1  0
 27 28  1  0
 27 29  2  0
 29 30  1  0
 30 31  2  0
 30 32  2  0
 30 33  1  0
 33 34  1  0
 34 35  1  0
 35 36  1  0
 29  2  1  0
 36 33  1  0
 26 10  1  0
 24 20  1  0
  1 37  1  0
  1 38  1  0
  1 39  1  0
  3 40  1  0
  4 41  1  0
  6 42  1  0
 11 43  1  0
 12 44  1  0
 18 45  1  0
 18 46  1  0
 19 47  1  0
 19 48  1  0
 21 49  1  0
 21 50  1  0
 22 51  1  0
 22 52  1  0
 23 53  1  0
 23 54  1  0
 24 55  1  0
 24 56  1  0
 25 57  1  0
 26 58  1  0
 33 59  1  0
 34 60  1  0
 34 61  1  0
 35 62  1  0
 35 63  1  0
 36 64  1  0
 36 65  1  0
M  CHG  3   9  -1  17  -1  28  -1
M  END
>  <UniqueID>  (17) 
16

>  <SMILES>  (17) 
Cc1ccc(NC(=O)[N-]c2ccc(S(=O)(=O)[N-]CCN3CCCC3)cc2)c([O-])c1S(=O)(=O)C1CCC1

>  <Energy>  (17) 
137.29629375849154

>  <Genealogy>  (17) 
Cc1ccc(NC(=O)[N-]c2ccc(S(=O)(=O)[N-]CCN3CCCC3)cc2)c([O-])c1S(=O)(=O)C1CCC1 (protonated)
Cc1ccc(NC(=O)[N-]c2ccc(S(=O)(=O)[N-]CCN3CCCC3)cc2)c([O-])c1S(=O)(=O)C1CCC1 (3D coordinates assigned)
Cc1ccc(NC(=O)[N-]c2ccc(S(=O)(=O)[N-]CCN3CCCC3)cc2)c([O-])c1S(=O)(=O)C1CCC1 (nonaromatic ring conformer: 137.29629375849154 kcal/mol)

>  <smiles>  (17) 
Cc1ccc(NC(=O)Nc2ccc(S(=O)(=O)NCCN3CCCC3)cc2)c(O)c1S(=O)(=O)C1CCC1

>  <score_type>  (17) 
oracle

>  <origin>  (17) 
adgpu

>  <m_score__min__energy>  (17) 
-14.48

>  <m_primary>  (17) 
energy

$$$$
17:0
     RDKit          3D

 42 44  0  0  0  0  0  0  0  0999 V2000
   -6.4560   16.1680  -34.2150 C   0  0  0  0  0  0  0  0  0  0  0  0
   -5.9310   17.4420  -34.5740 O   0  0  0  0  0  0  0  0  0  0  0  0
   -6.0130   18.5870  -33.7680 C   0  0  0  0  0  0  0  0  0  0  0  0
   -5.0650   19.6240  -33.8310 C   0  0  0  0  0  0  0  0  0  0  0  0
   -5.1960   20.7490  -33.0130 C   0  0  0  0  0  0  0  0  0  0  0  0
   -6.2750   20.8620  -32.1190 C   0  0  0  0  0  0  0  0  0  0  0  0
   -6.4290   22.0800  -31.2920 C   0  0  0  0  0  0  0  0  0  0  0  0
   -5.6170   23.1560  -31.3930 N   0  0  0  0  0  0  0  0  0  0  0  0
   -6.0020   24.1730  -30.5760 C   0  0  0  0  0  0  0  0  0  0  0  0
   -5.2920   25.4920  -30.5740 C   0  0  0  0  0  0  0  0  0  0  0  0
   -3.8600   25.3040  -30.8170 N   0  0  0  0  0  0  0  0  0  0  0  0
   -3.0840   24.5120  -29.4750 S   0  0  0  0  0  0  0  0  0  0  0  0
   -1.9880   25.3960  -28.9510 O   0  0  0  0  0  0  0  0  0  0  0  0
   -4.0860   24.2900  -28.3750 O   0  0  0  0  0  0  0  0  0  0  0  0
   -2.3770   22.9780  -29.9790 C   0  0  0  0  0  0  0  0  0  0  0  0
   -2.6790   22.4240  -31.2310 C   0  0  0  0  0  0  0  0  0  0  0  0
   -2.0820   21.2270  -31.6330 C   0  0  0  0  0  0  0  0  0  0  0  0
   -1.1620   20.5780  -30.7960 C   0  0  0  0  0  0  0  0  0  0  0  0
   -0.5220   19.2910  -31.2230 C   0  0  0  0  0  0  0  0  0  0  0  0
   -0.8810   21.1200  -29.5320 C   0  0  0  0  0  0  0  0  0  0  0  0
   -1.4840   22.3130  -29.1280 C   0  0  0  0  0  0  0  0  0  0  0  0
   -7.1320   23.9180  -29.8040 C   0  0  0  0  0  0  0  0  0  0  0  0
   -7.6580   22.3660  -30.1750 S   0  0  0  0  0  0  0  0  0  0  0  0
   -7.2150   19.8200  -32.0540 C   0  0  0  0  0  0  0  0  0  0  0  0
   -7.0820   18.6940  -32.8720 C   0  0  0  0  0  0  0  0  0  0  0  0
   -6.4916   16.0817  -33.1190 H   0  0  0  0  0  0  0  0  0  0  0  0
   -7.4714   16.0613  -34.6244 H   0  0  0  0  0  0  0  0  0  0  0  0
   -5.8106   15.3769  -34.6244 H   0  0  0  0  0  0  0  0  0  0  0  0
   -4.2168   19.5490  -34.5273 H   0  0  0  0  0  0  0  0  0  0  0  0
   -4.4481   21.5536  -33.0690 H   0  0  0  0  0  0  0  0  0  0  0  0
   -5.7126   26.1307  -31.3647 H   0  0  0  0  0  0  0  0  0  0  0  0
   -5.4267   25.9671  -29.5911 H   0  0  0  0  0  0  0  0  0  0  0  0
   -3.3887   22.9339  -31.8991 H   0  0  0  0  0  0  0  0  0  0  0  0
   -2.3345   20.7910  -32.6108 H   0  0  0  0  0  0  0  0  0  0  0  0
   -0.2340   18.7118  -30.3333 H   0  0  0  0  0  0  0  0  0  0  0  0
   -1.2354   18.7086  -31.8245 H   0  0  0  0  0  0  0  0  0  0  0  0
    0.3730   19.5084  -31.8245 H   0  0  0  0  0  0  0  0  0  0  0  0
   -0.1831   20.6030  -28.8571 H   0  0  0  0  0  0  0  0  0  0  0  0
   -1.2569   22.7328  -28.1369 H   0  0  0  0  0  0  0  0  0  0  0  0
   -7.5959   24.6069  -29.0827 H   0  0  0  0  0  0  0  0  0  0  0  0
   -8.0613   19.8905  -31.3549 H   0  0  0  0  0  0  0  0  0  0  0  0
   -7.8247   17.8849  -32.8105 H   0  0  0  0  0  0  0  0  0  0  0  0
  1  2  1  0
  2  3  1  0
  3  4  2  0
  4  5  1  0
  5  6  2  0
  6  7  1  0
  7  8  2  0
  8  9  1  0
  9 10  1  0
 10 11  1  0
 11 12  1  0
 12 13  2  0
 12 14  2  0
 12 15  1  0
 15 16  2  0
 16 17  1  0
 17 18  2  0
 18 19  1  0
 18 20  1  0
 20 21  2  0
  9 22  2  0
 22 23  1  0
  6 24  1  0
 24 25  2  0
 25  3  1  0
 23  7  1  0
 21 15  1  0
  1 26  1  0
  1 27  1  0
  1 28  1  0
  4 29  1  0
  5 30  1  0
 10 31  1  0
 10 32  1  0
 16 33  1  0
 17 34  1  0
 19 35  1  0
 19 36  1  0
 19 37  1  0
 20 38  1  0
 21 39  1  0
 22 40  1  0
 24 41  1  0
 25 42  1  0
M  CHG  1  11  -1
M  END
>  <UniqueID>  (18) 
17

>  <SMILES>  (18) 
COc1ccc(-c2nc(C[N-]S(=O)(=O)c3ccc(C)cc3)cs2)cc1

>  <Energy>  (18) 
65.22789269595906

>  <Genealogy>  (18) 
COc1ccc(-c2nc(C[N-]S(=O)(=O)c3ccc(C)cc3)cs2)cc1 (protonated)
COc1ccc(-c2nc(C[N-]S(=O)(=O)c3ccc(C)cc3)cs2)cc1 (3D coordinates assigned)
COc1ccc(-c2nc(C[N-]S(=O)(=O)c3ccc(C)cc3)cs2)cc1 (optimized conformer: 65.22789269595906 kcal/mol)

>  <smiles>  (18) 
COc1ccc(-c2nc(CNS(=O)(=O)c3ccc(C)cc3)cs2)cc1

>  <score_type>  (18) 
oracle

>  <origin>  (18) 
adgpu

>  <m_score__min__energy>  (18) 
-9.9000000000000004

>  <m_primary>  (18) 
energy

$$$$
18:0
     RDKit          3D

 49 52  0  0  0  0  0  0  0  0999 V2000
   -5.3760   26.6330  -30.4730 O   0  0  0  0  0  0  0  0  0  0  0  0
   -5.0650   25.2690  -29.9310 S   0  0  0  0  0  0  0  0  0  0  0  0
   -5.4480   25.2090  -28.4800 O   0  0  0  0  0  0  0  0  0  0  0  0
   -3.3700   24.9460  -30.0900 N   0  0  0  0  0  0  0  0  0  0  0  0
   -2.8170   23.6280  -30.1710 C   0  0  0  0  0  0  0  0  0  0  0  0
   -1.9100   23.1480  -29.2180 C   0  0  0  0  0  0  0  0  0  0  0  0
   -1.3730   21.8620  -29.3400 C   0  0  0  0  0  0  0  0  0  0  0  0
   -1.7210   21.0580  -30.4250 C   0  0  0  0  0  0  0  0  0  0  0  0
   -2.6100   21.5400  -31.4040 C   0  0  0  0  0  0  0  0  0  0  0  0
   -2.9800   20.5690  -32.8280 S   0  0  0  0  0  0  0  0  0  0  0  0
   -4.1820   21.1620  -33.5010 O   0  0  0  0  0  0  0  0  0  0  0  0
   -3.3410   19.1780  -32.3890 O   0  0  0  0  0  0  0  0  0  0  0  0
   -1.6710   20.5210  -33.9950 N   0  0  0  0  0  0  0  0  0  0  0  0
   -0.5760   21.4580  -33.6730 C   0  0  0  0  0  0  0  0  0  0  0  0
    0.6040   20.7700  -32.9610 C   0  0  0  0  0  0  0  0  0  0  0  0
    0.1640   19.6370  -32.2470 O   0  0  0  0  0  0  0  0  0  0  0  0
   -0.2690   18.6280  -33.1420 C   0  0  0  0  0  0  0  0  0  0  0  0
   -1.1860   19.1590  -34.2650 C   0  0  0  0  0  0  0  0  0  0  0  0
   -3.1800   22.8110  -31.2480 C   0  0  0  0  0  0  0  0  0  0  0  0
   -5.9490   24.0310  -30.7980 C   0  0  0  0  0  0  0  0  0  0  0  0
   -6.5930   24.1800  -32.0140 C   0  0  0  0  0  0  0  0  0  0  0  0
   -7.1330   22.9810  -32.4960 C   0  0  0  0  0  0  0  0  0  0  0  0
   -6.9050   21.8820  -31.6610 C   0  0  0  0  0  0  0  0  0  0  0  0
   -7.3150   20.4740  -31.9000 C   0  0  0  0  0  0  0  0  0  0  0  0
   -8.6580   20.0850  -31.7180 C   0  0  0  0  0  0  0  0  0  0  0  0
   -9.0490   18.7600  -31.9290 C   0  0  0  0  0  0  0  0  0  0  0  0
   -8.1100   17.8050  -32.3220 C   0  0  0  0  0  0  0  0  0  0  0  0
   -6.7770   18.1730  -32.5040 C   0  0  0  0  0  0  0  0  0  0  0  0
   -6.3790   19.4980  -32.2960 C   0  0  0  0  0  0  0  0  0  0  0  0
   -6.0330   22.4270  -30.3250 S   0  0  0  0  0  0  0  0  0  0  0  0
   -1.6186   23.7849  -28.3698 H   0  0  0  0  0  0  0  0  0  0  0  0
   -0.6748   21.4842  -28.5785 H   0  0  0  0  0  0  0  0  0  0  0  0
   -1.3002   20.0458  -30.5158 H   0  0  0  0  0  0  0  0  0  0  0  0
   -0.2098   21.9063  -34.6084 H   0  0  0  0  0  0  0  0  0  0  0  0
   -0.9796   22.2186  -32.9885 H   0  0  0  0  0  0  0  0  0  0  0  0
    1.3459   20.4583  -33.7109 H   0  0  0  0  0  0  0  0  0  0  0  0
    1.0527   21.4818  -32.2525 H   0  0  0  0  0  0  0  0  0  0  0  0
    0.6169   18.1672  -33.6034 H   0  0  0  0  0  0  0  0  0  0  0  0
   -0.8561   17.9045  -32.5573 H   0  0  0  0  0  0  0  0  0  0  0  0
   -0.6212   19.1656  -35.2089 H   0  0  0  0  0  0  0  0  0  0  0  0
   -2.0620   18.4964  -34.3245 H   0  0  0  0  0  0  0  0  0  0  0  0
   -3.9196   23.1698  -31.9789 H   0  0  0  0  0  0  0  0  0  0  0  0
   -6.6724   25.1395  -32.5461 H   0  0  0  0  0  0  0  0  0  0  0  0
   -7.6858   22.9100  -33.4443 H   0  0  0  0  0  0  0  0  0  0  0  0
   -9.4044   20.8309  -31.4073 H   0  0  0  0  0  0  0  0  0  0  0  0
  -10.0999   18.4688  -31.7849 H   0  0  0  0  0  0  0  0  0  0  0  0
   -8.4210   16.7630  -32.4880 H   0  0  0  0  0  0  0  0  0  0  0  0
   -6.0369   17.4197  -32.8118 H   0  0  0  0  0  0  0  0  0  0  0  0
   -5.3261   19.7804  -32.4429 H   0  0  0  0  0  0  0  0  0  0  0  0
  1  2  2  0
  2  3  2  0
  2  4  1  0
  4  5  1  0
  5  6  2  0
  6  7  1  0
  7  8  2  0
  8  9  1  0
  9 10  1  0
 10 11  2  0
 10 12  2  0
 10 13  1  0
 13 14  1  0
 14 15  1  0
 15 16  1  0
 16 17  1  0
 17 18  1  0
  9 19  2  0
  2 20  1  0
 20 21  2  0
 21 22  1  0
 22 23  2  0
 23 24  1  0
 24 25  2  0
 25 26  1  0
 26 27  2  0
 27 28  1  0
 28 29  2  0
 23 30  1  0
 19  5  1  0
 30 20  1  0
 18 13  1  0
 29 24  1  0
  6 31  1  0
  7 32  1  0
  8 33  1  0
 14 34  1  0
 14 35  1  0
 15 36  1  0
 15 37  1  0
 17 38  1  0
 17 39  1  0
 18 40  1  0
 18 41  1  0
 19 42  1  0
 21 43  1  0
 22 44  1  0
 25 45  1  0
 26 46  1  0
 27 47  1  0
 28 48  1  0
 29 49  1  0
M  CHG  1   4  -1
M  END
>  <UniqueID>  (19) 
18

>  <SMILES>  (19) 
O=S(=O)([N-]c1cccc(S(=O)(=O)N2CCOCC2)c1)c1ccc(-c2ccccc2)s1

>  <Energy>  (19) 
95.04307625824029

>  <Genealogy>  (19) 
O=S(=O)([N-]c1cccc(S(=O)(=O)N2CCOCC2)c1)c1ccc(-c2ccccc2)s1 (protonated)
O=S(=O)([N-]c1cccc(S(=O)(=O)N2CCOCC2)c1)c1ccc(-c2ccccc2)s1 (3D coordinates assigned)
O=S(=O)([N-]c1cccc(S(=O)(=O)N2CCOCC2)c1)c1ccc(-c2ccccc2)s1 (nonaromatic ring conformer: 95.04307625824029 kcal/mol)

>  <smiles>  (19) 
O=S(=O)(Nc1cccc(S(=O)(=O)N2CCOCC2)c1)c1ccc(-c2ccccc2)s1

>  <score_type>  (19) 
oracle

>  <origin>  (19) 
adgpu

>  <m_score__min__energy>  (19) 
-11.33

>  <m_primary>  (19) 
energy

$$$$
19:0
     RDKit          3D

 46 48  0  0  0  0  0  0  0  0999 V2000
   -5.7370   26.1980  -30.8510 O   0  0  0  0  0  0  0  0  0  0  0  0
   -5.1760   24.9580  -30.2110 S   0  0  0  0  0  0  0  0  0  0  0  0
   -5.4450   25.0210  -28.7350 O   0  0  0  0  0  0  0  0  0  0  0  0
   -3.4530   24.9180  -30.4720 N   0  0  0  0  0  0  0  0  0  0  0  0
   -2.7010   24.9070  -29.2140 C   0  0  0  0  0  0  0  0  0  0  0  0
   -2.5230   23.5100  -28.6760 C   0  0  0  0  0  0  0  0  0  0  0  0
   -1.2970   22.8440  -28.8320 C   0  0  0  0  0  0  0  0  0  0  0  0
   -1.1350   21.5460  -28.3370 C   0  0  0  0  0  0  0  0  0  0  0  0
   -2.1900   20.9090  -27.6770 C   0  0  0  0  0  0  0  0  0  0  0  0
   -1.9660   19.1350  -27.0050 Br  0  0  0  0  0  0  0  0  0  0  0  0
   -3.4090   21.5720  -27.5070 C   0  0  0  0  0  0  0  0  0  0  0  0
   -3.5750   22.8700  -27.9990 C   0  0  0  0  0  0  0  0  0  0  0  0
   -5.9710   23.5280  -30.8680 C   0  0  0  0  0  0  0  0  0  0  0  0
   -5.3470   22.2740  -30.8150 C   0  0  0  0  0  0  0  0  0  0  0  0
   -6.0190   21.1350  -31.2640 C   0  0  0  0  0  0  0  0  0  0  0  0
   -7.3240   21.2380  -31.7660 C   0  0  0  0  0  0  0  0  0  0  0  0
   -8.2140   19.7850  -32.2290 S   0  0  0  0  0  0  0  0  0  0  0  0
   -9.5190   20.1830  -32.8590 O   0  0  0  0  0  0  0  0  0  0  0  0
   -8.5180   18.9780  -30.9960 O   0  0  0  0  0  0  0  0  0  0  0  0
   -7.2970   18.8040  -33.3520 N   0  0  0  0  0  0  0  0  0  0  0  0
   -6.9510   17.4850  -32.7660 C   0  0  0  0  0  0  0  0  0  0  0  0
   -5.4830   17.4290  -32.3030 C   0  0  0  0  0  0  0  0  0  0  0  0
   -4.5530   17.6740  -33.3490 O   0  0  0  0  0  0  0  0  0  0  0  0
   -5.0280   18.5780  -34.3400 C   0  0  0  0  0  0  0  0  0  0  0  0
   -6.1100   19.5460  -33.8330 C   0  0  0  0  0  0  0  0  0  0  0  0
   -7.9320   22.4990  -31.8560 C   0  0  0  0  0  0  0  0  0  0  0  0
   -7.2580   23.6370  -31.4100 C   0  0  0  0  0  0  0  0  0  0  0  0
   -1.7092   25.3495  -29.3890 H   0  0  0  0  0  0  0  0  0  0  0  0
   -3.2697   25.4873  -28.4725 H   0  0  0  0  0  0  0  0  0  0  0  0
   -0.4621   23.3441  -29.3446 H   0  0  0  0  0  0  0  0  0  0  0  0
   -0.1750   21.0250  -28.4673 H   0  0  0  0  0  0  0  0  0  0  0  0
   -4.2384   21.0718  -26.9856 H   0  0  0  0  0  0  0  0  0  0  0  0
   -4.5325   23.3922  -27.8557 H   0  0  0  0  0  0  0  0  0  0  0  0
   -4.3247   22.1867  -30.4185 H   0  0  0  0  0  0  0  0  0  0  0  0
   -5.5229   20.1541  -31.2237 H   0  0  0  0  0  0  0  0  0  0  0  0
   -7.9230   18.6340  -34.1740 H   0  0  0  0  0  0  0  0  0  0  0  0
   -7.6041   17.2980  -31.9008 H   0  0  0  0  0  0  0  0  0  0  0  0
   -7.0927   16.7193  -33.5429 H   0  0  0  0  0  0  0  0  0  0  0  0
   -5.3350   18.1871  -31.5198 H   0  0  0  0  0  0  0  0  0  0  0  0
   -5.2968   16.4095  -31.9343 H   0  0  0  0  0  0  0  0  0  0  0  0
   -4.1763   19.1709  -34.7048 H   0  0  0  0  0  0  0  0  0  0  0  0
   -5.4893   17.9699  -35.1321 H   0  0  0  0  0  0  0  0  0  0  0  0
   -5.6996   20.1443  -33.0062 H   0  0  0  0  0  0  0  0  0  0  0  0
   -6.4157   20.1988  -34.6639 H   0  0  0  0  0  0  0  0  0  0  0  0
   -8.9431   22.5912  -32.2794 H   0  0  0  0  0  0  0  0  0  0  0  0
   -7.7394   24.6233  -31.4844 H   0  0  0  0  0  0  0  0  0  0  0  0
  1  2  2  0
  2  3  2  0
  2  4  1  0
  4  5  1  0
  5  6  1  0
  6  7  2  0
  7  8  1  0
  8  9  2  0
  9 10  1  0
  9 11  1  0
 11 12  2  0
  2 13  1  0
 13 14  2  0
 14 15  1  0
 15 16  2  0
 16 17  1  0
 17 18  2  0
 17 19  2  0
 17 20  1  0
 20 21  1  0
 21 22  1  0
 22 23  1  0
 23 24  1  0
 24 25  1  0
 16 26  1  0
 26 27  2  0
 12  6  1  0
 27 13  1  0
 25 20  1  0
  5 28  1  0
  5 29  1  0
  7 30  1  0
  8 31  1  0
 11 32  1  0
 12 33  1  0
 14 34  1  0
 15 35  1  0
 20 36  1  0
 21 37  1  0
 21 38  1  0
 22 39  1  0
 22 40  1  0
 24 41  1  0
 24 42  1  0
 25 43  1  0
 25 44  1  0
 26 45  1  0
 27 46  1  0
M  CHG  2   4  -1  20   1
M  END
>  <UniqueID>  (20) 
19

>  <SMILES>  (20) 
O=S(=O)([N-]Cc1ccc(Br)cc1)c1ccc(S(=O)(=O)[NH+]2CCOCC2)cc1

>  <Energy>  (20) 
56.295358402410244

>  <Genealogy>  (20) 
O=S(=O)([N-]Cc1ccc(Br)cc1)c1ccc(S(=O)(=O)[NH+]2CCOCC2)cc1 (protonated)
O=S(=O)([N-]Cc1ccc(Br)cc1)c1ccc(S(=O)(=O)[NH+]2CCOCC2)cc1 (3D coordinates assigned)
O=S(=O)([N-]Cc1ccc(Br)cc1)c1ccc(S(=O)(=O)[NH+]2CCOCC2)cc1 (nonaromatic ring conformer: 56.295358402410244 kcal/mol)

>  <smiles>  (20) 
O=S(=O)(NCc1ccc(Br)cc1)c1ccc(S(=O)(=O)N2CCOCC2)cc1

>  <score_type>  (20) 
oracle

>  <origin>  (20) 
adgpu

>  <m_score__min__energy>  (20) 
-11.449999999999999

>  <m_primary>  (20) 
energy

$$$$
20:0
     RDKit          3D

 45 47  0  0  0  0  0  0  0  0999 V2000
   -3.2500   18.4740  -34.2160 C   0  0  0  0  0  0  0  0  0  0  0  0
   -4.4860   19.0080  -33.5450 C   0  0  0  0  0  0  0  0  0  0  0  0
   -5.6090   18.1740  -33.4100 C   0  0  0  0  0  0  0  0  0  0  0  0
   -6.7750   18.6420  -32.8050 C   0  0  0  0  0  0  0  0  0  0  0  0
   -6.8360   19.9510  -32.3170 C   0  0  0  0  0  0  0  0  0  0  0  0
   -8.3290   20.5980  -31.6440 S   0  0  0  0  0  0  0  0  0  0  0  0
   -9.1510   19.4650  -31.0950 O   0  0  0  0  0  0  0  0  0  0  0  0
   -9.1300   21.3240  -32.6910 O   0  0  0  0  0  0  0  0  0  0  0  0
   -7.9260   21.6900  -30.3600 N   0  0  0  0  0  0  0  0  0  0  0  0
   -6.9530   22.7340  -30.4820 C   0  0  0  0  0  0  0  0  0  0  0  0
   -6.8320   23.4960  -31.6530 C   0  0  0  0  0  0  0  0  0  0  0  0
   -5.8480   24.4830  -31.7510 C   0  0  0  0  0  0  0  0  0  0  0  0
   -4.9560   24.7070  -30.6980 C   0  0  0  0  0  0  0  0  0  0  0  0
   -3.9530   25.6600  -30.8800 O   0  0  0  0  0  0  0  0  0  0  0  0
   -5.0760   23.9510  -29.5080 C   0  0  0  0  0  0  0  0  0  0  0  0
   -4.1630   24.1480  -28.3610 C   0  0  0  0  0  0  0  0  0  0  0  0
   -4.5940   24.7340  -27.3330 O   0  0  0  0  0  0  0  0  0  0  0  0
   -2.7770   23.6120  -28.3580 C   0  0  0  0  0  0  0  0  0  0  0  0
   -2.5360   22.3310  -27.8250 C   0  0  0  0  0  0  0  0  0  0  0  0
   -1.2510   21.7870  -27.8330 C   0  0  0  0  0  0  0  0  0  0  0  0
   -0.1850   22.5130  -28.3670 C   0  0  0  0  0  0  0  0  0  0  0  0
   -0.4010   23.7930  -28.8800 C   0  0  0  0  0  0  0  0  0  0  0  0
   -1.6840   24.3540  -28.8680 C   0  0  0  0  0  0  0  0  0  0  0  0
   -1.8500   25.6510  -29.3420 O   0  0  0  0  0  0  0  0  0  0  0  0
   -6.0920   22.9850  -29.4100 C   0  0  0  0  0  0  0  0  0  0  0  0
   -5.7170   20.7830  -32.4220 C   0  0  0  0  0  0  0  0  0  0  0  0
   -4.5300   20.3220  -33.0170 C   0  0  0  0  0  0  0  0  0  0  0  0
   -3.3550   21.2570  -33.1300 C   0  0  0  0  0  0  0  0  0  0  0  0
   -2.5241   18.1604  -33.4513 H   0  0  0  0  0  0  0  0  0  0  0  0
   -3.5173   17.6111  -34.8437 H   0  0  0  0  0  0  0  0  0  0  0  0
   -2.8049   19.2601  -34.8437 H   0  0  0  0  0  0  0  0  0  0  0  0
   -5.5678   17.1409  -33.7856 H   0  0  0  0  0  0  0  0  0  0  0  0
   -7.6486   17.9801  -32.7115 H   0  0  0  0  0  0  0  0  0  0  0  0
   -7.5140   23.3161  -32.4971 H   0  0  0  0  0  0  0  0  0  0  0  0
   -5.7744   25.0898  -32.6656 H   0  0  0  0  0  0  0  0  0  0  0  0
   -3.0970   25.6770  -30.3400 H   0  0  0  0  0  0  0  0  0  0  0  0
   -3.3691   21.7534  -27.3980 H   0  0  0  0  0  0  0  0  0  0  0  0
   -1.0776   20.7834  -27.4174 H   0  0  0  0  0  0  0  0  0  0  0  0
    0.8246   22.0766  -28.3835 H   0  0  0  0  0  0  0  0  0  0  0  0
    0.4417   24.3645  -29.2962 H   0  0  0  0  0  0  0  0  0  0  0  0
   -6.2115   22.4177  -28.4752 H   0  0  0  0  0  0  0  0  0  0  0  0
   -5.7663   21.8111  -32.0341 H   0  0  0  0  0  0  0  0  0  0  0  0
   -3.0080   21.5331  -32.1233 H   0  0  0  0  0  0  0  0  0  0  0  0
   -2.5401   20.7576  -33.6746 H   0  0  0  0  0  0  0  0  0  0  0  0
   -3.6586   22.1632  -33.6746 H   0  0  0  0  0  0  0  0  0  0  0  0
  1  2  1  0
  2  3  2  0
  3  4  1  0
  4  5  2  0
  5  6  1  0
  6  7  2  0
  6  8  2  0
  6  9  1  0
  9 10  1  0
 10 11  2  0
 11 12  1  0
 12 13  2  0
 13 14  1  0
 13 15  1  0
 15 16  1  0
 16 17  2  0
 16 18  1  0
 18 19  2  0
 19 20  1  0
 20 21  2  0
 21 22  1  0
 22 23  2  0
 23 24  1  0
 15 25  2  0
  5 26  1  0
 26 27  2  0
 27 28  1  0
 27  2  1  0
 25 10  1  0
 23 18  1  0
  1 29  1  0
  1 30  1  0
  1 31  1  0
  3 32  1  0
  4 33  1  0
 11 34  1  0
 12 35  1  0
 14 36  1  0
 19 37  1  0
 20 38  1  0
 21 39  1  0
 22 40  1  0
 25 41  1  0
 26 42  1  0
 28 43  1  0
 28 44  1  0
 28 45  1  0
M  CHG  2   9  -1  24  -1
M  END
>  <UniqueID>  (21) 
20

>  <SMILES>  (21) 
Cc1ccc(S(=O)(=O)[N-]c2ccc(O)c(C(=O)c3ccccc3[O-])c2)cc1C

>  <Energy>  (21) 
61.48572882512226

>  <Genealogy>  (21) 
Cc1ccc(S(=O)(=O)[N-]c2ccc(O)c(C(=O)c3ccccc3[O-])c2)cc1C (protonated)
Cc1ccc(S(=O)(=O)[N-]c2ccc(O)c(C(=O)c3ccccc3[O-])c2)cc1C (3D coordinates assigned)
Cc1ccc(S(=O)(=O)[N-]c2ccc(O)c(C(=O)c3ccccc3[O-])c2)cc1C (optimized conformer: 61.48572882512226 kcal/mol)

>  <smiles>  (21) 
Cc1ccc(S(=O)(=O)Nc2ccc(O)c(C(=O)c3ccccc3O)c2)cc1C

>  <score_type>  (21) 
oracle

>  <origin>  (21) 
adgpu

>  <m_score__min__energy>  (21) 
-13.49

>  <m_primary>  (21) 
energy

$$$$
21:0
     RDKit          3D

 56 59  0  0  0  0  0  0  0  0999 V2000
   -3.9650   25.6700  -30.6480 O   0  0  0  0  0  0  0  0  0  0  0  0
   -4.0060   24.4310  -30.4120 C   0  0  0  0  0  0  0  0  0  0  0  0
   -4.7690   23.5700  -31.2670 N   0  0  0  0  0  0  0  0  0  0  0  0
   -4.3360   22.3280  -31.8430 C   0  0  0  0  0  0  0  0  0  0  0  0
   -2.9730   22.0260  -32.0090 C   0  0  0  0  0  0  0  0  0  0  0  0
   -2.5840   20.8230  -32.6030 C   0  0  0  0  0  0  0  0  0  0  0  0
   -3.5480   19.9130  -33.0510 C   0  0  0  0  0  0  0  0  0  0  0  0
   -3.0380   18.4180  -33.8310 S   0  0  0  0  0  0  0  0  0  0  0  0
   -1.7840   18.6900  -34.6130 O   0  0  0  0  0  0  0  0  0  0  0  0
   -2.7530   17.3710  -32.7900 O   0  0  0  0  0  0  0  0  0  0  0  0
   -4.3110   17.8680  -34.9000 N   0  0  0  0  0  0  0  0  0  0  0  0
   -5.5960   17.6740  -34.1800 C   0  0  0  0  0  0  0  0  0  0  0  0
   -6.1220   16.2300  -34.2160 C   0  0  0  0  0  0  0  0  0  0  0  0
   -4.9920   15.2440  -33.9320 C   0  0  0  0  0  0  0  0  0  0  0  0
   -3.8310   15.3990  -34.9300 C   0  0  0  0  0  0  0  0  0  0  0  0
   -3.8810   16.7200  -35.7210 C   0  0  0  0  0  0  0  0  0  0  0  0
   -4.9070   20.2140  -32.9000 C   0  0  0  0  0  0  0  0  0  0  0  0
   -5.3030   21.4210  -32.3070 C   0  0  0  0  0  0  0  0  0  0  0  0
   -6.6960   21.7260  -32.1710 N   0  0  0  0  0  0  0  0  0  0  0  0
   -7.1890   23.0140  -32.6550 C   0  0  0  0  0  0  0  0  0  0  0  0
   -8.5040   23.3610  -31.9500 C   0  0  0  0  0  0  0  0  0  0  0  0
   -9.4230   22.2890  -32.0400 O   0  0  0  0  0  0  0  0  0  0  0  0
   -8.9240   21.1710  -31.3300 C   0  0  0  0  0  0  0  0  0  0  0  0
   -7.6510   20.6330  -31.9890 C   0  0  0  0  0  0  0  0  0  0  0  0
   -3.2130   23.8700  -29.2850 C   0  0  0  0  0  0  0  0  0  0  0  0
   -3.6180   22.6560  -28.6910 C   0  0  0  0  0  0  0  0  0  0  0  0
   -2.8930   22.1020  -27.6320 C   0  0  0  0  0  0  0  0  0  0  0  0
   -1.7550   22.7480  -27.1500 C   0  0  0  0  0  0  0  0  0  0  0  0
   -1.3360   23.9480  -27.7260 C   0  0  0  0  0  0  0  0  0  0  0  0
   -2.0530   24.5120  -28.7880 C   0  0  0  0  0  0  0  0  0  0  0  0
   -1.5910   25.7020  -29.3390 O   0  0  0  0  0  0  0  0  0  0  0  0
   -2.2089   22.7407  -31.6694 H   0  0  0  0  0  0  0  0  0  0  0  0
   -1.5152   20.5900  -32.7191 H   0  0  0  0  0  0  0  0  0  0  0  0
   -5.4502   17.9628  -33.1286 H   0  0  0  0  0  0  0  0  0  0  0  0
   -6.3441   18.2977  -34.6912 H   0  0  0  0  0  0  0  0  0  0  0  0
   -6.9066   16.1111  -33.4542 H   0  0  0  0  0  0  0  0  0  0  0  0
   -6.5314   16.0246  -35.2161 H   0  0  0  0  0  0  0  0  0  0  0  0
   -4.6126   15.4212  -32.9148 H   0  0  0  0  0  0  0  0  0  0  0  0
   -5.3948   14.2254  -34.0331 H   0  0  0  0  0  0  0  0  0  0  0  0
   -2.8836   15.3614  -34.3723 H   0  0  0  0  0  0  0  0  0  0  0  0
   -3.9154   14.5791  -35.6585 H   0  0  0  0  0  0  0  0  0  0  0  0
   -2.8765   16.9293  -36.1174 H   0  0  0  0  0  0  0  0  0  0  0  0
   -4.6218   16.5944  -36.5244 H   0  0  0  0  0  0  0  0  0  0  0  0
   -5.6677   19.4999  -33.2484 H   0  0  0  0  0  0  0  0  0  0  0  0
   -6.4432   23.7942  -32.4427 H   0  0  0  0  0  0  0  0  0  0  0  0
   -7.3618   22.9538  -33.7397 H   0  0  0  0  0  0  0  0  0  0  0  0
   -8.2996   23.5722  -30.8900 H   0  0  0  0  0  0  0  0  0  0  0  0
   -8.9433   24.2427  -32.4395 H   0  0  0  0  0  0  0  0  0  0  0  0
   -8.6958   21.4723  -30.2970 H   0  0  0  0  0  0  0  0  0  0  0  0
   -9.6871   20.3788  -31.3378 H   0  0  0  0  0  0  0  0  0  0  0  0
   -7.2047   19.8594  -31.3469 H   0  0  0  0  0  0  0  0  0  0  0  0
   -7.9010   20.1981  -32.9680 H   0  0  0  0  0  0  0  0  0  0  0  0
   -4.5143   22.1397  -29.0654 H   0  0  0  0  0  0  0  0  0  0  0  0
   -3.2206   21.1551  -27.1782 H   0  0  0  0  0  0  0  0  0  0  0  0
   -1.1872   22.3113  -26.3152 H   0  0  0  0  0  0  0  0  0  0  0  0
   -0.4372   24.4537  -27.3434 H   0  0  0  0  0  0  0  0  0  0  0  0
  1  2  2  0
  2  3  1  0
  3  4  1  0
  4  5  2  0
  5  6  1  0
  6  7  2  0
  7  8  1  0
  8  9  2  0
  8 10  2  0
  8 11  1  0
 11 12  1  0
 12 13  1  0
 13 14  1  0
 14 15  1  0
 15 16  1  0
  7 17  1  0
 17 18  2  0
 18 19  1  0
 19 20  1  0
 20 21  1  0
 21 22  1  0
 22 23  1  0
 23 24  1  0
  2 25  1  0
 25 26  2  0
 26 27  1  0
 27 28  2  0
 28 29  1  0
 29 30  2  0
 30 31  1  0
 18  4  1  0
 24 19  1  0
 30 25  1  0
 16 11  1  0
  5 32  1  0
  6 33  1  0
 12 34  1  0
 12 35  1  0
 13 36  1  0
 13 37  1  0
 14 38  1  0
 14 39  1  0
 15 40  1  0
 15 41  1  0
 16 42  1  0
 16 43  1  0
 17 44  1  0
 20 45  1  0
 20 46  1  0
 21 47  1  0
 21 48  1  0
 23 49  1  0
 23 50  1  0
 24 51  1  0
 24 52  1  0
 26 53  1  0
 27 54  1  0
 28 55  1  0
 29 56  1  0
M  CHG  2   3  -1  31  -1
M  END
>  <UniqueID>  (22) 
21

>  <SMILES>  (22) 
O=C([N-]c1ccc(S(=O)(=O)N2CCCCC2)cc1N1CCOCC1)c1ccccc1[O-]

>  <Energy>  (22) 
77.33192880743292

>  <Genealogy>  (22) 
O=C([N-]c1ccc(S(=O)(=O)N2CCCCC2)cc1N1CCOCC1)c1ccccc1[O-] (protonated)
O=C([N-]c1ccc(S(=O)(=O)N2CCCCC2)cc1N1CCOCC1)c1ccccc1[O-] (3D coordinates assigned)
O=C([N-]c1ccc(S(=O)(=O)N2CCCCC2)cc1N1CCOCC1)c1ccccc1[O-] (nonaromatic ring conformer: 77.33192880743292 kcal/mol)

>  <smiles>  (22) 
O=C(Nc1ccc(S(=O)(=O)N2CCCCC2)cc1N1CCOCC1)c1ccccc1O

>  <score_type>  (22) 
oracle

>  <origin>  (22) 
adgpu

>  <m_score__min__energy>  (22) 
-14.029999999999999

>  <m_primary>  (22) 
energy

$$$$
22:0
     RDKit          3D

 43 46  0  0  0  0  0  0  0  0999 V2000
   -9.5000   20.5570  -32.3240 C   0  0  0  0  0  0  0  0  0  0  0  0
   -9.1040   22.2920  -31.9500 S   0  0  0  0  0  0  0  0  0  0  0  0
   -7.3390   22.0060  -31.9450 C   0  0  0  0  0  0  0  0  0  0  0  0
   -6.8200   20.9650  -32.6440 N   0  0  0  0  0  0  0  0  0  0  0  0
   -5.4810   20.7180  -32.6620 C   0  0  0  0  0  0  0  0  0  0  0  0
   -4.9670   19.5600  -33.4360 C   0  0  0  0  0  0  0  0  0  0  0  0
   -3.5990   19.2210  -33.4320 C   0  0  0  0  0  0  0  0  0  0  0  0
   -3.1360   18.1310  -34.1750 C   0  0  0  0  0  0  0  0  0  0  0  0
   -4.0230   17.3720  -34.9480 C   0  0  0  0  0  0  0  0  0  0  0  0
   -3.5290   16.1780  -35.7120 C   0  0  0  0  0  0  0  0  0  0  0  0
   -5.3860   17.6980  -34.9510 C   0  0  0  0  0  0  0  0  0  0  0  0
   -5.8520   18.7880  -34.2110 C   0  0  0  0  0  0  0  0  0  0  0  0
   -4.6250   21.5570  -31.9280 C   0  0  0  0  0  0  0  0  0  0  0  0
   -5.1770   22.6300  -31.2150 C   0  0  0  0  0  0  0  0  0  0  0  0
   -4.3280   23.5410  -30.4300 C   0  0  0  0  0  0  0  0  0  0  0  0
   -4.1870   24.8560  -30.6900 N   0  0  0  0  0  0  0  0  0  0  0  0
   -3.3670   25.2900  -29.7820 O   0  0  0  0  0  0  0  0  0  0  0  0
   -3.0130   24.3010  -28.9950 C   0  0  0  0  0  0  0  0  0  0  0  0
   -2.0890   24.4380  -27.8530 C   0  0  0  0  0  0  0  0  0  0  0  0
   -1.7030   23.3060  -27.1160 C   0  0  0  0  0  0  0  0  0  0  0  0
   -0.8270   23.4320  -26.0340 C   0  0  0  0  0  0  0  0  0  0  0  0
   -0.3280   24.6870  -25.6740 C   0  0  0  0  0  0  0  0  0  0  0  0
    0.5440   24.7970  -24.5940 O   0  0  0  0  0  0  0  0  0  0  0  0
   -0.7090   25.8210  -26.4040 C   0  0  0  0  0  0  0  0  0  0  0  0
   -1.5850   25.6990  -27.4880 C   0  0  0  0  0  0  0  0  0  0  0  0
   -3.6020   23.1450  -29.3630 N   0  0  0  0  0  0  0  0  0  0  0  0
   -6.5210   22.8290  -31.2410 N   0  0  0  0  0  0  0  0  0  0  0  0
   -9.6273   19.9992  -31.3845 H   0  0  0  0  0  0  0  0  0  0  0  0
  -10.4317   20.5110  -32.9069 H   0  0  0  0  0  0  0  0  0  0  0  0
   -8.6805   20.1113  -32.9069 H   0  0  0  0  0  0  0  0  0  0  0  0
   -2.8903   19.8185  -32.8398 H   0  0  0  0  0  0  0  0  0  0  0  0
   -2.0681   17.8680  -34.1522 H   0  0  0  0  0  0  0  0  0  0  0  0
   -3.2065   15.3986  -35.0059 H   0  0  0  0  0  0  0  0  0  0  0  0
   -4.3391   15.7869  -36.3450 H   0  0  0  0  0  0  0  0  0  0  0  0
   -2.6793   16.4736  -36.3450 H   0  0  0  0  0  0  0  0  0  0  0  0
   -6.0923   17.0931  -35.5386 H   0  0  0  0  0  0  0  0  0  0  0  0
   -6.9213   19.0450  -34.2346 H   0  0  0  0  0  0  0  0  0  0  0  0
   -3.5403   21.3746  -31.9134 H   0  0  0  0  0  0  0  0  0  0  0  0
   -2.0923   22.3149  -27.3919 H   0  0  0  0  0  0  0  0  0  0  0  0
   -0.5292   22.5399  -25.4636 H   0  0  0  0  0  0  0  0  0  0  0  0
    0.2550   24.5540  -23.6540 H   0  0  0  0  0  0  0  0  0  0  0  0
   -0.3180   26.8102  -26.1238 H   0  0  0  0  0  0  0  0  0  0  0  0
   -1.8806   26.5928  -28.0569 H   0  0  0  0  0  0  0  0  0  0  0  0
  1  2  1  0
  2  3  1  0
  3  4  2  0
  4  5  1  0
  5  6  1  0
  6  7  2  0
  7  8  1  0
  8  9  2  0
  9 10  1  0
  9 11  1  0
 11 12  2  0
  5 13  2  0
 13 14  1  0
 14 15  1  0
 15 16  2  0
 16 17  1  0
 17 18  1  0
 18 19  1  0
 19 20  2  0
 20 21  1  0
 21 22  2  0
 22 23  1  0
 22 24  1  0
 24 25  2  0
 18 26  2  0
 14 27  2  0
 27  3  1  0
 12  6  1  0
 26 15  1  0
 25 19  1  0
  1 28  1  0
  1 29  1  0
  1 30  1  0
  7 31  1  0
  8 32  1  0
 10 33  1  0
 10 34  1  0
 10 35  1  0
 11 36  1  0
 12 37  1  0
 13 38  1  0
 20 39  1  0
 21 40  1  0
 23 41  1  0
 24 42  1  0
 25 43  1  0
M  END
>  <UniqueID>  (23) 
22

>  <SMILES>  (23) 
CSc1nc(-c2ccc(C)cc2)cc(-c2noc(-c3ccc(O)cc3)n2)n1

>  <Energy>  (23) 
79.79274543388904

>  <Genealogy>  (23) 
CSc1nc(-c2ccc(C)cc2)cc(-c2noc(-c3ccc(O)cc3)n2)n1 (3D coordinates assigned)
CSc1nc(-c2ccc(C)cc2)cc(-c2noc(-c3ccc(O)cc3)n2)n1 (optimized conformer: 79.79274543388904 kcal/mol)

>  <smiles>  (23) 
CSc1nc(-c2ccc(C)cc2)cc(-c2noc(-c3ccc(O)cc3)n2)n1

>  <score_type>  (23) 
oracle

>  <origin>  (23) 
adgpu

>  <m_score__min__energy>  (23) 
-9.5899999999999999

>  <m_primary>  (23) 
energy

$$$$
23:0
     RDKit          3D

 29 30  0  0  0  0  0  0  0  0999 V2000
   -4.1880   25.6870  -31.6870 H   0  0  0  0  0  0  0  0  0  0  0  0
   -4.4660   25.6240  -30.7140 O   0  0  0  0  0  0  0  0  0  0  0  0
   -4.1520   24.5110  -29.9370 C   0  0  0  0  0  0  0  0  0  0  0  0
   -4.3190   24.5460  -28.5460 C   0  0  0  0  0  0  0  0  0  0  0  0
   -4.7045   25.4557  -28.0623 H   0  0  0  0  0  0  0  0  0  0  0  0
   -3.9970   23.4280  -27.7720 C   0  0  0  0  0  0  0  0  0  0  0  0
   -4.1478   23.4540  -26.6827 H   0  0  0  0  0  0  0  0  0  0  0  0
   -3.4810   22.2700  -28.3800 C   0  0  0  0  0  0  0  0  0  0  0  0
   -3.1220   21.0750  -27.5850 C   0  0  0  0  0  0  0  0  0  0  0  0
   -3.9040   20.3179  -27.4257 H   0  0  0  0  0  0  0  0  0  0  0  0
   -1.9160   20.8430  -27.0430 C   0  0  0  0  0  0  0  0  0  0  0  0
   -1.8171   19.9650  -26.3878 H   0  0  0  0  0  0  0  0  0  0  0  0
   -0.7090   21.6720  -27.2550 C   0  0  0  0  0  0  0  0  0  0  0  0
    0.3650   21.0860  -27.5580 O   0  0  0  0  0  0  0  0  0  0  0  0
   -0.7250   23.1530  -27.1720 C   0  0  0  0  0  0  0  0  0  0  0  0
   -0.5200   23.7900  -25.9360 C   0  0  0  0  0  0  0  0  0  0  0  0
   -0.3267   23.1873  -25.0364 H   0  0  0  0  0  0  0  0  0  0  0  0
   -0.5600   25.1840  -25.8420 C   0  0  0  0  0  0  0  0  0  0  0  0
   -0.4047   25.6737  -24.8694 H   0  0  0  0  0  0  0  0  0  0  0  0
   -0.7970   25.9560  -26.9820 C   0  0  0  0  0  0  0  0  0  0  0  0
   -0.8357   27.0526  -26.9053 H   0  0  0  0  0  0  0  0  0  0  0  0
   -0.9850   25.3350  -28.2200 C   0  0  0  0  0  0  0  0  0  0  0  0
   -1.2140   26.1040  -29.3540 O   0  0  0  0  0  0  0  0  0  0  0  0
   -0.9410   23.9410  -28.3180 C   0  0  0  0  0  0  0  0  0  0  0  0
   -1.0760   23.4572  -29.2966 H   0  0  0  0  0  0  0  0  0  0  0  0
   -3.3470   22.2290  -29.7760 C   0  0  0  0  0  0  0  0  0  0  0  0
   -2.9862   21.3118  -30.2644 H   0  0  0  0  0  0  0  0  0  0  0  0
   -3.6700   23.3490  -30.5500 C   0  0  0  0  0  0  0  0  0  0  0  0
   -3.5090   23.3030  -31.9300 O   0  0  0  0  0  0  0  0  0  0  0  0
  1  2  1  0
  2  3  1  0
  3  4  2  0
  4  5  1  0
  4  6  1  0
  6  7  1  0
  6  8  2  0
  8  9  1  0
  9 10  1  0
  9 11  2  0
 11 12  1  0
 11 13  1  0
 13 14  2  0
 13 15  1  0
 15 16  2  0
 16 17  1  0
 16 18  1  0
 18 19  1  0
 18 20  2  0
 20 21  1  0
 20 22  1  0
 22 23  1  0
 22 24  2  0
 24 25  1  0
  8 26  1  0
 26 27  1  0
 26 28  2  0
 28 29  1  0
 28  3  1  0
 24 15  1  0
M  CHG  2  23  -1  29  -1
M  END
>  <UniqueID>  (24) 
23

>  <SMILES>  (24) 
O=C(/C=C\c1ccc(O)c([O-])c1)c1cccc([O-])c1

>  <Energy>  (24) 
39.839375852520455

>  <Genealogy>  (24) 
O=C(C=Cc1ccc(O)c([O-])c1)c1cccc([O-])c1 (protonated)
O=C(/C=C\c1ccc(O)c([O-])c1)c1cccc([O-])c1 (cis-trans isomerization)
O=C(/C=C\c1ccc(O)c([O-])c1)c1cccc([O-])c1 (3D coordinates assigned)
O=C(/C=C\c1ccc(O)c([O-])c1)c1cccc([O-])c1 (optimized conformer: 39.839375852520455 kcal/mol)

>  <smiles>  (24) 
O=C(C=Cc1ccc(O)c(O)c1)c1cccc(O)c1

>  <score_type>  (24) 
oracle

>  <origin>  (24) 
adgpu

>  <m_score__min__energy>  (24) 
-11.56

>  <m_primary>  (24) 
energy

$$$$
24:0
     RDKit          3D

 58 60  0  0  0  0  0  0  0  0999 V2000
   -9.5540   21.4970  -31.8390 C   0  0  0  0  0  0  0  0  0  0  0  0
   -8.1720   22.0820  -31.7090 C   0  0  0  0  0  0  0  0  0  0  0  0
   -8.0390   23.4410  -31.3810 C   0  0  0  0  0  0  0  0  0  0  0  0
   -6.7780   24.0190  -31.2300 C   0  0  0  0  0  0  0  0  0  0  0  0
   -5.6220   23.2390  -31.3780 C   0  0  0  0  0  0  0  0  0  0  0  0
   -4.3060   23.8010  -31.2520 N   0  0  0  0  0  0  0  0  0  0  0  0
   -3.9400   24.9230  -30.4410 C   0  0  0  0  0  0  0  0  0  0  0  0
   -4.6560   25.9590  -30.4750 O   0  0  0  0  0  0  0  0  0  0  0  0
   -2.7240   24.9080  -29.6830 N   0  0  0  0  0  0  0  0  0  0  0  0
   -1.8810   23.7690  -29.4530 C   0  0  0  0  0  0  0  0  0  0  0  0
   -1.1960   23.6730  -28.2360 C   0  0  0  0  0  0  0  0  0  0  0  0
   -0.3360   22.5990  -27.9920 C   0  0  0  0  0  0  0  0  0  0  0  0
   -0.1380   21.6230  -28.9690 C   0  0  0  0  0  0  0  0  0  0  0  0
   -0.7980   21.7170  -30.2020 C   0  0  0  0  0  0  0  0  0  0  0  0
   -0.5130   20.5090  -31.4580 S   0  0  0  0  0  0  0  0  0  0  0  0
   -1.2390   19.2420  -31.0960 O   0  0  0  0  0  0  0  0  0  0  0  0
    0.9560   20.1990  -31.5240 O   0  0  0  0  0  0  0  0  0  0  0  0
   -1.0560   21.0670  -33.0210 N   0  0  0  0  0  0  0  0  0  0  0  0
   -0.5850   20.1560  -34.0710 C   0  0  0  0  0  0  0  0  0  0  0  0
   -2.5220   21.1470  -33.0390 C   0  0  0  0  0  0  0  0  0  0  0  0
   -1.6670   22.7910  -30.4440 C   0  0  0  0  0  0  0  0  0  0  0  0
   -5.7440   21.8900  -31.7220 C   0  0  0  0  0  0  0  0  0  0  0  0
   -7.0070   21.2960  -31.8820 C   0  0  0  0  0  0  0  0  0  0  0  0
   -7.0980   19.5760  -32.3030 S   0  0  0  0  0  0  0  0  0  0  0  0
   -7.1900   18.7720  -31.0360 O   0  0  0  0  0  0  0  0  0  0  0  0
   -8.3260   19.3070  -33.1290 O   0  0  0  0  0  0  0  0  0  0  0  0
   -5.6790   19.1070  -33.2040 N   0  0  0  0  0  0  0  0  0  0  0  0
   -4.8810   18.1480  -32.4240 C   0  0  0  0  0  0  0  0  0  0  0  0
   -3.5180   17.9090  -33.1030 C   0  0  0  0  0  0  0  0  0  0  0  0
   -3.5600   18.1830  -34.6160 C   0  0  0  0  0  0  0  0  0  0  0  0
   -4.9160   17.7940  -35.2100 C   0  0  0  0  0  0  0  0  0  0  0  0
   -6.0780   18.5320  -34.5070 C   0  0  0  0  0  0  0  0  0  0  0  0
   -9.9728   21.3197  -30.8374 H   0  0  0  0  0  0  0  0  0  0  0  0
  -10.1993   22.1991  -32.3873 H   0  0  0  0  0  0  0  0  0  0  0  0
   -9.4991   20.5449  -32.3873 H   0  0  0  0  0  0  0  0  0  0  0  0
   -8.9395   24.0571  -31.2415 H   0  0  0  0  0  0  0  0  0  0  0  0
   -6.6904   25.0898  -30.9941 H   0  0  0  0  0  0  0  0  0  0  0  0
   -1.3355   24.4474  -27.4674 H   0  0  0  0  0  0  0  0  0  0  0  0
    0.1863   22.5229  -27.0269 H   0  0  0  0  0  0  0  0  0  0  0  0
    0.5376   20.7777  -28.7713 H   0  0  0  0  0  0  0  0  0  0  0  0
   -0.1266   19.2694  -33.6087 H   0  0  0  0  0  0  0  0  0  0  0  0
   -1.4355   19.8455  -34.6956 H   0  0  0  0  0  0  0  0  0  0  0  0
    0.1601   20.6704  -34.6956 H   0  0  0  0  0  0  0  0  0  0  0  0
   -2.9008   21.1677  -32.0065 H   0  0  0  0  0  0  0  0  0  0  0  0
   -2.8328   22.0634  -33.5620 H   0  0  0  0  0  0  0  0  0  0  0  0
   -2.9307   20.2698  -33.5620 H   0  0  0  0  0  0  0  0  0  0  0  0
   -2.1837   22.8700  -31.4119 H   0  0  0  0  0  0  0  0  0  0  0  0
   -4.8377   21.2843  -31.8697 H   0  0  0  0  0  0  0  0  0  0  0  0
   -4.7173   18.5497  -31.4131 H   0  0  0  0  0  0  0  0  0  0  0  0
   -5.4245   17.1934  -32.3668 H   0  0  0  0  0  0  0  0  0  0  0  0
   -2.7730   18.5755  -32.6439 H   0  0  0  0  0  0  0  0  0  0  0  0
   -3.2539   16.8506  -32.9612 H   0  0  0  0  0  0  0  0  0  0  0  0
   -3.3851   19.2547  -34.7918 H   0  0  0  0  0  0  0  0  0  0  0  0
   -2.7799   17.5786  -35.1019 H   0  0  0  0  0  0  0  0  0  0  0  0
   -4.9244   18.0517  -36.2793 H   0  0  0  0  0  0  0  0  0  0  0  0
   -5.0575   16.7128  -35.0653 H   0  0  0  0  0  0  0  0  0  0  0  0
   -6.4252   19.3461  -35.1602 H   0  0  0  0  0  0  0  0  0  0  0  0
   -6.8744   17.7971  -34.3178 H   0  0  0  0  0  0  0  0  0  0  0  0
  1  2  1  0
  2  3  2  0
  3  4  1  0
  4  5  2  0
  5  6  1  0
  6  7  1  0
  7  8  2  0
  7  9  1  0
  9 10  1  0
 10 11  2  0
 11 12  1  0
 12 13  2  0
 13 14  1  0
 14 15  1  0
 15 16  2  0
 15 17  2  0
 15 18  1  0
 18 19  1  0
 18 20  1  0
 14 21  2  0
  5 22  1  0
 22 23  2  0
 23 24  1  0
 24 25  2  0
 24 26  2  0
 24 27  1  0
 27 28  1  0
 28 29  1  0
 29 30  1  0
 30 31  1  0
 31 32  1  0
 23  2  1  0
 32 27  1  0
 21 10  1  0
  1 33  1  0
  1 34  1  0
  1 35  1  0
  3 36  1  0
  4 37  1  0
 11 38  1  0
 12 39  1  0
 13 40  1  0
 19 41  1  0
 19 42  1  0
 19 43  1  0
 20 44  1  0
 20 45  1  0
 20 46  1  0
 21 47  1  0
 22 48  1  0
 28 49  1  0
 28 50  1  0
 29 51  1  0
 29 52  1  0
 30 53  1  0
 30 54  1  0
 31 55  1  0
 31 56  1  0
 32 57  1  0
 32 58  1  0
M  CHG  2   6  -1   9  -1
M  END
>  <UniqueID>  (25) 
24

>  <SMILES>  (25) 
Cc1ccc([N-]C(=O)[N-]c2cccc(S(=O)(=O)N(C)C)c2)cc1S(=O)(=O)N1CCCCC1

>  <Energy>  (25) 
66.10575240145423

>  <Genealogy>  (25) 
Cc1ccc([N-]C(=O)[N-]c2cccc(S(=O)(=O)N(C)C)c2)cc1S(=O)(=O)N1CCCCC1 (protonated)
Cc1ccc([N-]C(=O)[N-]c2cccc(S(=O)(=O)N(C)C)c2)cc1S(=O)(=O)N1CCCCC1 (3D coordinates assigned)
Cc1ccc([N-]C(=O)[N-]c2cccc(S(=O)(=O)N(C)C)c2)cc1S(=O)(=O)N1CCCCC1 (nonaromatic ring conformer: 66.10575240145423 kcal/mol)

>  <smiles>  (25) 
Cc1ccc(NC(=O)Nc2cccc(S(=O)(=O)N(C)C)c2)cc1S(=O)(=O)N1CCCCC1

>  <score_type>  (25) 
oracle

>  <origin>  (25) 
adgpu

>  <m_score__min__energy>  (25) 
-12.92

>  <m_primary>  (25) 
energy

$$$$
25:0
     RDKit          3D

 40 42  0  0  0  0  0  0  0  0999 V2000
   -4.4840   23.7920  -28.2770 C   0  0  0  0  0  0  0  0  0  0  0  0
   -5.5150   23.5990  -29.3880 C   0  0  0  0  0  0  0  0  0  0  0  0
   -5.0510   24.5360  -30.8450 S   0  0  0  0  0  0  0  0  0  0  0  0
   -5.7370   25.8740  -30.8530 O   0  0  0  0  0  0  0  0  0  0  0  0
   -3.5640   24.7550  -30.8170 O   0  0  0  0  0  0  0  0  0  0  0  0
   -5.4670   23.6610  -32.2850 N   0  0  0  0  0  0  0  0  0  0  0  0
   -5.8170   22.2660  -32.2880 C   0  0  0  0  0  0  0  0  0  0  0  0
   -7.1120   21.8520  -31.9220 C   0  0  0  0  0  0  0  0  0  0  0  0
   -7.4670   20.4950  -31.9610 C   0  0  0  0  0  0  0  0  0  0  0  0
   -8.7580   20.0840  -31.5910 C   0  0  0  0  0  0  0  0  0  0  0  0
   -9.1040   18.7280  -31.6400 C   0  0  0  0  0  0  0  0  0  0  0  0
   -8.1690   17.7770  -32.0570 C   0  0  0  0  0  0  0  0  0  0  0  0
   -6.8820   18.1750  -32.4280 C   0  0  0  0  0  0  0  0  0  0  0  0
   -6.5220   19.5310  -32.3840 C   0  0  0  0  0  0  0  0  0  0  0  0
   -5.2330   19.9390  -32.7500 C   0  0  0  0  0  0  0  0  0  0  0  0
   -4.8750   21.2940  -32.6980 C   0  0  0  0  0  0  0  0  0  0  0  0
   -3.1830   21.7460  -33.1100 S   0  0  0  0  0  0  0  0  0  0  0  0
   -2.6340   21.5740  -31.4110 C   0  0  0  0  0  0  0  0  0  0  0  0
   -1.3290   21.9440  -31.0550 C   0  0  0  0  0  0  0  0  0  0  0  0
   -0.8890   21.7790  -29.7380 C   0  0  0  0  0  0  0  0  0  0  0  0
   -1.7490   21.2390  -28.7760 C   0  0  0  0  0  0  0  0  0  0  0  0
   -3.0550   20.8740  -29.1270 C   0  0  0  0  0  0  0  0  0  0  0  0
   -3.5010   21.0550  -30.4410 C   0  0  0  0  0  0  0  0  0  0  0  0
   -4.9778   23.6996  -27.2984 H   0  0  0  0  0  0  0  0  0  0  0  0
   -3.7007   23.0249  -28.3664 H   0  0  0  0  0  0  0  0  0  0  0  0
   -4.0312   24.7905  -28.3664 H   0  0  0  0  0  0  0  0  0  0  0  0
   -5.5724   22.5315  -29.6472 H   0  0  0  0  0  0  0  0  0  0  0  0
   -6.4927   23.9558  -29.0320 H   0  0  0  0  0  0  0  0  0  0  0  0
   -5.3890   24.1770  -33.1910 H   0  0  0  0  0  0  0  0  0  0  0  0
   -7.8528   22.5997  -31.6023 H   0  0  0  0  0  0  0  0  0  0  0  0
   -9.4983   20.8283  -31.2623 H   0  0  0  0  0  0  0  0  0  0  0  0
  -10.1161   18.4101  -31.3490 H   0  0  0  0  0  0  0  0  0  0  0  0
   -8.4466   16.7132  -32.0933 H   0  0  0  0  0  0  0  0  0  0  0  0
   -6.1487   17.4234  -32.7556 H   0  0  0  0  0  0  0  0  0  0  0  0
   -4.4966   19.1916  -33.0804 H   0  0  0  0  0  0  0  0  0  0  0  0
   -0.6510   22.3643  -31.8124 H   0  0  0  0  0  0  0  0  0  0  0  0
    0.1332   22.0738  -29.4585 H   0  0  0  0  0  0  0  0  0  0  0  0
   -1.3992   21.1008  -27.7423 H   0  0  0  0  0  0  0  0  0  0  0  0
   -3.7292   20.4456  -28.3707 H   0  0  0  0  0  0  0  0  0  0  0  0
   -4.5334   20.7895  -30.7124 H   0  0  0  0  0  0  0  0  0  0  0  0
  1  2  1  0
  2  3  1  0
  3  4  2  0
  3  5  2  0
  3  6  1  0
  6  7  1  0
  7  8  2  0
  8  9  1  0
  9 10  2  0
 10 11  1  0
 11 12  2  0
 12 13  1  0
 13 14  2  0
 14 15  1  0
 15 16  2  0
 16 17  1  0
 17 18  1  0
 18 19  2  0
 19 20  1  0
 20 21  2  0
 21 22  1  0
 22 23  2  0
 16  7  1  0
 23 18  1  0
 14  9  1  0
  1 24  1  0
  1 25  1  0
  1 26  1  0
  2 27  1  0
  2 28  1  0
  6 29  1  0
  8 30  1  0
 10 31  1  0
 11 32  1  0
 12 33  1  0
 13 34  1  0
 15 35  1  0
 19 36  1  0
 20 37  1  0
 21 38  1  0
 22 39  1  0
 23 40  1  0
M  END
>  <UniqueID>  (26) 
25

>  <SMILES>  (26) 
CCS(=O)(=O)Nc1cc2ccccc2cc1Sc1ccccc1

>  <Energy>  (26) 
37.21958702490312

>  <Genealogy>  (26) 
CCS(=O)(=O)Nc1cc2ccccc2cc1Sc1ccccc1 (3D coordinates assigned)
CCS(=O)(=O)Nc1cc2ccccc2cc1Sc1ccccc1 (optimized conformer: 37.21958702490312 kcal/mol)

>  <smiles>  (26) 
CCS(=O)(=O)Nc1cc2ccccc2cc1Sc1ccccc1

>  <score_type>  (26) 
oracle

>  <origin>  (26) 
adgpu

>  <m_score__min__energy>  (26) 
-8.9299999999999997

>  <m_primary>  (26) 
energy

$$$$
26:0
     RDKit          3D

 50 52  0  0  0  0  0  0  0  0999 V2000
   -5.7050   18.5960  -32.3490 C   0  0  0  0  0  0  0  0  0  0  0  0
   -5.8140   19.9780  -32.6720 O   0  0  0  0  0  0  0  0  0  0  0  0
   -6.9220   20.7840  -32.3630 C   0  0  0  0  0  0  0  0  0  0  0  0
   -8.2380   20.3940  -32.6860 C   0  0  0  0  0  0  0  0  0  0  0  0
   -9.3230   21.1930  -32.3170 C   0  0  0  0  0  0  0  0  0  0  0  0
   -9.1110   22.3830  -31.6180 C   0  0  0  0  0  0  0  0  0  0  0  0
   -7.8120   22.7830  -31.2990 C   0  0  0  0  0  0  0  0  0  0  0  0
   -6.7130   22.0050  -31.6880 C   0  0  0  0  0  0  0  0  0  0  0  0
   -5.3930   22.4440  -31.3380 N   0  0  0  0  0  0  0  0  0  0  0  0
   -5.0430   23.8320  -31.1990 C   0  0  0  0  0  0  0  0  0  0  0  0
   -5.8800   24.7310  -31.4810 O   0  0  0  0  0  0  0  0  0  0  0  0
   -3.7310   24.2200  -30.7750 N   0  0  0  0  0  0  0  0  0  0  0  0
   -2.9490   23.5690  -29.7630 C   0  0  0  0  0  0  0  0  0  0  0  0
   -3.1520   22.2220  -29.4460 C   0  0  0  0  0  0  0  0  0  0  0  0
   -2.4000   21.6140  -28.4440 C   0  0  0  0  0  0  0  0  0  0  0  0
   -1.4400   22.3410  -27.7200 C   0  0  0  0  0  0  0  0  0  0  0  0
   -0.6560   21.6190  -26.6590 C   0  0  0  0  0  0  0  0  0  0  0  0
   -1.2560   23.7220  -28.0050 C   0  0  0  0  0  0  0  0  0  0  0  0
   -0.0820   24.7560  -27.1520 S   0  0  0  0  0  0  0  0  0  0  0  0
    0.2620   26.0060  -27.9110 O   0  0  0  0  0  0  0  0  0  0  0  0
    1.1820   23.9640  -26.9580 O   0  0  0  0  0  0  0  0  0  0  0  0
   -0.7430   25.1900  -25.5940 N   0  0  0  0  0  0  0  0  0  0  0  0
   -1.7710   26.2470  -25.7240 C   0  0  0  0  0  0  0  0  0  0  0  0
   -1.2470   27.6230  -25.2770 C   0  0  0  0  0  0  0  0  0  0  0  0
   -0.7890   27.6400  -23.9320 O   0  0  0  0  0  0  0  0  0  0  0  0
   -0.1900   26.4180  -23.5150 C   0  0  0  0  0  0  0  0  0  0  0  0
    0.3470   25.5550  -24.6690 C   0  0  0  0  0  0  0  0  0  0  0  0
   -2.0200   24.3190  -29.0310 C   0  0  0  0  0  0  0  0  0  0  0  0
   -1.8510   25.6670  -29.3350 O   0  0  0  0  0  0  0  0  0  0  0  0
   -5.6954   18.4746  -31.2558 H   0  0  0  0  0  0  0  0  0  0  0  0
   -6.5630   18.0521  -32.7708 H   0  0  0  0  0  0  0  0  0  0  0  0
   -4.7723   18.1933  -32.7708 H   0  0  0  0  0  0  0  0  0  0  0  0
   -8.4114   19.4549  -33.2319 H   0  0  0  0  0  0  0  0  0  0  0  0
  -10.3461   20.8841  -32.5776 H   0  0  0  0  0  0  0  0  0  0  0  0
   -9.9673   23.0052  -31.3187 H   0  0  0  0  0  0  0  0  0  0  0  0
   -7.6499   23.7154  -30.7384 H   0  0  0  0  0  0  0  0  0  0  0  0
   -4.6980   21.7150  -31.0670 H   0  0  0  0  0  0  0  0  0  0  0  0
   -3.9096   21.6398  -29.9910 H   0  0  0  0  0  0  0  0  0  0  0  0
   -2.5597   20.5498  -28.2161 H   0  0  0  0  0  0  0  0  0  0  0  0
   -1.0031   21.9386  -25.6653 H   0  0  0  0  0  0  0  0  0  0  0  0
   -0.8042   20.5345  -26.7678 H   0  0  0  0  0  0  0  0  0  0  0  0
    0.4127   21.8558  -26.7678 H   0  0  0  0  0  0  0  0  0  0  0  0
   -2.0824   26.3112  -26.7770 H   0  0  0  0  0  0  0  0  0  0  0  0
   -2.6163   25.9789  -25.0731 H   0  0  0  0  0  0  0  0  0  0  0  0
   -0.4122   27.9089  -25.9338 H   0  0  0  0  0  0  0  0  0  0  0  0
   -2.0876   28.3293  -25.3440 H   0  0  0  0  0  0  0  0  0  0  0  0
    0.6477   26.6558  -22.8429 H   0  0  0  0  0  0  0  0  0  0  0  0
   -0.9784   25.8312  -23.0209 H   0  0  0  0  0  0  0  0  0  0  0  0
    1.1130   26.1219  -25.2184 H   0  0  0  0  0  0  0  0  0  0  0  0
    0.7816   24.6347  -24.2517 H   0  0  0  0  0  0  0  0  0  0  0  0
  1  2  1  0
  2  3  1  0
  3  4  2  0
  4  5  1  0
  5  6  2  0
  6  7  1  0
  7  8  2  0
  8  9  1  0
  9 10  1  0
 10 11  2  0
 10 12  1  0
 12 13  1  0
 13 14  2  0
 14 15  1  0
 15 16  2  0
 16 17  1  0
 16 18  1  0
 18 19  1  0
 19 20  2  0
 19 21  2  0
 19 22  1  0
 22 23  1  0
 23 24  1  0
 24 25  1  0
 25 26  1  0
 26 27  1  0
 18 28  2  0
 28 29  1  0
  8  3  1  0
 28 13  1  0
 27 22  1  0
  1 30  1  0
  1 31  1  0
  1 32  1  0
  4 33  1  0
  5 34  1  0
  6 35  1  0
  7 36  1  0
  9 37  1  0
 14 38  1  0
 15 39  1  0
 17 40  1  0
 17 41  1  0
 17 42  1  0
 23 43  1  0
 23 44  1  0
 24 45  1  0
 24 46  1  0
 26 47  1  0
 26 48  1  0
 27 49  1  0
 27 50  1  0
M  CHG  2  12  -1  29  -1
M  END
>  <UniqueID>  (27) 
26

>  <SMILES>  (27) 
COc1ccccc1NC(=O)[N-]c1ccc(C)c(S(=O)(=O)N2CCOCC2)c1[O-]

>  <Energy>  (27) 
77.25911914670576

>  <Genealogy>  (27) 
COc1ccccc1NC(=O)[N-]c1ccc(C)c(S(=O)(=O)N2CCOCC2)c1[O-] (protonated)
COc1ccccc1NC(=O)[N-]c1ccc(C)c(S(=O)(=O)N2CCOCC2)c1[O-] (3D coordinates assigned)
COc1ccccc1NC(=O)[N-]c1ccc(C)c(S(=O)(=O)N2CCOCC2)c1[O-] (nonaromatic ring conformer: 77.25911914670576 kcal/mol)

>  <smiles>  (27) 
COc1ccccc1NC(=O)Nc1ccc(C)c(S(=O)(=O)N2CCOCC2)c1O

>  <score_type>  (27) 
oracle

>  <origin>  (27) 
adgpu

>  <m_score__min__energy>  (27) 
-12.9

>  <m_primary>  (27) 
energy

$$$$
27:0
     RDKit          3D

 47 49  0  0  0  0  0  0  0  0999 V2000
   -0.7100   27.2320  -27.8200 C   0  0  0  0  0  0  0  0  0  0  0  0
   -1.2540   26.3260  -28.7700 O   0  0  0  0  0  0  0  0  0  0  0  0
   -1.3090   24.9320  -28.6020 C   0  0  0  0  0  0  0  0  0  0  0  0
   -0.4180   24.2460  -27.7550 C   0  0  0  0  0  0  0  0  0  0  0  0
   -0.5160   22.8610  -27.6000 C   0  0  0  0  0  0  0  0  0  0  0  0
   -1.5090   22.1450  -28.2760 C   0  0  0  0  0  0  0  0  0  0  0  0
   -1.6480   20.4030  -28.0450 S   0  0  0  0  0  0  0  0  0  0  0  0
   -0.9440   20.0300  -26.7690 O   0  0  0  0  0  0  0  0  0  0  0  0
   -3.0970   20.0250  -27.9160 O   0  0  0  0  0  0  0  0  0  0  0  0
   -0.9180   19.5580  -29.3920 N   0  0  0  0  0  0  0  0  0  0  0  0
    0.5580   19.6520  -29.3130 C   0  0  0  0  0  0  0  0  0  0  0  0
    1.1960   19.4670  -30.7020 C   0  0  0  0  0  0  0  0  0  0  0  0
    0.7730   20.4210  -31.6700 O   0  0  0  0  0  0  0  0  0  0  0  0
   -0.4800   21.0200  -31.3750 C   0  0  0  0  0  0  0  0  0  0  0  0
   -1.4570   20.0550  -30.6830 C   0  0  0  0  0  0  0  0  0  0  0  0
   -2.3880   22.8180  -29.1330 C   0  0  0  0  0  0  0  0  0  0  0  0
   -2.2870   24.2100  -29.3080 C   0  0  0  0  0  0  0  0  0  0  0  0
   -3.1570   24.9260  -30.1960 N   0  0  0  0  0  0  0  0  0  0  0  0
   -4.8910   24.9080  -30.1340 S   0  0  0  0  0  0  0  0  0  0  0  0
   -5.3340   24.9260  -28.6950 O   0  0  0  0  0  0  0  0  0  0  0  0
   -5.4150   26.1370  -30.8250 O   0  0  0  0  0  0  0  0  0  0  0  0
   -5.5110   23.4870  -30.9690 C   0  0  0  0  0  0  0  0  0  0  0  0
   -6.8900   23.2400  -31.0260 C   0  0  0  0  0  0  0  0  0  0  0  0
   -7.3740   22.1240  -31.7130 C   0  0  0  0  0  0  0  0  0  0  0  0
   -6.4860   21.2510  -32.3470 C   0  0  0  0  0  0  0  0  0  0  0  0
   -5.1090   21.4840  -32.2800 C   0  0  0  0  0  0  0  0  0  0  0  0
   -3.8950   20.2780  -33.1260 Br  0  0  0  0  0  0  0  0  0  0  0  0
   -4.6230   22.6030  -31.5960 C   0  0  0  0  0  0  0  0  0  0  0  0
   -0.9265   26.8714  -26.8036 H   0  0  0  0  0  0  0  0  0  0  0  0
    0.3788   27.3006  -27.9605 H   0  0  0  0  0  0  0  0  0  0  0  0
   -1.1612   28.2253  -27.9605 H   0  0  0  0  0  0  0  0  0  0  0  0
    0.3596   24.8035  -27.2123 H   0  0  0  0  0  0  0  0  0  0  0  0
    0.1906   22.3317  -26.9438 H   0  0  0  0  0  0  0  0  0  0  0  0
   -1.1870   18.5500  -29.2940 H   0  0  0  0  0  0  0  0  0  0  0  0
    0.8352   20.6406  -28.9182 H   0  0  0  0  0  0  0  0  0  0  0  0
    0.9256   18.8559  -28.6488 H   0  0  0  0  0  0  0  0  0  0  0  0
    2.2878   19.5464  -30.5935 H   0  0  0  0  0  0  0  0  0  0  0  0
    0.8748   18.4809  -31.0686 H   0  0  0  0  0  0  0  0  0  0  0  0
   -0.3098   21.8817  -30.7128 H   0  0  0  0  0  0  0  0  0  0  0  0
   -0.9348   21.3211  -32.3303 H   0  0  0  0  0  0  0  0  0  0  0  0
   -2.4042   20.5815  -30.4945 H   0  0  0  0  0  0  0  0  0  0  0  0
   -1.6109   19.1903  -31.3453 H   0  0  0  0  0  0  0  0  0  0  0  0
   -3.1629   22.2543  -29.6732 H   0  0  0  0  0  0  0  0  0  0  0  0
   -7.5918   23.9259  -30.5291 H   0  0  0  0  0  0  0  0  0  0  0  0
   -8.4563   21.9321  -31.7549 H   0  0  0  0  0  0  0  0  0  0  0  0
   -6.8703   20.3805  -32.8988 H   0  0  0  0  0  0  0  0  0  0  0  0
   -3.5399   22.7897  -31.5501 H   0  0  0  0  0  0  0  0  0  0  0  0
  1  2  1  0
  2  3  1  0
  3  4  2  0
  4  5  1  0
  5  6  2  0
  6  7  1  0
  7  8  2  0
  7  9  2  0
  7 10  1  0
 10 11  1  0
 11 12  1  0
 12 13  1  0
 13 14  1  0
 14 15  1  0
  6 16  1  0
 16 17  2  0
 17 18  1  0
 18 19  1  0
 19 20  2  0
 19 21  2  0
 19 22  1  0
 22 23  2  0
 23 24  1  0
 24 25  2  0
 25 26  1  0
 26 27  1  0
 26 28  2  0
 17  3  1  0
 28 22  1  0
 15 10  1  0
  1 29  1  0
  1 30  1  0
  1 31  1  0
  4 32  1  0
  5 33  1  0
 10 34  1  0
 11 35  1  0
 11 36  1  0
 12 37  1  0
 12 38  1  0
 14 39  1  0
 14 40  1  0
 15 41  1  0
 15 42  1  0
 16 43  1  0
 23 44  1  0
 24 45  1  0
 25 46  1  0
 28 47  1  0
M  CHG  2  10   1  18  -1
M  END
>  <UniqueID>  (28) 
27

>  <SMILES>  (28) 
COc1ccc(S(=O)(=O)[NH+]2CCOCC2)cc1[N-]S(=O)(=O)c1cccc(Br)c1

>  <Energy>  (28) 
59.51962667504235

>  <Genealogy>  (28) 
COc1ccc(S(=O)(=O)[NH+]2CCOCC2)cc1[N-]S(=O)(=O)c1cccc(Br)c1 (protonated)
COc1ccc(S(=O)(=O)[NH+]2CCOCC2)cc1[N-]S(=O)(=O)c1cccc(Br)c1 (3D coordinates assigned)
COc1ccc(S(=O)(=O)[NH+]2CCOCC2)cc1[N-]S(=O)(=O)c1cccc(Br)c1 (nonaromatic ring conformer: 59.51962667504235 kcal/mol)

>  <smiles>  (28) 
COc1ccc(S(=O)(=O)N2CCOCC2)cc1NS(=O)(=O)c1cccc(Br)c1

>  <score_type>  (28) 
oracle

>  <origin>  (28) 
adgpu

>  <m_score__min__energy>  (28) 
-10.359999999999999

>  <m_primary>  (28) 
energy

$$$$
28:0
     RDKit          3D

 43 45  0  0  0  0  0  0  0  0999 V2000
   -2.0040   22.2960  -28.1880 C   0  0  0  0  0  0  0  0  0  0  0  0
   -2.6140   21.9900  -29.5310 C   0  0  0  0  0  0  0  0  0  0  0  0
   -2.4850   20.6920  -30.0540 C   0  0  0  0  0  0  0  0  0  0  0  0
   -3.0440   20.3620  -31.2900 C   0  0  0  0  0  0  0  0  0  0  0  0
   -3.7380   21.3290  -32.0320 C   0  0  0  0  0  0  0  0  0  0  0  0
   -4.3450   21.0240  -33.2970 N   0  0  0  0  0  0  0  0  0  0  0  0
   -5.5050   20.2090  -33.5170 C   0  0  0  0  0  0  0  0  0  0  0  0
   -5.4870   19.3270  -34.4170 O   0  0  0  0  0  0  0  0  0  0  0  0
   -6.7390   20.4460  -32.7200 C   0  0  0  0  0  0  0  0  0  0  0  0
   -7.5330   19.3500  -32.3250 C   0  0  0  0  0  0  0  0  0  0  0  0
   -8.6970   19.5430  -31.5760 C   0  0  0  0  0  0  0  0  0  0  0  0
   -9.0880   20.8300  -31.2110 C   0  0  0  0  0  0  0  0  0  0  0  0
   -8.3180   21.9290  -31.5930 C   0  0  0  0  0  0  0  0  0  0  0  0
   -7.1470   21.7500  -32.3440 C   0  0  0  0  0  0  0  0  0  0  0  0
   -6.3980   22.8680  -32.7150 O   0  0  0  0  0  0  0  0  0  0  0  0
   -3.9030   22.6110  -31.5010 C   0  0  0  0  0  0  0  0  0  0  0  0
   -3.3490   22.9580  -30.2580 C   0  0  0  0  0  0  0  0  0  0  0  0
   -3.5800   24.6050  -29.6480 S   0  0  0  0  0  0  0  0  0  0  0  0
   -4.4980   24.5620  -28.4590 O   0  0  0  0  0  0  0  0  0  0  0  0
   -4.1900   25.4720  -30.7140 O   0  0  0  0  0  0  0  0  0  0  0  0
   -2.0360   25.2520  -29.1940 N   0  0  0  0  0  0  0  0  0  0  0  0
   -1.4700   25.2900  -27.8750 C   0  0  0  0  0  0  0  0  0  0  0  0
   -2.3180   25.6440  -26.8150 C   0  0  0  0  0  0  0  0  0  0  0  0
   -1.8340   25.7100  -25.5060 C   0  0  0  0  0  0  0  0  0  0  0  0
   -0.4950   25.4140  -25.2410 C   0  0  0  0  0  0  0  0  0  0  0  0
    0.3560   25.0420  -26.2820 C   0  0  0  0  0  0  0  0  0  0  0  0
   -0.1210   24.9670  -27.5960 C   0  0  0  0  0  0  0  0  0  0  0  0
    0.7480   24.5450  -28.5930 O   0  0  0  0  0  0  0  0  0  0  0  0
   -2.6819   21.9559  -27.3913 H   0  0  0  0  0  0  0  0  0  0  0  0
   -1.0396   21.7750  -28.0960 H   0  0  0  0  0  0  0  0  0  0  0  0
   -1.8450   23.3806  -28.0960 H   0  0  0  0  0  0  0  0  0  0  0  0
   -1.9375   19.9275  -29.4832 H   0  0  0  0  0  0  0  0  0  0  0  0
   -2.9398   19.3400  -31.6833 H   0  0  0  0  0  0  0  0  0  0  0  0
   -7.2327   18.3308  -32.6097 H   0  0  0  0  0  0  0  0  0  0  0  0
   -9.3055   18.6778  -31.2741 H   0  0  0  0  0  0  0  0  0  0  0  0
  -10.0044   20.9794  -30.6213 H   0  0  0  0  0  0  0  0  0  0  0  0
   -8.6314   22.9428  -31.3032 H   0  0  0  0  0  0  0  0  0  0  0  0
   -5.5670   22.7860  -33.2870 H   0  0  0  0  0  0  0  0  0  0  0  0
   -4.4763   23.3608  -32.0659 H   0  0  0  0  0  0  0  0  0  0  0  0
   -3.3751   25.8720  -27.0165 H   0  0  0  0  0  0  0  0  0  0  0  0
   -2.5074   25.9950  -24.6842 H   0  0  0  0  0  0  0  0  0  0  0  0
   -0.1115   25.4742  -24.2118 H   0  0  0  0  0  0  0  0  0  0  0  0
    1.4090   24.8060  -26.0689 H   0  0  0  0  0  0  0  0  0  0  0  0
  1  2  1  0
  2  3  2  0
  3  4  1  0
  4  5  2  0
  5  6  1  0
  6  7  1  0
  7  8  2  0
  7  9  1  0
  9 10  2  0
 10 11  1  0
 11 12  2  0
 12 13  1  0
 13 14  2  0
 14 15  1  0
  5 16  1  0
 16 17  2  0
 17 18  1  0
 18 19  2  0
 18 20  2  0
 18 21  1  0
 21 22  1  0
 22 23  2  0
 23 24  1  0
 24 25  2  0
 25 26  1  0
 26 27  2  0
 27 28  1  0
 17  2  1  0
 27 22  1  0
 14  9  1  0
  1 29  1  0
  1 30  1  0
  1 31  1  0
  3 32  1  0
  4 33  1  0
 10 34  1  0
 11 35  1  0
 12 36  1  0
 13 37  1  0
 15 38  1  0
 16 39  1  0
 23 40  1  0
 24 41  1  0
 25 42  1  0
 26 43  1  0
M  CHG  3   6  -1  21  -1  28  -1
M  END
>  <UniqueID>  (29) 
28

>  <SMILES>  (29) 
Cc1ccc([N-]C(=O)c2ccccc2O)cc1S(=O)(=O)[N-]c1ccccc1[O-]

>  <Energy>  (29) 
60.62901144023807

>  <Genealogy>  (29) 
Cc1ccc([N-]C(=O)c2ccccc2O)cc1S(=O)(=O)[N-]c1ccccc1[O-] (protonated)
Cc1ccc([N-]C(=O)c2ccccc2O)cc1S(=O)(=O)[N-]c1ccccc1[O-] (3D coordinates assigned)
Cc1ccc([N-]C(=O)c2ccccc2O)cc1S(=O)(=O)[N-]c1ccccc1[O-] (optimized conformer: 60.62901144023807 kcal/mol)

>  <smiles>  (29) 
Cc1ccc(NC(=O)c2ccccc2O)cc1S(=O)(=O)Nc1ccccc1O

>  <score_type>  (29) 
oracle

>  <origin>  (29) 
adgpu

>  <m_score__min__energy>  (29) 
-13.199999999999999

>  <m_primary>  (29) 
energy

$$$$
29:0
     RDKit          3D

 36 39  0  0  0  0  0  0  0  0999 V2000
   -8.0957   25.0477  -30.1296 H   0  0  0  0  0  0  0  0  0  0  0  0
   -7.1970   24.5230  -30.4860 C   0  0  0  0  0  0  0  0  0  0  0  0
   -5.9300   25.0300  -30.1870 C   0  0  0  0  0  0  0  0  0  0  0  0
   -5.8361   25.9448  -29.5835 H   0  0  0  0  0  0  0  0  0  0  0  0
   -4.7800   24.3820  -30.6500 C   0  0  0  0  0  0  0  0  0  0  0  0
   -3.4950   24.9220  -30.2960 N   0  0  0  0  0  0  0  0  0  0  0  0
   -2.7630   24.5780  -29.2790 C   0  0  0  0  0  0  0  0  0  0  0  0
   -3.0600   23.5690  -28.4280 N   0  0  0  0  0  0  0  0  0  0  0  0
   -2.1280   23.3860  -27.4960 N   0  0  0  0  0  0  0  0  0  0  0  0
   -1.0920   24.2480  -27.6000 C   0  0  0  0  0  0  0  0  0  0  0  0
    0.1100   24.2050  -26.7130 C   0  0  0  0  0  0  0  0  0  0  0  0
    0.4536   25.2321  -26.5204 H   0  0  0  0  0  0  0  0  0  0  0  0
    0.8994   23.6263  -27.2149 H   0  0  0  0  0  0  0  0  0  0  0  0
   -0.2230   23.5320  -25.3870 C   0  0  0  0  0  0  0  0  0  0  0  0
    0.0971   24.1789  -24.5569 H   0  0  0  0  0  0  0  0  0  0  0  0
   -1.3082   23.3639  -25.3235 H   0  0  0  0  0  0  0  0  0  0  0  0
    0.3018   22.5673  -25.3235 H   0  0  0  0  0  0  0  0  0  0  0  0
   -1.2840   25.2870  -28.9150 S   0  0  0  0  0  0  0  0  0  0  0  0
   -4.9110   23.1830  -31.3780 C   0  0  0  0  0  0  0  0  0  0  0  0
   -4.0110   22.6449  -31.7103 H   0  0  0  0  0  0  0  0  0  0  0  0
   -6.1840   22.6690  -31.6830 C   0  0  0  0  0  0  0  0  0  0  0  0
   -6.3240   21.4190  -32.4560 C   0  0  0  0  0  0  0  0  0  0  0  0
   -5.2890   20.7110  -32.9510 N   0  0  0  0  0  0  0  0  0  0  0  0
   -5.9300   19.6880  -33.5590 C   0  0  0  0  0  0  0  0  0  0  0  0
   -5.2490   18.5660  -34.2930 C   0  0  0  0  0  0  0  0  0  0  0  0
   -4.5978   19.2181  -34.8936 H   0  0  0  0  0  0  0  0  0  0  0  0
   -5.0500   17.2850  -33.4970 C   0  0  0  0  0  0  0  0  0  0  0  0
   -4.1474   16.6758  -33.6521 H   0  0  0  0  0  0  0  0  0  0  0  0
   -5.0401   17.0276  -32.4276 H   0  0  0  0  0  0  0  0  0  0  0  0
   -6.1190   17.3500  -34.5780 C   0  0  0  0  0  0  0  0  0  0  0  0
   -5.9891   16.7880  -35.5146 H   0  0  0  0  0  0  0  0  0  0  0  0
   -7.2017   17.1592  -34.6139 H   0  0  0  0  0  0  0  0  0  0  0  0
   -7.2670   19.7740  -33.4370 N   0  0  0  0  0  0  0  0  0  0  0  0
   -7.4720   20.8570  -32.7500 O   0  0  0  0  0  0  0  0  0  0  0  0
   -7.3260   23.3520  -31.2360 C   0  0  0  0  0  0  0  0  0  0  0  0
   -8.3264   22.9634  -31.4774 H   0  0  0  0  0  0  0  0  0  0  0  0
  1  2  1  0
  2  3  2  0
  3  4  1  0
  3  5  1  0
  5  6  1  0
  6  7  2  0
  7  8  1  0
  8  9  1  0
  9 10  2  0
 10 11  1  0
 11 12  1  0
 11 13  1  0
 11 14  1  0
 14 15  1  0
 14 16  1  0
 14 17  1  0
 10 18  1  0
  5 19  2  0
 19 20  1  0
 19 21  1  0
 21 22  1  0
 22 23  2  0
 23 24  1  0
 24 25  1  0
 25 26  1  0
 25 27  1  0
 27 28  1  0
 27 29  1  0
 27 30  1  0
 30 31  1  0
 30 32  1  0
 24 33  2  0
 33 34  1  0
 21 35  2  0
 35 36  1  0
 35  2  1  0
 18  7  1  0
 34 22  1  0
 30 25  1  0
M  CHG  1   8  -1
M  END
>  <UniqueID>  (30) 
29

>  <SMILES>  (30) 
CCc1n[n-]/c(=N\c2cccc(-c3nc(C4CC4)no3)c2)s1

>  <Energy>  (30) 
372.2478724260535

>  <Genealogy>  (30) 
CCc1n[n-]c(=Nc2cccc(-c3nc(C4CC4)no3)c2)s1 (protonated)
CCc1n[n-]/c(=N\c2cccc(-c3nc(C4CC4)no3)c2)s1 (cis-trans isomerization)
CCc1n[n-]/c(=N\c2cccc(-c3nc(C4CC4)no3)c2)s1 (3D coordinates assigned)
CCc1n[n-]/c(=N\c2cccc(-c3nc(C4CC4)no3)c2)s1 (nonaromatic ring conformer: 372.2478724260535 kcal/mol)

>  <smiles>  (30) 
CCc1n[nH]c(=Nc2cccc(-c3nc(C4CC4)no3)c2)s1

>  <score_type>  (30) 
oracle

>  <origin>  (30) 
adgpu

>  <m_score__min__energy>  (30) 
-8.9399999999999995

>  <m_primary>  (30) 
energy

$$$$
30:0
     RDKit          3D

 45 47  0  0  0  0  0  0  0  0999 V2000
   -0.5840   26.1110  -27.8370 C   0  0  0  0  0  0  0  0  0  0  0  0
   -1.7880   25.2890  -28.1540 C   0  0  0  0  0  0  0  0  0  0  0  0
   -2.4120   24.4090  -27.2910 C   0  0  0  0  0  0  0  0  0  0  0  0
   -3.4630   23.8700  -28.0010 C   0  0  0  0  0  0  0  0  0  0  0  0
   -3.4060   24.4580  -29.2480 C   0  0  0  0  0  0  0  0  0  0  0  0
   -4.5050   24.1350  -30.5730 S   0  0  0  0  0  0  0  0  0  0  0  0
   -3.7990   23.2760  -31.5850 O   0  0  0  0  0  0  0  0  0  0  0  0
   -4.9150   25.4330  -31.2110 O   0  0  0  0  0  0  0  0  0  0  0  0
   -5.8930   23.2960  -29.9630 N   0  0  0  0  0  0  0  0  0  0  0  0
   -6.8400   22.5790  -30.7670 C   0  0  0  0  0  0  0  0  0  0  0  0
   -7.9810   23.2520  -31.2220 C   0  0  0  0  0  0  0  0  0  0  0  0
   -8.9370   22.5830  -31.9910 C   0  0  0  0  0  0  0  0  0  0  0  0
   -8.7600   21.2360  -32.3100 C   0  0  0  0  0  0  0  0  0  0  0  0
   -7.6230   20.5450  -31.8620 C   0  0  0  0  0  0  0  0  0  0  0  0
   -7.4230   18.8430  -32.2970 S   0  0  0  0  0  0  0  0  0  0  0  0
   -8.7890   18.2170  -32.3760 O   0  0  0  0  0  0  0  0  0  0  0  0
   -6.6340   18.1680  -31.2070 O   0  0  0  0  0  0  0  0  0  0  0  0
   -6.5970   18.6470  -33.8350 N   0  0  0  0  0  0  0  0  0  0  0  0
   -6.5000   17.2190  -34.2150 C   0  0  0  0  0  0  0  0  0  0  0  0
   -5.4530   16.4370  -33.3980 C   0  0  0  0  0  0  0  0  0  0  0  0
   -4.1820   17.2490  -33.1020 C   0  0  0  0  0  0  0  0  0  0  0  0
   -4.0630   18.4670  -34.0120 C   0  0  0  0  0  0  0  0  0  0  0  0
   -5.2930   19.3780  -33.8590 C   0  0  0  0  0  0  0  0  0  0  0  0
   -6.6570   21.2250  -31.1030 C   0  0  0  0  0  0  0  0  0  0  0  0
   -2.4000   25.2960  -29.3160 O   0  0  0  0  0  0  0  0  0  0  0  0
   -0.4701   26.1888  -26.7457 H   0  0  0  0  0  0  0  0  0  0  0  0
    0.3093   25.6334  -28.2658 H   0  0  0  0  0  0  0  0  0  0  0  0
   -0.7035   27.1169  -28.2658 H   0  0  0  0  0  0  0  0  0  0  0  0
   -2.1286   24.1849  -26.2520 H   0  0  0  0  0  0  0  0  0  0  0  0
   -4.1936   23.1273  -27.6479 H   0  0  0  0  0  0  0  0  0  0  0  0
   -8.1254   24.3136  -30.9725 H   0  0  0  0  0  0  0  0  0  0  0  0
   -9.8300   23.1187  -32.3453 H   0  0  0  0  0  0  0  0  0  0  0  0
   -9.5150   20.7131  -32.9154 H   0  0  0  0  0  0  0  0  0  0  0  0
   -7.2220   19.0860  -34.5500 H   0  0  0  0  0  0  0  0  0  0  0  0
   -7.4831   16.7500  -34.0615 H   0  0  0  0  0  0  0  0  0  0  0  0
   -6.1820   17.1843  -35.2675 H   0  0  0  0  0  0  0  0  0  0  0  0
   -5.9077   16.1394  -32.4416 H   0  0  0  0  0  0  0  0  0  0  0  0
   -5.1513   15.5684  -34.0018 H   0  0  0  0  0  0  0  0  0  0  0  0
   -4.2115   17.5877  -32.0559 H   0  0  0  0  0  0  0  0  0  0  0  0
   -3.3122   16.6006  -33.2834 H   0  0  0  0  0  0  0  0  0  0  0  0
   -3.1585   19.0323  -33.7432 H   0  0  0  0  0  0  0  0  0  0  0  0
   -4.0016   18.1257  -35.0559 H   0  0  0  0  0  0  0  0  0  0  0  0
   -5.1934   19.9370  -32.9169 H   0  0  0  0  0  0  0  0  0  0  0  0
   -5.3136   20.0329  -34.7426 H   0  0  0  0  0  0  0  0  0  0  0  0
   -5.7521   20.6962  -30.7692 H   0  0  0  0  0  0  0  0  0  0  0  0
  1  2  1  0
  2  3  2  0
  3  4  1  0
  4  5  2  0
  5  6  1  0
  6  7  2  0
  6  8  2  0
  6  9  1  0
  9 10  1  0
 10 11  2  0
 11 12  1  0
 12 13  2  0
 13 14  1  0
 14 15  1  0
 15 16  2  0
 15 17  2  0
 15 18  1  0
 18 19  1  0
 19 20  1  0
 20 21  1  0
 21 22  1  0
 22 23  1  0
 14 24  2  0
  5 25  1  0
 25  2  1  0
 24 10  1  0
 23 18  1  0
  1 26  1  0
  1 27  1  0
  1 28  1  0
  3 29  1  0
  4 30  1  0
 11 31  1  0
 12 32  1  0
 13 33  1  0
 18 34  1  0
 19 35  1  0
 19 36  1  0
 20 37  1  0
 20 38  1  0
 21 39  1  0
 21 40  1  0
 22 41  1  0
 22 42  1  0
 23 43  1  0
 23 44  1  0
 24 45  1  0
M  CHG  2   9  -1  18   1
M  END
>  <UniqueID>  (31) 
30

>  <SMILES>  (31) 
Cc1ccc(S(=O)(=O)[N-]c2cccc(S(=O)(=O)[NH+]3CCCCC3)c2)o1

>  <Energy>  (31) 
81.97102316227718

>  <Genealogy>  (31) 
Cc1ccc(S(=O)(=O)[N-]c2cccc(S(=O)(=O)[NH+]3CCCCC3)c2)o1 (protonated)
Cc1ccc(S(=O)(=O)[N-]c2cccc(S(=O)(=O)[NH+]3CCCCC3)c2)o1 (3D coordinates assigned)
Cc1ccc(S(=O)(=O)[N-]c2cccc(S(=O)(=O)[NH+]3CCCCC3)c2)o1 (nonaromatic ring conformer: 81.97102316227718 kcal/mol)

>  <smiles>  (31) 
Cc1ccc(S(=O)(=O)Nc2cccc(S(=O)(=O)N3CCCCC3)c2)o1

>  <score_type>  (31) 
oracle

>  <origin>  (31) 
adgpu

>  <m_score__min__energy>  (31) 
-10.210000000000001

>  <m_primary>  (31) 
energy

$$$$
31:0
     RDKit          3D

 50 52  0  0  0  0  0  0  0  0999 V2000
   -5.3710   25.6710  -30.3370 C   0  0  0  0  0  0  0  0  0  0  0  0
   -3.9680   25.4720  -30.4820 O   0  0  0  0  0  0  0  0  0  0  0  0
   -3.2220   24.5150  -29.7710 C   0  0  0  0  0  0  0  0  0  0  0  0
   -2.6240   24.8010  -28.5290 C   0  0  0  0  0  0  0  0  0  0  0  0
   -1.9050   23.8170  -27.8410 C   0  0  0  0  0  0  0  0  0  0  0  0
   -1.7270   22.5430  -28.4040 C   0  0  0  0  0  0  0  0  0  0  0  0
   -1.0390   21.4800  -27.7110 N   0  0  0  0  0  0  0  0  0  0  0  0
   -1.3250   20.0820  -27.8610 C   0  0  0  0  0  0  0  0  0  0  0  0
   -2.5270   19.6890  -27.8740 O   0  0  0  0  0  0  0  0  0  0  0  0
   -0.2220   19.0900  -27.9350 C   0  0  0  0  0  0  0  0  0  0  0  0
    1.0190   19.4380  -28.5080 C   0  0  0  0  0  0  0  0  0  0  0  0
    2.0520   18.4970  -28.5930 C   0  0  0  0  0  0  0  0  0  0  0  0
    1.8590   17.2010  -28.1120 C   0  0  0  0  0  0  0  0  0  0  0  0
    0.6400   16.8470  -27.5290 C   0  0  0  0  0  0  0  0  0  0  0  0
   -0.3910   17.7860  -27.4300 C   0  0  0  0  0  0  0  0  0  0  0  0
   -2.3120   22.2690  -29.6510 C   0  0  0  0  0  0  0  0  0  0  0  0
   -3.0910   23.2310  -30.3150 C   0  0  0  0  0  0  0  0  0  0  0  0
   -3.8050   22.9120  -31.5190 N   0  0  0  0  0  0  0  0  0  0  0  0
   -5.5230   22.6490  -31.5940 S   0  0  0  0  0  0  0  0  0  0  0  0
   -6.0730   22.5520  -30.1910 O   0  0  0  0  0  0  0  0  0  0  0  0
   -6.1770   23.8190  -32.2900 O   0  0  0  0  0  0  0  0  0  0  0  0
   -5.8560   21.1250  -32.4240 C   0  0  0  0  0  0  0  0  0  0  0  0
   -7.0840   20.4860  -32.5150 C   0  0  0  0  0  0  0  0  0  0  0  0
   -8.3840   20.9700  -31.9470 C   0  0  0  0  0  0  0  0  0  0  0  0
   -6.9530   19.3410  -33.2160 N   0  0  0  0  0  0  0  0  0  0  0  0
   -5.6810   19.2300  -33.5700 N   0  0  0  0  0  0  0  0  0  0  0  0
   -5.1620   18.1100  -34.3540 C   0  0  0  0  0  0  0  0  0  0  0  0
   -4.9740   20.2800  -33.0920 C   0  0  0  0  0  0  0  0  0  0  0  0
   -3.5120   20.5180  -33.3340 C   0  0  0  0  0  0  0  0  0  0  0  0
   -5.6276   25.7074  -29.2680 H   0  0  0  0  0  0  0  0  0  0  0  0
   -5.6583   26.6189  -30.8155 H   0  0  0  0  0  0  0  0  0  0  0  0
   -5.9105   24.8404  -30.8155 H   0  0  0  0  0  0  0  0  0  0  0  0
   -2.7228   25.8071  -28.0954 H   0  0  0  0  0  0  0  0  0  0  0  0
   -1.4767   24.0429  -26.8533 H   0  0  0  0  0  0  0  0  0  0  0  0
   -0.2250   21.7380  -27.1070 H   0  0  0  0  0  0  0  0  0  0  0  0
    1.1764   20.4570  -28.8912 H   0  0  0  0  0  0  0  0  0  0  0  0
    3.0169   18.7793  -29.0394 H   0  0  0  0  0  0  0  0  0  0  0  0
    2.6667   16.4586  -28.1920 H   0  0  0  0  0  0  0  0  0  0  0  0
    0.4908   15.8264  -27.1467 H   0  0  0  0  0  0  0  0  0  0  0  0
   -1.3418   17.5042  -26.9539 H   0  0  0  0  0  0  0  0  0  0  0  0
   -2.1575   21.2841  -30.1158 H   0  0  0  0  0  0  0  0  0  0  0  0
   -8.3337   20.9513  -30.8483 H   0  0  0  0  0  0  0  0  0  0  0  0
   -8.5728   21.9987  -32.2879 H   0  0  0  0  0  0  0  0  0  0  0  0
   -9.1995   20.3152  -32.2879 H   0  0  0  0  0  0  0  0  0  0  0  0
   -4.7981   17.3247  -33.6751 H   0  0  0  0  0  0  0  0  0  0  0  0
   -5.9637   17.7038  -34.9883 H   0  0  0  0  0  0  0  0  0  0  0  0
   -4.3338   18.4590  -34.9883 H   0  0  0  0  0  0  0  0  0  0  0  0
   -2.9898   20.6030  -32.3696 H   0  0  0  0  0  0  0  0  0  0  0  0
   -3.0930   19.6762  -33.9049 H   0  0  0  0  0  0  0  0  0  0  0  0
   -3.3817   21.4492  -33.9049 H   0  0  0  0  0  0  0  0  0  0  0  0
  1  2  1  0
  2  3  1  0
  3  4  2  0
  4  5  1  0
  5  6  2  0
  6  7  1  0
  7  8  1  0
  8  9  2  0
  8 10  1  0
 10 11  2  0
 11 12  1  0
 12 13  2  0
 13 14  1  0
 14 15  2  0
  6 16  1  0
 16 17  2  0
 17 18  1  0
 18 19  1  0
 19 20  2  0
 19 21  2  0
 19 22  1  0
 22 23  1  0
 23 24  1  0
 23 25  2  0
 25 26  1  0
 26 27  1  0
 26 28  1  0
 28 29  1  0
 17  3  1  0
 28 22  2  0
 15 10  1  0
  1 30  1  0
  1 31  1  0
  1 32  1  0
  4 33  1  0
  5 34  1  0
  7 35  1  0
 11 36  1  0
 12 37  1  0
 13 38  1  0
 14 39  1  0
 15 40  1  0
 16 41  1  0
 24 42  1  0
 24 43  1  0
 24 44  1  0
 27 45  1  0
 27 46  1  0
 27 47  1  0
 29 48  1  0
 29 49  1  0
 29 50  1  0
M  CHG  1  18  -1
M  END
>  <UniqueID>  (32) 
31

>  <SMILES>  (32) 
COc1ccc(NC(=O)c2ccccc2)cc1[N-]S(=O)(=O)c1c(C)nn(C)c1C

>  <Energy>  (32) 
89.6901640330161

>  <Genealogy>  (32) 
COc1ccc(NC(=O)c2ccccc2)cc1[N-]S(=O)(=O)c1c(C)nn(C)c1C (protonated)
COc1ccc(NC(=O)c2ccccc2)cc1[N-]S(=O)(=O)c1c(C)nn(C)c1C (3D coordinates assigned)
COc1ccc(NC(=O)c2ccccc2)cc1[N-]S(=O)(=O)c1c(C)nn(C)c1C (optimized conformer: 89.6901640330161 kcal/mol)

>  <smiles>  (32) 
COc1ccc(NC(=O)c2ccccc2)cc1NS(=O)(=O)c1c(C)nn(C)c1C

>  <score_type>  (32) 
oracle

>  <origin>  (32) 
adgpu

>  <m_score__min__energy>  (32) 
-9.4399999999999995

>  <m_primary>  (32) 
energy

$$$$
32:0
     RDKit          3D

 54 57  0  0  0  0  0  0  0  0999 V2000
   -2.7960   25.2890  -30.4870 H   0  0  0  0  0  0  0  0  0  0  0  0
   -3.8410   25.2830  -30.4630 N   0  0  0  0  0  0  0  0  0  0  0  0
   -4.3320   23.6310  -30.3380 S   0  0  0  0  0  0  0  0  0  0  0  0
   -5.7910   23.5220  -30.6850 O   0  0  0  0  0  0  0  0  0  0  0  0
   -4.1340   23.1480  -28.9280 O   0  0  0  0  0  0  0  0  0  0  0  0
   -3.3730   22.6470  -31.4370 C   0  0  0  0  0  0  0  0  0  0  0  0
   -2.0260   22.3920  -31.1480 C   0  0  0  0  0  0  0  0  0  0  0  0
   -1.5759   22.7984  -30.2302 H   0  0  0  0  0  0  0  0  0  0  0  0
   -1.2510   21.6220  -32.0230 C   0  0  0  0  0  0  0  0  0  0  0  0
   -0.1913   21.4357  -31.7940 H   0  0  0  0  0  0  0  0  0  0  0  0
   -1.8150   21.0870  -33.1880 C   0  0  0  0  0  0  0  0  0  0  0  0
   -0.9740   20.3310  -34.0770 N   0  0  0  0  0  0  0  0  0  0  0  0
   -0.0480   20.8010  -34.8610 C   0  0  0  0  0  0  0  0  0  0  0  0
    0.1610   22.1380  -34.9840 N   0  0  0  0  0  0  0  0  0  0  0  0
    1.1150   22.6160  -35.8230 C   0  0  0  0  0  0  0  0  0  0  0  0
    1.3430   24.0360  -35.9410 N   0  0  0  0  0  0  0  0  0  0  0  0
    0.2240   24.9600  -36.1870 C   0  0  0  0  0  0  0  0  0  0  0  0
   -0.6225   24.4010  -36.6125 H   0  0  0  0  0  0  0  0  0  0  0  0
   -0.0744   25.4250  -35.2358 H   0  0  0  0  0  0  0  0  0  0  0  0
    0.6520   26.0570  -37.1690 C   0  0  0  0  0  0  0  0  0  0  0  0
    0.7765   25.6046  -38.1639 H   0  0  0  0  0  0  0  0  0  0  0  0
   -0.1333   26.8272  -37.1565 H   0  0  0  0  0  0  0  0  0  0  0  0
    1.9760   26.7510  -36.7780 C   0  0  0  0  0  0  0  0  0  0  0  0
    2.6535   26.7200  -37.6440 H   0  0  0  0  0  0  0  0  0  0  0  0
    1.7245   27.7793  -36.4793 H   0  0  0  0  0  0  0  0  0  0  0  0
    2.6850   26.0970  -35.5840 C   0  0  0  0  0  0  0  0  0  0  0  0
    3.7227   26.4593  -35.5418 H   0  0  0  0  0  0  0  0  0  0  0  0
    2.1395   26.3667  -34.6676 H   0  0  0  0  0  0  0  0  0  0  0  0
    2.6950   24.5700  -35.7070 C   0  0  0  0  0  0  0  0  0  0  0  0
    3.3424   24.2840  -36.5490 H   0  0  0  0  0  0  0  0  0  0  0  0
    3.0714   24.1513  -34.7620 H   0  0  0  0  0  0  0  0  0  0  0  0
    1.8600   21.7410  -36.5500 N   0  0  0  0  0  0  0  0  0  0  0  0
    1.6600   20.4040  -36.4380 C   0  0  0  0  0  0  0  0  0  0  0  0
    2.3730   19.5930  -37.1640 N   0  0  0  0  0  0  0  0  0  0  0  0
    2.3400   18.1550  -37.1390 C   0  0  0  0  0  0  0  0  0  0  0  0
    3.4390   17.3920  -36.7020 C   0  0  0  0  0  0  0  0  0  0  0  0
    4.3453   17.8959  -36.3350 H   0  0  0  0  0  0  0  0  0  0  0  0
    3.3820   15.9950  -36.7330 C   0  0  0  0  0  0  0  0  0  0  0  0
    4.2390   15.4067  -36.3732 H   0  0  0  0  0  0  0  0  0  0  0  0
    2.2460   15.3390  -37.2170 C   0  0  0  0  0  0  0  0  0  0  0  0
    2.2380   13.9360  -37.2250 O   0  0  0  0  0  0  0  0  0  0  0  0
    1.1640   13.1420  -37.7210 C   0  0  0  0  0  0  0  0  0  0  0  0
    0.5973   12.7230  -36.8764 H   0  0  0  0  0  0  0  0  0  0  0  0
    0.4988   13.7672  -38.3348 H   0  0  0  0  0  0  0  0  0  0  0  0
    1.5667   12.3228  -38.3348 H   0  0  0  0  0  0  0  0  0  0  0  0
    1.1590   16.1030  -37.6820 C   0  0  0  0  0  0  0  0  0  0  0  0
    0.2618   15.5990  -38.0706 H   0  0  0  0  0  0  0  0  0  0  0  0
    1.2150   17.5000  -37.6520 C   0  0  0  0  0  0  0  0  0  0  0  0
    0.3681   18.0885  -38.0347 H   0  0  0  0  0  0  0  0  0  0  0  0
    0.6940   19.9400  -35.6000 N   0  0  0  0  0  0  0  0  0  0  0  0
   -3.1580   21.3770  -33.4940 C   0  0  0  0  0  0  0  0  0  0  0  0
   -3.6009   20.9973  -34.4266 H   0  0  0  0  0  0  0  0  0  0  0  0
   -3.9320   22.1450  -32.6190 C   0  0  0  0  0  0  0  0  0  0  0  0
   -4.9844   22.3559  -32.8599 H   0  0  0  0  0  0  0  0  0  0  0  0
  1  2  1  0
  2  3  1  0
  3  4  2  0
  3  5  2  0
  3  6  1  0
  6  7  2  0
  7  8  1  0
  7  9  1  0
  9 10  1  0
  9 11  2  0
 11 12  1  0
 12 13  2  3
 13 14  1  0
 14 15  2  0
 15 16  1  0
 16 17  1  0
 17 18  1  0
 17 19  1  0
 17 20  1  0
 20 21  1  0
 20 22  1  0
 20 23  1  0
 23 24  1  0
 23 25  1  0
 23 26  1  0
 26 27  1  0
 26 28  1  0
 26 29  1  0
 29 30  1  0
 29 31  1  0
 15 32  1  0
 32 33  1  0
 33 34  2  0
 34 35  1  0
 35 36  2  0
 36 37  1  0
 36 38  1  0
 38 39  1  0
 38 40  2  0
 40 41  1  0
 41 42  1  0
 42 43  1  0
 42 44  1  0
 42 45  1  0
 40 46  1  0
 46 47  1  0
 46 48  2  0
 48 49  1  0
 33 50  1  0
 11 51  1  0
 51 52  1  0
 51 53  2  0
 53 54  1  0
 53  6  1  0
 50 13  1  0
 29 16  1  0
 48 35  1  0
M  CHG  3   2  -1  32  -1  50  -1
M  END
>  <UniqueID>  (33) 
32

>  <SMILES>  (33) 
COc1ccc(/N=c2/[n-]c(N3CCCCC3)nc(=Nc3ccc(S([NH-])(=O)=O)cc3)[n-]2)cc1

>  <Energy>  (33) 
70.01016782898404

>  <Genealogy>  (33) 
COc1ccc(N=c2[n-]c(N3CCCCC3)nc(=Nc3ccc(S([NH-])(=O)=O)cc3)[n-]2)cc1 (protonated)
COc1ccc(/N=c2/[n-]c(N3CCCCC3)nc(=Nc3ccc(S([NH-])(=O)=O)cc3)[n-]2)cc1 (cis-trans isomerization)
COc1ccc(/N=c2/[n-]c(N3CCCCC3)nc(=Nc3ccc(S([NH-])(=O)=O)cc3)[n-]2)cc1 (3D coordinates assigned)
COc1ccc(/N=c2/[n-]c(N3CCCCC3)nc(=Nc3ccc(S([NH-])(=O)=O)cc3)[n-]2)cc1 (nonaromatic ring conformer: 70.01016782898404 kcal/mol)

>  <smiles>  (33) 
COc1ccc(N=c2[nH]c(N3CCCCC3)nc(=Nc3ccc(S(N)(=O)=O)cc3)[nH]2)cc1

>  <score_type>  (33) 
oracle

>  <origin>  (33) 
adgpu

>  <m_score__min__energy>  (33) 
-10.34

>  <m_primary>  (33) 
energy

$$$$
33:0
     RDKit          3D

 41 42  0  0  0  0  0  0  0  0999 V2000
   -0.8380   26.1250  -26.6730 C   0  0  0  0  0  0  0  0  0  0  0  0
   -0.7460   25.3930  -27.9770 C   0  0  0  0  0  0  0  0  0  0  0  0
    0.2990   24.7410  -28.2380 O   0  0  0  0  0  0  0  0  0  0  0  0
   -1.8260   25.3810  -28.9210 N   0  0  0  0  0  0  0  0  0  0  0  0
   -2.4700   24.2210  -29.4680 C   0  0  0  0  0  0  0  0  0  0  0  0
   -2.1490   22.9280  -29.0220 C   0  0  0  0  0  0  0  0  0  0  0  0
   -2.8130   21.8170  -29.5490 C   0  0  0  0  0  0  0  0  0  0  0  0
   -3.8130   21.9780  -30.5130 C   0  0  0  0  0  0  0  0  0  0  0  0
   -4.4510   20.8080  -31.0440 N   0  0  0  0  0  0  0  0  0  0  0  0
   -5.2020   20.7060  -32.6040 S   0  0  0  0  0  0  0  0  0  0  0  0
   -6.4610   21.5270  -32.5950 O   0  0  0  0  0  0  0  0  0  0  0  0
   -4.2500   21.3060  -33.5990 O   0  0  0  0  0  0  0  0  0  0  0  0
   -5.6300   19.0090  -32.9790 C   0  0  0  0  0  0  0  0  0  0  0  0
   -6.8970   18.4630  -32.6210 C   0  0  0  0  0  0  0  0  0  0  0  0
   -7.9150   19.2310  -31.8210 C   0  0  0  0  0  0  0  0  0  0  0  0
   -7.2360   17.1630  -33.0310 C   0  0  0  0  0  0  0  0  0  0  0  0
   -6.3300   16.3710  -33.7390 C   0  0  0  0  0  0  0  0  0  0  0  0
   -6.7270   15.0020  -34.2100 C   0  0  0  0  0  0  0  0  0  0  0  0
   -5.0710   16.8820  -34.0520 C   0  0  0  0  0  0  0  0  0  0  0  0
   -4.6940   18.1740  -33.6520 C   0  0  0  0  0  0  0  0  0  0  0  0
   -3.3000   18.6320  -34.0030 C   0  0  0  0  0  0  0  0  0  0  0  0
   -4.1620   23.2750  -30.9320 C   0  0  0  0  0  0  0  0  0  0  0  0
   -3.4980   24.3890  -30.4060 C   0  0  0  0  0  0  0  0  0  0  0  0
   -3.8590   25.6630  -30.8270 O   0  0  0  0  0  0  0  0  0  0  0  0
   -0.7480   25.4085  -25.8432 H   0  0  0  0  0  0  0  0  0  0  0  0
   -0.0257   26.8639  -26.6092 H   0  0  0  0  0  0  0  0  0  0  0  0
   -1.8079   26.6399  -26.6092 H   0  0  0  0  0  0  0  0  0  0  0  0
   -1.3724   22.7897  -28.2554 H   0  0  0  0  0  0  0  0  0  0  0  0
   -2.5468   20.8075  -29.2026 H   0  0  0  0  0  0  0  0  0  0  0  0
   -7.7230   19.0861  -30.7476 H   0  0  0  0  0  0  0  0  0  0  0  0
   -7.8420   20.3010  -32.0654 H   0  0  0  0  0  0  0  0  0  0  0  0
   -8.9239   18.8670  -32.0654 H   0  0  0  0  0  0  0  0  0  0  0  0
   -8.2317   16.7623  -32.7903 H   0  0  0  0  0  0  0  0  0  0  0  0
   -6.9146   14.3551  -33.3403 H   0  0  0  0  0  0  0  0  0  0  0  0
   -7.6413   15.0740  -34.8174 H   0  0  0  0  0  0  0  0  0  0  0  0
   -5.9160   14.5737  -34.8174 H   0  0  0  0  0  0  0  0  0  0  0  0
   -4.3619   16.2631  -34.6213 H   0  0  0  0  0  0  0  0  0  0  0  0
   -2.7320   18.8186  -33.0797 H   0  0  0  0  0  0  0  0  0  0  0  0
   -2.7955   17.8524  -34.5926 H   0  0  0  0  0  0  0  0  0  0  0  0
   -3.3562   19.5589  -34.5926 H   0  0  0  0  0  0  0  0  0  0  0  0
   -4.9601   23.4140  -31.6761 H   0  0  0  0  0  0  0  0  0  0  0  0
  1  2  1  0
  2  3  2  0
  2  4  1  0
  4  5  1  0
  5  6  2  0
  6  7  1  0
  7  8  2  0
  8  9  1  0
  9 10  1  0
 10 11  2  0
 10 12  2  0
 10 13  1  0
 13 14  2  0
 14 15  1  0
 14 16  1  0
 16 17  2  0
 17 18  1  0
 17 19  1  0
 19 20  2  0
 20 21  1  0
  8 22  1  0
 22 23  2  0
 23 24  1  0
 23  5  1  0
 20 13  1  0
  1 25  1  0
  1 26  1  0
  1 27  1  0
  6 28  1  0
  7 29  1  0
 15 30  1  0
 15 31  1  0
 15 32  1  0
 16 33  1  0
 18 34  1  0
 18 35  1  0
 18 36  1  0
 19 37  1  0
 21 38  1  0
 21 39  1  0
 21 40  1  0
 22 41  1  0
M  CHG  3   4  -1   9  -1  24  -1
M  END
>  <UniqueID>  (34) 
33

>  <SMILES>  (34) 
CC(=O)[N-]c1ccc([N-]S(=O)(=O)c2c(C)cc(C)cc2C)cc1[O-]

>  <Energy>  (34) 
52.35843409712039

>  <Genealogy>  (34) 
CC(=O)[N-]c1ccc([N-]S(=O)(=O)c2c(C)cc(C)cc2C)cc1[O-] (protonated)
CC(=O)[N-]c1ccc([N-]S(=O)(=O)c2c(C)cc(C)cc2C)cc1[O-] (3D coordinates assigned)
CC(=O)[N-]c1ccc([N-]S(=O)(=O)c2c(C)cc(C)cc2C)cc1[O-] (optimized conformer: 52.35843409712039 kcal/mol)

>  <smiles>  (34) 
CC(=O)Nc1ccc(NS(=O)(=O)c2c(C)cc(C)cc2C)cc1O

>  <score_type>  (34) 
oracle

>  <origin>  (34) 
adgpu

>  <m_score__min__energy>  (34) 
-13.279999999999999

>  <m_primary>  (34) 
energy

$$$$
34:0
     RDKit          3D

 33 34  0  0  0  0  0  0  0  0999 V2000
   -3.8590   25.6790  -30.8710 O   0  0  0  0  0  0  0  0  0  0  0  0
   -3.6310   24.6850  -30.1340 C   0  0  0  0  0  0  0  0  0  0  0  0
   -2.5580   24.7130  -29.2530 O   0  0  0  0  0  0  0  0  0  0  0  0
   -4.5110   23.4770  -30.2010 C   0  0  0  0  0  0  0  0  0  0  0  0
   -5.4930   23.6190  -31.2760 N   0  0  0  0  0  0  0  0  0  0  0  0
   -6.5670   22.6830  -31.5250 C   0  0  0  0  0  0  0  0  0  0  0  0
   -7.8490   22.9040  -30.9800 C   0  0  0  0  0  0  0  0  0  0  0  0
   -8.8980   22.0230  -31.2430 C   0  0  0  0  0  0  0  0  0  0  0  0
   -8.6920   20.9110  -32.0560 C   0  0  0  0  0  0  0  0  0  0  0  0
   -7.4320   20.6700  -32.6020 C   0  0  0  0  0  0  0  0  0  0  0  0
   -6.3560   21.5350  -32.3360 C   0  0  0  0  0  0  0  0  0  0  0  0
   -5.0130   21.2200  -32.9400 C   0  0  0  0  0  0  0  0  0  0  0  0
   -4.2080   19.8890  -31.9890 S   0  0  0  0  0  0  0  0  0  0  0  0
   -5.0860   18.5820  -32.8470 C   0  0  0  0  0  0  0  0  0  0  0  0
   -6.0090   17.7870  -32.1550 C   0  0  0  0  0  0  0  0  0  0  0  0
   -6.6940   16.7680  -32.8230 C   0  0  0  0  0  0  0  0  0  0  0  0
   -6.4570   16.5380  -34.1830 C   0  0  0  0  0  0  0  0  0  0  0  0
   -5.5330   17.3290  -34.8740 C   0  0  0  0  0  0  0  0  0  0  0  0
   -4.8470   18.3490  -34.2070 C   0  0  0  0  0  0  0  0  0  0  0  0
   -3.8918   22.5879  -30.3911 H   0  0  0  0  0  0  0  0  0  0  0  0
   -5.0431   23.3703  -29.2442 H   0  0  0  0  0  0  0  0  0  0  0  0
   -5.3810   24.4530  -31.8940 H   0  0  0  0  0  0  0  0  0  0  0  0
   -8.0236   23.7814  -30.3400 H   0  0  0  0  0  0  0  0  0  0  0  0
   -9.8910   22.2070  -30.8070 H   0  0  0  0  0  0  0  0  0  0  0  0
   -9.5236   20.2227  -32.2673 H   0  0  0  0  0  0  0  0  0  0  0  0
   -7.2780   19.7932  -33.2482 H   0  0  0  0  0  0  0  0  0  0  0  0
   -5.1481   20.8945  -33.9820 H   0  0  0  0  0  0  0  0  0  0  0  0
   -4.3814   22.1202  -32.9129 H   0  0  0  0  0  0  0  0  0  0  0  0
   -6.1947   17.9648  -31.0855 H   0  0  0  0  0  0  0  0  0  0  0  0
   -7.4202   16.1461  -32.2791 H   0  0  0  0  0  0  0  0  0  0  0  0
   -6.9967   15.7361  -34.7080 H   0  0  0  0  0  0  0  0  0  0  0  0
   -5.3458   17.1486  -35.9428 H   0  0  0  0  0  0  0  0  0  0  0  0
   -4.1191   18.9688  -34.7511 H   0  0  0  0  0  0  0  0  0  0  0  0
  1  2  2  0
  2  3  1  0
  2  4  1  0
  4  5  1  0
  5  6  1  0
  6  7  2  0
  7  8  1  0
  8  9  2  0
  9 10  1  0
 10 11  2  0
 11 12  1  0
 12 13  1  0
 13 14  1  0
 14 15  2  0
 15 16  1  0
 16 17  2  0
 17 18  1  0
 18 19  2  0
 11  6  1  0
 19 14  1  0
  4 20  1  0
  4 21  1  0
  5 22  1  0
  7 23  1  0
  8 24  1  0
  9 25  1  0
 10 26  1  0
 12 27  1  0
 12 28  1  0
 15 29  1  0
 16 30  1  0
 17 31  1  0
 18 32  1  0
 19 33  1  0
M  CHG  1   3  -1
M  END
>  <UniqueID>  (35) 
34

>  <SMILES>  (35) 
O=C([O-])CNc1ccccc1CSc1ccccc1

>  <Energy>  (35) 
29.987370506007114

>  <Genealogy>  (35) 
O=C([O-])CNc1ccccc1CSc1ccccc1 (protonated)
O=C([O-])CNc1ccccc1CSc1ccccc1 (3D coordinates assigned)
O=C([O-])CNc1ccccc1CSc1ccccc1 (optimized conformer: 29.987370506007114 kcal/mol)

>  <smiles>  (35) 
O=C(O)CNc1ccccc1CSc1ccccc1

>  <score_type>  (35) 
oracle

>  <origin>  (35) 
adgpu

>  <m_score__min__energy>  (35) 
-9.4399999999999995

>  <m_primary>  (35) 
energy

$$$$
35:0
     RDKit          3D

 43 45  0  0  0  0  0  0  0  0999 V2000
   -5.3000   25.6260  -30.4700 C   0  0  0  0  0  0  0  0  0  0  0  0
   -3.9110   25.3200  -30.5040 O   0  0  0  0  0  0  0  0  0  0  0  0
   -3.3720   24.0520  -30.2390 C   0  0  0  0  0  0  0  0  0  0  0  0
   -2.6650   23.7650  -29.0550 C   0  0  0  0  0  0  0  0  0  0  0  0
   -2.1490   22.4850  -28.8380 C   0  0  0  0  0  0  0  0  0  0  0  0
   -2.3300   21.4820  -29.7940 C   0  0  0  0  0  0  0  0  0  0  0  0
   -3.0330   21.7510  -30.9790 C   0  0  0  0  0  0  0  0  0  0  0  0
   -3.2220   20.6880  -31.9850 C   0  0  0  0  0  0  0  0  0  0  0  0
   -4.1230   19.6880  -31.8620 N   0  0  0  0  0  0  0  0  0  0  0  0
   -3.9410   18.9730  -32.9880 C   0  0  0  0  0  0  0  0  0  0  0  0
   -4.7400   17.7590  -33.3480 C   0  0  0  0  0  0  0  0  0  0  0  0
   -6.1860   18.0560  -33.2870 N   0  0  0  0  0  0  0  0  0  0  0  0
   -6.7220   17.8860  -31.9250 C   0  0  0  0  0  0  0  0  0  0  0  0
   -6.5140   19.3850  -33.8530 C   0  0  0  0  0  0  0  0  0  0  0  0
   -7.3130   20.2680  -32.9150 C   0  0  0  0  0  0  0  0  0  0  0  0
   -8.6900   20.0510  -32.7360 C   0  0  0  0  0  0  0  0  0  0  0  0
   -9.4240   20.8610  -31.8640 C   0  0  0  0  0  0  0  0  0  0  0  0
   -8.7920   21.8950  -31.1690 C   0  0  0  0  0  0  0  0  0  0  0  0
   -7.4250   22.1230  -31.3460 C   0  0  0  0  0  0  0  0  0  0  0  0
   -6.6870   21.3160  -32.2170 C   0  0  0  0  0  0  0  0  0  0  0  0
   -2.9570   19.5560  -33.7530 C   0  0  0  0  0  0  0  0  0  0  0  0
   -2.5320   20.6110  -33.1040 O   0  0  0  0  0  0  0  0  0  0  0  0
   -3.5500   23.0410  -31.1920 C   0  0  0  0  0  0  0  0  0  0  0  0
   -5.6338   25.6995  -29.4244 H   0  0  0  0  0  0  0  0  0  0  0  0
   -5.4769   26.5846  -30.9796 H   0  0  0  0  0  0  0  0  0  0  0  0
   -5.8633   24.8304  -30.9796 H   0  0  0  0  0  0  0  0  0  0  0  0
   -2.5188   24.5508  -28.2992 H   0  0  0  0  0  0  0  0  0  0  0  0
   -1.5983   22.2659  -27.9113 H   0  0  0  0  0  0  0  0  0  0  0  0
   -1.9197   20.4768  -29.6172 H   0  0  0  0  0  0  0  0  0  0  0  0
   -4.4780   17.4424  -34.3683 H   0  0  0  0  0  0  0  0  0  0  0  0
   -4.5106   16.9562  -32.6318 H   0  0  0  0  0  0  0  0  0  0  0  0
   -5.9416   18.1335  -31.1903 H   0  0  0  0  0  0  0  0  0  0  0  0
   -7.5838   18.5549  -31.7840 H   0  0  0  0  0  0  0  0  0  0  0  0
   -7.0407   16.8427  -31.7840 H   0  0  0  0  0  0  0  0  0  0  0  0
   -5.5732   19.9000  -34.0972 H   0  0  0  0  0  0  0  0  0  0  0  0
   -7.1402   19.2102  -34.7403 H   0  0  0  0  0  0  0  0  0  0  0  0
   -9.1925   19.2405  -33.2842 H   0  0  0  0  0  0  0  0  0  0  0  0
  -10.5007   20.6838  -31.7251 H   0  0  0  0  0  0  0  0  0  0  0  0
   -9.3709   22.5299  -30.4821 H   0  0  0  0  0  0  0  0  0  0  0  0
   -6.9288   22.9385  -30.7994 H   0  0  0  0  0  0  0  0  0  0  0  0
   -5.6118   21.5017  -32.3569 H   0  0  0  0  0  0  0  0  0  0  0  0
   -2.5944   19.2014  -34.7291 H   0  0  0  0  0  0  0  0  0  0  0  0
   -4.1012   23.2590  -32.1186 H   0  0  0  0  0  0  0  0  0  0  0  0
  1  2  1  0
  2  3  1  0
  3  4  2  0
  4  5  1  0
  5  6  2  0
  6  7  1  0
  7  8  1  0
  8  9  2  0
  9 10  1  0
 10 11  1  0
 11 12  1  0
 12 13  1  0
 12 14  1  0
 14 15  1  0
 15 16  2  0
 16 17  1  0
 17 18  2  0
 18 19  1  0
 19 20  2  0
 10 21  2  0
 21 22  1  0
  7 23  2  0
 23  3  1  0
 22  8  1  0
 20 15  1  0
  1 24  1  0
  1 25  1  0
  1 26  1  0
  4 27  1  0
  5 28  1  0
  6 29  1  0
 11 30  1  0
 11 31  1  0
 13 32  1  0
 13 33  1  0
 13 34  1  0
 14 35  1  0
 14 36  1  0
 16 37  1  0
 17 38  1  0
 18 39  1  0
 19 40  1  0
 20 41  1  0
 21 42  1  0
 23 43  1  0
M  END
>  <UniqueID>  (36) 
35

>  <SMILES>  (36) 
COc1cccc(-c2nc(CN(C)Cc3ccccc3)co2)c1

>  <Energy>  (36) 
76.21144472937922

>  <Genealogy>  (36) 
COc1cccc(-c2nc(CN(C)Cc3ccccc3)co2)c1 (3D coordinates assigned)
COc1cccc(-c2nc(CN(C)Cc3ccccc3)co2)c1 (optimized conformer: 76.21144472937922 kcal/mol)

>  <smiles>  (36) 
COc1cccc(-c2nc(CN(C)Cc3ccccc3)co2)c1

>  <score_type>  (36) 
oracle

>  <origin>  (36) 
adgpu

>  <m_score__min__energy>  (36) 
-7.9699999999999998

>  <m_primary>  (36) 
energy

$$$$
36:0
     RDKit          3D

 55 58  0  0  0  0  0  0  0  0999 V2000
   -4.2050   24.0370  -28.7760 C   0  0  0  0  0  0  0  0  0  0  0  0
   -3.3820   24.8970  -29.6720 C   0  0  0  0  0  0  0  0  0  0  0  0
   -3.8720   25.3120  -30.7560 O   0  0  0  0  0  0  0  0  0  0  0  0
   -2.0100   25.1380  -29.3440 N   0  0  0  0  0  0  0  0  0  0  0  0
   -1.4730   25.4010  -28.0410 C   0  0  0  0  0  0  0  0  0  0  0  0
   -1.1440   26.7090  -27.6360 C   0  0  0  0  0  0  0  0  0  0  0  0
   -0.7080   26.9580  -26.3290 C   0  0  0  0  0  0  0  0  0  0  0  0
   -0.6160   25.9120  -25.4120 C   0  0  0  0  0  0  0  0  0  0  0  0
   -0.9600   24.6140  -25.7940 C   0  0  0  0  0  0  0  0  0  0  0  0
   -1.3740   24.3470  -27.1060 C   0  0  0  0  0  0  0  0  0  0  0  0
   -1.6890   22.9960  -27.4630 N   0  0  0  0  0  0  0  0  0  0  0  0
   -0.4820   21.8590  -27.9660 S   0  0  0  0  0  0  0  0  0  0  0  0
    0.8620   22.5310  -27.9480 O   0  0  0  0  0  0  0  0  0  0  0  0
   -0.4420   20.6870  -27.0260 O   0  0  0  0  0  0  0  0  0  0  0  0
   -0.8300   21.3220  -29.6080 C   0  0  0  0  0  0  0  0  0  0  0  0
   -1.5970   22.1250  -30.4610 C   0  0  0  0  0  0  0  0  0  0  0  0
   -1.9190   21.6810  -31.7470 C   0  0  0  0  0  0  0  0  0  0  0  0
   -1.4840   20.4270  -32.1960 C   0  0  0  0  0  0  0  0  0  0  0  0
   -1.8690   19.9760  -33.5080 N   0  0  0  0  0  0  0  0  0  0  0  0
   -3.0490   19.2030  -33.7870 C   0  0  0  0  0  0  0  0  0  0  0  0
   -2.9410   18.0560  -34.5810 C   0  0  0  0  0  0  0  0  0  0  0  0
   -4.0700   17.2880  -34.8690 C   0  0  0  0  0  0  0  0  0  0  0  0
   -5.3230   17.6450  -34.3600 C   0  0  0  0  0  0  0  0  0  0  0  0
   -6.4280   16.8760  -34.7300 O   0  0  0  0  0  0  0  0  0  0  0  0
   -5.4400   18.7720  -33.5120 C   0  0  0  0  0  0  0  0  0  0  0  0
   -6.7360   19.1470  -32.9050 C   0  0  0  0  0  0  0  0  0  0  0  0
   -7.1600   20.4870  -32.9180 C   0  0  0  0  0  0  0  0  0  0  0  0
   -8.3770   20.8440  -32.3310 C   0  0  0  0  0  0  0  0  0  0  0  0
   -9.1750   19.8700  -31.7240 C   0  0  0  0  0  0  0  0  0  0  0  0
   -8.7560   18.5390  -31.6980 C   0  0  0  0  0  0  0  0  0  0  0  0
   -7.5380   18.1770  -32.2810 C   0  0  0  0  0  0  0  0  0  0  0  0
   -4.2950   19.5430  -33.2260 C   0  0  0  0  0  0  0  0  0  0  0  0
   -4.3840   20.5890  -32.3630 F   0  0  0  0  0  0  0  0  0  0  0  0
   -0.7340   19.6130  -31.3270 C   0  0  0  0  0  0  0  0  0  0  0  0
   -0.3990   20.0660  -30.0480 C   0  0  0  0  0  0  0  0  0  0  0  0
   -3.9763   24.2760  -27.7269 H   0  0  0  0  0  0  0  0  0  0  0  0
   -5.2720   24.2210  -28.9698 H   0  0  0  0  0  0  0  0  0  0  0  0
   -3.9743   22.9791  -28.9698 H   0  0  0  0  0  0  0  0  0  0  0  0
   -1.2301   27.5404  -28.3511 H   0  0  0  0  0  0  0  0  0  0  0  0
   -0.4377   27.9801  -26.0254 H   0  0  0  0  0  0  0  0  0  0  0  0
   -0.2719   26.1096  -24.3861 H   0  0  0  0  0  0  0  0  0  0  0  0
   -0.9058   23.7959  -25.0607 H   0  0  0  0  0  0  0  0  0  0  0  0
   -1.9477   23.1095  -30.1178 H   0  0  0  0  0  0  0  0  0  0  0  0
   -2.5183   22.3209  -32.4113 H   0  0  0  0  0  0  0  0  0  0  0  0
   -1.3030   20.3010  -34.3240 H   0  0  0  0  0  0  0  0  0  0  0  0
   -1.9604   17.7579  -34.9805 H   0  0  0  0  0  0  0  0  0  0  0  0
   -3.9737   16.3936  -35.5021 H   0  0  0  0  0  0  0  0  0  0  0  0
   -6.5960   15.9440  -34.3760 H   0  0  0  0  0  0  0  0  0  0  0  0
   -6.5325   21.2565  -33.3913 H   0  0  0  0  0  0  0  0  0  0  0  0
   -8.7074   21.8931  -32.3467 H   0  0  0  0  0  0  0  0  0  0  0  0
  -10.1344   20.1529  -31.2663 H   0  0  0  0  0  0  0  0  0  0  0  0
   -9.3846   17.7742  -31.2184 H   0  0  0  0  0  0  0  0  0  0  0  0
   -7.2064   17.1286  -32.2510 H   0  0  0  0  0  0  0  0  0  0  0  0
   -0.4097   18.6148  -31.6562 H   0  0  0  0  0  0  0  0  0  0  0  0
    0.2066   19.4317  -29.3840 H   0  0  0  0  0  0  0  0  0  0  0  0
  1  2  1  0
  2  3  2  0
  2  4  1  0
  4  5  1  0
  5  6  2  0
  6  7  1  0
  7  8  2  0
  8  9  1  0
  9 10  2  0
 10 11  1  0
 11 12  1  0
 12 13  2  0
 12 14  2  0
 12 15  1  0
 15 16  2  0
 16 17  1  0
 17 18  2  0
 18 19  1  0
 19 20  1  0
 20 21  2  0
 21 22  1  0
 22 23  2  0
 23 24  1  0
 23 25  1  0
 25 26  1  0
 26 27  2  0
 27 28  1  0
 28 29  2  0
 29 30  1  0
 30 31  2  0
 25 32  2  0
 32 33  1  0
 18 34  1  0
 34 35  2  0
 10  5  1  0
 35 15  1  0
 32 20  1  0
 31 26  1  0
  1 36  1  0
  1 37  1  0
  1 38  1  0
  6 39  1  0
  7 40  1  0
  8 41  1  0
  9 42  1  0
 16 43  1  0
 17 44  1  0
 19 45  1  0
 21 46  1  0
 22 47  1  0
 24 48  1  0
 27 49  1  0
 28 50  1  0
 29 51  1  0
 30 52  1  0
 31 53  1  0
 34 54  1  0
 35 55  1  0
M  CHG  2   4  -1  11  -1
M  END
>  <UniqueID>  (37) 
36

>  <SMILES>  (37) 
CC(=O)[N-]c1ccccc1[N-]S(=O)(=O)c1ccc(Nc2ccc(O)c(-c3ccccc3)c2F)cc1

>  <Energy>  (37) 
83.30285106891672

>  <Genealogy>  (37) 
CC(=O)[N-]c1ccccc1[N-]S(=O)(=O)c1ccc(Nc2ccc(O)c(-c3ccccc3)c2F)cc1 (protonated)
CC(=O)[N-]c1ccccc1[N-]S(=O)(=O)c1ccc(Nc2ccc(O)c(-c3ccccc3)c2F)cc1 (3D coordinates assigned)
CC(=O)[N-]c1ccccc1[N-]S(=O)(=O)c1ccc(Nc2ccc(O)c(-c3ccccc3)c2F)cc1 (optimized conformer: 83.30285106891672 kcal/mol)

>  <smiles>  (37) 
CC(=O)Nc1ccccc1NS(=O)(=O)c1ccc(Nc2ccc(O)c(-c3ccccc3)c2F)cc1

>  <score_type>  (37) 
oracle

>  <origin>  (37) 
adgpu

>  <m_score__min__energy>  (37) 
-12.56

>  <m_primary>  (37) 
energy

$$$$
37:0
     RDKit          3D

 37 38  0  0  0  0  0  0  0  0999 V2000
   -1.8220   21.5170  -32.1630 C   0  0  0  0  0  0  0  0  0  0  0  0
   -2.0240   20.0260  -32.4230 C   0  0  0  0  0  0  0  0  0  0  0  0
   -2.2980   19.7220  -33.9010 C   0  0  0  0  0  0  0  0  0  0  0  0
   -2.4110   17.9250  -34.2350 S   0  0  0  0  0  0  0  0  0  0  0  0
   -4.1900   17.8320  -34.0320 C   0  0  0  0  0  0  0  0  0  0  0  0
   -4.9370   18.9920  -33.8140 C   0  0  0  0  0  0  0  0  0  0  0  0
   -6.3220   18.8780  -33.6580 C   0  0  0  0  0  0  0  0  0  0  0  0
   -7.1200   20.0550  -33.4530 N   0  0  0  0  0  0  0  0  0  0  0  0
   -6.7110   21.1750  -32.6500 C   0  0  0  0  0  0  0  0  0  0  0  0
   -7.5870   21.7740  -31.7280 C   0  0  0  0  0  0  0  0  0  0  0  0
   -7.1570   22.8470  -30.9410 C   0  0  0  0  0  0  0  0  0  0  0  0
   -5.8460   23.3270  -31.0560 C   0  0  0  0  0  0  0  0  0  0  0  0
   -5.2990   24.6690  -30.0580 S   0  0  0  0  0  0  0  0  0  0  0  0
   -3.8140   25.2990  -30.6810 N   0  0  0  0  0  0  0  0  0  0  0  0
   -6.3280   25.7660  -30.0650 O   0  0  0  0  0  0  0  0  0  0  0  0
   -5.0890   24.1930  -28.6490 O   0  0  0  0  0  0  0  0  0  0  0  0
   -4.9610   22.7120  -31.9510 C   0  0  0  0  0  0  0  0  0  0  0  0
   -5.3890   21.6390  -32.7380 C   0  0  0  0  0  0  0  0  0  0  0  0
   -6.9050   17.6510  -33.7520 N   0  0  0  0  0  0  0  0  0  0  0  0
   -6.1660   16.5340  -33.9740 C   0  0  0  0  0  0  0  0  0  0  0  0
   -6.7480   15.3820  -34.0520 N   0  0  0  0  0  0  0  0  0  0  0  0
   -4.8160   16.6300  -34.1140 N   0  0  0  0  0  0  0  0  0  0  0  0
   -1.7972   21.7000  -31.0786 H   0  0  0  0  0  0  0  0  0  0  0  0
   -0.8716   21.8420  -32.6115 H   0  0  0  0  0  0  0  0  0  0  0  0
   -2.6517   22.0831  -32.6115 H   0  0  0  0  0  0  0  0  0  0  0  0
   -1.1160   19.4874  -32.1140 H   0  0  0  0  0  0  0  0  0  0  0  0
   -2.9019   19.7008  -31.8454 H   0  0  0  0  0  0  0  0  0  0  0  0
   -3.2484   20.1952  -34.1886 H   0  0  0  0  0  0  0  0  0  0  0  0
   -1.4561   20.1197  -34.4868 H   0  0  0  0  0  0  0  0  0  0  0  0
   -4.4458   19.9751  -33.7660 H   0  0  0  0  0  0  0  0  0  0  0  0
   -8.0890   20.0650  -33.8460 H   0  0  0  0  0  0  0  0  0  0  0  0
   -8.6153   21.3970  -31.6252 H   0  0  0  0  0  0  0  0  0  0  0  0
   -7.8513   23.3162  -30.2284 H   0  0  0  0  0  0  0  0  0  0  0  0
   -4.0450   26.1890  -31.1780 H   0  0  0  0  0  0  0  0  0  0  0  0
   -3.9259   23.0747  -32.0347 H   0  0  0  0  0  0  0  0  0  0  0  0
   -4.6851   21.1549  -33.4310 H   0  0  0  0  0  0  0  0  0  0  0  0
   -6.2060   14.5060  -34.2220 H   0  0  0  0  0  0  0  0  0  0  0  0
  1  2  1  0
  2  3  1  0
  3  4  1  0
  4  5  1  0
  5  6  1  0
  6  7  2  0
  7  8  1  0
  8  9  1  0
  9 10  2  0
 10 11  1  0
 11 12  2  0
 12 13  1  0
 13 14  1  0
 13 15  2  0
 13 16  2  0
 12 17  1  0
 17 18  2  0
  7 19  1  0
 19 20  1  0
 20 21  2  3
 20 22  1  0
 22  5  2  0
 18  9  1  0
  1 23  1  0
  1 24  1  0
  1 25  1  0
  2 26  1  0
  2 27  1  0
  3 28  1  0
  3 29  1  0
  6 30  1  0
  8 31  1  0
 10 32  1  0
 11 33  1  0
 14 34  1  0
 17 35  1  0
 18 36  1  0
 21 37  1  0
M  CHG  2  14  -1  19  -1
M  END
>  <UniqueID>  (38) 
37

>  <SMILES>  (38) 
CCCSc1cc(Nc2ccc(S([NH-])(=O)=O)cc2)[n-]c(=N)n1

>  <Energy>  (38) 
33.4688997311105

>  <Genealogy>  (38) 
CCCSc1cc(Nc2ccc(S([NH-])(=O)=O)cc2)[n-]c(=N)n1 (protonated)
CCCSc1cc(Nc2ccc(S([NH-])(=O)=O)cc2)[n-]c(=N)n1 (3D coordinates assigned)
CCCSc1cc(Nc2ccc(S([NH-])(=O)=O)cc2)[n-]c(=N)n1 (optimized conformer: 33.4688997311105 kcal/mol)

>  <smiles>  (38) 
CCCSc1cc(Nc2ccc(S(N)(=O)=O)cc2)[nH]c(=N)n1

>  <score_type>  (38) 
oracle

>  <origin>  (38) 
adgpu

>  <m_score__min__energy>  (38) 
-9.9800000000000004

>  <m_primary>  (38) 
energy

$$$$
38:0
     RDKit          3D

 44 45  0  0  0  0  0  0  0  0999 V2000
    0.1120   20.0060  -34.4620 N   0  0  0  0  0  0  0  0  0  0  0  0
   -0.4650   20.7410  -33.3800 C   0  0  0  0  0  0  0  0  0  0  0  0
   -1.5250   21.4660  -33.5840 N   0  0  0  0  0  0  0  0  0  0  0  0
    0.1870   20.7300  -32.0990 N   0  0  0  0  0  0  0  0  0  0  0  0
   -0.4900   20.8760  -30.8380 C   0  0  0  0  0  0  0  0  0  0  0  0
   -0.4920   19.8410  -29.8860 C   0  0  0  0  0  0  0  0  0  0  0  0
   -1.1400   20.0130  -28.6600 C   0  0  0  0  0  0  0  0  0  0  0  0
   -1.7740   21.2230  -28.3650 C   0  0  0  0  0  0  0  0  0  0  0  0
   -1.7510   22.2760  -29.2910 C   0  0  0  0  0  0  0  0  0  0  0  0
   -2.4540   23.5690  -28.9830 C   0  0  0  0  0  0  0  0  0  0  0  0
   -3.7780   23.8480  -30.1490 S   0  0  0  0  0  0  0  0  0  0  0  0
   -3.8620   25.3120  -30.4840 O   0  0  0  0  0  0  0  0  0  0  0  0
   -5.0780   23.4110  -29.5370 O   0  0  0  0  0  0  0  0  0  0  0  0
   -3.4940   22.9130  -31.5880 N   0  0  0  0  0  0  0  0  0  0  0  0
   -4.1150   21.5900  -31.4950 C   0  0  0  0  0  0  0  0  0  0  0  0
   -5.0140   21.3430  -32.7090 C   0  0  0  0  0  0  0  0  0  0  0  0
   -6.4640   21.5780  -32.3590 C   0  0  0  0  0  0  0  0  0  0  0  0
   -7.3300   20.4710  -32.2840 C   0  0  0  0  0  0  0  0  0  0  0  0
   -8.6750   20.6410  -31.9500 C   0  0  0  0  0  0  0  0  0  0  0  0
   -9.1720   21.9150  -31.6770 C   0  0  0  0  0  0  0  0  0  0  0  0
   -8.3230   23.0220  -31.7290 C   0  0  0  0  0  0  0  0  0  0  0  0
   -6.9710   22.8680  -32.0580 C   0  0  0  0  0  0  0  0  0  0  0  0
   -6.1670   24.0110  -32.0720 O   0  0  0  0  0  0  0  0  0  0  0  0
   -1.1090   22.0960  -30.5260 C   0  0  0  0  0  0  0  0  0  0  0  0
    0.9750   19.4380  -34.3100 H   0  0  0  0  0  0  0  0  0  0  0  0
   -0.3200   20.0180  -35.4120 H   0  0  0  0  0  0  0  0  0  0  0  0
   -1.9830   21.4880  -34.5220 H   0  0  0  0  0  0  0  0  0  0  0  0
   -1.9260   22.0700  -32.8340 H   0  0  0  0  0  0  0  0  0  0  0  0
    1.2230   20.5910  -32.0860 H   0  0  0  0  0  0  0  0  0  0  0  0
    0.0186   18.8922  -30.1073 H   0  0  0  0  0  0  0  0  0  0  0  0
   -1.1511   19.1942  -27.9255 H   0  0  0  0  0  0  0  0  0  0  0  0
   -2.2928   21.3499  -27.4033 H   0  0  0  0  0  0  0  0  0  0  0  0
   -2.8701   23.5224  -27.9658 H   0  0  0  0  0  0  0  0  0  0  0  0
   -1.7318   24.3954  -29.0573 H   0  0  0  0  0  0  0  0  0  0  0  0
   -3.3292   20.8210  -31.4620 H   0  0  0  0  0  0  0  0  0  0  0  0
   -4.7246   21.5425  -30.5806 H   0  0  0  0  0  0  0  0  0  0  0  0
   -4.7228   22.0282  -33.5188 H   0  0  0  0  0  0  0  0  0  0  0  0
   -4.8937   20.2978  -33.0301 H   0  0  0  0  0  0  0  0  0  0  0  0
   -6.9434   19.4621  -32.4905 H   0  0  0  0  0  0  0  0  0  0  0  0
   -9.3435   19.7688  -31.9021 H   0  0  0  0  0  0  0  0  0  0  0  0
  -10.2334   22.0478  -31.4206 H   0  0  0  0  0  0  0  0  0  0  0  0
   -8.7199   24.0241  -31.5095 H   0  0  0  0  0  0  0  0  0  0  0  0
   -5.3020   24.0930  -31.5560 H   0  0  0  0  0  0  0  0  0  0  0  0
   -1.0909   22.9187  -31.2559 H   0  0  0  0  0  0  0  0  0  0  0  0
  1  2  1  0
  2  3  2  0
  2  4  1  0
  4  5  1  0
  5  6  2  0
  6  7  1  0
  7  8  2  0
  8  9  1  0
  9 10  1  0
 10 11  1  0
 11 12  2  0
 11 13  2  0
 11 14  1  0
 14 15  1  0
 15 16  1  0
 16 17  1  0
 17 18  2  0
 18 19  1  0
 19 20  2  0
 20 21  1  0
 21 22  2  0
 22 23  1  0
  9 24  2  0
 24  5  1  0
 22 17  1  0
  1 25  1  0
  1 26  1  0
  3 27  1  0
  3 28  1  0
  4 29  1  0
  6 30  1  0
  7 31  1  0
  8 32  1  0
 10 33  1  0
 10 34  1  0
 15 35  1  0
 15 36  1  0
 16 37  1  0
 16 38  1  0
 18 39  1  0
 19 40  1  0
 20 41  1  0
 21 42  1  0
 23 43  1  0
 24 44  1  0
M  CHG  2   3   1  14  -1
M  END
>  <UniqueID>  (39) 
38

>  <SMILES>  (39) 
NC(=[NH2+])Nc1cccc(CS(=O)(=O)[N-]CCc2ccccc2O)c1

>  <Energy>  (39) 
40.33398409445168

>  <Genealogy>  (39) 
NC(=[NH2+])Nc1cccc(CS(=O)(=O)[N-]CCc2ccccc2O)c1 (protonated)
NC(=[NH2+])Nc1cccc(CS(=O)(=O)[N-]CCc2ccccc2O)c1 (3D coordinates assigned)
NC(=[NH2+])Nc1cccc(CS(=O)(=O)[N-]CCc2ccccc2O)c1 (optimized conformer: 40.33398409445168 kcal/mol)

>  <smiles>  (39) 
N=C(N)Nc1cccc(CS(=O)(=O)NCCc2ccccc2O)c1

>  <score_type>  (39) 
oracle

>  <origin>  (39) 
adgpu

>  <m_score__min__energy>  (39) 
-11.18

>  <m_primary>  (39) 
energy

$$$$
39:0
     RDKit          3D

 47 49  0  0  0  0  0  0  0  0999 V2000
   -2.1870   25.9910  -25.8540 C   0  0  0  0  0  0  0  0  0  0  0  0
   -1.6410   24.5970  -26.0140 C   0  0  0  0  0  0  0  0  0  0  0  0
   -0.6440   24.1500  -25.1290 C   0  0  0  0  0  0  0  0  0  0  0  0
   -0.1490   22.8470  -25.2190 C   0  0  0  0  0  0  0  0  0  0  0  0
   -0.6430   21.9760  -26.1910 C   0  0  0  0  0  0  0  0  0  0  0  0
   -1.6190   22.4110  -27.0900 C   0  0  0  0  0  0  0  0  0  0  0  0
   -2.1060   23.7260  -27.0310 C   0  0  0  0  0  0  0  0  0  0  0  0
   -3.0950   24.1400  -27.9850 N   0  0  0  0  0  0  0  0  0  0  0  0
   -4.2380   23.3320  -28.3060 C   0  0  0  0  0  0  0  0  0  0  0  0
   -4.5660   22.3850  -27.5380 O   0  0  0  0  0  0  0  0  0  0  0  0
   -5.0630   23.6190  -29.5040 C   0  0  0  0  0  0  0  0  0  0  0  0
   -6.2340   22.8720  -29.7280 C   0  0  0  0  0  0  0  0  0  0  0  0
   -7.0270   23.1040  -30.8610 C   0  0  0  0  0  0  0  0  0  0  0  0
   -8.4710   22.1280  -31.1490 S   0  0  0  0  0  0  0  0  0  0  0  0
   -9.0600   21.7130  -29.8280 O   0  0  0  0  0  0  0  0  0  0  0  0
   -9.4930   22.9600  -31.8740 O   0  0  0  0  0  0  0  0  0  0  0  0
   -8.1050   20.7070  -32.0990 N   0  0  0  0  0  0  0  0  0  0  0  0
   -6.7500   20.7890  -32.7050 C   0  0  0  0  0  0  0  0  0  0  0  0
   -5.7110   19.9350  -31.9630 C   0  0  0  0  0  0  0  0  0  0  0  0
   -6.1270   18.4540  -31.9360 C   0  0  0  0  0  0  0  0  0  0  0  0
   -7.6550   18.2640  -31.9260 C   0  0  0  0  0  0  0  0  0  0  0  0
   -8.3570   19.4800  -31.3110 C   0  0  0  0  0  0  0  0  0  0  0  0
   -6.6560   24.1000  -31.7720 C   0  0  0  0  0  0  0  0  0  0  0  0
   -5.4920   24.8410  -31.5650 C   0  0  0  0  0  0  0  0  0  0  0  0
   -4.6870   24.6000  -30.4460 C   0  0  0  0  0  0  0  0  0  0  0  0
   -3.5080   25.3210  -30.3010 O   0  0  0  0  0  0  0  0  0  0  0  0
   -2.2798   26.2279  -24.7838 H   0  0  0  0  0  0  0  0  0  0  0  0
   -1.5038   26.7093  -26.3306 H   0  0  0  0  0  0  0  0  0  0  0  0
   -3.1763   26.0542  -26.3306 H   0  0  0  0  0  0  0  0  0  0  0  0
   -0.2510   24.8315  -24.3601 H   0  0  0  0  0  0  0  0  0  0  0  0
    0.6315   22.5068  -24.5225 H   0  0  0  0  0  0  0  0  0  0  0  0
   -0.2630   20.9453  -26.2491 H   0  0  0  0  0  0  0  0  0  0  0  0
   -2.0090   21.7179  -27.8500 H   0  0  0  0  0  0  0  0  0  0  0  0
   -3.1060   25.1430  -28.2780 H   0  0  0  0  0  0  0  0  0  0  0  0
   -6.5309   22.0970  -29.0060 H   0  0  0  0  0  0  0  0  0  0  0  0
   -6.8099   20.4420  -33.7471 H   0  0  0  0  0  0  0  0  0  0  0  0
   -6.4225   21.8371  -32.6409 H   0  0  0  0  0  0  0  0  0  0  0  0
   -4.7408   20.0262  -32.4733 H   0  0  0  0  0  0  0  0  0  0  0  0
   -5.6387   20.2960  -30.9265 H   0  0  0  0  0  0  0  0  0  0  0  0
   -5.7168   17.9573  -32.8277 H   0  0  0  0  0  0  0  0  0  0  0  0
   -5.7325   18.0158  -31.0074 H   0  0  0  0  0  0  0  0  0  0  0  0
   -8.0074   18.1300  -32.9594 H   0  0  0  0  0  0  0  0  0  0  0  0
   -7.8935   17.3782  -31.3190 H   0  0  0  0  0  0  0  0  0  0  0  0
   -9.4401   19.2904  -31.2812 H   0  0  0  0  0  0  0  0  0  0  0  0
   -7.9585   19.6327  -30.2972 H   0  0  0  0  0  0  0  0  0  0  0  0
   -7.2836   24.2990  -32.6532 H   0  0  0  0  0  0  0  0  0  0  0  0
   -5.2051   25.6201  -32.2865 H   0  0  0  0  0  0  0  0  0  0  0  0
  1  2  1  0
  2  3  2  0
  3  4  1  0
  4  5  2  0
  5  6  1  0
  6  7  2  0
  7  8  1  0
  8  9  1  0
  9 10  2  0
  9 11  1  0
 11 12  2  0
 12 13  1  0
 13 14  1  0
 14 15  2  0
 14 16  2  0
 14 17  1  0
 17 18  1  0
 18 19  1  0
 19 20  1  0
 20 21  1  0
 21 22  1  0
 13 23  2  0
 23 24  1  0
 24 25  2  0
 25 26  1  0
  7  2  1  0
 25 11  1  0
 22 17  1  0
  1 27  1  0
  1 28  1  0
  1 29  1  0
  3 30  1  0
  4 31  1  0
  5 32  1  0
  6 33  1  0
  8 34  1  0
 12 35  1  0
 18 36  1  0
 18 37  1  0
 19 38  1  0
 19 39  1  0
 20 40  1  0
 20 41  1  0
 21 42  1  0
 21 43  1  0
 22 44  1  0
 22 45  1  0
 23 46  1  0
 24 47  1  0
M  CHG  1  26  -1
M  END
>  <UniqueID>  (40) 
39

>  <SMILES>  (40) 
Cc1ccccc1NC(=O)c1cc(S(=O)(=O)N2CCCCC2)ccc1[O-]

>  <Energy>  (40) 
62.163993263114634

>  <Genealogy>  (40) 
Cc1ccccc1NC(=O)c1cc(S(=O)(=O)N2CCCCC2)ccc1[O-] (protonated)
Cc1ccccc1NC(=O)c1cc(S(=O)(=O)N2CCCCC2)ccc1[O-] (3D coordinates assigned)
Cc1ccccc1NC(=O)c1cc(S(=O)(=O)N2CCCCC2)ccc1[O-] (nonaromatic ring conformer: 62.163993263114634 kcal/mol)

>  <smiles>  (40) 
Cc1ccccc1NC(=O)c1cc(S(=O)(=O)N2CCCCC2)ccc1O

>  <score_type>  (40) 
oracle

>  <origin>  (40) 
adgpu

>  <m_score__min__energy>  (40) 
-12.25

>  <m_primary>  (40) 
energy

$$$$
40:0
     RDKit          3D

 43 45  0  0  0  0  0  0  0  0999 V2000
   -0.2430   21.9200  -34.4150 N   0  0  0  0  0  0  0  0  0  0  0  0
   -0.7500   21.2170  -33.2810 C   0  0  0  0  0  0  0  0  0  0  0  0
   -0.0100   21.0680  -32.2720 O   0  0  0  0  0  0  0  0  0  0  0  0
   -2.1280   20.6720  -33.2860 C   0  0  0  0  0  0  0  0  0  0  0  0
   -3.2340   21.5210  -33.4570 C   0  0  0  0  0  0  0  0  0  0  0  0
   -4.5340   21.0060  -33.4490 C   0  0  0  0  0  0  0  0  0  0  0  0
   -4.7520   19.6270  -33.2890 C   0  0  0  0  0  0  0  0  0  0  0  0
   -6.0700   19.0610  -33.2510 N   0  0  0  0  0  0  0  0  0  0  0  0
   -7.1050   19.3580  -32.3010 C   0  0  0  0  0  0  0  0  0  0  0  0
   -7.7270   18.4220  -31.7300 O   0  0  0  0  0  0  0  0  0  0  0  0
   -7.4110   20.7680  -31.9570 C   0  0  0  0  0  0  0  0  0  0  0  0
   -8.6630   21.3230  -32.2790 C   0  0  0  0  0  0  0  0  0  0  0  0
   -8.9500   22.6530  -31.9640 C   0  0  0  0  0  0  0  0  0  0  0  0
   -7.9960   23.4450  -31.3250 C   0  0  0  0  0  0  0  0  0  0  0  0
   -6.7430   22.9080  -30.9970 C   0  0  0  0  0  0  0  0  0  0  0  0
   -5.5450   23.8960  -30.1640 S   0  0  0  0  0  0  0  0  0  0  0  0
   -4.6120   24.4830  -31.1830 O   0  0  0  0  0  0  0  0  0  0  0  0
   -6.2200   25.0240  -29.4350 O   0  0  0  0  0  0  0  0  0  0  0  0
   -4.6210   22.9630  -29.0310 N   0  0  0  0  0  0  0  0  0  0  0  0
   -3.1950   22.8780  -29.0660 C   0  0  0  0  0  0  0  0  0  0  0  0
   -2.5520   21.6320  -28.9820 C   0  0  0  0  0  0  0  0  0  0  0  0
   -1.1590   21.5530  -29.0430 C   0  0  0  0  0  0  0  0  0  0  0  0
   -0.3980   22.7120  -29.2070 C   0  0  0  0  0  0  0  0  0  0  0  0
   -1.0310   23.9530  -29.3200 C   0  0  0  0  0  0  0  0  0  0  0  0
   -2.4270   24.0440  -29.2560 C   0  0  0  0  0  0  0  0  0  0  0  0
   -3.0280   25.2980  -29.3770 O   0  0  0  0  0  0  0  0  0  0  0  0
   -6.4550   21.5730  -31.3110 C   0  0  0  0  0  0  0  0  0  0  0  0
   -3.6530   18.7810  -33.0970 C   0  0  0  0  0  0  0  0  0  0  0  0
   -2.3530   19.2940  -33.1000 C   0  0  0  0  0  0  0  0  0  0  0  0
   -0.8870   22.3760  -35.0970 H   0  0  0  0  0  0  0  0  0  0  0  0
   -3.0760   22.6004  -33.5984 H   0  0  0  0  0  0  0  0  0  0  0  0
   -5.3914   21.6846  -33.5687 H   0  0  0  0  0  0  0  0  0  0  0  0
   -9.4212   20.7051  -32.7824 H   0  0  0  0  0  0  0  0  0  0  0  0
   -9.9318   23.0775  -32.2207 H   0  0  0  0  0  0  0  0  0  0  0  0
   -8.2269   24.4918  -31.0782 H   0  0  0  0  0  0  0  0  0  0  0  0
   -3.1481   20.7146  -28.8677 H   0  0  0  0  0  0  0  0  0  0  0  0
   -0.6605   20.5758  -28.9617 H   0  0  0  0  0  0  0  0  0  0  0  0
    0.6994   22.6485  -29.2473 H   0  0  0  0  0  0  0  0  0  0  0  0
   -0.4294   24.8632  -29.4600 H   0  0  0  0  0  0  0  0  0  0  0  0
   -4.0310   25.4280  -29.3090 H   0  0  0  0  0  0  0  0  0  0  0  0
   -5.4732   21.1510  -31.0502 H   0  0  0  0  0  0  0  0  0  0  0  0
   -3.8141   17.7039  -32.9425 H   0  0  0  0  0  0  0  0  0  0  0  0
   -1.4987   18.6162  -32.9560 H   0  0  0  0  0  0  0  0  0  0  0  0
  1  2  1  0
  2  3  2  0
  2  4  1  0
  4  5  2  0
  5  6  1  0
  6  7  2  0
  7  8  1  0
  8  9  1  0
  9 10  2  0
  9 11  1  0
 11 12  2  0
 12 13  1  0
 13 14  2  0
 14 15  1  0
 15 16  1  0
 16 17  2  0
 16 18  2  0
 16 19  1  0
 19 20  1  0
 20 21  2  0
 21 22  1  0
 22 23  2  0
 23 24  1  0
 24 25  2  0
 25 26  1  0
 15 27  2  0
  7 28  1  0
 28 29  2  0
 29  4  1  0
 27 11  1  0
 25 20  1  0
  1 30  1  0
  5 31  1  0
  6 32  1  0
 12 33  1  0
 13 34  1  0
 14 35  1  0
 21 36  1  0
 22 37  1  0
 23 38  1  0
 24 39  1  0
 26 40  1  0
 27 41  1  0
 28 42  1  0
 29 43  1  0
M  CHG  3   1  -1   8  -1  19  -1
M  END
>  <UniqueID>  (41) 
40

>  <SMILES>  (41) 
[NH-]C(=O)c1ccc([N-]C(=O)c2cccc(S(=O)(=O)[N-]c3ccccc3O)c2)cc1

>  <Energy>  (41) 
59.41523420521803

>  <Genealogy>  (41) 
[NH-]C(=O)c1ccc([N-]C(=O)c2cccc(S(=O)(=O)[N-]c3ccccc3O)c2)cc1 (protonated)
[NH-]C(=O)c1ccc([N-]C(=O)c2cccc(S(=O)(=O)[N-]c3ccccc3O)c2)cc1 (3D coordinates assigned)
[NH-]C(=O)c1ccc([N-]C(=O)c2cccc(S(=O)(=O)[N-]c3ccccc3O)c2)cc1 (optimized conformer: 59.41523420521803 kcal/mol)

>  <smiles>  (41) 
NC(=O)c1ccc(NC(=O)c2cccc(S(=O)(=O)Nc3ccccc3O)c2)cc1

>  <score_type>  (41) 
oracle

>  <origin>  (41) 
adgpu

>  <m_score__min__energy>  (41) 
-11.470000000000001

>  <m_primary>  (41) 
energy

$$$$
41:0
     RDKit          3D

 59 62  0  0  0  0  0  0  0  0999 V2000
   -4.1620   15.8120  -33.1420 C   0  0  0  0  0  0  0  0  0  0  0  0
   -5.4770   16.3580  -32.6090 C   0  0  0  0  0  0  0  0  0  0  0  0
   -6.2130   16.9390  -33.6790 O   0  0  0  0  0  0  0  0  0  0  0  0
   -5.8900   18.1750  -34.2430 C   0  0  0  0  0  0  0  0  0  0  0  0
   -5.5940   18.2610  -35.4660 O   0  0  0  0  0  0  0  0  0  0  0  0
   -5.9190   19.3930  -33.4170 C   0  0  0  0  0  0  0  0  0  0  0  0
   -7.0550   19.9040  -32.9000 N   0  0  0  0  0  0  0  0  0  0  0  0
   -6.7190   20.9200  -32.1590 O   0  0  0  0  0  0  0  0  0  0  0  0
   -5.4190   21.1040  -32.1570 C   0  0  0  0  0  0  0  0  0  0  0  0
   -4.7370   22.1960  -31.4310 C   0  0  0  0  0  0  0  0  0  0  0  0
   -3.4340   21.9870  -30.9450 C   0  0  0  0  0  0  0  0  0  0  0  0
   -2.7430   23.0130  -30.2970 C   0  0  0  0  0  0  0  0  0  0  0  0
   -1.1110   22.7240  -29.7150 Cl  0  0  0  0  0  0  0  0  0  0  0  0
   -3.3460   24.2640  -30.1300 C   0  0  0  0  0  0  0  0  0  0  0  0
   -2.6660   25.2950  -29.4900 O   0  0  0  0  0  0  0  0  0  0  0  0
   -4.6400   24.4840  -30.6080 C   0  0  0  0  0  0  0  0  0  0  0  0
   -5.3460   23.4590  -31.2510 C   0  0  0  0  0  0  0  0  0  0  0  0
   -6.6510   23.7230  -31.6700 O   0  0  0  0  0  0  0  0  0  0  0  0
   -4.8400   20.1400  -32.9670 C   0  0  0  0  0  0  0  0  0  0  0  0
   -3.4030   19.9350  -33.2370 C   0  0  0  0  0  0  0  0  0  0  0  0
   -2.6880   18.9420  -32.5530 C   0  0  0  0  0  0  0  0  0  0  0  0
   -1.3270   18.7550  -32.8020 C   0  0  0  0  0  0  0  0  0  0  0  0
   -0.6620   19.5550  -33.7450 C   0  0  0  0  0  0  0  0  0  0  0  0
    0.8080   19.3490  -34.0140 C   0  0  0  0  0  0  0  0  0  0  0  0
    1.5650   20.6080  -33.9530 N   0  0  0  0  0  0  0  0  0  0  0  0
    1.5690   21.3080  -35.2470 C   0  0  0  0  0  0  0  0  0  0  0  0
    2.6060   22.4380  -35.2420 C   0  0  0  0  0  0  0  0  0  0  0  0
    2.0510   23.7070  -35.8340 C   0  0  0  0  0  0  0  0  0  0  0  0
    2.9120   24.6970  -36.3350 C   0  0  0  0  0  0  0  0  0  0  0  0
    2.3900   25.8570  -36.9150 C   0  0  0  0  0  0  0  0  0  0  0  0
    1.0070   26.0340  -37.0030 C   0  0  0  0  0  0  0  0  0  0  0  0
    0.1440   25.0520  -36.5130 C   0  0  0  0  0  0  0  0  0  0  0  0
    0.6610   23.8900  -35.9310 C   0  0  0  0  0  0  0  0  0  0  0  0
   -1.3870   20.5280  -34.4520 C   0  0  0  0  0  0  0  0  0  0  0  0
   -2.7480   20.7150  -34.2010 C   0  0  0  0  0  0  0  0  0  0  0  0
   -3.5091   15.5409  -32.2993 H   0  0  0  0  0  0  0  0  0  0  0  0
   -4.3572   14.9205  -33.7562 H   0  0  0  0  0  0  0  0  0  0  0  0
   -3.6683   16.5795  -33.7562 H   0  0  0  0  0  0  0  0  0  0  0  0
   -6.0610   15.5394  -32.1632 H   0  0  0  0  0  0  0  0  0  0  0  0
   -5.2756   17.1214  -31.8430 H   0  0  0  0  0  0  0  0  0  0  0  0
   -2.9545   21.0058  -31.0766 H   0  0  0  0  0  0  0  0  0  0  0  0
   -5.1087   25.4707  -30.4784 H   0  0  0  0  0  0  0  0  0  0  0  0
   -7.2910   23.0020  -31.9750 H   0  0  0  0  0  0  0  0  0  0  0  0
   -3.2018   18.3069  -31.8164 H   0  0  0  0  0  0  0  0  0  0  0  0
   -0.7728   17.9769  -32.2566 H   0  0  0  0  0  0  0  0  0  0  0  0
    1.2122   18.6557  -33.2617 H   0  0  0  0  0  0  0  0  0  0  0  0
    0.9117   18.9413  -35.0304 H   0  0  0  0  0  0  0  0  0  0  0  0
    2.5520   20.3970  -33.6750 H   0  0  0  0  0  0  0  0  0  0  0  0
    1.8167   20.5926  -36.0450 H   0  0  0  0  0  0  0  0  0  0  0  0
    0.5725   21.7398  -35.4215 H   0  0  0  0  0  0  0  0  0  0  0  0
    2.9145   22.6340  -34.2045 H   0  0  0  0  0  0  0  0  0  0  0  0
    3.4623   22.1199  -35.8549 H   0  0  0  0  0  0  0  0  0  0  0  0
    4.0014   24.5591  -36.2708 H   0  0  0  0  0  0  0  0  0  0  0  0
    3.0688   26.6310  -37.3024 H   0  0  0  0  0  0  0  0  0  0  0  0
    0.5977   26.9477  -37.4587 H   0  0  0  0  0  0  0  0  0  0  0  0
   -0.9446   25.1924  -36.5848 H   0  0  0  0  0  0  0  0  0  0  0  0
   -0.0221   23.1174  -35.5482 H   0  0  0  0  0  0  0  0  0  0  0  0
   -0.8801   21.1462  -35.2076 H   0  0  0  0  0  0  0  0  0  0  0  0
   -3.3086   21.4773  -34.7618 H   0  0  0  0  0  0  0  0  0  0  0  0
  1  2  1  0
  2  3  1  0
  3  4  1  0
  4  5  2  0
  4  6  1  0
  6  7  2  0
  7  8  1  0
  8  9  1  0
  9 10  1  0
 10 11  2  0
 11 12  1  0
 12 13  1  0
 12 14  2  0
 14 15  1  0
 14 16  1  0
 16 17  2  0
 17 18  1  0
  9 19  2  0
 19 20  1  0
 20 21  2  0
 21 22  1  0
 22 23  2  0
 23 24  1  0
 24 25  1  0
 25 26  1  0
 26 27  1  0
 27 28  1  0
 28 29  2  0
 29 30  1  0
 30 31  2  0
 31 32  1  0
 32 33  2  0
 23 34  1  0
 34 35  2  0
 19  6  1  0
 35 20  1  0
 17 10  1  0
 33 28  1  0
  1 36  1  0
  1 37  1  0
  1 38  1  0
  2 39  1  0
  2 40  1  0
 11 41  1  0
 16 42  1  0
 18 43  1  0
 21 44  1  0
 22 45  1  0
 24 46  1  0
 24 47  1  0
 25 48  1  0
 26 49  1  0
 26 50  1  0
 27 51  1  0
 27 52  1  0
 29 53  1  0
 30 54  1  0
 31 55  1  0
 32 56  1  0
 33 57  1  0
 34 58  1  0
 35 59  1  0
M  CHG  1  15  -1
M  END
>  <UniqueID>  (42) 
41

>  <SMILES>  (42) 
CCOC(=O)c1noc(-c2cc(Cl)c([O-])cc2O)c1-c1ccc(CNCCc2ccccc2)cc1

>  <Energy>  (42) 
94.3786774608609

>  <Genealogy>  (42) 
CCOC(=O)c1noc(-c2cc(Cl)c([O-])cc2O)c1-c1ccc(CNCCc2ccccc2)cc1 (protonated)
CCOC(=O)c1noc(-c2cc(Cl)c([O-])cc2O)c1-c1ccc(CNCCc2ccccc2)cc1 (3D coordinates assigned)
CCOC(=O)c1noc(-c2cc(Cl)c([O-])cc2O)c1-c1ccc(CNCCc2ccccc2)cc1 (optimized conformer: 94.3786774608609 kcal/mol)

>  <smiles>  (42) 
CCOC(=O)c1noc(-c2cc(Cl)c(O)cc2O)c1-c1ccc(CNCCc2ccccc2)cc1

>  <score_type>  (42) 
oracle

>  <origin>  (42) 
adgpu

>  <m_score__min__energy>  (42) 
-10.949999999999999

>  <m_primary>  (42) 
energy

$$$$
42:0
     RDKit          3D

 24 25  0  0  0  0  0  0  0  0999 V2000
   -4.3260   26.0490  -30.5700 O   0  0  0  0  0  0  0  0  0  0  0  0
   -3.9620   24.8650  -30.3400 C   0  0  0  0  0  0  0  0  0  0  0  0
   -4.7670   23.8350  -30.7070 N   0  0  0  0  0  0  0  0  0  0  0  0
   -4.4070   22.5450  -30.4810 C   0  0  0  0  0  0  0  0  0  0  0  0
   -5.2860   21.5250  -30.8210 O   0  0  0  0  0  0  0  0  0  0  0  0
   -3.1710   22.2610  -29.8820 C   0  0  0  0  0  0  0  0  0  0  0  0
   -2.7540   20.9130  -29.6070 N   0  0  0  0  0  0  0  0  0  0  0  0
   -2.0190   20.1970  -30.3690 N   0  0  0  0  0  0  0  0  0  0  0  0
   -1.3700   20.6580  -31.5670 C   0  0  0  0  0  0  0  0  0  0  0  0
    0.0340   20.6300  -31.6850 C   0  0  0  0  0  0  0  0  0  0  0  0
    0.8240   20.1380  -30.6530 O   0  0  0  0  0  0  0  0  0  0  0  0
    0.6470   21.0730  -32.8620 C   0  0  0  0  0  0  0  0  0  0  0  0
   -0.1290   21.5110  -33.9370 C   0  0  0  0  0  0  0  0  0  0  0  0
    0.4850   21.9480  -35.1040 O   0  0  0  0  0  0  0  0  0  0  0  0
   -1.5230   21.4990  -33.8430 C   0  0  0  0  0  0  0  0  0  0  0  0
   -2.1490   21.0670  -32.6680 C   0  0  0  0  0  0  0  0  0  0  0  0
   -3.5420   21.0660  -32.6110 O   0  0  0  0  0  0  0  0  0  0  0  0
   -2.3740   23.3390  -29.4730 C   0  0  0  0  0  0  0  0  0  0  0  0
   -1.2770   23.1240  -28.8880 O   0  0  0  0  0  0  0  0  0  0  0  0
   -2.7750   24.6180  -29.7170 N   0  0  0  0  0  0  0  0  0  0  0  0
   -1.9760   25.6720  -29.3300 O   0  0  0  0  0  0  0  0  0  0  0  0
    1.7442   21.0763  -32.9408 H   0  0  0  0  0  0  0  0  0  0  0  0
   -2.1318   21.8308  -34.6970 H   0  0  0  0  0  0  0  0  0  0  0  0
   -4.0500   20.9370  -31.7440 H   0  0  0  0  0  0  0  0  0  0  0  0
  1  2  2  0
  2  3  1  0
  3  4  1  0
  4  5  1  0
  4  6  2  0
  6  7  1  0
  7  8  2  3
  8  9  1  0
  9 10  2  0
 10 11  1  0
 10 12  1  0
 12 13  2  0
 13 14  1  0
 13 15  1  0
 15 16  2  0
 16 17  1  0
  6 18  1  0
 18 19  2  0
 18 20  1  0
 20 21  1  0
 20  2  1  0
 16  9  1  0
 12 22  1  0
 15 23  1  0
 17 24  1  0
M  CHG  5   3  -1   5  -1  11  -1  14  -1  21  -1
M  END
>  <UniqueID>  (43) 
42

>  <SMILES>  (43) 
O=c1[n-]c([O-])c(N=Nc2c([O-])cc([O-])cc2O)c(=O)n1[O-]

>  <Energy>  (43) 
43.85765456787756

>  <Genealogy>  (43) 
O=c1[n-]c([O-])c(N=Nc2c([O-])cc([O-])cc2O)c(=O)n1[O-] (protonated)
O=c1[n-]c([O-])c(N=Nc2c([O-])cc([O-])cc2O)c(=O)n1[O-] (3D coordinates assigned)
O=c1[n-]c([O-])c(N=Nc2c([O-])cc([O-])cc2O)c(=O)n1[O-] (optimized conformer: 43.85765456787756 kcal/mol)

>  <smiles>  (43) 
O=c1[nH]c(O)c(N=Nc2c(O)cc(O)cc2O)c(=O)n1O

>  <score_type>  (43) 
oracle

>  <origin>  (43) 
adgpu

>  <m_score__min__energy>  (43) 
-9.8499999999999996

>  <m_primary>  (43) 
energy

$$$$
43:0
     RDKit          3D

 36 38  0  0  0  0  0  0  0  0999 V2000
   -4.0420   24.0300  -27.0650 O   0  0  0  0  0  0  0  0  0  0  0  0
   -3.1040   24.4570  -27.7930 C   0  0  0  0  0  0  0  0  0  0  0  0
   -3.0730   24.1410  -29.1960 N   0  0  0  0  0  0  0  0  0  0  0  0
   -4.0520   23.3250  -29.8610 C   0  0  0  0  0  0  0  0  0  0  0  0
   -5.4070   23.6780  -29.7850 C   0  0  0  0  0  0  0  0  0  0  0  0
   -6.3770   22.9170  -30.4420 C   0  0  0  0  0  0  0  0  0  0  0  0
   -6.0030   21.7960  -31.1930 C   0  0  0  0  0  0  0  0  0  0  0  0
   -7.2210   20.8470  -32.0360 S   0  0  0  0  0  0  0  0  0  0  0  0
   -8.5850   21.1970  -31.5080 O   0  0  0  0  0  0  0  0  0  0  0  0
   -7.1680   21.1530  -33.5070 O   0  0  0  0  0  0  0  0  0  0  0  0
   -6.9030   19.1630  -31.7720 N   0  0  0  0  0  0  0  0  0  0  0  0
   -6.3900   18.3890  -32.6780 C   0  0  0  0  0  0  0  0  0  0  0  0
   -6.0490   18.8010  -33.9190 N   0  0  0  0  0  0  0  0  0  0  0  0
   -5.5360   17.7800  -34.6550 C   0  0  0  0  0  0  0  0  0  0  0  0
   -5.4690   16.5550  -33.9990 C   0  0  0  0  0  0  0  0  0  0  0  0
   -6.0750   16.7590  -32.4410 S   0  0  0  0  0  0  0  0  0  0  0  0
   -4.6470   21.4570  -31.3020 C   0  0  0  0  0  0  0  0  0  0  0  0
   -3.6760   22.2190  -30.6430 C   0  0  0  0  0  0  0  0  0  0  0  0
   -2.0410   25.2790  -27.1780 C   0  0  0  0  0  0  0  0  0  0  0  0
   -1.9470   25.3430  -25.7760 C   0  0  0  0  0  0  0  0  0  0  0  0
   -0.9460   26.1050  -25.1660 C   0  0  0  0  0  0  0  0  0  0  0  0
   -0.0370   26.8200  -25.9480 C   0  0  0  0  0  0  0  0  0  0  0  0
   -0.1320   26.7830  -27.3410 C   0  0  0  0  0  0  0  0  0  0  0  0
   -1.1350   26.0270  -27.9600 C   0  0  0  0  0  0  0  0  0  0  0  0
   -1.2380   26.0520  -29.3470 O   0  0  0  0  0  0  0  0  0  0  0  0
   -2.3240   24.5660  -29.7890 H   0  0  0  0  0  0  0  0  0  0  0  0
   -5.7087   24.5615  -29.2032 H   0  0  0  0  0  0  0  0  0  0  0  0
   -7.4377   23.1993  -30.3691 H   0  0  0  0  0  0  0  0  0  0  0  0
   -5.1984   17.9126  -35.6935 H   0  0  0  0  0  0  0  0  0  0  0  0
   -5.0863   15.6155  -34.4244 H   0  0  0  0  0  0  0  0  0  0  0  0
   -4.3456   20.5894  -31.9074 H   0  0  0  0  0  0  0  0  0  0  0  0
   -2.6132   21.9513  -30.7373 H   0  0  0  0  0  0  0  0  0  0  0  0
   -2.6665   24.7894  -25.1548 H   0  0  0  0  0  0  0  0  0  0  0  0
   -0.8746   26.1412  -24.0689 H   0  0  0  0  0  0  0  0  0  0  0  0
    0.7547   27.4130  -25.4667 H   0  0  0  0  0  0  0  0  0  0  0  0
    0.5839   27.3500  -27.9542 H   0  0  0  0  0  0  0  0  0  0  0  0
  1  2  2  0
  2  3  1  0
  3  4  1  0
  4  5  2  0
  5  6  1  0
  6  7  2  0
  7  8  1  0
  8  9  2  0
  8 10  2  0
  8 11  1  0
 11 12  2  3
 12 13  1  0
 13 14  1  0
 14 15  2  0
 15 16  1  0
  7 17  1  0
 17 18  2  0
  2 19  1  0
 19 20  2  0
 20 21  1  0
 21 22  2  0
 22 23  1  0
 23 24  2  0
 24 25  1  0
 18  4  1  0
 24 19  1  0
 16 12  1  0
  3 26  1  0
  5 27  1  0
  6 28  1  0
 14 29  1  0
 15 30  1  0
 17 31  1  0
 18 32  1  0
 20 33  1  0
 21 34  1  0
 22 35  1  0
 23 36  1  0
M  CHG  2  13  -1  25  -1
M  END
>  <UniqueID>  (44) 
43

>  <SMILES>  (44) 
O=C(Nc1ccc(S(=O)(=O)N=c2[n-]ccs2)cc1)c1ccccc1[O-]

>  <Energy>  (44) 
81.38821185361724

>  <Genealogy>  (44) 
O=C(Nc1ccc(S(=O)(=O)N=c2[n-]ccs2)cc1)c1ccccc1[O-] (protonated)
O=C(Nc1ccc(S(=O)(=O)N=c2[n-]ccs2)cc1)c1ccccc1[O-] (3D coordinates assigned)
O=C(Nc1ccc(S(=O)(=O)N=c2[n-]ccs2)cc1)c1ccccc1[O-] (optimized conformer: 81.38821185361724 kcal/mol)

>  <smiles>  (44) 
O=C(Nc1ccc(S(=O)(=O)N=c2[nH]ccs2)cc1)c1ccccc1O

>  <score_type>  (44) 
oracle

>  <origin>  (44) 
adgpu

>  <m_score__min__energy>  (44) 
-11.720000000000001

>  <m_primary>  (44) 
energy

$$$$
44:0
     RDKit          3D

 46 48  0  0  0  0  0  0  0  0999 V2000
    1.2210   23.7030  -26.0550 N   0  0  0  0  0  0  0  0  0  0  0  0
    0.7000   24.6240  -27.4200 S   0  0  0  0  0  0  0  0  0  0  0  0
    0.5620   26.0600  -27.0050 O   0  0  0  0  0  0  0  0  0  0  0  0
    1.7290   24.5360  -28.5120 O   0  0  0  0  0  0  0  0  0  0  0  0
   -0.8500   23.9970  -28.0070 C   0  0  0  0  0  0  0  0  0  0  0  0
   -1.5650   24.7260  -28.9740 C   0  0  0  0  0  0  0  0  0  0  0  0
   -2.7870   24.2440  -29.4790 C   0  0  0  0  0  0  0  0  0  0  0  0
   -3.5380   24.9630  -30.4690 N   0  0  0  0  0  0  0  0  0  0  0  0
   -4.9630   24.9850  -30.6300 C   0  0  0  0  0  0  0  0  0  0  0  0
   -5.5630   26.0710  -30.4330 O   0  0  0  0  0  0  0  0  0  0  0  0
   -5.7560   23.7720  -30.9480 C   0  0  0  0  0  0  0  0  0  0  0  0
   -6.9530   23.4880  -30.2730 C   0  0  0  0  0  0  0  0  0  0  0  0
   -7.6950   22.3470  -30.5910 C   0  0  0  0  0  0  0  0  0  0  0  0
   -7.2720   21.4890  -31.6120 C   0  0  0  0  0  0  0  0  0  0  0  0
   -8.2360   20.0770  -32.0620 S   0  0  0  0  0  0  0  0  0  0  0  0
   -9.2800   20.4890  -33.0640 O   0  0  0  0  0  0  0  0  0  0  0  0
   -8.9430   19.5640  -30.8410 O   0  0  0  0  0  0  0  0  0  0  0  0
   -7.2530   18.7830  -32.7040 N   0  0  0  0  0  0  0  0  0  0  0  0
   -6.3570   18.2490  -31.6640 C   0  0  0  0  0  0  0  0  0  0  0  0
   -5.5490   17.0610  -32.2280 C   0  0  0  0  0  0  0  0  0  0  0  0
   -5.6690   16.9410  -33.6350 O   0  0  0  0  0  0  0  0  0  0  0  0
   -5.4030   18.1870  -34.2500 C   0  0  0  0  0  0  0  0  0  0  0  0
   -6.4800   19.2280  -33.8760 C   0  0  0  0  0  0  0  0  0  0  0  0
   -6.0980   21.7870  -32.3140 C   0  0  0  0  0  0  0  0  0  0  0  0
   -5.3440   22.9160  -31.9820 C   0  0  0  0  0  0  0  0  0  0  0  0
   -3.3170   23.0570  -28.9740 C   0  0  0  0  0  0  0  0  0  0  0  0
   -2.6200   22.3290  -28.0100 C   0  0  0  0  0  0  0  0  0  0  0  0
   -1.3830   22.7790  -27.5300 C   0  0  0  0  0  0  0  0  0  0  0  0
   -0.7140   21.9880  -26.5940 O   0  0  0  0  0  0  0  0  0  0  0  0
    1.3130   22.7140  -26.3720 H   0  0  0  0  0  0  0  0  0  0  0  0
   -1.1648   25.6832  -29.3396 H   0  0  0  0  0  0  0  0  0  0  0  0
   -7.3105   24.1692  -29.4868 H   0  0  0  0  0  0  0  0  0  0  0  0
   -8.6172   22.1222  -30.0351 H   0  0  0  0  0  0  0  0  0  0  0  0
   -5.6647   19.0392  -31.3378 H   0  0  0  0  0  0  0  0  0  0  0  0
   -6.9578   17.9057  -30.8089 H   0  0  0  0  0  0  0  0  0  0  0  0
   -4.4880   17.2047  -31.9756 H   0  0  0  0  0  0  0  0  0  0  0  0
   -5.9510   16.1408  -31.7790 H   0  0  0  0  0  0  0  0  0  0  0  0
   -4.4198   18.5505  -33.9165 H   0  0  0  0  0  0  0  0  0  0  0  0
   -5.4121   18.0490  -35.3413 H   0  0  0  0  0  0  0  0  0  0  0  0
   -5.9908   20.1853  -33.6430 H   0  0  0  0  0  0  0  0  0  0  0  0
   -7.1668   19.3461  -34.7271 H   0  0  0  0  0  0  0  0  0  0  0  0
   -5.7672   21.1291  -33.1312 H   0  0  0  0  0  0  0  0  0  0  0  0
   -4.4194   23.1360  -32.5358 H   0  0  0  0  0  0  0  0  0  0  0  0
   -4.2893   22.6932  -29.3377 H   0  0  0  0  0  0  0  0  0  0  0  0
   -3.0459   21.3917  -27.6225 H   0  0  0  0  0  0  0  0  0  0  0  0
    0.1120   22.2900  -26.0890 H   0  0  0  0  0  0  0  0  0  0  0  0
  1  2  1  0
  2  3  2  0
  2  4  2  0
  2  5  1  0
  5  6  2  0
  6  7  1  0
  7  8  1  0
  8  9  1  0
  9 10  2  0
  9 11  1  0
 11 12  2  0
 12 13  1  0
 13 14  2  0
 14 15  1  0
 15 16  2  0
 15 17  2  0
 15 18  1  0
 18 19  1  0
 19 20  1  0
 20 21  1  0
 21 22  1  0
 22 23  1  0
 14 24  1  0
 24 25  2  0
  7 26  2  0
 26 27  1  0
 27 28  2  0
 28 29  1  0
 28  5  1  0
 25 11  1  0
 23 18  1  0
  1 30  1  0
  6 31  1  0
 12 32  1  0
 13 33  1  0
 19 34  1  0
 19 35  1  0
 20 36  1  0
 20 37  1  0
 22 38  1  0
 22 39  1  0
 23 40  1  0
 23 41  1  0
 24 42  1  0
 25 43  1  0
 26 44  1  0
 27 45  1  0
 29 46  1  0
M  CHG  2   1  -1   8  -1
M  END
>  <UniqueID>  (45) 
44

>  <SMILES>  (45) 
[NH-]S(=O)(=O)c1cc([N-]C(=O)c2ccc(S(=O)(=O)N3CCOCC3)cc2)ccc1O

>  <Energy>  (45) 
63.85208300918624

>  <Genealogy>  (45) 
[NH-]S(=O)(=O)c1cc([N-]C(=O)c2ccc(S(=O)(=O)N3CCOCC3)cc2)ccc1O (protonated)
[NH-]S(=O)(=O)c1cc([N-]C(=O)c2ccc(S(=O)(=O)N3CCOCC3)cc2)ccc1O (3D coordinates assigned)
[NH-]S(=O)(=O)c1cc([N-]C(=O)c2ccc(S(=O)(=O)N3CCOCC3)cc2)ccc1O (nonaromatic ring conformer: 63.85208300918624 kcal/mol)

>  <smiles>  (45) 
NS(=O)(=O)c1cc(NC(=O)c2ccc(S(=O)(=O)N3CCOCC3)cc2)ccc1O

>  <score_type>  (45) 
oracle

>  <origin>  (45) 
adgpu

>  <m_score__min__energy>  (45) 
-11.83

>  <m_primary>  (45) 
energy

$$$$
45:0
     RDKit          3D

 28 29  0  0  0  0  0  0  0  0999 V2000
   -3.8500   24.9830  -30.8400 N   0  0  0  0  0  0  0  0  0  0  0  0
   -5.2680   24.4420  -30.0140 S   0  0  0  0  0  0  0  0  0  0  0  0
   -4.8980   23.9860  -28.6320 O   0  0  0  0  0  0  0  0  0  0  0  0
   -6.2480   25.5770  -29.9010 O   0  0  0  0  0  0  0  0  0  0  0  0
   -5.9970   23.1120  -30.9080 C   0  0  0  0  0  0  0  0  0  0  0  0
   -7.3600   23.1420  -31.2280 C   0  0  0  0  0  0  0  0  0  0  0  0
   -7.9380   22.0940  -31.9500 C   0  0  0  0  0  0  0  0  0  0  0  0
   -7.1570   21.0010  -32.3610 C   0  0  0  0  0  0  0  0  0  0  0  0
   -7.7710   19.8890  -33.1700 C   0  0  0  0  0  0  0  0  0  0  0  0
   -6.9320   18.6350  -33.0740 C   0  0  0  0  0  0  0  0  0  0  0  0
   -6.1050   18.2330  -34.1380 C   0  0  0  0  0  0  0  0  0  0  0  0
   -6.0680   18.9620  -35.3230 O   0  0  0  0  0  0  0  0  0  0  0  0
   -5.3320   17.1210  -34.0140 N   0  0  0  0  0  0  0  0  0  0  0  0
   -5.3370   16.3860  -32.8750 C   0  0  0  0  0  0  0  0  0  0  0  0
   -4.3970   15.0560  -32.7590 S   0  0  0  0  0  0  0  0  0  0  0  0
   -6.1210   16.7530  -31.8320 N   0  0  0  0  0  0  0  0  0  0  0  0
   -6.9120   17.8550  -31.9010 C   0  0  0  0  0  0  0  0  0  0  0  0
   -7.6230   18.1650  -30.9090 O   0  0  0  0  0  0  0  0  0  0  0  0
   -5.7890   20.9800  -32.0500 C   0  0  0  0  0  0  0  0  0  0  0  0
   -5.2120   22.0290  -31.3270 C   0  0  0  0  0  0  0  0  0  0  0  0
   -3.8600   26.0270  -30.8120 H   0  0  0  0  0  0  0  0  0  0  0  0
   -7.9785   23.9941  -30.9097 H   0  0  0  0  0  0  0  0  0  0  0  0
   -9.0093   22.1252  -32.1975 H   0  0  0  0  0  0  0  0  0  0  0  0
   -8.7806   19.6786  -32.7874 H   0  0  0  0  0  0  0  0  0  0  0  0
   -7.8208   20.2025  -34.2232 H   0  0  0  0  0  0  0  0  0  0  0  0
   -6.9160   19.3370  -35.7310 H   0  0  0  0  0  0  0  0  0  0  0  0
   -5.1668   20.1337  -32.3767 H   0  0  0  0  0  0  0  0  0  0  0  0
   -4.1389   22.0041  -31.0865 H   0  0  0  0  0  0  0  0  0  0  0  0
  1  2  1  0
  2  3  2  0
  2  4  2  0
  2  5  1  0
  5  6  2  0
  6  7  1  0
  7  8  2  0
  8  9  1  0
  9 10  1  0
 10 11  2  0
 11 12  1  0
 11 13  1  0
 13 14  1  0
 14 15  2  0
 14 16  1  0
 16 17  1  0
 17 18  2  0
  8 19  1  0
 19 20  2  0
 20  5  1  0
 17 10  1  0
  1 21  1  0
  6 22  1  0
  7 23  1  0
  9 24  1  0
  9 25  1  0
 12 26  1  0
 19 27  1  0
 20 28  1  0
M  CHG  3   1  -1  13  -1  16  -1
M  END
>  <UniqueID>  (46) 
45

>  <SMILES>  (46) 
[NH-]S(=O)(=O)c1ccc(Cc2c(O)[n-]c(=S)[n-]c2=O)cc1

>  <Energy>  (46) 
28.95939354202881

>  <Genealogy>  (46) 
[NH-]S(=O)(=O)c1ccc(Cc2c(O)[n-]c(=S)[n-]c2=O)cc1 (protonated)
[NH-]S(=O)(=O)c1ccc(Cc2c(O)[n-]c(=S)[n-]c2=O)cc1 (3D coordinates assigned)
[NH-]S(=O)(=O)c1ccc(Cc2c(O)[n-]c(=S)[n-]c2=O)cc1 (optimized conformer: 28.95939354202881 kcal/mol)

>  <smiles>  (46) 
NS(=O)(=O)c1ccc(Cc2c(O)[nH]c(=S)[nH]c2=O)cc1

>  <score_type>  (46) 
oracle

>  <origin>  (46) 
adgpu

>  <m_score__min__energy>  (46) 
-9.5500000000000007

>  <m_primary>  (46) 
energy

$$$$
46:0
     RDKit          3D

 53 56  0  0  0  0  0  0  0  0999 V2000
   -7.0780   24.3600  -29.7640 O   0  0  0  0  0  0  0  0  0  0  0  0
   -5.6950   24.5130  -30.3320 S   0  0  0  0  0  0  0  0  0  0  0  0
   -5.6540   25.7280  -31.2140 O   0  0  0  0  0  0  0  0  0  0  0  0
   -4.5740   24.7250  -29.0200 N   0  0  0  0  0  0  0  0  0  0  0  0
   -3.4490   23.8560  -28.7870 C   0  0  0  0  0  0  0  0  0  0  0  0
   -3.6330   22.5080  -28.4260 C   0  0  0  0  0  0  0  0  0  0  0  0
   -2.5330   21.6510  -28.2790 C   0  0  0  0  0  0  0  0  0  0  0  0
   -1.2340   22.1420  -28.4910 C   0  0  0  0  0  0  0  0  0  0  0  0
   -1.0430   23.4870  -28.8330 C   0  0  0  0  0  0  0  0  0  0  0  0
   -2.1410   24.3400  -28.9780 C   0  0  0  0  0  0  0  0  0  0  0  0
   -1.9250   25.6660  -29.3370 O   0  0  0  0  0  0  0  0  0  0  0  0
   -0.0700   21.2030  -28.3580 C   0  0  0  0  0  0  0  0  0  0  0  0
   -0.2870   20.3110  -27.1340 C   0  0  0  0  0  0  0  0  0  0  0  0
   -1.6010   19.5020  -27.2220 C   0  0  0  0  0  0  0  0  0  0  0  0
   -2.7420   20.1770  -28.0260 C   0  0  0  0  0  0  0  0  0  0  0  0
   -5.2720   23.0980  -31.3050 C   0  0  0  0  0  0  0  0  0  0  0  0
   -3.9290   22.8270  -31.5950 C   0  0  0  0  0  0  0  0  0  0  0  0
   -3.5630   21.6440  -32.2500 C   0  0  0  0  0  0  0  0  0  0  0  0
   -1.8560   21.2430  -32.4450 S   0  0  0  0  0  0  0  0  0  0  0  0
   -1.0430   22.0820  -31.4960 O   0  0  0  0  0  0  0  0  0  0  0  0
   -1.4470   21.5630  -33.8570 O   0  0  0  0  0  0  0  0  0  0  0  0
   -1.6300   19.5280  -32.1240 N   0  0  0  0  0  0  0  0  0  0  0  0
   -0.8600   19.2910  -30.8850 C   0  0  0  0  0  0  0  0  0  0  0  0
    0.6530   19.1640  -31.1490 C   0  0  0  0  0  0  0  0  0  0  0  0
    1.0130   19.8430  -32.3330 O   0  0  0  0  0  0  0  0  0  0  0  0
    0.4550   19.1880  -33.4600 C   0  0  0  0  0  0  0  0  0  0  0  0
   -1.0340   18.8200  -33.2690 C   0  0  0  0  0  0  0  0  0  0  0  0
   -4.5630   20.7670  -32.6980 C   0  0  0  0  0  0  0  0  0  0  0  0
   -4.2390   19.6250  -33.3540 F   0  0  0  0  0  0  0  0  0  0  0  0
   -5.9090   21.0620  -32.4610 C   0  0  0  0  0  0  0  0  0  0  0  0
   -6.2670   22.2170  -31.7590 C   0  0  0  0  0  0  0  0  0  0  0  0
   -7.5780   22.4690  -31.5200 F   0  0  0  0  0  0  0  0  0  0  0  0
   -4.6580   25.6110  -28.4740 H   0  0  0  0  0  0  0  0  0  0  0  0
   -4.6496   22.1231  -28.2576 H   0  0  0  0  0  0  0  0  0  0  0  0
   -0.0249   23.8735  -28.9881 H   0  0  0  0  0  0  0  0  0  0  0  0
    0.0053   20.5788  -29.2606 H   0  0  0  0  0  0  0  0  0  0  0  0
    0.8599   21.7783  -28.2384 H   0  0  0  0  0  0  0  0  0  0  0  0
    0.5559   19.6087  -27.0544 H   0  0  0  0  0  0  0  0  0  0  0  0
   -0.3522   20.9629  -26.2504 H   0  0  0  0  0  0  0  0  0  0  0  0
   -1.3745   18.5367  -27.6984 H   0  0  0  0  0  0  0  0  0  0  0  0
   -1.9702   19.4083  -26.1901 H   0  0  0  0  0  0  0  0  0  0  0  0
   -2.8266   19.6688  -28.9979 H   0  0  0  0  0  0  0  0  0  0  0  0
   -3.6537   20.0870  -27.4172 H   0  0  0  0  0  0  0  0  0  0  0  0
   -3.1531   23.5509  -31.3053 H   0  0  0  0  0  0  0  0  0  0  0  0
   -1.0292   20.1328  -30.1974 H   0  0  0  0  0  0  0  0  0  0  0  0
   -1.2058   18.3409  -30.4517 H   0  0  0  0  0  0  0  0  0  0  0  0
    1.2047   19.5981  -30.3021 H   0  0  0  0  0  0  0  0  0  0  0  0
    0.9033   18.0989  -31.2628 H   0  0  0  0  0  0  0  0  0  0  0  0
    0.5425   19.8538  -34.3312 H   0  0  0  0  0  0  0  0  0  0  0  0
    1.0101   18.2492  -33.6031 H   0  0  0  0  0  0  0  0  0  0  0  0
   -1.5870   19.0891  -34.1810 H   0  0  0  0  0  0  0  0  0  0  0  0
   -1.0965   17.7394  -33.0728 H   0  0  0  0  0  0  0  0  0  0  0  0
   -6.6909   20.3814  -32.8290 H   0  0  0  0  0  0  0  0  0  0  0  0
  1  2  2  0
  2  3  2  0
  2  4  1  0
  4  5  1  0
  5  6  2  0
  6  7  1  0
  7  8  2  0
  8  9  1  0
  9 10  2  0
 10 11  1  0
  8 12  1  0
 12 13  1  0
 13 14  1  0
 14 15  1  0
  2 16  1  0
 16 17  2  0
 17 18  1  0
 18 19  1  0
 19 20  2  0
 19 21  2  0
 19 22  1  0
 22 23  1  0
 23 24  1  0
 24 25  1  0
 25 26  1  0
 26 27  1  0
 18 28  2  0
 28 29  1  0
 28 30  1  0
 30 31  2  0
 31 32  1  0
 10  5  1  0
 31 16  1  0
 15  7  1  0
 27 22  1  0
  4 33  1  0
  6 34  1  0
  9 35  1  0
 12 36  1  0
 12 37  1  0
 13 38  1  0
 13 39  1  0
 14 40  1  0
 14 41  1  0
 15 42  1  0
 15 43  1  0
 17 44  1  0
 23 45  1  0
 23 46  1  0
 24 47  1  0
 24 48  1  0
 26 49  1  0
 26 50  1  0
 27 51  1  0
 27 52  1  0
 30 53  1  0
M  CHG  1  11  -1
M  END
>  <UniqueID>  (47) 
46

>  <SMILES>  (47) 
O=S(=O)(Nc1cc2c(cc1[O-])CCCC2)c1cc(S(=O)(=O)N2CCOCC2)c(F)cc1F

>  <Energy>  (47) 
72.84883826638684

>  <Genealogy>  (47) 
O=S(=O)(Nc1cc2c(cc1[O-])CCCC2)c1cc(S(=O)(=O)N2CCOCC2)c(F)cc1F (protonated)
O=S(=O)(Nc1cc2c(cc1[O-])CCCC2)c1cc(S(=O)(=O)N2CCOCC2)c(F)cc1F (3D coordinates assigned)
O=S(=O)(Nc1cc2c(cc1[O-])CCCC2)c1cc(S(=O)(=O)N2CCOCC2)c(F)cc1F (nonaromatic ring conformer: 72.84883826638684 kcal/mol)

>  <smiles>  (47) 
O=S(=O)(Nc1cc2c(cc1O)CCCC2)c1cc(S(=O)(=O)N2CCOCC2)c(F)cc1F

>  <score_type>  (47) 
oracle

>  <origin>  (47) 
adgpu

>  <m_score__min__energy>  (47) 
-13.17

>  <m_primary>  (47) 
energy

$$$$
47:0
     RDKit          3D

 50 52  0  0  0  0  0  0  0  0999 V2000
   -0.4550   27.8170  -26.6580 C   0  0  0  0  0  0  0  0  0  0  0  0
   -0.1430   26.7540  -27.5520 O   0  0  0  0  0  0  0  0  0  0  0  0
   -0.8440   25.5420  -27.6170 C   0  0  0  0  0  0  0  0  0  0  0  0
   -2.1370   25.3860  -27.0800 C   0  0  0  0  0  0  0  0  0  0  0  0
   -2.7950   24.1560  -27.1710 C   0  0  0  0  0  0  0  0  0  0  0  0
   -2.1790   23.0690  -27.8080 C   0  0  0  0  0  0  0  0  0  0  0  0
   -2.8710   21.7380  -27.8730 C   0  0  0  0  0  0  0  0  0  0  0  0
   -3.2200   21.4420  -29.2570 N   0  0  0  0  0  0  0  0  0  0  0  0
   -3.3170   22.4300  -30.2900 C   0  0  0  0  0  0  0  0  0  0  0  0
   -2.3040   22.6800  -30.9940 O   0  0  0  0  0  0  0  0  0  0  0  0
   -4.5790   23.1370  -30.5710 C   0  0  0  0  0  0  0  0  0  0  0  0
   -5.7450   22.3960  -30.8140 C   0  0  0  0  0  0  0  0  0  0  0  0
   -6.9570   23.0470  -31.0800 C   0  0  0  0  0  0  0  0  0  0  0  0
   -8.4080   22.0980  -31.3950 S   0  0  0  0  0  0  0  0  0  0  0  0
   -9.4910   22.9830  -31.9470 O   0  0  0  0  0  0  0  0  0  0  0  0
   -8.8850   21.5050  -30.0980 O   0  0  0  0  0  0  0  0  0  0  0  0
   -8.0480   20.8180  -32.5290 N   0  0  0  0  0  0  0  0  0  0  0  0
   -8.4080   19.5080  -31.9390 C   0  0  0  0  0  0  0  0  0  0  0  0
   -7.7120   18.3550  -32.6680 C   0  0  0  0  0  0  0  0  0  0  0  0
   -6.1820   18.4650  -32.5460 C   0  0  0  0  0  0  0  0  0  0  0  0
   -5.7070   19.9110  -32.3290 C   0  0  0  0  0  0  0  0  0  0  0  0
   -6.6480   20.9140  -33.0130 C   0  0  0  0  0  0  0  0  0  0  0  0
   -6.9970   24.4470  -31.1240 C   0  0  0  0  0  0  0  0  0  0  0  0
   -5.8340   25.1890  -30.9030 C   0  0  0  0  0  0  0  0  0  0  0  0
   -4.6240   24.5410  -30.6340 C   0  0  0  0  0  0  0  0  0  0  0  0
   -3.4710   25.2980  -30.4540 O   0  0  0  0  0  0  0  0  0  0  0  0
   -0.8850   23.2190  -28.3300 C   0  0  0  0  0  0  0  0  0  0  0  0
   -0.2280   24.4490  -28.2380 C   0  0  0  0  0  0  0  0  0  0  0  0
   -0.3519   27.4659  -25.6207 H   0  0  0  0  0  0  0  0  0  0  0  0
    0.2347   28.6562  -26.8313 H   0  0  0  0  0  0  0  0  0  0  0  0
   -1.4889   28.1503  -26.8313 H   0  0  0  0  0  0  0  0  0  0  0  0
   -2.6312   26.2360  -26.5868 H   0  0  0  0  0  0  0  0  0  0  0  0
   -3.8008   24.0402  -26.7409 H   0  0  0  0  0  0  0  0  0  0  0  0
   -2.1998   20.9560  -27.4883 H   0  0  0  0  0  0  0  0  0  0  0  0
   -3.7849   21.7683  -27.2615 H   0  0  0  0  0  0  0  0  0  0  0  0
   -5.7077   21.2968  -30.7956 H   0  0  0  0  0  0  0  0  0  0  0  0
   -8.1056   19.4969  -30.8814 H   0  0  0  0  0  0  0  0  0  0  0  0
   -9.4952   19.3722  -32.0363 H   0  0  0  0  0  0  0  0  0  0  0  0
   -8.0398   17.4017  -32.2278 H   0  0  0  0  0  0  0  0  0  0  0  0
   -7.9816   18.4021  -33.7334 H   0  0  0  0  0  0  0  0  0  0  0  0
   -5.8521   17.8543  -31.6926 H   0  0  0  0  0  0  0  0  0  0  0  0
   -5.7467   18.1105  -33.4920 H   0  0  0  0  0  0  0  0  0  0  0  0
   -5.6812   20.1219  -31.2497 H   0  0  0  0  0  0  0  0  0  0  0  0
   -4.7047   20.0179  -32.7695 H   0  0  0  0  0  0  0  0  0  0  0  0
   -6.2783   21.9313  -32.8172 H   0  0  0  0  0  0  0  0  0  0  0  0
   -6.6543   20.6794  -34.0877 H   0  0  0  0  0  0  0  0  0  0  0  0
   -7.9458   24.9628  -31.3329 H   0  0  0  0  0  0  0  0  0  0  0  0
   -5.8701   26.2878  -30.9407 H   0  0  0  0  0  0  0  0  0  0  0  0
   -0.3863   22.3658  -28.8131 H   0  0  0  0  0  0  0  0  0  0  0  0
    0.7828   24.5594  -28.6576 H   0  0  0  0  0  0  0  0  0  0  0  0
  1  2  1  0
  2  3  1  0
  3  4  2  0
  4  5  1  0
  5  6  2  0
  6  7  1  0
  7  8  1  0
  8  9  1  0
  9 10  2  0
  9 11  1  0
 11 12  2  0
 12 13  1  0
 13 14  1  0
 14 15  2  0
 14 16  2  0
 14 17  1  0
 17 18  1  0
 18 19  1  0
 19 20  1  0
 20 21  1  0
 21 22  1  0
 13 23  2  0
 23 24  1  0
 24 25  2  0
 25 26  1  0
  6 27  1  0
 27 28  2  0
 28  3  1  0
 25 11  1  0
 22 17  1  0
  1 29  1  0
  1 30  1  0
  1 31  1  0
  4 32  1  0
  5 33  1  0
  7 34  1  0
  7 35  1  0
 12 36  1  0
 18 37  1  0
 18 38  1  0
 19 39  1  0
 19 40  1  0
 20 41  1  0
 20 42  1  0
 21 43  1  0
 21 44  1  0
 22 45  1  0
 22 46  1  0
 23 47  1  0
 24 48  1  0
 27 49  1  0
 28 50  1  0
M  CHG  2   8  -1  26  -1
M  END
>  <UniqueID>  (48) 
47

>  <SMILES>  (48) 
COc1ccc(C[N-]C(=O)c2cc(S(=O)(=O)N3CCCCC3)ccc2[O-])cc1

>  <Energy>  (48) 
60.05228043047955

>  <Genealogy>  (48) 
COc1ccc(C[N-]C(=O)c2cc(S(=O)(=O)N3CCCCC3)ccc2[O-])cc1 (protonated)
COc1ccc(C[N-]C(=O)c2cc(S(=O)(=O)N3CCCCC3)ccc2[O-])cc1 (3D coordinates assigned)
COc1ccc(C[N-]C(=O)c2cc(S(=O)(=O)N3CCCCC3)ccc2[O-])cc1 (nonaromatic ring conformer: 60.05228043047955 kcal/mol)

>  <smiles>  (48) 
COc1ccc(CNC(=O)c2cc(S(=O)(=O)N3CCCCC3)ccc2O)cc1

>  <score_type>  (48) 
oracle

>  <origin>  (48) 
adgpu

>  <m_score__min__energy>  (48) 
-13.42

>  <m_primary>  (48) 
energy

$$$$
48:0
     RDKit          3D

 61 65  0  0  0  0  0  0  0  0999 V2000
   -1.2200   30.7280  -26.3580 C   0  0  0  0  0  0  0  0  0  0  0  0
   -0.3990   29.4920  -26.5040 C   0  0  0  0  0  0  0  0  0  0  0  0
   -0.6960   28.2510  -25.9800 C   0  0  0  0  0  0  0  0  0  0  0  0
    0.3880   27.4860  -26.3740 C   0  0  0  0  0  0  0  0  0  0  0  0
    0.5840   26.2280  -26.1180 N   0  0  0  0  0  0  0  0  0  0  0  0
   -0.5090   25.2330  -25.2070 S   0  0  0  0  0  0  0  0  0  0  0  0
    0.2810   24.1780  -24.4860 O   0  0  0  0  0  0  0  0  0  0  0  0
   -1.2290   26.0800  -24.1970 O   0  0  0  0  0  0  0  0  0  0  0  0
   -1.6910   24.4890  -26.2800 C   0  0  0  0  0  0  0  0  0  0  0  0
   -2.9320   25.1030  -26.4880 C   0  0  0  0  0  0  0  0  0  0  0  0
   -3.8500   24.5500  -27.3850 C   0  0  0  0  0  0  0  0  0  0  0  0
   -3.5360   23.3810  -28.0920 C   0  0  0  0  0  0  0  0  0  0  0  0
   -4.4850   22.8420  -29.0270 N   0  0  0  0  0  0  0  0  0  0  0  0
   -4.6770   23.3780  -30.3510 C   0  0  0  0  0  0  0  0  0  0  0  0
   -4.0230   24.3980  -30.7110 O   0  0  0  0  0  0  0  0  0  0  0  0
   -5.6150   22.7420  -31.3620 C   0  0  1  0  0  0  0  0  0  0  0  0
   -6.2710   23.7350  -32.3290 C   0  0  0  0  0  0  0  0  0  0  0  0
   -4.8700   21.6860  -32.1540 C   0  0  0  0  0  0  0  0  0  0  0  0
   -3.5760   21.9250  -32.5120 N   0  0  0  0  0  0  0  0  0  0  0  0
   -2.8350   20.9970  -33.1700 C   0  0  0  0  0  0  0  0  0  0  0  0
   -1.5080   21.2630  -33.5200 C   0  0  0  0  0  0  0  0  0  0  0  0
   -0.7540   20.2840  -34.1790 C   0  0  0  0  0  0  0  0  0  0  0  0
   -1.3230   19.0440  -34.4850 C   0  0  0  0  0  0  0  0  0  0  0  0
   -2.6520   18.7750  -34.1380 C   0  0  0  0  0  0  0  0  0  0  0  0
   -3.4100   19.7510  -33.4810 C   0  0  0  0  0  0  0  0  0  0  0  0
   -4.6990   19.5070  -33.1320 N   0  0  0  0  0  0  0  0  0  0  0  0
   -5.4490   20.4400  -32.4860 C   0  0  0  0  0  0  0  0  0  0  0  0
   -6.8040   20.1330  -32.1490 N   0  0  0  0  0  0  0  0  0  0  0  0
   -7.2130   18.8510  -31.6140 C   0  0  0  0  0  0  0  0  0  0  0  0
   -8.7380   18.8730  -31.6330 C   0  0  0  0  0  0  0  0  0  0  0  0
   -9.1400   20.3300  -31.8640 C   0  0  0  0  0  0  0  0  0  0  0  0
   -7.9080   21.0280  -32.4270 C   0  0  0  0  0  0  0  0  0  0  0  0
   -2.3090   22.7380  -27.8430 C   0  0  0  0  0  0  0  0  0  0  0  0
   -1.3900   23.2950  -26.9470 C   0  0  0  0  0  0  0  0  0  0  0  0
    1.2580   28.2330  -27.0760 N   0  0  0  0  0  0  0  0  0  0  0  0
    0.7550   29.4340  -27.1300 O   0  0  0  0  0  0  0  0  0  0  0  0
   -1.3657   30.9474  -25.2900 H   0  0  0  0  0  0  0  0  0  0  0  0
   -0.7019   31.5712  -26.8381 H   0  0  0  0  0  0  0  0  0  0  0  0
   -2.1981   30.5773  -26.8381 H   0  0  0  0  0  0  0  0  0  0  0  0
   -1.5757   27.9454  -25.3945 H   0  0  0  0  0  0  0  0  0  0  0  0
   -3.1855   26.0244  -25.9432 H   0  0  0  0  0  0  0  0  0  0  0  0
   -4.8254   25.0353  -27.5372 H   0  0  0  0  0  0  0  0  0  0  0  0
   -5.1410   22.1140  -28.6630 H   0  0  0  0  0  0  0  0  0  0  0  0
   -6.4335   22.2980  -30.7765 H   0  0  0  0  0  0  0  0  0  0  0  0
   -6.7883   24.5181  -31.7553 H   0  0  0  0  0  0  0  0  0  0  0  0
   -5.4982   24.1947  -32.9627 H   0  0  0  0  0  0  0  0  0  0  0  0
   -6.9970   23.2045  -32.9627 H   0  0  0  0  0  0  0  0  0  0  0  0
   -1.0579   22.2373  -33.2788 H   0  0  0  0  0  0  0  0  0  0  0  0
    0.2899   20.4914  -34.4570 H   0  0  0  0  0  0  0  0  0  0  0  0
   -0.7246   18.2779  -34.9998 H   0  0  0  0  0  0  0  0  0  0  0  0
   -3.0992   17.7998  -34.3808 H   0  0  0  0  0  0  0  0  0  0  0  0
   -6.8319   18.0324  -32.2422 H   0  0  0  0  0  0  0  0  0  0  0  0
   -6.8185   18.6856  -30.6006 H   0  0  0  0  0  0  0  0  0  0  0  0
   -9.1185   18.2386  -32.4471 H   0  0  0  0  0  0  0  0  0  0  0  0
   -9.1565   18.4857  -30.6923 H   0  0  0  0  0  0  0  0  0  0  0  0
   -9.9716   20.3867  -32.5818 H   0  0  0  0  0  0  0  0  0  0  0  0
   -9.4779   20.8048  -30.9311 H   0  0  0  0  0  0  0  0  0  0  0  0
   -8.0146   21.1840  -33.5106 H   0  0  0  0  0  0  0  0  0  0  0  0
   -7.7561   22.0202  -31.9770 H   0  0  0  0  0  0  0  0  0  0  0  0
   -2.0716   21.7938  -28.3549 H   0  0  0  0  0  0  0  0  0  0  0  0
   -0.4279   22.7934  -26.7659 H   0  0  0  0  0  0  0  0  0  0  0  0
  1  2  1  0
  2  3  2  0
  3  4  1  0
  4  5  2  3
  5  6  1  0
  6  7  2  0
  6  8  2  0
  6  9  1  0
  9 10  2  0
 10 11  1  0
 11 12  2  0
 12 13  1  0
 13 14  1  0
 14 15  2  0
 14 16  1  0
 16 17  1  0
 16 18  1  0
 18 19  2  0
 19 20  1  0
 20 21  2  0
 21 22  1  0
 22 23  2  0
 23 24  1  0
 24 25  2  0
 25 26  1  0
 26 27  2  0
 27 28  1  0
 28 29  1  0
 29 30  1  0
 30 31  1  0
 31 32  1  0
 12 33  1  0
 33 34  2  0
  4 35  1  0
 35 36  1  0
 36  2  1  0
 34  9  1  0
 27 18  1  0
 32 28  1  0
 25 20  1  0
  1 37  1  0
  1 38  1  0
  1 39  1  0
  3 40  1  0
 10 41  1  0
 11 42  1  0
 13 43  1  0
 16 44  1  1
 17 45  1  0
 17 46  1  0
 17 47  1  0
 21 48  1  0
 22 49  1  0
 23 50  1  0
 24 51  1  0
 29 52  1  0
 29 53  1  0
 30 54  1  0
 30 55  1  0
 31 56  1  0
 31 57  1  0
 32 58  1  0
 32 59  1  0
 33 60  1  0
 34 61  1  0
M  CHG  1  35  -1
M  END
>  <UniqueID>  (49) 
48

>  <SMILES>  (49) 
Cc1cc(=NS(=O)(=O)c2ccc(NC(=O)[C@@H](C)c3nc4ccccc4nc3N3CCCC3)cc2)[n-]o1

>  <Energy>  (49) 
112.77516148696213

>  <Genealogy>  (49) 
Cc1cc(=NS(=O)(=O)c2ccc(NC(=O)C(C)c3nc4ccccc4nc3N3CCCC3)cc2)[n-]o1 (protonated)
Cc1cc(=NS(=O)(=O)c2ccc(NC(=O)[C@@H](C)c3nc4ccccc4nc3N3CCCC3)cc2)[n-]o1 (chirality)
Cc1cc(=NS(=O)(=O)c2ccc(NC(=O)[C@@H](C)c3nc4ccccc4nc3N3CCCC3)cc2)[n-]o1 (3D coordinates assigned)
Cc1cc(=NS(=O)(=O)c2ccc(NC(=O)[C@@H](C)c3nc4ccccc4nc3N3CCCC3)cc2)[n-]o1 (nonaromatic ring conformer: 112.77516148696213 kcal/mol)

>  <smiles>  (49) 
Cc1cc(=NS(=O)(=O)c2ccc(NC(=O)C(C)c3nc4ccccc4nc3N3CCCC3)cc2)[nH]o1

>  <score_type>  (49) 
oracle

>  <origin>  (49) 
adgpu

>  <m_score__min__energy>  (49) 
-10.710000000000001

>  <m_primary>  (49) 
energy

$$$$
49:0
     RDKit          3D

 54 56  0  0  0  0  0  0  0  0999 V2000
   -1.3040   25.7220  -25.2680 C   0  0  0  0  0  0  0  0  0  0  0  0
    0.1070   25.1500  -25.3180 C   0  0  0  0  0  0  0  0  0  0  0  0
    0.4430   24.4100  -26.9060 S   0  0  0  0  0  0  0  0  0  0  0  0
    1.1440   25.4000  -27.7920 O   0  0  0  0  0  0  0  0  0  0  0  0
    1.3410   23.2180  -26.7310 O   0  0  0  0  0  0  0  0  0  0  0  0
   -1.0940   23.9190  -27.6420 C   0  0  0  0  0  0  0  0  0  0  0  0
   -1.7260   22.7250  -27.2430 C   0  0  0  0  0  0  0  0  0  0  0  0
   -1.1670   21.9140  -26.2610 O   0  0  0  0  0  0  0  0  0  0  0  0
   -2.9310   22.3390  -27.8290 C   0  0  0  0  0  0  0  0  0  0  0  0
   -3.5330   23.1410  -28.7980 C   0  0  0  0  0  0  0  0  0  0  0  0
   -2.9470   24.3600  -29.1740 C   0  0  0  0  0  0  0  0  0  0  0  0
   -3.5500   25.1920  -30.1770 N   0  0  0  0  0  0  0  0  0  0  0  0
   -4.7810   24.9340  -30.8610 C   0  0  0  0  0  0  0  0  0  0  0  0
   -5.7070   25.7840  -30.7880 O   0  0  0  0  0  0  0  0  0  0  0  0
   -4.9560   23.7260  -31.6120 N   0  0  0  0  0  0  0  0  0  0  0  0
   -6.1400   22.9170  -31.6770 C   0  0  0  0  0  0  0  0  0  0  0  0
   -7.3840   23.5560  -31.7350 C   0  0  0  0  0  0  0  0  0  0  0  0
   -8.5610   22.8060  -31.8230 C   0  0  0  0  0  0  0  0  0  0  0  0
   -8.5020   21.4120  -31.8680 C   0  0  0  0  0  0  0  0  0  0  0  0
   -7.2630   20.7590  -31.8310 C   0  0  0  0  0  0  0  0  0  0  0  0
   -7.1700   19.0020  -31.9420 S   0  0  0  0  0  0  0  0  0  0  0  0
   -6.0420   18.5330  -31.0660 O   0  0  0  0  0  0  0  0  0  0  0  0
   -8.4460   18.3900  -31.4350 O   0  0  0  0  0  0  0  0  0  0  0  0
   -6.8670   18.5020  -33.5920 N   0  0  0  0  0  0  0  0  0  0  0  0
   -6.8390   17.0310  -33.7320 C   0  0  0  0  0  0  0  0  0  0  0  0
   -5.5600   16.3990  -33.1540 C   0  0  0  0  0  0  0  0  0  0  0  0
   -4.2940   17.2270  -33.4420 C   0  0  0  0  0  0  0  0  0  0  0  0
   -4.5250   18.2600  -34.5430 C   0  0  0  0  0  0  0  0  0  0  0  0
   -5.6900   19.1960  -34.1730 C   0  0  0  0  0  0  0  0  0  0  0  0
   -6.0830   21.5130  -31.7470 C   0  0  0  0  0  0  0  0  0  0  0  0
   -1.7160   24.7440  -28.6030 C   0  0  0  0  0  0  0  0  0  0  0  0
   -1.1120   25.9490  -28.9690 O   0  0  0  0  0  0  0  0  0  0  0  0
   -1.6121   25.8469  -24.2194 H   0  0  0  0  0  0  0  0  0  0  0  0
   -1.3220   26.6984  -25.7742 H   0  0  0  0  0  0  0  0  0  0  0  0
   -1.9968   25.0337  -25.7742 H   0  0  0  0  0  0  0  0  0  0  0  0
    0.8296   25.9597  -25.1387 H   0  0  0  0  0  0  0  0  0  0  0  0
    0.1972   24.3735  -24.5442 H   0  0  0  0  0  0  0  0  0  0  0  0
   -3.4095   21.3963  -27.5251 H   0  0  0  0  0  0  0  0  0  0  0  0
   -4.4721   22.8167  -29.2703 H   0  0  0  0  0  0  0  0  0  0  0  0
   -7.4361   24.6545  -31.7112 H   0  0  0  0  0  0  0  0  0  0  0  0
   -9.5353   23.3155  -31.8568 H   0  0  0  0  0  0  0  0  0  0  0  0
   -9.4301   20.8251  -31.9326 H   0  0  0  0  0  0  0  0  0  0  0  0
   -7.7077   16.6114  -33.2035 H   0  0  0  0  0  0  0  0  0  0  0  0
   -6.8642   16.8010  -34.8074 H   0  0  0  0  0  0  0  0  0  0  0  0
   -5.6771   16.3059  -32.0642 H   0  0  0  0  0  0  0  0  0  0  0  0
   -5.4294   15.4204  -33.6391 H   0  0  0  0  0  0  0  0  0  0  0  0
   -3.9943   17.7497  -32.5217 H   0  0  0  0  0  0  0  0  0  0  0  0
   -3.5070   16.5378  -33.7820 H   0  0  0  0  0  0  0  0  0  0  0  0
   -3.6105   18.8566  -34.6765 H   0  0  0  0  0  0  0  0  0  0  0  0
   -4.7759   17.7336  -35.4757 H   0  0  0  0  0  0  0  0  0  0  0  0
   -5.3241   19.9285  -33.4385 H   0  0  0  0  0  0  0  0  0  0  0  0
   -6.0291   19.6640  -35.1089 H   0  0  0  0  0  0  0  0  0  0  0  0
   -5.1080   21.0038  -31.7358 H   0  0  0  0  0  0  0  0  0  0  0  0
   -0.1070   26.0630  -29.0240 H   0  0  0  0  0  0  0  0  0  0  0  0
  1  2  1  0
  2  3  1  0
  3  4  2  0
  3  5  2  0
  3  6  1  0
  6  7  2  0
  7  8  1  0
  7  9  1  0
  9 10  2  0
 10 11  1  0
 11 12  1  0
 12 13  1  0
 13 14  2  0
 13 15  1  0
 15 16  1  0
 16 17  2  0
 17 18  1  0
 18 19  2  0
 19 20  1  0
 20 21  1  0
 21 22  2  0
 21 23  2  0
 21 24  1  0
 24 25  1  0
 25 26  1  0
 26 27  1  0
 27 28  1  0
 28 29  1  0
 20 30  2  0
 11 31  2  0
 31 32  1  0
 31  6  1  0
 30 16  1  0
 29 24  1  0
  1 33  1  0
  1 34  1  0
  1 35  1  0
  2 36  1  0
  2 37  1  0
  9 38  1  0
 10 39  1  0
 17 40  1  0
 18 41  1  0
 19 42  1  0
 25 43  1  0
 25 44  1  0
 26 45  1  0
 26 46  1  0
 27 47  1  0
 27 48  1  0
 28 49  1  0
 28 50  1  0
 29 51  1  0
 29 52  1  0
 30 53  1  0
 32 54  1  0
M  CHG  3   8  -1  12  -1  15  -1
M  END
>  <UniqueID>  (50) 
49

>  <SMILES>  (50) 
CCS(=O)(=O)c1c([O-])ccc([N-]C(=O)[N-]c2cccc(S(=O)(=O)N3CCCCC3)c2)c1O

>  <Energy>  (50) 
66.50016148593987

>  <Genealogy>  (50) 
CCS(=O)(=O)c1c([O-])ccc([N-]C(=O)[N-]c2cccc(S(=O)(=O)N3CCCCC3)c2)c1O (protonated)
CCS(=O)(=O)c1c([O-])ccc([N-]C(=O)[N-]c2cccc(S(=O)(=O)N3CCCCC3)c2)c1O (3D coordinates assigned)
CCS(=O)(=O)c1c([O-])ccc([N-]C(=O)[N-]c2cccc(S(=O)(=O)N3CCCCC3)c2)c1O (nonaromatic ring conformer: 66.50016148593987 kcal/mol)

>  <smiles>  (50) 
CCS(=O)(=O)c1c(O)ccc(NC(=O)Nc2cccc(S(=O)(=O)N3CCCCC3)c2)c1O

>  <score_type>  (50) 
oracle

>  <origin>  (50) 
adgpu

>  <m_score__min__energy>  (50) 
-13.460000000000001

>  <m_primary>  (50) 
energy

$$$$
