0:0
     RDKit          3D

 45 47  0  0  0  0  0  0  0  0999 V2000
   -1.2200   26.0430  -30.0180 H   0  0  0  0  0  0  0  0  0  0  0  0
   -1.2890   26.0540  -28.9760 N   0  0  0  0  0  0  0  0  0  0  0  0
   -0.9350   24.4540  -28.4280 S   0  0  0  0  0  0  0  0  0  0  0  0
    0.5450   24.3160  -28.2050 O   0  0  0  0  0  0  0  0  0  0  0  0
   -1.6450   24.1980  -27.1290 O   0  0  0  0  0  0  0  0  0  0  0  0
   -1.4680   23.2930  -29.6380 C   0  0  0  0  0  0  0  0  0  0  0  0
   -2.8060   23.2660  -30.0480 C   0  0  0  0  0  0  0  0  0  0  0  0
   -3.5284   23.9681  -29.6063 H   0  0  0  0  0  0  0  0  0  0  0  0
   -3.2280   22.3510  -31.0160 C   0  0  0  0  0  0  0  0  0  0  0  0
   -4.2843   22.3293  -31.3223 H   0  0  0  0  0  0  0  0  0  0  0  0
   -2.3150   21.4590  -31.6010 C   0  0  0  0  0  0  0  0  0  0  0  0
   -2.8090   20.5130  -32.6270 C   0  0  0  0  0  0  0  0  0  0  0  0
   -3.2176   20.9276  -33.5604 H   0  0  0  0  0  0  0  0  0  0  0  0
   -2.7870   19.1790  -32.4840 C   0  0  0  0  0  0  0  0  0  0  0  0
   -2.4429   18.7515  -31.5307 H   0  0  0  0  0  0  0  0  0  0  0  0
   -3.2110   18.2640  -33.5680 C   0  0  0  0  0  0  0  0  0  0  0  0
   -4.5710   17.9950  -33.8800 C   0  0  0  0  0  0  0  0  0  0  0  0
   -5.6930   18.7020  -33.2270 C   0  0  0  0  0  0  0  0  0  0  0  0
   -6.5690   18.0190  -32.3650 C   0  0  0  0  0  0  0  0  0  0  0  0
   -6.3907   16.9593  -32.1298 H   0  0  0  0  0  0  0  0  0  0  0  0
   -7.6650   18.6810  -31.8060 C   0  0  0  0  0  0  0  0  0  0  0  0
   -8.3565   18.1343  -31.1479 H   0  0  0  0  0  0  0  0  0  0  0  0
   -7.8890   20.0390  -32.0790 C   0  0  0  0  0  0  0  0  0  0  0  0
   -9.1120   20.7290  -31.5390 C   0  0  0  0  0  0  0  0  0  0  0  0
   -9.2414   20.4600  -30.4803 H   0  0  0  0  0  0  0  0  0  0  0  0
   -9.9877   20.4079  -32.1221 H   0  0  0  0  0  0  0  0  0  0  0  0
   -8.9690   22.2420  -31.6580 C   0  0  0  0  0  0  0  0  0  0  0  0
   -8.9270   22.6865  -30.6527 H   0  0  0  0  0  0  0  0  0  0  0  0
   -8.0443   22.4811  -32.2036 H   0  0  0  0  0  0  0  0  0  0  0  0
   -9.8326   22.6501  -32.2036 H   0  0  0  0  0  0  0  0  0  0  0  0
   -6.9980   20.7280  -32.9180 C   0  0  0  0  0  0  0  0  0  0  0  0
   -7.1639   21.7934  -33.1356 H   0  0  0  0  0  0  0  0  0  0  0  0
   -5.9010   20.0660  -33.4780 C   0  0  0  0  0  0  0  0  0  0  0  0
   -5.1975   20.6179  -34.1187 H   0  0  0  0  0  0  0  0  0  0  0  0
   -4.8660   17.0760  -34.8420 N   0  0  0  0  0  0  0  0  0  0  0  0
   -3.9030   16.4260  -35.5450 C   0  0  0  0  0  0  0  0  0  0  0  0
   -4.1850   15.6815  -36.3040 H   0  0  0  0  0  0  0  0  0  0  0  0
   -2.5580   16.7010  -35.3060 C   0  0  0  0  0  0  0  0  0  0  0  0
   -1.7753   16.1945  -35.8898 H   0  0  0  0  0  0  0  0  0  0  0  0
   -2.2140   17.6250  -34.3190 C   0  0  0  0  0  0  0  0  0  0  0  0
   -1.1549   17.8535  -34.1289 H   0  0  0  0  0  0  0  0  0  0  0  0
   -0.9700   21.4860  -31.1820 C   0  0  0  0  0  0  0  0  0  0  0  0
   -0.2459   20.7838  -31.6209 H   0  0  0  0  0  0  0  0  0  0  0  0
   -0.5510   22.4010  -30.2110 C   0  0  0  0  0  0  0  0  0  0  0  0
    0.5026   22.4208  -29.8955 H   0  0  0  0  0  0  0  0  0  0  0  0
  1  2  1  0
  2  3  1  0
  3  4  2  0
  3  5  2  0
  3  6  1  0
  6  7  2  0
  7  8  1  0
  7  9  1  0
  9 10  1  0
  9 11  2  0
 11 12  1  0
 12 13  1  0
 12 14  2  0
 14 15  1  0
 14 16  1  0
 16 17  1  0
 17 18  1  0
 18 19  2  0
 19 20  1  0
 19 21  1  0
 21 22  1  0
 21 23  2  0
 23 24  1  0
 24 25  1  0
 24 26  1  0
 24 27  1  0
 27 28  1  0
 27 29  1  0
 27 30  1  0
 23 31  1  0
 31 32  1  0
 31 33  2  0
 33 34  1  0
 17 35  2  0
 35 36  1  0
 36 37  1  0
 36 38  2  0
 38 39  1  0
 38 40  1  0
 40 41  1  0
 11 42  1  0
 42 43  1  0
 42 44  2  0
 44 45  1  0
 44  6  1  0
 40 16  2  0
 33 18  1  0
M  CHG  1   2  -1
M  END
>  <UniqueID>  (1) 
1

>  <SMILES>  (1) 
CCc1ccc(-c2ncccc2/C=C/c2ccc(S([NH-])(=O)=O)cc2)cc1

>  <Energy>  (1) 
57.029361634502315

>  <Genealogy>  (1) 
CCc1ccc(-c2ncccc2C=Cc2ccc(S([NH-])(=O)=O)cc2)cc1 (protonated)
CCc1ccc(-c2ncccc2/C=C/c2ccc(S([NH-])(=O)=O)cc2)cc1 (cis-trans isomerization)
CCc1ccc(-c2ncccc2/C=C/c2ccc(S([NH-])(=O)=O)cc2)cc1 (3D coordinates assigned)
CCc1ccc(-c2ncccc2/C=C/c2ccc(S([NH-])(=O)=O)cc2)cc1 (optimized conformer: 57.029361634502315 kcal/mol)

>  <smiles>  (1) 
CCc1ccc(-c2ncccc2C=Cc2ccc(S(N)(=O)=O)cc2)cc1

>  <score_type>  (1) 
oracle

>  <origin>  (1) 
adgpu

>  <m_score__min__energy>  (1) 
-11.35

>  <m_primary>  (1) 
energy

$$$$
1:0
     RDKit          3D

 32 34  0  0  0  0  0  0  0  0999 V2000
   -9.3480   21.9140  -30.7470 C   0  0  0  0  0  0  0  0  0  0  0  0
   -8.4180   20.9600  -31.4260 C   0  0  0  0  0  0  0  0  0  0  0  0
   -8.7980   19.7470  -31.8680 N   0  0  0  0  0  0  0  0  0  0  0  0
   -7.7480   19.1470  -32.4100 N   0  0  0  0  0  0  0  0  0  0  0  0
   -6.6850   19.9710  -32.3160 C   0  0  0  0  0  0  0  0  0  0  0  0
   -5.3620   19.6620  -32.8970 C   0  0  0  0  0  0  0  0  0  0  0  0
   -4.2460   20.4190  -32.4980 C   0  0  0  0  0  0  0  0  0  0  0  0
   -2.9850   20.1780  -33.0530 C   0  0  0  0  0  0  0  0  0  0  0  0
   -1.6120   21.1400  -32.5300 Cl  0  0  0  0  0  0  0  0  0  0  0  0
   -2.8290   19.1820  -34.0230 C   0  0  0  0  0  0  0  0  0  0  0  0
   -1.5820   18.9380  -34.5860 O   0  0  0  0  0  0  0  0  0  0  0  0
   -3.9310   18.4240  -34.4280 C   0  0  0  0  0  0  0  0  0  0  0  0
   -5.1950   18.6460  -33.8670 C   0  0  0  0  0  0  0  0  0  0  0  0
   -6.2490   17.8260  -34.2760 O   0  0  0  0  0  0  0  0  0  0  0  0
   -7.0750   21.1540  -31.7060 C   0  0  0  0  0  0  0  0  0  0  0  0
   -6.2360   22.3260  -31.3690 C   0  0  0  0  0  0  0  0  0  0  0  0
   -5.1560   22.2000  -30.4800 C   0  0  0  0  0  0  0  0  0  0  0  0
   -4.3750   23.3130  -30.1560 C   0  0  0  0  0  0  0  0  0  0  0  0
   -4.6660   24.5610  -30.7150 C   0  0  0  0  0  0  0  0  0  0  0  0
   -3.8900   25.6670  -30.3900 O   0  0  0  0  0  0  0  0  0  0  0  0
   -5.7400   24.6960  -31.6000 C   0  0  0  0  0  0  0  0  0  0  0  0
   -6.5220   23.5850  -31.9270 C   0  0  0  0  0  0  0  0  0  0  0  0
   -9.2473   21.8107  -29.6565 H   0  0  0  0  0  0  0  0  0  0  0  0
   -9.0973   22.9435  -31.0425 H   0  0  0  0  0  0  0  0  0  0  0  0
  -10.3835   21.6896  -31.0425 H   0  0  0  0  0  0  0  0  0  0  0  0
   -4.3660   21.2087  -31.7417 H   0  0  0  0  0  0  0  0  0  0  0  0
   -3.8045   17.6455  -35.1948 H   0  0  0  0  0  0  0  0  0  0  0  0
   -7.2210   18.0920  -34.1890 H   0  0  0  0  0  0  0  0  0  0  0  0
   -4.9236   21.2206  -30.0365 H   0  0  0  0  0  0  0  0  0  0  0  0
   -3.5299   23.2068  -29.4599 H   0  0  0  0  0  0  0  0  0  0  0  0
   -5.9697   25.6779  -32.0394 H   0  0  0  0  0  0  0  0  0  0  0  0
   -7.3655   23.6957  -32.6243 H   0  0  0  0  0  0  0  0  0  0  0  0
  1  2  1  0
  2  3  2  0
  3  4  1  0
  4  5  1  0
  5  6  1  0
  6  7  2  0
  7  8  1  0
  8  9  1  0
  8 10  2  0
 10 11  1  0
 10 12  1  0
 12 13  2  0
 13 14  1  0
  5 15  2  0
 15 16  1  0
 16 17  2  0
 17 18  1  0
 18 19  2  0
 19 20  1  0
 19 21  1  0
 21 22  2  0
 15  2  1  0
 22 16  1  0
 13  6  1  0
  1 23  1  0
  1 24  1  0
  1 25  1  0
  7 26  1  0
 12 27  1  0
 14 28  1  0
 17 29  1  0
 18 30  1  0
 21 31  1  0
 22 32  1  0
M  CHG  3   4  -1  11  -1  20  -1
M  END
>  <UniqueID>  (2) 
2

>  <SMILES>  (2) 
Cc1n[n-]c(-c2cc(Cl)c([O-])cc2O)c1-c1ccc([O-])cc1

>  <Energy>  (2) 
74.57490138927109

>  <Genealogy>  (2) 
Cc1n[n-]c(-c2cc(Cl)c([O-])cc2O)c1-c1ccc([O-])cc1 (protonated)
Cc1n[n-]c(-c2cc(Cl)c([O-])cc2O)c1-c1ccc([O-])cc1 (3D coordinates assigned)
Cc1n[n-]c(-c2cc(Cl)c([O-])cc2O)c1-c1ccc([O-])cc1 (optimized conformer: 74.57490138927109 kcal/mol)

>  <smiles>  (2) 
Cc1n[nH]c(-c2cc(Cl)c(O)cc2O)c1-c1ccc(O)cc1

>  <score_type>  (2) 
oracle

>  <origin>  (2) 
adgpu

>  <m_score__min__energy>  (2) 
-10.199999999999999

>  <m_primary>  (2) 
energy

$$$$
2:0
     RDKit          3D

 72 76  0  0  0  0  0  0  0  0999 V2000
   -6.8890   23.7960  -32.4420 C   0  0  0  0  0  0  0  0  0  0  0  0
   -5.7240   23.7480  -31.4880 C   0  0  0  0  0  0  0  0  0  0  0  0
   -5.4500   24.8660  -30.6870 C   0  0  0  0  0  0  0  0  0  0  0  0
   -4.3720   24.8720  -29.8640 N   0  0  0  0  0  0  0  0  0  0  0  0
   -3.5300   23.8080  -29.7970 C   0  0  0  0  0  0  0  0  0  0  0  0
   -2.4890   23.8080  -29.0150 N   0  0  0  0  0  0  0  0  0  0  0  0
   -1.9860   24.8710  -28.1870 C   0  0  0  0  0  0  0  0  0  0  0  0
   -0.9550   25.7400  -28.5990 C   0  0  0  0  0  0  0  0  0  0  0  0
   -0.4830   26.7360  -27.7370 C   0  0  0  0  0  0  0  0  0  0  0  0
   -1.0020   26.8620  -26.4360 C   0  0  0  0  0  0  0  0  0  0  0  0
   -0.4960   27.9090  -25.5200 C   0  0  0  0  0  0  0  0  0  0  0  0
   -1.3060   28.6100  -24.8550 O   0  0  0  0  0  0  0  0  0  0  0  0
    0.9120   28.1610  -25.4270 N   0  0  0  0  0  0  0  0  0  0  0  0
    1.9270   27.1760  -25.1780 C   0  0  0  0  0  0  0  0  0  0  0  0
    2.3120   26.2690  -26.1820 C   0  0  0  0  0  0  0  0  0  0  0  0
    3.3360   25.3410  -25.9460 C   0  0  0  0  0  0  0  0  0  0  0  0
    3.8360   24.2170  -27.2060 S   0  0  0  0  0  0  0  0  0  0  0  0
    5.0840   23.5010  -26.7740 O   0  0  0  0  0  0  0  0  0  0  0  0
    2.7560   23.2030  -27.4650 O   0  0  0  0  0  0  0  0  0  0  0  0
    4.1360   25.0670  -28.6170 F   0  0  0  0  0  0  0  0  0  0  0  0
    3.9930   25.3340  -24.7130 C   0  0  0  0  0  0  0  0  0  0  0  0
    3.6310   26.2420  -23.7180 C   0  0  0  0  0  0  0  0  0  0  0  0
    2.5990   27.1680  -23.9370 C   0  0  0  0  0  0  0  0  0  0  0  0
    2.1450   28.3130  -22.6650 S   0  0  0  0  0  0  0  0  0  0  0  0
    2.1070   29.9940  -23.2540 C   0  0  0  0  0  0  0  0  0  0  0  0
    0.7850   27.9540  -22.1380 O   0  0  0  0  0  0  0  0  0  0  0  0
    3.1500   28.2360  -21.5480 O   0  0  0  0  0  0  0  0  0  0  0  0
   -2.0070   25.9710  -26.0180 C   0  0  0  0  0  0  0  0  0  0  0  0
   -2.4920   24.9890  -26.8850 C   0  0  0  0  0  0  0  0  0  0  0  0
   -3.8000   22.6970  -30.5280 N   0  0  0  0  0  0  0  0  0  0  0  0
   -4.8760   22.6230  -31.3580 C   0  0  0  0  0  0  0  0  0  0  0  0
   -5.0970   21.3560  -32.0910 C   0  0  0  0  0  0  0  0  0  0  0  0
   -6.4020   20.8630  -32.2450 C   0  0  0  0  0  0  0  0  0  0  0  0
   -6.6370   19.7010  -32.9840 C   0  0  0  0  0  0  0  0  0  0  0  0
   -5.5740   19.0130  -33.5780 C   0  0  0  0  0  0  0  0  0  0  0  0
   -5.8390   17.8570  -34.3190 O   0  0  0  0  0  0  0  0  0  0  0  0
   -5.6950   16.5500  -33.7690 C   0  0  0  0  0  0  0  0  0  0  0  0
   -4.3510   15.9600  -34.2070 C   0  0  0  0  0  0  0  0  0  0  0  0
   -4.1980   14.5050  -33.7030 C   0  0  0  0  0  0  0  0  0  0  0  0
   -5.4170   13.9250  -33.2650 O   0  0  0  0  0  0  0  0  0  0  0  0
   -6.4400   14.1540  -34.2130 C   0  0  0  0  0  0  0  0  0  0  0  0
   -6.8500   15.6400  -34.2270 C   0  0  0  0  0  0  0  0  0  0  0  0
   -4.2640   19.5070  -33.4470 C   0  0  0  0  0  0  0  0  0  0  0  0
   -3.1570   18.8440  -34.0920 C   0  0  0  0  0  0  0  0  0  0  0  0
   -2.2690   18.3130  -34.6120 N   0  0  0  0  0  0  0  0  0  0  0  0
   -4.0310   20.6810  -32.7160 C   0  0  0  0  0  0  0  0  0  0  0  0
   -7.8287   23.8347  -31.8715 H   0  0  0  0  0  0  0  0  0  0  0  0
   -6.8075   24.6915  -33.0755 H   0  0  0  0  0  0  0  0  0  0  0  0
   -6.8814   22.8968  -33.0755 H   0  0  0  0  0  0  0  0  0  0  0  0
   -6.1130   25.7429  -30.7264 H   0  0  0  0  0  0  0  0  0  0  0  0
   -0.5193   25.6344  -29.6035 H   0  0  0  0  0  0  0  0  0  0  0  0
    0.3012   27.4268  -28.0801 H   0  0  0  0  0  0  0  0  0  0  0  0
    1.8063   26.2880  -27.1587 H   0  0  0  0  0  0  0  0  0  0  0  0
    4.7992   24.6093  -24.5261 H   0  0  0  0  0  0  0  0  0  0  0  0
    4.1590   26.2324  -22.7530 H   0  0  0  0  0  0  0  0  0  0  0  0
    2.0914   30.6827  -22.3964 H   0  0  0  0  0  0  0  0  0  0  0  0
    3.0010   30.1889  -23.8646 H   0  0  0  0  0  0  0  0  0  0  0  0
    1.2051   30.1483  -23.8646 H   0  0  0  0  0  0  0  0  0  0  0  0
   -2.4146   26.0482  -24.9992 H   0  0  0  0  0  0  0  0  0  0  0  0
   -3.2791   24.3012  -26.5425 H   0  0  0  0  0  0  0  0  0  0  0  0
   -7.2454   21.3951  -31.7807 H   0  0  0  0  0  0  0  0  0  0  0  0
   -7.6642   19.3249  -33.0994 H   0  0  0  0  0  0  0  0  0  0  0  0
   -5.7249   16.6169  -32.6714 H   0  0  0  0  0  0  0  0  0  0  0  0
   -4.2944   15.9688  -35.3055 H   0  0  0  0  0  0  0  0  0  0  0  0
   -3.5422   16.5687  -33.7765 H   0  0  0  0  0  0  0  0  0  0  0  0
   -3.7967   13.8928  -34.5241 H   0  0  0  0  0  0  0  0  0  0  0  0
   -3.5235   14.5334  -32.8345 H   0  0  0  0  0  0  0  0  0  0  0  0
   -6.0763   13.8707  -35.2117 H   0  0  0  0  0  0  0  0  0  0  0  0
   -7.3167   13.5487  -33.9392 H   0  0  0  0  0  0  0  0  0  0  0  0
   -7.1416   15.9204  -35.2499 H   0  0  0  0  0  0  0  0  0  0  0  0
   -7.6902   15.7722  -33.5294 H   0  0  0  0  0  0  0  0  0  0  0  0
   -3.0084   21.0772  -32.6303 H   0  0  0  0  0  0  0  0  0  0  0  0
  1  2  1  0
  2  3  2  0
  3  4  1  0
  4  5  1  0
  5  6  2  3
  6  7  1  0
  7  8  2  0
  8  9  1  0
  9 10  2  0
 10 11  1  0
 11 12  2  0
 11 13  1  0
 13 14  1  0
 14 15  2  0
 15 16  1  0
 16 17  1  0
 17 18  2  0
 17 19  2  0
 17 20  1  0
 16 21  2  0
 21 22  1  0
 22 23  2  0
 23 24  1  0
 24 25  1  0
 24 26  2  0
 24 27  2  0
 10 28  1  0
 28 29  2  0
  5 30  1  0
 30 31  2  0
 31 32  1  0
 32 33  2  0
 33 34  1  0
 34 35  2  0
 35 36  1  0
 36 37  1  0
 37 38  1  0
 38 39  1  0
 39 40  1  0
 40 41  1  0
 41 42  1  0
 35 43  1  0
 43 44  1  0
 44 45  3  0
 43 46  2  0
 31  2  1  0
 46 32  1  0
 29  7  1  0
 42 37  1  0
 23 14  1  0
  1 47  1  0
  1 48  1  0
  1 49  1  0
  3 50  1  0
  8 51  1  0
  9 52  1  0
 15 53  1  0
 21 54  1  0
 22 55  1  0
 25 56  1  0
 25 57  1  0
 25 58  1  0
 28 59  1  0
 29 60  1  0
 33 61  1  0
 34 62  1  0
 37 63  1  0
 38 64  1  0
 38 65  1  0
 39 66  1  0
 39 67  1  0
 41 68  1  0
 41 69  1  0
 42 70  1  0
 42 71  1  0
 46 72  1  0
M  CHG  2   4  -1  13  -1
M  END
>  <UniqueID>  (3) 
3

>  <SMILES>  (3) 
Cc1c[n-]c(=Nc2ccc(C(=O)[N-]c3cc(S(=O)(=O)F)ccc3S(C)(=O)=O)cc2)nc1-c1ccc(OC2CCOCC2)c(C#N)c1

>  <Energy>  (3) 
107.68663468830714

>  <Genealogy>  (3) 
Cc1c[n-]c(=Nc2ccc(C(=O)[N-]c3cc(S(=O)(=O)F)ccc3S(C)(=O)=O)cc2)nc1-c1ccc(OC2CCOCC2)c(C#N)c1 (protonated)
Cc1c[n-]c(=Nc2ccc(C(=O)[N-]c3cc(S(=O)(=O)F)ccc3S(C)(=O)=O)cc2)nc1-c1ccc(OC2CCOCC2)c(C#N)c1 (3D coordinates assigned)
Cc1c[n-]c(=Nc2ccc(C(=O)[N-]c3cc(S(=O)(=O)F)ccc3S(C)(=O)=O)cc2)nc1-c1ccc(OC2CCOCC2)c(C#N)c1 (nonaromatic ring conformer: 107.68663468830714 kcal/mol)

>  <smiles>  (3) 
Cc1c[nH]c(=Nc2ccc(C(=O)Nc3cc(S(=O)(=O)F)ccc3S(C)(=O)=O)cc2)nc1-c1ccc(OC2CCOCC2)c(C#N)c1

>  <score_type>  (3) 
oracle

>  <origin>  (3) 
adgpu

>  <m_score__min__energy>  (3) 
-11.24

>  <m_primary>  (3) 
energy

$$$$
3:0
     RDKit          3D

 42 44  0  0  0  0  0  0  0  0999 V2000
   -6.1370   19.4440  -34.3630 O   0  0  0  0  0  0  0  0  0  0  0  0
   -5.7660   19.4740  -33.1580 C   0  0  0  0  0  0  0  0  0  0  0  0
   -5.5640   18.2440  -32.4370 N   0  0  0  0  0  0  0  0  0  0  0  0
   -5.6720   16.9400  -33.0330 C   0  0  0  0  0  0  0  0  0  0  0  0
   -6.8700   16.5700  -33.6650 C   0  0  0  0  0  0  0  0  0  0  0  0
   -7.0090   15.2980  -34.2310 C   0  0  0  0  0  0  0  0  0  0  0  0
   -5.9580   14.3810  -34.1560 C   0  0  0  0  0  0  0  0  0  0  0  0
   -4.7710   14.7290  -33.5070 C   0  0  0  0  0  0  0  0  0  0  0  0
   -4.6280   16.0000  -32.9410 C   0  0  0  0  0  0  0  0  0  0  0  0
   -5.5580   20.7900  -32.5070 C   0  0  0  0  0  0  0  0  0  0  0  0
   -4.2670   21.3080  -32.2980 C   0  0  0  0  0  0  0  0  0  0  0  0
   -4.0920   22.5360  -31.6540 C   0  0  0  0  0  0  0  0  0  0  0  0
   -5.2000   23.2580  -31.1960 C   0  0  0  0  0  0  0  0  0  0  0  0
   -4.9520   24.7550  -30.3020 S   0  0  0  0  0  0  0  0  0  0  0  0
   -5.7980   24.7710  -29.0590 O   0  0  0  0  0  0  0  0  0  0  0  0
   -5.3600   25.9090  -31.1730 O   0  0  0  0  0  0  0  0  0  0  0  0
   -3.2740   24.9330  -29.8730 N   0  0  0  0  0  0  0  0  0  0  0  0
   -2.9820   24.3100  -28.5790 C   0  0  0  0  0  0  0  0  0  0  0  0
   -1.6420   24.7530  -28.0570 C   0  0  0  0  0  0  0  0  0  0  0  0
   -1.5490   25.6690  -26.9980 C   0  0  0  0  0  0  0  0  0  0  0  0
   -0.2980   26.0380  -26.5010 C   0  0  0  0  0  0  0  0  0  0  0  0
    0.8530   25.4980  -27.0770 C   0  0  0  0  0  0  0  0  0  0  0  0
    0.7500   24.6250  -28.1140 N   0  0  0  0  0  0  0  0  0  0  0  0
   -0.4570   24.2480  -28.6150 C   0  0  0  0  0  0  0  0  0  0  0  0
   -6.4890   22.7530  -31.4060 C   0  0  0  0  0  0  0  0  0  0  0  0
   -6.6660   21.5250  -32.0510 C   0  0  0  0  0  0  0  0  0  0  0  0
   -5.3810   18.2780  -31.4100 H   0  0  0  0  0  0  0  0  0  0  0  0
   -7.7046   17.2848  -33.7155 H   0  0  0  0  0  0  0  0  0  0  0  0
   -7.9463   15.0200  -34.7352 H   0  0  0  0  0  0  0  0  0  0  0  0
   -6.0651   13.3841  -34.6083 H   0  0  0  0  0  0  0  0  0  0  0  0
   -3.9477   14.0025  -33.4410 H   0  0  0  0  0  0  0  0  0  0  0  0
   -3.6956   16.2663  -32.4216 H   0  0  0  0  0  0  0  0  0  0  0  0
   -3.3891   20.7426  -32.6438 H   0  0  0  0  0  0  0  0  0  0  0  0
   -3.0784   22.9370  -31.5064 H   0  0  0  0  0  0  0  0  0  0  0  0
   -3.7616   24.5966  -27.8578 H   0  0  0  0  0  0  0  0  0  0  0  0
   -2.9626   23.2183  -28.7122 H   0  0  0  0  0  0  0  0  0  0  0  0
   -2.4626   26.0965  -26.5593 H   0  0  0  0  0  0  0  0  0  0  0  0
   -0.2200   26.7472  -25.6638 H   0  0  0  0  0  0  0  0  0  0  0  0
    1.8442   25.7790  -26.6916 H   0  0  0  0  0  0  0  0  0  0  0  0
   -0.5047   23.5453  -29.4599 H   0  0  0  0  0  0  0  0  0  0  0  0
   -7.3645   23.3237  -31.0628 H   0  0  0  0  0  0  0  0  0  0  0  0
   -7.6816   21.1306  -32.2029 H   0  0  0  0  0  0  0  0  0  0  0  0
  1  2  2  0
  2  3  1  0
  3  4  1  0
  4  5  2  0
  5  6  1  0
  6  7  2  0
  7  8  1  0
  8  9  2  0
  2 10  1  0
 10 11  2  0
 11 12  1  0
 12 13  2  0
 13 14  1  0
 14 15  2  0
 14 16  2  0
 14 17  1  0
 17 18  1  0
 18 19  1  0
 19 20  2  0
 20 21  1  0
 21 22  2  0
 22 23  1  0
 23 24  2  0
 13 25  1  0
 25 26  2  0
  9  4  1  0
 26 10  1  0
 24 19  1  0
  3 27  1  0
  5 28  1  0
  6 29  1  0
  7 30  1  0
  8 31  1  0
  9 32  1  0
 11 33  1  0
 12 34  1  0
 18 35  1  0
 18 36  1  0
 20 37  1  0
 21 38  1  0
 22 39  1  0
 24 40  1  0
 25 41  1  0
 26 42  1  0
M  CHG  1  17  -1
M  END
>  <UniqueID>  (4) 
4

>  <SMILES>  (4) 
O=C(Nc1ccccc1)c1ccc(S(=O)(=O)[N-]Cc2cccnc2)cc1

>  <Energy>  (4) 
48.4105337290688

>  <Genealogy>  (4) 
O=C(Nc1ccccc1)c1ccc(S(=O)(=O)[N-]Cc2cccnc2)cc1 (protonated)
O=C(Nc1ccccc1)c1ccc(S(=O)(=O)[N-]Cc2cccnc2)cc1 (3D coordinates assigned)
O=C(Nc1ccccc1)c1ccc(S(=O)(=O)[N-]Cc2cccnc2)cc1 (optimized conformer: 48.4105337290688 kcal/mol)

>  <smiles>  (4) 
O=C(Nc1ccccc1)c1ccc(S(=O)(=O)NCc2cccnc2)cc1

>  <score_type>  (4) 
oracle

>  <origin>  (4) 
adgpu

>  <m_score__min__energy>  (4) 
-9.7799999999999994

>  <m_primary>  (4) 
energy

$$$$
4:0
     RDKit          3D

 35 38  0  0  0  0  0  0  0  0999 V2000
   -0.9730   18.5730  -27.1960 C   0  0  0  0  0  0  0  0  0  0  0  0
   -2.2890   18.5930  -26.7250 C   0  0  0  0  0  0  0  0  0  0  0  0
   -3.0990   19.7090  -26.9550 C   0  0  0  0  0  0  0  0  0  0  0  0
   -2.5960   20.8150  -27.6610 C   0  0  0  0  0  0  0  0  0  0  0  0
   -3.4510   22.0400  -27.8570 C   0  0  0  0  0  0  0  0  0  0  0  0
   -2.6200   23.2550  -28.9410 S   0  0  0  0  0  0  0  0  0  0  0  0
   -4.0120   23.4240  -30.0550 C   0  0  0  0  0  0  0  0  0  0  0  0
   -4.2280   24.4900  -30.8450 N   0  0  0  0  0  0  0  0  0  0  0  0
   -5.3670   24.2510  -31.4790 N   0  0  0  0  0  0  0  0  0  0  0  0
   -5.7960   23.0490  -31.0450 C   0  0  0  0  0  0  0  0  0  0  0  0
   -7.0520   22.4170  -31.4670 C   0  0  0  0  0  0  0  0  0  0  0  0
   -8.2810   23.0470  -31.6300 C   0  0  0  0  0  0  0  0  0  0  0  0
   -9.2270   22.1520  -31.9920 N   0  0  0  0  0  0  0  0  0  0  0  0
   -8.6070   20.9600  -32.0540 C   0  0  0  0  0  0  0  0  0  0  0  0
   -9.1810   19.7280  -32.3660 C   0  0  0  0  0  0  0  0  0  0  0  0
   -8.3500   18.5930  -32.3500 C   0  0  0  0  0  0  0  0  0  0  0  0
   -6.9820   18.7130  -32.0250 C   0  0  0  0  0  0  0  0  0  0  0  0
   -6.4290   19.9690  -31.7150 C   0  0  0  0  0  0  0  0  0  0  0  0
   -7.2770   21.0790  -31.7400 C   0  0  0  0  0  0  0  0  0  0  0  0
   -4.9620   22.5340  -30.1760 O   0  0  0  0  0  0  0  0  0  0  0  0
   -1.2730   20.7850  -28.1330 C   0  0  0  0  0  0  0  0  0  0  0  0
   -0.4660   19.6690  -27.8980 C   0  0  0  0  0  0  0  0  0  0  0  0
   -0.3368   17.6943  -27.0138 H   0  0  0  0  0  0  0  0  0  0  0  0
   -2.6878   17.7294  -26.1726 H   0  0  0  0  0  0  0  0  0  0  0  0
   -4.1338   19.7214  -26.5820 H   0  0  0  0  0  0  0  0  0  0  0  0
   -4.4054   21.7425  -28.3160 H   0  0  0  0  0  0  0  0  0  0  0  0
   -3.6232   22.5069  -26.8760 H   0  0  0  0  0  0  0  0  0  0  0  0
   -8.4584   24.1228  -31.4847 H   0  0  0  0  0  0  0  0  0  0  0  0
  -10.2370   22.3490  -32.1740 H   0  0  0  0  0  0  0  0  0  0  0  0
  -10.2490   19.6463  -32.6165 H   0  0  0  0  0  0  0  0  0  0  0  0
   -8.7694   17.6054  -32.5924 H   0  0  0  0  0  0  0  0  0  0  0  0
   -6.3431   17.8176  -32.0140 H   0  0  0  0  0  0  0  0  0  0  0  0
   -5.3638   20.0736  -31.4612 H   0  0  0  0  0  0  0  0  0  0  0  0
   -0.8708   21.6440  -28.6901 H   0  0  0  0  0  0  0  0  0  0  0  0
    0.5704   19.6534  -28.2664 H   0  0  0  0  0  0  0  0  0  0  0  0
  1  2  2  0
  2  3  1  0
  3  4  2  0
  4  5  1  0
  5  6  1  0
  6  7  1  0
  7  8  2  0
  8  9  1  0
  9 10  2  0
 10 11  1  0
 11 12  2  0
 12 13  1  0
 13 14  1  0
 14 15  2  0
 15 16  1  0
 16 17  2  0
 17 18  1  0
 18 19  2  0
 10 20  1  0
  4 21  1  0
 21 22  2  0
 22  1  1  0
 20  7  1  0
 19 11  1  0
 19 14  1  0
  1 23  1  0
  2 24  1  0
  3 25  1  0
  5 26  1  0
  5 27  1  0
 12 28  1  0
 13 29  1  0
 15 30  1  0
 16 31  1  0
 17 32  1  0
 18 33  1  0
 21 34  1  0
 22 35  1  0
M  END
>  <UniqueID>  (5) 
5

>  <SMILES>  (5) 
c1ccc(CSc2nnc(-c3c[nH]c4ccccc34)o2)cc1

>  <Energy>  (5) 
100.61058020801565

>  <Genealogy>  (5) 
c1ccc(CSc2nnc(-c3c[nH]c4ccccc34)o2)cc1 (3D coordinates assigned)
c1ccc(CSc2nnc(-c3c[nH]c4ccccc34)o2)cc1 (optimized conformer: 100.61058020801565 kcal/mol)

>  <smiles>  (5) 
c1ccc(CSc2nnc(-c3c[nH]c4ccccc34)o2)cc1

>  <score_type>  (5) 
oracle

>  <origin>  (5) 
adgpu

>  <m_score__min__energy>  (5) 
-8.5199999999999996

>  <m_primary>  (5) 
energy

$$$$
5:0
     RDKit          3D

 51 55  0  0  0  0  0  0  0  0999 V2000
   -4.2930   17.3640  -34.4570 O   0  0  0  0  0  0  0  0  0  0  0  0
   -4.4810   18.4650  -33.8670 C   0  0  0  0  0  0  0  0  0  0  0  0
   -5.8150   18.8910  -33.5620 N   0  0  0  0  0  0  0  0  0  0  0  0
   -6.3360   19.0120  -32.2040 C   0  0  0  0  0  0  0  0  0  0  0  0
   -7.0160   20.3410  -32.0210 C   0  0  0  0  0  0  0  0  0  0  0  0
   -8.3180   20.3980  -31.4960 C   0  0  0  0  0  0  0  0  0  0  0  0
   -8.9620   21.6280  -31.3410 C   0  0  0  0  0  0  0  0  0  0  0  0
   -8.3110   22.8110  -31.7010 C   0  0  0  0  0  0  0  0  0  0  0  0
   -7.0120   22.7670  -32.2260 C   0  0  0  0  0  0  0  0  0  0  0  0
   -6.3470   23.9390  -32.5770 O   0  0  0  0  0  0  0  0  0  0  0  0
   -6.3700   21.5340  -32.3920 C   0  0  0  0  0  0  0  0  0  0  0  0
   -3.3270   19.3040  -33.4780 C   0  0  0  0  0  0  0  0  0  0  0  0
   -3.4230   20.7080  -33.4900 C   0  0  0  0  0  0  0  0  0  0  0  0
   -2.3390   21.4950  -33.0870 C   0  0  0  0  0  0  0  0  0  0  0  0
   -1.1550   20.8910  -32.6560 C   0  0  0  0  0  0  0  0  0  0  0  0
   -1.0470   19.4970  -32.6410 C   0  0  0  0  0  0  0  0  0  0  0  0
    0.4420   18.7130  -32.0210 S   0  0  0  0  0  0  0  0  0  0  0  0
   -0.1290   18.8270  -30.3280 C   0  0  0  0  0  0  0  0  0  0  0  0
    0.2800   17.8780  -29.3640 C   0  0  0  0  0  0  0  0  0  0  0  0
   -0.1260   18.0230  -28.0280 C   0  0  0  0  0  0  0  0  0  0  0  0
   -0.9320   19.1150  -27.7280 C   0  0  0  0  0  0  0  0  0  0  0  0
   -1.3640   19.5080  -26.5170 N   0  0  0  0  0  0  0  0  0  0  0  0
   -2.0240   20.6490  -26.7150 N   0  0  0  0  0  0  0  0  0  0  0  0
   -1.9840   20.9310  -28.0400 C   0  0  0  0  0  0  0  0  0  0  0  0
   -2.5450   22.1630  -28.6440 C   0  0  0  0  0  0  0  0  0  0  0  0
   -3.8420   22.1420  -29.1870 C   0  0  0  0  0  0  0  0  0  0  0  0
   -4.3870   23.2920  -29.7670 C   0  0  0  0  0  0  0  0  0  0  0  0
   -3.6450   24.4730  -29.8130 C   0  0  0  0  0  0  0  0  0  0  0  0
   -2.3530   24.5060  -29.2850 C   0  0  0  0  0  0  0  0  0  0  0  0
   -1.6090   25.6800  -29.3390 O   0  0  0  0  0  0  0  0  0  0  0  0
   -1.8010   23.3560  -28.7080 C   0  0  0  0  0  0  0  0  0  0  0  0
   -1.3040   19.9670  -28.6830 N   0  0  0  0  0  0  0  0  0  0  0  0
   -0.9180   19.8740  -29.9530 N   0  0  0  0  0  0  0  0  0  0  0  0
   -2.1220   18.7070  -33.0640 C   0  0  0  0  0  0  0  0  0  0  0  0
   -7.0610   18.2054  -32.0205 H   0  0  0  0  0  0  0  0  0  0  0  0
   -5.5003   18.9373  -31.4927 H   0  0  0  0  0  0  0  0  0  0  0  0
   -8.8325   19.4701  -31.2058 H   0  0  0  0  0  0  0  0  0  0  0  0
   -9.9836   21.6654  -30.9348 H   0  0  0  0  0  0  0  0  0  0  0  0
   -8.8187   23.7783  -31.5722 H   0  0  0  0  0  0  0  0  0  0  0  0
   -6.0170   24.0970  -33.5210 H   0  0  0  0  0  0  0  0  0  0  0  0
   -5.3551   21.4981  -32.8148 H   0  0  0  0  0  0  0  0  0  0  0  0
   -4.3560   21.1894  -33.8182 H   0  0  0  0  0  0  0  0  0  0  0  0
   -2.4189   22.5919  -33.1095 H   0  0  0  0  0  0  0  0  0  0  0  0
   -0.3081   21.5120  -32.3286 H   0  0  0  0  0  0  0  0  0  0  0  0
    0.9140   17.0290  -29.6594 H   0  0  0  0  0  0  0  0  0  0  0  0
    0.1800   17.3046  -27.2532 H   0  0  0  0  0  0  0  0  0  0  0  0
   -4.4322   21.2143  -29.1553 H   0  0  0  0  0  0  0  0  0  0  0  0
   -5.4029   23.2655  -30.1879 H   0  0  0  0  0  0  0  0  0  0  0  0
   -4.0779   25.3775  -30.2651 H   0  0  0  0  0  0  0  0  0  0  0  0
   -0.7791   23.3851  -28.3020 H   0  0  0  0  0  0  0  0  0  0  0  0
   -2.0242   17.6114  -33.0729 H   0  0  0  0  0  0  0  0  0  0  0  0
  1  2  2  0
  2  3  1  0
  3  4  1  0
  4  5  1  0
  5  6  2  0
  6  7  1  0
  7  8  2  0
  8  9  1  0
  9 10  1  0
  9 11  2  0
  2 12  1  0
 12 13  2  0
 13 14  1  0
 14 15  2  0
 15 16  1  0
 16 17  1  0
 17 18  1  0
 18 19  1  0
 19 20  2  0
 20 21  1  0
 21 22  2  0
 22 23  1  0
 23 24  2  0
 24 25  1  0
 25 26  2  0
 26 27  1  0
 27 28  2  0
 28 29  1  0
 29 30  1  0
 29 31  2  0
 24 32  1  0
 32 33  1  0
 16 34  2  0
 11  5  1  0
 34 12  1  0
 33 18  2  0
 32 21  1  0
 31 25  1  0
  4 35  1  0
  4 36  1  0
  6 37  1  0
  7 38  1  0
  8 39  1  0
 10 40  1  0
 11 41  1  0
 13 42  1  0
 14 43  1  0
 15 44  1  0
 19 45  1  0
 20 46  1  0
 26 47  1  0
 27 48  1  0
 28 49  1  0
 31 50  1  0
 34 51  1  0
M  CHG  2   3  -1  30  -1
M  END
>  <UniqueID>  (6) 
6

>  <SMILES>  (6) 
O=C([N-]Cc1cccc(O)c1)c1cccc(Sc2ccc3nnc(-c4cccc([O-])c4)n3n2)c1

>  <Energy>  (6) 
95.13805828383545

>  <Genealogy>  (6) 
O=C([N-]Cc1cccc(O)c1)c1cccc(Sc2ccc3nnc(-c4cccc([O-])c4)n3n2)c1 (protonated)
O=C([N-]Cc1cccc(O)c1)c1cccc(Sc2ccc3nnc(-c4cccc([O-])c4)n3n2)c1 (3D coordinates assigned)
O=C([N-]Cc1cccc(O)c1)c1cccc(Sc2ccc3nnc(-c4cccc([O-])c4)n3n2)c1 (optimized conformer: 95.13805828383545 kcal/mol)

>  <smiles>  (6) 
O=C(NCc1cccc(O)c1)c1cccc(Sc2ccc3nnc(-c4cccc(O)c4)n3n2)c1

>  <score_type>  (6) 
oracle

>  <origin>  (6) 
adgpu

>  <m_score__min__energy>  (6) 
-14.359999999999999

>  <m_primary>  (6) 
energy

$$$$
6:0
     RDKit          3D

 35 37  0  0  0  0  0  0  0  0999 V2000
   -6.4470   26.0010  -28.9940 C   0  0  0  0  0  0  0  0  0  0  0  0
   -6.2350   25.6850  -30.3660 O   0  0  0  0  0  0  0  0  0  0  0  0
   -5.7240   24.4630  -30.8300 C   0  0  0  0  0  0  0  0  0  0  0  0
   -6.5580   23.4220  -31.2780 C   0  0  0  0  0  0  0  0  0  0  0  0
   -6.0080   22.2190  -31.7320 C   0  0  0  0  0  0  0  0  0  0  0  0
   -6.8270   21.2210  -32.1610 N   0  0  0  0  0  0  0  0  0  0  0  0
   -6.3390   20.0360  -32.6100 C   0  0  0  0  0  0  0  0  0  0  0  0
   -4.9630   19.8110  -32.6430 C   0  0  0  0  0  0  0  0  0  0  0  0
   -4.0850   20.8120  -32.2120 C   0  0  0  0  0  0  0  0  0  0  0  0
   -2.6730   20.5650  -32.2590 N   0  0  0  0  0  0  0  0  0  0  0  0
   -2.0060   20.5010  -33.5640 C   0  0  0  0  0  0  0  0  0  0  0  0
   -0.4980   20.3450  -33.3860 C   0  0  0  0  0  0  0  0  0  0  0  0
   -0.0480   21.2610  -32.3370 N   0  0  0  0  0  0  0  0  0  0  0  0
   -0.5340   20.8490  -31.0070 C   0  0  0  0  0  0  0  0  0  0  0  0
   -1.9530   20.2360  -31.0250 C   0  0  0  0  0  0  0  0  0  0  0  0
   -4.6060   22.0390  -31.7460 C   0  0  0  0  0  0  0  0  0  0  0  0
   -3.7770   23.0810  -31.2940 C   0  0  0  0  0  0  0  0  0  0  0  0
   -4.3340   24.2810  -30.8420 C   0  0  0  0  0  0  0  0  0  0  0  0
   -3.4980   25.3000  -30.4010 O   0  0  0  0  0  0  0  0  0  0  0  0
   -5.9448   25.2525  -28.3635 H   0  0  0  0  0  0  0  0  0  0  0  0
   -6.0341   26.9977  -28.7793 H   0  0  0  0  0  0  0  0  0  0  0  0
   -7.5258   25.9970  -28.7793 H   0  0  0  0  0  0  0  0  0  0  0  0
   -7.6499   23.5553  -31.2711 H   0  0  0  0  0  0  0  0  0  0  0  0
   -7.0312   19.2511  -32.9488 H   0  0  0  0  0  0  0  0  0  0  0  0
   -4.5693   18.8503  -33.0064 H   0  0  0  0  0  0  0  0  0  0  0  0
   -2.3950   19.6402  -34.1276 H   0  0  0  0  0  0  0  0  0  0  0  0
   -2.2052   21.4339  -34.1117 H   0  0  0  0  0  0  0  0  0  0  0  0
   -0.2653   19.3095  -33.0970 H   0  0  0  0  0  0  0  0  0  0  0  0
    0.0152   20.5785  -34.3305 H   0  0  0  0  0  0  0  0  0  0  0  0
    0.9990   21.2500  -32.3200 H   0  0  0  0  0  0  0  0  0  0  0  0
    0.1620   20.1010  -30.5996 H   0  0  0  0  0  0  0  0  0  0  0  0
   -0.5845   21.7571  -30.3883 H   0  0  0  0  0  0  0  0  0  0  0  0
   -1.8694   19.1423  -30.9425 H   0  0  0  0  0  0  0  0  0  0  0  0
   -2.5169   20.6546  -30.1784 H   0  0  0  0  0  0  0  0  0  0  0  0
   -2.6847   22.9513  -31.2961 H   0  0  0  0  0  0  0  0  0  0  0  0
  1  2  1  0
  2  3  1  0
  3  4  2  0
  4  5  1  0
  5  6  2  0
  6  7  1  0
  7  8  2  0
  8  9  1  0
  9 10  1  0
 10 11  1  0
 11 12  1  0
 12 13  1  0
 13 14  1  0
 14 15  1  0
  9 16  2  0
 16 17  1  0
 17 18  2  0
 18 19  1  0
 18  3  1  0
 16  5  1  0
 15 10  1  0
  1 20  1  0
  1 21  1  0
  1 22  1  0
  4 23  1  0
  7 24  1  0
  8 25  1  0
 11 26  1  0
 11 27  1  0
 12 28  1  0
 12 29  1  0
 13 30  1  0
 14 31  1  0
 14 32  1  0
 15 33  1  0
 15 34  1  0
 17 35  1  0
M  CHG  1  19  -1
M  END
>  <UniqueID>  (7) 
7

>  <SMILES>  (7) 
COc1cc2nccc(N3CCNCC3)c2cc1[O-]

>  <Energy>  (7) 
49.17387655925437

>  <Genealogy>  (7) 
COc1cc2nccc(N3CCNCC3)c2cc1[O-] (protonated)
COc1cc2nccc(N3CCNCC3)c2cc1[O-] (3D coordinates assigned)
COc1cc2nccc(N3CCNCC3)c2cc1[O-] (nonaromatic ring conformer: 49.17387655925437 kcal/mol)

>  <smiles>  (7) 
COc1cc2nccc(N3CCNCC3)c2cc1O

>  <score_type>  (7) 
oracle

>  <origin>  (7) 
adgpu

>  <m_score__min__energy>  (7) 
-8.8100000000000005

>  <m_primary>  (7) 
energy

$$$$
7:0
     RDKit          3D

 49 50  0  0  0  0  0  0  0  0999 V2000
   -3.9300   26.2380  -31.2160 H   0  0  0  0  0  0  0  0  0  0  0  0
   -3.8130   25.2720  -30.8370 N   0  0  0  0  0  0  0  0  0  0  0  0
   -5.2690   24.8810  -29.9900 S   0  0  0  0  0  0  0  0  0  0  0  0
   -4.9160   24.4840  -28.5830 O   0  0  0  0  0  0  0  0  0  0  0  0
   -6.1730   26.0810  -29.9600 O   0  0  0  0  0  0  0  0  0  0  0  0
   -6.0850   23.5510  -30.8020 C   0  0  0  0  0  0  0  0  0  0  0  0
   -7.4600   23.3590  -30.6200 C   0  0  0  0  0  0  0  0  0  0  0  0
   -8.0208   24.0166  -29.9395 H   0  0  0  0  0  0  0  0  0  0  0  0
   -8.1210   22.3340  -31.3010 C   0  0  0  0  0  0  0  0  0  0  0  0
   -9.2013   22.1863  -31.1559 H   0  0  0  0  0  0  0  0  0  0  0  0
   -7.4130   21.4960  -32.1660 C   0  0  0  0  0  0  0  0  0  0  0  0
   -7.9432   20.7053  -32.7170 H   0  0  0  0  0  0  0  0  0  0  0  0
   -6.0300   21.6570  -32.3360 C   0  0  0  0  0  0  0  0  0  0  0  0
   -5.3350   20.8240  -33.2800 N   0  0  0  0  0  0  0  0  0  0  0  0
   -5.0790   21.2370  -34.2050 H   0  0  0  0  0  0  0  0  0  0  0  0
   -4.9530   19.4640  -33.0260 C   0  0  0  0  0  0  0  0  0  0  0  0
   -5.6710   18.7320  -32.2930 O   0  0  0  0  0  0  0  0  0  0  0  0
   -3.7570   18.8930  -33.6840 C   0  0  0  0  0  0  0  0  0  0  0  0
   -3.9500   17.8950  -34.7060 C   0  0  0  0  0  0  0  0  0  0  0  0
   -4.1050   17.0940  -35.5270 N   0  0  0  0  0  0  0  0  0  0  0  0
   -2.5060   19.2980  -33.3960 C   0  0  0  0  0  0  0  0  0  0  0  0
   -1.6843   18.9417  -34.0346 H   0  0  0  0  0  0  0  0  0  0  0  0
   -2.1760   20.1950  -32.2690 C   0  0  0  0  0  0  0  0  0  0  0  0
   -1.5210   19.7030  -31.1310 C   0  0  0  0  0  0  0  0  0  0  0  0
   -1.2101   18.6485  -31.0923 H   0  0  0  0  0  0  0  0  0  0  0  0
   -1.2610   20.5430  -30.0470 C   0  0  0  0  0  0  0  0  0  0  0  0
   -0.7596   20.1417  -29.1540 H   0  0  0  0  0  0  0  0  0  0  0  0
   -1.6350   21.8990  -30.0870 C   0  0  0  0  0  0  0  0  0  0  0  0
   -1.4160   22.7590  -28.9440 N   0  0  0  0  0  0  0  0  0  0  0  0
   -0.5250   23.9290  -29.0440 C   0  0  0  0  0  0  0  0  0  0  0  0
   -0.2173   24.0587  -30.0921 H   0  0  0  0  0  0  0  0  0  0  0  0
    0.3531   23.7576  -28.4040 H   0  0  0  0  0  0  0  0  0  0  0  0
   -1.2330   25.1950  -28.5710 C   0  0  0  0  0  0  0  0  0  0  0  0
   -1.2462   25.2186  -27.4713 H   0  0  0  0  0  0  0  0  0  0  0  0
   -0.6977   26.0780  -28.9503 H   0  0  0  0  0  0  0  0  0  0  0  0
   -2.2655   25.2012  -28.9503 H   0  0  0  0  0  0  0  0  0  0  0  0
   -2.0700   22.4710  -27.6590 C   0  0  0  0  0  0  0  0  0  0  0  0
   -1.4775   21.7214  -27.1140 H   0  0  0  0  0  0  0  0  0  0  0  0
   -2.1349   23.4052  -27.0819 H   0  0  0  0  0  0  0  0  0  0  0  0
   -3.4830   21.9320  -27.8720 C   0  0  0  0  0  0  0  0  0  0  0  0
   -3.9574   21.7510  -26.8962 H   0  0  0  0  0  0  0  0  0  0  0  0
   -4.0748   22.6675  -28.4366 H   0  0  0  0  0  0  0  0  0  0  0  0
   -3.4346   20.9892  -28.4366 H   0  0  0  0  0  0  0  0  0  0  0  0
   -2.2440   22.3980  -31.2550 C   0  0  0  0  0  0  0  0  0  0  0  0
   -2.5183   23.4616  -31.3148 H   0  0  0  0  0  0  0  0  0  0  0  0
   -2.5030   21.5540  -32.3390 C   0  0  0  0  0  0  0  0  0  0  0  0
   -2.9657   21.9597  -33.2507 H   0  0  0  0  0  0  0  0  0  0  0  0
   -5.3690   22.6900  -31.6460 C   0  0  0  0  0  0  0  0  0  0  0  0
   -4.2841   22.8229  -31.7694 H   0  0  0  0  0  0  0  0  0  0  0  0
  1  2  1  0
  2  3  1  0
  3  4  2  0
  3  5  2  0
  3  6  1  0
  6  7  2  0
  7  8  1  0
  7  9  1  0
  9 10  1  0
  9 11  2  0
 11 12  1  0
 11 13  1  0
 13 14  1  0
 14 15  1  0
 14 16  1  0
 16 17  2  0
 16 18  1  0
 18 19  1  0
 19 20  3  0
 18 21  2  0
 21 22  1  0
 21 23  1  0
 23 24  2  0
 24 25  1  0
 24 26  1  0
 26 27  1  0
 26 28  2  0
 28 29  1  0
 29 30  1  0
 30 31  1  0
 30 32  1  0
 30 33  1  0
 33 34  1  0
 33 35  1  0
 33 36  1  0
 29 37  1  0
 37 38  1  0
 37 39  1  0
 37 40  1  0
 40 41  1  0
 40 42  1  0
 40 43  1  0
 28 44  1  0
 44 45  1  0
 44 46  2  0
 46 47  1  0
 13 48  2  0
 48 49  1  0
 48  6  1  0
 46 23  1  0
M  CHG  1   2  -1
M  END
>  <UniqueID>  (8) 
8

>  <SMILES>  (8) 
CCN(CC)c1ccc(/C=C(/C#N)C(=O)Nc2cccc(S([NH-])(=O)=O)c2)cc1

>  <Energy>  (8) 
53.63630924117982

>  <Genealogy>  (8) 
CCN(CC)c1ccc(C=C(C#N)C(=O)Nc2cccc(S([NH-])(=O)=O)c2)cc1 (protonated)
CCN(CC)c1ccc(/C=C(/C#N)C(=O)Nc2cccc(S([NH-])(=O)=O)c2)cc1 (cis-trans isomerization)
CCN(CC)c1ccc(/C=C(/C#N)C(=O)Nc2cccc(S([NH-])(=O)=O)c2)cc1 (3D coordinates assigned)
CCN(CC)c1ccc(/C=C(/C#N)C(=O)Nc2cccc(S([NH-])(=O)=O)c2)cc1 (optimized conformer: 53.63630924117982 kcal/mol)

>  <smiles>  (8) 
CCN(CC)c1ccc(C=C(C#N)C(=O)Nc2cccc(S(N)(=O)=O)c2)cc1

>  <score_type>  (8) 
oracle

>  <origin>  (8) 
adgpu

>  <m_score__min__energy>  (8) 
-10.84

>  <m_primary>  (8) 
energy

$$$$
8:0
     RDKit          3D

 54 57  0  0  0  0  0  0  0  0999 V2000
   -3.8300   25.0400  -30.5730 O   0  0  0  0  0  0  0  0  0  0  0  0
   -3.4800   23.8450  -30.3650 C   0  0  0  0  0  0  0  0  0  0  0  0
   -2.5500   23.5450  -29.2570 C   0  0  0  0  0  0  0  0  0  0  0  0
   -2.5660   22.2710  -28.6670 C   0  0  0  0  0  0  0  0  0  0  0  0
   -1.6520   21.9400  -27.6590 C   0  0  0  0  0  0  0  0  0  0  0  0
   -1.6250   20.3060  -26.9870 S   0  0  0  0  0  0  0  0  0  0  0  0
   -1.6420   20.3860  -25.4870 O   0  0  0  0  0  0  0  0  0  0  0  0
   -2.8630   19.5730  -27.4270 O   0  0  0  0  0  0  0  0  0  0  0  0
   -0.2010   19.4210  -27.4910 N   0  0  0  0  0  0  0  0  0  0  0  0
   -0.4630   17.9690  -27.5030 C   0  0  0  0  0  0  0  0  0  0  0  0
    0.5040   17.2440  -28.4520 C   0  0  0  0  0  0  0  0  0  0  0  0
    0.4010   17.6680  -29.8050 O   0  0  0  0  0  0  0  0  0  0  0  0
   -0.0450   19.0100  -29.9560 C   0  0  0  0  0  0  0  0  0  0  0  0
    0.3300   19.9270  -28.7750 C   0  0  0  0  0  0  0  0  0  0  0  0
   -0.7430   22.9070  -27.2070 C   0  0  0  0  0  0  0  0  0  0  0  0
   -0.7470   24.1880  -27.7610 C   0  0  0  0  0  0  0  0  0  0  0  0
   -1.6430   24.5120  -28.7860 C   0  0  0  0  0  0  0  0  0  0  0  0
   -1.6090   25.7860  -29.3430 O   0  0  0  0  0  0  0  0  0  0  0  0
   -3.9950   22.7930  -31.2040 N   0  0  0  0  0  0  0  0  0  0  0  0
   -3.1200   21.6720  -31.5840 C   0  0  0  0  0  0  0  0  0  0  0  0
   -3.6970   20.8720  -32.7550 C   0  0  0  0  0  0  0  0  0  0  0  0
   -5.1130   20.5570  -32.5160 N   0  0  0  0  0  0  0  0  0  0  0  0
   -5.6700   19.3080  -32.9830 C   0  0  0  0  0  0  0  0  0  0  0  0
   -5.1780   18.6980  -34.1520 C   0  0  0  0  0  0  0  0  0  0  0  0
   -5.7160   17.4870  -34.6000 C   0  0  0  0  0  0  0  0  0  0  0  0
   -6.7470   16.8720  -33.8870 C   0  0  0  0  0  0  0  0  0  0  0  0
   -7.2430   17.4660  -32.7250 C   0  0  0  0  0  0  0  0  0  0  0  0
   -6.7090   18.6760  -32.2730 C   0  0  0  0  0  0  0  0  0  0  0  0
   -6.0010   21.5720  -31.9220 C   0  0  0  0  0  0  0  0  0  0  0  0
   -5.3150   22.9370  -31.8270 C   0  0  0  0  0  0  0  0  0  0  0  0
   -3.3035   21.5258  -28.9997 H   0  0  0  0  0  0  0  0  0  0  0  0
   -0.3343   17.5716  -26.4854 H   0  0  0  0  0  0  0  0  0  0  0  0
   -1.4917   17.8009  -27.8545 H   0  0  0  0  0  0  0  0  0  0  0  0
    1.5323   17.4282  -28.1075 H   0  0  0  0  0  0  0  0  0  0  0  0
    0.2387   16.1767  -28.4281 H   0  0  0  0  0  0  0  0  0  0  0  0
    0.4028   19.4233  -30.8718 H   0  0  0  0  0  0  0  0  0  0  0  0
   -1.1436   18.9792  -30.0014 H   0  0  0  0  0  0  0  0  0  0  0  0
    1.4262   19.9879  -28.7067 H   0  0  0  0  0  0  0  0  0  0  0  0
   -0.1126   20.9170  -28.9594 H   0  0  0  0  0  0  0  0  0  0  0  0
   -0.0243   22.6553  -26.4132 H   0  0  0  0  0  0  0  0  0  0  0  0
   -0.0423   24.9468  -27.3901 H   0  0  0  0  0  0  0  0  0  0  0  0
   -2.1369   22.0705  -31.8751 H   0  0  0  0  0  0  0  0  0  0  0  0
   -3.0330   20.9978  -30.7192 H   0  0  0  0  0  0  0  0  0  0  0  0
   -3.6089   21.4654  -33.6770 H   0  0  0  0  0  0  0  0  0  0  0  0
   -3.1353   19.9314  -32.8540 H   0  0  0  0  0  0  0  0  0  0  0  0
   -4.3648   19.1768  -34.7172 H   0  0  0  0  0  0  0  0  0  0  0  0
   -5.3261   17.0184  -35.5156 H   0  0  0  0  0  0  0  0  0  0  0  0
   -7.1684   15.9195  -34.2408 H   0  0  0  0  0  0  0  0  0  0  0  0
   -8.0555   16.9809  -32.1642 H   0  0  0  0  0  0  0  0  0  0  0  0
   -7.1033   19.1380  -31.3559 H   0  0  0  0  0  0  0  0  0  0  0  0
   -6.9012   21.6679  -32.5468 H   0  0  0  0  0  0  0  0  0  0  0  0
   -6.2613   21.2469  -30.9039 H   0  0  0  0  0  0  0  0  0  0  0  0
   -5.1973   23.3566  -32.8370 H   0  0  0  0  0  0  0  0  0  0  0  0
   -5.9324   23.6094  -31.2132 H   0  0  0  0  0  0  0  0  0  0  0  0
  1  2  2  0
  2  3  1  0
  3  4  2  0
  4  5  1  0
  5  6  1  0
  6  7  2  0
  6  8  2  0
  6  9  1  0
  9 10  1  0
 10 11  1  0
 11 12  1  0
 12 13  1  0
 13 14  1  0
  5 15  2  0
 15 16  1  0
 16 17  2  0
 17 18  1  0
  2 19  1  0
 19 20  1  0
 20 21  1  0
 21 22  1  0
 22 23  1  0
 23 24  2  0
 24 25  1  0
 25 26  2  0
 26 27  1  0
 27 28  2  0
 22 29  1  0
 29 30  1  0
 17  3  1  0
 30 19  1  0
 14  9  1  0
 28 23  1  0
  4 31  1  0
 10 32  1  0
 10 33  1  0
 11 34  1  0
 11 35  1  0
 13 36  1  0
 13 37  1  0
 14 38  1  0
 14 39  1  0
 15 40  1  0
 16 41  1  0
 20 42  1  0
 20 43  1  0
 21 44  1  0
 21 45  1  0
 24 46  1  0
 25 47  1  0
 26 48  1  0
 27 49  1  0
 28 50  1  0
 29 51  1  0
 29 52  1  0
 30 53  1  0
 30 54  1  0
M  CHG  1  18  -1
M  END
>  <UniqueID>  (9) 
9

>  <SMILES>  (9) 
O=C(c1cc(S(=O)(=O)N2CCOCC2)ccc1[O-])N1CCN(c2ccccc2)CC1

>  <Energy>  (9) 
75.75495391549663

>  <Genealogy>  (9) 
O=C(c1cc(S(=O)(=O)N2CCOCC2)ccc1[O-])N1CCN(c2ccccc2)CC1 (protonated)
O=C(c1cc(S(=O)(=O)N2CCOCC2)ccc1[O-])N1CCN(c2ccccc2)CC1 (3D coordinates assigned)
O=C(c1cc(S(=O)(=O)N2CCOCC2)ccc1[O-])N1CCN(c2ccccc2)CC1 (nonaromatic ring conformer: 75.75495391549663 kcal/mol)

>  <smiles>  (9) 
O=C(c1cc(S(=O)(=O)N2CCOCC2)ccc1O)N1CCN(c2ccccc2)CC1

>  <score_type>  (9) 
oracle

>  <origin>  (9) 
adgpu

>  <m_score__min__energy>  (9) 
-13.09

>  <m_primary>  (9) 
energy

$$$$
9:0
     RDKit          3D

 45 47  0  0  0  0  0  0  0  0999 V2000
   -1.2170   25.9840  -25.2940 C   0  0  0  0  0  0  0  0  0  0  0  0
   -0.0250   25.4350  -26.5540 S   0  0  0  0  0  0  0  0  0  0  0  0
   -1.2630   24.5660  -27.5180 C   0  0  0  0  0  0  0  0  0  0  0  0
   -1.5940   23.2430  -27.2020 C   0  0  0  0  0  0  0  0  0  0  0  0
   -2.5540   22.5630  -27.9570 C   0  0  0  0  0  0  0  0  0  0  0  0
   -3.1930   23.2060  -29.0210 C   0  0  0  0  0  0  0  0  0  0  0  0
   -2.8860   24.5440  -29.3270 C   0  0  0  0  0  0  0  0  0  0  0  0
   -3.5130   25.2310  -30.4200 N   0  0  0  0  0  0  0  0  0  0  0  0
   -4.9230   25.3060  -30.6750 C   0  0  0  0  0  0  0  0  0  0  0  0
   -5.5180   26.3910  -30.4500 O   0  0  0  0  0  0  0  0  0  0  0  0
   -5.7000   24.1340  -31.1410 C   0  0  0  0  0  0  0  0  0  0  0  0
   -7.1050   24.1420  -31.1090 C   0  0  0  0  0  0  0  0  0  0  0  0
   -7.8290   23.0330  -31.5540 C   0  0  0  0  0  0  0  0  0  0  0  0
   -7.1600   21.9130  -32.0490 C   0  0  0  0  0  0  0  0  0  0  0  0
   -5.7600   21.8950  -32.1090 C   0  0  0  0  0  0  0  0  0  0  0  0
   -4.9160   20.4870  -32.7620 S   0  0  0  0  0  0  0  0  0  0  0  0
   -3.8320   20.9500  -33.6960 O   0  0  0  0  0  0  0  0  0  0  0  0
   -4.2670   19.7330  -31.6350 O   0  0  0  0  0  0  0  0  0  0  0  0
   -6.0040   19.4240  -33.6230 N   0  0  0  0  0  0  0  0  0  0  0  0
   -5.2500   18.3440  -34.2880 C   0  0  0  0  0  0  0  0  0  0  0  0
   -6.1710   17.1530  -34.5990 C   0  0  0  0  0  0  0  0  0  0  0  0
   -6.7760   16.5710  -33.4500 O   0  0  0  0  0  0  0  0  0  0  0  0
   -6.8670   17.4540  -32.3400 C   0  0  0  0  0  0  0  0  0  0  0  0
   -7.0870   18.9230  -32.7480 C   0  0  0  0  0  0  0  0  0  0  0  0
   -5.0350   23.0060  -31.6530 C   0  0  0  0  0  0  0  0  0  0  0  0
   -1.9070   25.2120  -28.5810 C   0  0  0  0  0  0  0  0  0  0  0  0
   -0.8048   25.7942  -24.2920 H   0  0  0  0  0  0  0  0  0  0  0  0
   -1.4077   27.0607  -25.4141 H   0  0  0  0  0  0  0  0  0  0  0  0
   -2.1592   25.4291  -25.4141 H   0  0  0  0  0  0  0  0  0  0  0  0
   -1.0986   22.7384  -26.3594 H   0  0  0  0  0  0  0  0  0  0  0  0
   -2.8069   21.5205  -27.7135 H   0  0  0  0  0  0  0  0  0  0  0  0
   -3.9385   22.6637  -29.6211 H   0  0  0  0  0  0  0  0  0  0  0  0
   -7.6380   25.0270  -30.7312 H   0  0  0  0  0  0  0  0  0  0  0  0
   -8.9282   23.0428  -31.5141 H   0  0  0  0  0  0  0  0  0  0  0  0
   -7.7341   21.0403  -32.3937 H   0  0  0  0  0  0  0  0  0  0  0  0
   -4.8236   18.7261  -35.2272 H   0  0  0  0  0  0  0  0  0  0  0  0
   -4.4478   18.0057  -33.6157 H   0  0  0  0  0  0  0  0  0  0  0  0
   -6.9694   17.5000  -35.2714 H   0  0  0  0  0  0  0  0  0  0  0  0
   -5.5406   16.3749  -35.0541 H   0  0  0  0  0  0  0  0  0  0  0  0
   -7.7104   17.1365  -31.7092 H   0  0  0  0  0  0  0  0  0  0  0  0
   -5.9077   17.4043  -31.8040 H   0  0  0  0  0  0  0  0  0  0  0  0
   -8.0433   19.0027  -33.2856 H   0  0  0  0  0  0  0  0  0  0  0  0
   -7.0930   19.5325  -31.8323 H   0  0  0  0  0  0  0  0  0  0  0  0
   -3.9359   22.9945  -31.6964 H   0  0  0  0  0  0  0  0  0  0  0  0
   -1.6422   26.2499  -28.8312 H   0  0  0  0  0  0  0  0  0  0  0  0
  1  2  1  0
  2  3  1  0
  3  4  2  0
  4  5  1  0
  5  6  2  0
  6  7  1  0
  7  8  1  0
  8  9  1  0
  9 10  2  0
  9 11  1  0
 11 12  2  0
 12 13  1  0
 13 14  2  0
 14 15  1  0
 15 16  1  0
 16 17  2  0
 16 18  2  0
 16 19  1  0
 19 20  1  0
 20 21  1  0
 21 22  1  0
 22 23  1  0
 23 24  1  0
 15 25  2  0
  7 26  2  0
 26  3  1  0
 25 11  1  0
 24 19  1  0
  1 27  1  0
  1 28  1  0
  1 29  1  0
  4 30  1  0
  5 31  1  0
  6 32  1  0
 12 33  1  0
 13 34  1  0
 14 35  1  0
 20 36  1  0
 20 37  1  0
 21 38  1  0
 21 39  1  0
 23 40  1  0
 23 41  1  0
 24 42  1  0
 24 43  1  0
 25 44  1  0
 26 45  1  0
M  CHG  1   8  -1
M  END
>  <UniqueID>  (10) 
10

>  <SMILES>  (10) 
CSc1cccc([N-]C(=O)c2cccc(S(=O)(=O)N3CCOCC3)c2)c1

>  <Energy>  (10) 
60.486296575626135

>  <Genealogy>  (10) 
CSc1cccc([N-]C(=O)c2cccc(S(=O)(=O)N3CCOCC3)c2)c1 (protonated)
CSc1cccc([N-]C(=O)c2cccc(S(=O)(=O)N3CCOCC3)c2)c1 (3D coordinates assigned)
CSc1cccc([N-]C(=O)c2cccc(S(=O)(=O)N3CCOCC3)c2)c1 (nonaromatic ring conformer: 60.486296575626135 kcal/mol)

>  <smiles>  (10) 
CSc1cccc(NC(=O)c2cccc(S(=O)(=O)N3CCOCC3)c2)c1

>  <score_type>  (10) 
oracle

>  <origin>  (10) 
adgpu

>  <m_score__min__energy>  (10) 
-10.77

>  <m_primary>  (10) 
energy

$$$$
10:0
     RDKit          3D

 46 49  0  0  0  0  0  0  0  0999 V2000
    1.8310   26.7800  -26.9660 C   0  0  0  0  0  0  0  0  0  0  0  0
    0.6190   26.1130  -27.4240 N   0  0  0  0  0  0  0  0  0  0  0  0
   -0.6310   26.6110  -27.3460 C   0  0  0  0  0  0  0  0  0  0  0  0
   -1.5020   25.7030  -27.9120 C   0  0  0  0  0  0  0  0  0  0  0  0
   -0.6860   24.6680  -28.3210 C   0  0  0  0  0  0  0  0  0  0  0  0
   -1.1440   23.5030  -29.0170 N   0  0  0  0  0  0  0  0  0  0  0  0
   -2.2840   23.3790  -29.6270 C   0  0  0  0  0  0  0  0  0  0  0  0
   -3.2230   24.3480  -29.7000 N   0  0  0  0  0  0  0  0  0  0  0  0
   -4.3190   23.9460  -30.4030 C   0  0  0  0  0  0  0  0  0  0  0  0
   -5.4700   24.8880  -30.6260 C   0  0  0  0  0  0  0  0  0  0  0  0
   -5.9730   24.7530  -31.9080 F   0  0  0  0  0  0  0  0  0  0  0  0
   -5.0410   26.1940  -30.4650 F   0  0  0  0  0  0  0  0  0  0  0  0
   -6.4670   24.6330  -29.7050 F   0  0  0  0  0  0  0  0  0  0  0  0
   -4.2500   22.6230  -30.8740 C   0  0  0  0  0  0  0  0  0  0  0  0
   -5.2550   21.8690  -31.6520 C   0  0  0  0  0  0  0  0  0  0  0  0
   -6.6290   22.1220  -31.5030 C   0  0  0  0  0  0  0  0  0  0  0  0
   -7.5670   21.3510  -32.1960 C   0  0  0  0  0  0  0  0  0  0  0  0
   -7.1430   20.3010  -33.0170 C   0  0  0  0  0  0  0  0  0  0  0  0
   -5.7770   20.0190  -33.1510 C   0  0  0  0  0  0  0  0  0  0  0  0
   -5.2510   18.6340  -34.1090 S   0  0  0  0  0  0  0  0  0  0  0  0
   -6.1020   18.5260  -35.3480 O   0  0  0  0  0  0  0  0  0  0  0  0
   -5.4410   17.3880  -33.2840 O   0  0  0  0  0  0  0  0  0  0  0  0
   -3.5780   18.7540  -34.5820 N   0  0  0  0  0  0  0  0  0  0  0  0
   -2.5280   19.3540  -33.8080 C   0  0  0  0  0  0  0  0  0  0  0  0
   -1.9750   20.6070  -34.1430 C   0  0  0  0  0  0  0  0  0  0  0  0
   -0.9500   21.1570  -33.3590 C   0  0  0  0  0  0  0  0  0  0  0  0
   -0.4540   20.4520  -32.2560 C   0  0  0  0  0  0  0  0  0  0  0  0
   -0.9680   19.1850  -31.9480 C   0  0  0  0  0  0  0  0  0  0  0  0
   -1.9940   18.6350  -32.7280 C   0  0  0  0  0  0  0  0  0  0  0  0
   -4.8390   20.8130  -32.4770 C   0  0  0  0  0  0  0  0  0  0  0  0
   -2.7570   21.9810  -30.4200 S   0  0  0  0  0  0  0  0  0  0  0  0
    0.6030   24.9360  -28.0260 N   0  0  0  0  0  0  0  0  0  0  0  0
    1.8504   26.7907  -25.8662 H   0  0  0  0  0  0  0  0  0  0  0  0
    2.7118   26.2395  -27.3430 H   0  0  0  0  0  0  0  0  0  0  0  0
    1.8457   27.8133  -27.3430 H   0  0  0  0  0  0  0  0  0  0  0  0
   -0.9100   27.5793  -26.9049 H   0  0  0  0  0  0  0  0  0  0  0  0
   -2.5942   25.7851  -28.0137 H   0  0  0  0  0  0  0  0  0  0  0  0
   -6.9681   22.9301  -30.8383 H   0  0  0  0  0  0  0  0  0  0  0  0
   -8.6402   21.5705  -32.0954 H   0  0  0  0  0  0  0  0  0  0  0  0
   -7.8839   19.6949  -33.5590 H   0  0  0  0  0  0  0  0  0  0  0  0
   -2.3482   21.1545  -35.0211 H   0  0  0  0  0  0  0  0  0  0  0  0
   -0.5352   22.1440  -33.6114 H   0  0  0  0  0  0  0  0  0  0  0  0
    0.3380   20.8918  -31.6320 H   0  0  0  0  0  0  0  0  0  0  0  0
   -0.5656   18.6218  -31.0931 H   0  0  0  0  0  0  0  0  0  0  0  0
   -2.3831   17.6335  -32.4921 H   0  0  0  0  0  0  0  0  0  0  0  0
   -3.7652   20.6061  -32.5961 H   0  0  0  0  0  0  0  0  0  0  0  0
  1  2  1  0
  2  3  1  0
  3  4  2  0
  4  5  1  0
  5  6  1  0
  6  7  2  3
  7  8  1  0
  8  9  1  0
  9 10  1  0
 10 11  1  0
 10 12  1  0
 10 13  1  0
  9 14  2  0
 14 15  1  0
 15 16  2  0
 16 17  1  0
 17 18  2  0
 18 19  1  0
 19 20  1  0
 20 21  2  0
 20 22  2  0
 20 23  1  0
 23 24  1  0
 24 25  2  0
 25 26  1  0
 26 27  2  0
 27 28  1  0
 28 29  2  0
 19 30  2  0
 14 31  1  0
  5 32  2  0
 32  2  1  0
 31  7  1  0
 30 15  1  0
 29 24  1  0
  1 33  1  0
  1 34  1  0
  1 35  1  0
  3 36  1  0
  4 37  1  0
 16 38  1  0
 17 39  1  0
 18 40  1  0
 25 41  1  0
 26 42  1  0
 27 43  1  0
 28 44  1  0
 29 45  1  0
 30 46  1  0
M  CHG  2   8  -1  23  -1
M  END
>  <UniqueID>  (11) 
11

>  <SMILES>  (11) 
Cn1ccc(N=c2[n-]c(C(F)(F)F)c(-c3cccc(S(=O)(=O)[N-]c4ccccc4)c3)s2)n1

>  <Energy>  (11) 
124.45285534596358

>  <Genealogy>  (11) 
Cn1ccc(N=c2[n-]c(C(F)(F)F)c(-c3cccc(S(=O)(=O)[N-]c4ccccc4)c3)s2)n1 (protonated)
Cn1ccc(N=c2[n-]c(C(F)(F)F)c(-c3cccc(S(=O)(=O)[N-]c4ccccc4)c3)s2)n1 (3D coordinates assigned)
Cn1ccc(N=c2[n-]c(C(F)(F)F)c(-c3cccc(S(=O)(=O)[N-]c4ccccc4)c3)s2)n1 (optimized conformer: 124.45285534596358 kcal/mol)

>  <smiles>  (11) 
Cn1ccc(N=c2[nH]c(C(F)(F)F)c(-c3cccc(S(=O)(=O)Nc4ccccc4)c3)s2)n1

>  <score_type>  (11) 
oracle

>  <origin>  (11) 
adgpu

>  <m_score__min__energy>  (11) 
-10.42

>  <m_primary>  (11) 
energy

$$$$
11:0
     RDKit          3D

 57 60  0  0  0  0  0  0  0  0999 V2000
   -8.9900   19.8440  -32.6040 O   0  0  0  0  0  0  0  0  0  0  0  0
   -7.7410   19.9750  -32.4930 C   0  0  0  0  0  0  0  0  0  0  0  0
   -7.2010   21.2070  -31.8790 C   0  0  0  0  0  0  0  0  0  0  0  0
   -7.9220   22.4060  -31.9360 C   0  0  0  0  0  0  0  0  0  0  0  0
   -7.3650   23.5860  -31.4290 C   0  0  0  0  0  0  0  0  0  0  0  0
   -6.0970   23.5730  -30.8340 C   0  0  0  0  0  0  0  0  0  0  0  0
   -5.3700   25.0730  -30.2560 S   0  0  0  0  0  0  0  0  0  0  0  0
   -5.7380   26.1880  -31.1930 O   0  0  0  0  0  0  0  0  0  0  0  0
   -5.8860   25.4290  -28.8920 O   0  0  0  0  0  0  0  0  0  0  0  0
   -3.6380   24.9220  -30.2470 N   0  0  0  0  0  0  0  0  0  0  0  0
   -2.8790   23.8420  -29.6830 C   0  0  0  0  0  0  0  0  0  0  0  0
   -2.8680   23.6890  -28.2930 C   0  0  0  0  0  0  0  0  0  0  0  0
   -2.1430   22.6540  -27.6960 C   0  0  0  0  0  0  0  0  0  0  0  0
   -1.4370   21.7520  -28.4850 C   0  0  0  0  0  0  0  0  0  0  0  0
   -1.4460   21.8830  -29.8820 C   0  0  0  0  0  0  0  0  0  0  0  0
   -0.5560   20.7410  -30.8910 S   0  0  0  0  0  0  0  0  0  0  0  0
    0.2500   21.5190  -31.8900 O   0  0  0  0  0  0  0  0  0  0  0  0
    0.4060   19.9680  -30.0320 O   0  0  0  0  0  0  0  0  0  0  0  0
   -1.5950   19.6210  -31.7440 N   0  0  0  0  0  0  0  0  0  0  0  0
   -2.9540   20.1480  -31.9390 C   0  0  0  0  0  0  0  0  0  0  0  0
   -3.0560   21.1240  -33.1360 C   0  0  0  0  0  0  0  0  0  0  0  0
   -1.8820   21.1600  -33.9270 O   0  0  0  0  0  0  0  0  0  0  0  0
   -1.4820   19.8490  -34.2460 C   0  0  0  0  0  0  0  0  0  0  0  0
   -0.9870   19.1110  -32.9900 C   0  0  0  0  0  0  0  0  0  0  0  0
   -2.1650   22.9290  -30.4760 C   0  0  0  0  0  0  0  0  0  0  0  0
   -5.3950   22.3660  -30.7430 C   0  0  0  0  0  0  0  0  0  0  0  0
   -5.9350   21.1960  -31.2800 C   0  0  0  0  0  0  0  0  0  0  0  0
   -6.8740   18.9480  -33.0080 N   0  0  0  0  0  0  0  0  0  0  0  0
   -5.7830   19.3530  -33.9080 C   0  0  0  0  0  0  0  0  0  0  0  0
   -5.1230   18.1550  -34.5930 C   0  0  0  0  0  0  0  0  0  0  0  0
   -6.0940   17.1870  -34.9210 O   0  0  0  0  0  0  0  0  0  0  0  0
   -6.5290   16.5590  -33.7350 C   0  0  0  0  0  0  0  0  0  0  0  0
   -7.2650   17.5390  -32.8010 C   0  0  0  0  0  0  0  0  0  0  0  0
   -8.9282   22.4207  -32.3801 H   0  0  0  0  0  0  0  0  0  0  0  0
   -7.9266   24.5293  -31.4983 H   0  0  0  0  0  0  0  0  0  0  0  0
   -3.4355   24.3901  -27.6634 H   0  0  0  0  0  0  0  0  0  0  0  0
   -2.1307   22.5526  -26.6008 H   0  0  0  0  0  0  0  0  0  0  0  0
   -0.8710   20.9351  -28.0134 H   0  0  0  0  0  0  0  0  0  0  0  0
   -3.6359   19.3032  -32.1159 H   0  0  0  0  0  0  0  0  0  0  0  0
   -3.2236   20.7090  -31.0320 H   0  0  0  0  0  0  0  0  0  0  0  0
   -3.8969   20.8106  -33.7722 H   0  0  0  0  0  0  0  0  0  0  0  0
   -3.2040   22.1331  -32.7238 H   0  0  0  0  0  0  0  0  0  0  0  0
   -2.3374   19.3039  -34.6716 H   0  0  0  0  0  0  0  0  0  0  0  0
   -0.6597   19.8975  -34.9750 H   0  0  0  0  0  0  0  0  0  0  0  0
   -1.2349   18.0439  -33.0898 H   0  0  0  0  0  0  0  0  0  0  0  0
    0.0983   19.2753  -32.9179 H   0  0  0  0  0  0  0  0  0  0  0  0
   -2.1701   23.0356  -31.5708 H   0  0  0  0  0  0  0  0  0  0  0  0
   -4.4138   22.3389  -30.2464 H   0  0  0  0  0  0  0  0  0  0  0  0
   -5.3619   20.2583  -31.2323 H   0  0  0  0  0  0  0  0  0  0  0  0
   -6.1908   20.0219  -34.6801 H   0  0  0  0  0  0  0  0  0  0  0  0
   -5.0169   19.8597  -33.3027 H   0  0  0  0  0  0  0  0  0  0  0  0
   -4.6214   18.4926  -35.5119 H   0  0  0  0  0  0  0  0  0  0  0  0
   -4.3882   17.7087  -33.9068 H   0  0  0  0  0  0  0  0  0  0  0  0
   -7.2119   15.7377  -33.9977 H   0  0  0  0  0  0  0  0  0  0  0  0
   -5.6420   16.1836  -33.2036 H   0  0  0  0  0  0  0  0  0  0  0  0
   -8.3464   17.4467  -32.9802 H   0  0  0  0  0  0  0  0  0  0  0  0
   -6.9919   17.2732  -31.7691 H   0  0  0  0  0  0  0  0  0  0  0  0
  1  2  2  0
  2  3  1  0
  3  4  2  0
  4  5  1  0
  5  6  2  0
  6  7  1  0
  7  8  2  0
  7  9  2  0
  7 10  1  0
 10 11  1  0
 11 12  2  0
 12 13  1  0
 13 14  2  0
 14 15  1  0
 15 16  1  0
 16 17  2  0
 16 18  2  0
 16 19  1  0
 19 20  1  0
 20 21  1  0
 21 22  1  0
 22 23  1  0
 23 24  1  0
 15 25  2  0
  6 26  1  0
 26 27  2  0
  2 28  1  0
 28 29  1  0
 29 30  1  0
 30 31  1  0
 31 32  1  0
 32 33  1  0
 27  3  1  0
 33 28  1  0
 25 11  1  0
 24 19  1  0
  4 34  1  0
  5 35  1  0
 12 36  1  0
 13 37  1  0
 14 38  1  0
 20 39  1  0
 20 40  1  0
 21 41  1  0
 21 42  1  0
 23 43  1  0
 23 44  1  0
 24 45  1  0
 24 46  1  0
 25 47  1  0
 26 48  1  0
 27 49  1  0
 29 50  1  0
 29 51  1  0
 30 52  1  0
 30 53  1  0
 32 54  1  0
 32 55  1  0
 33 56  1  0
 33 57  1  0
M  CHG  1  10  -1
M  END
>  <UniqueID>  (12) 
12

>  <SMILES>  (12) 
O=C(c1ccc(S(=O)(=O)[N-]c2cccc(S(=O)(=O)N3CCOCC3)c2)cc1)N1CCOCC1

>  <Energy>  (12) 
85.00702726991594

>  <Genealogy>  (12) 
O=C(c1ccc(S(=O)(=O)[N-]c2cccc(S(=O)(=O)N3CCOCC3)c2)cc1)N1CCOCC1 (protonated)
O=C(c1ccc(S(=O)(=O)[N-]c2cccc(S(=O)(=O)N3CCOCC3)c2)cc1)N1CCOCC1 (3D coordinates assigned)
O=C(c1ccc(S(=O)(=O)[N-]c2cccc(S(=O)(=O)N3CCOCC3)c2)cc1)N1CCOCC1 (nonaromatic ring conformer: 85.00702726991594 kcal/mol)

>  <smiles>  (12) 
O=C(c1ccc(S(=O)(=O)Nc2cccc(S(=O)(=O)N3CCOCC3)c2)cc1)N1CCOCC1

>  <score_type>  (12) 
oracle

>  <origin>  (12) 
adgpu

>  <m_score__min__energy>  (12) 
-12.23

>  <m_primary>  (12) 
energy

$$$$
12:0
     RDKit          3D

 47 49  0  0  0  0  0  0  0  0999 V2000
   -1.0590   22.5990  -27.4200 N   0  0  0  0  0  0  0  0  0  0  0  0
   -1.3700   22.1090  -28.7330 C   0  0  0  0  0  0  0  0  0  0  0  0
   -0.9470   20.8180  -29.0900 C   0  0  0  0  0  0  0  0  0  0  0  0
   -1.2140   20.3090  -30.3620 C   0  0  0  0  0  0  0  0  0  0  0  0
   -1.9100   21.0810  -31.2900 C   0  0  0  0  0  0  0  0  0  0  0  0
   -2.3430   22.3640  -30.9500 C   0  0  0  0  0  0  0  0  0  0  0  0
   -2.0860   22.8900  -29.6730 C   0  0  0  0  0  0  0  0  0  0  0  0
   -2.6870   24.5080  -29.2800 S   0  0  0  0  0  0  0  0  0  0  0  0
   -3.2460   24.4940  -27.8850 O   0  0  0  0  0  0  0  0  0  0  0  0
   -1.5780   25.5210  -29.3390 O   0  0  0  0  0  0  0  0  0  0  0  0
   -3.9340   24.9750  -30.3920 N   0  0  0  0  0  0  0  0  0  0  0  0
   -5.1010   24.2020  -30.7000 C   0  0  0  0  0  0  0  0  0  0  0  0
   -5.6730   24.1890  -31.9850 C   0  0  0  0  0  0  0  0  0  0  0  0
   -6.8090   23.4150  -32.2410 C   0  0  0  0  0  0  0  0  0  0  0  0
   -7.3970   22.6610  -31.2180 C   0  0  0  0  0  0  0  0  0  0  0  0
   -8.8440   21.7100  -31.5550 S   0  0  0  0  0  0  0  0  0  0  0  0
   -9.8250   22.5330  -32.3470 O   0  0  0  0  0  0  0  0  0  0  0  0
   -9.4790   21.3240  -30.2460 O   0  0  0  0  0  0  0  0  0  0  0  0
   -8.4240   20.2710  -32.4580 N   0  0  0  0  0  0  0  0  0  0  0  0
   -8.7230   19.0630  -31.6450 C   0  0  0  0  0  0  0  0  0  0  0  0
   -7.9370   17.8420  -32.1350 C   0  0  0  0  0  0  0  0  0  0  0  0
   -6.4220   18.0710  -31.9980 C   0  0  0  0  0  0  0  0  0  0  0  0
   -6.0380   19.5610  -32.0660 C   0  0  0  0  0  0  0  0  0  0  0  0
   -7.0200   20.3470  -32.9470 C   0  0  0  0  0  0  0  0  0  0  0  0
   -6.8310   22.6770  -29.9370 C   0  0  0  0  0  0  0  0  0  0  0  0
   -5.6900   23.4430  -29.6820 C   0  0  0  0  0  0  0  0  0  0  0  0
   -0.3760   22.1250  -26.7900 H   0  0  0  0  0  0  0  0  0  0  0  0
   -1.5500   23.4390  -27.0410 H   0  0  0  0  0  0  0  0  0  0  0  0
   -0.4003   20.2025  -28.3605 H   0  0  0  0  0  0  0  0  0  0  0  0
   -0.8748   19.2980  -30.6319 H   0  0  0  0  0  0  0  0  0  0  0  0
   -2.1187   20.6788  -32.2924 H   0  0  0  0  0  0  0  0  0  0  0  0
   -2.8902   22.9683  -31.6885 H   0  0  0  0  0  0  0  0  0  0  0  0
   -5.2254   24.7894  -32.7907 H   0  0  0  0  0  0  0  0  0  0  0  0
   -7.2432   23.3983  -33.2516 H   0  0  0  0  0  0  0  0  0  0  0  0
   -9.0510   20.2550  -33.2980 H   0  0  0  0  0  0  0  0  0  0  0  0
   -8.4545   19.2629  -30.5972 H   0  0  0  0  0  0  0  0  0  0  0  0
   -9.7962   18.8415  -31.7412 H   0  0  0  0  0  0  0  0  0  0  0  0
   -8.2240   16.9652  -31.5359 H   0  0  0  0  0  0  0  0  0  0  0  0
   -8.1721   17.6766  -33.1968 H   0  0  0  0  0  0  0  0  0  0  0  0
   -6.0909   17.6660  -31.0304 H   0  0  0  0  0  0  0  0  0  0  0  0
   -5.9313   17.5624  -32.8410 H   0  0  0  0  0  0  0  0  0  0  0  0
   -6.0514   19.9819  -31.0498 H   0  0  0  0  0  0  0  0  0  0  0  0
   -5.0330   19.6424  -32.5058 H   0  0  0  0  0  0  0  0  0  0  0  0
   -6.7103   21.4024  -32.9628 H   0  0  0  0  0  0  0  0  0  0  0  0
   -6.9950   19.8985  -33.9511 H   0  0  0  0  0  0  0  0  0  0  0  0
   -7.2858   22.0849  -29.1291 H   0  0  0  0  0  0  0  0  0  0  0  0
   -5.2514   23.4494  -28.6732 H   0  0  0  0  0  0  0  0  0  0  0  0
  1  2  1  0
  2  3  2  0
  3  4  1  0
  4  5  2  0
  5  6  1  0
  6  7  2  0
  7  8  1  0
  8  9  2  0
  8 10  2  0
  8 11  1  0
 11 12  1  0
 12 13  2  0
 13 14  1  0
 14 15  2  0
 15 16  1  0
 16 17  2  0
 16 18  2  0
 16 19  1  0
 19 20  1  0
 20 21  1  0
 21 22  1  0
 22 23  1  0
 23 24  1  0
 15 25  1  0
 25 26  2  0
  7  2  1  0
 26 12  1  0
 24 19  1  0
  1 27  1  0
  1 28  1  0
  3 29  1  0
  4 30  1  0
  5 31  1  0
  6 32  1  0
 13 33  1  0
 14 34  1  0
 19 35  1  0
 20 36  1  0
 20 37  1  0
 21 38  1  0
 21 39  1  0
 22 40  1  0
 22 41  1  0
 23 42  1  0
 23 43  1  0
 24 44  1  0
 24 45  1  0
 25 46  1  0
 26 47  1  0
M  CHG  2  11  -1  19   1
M  END
>  <UniqueID>  (13) 
13

>  <SMILES>  (13) 
Nc1ccccc1S(=O)(=O)[N-]c1ccc(S(=O)(=O)[NH+]2CCCCC2)cc1

>  <Energy>  (13) 
57.61242501215063

>  <Genealogy>  (13) 
Nc1ccccc1S(=O)(=O)[N-]c1ccc(S(=O)(=O)[NH+]2CCCCC2)cc1 (protonated)
Nc1ccccc1S(=O)(=O)[N-]c1ccc(S(=O)(=O)[NH+]2CCCCC2)cc1 (3D coordinates assigned)
Nc1ccccc1S(=O)(=O)[N-]c1ccc(S(=O)(=O)[NH+]2CCCCC2)cc1 (nonaromatic ring conformer: 57.61242501215063 kcal/mol)

>  <smiles>  (13) 
Nc1ccccc1S(=O)(=O)Nc1ccc(S(=O)(=O)N2CCCCC2)cc1

>  <score_type>  (13) 
oracle

>  <origin>  (13) 
adgpu

>  <m_score__min__energy>  (13) 
-9.9199999999999999

>  <m_primary>  (13) 
energy

$$$$
13:0
     RDKit          3D

 43 45  0  0  0  0  0  0  0  0999 V2000
   -5.9450   24.2620  -29.6930 N   0  0  0  0  0  0  0  0  0  0  0  0
   -6.1980   23.1590  -30.5720 C   0  0  0  0  0  0  0  0  0  0  0  0
   -7.4870   22.6060  -30.6210 C   0  0  0  0  0  0  0  0  0  0  0  0
   -7.7450   21.4740  -31.3960 C   0  0  0  0  0  0  0  0  0  0  0  0
   -6.7140   20.8680  -32.1220 C   0  0  0  0  0  0  0  0  0  0  0  0
   -7.0340   19.4450  -33.1090 S   0  0  0  0  0  0  0  0  0  0  0  0
   -8.4860   19.0740  -32.9820 O   0  0  0  0  0  0  0  0  0  0  0  0
   -6.7430   19.7510  -34.5530 O   0  0  0  0  0  0  0  0  0  0  0  0
   -6.0440   18.1220  -32.5480 N   0  0  0  0  0  0  0  0  0  0  0  0
   -4.6890   18.2050  -33.0910 C   0  0  0  0  0  0  0  0  0  0  0  0
   -4.1530   16.7830  -33.1400 C   0  0  0  0  0  0  0  0  0  0  0  0
   -5.3820   15.8870  -33.0850 C   0  0  0  0  0  0  0  0  0  0  0  0
   -6.5690   16.8350  -33.0040 C   0  0  0  0  0  0  0  0  0  0  0  0
   -5.4290   21.4230  -32.0940 C   0  0  0  0  0  0  0  0  0  0  0  0
   -5.1670   22.5790  -31.3470 C   0  0  0  0  0  0  0  0  0  0  0  0
   -3.8440   23.1290  -31.3850 N   0  0  0  0  0  0  0  0  0  0  0  0
   -3.3300   24.0520  -30.4170 C   0  0  0  0  0  0  0  0  0  0  0  0
   -3.5590   25.2860  -30.5410 O   0  0  0  0  0  0  0  0  0  0  0  0
   -2.5630   23.5470  -29.2590 C   0  0  0  0  0  0  0  0  0  0  0  0
   -2.7960   22.2290  -28.8280 C   0  0  0  0  0  0  0  0  0  0  0  0
   -2.1520   21.7250  -27.6950 C   0  0  0  0  0  0  0  0  0  0  0  0
   -2.4680   20.0830  -27.1640 Cl  0  0  0  0  0  0  0  0  0  0  0  0
   -1.2680   22.5330  -26.9780 C   0  0  0  0  0  0  0  0  0  0  0  0
   -1.0100   23.8390  -27.4000 C   0  0  0  0  0  0  0  0  0  0  0  0
    0.1310   24.8210  -26.4920 Cl  0  0  0  0  0  0  0  0  0  0  0  0
   -1.6350   24.3510  -28.5490 C   0  0  0  0  0  0  0  0  0  0  0  0
   -1.2860   25.6370  -28.9730 O   0  0  0  0  0  0  0  0  0  0  0  0
   -5.3120   25.0390  -29.9860 H   0  0  0  0  0  0  0  0  0  0  0  0
   -6.4480   24.3660  -28.7850 H   0  0  0  0  0  0  0  0  0  0  0  0
   -8.3011   23.0686  -30.0437 H   0  0  0  0  0  0  0  0  0  0  0  0
   -8.7622   21.0571  -31.4360 H   0  0  0  0  0  0  0  0  0  0  0  0
   -4.7111   18.6374  -34.1022 H   0  0  0  0  0  0  0  0  0  0  0  0
   -4.0505   18.8484  -32.4678 H   0  0  0  0  0  0  0  0  0  0  0  0
   -3.5946   16.6139  -34.0725 H   0  0  0  0  0  0  0  0  0  0  0  0
   -3.4593   16.5780  -32.3113 H   0  0  0  0  0  0  0  0  0  0  0  0
   -5.4465   15.2659  -33.9906 H   0  0  0  0  0  0  0  0  0  0  0  0
   -5.3487   15.1986  -32.2277 H   0  0  0  0  0  0  0  0  0  0  0  0
   -7.0358   16.9445  -33.9940 H   0  0  0  0  0  0  0  0  0  0  0  0
   -7.3366   16.4525  -32.3151 H   0  0  0  0  0  0  0  0  0  0  0  0
   -4.6174   20.9470  -32.6639 H   0  0  0  0  0  0  0  0  0  0  0  0
   -3.4924   21.5881  -29.3885 H   0  0  0  0  0  0  0  0  0  0  0  0
   -0.7730   22.1398  -26.0778 H   0  0  0  0  0  0  0  0  0  0  0  0
   -1.6140   26.0470  -29.8370 H   0  0  0  0  0  0  0  0  0  0  0  0
  1  2  1  0
  2  3  2  0
  3  4  1  0
  4  5  2  0
  5  6  1  0
  6  7  2  0
  6  8  2  0
  6  9  1  0
  9 10  1  0
 10 11  1  0
 11 12  1  0
 12 13  1  0
  5 14  1  0
 14 15  2  0
 15 16  1  0
 16 17  1  0
 17 18  2  0
 17 19  1  0
 19 20  2  0
 20 21  1  0
 21 22  1  0
 21 23  2  0
 23 24  1  0
 24 25  1  0
 24 26  2  0
 26 27  1  0
 15  2  1  0
 26 19  1  0
 13  9  1  0
  1 28  1  0
  1 29  1  0
  3 30  1  0
  4 31  1  0
 10 32  1  0
 10 33  1  0
 11 34  1  0
 11 35  1  0
 12 36  1  0
 12 37  1  0
 13 38  1  0
 13 39  1  0
 14 40  1  0
 20 41  1  0
 23 42  1  0
 27 43  1  0
M  CHG  1  16  -1
M  END
>  <UniqueID>  (14) 
14

>  <SMILES>  (14) 
Nc1ccc(S(=O)(=O)N2CCCC2)cc1[N-]C(=O)c1cc(Cl)cc(Cl)c1O

>  <Energy>  (14) 
57.123906971455924

>  <Genealogy>  (14) 
Nc1ccc(S(=O)(=O)N2CCCC2)cc1[N-]C(=O)c1cc(Cl)cc(Cl)c1O (protonated)
Nc1ccc(S(=O)(=O)N2CCCC2)cc1[N-]C(=O)c1cc(Cl)cc(Cl)c1O (3D coordinates assigned)
Nc1ccc(S(=O)(=O)N2CCCC2)cc1[N-]C(=O)c1cc(Cl)cc(Cl)c1O (nonaromatic ring conformer: 57.123906971455924 kcal/mol)

>  <smiles>  (14) 
Nc1ccc(S(=O)(=O)N2CCCC2)cc1NC(=O)c1cc(Cl)cc(Cl)c1O

>  <score_type>  (14) 
oracle

>  <origin>  (14) 
adgpu

>  <m_score__min__energy>  (14) 
-11.67

>  <m_primary>  (14) 
energy

$$$$
14:0
     RDKit          3D

 36 38  0  0  0  0  0  0  0  0999 V2000
   -6.8220   16.3560  -34.2090 C   0  0  0  0  0  0  0  0  0  0  0  0
   -6.2120   17.5420  -33.5060 C   0  0  0  0  0  0  0  0  0  0  0  0
   -4.8130   17.6500  -33.3920 C   0  0  0  0  0  0  0  0  0  0  0  0
   -3.9990   16.6750  -33.9630 O   0  0  0  0  0  0  0  0  0  0  0  0
   -4.2400   18.7390  -32.7080 C   0  0  0  0  0  0  0  0  0  0  0  0
   -5.0730   19.7050  -32.1120 C   0  0  0  0  0  0  0  0  0  0  0  0
   -6.4740   19.6060  -32.2200 C   0  0  0  0  0  0  0  0  0  0  0  0
   -7.3600   20.6490  -31.5840 C   0  0  0  0  0  0  0  0  0  0  0  0
   -7.0420   18.5070  -32.9030 C   0  0  0  0  0  0  0  0  0  0  0  0
   -8.4300   18.3490  -32.9940 O   0  0  0  0  0  0  0  0  0  0  0  0
   -4.4970   20.7720  -31.4090 O   0  0  0  0  0  0  0  0  0  0  0  0
   -3.1400   20.7580  -30.9600 C   0  0  2  0  0  0  0  0  0  0  0  0
   -2.7780   22.1310  -30.4220 C   0  0  0  0  0  0  0  0  0  0  0  0
   -1.6260   22.2470  -29.6210 C   0  0  0  0  0  0  0  0  0  0  0  0
   -1.2350   23.4860  -29.1070 C   0  0  0  0  0  0  0  0  0  0  0  0
   -1.9820   24.6300  -29.3900 C   0  0  0  0  0  0  0  0  0  0  0  0
   -1.5880   25.8600  -28.8750 O   0  0  0  0  0  0  0  0  0  0  0  0
   -3.1240   24.5380  -30.1930 C   0  0  0  0  0  0  0  0  0  0  0  0
   -3.8680   25.6750  -30.4820 O   0  0  0  0  0  0  0  0  0  0  0  0
   -3.5190   23.2980  -30.7090 C   0  0  0  0  0  0  0  0  0  0  0  0
   -2.2330   20.2360  -32.0890 C   0  0  0  0  0  0  0  0  0  0  0  0
   -2.7710   18.9360  -32.6130 C   0  0  0  0  0  0  0  0  0  0  0  0
   -1.9650   18.0530  -33.0120 O   0  0  0  0  0  0  0  0  0  0  0  0
   -7.1915   15.6375  -33.4625 H   0  0  0  0  0  0  0  0  0  0  0  0
   -7.6585   16.6934  -34.8387 H   0  0  0  0  0  0  0  0  0  0  0  0
   -6.0611   15.8718  -34.8387 H   0  0  0  0  0  0  0  0  0  0  0  0
   -7.2923   20.5693  -30.4890 H   0  0  0  0  0  0  0  0  0  0  0  0
   -7.0323   21.6505  -31.8997 H   0  0  0  0  0  0  0  0  0  0  0  0
   -8.4013   20.4875  -31.8997 H   0  0  0  0  0  0  0  0  0  0  0  0
   -9.0140   18.8810  -33.6260 H   0  0  0  0  0  0  0  0  0  0  0  0
   -2.9926   20.0621  -30.1209 H   0  0  0  0  0  0  0  0  0  0  0  0
   -1.0269   21.3520  -29.3973 H   0  0  0  0  0  0  0  0  0  0  0  0
   -0.3359   23.5597  -28.4776 H   0  0  0  0  0  0  0  0  0  0  0  0
   -4.4149   23.2323  -31.3439 H   0  0  0  0  0  0  0  0  0  0  0  0
   -2.2030   20.9740  -32.9042 H   0  0  0  0  0  0  0  0  0  0  0  0
   -1.2181   20.0771  -31.6957 H   0  0  0  0  0  0  0  0  0  0  0  0
  1  2  1  0
  2  3  2  0
  3  4  1  0
  3  5  1  0
  5  6  2  0
  6  7  1  0
  7  8  1  0
  7  9  2  0
  9 10  1  0
  6 11  1  0
 11 12  1  0
 12 13  1  0
 13 14  2  0
 14 15  1  0
 15 16  2  0
 16 17  1  0
 16 18  1  0
 18 19  1  0
 18 20  2  0
 12 21  1  0
 21 22  1  0
 22 23  2  0
  9  2  1  0
 20 13  1  0
 22  5  1  0
  1 24  1  0
  1 25  1  0
  1 26  1  0
  8 27  1  0
  8 28  1  0
  8 29  1  0
 10 30  1  0
 12 31  1  1
 14 32  1  0
 15 33  1  0
 20 34  1  0
 21 35  1  0
 21 36  1  0
M  CHG  3   4  -1  17  -1  19  -1
M  END
>  <UniqueID>  (15) 
15

>  <SMILES>  (15) 
Cc1c([O-])c2c(c(C)c1O)O[C@H](c1ccc([O-])c([O-])c1)CC2=O

>  <Energy>  (15) 
47.34496486054976

>  <Genealogy>  (15) 
Cc1c([O-])c2c(c(C)c1O)OC(c1ccc([O-])c([O-])c1)CC2=O (protonated)
Cc1c([O-])c2c(c(C)c1O)O[C@H](c1ccc([O-])c([O-])c1)CC2=O (chirality)
Cc1c([O-])c2c(c(C)c1O)O[C@H](c1ccc([O-])c([O-])c1)CC2=O (3D coordinates assigned)
Cc1c([O-])c2c(c(C)c1O)O[C@H](c1ccc([O-])c([O-])c1)CC2=O (nonaromatic ring conformer: 47.34496486054976 kcal/mol)

>  <smiles>  (15) 
Cc1c(O)c(C)c2c(c1O)C(=O)CC(c1ccc(O)c(O)c1)O2

>  <score_type>  (15) 
oracle

>  <origin>  (15) 
adgpu

>  <m_score__min__energy>  (15) 
-12.380000000000001

>  <m_primary>  (15) 
energy

$$$$
15:0
     RDKit          3D

 31 32  0  0  0  0  0  0  0  0999 V2000
   -3.5037   19.8031  -33.2384 H   0  0  0  0  0  0  0  0  0  0  0  0
   -4.5720   20.0330  -33.1120 C   0  0  0  0  0  0  0  0  0  0  0  0
   -4.9600   21.2720  -32.5910 C   0  0  0  0  0  0  0  0  0  0  0  0
   -4.1960   22.0091  -32.3029 H   0  0  0  0  0  0  0  0  0  0  0  0
   -6.3180   21.5770  -32.4350 C   0  0  0  0  0  0  0  0  0  0  0  0
   -6.7970   23.1340  -31.7670 S   0  0  0  0  0  0  0  0  0  0  0  0
   -7.7570   23.7960  -32.7130 O   0  0  0  0  0  0  0  0  0  0  0  0
   -7.4690   22.9540  -30.4340 O   0  0  0  0  0  0  0  0  0  0  0  0
   -5.4050   24.1500  -31.5670 N   0  0  0  0  0  0  0  0  0  0  0  0
   -4.5780   24.0600  -30.5710 C   0  0  0  0  0  0  0  0  0  0  0  0
   -3.4950   24.8500  -30.4340 N   0  0  0  0  0  0  0  0  0  0  0  0
   -2.7980   24.5420  -29.2940 C   0  0  0  0  0  0  0  0  0  0  0  0
   -1.5330   25.2530  -28.9470 C   0  0  0  0  0  0  0  0  0  0  0  0
   -1.4324   25.3095  -27.8531 H   0  0  0  0  0  0  0  0  0  0  0  0
   -0.6769   24.7039  -29.3661 H   0  0  0  0  0  0  0  0  0  0  0  0
   -1.5571   26.2698  -29.3661 H   0  0  0  0  0  0  0  0  0  0  0  0
   -3.2690   23.5210  -28.5240 N   0  0  0  0  0  0  0  0  0  0  0  0
   -4.6430   22.9920  -29.2960 S   0  0  0  0  0  0  0  0  0  0  0  0
   -7.2860   20.6410  -32.8210 C   0  0  0  0  0  0  0  0  0  0  0  0
   -8.3541   20.8805  -32.7128 H   0  0  0  0  0  0  0  0  0  0  0  0
   -6.8990   19.4040  -33.3430 C   0  0  0  0  0  0  0  0  0  0  0  0
   -7.6656   18.6785  -33.6529 H   0  0  0  0  0  0  0  0  0  0  0  0
   -5.5400   19.0800  -33.4750 C   0  0  0  0  0  0  0  0  0  0  0  0
   -5.1690   17.8080  -34.0330 N   0  0  0  0  0  0  0  0  0  0  0  0
   -4.4100   17.7900  -34.7530 H   0  0  0  0  0  0  0  0  0  0  0  0
   -5.8470   16.5750  -33.7510 C   0  0  0  0  0  0  0  0  0  0  0  0
   -6.9720   16.5740  -33.1810 O   0  0  0  0  0  0  0  0  0  0  0  0
   -5.2670   15.2820  -34.2230 C   0  0  0  0  0  0  0  0  0  0  0  0
   -4.9905   14.6656  -33.3549 H   0  0  0  0  0  0  0  0  0  0  0  0
   -6.0112   14.7465  -34.8308 H   0  0  0  0  0  0  0  0  0  0  0  0
   -4.3722   15.4817  -34.8308 H   0  0  0  0  0  0  0  0  0  0  0  0
  1  2  1  0
  2  3  2  0
  3  4  1  0
  3  5  1  0
  5  6  1  0
  6  7  2  0
  6  8  2  0
  6  9  1  0
  9 10  2  0
 10 11  1  0
 11 12  2  0
 12 13  1  0
 13 14  1  0
 13 15  1  0
 13 16  1  0
 12 17  1  0
 17 18  1  0
  5 19  2  0
 19 20  1  0
 19 21  1  0
 21 22  1  0
 21 23  2  0
 23 24  1  0
 24 25  1  0
 24 26  1  0
 26 27  2  0
 26 28  1  0
 28 29  1  0
 28 30  1  0
 28 31  1  0
 23  2  1  0
 18 10  1  0
M  CHG  1  17  -1
M  END
>  <UniqueID>  (16) 
16

>  <SMILES>  (16) 
CC(=O)Nc1ccc(S(=O)(=O)/N=c2/nc(C)[n-]s2)cc1

>  <Energy>  (16) 
72.01973573474062

>  <Genealogy>  (16) 
CC(=O)Nc1ccc(S(=O)(=O)N=c2nc(C)[n-]s2)cc1 (protonated)
CC(=O)Nc1ccc(S(=O)(=O)/N=c2/nc(C)[n-]s2)cc1 (cis-trans isomerization)
CC(=O)Nc1ccc(S(=O)(=O)/N=c2/nc(C)[n-]s2)cc1 (3D coordinates assigned)
CC(=O)Nc1ccc(S(=O)(=O)/N=c2/nc(C)[n-]s2)cc1 (optimized conformer: 72.01973573474062 kcal/mol)

>  <smiles>  (16) 
CC(=O)Nc1ccc(S(=O)(=O)N=c2nc(C)[nH]s2)cc1

>  <score_type>  (16) 
oracle

>  <origin>  (16) 
adgpu

>  <m_score__min__energy>  (16) 
-8.4000000000000004

>  <m_primary>  (16) 
energy

$$$$
16:0
     RDKit          3D

 48 50  0  0  0  0  0  0  0  0999 V2000
   -6.1980   23.9190  -31.7960 C   0  0  0  0  0  0  0  0  0  0  0  0
   -5.0150   23.1320  -30.7220 S   0  0  0  0  0  0  0  0  0  0  0  0
   -4.8100   21.7190  -31.1900 O   0  0  0  0  0  0  0  0  0  0  0  0
   -5.5280   23.1110  -29.3090 O   0  0  0  0  0  0  0  0  0  0  0  0
   -3.5000   23.9730  -30.7940 N   0  0  0  0  0  0  0  0  0  0  0  0
   -2.3330   23.5230  -30.0860 C   0  0  0  0  0  0  0  0  0  0  0  0
   -1.8160   22.2310  -30.2920 C   0  0  0  0  0  0  0  0  0  0  0  0
   -0.7080   21.7790  -29.5660 C   0  0  0  0  0  0  0  0  0  0  0  0
   -0.2440   20.4390  -29.7760 N   0  0  0  0  0  0  0  0  0  0  0  0
    0.1820   19.7870  -31.3250 S   0  0  0  0  0  0  0  0  0  0  0  0
    1.2580   18.7520  -31.1480 O   0  0  0  0  0  0  0  0  0  0  0  0
    0.6930   20.8880  -32.2080 O   0  0  0  0  0  0  0  0  0  0  0  0
   -1.2530   19.0820  -32.0600 C   0  0  0  0  0  0  0  0  0  0  0  0
   -2.3860   19.8650  -32.3130 C   0  0  0  0  0  0  0  0  0  0  0  0
   -3.4730   19.3180  -33.0020 C   0  0  0  0  0  0  0  0  0  0  0  0
   -3.4370   17.9930  -33.4510 C   0  0  0  0  0  0  0  0  0  0  0  0
   -4.5320   17.4970  -34.2310 N   0  0  0  0  0  0  0  0  0  0  0  0
   -6.0470   16.9710  -33.5680 S   0  0  0  0  0  0  0  0  0  0  0  0
   -5.7880   16.0480  -32.4100 O   0  0  0  0  0  0  0  0  0  0  0  0
   -6.8200   16.2310  -34.6220 O   0  0  0  0  0  0  0  0  0  0  0  0
   -6.9520   18.3690  -32.9900 C   0  0  0  0  0  0  0  0  0  0  0  0
   -6.6070   19.6660  -33.4030 C   0  0  0  0  0  0  0  0  0  0  0  0
   -7.3030   20.7710  -32.9030 C   0  0  0  0  0  0  0  0  0  0  0  0
   -8.3490   20.5880  -31.9930 C   0  0  0  0  0  0  0  0  0  0  0  0
   -9.2260   21.9780  -31.3780 Cl  0  0  0  0  0  0  0  0  0  0  0  0
   -8.7000   19.2970  -31.5840 C   0  0  0  0  0  0  0  0  0  0  0  0
   -8.0030   18.1910  -32.0810 C   0  0  0  0  0  0  0  0  0  0  0  0
   -2.3170   17.1990  -33.1530 C   0  0  0  0  0  0  0  0  0  0  0  0
   -1.2330   17.7430  -32.4650 C   0  0  0  0  0  0  0  0  0  0  0  0
   -0.0980   22.6390  -28.6360 C   0  0  0  0  0  0  0  0  0  0  0  0
   -0.5910   23.9320  -28.4430 C   0  0  0  0  0  0  0  0  0  0  0  0
   -1.6950   24.3800  -29.1710 C   0  0  0  0  0  0  0  0  0  0  0  0
   -2.1610   25.6760  -28.9690 O   0  0  0  0  0  0  0  0  0  0  0  0
   -6.9622   24.4274  -31.1898 H   0  0  0  0  0  0  0  0  0  0  0  0
   -5.6837   24.6556  -32.4308 H   0  0  0  0  0  0  0  0  0  0  0  0
   -6.6787   23.1600  -32.4308 H   0  0  0  0  0  0  0  0  0  0  0  0
   -3.5090   24.9310  -31.2120 H   0  0  0  0  0  0  0  0  0  0  0  0
   -2.2880   21.5683  -31.0323 H   0  0  0  0  0  0  0  0  0  0  0  0
   -2.4210   20.9096  -31.9700 H   0  0  0  0  0  0  0  0  0  0  0  0
   -4.3639   19.9344  -33.1927 H   0  0  0  0  0  0  0  0  0  0  0  0
   -5.7873   19.8131  -34.1216 H   0  0  0  0  0  0  0  0  0  0  0  0
   -7.0273   21.7857  -33.2260 H   0  0  0  0  0  0  0  0  0  0  0  0
   -9.5249   19.1517  -30.8709 H   0  0  0  0  0  0  0  0  0  0  0  0
   -8.2812   17.1773  -31.7569 H   0  0  0  0  0  0  0  0  0  0  0  0
   -2.2951   16.1440  -33.4636 H   0  0  0  0  0  0  0  0  0  0  0  0
   -0.3577   17.1162  -32.2395 H   0  0  0  0  0  0  0  0  0  0  0  0
    0.7712   22.2924  -28.0578 H   0  0  0  0  0  0  0  0  0  0  0  0
   -0.1075   24.5996  -27.7147 H   0  0  0  0  0  0  0  0  0  0  0  0
  1  2  1  0
  2  3  2  0
  2  4  2  0
  2  5  1  0
  5  6  1  0
  6  7  2  0
  7  8  1  0
  8  9  1  0
  9 10  1  0
 10 11  2  0
 10 12  2  0
 10 13  1  0
 13 14  2  0
 14 15  1  0
 15 16  2  0
 16 17  1  0
 17 18  1  0
 18 19  2  0
 18 20  2  0
 18 21  1  0
 21 22  2  0
 22 23  1  0
 23 24  2  0
 24 25  1  0
 24 26  1  0
 26 27  2  0
 16 28  1  0
 28 29  2  0
  8 30  2  0
 30 31  1  0
 31 32  2  0
 32 33  1  0
 32  6  1  0
 29 13  1  0
 27 21  1  0
  1 34  1  0
  1 35  1  0
  1 36  1  0
  5 37  1  0
  7 38  1  0
 14 39  1  0
 15 40  1  0
 22 41  1  0
 23 42  1  0
 26 43  1  0
 27 44  1  0
 28 45  1  0
 29 46  1  0
 30 47  1  0
 31 48  1  0
M  CHG  3   9  -1  17  -1  33  -1
M  END
>  <UniqueID>  (17) 
17

>  <SMILES>  (17) 
CS(=O)(=O)Nc1cc([N-]S(=O)(=O)c2ccc([N-]S(=O)(=O)c3ccc(Cl)cc3)cc2)ccc1[O-]

>  <Energy>  (17) 
53.42701520938621

>  <Genealogy>  (17) 
CS(=O)(=O)Nc1cc([N-]S(=O)(=O)c2ccc([N-]S(=O)(=O)c3ccc(Cl)cc3)cc2)ccc1[O-] (protonated)
CS(=O)(=O)Nc1cc([N-]S(=O)(=O)c2ccc([N-]S(=O)(=O)c3ccc(Cl)cc3)cc2)ccc1[O-] (3D coordinates assigned)
CS(=O)(=O)Nc1cc([N-]S(=O)(=O)c2ccc([N-]S(=O)(=O)c3ccc(Cl)cc3)cc2)ccc1[O-] (optimized conformer: 53.42701520938621 kcal/mol)

>  <smiles>  (17) 
CS(=O)(=O)Nc1cc(NS(=O)(=O)c2ccc(NS(=O)(=O)c3ccc(Cl)cc3)cc2)ccc1O

>  <score_type>  (17) 
oracle

>  <origin>  (17) 
adgpu

>  <m_score__min__energy>  (17) 
-13.43

>  <m_primary>  (17) 
energy

$$$$
17:0
     RDKit          3D

 61 64  0  0  0  0  0  0  0  0999 V2000
   -0.4070   26.0710  -24.0940 C   0  0  0  0  0  0  0  0  0  0  0  0
   -0.7240   25.6000  -25.4870 C   0  0  0  0  0  0  0  0  0  0  0  0
   -1.0030   24.2360  -25.6720 C   0  0  0  0  0  0  0  0  0  0  0  0
   -1.3160   23.7320  -26.9310 C   0  0  0  0  0  0  0  0  0  0  0  0
   -1.3520   24.5790  -28.0460 C   0  0  0  0  0  0  0  0  0  0  0  0
   -1.7430   24.0810  -29.3380 N   0  0  0  0  0  0  0  0  0  0  0  0
   -3.0420   23.5330  -29.6230 C   0  0  0  0  0  0  0  0  0  0  0  0
   -3.7920   23.1610  -28.6830 O   0  0  0  0  0  0  0  0  0  0  0  0
   -3.5300   23.4540  -30.9670 N   0  0  0  0  0  0  0  0  0  0  0  0
   -3.4570   22.2940  -31.8040 C   0  0  0  0  0  0  0  0  0  0  0  0
   -2.2510   21.9140  -32.4170 C   0  0  0  0  0  0  0  0  0  0  0  0
   -2.2000   20.7650  -33.2130 C   0  0  0  0  0  0  0  0  0  0  0  0
   -3.3470   19.9850  -33.3950 C   0  0  0  0  0  0  0  0  0  0  0  0
   -4.5510   20.3420  -32.7660 C   0  0  0  0  0  0  0  0  0  0  0  0
   -6.0060   19.3690  -33.0010 S   0  0  0  0  0  0  0  0  0  0  0  0
   -6.4600   19.5000  -34.4280 O   0  0  0  0  0  0  0  0  0  0  0  0
   -5.6760   17.9250  -32.7500 O   0  0  0  0  0  0  0  0  0  0  0  0
   -7.3020   19.8730  -31.9410 N   0  0  0  0  0  0  0  0  0  0  0  0
   -8.4740   18.9630  -32.0320 C   0  0  0  0  0  0  0  0  0  0  0  0
   -9.6270   19.5570  -32.8570 C   0  0  0  0  0  0  0  0  0  0  0  0
  -10.1020   20.8980  -32.2660 C   0  0  0  0  0  0  0  0  0  0  0  0
   -8.9740   21.6700  -31.5570 C   0  0  0  0  0  0  0  0  0  0  0  0
   -7.6070   21.3080  -32.1420 C   0  0  0  0  0  0  0  0  0  0  0  0
   -4.5940   21.4930  -31.9620 C   0  0  0  0  0  0  0  0  0  0  0  0
   -1.0970   25.9520  -27.8770 C   0  0  0  0  0  0  0  0  0  0  0  0
   -1.1510   26.7920  -28.9900 O   0  0  0  0  0  0  0  0  0  0  0  0
   -0.7850   26.4800  -26.6050 C   0  0  0  0  0  0  0  0  0  0  0  0
   -0.5020   28.2370  -26.4860 S   0  0  0  0  0  0  0  0  0  0  0  0
   -0.8630   28.8690  -27.8010 O   0  0  0  0  0  0  0  0  0  0  0  0
   -1.3420   28.8840  -25.4230 O   0  0  0  0  0  0  0  0  0  0  0  0
    1.2350   28.5410  -26.1440 C   0  0  0  0  0  0  0  0  0  0  0  0
    1.5530   28.5710  -24.6520 C   0  0  0  0  0  0  0  0  0  0  0  0
    2.4020   27.3130  -24.8120 C   0  0  0  0  0  0  0  0  0  0  0  0
    2.1070   27.3000  -26.3060 C   0  0  0  0  0  0  0  0  0  0  0  0
   -0.8660   25.3891  -23.3630 H   0  0  0  0  0  0  0  0  0  0  0  0
    0.6835   26.0827  -23.9502 H   0  0  0  0  0  0  0  0  0  0  0  0
   -0.8067   27.0857  -23.9502 H   0  0  0  0  0  0  0  0  0  0  0  0
   -0.9737   23.5554  -24.8083 H   0  0  0  0  0  0  0  0  0  0  0  0
   -1.5366   22.6611  -27.0512 H   0  0  0  0  0  0  0  0  0  0  0  0
   -1.0420   24.1450  -30.1090 H   0  0  0  0  0  0  0  0  0  0  0  0
   -1.3455   22.5212  -32.2706 H   0  0  0  0  0  0  0  0  0  0  0  0
   -1.2560   20.4741  -33.6969 H   0  0  0  0  0  0  0  0  0  0  0  0
   -3.3058   19.0895  -34.0325 H   0  0  0  0  0  0  0  0  0  0  0  0
   -8.1528   18.0224  -32.5033 H   0  0  0  0  0  0  0  0  0  0  0  0
   -8.8474   18.8008  -31.0101 H   0  0  0  0  0  0  0  0  0  0  0  0
   -9.2824   19.7216  -33.8886 H   0  0  0  0  0  0  0  0  0  0  0  0
  -10.4694   18.8500  -32.8375 H   0  0  0  0  0  0  0  0  0  0  0  0
  -10.4960   21.5218  -33.0818 H   0  0  0  0  0  0  0  0  0  0  0  0
  -10.8736   20.6742  -31.5146 H   0  0  0  0  0  0  0  0  0  0  0  0
   -9.1438   22.7496  -31.6819 H   0  0  0  0  0  0  0  0  0  0  0  0
   -8.9810   21.3985  -30.4911 H   0  0  0  0  0  0  0  0  0  0  0  0
   -7.6085   21.5270  -33.2200 H   0  0  0  0  0  0  0  0  0  0  0  0
   -6.8387   21.9031  -31.6266 H   0  0  0  0  0  0  0  0  0  0  0  0
   -5.5293   21.7673  -31.4521 H   0  0  0  0  0  0  0  0  0  0  0  0
    1.4071   29.4280  -26.7714 H   0  0  0  0  0  0  0  0  0  0  0  0
    2.1191   29.4577  -24.3306 H   0  0  0  0  0  0  0  0  0  0  0  0
    0.7425   28.6066  -23.9092 H   0  0  0  0  0  0  0  0  0  0  0  0
    3.4647   27.4547  -24.5658 H   0  0  0  0  0  0  0  0  0  0  0  0
    2.1985   26.4235  -24.1977 H   0  0  0  0  0  0  0  0  0  0  0  0
    2.9927   27.4531  -26.9401 H   0  0  0  0  0  0  0  0  0  0  0  0
    1.7051   26.3958  -26.7865 H   0  0  0  0  0  0  0  0  0  0  0  0
  1  2  1  0
  2  3  2  0
  3  4  1  0
  4  5  2  0
  5  6  1  0
  6  7  1  0
  7  8  2  0
  7  9  1  0
  9 10  1  0
 10 11  2  0
 11 12  1  0
 12 13  2  0
 13 14  1  0
 14 15  1  0
 15 16  2  0
 15 17  2  0
 15 18  1  0
 18 19  1  0
 19 20  1  0
 20 21  1  0
 21 22  1  0
 22 23  1  0
 14 24  2  0
  5 25  1  0
 25 26  1  0
 25 27  2  0
 27 28  1  0
 28 29  2  0
 28 30  2  0
 28 31  1  0
 31 32  1  0
 32 33  1  0
 33 34  1  0
 27  2  1  0
 34 31  1  0
 24 10  1  0
 23 18  1  0
  1 35  1  0
  1 36  1  0
  1 37  1  0
  3 38  1  0
  4 39  1  0
  6 40  1  0
 11 41  1  0
 12 42  1  0
 13 43  1  0
 19 44  1  0
 19 45  1  0
 20 46  1  0
 20 47  1  0
 21 48  1  0
 21 49  1  0
 22 50  1  0
 22 51  1  0
 23 52  1  0
 23 53  1  0
 24 54  1  0
 31 55  1  0
 32 56  1  0
 32 57  1  0
 33 58  1  0
 33 59  1  0
 34 60  1  0
 34 61  1  0
M  CHG  2   9  -1  26  -1
M  END
>  <UniqueID>  (18) 
18

>  <SMILES>  (18) 
Cc1ccc(NC(=O)[N-]c2cccc(S(=O)(=O)N3CCCCC3)c2)c([O-])c1S(=O)(=O)C1CCC1

>  <Energy>  (18) 
139.0121067259719

>  <Genealogy>  (18) 
Cc1ccc(NC(=O)[N-]c2cccc(S(=O)(=O)N3CCCCC3)c2)c([O-])c1S(=O)(=O)C1CCC1 (protonated)
Cc1ccc(NC(=O)[N-]c2cccc(S(=O)(=O)N3CCCCC3)c2)c([O-])c1S(=O)(=O)C1CCC1 (3D coordinates assigned)
Cc1ccc(NC(=O)[N-]c2cccc(S(=O)(=O)N3CCCCC3)c2)c([O-])c1S(=O)(=O)C1CCC1 (nonaromatic ring conformer: 139.0121067259719 kcal/mol)

>  <smiles>  (18) 
Cc1ccc(NC(=O)Nc2cccc(S(=O)(=O)N3CCCCC3)c2)c(O)c1S(=O)(=O)C1CCC1

>  <score_type>  (18) 
oracle

>  <origin>  (18) 
adgpu

>  <m_score__min__energy>  (18) 
-15.41

>  <m_primary>  (18) 
energy

$$$$
18:0
     RDKit          3D

 37 39  0  0  0  0  0  0  0  0999 V2000
   -3.7270   15.6810  -35.0360 C   0  0  0  0  0  0  0  0  0  0  0  0
   -4.6440   16.6810  -34.3970 C   0  0  0  0  0  0  0  0  0  0  0  0
   -5.0860   16.4930  -33.0790 C   0  0  0  0  0  0  0  0  0  0  0  0
   -5.9100   17.4420  -32.4690 C   0  0  0  0  0  0  0  0  0  0  0  0
   -6.2980   18.6030  -33.1620 C   0  0  0  0  0  0  0  0  0  0  0  0
   -7.1730   19.6130  -32.5150 C   0  0  0  0  0  0  0  0  0  0  0  0
   -8.2860   19.2120  -31.7530 C   0  0  0  0  0  0  0  0  0  0  0  0
   -9.1110   20.1640  -31.1500 C   0  0  0  0  0  0  0  0  0  0  0  0
   -8.8370   21.5250  -31.2960 C   0  0  0  0  0  0  0  0  0  0  0  0
   -7.7280   21.9470  -32.0440 C   0  0  0  0  0  0  0  0  0  0  0  0
   -7.4540   23.4140  -32.2380 C   0  0  0  0  0  0  0  0  0  0  0  0
   -6.2030   23.8160  -31.4970 C   0  0  0  0  0  0  0  0  0  0  0  0
   -4.9640   23.2750  -31.8590 C   0  0  0  0  0  0  0  0  0  0  0  0
   -3.8350   23.6630  -31.2160 N   0  0  0  0  0  0  0  0  0  0  0  0
   -3.8770   24.5820  -30.2190 C   0  0  0  0  0  0  0  0  0  0  0  0
   -2.8130   24.9240  -29.6370 O   0  0  0  0  0  0  0  0  0  0  0  0
   -5.0650   25.1340  -29.8510 N   0  0  0  0  0  0  0  0  0  0  0  0
   -6.2240   24.7770  -30.4690 C   0  0  0  0  0  0  0  0  0  0  0  0
   -7.3090   25.3100  -30.1130 O   0  0  0  0  0  0  0  0  0  0  0  0
   -6.9030   20.9870  -32.6560 C   0  0  0  0  0  0  0  0  0  0  0  0
   -5.8380   18.7940  -34.4780 C   0  0  0  0  0  0  0  0  0  0  0  0
   -5.0130   17.8440  -35.0860 C   0  0  0  0  0  0  0  0  0  0  0  0
   -3.2042   15.1108  -34.2540 H   0  0  0  0  0  0  0  0  0  0  0  0
   -4.3141   14.9923  -35.6613 H   0  0  0  0  0  0  0  0  0  0  0  0
   -2.9902   16.2064  -35.6613 H   0  0  0  0  0  0  0  0  0  0  0  0
   -4.7822   15.5938  -32.5230 H   0  0  0  0  0  0  0  0  0  0  0  0
   -6.2583   17.2800  -31.4382 H   0  0  0  0  0  0  0  0  0  0  0  0
   -8.5077   18.1415  -31.6315 H   0  0  0  0  0  0  0  0  0  0  0  0
   -9.9797   19.8402  -30.5580 H   0  0  0  0  0  0  0  0  0  0  0  0
   -9.4936   22.2697  -30.8224 H   0  0  0  0  0  0  0  0  0  0  0  0
   -7.3223   23.6197  -33.3105 H   0  0  0  0  0  0  0  0  0  0  0  0
   -8.3036   23.9915  -31.8448 H   0  0  0  0  0  0  0  0  0  0  0  0
   -4.9059   22.5322  -32.6682 H   0  0  0  0  0  0  0  0  0  0  0  0
   -5.0880   25.8460  -29.0830 H   0  0  0  0  0  0  0  0  0  0  0  0
   -6.0374   21.3133  -33.2513 H   0  0  0  0  0  0  0  0  0  0  0  0
   -6.1300   19.6981  -35.0324 H   0  0  0  0  0  0  0  0  0  0  0  0
   -4.6512   18.0101  -36.1114 H   0  0  0  0  0  0  0  0  0  0  0  0
  1  2  1  0
  2  3  2  0
  3  4  1  0
  4  5  2  0
  5  6  1  0
  6  7  2  0
  7  8  1  0
  8  9  2  0
  9 10  1  0
 10 11  1  0
 11 12  1  0
 12 13  2  0
 13 14  1  0
 14 15  1  0
 15 16  2  0
 15 17  1  0
 17 18  1  0
 18 19  2  0
 10 20  2  0
  5 21  1  0
 21 22  2  0
 22  2  1  0
 20  6  1  0
 18 12  1  0
  1 23  1  0
  1 24  1  0
  1 25  1  0
  3 26  1  0
  4 27  1  0
  7 28  1  0
  8 29  1  0
  9 30  1  0
 11 31  1  0
 11 32  1  0
 13 33  1  0
 17 34  1  0
 20 35  1  0
 21 36  1  0
 22 37  1  0
M  CHG  1  14  -1
M  END
>  <UniqueID>  (19) 
19

>  <SMILES>  (19) 
Cc1ccc(-c2cccc(Cc3c[n-]c(=O)[nH]c3=O)c2)cc1

>  <Energy>  (19) 
44.61633956786671

>  <Genealogy>  (19) 
Cc1ccc(-c2cccc(Cc3c[n-]c(=O)[nH]c3=O)c2)cc1 (protonated)
Cc1ccc(-c2cccc(Cc3c[n-]c(=O)[nH]c3=O)c2)cc1 (3D coordinates assigned)
Cc1ccc(-c2cccc(Cc3c[n-]c(=O)[nH]c3=O)c2)cc1 (optimized conformer: 44.61633956786671 kcal/mol)

>  <smiles>  (19) 
Cc1ccc(-c2cccc(Cc3c[nH]c(=O)[nH]c3=O)c2)cc1

>  <score_type>  (19) 
oracle

>  <origin>  (19) 
adgpu

>  <m_score__min__energy>  (19) 
-10.52

>  <m_primary>  (19) 
energy

$$$$
19:0
     RDKit          3D

 59 62  0  0  0  0  0  0  0  0999 V2000
   -0.4900   21.3550  -31.4080 C   0  0  0  0  0  0  0  0  0  0  0  0
   -0.1660   21.3370  -30.0210 O   0  0  0  0  0  0  0  0  0  0  0  0
   -0.9620   20.7480  -29.0250 C   0  0  0  0  0  0  0  0  0  0  0  0
   -0.7990   19.4020  -28.6400 C   0  0  0  0  0  0  0  0  0  0  0  0
   -1.5870   18.8590  -27.6210 C   0  0  0  0  0  0  0  0  0  0  0  0
   -2.5390   19.6490  -26.9750 C   0  0  0  0  0  0  0  0  0  0  0  0
   -2.7130   20.9820  -27.3510 C   0  0  0  0  0  0  0  0  0  0  0  0
   -1.9380   21.5330  -28.3810 C   0  0  0  0  0  0  0  0  0  0  0  0
   -2.1200   22.9550  -28.7420 C   0  0  0  0  0  0  0  0  0  0  0  0
   -1.2530   24.0020  -28.4150 C   0  0  0  0  0  0  0  0  0  0  0  0
    0.0380   23.8870  -27.6860 C   0  0  0  0  0  0  0  0  0  0  0  0
    1.0270   24.5610  -28.0820 O   0  0  0  0  0  0  0  0  0  0  0  0
    0.2350   22.9730  -26.5000 C   0  0  0  0  0  0  0  0  0  0  0  0
    0.0290   23.6720  -25.1370 C   0  0  0  0  0  0  0  0  0  0  0  0
   -0.3890   22.6820  -24.0430 C   0  0  0  0  0  0  0  0  0  0  0  0
   -0.9590   24.8430  -25.2230 C   0  0  0  0  0  0  0  0  0  0  0  0
   -1.8250   25.1350  -28.9800 C   0  0  0  0  0  0  0  0  0  0  0  0
   -1.3340   26.4340  -28.9530 O   0  0  0  0  0  0  0  0  0  0  0  0
   -2.9820   24.7460  -29.6080 C   0  0  0  0  0  0  0  0  0  0  0  0
   -3.8540   25.6110  -30.2680 O   0  0  0  0  0  0  0  0  0  0  0  0
   -3.1650   23.4170  -29.4740 N   0  0  0  0  0  0  0  0  0  0  0  0
   -4.2570   22.6410  -29.9940 C   0  0  0  0  0  0  0  0  0  0  0  0
   -4.0080   21.5010  -30.7700 C   0  0  0  0  0  0  0  0  0  0  0  0
   -5.0680   20.7650  -31.3040 C   0  0  0  0  0  0  0  0  0  0  0  0
   -6.3990   21.1560  -31.0690 C   0  0  0  0  0  0  0  0  0  0  0  0
   -7.5280   20.3770  -31.6400 C   0  0  0  0  0  0  0  0  0  0  0  0
   -7.4090   18.9890  -31.8420 C   0  0  0  0  0  0  0  0  0  0  0  0
   -8.4730   18.2580  -32.3790 C   0  0  0  0  0  0  0  0  0  0  0  0
   -9.6640   18.9020  -32.7200 C   0  0  0  0  0  0  0  0  0  0  0  0
   -9.7940   20.2780  -32.5250 C   0  0  0  0  0  0  0  0  0  0  0  0
   -8.7340   21.0150  -31.9880 C   0  0  0  0  0  0  0  0  0  0  0  0
   -6.6420   22.3010  -30.2880 C   0  0  0  0  0  0  0  0  0  0  0  0
   -5.5800   23.0370  -29.7580 C   0  0  0  0  0  0  0  0  0  0  0  0
   -1.5817   21.4156  -31.5288 H   0  0  0  0  0  0  0  0  0  0  0  0
   -0.0194   22.2284  -31.8832 H   0  0  0  0  0  0  0  0  0  0  0  0
   -0.1191   20.4349  -31.8832 H   0  0  0  0  0  0  0  0  0  0  0  0
   -0.0480   18.7757  -29.1438 H   0  0  0  0  0  0  0  0  0  0  0  0
   -1.4564   17.8069  -27.3277 H   0  0  0  0  0  0  0  0  0  0  0  0
   -3.1528   19.2208  -26.1688 H   0  0  0  0  0  0  0  0  0  0  0  0
   -3.4615   21.6028  -26.8368 H   0  0  0  0  0  0  0  0  0  0  0  0
   -0.4836   22.1437  -26.5773 H   0  0  0  0  0  0  0  0  0  0  0  0
    1.2789   22.6274  -26.5299 H   0  0  0  0  0  0  0  0  0  0  0  0
    1.0071   24.0901  -24.8566 H   0  0  0  0  0  0  0  0  0  0  0  0
   -0.2012   23.1269  -23.0547 H   0  0  0  0  0  0  0  0  0  0  0  0
   -1.4603   22.4538  -24.1448 H   0  0  0  0  0  0  0  0  0  0  0  0
    0.1946   21.7551  -24.1448 H   0  0  0  0  0  0  0  0  0  0  0  0
   -1.2326   25.1672  -24.2081 H   0  0  0  0  0  0  0  0  0  0  0  0
   -0.4899   25.6798  -25.7613 H   0  0  0  0  0  0  0  0  0  0  0  0
   -1.8628   24.5214  -25.7613 H   0  0  0  0  0  0  0  0  0  0  0  0
   -3.8680   26.6050  -30.0750 H   0  0  0  0  0  0  0  0  0  0  0  0
   -2.9718   21.1841  -30.9596 H   0  0  0  0  0  0  0  0  0  0  0  0
   -4.8607   19.8727  -31.9130 H   0  0  0  0  0  0  0  0  0  0  0  0
   -6.4730   18.4762  -31.5757 H   0  0  0  0  0  0  0  0  0  0  0  0
   -8.3716   17.1736  -32.5331 H   0  0  0  0  0  0  0  0  0  0  0  0
  -10.4999   18.3250  -33.1423 H   0  0  0  0  0  0  0  0  0  0  0  0
  -10.7328   20.7839  -32.7945 H   0  0  0  0  0  0  0  0  0  0  0  0
   -8.8429   22.0991  -31.8366 H   0  0  0  0  0  0  0  0  0  0  0  0
   -7.6769   22.6190  -30.0933 H   0  0  0  0  0  0  0  0  0  0  0  0
   -5.7833   23.9323  -29.1521 H   0  0  0  0  0  0  0  0  0  0  0  0
  1  2  1  0
  2  3  1  0
  3  4  2  0
  4  5  1  0
  5  6  2  0
  6  7  1  0
  7  8  2  0
  8  9  1  0
  9 10  2  0
 10 11  1  0
 11 12  2  0
 11 13  1  0
 13 14  1  0
 14 15  1  0
 14 16  1  0
 10 17  1  0
 17 18  1  0
 17 19  2  0
 19 20  1  0
 19 21  1  0
 21 22  1  0
 22 23  2  0
 23 24  1  0
 24 25  2  0
 25 26  1  0
 26 27  2  0
 27 28  1  0
 28 29  2  0
 29 30  1  0
 30 31  2  0
 25 32  1  0
 32 33  2  0
  8  3  1  0
 21  9  1  0
 33 22  1  0
 31 26  1  0
  1 34  1  0
  1 35  1  0
  1 36  1  0
  4 37  1  0
  5 38  1  0
  6 39  1  0
  7 40  1  0
 13 41  1  0
 13 42  1  0
 14 43  1  0
 15 44  1  0
 15 45  1  0
 15 46  1  0
 16 47  1  0
 16 48  1  0
 16 49  1  0
 20 50  1  0
 23 51  1  0
 24 52  1  0
 27 53  1  0
 28 54  1  0
 29 55  1  0
 30 56  1  0
 31 57  1  0
 32 58  1  0
 33 59  1  0
M  CHG  1  18  -1
M  END
>  <UniqueID>  (20) 
20

>  <SMILES>  (20) 
COc1ccccc1-c1c(C(=O)CC(C)C)c([O-])c(O)n1-c1ccc(-c2ccccc2)cc1

>  <Energy>  (20) 
103.76289416362327

>  <Genealogy>  (20) 
COc1ccccc1-c1c(C(=O)CC(C)C)c([O-])c(O)n1-c1ccc(-c2ccccc2)cc1 (protonated)
COc1ccccc1-c1c(C(=O)CC(C)C)c([O-])c(O)n1-c1ccc(-c2ccccc2)cc1 (3D coordinates assigned)
COc1ccccc1-c1c(C(=O)CC(C)C)c([O-])c(O)n1-c1ccc(-c2ccccc2)cc1 (optimized conformer: 103.76289416362327 kcal/mol)

>  <smiles>  (20) 
COc1ccccc1-c1c(C(=O)CC(C)C)c(O)c(O)n1-c1ccc(-c2ccccc2)cc1

>  <score_type>  (20) 
oracle

>  <origin>  (20) 
adgpu

>  <m_score__min__energy>  (20) 
-12.9

>  <m_primary>  (20) 
energy

$$$$
20:0
     RDKit          3D

 49 52  0  0  0  0  0  0  0  0999 V2000
   -9.1160   18.7140  -32.2280 N   0  0  0  0  0  0  0  0  0  0  0  0
   -7.8850   19.3840  -32.5430 C   0  0  0  0  0  0  0  0  0  0  0  0
   -7.7830   20.7840  -32.3690 C   0  0  0  0  0  0  0  0  0  0  0  0
   -9.1050   21.7340  -31.6740 S   0  0  0  0  0  0  0  0  0  0  0  0
   -9.0660   21.6350  -30.1760 O   0  0  0  0  0  0  0  0  0  0  0  0
   -8.9820   23.1720  -32.0910 O   0  0  0  0  0  0  0  0  0  0  0  0
  -10.5840   21.1590  -32.2280 O   0  0  0  0  0  0  0  0  0  0  0  0
   -6.5990   21.4450  -32.7070 C   0  0  0  0  0  0  0  0  0  0  0  0
   -5.4880   20.7430  -33.1780 C   0  0  0  0  0  0  0  0  0  0  0  0
   -4.2860   21.4650  -33.4870 N   0  0  0  0  0  0  0  0  0  0  0  0
   -3.1030   21.4090  -32.6720 C   0  0  0  0  0  0  0  0  0  0  0  0
   -1.8500   21.2530  -33.2830 C   0  0  0  0  0  0  0  0  0  0  0  0
   -0.6850   21.2170  -32.5110 C   0  0  0  0  0  0  0  0  0  0  0  0
   -0.7600   21.3490  -31.1220 C   0  0  0  0  0  0  0  0  0  0  0  0
   -2.0020   21.5230  -30.4980 C   0  0  0  0  0  0  0  0  0  0  0  0
   -2.0970   21.6780  -28.7460 S   0  0  0  0  0  0  0  0  0  0  0  0
   -0.7310   21.9450  -28.1790 O   0  0  0  0  0  0  0  0  0  0  0  0
   -2.6010   20.3840  -28.1740 O   0  0  0  0  0  0  0  0  0  0  0  0
   -3.1690   22.9560  -28.2750 N   0  0  0  0  0  0  0  0  0  0  0  0
   -4.1350   23.5330  -29.1580 C   0  0  0  0  0  0  0  0  0  0  0  0
   -5.4180   22.9760  -29.2860 C   0  0  0  0  0  0  0  0  0  0  0  0
   -6.3590   23.5680  -30.1340 C   0  0  0  0  0  0  0  0  0  0  0  0
   -6.0300   24.7220  -30.8490 C   0  0  0  0  0  0  0  0  0  0  0  0
   -4.7620   25.2930  -30.7080 C   0  0  0  0  0  0  0  0  0  0  0  0
   -3.8180   24.7070  -29.8580 C   0  0  0  0  0  0  0  0  0  0  0  0
   -2.5630   25.2890  -29.7190 O   0  0  0  0  0  0  0  0  0  0  0  0
   -3.1700   21.5500  -31.2730 C   0  0  0  0  0  0  0  0  0  0  0  0
   -5.5560   19.3430  -33.3320 C   0  0  0  0  0  0  0  0  0  0  0  0
   -4.4490   18.6180  -33.8210 C   0  0  0  0  0  0  0  0  0  0  0  0
   -4.5330   17.2410  -34.0140 C   0  0  0  0  0  0  0  0  0  0  0  0
   -5.7190   16.5670  -33.7390 C   0  0  0  0  0  0  0  0  0  0  0  0
   -6.8290   17.2640  -33.2590 C   0  0  0  0  0  0  0  0  0  0  0  0
   -6.7660   18.6580  -33.0300 C   0  0  0  0  0  0  0  0  0  0  0  0
  -10.0120   19.2360  -32.1160 H   0  0  0  0  0  0  0  0  0  0  0  0
   -9.1660   17.6740  -32.1680 H   0  0  0  0  0  0  0  0  0  0  0  0
   -6.5414   22.5383  -32.6000 H   0  0  0  0  0  0  0  0  0  0  0  0
   -4.2830   22.0660  -34.3420 H   0  0  0  0  0  0  0  0  0  0  0  0
   -1.7836   21.1584  -34.3769 H   0  0  0  0  0  0  0  0  0  0  0  0
    0.2924   21.0845  -32.9979 H   0  0  0  0  0  0  0  0  0  0  0  0
    0.1582   21.3162  -30.5172 H   0  0  0  0  0  0  0  0  0  0  0  0
   -5.6831   22.0721  -28.7179 H   0  0  0  0  0  0  0  0  0  0  0  0
   -7.3601   23.1242  -30.2383 H   0  0  0  0  0  0  0  0  0  0  0  0
   -6.7684   25.1812  -31.5227 H   0  0  0  0  0  0  0  0  0  0  0  0
   -4.5058   26.2053  -31.2667 H   0  0  0  0  0  0  0  0  0  0  0  0
   -4.1464   21.6824  -30.7840 H   0  0  0  0  0  0  0  0  0  0  0  0
   -3.5113   19.1447  -34.0519 H   0  0  0  0  0  0  0  0  0  0  0  0
   -3.6594   16.6848  -34.3848 H   0  0  0  0  0  0  0  0  0  0  0  0
   -5.7820   15.4807  -33.9005 H   0  0  0  0  0  0  0  0  0  0  0  0
   -7.7645   16.7221  -33.0563 H   0  0  0  0  0  0  0  0  0  0  0  0
  1  2  1  0
  2  3  2  0
  3  4  1  0
  4  5  2  0
  4  6  2  0
  4  7  1  0
  3  8  1  0
  8  9  2  0
  9 10  1  0
 10 11  1  0
 11 12  2  0
 12 13  1  0
 13 14  2  0
 14 15  1  0
 15 16  1  0
 16 17  2  0
 16 18  2  0
 16 19  1  0
 19 20  1  0
 20 21  2  0
 21 22  1  0
 22 23  2  0
 23 24  1  0
 24 25  2  0
 25 26  1  0
 15 27  2  0
  9 28  1  0
 28 29  2  0
 29 30  1  0
 30 31  2  0
 31 32  1  0
 32 33  2  0
 33  2  1  0
 27 11  1  0
 33 28  1  0
 25 20  1  0
  1 34  1  0
  1 35  1  0
  8 36  1  0
 10 37  1  0
 12 38  1  0
 13 39  1  0
 14 40  1  0
 21 41  1  0
 22 42  1  0
 23 43  1  0
 24 44  1  0
 27 45  1  0
 29 46  1  0
 30 47  1  0
 31 48  1  0
 32 49  1  0
M  CHG  3   7  -1  19  -1  26  -1
M  END
>  <UniqueID>  (21) 
21

>  <SMILES>  (21) 
Nc1c(S(=O)(=O)[O-])cc(Nc2cccc(S(=O)(=O)[N-]c3ccccc3[O-])c2)c2ccccc12

>  <Energy>  (21) 
78.30419917116564

>  <Genealogy>  (21) 
Nc1c(S(=O)(=O)[O-])cc(Nc2cccc(S(=O)(=O)[N-]c3ccccc3[O-])c2)c2ccccc12 (protonated)
Nc1c(S(=O)(=O)[O-])cc(Nc2cccc(S(=O)(=O)[N-]c3ccccc3[O-])c2)c2ccccc12 (3D coordinates assigned)
Nc1c(S(=O)(=O)[O-])cc(Nc2cccc(S(=O)(=O)[N-]c3ccccc3[O-])c2)c2ccccc12 (optimized conformer: 78.30419917116564 kcal/mol)

>  <smiles>  (21) 
Nc1c(S(=O)(=O)O)cc(Nc2cccc(S(=O)(=O)Nc3ccccc3O)c2)c2ccccc12

>  <score_type>  (21) 
oracle

>  <origin>  (21) 
adgpu

>  <m_score__min__energy>  (21) 
-14.69

>  <m_primary>  (21) 
energy

$$$$
21:0
     RDKit          3D

 55 57  0  0  0  0  0  0  0  0999 V2000
   -9.1060   18.6490  -32.0550 C   0  0  0  0  0  0  0  0  0  0  0  0
   -8.6910   19.8870  -32.6250 O   0  0  0  0  0  0  0  0  0  0  0  0
   -7.9940   20.8880  -31.9300 C   0  0  0  0  0  0  0  0  0  0  0  0
   -8.5500   21.5520  -30.8200 C   0  0  0  0  0  0  0  0  0  0  0  0
   -7.8270   22.5420  -30.1550 C   0  0  0  0  0  0  0  0  0  0  0  0
   -6.5420   22.8940  -30.5900 C   0  0  0  0  0  0  0  0  0  0  0  0
   -5.7510   23.9290  -29.8360 C   0  0  0  0  0  0  0  0  0  0  0  0
   -5.2720   25.0320  -30.7870 C   0  0  0  0  0  0  0  0  0  0  0  0
   -3.8360   25.2620  -30.6480 N   0  0  0  0  0  0  0  0  0  0  0  0
   -2.9610   24.6070  -29.7150 C   0  0  0  0  0  0  0  0  0  0  0  0
   -2.3900   25.2990  -28.8320 O   0  0  0  0  0  0  0  0  0  0  0  0
   -2.7460   23.1460  -29.7280 C   0  0  0  0  0  0  0  0  0  0  0  0
   -2.8670   22.4350  -30.9310 C   0  0  0  0  0  0  0  0  0  0  0  0
   -2.6250   21.0600  -30.9650 C   0  0  0  0  0  0  0  0  0  0  0  0
   -2.2680   20.3820  -29.7960 C   0  0  0  0  0  0  0  0  0  0  0  0
   -2.1720   21.0750  -28.5820 C   0  0  0  0  0  0  0  0  0  0  0  0
   -1.7140   20.2220  -27.1070 S   0  0  0  0  0  0  0  0  0  0  0  0
   -1.6100   21.2110  -25.9800 O   0  0  0  0  0  0  0  0  0  0  0  0
   -2.7880   19.2300  -26.7560 O   0  0  0  0  0  0  0  0  0  0  0  0
   -0.1900   19.3880  -27.2840 N   0  0  0  0  0  0  0  0  0  0  0  0
    0.5990   19.9810  -28.3740 C   0  0  0  0  0  0  0  0  0  0  0  0
    1.9460   19.2410  -28.5100 C   0  0  0  0  0  0  0  0  0  0  0  0
    2.0210   18.1020  -27.6700 O   0  0  0  0  0  0  0  0  0  0  0  0
    0.9120   17.2560  -27.9080 C   0  0  0  0  0  0  0  0  0  0  0  0
   -0.4130   17.9550  -27.5390 C   0  0  0  0  0  0  0  0  0  0  0  0
   -2.4290   22.4530  -28.5490 C   0  0  0  0  0  0  0  0  0  0  0  0
   -5.9780   22.2260  -31.6860 C   0  0  0  0  0  0  0  0  0  0  0  0
   -6.7020   21.2250  -32.3640 C   0  0  0  0  0  0  0  0  0  0  0  0
   -6.1710   20.5420  -33.4690 O   0  0  0  0  0  0  0  0  0  0  0  0
   -5.8390   19.1570  -33.4800 C   0  0  0  0  0  0  0  0  0  0  0  0
   -9.0809   18.7238  -30.9578 H   0  0  0  0  0  0  0  0  0  0  0  0
  -10.1303   18.4191  -32.3835 H   0  0  0  0  0  0  0  0  0  0  0  0
   -8.4272   17.8482  -32.3835 H   0  0  0  0  0  0  0  0  0  0  0  0
   -9.5607   21.2884  -30.4752 H   0  0  0  0  0  0  0  0  0  0  0  0
   -8.2677   23.0494  -29.2842 H   0  0  0  0  0  0  0  0  0  0  0  0
   -6.3865   24.3736  -29.0559 H   0  0  0  0  0  0  0  0  0  0  0  0
   -4.8746   23.4458  -29.3793 H   0  0  0  0  0  0  0  0  0  0  0  0
   -5.4888   24.7319  -31.8228 H   0  0  0  0  0  0  0  0  0  0  0  0
   -5.8001   25.9633  -30.5346 H   0  0  0  0  0  0  0  0  0  0  0  0
   -3.1539   22.9631  -31.8523 H   0  0  0  0  0  0  0  0  0  0  0  0
   -2.7155   20.5097  -31.9132 H   0  0  0  0  0  0  0  0  0  0  0  0
   -2.0620   19.3020  -29.8292 H   0  0  0  0  0  0  0  0  0  0  0  0
    0.0394   19.8962  -29.3172 H   0  0  0  0  0  0  0  0  0  0  0  0
    0.7891   21.0407  -28.1484 H   0  0  0  0  0  0  0  0  0  0  0  0
    2.0688   18.9189  -29.5546 H   0  0  0  0  0  0  0  0  0  0  0  0
    2.7436   19.9355  -28.2074 H   0  0  0  0  0  0  0  0  0  0  0  0
    0.8898   16.9849  -28.9738 H   0  0  0  0  0  0  0  0  0  0  0  0
    1.0182   16.3582  -27.2813 H   0  0  0  0  0  0  0  0  0  0  0  0
   -1.1248   17.8423  -28.3701 H   0  0  0  0  0  0  0  0  0  0  0  0
   -0.8163   17.4912  -26.6267 H   0  0  0  0  0  0  0  0  0  0  0  0
   -2.3819   22.9947  -27.5928 H   0  0  0  0  0  0  0  0  0  0  0  0
   -4.9623   22.4853  -32.0193 H   0  0  0  0  0  0  0  0  0  0  0  0
   -5.7517   18.7927  -32.4458 H   0  0  0  0  0  0  0  0  0  0  0  0
   -6.6279   18.5950  -34.0014 H   0  0  0  0  0  0  0  0  0  0  0  0
   -4.8811   19.0137  -34.0014 H   0  0  0  0  0  0  0  0  0  0  0  0
  1  2  1  0
  2  3  1  0
  3  4  2  0
  4  5  1  0
  5  6  2  0
  6  7  1  0
  7  8  1  0
  8  9  1  0
  9 10  1  0
 10 11  2  0
 10 12  1  0
 12 13  2  0
 13 14  1  0
 14 15  2  0
 15 16  1  0
 16 17  1  0
 17 18  2  0
 17 19  2  0
 17 20  1  0
 20 21  1  0
 21 22  1  0
 22 23  1  0
 23 24  1  0
 24 25  1  0
 16 26  2  0
  6 27  1  0
 27 28  2  0
 28 29  1  0
 29 30  1  0
 28  3  1  0
 26 12  1  0
 25 20  1  0
  1 31  1  0
  1 32  1  0
  1 33  1  0
  4 34  1  0
  5 35  1  0
  7 36  1  0
  7 37  1  0
  8 38  1  0
  8 39  1  0
 13 40  1  0
 14 41  1  0
 15 42  1  0
 21 43  1  0
 21 44  1  0
 22 45  1  0
 22 46  1  0
 24 47  1  0
 24 48  1  0
 25 49  1  0
 25 50  1  0
 26 51  1  0
 27 52  1  0
 30 53  1  0
 30 54  1  0
 30 55  1  0
M  CHG  1   9  -1
M  END
>  <UniqueID>  (22) 
22

>  <SMILES>  (22) 
COc1ccc(CC[N-]C(=O)c2cccc(S(=O)(=O)N3CCOCC3)c2)cc1OC

>  <Energy>  (22) 
61.958293257727945

>  <Genealogy>  (22) 
COc1ccc(CC[N-]C(=O)c2cccc(S(=O)(=O)N3CCOCC3)c2)cc1OC (protonated)
COc1ccc(CC[N-]C(=O)c2cccc(S(=O)(=O)N3CCOCC3)c2)cc1OC (3D coordinates assigned)
COc1ccc(CC[N-]C(=O)c2cccc(S(=O)(=O)N3CCOCC3)c2)cc1OC (nonaromatic ring conformer: 61.958293257727945 kcal/mol)

>  <smiles>  (22) 
COc1ccc(CCNC(=O)c2cccc(S(=O)(=O)N3CCOCC3)c2)cc1OC

>  <score_type>  (22) 
oracle

>  <origin>  (22) 
adgpu

>  <m_score__min__energy>  (22) 
-10.289999999999999

>  <m_primary>  (22) 
energy

$$$$
22:0
     RDKit          3D

 48 51  0  0  0  0  0  0  0  0999 V2000
   -0.4890   22.8930  -24.8340 C   0  0  0  0  0  0  0  0  0  0  0  0
   -0.7040   23.7930  -26.0090 C   0  0  0  0  0  0  0  0  0  0  0  0
   -0.5550   25.1780  -25.8760 C   0  0  0  0  0  0  0  0  0  0  0  0
   -0.7380   25.9960  -26.9920 C   0  0  0  0  0  0  0  0  0  0  0  0
   -1.0620   25.4300  -28.2260 C   0  0  0  0  0  0  0  0  0  0  0  0
   -1.2390   26.2510  -29.3350 O   0  0  0  0  0  0  0  0  0  0  0  0
   -1.2030   24.0350  -28.3280 C   0  0  0  0  0  0  0  0  0  0  0  0
   -1.4970   23.3740  -29.6440 C   0  0  0  0  0  0  0  0  0  0  0  0
   -2.9170   23.4980  -29.9540 N   0  0  0  0  0  0  0  0  0  0  0  0
   -3.5480   24.5860  -30.4270 C   0  0  0  0  0  0  0  0  0  0  0  0
   -4.8370   24.3180  -30.7080 N   0  0  0  0  0  0  0  0  0  0  0  0
   -4.9370   23.0110  -30.3760 C   0  0  0  0  0  0  0  0  0  0  0  0
   -6.1620   22.2220  -30.5490 C   0  0  0  0  0  0  0  0  0  0  0  0
   -7.2400   22.6270  -30.0360 O   0  0  0  0  0  0  0  0  0  0  0  0
   -6.1350   20.9980  -31.2970 N   0  0  0  0  0  0  0  0  0  0  0  0
   -7.3270   20.3670  -31.7830 C   0  0  0  0  0  0  0  0  0  0  0  0
   -8.4050   21.1680  -32.1870 C   0  0  0  0  0  0  0  0  0  0  0  0
   -9.5850   20.5840  -32.6540 C   0  0  0  0  0  0  0  0  0  0  0  0
   -9.7020   19.1940  -32.7080 C   0  0  0  0  0  0  0  0  0  0  0  0
   -8.6470   18.3850  -32.2820 C   0  0  0  0  0  0  0  0  0  0  0  0
   -7.4600   18.9600  -31.8080 C   0  0  0  0  0  0  0  0  0  0  0  0
   -6.1680   17.8770  -31.1780 S   0  0  0  0  0  0  0  0  0  0  0  0
   -5.4910   17.5710  -32.8100 C   0  0  0  0  0  0  0  0  0  0  0  0
   -5.8970   18.3560  -33.8980 C   0  0  0  0  0  0  0  0  0  0  0  0
   -5.3500   18.1350  -35.1650 C   0  0  0  0  0  0  0  0  0  0  0  0
   -4.4100   17.1160  -35.3530 C   0  0  0  0  0  0  0  0  0  0  0  0
   -4.0140   16.3220  -34.2730 C   0  0  0  0  0  0  0  0  0  0  0  0
   -4.5530   16.5490  -33.0020 C   0  0  0  0  0  0  0  0  0  0  0  0
   -3.7760   22.4960  -29.9280 N   0  0  0  0  0  0  0  0  0  0  0  0
   -1.0060   23.2600  -27.2240 N   0  0  0  0  0  0  0  0  0  0  0  0
   -0.6256   23.4648  -23.9043 H   0  0  0  0  0  0  0  0  0  0  0  0
   -1.2152   22.0674  -24.8668 H   0  0  0  0  0  0  0  0  0  0  0  0
    0.5319   22.4848  -24.8668 H   0  0  0  0  0  0  0  0  0  0  0  0
   -0.2962   25.6177  -24.9015 H   0  0  0  0  0  0  0  0  0  0  0  0
   -0.6269   27.0864  -26.8990 H   0  0  0  0  0  0  0  0  0  0  0  0
   -0.9069   23.8586  -30.4358 H   0  0  0  0  0  0  0  0  0  0  0  0
   -1.2309   22.3085  -29.5822 H   0  0  0  0  0  0  0  0  0  0  0  0
   -3.0729   25.5683  -30.5665 H   0  0  0  0  0  0  0  0  0  0  0  0
   -5.2310   20.4820  -31.3860 H   0  0  0  0  0  0  0  0  0  0  0  0
   -8.3208   22.2636  -32.1358 H   0  0  0  0  0  0  0  0  0  0  0  0
  -10.4219   21.2194  -32.9792 H   0  0  0  0  0  0  0  0  0  0  0  0
  -10.6272   18.7353  -33.0869 H   0  0  0  0  0  0  0  0  0  0  0  0
   -8.7479   17.2902  -32.3186 H   0  0  0  0  0  0  0  0  0  0  0  0
   -6.6474   19.1473  -33.7544 H   0  0  0  0  0  0  0  0  0  0  0  0
   -5.6585   18.7622  -36.0143 H   0  0  0  0  0  0  0  0  0  0  0  0
   -3.9824   16.9396  -36.3510 H   0  0  0  0  0  0  0  0  0  0  0  0
   -3.2781   15.5182  -34.4224 H   0  0  0  0  0  0  0  0  0  0  0  0
   -4.2397   15.9241  -32.1527 H   0  0  0  0  0  0  0  0  0  0  0  0
  1  2  1  0
  2  3  2  0
  3  4  1  0
  4  5  2  0
  5  6  1  0
  5  7  1  0
  7  8  1  0
  8  9  1  0
  9 10  1  0
 10 11  2  0
 11 12  1  0
 12 13  1  0
 13 14  2  0
 13 15  1  0
 15 16  1  0
 16 17  2  0
 17 18  1  0
 18 19  2  0
 19 20  1  0
 20 21  2  0
 21 22  1  0
 22 23  1  0
 23 24  2  0
 24 25  1  0
 25 26  2  0
 26 27  1  0
 27 28  2  0
 12 29  2  0
  7 30  2  0
 30  2  1  0
 29  9  1  0
 21 16  1  0
 28 23  1  0
  1 31  1  0
  1 32  1  0
  1 33  1  0
  3 34  1  0
  4 35  1  0
  8 36  1  0
  8 37  1  0
 10 38  1  0
 15 39  1  0
 17 40  1  0
 18 41  1  0
 19 42  1  0
 20 43  1  0
 24 44  1  0
 25 45  1  0
 26 46  1  0
 27 47  1  0
 28 48  1  0
M  CHG  1   6  -1
M  END
>  <UniqueID>  (23) 
23

>  <SMILES>  (23) 
Cc1ccc([O-])c(Cn2cnc(C(=O)Nc3ccccc3Sc3ccccc3)n2)n1

>  <Energy>  (23) 
81.34366997478936

>  <Genealogy>  (23) 
Cc1ccc([O-])c(Cn2cnc(C(=O)Nc3ccccc3Sc3ccccc3)n2)n1 (protonated)
Cc1ccc([O-])c(Cn2cnc(C(=O)Nc3ccccc3Sc3ccccc3)n2)n1 (3D coordinates assigned)
Cc1ccc([O-])c(Cn2cnc(C(=O)Nc3ccccc3Sc3ccccc3)n2)n1 (optimized conformer: 81.34366997478936 kcal/mol)

>  <smiles>  (23) 
Cc1ccc(O)c(Cn2cnc(C(=O)Nc3ccccc3Sc3ccccc3)n2)n1

>  <score_type>  (23) 
oracle

>  <origin>  (23) 
adgpu

>  <m_score__min__energy>  (23) 
-11.359999999999999

>  <m_primary>  (23) 
energy

$$$$
23:0
     RDKit          3D

 66 70  0  0  0  0  0  0  0  0999 V2000
   -0.7570   24.7990  -28.4910 C   0  0  0  0  0  0  0  0  0  0  0  0
   -1.8890   24.9190  -27.5760 N   0  0  0  0  0  0  0  0  0  0  0  0
   -1.8130   25.5660  -26.4230 N   0  0  0  0  0  0  0  0  0  0  0  0
   -3.0320   25.5340  -25.8490 C   0  0  0  0  0  0  0  0  0  0  0  0
   -3.9080   24.8460  -26.6620 C   0  0  0  0  0  0  0  0  0  0  0  0
   -3.1450   24.4510  -27.7460 C   0  0  0  0  0  0  0  0  0  0  0  0
   -3.6540   23.7220  -28.9280 C   0  0  0  0  0  0  0  0  0  0  0  0
   -3.4370   22.3410  -29.0740 C   0  0  0  0  0  0  0  0  0  0  0  0
   -3.8880   21.6710  -30.2150 C   0  0  0  0  0  0  0  0  0  0  0  0
   -4.5680   22.3710  -31.2190 C   0  0  0  0  0  0  0  0  0  0  0  0
   -5.0790   21.5150  -32.7150 S   0  0  0  0  0  0  0  0  0  0  0  0
   -6.8250   21.6380  -32.2940 C   0  0  0  0  0  0  0  0  0  0  0  0
   -7.4430   22.8960  -32.3390 C   0  0  0  0  0  0  0  0  0  0  0  0
   -8.7610   23.0520  -31.9100 C   0  0  0  0  0  0  0  0  0  0  0  0
   -9.4760   21.9500  -31.4420 C   0  0  0  0  0  0  0  0  0  0  0  0
   -8.8860   20.6830  -31.4300 C   0  0  0  0  0  0  0  0  0  0  0  0
   -7.5650   20.5090  -31.8760 C   0  0  0  0  0  0  0  0  0  0  0  0
   -7.0100   19.1420  -32.0020 C   0  0  0  0  0  0  0  0  0  0  0  0
   -6.5340   18.5860  -30.9730 O   0  0  0  0  0  0  0  0  0  0  0  0
   -6.9930   18.4430  -33.2720 N   0  0  1  0  0  0  0  0  0  0  0  0
   -5.9740   19.0480  -34.1680 C   0  0  0  0  0  0  0  0  0  0  0  0
   -5.6180   18.1180  -35.3410 C   0  0  0  0  0  0  0  0  0  0  0  0
   -5.0490   16.7410  -34.8720 C   0  0  1  0  0  0  0  0  0  0  0  0
   -3.5900   16.6450  -35.1950 N   0  0  0  0  0  0  0  0  0  0  0  0
   -2.7100   17.7040  -34.6380 C   0  0  0  0  0  0  0  0  0  0  0  0
   -2.5070   17.5570  -33.1230 C   0  0  0  0  0  0  0  0  0  0  0  0
   -1.8980   16.1930  -32.8070 C   0  0  0  0  0  0  0  0  0  0  0  0
   -2.7560   15.0740  -33.3940 C   0  0  0  0  0  0  0  0  0  0  0  0
   -3.0190   15.3030  -34.8960 C   0  0  0  0  0  0  0  0  0  0  0  0
   -5.3760   16.5120  -33.3720 C   0  0  0  0  0  0  0  0  0  0  0  0
   -6.8040   16.9790  -33.0580 C   0  0  0  0  0  0  0  0  0  0  0  0
   -4.8260   23.7350  -31.0590 C   0  0  0  0  0  0  0  0  0  0  0  0
   -4.3770   24.4070  -29.9170 C   0  0  0  0  0  0  0  0  0  0  0  0
    0.1733   24.7004  -27.9124 H   0  0  0  0  0  0  0  0  0  0  0  0
   -0.8905   23.9100  -29.1249 H   0  0  0  0  0  0  0  0  0  0  0  0
   -0.7012   25.6963  -29.1249 H   0  0  0  0  0  0  0  0  0  0  0  0
   -3.2889   25.9873  -24.8802 H   0  0  0  0  0  0  0  0  0  0  0  0
   -4.9769   24.6539  -26.4872 H   0  0  0  0  0  0  0  0  0  0  0  0
   -2.9092   21.7841  -28.2858 H   0  0  0  0  0  0  0  0  0  0  0  0
   -3.7082   20.5913  -30.3243 H   0  0  0  0  0  0  0  0  0  0  0  0
   -6.8845   23.7658  -32.7152 H   0  0  0  0  0  0  0  0  0  0  0  0
   -9.2361   24.0436  -31.9408 H   0  0  0  0  0  0  0  0  0  0  0  0
  -10.5072   22.0782  -31.0813 H   0  0  0  0  0  0  0  0  0  0  0  0
   -9.4595   19.8165  -31.0691 H   0  0  0  0  0  0  0  0  0  0  0  0
   -7.9290   18.5740  -33.7270 H   0  0  0  0  0  0  0  0  0  0  0  0
   -5.0632   19.2505  -33.5854 H   0  0  0  0  0  0  0  0  0  0  0  0
   -6.3930   19.9763  -34.5835 H   0  0  0  0  0  0  0  0  0  0  0  0
   -4.8625   18.6155  -35.9669 H   0  0  0  0  0  0  0  0  0  0  0  0
   -6.5450   17.9200  -35.8992 H   0  0  0  0  0  0  0  0  0  0  0  0
   -5.5368   15.9228  -35.4221 H   0  0  0  0  0  0  0  0  0  0  0  0
   -1.7296   17.6458  -35.1334 H   0  0  0  0  0  0  0  0  0  0  0  0
   -3.1954   18.6743  -34.8195 H   0  0  0  0  0  0  0  0  0  0  0  0
   -1.8311   18.3487  -32.7676 H   0  0  0  0  0  0  0  0  0  0  0  0
   -3.4807   17.6430  -32.6185 H   0  0  0  0  0  0  0  0  0  0  0  0
   -0.8878   16.1389  -33.2390 H   0  0  0  0  0  0  0  0  0  0  0  0
   -1.8511   16.0692  -31.7150 H   0  0  0  0  0  0  0  0  0  0  0  0
   -2.2334   14.1149  -33.2633 H   0  0  0  0  0  0  0  0  0  0  0  0
   -3.7224   15.0637  -32.8686 H   0  0  0  0  0  0  0  0  0  0  0  0
   -2.0668   15.2001  -35.4370 H   0  0  0  0  0  0  0  0  0  0  0  0
   -3.7595   14.5549  -35.2153 H   0  0  0  0  0  0  0  0  0  0  0  0
   -4.6648   17.0809  -32.7551 H   0  0  0  0  0  0  0  0  0  0  0  0
   -5.2949   15.4379  -33.1492 H   0  0  0  0  0  0  0  0  0  0  0  0
   -7.0269   16.7458  -32.0064 H   0  0  0  0  0  0  0  0  0  0  0  0
   -7.4833   16.4532  -33.7451 H   0  0  0  0  0  0  0  0  0  0  0  0
   -5.3838   24.2820  -31.8333 H   0  0  0  0  0  0  0  0  0  0  0  0
   -4.5919   25.4787  -29.7934 H   0  0  0  0  0  0  0  0  0  0  0  0
  1  2  1  0
  2  3  1  0
  3  4  2  0
  4  5  1  0
  5  6  2  0
  6  7  1  0
  7  8  2  0
  8  9  1  0
  9 10  2  0
 10 11  1  0
 11 12  1  0
 12 13  2  0
 13 14  1  0
 14 15  2  0
 15 16  1  0
 16 17  2  0
 17 18  1  0
 18 19  2  0
 18 20  1  0
 20 21  1  0
 21 22  1  0
 22 23  1  0
 23 24  1  0
 24 25  1  0
 25 26  1  0
 26 27  1  0
 27 28  1  0
 28 29  1  0
 23 30  1  0
 30 31  1  0
 10 32  1  0
 32 33  2  0
  6  2  1  0
 33  7  1  0
 17 12  1  0
 31 20  1  0
 29 24  1  0
  1 34  1  0
  1 35  1  0
  1 36  1  0
  4 37  1  0
  5 38  1  0
  8 39  1  0
  9 40  1  0
 13 41  1  0
 14 42  1  0
 15 43  1  0
 16 44  1  0
 20 45  1  6
 21 46  1  0
 21 47  1  0
 22 48  1  0
 22 49  1  0
 23 50  1  6
 25 51  1  0
 25 52  1  0
 26 53  1  0
 26 54  1  0
 27 55  1  0
 27 56  1  0
 28 57  1  0
 28 58  1  0
 29 59  1  0
 29 60  1  0
 30 61  1  0
 30 62  1  0
 31 63  1  0
 31 64  1  0
 32 65  1  0
 33 66  1  0
M  CHG  1  20   1
M  END
>  <UniqueID>  (24) 
24

>  <SMILES>  (24) 
Cn1nccc1-c1ccc(Sc2ccccc2C(=O)[NH+]2CCC(N3CCCCC3)CC2)cc1

>  <Energy>  (24) 
123.98525036937552

>  <Genealogy>  (24) 
Cn1nccc1-c1ccc(Sc2ccccc2C(=O)[NH+]2CCC(N3CCCCC3)CC2)cc1 (protonated)
Cn1nccc1-c1ccc(Sc2ccccc2C(=O)[NH+]2CCC(N3CCCCC3)CC2)cc1 (3D coordinates assigned)
Cn1nccc1-c1ccc(Sc2ccccc2C(=O)[NH+]2CCC(N3CCCCC3)CC2)cc1 (nonaromatic ring conformer: 123.98525036937552 kcal/mol)

>  <smiles>  (24) 
Cn1nccc1-c1ccc(Sc2ccccc2C(=O)N2CCC(N3CCCCC3)CC2)cc1

>  <score_type>  (24) 
oracle

>  <origin>  (24) 
adgpu

>  <m_score__min__energy>  (24) 
-9.3399999999999999

>  <m_primary>  (24) 
energy

$$$$
24:0
     RDKit          3D

 38 40  0  0  0  0  0  0  0  0999 V2000
    2.5450   26.8260  -38.6430 C   0  0  0  0  0  0  0  0  0  0  0  0
    2.1060   25.7010  -37.7710 C   0  0  0  0  0  0  0  0  0  0  0  0
    2.8310   24.5750  -37.5840 N   0  0  0  0  0  0  0  0  0  0  0  0
    2.2120   23.6730  -36.8250 N   0  0  0  0  0  0  0  0  0  0  0  0
    0.9890   24.0790  -36.4180 C   0  0  0  0  0  0  0  0  0  0  0  0
    0.1920   23.3630  -35.6860 N   0  0  0  0  0  0  0  0  0  0  0  0
    0.5890   21.7680  -35.1320 S   0  0  0  0  0  0  0  0  0  0  0  0
    1.8950   21.8100  -34.3910 O   0  0  0  0  0  0  0  0  0  0  0  0
    0.7350   20.8450  -36.3100 O   0  0  0  0  0  0  0  0  0  0  0  0
   -0.6740   21.1960  -34.0460 C   0  0  0  0  0  0  0  0  0  0  0  0
   -1.7470   20.4430  -34.5410 C   0  0  0  0  0  0  0  0  0  0  0  0
   -2.8010   20.0850  -33.6980 C   0  0  0  0  0  0  0  0  0  0  0  0
   -2.7970   20.4850  -32.3510 C   0  0  0  0  0  0  0  0  0  0  0  0
   -3.8950   20.1830  -31.4780 N   0  0  0  0  0  0  0  0  0  0  0  0
   -5.1870   20.8050  -31.5290 C   0  0  0  0  0  0  0  0  0  0  0  0
   -6.1630   20.1350  -31.9570 O   0  0  0  0  0  0  0  0  0  0  0  0
   -5.4070   22.1930  -31.0550 C   0  0  0  0  0  0  0  0  0  0  0  0
   -6.6930   22.6130  -30.6760 C   0  0  0  0  0  0  0  0  0  0  0  0
   -6.9110   23.9250  -30.2430 C   0  0  0  0  0  0  0  0  0  0  0  0
   -5.8420   24.8290  -30.1700 C   0  0  0  0  0  0  0  0  0  0  0  0
   -6.0540   26.1390  -29.7440 O   0  0  0  0  0  0  0  0  0  0  0  0
   -4.5550   24.4130  -30.5260 C   0  0  0  0  0  0  0  0  0  0  0  0
   -3.4870   25.2990  -30.4470 O   0  0  0  0  0  0  0  0  0  0  0  0
   -4.3360   23.1010  -30.9590 C   0  0  0  0  0  0  0  0  0  0  0  0
   -1.6990   21.1910  -31.8460 C   0  0  0  0  0  0  0  0  0  0  0  0
   -0.6480   21.5580  -32.6930 C   0  0  0  0  0  0  0  0  0  0  0  0
    0.6090   25.6110  -36.9970 S   0  0  0  0  0  0  0  0  0  0  0  0
    2.8738   27.6685  -38.0168 H   0  0  0  0  0  0  0  0  0  0  0  0
    3.3794   26.4936  -39.2781 H   0  0  0  0  0  0  0  0  0  0  0  0
    1.7060   27.1466  -39.2781 H   0  0  0  0  0  0  0  0  0  0  0  0
   -1.7591   20.1331  -35.5964 H   0  0  0  0  0  0  0  0  0  0  0  0
   -3.6375   19.4877  -34.0898 H   0  0  0  0  0  0  0  0  0  0  0  0
   -7.5340   21.9053  -30.7201 H   0  0  0  0  0  0  0  0  0  0  0  0
   -7.9234   24.2482  -29.9591 H   0  0  0  0  0  0  0  0  0  0  0  0
   -5.3050   26.6940  -29.3450 H   0  0  0  0  0  0  0  0  0  0  0  0
   -3.3195   22.7767  -31.2264 H   0  0  0  0  0  0  0  0  0  0  0  0
   -1.6624   21.4581  -30.7796 H   0  0  0  0  0  0  0  0  0  0  0  0
    0.2015   22.1326  -32.2954 H   0  0  0  0  0  0  0  0  0  0  0  0
  1  2  1  0
  2  3  2  0
  3  4  1  0
  4  5  1  0
  5  6  2  3
  6  7  1  0
  7  8  2  0
  7  9  2  0
  7 10  1  0
 10 11  2  0
 11 12  1  0
 12 13  2  0
 13 14  1  0
 14 15  1  0
 15 16  2  0
 15 17  1  0
 17 18  2  0
 18 19  1  0
 19 20  2  0
 20 21  1  0
 20 22  1  0
 22 23  1  0
 22 24  2  0
 13 25  1  0
 25 26  2  0
  5 27  1  0
 27  2  1  0
 26 10  1  0
 24 17  1  0
  1 28  1  0
  1 29  1  0
  1 30  1  0
 11 31  1  0
 12 32  1  0
 18 33  1  0
 19 34  1  0
 21 35  1  0
 24 36  1  0
 25 37  1  0
 26 38  1  0
M  CHG  3   4  -1  14  -1  23  -1
M  END
>  <UniqueID>  (25) 
25

>  <SMILES>  (25) 
Cc1n[n-]c(=NS(=O)(=O)c2ccc([N-]C(=O)c3ccc(O)c([O-])c3)cc2)s1

>  <Energy>  (25) 
81.98141766269136

>  <Genealogy>  (25) 
Cc1n[n-]c(=NS(=O)(=O)c2ccc([N-]C(=O)c3ccc(O)c([O-])c3)cc2)s1 (protonated)
Cc1n[n-]c(=NS(=O)(=O)c2ccc([N-]C(=O)c3ccc(O)c([O-])c3)cc2)s1 (3D coordinates assigned)
Cc1n[n-]c(=NS(=O)(=O)c2ccc([N-]C(=O)c3ccc(O)c([O-])c3)cc2)s1 (optimized conformer: 81.98141766269136 kcal/mol)

>  <smiles>  (25) 
Cc1n[nH]c(=NS(=O)(=O)c2ccc(NC(=O)c3ccc(O)c(O)c3)cc2)s1

>  <score_type>  (25) 
oracle

>  <origin>  (25) 
adgpu

>  <m_score__min__energy>  (25) 
-12.91

>  <m_primary>  (25) 
energy

$$$$
25:0
     RDKit          3D

 42 44  0  0  0  0  0  0  0  0999 V2000
   -9.2440   18.1670  -31.5980 C   0  0  0  0  0  0  0  0  0  0  0  0
   -8.2250   18.3640  -32.7180 C   0  0  0  0  0  0  0  0  0  0  0  0
   -7.3800   19.5900  -32.4640 C   0  0  0  0  0  0  0  0  0  0  0  0
   -7.8450   20.5000  -31.5640 N   0  0  0  0  0  0  0  0  0  0  0  0
   -7.1740   21.6460  -31.2850 C   0  0  0  0  0  0  0  0  0  0  0  0
   -7.6790   22.5610  -30.3590 C   0  0  0  0  0  0  0  0  0  0  0  0
   -6.9770   23.7390  -30.0880 C   0  0  0  0  0  0  0  0  0  0  0  0
   -5.7610   24.0170  -30.7440 C   0  0  0  0  0  0  0  0  0  0  0  0
   -5.0200   25.2680  -30.4530 C   0  0  0  0  0  0  0  0  0  0  0  0
   -5.6410   26.3630  -30.3770 O   0  0  0  0  0  0  0  0  0  0  0  0
   -3.5920   25.2390  -30.3120 N   0  0  0  0  0  0  0  0  0  0  0  0
   -2.8350   24.3960  -29.4300 C   0  0  0  0  0  0  0  0  0  0  0  0
   -3.2640   23.0970  -29.0980 C   0  0  0  0  0  0  0  0  0  0  0  0
   -2.4900   22.2920  -28.2540 C   0  0  0  0  0  0  0  0  0  0  0  0
   -3.0330   20.6750  -27.8430 Cl  0  0  0  0  0  0  0  0  0  0  0  0
   -1.2780   22.7720  -27.7490 C   0  0  0  0  0  0  0  0  0  0  0  0
   -0.8340   24.0500  -28.0930 C   0  0  0  0  0  0  0  0  0  0  0  0
   -1.6050   24.8620  -28.9380 C   0  0  0  0  0  0  0  0  0  0  0  0
   -1.1570   26.1350  -29.2880 O   0  0  0  0  0  0  0  0  0  0  0  0
   -5.2600   23.0880  -31.6770 C   0  0  0  0  0  0  0  0  0  0  0  0
   -5.9630   21.9100  -31.9450 C   0  0  0  0  0  0  0  0  0  0  0  0
   -5.4870   21.0080  -32.8400 N   0  0  0  0  0  0  0  0  0  0  0  0
   -6.1470   19.8500  -33.1190 C   0  0  0  0  0  0  0  0  0  0  0  0
   -5.5250   18.9190  -34.1300 C   0  0  0  0  0  0  0  0  0  0  0  0
   -4.0380   18.7150  -33.8590 C   0  0  0  0  0  0  0  0  0  0  0  0
   -8.7418   18.2641  -30.6241 H   0  0  0  0  0  0  0  0  0  0  0  0
  -10.0326   18.9293  -31.6815 H   0  0  0  0  0  0  0  0  0  0  0  0
   -9.6916   17.1657  -31.6815 H   0  0  0  0  0  0  0  0  0  0  0  0
   -7.5719   17.4804  -32.7711 H   0  0  0  0  0  0  0  0  0  0  0  0
   -8.7651   18.4981  -33.6668 H   0  0  0  0  0  0  0  0  0  0  0  0
   -8.6285   22.3550  -29.8432 H   0  0  0  0  0  0  0  0  0  0  0  0
   -7.3774   24.4557  -29.3559 H   0  0  0  0  0  0  0  0  0  0  0  0
   -4.2116   22.7129  -29.5036 H   0  0  0  0  0  0  0  0  0  0  0  0
   -0.6736   22.1420  -27.0799 H   0  0  0  0  0  0  0  0  0  0  0  0
    0.1239   24.4216  -27.7001 H   0  0  0  0  0  0  0  0  0  0  0  0
   -1.2410   26.4840  -30.2360 H   0  0  0  0  0  0  0  0  0  0  0  0
   -4.3119   23.2904  -32.1966 H   0  0  0  0  0  0  0  0  0  0  0  0
   -6.0345   17.9454  -34.0806 H   0  0  0  0  0  0  0  0  0  0  0  0
   -5.6362   19.3681  -35.1280 H   0  0  0  0  0  0  0  0  0  0  0  0
   -3.8631   18.6910  -32.7733 H   0  0  0  0  0  0  0  0  0  0  0  0
   -3.7113   17.7636  -34.3041 H   0  0  0  0  0  0  0  0  0  0  0  0
   -3.4672   19.5432  -34.3041 H   0  0  0  0  0  0  0  0  0  0  0  0
  1  2  1  0
  2  3  1  0
  3  4  2  0
  4  5  1  0
  5  6  2  0
  6  7  1  0
  7  8  2  0
  8  9  1  0
  9 10  2  0
  9 11  1  0
 11 12  1  0
 12 13  2  0
 13 14  1  0
 14 15  1  0
 14 16  2  0
 16 17  1  0
 17 18  2  0
 18 19  1  0
  8 20  1  0
 20 21  2  0
 21 22  1  0
 22 23  2  0
 23 24  1  0
 24 25  1  0
 23  3  1  0
 21  5  1  0
 18 12  1  0
  1 26  1  0
  1 27  1  0
  1 28  1  0
  2 29  1  0
  2 30  1  0
  6 31  1  0
  7 32  1  0
 13 33  1  0
 16 34  1  0
 17 35  1  0
 19 36  1  0
 20 37  1  0
 24 38  1  0
 24 39  1  0
 25 40  1  0
 25 41  1  0
 25 42  1  0
M  CHG  1  11  -1
M  END
>  <UniqueID>  (26) 
26

>  <SMILES>  (26) 
CCc1nc2ccc(C(=O)[N-]c3cc(Cl)ccc3O)cc2nc1CC

>  <Energy>  (26) 
48.121031000913305

>  <Genealogy>  (26) 
CCc1nc2ccc(C(=O)[N-]c3cc(Cl)ccc3O)cc2nc1CC (protonated)
CCc1nc2ccc(C(=O)[N-]c3cc(Cl)ccc3O)cc2nc1CC (3D coordinates assigned)
CCc1nc2ccc(C(=O)[N-]c3cc(Cl)ccc3O)cc2nc1CC (optimized conformer: 48.121031000913305 kcal/mol)

>  <smiles>  (26) 
CCc1nc2ccc(C(=O)Nc3cc(Cl)ccc3O)cc2nc1CC

>  <score_type>  (26) 
oracle

>  <origin>  (26) 
adgpu

>  <m_score__min__energy>  (26) 
-12.27

>  <m_primary>  (26) 
energy

$$$$
26:0
     RDKit          3D

 54 58  0  0  0  0  0  0  0  0999 V2000
   -0.8020   27.6680  -26.1520 C   0  0  0  0  0  0  0  0  0  0  0  0
   -0.7180   26.2770  -25.6200 C   0  0  0  0  0  0  0  0  0  0  0  0
   -0.6100   25.9820  -24.3050 N   0  0  0  0  0  0  0  0  0  0  0  0
   -0.5780   24.6720  -24.0670 N   0  0  0  0  0  0  0  0  0  0  0  0
   -0.6650   23.9170  -25.1830 C   0  0  0  0  0  0  0  0  0  0  0  0
   -0.6520   22.6190  -25.1530 N   0  0  0  0  0  0  0  0  0  0  0  0
   -0.7590   21.6100  -26.5600 S   0  0  0  0  0  0  0  0  0  0  0  0
   -1.2670   20.2520  -26.1590 O   0  0  0  0  0  0  0  0  0  0  0  0
    0.6090   21.4550  -27.1610 O   0  0  0  0  0  0  0  0  0  0  0  0
   -1.8220   22.3530  -27.7510 C   0  0  0  0  0  0  0  0  0  0  0  0
   -1.2880   22.8290  -28.9540 C   0  0  0  0  0  0  0  0  0  0  0  0
   -2.1190   23.4300  -29.9050 C   0  0  0  0  0  0  0  0  0  0  0  0
   -3.4950   23.5400  -29.6720 C   0  0  0  0  0  0  0  0  0  0  0  0
   -4.3190   24.1840  -30.6550 N   0  0  0  0  0  0  0  0  0  0  0  0
   -4.8570   23.6160  -31.6670 N   0  0  0  0  0  0  0  0  0  0  0  0
   -4.6050   22.2690  -32.0950 C   0  0  0  0  0  0  0  0  0  0  0  0
   -5.5510   21.3200  -32.4550 C   0  0  0  0  0  0  0  0  0  0  0  0
   -7.0210   21.4000  -32.2930 C   0  0  0  0  0  0  0  0  0  0  0  0
   -7.7990   20.2350  -32.4250 C   0  0  0  0  0  0  0  0  0  0  0  0
   -9.1880   20.2890  -32.2660 C   0  0  0  0  0  0  0  0  0  0  0  0
   -9.8110   21.5010  -31.9630 C   0  0  0  0  0  0  0  0  0  0  0  0
   -9.0470   22.6600  -31.8130 C   0  0  0  0  0  0  0  0  0  0  0  0
   -7.6590   22.6130  -31.9730 C   0  0  0  0  0  0  0  0  0  0  0  0
   -4.9200   20.2590  -33.0060 N   0  0  0  0  0  0  0  0  0  0  0  0
   -3.6180   20.5120  -33.0360 N   0  0  0  0  0  0  0  0  0  0  0  0
   -2.6470   19.5840  -33.5580 C   0  0  0  0  0  0  0  0  0  0  0  0
   -1.4400   20.0670  -34.0940 C   0  0  0  0  0  0  0  0  0  0  0  0
   -0.4840   19.1830  -34.5990 C   0  0  0  0  0  0  0  0  0  0  0  0
   -0.7170   17.8050  -34.5680 C   0  0  0  0  0  0  0  0  0  0  0  0
    0.4860   16.6960  -35.2010 Cl  0  0  0  0  0  0  0  0  0  0  0  0
   -1.9060   17.3120  -34.0240 C   0  0  0  0  0  0  0  0  0  0  0  0
   -2.8660   18.1940  -33.5180 C   0  0  0  0  0  0  0  0  0  0  0  0
   -3.4020   21.7330  -32.5030 C   0  0  0  0  0  0  0  0  0  0  0  0
   -2.2770   22.2910  -32.4140 O   0  0  0  0  0  0  0  0  0  0  0  0
   -4.0240   23.0980  -28.4470 C   0  0  0  0  0  0  0  0  0  0  0  0
   -3.1930   22.4950  -27.4980 C   0  0  0  0  0  0  0  0  0  0  0  0
   -0.7940   24.8820  -26.5650 S   0  0  0  0  0  0  0  0  0  0  0  0
   -0.8449   28.3791  -25.3139 H   0  0  0  0  0  0  0  0  0  0  0  0
    0.0850   27.8795  -26.7672 H   0  0  0  0  0  0  0  0  0  0  0  0
   -1.7080   27.7712  -26.7672 H   0  0  0  0  0  0  0  0  0  0  0  0
   -0.4960   24.2820  -23.1020 H   0  0  0  0  0  0  0  0  0  0  0  0
   -0.2106   22.7300  -29.1523 H   0  0  0  0  0  0  0  0  0  0  0  0
   -1.6894   23.8180  -30.8403 H   0  0  0  0  0  0  0  0  0  0  0  0
   -7.3121   19.2757  -32.6546 H   0  0  0  0  0  0  0  0  0  0  0  0
   -9.7899   19.3753  -32.3799 H   0  0  0  0  0  0  0  0  0  0  0  0
  -10.9036   21.5429  -31.8424 H   0  0  0  0  0  0  0  0  0  0  0  0
   -9.5388   23.6130  -31.5682 H   0  0  0  0  0  0  0  0  0  0  0  0
   -7.0625   23.5287  -31.8482 H   0  0  0  0  0  0  0  0  0  0  0  0
   -1.2473   21.1498  -34.1157 H   0  0  0  0  0  0  0  0  0  0  0  0
    0.4541   19.5718  -35.0219 H   0  0  0  0  0  0  0  0  0  0  0  0
   -2.0873   16.2275  -33.9937 H   0  0  0  0  0  0  0  0  0  0  0  0
   -3.7976   17.7994  -33.0863 H   0  0  0  0  0  0  0  0  0  0  0  0
   -5.0955   23.2270  -28.2343 H   0  0  0  0  0  0  0  0  0  0  0  0
   -3.6165   22.1311  -26.5503 H   0  0  0  0  0  0  0  0  0  0  0  0
  1  2  1  0
  2  3  2  0
  3  4  1  0
  4  5  1  0
  5  6  2  3
  6  7  1  0
  7  8  2  0
  7  9  2  0
  7 10  1  0
 10 11  2  0
 11 12  1  0
 12 13  2  0
 13 14  1  0
 14 15  2  3
 15 16  1  0
 16 17  2  0
 17 18  1  0
 18 19  2  0
 19 20  1  0
 20 21  2  0
 21 22  1  0
 22 23  2  0
 17 24  1  0
 24 25  1  0
 25 26  1  0
 26 27  2  0
 27 28  1  0
 28 29  2  0
 29 30  1  0
 29 31  1  0
 31 32  2  0
 25 33  1  0
 33 34  2  0
 13 35  1  0
 35 36  2  0
  5 37  1  0
 37  2  1  0
 36 10  1  0
 33 16  1  0
 23 18  1  0
 32 26  1  0
  1 38  1  0
  1 39  1  0
  1 40  1  0
  4 41  1  0
 11 42  1  0
 12 43  1  0
 19 44  1  0
 20 45  1  0
 21 46  1  0
 22 47  1  0
 23 48  1  0
 27 49  1  0
 28 50  1  0
 31 51  1  0
 32 52  1  0
 35 53  1  0
 36 54  1  0
M  CHG  1  24  -1
M  END
>  <UniqueID>  (27) 
27

>  <SMILES>  (27) 
Cc1n[nH]c(=NS(=O)(=O)c2ccc(N=Nc3c(-c4ccccc4)[n-]n(-c4ccc(Cl)cc4)c3=O)cc2)s1

>  <Energy>  (27) 
149.93817285051793

>  <Genealogy>  (27) 
Cc1n[nH]c(=NS(=O)(=O)c2ccc(N=Nc3c(-c4ccccc4)[n-]n(-c4ccc(Cl)cc4)c3=O)cc2)s1 (protonated)
Cc1n[nH]c(=NS(=O)(=O)c2ccc(N=Nc3c(-c4ccccc4)[n-]n(-c4ccc(Cl)cc4)c3=O)cc2)s1 (3D coordinates assigned)
Cc1n[nH]c(=NS(=O)(=O)c2ccc(N=Nc3c(-c4ccccc4)[n-]n(-c4ccc(Cl)cc4)c3=O)cc2)s1 (optimized conformer: 149.93817285051793 kcal/mol)

>  <smiles>  (27) 
Cc1n[nH]c(=NS(=O)(=O)c2ccc(N=Nc3c(-c4ccccc4)[nH]n(-c4ccc(Cl)cc4)c3=O)cc2)s1

>  <score_type>  (27) 
oracle

>  <origin>  (27) 
adgpu

>  <m_score__min__energy>  (27) 
-11.24

>  <m_primary>  (27) 
energy

$$$$
27:0
     RDKit          3D

 41 43  0  0  0  0  0  0  0  0999 V2000
   -8.2060   23.6990  -31.9710 C   0  0  0  0  0  0  0  0  0  0  0  0
   -6.8080   23.5510  -31.4500 C   0  0  0  0  0  0  0  0  0  0  0  0
   -6.3420   22.3000  -31.0210 C   0  0  0  0  0  0  0  0  0  0  0  0
   -5.0520   22.1690  -30.4990 C   0  0  0  0  0  0  0  0  0  0  0  0
   -4.2170   23.2910  -30.3800 C   0  0  0  0  0  0  0  0  0  0  0  0
   -2.8510   23.1320  -29.8270 C   0  0  0  0  0  0  0  0  0  0  0  0
   -2.4540   23.9610  -28.7690 C   0  0  0  0  0  0  0  0  0  0  0  0
   -1.1700   23.8320  -28.2200 C   0  0  0  0  0  0  0  0  0  0  0  0
   -0.7130   24.6870  -27.0950 C   0  0  0  0  0  0  0  0  0  0  0  0
   -0.8180   24.2190  -25.7720 C   0  0  0  0  0  0  0  0  0  0  0  0
   -0.3980   25.0120  -24.7010 C   0  0  0  0  0  0  0  0  0  0  0  0
    0.1300   26.2870  -24.9320 C   0  0  0  0  0  0  0  0  0  0  0  0
    0.6400   27.2930  -23.5790 S   0  0  0  0  0  0  0  0  0  0  0  0
    2.2040   26.7910  -23.0400 N   0  0  0  0  0  0  0  0  0  0  0  0
    0.6960   28.7320  -24.0080 O   0  0  0  0  0  0  0  0  0  0  0  0
   -0.3440   27.1650  -22.4510 O   0  0  0  0  0  0  0  0  0  0  0  0
    0.2180   26.7710  -26.2430 C   0  0  0  0  0  0  0  0  0  0  0  0
   -0.2000   25.9800  -27.3170 C   0  0  0  0  0  0  0  0  0  0  0  0
   -0.3170   22.9110  -28.7440 N   0  0  0  0  0  0  0  0  0  0  0  0
   -0.6520   22.0960  -29.7780 C   0  0  0  0  0  0  0  0  0  0  0  0
    0.2360   21.2520  -30.2090 N   0  0  0  0  0  0  0  0  0  0  0  0
   -1.9420   22.1880  -30.3510 C   0  0  0  0  0  0  0  0  0  0  0  0
   -2.3140   21.3650  -31.4840 C   0  0  0  0  0  0  0  0  0  0  0  0
   -2.6130   20.7100  -32.3890 N   0  0  0  0  0  0  0  0  0  0  0  0
   -4.6840   24.5480  -30.8080 C   0  0  0  0  0  0  0  0  0  0  0  0
   -3.8680   25.6720  -30.7300 O   0  0  0  0  0  0  0  0  0  0  0  0
   -5.9780   24.6760  -31.3270 C   0  0  0  0  0  0  0  0  0  0  0  0
   -8.9063   23.7731  -31.1260 H   0  0  0  0  0  0  0  0  0  0  0  0
   -8.2742   24.6094  -32.5846 H   0  0  0  0  0  0  0  0  0  0  0  0
   -8.4633   22.8231  -32.5846 H   0  0  0  0  0  0  0  0  0  0  0  0
   -6.9946   21.4177  -31.0956 H   0  0  0  0  0  0  0  0  0  0  0  0
   -4.6891   21.1809  -30.1796 H   0  0  0  0  0  0  0  0  0  0  0  0
   -3.1499   24.7132  -28.3690 H   0  0  0  0  0  0  0  0  0  0  0  0
   -1.2347   23.2194  -25.5792 H   0  0  0  0  0  0  0  0  0  0  0  0
   -0.4828   24.6324  -23.6721 H   0  0  0  0  0  0  0  0  0  0  0  0
    2.1320   25.7760  -22.7990 H   0  0  0  0  0  0  0  0  0  0  0  0
    2.3960   27.2990  -22.1480 H   0  0  0  0  0  0  0  0  0  0  0  0
    0.6181   27.7787  -26.4286 H   0  0  0  0  0  0  0  0  0  0  0  0
   -0.1278   26.3700  -28.3430 H   0  0  0  0  0  0  0  0  0  0  0  0
    0.0740   20.5840  -30.9960 H   0  0  0  0  0  0  0  0  0  0  0  0
   -6.3463   25.6641  -31.6402 H   0  0  0  0  0  0  0  0  0  0  0  0
  1  2  1  0
  2  3  2  0
  3  4  1  0
  4  5  2  0
  5  6  1  0
  6  7  1  0
  7  8  2  0
  8  9  1  0
  9 10  2  0
 10 11  1  0
 11 12  2  0
 12 13  1  0
 13 14  1  0
 13 15  2  0
 13 16  2  0
 12 17  1  0
 17 18  2  0
  8 19  1  0
 19 20  1  0
 20 21  2  3
 20 22  1  0
 22 23  1  0
 23 24  3  0
  5 25  1  0
 25 26  1  0
 25 27  2  0
 27  2  1  0
 22  6  2  0
 18  9  1  0
  1 28  1  0
  1 29  1  0
  1 30  1  0
  3 31  1  0
  4 32  1  0
  7 33  1  0
 10 34  1  0
 11 35  1  0
 14 36  1  0
 14 37  1  0
 17 38  1  0
 18 39  1  0
 21 40  1  0
 27 41  1  0
M  CHG  2  19  -1  26  -1
M  END
>  <UniqueID>  (28) 
28

>  <SMILES>  (28) 
Cc1ccc(-c2cc(-c3ccc(S(N)(=O)=O)cc3)[n-]c(=N)c2C#N)c([O-])c1

>  <Energy>  (28) 
56.5006961945762

>  <Genealogy>  (28) 
Cc1ccc(-c2cc(-c3ccc(S(N)(=O)=O)cc3)[n-]c(=N)c2C#N)c([O-])c1 (protonated)
Cc1ccc(-c2cc(-c3ccc(S(N)(=O)=O)cc3)[n-]c(=N)c2C#N)c([O-])c1 (3D coordinates assigned)
Cc1ccc(-c2cc(-c3ccc(S(N)(=O)=O)cc3)[n-]c(=N)c2C#N)c([O-])c1 (optimized conformer: 56.5006961945762 kcal/mol)

>  <smiles>  (28) 
Cc1ccc(-c2cc(-c3ccc(S(N)(=O)=O)cc3)[nH]c(=N)c2C#N)c(O)c1

>  <score_type>  (28) 
oracle

>  <origin>  (28) 
adgpu

>  <m_score__min__energy>  (28) 
-11.49

>  <m_primary>  (28) 
energy

$$$$
28:0
     RDKit          3D

 46 48  0  0  0  0  0  0  0  0999 V2000
   -6.3010   15.8520  -34.1990 C   0  0  0  0  0  0  0  0  0  0  0  0
   -5.3410   16.9420  -33.9390 N   0  0  0  0  0  0  0  0  0  0  0  0
   -5.1870   17.2070  -32.4940 C   0  0  0  0  0  0  0  0  0  0  0  0
   -6.4390   17.8680  -31.8760 C   0  0  0  0  0  0  0  0  0  0  0  0
   -7.2590   18.5660  -32.8870 N   0  0  0  0  0  0  0  0  0  0  0  0
   -8.3270   19.7180  -32.1200 S   0  0  0  0  0  0  0  0  0  0  0  0
   -9.4310   20.0800  -33.0770 O   0  0  0  0  0  0  0  0  0  0  0  0
   -8.9530   19.0860  -30.9050 O   0  0  0  0  0  0  0  0  0  0  0  0
   -7.4710   21.1880  -31.6360 C   0  0  0  0  0  0  0  0  0  0  0  0
   -8.1860   22.3660  -31.3790 C   0  0  0  0  0  0  0  0  0  0  0  0
   -7.5130   23.5280  -30.9880 C   0  0  0  0  0  0  0  0  0  0  0  0
   -6.1140   23.5270  -30.8620 C   0  0  0  0  0  0  0  0  0  0  0  0
   -5.2660   24.9860  -30.3480 S   0  0  0  0  0  0  0  0  0  0  0  0
   -5.6540   25.2900  -28.9270 O   0  0  0  0  0  0  0  0  0  0  0  0
   -5.6660   26.1550  -31.2050 O   0  0  0  0  0  0  0  0  0  0  0  0
   -3.5440   24.7990  -30.4180 N   0  0  0  0  0  0  0  0  0  0  0  0
   -2.7460   24.1080  -29.4490 C   0  0  0  0  0  0  0  0  0  0  0  0
   -3.0630   22.8010  -29.0330 C   0  0  0  0  0  0  0  0  0  0  0  0
   -2.2710   22.1570  -28.0770 C   0  0  0  0  0  0  0  0  0  0  0  0
   -1.1600   22.8120  -27.5300 C   0  0  0  0  0  0  0  0  0  0  0  0
   -0.8270   24.1060  -27.9510 C   0  0  0  0  0  0  0  0  0  0  0  0
   -1.6150   24.7530  -28.9090 C   0  0  0  0  0  0  0  0  0  0  0  0
   -1.2520   26.0270  -29.3420 O   0  0  0  0  0  0  0  0  0  0  0  0
   -5.3980   22.3500  -31.1230 C   0  0  0  0  0  0  0  0  0  0  0  0
   -6.0730   21.1830  -31.5060 C   0  0  0  0  0  0  0  0  0  0  0  0
   -6.4120   19.2320  -33.8830 C   0  0  0  0  0  0  0  0  0  0  0  0
   -5.6590   18.1710  -34.7130 C   0  0  0  0  0  0  0  0  0  0  0  0
   -6.6603   15.4440  -33.2427 H   0  0  0  0  0  0  0  0  0  0  0  0
   -7.1532   16.2433  -34.7740 H   0  0  0  0  0  0  0  0  0  0  0  0
   -5.8052   15.0561  -34.7740 H   0  0  0  0  0  0  0  0  0  0  0  0
   -5.0011   16.2532  -31.9785 H   0  0  0  0  0  0  0  0  0  0  0  0
   -4.3457   17.9049  -32.3704 H   0  0  0  0  0  0  0  0  0  0  0  0
   -7.0520   17.0888  -31.3994 H   0  0  0  0  0  0  0  0  0  0  0  0
   -6.0992   18.6147  -31.1432 H   0  0  0  0  0  0  0  0  0  0  0  0
   -9.2808   22.3765  -31.4853 H   0  0  0  0  0  0  0  0  0  0  0  0
   -8.0814   24.4461  -30.7784 H   0  0  0  0  0  0  0  0  0  0  0  0
   -3.9354   22.2852  -29.4607 H   0  0  0  0  0  0  0  0  0  0  0  0
   -2.5206   21.1354  -27.7544 H   0  0  0  0  0  0  0  0  0  0  0  0
   -0.5472   22.3087  -26.7676 H   0  0  0  0  0  0  0  0  0  0  0  0
    0.0532   24.6129  -27.5287 H   0  0  0  0  0  0  0  0  0  0  0  0
   -4.3022   22.3426  -31.0268 H   0  0  0  0  0  0  0  0  0  0  0  0
   -5.5064   20.2614  -31.7051 H   0  0  0  0  0  0  0  0  0  0  0  0
   -7.0403   19.8406  -34.5499 H   0  0  0  0  0  0  0  0  0  0  0  0
   -5.6850   19.8793  -33.3708 H   0  0  0  0  0  0  0  0  0  0  0  0
   -6.2848   17.8908  -35.5732 H   0  0  0  0  0  0  0  0  0  0  0  0
   -4.7037   18.6174  -35.0263 H   0  0  0  0  0  0  0  0  0  0  0  0
  1  2  1  0
  2  3  1  0
  3  4  1  0
  4  5  1  0
  5  6  1  0
  6  7  2  0
  6  8  2  0
  6  9  1  0
  9 10  2  0
 10 11  1  0
 11 12  2  0
 12 13  1  0
 13 14  2  0
 13 15  2  0
 13 16  1  0
 16 17  1  0
 17 18  2  0
 18 19  1  0
 19 20  2  0
 20 21  1  0
 21 22  2  0
 22 23  1  0
 12 24  1  0
 24 25  2  0
  5 26  1  0
 26 27  1  0
 27  2  1  0
 25  9  1  0
 22 17  1  0
  1 28  1  0
  1 29  1  0
  1 30  1  0
  3 31  1  0
  3 32  1  0
  4 33  1  0
  4 34  1  0
 10 35  1  0
 11 36  1  0
 18 37  1  0
 19 38  1  0
 20 39  1  0
 21 40  1  0
 24 41  1  0
 25 42  1  0
 26 43  1  0
 26 44  1  0
 27 45  1  0
 27 46  1  0
M  CHG  2  16  -1  23  -1
M  END
>  <UniqueID>  (29) 
29

>  <SMILES>  (29) 
CN1CCN(S(=O)(=O)c2ccc(S(=O)(=O)[N-]c3ccccc3[O-])cc2)CC1

>  <Energy>  (29) 
62.31979368180809

>  <Genealogy>  (29) 
CN1CCN(S(=O)(=O)c2ccc(S(=O)(=O)[N-]c3ccccc3[O-])cc2)CC1 (protonated)
CN1CCN(S(=O)(=O)c2ccc(S(=O)(=O)[N-]c3ccccc3[O-])cc2)CC1 (3D coordinates assigned)
CN1CCN(S(=O)(=O)c2ccc(S(=O)(=O)[N-]c3ccccc3[O-])cc2)CC1 (nonaromatic ring conformer: 62.31979368180809 kcal/mol)

>  <smiles>  (29) 
CN1CCN(S(=O)(=O)c2ccc(S(=O)(=O)Nc3ccccc3O)cc2)CC1

>  <score_type>  (29) 
oracle

>  <origin>  (29) 
adgpu

>  <m_score__min__energy>  (29) 
-14.91

>  <m_primary>  (29) 
energy

$$$$
29:0
     RDKit          3D

 38 40  0  0  0  0  0  0  0  0999 V2000
   -6.6450   18.3070  -31.7060 C   0  0  0  0  0  0  0  0  0  0  0  0
   -6.9830   18.9190  -33.0030 N   0  0  0  0  0  0  0  0  0  0  0  0
   -5.8070   19.4840  -33.6920 C   0  0  0  0  0  0  0  0  0  0  0  0
   -5.1760   20.6410  -32.9070 C   0  0  0  0  0  0  0  0  0  0  0  0
   -6.2050   21.6090  -32.3670 C   0  0  0  0  0  0  0  0  0  0  0  0
   -7.5730   21.2500  -32.3330 C   0  0  0  0  0  0  0  0  0  0  0  0
   -8.5260   22.1770  -31.8860 C   0  0  0  0  0  0  0  0  0  0  0  0
   -8.1340   23.4450  -31.4610 C   0  0  0  0  0  0  0  0  0  0  0  0
   -6.7870   23.7980  -31.4650 C   0  0  0  0  0  0  0  0  0  0  0  0
   -5.8130   22.8810  -31.8770 C   0  0  0  0  0  0  0  0  0  0  0  0
   -4.4380   23.2810  -31.8150 N   0  0  0  0  0  0  0  0  0  0  0  0
   -3.8320   24.0090  -30.7360 C   0  0  0  0  0  0  0  0  0  0  0  0
   -3.8420   25.2670  -30.7800 O   0  0  0  0  0  0  0  0  0  0  0  0
   -3.2340   23.3240  -29.5640 C   0  0  0  0  0  0  0  0  0  0  0  0
   -3.6380   22.0210  -29.2220 C   0  0  0  0  0  0  0  0  0  0  0  0
   -3.0670   21.3620  -28.1310 C   0  0  0  0  0  0  0  0  0  0  0  0
   -2.0930   22.0000  -27.3600 C   0  0  0  0  0  0  0  0  0  0  0  0
   -1.6950   23.3000  -27.6750 C   0  0  0  0  0  0  0  0  0  0  0  0
   -2.2590   23.9690  -28.7710 C   0  0  0  0  0  0  0  0  0  0  0  0
   -1.8380   25.2610  -29.0850 O   0  0  0  0  0  0  0  0  0  0  0  0
   -8.0560   19.9230  -32.8770 C   0  0  0  0  0  0  0  0  0  0  0  0
   -7.0022   18.9538  -30.8911 H   0  0  0  0  0  0  0  0  0  0  0  0
   -7.1264   17.3209  -31.6293 H   0  0  0  0  0  0  0  0  0  0  0  0
   -5.5540   18.1893  -31.6293 H   0  0  0  0  0  0  0  0  0  0  0  0
   -5.0557   18.6906  -33.8188 H   0  0  0  0  0  0  0  0  0  0  0  0
   -6.1414   19.8776  -34.6632 H   0  0  0  0  0  0  0  0  0  0  0  0
   -4.6072   20.2246  -32.0626 H   0  0  0  0  0  0  0  0  0  0  0  0
   -4.5271   21.1975  -33.5992 H   0  0  0  0  0  0  0  0  0  0  0  0
   -9.5907   21.9011  -31.8708 H   0  0  0  0  0  0  0  0  0  0  0  0
   -8.8901   24.1684  -31.1217 H   0  0  0  0  0  0  0  0  0  0  0  0
   -6.4860   24.8054  -31.1418 H   0  0  0  0  0  0  0  0  0  0  0  0
   -4.4112   21.5160  -29.8196 H   0  0  0  0  0  0  0  0  0  0  0  0
   -3.3848   20.3395  -27.8788 H   0  0  0  0  0  0  0  0  0  0  0  0
   -1.6396   21.4780  -26.5045 H   0  0  0  0  0  0  0  0  0  0  0  0
   -0.9343   23.8030  -27.0599 H   0  0  0  0  0  0  0  0  0  0  0  0
   -2.0220   25.6740  -29.9920 H   0  0  0  0  0  0  0  0  0  0  0  0
   -8.8266   19.5273  -32.1990 H   0  0  0  0  0  0  0  0  0  0  0  0
   -8.4489   20.1086  -33.8875 H   0  0  0  0  0  0  0  0  0  0  0  0
  1  2  1  0
  2  3  1  0
  3  4  1  0
  4  5  1  0
  5  6  2  0
  6  7  1  0
  7  8  2  0
  8  9  1  0
  9 10  2  0
 10 11  1  0
 11 12  1  0
 12 13  2  0
 12 14  1  0
 14 15  2  0
 15 16  1  0
 16 17  2  0
 17 18  1  0
 18 19  2  0
 19 20  1  0
  6 21  1  0
 21  2  1  0
 10  5  1  0
 19 14  1  0
  1 22  1  0
  1 23  1  0
  1 24  1  0
  3 25  1  0
  3 26  1  0
  4 27  1  0
  4 28  1  0
  7 29  1  0
  8 30  1  0
  9 31  1  0
 15 32  1  0
 16 33  1  0
 17 34  1  0
 18 35  1  0
 20 36  1  0
 21 37  1  0
 21 38  1  0
M  CHG  1  11  -1
M  END
>  <UniqueID>  (30) 
30

>  <SMILES>  (30) 
CN1CCc2c(cccc2[N-]C(=O)c2ccccc2O)C1

>  <Energy>  (30) 
55.47196769141033

>  <Genealogy>  (30) 
CN1CCc2c(cccc2[N-]C(=O)c2ccccc2O)C1 (protonated)
CN1CCc2c(cccc2[N-]C(=O)c2ccccc2O)C1 (3D coordinates assigned)
CN1CCc2c(cccc2[N-]C(=O)c2ccccc2O)C1 (nonaromatic ring conformer: 55.47196769141033 kcal/mol)

>  <smiles>  (30) 
CN1CCc2c(cccc2NC(=O)c2ccccc2O)C1

>  <score_type>  (30) 
oracle

>  <origin>  (30) 
adgpu

>  <m_score__min__energy>  (30) 
-10.07

>  <m_primary>  (30) 
energy

$$$$
30:0
     RDKit          3D

 30 32  0  0  0  0  0  0  0  0999 V2000
   -6.8160   16.8520  -33.0900 C   0  0  0  0  0  0  0  0  0  0  0  0
   -7.1850   18.0830  -33.6960 O   0  0  0  0  0  0  0  0  0  0  0  0
   -7.1470   19.2820  -32.9830 C   0  0  0  0  0  0  0  0  0  0  0  0
   -8.3360   19.9580  -32.6290 C   0  0  0  0  0  0  0  0  0  0  0  0
   -9.5830   19.4500  -32.9890 O   0  0  0  0  0  0  0  0  0  0  0  0
   -8.2730   21.1650  -31.8980 C   0  0  0  0  0  0  0  0  0  0  0  0
   -7.0350   21.7110  -31.5150 C   0  0  0  0  0  0  0  0  0  0  0  0
   -5.8750   21.0320  -31.8920 C   0  0  0  0  0  0  0  0  0  0  0  0
   -4.5290   21.2720  -31.6350 C   0  0  0  0  0  0  0  0  0  0  0  0
   -3.9290   22.4220  -30.9290 C   0  0  0  0  0  0  0  0  0  0  0  0
   -4.6140   23.6440  -30.8080 C   0  0  0  0  0  0  0  0  0  0  0  0
   -4.0170   24.7240  -30.1510 C   0  0  0  0  0  0  0  0  0  0  0  0
   -2.7280   24.6000  -29.6230 C   0  0  0  0  0  0  0  0  0  0  0  0
   -2.1380   25.6750  -28.9700 O   0  0  0  0  0  0  0  0  0  0  0  0
   -2.0320   23.3950  -29.7590 C   0  0  0  0  0  0  0  0  0  0  0  0
   -2.6260   22.3120  -30.4160 C   0  0  0  0  0  0  0  0  0  0  0  0
   -3.8180   20.2710  -32.1240 O   0  0  0  0  0  0  0  0  0  0  0  0
   -4.6320   19.4100  -32.6970 C   0  0  0  0  0  0  0  0  0  0  0  0
   -4.2160   18.2300  -33.2990 O   0  0  0  0  0  0  0  0  0  0  0  0
   -5.9330   19.8480  -32.5820 C   0  0  0  0  0  0  0  0  0  0  0  0
   -6.8478   16.9580  -31.9956 H   0  0  0  0  0  0  0  0  0  0  0  0
   -7.5176   16.0646  -33.4026 H   0  0  0  0  0  0  0  0  0  0  0  0
   -5.7969   16.5804  -33.4026 H   0  0  0  0  0  0  0  0  0  0  0  0
   -9.7230   18.9260  -33.8450 H   0  0  0  0  0  0  0  0  0  0  0  0
   -9.2036   21.6841  -31.6250 H   0  0  0  0  0  0  0  0  0  0  0  0
   -6.9822   22.6448  -30.9359 H   0  0  0  0  0  0  0  0  0  0  0  0
   -5.6234   23.7506  -31.2319 H   0  0  0  0  0  0  0  0  0  0  0  0
   -4.5626   25.6737  -30.0491 H   0  0  0  0  0  0  0  0  0  0  0  0
   -1.0159   23.2983  -29.3488 H   0  0  0  0  0  0  0  0  0  0  0  0
   -2.0700   21.3699  -30.5314 H   0  0  0  0  0  0  0  0  0  0  0  0
  1  2  1  0
  2  3  1  0
  3  4  2  0
  4  5  1  0
  4  6  1  0
  6  7  2  0
  7  8  1  0
  8  9  2  0
  9 10  1  0
 10 11  2  0
 11 12  1  0
 12 13  2  0
 13 14  1  0
 13 15  1  0
 15 16  2  0
  9 17  1  0
 17 18  1  0
 18 19  1  0
 18 20  2  0
 20  3  1  0
 20  8  1  0
 16 10  1  0
  1 21  1  0
  1 22  1  0
  1 23  1  0
  5 24  1  0
  6 25  1  0
  7 26  1  0
 11 27  1  0
 12 28  1  0
 15 29  1  0
 16 30  1  0
M  CHG  2  14  -1  19  -1
M  END
>  <UniqueID>  (31) 
31

>  <SMILES>  (31) 
COc1c(O)ccc2c(-c3ccc([O-])cc3)oc([O-])c12

>  <Energy>  (31) 
79.48347834013786

>  <Genealogy>  (31) 
COc1c(O)ccc2c(-c3ccc([O-])cc3)oc([O-])c12 (protonated)
COc1c(O)ccc2c(-c3ccc([O-])cc3)oc([O-])c12 (3D coordinates assigned)
COc1c(O)ccc2c(-c3ccc([O-])cc3)oc([O-])c12 (optimized conformer: 79.48347834013786 kcal/mol)

>  <smiles>  (31) 
COc1c(O)ccc2c(-c3ccc(O)cc3)oc(O)c12

>  <score_type>  (31) 
oracle

>  <origin>  (31) 
adgpu

>  <m_score__min__energy>  (31) 
-9.0899999999999999

>  <m_primary>  (31) 
energy

$$$$
31:0
     RDKit          3D

 33 35  0  0  0  0  0  0  0  0999 V2000
   -3.9370   17.5360  -33.0960 C   0  0  0  0  0  0  0  0  0  0  0  0
   -5.0520   17.0850  -34.4090 S   0  0  0  0  0  0  0  0  0  0  0  0
   -4.3340   17.0820  -35.7280 O   0  0  0  0  0  0  0  0  0  0  0  0
   -5.5770   15.7040  -34.1410 O   0  0  0  0  0  0  0  0  0  0  0  0
   -6.3890   18.1880  -34.4620 N   0  0  0  0  0  0  0  0  0  0  0  0
   -6.8850   18.9640  -33.3620 C   0  0  0  0  0  0  0  0  0  0  0  0
   -8.0610   18.6170  -32.6710 C   0  0  0  0  0  0  0  0  0  0  0  0
   -8.5120   19.4030  -31.6070 C   0  0  0  0  0  0  0  0  0  0  0  0
   -7.7960   20.5370  -31.2190 C   0  0  0  0  0  0  0  0  0  0  0  0
   -6.6180   20.8890  -31.8920 C   0  0  0  0  0  0  0  0  0  0  0  0
   -5.8710   22.0960  -31.4840 C   0  0  0  0  0  0  0  0  0  0  0  0
   -6.5210   23.3370  -31.5950 C   0  0  0  0  0  0  0  0  0  0  0  0
   -7.7990   23.4060  -32.0490 F   0  0  0  0  0  0  0  0  0  0  0  0
   -5.8630   24.5180  -31.2520 C   0  0  0  0  0  0  0  0  0  0  0  0
   -4.5460   24.4830  -30.7930 C   0  0  0  0  0  0  0  0  0  0  0  0
   -3.9050   25.6730  -30.4610 O   0  0  0  0  0  0  0  0  0  0  0  0
   -3.8780   23.2600  -30.6670 C   0  0  0  0  0  0  0  0  0  0  0  0
   -2.5960   23.2440  -30.2140 N   0  0  0  0  0  0  0  0  0  0  0  0
   -1.9170   22.0810  -30.0680 C   0  0  0  0  0  0  0  0  0  0  0  0
   -2.5140   20.9030  -30.3690 N   0  0  0  0  0  0  0  0  0  0  0  0
   -3.7920   20.8490  -30.8260 C   0  0  0  0  0  0  0  0  0  0  0  0
   -4.2920   19.7200  -31.0740 O   0  0  0  0  0  0  0  0  0  0  0  0
   -4.5300   22.0460  -31.0040 C   0  0  0  0  0  0  0  0  0  0  0  0
   -6.1690   20.1040  -32.9670 C   0  0  0  0  0  0  0  0  0  0  0  0
   -5.0350   20.4480  -33.6300 F   0  0  0  0  0  0  0  0  0  0  0  0
   -4.4163   17.3421  -32.1251 H   0  0  0  0  0  0  0  0  0  0  0  0
   -3.0161   16.9396  -33.1759 H   0  0  0  0  0  0  0  0  0  0  0  0
   -3.6897   18.6049  -33.1759 H   0  0  0  0  0  0  0  0  0  0  0  0
   -8.6279   17.7229  -32.9698 H   0  0  0  0  0  0  0  0  0  0  0  0
   -9.4338   19.1274  -31.0737 H   0  0  0  0  0  0  0  0  0  0  0  0
   -8.1569   21.1552  -30.3838 H   0  0  0  0  0  0  0  0  0  0  0  0
   -6.3851   25.4818  -31.3439 H   0  0  0  0  0  0  0  0  0  0  0  0
   -0.8789   22.0933  -29.7043 H   0  0  0  0  0  0  0  0  0  0  0  0
  1  2  1  0
  2  3  2  0
  2  4  2  0
  2  5  1  0
  5  6  1  0
  6  7  2  0
  7  8  1  0
  8  9  2  0
  9 10  1  0
 10 11  1  0
 11 12  2  0
 12 13  1  0
 12 14  1  0
 14 15  2  0
 15 16  1  0
 15 17  1  0
 17 18  1  0
 18 19  2  0
 19 20  1  0
 20 21  1  0
 21 22  2  0
 21 23  1  0
 10 24  2  0
 24 25  1  0
 24  6  1  0
 23 11  1  0
 23 17  2  0
  1 26  1  0
  1 27  1  0
  1 28  1  0
  7 29  1  0
  8 30  1  0
  9 31  1  0
 14 32  1  0
 19 33  1  0
M  CHG  3   5  -1  16  -1  20  -1
M  END
>  <UniqueID>  (32) 
32

>  <SMILES>  (32) 
CS(=O)(=O)[N-]c1cccc(-c2c(F)cc([O-])c3nc[n-]c(=O)c23)c1F

>  <Energy>  (32) 
52.06062715084038

>  <Genealogy>  (32) 
CS(=O)(=O)[N-]c1cccc(-c2c(F)cc([O-])c3nc[n-]c(=O)c23)c1F (protonated)
CS(=O)(=O)[N-]c1cccc(-c2c(F)cc([O-])c3nc[n-]c(=O)c23)c1F (3D coordinates assigned)
CS(=O)(=O)[N-]c1cccc(-c2c(F)cc([O-])c3nc[n-]c(=O)c23)c1F (optimized conformer: 52.06062715084038 kcal/mol)

>  <smiles>  (32) 
CS(=O)(=O)Nc1cccc(-c2c(F)cc(O)c3nc[nH]c(=O)c23)c1F

>  <score_type>  (32) 
oracle

>  <origin>  (32) 
adgpu

>  <m_score__min__energy>  (32) 
-11.119999999999999

>  <m_primary>  (32) 
energy

$$$$
32:0
     RDKit          3D

 45 48  0  0  0  0  0  0  0  0999 V2000
   -4.3606   15.9937  -32.4190 H   0  0  0  0  0  0  0  0  0  0  0  0
   -4.7970   16.6720  -33.1670 C   0  0  0  0  0  0  0  0  0  0  0  0
   -5.6490   17.6760  -32.8320 N   0  0  0  0  0  0  0  0  0  0  0  0
   -6.0460   18.3680  -33.9220 C   0  0  0  0  0  0  0  0  0  0  0  0
   -6.8640   19.3740  -33.8830 N   0  0  0  0  0  0  0  0  0  0  0  0
   -7.5650   19.9680  -32.4130 S   0  0  0  0  0  0  0  0  0  0  0  0
   -8.7210   20.8680  -32.7520 O   0  0  0  0  0  0  0  0  0  0  0  0
   -8.0670   18.8090  -31.6010 O   0  0  0  0  0  0  0  0  0  0  0  0
   -6.3550   20.8430  -31.4790 C   0  0  0  0  0  0  0  0  0  0  0  0
   -5.0900   20.2800  -31.2730 C   0  0  0  0  0  0  0  0  0  0  0  0
   -4.8568   19.2894  -31.6906 H   0  0  0  0  0  0  0  0  0  0  0  0
   -4.1220   20.9710  -30.5390 C   0  0  0  0  0  0  0  0  0  0  0  0
   -3.1317   20.5200  -30.3783 H   0  0  0  0  0  0  0  0  0  0  0  0
   -4.4080   22.2400  -30.0050 C   0  0  0  0  0  0  0  0  0  0  0  0
   -3.4390   22.9620  -29.2260 N   0  0  0  0  0  0  0  0  0  0  0  0
   -3.1460   22.5520  -28.3100 H   0  0  0  0  0  0  0  0  0  0  0  0
   -2.9440   24.2670  -29.5690 C   0  0  0  0  0  0  0  0  0  0  0  0
   -3.5240   24.9570  -30.4500 O   0  0  0  0  0  0  0  0  0  0  0  0
   -1.7790   24.8270  -28.8640 C   0  0  0  0  0  0  0  0  0  0  0  0
   -1.6140   26.1350  -28.5970 N   0  0  0  0  0  0  0  0  0  0  0  0
   -0.4680   26.2860  -27.9510 N   0  0  0  0  0  0  0  0  0  0  0  0
    0.1060   25.0740  -27.8010 C   0  0  0  0  0  0  0  0  0  0  0  0
    1.4060   24.8590  -27.1190 C   0  0  0  0  0  0  0  0  0  0  0  0
    2.4260   24.1410  -27.7700 C   0  0  0  0  0  0  0  0  0  0  0  0
    2.2550   23.7468  -28.7826 H   0  0  0  0  0  0  0  0  0  0  0  0
    3.6530   23.9250  -27.1410 C   0  0  0  0  0  0  0  0  0  0  0  0
    4.4421   23.3618  -27.6607 H   0  0  0  0  0  0  0  0  0  0  0  0
    3.8850   24.4200  -25.8550 C   0  0  0  0  0  0  0  0  0  0  0  0
    5.1120   24.1860  -25.2440 O   0  0  0  0  0  0  0  0  0  0  0  0
    2.8820   25.1450  -25.1900 C   0  0  0  0  0  0  0  0  0  0  0  0
    3.1210   25.6670  -23.8010 C   0  0  0  0  0  0  0  0  0  0  0  0
    2.7803   24.9229  -23.0660 H   0  0  0  0  0  0  0  0  0  0  0  0
    4.1954   25.8562  -23.6602 H   0  0  0  0  0  0  0  0  0  0  0  0
    2.5622   26.6040  -23.6602 H   0  0  0  0  0  0  0  0  0  0  0  0
    1.6450   25.3550  -25.8240 C   0  0  0  0  0  0  0  0  0  0  0  0
    0.8545   25.9137  -25.3016 H   0  0  0  0  0  0  0  0  0  0  0  0
   -0.7070   24.1110  -28.3740 C   0  0  0  0  0  0  0  0  0  0  0  0
   -0.5371   23.0255  -28.4264 H   0  0  0  0  0  0  0  0  0  0  0  0
   -5.6870   22.7850  -30.1890 C   0  0  0  0  0  0  0  0  0  0  0  0
   -5.9313   23.7635  -29.7498 H   0  0  0  0  0  0  0  0  0  0  0  0
   -6.6540   22.0950  -30.9260 C   0  0  0  0  0  0  0  0  0  0  0  0
   -7.6512   22.5358  -31.0719 H   0  0  0  0  0  0  0  0  0  0  0  0
   -5.3670   17.7720  -35.3350 S   0  0  0  0  0  0  0  0  0  0  0  0
   -4.5170   16.5650  -34.5260 C   0  0  0  0  0  0  0  0  0  0  0  0
   -3.8546   15.8202  -34.9913 H   0  0  0  0  0  0  0  0  0  0  0  0
  1  2  1  0
  2  3  1  0
  3  4  1  0
  4  5  2  0
  5  6  1  0
  6  7  2  0
  6  8  2  0
  6  9  1  0
  9 10  2  0
 10 11  1  0
 10 12  1  0
 12 13  1  0
 12 14  2  0
 14 15  1  0
 15 16  1  0
 15 17  1  0
 17 18  2  0
 17 19  1  0
 19 20  1  0
 20 21  1  0
 21 22  2  0
 22 23  1  0
 23 24  2  0
 24 25  1  0
 24 26  1  0
 26 27  1  0
 26 28  2  0
 28 29  1  0
 28 30  1  0
 30 31  1  0
 31 32  1  0
 31 33  1  0
 31 34  1  0
 30 35  2  0
 35 36  1  0
 22 37  1  0
 37 38  1  0
 14 39  1  0
 39 40  1  0
 39 41  2  0
 41 42  1  0
  4 43  1  0
 43 44  1  0
 44 45  1  0
 44  2  2  0
 41  9  1  0
 37 19  2  0
 35 23  1  0
M  CHG  3   3  -1  20  -1  29  -1
M  END
>  <UniqueID>  (33) 
33

>  <SMILES>  (33) 
Cc1cc(-c2cc(C(=O)Nc3ccc(S(=O)(=O)/N=c4\[n-]ccs4)cc3)[n-]n2)ccc1[O-]

>  <Energy>  (33) 
115.86189383962008

>  <Genealogy>  (33) 
Cc1cc(-c2cc(C(=O)Nc3ccc(S(=O)(=O)N=c4[n-]ccs4)cc3)[n-]n2)ccc1[O-] (protonated)
Cc1cc(-c2cc(C(=O)Nc3ccc(S(=O)(=O)/N=c4\[n-]ccs4)cc3)[n-]n2)ccc1[O-] (cis-trans isomerization)
Cc1cc(-c2cc(C(=O)Nc3ccc(S(=O)(=O)/N=c4\[n-]ccs4)cc3)[n-]n2)ccc1[O-] (3D coordinates assigned)
Cc1cc(-c2cc(C(=O)Nc3ccc(S(=O)(=O)/N=c4\[n-]ccs4)cc3)[n-]n2)ccc1[O-] (optimized conformer: 115.86189383962008 kcal/mol)

>  <smiles>  (33) 
Cc1cc(-c2cc(C(=O)Nc3ccc(S(=O)(=O)N=c4[nH]ccs4)cc3)[nH]n2)ccc1O

>  <score_type>  (33) 
oracle

>  <origin>  (33) 
adgpu

>  <m_score__min__energy>  (33) 
-11.57

>  <m_primary>  (33) 
energy

$$$$
33:0
     RDKit          3D

 59 62  0  0  1  0  0  0  0  0999 V2000
   -0.9000   16.0110  -35.7790 C   0  0  0  0  0  0  0  0  0  0  0  0
   -2.0810   16.2060  -34.8740 C   0  0  0  0  0  0  0  0  0  0  0  0
   -1.9260   15.8970  -33.6820 O   0  0  0  0  0  0  0  0  0  0  0  0
   -3.2990   16.7180  -35.3820 N   0  0  0  0  0  0  0  0  0  0  0  0
   -4.4730   16.9510  -34.6640 C   0  0  0  0  0  0  0  0  0  0  0  0
   -5.0990   18.1600  -34.4900 C   0  0  0  0  0  0  0  0  0  0  0  0
   -6.2680   18.3200  -33.7600 C   0  0  0  0  0  0  0  0  0  0  0  0
   -6.8590   19.5920  -33.6150 N   0  0  0  0  0  0  0  0  0  0  0  0
   -6.2470   20.6860  -32.9430 C   0  0  0  0  0  0  0  0  0  0  0  0
   -4.9830   21.1320  -33.3000 C   0  0  0  0  0  0  0  0  0  0  0  0
   -4.3650   22.1910  -32.6750 C   0  0  0  0  0  0  0  0  0  0  0  0
   -5.0270   22.8470  -31.6410 C   0  0  0  0  0  0  0  0  0  0  0  0
   -4.3480   23.9260  -31.0340 N   0  0  0  0  0  0  0  0  0  0  0  0
   -3.6830   23.6810  -29.9580 C   0  0  0  0  0  0  0  0  0  0  0  0
   -3.5970   22.4440  -29.3690 C   0  0  0  0  0  0  0  0  0  0  0  0
   -2.8490   22.3190  -28.2140 C   0  0  0  0  0  0  0  0  0  0  0  0
   -2.7180   21.0260  -27.5390 C   0  0  0  0  0  0  0  0  0  0  0  0
   -2.2300   23.4140  -27.7030 N   0  0  0  0  0  0  0  0  0  0  0  0
   -2.3140   24.6170  -28.2750 C   0  0  0  0  0  0  0  0  0  0  0  0
   -1.7110   25.6350  -27.7580 N   0  0  0  0  0  0  0  0  0  0  0  0
   -0.9400   25.5080  -26.5670 C   0  0  0  0  0  0  0  0  0  0  0  0
    0.1190   24.6530  -26.4720 C   0  0  0  0  0  0  0  0  0  0  0  0
    0.8910   24.4990  -25.3370 C   0  0  0  0  0  0  0  0  0  0  0  0
    0.5720   25.2690  -24.2120 C   0  0  0  0  0  0  0  0  0  0  0  0
   -0.5050   26.1470  -24.2930 C   0  0  0  0  0  0  0  0  0  0  0  0
   -0.7810   26.9020  -23.1160 N   0  0  0  0  0  0  0  0  0  0  0  0
   -1.2410   26.2650  -25.4350 C   0  0  0  0  0  0  0  0  0  0  0  0
   -3.0430   24.7360  -29.4000 N   0  0  0  0  0  0  0  0  0  0  0  0
   -6.2700   22.4030  -31.2950 C   0  0  0  0  0  0  0  0  0  0  0  0
   -6.9120   21.3440  -31.9060 C   0  0  0  0  0  0  0  0  0  0  0  0
   -8.5200   20.8550  -31.3910 Cl  0  0  0  0  0  0  0  0  0  0  0  0
   -6.8630   17.2310  -33.1630 C   0  0  0  0  0  0  0  0  0  0  0  0
   -6.2460   16.0120  -33.3300 C   0  0  0  0  0  0  0  0  0  0  0  0
   -5.0850   15.8580  -34.0550 C   0  0  0  0  0  0  0  0  0  0  0  0
   -4.5370   14.5670  -34.1620 O   0  0  0  0  0  0  0  0  0  0  0  0
    0.0057   15.8615  -35.1729 H   0  0  0  0  0  0  0  0  0  0  0  0
   -1.0663   15.1282  -36.4138 H   0  0  0  0  0  0  0  0  0  0  0  0
   -0.7737   16.9004  -36.4138 H   0  0  0  0  0  0  0  0  0  0  0  0
   -3.2870   16.9390  -36.4230 H   0  0  0  0  0  0  0  0  0  0  0  0
   -4.6496   19.0502  -34.9544 H   0  0  0  0  0  0  0  0  0  0  0  0
   -7.8140   19.7840  -34.0140 H   0  0  0  0  0  0  0  0  0  0  0  0
   -4.4531   20.6184  -34.1157 H   0  0  0  0  0  0  0  0  0  0  0  0
   -3.3615   22.5147  -32.9883 H   0  0  0  0  0  0  0  0  0  0  0  0
   -4.1104   21.5745  -29.8054 H   0  0  0  0  0  0  0  0  0  0  0  0
   -2.7334   21.1778  -26.4496 H   0  0  0  0  0  0  0  0  0  0  0  0
   -3.5547   20.3739  -27.8302 H   0  0  0  0  0  0  0  0  0  0  0  0
   -1.7675   20.5550  -27.8302 H   0  0  0  0  0  0  0  0  0  0  0  0
   -1.6700   23.3020  -26.8300 H   0  0  0  0  0  0  0  0  0  0  0  0
    0.3740   24.0483  -27.3548 H   0  0  0  0  0  0  0  0  0  0  0  0
    1.7328   23.7912  -25.3175 H   0  0  0  0  0  0  0  0  0  0  0  0
    1.1589   25.1821  -23.2857 H   0  0  0  0  0  0  0  0  0  0  0  0
   -1.6320   27.5060  -23.0340 H   0  0  0  0  0  0  0  0  0  0  0  0
   -0.0730   26.8150  -22.3320 H   0  0  0  0  0  0  0  0  0  0  0  0
   -2.0859   26.9688  -25.4638 H   0  0  0  0  0  0  0  0  0  0  0  0
   -3.0980   25.6760  -29.8320 H   0  0  0  0  0  0  0  0  0  0  0  0
   -6.7935   22.9212  -30.4781 H   0  0  0  0  0  0  0  0  0  0  0  0
   -7.7897   17.3308  -32.5789 H   0  0  0  0  0  0  0  0  0  0  0  0
   -6.6989   15.1239  -32.8652 H   0  0  0  0  0  0  0  0  0  0  0  0
   -3.5500   14.5070  -33.9120 H   0  0  0  0  0  0  0  0  0  0  0  0
  1  2  1  0
  2  3  2  0
  2  4  1  0
  4  5  1  0
  5  6  2  0
  6  7  1  0
  7  8  1  0
  8  9  1  0
  9 10  2  0
 10 11  1  0
 11 12  2  0
 12 13  1  0
 13 14  2  0
 14 15  1  0
 15 16  2  0
 16 17  1  0
 16 18  1  0
 18 19  1  0
 19 20  2  0
 20 21  1  0
 21 22  2  0
 22 23  1  0
 23 24  2  0
 24 25  1  0
 25 26  1  0
 25 27  2  0
 19 28  1  0
 12 29  1  0
 29 30  2  0
 30 31  1  0
  7 32  2  0
 32 33  1  0
 33 34  2  0
 34 35  1  0
 34  5  1  0
 30  9  1  0
 28 14  1  0
 27 21  1  0
  1 36  1  0
  1 37  1  0
  1 38  1  0
  4 39  1  0
  6 40  1  0
  8 41  1  0
 10 42  1  0
 11 43  1  0
 15 44  1  0
 17 45  1  0
 17 46  1  0
 17 47  1  0
 18 48  1  0
 22 49  1  0
 23 50  1  0
 24 51  1  0
 26 52  1  0
 26 53  1  0
 27 54  1  0
 28 55  1  0
 29 56  1  0
 32 57  1  0
 33 58  1  0
 35 59  1  0
M  END
>  <smiles>  (34) 
CC(=O)Nc1cc(Nc2ccc(N=c3cc(C)[nH]c(=Nc4cccc(N)c4)[nH]3)cc2Cl)ccc1O

>  <score_type>  (34) 
oracle

>  <origin>  (34) 
adgpu

>  <m_score__min__energy>  (34) 
-10.609999999999999

>  <m_primary>  (34) 
energy

$$$$
34:0
     RDKit          3D

 36 37  0  0  0  0  0  0  0  0999 V2000
   -9.4990   21.7740  -31.3550 C   0  0  0  0  0  0  0  0  0  0  0  0
   -8.9460   23.0440  -31.9930 C   0  0  0  0  0  0  0  0  0  0  0  0
   -7.6120   23.2920  -31.5500 O   0  0  0  0  0  0  0  0  0  0  0  0
   -6.4640   22.5860  -31.9520 C   0  0  0  0  0  0  0  0  0  0  0  0
   -6.5390   21.4050  -32.7180 C   0  0  0  0  0  0  0  0  0  0  0  0
   -5.3760   20.7330  -33.0990 C   0  0  0  0  0  0  0  0  0  0  0  0
   -4.1190   21.2300  -32.7340 C   0  0  0  0  0  0  0  0  0  0  0  0
   -2.8730   20.4840  -33.1090 C   0  0  0  0  0  0  0  0  0  0  0  0
   -4.0380   22.3960  -31.9600 C   0  0  0  0  0  0  0  0  0  0  0  0
   -5.2000   23.0810  -31.5790 C   0  0  0  0  0  0  0  0  0  0  0  0
   -5.0650   24.5660  -30.6310 S   0  0  0  0  0  0  0  0  0  0  0  0
   -5.6850   25.6930  -31.4070 O   0  0  0  0  0  0  0  0  0  0  0  0
   -5.7800   24.4290  -29.3150 O   0  0  0  0  0  0  0  0  0  0  0  0
   -3.3970   24.9340  -30.3300 N   0  0  0  0  0  0  0  0  0  0  0  0
   -2.6200   24.4200  -29.2380 C   0  0  0  0  0  0  0  0  0  0  0  0
   -2.9120   23.1820  -28.6350 C   0  0  0  0  0  0  0  0  0  0  0  0
   -2.1240   22.7100  -27.5800 C   0  0  0  0  0  0  0  0  0  0  0  0
   -1.0460   23.4670  -27.1170 C   0  0  0  0  0  0  0  0  0  0  0  0
   -0.7530   24.6990  -27.7060 C   0  0  0  0  0  0  0  0  0  0  0  0
   -1.5370   25.1760  -28.7630 C   0  0  0  0  0  0  0  0  0  0  0  0
   -1.2320   26.4020  -29.3430 O   0  0  0  0  0  0  0  0  0  0  0  0
   -9.4587   21.8664  -30.2596 H   0  0  0  0  0  0  0  0  0  0  0  0
  -10.5420   21.6283  -31.6726 H   0  0  0  0  0  0  0  0  0  0  0  0
   -8.8951   20.9112  -31.6726 H   0  0  0  0  0  0  0  0  0  0  0  0
   -8.9475   22.9286  -33.0869 H   0  0  0  0  0  0  0  0  0  0  0  0
   -9.5801   23.8929  -31.6976 H   0  0  0  0  0  0  0  0  0  0  0  0
   -7.5209   21.0100  -33.0177 H   0  0  0  0  0  0  0  0  0  0  0  0
   -5.4477   19.8076  -33.6894 H   0  0  0  0  0  0  0  0  0  0  0  0
   -2.3459   20.1684  -32.1965 H   0  0  0  0  0  0  0  0  0  0  0  0
   -3.1410   19.5976  -33.7028 H   0  0  0  0  0  0  0  0  0  0  0  0
   -2.2183   21.1388  -33.7028 H   0  0  0  0  0  0  0  0  0  0  0  0
   -3.0540   22.7767  -31.6490 H   0  0  0  0  0  0  0  0  0  0  0  0
   -3.7624   22.5840  -28.9945 H   0  0  0  0  0  0  0  0  0  0  0  0
   -2.3541   21.7404  -27.1142 H   0  0  0  0  0  0  0  0  0  0  0  0
   -0.4273   23.0929  -26.2880 H   0  0  0  0  0  0  0  0  0  0  0  0
    0.0952   25.2954  -27.3387 H   0  0  0  0  0  0  0  0  0  0  0  0
  1  2  1  0
  2  3  1  0
  3  4  1  0
  4  5  2  0
  5  6  1  0
  6  7  2  0
  7  8  1  0
  7  9  1  0
  9 10  2  0
 10 11  1  0
 11 12  2  0
 11 13  2  0
 11 14  1  0
 14 15  1  0
 15 16  2  0
 16 17  1  0
 17 18  2  0
 18 19  1  0
 19 20  2  0
 20 21  1  0
 10  4  1  0
 20 15  1  0
  1 22  1  0
  1 23  1  0
  1 24  1  0
  2 25  1  0
  2 26  1  0
  5 27  1  0
  6 28  1  0
  8 29  1  0
  8 30  1  0
  8 31  1  0
  9 32  1  0
 16 33  1  0
 17 34  1  0
 18 35  1  0
 19 36  1  0
M  CHG  2  14  -1  21  -1
M  END
>  <UniqueID>  (35) 
34

>  <SMILES>  (35) 
CCOc1ccc(C)cc1S(=O)(=O)[N-]c1ccccc1[O-]

>  <Energy>  (35) 
36.96647338731793

>  <Genealogy>  (35) 
CCOc1ccc(C)cc1S(=O)(=O)[N-]c1ccccc1[O-] (protonated)
CCOc1ccc(C)cc1S(=O)(=O)[N-]c1ccccc1[O-] (3D coordinates assigned)
CCOc1ccc(C)cc1S(=O)(=O)[N-]c1ccccc1[O-] (optimized conformer: 36.96647338731793 kcal/mol)

>  <smiles>  (35) 
CCOc1ccc(C)cc1S(=O)(=O)Nc1ccccc1O

>  <score_type>  (35) 
oracle

>  <origin>  (35) 
adgpu

>  <m_score__min__energy>  (35) 
-12.32

>  <m_primary>  (35) 
energy

$$$$
35:0
     RDKit          3D

 63 67  0  0  0  0  0  0  0  0999 V2000
   -1.7000   21.0330  -27.0580 C   0  0  0  0  0  0  0  0  0  0  0  0
   -2.4860   22.1490  -27.6980 C   0  0  0  0  0  0  0  0  0  0  0  0
   -3.8510   21.9350  -27.9560 C   0  0  0  0  0  0  0  0  0  0  0  0
   -4.6340   22.9370  -28.5260 C   0  0  0  0  0  0  0  0  0  0  0  0
   -4.0760   24.1780  -28.8400 C   0  0  0  0  0  0  0  0  0  0  0  0
   -4.9260   25.1960  -29.3880 N   0  0  0  0  0  0  0  0  0  0  0  0
   -5.2990   25.2940  -30.7680 C   0  0  0  0  0  0  0  0  0  0  0  0
   -5.7330   26.3860  -31.2090 O   0  0  0  0  0  0  0  0  0  0  0  0
   -5.1310   24.1920  -31.6690 N   0  0  0  0  0  0  0  0  0  0  0  0
   -5.9540   23.0170  -31.6620 C   0  0  0  0  0  0  0  0  0  0  0  0
   -7.1900   23.0600  -31.0150 C   0  0  0  0  0  0  0  0  0  0  0  0
   -8.0110   21.9360  -30.9950 C   0  0  0  0  0  0  0  0  0  0  0  0
   -7.6270   20.7580  -31.6460 C   0  0  0  0  0  0  0  0  0  0  0  0
   -8.7650   19.4230  -31.6000 Cl  0  0  0  0  0  0  0  0  0  0  0  0
   -6.3810   20.6980  -32.3180 C   0  0  0  0  0  0  0  0  0  0  0  0
   -5.8330   19.2630  -33.2130 S   0  0  0  0  0  0  0  0  0  0  0  0
   -6.5980   18.0680  -32.7150 O   0  0  0  0  0  0  0  0  0  0  0  0
   -6.0690   19.3780  -34.6920 O   0  0  0  0  0  0  0  0  0  0  0  0
   -4.0790   19.0360  -32.9000 C   0  0  1  0  0  0  0  0  0  0  0  0
   -3.2240   19.5020  -34.1070 C   0  0  0  0  0  0  0  0  0  0  0  0
   -1.7080   19.2340  -33.8960 C   0  0  0  0  0  0  0  0  0  0  0  0
   -1.3540   19.1000  -32.4010 C   0  0  1  0  0  0  0  0  0  0  0  0
    0.0750   19.3440  -32.0390 C   0  0  0  0  0  0  0  0  0  0  0  0
    1.0300   18.6120  -32.4880 N   0  0  0  0  0  0  0  0  0  0  0  0
    0.3150   20.3960  -30.6080 S   0  0  0  0  0  0  0  0  0  0  0  0
   -1.4710   20.2360  -30.2390 C   0  0  0  0  0  0  0  0  0  0  0  0
   -2.1560   20.1140  -31.5960 C   0  0  2  0  0  0  0  0  0  0  0  0
   -3.6480   19.7220  -31.5670 C   0  0  0  0  0  0  0  0  0  0  0  0
   -5.5530   21.8410  -32.3250 C   0  0  0  0  0  0  0  0  0  0  0  0
   -4.3450   21.8220  -33.0170 O   0  0  0  0  0  0  0  0  0  0  0  0
   -2.7010   24.3990  -28.6290 C   0  0  0  0  0  0  0  0  0  0  0  0
   -2.1500   25.6280  -28.9830 O   0  0  0  0  0  0  0  0  0  0  0  0
   -1.8880   23.3840  -28.0700 C   0  0  0  0  0  0  0  0  0  0  0  0
   -0.1560   23.6880  -27.7890 S   0  0  0  0  0  0  0  0  0  0  0  0
    0.5990   22.3850  -27.7850 O   0  0  0  0  0  0  0  0  0  0  0  0
    0.4200   24.5440  -28.8850 O   0  0  0  0  0  0  0  0  0  0  0  0
    0.0070   24.5550  -26.2270 C   0  0  0  0  0  0  0  0  0  0  0  0
   -1.2930   24.9510  -25.5450 C   0  0  0  0  0  0  0  0  0  0  0  0
   -0.4900   23.7730  -25.0240 C   0  0  0  0  0  0  0  0  0  0  0  0
   -1.7623   21.1215  -25.9633 H   0  0  0  0  0  0  0  0  0  0  0  0
   -2.1164   20.0644  -27.3718 H   0  0  0  0  0  0  0  0  0  0  0  0
   -0.6478   21.0988  -27.3718 H   0  0  0  0  0  0  0  0  0  0  0  0
   -4.3064   20.9656  -27.7051 H   0  0  0  0  0  0  0  0  0  0  0  0
   -5.6985   22.7492  -28.7299 H   0  0  0  0  0  0  0  0  0  0  0  0
   -7.5167   23.9858  -30.5189 H   0  0  0  0  0  0  0  0  0  0  0  0
   -8.9723   21.9741  -30.4616 H   0  0  0  0  0  0  0  0  0  0  0  0
   -3.8938   17.9586  -32.7781 H   0  0  0  0  0  0  0  0  0  0  0  0
   -3.5568   18.9617  -35.0055 H   0  0  0  0  0  0  0  0  0  0  0  0
   -3.3611   20.5879  -34.2165 H   0  0  0  0  0  0  0  0  0  0  0  0
   -1.4360   18.3012  -34.4116 H   0  0  0  0  0  0  0  0  0  0  0  0
   -1.1490   20.0885  -34.3050 H   0  0  0  0  0  0  0  0  0  0  0  0
   -1.5838   18.0487  -32.1731 H   0  0  0  0  0  0  0  0  0  0  0  0
    0.8620   17.9000  -33.2100 H   0  0  0  0  0  0  0  0  0  0  0  0
   -1.6594   19.3390  -29.6308 H   0  0  0  0  0  0  0  0  0  0  0  0
   -1.8488   21.0957  -29.6661 H   0  0  0  0  0  0  0  0  0  0  0  0
   -2.1665   21.1161  -32.0495 H   0  0  0  0  0  0  0  0  0  0  0  0
   -3.8194   19.0250  -30.7334 H   0  0  0  0  0  0  0  0  0  0  0  0
   -4.2452   20.6367  -31.4380 H   0  0  0  0  0  0  0  0  0  0  0  0
    0.9300   25.0899  -26.4953 H   0  0  0  0  0  0  0  0  0  0  0  0
   -1.3465   25.8816  -24.9610 H   0  0  0  0  0  0  0  0  0  0  0  0
   -2.3315   25.0992  -25.8760 H   0  0  0  0  0  0  0  0  0  0  0  0
    0.0379   23.8500  -24.0620 H   0  0  0  0  0  0  0  0  0  0  0  0
   -0.7065   22.7138  -24.8209 H   0  0  0  0  0  0  0  0  0  0  0  0
  1  2  1  0
  2  3  2  0
  3  4  1  0
  4  5  2  0
  5  6  1  0
  6  7  1  0
  7  8  2  0
  7  9  1  0
  9 10  1  0
 10 11  2  0
 11 12  1  0
 12 13  2  0
 13 14  1  0
 13 15  1  0
 15 16  1  0
 16 17  2  0
 16 18  2  0
 16 19  1  0
 19 20  1  0
 20 21  1  0
 21 22  1  0
 22 23  1  0
 23 24  2  3
 23 25  1  0
 25 26  1  0
 26 27  1  0
 27 28  1  0
 15 29  2  0
 29 30  1  0
  5 31  1  0
 31 32  1  0
 31 33  2  0
 33 34  1  0
 34 35  2  0
 34 36  2  0
 34 37  1  0
 37 38  1  0
 38 39  1  0
 33  2  1  0
 39 37  1  0
 29 10  1  0
 28 19  1  0
 27 22  1  0
  1 40  1  0
  1 41  1  0
  1 42  1  0
  3 43  1  0
  4 44  1  0
 11 45  1  0
 12 46  1  0
 19 47  1  1
 20 48  1  0
 20 49  1  0
 21 50  1  0
 21 51  1  0
 22 52  1  1
 24 53  1  0
 26 54  1  0
 26 55  1  0
 27 56  1  6
 28 57  1  0
 28 58  1  0
 37 59  1  0
 38 60  1  0
 38 61  1  0
 39 62  1  0
 39 63  1  0
M  CHG  4   6  -1   9  -1  30  -1  32  -1
M  END
>  <UniqueID>  (36) 
35

>  <SMILES>  (36) 
Cc1ccc([N-]C(=O)[N-]c2ccc(Cl)c(S(=O)(=O)[C@H]3CC[C@H]4C(=N)SCC4C3)c2[O-])c([O-])c1S(=O)(=O)C1CC1

>  <Energy>  (36) 
355.3329714896003

>  <Genealogy>  (36) 
Cc1ccc([N-]C(=O)[N-]c2ccc(Cl)c(S(=O)(=O)C3CCC4C(=N)SCC4C3)c2[O-])c([O-])c1S(=O)(=O)C1CC1 (protonated)
Cc1ccc([N-]C(=O)[N-]c2ccc(Cl)c(S(=O)(=O)[C@H]3CC[C@H]4C(=N)SCC4C3)c2[O-])c([O-])c1S(=O)(=O)C1CC1 (chirality)
Cc1ccc([N-]C(=O)[N-]c2ccc(Cl)c(S(=O)(=O)[C@H]3CC[C@H]4C(=N)SCC4C3)c2[O-])c([O-])c1S(=O)(=O)C1CC1 (3D coordinates assigned)
Cc1ccc([N-]C(=O)[N-]c2ccc(Cl)c(S(=O)(=O)[C@H]3CC[C@H]4C(=N)SCC4C3)c2[O-])c([O-])c1S(=O)(=O)C1CC1 (nonaromatic ring conformer: 355.3329714896003 kcal/mol)

>  <smiles>  (36) 
Cc1ccc(NC(=O)Nc2ccc(Cl)c(S(=O)(=O)C3CCC4C(=N)SCC4C3)c2O)c(O)c1S(=O)(=O)C1CC1

>  <score_type>  (36) 
oracle

>  <origin>  (36) 
adgpu

>  <m_score__min__energy>  (36) 
-17.640000000000001

>  <m_primary>  (36) 
energy

$$$$
36:0
     RDKit          3D

 60 62  0  0  0  0  0  0  0  0999 V2000
    0.2920   17.4630  -27.5370 C   0  0  0  0  0  0  0  0  0  0  0  0
    0.9510   18.2390  -28.6000 N   0  0  0  0  0  0  0  0  0  0  0  0
    0.2810   18.0160  -29.8930 C   0  0  0  0  0  0  0  0  0  0  0  0
    0.9450   19.6470  -28.2550 C   0  0  0  0  0  0  0  0  0  0  0  0
    2.0050   20.1870  -27.8300 O   0  0  0  0  0  0  0  0  0  0  0  0
   -0.2670   20.4950  -28.4340 C   0  0  0  0  0  0  0  0  0  0  0  0
   -1.3320   20.4640  -27.5120 C   0  0  0  0  0  0  0  0  0  0  0  0
   -2.4550   21.2730  -27.6980 C   0  0  0  0  0  0  0  0  0  0  0  0
   -2.5400   22.1260  -28.8080 C   0  0  0  0  0  0  0  0  0  0  0  0
   -3.7350   22.9860  -29.0110 C   0  0  0  0  0  0  0  0  0  0  0  0
   -3.8590   24.1810  -28.3930 C   0  0  0  0  0  0  0  0  0  0  0  0
   -2.7870   24.8430  -27.6190 C   0  0  0  0  0  0  0  0  0  0  0  0
   -2.9950   25.1280  -26.2620 C   0  0  0  0  0  0  0  0  0  0  0  0
   -2.0030   25.7700  -25.5140 C   0  0  0  0  0  0  0  0  0  0  0  0
   -0.7980   26.1530  -26.1200 C   0  0  0  0  0  0  0  0  0  0  0  0
    0.4360   26.9730  -25.1690 S   0  0  0  0  0  0  0  0  0  0  0  0
    0.0550   26.8160  -23.4380 C   0  0  0  0  0  0  0  0  0  0  0  0
    1.7770   26.3580  -25.4550 O   0  0  0  0  0  0  0  0  0  0  0  0
    0.4850   28.4340  -25.5260 O   0  0  0  0  0  0  0  0  0  0  0  0
   -0.5980   25.8970  -27.4830 C   0  0  0  0  0  0  0  0  0  0  0  0
   -1.5870   25.2520  -28.2300 C   0  0  0  0  0  0  0  0  0  0  0  0
   -4.8430   22.4740  -29.8660 C   0  0  0  0  0  0  0  0  0  0  0  0
   -6.1480   22.9790  -29.7310 C   0  0  0  0  0  0  0  0  0  0  0  0
   -7.1820   22.5040  -30.5420 C   0  0  0  0  0  0  0  0  0  0  0  0
   -6.9260   21.5190  -31.5130 C   0  0  0  0  0  0  0  0  0  0  0  0
   -7.9540   21.0000  -32.3680 N   0  0  0  0  0  0  0  0  0  0  0  0
   -8.5940   19.3860  -32.3210 S   0  0  0  0  0  0  0  0  0  0  0  0
   -7.3990   18.2320  -32.9670 C   0  0  0  0  0  0  0  0  0  0  0  0
   -8.8920   19.0280  -30.8910 O   0  0  0  0  0  0  0  0  0  0  0  0
   -9.8730   19.3160  -33.1090 O   0  0  0  0  0  0  0  0  0  0  0  0
   -5.6260   21.0250  -31.6560 C   0  0  0  0  0  0  0  0  0  0  0  0
   -4.5920   21.4950  -30.8430 C   0  0  0  0  0  0  0  0  0  0  0  0
   -1.5000   22.1370  -29.7460 C   0  0  0  0  0  0  0  0  0  0  0  0
   -0.3710   21.3330  -29.5580 C   0  0  0  0  0  0  0  0  0  0  0  0
    0.6127   17.8406  -26.5549 H   0  0  0  0  0  0  0  0  0  0  0  0
   -0.7992   17.5656  -27.6309 H   0  0  0  0  0  0  0  0  0  0  0  0
    0.5700   16.4029  -27.6309 H   0  0  0  0  0  0  0  0  0  0  0  0
    1.9340   17.8970  -28.7110 H   0  0  0  0  0  0  0  0  0  0  0  0
   -0.7494   17.6731  -29.7177 H   0  0  0  0  0  0  0  0  0  0  0  0
    0.2624   18.9564  -30.4633 H   0  0  0  0  0  0  0  0  0  0  0  0
    0.8297   17.2520  -30.4633 H   0  0  0  0  0  0  0  0  0  0  0  0
   -1.2784   19.7973  -26.6387 H   0  0  0  0  0  0  0  0  0  0  0  0
   -3.2783   21.2410  -26.9692 H   0  0  0  0  0  0  0  0  0  0  0  0
   -4.8265   24.6984  -28.4712 H   0  0  0  0  0  0  0  0  0  0  0  0
   -3.9439   24.8450  -25.7830 H   0  0  0  0  0  0  0  0  0  0  0  0
   -2.1687   25.9753  -24.4461 H   0  0  0  0  0  0  0  0  0  0  0  0
    0.9093   27.1680  -22.8411 H   0  0  0  0  0  0  0  0  0  0  0  0
   -0.8321   27.4219  -23.2014 H   0  0  0  0  0  0  0  0  0  0  0  0
   -0.1477   25.7611  -23.2014 H   0  0  0  0  0  0  0  0  0  0  0  0
    0.3408   26.2049  -27.9666 H   0  0  0  0  0  0  0  0  0  0  0  0
   -1.4268   25.0628  -29.3017 H   0  0  0  0  0  0  0  0  0  0  0  0
   -6.3570   23.7552  -28.9801 H   0  0  0  0  0  0  0  0  0  0  0  0
   -8.2003   22.9020  -30.4206 H   0  0  0  0  0  0  0  0  0  0  0  0
   -6.8828   17.7335  -32.1333 H   0  0  0  0  0  0  0  0  0  0  0  0
   -7.9123   17.4791  -33.5832 H   0  0  0  0  0  0  0  0  0  0  0  0
   -6.6645   18.7712  -33.5832 H   0  0  0  0  0  0  0  0  0  0  0  0
   -5.4153   20.2585  -32.4164 H   0  0  0  0  0  0  0  0  0  0  0  0
   -3.5744   21.0964  -30.9681 H   0  0  0  0  0  0  0  0  0  0  0  0
   -1.5714   22.7811  -30.6349 H   0  0  0  0  0  0  0  0  0  0  0  0
    0.4435   21.3566  -30.2969 H   0  0  0  0  0  0  0  0  0  0  0  0
  1  2  1  0
  2  3  1  0
  2  4  1  0
  4  5  2  0
  4  6  1  0
  6  7  2  0
  7  8  1  0
  8  9  2  0
  9 10  1  0
 10 11  2  3
 11 12  1  0
 12 13  2  0
 13 14  1  0
 14 15  2  0
 15 16  1  0
 16 17  1  0
 16 18  2  0
 16 19  2  0
 15 20  1  0
 20 21  2  0
 10 22  1  0
 22 23  2  0
 23 24  1  0
 24 25  2  0
 25 26  1  0
 26 27  1  0
 27 28  1  0
 27 29  2  0
 27 30  2  0
 25 31  1  0
 31 32  2  0
  9 33  1  0
 33 34  2  0
 34  6  1  0
 21 12  1  0
 32 22  1  0
  1 35  1  0
  1 36  1  0
  1 37  1  0
  2 38  1  0
  3 39  1  0
  3 40  1  0
  3 41  1  0
  7 42  1  0
  8 43  1  0
 11 44  1  0
 13 45  1  0
 14 46  1  0
 17 47  1  0
 17 48  1  0
 17 49  1  0
 20 50  1  0
 21 51  1  0
 23 52  1  0
 24 53  1  0
 28 54  1  0
 28 55  1  0
 28 56  1  0
 31 57  1  0
 32 58  1  0
 33 59  1  0
 34 60  1  0
M  CHG  2   2   1  26  -1
M  END
>  <UniqueID>  (37) 
36

>  <SMILES>  (37) 
C[NH+](C)C(=O)c1ccc(C(=Cc2ccc(S(C)(=O)=O)cc2)c2ccc([N-]S(C)(=O)=O)cc2)cc1

>  <Energy>  (37) 
76.87215640955225

>  <Genealogy>  (37) 
C[NH+](C)C(=O)c1ccc(C(=Cc2ccc(S(C)(=O)=O)cc2)c2ccc([N-]S(C)(=O)=O)cc2)cc1 (protonated)
C[NH+](C)C(=O)c1ccc(C(=Cc2ccc(S(C)(=O)=O)cc2)c2ccc([N-]S(C)(=O)=O)cc2)cc1 (3D coordinates assigned)
C[NH+](C)C(=O)c1ccc(C(=Cc2ccc(S(C)(=O)=O)cc2)c2ccc([N-]S(C)(=O)=O)cc2)cc1 (optimized conformer: 76.87215640955225 kcal/mol)

>  <smiles>  (37) 
CN(C)C(=O)c1ccc(C(=Cc2ccc(S(C)(=O)=O)cc2)c2ccc(NS(C)(=O)=O)cc2)cc1

>  <score_type>  (37) 
oracle

>  <origin>  (37) 
adgpu

>  <m_score__min__energy>  (37) 
-8.9499999999999993

>  <m_primary>  (37) 
energy

$$$$
37:0
     RDKit          3D

 56 59  0  0  0  0  0  0  0  0999 V2000
   -5.5390   26.0440  -30.6850 O   0  0  0  0  0  0  0  0  0  0  0  0
   -4.9040   24.9560  -30.6940 C   0  0  0  0  0  0  0  0  0  0  0  0
   -3.4950   24.9790  -30.4280 N   0  0  0  0  0  0  0  0  0  0  0  0
   -2.8370   24.3180  -29.3360 C   0  0  0  0  0  0  0  0  0  0  0  0
   -2.8100   24.8770  -28.0460 C   0  0  0  0  0  0  0  0  0  0  0  0
   -2.1680   24.2050  -27.0030 C   0  0  0  0  0  0  0  0  0  0  0  0
   -1.5340   22.9830  -27.2420 C   0  0  0  0  0  0  0  0  0  0  0  0
   -1.5280   22.4340  -28.5310 C   0  0  0  0  0  0  0  0  0  0  0  0
   -0.7580   20.8790  -28.8340 S   0  0  0  0  0  0  0  0  0  0  0  0
    0.5980   20.8460  -28.1830 O   0  0  0  0  0  0  0  0  0  0  0  0
   -0.5830   20.6970  -30.3160 O   0  0  0  0  0  0  0  0  0  0  0  0
   -1.7720   19.6060  -28.2060 N   0  0  0  0  0  0  0  0  0  0  0  0
   -1.2000   19.0150  -26.9970 C   0  0  0  0  0  0  0  0  0  0  0  0
   -2.3660   18.4810  -26.1790 C   0  0  0  0  0  0  0  0  0  0  0  0
   -3.6000   19.1850  -26.7250 C   0  0  0  0  0  0  0  0  0  0  0  0
   -3.0830   20.1180  -27.8080 C   0  0  0  0  0  0  0  0  0  0  0  0
   -2.1780   23.1070  -29.5740 C   0  0  0  0  0  0  0  0  0  0  0  0
   -5.6170   23.7010  -31.0230 C   0  0  0  0  0  0  0  0  0  0  0  0
   -4.8940   22.5490  -31.3790 C   0  0  0  0  0  0  0  0  0  0  0  0
   -5.5650   21.3710  -31.7180 C   0  0  0  0  0  0  0  0  0  0  0  0
   -6.9650   21.3210  -31.6900 C   0  0  0  0  0  0  0  0  0  0  0  0
   -7.8070   19.8520  -32.1730 S   0  0  0  0  0  0  0  0  0  0  0  0
   -8.4540   19.2390  -30.9620 O   0  0  0  0  0  0  0  0  0  0  0  0
   -8.8830   20.1890  -33.1690 O   0  0  0  0  0  0  0  0  0  0  0  0
   -6.6720   18.7220  -32.8670 N   0  0  0  0  0  0  0  0  0  0  0  0
   -6.2180   19.2060  -34.1830 C   0  0  0  0  0  0  0  0  0  0  0  0
   -5.4690   18.0970  -34.9500 C   0  0  0  0  0  0  0  0  0  0  0  0
   -5.1240   17.0310  -34.0890 O   0  0  0  0  0  0  0  0  0  0  0  0
   -6.3000   16.3980  -33.6140 C   0  0  0  0  0  0  0  0  0  0  0  0
   -7.3000   17.4000  -32.9980 C   0  0  0  0  0  0  0  0  0  0  0  0
   -7.6890   22.4600  -31.3160 C   0  0  0  0  0  0  0  0  0  0  0  0
   -7.0210   23.6410  -30.9800 C   0  0  0  0  0  0  0  0  0  0  0  0
   -3.2956   25.8459  -27.8577 H   0  0  0  0  0  0  0  0  0  0  0  0
   -2.1616   24.6385  -25.9921 H   0  0  0  0  0  0  0  0  0  0  0  0
   -1.0386   22.4509  -26.4165 H   0  0  0  0  0  0  0  0  0  0  0  0
   -0.5161   18.1954  -27.2625 H   0  0  0  0  0  0  0  0  0  0  0  0
   -0.6239   19.7587  -26.4269 H   0  0  0  0  0  0  0  0  0  0  0  0
   -2.4572   17.3920  -26.3046 H   0  0  0  0  0  0  0  0  0  0  0  0
   -2.2307   18.6687  -25.1036 H   0  0  0  0  0  0  0  0  0  0  0  0
   -4.3042   18.4544  -27.1497 H   0  0  0  0  0  0  0  0  0  0  0  0
   -4.1428   19.7301  -25.9388 H   0  0  0  0  0  0  0  0  0  0  0  0
   -3.7682   20.1180  -28.6685 H   0  0  0  0  0  0  0  0  0  0  0  0
   -3.0114   21.1525  -27.4410 H   0  0  0  0  0  0  0  0  0  0  0  0
   -2.1701   22.6800  -30.5877 H   0  0  0  0  0  0  0  0  0  0  0  0
   -3.7944   22.5751  -31.3908 H   0  0  0  0  0  0  0  0  0  0  0  0
   -4.9912   20.4785  -32.0083 H   0  0  0  0  0  0  0  0  0  0  0  0
   -7.0919   19.5231  -34.7710 H   0  0  0  0  0  0  0  0  0  0  0  0
   -5.5311   20.0512  -34.0283 H   0  0  0  0  0  0  0  0  0  0  0  0
   -6.1159   17.7155  -35.7537 H   0  0  0  0  0  0  0  0  0  0  0  0
   -4.5452   18.5227  -35.3687 H   0  0  0  0  0  0  0  0  0  0  0  0
   -6.7882   15.8832  -34.4546 H   0  0  0  0  0  0  0  0  0  0  0  0
   -6.0048   15.6908  -32.8249 H   0  0  0  0  0  0  0  0  0  0  0  0
   -8.1834   17.4794  -33.6487 H   0  0  0  0  0  0  0  0  0  0  0  0
   -7.6007   17.0432  -32.0019 H   0  0  0  0  0  0  0  0  0  0  0  0
   -8.7881   22.4251  -31.2865 H   0  0  0  0  0  0  0  0  0  0  0  0
   -7.5972   24.5287  -30.6802 H   0  0  0  0  0  0  0  0  0  0  0  0
  1  2  2  0
  2  3  1  0
  3  4  1  0
  4  5  2  0
  5  6  1  0
  6  7  2  0
  7  8  1  0
  8  9  1  0
  9 10  2  0
  9 11  2  0
  9 12  1  0
 12 13  1  0
 13 14  1  0
 14 15  1  0
 15 16  1  0
  8 17  2  0
  2 18  1  0
 18 19  2  0
 19 20  1  0
 20 21  2  0
 21 22  1  0
 22 23  2  0
 22 24  2  0
 22 25  1  0
 25 26  1  0
 26 27  1  0
 27 28  1  0
 28 29  1  0
 29 30  1  0
 21 31  1  0
 31 32  2  0
 17  4  1  0
 32 18  1  0
 16 12  1  0
 30 25  1  0
  5 33  1  0
  6 34  1  0
  7 35  1  0
 13 36  1  0
 13 37  1  0
 14 38  1  0
 14 39  1  0
 15 40  1  0
 15 41  1  0
 16 42  1  0
 16 43  1  0
 17 44  1  0
 19 45  1  0
 20 46  1  0
 26 47  1  0
 26 48  1  0
 27 49  1  0
 27 50  1  0
 29 51  1  0
 29 52  1  0
 30 53  1  0
 30 54  1  0
 31 55  1  0
 32 56  1  0
M  CHG  1   3  -1
M  END
>  <UniqueID>  (38) 
37

>  <SMILES>  (38) 
O=C([N-]c1cccc(S(=O)(=O)N2CCCC2)c1)c1ccc(S(=O)(=O)N2CCOCC2)cc1

>  <Energy>  (38) 
72.02710128517153

>  <Genealogy>  (38) 
O=C([N-]c1cccc(S(=O)(=O)N2CCCC2)c1)c1ccc(S(=O)(=O)N2CCOCC2)cc1 (protonated)
O=C([N-]c1cccc(S(=O)(=O)N2CCCC2)c1)c1ccc(S(=O)(=O)N2CCOCC2)cc1 (3D coordinates assigned)
O=C([N-]c1cccc(S(=O)(=O)N2CCCC2)c1)c1ccc(S(=O)(=O)N2CCOCC2)cc1 (nonaromatic ring conformer: 72.02710128517153 kcal/mol)

>  <smiles>  (38) 
O=C(Nc1cccc(S(=O)(=O)N2CCCC2)c1)c1ccc(S(=O)(=O)N2CCOCC2)cc1

>  <score_type>  (38) 
oracle

>  <origin>  (38) 
adgpu

>  <m_score__min__energy>  (38) 
-13.07

>  <m_primary>  (38) 
energy

$$$$
38:0
     RDKit          3D

 50 52  0  0  0  0  0  0  0  0999 V2000
   -9.1630   18.5100  -32.0350 C   0  0  0  0  0  0  0  0  0  0  0  0
   -9.1450   19.8540  -32.5020 O   0  0  0  0  0  0  0  0  0  0  0  0
   -8.2860   20.8500  -32.0160 C   0  0  0  0  0  0  0  0  0  0  0  0
   -7.1000   21.1050  -32.7130 C   0  0  0  0  0  0  0  0  0  0  0  0
   -6.2110   22.0890  -32.2710 C   0  0  0  0  0  0  0  0  0  0  0  0
   -6.5060   22.8480  -31.1240 C   0  0  0  0  0  0  0  0  0  0  0  0
   -5.6000   23.8510  -30.6330 N   0  0  0  0  0  0  0  0  0  0  0  0
   -4.1810   23.8260  -30.8380 C   0  0  0  0  0  0  0  0  0  0  0  0
   -3.6710   23.0500  -31.6920 O   0  0  0  0  0  0  0  0  0  0  0  0
   -3.3540   24.7540  -30.1280 N   0  0  0  0  0  0  0  0  0  0  0  0
   -2.6290   24.4680  -28.9240 C   0  0  0  0  0  0  0  0  0  0  0  0
   -2.9110   23.2830  -28.2440 C   0  0  0  0  0  0  0  0  0  0  0  0
   -2.2230   22.9560  -27.0800 C   0  0  0  0  0  0  0  0  0  0  0  0
   -1.2240   23.8020  -26.5700 C   0  0  0  0  0  0  0  0  0  0  0  0
   -0.5140   23.3820  -25.3100 C   0  0  0  0  0  0  0  0  0  0  0  0
   -0.9200   25.0100  -27.2550 C   0  0  0  0  0  0  0  0  0  0  0  0
    0.3380   26.1480  -26.7100 S   0  0  0  0  0  0  0  0  0  0  0  0
    0.5340   26.1150  -25.2190 O   0  0  0  0  0  0  0  0  0  0  0  0
   -0.0930   27.5410  -27.0820 O   0  0  0  0  0  0  0  0  0  0  0  0
    1.8390   25.7720  -27.5180 N   0  0  0  0  0  0  0  0  0  0  0  0
    2.3560   24.4780  -27.0490 C   0  0  0  0  0  0  0  0  0  0  0  0
    3.6920   24.1550  -27.7530 C   0  0  0  0  0  0  0  0  0  0  0  0
    4.1630   25.2400  -28.5360 O   0  0  0  0  0  0  0  0  0  0  0  0
    4.2290   26.4070  -27.7420 C   0  0  0  0  0  0  0  0  0  0  0  0
    2.8260   26.8370  -27.2680 C   0  0  0  0  0  0  0  0  0  0  0  0
   -1.6050   25.3120  -28.4520 C   0  0  0  0  0  0  0  0  0  0  0  0
   -1.2380   26.4300  -29.1950 O   0  0  0  0  0  0  0  0  0  0  0  0
   -7.6840   22.5790  -30.4120 C   0  0  0  0  0  0  0  0  0  0  0  0
   -8.5720   21.5940  -30.8560 C   0  0  0  0  0  0  0  0  0  0  0  0
   -9.1631   18.5040  -30.9350 H   0  0  0  0  0  0  0  0  0  0  0  0
  -10.0680   18.0055  -32.4045 H   0  0  0  0  0  0  0  0  0  0  0  0
   -8.2719   17.9815  -32.4045 H   0  0  0  0  0  0  0  0  0  0  0  0
   -6.8648   20.5254  -33.6178 H   0  0  0  0  0  0  0  0  0  0  0  0
   -5.2767   22.2706  -32.8225 H   0  0  0  0  0  0  0  0  0  0  0  0
   -6.0010   24.6890  -30.1550 H   0  0  0  0  0  0  0  0  0  0  0  0
   -3.6832   22.6020  -28.6312 H   0  0  0  0  0  0  0  0  0  0  0  0
   -2.4645   22.0220  -26.5515 H   0  0  0  0  0  0  0  0  0  0  0  0
   -1.0879   23.7215  -24.4352 H   0  0  0  0  0  0  0  0  0  0  0  0
   -0.4250   22.2858  -25.2873 H   0  0  0  0  0  0  0  0  0  0  0  0
    0.4895   23.8319  -25.2873 H   0  0  0  0  0  0  0  0  0  0  0  0
    2.5189   24.5234  -25.9621 H   0  0  0  0  0  0  0  0  0  0  0  0
    1.6247   23.6908  -27.2847 H   0  0  0  0  0  0  0  0  0  0  0  0
    4.4462   23.9165  -26.9886 H   0  0  0  0  0  0  0  0  0  0  0  0
    3.5203   23.3027  -28.4269 H   0  0  0  0  0  0  0  0  0  0  0  0
    4.8597   26.2081  -26.8630 H   0  0  0  0  0  0  0  0  0  0  0  0
    4.6562   27.2186  -28.3492 H   0  0  0  0  0  0  0  0  0  0  0  0
    2.8598   27.0512  -26.1896 H   0  0  0  0  0  0  0  0  0  0  0  0
    2.5249   27.7347  -27.8279 H   0  0  0  0  0  0  0  0  0  0  0  0
   -7.9111   23.1469  -29.4977 H   0  0  0  0  0  0  0  0  0  0  0  0
   -9.4986   21.3998  -30.2958 H   0  0  0  0  0  0  0  0  0  0  0  0
  1  2  1  0
  2  3  1  0
  3  4  2  0
  4  5  1  0
  5  6  2  0
  6  7  1  0
  7  8  1  0
  8  9  2  0
  8 10  1  0
 10 11  1  0
 11 12  2  0
 12 13  1  0
 13 14  2  0
 14 15  1  0
 14 16  1  0
 16 17  1  0
 17 18  2  0
 17 19  2  0
 17 20  1  0
 20 21  1  0
 21 22  1  0
 22 23  1  0
 23 24  1  0
 24 25  1  0
 16 26  2  0
 26 27  1  0
  6 28  1  0
 28 29  2  0
 29  3  1  0
 26 11  1  0
 25 20  1  0
  1 30  1  0
  1 31  1  0
  1 32  1  0
  4 33  1  0
  5 34  1  0
  7 35  1  0
 12 36  1  0
 13 37  1  0
 15 38  1  0
 15 39  1  0
 15 40  1  0
 21 41  1  0
 21 42  1  0
 22 43  1  0
 22 44  1  0
 24 45  1  0
 24 46  1  0
 25 47  1  0
 25 48  1  0
 28 49  1  0
 29 50  1  0
M  CHG  2  10  -1  27  -1
M  END
>  <UniqueID>  (39) 
38

>  <SMILES>  (39) 
COc1ccc(NC(=O)[N-]c2ccc(C)c(S(=O)(=O)N3CCOCC3)c2[O-])cc1

>  <Energy>  (39) 
70.40773923728413

>  <Genealogy>  (39) 
COc1ccc(NC(=O)[N-]c2ccc(C)c(S(=O)(=O)N3CCOCC3)c2[O-])cc1 (protonated)
COc1ccc(NC(=O)[N-]c2ccc(C)c(S(=O)(=O)N3CCOCC3)c2[O-])cc1 (3D coordinates assigned)
COc1ccc(NC(=O)[N-]c2ccc(C)c(S(=O)(=O)N3CCOCC3)c2[O-])cc1 (nonaromatic ring conformer: 70.40773923728413 kcal/mol)

>  <smiles>  (39) 
COc1ccc(NC(=O)Nc2ccc(C)c(S(=O)(=O)N3CCOCC3)c2O)cc1

>  <score_type>  (39) 
oracle

>  <origin>  (39) 
adgpu

>  <m_score__min__energy>  (39) 
-12.1

>  <m_primary>  (39) 
energy

$$$$
39:0
     RDKit          3D

 42 44  0  0  0  0  0  0  0  0999 V2000
   -9.3400   22.2920  -32.0410 O   0  0  0  0  0  0  0  0  0  0  0  0
   -8.1970   22.0520  -31.5690 C   0  0  0  0  0  0  0  0  0  0  0  0
   -7.7730   22.7730  -30.4030 N   0  0  0  0  0  0  0  0  0  0  0  0
   -6.4960   23.3990  -30.2110 C   0  0  0  0  0  0  0  0  0  0  0  0
   -6.2200   24.5950  -30.8860 C   0  0  0  0  0  0  0  0  0  0  0  0
   -4.9850   25.2290  -30.7240 C   0  0  0  0  0  0  0  0  0  0  0  0
   -4.0100   24.6630  -29.8970 C   0  0  0  0  0  0  0  0  0  0  0  0
   -2.7830   25.2950  -29.7340 O   0  0  0  0  0  0  0  0  0  0  0  0
   -4.2680   23.4560  -29.2390 C   0  0  0  0  0  0  0  0  0  0  0  0
   -5.5020   22.8200  -29.4010 C   0  0  0  0  0  0  0  0  0  0  0  0
   -7.3610   20.9920  -32.1850 C   0  0  0  0  0  0  0  0  0  0  0  0
   -5.9780   21.1970  -32.3450 C   0  0  0  0  0  0  0  0  0  0  0  0
   -5.1730   20.2130  -32.9340 C   0  0  0  0  0  0  0  0  0  0  0  0
   -3.4450   20.4770  -33.1430 S   0  0  0  0  0  0  0  0  0  0  0  0
   -3.1880   21.9220  -33.4780 O   0  0  0  0  0  0  0  0  0  0  0  0
   -2.9680   19.6310  -34.2900 O   0  0  0  0  0  0  0  0  0  0  0  0
   -2.6110   20.0250  -31.6700 N   0  0  0  0  0  0  0  0  0  0  0  0
   -2.5730   21.1360  -30.6930 C   0  0  0  0  0  0  0  0  0  0  0  0
   -1.2330   21.8930  -30.7010 C   0  0  0  0  0  0  0  0  0  0  0  0
   -0.6790   21.8930  -31.9970 O   0  0  0  0  0  0  0  0  0  0  0  0
   -0.2620   20.5850  -32.3520 C   0  0  0  0  0  0  0  0  0  0  0  0
   -1.2700   19.4820  -31.9490 C   0  0  0  0  0  0  0  0  0  0  0  0
   -5.7440   19.0030  -33.3410 C   0  0  0  0  0  0  0  0  0  0  0  0
   -7.1120   18.7810  -33.1730 C   0  0  0  0  0  0  0  0  0  0  0  0
   -7.9260   19.7680  -32.6000 C   0  0  0  0  0  0  0  0  0  0  0  0
   -9.2960   19.5400  -32.4590 O   0  0  0  0  0  0  0  0  0  0  0  0
   -6.9795   25.0377  -31.5472 H   0  0  0  0  0  0  0  0  0  0  0  0
   -4.7799   26.1743  -31.2477 H   0  0  0  0  0  0  0  0  0  0  0  0
   -3.4989   23.0069  -28.5934 H   0  0  0  0  0  0  0  0  0  0  0  0
   -5.6966   21.8637  -28.8935 H   0  0  0  0  0  0  0  0  0  0  0  0
   -5.5243   22.1393  -32.0042 H   0  0  0  0  0  0  0  0  0  0  0  0
   -3.3784   21.8449  -30.9357 H   0  0  0  0  0  0  0  0  0  0  0  0
   -2.7006   20.7000  -29.6912 H   0  0  0  0  0  0  0  0  0  0  0  0
   -1.4007   22.9311  -30.3780 H   0  0  0  0  0  0  0  0  0  0  0  0
   -0.5352   21.3926  -30.0135 H   0  0  0  0  0  0  0  0  0  0  0  0
   -0.1240   20.5481  -33.4427 H   0  0  0  0  0  0  0  0  0  0  0  0
    0.6710   20.3845  -31.8049 H   0  0  0  0  0  0  0  0  0  0  0  0
   -1.3466   18.7553  -32.7712 H   0  0  0  0  0  0  0  0  0  0  0  0
   -0.9002   19.0085  -31.0275 H   0  0  0  0  0  0  0  0  0  0  0  0
   -5.1135   18.2241  -33.7947 H   0  0  0  0  0  0  0  0  0  0  0  0
   -7.5539   17.8256  -33.4923 H   0  0  0  0  0  0  0  0  0  0  0  0
   -9.9440   20.2960  -32.2730 H   0  0  0  0  0  0  0  0  0  0  0  0
  1  2  2  0
  2  3  1  0
  3  4  1  0
  4  5  2  0
  5  6  1  0
  6  7  2  0
  7  8  1  0
  7  9  1  0
  9 10  2  0
  2 11  1  0
 11 12  2  0
 12 13  1  0
 13 14  1  0
 14 15  2  0
 14 16  2  0
 14 17  1  0
 17 18  1  0
 18 19  1  0
 19 20  1  0
 20 21  1  0
 21 22  1  0
 13 23  2  0
 23 24  1  0
 24 25  2  0
 25 26  1  0
 10  4  1  0
 25 11  1  0
 22 17  1  0
  5 27  1  0
  6 28  1  0
  9 29  1  0
 10 30  1  0
 12 31  1  0
 18 32  1  0
 18 33  1  0
 19 34  1  0
 19 35  1  0
 21 36  1  0
 21 37  1  0
 22 38  1  0
 22 39  1  0
 23 40  1  0
 24 41  1  0
 26 42  1  0
M  CHG  2   3  -1   8  -1
M  END
>  <UniqueID>  (40) 
39

>  <SMILES>  (40) 
O=C([N-]c1ccc([O-])cc1)c1cc(S(=O)(=O)N2CCOCC2)ccc1O

>  <Energy>  (40) 
61.61922554557955

>  <Genealogy>  (40) 
O=C([N-]c1ccc([O-])cc1)c1cc(S(=O)(=O)N2CCOCC2)ccc1O (protonated)
O=C([N-]c1ccc([O-])cc1)c1cc(S(=O)(=O)N2CCOCC2)ccc1O (3D coordinates assigned)
O=C([N-]c1ccc([O-])cc1)c1cc(S(=O)(=O)N2CCOCC2)ccc1O (nonaromatic ring conformer: 61.61922554557955 kcal/mol)

>  <smiles>  (40) 
O=C(Nc1ccc(O)cc1)c1cc(S(=O)(=O)N2CCOCC2)ccc1O

>  <score_type>  (40) 
oracle

>  <origin>  (40) 
adgpu

>  <m_score__min__energy>  (40) 
-10.390000000000001

>  <m_primary>  (40) 
energy

$$$$
40:0
     RDKit          3D

 41 43  0  0  0  0  0  0  0  0999 V2000
   -3.0240   23.1560  -27.7380 O   0  0  0  0  0  0  0  0  0  0  0  0
   -2.8660   24.3630  -28.0700 C   0  0  0  0  0  0  0  0  0  0  0  0
   -3.5550   24.8840  -29.2180 N   0  0  0  0  0  0  0  0  0  0  0  0
   -4.7500   24.3030  -29.7670 C   0  0  0  0  0  0  0  0  0  0  0  0
   -4.8400   22.9090  -29.9010 C   0  0  0  0  0  0  0  0  0  0  0  0
   -5.9810   22.3220  -30.4530 C   0  0  0  0  0  0  0  0  0  0  0  0
   -7.0410   23.1220  -30.9010 C   0  0  0  0  0  0  0  0  0  0  0  0
   -8.4870   22.3790  -31.5950 S   0  0  0  0  0  0  0  0  0  0  0  0
   -9.2350   23.4140  -32.3880 O   0  0  0  0  0  0  0  0  0  0  0  0
   -9.3810   21.9140  -30.4790 O   0  0  0  0  0  0  0  0  0  0  0  0
   -8.1230   21.0210  -32.6330 N   0  0  0  0  0  0  0  0  0  0  0  0
   -8.3700   19.7420  -31.9730 C   0  0  0  0  0  0  0  0  0  0  0  0
   -7.4730   18.7240  -32.6600 C   0  0  0  0  0  0  0  0  0  0  0  0
   -6.3910   19.5420  -33.3500 C   0  0  0  0  0  0  0  0  0  0  0  0
   -6.7150   20.9920  -33.0260 C   0  0  0  0  0  0  0  0  0  0  0  0
   -6.9520   24.5150  -30.7800 C   0  0  0  0  0  0  0  0  0  0  0  0
   -5.8110   25.1030  -30.2260 C   0  0  0  0  0  0  0  0  0  0  0  0
   -1.9120   25.2060  -27.3100 C   0  0  0  0  0  0  0  0  0  0  0  0
   -1.8020   25.0410  -25.9170 C   0  0  0  0  0  0  0  0  0  0  0  0
   -0.9040   25.8170  -25.1780 C   0  0  0  0  0  0  0  0  0  0  0  0
   -0.1110   26.7710  -25.8190 C   0  0  0  0  0  0  0  0  0  0  0  0
   -0.2210   26.9560  -27.1990 C   0  0  0  0  0  0  0  0  0  0  0  0
   -1.1210   26.1870  -27.9470 C   0  0  0  0  0  0  0  0  0  0  0  0
   -1.2370   26.4300  -29.3110 O   0  0  0  0  0  0  0  0  0  0  0  0
   -3.1010   25.6650  -29.7450 H   0  0  0  0  0  0  0  0  0  0  0  0
   -4.0057   22.2737  -29.5688 H   0  0  0  0  0  0  0  0  0  0  0  0
   -6.0479   21.2272  -30.5364 H   0  0  0  0  0  0  0  0  0  0  0  0
   -8.1187   19.8106  -30.9043 H   0  0  0  0  0  0  0  0  0  0  0  0
   -9.4290   19.4537  -32.0458 H   0  0  0  0  0  0  0  0  0  0  0  0
   -7.0277   18.0420  -31.9207 H   0  0  0  0  0  0  0  0  0  0  0  0
   -8.0322   18.1001  -33.3727 H   0  0  0  0  0  0  0  0  0  0  0  0
   -5.3979   19.2731  -32.9609 H   0  0  0  0  0  0  0  0  0  0  0  0
   -6.3685   19.3597  -34.4345 H   0  0  0  0  0  0  0  0  0  0  0  0
   -6.0818   21.3482  -32.2000 H   0  0  0  0  0  0  0  0  0  0  0  0
   -6.5282   21.6458  -33.8907 H   0  0  0  0  0  0  0  0  0  0  0  0
   -7.7834   25.1487  -31.1223 H   0  0  0  0  0  0  0  0  0  0  0  0
   -5.7430   26.1982  -30.1488 H   0  0  0  0  0  0  0  0  0  0  0  0
   -2.4278   24.2952  -25.4051 H   0  0  0  0  0  0  0  0  0  0  0  0
   -0.8221   25.6758  -24.0902 H   0  0  0  0  0  0  0  0  0  0  0  0
    0.5999   27.3764  -25.2375 H   0  0  0  0  0  0  0  0  0  0  0  0
    0.4029   27.7101  -27.7011 H   0  0  0  0  0  0  0  0  0  0  0  0
  1  2  2  0
  2  3  1  0
  3  4  1  0
  4  5  2  0
  5  6  1  0
  6  7  2  0
  7  8  1  0
  8  9  2  0
  8 10  2  0
  8 11  1  0
 11 12  1  0
 12 13  1  0
 13 14  1  0
 14 15  1  0
  7 16  1  0
 16 17  2  0
  2 18  1  0
 18 19  2  0
 19 20  1  0
 20 21  2  0
 21 22  1  0
 22 23  2  0
 23 24  1  0
 17  4  1  0
 23 18  1  0
 15 11  1  0
  3 25  1  0
  5 26  1  0
  6 27  1  0
 12 28  1  0
 12 29  1  0
 13 30  1  0
 13 31  1  0
 14 32  1  0
 14 33  1  0
 15 34  1  0
 15 35  1  0
 16 36  1  0
 17 37  1  0
 19 38  1  0
 20 39  1  0
 21 40  1  0
 22 41  1  0
M  CHG  1  24  -1
M  END
>  <UniqueID>  (41) 
40

>  <SMILES>  (41) 
O=C(Nc1ccc(S(=O)(=O)N2CCCC2)cc1)c1ccccc1[O-]

>  <Energy>  (41) 
51.01334278884013

>  <Genealogy>  (41) 
O=C(Nc1ccc(S(=O)(=O)N2CCCC2)cc1)c1ccccc1[O-] (protonated)
O=C(Nc1ccc(S(=O)(=O)N2CCCC2)cc1)c1ccccc1[O-] (3D coordinates assigned)
O=C(Nc1ccc(S(=O)(=O)N2CCCC2)cc1)c1ccccc1[O-] (nonaromatic ring conformer: 51.01334278884013 kcal/mol)

>  <smiles>  (41) 
O=C(Nc1ccc(S(=O)(=O)N2CCCC2)cc1)c1ccccc1O

>  <score_type>  (41) 
oracle

>  <origin>  (41) 
adgpu

>  <m_score__min__energy>  (41) 
-12.369999999999999

>  <m_primary>  (41) 
energy

$$$$
41:0
     RDKit          3D

 43 46  0  0  0  0  0  0  0  0999 V2000
   -9.4890   21.9180  -31.1290 C   0  0  0  0  0  0  0  0  0  0  0  0
   -8.3050   21.3810  -31.8600 C   0  0  0  0  0  0  0  0  0  0  0  0
   -8.1470   20.1260  -32.2010 O   0  0  0  0  0  0  0  0  0  0  0  0
   -6.9790   20.0340  -32.8000 C   0  0  0  0  0  0  0  0  0  0  0  0
   -6.4310   18.7710  -33.3310 C   0  0  0  0  0  0  0  0  0  0  0  0
   -6.9880   17.5350  -32.9570 C   0  0  0  0  0  0  0  0  0  0  0  0
   -6.4770   16.3440  -33.4820 C   0  0  0  0  0  0  0  0  0  0  0  0
   -5.4030   16.3760  -34.3750 C   0  0  0  0  0  0  0  0  0  0  0  0
   -4.8400   17.5990  -34.7510 C   0  0  0  0  0  0  0  0  0  0  0  0
   -5.3490   18.7940  -34.2290 C   0  0  0  0  0  0  0  0  0  0  0  0
   -6.3320   21.2210  -32.8690 N   0  0  0  0  0  0  0  0  0  0  0  0
   -7.1800   22.0690  -32.2580 C   0  0  0  0  0  0  0  0  0  0  0  0
   -6.8480   23.8180  -32.0260 S   0  0  0  0  0  0  0  0  0  0  0  0
   -5.9810   23.5960  -30.4340 C   0  0  0  0  0  0  0  0  0  0  0  0
   -4.5500   24.0460  -30.5390 C   0  0  0  0  0  0  0  0  0  0  0  0
   -4.3190   25.2470  -30.8430 O   0  0  0  0  0  0  0  0  0  0  0  0
   -3.4500   23.1280  -30.4250 N   0  0  0  0  0  0  0  0  0  0  0  0
   -2.5900   23.0630  -29.2410 C   0  0  0  0  0  0  0  0  0  0  0  0
   -1.3680   22.2030  -29.6440 C   0  0  0  0  0  0  0  0  0  0  0  0
   -1.6870   21.7810  -31.0350 C   0  0  0  0  0  0  0  0  0  0  0  0
   -0.9660   20.9000  -31.8430 C   0  0  0  0  0  0  0  0  0  0  0  0
   -1.5110   20.5270  -33.0820 C   0  0  0  0  0  0  0  0  0  0  0  0
   -2.7760   21.0070  -33.4690 C   0  0  0  0  0  0  0  0  0  0  0  0
   -3.4880   21.8820  -32.6330 C   0  0  0  0  0  0  0  0  0  0  0  0
   -2.8890   22.3010  -31.4370 C   0  0  0  0  0  0  0  0  0  0  0  0
   -9.3172   21.8401  -30.0453 H   0  0  0  0  0  0  0  0  0  0  0  0
   -9.6405   22.9729  -31.4013 H   0  0  0  0  0  0  0  0  0  0  0  0
  -10.3825   21.3370  -31.4013 H   0  0  0  0  0  0  0  0  0  0  0  0
   -7.8290   17.5051  -32.2486 H   0  0  0  0  0  0  0  0  0  0  0  0
   -6.9212   15.3805  -33.1915 H   0  0  0  0  0  0  0  0  0  0  0  0
   -4.9998   15.4373  -34.7829 H   0  0  0  0  0  0  0  0  0  0  0  0
   -3.9969   17.6224  -35.4571 H   0  0  0  0  0  0  0  0  0  0  0  0
   -4.9009   19.7548  -34.5224 H   0  0  0  0  0  0  0  0  0  0  0  0
   -6.4900   24.1894  -29.6602 H   0  0  0  0  0  0  0  0  0  0  0  0
   -5.9968   22.5284  -30.1694 H   0  0  0  0  0  0  0  0  0  0  0  0
   -2.2663   24.0728  -28.9485 H   0  0  0  0  0  0  0  0  0  0  0  0
   -3.1216   22.6278  -28.3819 H   0  0  0  0  0  0  0  0  0  0  0  0
   -0.4423   22.7965  -29.6152 H   0  0  0  0  0  0  0  0  0  0  0  0
   -1.1981   21.3537  -28.9658 H   0  0  0  0  0  0  0  0  0  0  0  0
    0.0079   20.5066  -31.5161 H   0  0  0  0  0  0  0  0  0  0  0  0
   -0.9486   19.8589  -33.7509 H   0  0  0  0  0  0  0  0  0  0  0  0
   -3.2090   20.6952  -34.4309 H   0  0  0  0  0  0  0  0  0  0  0  0
   -4.4936   22.2310  -32.9105 H   0  0  0  0  0  0  0  0  0  0  0  0
  1  2  1  0
  2  3  1  0
  3  4  1  0
  4  5  1  0
  5  6  2  0
  6  7  1  0
  7  8  2  0
  8  9  1  0
  9 10  2  0
  4 11  2  0
 11 12  1  0
 12 13  1  0
 13 14  1  0
 14 15  1  0
 15 16  2  0
 15 17  1  0
 17 18  1  0
 18 19  1  0
 19 20  1  0
 20 21  2  0
 21 22  1  0
 22 23  2  0
 23 24  1  0
 24 25  2  0
 12  2  2  0
 25 17  1  0
 10  5  1  0
 25 20  1  0
  1 26  1  0
  1 27  1  0
  1 28  1  0
  6 29  1  0
  7 30  1  0
  8 31  1  0
  9 32  1  0
 10 33  1  0
 14 34  1  0
 14 35  1  0
 18 36  1  0
 18 37  1  0
 19 38  1  0
 19 39  1  0
 21 40  1  0
 22 41  1  0
 23 42  1  0
 24 43  1  0
M  END
>  <UniqueID>  (42) 
41

>  <SMILES>  (42) 
Cc1oc(-c2ccccc2)nc1SCC(=O)N1CCc2ccccc21

>  <Energy>  (42) 
86.30960820573259

>  <Genealogy>  (42) 
Cc1oc(-c2ccccc2)nc1SCC(=O)N1CCc2ccccc21 (3D coordinates assigned)
Cc1oc(-c2ccccc2)nc1SCC(=O)N1CCc2ccccc21 (nonaromatic ring conformer: 86.30960820573259 kcal/mol)

>  <smiles>  (42) 
Cc1oc(-c2ccccc2)nc1SCC(=O)N1CCc2ccccc21

>  <score_type>  (42) 
oracle

>  <origin>  (42) 
adgpu

>  <m_score__min__energy>  (42) 
-9.0199999999999996

>  <m_primary>  (42) 
energy

$$$$
42:0
     RDKit          3D

 66 69  0  0  1  0  0  0  0  0999 V2000
   -2.4400   19.9050  -27.4020 C   0  0  0  0  0  0  0  0  0  0  0  0
   -2.3470   20.9800  -28.2790 O   0  0  0  0  0  0  0  0  0  0  0  0
   -2.5260   22.3200  -27.9670 C   0  0  0  0  0  0  0  0  0  0  0  0
   -1.6730   23.0270  -27.1420 C   0  0  0  0  0  0  0  0  0  0  0  0
   -1.8730   24.3590  -26.8470 C   0  0  0  0  0  0  0  0  0  0  0  0
   -1.0290   25.1200  -26.0070 N   0  0  0  0  0  0  0  0  0  0  0  0
   -0.3680   24.6170  -24.8290 C   0  0  0  0  0  0  0  0  0  0  0  0
   -0.5370   25.6340  -23.7200 C   0  0  0  0  0  0  0  0  0  0  0  0
   -0.1190   26.9560  -24.0640 N   0  0  0  0  0  0  0  0  0  0  0  0
    0.9410   27.4340  -23.2190 C   0  0  0  0  0  0  0  0  0  0  0  0
    0.2360   27.1450  -25.4370 C   0  0  0  0  0  0  0  0  0  0  0  0
   -0.7890   26.5250  -26.3400 C   0  0  0  0  0  0  0  0  0  0  0  0
   -2.9840   24.9530  -27.4290 C   0  0  0  0  0  0  0  0  0  0  0  0
   -3.8510   24.2690  -28.2550 C   0  0  0  0  0  0  0  0  0  0  0  0
   -3.6420   22.9350  -28.5450 C   0  0  0  0  0  0  0  0  0  0  0  0
   -4.5150   22.1990  -29.3930 N   0  0  0  0  0  0  0  0  0  0  0  0
   -4.0730   21.6280  -30.4660 C   0  0  0  0  0  0  0  0  0  0  0  0
   -2.7600   21.7490  -30.7600 N   0  0  0  0  0  0  0  0  0  0  0  0
   -2.2130   21.1930  -31.8470 C   0  0  0  0  0  0  0  0  0  0  0  0
   -3.0380   20.4730  -32.6890 C   0  0  0  0  0  0  0  0  0  0  0  0
   -2.3150   19.7390  -34.1240 Cl  0  0  0  0  0  0  0  0  0  0  0  0
   -4.3750   20.3390  -32.4070 C   0  0  0  0  0  0  0  0  0  0  0  0
   -5.1320   19.6600  -33.2070 N   0  0  0  0  0  0  0  0  0  0  0  0
   -6.5170   19.5680  -32.8420 C   0  0  0  0  0  0  0  0  0  0  0  0
   -7.3310   20.7050  -32.9080 C   0  0  0  0  0  0  0  0  0  0  0  0
   -8.6600   20.6490  -32.5640 C   0  0  0  0  0  0  0  0  0  0  0  0
   -9.1660   19.4200  -32.1500 C   0  0  0  0  0  0  0  0  0  0  0  0
   -8.3510   18.3070  -32.0920 C   0  0  0  0  0  0  0  0  0  0  0  0
   -7.0130   18.3580  -32.4360 C   0  0  0  0  0  0  0  0  0  0  0  0
   -6.1760   17.2190  -32.3760 N   0  0  0  0  0  0  0  0  0  0  0  0
   -5.7440   16.6360  -31.1080 C   0  0  0  0  0  0  0  0  0  0  0  0
   -5.6630   16.5180  -33.8580 S   0  0  0  0  0  0  0  0  0  0  0  0
   -6.5890   15.0240  -34.2000 C   0  0  0  0  0  0  0  0  0  0  0  0
   -5.8530   17.4640  -35.0090 O   0  0  0  0  0  0  0  0  0  0  0  0
   -4.1990   16.1960  -33.8080 O   0  0  0  0  0  0  0  0  0  0  0  0
   -4.8770   20.9230  -31.2910 N   0  0  0  0  0  0  0  0  0  0  0  0
   -2.4081   20.2732  -26.3659 H   0  0  0  0  0  0  0  0  0  0  0  0
   -3.3875   19.3731  -27.5731 H   0  0  0  0  0  0  0  0  0  0  0  0
   -1.5979   19.2183  -27.5731 H   0  0  0  0  0  0  0  0  0  0  0  0
   -0.8054   22.5102  -26.7059 H   0  0  0  0  0  0  0  0  0  0  0  0
   -0.8199   23.6601  -24.5286 H   0  0  0  0  0  0  0  0  0  0  0  0
    0.7002   24.4528  -25.0340 H   0  0  0  0  0  0  0  0  0  0  0  0
   -1.6016   25.6701  -23.4454 H   0  0  0  0  0  0  0  0  0  0  0  0
    0.1082   25.3059  -22.8917 H   0  0  0  0  0  0  0  0  0  0  0  0
    0.6556   27.3053  -22.1645 H   0  0  0  0  0  0  0  0  0  0  0  0
    1.8585   26.8625  -23.4229 H   0  0  0  0  0  0  0  0  0  0  0  0
    1.1201   28.5000  -23.4229 H   0  0  0  0  0  0  0  0  0  0  0  0
    0.2990   28.2226  -25.6486 H   0  0  0  0  0  0  0  0  0  0  0  0
    1.2073   26.6625  -25.6208 H   0  0  0  0  0  0  0  0  0  0  0  0
   -1.7332   27.0806  -26.2410 H   0  0  0  0  0  0  0  0  0  0  0  0
   -0.4087   26.5716  -27.3711 H   0  0  0  0  0  0  0  0  0  0  0  0
   -3.1816   26.0152  -27.2226 H   0  0  0  0  0  0  0  0  0  0  0  0
   -4.7175   24.7910  -28.6871 H   0  0  0  0  0  0  0  0  0  0  0  0
   -2.1320   22.2890  -30.1330 H   0  0  0  0  0  0  0  0  0  0  0  0
   -1.1404   21.3057  -32.0633 H   0  0  0  0  0  0  0  0  0  0  0  0
   -6.8990   21.6602  -33.2412 H   0  0  0  0  0  0  0  0  0  0  0  0
   -9.3003   21.5420  -32.6139 H   0  0  0  0  0  0  0  0  0  0  0  0
  -10.2254   19.3348  -31.8663 H   0  0  0  0  0  0  0  0  0  0  0  0
   -8.7799   17.3494  -31.7616 H   0  0  0  0  0  0  0  0  0  0  0  0
   -6.1715   17.2129  -30.2747 H   0  0  0  0  0  0  0  0  0  0  0  0
   -6.0892   15.5933  -31.0473 H   0  0  0  0  0  0  0  0  0  0  0  0
   -4.6460   16.6628  -31.0473 H   0  0  0  0  0  0  0  0  0  0  0  0
   -6.8830   14.5497  -33.2520 H   0  0  0  0  0  0  0  0  0  0  0  0
   -7.4898   15.2754  -34.7790 H   0  0  0  0  0  0  0  0  0  0  0  0
   -5.9630   14.3291  -34.7790 H   0  0  0  0  0  0  0  0  0  0  0  0
   -5.8880   20.8340  -31.0580 H   0  0  0  0  0  0  0  0  0  0  0  0
  1  2  1  0
  2  3  1  0
  3  4  2  0
  4  5  1  0
  5  6  1  0
  6  7  1  0
  7  8  1  0
  8  9  1  0
  9 10  1  0
  9 11  1  0
 11 12  1  0
  5 13  2  0
 13 14  1  0
 14 15  2  0
 15 16  1  0
 16 17  2  0
 17 18  1  0
 18 19  1  0
 19 20  2  0
 20 21  1  0
 20 22  1  0
 22 23  2  0
 23 24  1  0
 24 25  2  0
 25 26  1  0
 26 27  2  0
 27 28  1  0
 28 29  2  0
 29 30  1  0
 30 31  1  0
 30 32  1  0
 32 33  1  0
 32 34  2  0
 32 35  2  0
 22 36  1  0
 15  3  1  0
 36 17  1  0
 12  6  1  0
 29 24  1  0
  1 37  1  0
  1 38  1  0
  1 39  1  0
  4 40  1  0
  7 41  1  0
  7 42  1  0
  8 43  1  0
  8 44  1  0
 10 45  1  0
 10 46  1  0
 10 47  1  0
 11 48  1  0
 11 49  1  0
 12 50  1  0
 12 51  1  0
 13 52  1  0
 14 53  1  0
 18 54  1  0
 19 55  1  0
 25 56  1  0
 26 57  1  0
 27 58  1  0
 28 59  1  0
 31 60  1  0
 31 61  1  0
 31 62  1  0
 33 63  1  0
 33 64  1  0
 33 65  1  0
 36 66  1  0
M  END
>  <smiles>  (43) 
COc1cc(N2CCN(C)CC2)ccc1N=c1[nH]cc(Cl)c(=Nc2ccccc2N(C)S(C)(=O)=O)[nH]1

>  <score_type>  (43) 
oracle

>  <origin>  (43) 
adgpu

>  <m_score__min__energy>  (43) 
-10.07

>  <m_primary>  (43) 
energy

$$$$
43:0
     RDKit          3D

 27 28  0  0  0  0  0  0  0  0999 V2000
   -9.2590   22.0920  -31.6220 C   0  0  0  0  0  0  0  0  0  0  0  0
   -8.1030   21.2350  -32.0320 C   0  0  0  0  0  0  0  0  0  0  0  0
   -8.2670   19.8550  -32.1950 C   0  0  0  0  0  0  0  0  0  0  0  0
   -7.1600   19.0900  -32.5740 C   0  0  0  0  0  0  0  0  0  0  0  0
   -7.2880   17.6110  -32.7550 C   0  0  0  0  0  0  0  0  0  0  0  0
   -5.9590   19.6950  -32.7680 N   0  0  0  0  0  0  0  0  0  0  0  0
   -5.8160   21.0360  -32.6010 C   0  0  0  0  0  0  0  0  0  0  0  0
   -4.2200   21.8030  -32.8610 S   0  0  0  0  0  0  0  0  0  0  0  0
   -3.9590   22.1260  -31.0870 C   0  0  0  0  0  0  0  0  0  0  0  0
   -4.3840   23.5200  -30.7690 C   0  0  0  0  0  0  0  0  0  0  0  0
   -5.6370   23.9000  -30.3170 C   0  0  0  0  0  0  0  0  0  0  0  0
   -5.4970   25.2520  -30.1130 C   0  0  0  0  0  0  0  0  0  0  0  0
   -6.3980   26.0270  -29.6970 O   0  0  0  0  0  0  0  0  0  0  0  0
   -4.2490   25.6430  -30.4140 N   0  0  0  0  0  0  0  0  0  0  0  0
   -3.5570   24.5870  -30.8100 N   0  0  0  0  0  0  0  0  0  0  0  0
   -6.8820   21.7950  -32.2380 N   0  0  0  0  0  0  0  0  0  0  0  0
   -9.3140   22.1328  -30.5241 H   0  0  0  0  0  0  0  0  0  0  0  0
   -9.1215   23.1081  -32.0202 H   0  0  0  0  0  0  0  0  0  0  0  0
  -10.1913   21.6651  -32.0202 H   0  0  0  0  0  0  0  0  0  0  0  0
   -9.2461   19.3821  -32.0285 H   0  0  0  0  0  0  0  0  0  0  0  0
   -7.3302   17.1233  -31.7699 H   0  0  0  0  0  0  0  0  0  0  0  0
   -8.2088   17.3883  -33.3141 H   0  0  0  0  0  0  0  0  0  0  0  0
   -6.4192   17.2335  -33.3141 H   0  0  0  0  0  0  0  0  0  0  0  0
   -4.5542   21.4165  -30.4934 H   0  0  0  0  0  0  0  0  0  0  0  0
   -2.8933   22.0026  -30.8442 H   0  0  0  0  0  0  0  0  0  0  0  0
   -6.5269   23.2728  -30.1597 H   0  0  0  0  0  0  0  0  0  0  0  0
   -3.8640   26.6110  -30.3470 H   0  0  0  0  0  0  0  0  0  0  0  0
  1  2  1  0
  2  3  2  0
  3  4  1  0
  4  5  1  0
  4  6  2  0
  6  7  1  0
  7  8  1  0
  8  9  1  0
  9 10  1  0
 10 11  2  0
 11 12  1  0
 12 13  2  0
 12 14  1  0
 14 15  1  0
  7 16  2  0
 16  2  1  0
 15 10  1  0
  1 17  1  0
  1 18  1  0
  1 19  1  0
  3 20  1  0
  5 21  1  0
  5 22  1  0
  5 23  1  0
  9 24  1  0
  9 25  1  0
 11 26  1  0
 14 27  1  0
M  CHG  1  15  -1
M  END
>  <UniqueID>  (44) 
42

>  <SMILES>  (44) 
Cc1cc(C)nc(SCc2cc(=O)[nH][n-]2)n1

>  <Energy>  (44) 
51.42058564359222

>  <Genealogy>  (44) 
Cc1cc(C)nc(SCc2cc(=O)[nH][n-]2)n1 (protonated)
Cc1cc(C)nc(SCc2cc(=O)[nH][n-]2)n1 (3D coordinates assigned)
Cc1cc(C)nc(SCc2cc(=O)[nH][n-]2)n1 (optimized conformer: 51.42058564359222 kcal/mol)

>  <smiles>  (44) 
Cc1cc(C)nc(SCc2cc(=O)[nH][nH]2)n1

>  <score_type>  (44) 
oracle

>  <origin>  (44) 
adgpu

>  <m_score__min__energy>  (44) 
-8.6300000000000008

>  <m_primary>  (44) 
energy

$$$$
44:0
     RDKit          3D

 55 58  0  0  0  0  0  0  0  0999 V2000
   -3.5210   17.4240  -34.3010 C   0  0  0  0  0  0  0  0  0  0  0  0
   -4.0630   17.6690  -33.0060 O   0  0  0  0  0  0  0  0  0  0  0  0
   -5.3170   18.2520  -32.7650 C   0  0  0  0  0  0  0  0  0  0  0  0
   -6.3940   17.5130  -32.2370 C   0  0  0  0  0  0  0  0  0  0  0  0
   -7.6270   18.1280  -32.0090 C   0  0  0  0  0  0  0  0  0  0  0  0
   -7.8090   19.4830  -32.3120 C   0  0  0  0  0  0  0  0  0  0  0  0
   -9.1270   20.1580  -32.0310 C   0  0  0  0  0  0  0  0  0  0  0  0
   -8.9130   21.4980  -31.3970 C   0  0  0  0  0  0  0  0  0  0  0  0
   -9.6430   22.4720  -31.7280 O   0  0  0  0  0  0  0  0  0  0  0  0
   -7.8240   21.6810  -30.4850 N   0  0  0  0  0  0  0  0  0  0  0  0
   -6.8190   22.7000  -30.5780 C   0  0  0  0  0  0  0  0  0  0  0  0
   -6.9170   23.7530  -31.5030 C   0  0  0  0  0  0  0  0  0  0  0  0
   -5.9310   24.7400  -31.5480 C   0  0  0  0  0  0  0  0  0  0  0  0
   -4.8460   24.6970  -30.6680 C   0  0  0  0  0  0  0  0  0  0  0  0
   -3.8670   25.6830  -30.7430 O   0  0  0  0  0  0  0  0  0  0  0  0
   -4.7510   23.6630  -29.7200 C   0  0  0  0  0  0  0  0  0  0  0  0
   -3.3840   23.5890  -28.6060 S   0  0  0  0  0  0  0  0  0  0  0  0
   -3.8620   23.2900  -27.2140 O   0  0  0  0  0  0  0  0  0  0  0  0
   -2.6820   24.9180  -28.6100 O   0  0  0  0  0  0  0  0  0  0  0  0
   -2.2690   22.3520  -29.0890 N   0  0  0  0  0  0  0  0  0  0  0  0
   -1.6300   22.2840  -30.4040 C   0  0  0  0  0  0  0  0  0  0  0  0
   -0.8540   20.9430  -30.4240 C   0  0  0  0  0  0  0  0  0  0  0  0
   -1.1370   20.3580  -29.0830 C   0  0  0  0  0  0  0  0  0  0  0  0
   -0.6810   19.1470  -28.5590 C   0  0  0  0  0  0  0  0  0  0  0  0
   -1.0700   18.7930  -27.2560 C   0  0  0  0  0  0  0  0  0  0  0  0
   -1.9020   19.6500  -26.5070 C   0  0  0  0  0  0  0  0  0  0  0  0
   -2.3460   20.8640  -27.0570 C   0  0  0  0  0  0  0  0  0  0  0  0
   -1.9430   21.1880  -28.3550 C   0  0  0  0  0  0  0  0  0  0  0  0
   -5.7420   22.6690  -29.6820 C   0  0  0  0  0  0  0  0  0  0  0  0
   -6.7370   20.2250  -32.8330 C   0  0  0  0  0  0  0  0  0  0  0  0
   -5.4880   19.6140  -33.0610 C   0  0  0  0  0  0  0  0  0  0  0  0
   -4.3930   20.3270  -33.5760 O   0  0  0  0  0  0  0  0  0  0  0  0
   -3.8900   21.5410  -33.0270 C   0  0  0  0  0  0  0  0  0  0  0  0
   -2.5228   16.9728  -34.2013 H   0  0  0  0  0  0  0  0  0  0  0  0
   -4.1809   16.7366  -34.8506 H   0  0  0  0  0  0  0  0  0  0  0  0
   -3.4410   18.3735  -34.8506 H   0  0  0  0  0  0  0  0  0  0  0  0
   -6.2631   16.4462  -32.0031 H   0  0  0  0  0  0  0  0  0  0  0  0
   -8.4598   17.5448  -31.5891 H   0  0  0  0  0  0  0  0  0  0  0  0
   -9.6738   20.2894  -32.9764 H   0  0  0  0  0  0  0  0  0  0  0  0
   -9.7054   19.5284  -31.3388 H   0  0  0  0  0  0  0  0  0  0  0  0
   -7.7724   23.7997  -32.1930 H   0  0  0  0  0  0  0  0  0  0  0  0
   -6.0084   25.5568  -32.2807 H   0  0  0  0  0  0  0  0  0  0  0  0
   -2.3886   22.3001  -31.2004 H   0  0  0  0  0  0  0  0  0  0  0  0
   -0.9631   23.1417  -30.5763 H   0  0  0  0  0  0  0  0  0  0  0  0
   -1.2238   20.2865  -31.2254 H   0  0  0  0  0  0  0  0  0  0  0  0
    0.2212   21.0727  -30.6169 H   0  0  0  0  0  0  0  0  0  0  0  0
   -0.0325   18.4855  -29.1522 H   0  0  0  0  0  0  0  0  0  0  0  0
   -0.7244   17.8445  -26.8191 H   0  0  0  0  0  0  0  0  0  0  0  0
   -2.2046   19.3670  -25.4880 H   0  0  0  0  0  0  0  0  0  0  0  0
   -2.9937   21.5414  -26.4811 H   0  0  0  0  0  0  0  0  0  0  0  0
   -5.6723   21.8582  -28.9419 H   0  0  0  0  0  0  0  0  0  0  0  0
   -6.8732   21.2916  -33.0650 H   0  0  0  0  0  0  0  0  0  0  0  0
   -3.9135   21.4842  -31.9287 H   0  0  0  0  0  0  0  0  0  0  0  0
   -2.8542   21.6944  -33.3641 H   0  0  0  0  0  0  0  0  0  0  0  0
   -4.5137   22.3820  -33.3641 H   0  0  0  0  0  0  0  0  0  0  0  0
  1  2  1  0
  2  3  1  0
  3  4  2  0
  4  5  1  0
  5  6  2  0
  6  7  1  0
  7  8  1  0
  8  9  2  0
  8 10  1  0
 10 11  1  0
 11 12  2  0
 12 13  1  0
 13 14  2  0
 14 15  1  0
 14 16  1  0
 16 17  1  0
 17 18  2  0
 17 19  2  0
 17 20  1  0
 20 21  1  0
 21 22  1  0
 22 23  1  0
 23 24  2  0
 24 25  1  0
 25 26  2  0
 26 27  1  0
 27 28  2  0
 16 29  2  0
  6 30  1  0
 30 31  2  0
 31 32  1  0
 32 33  1  0
 31  3  1  0
 29 11  1  0
 28 20  1  0
 28 23  1  0
  1 34  1  0
  1 35  1  0
  1 36  1  0
  4 37  1  0
  5 38  1  0
  7 39  1  0
  7 40  1  0
 12 41  1  0
 13 42  1  0
 21 43  1  0
 21 44  1  0
 22 45  1  0
 22 46  1  0
 24 47  1  0
 25 48  1  0
 26 49  1  0
 27 50  1  0
 29 51  1  0
 30 52  1  0
 33 53  1  0
 33 54  1  0
 33 55  1  0
M  CHG  2  10  -1  15  -1
M  END
>  <UniqueID>  (45) 
43

>  <SMILES>  (45) 
COc1ccc(CC(=O)[N-]c2ccc([O-])c(S(=O)(=O)N3CCc4ccccc43)c2)cc1OC

>  <Energy>  (45) 
76.02978600840866

>  <Genealogy>  (45) 
COc1ccc(CC(=O)[N-]c2ccc([O-])c(S(=O)(=O)N3CCc4ccccc43)c2)cc1OC (protonated)
COc1ccc(CC(=O)[N-]c2ccc([O-])c(S(=O)(=O)N3CCc4ccccc43)c2)cc1OC (3D coordinates assigned)
COc1ccc(CC(=O)[N-]c2ccc([O-])c(S(=O)(=O)N3CCc4ccccc43)c2)cc1OC (nonaromatic ring conformer: 76.02978600840866 kcal/mol)

>  <smiles>  (45) 
COc1ccc(CC(=O)Nc2ccc(O)c(S(=O)(=O)N3CCc4ccccc43)c2)cc1OC

>  <score_type>  (45) 
oracle

>  <origin>  (45) 
adgpu

>  <m_score__min__energy>  (45) 
-12.619999999999999

>  <m_primary>  (45) 
energy

$$$$
45:0
     RDKit          3D

 21 21  0  0  0  0  0  0  0  0999 V2000
   -8.6290   19.8670  -32.2750 C   0  0  0  0  0  0  0  0  0  0  0  0
   -9.1520   21.2510  -31.8920 C   0  0  0  0  0  0  0  0  0  0  0  0
   -8.2530   21.9350  -30.8540 C   0  0  0  0  0  0  0  0  0  0  0  0
   -7.9890   23.3230  -31.2200 N   0  0  0  0  0  0  0  0  0  0  0  0
   -6.7150   23.9470  -31.0300 C   0  0  0  0  0  0  0  0  0  0  0  0
   -6.1860   24.9250  -30.1990 C   0  0  0  0  0  0  0  0  0  0  0  0
   -6.6790   25.7530  -29.1490 N   0  0  0  0  0  0  0  0  0  0  0  0
   -4.9560   24.7690  -30.8050 C   0  0  0  0  0  0  0  0  0  0  0  0
   -3.8230   25.2990  -30.6640 O   0  0  0  0  0  0  0  0  0  0  0  0
   -5.4780   23.7930  -31.6260 C   0  0  0  0  0  0  0  0  0  0  0  0
   -5.0200   23.0630  -32.5440 O   0  0  0  0  0  0  0  0  0  0  0  0
   -8.4116   19.2918  -31.3629 H   0  0  0  0  0  0  0  0  0  0  0  0
   -9.3896   19.3390  -32.8689 H   0  0  0  0  0  0  0  0  0  0  0  0
   -7.7093   19.9740  -32.8689 H   0  0  0  0  0  0  0  0  0  0  0  0
   -9.1934   21.8779  -32.7949 H   0  0  0  0  0  0  0  0  0  0  0  0
  -10.1512   21.1273  -31.4490 H   0  0  0  0  0  0  0  0  0  0  0  0
   -8.7527   21.9107  -29.8744 H   0  0  0  0  0  0  0  0  0  0  0  0
   -7.2948   21.3964  -30.8130 H   0  0  0  0  0  0  0  0  0  0  0  0
   -8.7500   23.8790  -31.6690 H   0  0  0  0  0  0  0  0  0  0  0  0
   -6.8880   25.3360  -28.2150 H   0  0  0  0  0  0  0  0  0  0  0  0
   -6.8450   26.7710  -29.2990 H   0  0  0  0  0  0  0  0  0  0  0  0
  1  2  1  0
  2  3  1  0
  3  4  1  0
  4  5  1  0
  5  6  2  0
  6  7  1  0
  6  8  1  0
  8  9  2  0
  8 10  1  0
 10 11  2  0
 10  5  1  0
  1 12  1  0
  1 13  1  0
  1 14  1  0
  2 15  1  0
  2 16  1  0
  3 17  1  0
  3 18  1  0
  4 19  1  0
  7 20  1  0
  7 21  1  0
M  END
>  <UniqueID>  (46) 
44

>  <SMILES>  (46) 
CCCNc1c(N)c(=O)c1=O

>  <Energy>  (46) 
1.683776719607115

>  <Genealogy>  (46) 
CCCNc1c(N)c(=O)c1=O (3D coordinates assigned)
CCCNc1c(N)c(=O)c1=O (optimized conformer: 1.683776719607115 kcal/mol)

>  <smiles>  (46) 
CCCNc1c(N)c(=O)c1=O

>  <score_type>  (46) 
oracle

>  <origin>  (46) 
adgpu

>  <m_score__min__energy>  (46) 
-5.04

>  <m_primary>  (46) 
energy

$$$$
46:0
     RDKit          3D

 61 64  0  0  0  0  0  0  0  0999 V2000
   -2.3550   19.1230  -26.3560 C   0  0  0  0  0  0  0  0  0  0  0  0
   -1.6500   20.0430  -27.2970 C   0  0  0  0  0  0  0  0  0  0  0  0
   -1.9440   21.3740  -27.5060 C   0  0  0  0  0  0  0  0  0  0  0  0
   -1.0300   21.7430  -28.4800 C   0  0  0  0  0  0  0  0  0  0  0  0
   -0.9030   22.9140  -29.0290 N   0  0  0  0  0  0  0  0  0  0  0  0
   -1.8900   24.2880  -28.6440 S   0  0  0  0  0  0  0  0  0  0  0  0
   -1.2960   25.5180  -29.2770 O   0  0  0  0  0  0  0  0  0  0  0  0
   -1.9140   24.4780  -27.1530 O   0  0  0  0  0  0  0  0  0  0  0  0
   -3.5380   24.0270  -29.2100 C   0  0  0  0  0  0  0  0  0  0  0  0
   -4.1380   24.9270  -30.1000 C   0  0  0  0  0  0  0  0  0  0  0  0
   -5.4520   24.7200  -30.5290 C   0  0  0  0  0  0  0  0  0  0  0  0
   -6.1860   23.6220  -30.0550 C   0  0  0  0  0  0  0  0  0  0  0  0
   -7.5430   23.4160  -30.4510 N   0  0  0  0  0  0  0  0  0  0  0  0
   -7.9810   22.8340  -32.0250 S   0  0  0  0  0  0  0  0  0  0  0  0
   -9.3310   23.3870  -32.3870 O   0  0  0  0  0  0  0  0  0  0  0  0
   -6.9810   23.3360  -33.0310 O   0  0  0  0  0  0  0  0  0  0  0  0
   -8.0510   21.0740  -32.0720 C   0  0  0  0  0  0  0  0  0  0  0  0
   -8.9160   20.3790  -31.2150 C   0  0  0  0  0  0  0  0  0  0  0  0
   -8.9590   18.9820  -31.2420 C   0  0  0  0  0  0  0  0  0  0  0  0
   -8.1310   18.2720  -32.1150 C   0  0  0  0  0  0  0  0  0  0  0  0
   -7.2540   18.9560  -32.9680 C   0  0  0  0  0  0  0  0  0  0  0  0
   -6.1850   18.0560  -34.0450 S   0  0  0  0  0  0  0  0  0  0  0  0
   -6.0840   18.8070  -35.3440 O   0  0  0  0  0  0  0  0  0  0  0  0
   -6.7850   16.7030  -34.3250 O   0  0  0  0  0  0  0  0  0  0  0  0
   -4.5970   17.8770  -33.3290 N   0  0  1  0  0  0  0  0  0  0  0  0
   -4.1810   16.4650  -33.4110 C   0  0  0  0  0  0  0  0  0  0  0  0
   -3.6030   18.7390  -34.0140 C   0  0  0  0  0  0  0  0  0  0  0  0
   -3.2620   19.9710  -33.2020 C   0  0  0  0  0  0  0  0  0  0  0  0
   -2.0280   20.0690  -32.5330 C   0  0  0  0  0  0  0  0  0  0  0  0
   -1.7160   21.2160  -31.7970 C   0  0  0  0  0  0  0  0  0  0  0  0
   -2.6340   22.2680  -31.7130 C   0  0  0  0  0  0  0  0  0  0  0  0
   -3.8700   22.1750  -32.3630 C   0  0  0  0  0  0  0  0  0  0  0  0
   -4.1830   21.0280  -33.1030 C   0  0  0  0  0  0  0  0  0  0  0  0
   -7.2240   20.3580  -32.9520 C   0  0  0  0  0  0  0  0  0  0  0  0
   -5.5710   22.6990  -29.1980 C   0  0  0  0  0  0  0  0  0  0  0  0
   -4.2550   22.9050  -28.7690 C   0  0  0  0  0  0  0  0  0  0  0  0
   -0.2580   20.6940  -28.8160 N   0  0  0  0  0  0  0  0  0  0  0  0
   -0.6610   19.6900  -28.0870 O   0  0  0  0  0  0  0  0  0  0  0  0
   -2.1305   19.4159  -25.3197 H   0  0  0  0  0  0  0  0  0  0  0  0
   -3.4398   19.1839  -26.5275 H   0  0  0  0  0  0  0  0  0  0  0  0
   -2.0140   18.0913  -26.5275 H   0  0  0  0  0  0  0  0  0  0  0  0
   -2.7141   21.9907  -27.0195 H   0  0  0  0  0  0  0  0  0  0  0  0
   -3.5736   25.7989  -30.4622 H   0  0  0  0  0  0  0  0  0  0  0  0
   -5.9126   25.4206  -31.2410 H   0  0  0  0  0  0  0  0  0  0  0  0
   -9.5625   20.9344  -30.5196 H   0  0  0  0  0  0  0  0  0  0  0  0
   -9.6459   18.4408  -30.5747 H   0  0  0  0  0  0  0  0  0  0  0  0
   -8.1674   17.1728  -32.1330 H   0  0  0  0  0  0  0  0  0  0  0  0
   -4.6640   18.1350  -32.3150 H   0  0  0  0  0  0  0  0  0  0  0  0
   -4.0612   16.0585  -32.3959 H   0  0  0  0  0  0  0  0  0  0  0  0
   -4.9472   15.8877  -33.9491 H   0  0  0  0  0  0  0  0  0  0  0  0
   -3.2242   16.3953  -33.9491 H   0  0  0  0  0  0  0  0  0  0  0  0
   -2.6839   18.1578  -34.1798 H   0  0  0  0  0  0  0  0  0  0  0  0
   -4.0420   19.0716  -34.9662 H   0  0  0  0  0  0  0  0  0  0  0  0
   -1.3065   19.2406  -32.5893 H   0  0  0  0  0  0  0  0  0  0  0  0
   -0.7465   21.2913  -31.2829 H   0  0  0  0  0  0  0  0  0  0  0  0
   -2.3841   23.1700  -31.1351 H   0  0  0  0  0  0  0  0  0  0  0  0
   -4.5936   23.0006  -32.2928 H   0  0  0  0  0  0  0  0  0  0  0  0
   -5.1563   20.9538  -33.6102 H   0  0  0  0  0  0  0  0  0  0  0  0
   -6.5495   20.8991  -33.6319 H   0  0  0  0  0  0  0  0  0  0  0  0
   -6.1245   21.8099  -28.8616 H   0  0  0  0  0  0  0  0  0  0  0  0
   -3.7819   22.1855  -28.0845 H   0  0  0  0  0  0  0  0  0  0  0  0
  1  2  1  0
  2  3  2  0
  3  4  1  0
  4  5  2  3
  5  6  1  0
  6  7  2  0
  6  8  2  0
  6  9  1  0
  9 10  2  0
 10 11  1  0
 11 12  2  0
 12 13  1  0
 13 14  1  0
 14 15  2  0
 14 16  2  0
 14 17  1  0
 17 18  2  0
 18 19  1  0
 19 20  2  0
 20 21  1  0
 21 22  1  0
 22 23  2  0
 22 24  2  0
 22 25  1  0
 25 26  1  0
 25 27  1  0
 27 28  1  0
 28 29  2  0
 29 30  1  0
 30 31  2  0
 31 32  1  0
 32 33  2  0
 21 34  2  0
 12 35  1  0
 35 36  2  0
  4 37  1  0
 37 38  1  0
 38  2  1  0
 36  9  1  0
 34 17  1  0
 33 28  1  0
  1 39  1  0
  1 40  1  0
  1 41  1  0
  3 42  1  0
 10 43  1  0
 11 44  1  0
 18 45  1  0
 19 46  1  0
 20 47  1  0
 25 48  1  1
 26 49  1  0
 26 50  1  0
 26 51  1  0
 27 52  1  0
 27 53  1  0
 29 54  1  0
 30 55  1  0
 31 56  1  0
 32 57  1  0
 33 58  1  0
 34 59  1  0
 35 60  1  0
 36 61  1  0
M  CHG  3  13  -1  25   1  37  -1
M  END
>  <UniqueID>  (47) 
45

>  <SMILES>  (47) 
Cc1cc(=NS(=O)(=O)c2ccc([N-]S(=O)(=O)c3cccc(S(=O)(=O)[N@@H+](C)Cc4ccccc4)c3)cc2)[n-]o1

>  <Energy>  (47) 
105.60944055742763

>  <Genealogy>  (47) 
Cc1cc(=NS(=O)(=O)c2ccc([N-]S(=O)(=O)c3cccc(S(=O)(=O)[NH+](C)Cc4ccccc4)c3)cc2)[n-]o1 (protonated)
Cc1cc(=NS(=O)(=O)c2ccc([N-]S(=O)(=O)c3cccc(S(=O)(=O)[N@@H+](C)Cc4ccccc4)c3)cc2)[n-]o1 (chirality)
Cc1cc(=NS(=O)(=O)c2ccc([N-]S(=O)(=O)c3cccc(S(=O)(=O)[N@@H+](C)Cc4ccccc4)c3)cc2)[n-]o1 (3D coordinates assigned)
Cc1cc(=NS(=O)(=O)c2ccc([N-]S(=O)(=O)c3cccc(S(=O)(=O)[N@@H+](C)Cc4ccccc4)c3)cc2)[n-]o1 (optimized conformer: 105.60944055742763 kcal/mol)

>  <smiles>  (47) 
Cc1cc(=NS(=O)(=O)c2ccc(NS(=O)(=O)c3cccc(S(=O)(=O)N(C)Cc4ccccc4)c3)cc2)[nH]o1

>  <score_type>  (47) 
oracle

>  <origin>  (47) 
adgpu

>  <m_score__min__energy>  (47) 
-11.82

>  <m_primary>  (47) 
energy

$$$$
47:0
     RDKit          3D

 50 52  0  0  0  0  0  0  0  0999 V2000
    1.4350   28.3700  -23.4720 C   0  0  0  0  0  0  0  0  0  0  0  0
    0.5480   27.5320  -22.6590 N   0  0  0  0  0  0  0  0  0  0  0  0
   -0.5680   26.9800  -23.4460 C   0  0  0  0  0  0  0  0  0  0  0  0
   -0.1050   25.9130  -24.4090 C   0  0  0  0  0  0  0  0  0  0  0  0
    1.1530   25.3160  -24.2650 C   0  0  0  0  0  0  0  0  0  0  0  0
    1.5670   24.3710  -25.1480 N   0  0  0  0  0  0  0  0  0  0  0  0
    0.7900   23.9730  -26.1890 C   0  0  0  0  0  0  0  0  0  0  0  0
   -0.4790   24.5420  -26.3860 C   0  0  0  0  0  0  0  0  0  0  0  0
   -1.3320   24.1230  -27.5280 C   0  0  0  0  0  0  0  0  0  0  0  0
   -2.6780   24.5200  -27.5960 C   0  0  0  0  0  0  0  0  0  0  0  0
   -3.4750   24.1470  -28.6820 C   0  0  0  0  0  0  0  0  0  0  0  0
   -4.7570   24.5880  -28.7360 F   0  0  0  0  0  0  0  0  0  0  0  0
   -2.9410   23.3590  -29.7150 C   0  0  0  0  0  0  0  0  0  0  0  0
   -3.9170   22.9640  -31.1360 S   0  0  0  0  0  0  0  0  0  0  0  0
   -4.6950   24.1650  -31.5920 O   0  0  0  0  0  0  0  0  0  0  0  0
   -3.0230   22.5230  -32.2610 O   0  0  0  0  0  0  0  0  0  0  0  0
   -5.0030   21.6780  -30.7360 N   0  0  0  0  0  0  0  0  0  0  0  0
   -6.3160   21.6390  -31.2920 C   0  0  0  0  0  0  0  0  0  0  0  0
   -7.3310   22.5520  -31.0840 C   0  0  0  0  0  0  0  0  0  0  0  0
   -7.2370   23.8290  -30.3150 C   0  0  0  0  0  0  0  0  0  0  0  0
   -8.4860   22.0460  -31.5620 N   0  0  0  0  0  0  0  0  0  0  0  0
   -8.2190   20.8540  -32.0800 N   0  0  0  0  0  0  0  0  0  0  0  0
   -9.2440   19.9620  -32.6100 C   0  0  0  0  0  0  0  0  0  0  0  0
   -6.9090   20.5670  -31.9220 C   0  0  0  0  0  0  0  0  0  0  0  0
   -6.2730   19.2480  -32.2360 C   0  0  0  0  0  0  0  0  0  0  0  0
   -1.5970   22.9610  -29.6500 C   0  0  0  0  0  0  0  0  0  0  0  0
   -1.0420   22.2230  -30.6440 F   0  0  0  0  0  0  0  0  0  0  0  0
   -0.8010   23.3390  -28.5660 C   0  0  0  0  0  0  0  0  0  0  0  0
   -0.9190   25.5220  -25.4810 C   0  0  0  0  0  0  0  0  0  0  0  0
    2.0748   28.9745  -22.8122 H   0  0  0  0  0  0  0  0  0  0  0  0
    2.0646   27.7292  -24.1068 H   0  0  0  0  0  0  0  0  0  0  0  0
    0.8310   29.0350  -24.1068 H   0  0  0  0  0  0  0  0  0  0  0  0
    0.1840   28.0900  -21.8520 H   0  0  0  0  0  0  0  0  0  0  0  0
    1.1090   26.7340  -22.2780 H   0  0  0  0  0  0  0  0  0  0  0  0
   -1.3058   26.5419  -22.7578 H   0  0  0  0  0  0  0  0  0  0  0  0
   -1.0096   27.7994  -24.0321 H   0  0  0  0  0  0  0  0  0  0  0  0
    1.8087   25.6135  -23.4334 H   0  0  0  0  0  0  0  0  0  0  0  0
    1.1567   23.2009  -26.8814 H   0  0  0  0  0  0  0  0  0  0  0  0
   -3.1083   25.1295  -26.7877 H   0  0  0  0  0  0  0  0  0  0  0  0
   -7.2531   23.6100  -29.2371 H   0  0  0  0  0  0  0  0  0  0  0  0
   -6.2986   24.3428  -30.5708 H   0  0  0  0  0  0  0  0  0  0  0  0
   -8.0900   24.4747  -30.5708 H   0  0  0  0  0  0  0  0  0  0  0  0
   -9.7860   19.4903  -31.7770 H   0  0  0  0  0  0  0  0  0  0  0  0
   -9.9491   20.5390  -33.2263 H   0  0  0  0  0  0  0  0  0  0  0  0
   -8.7699   19.1839  -33.2263 H   0  0  0  0  0  0  0  0  0  0  0  0
   -6.0228   18.7292  -31.2988 H   0  0  0  0  0  0  0  0  0  0  0  0
   -6.9735   18.6329  -32.8199 H   0  0  0  0  0  0  0  0  0  0  0  0
   -5.3555   19.4131  -32.8199 H   0  0  0  0  0  0  0  0  0  0  0  0
    0.2509   23.0200  -28.5247 H   0  0  0  0  0  0  0  0  0  0  0  0
   -1.9078   25.9851  -25.6143 H   0  0  0  0  0  0  0  0  0  0  0  0
  1  2  1  0
  2  3  1  0
  3  4  1  0
  4  5  2  0
  5  6  1  0
  6  7  2  0
  7  8  1  0
  8  9  1  0
  9 10  2  0
 10 11  1  0
 11 12  1  0
 11 13  2  0
 13 14  1  0
 14 15  2  0
 14 16  2  0
 14 17  1  0
 17 18  1  0
 18 19  1  0
 19 20  1  0
 19 21  2  0
 21 22  1  0
 22 23  1  0
 22 24  1  0
 24 25  1  0
 13 26  1  0
 26 27  1  0
 26 28  2  0
  8 29  2  0
 29  4  1  0
 28  9  1  0
 24 18  2  0
  1 30  1  0
  1 31  1  0
  1 32  1  0
  2 33  1  0
  2 34  1  0
  3 35  1  0
  3 36  1  0
  5 37  1  0
  7 38  1  0
 10 39  1  0
 20 40  1  0
 20 41  1  0
 20 42  1  0
 23 43  1  0
 23 44  1  0
 23 45  1  0
 25 46  1  0
 25 47  1  0
 25 48  1  0
 28 49  1  0
 29 50  1  0
M  CHG  2   2   1  17  -1
M  END
>  <UniqueID>  (48) 
46

>  <SMILES>  (48) 
C[NH2+]Cc1cncc(-c2cc(F)c(S(=O)(=O)[N-]c3c(C)nn(C)c3C)c(F)c2)c1

>  <Energy>  (48) 
94.22691067141824

>  <Genealogy>  (48) 
C[NH2+]Cc1cncc(-c2cc(F)c(S(=O)(=O)[N-]c3c(C)nn(C)c3C)c(F)c2)c1 (protonated)
C[NH2+]Cc1cncc(-c2cc(F)c(S(=O)(=O)[N-]c3c(C)nn(C)c3C)c(F)c2)c1 (3D coordinates assigned)
C[NH2+]Cc1cncc(-c2cc(F)c(S(=O)(=O)[N-]c3c(C)nn(C)c3C)c(F)c2)c1 (optimized conformer: 94.22691067141824 kcal/mol)

>  <smiles>  (48) 
CNCc1cncc(-c2cc(F)c(S(=O)(=O)Nc3c(C)nn(C)c3C)c(F)c2)c1

>  <score_type>  (48) 
oracle

>  <origin>  (48) 
adgpu

>  <m_score__min__energy>  (48) 
-9.4399999999999995

>  <m_primary>  (48) 
energy

$$$$
48:0
     RDKit          3D

 25 26  0  0  0  0  0  0  0  0999 V2000
   -1.6720   21.4420  -26.2110 O   0  0  0  0  0  0  0  0  0  0  0  0
   -1.6480   21.3820  -27.4720 C   0  0  0  0  0  0  0  0  0  0  0  0
   -1.0240   20.2020  -28.1180 C   0  0  0  0  0  0  0  0  0  0  0  0
   -0.9400   20.1050  -29.5200 C   0  0  0  0  0  0  0  0  0  0  0  0
   -0.3650   18.9790  -30.1170 C   0  0  0  0  0  0  0  0  0  0  0  0
    0.1200   17.9370  -29.3260 C   0  0  0  0  0  0  0  0  0  0  0  0
    0.0270   18.0130  -27.9300 C   0  0  0  0  0  0  0  0  0  0  0  0
    0.5020   16.9760  -27.1300 O   0  0  0  0  0  0  0  0  0  0  0  0
   -0.5480   19.1390  -27.3310 C   0  0  0  0  0  0  0  0  0  0  0  0
   -2.2430   22.4950  -28.2520 C   0  0  0  0  0  0  0  0  0  0  0  0
   -3.4050   22.2980  -29.0210 C   0  0  0  0  0  0  0  0  0  0  0  0
   -3.9460   23.3500  -29.7660 C   0  0  0  0  0  0  0  0  0  0  0  0
   -3.3300   24.6050  -29.7610 C   0  0  0  0  0  0  0  0  0  0  0  0
   -3.8740   25.6460  -30.5030 O   0  0  0  0  0  0  0  0  0  0  0  0
   -2.1650   24.8070  -29.0110 C   0  0  0  0  0  0  0  0  0  0  0  0
   -1.5450   26.0510  -29.0060 O   0  0  0  0  0  0  0  0  0  0  0  0
   -1.6210   23.7550  -28.2660 C   0  0  0  0  0  0  0  0  0  0  0  0
   -1.3288   20.9193  -30.1490 H   0  0  0  0  0  0  0  0  0  0  0  0
   -0.2948   18.9145  -31.2129 H   0  0  0  0  0  0  0  0  0  0  0  0
    0.5760   17.0547  -29.7989 H   0  0  0  0  0  0  0  0  0  0  0  0
   -0.1290   16.3620  -26.6290 H   0  0  0  0  0  0  0  0  0  0  0  0
   -0.6283   19.1929  -26.2353 H   0  0  0  0  0  0  0  0  0  0  0  0
   -3.8902   21.3109  -29.0360 H   0  0  0  0  0  0  0  0  0  0  0  0
   -4.8592   23.1898  -30.3580 H   0  0  0  0  0  0  0  0  0  0  0  0
   -0.6996   23.9154  -27.6870 H   0  0  0  0  0  0  0  0  0  0  0  0
  1  2  2  0
  2  3  1  0
  3  4  2  0
  4  5  1  0
  5  6  2  0
  6  7  1  0
  7  8  1  0
  7  9  2  0
  2 10  1  0
 10 11  2  0
 11 12  1  0
 12 13  2  0
 13 14  1  0
 13 15  1  0
 15 16  1  0
 15 17  2  0
  9  3  1  0
 17 10  1  0
  4 18  1  0
  5 19  1  0
  6 20  1  0
  8 21  1  0
  9 22  1  0
 11 23  1  0
 12 24  1  0
 17 25  1  0
M  CHG  2  14  -1  16  -1
M  END
>  <UniqueID>  (49) 
47

>  <SMILES>  (49) 
O=C(c1cccc(O)c1)c1ccc([O-])c([O-])c1

>  <Energy>  (49) 
32.24401691605665

>  <Genealogy>  (49) 
O=C(c1cccc(O)c1)c1ccc([O-])c([O-])c1 (protonated)
O=C(c1cccc(O)c1)c1ccc([O-])c([O-])c1 (3D coordinates assigned)
O=C(c1cccc(O)c1)c1ccc([O-])c([O-])c1 (optimized conformer: 32.24401691605665 kcal/mol)

>  <smiles>  (49) 
O=C(c1cccc(O)c1)c1ccc(O)c(O)c1

>  <score_type>  (49) 
oracle

>  <origin>  (49) 
adgpu

>  <m_score__min__energy>  (49) 
-11.630000000000001

>  <m_primary>  (49) 
energy

$$$$
