0:0
     RDKit          3D

 35 38  0  0  0  0  0  0  0  0999 V2000
   -3.4880   25.2870  -30.4850 O   0  0  0  0  0  0  0  0  0  0  0  0
   -4.7320   24.6930  -30.6560 C   0  0  0  0  0  0  0  0  0  0  0  0
   -5.8940   25.3480  -30.1870 C   0  0  0  0  0  0  0  0  0  0  0  0
   -7.1630   24.7680  -30.3710 C   0  0  0  0  0  0  0  0  0  0  0  0
   -7.2240   23.5320  -31.0080 C   0  0  0  0  0  0  0  0  0  0  0  0
   -8.3240   22.8260  -31.3220 N   0  0  0  0  0  0  0  0  0  0  0  0
   -7.9220   21.7260  -31.9520 N   0  0  0  0  0  0  0  0  0  0  0  0
   -6.5690   21.7250  -32.0330 C   0  0  0  0  0  0  0  0  0  0  0  0
   -5.7900   20.6450  -32.6730 C   0  0  0  0  0  0  0  0  0  0  0  0
   -6.4230   19.4400  -33.0130 C   0  0  0  0  0  0  0  0  0  0  0  0
   -5.7000   18.4020  -33.6070 C   0  0  0  0  0  0  0  0  0  0  0  0
   -4.3240   18.5450  -33.8610 C   0  0  0  0  0  0  0  0  0  0  0  0
   -3.5540   17.4430  -34.4930 C   0  0  0  0  0  0  0  0  0  0  0  0
   -4.2070   16.2780  -34.9350 C   0  0  0  0  0  0  0  0  0  0  0  0
   -3.4810   15.2420  -35.5290 C   0  0  0  0  0  0  0  0  0  0  0  0
   -2.0990   15.3550  -35.6900 C   0  0  0  0  0  0  0  0  0  0  0  0
   -1.4350   16.5090  -35.2570 C   0  0  0  0  0  0  0  0  0  0  0  0
   -0.0570   16.6370  -35.4140 O   0  0  0  0  0  0  0  0  0  0  0  0
   -2.1600   17.5470  -34.6600 C   0  0  0  0  0  0  0  0  0  0  0  0
   -3.6890   19.7460  -33.4990 C   0  0  0  0  0  0  0  0  0  0  0  0
   -4.4140   20.7830  -32.9060 C   0  0  0  0  0  0  0  0  0  0  0  0
   -6.1000   22.8840  -31.4400 C   0  0  0  0  0  0  0  0  0  0  0  0
   -4.8290   23.4440  -31.3000 C   0  0  0  0  0  0  0  0  0  0  0  0
   -5.8055   26.3175  -29.6748 H   0  0  0  0  0  0  0  0  0  0  0  0
   -8.0756   25.2743  -30.0232 H   0  0  0  0  0  0  0  0  0  0  0  0
   -7.4965   19.3113  -32.8105 H   0  0  0  0  0  0  0  0  0  0  0  0
   -6.2108   17.4662  -33.8779 H   0  0  0  0  0  0  0  0  0  0  0  0
   -5.2959   16.1819  -34.8123 H   0  0  0  0  0  0  0  0  0  0  0  0
   -4.0003   14.3345  -35.8708 H   0  0  0  0  0  0  0  0  0  0  0  0
   -1.5313   14.5369  -36.1573 H   0  0  0  0  0  0  0  0  0  0  0  0
    0.4890   15.9290  -35.8930 H   0  0  0  0  0  0  0  0  0  0  0  0
   -1.6360   18.4518  -34.3184 H   0  0  0  0  0  0  0  0  0  0  0  0
   -2.6119   19.8704  -33.6842 H   0  0  0  0  0  0  0  0  0  0  0  0
   -3.9021   21.7137  -32.6201 H   0  0  0  0  0  0  0  0  0  0  0  0
   -3.9346   22.9280  -31.6793 H   0  0  0  0  0  0  0  0  0  0  0  0
  1  2  1  0
  2  3  2  0
  3  4  1  0
  4  5  2  0
  5  6  1  0
  6  7  1  0
  7  8  2  0
  8  9  1  0
  9 10  2  0
 10 11  1  0
 11 12  2  0
 12 13  1  0
 13 14  2  0
 14 15  1  0
 15 16  2  0
 16 17  1  0
 17 18  1  0
 17 19  2  0
 12 20  1  0
 20 21  2  0
  8 22  1  0
 22 23  2  0
 23  2  1  0
 22  5  1  0
 21  9  1  0
 19 13  1  0
  3 24  1  0
  4 25  1  0
 10 26  1  0
 11 27  1  0
 14 28  1  0
 15 29  1  0
 16 30  1  0
 18 31  1  0
 19 32  1  0
 20 33  1  0
 21 34  1  0
 23 35  1  0
M  CHG  2   1  -1   6  -1
M  END
>  <UniqueID>  (1) 
1

>  <SMILES>  (1) 
[O-]c1ccc2[n-]nc(-c3ccc(-c4cccc(O)c4)cc3)c2c1

>  <Energy>  (1) 
87.40560456220948

>  <Genealogy>  (1) 
[O-]c1ccc2[n-]nc(-c3ccc(-c4cccc(O)c4)cc3)c2c1 (protonated)
[O-]c1ccc2[n-]nc(-c3ccc(-c4cccc(O)c4)cc3)c2c1 (3D coordinates assigned)
[O-]c1ccc2[n-]nc(-c3ccc(-c4cccc(O)c4)cc3)c2c1 (optimized conformer: 87.40560456220948 kcal/mol)

>  <smiles>  (1) 
Oc1cccc(-c2ccc(-c3n[nH]c4ccc(O)cc34)cc2)c1

>  <score_type>  (1) 
oracle

>  <origin>  (1) 
adgpu

>  <m_score__min__energy>  (1) 
-10.199999999999999

>  <m_primary>  (1) 
energy

$$$$
1:0
     RDKit          3D

 21 22  0  0  0  0  0  0  0  0999 V2000
   -8.8300   19.7870  -32.6940 C   0  0  0  0  0  0  0  0  0  0  0  0
   -9.4860   20.7920  -31.9800 C   0  0  0  0  0  0  0  0  0  0  0  0
   -8.7730   21.9000  -31.5140 C   0  0  0  0  0  0  0  0  0  0  0  0
   -7.3910   22.0140  -31.7580 C   0  0  0  0  0  0  0  0  0  0  0  0
   -6.6300   23.1910  -31.2630 C   0  0  0  0  0  0  0  0  0  0  0  0
   -7.2180   24.1060  -30.3720 C   0  0  0  0  0  0  0  0  0  0  0  0
   -6.4900   25.2080  -29.9170 C   0  0  0  0  0  0  0  0  0  0  0  0
   -5.1780   25.3880  -30.3530 C   0  0  0  0  0  0  0  0  0  0  0  0
   -4.6180   24.4990  -31.2130 N   0  0  0  0  0  0  0  0  0  0  0  0
   -5.3040   23.4180  -31.6740 C   0  0  0  0  0  0  0  0  0  0  0  0
   -6.7410   20.9940  -32.4780 C   0  0  0  0  0  0  0  0  0  0  0  0
   -7.4600   19.8870  -32.9430 C   0  0  0  0  0  0  0  0  0  0  0  0
   -9.3931   18.9160  -33.0604 H   0  0  0  0  0  0  0  0  0  0  0  0
  -10.5654   20.7114  -31.7841 H   0  0  0  0  0  0  0  0  0  0  0  0
   -9.2953   22.6887  -30.9526 H   0  0  0  0  0  0  0  0  0  0  0  0
   -8.2532   23.9538  -30.0326 H   0  0  0  0  0  0  0  0  0  0  0  0
   -6.9475   25.9269  -29.2214 H   0  0  0  0  0  0  0  0  0  0  0  0
   -4.5956   26.2517  -29.9997 H   0  0  0  0  0  0  0  0  0  0  0  0
   -4.8195   22.7186  -32.3711 H   0  0  0  0  0  0  0  0  0  0  0  0
   -5.6615   21.0674  -32.6764 H   0  0  0  0  0  0  0  0  0  0  0  0
   -6.9448   19.0945  -33.5056 H   0  0  0  0  0  0  0  0  0  0  0  0
  1  2  2  0
  2  3  1  0
  3  4  2  0
  4  5  1  0
  5  6  2  0
  6  7  1  0
  7  8  2  0
  8  9  1  0
  9 10  2  0
  4 11  1  0
 11 12  2  0
 12  1  1  0
 10  5  1  0
  1 13  1  0
  2 14  1  0
  3 15  1  0
  6 16  1  0
  7 17  1  0
  8 18  1  0
 10 19  1  0
 11 20  1  0
 12 21  1  0
M  END
>  <UniqueID>  (2) 
2

>  <SMILES>  (2) 
c1ccc(-c2cccnc2)cc1

>  <Energy>  (2) 
27.919639128657167

>  <Genealogy>  (2) 
c1ccc(-c2cccnc2)cc1 (3D coordinates assigned)
c1ccc(-c2cccnc2)cc1 (optimized conformer: 27.919639128657167 kcal/mol)

>  <smiles>  (2) 
c1ccc(-c2cccnc2)cc1

>  <score_type>  (2) 
oracle

>  <origin>  (2) 
adgpu

>  <m_score__min__energy>  (2) 
-6.3799999999999999

>  <m_primary>  (2) 
energy

$$$$
2:0
     RDKit          3D

 41 43  0  0  0  0  0  0  0  0999 V2000
   -5.7070   17.5300  -34.5360 C   0  0  0  0  0  0  0  0  0  0  0  0
   -6.4300   17.9160  -33.2850 C   0  0  0  0  0  0  0  0  0  0  0  0
   -6.7160   17.0460  -32.2990 N   0  0  0  0  0  0  0  0  0  0  0  0
   -7.3600   17.7060  -31.3830 O   0  0  0  0  0  0  0  0  0  0  0  0
   -7.5130   18.9660  -31.7150 C   0  0  0  0  0  0  0  0  0  0  0  0
   -8.1480   19.7970  -30.9380 N   0  0  0  0  0  0  0  0  0  0  0  0
   -8.4790   21.4890  -31.1420 S   0  0  0  0  0  0  0  0  0  0  0  0
   -9.5610   21.9110  -30.1880 O   0  0  0  0  0  0  0  0  0  0  0  0
   -8.9760   21.7060  -32.5430 O   0  0  0  0  0  0  0  0  0  0  0  0
   -7.0220   22.4550  -30.9360 C   0  0  0  0  0  0  0  0  0  0  0  0
   -7.0220   23.5440  -30.0570 C   0  0  0  0  0  0  0  0  0  0  0  0
   -5.8700   24.3190  -29.8990 C   0  0  0  0  0  0  0  0  0  0  0  0
   -4.7100   24.0230  -30.6240 C   0  0  0  0  0  0  0  0  0  0  0  0
   -3.5440   24.8340  -30.4190 N   0  0  0  0  0  0  0  0  0  0  0  0
   -2.5490   24.6610  -29.3990 C   0  0  0  0  0  0  0  0  0  0  0  0
   -1.9160   25.6580  -28.9590 O   0  0  0  0  0  0  0  0  0  0  0  0
   -2.3040   23.3170  -28.8250 C   0  0  0  0  0  0  0  0  0  0  0  0
   -1.0690   22.6690  -29.0170 C   0  0  0  0  0  0  0  0  0  0  0  0
   -0.8410   21.4030  -28.4720 C   0  0  0  0  0  0  0  0  0  0  0  0
   -1.8390   20.7670  -27.7280 C   0  0  0  0  0  0  0  0  0  0  0  0
   -1.5480   19.1790  -27.0430 Cl  0  0  0  0  0  0  0  0  0  0  0  0
   -3.0680   21.4010  -27.5300 C   0  0  0  0  0  0  0  0  0  0  0  0
   -3.3020   22.6670  -28.0740 C   0  0  0  0  0  0  0  0  0  0  0  0
   -4.7010   22.9060  -31.4790 C   0  0  0  0  0  0  0  0  0  0  0  0
   -5.8520   22.1300  -31.6360 C   0  0  0  0  0  0  0  0  0  0  0  0
   -6.9060   19.1770  -32.9570 C   0  0  0  0  0  0  0  0  0  0  0  0
   -6.8420   20.3850  -33.8440 C   0  0  0  0  0  0  0  0  0  0  0  0
   -4.7645   17.0268  -34.2744 H   0  0  0  0  0  0  0  0  0  0  0  0
   -6.3354   16.8473  -35.1269 H   0  0  0  0  0  0  0  0  0  0  0  0
   -5.4894   18.4319  -35.1269 H   0  0  0  0  0  0  0  0  0  0  0  0
   -7.9312   23.7905  -29.4890 H   0  0  0  0  0  0  0  0  0  0  0  0
   -5.8749   25.1680  -29.1996 H   0  0  0  0  0  0  0  0  0  0  0  0
   -0.2780   23.1630  -29.6003 H   0  0  0  0  0  0  0  0  0  0  0  0
    0.1272   20.9050  -28.6289 H   0  0  0  0  0  0  0  0  0  0  0  0
   -3.8541   20.9022  -26.9441 H   0  0  0  0  0  0  0  0  0  0  0  0
   -4.2728   23.1591  -27.9143 H   0  0  0  0  0  0  0  0  0  0  0  0
   -3.7839   22.6425  -32.0262 H   0  0  0  0  0  0  0  0  0  0  0  0
   -5.8400   21.2615  -32.3109 H   0  0  0  0  0  0  0  0  0  0  0  0
   -6.7939   21.2927  -33.2245 H   0  0  0  0  0  0  0  0  0  0  0  0
   -5.9457   20.3266  -34.4790 H   0  0  0  0  0  0  0  0  0  0  0  0
   -7.7395   20.4216  -34.4790 H   0  0  0  0  0  0  0  0  0  0  0  0
  1  2  1  0
  2  3  1  0
  3  4  1  0
  4  5  1  0
  5  6  2  3
  6  7  1  0
  7  8  2  0
  7  9  2  0
  7 10  1  0
 10 11  2  0
 11 12  1  0
 12 13  2  0
 13 14  1  0
 14 15  1  0
 15 16  2  0
 15 17  1  0
 17 18  2  0
 18 19  1  0
 19 20  2  0
 20 21  1  0
 20 22  1  0
 22 23  2  0
 13 24  1  0
 24 25  2  0
  5 26  1  0
 26 27  1  0
 26  2  2  0
 25 10  1  0
 23 17  1  0
  1 28  1  0
  1 29  1  0
  1 30  1  0
 11 31  1  0
 12 32  1  0
 18 33  1  0
 19 34  1  0
 22 35  1  0
 23 36  1  0
 24 37  1  0
 25 38  1  0
 27 39  1  0
 27 40  1  0
 27 41  1  0
M  CHG  2   3  -1  14  -1
M  END
>  <UniqueID>  (3) 
3

>  <SMILES>  (3) 
Cc1[n-]oc(=NS(=O)(=O)c2ccc([N-]C(=O)c3ccc(Cl)cc3)cc2)c1C

>  <Energy>  (3) 
87.1139542797929

>  <Genealogy>  (3) 
Cc1[n-]oc(=NS(=O)(=O)c2ccc([N-]C(=O)c3ccc(Cl)cc3)cc2)c1C (protonated)
Cc1[n-]oc(=NS(=O)(=O)c2ccc([N-]C(=O)c3ccc(Cl)cc3)cc2)c1C (3D coordinates assigned)
Cc1[n-]oc(=NS(=O)(=O)c2ccc([N-]C(=O)c3ccc(Cl)cc3)cc2)c1C (optimized conformer: 87.1139542797929 kcal/mol)

>  <smiles>  (3) 
Cc1[nH]oc(=NS(=O)(=O)c2ccc(NC(=O)c3ccc(Cl)cc3)cc2)c1C

>  <score_type>  (3) 
oracle

>  <origin>  (3) 
adgpu

>  <m_score__min__energy>  (3) 
-10.93

>  <m_primary>  (3) 
energy

$$$$
3:0
     RDKit          3D

 50 52  0  0  0  0  0  0  0  0999 V2000
   -0.0950   20.8170  -31.1440 C   0  0  0  0  0  0  0  0  0  0  0  0
   -1.4740   21.2370  -31.4400 N   0  0  0  0  0  0  0  0  0  0  0  0
   -2.3710   20.7580  -30.3730 C   0  0  0  0  0  0  0  0  0  0  0  0
   -1.8910   20.7220  -32.7640 C   0  0  0  0  0  0  0  0  0  0  0  0
   -3.1510   19.8510  -32.6610 C   0  0  0  0  0  0  0  0  0  0  0  0
   -4.3830   20.5470  -33.2550 C   0  0  0  0  0  0  0  0  0  0  0  0
   -4.8950   21.5550  -32.3220 N   0  0  0  0  0  0  0  0  0  0  0  0
   -4.2960   22.7330  -32.0560 C   0  0  0  0  0  0  0  0  0  0  0  0
   -5.1370   23.5240  -31.2950 C   0  0  0  0  0  0  0  0  0  0  0  0
   -4.8480   24.8900  -30.8210 C   0  0  0  0  0  0  0  0  0  0  0  0
   -5.7360   25.7770  -30.9200 O   0  0  0  0  0  0  0  0  0  0  0  0
   -3.5620   25.2560  -30.3000 N   0  0  0  0  0  0  0  0  0  0  0  0
   -2.8330   24.5500  -29.2860 C   0  0  0  0  0  0  0  0  0  0  0  0
   -1.5250   24.9540  -28.9850 C   0  0  0  0  0  0  0  0  0  0  0  0
   -0.7910   24.2910  -27.9960 C   0  0  0  0  0  0  0  0  0  0  0  0
   -1.3660   23.2300  -27.2910 C   0  0  0  0  0  0  0  0  0  0  0  0
   -2.6780   22.8370  -27.5670 C   0  0  0  0  0  0  0  0  0  0  0  0
   -3.4150   23.4990  -28.5530 C   0  0  0  0  0  0  0  0  0  0  0  0
   -6.2940   22.7950  -31.0840 C   0  0  0  0  0  0  0  0  0  0  0  0
   -6.1150   21.5900  -31.7330 C   0  0  0  0  0  0  0  0  0  0  0  0
   -7.1540   20.5490  -31.8590 C   0  0  0  0  0  0  0  0  0  0  0  0
   -6.8270   19.2030  -31.6210 C   0  0  0  0  0  0  0  0  0  0  0  0
   -7.8090   18.2120  -31.7180 C   0  0  0  0  0  0  0  0  0  0  0  0
   -9.1190   18.5560  -32.0630 C   0  0  0  0  0  0  0  0  0  0  0  0
   -9.4460   19.8890  -32.3220 C   0  0  0  0  0  0  0  0  0  0  0  0
   -8.4660   20.8830  -32.2280 C   0  0  0  0  0  0  0  0  0  0  0  0
    0.0490   20.7731  -30.0544 H   0  0  0  0  0  0  0  0  0  0  0  0
    0.0867   19.8228  -31.5782 H   0  0  0  0  0  0  0  0  0  0  0  0
    0.6100   21.5411  -31.5782 H   0  0  0  0  0  0  0  0  0  0  0  0
   -1.9319   20.9925  -29.3921 H   0  0  0  0  0  0  0  0  0  0  0  0
   -3.3483   21.2543  -30.4653 H   0  0  0  0  0  0  0  0  0  0  0  0
   -2.5022   19.6698  -30.4653 H   0  0  0  0  0  0  0  0  0  0  0  0
   -2.0991   21.5734  -33.4287 H   0  0  0  0  0  0  0  0  0  0  0  0
   -1.0757   20.1012  -33.1638 H   0  0  0  0  0  0  0  0  0  0  0  0
   -2.9779   18.9108  -33.2050 H   0  0  0  0  0  0  0  0  0  0  0  0
   -3.3480   19.6644  -31.5950 H   0  0  0  0  0  0  0  0  0  0  0  0
   -4.1037   21.0355  -34.2002 H   0  0  0  0  0  0  0  0  0  0  0  0
   -5.1661   19.7962  -33.4369 H   0  0  0  0  0  0  0  0  0  0  0  0
   -3.2896   23.0216  -32.3935 H   0  0  0  0  0  0  0  0  0  0  0  0
   -1.0735   25.7966  -29.5292 H   0  0  0  0  0  0  0  0  0  0  0  0
    0.2394   24.6048  -27.7730 H   0  0  0  0  0  0  0  0  0  0  0  0
   -0.7854   22.7042  -26.5186 H   0  0  0  0  0  0  0  0  0  0  0  0
   -3.1315   22.0055  -27.0076 H   0  0  0  0  0  0  0  0  0  0  0  0
   -4.4531   23.1976  -28.7567 H   0  0  0  0  0  0  0  0  0  0  0  0
   -7.1792   23.1123  -30.5133 H   0  0  0  0  0  0  0  0  0  0  0  0
   -5.7950   18.9280  -31.3575 H   0  0  0  0  0  0  0  0  0  0  0  0
   -7.5502   17.1609  -31.5226 H   0  0  0  0  0  0  0  0  0  0  0  0
   -9.8926   17.7769  -32.1306 H   0  0  0  0  0  0  0  0  0  0  0  0
  -10.4757   20.1577  -32.6003 H   0  0  0  0  0  0  0  0  0  0  0  0
   -8.7249   21.9300  -32.4441 H   0  0  0  0  0  0  0  0  0  0  0  0
  1  2  1  0
  2  3  1  0
  2  4  1  0
  4  5  1  0
  5  6  1  0
  6  7  1  0
  7  8  1  0
  8  9  2  0
  9 10  1  0
 10 11  2  0
 10 12  1  0
 12 13  1  0
 13 14  2  0
 14 15  1  0
 15 16  2  0
 16 17  1  0
 17 18  2  0
  9 19  1  0
 19 20  2  0
 20 21  1  0
 21 22  2  0
 22 23  1  0
 23 24  2  0
 24 25  1  0
 25 26  2  0
 20  7  1  0
 26 21  1  0
 18 13  1  0
  1 27  1  0
  1 28  1  0
  1 29  1  0
  3 30  1  0
  3 31  1  0
  3 32  1  0
  4 33  1  0
  4 34  1  0
  5 35  1  0
  5 36  1  0
  6 37  1  0
  6 38  1  0
  8 39  1  0
 14 40  1  0
 15 41  1  0
 16 42  1  0
 17 43  1  0
 18 44  1  0
 19 45  1  0
 22 46  1  0
 23 47  1  0
 24 48  1  0
 25 49  1  0
 26 50  1  0
M  CHG  1  12  -1
M  END
>  <UniqueID>  (4) 
4

>  <SMILES>  (4) 
CN(C)CCCn1cc(C(=O)[N-]c2ccccc2)cc1-c1ccccc1

>  <Energy>  (4) 
82.99216447103674

>  <Genealogy>  (4) 
CN(C)CCCn1cc(C(=O)[N-]c2ccccc2)cc1-c1ccccc1 (protonated)
CN(C)CCCn1cc(C(=O)[N-]c2ccccc2)cc1-c1ccccc1 (3D coordinates assigned)
CN(C)CCCn1cc(C(=O)[N-]c2ccccc2)cc1-c1ccccc1 (optimized conformer: 82.99216447103674 kcal/mol)

>  <smiles>  (4) 
CN(C)CCCn1cc(C(=O)Nc2ccccc2)cc1-c1ccccc1

>  <score_type>  (4) 
oracle

>  <origin>  (4) 
adgpu

>  <m_score__min__energy>  (4) 
-10.19

>  <m_primary>  (4) 
energy

$$$$
4:0
     RDKit          3D

 20 20  0  0  0  0  0  0  0  0999 V2000
   -7.9130   19.8850  -33.4010 N   0  0  0  0  0  0  0  0  0  0  0  0
   -8.5790   20.6430  -31.9960 S   0  0  0  0  0  0  0  0  0  0  0  0
   -8.7780   19.6160  -30.9170 O   0  0  0  0  0  0  0  0  0  0  0  0
   -9.9070   21.2500  -32.3560 O   0  0  0  0  0  0  0  0  0  0  0  0
   -7.4860   21.8950  -31.4180 C   0  0  0  0  0  0  0  0  0  0  0  0
   -6.1070   21.6550  -31.3730 C   0  0  0  0  0  0  0  0  0  0  0  0
   -5.2350   22.6450  -30.9070 C   0  0  0  0  0  0  0  0  0  0  0  0
   -5.7330   23.8830  -30.4750 C   0  0  0  0  0  0  0  0  0  0  0  0
   -4.8280   24.8890  -29.9990 N   0  0  0  0  0  0  0  0  0  0  0  0
   -3.8050   25.3370  -30.7660 O   0  0  0  0  0  0  0  0  0  0  0  0
   -7.1180   24.1180  -30.5150 C   0  0  0  0  0  0  0  0  0  0  0  0
   -7.9880   23.1280  -30.9810 C   0  0  0  0  0  0  0  0  0  0  0  0
   -8.3310   18.9290  -33.4600 H   0  0  0  0  0  0  0  0  0  0  0  0
   -8.2600   20.4180  -34.2280 H   0  0  0  0  0  0  0  0  0  0  0  0
   -5.7082   20.6851  -31.7051 H   0  0  0  0  0  0  0  0  0  0  0  0
   -4.1525   22.4513  -30.8793 H   0  0  0  0  0  0  0  0  0  0  0  0
   -4.9630   25.3060  -29.0510 H   0  0  0  0  0  0  0  0  0  0  0  0
   -4.2360   25.6750  -31.5930 H   0  0  0  0  0  0  0  0  0  0  0  0
   -7.5192   25.0852  -30.1781 H   0  0  0  0  0  0  0  0  0  0  0  0
   -9.0712   23.3178  -31.0047 H   0  0  0  0  0  0  0  0  0  0  0  0
  1  2  1  0
  2  3  2  0
  2  4  2  0
  2  5  1  0
  5  6  2  0
  6  7  1  0
  7  8  2  0
  8  9  1  0
  9 10  1  0
  8 11  1  0
 11 12  2  0
 12  5  1  0
  1 13  1  0
  1 14  1  0
  6 15  1  0
  7 16  1  0
  9 17  1  0
 10 18  1  0
 11 19  1  0
 12 20  1  0
M  END
>  <UniqueID>  (5) 
5

>  <SMILES>  (5) 
NS(=O)(=O)c1ccc(NO)cc1

>  <Energy>  (5) 
16.053007182712545

>  <Genealogy>  (5) 
NS(=O)(=O)c1ccc(NO)cc1 (3D coordinates assigned)
NS(=O)(=O)c1ccc(NO)cc1 (optimized conformer: 16.053007182712545 kcal/mol)

>  <smiles>  (5) 
NS(=O)(=O)c1ccc(NO)cc1

>  <score_type>  (5) 
oracle

>  <origin>  (5) 
adgpu

>  <m_score__min__energy>  (5) 
-7.0300000000000002

>  <m_primary>  (5) 
energy

$$$$
5:0
     RDKit          3D

 35 37  0  0  0  0  0  0  0  0999 V2000
   -4.6370   25.3070  -31.0770 O   0  0  0  0  0  0  0  0  0  0  0  0
   -4.1400   24.3210  -30.4690 C   0  0  0  0  0  0  0  0  0  0  0  0
   -3.4120   24.5540  -29.2100 C   0  0  0  0  0  0  0  0  0  0  0  0
   -3.7780   24.0740  -27.9670 C   0  0  0  0  0  0  0  0  0  0  0  0
   -2.8290   24.5520  -27.0890 C   0  0  0  0  0  0  0  0  0  0  0  0
   -1.9480   25.2950  -27.8470 C   0  0  0  0  0  0  0  0  0  0  0  0
   -2.3240   25.2790  -29.1040 O   0  0  0  0  0  0  0  0  0  0  0  0
   -4.2680   23.0020  -31.0380 N   0  0  0  0  0  0  0  0  0  0  0  0
   -3.0840   22.1570  -31.2800 C   0  0  0  0  0  0  0  0  0  0  0  0
   -2.4250   21.7440  -29.9860 C   0  0  0  0  0  0  0  0  0  0  0  0
   -3.0970   20.9160  -29.0720 C   0  0  0  0  0  0  0  0  0  0  0  0
   -2.4740   20.5350  -27.8820 C   0  0  0  0  0  0  0  0  0  0  0  0
   -1.1740   20.9680  -27.6200 C   0  0  0  0  0  0  0  0  0  0  0  0
   -0.5220   21.7450  -28.5250 N   0  0  0  0  0  0  0  0  0  0  0  0
   -1.1070   22.1330  -29.6890 C   0  0  0  0  0  0  0  0  0  0  0  0
   -5.5900   22.4590  -31.2070 C   0  0  0  0  0  0  0  0  0  0  0  0
   -6.6280   22.8100  -30.3260 C   0  0  0  0  0  0  0  0  0  0  0  0
   -7.9080   22.2740  -30.4970 C   0  0  0  0  0  0  0  0  0  0  0  0
   -8.1630   21.3900  -31.5480 C   0  0  0  0  0  0  0  0  0  0  0  0
   -7.1390   21.0420  -32.4320 C   0  0  0  0  0  0  0  0  0  0  0  0
   -5.8570   21.5750  -32.2670 C   0  0  0  0  0  0  0  0  0  0  0  0
   -4.8690   21.2150  -33.1240 F   0  0  0  0  0  0  0  0  0  0  0  0
   -4.6460   23.4420  -27.7279 H   0  0  0  0  0  0  0  0  0  0  0  0
   -2.7835   24.3766  -26.0040 H   0  0  0  0  0  0  0  0  0  0  0  0
   -1.0643   25.8211  -27.4568 H   0  0  0  0  0  0  0  0  0  0  0  0
   -3.3947   21.2545  -31.8268 H   0  0  0  0  0  0  0  0  0  0  0  0
   -2.3582   22.7397  -31.8662 H   0  0  0  0  0  0  0  0  0  0  0  0
   -4.1162   20.5670  -29.2941 H   0  0  0  0  0  0  0  0  0  0  0  0
   -3.0036   19.8990  -27.1574 H   0  0  0  0  0  0  0  0  0  0  0  0
   -0.6769   20.6809  -26.6817 H   0  0  0  0  0  0  0  0  0  0  0  0
   -0.5462   22.7547  -30.4024 H   0  0  0  0  0  0  0  0  0  0  0  0
   -6.4324   23.5088  -29.4993 H   0  0  0  0  0  0  0  0  0  0  0  0
   -8.7156   22.5490  -29.8026 H   0  0  0  0  0  0  0  0  0  0  0  0
   -9.1702   20.9679  -31.6795 H   0  0  0  0  0  0  0  0  0  0  0  0
   -7.3417   20.3469  -33.2601 H   0  0  0  0  0  0  0  0  0  0  0  0
  1  2  2  0
  2  3  1  0
  3  4  2  0
  4  5  1  0
  5  6  2  0
  6  7  1  0
  2  8  1  0
  8  9  1  0
  9 10  1  0
 10 11  2  0
 11 12  1  0
 12 13  2  0
 13 14  1  0
 14 15  2  0
  8 16  1  0
 16 17  2  0
 17 18  1  0
 18 19  2  0
 19 20  1  0
 20 21  2  0
 21 22  1  0
  7  3  1  0
 15 10  1  0
 21 16  1  0
  4 23  1  0
  5 24  1  0
  6 25  1  0
  9 26  1  0
  9 27  1  0
 11 28  1  0
 12 29  1  0
 13 30  1  0
 15 31  1  0
 17 32  1  0
 18 33  1  0
 19 34  1  0
 20 35  1  0
M  END
>  <UniqueID>  (6) 
6

>  <SMILES>  (6) 
O=C(c1ccco1)N(Cc1cccnc1)c1ccccc1F

>  <Energy>  (6) 
72.54693081913473

>  <Genealogy>  (6) 
O=C(c1ccco1)N(Cc1cccnc1)c1ccccc1F (3D coordinates assigned)
O=C(c1ccco1)N(Cc1cccnc1)c1ccccc1F (optimized conformer: 72.54693081913473 kcal/mol)

>  <smiles>  (6) 
O=C(c1ccco1)N(Cc1cccnc1)c1ccccc1F

>  <score_type>  (6) 
oracle

>  <origin>  (6) 
adgpu

>  <m_score__min__energy>  (6) 
-7.3099999999999996

>  <m_primary>  (6) 
energy

$$$$
6:0
     RDKit          3D

 40 42  0  0  0  0  0  0  0  0999 V2000
   -3.0210   25.3380  -25.9600 C   0  0  0  0  0  0  0  0  0  0  0  0
   -1.4970   25.4000  -25.8580 C   0  0  0  0  0  0  0  0  0  0  0  0
   -0.9180   26.7310  -26.3700 C   0  0  0  0  0  0  0  0  0  0  0  0
   -0.6470   26.7620  -27.8830 C   0  0  0  0  0  0  0  0  0  0  0  0
   -1.0950   25.5010  -28.5570 C   0  0  0  0  0  0  0  0  0  0  0  0
   -0.2820   24.4430  -28.7510 N   0  0  0  0  0  0  0  0  0  0  0  0
   -1.0770   23.5280  -29.3290 C   0  0  0  0  0  0  0  0  0  0  0  0
   -0.5430   21.8950  -29.6910 Cl  0  0  0  0  0  0  0  0  0  0  0  0
   -2.3530   24.0470  -29.4600 C   0  0  0  0  0  0  0  0  0  0  0  0
   -3.5560   23.3810  -30.0050 C   0  0  0  0  0  0  0  0  0  0  0  0
   -4.7960   23.5690  -29.3770 C   0  0  0  0  0  0  0  0  0  0  0  0
   -5.9470   22.9570  -29.8830 C   0  0  0  0  0  0  0  0  0  0  0  0
   -5.8830   22.1550  -31.0350 C   0  0  0  0  0  0  0  0  0  0  0  0
   -7.1040   21.5050  -31.5730 C   0  0  0  0  0  0  0  0  0  0  0  0
   -8.3610   22.1280  -31.4520 C   0  0  0  0  0  0  0  0  0  0  0  0
   -9.5090   21.5130  -31.9600 C   0  0  0  0  0  0  0  0  0  0  0  0
   -9.4190   20.2720  -32.5920 C   0  0  0  0  0  0  0  0  0  0  0  0
   -8.1780   19.6420  -32.7180 C   0  0  0  0  0  0  0  0  0  0  0  0
   -7.0270   20.2530  -32.2130 C   0  0  0  0  0  0  0  0  0  0  0  0
   -4.6430   21.9850  -31.6740 C   0  0  0  0  0  0  0  0  0  0  0  0
   -3.4920   22.5970  -31.1680 C   0  0  0  0  0  0  0  0  0  0  0  0
   -2.3660   25.2960  -28.9590 N   0  0  0  0  0  0  0  0  0  0  0  0
   -3.4557   25.3203  -24.9497 H   0  0  0  0  0  0  0  0  0  0  0  0
   -3.3885   26.2219  -26.5019 H   0  0  0  0  0  0  0  0  0  0  0  0
   -3.3155   24.4271  -26.5019 H   0  0  0  0  0  0  0  0  0  0  0  0
   -1.2101   25.2745  -24.8035 H   0  0  0  0  0  0  0  0  0  0  0  0
   -1.0901   24.5971  -26.4903 H   0  0  0  0  0  0  0  0  0  0  0  0
   -1.6329   27.5323  -26.1315 H   0  0  0  0  0  0  0  0  0  0  0  0
    0.0542   26.8639  -25.8728 H   0  0  0  0  0  0  0  0  0  0  0  0
   -1.1880   27.6123  -28.3238 H   0  0  0  0  0  0  0  0  0  0  0  0
    0.4382   26.8616  -28.0329 H   0  0  0  0  0  0  0  0  0  0  0  0
   -4.8635   24.2023  -28.4801 H   0  0  0  0  0  0  0  0  0  0  0  0
   -6.9112   23.1047  -29.3746 H   0  0  0  0  0  0  0  0  0  0  0  0
   -8.4402   23.1057  -30.9541 H   0  0  0  0  0  0  0  0  0  0  0  0
  -10.4860   22.0086  -31.8613 H   0  0  0  0  0  0  0  0  0  0  0  0
  -10.3240   19.7902  -32.9906 H   0  0  0  0  0  0  0  0  0  0  0  0
   -8.1070   18.6635  -33.2155 H   0  0  0  0  0  0  0  0  0  0  0  0
   -6.0532   19.7520  -32.3163 H   0  0  0  0  0  0  0  0  0  0  0  0
   -4.5772   21.3650  -32.5803 H   0  0  0  0  0  0  0  0  0  0  0  0
   -2.5301   22.4633  -31.6845 H   0  0  0  0  0  0  0  0  0  0  0  0
  1  2  1  0
  2  3  1  0
  3  4  1  0
  4  5  1  0
  5  6  2  0
  6  7  1  0
  7  8  1  0
  7  9  2  0
  9 10  1  0
 10 11  2  0
 11 12  1  0
 12 13  2  0
 13 14  1  0
 14 15  2  0
 15 16  1  0
 16 17  2  0
 17 18  1  0
 18 19  2  0
 13 20  1  0
 20 21  2  0
  9 22  1  0
 22  5  1  0
 21 10  1  0
 19 14  1  0
  1 23  1  0
  1 24  1  0
  1 25  1  0
  2 26  1  0
  2 27  1  0
  3 28  1  0
  3 29  1  0
  4 30  1  0
  4 31  1  0
 11 32  1  0
 12 33  1  0
 15 34  1  0
 16 35  1  0
 17 36  1  0
 18 37  1  0
 19 38  1  0
 20 39  1  0
 21 40  1  0
M  CHG  1  22  -1
M  END
>  <UniqueID>  (7) 
7

>  <SMILES>  (7) 
CCCCc1nc(Cl)c(-c2ccc(-c3ccccc3)cc2)[n-]1

>  <Energy>  (7) 
72.80136471482776

>  <Genealogy>  (7) 
CCCCc1nc(Cl)c(-c2ccc(-c3ccccc3)cc2)[n-]1 (protonated)
CCCCc1nc(Cl)c(-c2ccc(-c3ccccc3)cc2)[n-]1 (3D coordinates assigned)
CCCCc1nc(Cl)c(-c2ccc(-c3ccccc3)cc2)[n-]1 (optimized conformer: 72.80136471482776 kcal/mol)

>  <smiles>  (7) 
CCCCc1nc(Cl)c(-c2ccc(-c3ccccc3)cc2)[nH]1

>  <score_type>  (7) 
oracle

>  <origin>  (7) 
adgpu

>  <m_score__min__energy>  (7) 
-9.3300000000000001

>  <m_primary>  (7) 
energy

$$$$
7:0
     RDKit          3D

 22 23  0  0  0  0  0  0  0  0999 V2000
   -2.4060   22.0030  -27.0920 O   0  0  0  0  0  0  0  0  0  0  0  0
   -2.2440   23.0420  -27.7820 C   0  0  0  0  0  0  0  0  0  0  0  0
   -3.2110   23.4260  -28.7130 C   0  0  0  0  0  0  0  0  0  0  0  0
   -2.9990   24.5950  -29.4590 C   0  0  0  0  0  0  0  0  0  0  0  0
   -3.9360   25.0340  -30.4550 N   0  0  0  0  0  0  0  0  0  0  0  0
   -5.0170   24.2350  -30.9630 C   0  0  0  0  0  0  0  0  0  0  0  0
   -6.3360   24.5680  -30.6240 C   0  0  0  0  0  0  0  0  0  0  0  0
   -7.4040   23.7950  -31.0900 C   0  0  0  0  0  0  0  0  0  0  0  0
   -7.1590   22.6710  -31.8850 C   0  0  0  0  0  0  0  0  0  0  0  0
   -8.1950   21.9210  -32.3340 F   0  0  0  0  0  0  0  0  0  0  0  0
   -5.8460   22.3150  -32.2050 C   0  0  0  0  0  0  0  0  0  0  0  0
   -4.7750   23.0860  -31.7420 C   0  0  0  0  0  0  0  0  0  0  0  0
   -3.5070   22.6900  -32.0200 F   0  0  0  0  0  0  0  0  0  0  0  0
   -1.8490   25.2990  -29.2770 N   0  0  0  0  0  0  0  0  0  0  0  0
   -0.9190   24.9090  -28.3670 C   0  0  0  0  0  0  0  0  0  0  0  0
    0.1310   25.5850  -28.2120 O   0  0  0  0  0  0  0  0  0  0  0  0
   -1.1210   23.7900  -27.6240 N   0  0  0  0  0  0  0  0  0  0  0  0
   -4.1203   22.8244  -28.8585 H   0  0  0  0  0  0  0  0  0  0  0  0
   -3.7900   25.9800  -30.8740 H   0  0  0  0  0  0  0  0  0  0  0  0
   -6.5321   25.4432  -29.9872 H   0  0  0  0  0  0  0  0  0  0  0  0
   -8.4369   24.0711  -30.8312 H   0  0  0  0  0  0  0  0  0  0  0  0
   -5.6543   21.4255  -32.8231 H   0  0  0  0  0  0  0  0  0  0  0  0
  1  2  2  0
  2  3  1  0
  3  4  2  0
  4  5  1  0
  5  6  1  0
  6  7  2  0
  7  8  1  0
  8  9  2  0
  9 10  1  0
  9 11  1  0
 11 12  2  0
 12 13  1  0
  4 14  1  0
 14 15  1  0
 15 16  2  0
 15 17  1  0
 17  2  1  0
 12  6  1  0
  3 18  1  0
  5 19  1  0
  7 20  1  0
  8 21  1  0
 11 22  1  0
M  CHG  2  14  -1  17  -1
M  END
>  <UniqueID>  (8) 
8

>  <SMILES>  (8) 
O=c1cc(Nc2ccc(F)cc2F)[n-]c(=O)[n-]1

>  <Energy>  (8) 
30.42745991483428

>  <Genealogy>  (8) 
O=c1cc(Nc2ccc(F)cc2F)[n-]c(=O)[n-]1 (protonated)
O=c1cc(Nc2ccc(F)cc2F)[n-]c(=O)[n-]1 (3D coordinates assigned)
O=c1cc(Nc2ccc(F)cc2F)[n-]c(=O)[n-]1 (optimized conformer: 30.42745991483428 kcal/mol)

>  <smiles>  (8) 
O=c1cc(Nc2ccc(F)cc2F)[nH]c(=O)[nH]1

>  <score_type>  (8) 
oracle

>  <origin>  (8) 
adgpu

>  <m_score__min__energy>  (8) 
-8.4900000000000002

>  <m_primary>  (8) 
energy

$$$$
8:0
     RDKit          3D

 35 36  0  0  0  0  0  0  0  0999 V2000
   -8.2080   21.6570  -31.9550 C   0  0  0  0  0  0  0  0  0  0  0  0
   -7.0440   22.5110  -31.5490 C   0  0  0  0  0  0  0  0  0  0  0  0
   -5.7630   22.2410  -32.0470 C   0  0  0  0  0  0  0  0  0  0  0  0
   -4.6840   23.0560  -31.6990 C   0  0  0  0  0  0  0  0  0  0  0  0
   -4.8680   24.1560  -30.8440 C   0  0  0  0  0  0  0  0  0  0  0  0
   -3.7710   25.0160  -30.4940 N   0  0  0  0  0  0  0  0  0  0  0  0
   -2.9340   24.8910  -29.3400 C   0  0  0  0  0  0  0  0  0  0  0  0
   -3.3610   24.2530  -28.3420 O   0  0  0  0  0  0  0  0  0  0  0  0
   -1.6080   25.4320  -29.3360 N   0  0  0  0  0  0  0  0  0  0  0  0
   -1.0120   26.1020  -28.1870 C   0  0  0  0  0  0  0  0  0  0  0  0
   -0.7850   25.1210  -27.0700 C   0  0  0  0  0  0  0  0  0  0  0  0
   -0.3630   23.8130  -27.3600 C   0  0  0  0  0  0  0  0  0  0  0  0
   -0.1700   22.8900  -26.3270 C   0  0  0  0  0  0  0  0  0  0  0  0
   -0.4020   23.2640  -25.0010 C   0  0  0  0  0  0  0  0  0  0  0  0
   -0.2160   22.3670  -24.0010 F   0  0  0  0  0  0  0  0  0  0  0  0
   -0.8280   24.5620  -24.7050 C   0  0  0  0  0  0  0  0  0  0  0  0
   -1.0210   25.4880  -25.7340 C   0  0  0  0  0  0  0  0  0  0  0  0
   -6.1640   24.4610  -30.3770 C   0  0  0  0  0  0  0  0  0  0  0  0
   -6.3930   25.6550  -29.4920 C   0  0  0  0  0  0  0  0  0  0  0  0
   -7.2420   23.6330  -30.7320 C   0  0  0  0  0  0  0  0  0  0  0  0
   -8.7190   21.2821  -31.0559 H   0  0  0  0  0  0  0  0  0  0  0  0
   -8.9107   22.2554  -32.5534 H   0  0  0  0  0  0  0  0  0  0  0  0
   -7.8481   20.8071  -32.5534 H   0  0  0  0  0  0  0  0  0  0  0  0
   -5.6061   21.3820  -32.7160 H   0  0  0  0  0  0  0  0  0  0  0  0
   -3.6825   22.8354  -32.0970 H   0  0  0  0  0  0  0  0  0  0  0  0
   -0.0490   26.5432  -28.4836 H   0  0  0  0  0  0  0  0  0  0  0  0
   -1.6960   26.8895  -27.8378 H   0  0  0  0  0  0  0  0  0  0  0  0
   -0.1837   23.5136  -28.4032 H   0  0  0  0  0  0  0  0  0  0  0  0
    0.1649   21.8682  -26.5589 H   0  0  0  0  0  0  0  0  0  0  0  0
   -1.0116   24.8551  -23.6608 H   0  0  0  0  0  0  0  0  0  0  0  0
   -1.3588   26.5077  -25.4973 H   0  0  0  0  0  0  0  0  0  0  0  0
   -6.3339   25.3467  -28.4377 H   0  0  0  0  0  0  0  0  0  0  0  0
   -5.6243   26.4150  -29.6954 H   0  0  0  0  0  0  0  0  0  0  0  0
   -7.3884   26.0767  -29.6954 H   0  0  0  0  0  0  0  0  0  0  0  0
   -8.2521   23.8675  -30.3650 H   0  0  0  0  0  0  0  0  0  0  0  0
  1  2  1  0
  2  3  2  0
  3  4  1  0
  4  5  2  0
  5  6  1  0
  6  7  1  0
  7  8  2  0
  7  9  1  0
  9 10  1  0
 10 11  1  0
 11 12  2  0
 12 13  1  0
 13 14  2  0
 14 15  1  0
 14 16  1  0
 16 17  2  0
  5 18  1  0
 18 19  1  0
 18 20  2  0
 20  2  1  0
 17 11  1  0
  1 21  1  0
  1 22  1  0
  1 23  1  0
  3 24  1  0
  4 25  1  0
 10 26  1  0
 10 27  1  0
 12 28  1  0
 13 29  1  0
 16 30  1  0
 17 31  1  0
 19 32  1  0
 19 33  1  0
 19 34  1  0
 20 35  1  0
M  CHG  2   6  -1   9  -1
M  END
>  <UniqueID>  (9) 
9

>  <SMILES>  (9) 
Cc1ccc([N-]C(=O)[N-]Cc2ccc(F)cc2)c(C)c1

>  <Energy>  (9) 
35.636652347423066

>  <Genealogy>  (9) 
Cc1ccc([N-]C(=O)[N-]Cc2ccc(F)cc2)c(C)c1 (protonated)
Cc1ccc([N-]C(=O)[N-]Cc2ccc(F)cc2)c(C)c1 (3D coordinates assigned)
Cc1ccc([N-]C(=O)[N-]Cc2ccc(F)cc2)c(C)c1 (optimized conformer: 35.636652347423066 kcal/mol)

>  <smiles>  (9) 
Cc1ccc(NC(=O)NCc2ccc(F)cc2)c(C)c1

>  <score_type>  (9) 
oracle

>  <origin>  (9) 
adgpu

>  <m_score__min__energy>  (9) 
-10.26

>  <m_primary>  (9) 
energy

$$$$
9:0
     RDKit          3D

 31 33  0  0  0  0  0  0  0  0999 V2000
   -1.7080   26.2690  -25.7650 C   0  0  0  0  0  0  0  0  0  0  0  0
   -0.7660   26.4610  -26.7780 C   0  0  0  0  0  0  0  0  0  0  0  0
   -0.8600   25.7380  -27.9710 C   0  0  0  0  0  0  0  0  0  0  0  0
   -1.9080   24.8220  -28.1620 C   0  0  0  0  0  0  0  0  0  0  0  0
   -1.9900   24.0150  -29.4270 C   0  0  0  0  0  0  0  0  0  0  0  0
   -3.3570   24.1320  -30.0200 C   0  0  0  0  0  0  0  0  0  0  0  0
   -4.1560   23.0680  -30.2390 N   0  0  0  0  0  0  0  0  0  0  0  0
   -5.2460   23.5940  -30.8280 C   0  0  0  0  0  0  0  0  0  0  0  0
   -6.4160   22.7920  -31.2620 C   0  0  0  0  0  0  0  0  0  0  0  0
   -6.2940   21.4230  -31.5690 C   0  0  0  0  0  0  0  0  0  0  0  0
   -7.4120   20.6860  -31.9760 C   0  0  0  0  0  0  0  0  0  0  0  0
   -8.6590   21.3040  -32.0810 C   0  0  0  0  0  0  0  0  0  0  0  0
   -8.7930   22.6610  -31.7800 C   0  0  0  0  0  0  0  0  0  0  0  0
   -7.6790   23.4030  -31.3720 C   0  0  0  0  0  0  0  0  0  0  0  0
   -5.0700   24.9590  -30.9590 C   0  0  0  0  0  0  0  0  0  0  0  0
   -3.8730   25.3000  -30.4550 N   0  0  0  0  0  0  0  0  0  0  0  0
   -2.8450   24.6230  -27.1320 C   0  0  0  0  0  0  0  0  0  0  0  0
   -2.7460   25.3480  -25.9410 C   0  0  0  0  0  0  0  0  0  0  0  0
   -1.6337   26.8419  -24.8289 H   0  0  0  0  0  0  0  0  0  0  0  0
    0.0519   27.1828  -26.6369 H   0  0  0  0  0  0  0  0  0  0  0  0
   -0.1109   25.8869  -28.7627 H   0  0  0  0  0  0  0  0  0  0  0  0
   -1.2473   24.3895  -30.1468 H   0  0  0  0  0  0  0  0  0  0  0  0
   -1.7858   22.9592  -29.1957 H   0  0  0  0  0  0  0  0  0  0  0  0
   -5.3140   20.9299  -31.4884 H   0  0  0  0  0  0  0  0  0  0  0  0
   -7.3076   19.6171  -32.2137 H   0  0  0  0  0  0  0  0  0  0  0  0
   -9.5361   20.7222  -32.4008 H   0  0  0  0  0  0  0  0  0  0  0  0
   -9.7760   23.1475  -31.8638 H   0  0  0  0  0  0  0  0  0  0  0  0
   -7.7913   24.4714  -31.1356 H   0  0  0  0  0  0  0  0  0  0  0  0
   -5.7954   25.6552  -31.4053 H   0  0  0  0  0  0  0  0  0  0  0  0
   -3.6584   23.8944  -27.2642 H   0  0  0  0  0  0  0  0  0  0  0  0
   -3.4853   25.1941  -25.1412 H   0  0  0  0  0  0  0  0  0  0  0  0
  1  2  2  0
  2  3  1  0
  3  4  2  0
  4  5  1  0
  5  6  1  0
  6  7  2  0
  7  8  1  0
  8  9  1  0
  9 10  2  0
 10 11  1  0
 11 12  2  0
 12 13  1  0
 13 14  2  0
  8 15  2  0
 15 16  1  0
  4 17  1  0
 17 18  2  0
 18  1  1  0
 16  6  1  0
 14  9  1  0
  1 19  1  0
  2 20  1  0
  3 21  1  0
  5 22  1  0
  5 23  1  0
 10 24  1  0
 11 25  1  0
 12 26  1  0
 13 27  1  0
 14 28  1  0
 15 29  1  0
 17 30  1  0
 18 31  1  0
M  CHG  1  16  -1
M  END
>  <UniqueID>  (10) 
10

>  <SMILES>  (10) 
c1ccc(Cc2nc(-c3ccccc3)c[n-]2)cc1

>  <Energy>  (10) 
60.59443107680445

>  <Genealogy>  (10) 
c1ccc(Cc2nc(-c3ccccc3)c[n-]2)cc1 (protonated)
c1ccc(Cc2nc(-c3ccccc3)c[n-]2)cc1 (3D coordinates assigned)
c1ccc(Cc2nc(-c3ccccc3)c[n-]2)cc1 (optimized conformer: 60.59443107680445 kcal/mol)

>  <smiles>  (10) 
c1ccc(Cc2nc(-c3ccccc3)c[nH]2)cc1

>  <score_type>  (10) 
oracle

>  <origin>  (10) 
adgpu

>  <m_score__min__energy>  (10) 
-8.3300000000000001

>  <m_primary>  (10) 
energy

$$$$
10:0
     RDKit          3D

 29 30  0  0  0  0  0  0  0  0999 V2000
   -6.1160   25.7200  -29.5320 C   0  0  0  0  0  0  0  0  0  0  0  0
   -5.9030   24.4870  -30.3650 C   0  0  0  0  0  0  0  0  0  0  0  0
   -7.0000   23.6840  -30.7220 C   0  0  0  0  0  0  0  0  0  0  0  0
   -6.8140   22.5360  -31.4930 C   0  0  0  0  0  0  0  0  0  0  0  0
   -5.5350   22.1810  -31.9260 C   0  0  0  0  0  0  0  0  0  0  0  0
   -5.3110   20.7530  -32.9190 Cl  0  0  0  0  0  0  0  0  0  0  0  0
   -4.4360   22.9690  -31.5760 C   0  0  0  0  0  0  0  0  0  0  0  0
   -4.6050   24.1140  -30.7740 C   0  0  0  0  0  0  0  0  0  0  0  0
   -3.4870   24.9450  -30.4220 N   0  0  0  0  0  0  0  0  0  0  0  0
   -2.4710   24.6290  -29.4640 C   0  0  0  0  0  0  0  0  0  0  0  0
   -2.3010   23.4260  -29.1330 O   0  0  0  0  0  0  0  0  0  0  0  0
   -1.5900   25.6500  -28.9760 N   0  0  0  0  0  0  0  0  0  0  0  0
   -1.4070   26.0390  -27.6080 C   0  0  0  0  0  0  0  0  0  0  0  0
   -0.4910   27.0390  -27.2310 C   0  0  0  0  0  0  0  0  0  0  0  0
   -0.3250   27.3700  -25.8820 C   0  0  0  0  0  0  0  0  0  0  0  0
   -1.0580   26.6970  -24.9010 C   0  0  0  0  0  0  0  0  0  0  0  0
   -0.8950   27.0170  -23.5920 F   0  0  0  0  0  0  0  0  0  0  0  0
   -1.9510   25.6870  -25.2660 C   0  0  0  0  0  0  0  0  0  0  0  0
   -2.1180   25.3540  -26.6140 C   0  0  0  0  0  0  0  0  0  0  0  0
   -6.0701   25.4544  -28.4655 H   0  0  0  0  0  0  0  0  0  0  0  0
   -5.3318   26.4568  -29.7604 H   0  0  0  0  0  0  0  0  0  0  0  0
   -7.1019   26.1510  -29.7604 H   0  0  0  0  0  0  0  0  0  0  0  0
   -8.0116   23.9624  -30.3915 H   0  0  0  0  0  0  0  0  0  0  0  0
   -7.6773   21.9090  -31.7604 H   0  0  0  0  0  0  0  0  0  0  0  0
   -3.4315   22.6931  -31.9294 H   0  0  0  0  0  0  0  0  0  0  0  0
    0.0965   27.5621  -27.9999 H   0  0  0  0  0  0  0  0  0  0  0  0
    0.3831   28.1607  -25.5933 H   0  0  0  0  0  0  0  0  0  0  0  0
   -2.5232   25.1532  -24.4929 H   0  0  0  0  0  0  0  0  0  0  0  0
   -2.8124   24.5487  -26.8957 H   0  0  0  0  0  0  0  0  0  0  0  0
  1  2  1  0
  2  3  2  0
  3  4  1  0
  4  5  2  0
  5  6  1  0
  5  7  1  0
  7  8  2  0
  8  9  1  0
  9 10  1  0
 10 11  2  0
 10 12  1  0
 12 13  1  0
 13 14  2  0
 14 15  1  0
 15 16  2  0
 16 17  1  0
 16 18  1  0
 18 19  2  0
  8  2  1  0
 19 13  1  0
  1 20  1  0
  1 21  1  0
  1 22  1  0
  3 23  1  0
  4 24  1  0
  7 25  1  0
 14 26  1  0
 15 27  1  0
 18 28  1  0
 19 29  1  0
M  CHG  2   9  -1  12  -1
M  END
>  <UniqueID>  (11) 
11

>  <SMILES>  (11) 
Cc1ccc(Cl)cc1[N-]C(=O)[N-]c1ccc(F)cc1

>  <Energy>  (11) 
36.27115060466776

>  <Genealogy>  (11) 
Cc1ccc(Cl)cc1[N-]C(=O)[N-]c1ccc(F)cc1 (protonated)
Cc1ccc(Cl)cc1[N-]C(=O)[N-]c1ccc(F)cc1 (3D coordinates assigned)
Cc1ccc(Cl)cc1[N-]C(=O)[N-]c1ccc(F)cc1 (optimized conformer: 36.27115060466776 kcal/mol)

>  <smiles>  (11) 
Cc1ccc(Cl)cc1NC(=O)Nc1ccc(F)cc1

>  <score_type>  (11) 
oracle

>  <origin>  (11) 
adgpu

>  <m_score__min__energy>  (11) 
-10.119999999999999

>  <m_primary>  (11) 
energy

$$$$
11:0
     RDKit          3D

 37 38  0  0  0  0  0  0  0  0999 V2000
   -9.3110   21.9310  -31.2890 C   0  0  0  0  0  0  0  0  0  0  0  0
   -8.4260   23.0070  -31.5830 O   0  0  0  0  0  0  0  0  0  0  0  0
   -7.0320   22.8930  -31.7050 C   0  0  0  0  0  0  0  0  0  0  0  0
   -6.1780   23.8480  -31.1190 C   0  0  0  0  0  0  0  0  0  0  0  0
   -4.7860   23.7200  -31.2120 C   0  0  0  0  0  0  0  0  0  0  0  0
   -3.8990   24.6720  -30.6050 N   0  0  0  0  0  0  0  0  0  0  0  0
   -2.8860   24.3870  -29.6330 C   0  0  0  0  0  0  0  0  0  0  0  0
   -2.0790   25.2990  -29.3120 O   0  0  0  0  0  0  0  0  0  0  0  0
   -2.7470   23.0570  -29.0020 C   0  0  0  0  0  0  0  0  0  0  0  0
   -3.3870   22.6620  -27.8460 C   0  0  0  0  0  0  0  0  0  0  0  0
   -2.9740   21.3590  -27.6470 C   0  0  0  0  0  0  0  0  0  0  0  0
   -2.1160   21.0020  -28.6220 N   0  0  0  0  0  0  0  0  0  0  0  0
   -1.9720   22.0370  -29.4360 N   0  0  0  0  0  0  0  0  0  0  0  0
   -1.0760   22.0150  -30.5870 C   0  0  0  0  0  0  0  0  0  0  0  0
   -4.2400   22.6650  -31.9410 C   0  0  0  0  0  0  0  0  0  0  0  0
   -5.0710   21.7040  -32.5430 C   0  0  0  0  0  0  0  0  0  0  0  0
   -4.5450   20.6230  -33.2700 O   0  0  0  0  0  0  0  0  0  0  0  0
   -3.1890   20.1930  -33.2140 C   0  0  0  0  0  0  0  0  0  0  0  0
   -6.4670   21.8080  -32.4250 C   0  0  0  0  0  0  0  0  0  0  0  0
   -7.2300   20.8010  -33.0470 O   0  0  0  0  0  0  0  0  0  0  0  0
   -7.3080   19.4330  -32.6600 C   0  0  0  0  0  0  0  0  0  0  0  0
   -9.4029   21.8193  -30.1985 H   0  0  0  0  0  0  0  0  0  0  0  0
  -10.3006   22.1418  -31.7207 H   0  0  0  0  0  0  0  0  0  0  0  0
   -8.9133   21.0007  -31.7207 H   0  0  0  0  0  0  0  0  0  0  0  0
   -6.6097   24.7052  -30.5815 H   0  0  0  0  0  0  0  0  0  0  0  0
   -4.0733   23.2529  -27.2216 H   0  0  0  0  0  0  0  0  0  0  0  0
   -3.2967   20.7115  -26.8184 H   0  0  0  0  0  0  0  0  0  0  0  0
   -0.0328   21.9894  -30.2391 H   0  0  0  0  0  0  0  0  0  0  0  0
   -1.2818   21.1216  -31.1949 H   0  0  0  0  0  0  0  0  0  0  0  0
   -1.2378   22.9174  -31.1949 H   0  0  0  0  0  0  0  0  0  0  0  0
   -3.1481   22.5835  -32.0464 H   0  0  0  0  0  0  0  0  0  0  0  0
   -2.8786   20.0946  -32.1633 H   0  0  0  0  0  0  0  0  0  0  0  0
   -3.0918   19.2200  -33.7177 H   0  0  0  0  0  0  0  0  0  0  0  0
   -2.5488   20.9322  -33.7177 H   0  0  0  0  0  0  0  0  0  0  0  0
   -7.3120   19.3621  -31.5623 H   0  0  0  0  0  0  0  0  0  0  0  0
   -8.2328   18.9911  -33.0594 H   0  0  0  0  0  0  0  0  0  0  0  0
   -6.4394   18.8889  -33.0594 H   0  0  0  0  0  0  0  0  0  0  0  0
  1  2  1  0
  2  3  1  0
  3  4  2  0
  4  5  1  0
  5  6  1  0
  6  7  1  0
  7  8  2  0
  7  9  1  0
  9 10  2  0
 10 11  1  0
 11 12  2  0
 12 13  1  0
 13 14  1  0
  5 15  2  0
 15 16  1  0
 16 17  1  0
 17 18  1  0
 16 19  2  0
 19 20  1  0
 20 21  1  0
 19  3  1  0
 13  9  1  0
  1 22  1  0
  1 23  1  0
  1 24  1  0
  4 25  1  0
 10 26  1  0
 11 27  1  0
 14 28  1  0
 14 29  1  0
 14 30  1  0
 15 31  1  0
 18 32  1  0
 18 33  1  0
 18 34  1  0
 21 35  1  0
 21 36  1  0
 21 37  1  0
M  CHG  1   6  -1
M  END
>  <UniqueID>  (12) 
12

>  <SMILES>  (12) 
COc1cc([N-]C(=O)c2ccnn2C)cc(OC)c1OC

>  <Energy>  (12) 
74.23062135806259

>  <Genealogy>  (12) 
COc1cc([N-]C(=O)c2ccnn2C)cc(OC)c1OC (protonated)
COc1cc([N-]C(=O)c2ccnn2C)cc(OC)c1OC (3D coordinates assigned)
COc1cc([N-]C(=O)c2ccnn2C)cc(OC)c1OC (optimized conformer: 74.23062135806259 kcal/mol)

>  <smiles>  (12) 
COc1cc(NC(=O)c2ccnn2C)cc(OC)c1OC

>  <score_type>  (12) 
oracle

>  <origin>  (12) 
adgpu

>  <m_score__min__energy>  (12) 
-6.7800000000000002

>  <m_primary>  (12) 
energy

$$$$
12:0
     RDKit          3D

 35 36  0  0  1  0  0  0  0  0999 V2000
   -0.7640   20.8840  -33.5340 N   0  0  0  0  0  0  0  0  0  0  0  0
   -2.0100   20.8640  -33.1680 C   0  0  0  0  0  0  0  0  0  0  0  0
   -2.7810   19.7720  -33.4160 N   0  0  0  0  0  0  0  0  0  0  0  0
   -4.0820   19.7120  -33.0500 C   0  0  0  0  0  0  0  0  0  0  0  0
   -4.8310   18.5020  -33.3020 C   0  0  0  0  0  0  0  0  0  0  0  0
   -4.1330   17.3250  -33.5710 C   0  0  0  0  0  0  0  0  0  0  0  0
   -4.7750   16.1320  -33.8610 C   0  0  0  0  0  0  0  0  0  0  0  0
   -6.1380   16.0520  -33.8960 C   0  0  0  0  0  0  0  0  0  0  0  0
   -6.9060   14.5240  -34.2640 Cl  0  0  0  0  0  0  0  0  0  0  0  0
   -6.8500   17.1870  -33.6370 C   0  0  0  0  0  0  0  0  0  0  0  0
   -6.2030   18.4020  -33.3440 C   0  0  0  0  0  0  0  0  0  0  0  0
   -7.2670   19.7560  -33.0860 Cl  0  0  0  0  0  0  0  0  0  0  0  0
   -4.5590   20.8340  -32.4120 C   0  0  0  0  0  0  0  0  0  0  0  0
   -3.7530   21.9520  -32.1640 C   0  0  0  0  0  0  0  0  0  0  0  0
   -4.2220   22.9860  -31.5680 N   0  0  0  0  0  0  0  0  0  0  0  0
   -5.6080   23.0570  -31.1190 C   0  0  0  0  0  0  0  0  0  0  0  0
   -6.0510   24.4740  -31.4750 C   0  0  0  0  0  0  0  0  0  0  0  0
   -5.3730   25.5060  -30.5990 C   0  0  0  0  0  0  0  0  0  0  0  0
   -3.9660   25.2940  -30.4420 N   0  0  0  0  0  0  0  0  0  0  0  0
   -2.4660   21.9590  -32.5480 N   0  0  0  0  0  0  0  0  0  0  0  0
   -0.1350   21.6830  -33.3720 H   0  0  0  0  0  0  0  0  0  0  0  0
   -2.2810   19.0060  -33.9160 H   0  0  0  0  0  0  0  0  0  0  0  0
   -3.0333   17.3445  -33.5523 H   0  0  0  0  0  0  0  0  0  0  0  0
   -4.1759   15.2327  -34.0668 H   0  0  0  0  0  0  0  0  0  0  0  0
   -7.9492   17.1516  -33.6576 H   0  0  0  0  0  0  0  0  0  0  0  0
   -5.6093   20.8534  -32.0856 H   0  0  0  0  0  0  0  0  0  0  0  0
   -6.2255   22.3129  -31.6434 H   0  0  0  0  0  0  0  0  0  0  0  0
   -5.7121   22.8428  -30.0451 H   0  0  0  0  0  0  0  0  0  0  0  0
   -5.7956   24.6745  -32.5260 H   0  0  0  0  0  0  0  0  0  0  0  0
   -7.1368   24.5458  -31.3142 H   0  0  0  0  0  0  0  0  0  0  0  0
   -5.5264   26.4979  -31.0490 H   0  0  0  0  0  0  0  0  0  0  0  0
   -5.8236   25.4240  -29.5989 H   0  0  0  0  0  0  0  0  0  0  0  0
   -3.4550   24.9740  -31.2730 H   0  0  0  0  0  0  0  0  0  0  0  0
   -3.5010   26.0500  -29.8960 H   0  0  0  0  0  0  0  0  0  0  0  0
   -1.8760   22.7980  -32.3560 H   0  0  0  0  0  0  0  0  0  0  0  0
  1  2  2  3
  2  3  1  0
  3  4  1  0
  4  5  1  0
  5  6  2  0
  6  7  1  0
  7  8  2  0
  8  9  1  0
  8 10  1  0
 10 11  2  0
 11 12  1  0
  4 13  2  0
 13 14  1  0
 14 15  2  0
 15 16  1  0
 16 17  1  0
 17 18  1  0
 18 19  1  0
 14 20  1  0
 20  2  1  0
 11  5  1  0
  1 21  1  0
  3 22  1  0
  6 23  1  0
  7 24  1  0
 10 25  1  0
 13 26  1  0
 16 27  1  0
 16 28  1  0
 17 29  1  0
 17 30  1  0
 18 31  1  0
 18 32  1  0
 19 33  1  0
 19 34  1  0
 20 35  1  0
M  END
>  <smiles>  (13) 
N=c1[nH]c(-c2ccc(Cl)cc2Cl)cc(=NCCCN)[nH]1

>  <score_type>  (13) 
oracle

>  <origin>  (13) 
adgpu

>  <m_score__min__energy>  (13) 
-7.5199999999999996

>  <m_primary>  (13) 
energy

$$$$
13:0
     RDKit          3D

 50 53  0  0  0  0  0  0  0  0999 V2000
   -5.3330   15.8110  -33.1780 C   0  0  0  0  0  0  0  0  0  0  0  0
   -6.5940   16.4720  -33.1530 O   0  0  0  0  0  0  0  0  0  0  0  0
   -6.7600   17.8540  -32.9810 C   0  0  0  0  0  0  0  0  0  0  0  0
   -6.1170   18.7180  -33.8750 C   0  0  0  0  0  0  0  0  0  0  0  0
   -6.2470   20.1030  -33.7440 C   0  0  0  0  0  0  0  0  0  0  0  0
   -7.0160   20.6460  -32.7010 C   0  0  0  0  0  0  0  0  0  0  0  0
   -7.1930   22.0620  -32.5450 N   0  0  0  0  0  0  0  0  0  0  0  0
   -6.4430   22.9200  -31.6780 C   0  0  0  0  0  0  0  0  0  0  0  0
   -6.9500   23.3660  -30.6140 O   0  0  0  0  0  0  0  0  0  0  0  0
   -5.0490   23.3110  -32.0510 C   0  0  0  0  0  0  0  0  0  0  0  0
   -4.1590   23.2510  -30.8430 C   0  0  0  0  0  0  0  0  0  0  0  0
   -3.6720   24.3350  -30.1400 C   0  0  0  0  0  0  0  0  0  0  0  0
   -3.8720   25.6710  -30.4680 O   0  0  0  0  0  0  0  0  0  0  0  0
   -2.9400   23.9020  -29.0910 N   0  0  0  0  0  0  0  0  0  0  0  0
   -2.2470   24.7010  -28.1140 C   0  0  0  0  0  0  0  0  0  0  0  0
   -1.0900   25.4160  -28.4700 C   0  0  0  0  0  0  0  0  0  0  0  0
   -0.4200   26.1930  -27.5200 C   0  0  0  0  0  0  0  0  0  0  0  0
   -0.8960   26.2610  -26.2070 C   0  0  0  0  0  0  0  0  0  0  0  0
   -0.2440   27.0130  -25.2870 F   0  0  0  0  0  0  0  0  0  0  0  0
   -2.0440   25.5530  -25.8450 C   0  0  0  0  0  0  0  0  0  0  0  0
   -2.7190   24.7760  -26.7930 C   0  0  0  0  0  0  0  0  0  0  0  0
   -3.0060   22.5530  -29.1700 C   0  0  0  0  0  0  0  0  0  0  0  0
   -2.4510   21.7760  -28.3460 O   0  0  0  0  0  0  0  0  0  0  0  0
   -3.7520   22.1240  -30.2130 N   0  0  0  0  0  0  0  0  0  0  0  0
   -3.9900   20.7350  -30.6100 C   0  0  0  0  0  0  0  0  0  0  0  0
   -3.2650   20.4320  -31.8820 C   0  0  0  0  0  0  0  0  0  0  0  0
   -2.3350   21.2480  -32.4940 C   0  0  0  0  0  0  0  0  0  0  0  0
   -1.9490   20.5770  -33.6350 C   0  0  0  0  0  0  0  0  0  0  0  0
   -2.6650   19.3970  -33.6460 C   0  0  0  0  0  0  0  0  0  0  0  0
   -3.4410   19.3400  -32.5880 O   0  0  0  0  0  0  0  0  0  0  0  0
   -7.6800   19.7850  -31.8210 C   0  0  0  0  0  0  0  0  0  0  0  0
   -7.5500   18.3990  -31.9510 C   0  0  0  0  0  0  0  0  0  0  0  0
   -4.9922   15.6323  -32.1475 H   0  0  0  0  0  0  0  0  0  0  0  0
   -5.4333   14.8495  -33.7029 H   0  0  0  0  0  0  0  0  0  0  0  0
   -4.5994   16.4405  -33.7029 H   0  0  0  0  0  0  0  0  0  0  0  0
   -5.5036   18.3028  -34.6883 H   0  0  0  0  0  0  0  0  0  0  0  0
   -5.7455   20.7707  -34.4600 H   0  0  0  0  0  0  0  0  0  0  0  0
   -4.6695   22.6198  -32.8179 H   0  0  0  0  0  0  0  0  0  0  0  0
   -5.0548   24.3380  -32.4450 H   0  0  0  0  0  0  0  0  0  0  0  0
   -0.7100   25.3639  -29.5010 H   0  0  0  0  0  0  0  0  0  0  0  0
    0.4833   26.7518  -27.8061 H   0  0  0  0  0  0  0  0  0  0  0  0
   -2.4186   25.6063  -24.8121 H   0  0  0  0  0  0  0  0  0  0  0  0
   -3.6234   24.2213  -26.5025 H   0  0  0  0  0  0  0  0  0  0  0  0
   -3.6295   20.0632  -29.8170 H   0  0  0  0  0  0  0  0  0  0  0  0
   -5.0685   20.5853  -30.7662 H   0  0  0  0  0  0  0  0  0  0  0  0
   -1.9770   22.2278  -32.1448 H   0  0  0  0  0  0  0  0  0  0  0  0
   -1.2182   20.9140  -34.3849 H   0  0  0  0  0  0  0  0  0  0  0  0
   -2.5961   18.6217  -34.4233 H   0  0  0  0  0  0  0  0  0  0  0  0
   -8.3092   20.2015  -31.0206 H   0  0  0  0  0  0  0  0  0  0  0  0
   -8.0670   17.7317  -31.2457 H   0  0  0  0  0  0  0  0  0  0  0  0
  1  2  1  0
  2  3  1  0
  3  4  2  0
  4  5  1  0
  5  6  2  0
  6  7  1  0
  7  8  1  0
  8  9  2  0
  8 10  1  0
 10 11  1  0
 11 12  2  0
 12 13  1  0
 12 14  1  0
 14 15  1  0
 15 16  2  0
 16 17  1  0
 17 18  2  0
 18 19  1  0
 18 20  1  0
 20 21  2  0
 14 22  1  0
 22 23  2  0
 22 24  1  0
 24 25  1  0
 25 26  1  0
 26 27  2  0
 27 28  1  0
 28 29  2  0
 29 30  1  0
  6 31  1  0
 31 32  2  0
 32  3  1  0
 24 11  1  0
 30 26  1  0
 21 15  1  0
  1 33  1  0
  1 34  1  0
  1 35  1  0
  4 36  1  0
  5 37  1  0
 10 38  1  0
 10 39  1  0
 16 40  1  0
 17 41  1  0
 20 42  1  0
 21 43  1  0
 25 44  1  0
 25 45  1  0
 27 46  1  0
 28 47  1  0
 29 48  1  0
 31 49  1  0
 32 50  1  0
M  CHG  2   7  -1  13  -1
M  END
>  <UniqueID>  (14) 
13

>  <SMILES>  (14) 
COc1ccc([N-]C(=O)Cc2c([O-])n(-c3ccc(F)cc3)c(=O)n2Cc2ccco2)cc1

>  <Energy>  (14) 
118.42164370769382

>  <Genealogy>  (14) 
COc1ccc([N-]C(=O)Cc2c([O-])n(-c3ccc(F)cc3)c(=O)n2Cc2ccco2)cc1 (protonated)
COc1ccc([N-]C(=O)Cc2c([O-])n(-c3ccc(F)cc3)c(=O)n2Cc2ccco2)cc1 (3D coordinates assigned)
COc1ccc([N-]C(=O)Cc2c([O-])n(-c3ccc(F)cc3)c(=O)n2Cc2ccco2)cc1 (optimized conformer: 118.42164370769382 kcal/mol)

>  <smiles>  (14) 
COc1ccc(NC(=O)Cc2c(O)n(-c3ccc(F)cc3)c(=O)n2Cc2ccco2)cc1

>  <score_type>  (14) 
oracle

>  <origin>  (14) 
adgpu

>  <m_score__min__energy>  (14) 
-11.52

>  <m_primary>  (14) 
energy

$$$$
14:0
     RDKit          3D

 33 35  0  0  1  0  0  0  0  0999 V2000
   -9.1490   21.3150  -30.9940 C   0  0  0  0  0  0  0  0  0  0  0  0
   -8.3990   20.2290  -31.6280 C   0  0  0  0  0  0  0  0  0  0  0  0
   -6.9900   20.1140  -31.8110 C   0  0  0  0  0  0  0  0  0  0  0  0
   -6.5640   19.0220  -32.4210 C   0  0  0  0  0  0  0  0  0  0  0  0
   -5.2320   18.6460  -32.7340 C   0  0  0  0  0  0  0  0  0  0  0  0
   -4.2200   19.3060  -32.4750 N   0  0  0  0  0  0  0  0  0  0  0  0
   -4.1110   20.5140  -31.8500 C   0  0  0  0  0  0  0  0  0  0  0  0
   -3.7570   20.5920  -30.4930 C   0  0  0  0  0  0  0  0  0  0  0  0
   -3.7130   21.8400  -29.8770 C   0  0  0  0  0  0  0  0  0  0  0  0
   -4.0130   22.9800  -30.5960 C   0  0  0  0  0  0  0  0  0  0  0  0
   -3.9690   24.5830  -29.8520 S   0  0  0  0  0  0  0  0  0  0  0  0
   -4.8360   24.5190  -28.3650 N   0  0  0  0  0  0  0  0  0  0  0  0
   -2.5420   24.9350  -29.5350 O   0  0  0  0  0  0  0  0  0  0  0  0
   -4.5470   25.6160  -30.7610 O   0  0  0  0  0  0  0  0  0  0  0  0
   -4.3680   22.9260  -31.9470 C   0  0  0  0  0  0  0  0  0  0  0  0
   -4.4140   21.6860  -32.5650 C   0  0  0  0  0  0  0  0  0  0  0  0
   -5.0120   17.4550  -33.3780 N   0  0  0  0  0  0  0  0  0  0  0  0
   -5.9760   16.6220  -33.7310 C   0  0  0  0  0  0  0  0  0  0  0  0
   -7.2310   16.9310  -33.4590 N   0  0  0  0  0  0  0  0  0  0  0  0
   -7.4810   18.0920  -32.8290 C   0  0  0  0  0  0  0  0  0  0  0  0
   -9.1300   18.7690  -32.3300 S   0  0  0  0  0  0  0  0  0  0  0  0
   -9.0816   21.2174  -29.9004 H   0  0  0  0  0  0  0  0  0  0  0  0
   -8.7254   22.2821  -31.3026 H   0  0  0  0  0  0  0  0  0  0  0  0
  -10.2034   21.2613  -31.3026 H   0  0  0  0  0  0  0  0  0  0  0  0
   -6.2948   20.8923  -31.4632 H   0  0  0  0  0  0  0  0  0  0  0  0
   -3.5180   19.6806  -29.9253 H   0  0  0  0  0  0  0  0  0  0  0  0
   -3.4385   21.9179  -28.8147 H   0  0  0  0  0  0  0  0  0  0  0  0
   -4.8710   25.4840  -27.9800 H   0  0  0  0  0  0  0  0  0  0  0  0
   -5.8210   24.1980  -28.6090 H   0  0  0  0  0  0  0  0  0  0  0  0
   -4.6047   23.8438  -32.5053 H   0  0  0  0  0  0  0  0  0  0  0  0
   -4.6909   21.6182  -33.6274 H   0  0  0  0  0  0  0  0  0  0  0  0
   -5.7352   15.6805  -34.2463 H   0  0  0  0  0  0  0  0  0  0  0  0
   -7.9850   16.2900  -33.7300 H   0  0  0  0  0  0  0  0  0  0  0  0
  1  2  1  0
  2  3  2  0
  3  4  1  0
  4  5  1  0
  5  6  2  0
  6  7  1  0
  7  8  2  0
  8  9  1  0
  9 10  2  0
 10 11  1  0
 11 12  1  0
 11 13  2  0
 11 14  2  0
 10 15  1  0
 15 16  2  0
  5 17  1  0
 17 18  2  0
 18 19  1  0
 19 20  1  0
 20 21  1  0
 21  2  1  0
 20  4  2  0
 16  7  1  0
  1 22  1  0
  1 23  1  0
  1 24  1  0
  3 25  1  0
  8 26  1  0
  9 27  1  0
 12 28  1  0
 12 29  1  0
 15 30  1  0
 16 31  1  0
 18 32  1  0
 19 33  1  0
M  END
>  <smiles>  (15) 
Cc1cc2c(=Nc3ccc(S(N)(=O)=O)cc3)nc[nH]c2s1

>  <score_type>  (15) 
oracle

>  <origin>  (15) 
adgpu

>  <m_score__min__energy>  (15) 
-8.7400000000000002

>  <m_primary>  (15) 
energy

$$$$
15:0
     RDKit          3D

 32 33  0  0  0  0  0  0  0  0999 V2000
   -6.1380   25.6680  -29.6740 C   0  0  0  0  0  0  0  0  0  0  0  0
   -4.8740   25.3020  -30.4660 C   0  0  0  0  0  0  0  0  0  0  0  0
   -4.9780   24.0380  -31.2390 N   0  0  0  0  0  0  0  0  0  0  0  0
   -4.6390   22.8450  -30.4310 C   0  0  0  0  0  0  0  0  0  0  0  0
   -3.2380   22.3630  -30.7870 C   0  0  0  0  0  0  0  0  0  0  0  0
   -6.2480   23.8730  -31.9780 C   0  0  0  0  0  0  0  0  0  0  0  0
   -6.5760   22.4250  -32.1800 C   0  0  0  0  0  0  0  0  0  0  0  0
   -5.7650   21.5690  -32.8570 N   0  0  0  0  0  0  0  0  0  0  0  0
   -6.4320   20.4030  -32.7720 C   0  0  0  0  0  0  0  0  0  0  0  0
   -6.0560   19.1670  -33.2930 C   0  0  0  0  0  0  0  0  0  0  0  0
   -6.9200   18.0750  -33.0730 C   0  0  0  0  0  0  0  0  0  0  0  0
   -6.5020   16.4930  -33.7040 Cl  0  0  0  0  0  0  0  0  0  0  0  0
   -8.1220   18.2480  -32.3450 C   0  0  0  0  0  0  0  0  0  0  0  0
   -8.4690   19.5130  -31.8330 C   0  0  0  0  0  0  0  0  0  0  0  0
   -7.5900   20.5660  -32.0720 C   0  0  0  0  0  0  0  0  0  0  0  0
   -7.6990   21.8440  -31.6890 N   0  0  0  0  0  0  0  0  0  0  0  0
   -5.9261   25.6066  -28.5964 H   0  0  0  0  0  0  0  0  0  0  0  0
   -6.4468   26.6925  -29.9292 H   0  0  0  0  0  0  0  0  0  0  0  0
   -6.9464   24.9670  -29.9292 H   0  0  0  0  0  0  0  0  0  0  0  0
   -4.6609   26.1194  -31.1705 H   0  0  0  0  0  0  0  0  0  0  0  0
   -4.0731   25.1526  -29.7269 H   0  0  0  0  0  0  0  0  0  0  0  0
   -4.6756   23.1048  -29.3627 H   0  0  0  0  0  0  0  0  0  0  0  0
   -5.3636   22.0448  -30.6423 H   0  0  0  0  0  0  0  0  0  0  0  0
   -2.6718   22.1682  -29.8643 H   0  0  0  0  0  0  0  0  0  0  0  0
   -3.3076   21.4371  -31.3769 H   0  0  0  0  0  0  0  0  0  0  0  0
   -2.7232   23.1357  -31.3769 H   0  0  0  0  0  0  0  0  0  0  0  0
   -7.0593   24.3479  -31.4068 H   0  0  0  0  0  0  0  0  0  0  0  0
   -6.1391   24.3454  -32.9654 H   0  0  0  0  0  0  0  0  0  0  0  0
   -5.1185   19.0474  -33.8559 H   0  0  0  0  0  0  0  0  0  0  0  0
   -8.7887   17.3891  -32.1784 H   0  0  0  0  0  0  0  0  0  0  0  0
   -9.3993   19.6636  -31.2657 H   0  0  0  0  0  0  0  0  0  0  0  0
   -8.4650   22.2870  -31.1350 H   0  0  0  0  0  0  0  0  0  0  0  0
  1  2  1  0
  2  3  1  0
  3  4  1  0
  4  5  1  0
  3  6  1  0
  6  7  1  0
  7  8  2  0
  8  9  1  0
  9 10  2  0
 10 11  1  0
 11 12  1  0
 11 13  2  0
 13 14  1  0
 14 15  2  0
 15 16  1  0
 16  7  1  0
 15  9  1  0
  1 17  1  0
  1 18  1  0
  1 19  1  0
  2 20  1  0
  2 21  1  0
  4 22  1  0
  4 23  1  0
  5 24  1  0
  5 25  1  0
  5 26  1  0
  6 27  1  0
  6 28  1  0
 10 29  1  0
 13 30  1  0
 14 31  1  0
 16 32  1  0
M  END
>  <UniqueID>  (16) 
14

>  <SMILES>  (16) 
CCN(CC)Cc1nc2cc(Cl)ccc2[nH]1

>  <Energy>  (16) 
69.13001330446187

>  <Genealogy>  (16) 
CCN(CC)Cc1nc2cc(Cl)ccc2[nH]1 (3D coordinates assigned)
CCN(CC)Cc1nc2cc(Cl)ccc2[nH]1 (optimized conformer: 69.13001330446187 kcal/mol)

>  <smiles>  (16) 
CCN(CC)Cc1nc2cc(Cl)ccc2[nH]1

>  <score_type>  (16) 
oracle

>  <origin>  (16) 
adgpu

>  <m_score__min__energy>  (16) 
-6.3499999999999996

>  <m_primary>  (16) 
energy

$$$$
16:0
     RDKit          3D

 30 31  0  0  0  0  0  0  0  0999 V2000
   -2.3720   24.1360  -29.3080 C   0  0  0  0  0  0  0  0  0  0  0  0
   -3.2250   24.9230  -30.1340 O   0  0  0  0  0  0  0  0  0  0  0  0
   -4.5930   24.6750  -30.3260 C   0  0  0  0  0  0  0  0  0  0  0  0
   -5.5850   25.2560  -29.5140 C   0  0  0  0  0  0  0  0  0  0  0  0
   -6.9330   24.9710  -29.7420 C   0  0  0  0  0  0  0  0  0  0  0  0
   -7.3060   24.1130  -30.7790 C   0  0  0  0  0  0  0  0  0  0  0  0
   -6.3320   23.5350  -31.6060 C   0  0  0  0  0  0  0  0  0  0  0  0
   -6.7420   22.6500  -32.6650 N   0  0  0  0  0  0  0  0  0  0  0  0
   -7.1390   21.2850  -32.4560 C   0  0  0  0  0  0  0  0  0  0  0  0
   -8.3690   21.0260  -31.8370 C   0  0  0  0  0  0  0  0  0  0  0  0
   -8.7790   19.7130  -31.5960 C   0  0  0  0  0  0  0  0  0  0  0  0
   -7.9660   18.6460  -31.9820 C   0  0  0  0  0  0  0  0  0  0  0  0
   -6.7500   18.8900  -32.6250 C   0  0  0  0  0  0  0  0  0  0  0  0
   -6.3310   20.2050  -32.8810 C   0  0  0  0  0  0  0  0  0  0  0  0
   -5.1120   20.4220  -33.6020 N   0  0  0  0  0  0  0  0  0  0  0  0
   -4.9730   23.8160  -31.3640 C   0  0  0  0  0  0  0  0  0  0  0  0
   -2.5944   24.3412  -28.2504 H   0  0  0  0  0  0  0  0  0  0  0  0
   -2.5405   23.0694  -29.5179 H   0  0  0  0  0  0  0  0  0  0  0  0
   -1.3224   24.3896  -29.5179 H   0  0  0  0  0  0  0  0  0  0  0  0
   -5.2980   25.9358  -28.6983 H   0  0  0  0  0  0  0  0  0  0  0  0
   -7.7044   25.4243  -29.1021 H   0  0  0  0  0  0  0  0  0  0  0  0
   -8.3697   23.8894  -30.9480 H   0  0  0  0  0  0  0  0  0  0  0  0
   -6.8890   23.0510  -33.6190 H   0  0  0  0  0  0  0  0  0  0  0  0
   -9.0168   21.8635  -31.5385 H   0  0  0  0  0  0  0  0  0  0  0  0
   -9.7426   19.5196  -31.1020 H   0  0  0  0  0  0  0  0  0  0  0  0
   -8.2830   17.6123  -31.7797 H   0  0  0  0  0  0  0  0  0  0  0  0
   -6.1162   18.0454  -32.9330 H   0  0  0  0  0  0  0  0  0  0  0  0
   -4.9800   21.2530  -34.2200 H   0  0  0  0  0  0  0  0  0  0  0  0
   -4.3440   19.7150  -33.5730 H   0  0  0  0  0  0  0  0  0  0  0  0
   -4.2013   23.3550  -31.9981 H   0  0  0  0  0  0  0  0  0  0  0  0
  1  2  1  0
  2  3  1  0
  3  4  2  0
  4  5  1  0
  5  6  2  0
  6  7  1  0
  7  8  1  0
  8  9  1  0
  9 10  2  0
 10 11  1  0
 11 12  2  0
 12 13  1  0
 13 14  2  0
 14 15  1  0
  7 16  2  0
 16  3  1  0
 14  9  1  0
  1 17  1  0
  1 18  1  0
  1 19  1  0
  4 20  1  0
  5 21  1  0
  6 22  1  0
  8 23  1  0
 10 24  1  0
 11 25  1  0
 12 26  1  0
 13 27  1  0
 15 28  1  0
 15 29  1  0
 16 30  1  0
M  END
>  <UniqueID>  (17) 
15

>  <SMILES>  (17) 
COc1cccc(Nc2ccccc2N)c1

>  <Energy>  (17) 
36.71333415102499

>  <Genealogy>  (17) 
COc1cccc(Nc2ccccc2N)c1 (3D coordinates assigned)
COc1cccc(Nc2ccccc2N)c1 (optimized conformer: 36.71333415102499 kcal/mol)

>  <smiles>  (17) 
COc1cccc(Nc2ccccc2N)c1

>  <score_type>  (17) 
oracle

>  <origin>  (17) 
adgpu

>  <m_score__min__energy>  (17) 
-6.9299999999999997

>  <m_primary>  (17) 
energy

$$$$
17:0
     RDKit          3D

 28 29  0  0  0  0  0  0  0  0999 V2000
   -5.2220   20.8700  -32.7710 C   0  0  0  0  0  0  0  0  0  0  0  0
   -5.4620   22.1240  -31.9820 C   0  0  0  0  0  0  0  0  0  0  0  0
   -6.7570   22.4570  -31.5620 C   0  0  0  0  0  0  0  0  0  0  0  0
   -6.9740   23.5980  -30.7880 C   0  0  0  0  0  0  0  0  0  0  0  0
   -5.9000   24.4230  -30.4180 C   0  0  0  0  0  0  0  0  0  0  0  0
   -6.1480   25.6510  -29.5860 C   0  0  0  0  0  0  0  0  0  0  0  0
   -4.5950   24.0980  -30.8410 C   0  0  0  0  0  0  0  0  0  0  0  0
   -3.4910   24.9250  -30.4400 N   0  0  0  0  0  0  0  0  0  0  0  0
   -2.5920   24.6610  -29.3560 C   0  0  0  0  0  0  0  0  0  0  0  0
   -1.8310   25.5830  -28.9600 O   0  0  0  0  0  0  0  0  0  0  0  0
   -2.4880   23.3250  -28.7390 C   0  0  0  0  0  0  0  0  0  0  0  0
   -1.3890   22.4770  -28.8270 C   0  0  0  0  0  0  0  0  0  0  0  0
   -1.5850   21.2460  -28.1870 C   0  0  0  0  0  0  0  0  0  0  0  0
   -2.8370   21.1130  -27.6030 C   0  0  0  0  0  0  0  0  0  0  0  0
   -3.7030   22.5260  -27.8880 S   0  0  0  0  0  0  0  0  0  0  0  0
   -4.3830   22.9310  -31.5980 C   0  0  0  0  0  0  0  0  0  0  0  0
   -5.0609   20.0282  -32.0815 H   0  0  0  0  0  0  0  0  0  0  0  0
   -6.0967   20.6626  -33.4049 H   0  0  0  0  0  0  0  0  0  0  0  0
   -4.3325   21.0002  -33.4049 H   0  0  0  0  0  0  0  0  0  0  0  0
   -7.6058   21.8165  -31.8435 H   0  0  0  0  0  0  0  0  0  0  0  0
   -7.9943   23.8528  -30.4654 H   0  0  0  0  0  0  0  0  0  0  0  0
   -6.0949   25.3880  -28.5192 H   0  0  0  0  0  0  0  0  0  0  0  0
   -5.3849   26.4094  -29.8151 H   0  0  0  0  0  0  0  0  0  0  0  0
   -7.1456   26.0538  -29.8151 H   0  0  0  0  0  0  0  0  0  0  0  0
   -0.4581   22.7461  -29.3475 H   0  0  0  0  0  0  0  0  0  0  0  0
   -0.8180   20.4584  -28.1508 H   0  0  0  0  0  0  0  0  0  0  0  0
   -3.2002   20.2347  -27.0492 H   0  0  0  0  0  0  0  0  0  0  0  0
   -3.3607   22.6497  -31.8910 H   0  0  0  0  0  0  0  0  0  0  0  0
  1  2  1  0
  2  3  2  0
  3  4  1  0
  4  5  2  0
  5  6  1  0
  5  7  1  0
  7  8  1  0
  8  9  1  0
  9 10  2  0
  9 11  1  0
 11 12  2  0
 12 13  1  0
 13 14  2  0
 14 15  1  0
  7 16  2  0
 16  2  1  0
 15 11  1  0
  1 17  1  0
  1 18  1  0
  1 19  1  0
  3 20  1  0
  4 21  1  0
  6 22  1  0
  6 23  1  0
  6 24  1  0
 12 25  1  0
 13 26  1  0
 14 27  1  0
 16 28  1  0
M  CHG  1   8  -1
M  END
>  <UniqueID>  (18) 
16

>  <SMILES>  (18) 
Cc1ccc(C)c([N-]C(=O)c2cccs2)c1

>  <Energy>  (18) 
58.596687918058336

>  <Genealogy>  (18) 
Cc1ccc(C)c([N-]C(=O)c2cccs2)c1 (protonated)
Cc1ccc(C)c([N-]C(=O)c2cccs2)c1 (3D coordinates assigned)
Cc1ccc(C)c([N-]C(=O)c2cccs2)c1 (optimized conformer: 58.596687918058336 kcal/mol)

>  <smiles>  (18) 
Cc1ccc(C)c(NC(=O)c2cccs2)c1

>  <score_type>  (18) 
oracle

>  <origin>  (18) 
adgpu

>  <m_score__min__energy>  (18) 
-8.1400000000000006

>  <m_primary>  (18) 
energy

$$$$
18:0
     RDKit          3D

 36 38  0  0  0  0  0  0  0  0999 V2000
   -4.2030   25.6390  -30.5730 N   0  0  0  0  0  0  0  0  0  0  0  0
   -3.4000   24.4060  -29.6660 S   0  0  0  0  0  0  0  0  0  0  0  0
   -4.1650   24.1350  -28.4010 O   0  0  0  0  0  0  0  0  0  0  0  0
   -2.0180   24.8730  -29.3030 O   0  0  0  0  0  0  0  0  0  0  0  0
   -3.3010   22.9380  -30.6310 C   0  0  0  0  0  0  0  0  0  0  0  0
   -2.5210   21.8600  -30.1930 C   0  0  0  0  0  0  0  0  0  0  0  0
   -2.4480   20.6880  -30.9520 C   0  0  0  0  0  0  0  0  0  0  0  0
   -3.1510   20.5840  -32.1640 C   0  0  0  0  0  0  0  0  0  0  0  0
   -3.0960   19.3790  -32.9470 N   0  0  0  0  0  0  0  0  0  0  0  0
   -1.9620   18.9030  -33.4380 N   0  0  0  0  0  0  0  0  0  0  0  0
   -2.2600   17.8200  -34.1820 C   0  0  0  0  0  0  0  0  0  0  0  0
   -1.2510   17.0310  -34.9550 C   0  0  0  0  0  0  0  0  0  0  0  0
   -0.4350   16.3310  -34.0860 F   0  0  0  0  0  0  0  0  0  0  0  0
   -1.9050   16.1400  -35.7860 F   0  0  0  0  0  0  0  0  0  0  0  0
   -0.4720   17.8790  -35.7200 F   0  0  0  0  0  0  0  0  0  0  0  0
   -3.6250   17.6110  -34.1870 C   0  0  0  0  0  0  0  0  0  0  0  0
   -4.1270   18.6110  -33.3760 C   0  0  0  0  0  0  0  0  0  0  0  0
   -5.5470   18.7440  -32.9780 C   0  0  0  0  0  0  0  0  0  0  0  0
   -6.1010   17.8510  -32.0450 C   0  0  0  0  0  0  0  0  0  0  0  0
   -7.4380   17.9770  -31.6560 C   0  0  0  0  0  0  0  0  0  0  0  0
   -8.2290   19.0000  -32.1850 C   0  0  0  0  0  0  0  0  0  0  0  0
   -9.5250   19.1210  -31.8070 F   0  0  0  0  0  0  0  0  0  0  0  0
   -7.6810   19.9030  -33.1000 C   0  0  0  0  0  0  0  0  0  0  0  0
   -6.3440   19.7820  -33.4900 C   0  0  0  0  0  0  0  0  0  0  0  0
   -3.9550   21.6540  -32.5840 C   0  0  0  0  0  0  0  0  0  0  0  0
   -4.0260   22.8250  -31.8240 C   0  0  0  0  0  0  0  0  0  0  0  0
   -3.4980   26.0430  -31.2300 H   0  0  0  0  0  0  0  0  0  0  0  0
   -1.9635   21.9359  -29.2478 H   0  0  0  0  0  0  0  0  0  0  0  0
   -1.8376   19.8438  -30.5987 H   0  0  0  0  0  0  0  0  0  0  0  0
   -4.1856   16.8265  -34.7164 H   0  0  0  0  0  0  0  0  0  0  0  0
   -5.4800   17.0493  -31.6188 H   0  0  0  0  0  0  0  0  0  0  0  0
   -7.8680   17.2693  -30.9320 H   0  0  0  0  0  0  0  0  0  0  0  0
   -8.3028   20.7104  -33.5141 H   0  0  0  0  0  0  0  0  0  0  0  0
   -5.9138   20.5027  -34.2010 H   0  0  0  0  0  0  0  0  0  0  0  0
   -4.5327   21.5711  -33.5164 H   0  0  0  0  0  0  0  0  0  0  0  0
   -4.6541   23.6615  -32.1644 H   0  0  0  0  0  0  0  0  0  0  0  0
  1  2  1  0
  2  3  2  0
  2  4  2  0
  2  5  1  0
  5  6  2  0
  6  7  1  0
  7  8  2  0
  8  9  1  0
  9 10  1  0
 10 11  2  0
 11 12  1  0
 12 13  1  0
 12 14  1  0
 12 15  1  0
 11 16  1  0
 16 17  2  0
 17 18  1  0
 18 19  2  0
 19 20  1  0
 20 21  2  0
 21 22  1  0
 21 23  1  0
 23 24  2  0
  8 25  1  0
 25 26  2  0
 26  5  1  0
 17  9  1  0
 24 18  1  0
  1 27  1  0
  6 28  1  0
  7 29  1  0
 16 30  1  0
 19 31  1  0
 20 32  1  0
 23 33  1  0
 24 34  1  0
 25 35  1  0
 26 36  1  0
M  CHG  1   1  -1
M  END
>  <UniqueID>  (19) 
17

>  <SMILES>  (19) 
[NH-]S(=O)(=O)c1ccc(-n2nc(C(F)(F)F)cc2-c2ccc(F)cc2)cc1

>  <Energy>  (19) 
76.29368459298648

>  <Genealogy>  (19) 
[NH-]S(=O)(=O)c1ccc(-n2nc(C(F)(F)F)cc2-c2ccc(F)cc2)cc1 (protonated)
[NH-]S(=O)(=O)c1ccc(-n2nc(C(F)(F)F)cc2-c2ccc(F)cc2)cc1 (3D coordinates assigned)
[NH-]S(=O)(=O)c1ccc(-n2nc(C(F)(F)F)cc2-c2ccc(F)cc2)cc1 (optimized conformer: 76.29368459298648 kcal/mol)

>  <smiles>  (19) 
NS(=O)(=O)c1ccc(-n2nc(C(F)(F)F)cc2-c2ccc(F)cc2)cc1

>  <score_type>  (19) 
oracle

>  <origin>  (19) 
adgpu

>  <m_score__min__energy>  (19) 
-10.25

>  <m_primary>  (19) 
energy

$$$$
19:0
     RDKit          3D

 24 25  0  0  0  0  0  0  0  0999 V2000
   -2.2490   23.1930  -29.6290 O   0  0  0  0  0  0  0  0  0  0  0  0
   -2.5680   24.4070  -29.5360 C   0  0  0  0  0  0  0  0  0  0  0  0
   -3.5460   24.9360  -30.4400 N   0  0  0  0  0  0  0  0  0  0  0  0
   -4.8250   24.3590  -30.7350 C   0  0  0  0  0  0  0  0  0  0  0  0
   -4.9620   23.3010  -31.6490 C   0  0  0  0  0  0  0  0  0  0  0  0
   -6.2250   22.7770  -31.9390 C   0  0  0  0  0  0  0  0  0  0  0  0
   -7.3760   23.3150  -31.3350 C   0  0  0  0  0  0  0  0  0  0  0  0
   -8.6790   22.7790  -31.6290 N   0  0  0  0  0  0  0  0  0  0  0  0
   -9.4870   23.4200  -32.3330 O   0  0  0  0  0  0  0  0  0  0  0  0
   -9.0550   21.5480  -31.1420 O   0  0  0  0  0  0  0  0  0  0  0  0
   -7.2350   24.3930  -30.4430 C   0  0  0  0  0  0  0  0  0  0  0  0
   -5.9700   24.9140  -30.1550 C   0  0  0  0  0  0  0  0  0  0  0  0
   -1.8770   25.2630  -28.5550 C   0  0  0  0  0  0  0  0  0  0  0  0
   -1.7590   25.0080  -27.2020 C   0  0  0  0  0  0  0  0  0  0  0  0
   -1.0320   26.0600  -26.6880 C   0  0  0  0  0  0  0  0  0  0  0  0
   -0.7480   26.8870  -27.7550 C   0  0  0  0  0  0  0  0  0  0  0  0
   -1.2630   26.3850  -28.8530 O   0  0  0  0  0  0  0  0  0  0  0  0
   -4.0705   22.8827  -32.1391 H   0  0  0  0  0  0  0  0  0  0  0  0
   -6.3196   21.9382  -32.6443 H   0  0  0  0  0  0  0  0  0  0  0  0
   -8.1263   24.8294  -29.9685 H   0  0  0  0  0  0  0  0  0  0  0  0
   -5.8747   25.7669  -29.4670 H   0  0  0  0  0  0  0  0  0  0  0  0
   -2.1613   24.1455  -26.6504 H   0  0  0  0  0  0  0  0  0  0  0  0
   -0.7376   26.2099  -25.6388 H   0  0  0  0  0  0  0  0  0  0  0  0
   -0.1765   27.8250  -27.6948 H   0  0  0  0  0  0  0  0  0  0  0  0
  1  2  2  0
  2  3  1  0
  3  4  1  0
  4  5  2  0
  5  6  1  0
  6  7  2  0
  7  8  1  0
  8  9  2  0
  8 10  1  0
  7 11  1  0
 11 12  2  0
  2 13  1  0
 13 14  2  0
 14 15  1  0
 15 16  2  0
 16 17  1  0
 12  4  1  0
 17 13  1  0
  5 18  1  0
  6 19  1  0
 11 20  1  0
 12 21  1  0
 14 22  1  0
 15 23  1  0
 16 24  1  0
M  CHG  3   3  -1   8   1  10  -1
M  END
>  <UniqueID>  (20) 
18

>  <SMILES>  (20) 
O=C([N-]c1ccc([N+](=O)[O-])cc1)c1ccco1

>  <Energy>  (20) 
56.07632002157338

>  <Genealogy>  (20) 
O=C([N-]c1ccc([N+](=O)[O-])cc1)c1ccco1 (protonated)
O=C([N-]c1ccc([N+](=O)[O-])cc1)c1ccco1 (3D coordinates assigned)
O=C([N-]c1ccc([N+](=O)[O-])cc1)c1ccco1 (optimized conformer: 56.07632002157338 kcal/mol)

>  <smiles>  (20) 
O=C(Nc1ccc([N+](=O)[O-])cc1)c1ccco1

>  <score_type>  (20) 
oracle

>  <origin>  (20) 
adgpu

>  <m_score__min__energy>  (20) 
-7.75

>  <m_primary>  (20) 
energy

$$$$
20:0
     RDKit          3D

 32 34  0  0  0  0  0  0  0  0999 V2000
   -3.8700   25.2930  -30.5560 O   0  0  0  0  0  0  0  0  0  0  0  0
   -4.4470   24.3560  -29.9380 C   0  0  0  0  0  0  0  0  0  0  0  0
   -3.9100   23.8860  -28.6870 N   0  0  0  0  0  0  0  0  0  0  0  0
   -2.7900   24.4920  -28.0190 C   0  0  0  0  0  0  0  0  0  0  0  0
   -1.5200   24.4220  -28.6100 C   0  0  0  0  0  0  0  0  0  0  0  0
   -0.4080   24.9810  -27.9770 C   0  0  0  0  0  0  0  0  0  0  0  0
   -0.5460   25.6050  -26.7290 C   0  0  0  0  0  0  0  0  0  0  0  0
    0.5650   26.1680  -26.0820 C   0  0  0  0  0  0  0  0  0  0  0  0
    0.4160   26.7780  -24.8340 C   0  0  0  0  0  0  0  0  0  0  0  0
   -0.8390   26.8290  -24.2220 C   0  0  0  0  0  0  0  0  0  0  0  0
   -1.9540   26.2720  -24.8540 C   0  0  0  0  0  0  0  0  0  0  0  0
   -1.8190   25.6590  -26.1110 C   0  0  0  0  0  0  0  0  0  0  0  0
   -2.9300   25.0950  -26.7560 C   0  0  0  0  0  0  0  0  0  0  0  0
   -5.6680   23.7570  -30.5260 C   0  0  0  0  0  0  0  0  0  0  0  0
   -6.5000   22.9460  -29.7320 C   0  0  0  0  0  0  0  0  0  0  0  0
   -7.6590   22.3760  -30.2690 C   0  0  0  0  0  0  0  0  0  0  0  0
   -8.0030   22.6130  -31.6000 C   0  0  0  0  0  0  0  0  0  0  0  0
   -7.1950   23.4270  -32.3960 C   0  0  0  0  0  0  0  0  0  0  0  0
   -6.0350   24.0000  -31.8650 C   0  0  0  0  0  0  0  0  0  0  0  0
   -4.3090   23.0260  -28.2510 H   0  0  0  0  0  0  0  0  0  0  0  0
   -1.3987   23.9216  -29.5821 H   0  0  0  0  0  0  0  0  0  0  0  0
    0.5795   24.9317  -28.4590 H   0  0  0  0  0  0  0  0  0  0  0  0
    1.5555   26.1289  -26.5588 H   0  0  0  0  0  0  0  0  0  0  0  0
    1.2894   27.2195  -24.3317 H   0  0  0  0  0  0  0  0  0  0  0  0
   -0.9498   27.3095  -23.2387 H   0  0  0  0  0  0  0  0  0  0  0  0
   -2.9392   26.3136  -24.3665 H   0  0  0  0  0  0  0  0  0  0  0  0
   -3.9168   25.1246  -26.2709 H   0  0  0  0  0  0  0  0  0  0  0  0
   -6.2368   22.7588  -28.6805 H   0  0  0  0  0  0  0  0  0  0  0  0
   -8.3001   21.7400  -29.6409 H   0  0  0  0  0  0  0  0  0  0  0  0
   -8.9112   22.1584  -32.0225 H   0  0  0  0  0  0  0  0  0  0  0  0
   -7.4714   23.6181  -33.4434 H   0  0  0  0  0  0  0  0  0  0  0  0
   -5.4052   24.6442  -32.4962 H   0  0  0  0  0  0  0  0  0  0  0  0
  1  2  2  0
  2  3  1  0
  3  4  1  0
  4  5  2  0
  5  6  1  0
  6  7  2  0
  7  8  1  0
  8  9  2  0
  9 10  1  0
 10 11  2  0
 11 12  1  0
 12 13  2  0
  2 14  1  0
 14 15  2  0
 15 16  1  0
 16 17  2  0
 17 18  1  0
 18 19  2  0
 13  4  1  0
 19 14  1  0
 12  7  1  0
  3 20  1  0
  5 21  1  0
  6 22  1  0
  8 23  1  0
  9 24  1  0
 10 25  1  0
 11 26  1  0
 13 27  1  0
 15 28  1  0
 16 29  1  0
 17 30  1  0
 18 31  1  0
 19 32  1  0
M  END
>  <UniqueID>  (21) 
19

>  <SMILES>  (21) 
O=C(Nc1ccc2ccccc2c1)c1ccccc1

>  <Energy>  (21) 
44.867816085750285

>  <Genealogy>  (21) 
O=C(Nc1ccc2ccccc2c1)c1ccccc1 (3D coordinates assigned)
O=C(Nc1ccc2ccccc2c1)c1ccccc1 (optimized conformer: 44.867816085750285 kcal/mol)

>  <smiles>  (21) 
O=C(Nc1ccc2ccccc2c1)c1ccccc1

>  <score_type>  (21) 
oracle

>  <origin>  (21) 
adgpu

>  <m_score__min__energy>  (21) 
-7.4800000000000004

>  <m_primary>  (21) 
energy

$$$$
21:0
     RDKit          3D

 25 26  0  0  0  0  0  0  0  0999 V2000
   -3.9320   21.5030  -27.2630 H   0  0  0  0  0  0  0  0  0  0  0  0
   -3.3780   22.2880  -27.6720 N   0  0  0  0  0  0  0  0  0  0  0  0
   -3.8830   23.0510  -28.5850 C   0  0  0  0  0  0  0  0  0  0  0  0
   -3.2030   24.0770  -29.1400 N   0  0  0  0  0  0  0  0  0  0  0  0
   -4.1020   24.5710  -30.0110 C   0  0  0  0  0  0  0  0  0  0  0  0
   -3.8640   25.6660  -30.8330 O   0  0  0  0  0  0  0  0  0  0  0  0
   -5.2660   23.8390  -29.9570 C   0  0  0  0  0  0  0  0  0  0  0  0
   -6.5240   24.0710  -30.7350 C   0  0  0  0  0  0  0  0  0  0  0  0
   -7.2790   24.5288  -30.0790 H   0  0  0  0  0  0  0  0  0  0  0  0
   -6.3082   24.7419  -31.5796 H   0  0  0  0  0  0  0  0  0  0  0  0
   -7.0490   22.7650  -31.2630 C   0  0  0  0  0  0  0  0  0  0  0  0
   -8.2910   22.2750  -30.8310 C   0  0  0  0  0  0  0  0  0  0  0  0
   -8.8951   22.8619  -30.1235 H   0  0  0  0  0  0  0  0  0  0  0  0
   -8.7640   21.0440  -31.2960 C   0  0  0  0  0  0  0  0  0  0  0  0
   -9.7461   20.6745  -30.9659 H   0  0  0  0  0  0  0  0  0  0  0  0
   -7.9910   20.2780  -32.1820 C   0  0  0  0  0  0  0  0  0  0  0  0
   -8.5160   18.9760  -32.7110 C   0  0  0  0  0  0  0  0  0  0  0  0
   -8.7811   18.3186  -31.8698 H   0  0  0  0  0  0  0  0  0  0  0  0
   -9.4089   19.1632  -33.3255 H   0  0  0  0  0  0  0  0  0  0  0  0
   -7.7430   18.4915  -33.3255 H   0  0  0  0  0  0  0  0  0  0  0  0
   -6.7520   20.7700  -32.6180 C   0  0  0  0  0  0  0  0  0  0  0  0
   -6.1503   20.1854  -33.3295 H   0  0  0  0  0  0  0  0  0  0  0  0
   -6.2780   22.0010  -32.1520 C   0  0  0  0  0  0  0  0  0  0  0  0
   -5.2969   22.3714  -32.4839 H   0  0  0  0  0  0  0  0  0  0  0  0
   -5.1030   22.9030  -29.0580 O   0  0  0  0  0  0  0  0  0  0  0  0
  1  2  1  0
  2  3  2  0
  3  4  1  0
  4  5  1  0
  5  6  1  0
  5  7  2  0
  7  8  1  0
  8  9  1  0
  8 10  1  0
  8 11  1  0
 11 12  2  0
 12 13  1  0
 12 14  1  0
 14 15  1  0
 14 16  2  0
 16 17  1  0
 17 18  1  0
 17 19  1  0
 17 20  1  0
 16 21  1  0
 21 22  1  0
 21 23  2  0
 23 24  1  0
  7 25  1  0
 25  3  1  0
 23 11  1  0
M  CHG  2   4  -1   6  -1
M  END
>  <UniqueID>  (22) 
20

>  <SMILES>  (22) 
[H]/N=c1/[n-]c([O-])c(Cc2ccc(C)cc2)o1

>  <Energy>  (22) 
53.760379300137856

>  <Genealogy>  (22) 
Cc1ccc(Cc2oc(=N)[n-]c2[O-])cc1 (protonated)
[H]/N=c1/[n-]c([O-])c(Cc2ccc(C)cc2)o1 (cis-trans isomerization)
[H]/N=c1/[n-]c([O-])c(Cc2ccc(C)cc2)o1 (3D coordinates assigned)
[H]/N=c1/[n-]c([O-])c(Cc2ccc(C)cc2)o1 (optimized conformer: 53.760379300137856 kcal/mol)

>  <smiles>  (22) 
Cc1ccc(Cc2oc(=N)[nH]c2O)cc1

>  <score_type>  (22) 
oracle

>  <origin>  (22) 
adgpu

>  <m_score__min__energy>  (22) 
-9.75

>  <m_primary>  (22) 
energy

$$$$
22:0
     RDKit          3D

 31 32  0  0  0  0  0  0  0  0999 V2000
   -9.4230   20.9988  -32.3408 H   0  0  0  0  0  0  0  0  0  0  0  0
   -8.4340   21.3120  -31.9750 C   0  0  0  0  0  0  0  0  0  0  0  0
   -8.3320   22.5310  -31.5200 N   0  0  0  0  0  0  0  0  0  0  0  0
   -7.1690   23.1710  -30.9810 C   0  0  0  0  0  0  0  0  0  0  0  0
   -6.5370   24.1950  -31.7020 C   0  0  0  0  0  0  0  0  0  0  0  0
   -6.9696   24.5443  -32.6512 H   0  0  0  0  0  0  0  0  0  0  0  0
   -5.3600   24.7730  -31.2190 C   0  0  0  0  0  0  0  0  0  0  0  0
   -4.8847   25.5962  -31.7725 H   0  0  0  0  0  0  0  0  0  0  0  0
   -4.7860   24.3060  -30.0330 C   0  0  0  0  0  0  0  0  0  0  0  0
   -3.6420   24.8650  -29.5660 F   0  0  0  0  0  0  0  0  0  0  0  0
   -5.3770   23.2430  -29.3440 C   0  0  0  0  0  0  0  0  0  0  0  0
   -4.9166   22.8635  -28.4199 H   0  0  0  0  0  0  0  0  0  0  0  0
   -6.5520   22.6620  -29.8280 C   0  0  0  0  0  0  0  0  0  0  0  0
   -6.9949   21.8026  -29.3034 H   0  0  0  0  0  0  0  0  0  0  0  0
   -7.3140   20.2810  -32.0480 C   0  0  2  0  0  0  0  0  0  0  0  0
   -7.1578   20.0052  -30.9947 H   0  0  0  0  0  0  0  0  0  0  0  0
   -5.9950   20.8270  -32.6090 C   0  0  0  0  0  0  0  0  0  0  0  0
   -5.1936   20.7427  -31.8602 H   0  0  0  0  0  0  0  0  0  0  0  0
   -6.0719   21.8917  -32.8746 H   0  0  0  0  0  0  0  0  0  0  0  0
   -5.6860   19.9640  -33.8170 C   0  0  0  0  0  0  0  0  0  0  0  0
   -4.6107   19.7382  -33.8686 H   0  0  0  0  0  0  0  0  0  0  0  0
   -5.9436   20.4619  -34.7634 H   0  0  0  0  0  0  0  0  0  0  0  0
   -6.4890   18.6980  -33.5950 C   0  0  0  0  0  0  0  0  0  0  0  0
   -5.8946   17.9675  -33.0266 H   0  0  0  0  0  0  0  0  0  0  0  0
   -6.7652   18.2332  -34.5530 H   0  0  0  0  0  0  0  0  0  0  0  0
   -7.6850   19.0810  -32.8310 N   0  0  1  0  0  0  0  0  0  0  0  0
   -8.4500   19.2970  -33.5080 H   0  0  0  0  0  0  0  0  0  0  0  0
   -8.1580   17.9770  -31.9760 C   0  0  0  0  0  0  0  0  0  0  0  0
   -8.0388   18.2553  -30.9185 H   0  0  0  0  0  0  0  0  0  0  0  0
   -9.2196   17.7797  -32.1858 H   0  0  0  0  0  0  0  0  0  0  0  0
   -7.5685   17.0723  -32.1858 H   0  0  0  0  0  0  0  0  0  0  0  0
  1  2  1  0
  2  3  2  0
  3  4  1  0
  4  5  2  0
  5  6  1  0
  5  7  1  0
  7  8  1  0
  7  9  2  0
  9 10  1  0
  9 11  1  0
 11 12  1  0
 11 13  2  0
 13 14  1  0
  2 15  1  0
 15 16  1  1
 15 17  1  0
 17 18  1  0
 17 19  1  0
 17 20  1  0
 20 21  1  0
 20 22  1  0
 20 23  1  0
 23 24  1  0
 23 25  1  0
 23 26  1  0
 26 27  1  6
 26 28  1  0
 28 29  1  0
 28 30  1  0
 28 31  1  0
 13  4  1  0
 26 15  1  0
M  CHG  1  26   1
M  END
>  <UniqueID>  (23) 
21

>  <SMILES>  (23) 
C[N@@H+]1CCC[C@H]1/C=N\c1ccc(F)cc1

>  <Energy>  (23) 
45.24611939384422

>  <Genealogy>  (23) 
C[NH+]1CCCC1C=Nc1ccc(F)cc1 (protonated)
C[N@@H+]1CCC[C@H]1C=Nc1ccc(F)cc1 (chirality)
C[N@@H+]1CCC[C@H]1/C=N\c1ccc(F)cc1 (cis-trans isomerization)
C[N@@H+]1CCC[C@H]1/C=N\c1ccc(F)cc1 (3D coordinates assigned)
C[N@@H+]1CCC[C@H]1/C=N\c1ccc(F)cc1 (nonaromatic ring conformer: 45.24611939384422 kcal/mol)

>  <smiles>  (23) 
CN1CCCC1C=Nc1ccc(F)cc1

>  <score_type>  (23) 
oracle

>  <origin>  (23) 
adgpu

>  <m_score__min__energy>  (23) 
-5.5499999999999998

>  <m_primary>  (23) 
energy

$$$$
23:0
     RDKit          3D

 38 40  0  0  0  0  0  0  0  0999 V2000
   -5.7470   18.6954  -32.7916 H   0  0  0  0  0  0  0  0  0  0  0  0
   -5.8410   19.7830  -32.6560 C   0  0  0  0  0  0  0  0  0  0  0  0
   -4.7070   20.5950  -32.7210 C   0  0  0  0  0  0  0  0  0  0  0  0
   -3.7191   20.1458  -32.9006 H   0  0  0  0  0  0  0  0  0  0  0  0
   -4.8260   21.9790  -32.5580 C   0  0  0  0  0  0  0  0  0  0  0  0
   -3.9275   22.6127  -32.5912 H   0  0  0  0  0  0  0  0  0  0  0  0
   -6.0870   22.5650  -32.3520 C   0  0  0  0  0  0  0  0  0  0  0  0
   -6.1910   24.0550  -32.1310 C   0  0  0  0  0  0  0  0  0  0  0  0
   -7.0974   24.2644  -31.5439 H   0  0  0  0  0  0  0  0  0  0  0  0
   -6.2332   24.5421  -33.1164 H   0  0  0  0  0  0  0  0  0  0  0  0
   -5.0290   24.5870  -31.4130 N   0  0  0  0  0  0  0  0  0  0  0  0
   -4.4370   24.2960  -30.2820 C   0  0  0  0  0  0  0  0  0  0  0  0
   -3.2410   24.9030  -30.0680 N   0  0  0  0  0  0  0  0  0  0  0  0
   -2.4480   24.6020  -29.0170 C   0  0  0  0  0  0  0  0  0  0  0  0
   -1.2210   25.2560  -28.8550 C   0  0  0  0  0  0  0  0  0  0  0  0
   -0.9211   26.0375  -29.5687 H   0  0  0  0  0  0  0  0  0  0  0  0
   -0.3730   24.9240  -27.7930 C   0  0  0  0  0  0  0  0  0  0  0  0
    0.8460   25.6090  -27.6730 O   0  0  0  0  0  0  0  0  0  0  0  0
    1.1150   26.6040  -26.6910 C   0  0  0  0  0  0  0  0  0  0  0  0
    0.9976   26.1697  -25.6872 H   0  0  0  0  0  0  0  0  0  0  0  0
    2.1447   26.9712  -26.8135 H   0  0  0  0  0  0  0  0  0  0  0  0
    0.4106   27.4400  -26.8135 H   0  0  0  0  0  0  0  0  0  0  0  0
   -0.7670   23.9200  -26.8860 C   0  0  0  0  0  0  0  0  0  0  0  0
   -0.1078   23.6495  -26.0480 H   0  0  0  0  0  0  0  0  0  0  0  0
   -1.9930   23.2660  -27.0470 C   0  0  0  0  0  0  0  0  0  0  0  0
   -2.2939   22.4826  -26.3359 H   0  0  0  0  0  0  0  0  0  0  0  0
   -2.8430   23.6070  -28.1160 C   0  0  0  0  0  0  0  0  0  0  0  0
   -4.0950   23.0000  -28.3070 C   0  0  0  0  0  0  0  0  0  0  0  0
   -4.4650   22.0970  -27.5030 O   0  0  0  0  0  0  0  0  0  0  0  0
   -4.9160   23.3880  -29.3460 N   0  0  0  0  0  0  0  0  0  0  0  0
   -6.3130   22.9200  -29.3390 C   0  0  0  0  0  0  0  0  0  0  0  0
   -6.6560   22.8051  -28.3002 H   0  0  0  0  0  0  0  0  0  0  0  0
   -6.9483   23.6544  -29.8558 H   0  0  0  0  0  0  0  0  0  0  0  0
   -6.3777   21.9511  -29.8558 H   0  0  0  0  0  0  0  0  0  0  0  0
   -7.2190   21.7340  -32.2560 C   0  0  0  0  0  0  0  0  0  0  0  0
   -8.2061   22.1745  -32.0519 H   0  0  0  0  0  0  0  0  0  0  0  0
   -7.0940   20.3510  -32.4190 C   0  0  0  0  0  0  0  0  0  0  0  0
   -7.9852   19.7089  -32.3603 H   0  0  0  0  0  0  0  0  0  0  0  0
  1  2  1  0
  2  3  2  0
  3  4  1  0
  3  5  1  0
  5  6  1  0
  5  7  2  0
  7  8  1  0
  8  9  1  0
  8 10  1  0
  8 11  1  0
 11 12  2  0
 12 13  1  0
 13 14  1  0
 14 15  2  0
 15 16  1  0
 15 17  1  0
 17 18  1  0
 18 19  1  0
 19 20  1  0
 19 21  1  0
 19 22  1  0
 17 23  2  0
 23 24  1  0
 23 25  1  0
 25 26  1  0
 25 27  2  0
 27 28  1  0
 28 29  2  0
 28 30  1  0
 30 31  1  0
 31 32  1  0
 31 33  1  0
 31 34  1  0
  7 35  1  0
 35 36  1  0
 35 37  2  0
 37 38  1  0
 37  2  1  0
 30 12  1  0
 27 14  1  0
M  CHG  1  13  -1
M  END
>  <UniqueID>  (24) 
22

>  <SMILES>  (24) 
COc1ccc2c(=O)n(C)/c(=N\Cc3ccccc3)[n-]c2c1

>  <Energy>  (24) 
63.557746013931904

>  <Genealogy>  (24) 
COc1ccc2c(=O)n(C)c(=NCc3ccccc3)[n-]c2c1 (protonated)
COc1ccc2c(=O)n(C)/c(=N\Cc3ccccc3)[n-]c2c1 (cis-trans isomerization)
COc1ccc2c(=O)n(C)/c(=N\Cc3ccccc3)[n-]c2c1 (3D coordinates assigned)
COc1ccc2c(=O)n(C)/c(=N\Cc3ccccc3)[n-]c2c1 (optimized conformer: 63.557746013931904 kcal/mol)

>  <smiles>  (24) 
COc1ccc2c(=O)n(C)c(=NCc3ccccc3)[nH]c2c1

>  <score_type>  (24) 
oracle

>  <origin>  (24) 
adgpu

>  <m_score__min__energy>  (24) 
-8.0299999999999994

>  <m_primary>  (24) 
energy

$$$$
24:0
     RDKit          3D

 18 19  0  0  0  0  0  0  0  0999 V2000
   -3.2390   25.2330  -31.5910 H   0  0  0  0  0  0  0  0  0  0  0  0
   -3.8340   25.3020  -30.7350 N   0  0  0  0  0  0  0  0  0  0  0  0
   -4.8940   24.5740  -30.5960 C   0  0  0  0  0  0  0  0  0  0  0  0
   -5.3110   23.6860  -31.5220 N   0  0  0  0  0  0  0  0  0  0  0  0
   -6.4240   23.1880  -30.9420 C   0  0  0  0  0  0  0  0  0  0  0  0
   -7.2780   22.1480  -31.5710 C   0  0  0  0  0  0  0  0  0  0  0  0
   -8.6720   22.1860  -31.3930 C   0  0  0  0  0  0  0  0  0  0  0  0
   -9.1294   22.9834  -30.7889 H   0  0  0  0  0  0  0  0  0  0  0  0
   -9.4740   21.2090  -31.9850 C   0  0  0  0  0  0  0  0  0  0  0  0
  -10.5650   21.2382  -31.8480 H   0  0  0  0  0  0  0  0  0  0  0  0
   -8.9110   20.2220  -32.7300 N   0  0  0  0  0  0  0  0  0  0  0  0
   -7.5680   20.1560  -32.9230 C   0  0  0  0  0  0  0  0  0  0  0  0
   -7.1408   19.3467  -33.5333 H   0  0  0  0  0  0  0  0  0  0  0  0
   -6.7270   21.1140  -32.3480 C   0  0  0  0  0  0  0  0  0  0  0  0
   -5.6394   21.0588  -32.5029 H   0  0  0  0  0  0  0  0  0  0  0  0
   -6.6470   23.7550  -29.7380 N   0  0  0  0  0  0  0  0  0  0  0  0
   -7.4270   23.5660  -29.0710 H   0  0  0  0  0  0  0  0  0  0  0  0
   -5.6850   24.6300  -29.5130 N   0  0  0  0  0  0  0  0  0  0  0  0
  1  2  1  0
  2  3  2  0
  3  4  1  0
  4  5  2  0
  5  6  1  0
  6  7  2  0
  7  8  1  0
  7  9  1  0
  9 10  1  0
  9 11  2  0
 11 12  1  0
 12 13  1  0
 12 14  2  0
 14 15  1  0
  5 16  1  0
 16 17  1  0
 16 18  1  0
 18  3  1  0
 14  6  1  0
M  CHG  1  18  -1
M  END
>  <UniqueID>  (25) 
23

>  <SMILES>  (25) 
[H]/N=c1\nc(-c2ccncc2)[nH][n-]1

>  <Energy>  (25) 
53.76307789931619

>  <Genealogy>  (25) 
N=c1nc(-c2ccncc2)[nH][n-]1 (protonated)
[H]/N=c1\nc(-c2ccncc2)[nH][n-]1 (cis-trans isomerization)
[H]/N=c1\nc(-c2ccncc2)[nH][n-]1 (3D coordinates assigned)
[H]/N=c1\nc(-c2ccncc2)[nH][n-]1 (optimized conformer: 53.76307789931619 kcal/mol)

>  <smiles>  (25) 
N=c1nc(-c2ccncc2)[nH][nH]1

>  <score_type>  (25) 
oracle

>  <origin>  (25) 
adgpu

>  <m_score__min__energy>  (25) 
-6.9299999999999997

>  <m_primary>  (25) 
energy

$$$$
25:0
     RDKit          3D

 26 26  0  0  0  0  0  0  0  0999 V2000
   -0.7780   23.9230  -29.2750 C   0  0  0  0  0  0  0  0  0  0  0  0
   -1.8040   24.3280  -28.2590 C   0  0  0  0  0  0  0  0  0  0  0  0
   -3.0990   23.7970  -28.3140 C   0  0  0  0  0  0  0  0  0  0  0  0
   -4.0440   24.1500  -27.3490 C   0  0  0  0  0  0  0  0  0  0  0  0
   -3.6990   25.0200  -26.3110 C   0  0  0  0  0  0  0  0  0  0  0  0
   -2.3930   25.5440  -26.2230 C   0  0  0  0  0  0  0  0  0  0  0  0
   -1.9910   26.4450  -25.1710 N   0  0  0  0  0  0  0  0  0  0  0  0
   -0.6270   26.9180  -24.9280 C   0  0  0  0  0  0  0  0  0  0  0  0
   -0.2150   26.6790  -23.4700 C   0  0  0  0  0  0  0  0  0  0  0  0
    1.2030   26.3400  -23.3510 N   0  0  0  0  0  0  0  0  0  0  0  0
   -1.4540   25.1890  -27.2060 C   0  0  0  0  0  0  0  0  0  0  0  0
    0.1264   23.5660  -28.7606 H   0  0  0  0  0  0  0  0  0  0  0  0
   -1.1837   23.1176  -29.9048 H   0  0  0  0  0  0  0  0  0  0  0  0
   -0.5241   24.7884  -29.9048 H   0  0  0  0  0  0  0  0  0  0  0  0
   -3.3721   23.0999  -29.1199 H   0  0  0  0  0  0  0  0  0  0  0  0
   -5.0639   23.7419  -27.4058 H   0  0  0  0  0  0  0  0  0  0  0  0
   -4.4512   25.2977  -25.5579 H   0  0  0  0  0  0  0  0  0  0  0  0
   -2.7260   26.7900  -24.5120 H   0  0  0  0  0  0  0  0  0  0  0  0
    0.0648   26.3774  -25.5907 H   0  0  0  0  0  0  0  0  0  0  0  0
   -0.5889   27.9985  -25.1308 H   0  0  0  0  0  0  0  0  0  0  0  0
   -0.4116   27.5932  -22.8907 H   0  0  0  0  0  0  0  0  0  0  0  0
   -0.8010   25.8312  -23.0854 H   0  0  0  0  0  0  0  0  0  0  0  0
    1.2980   25.3030  -23.2570 H   0  0  0  0  0  0  0  0  0  0  0  0
    1.7230   26.6450  -24.2050 H   0  0  0  0  0  0  0  0  0  0  0  0
    1.6100   26.7910  -22.5000 H   0  0  0  0  0  0  0  0  0  0  0  0
   -0.4315   25.5906  -27.1502 H   0  0  0  0  0  0  0  0  0  0  0  0
  1  2  1  0
  2  3  2  0
  3  4  1  0
  4  5  2  0
  5  6  1  0
  6  7  1  0
  7  8  1  0
  8  9  1  0
  9 10  1  0
  6 11  2  0
 11  2  1  0
  1 12  1  0
  1 13  1  0
  1 14  1  0
  3 15  1  0
  4 16  1  0
  5 17  1  0
  7 18  1  0
  8 19  1  0
  8 20  1  0
  9 21  1  0
  9 22  1  0
 10 23  1  0
 10 24  1  0
 10 25  1  0
 11 26  1  0
M  CHG  1  10   1
M  END
>  <UniqueID>  (26) 
24

>  <SMILES>  (26) 
Cc1cccc(NCC[NH3+])c1

>  <Energy>  (26) 
21.337376656304563

>  <Genealogy>  (26) 
Cc1cccc(NCC[NH3+])c1 (protonated)
Cc1cccc(NCC[NH3+])c1 (3D coordinates assigned)
Cc1cccc(NCC[NH3+])c1 (optimized conformer: 21.337376656304563 kcal/mol)

>  <smiles>  (26) 
Cc1cccc(NCCN)c1

>  <score_type>  (26) 
oracle

>  <origin>  (26) 
adgpu

>  <m_score__min__energy>  (26) 
-5.2699999999999996

>  <m_primary>  (26) 
energy

$$$$
26:0
     RDKit          3D

 25 26  0  0  0  0  0  0  0  0999 V2000
   -2.3110   24.3340  -30.5240 H   0  0  0  0  0  0  0  0  0  0  0  0
   -3.1060   24.9060  -30.1590 N   0  0  0  0  0  0  0  0  0  0  0  0
   -4.3360   24.5530  -30.3490 C   0  0  0  0  0  0  0  0  0  0  0  0
   -4.6200   23.4140  -31.0360 N   0  0  0  0  0  0  0  0  0  0  0  0
   -5.9010   23.0130  -31.2590 C   0  0  0  0  0  0  0  0  0  0  0  0
   -6.1500   21.7570  -32.0130 C   0  0  0  0  0  0  0  0  0  0  0  0
   -5.1210   21.1950  -32.7910 C   0  0  0  0  0  0  0  0  0  0  0  0
   -4.1400   21.6903  -32.8387 H   0  0  0  0  0  0  0  0  0  0  0  0
   -5.3360   20.0130  -33.5030 C   0  0  0  0  0  0  0  0  0  0  0  0
   -4.5208   19.5761  -34.0984 H   0  0  0  0  0  0  0  0  0  0  0  0
   -6.5810   19.3840  -33.4620 C   0  0  0  0  0  0  0  0  0  0  0  0
   -6.7403   18.4467  -34.0152 H   0  0  0  0  0  0  0  0  0  0  0  0
   -7.6290   19.9430  -32.7180 C   0  0  0  0  0  0  0  0  0  0  0  0
   -8.9600   19.2540  -32.6530 C   0  0  0  0  0  0  0  0  0  0  0  0
   -9.2454   19.1063  -31.6010 H   0  0  0  0  0  0  0  0  0  0  0  0
   -9.7182   19.8729  -33.1552 H   0  0  0  0  0  0  0  0  0  0  0  0
   -8.8924   18.2777  -33.1552 H   0  0  0  0  0  0  0  0  0  0  0  0
   -7.4070   21.1210  -31.9870 C   0  0  0  0  0  0  0  0  0  0  0  0
   -8.2228   21.5518  -31.3879 H   0  0  0  0  0  0  0  0  0  0  0  0
   -6.9530   23.7920  -30.7500 C   0  0  0  0  0  0  0  0  0  0  0  0
   -7.9992   23.4891  -30.9036 H   0  0  0  0  0  0  0  0  0  0  0  0
   -6.6470   24.9570  -30.0460 C   0  0  0  0  0  0  0  0  0  0  0  0
   -7.5740   25.6710  -29.5800 O   0  0  0  0  0  0  0  0  0  0  0  0
   -5.3490   25.3210  -29.8600 N   0  0  0  0  0  0  0  0  0  0  0  0
   -5.1300   26.1960  -29.3320 H   0  0  0  0  0  0  0  0  0  0  0  0
  1  2  1  0
  2  3  2  0
  3  4  1  0
  4  5  1  0
  5  6  1  0
  6  7  2  0
  7  8  1  0
  7  9  1  0
  9 10  1  0
  9 11  2  0
 11 12  1  0
 11 13  1  0
 13 14  1  0
 14 15  1  0
 14 16  1  0
 14 17  1  0
 13 18  2  0
 18 19  1  0
  5 20  2  0
 20 21  1  0
 20 22  1  0
 22 23  2  0
 22 24  1  0
 24 25  1  0
 24  3  1  0
 18  6  1  0
M  CHG  1   4  -1
M  END
>  <UniqueID>  (27) 
25

>  <SMILES>  (27) 
[H]/N=c1\[n-]c(-c2cccc(C)c2)cc(=O)[nH]1

>  <Energy>  (27) 
29.466409297664605

>  <Genealogy>  (27) 
Cc1cccc(-c2cc(=O)[nH]c(=N)[n-]2)c1 (protonated)
[H]/N=c1\[n-]c(-c2cccc(C)c2)cc(=O)[nH]1 (cis-trans isomerization)
[H]/N=c1\[n-]c(-c2cccc(C)c2)cc(=O)[nH]1 (3D coordinates assigned)
[H]/N=c1\[n-]c(-c2cccc(C)c2)cc(=O)[nH]1 (optimized conformer: 29.466409297664605 kcal/mol)

>  <smiles>  (27) 
Cc1cccc(-c2cc(=O)[nH]c(=N)[nH]2)c1

>  <score_type>  (27) 
oracle

>  <origin>  (27) 
adgpu

>  <m_score__min__energy>  (27) 
-8.1600000000000001

>  <m_primary>  (27) 
energy

$$$$
27:0
     RDKit          3D

 48 52  0  0  0  0  0  0  0  0999 V2000
   -4.7560   24.2550  -28.5560 O   0  0  0  0  0  0  0  0  0  0  0  0
   -3.7020   24.2090  -29.6250 S   0  0  0  0  0  0  0  0  0  0  0  0
   -3.8680   25.4010  -30.5260 O   0  0  0  0  0  0  0  0  0  0  0  0
   -3.8490   22.7410  -30.5830 C   0  0  0  0  0  0  0  0  0  0  0  0
   -4.6030   22.7300  -31.7620 C   0  0  0  0  0  0  0  0  0  0  0  0
   -4.7170   21.5550  -32.5120 C   0  0  0  0  0  0  0  0  0  0  0  0
   -4.0650   20.3830  -32.1010 C   0  0  0  0  0  0  0  0  0  0  0  0
   -4.2000   19.1470  -32.9020 C   0  0  0  0  0  0  0  0  0  0  0  0
   -3.1370   18.4760  -33.3940 N   0  0  0  0  0  0  0  0  0  0  0  0
   -3.6230   17.4470  -34.0690 N   0  0  0  0  0  0  0  0  0  0  0  0
   -4.9620   17.4920  -33.9840 C   0  0  0  0  0  0  0  0  0  0  0  0
   -5.9450   16.3220  -34.5810 S   0  0  0  0  0  0  0  0  0  0  0  0
   -5.3680   18.5510  -33.2520 N   0  0  0  0  0  0  0  0  0  0  0  0
   -6.7020   18.8590  -32.8080 C   0  0  0  0  0  0  0  0  0  0  0  0
   -7.4110   17.9470  -32.0100 C   0  0  0  0  0  0  0  0  0  0  0  0
   -8.7020   18.2510  -31.5700 C   0  0  0  0  0  0  0  0  0  0  0  0
   -9.2950   19.4660  -31.9270 C   0  0  0  0  0  0  0  0  0  0  0  0
   -8.5970   20.3770  -32.7240 C   0  0  0  0  0  0  0  0  0  0  0  0
   -7.3050   20.0760  -33.1640 C   0  0  0  0  0  0  0  0  0  0  0  0
   -3.3260   20.3930  -30.9060 C   0  0  0  0  0  0  0  0  0  0  0  0
   -3.2140   21.5680  -30.1570 C   0  0  0  0  0  0  0  0  0  0  0  0
   -2.1400   24.2540  -28.8760 N   0  0  0  0  0  0  0  0  0  0  0  0
   -0.9220   23.7040  -29.4630 C   0  0  0  0  0  0  0  0  0  0  0  0
    0.1840   23.8970  -28.3930 C   0  0  0  0  0  0  0  0  0  0  0  0
   -0.5430   24.5210  -27.2510 C   0  0  0  0  0  0  0  0  0  0  0  0
   -0.0360   24.8920  -26.0050 C   0  0  0  0  0  0  0  0  0  0  0  0
   -0.9130   25.4670  -25.0690 C   0  0  0  0  0  0  0  0  0  0  0  0
   -2.2700   25.6590  -25.3940 C   0  0  0  0  0  0  0  0  0  0  0  0
   -2.7570   25.2770  -26.6560 C   0  0  0  0  0  0  0  0  0  0  0  0
   -1.8610   24.7070  -27.5660 C   0  0  0  0  0  0  0  0  0  0  0  0
   -5.1071   23.6476  -32.0996 H   0  0  0  0  0  0  0  0  0  0  0  0
   -5.3222   21.5499  -33.4306 H   0  0  0  0  0  0  0  0  0  0  0  0
   -3.0430   16.7250  -34.5500 H   0  0  0  0  0  0  0  0  0  0  0  0
   -6.9483   16.9891  -31.7300 H   0  0  0  0  0  0  0  0  0  0  0  0
   -9.2520   17.5342  -30.9425 H   0  0  0  0  0  0  0  0  0  0  0  0
  -10.3113   19.7047  -31.5803 H   0  0  0  0  0  0  0  0  0  0  0  0
   -9.0648   21.3320  -33.0054 H   0  0  0  0  0  0  0  0  0  0  0  0
   -6.7585   20.7953  -33.7916 H   0  0  0  0  0  0  0  0  0  0  0  0
   -2.8337   19.4727  -30.5585 H   0  0  0  0  0  0  0  0  0  0  0  0
   -2.6242   21.5711  -29.2285 H   0  0  0  0  0  0  0  0  0  0  0  0
   -1.0540   22.6357  -29.6897 H   0  0  0  0  0  0  0  0  0  0  0  0
   -0.6646   24.2051  -30.4078 H   0  0  0  0  0  0  0  0  0  0  0  0
    0.6210   22.9309  -28.1003 H   0  0  0  0  0  0  0  0  0  0  0  0
    1.0252   24.5085  -28.7513 H   0  0  0  0  0  0  0  0  0  0  0  0
    1.0255   24.7380  -25.7609 H   0  0  0  0  0  0  0  0  0  0  0  0
   -0.5383   25.7680  -24.0795 H   0  0  0  0  0  0  0  0  0  0  0  0
   -2.9513   26.1097  -24.6573 H   0  0  0  0  0  0  0  0  0  0  0  0
   -3.8147   25.4225  -26.9208 H   0  0  0  0  0  0  0  0  0  0  0  0
  1  2  2  0
  2  3  2  0
  2  4  1  0
  4  5  2  0
  5  6  1  0
  6  7  2  0
  7  8  1  0
  8  9  2  0
  9 10  1  0
 10 11  1  0
 11 12  2  0
 11 13  1  0
 13 14  1  0
 14 15  2  0
 15 16  1  0
 16 17  2  0
 17 18  1  0
 18 19  2  0
  7 20  1  0
 20 21  2  0
  2 22  1  0
 22 23  1  0
 23 24  1  0
 24 25  1  0
 25 26  2  0
 26 27  1  0
 27 28  2  0
 28 29  1  0
 29 30  2  0
 21  4  1  0
 30 22  1  0
 13  8  1  0
 19 14  1  0
 30 25  1  0
  5 31  1  0
  6 32  1  0
 10 33  1  0
 15 34  1  0
 16 35  1  0
 17 36  1  0
 18 37  1  0
 19 38  1  0
 20 39  1  0
 21 40  1  0
 23 41  1  0
 23 42  1  0
 24 43  1  0
 24 44  1  0
 26 45  1  0
 27 46  1  0
 28 47  1  0
 29 48  1  0
M  END
>  <UniqueID>  (28) 
26

>  <SMILES>  (28) 
O=S(=O)(c1ccc(-c2n[nH]c(=S)n2-c2ccccc2)cc1)N1CCc2ccccc21

>  <Energy>  (28) 
115.51176858263034

>  <Genealogy>  (28) 
O=S(=O)(c1ccc(-c2n[nH]c(=S)n2-c2ccccc2)cc1)N1CCc2ccccc21 (3D coordinates assigned)
O=S(=O)(c1ccc(-c2n[nH]c(=S)n2-c2ccccc2)cc1)N1CCc2ccccc21 (nonaromatic ring conformer: 115.51176858263034 kcal/mol)

>  <smiles>  (28) 
O=S(=O)(c1ccc(-c2n[nH]c(=S)n2-c2ccccc2)cc1)N1CCc2ccccc21

>  <score_type>  (28) 
oracle

>  <origin>  (28) 
adgpu

>  <m_score__min__energy>  (28) 
-9.9600000000000009

>  <m_primary>  (28) 
energy

$$$$
28:0
     RDKit          3D

 38 40  0  0  0  0  0  0  0  0999 V2000
   -5.0040   17.4190  -34.9070 C   0  0  0  0  0  0  0  0  0  0  0  0
   -4.5950   18.6860  -34.4020 O   0  0  0  0  0  0  0  0  0  0  0  0
   -5.4000   19.5230  -33.6140 C   0  0  0  0  0  0  0  0  0  0  0  0
   -6.7690   19.2590  -33.5540 C   0  0  0  0  0  0  0  0  0  0  0  0
   -7.6140   20.0590  -32.7850 C   0  0  0  0  0  0  0  0  0  0  0  0
   -7.1010   21.1500  -32.0580 C   0  0  0  0  0  0  0  0  0  0  0  0
   -7.9390   21.9810  -31.2950 O   0  0  0  0  0  0  0  0  0  0  0  0
   -9.3580   21.8710  -31.2390 C   0  0  0  0  0  0  0  0  0  0  0  0
   -5.7170   21.4270  -32.1080 C   0  0  0  0  0  0  0  0  0  0  0  0
   -5.1570   22.5280  -31.3630 N   0  0  0  0  0  0  0  0  0  0  0  0
   -4.4840   22.4670  -30.1980 C   0  0  0  0  0  0  0  0  0  0  0  0
   -4.1560   23.7690  -29.8660 C   0  0  0  0  0  0  0  0  0  0  0  0
   -3.4070   24.2450  -28.6780 C   0  0  0  0  0  0  0  0  0  0  0  0
   -4.0880   24.4870  -27.4760 C   0  0  0  0  0  0  0  0  0  0  0  0
   -3.3980   24.9290  -26.3480 C   0  0  0  0  0  0  0  0  0  0  0  0
   -2.0170   25.1470  -26.3970 C   0  0  0  0  0  0  0  0  0  0  0  0
   -1.2140   25.6330  -24.9070 Cl  0  0  0  0  0  0  0  0  0  0  0  0
   -1.3120   24.9220  -27.6020 C   0  0  0  0  0  0  0  0  0  0  0  0
    0.1070   25.1420  -27.7040 N   0  0  0  0  0  0  0  0  0  0  0  0
    0.6050   26.2530  -27.4260 O   0  0  0  0  0  0  0  0  0  0  0  0
    0.9180   24.1760  -28.2550 O   0  0  0  0  0  0  0  0  0  0  0  0
   -2.0180   24.4630  -28.7290 C   0  0  0  0  0  0  0  0  0  0  0  0
   -4.6400   24.5760  -30.8330 N   0  0  0  0  0  0  0  0  0  0  0  0
   -5.2400   23.8000  -31.7230 N   0  0  0  0  0  0  0  0  0  0  0  0
   -4.8780   20.6080  -32.8890 C   0  0  0  0  0  0  0  0  0  0  0  0
   -5.2223   16.7427  -34.0674 H   0  0  0  0  0  0  0  0  0  0  0  0
   -5.9075   17.5437  -35.5219 H   0  0  0  0  0  0  0  0  0  0  0  0
   -4.1981   16.9918  -35.5219 H   0  0  0  0  0  0  0  0  0  0  0  0
   -7.1857   18.4119  -34.1186 H   0  0  0  0  0  0  0  0  0  0  0  0
   -8.6904   19.8356  -32.7462 H   0  0  0  0  0  0  0  0  0  0  0  0
   -9.6826   21.8458  -30.1883 H   0  0  0  0  0  0  0  0  0  0  0  0
   -9.8130   22.7366  -31.7427 H   0  0  0  0  0  0  0  0  0  0  0  0
   -9.6742   20.9456  -31.7427 H   0  0  0  0  0  0  0  0  0  0  0  0
   -4.2427   21.5604  -29.6237 H   0  0  0  0  0  0  0  0  0  0  0  0
   -5.1750   24.3268  -27.4228 H   0  0  0  0  0  0  0  0  0  0  0  0
   -3.9448   25.1080  -25.4105 H   0  0  0  0  0  0  0  0  0  0  0  0
   -1.4747   24.2713  -29.6661 H   0  0  0  0  0  0  0  0  0  0  0  0
   -3.7996   20.8206  -32.9320 H   0  0  0  0  0  0  0  0  0  0  0  0
  1  2  1  0
  2  3  1  0
  3  4  2  0
  4  5  1  0
  5  6  2  0
  6  7  1  0
  7  8  1  0
  6  9  1  0
  9 10  1  0
 10 11  1  0
 11 12  2  0
 12 13  1  0
 13 14  2  0
 14 15  1  0
 15 16  2  0
 16 17  1  0
 16 18  1  0
 18 19  1  0
 19 20  2  0
 19 21  1  0
 18 22  2  0
 12 23  1  0
 23 24  2  0
  9 25  2  0
 25  3  1  0
 24 10  1  0
 22 13  1  0
  1 26  1  0
  1 27  1  0
  1 28  1  0
  4 29  1  0
  5 30  1  0
  8 31  1  0
  8 32  1  0
  8 33  1  0
 11 34  1  0
 14 35  1  0
 15 36  1  0
 22 37  1  0
 25 38  1  0
M  CHG  2  19   1  21  -1
M  END
>  <UniqueID>  (29) 
27

>  <SMILES>  (29) 
COc1ccc(OC)c(-n2cc(-c3ccc(Cl)c([N+](=O)[O-])c3)nn2)c1

>  <Energy>  (29) 
84.56466711625882

>  <Genealogy>  (29) 
COc1ccc(OC)c(-n2cc(-c3ccc(Cl)c([N+](=O)[O-])c3)nn2)c1 (3D coordinates assigned)
COc1ccc(OC)c(-n2cc(-c3ccc(Cl)c([N+](=O)[O-])c3)nn2)c1 (optimized conformer: 84.56466711625882 kcal/mol)

>  <smiles>  (29) 
COc1ccc(OC)c(-n2cc(-c3ccc(Cl)c([N+](=O)[O-])c3)nn2)c1

>  <score_type>  (29) 
oracle

>  <origin>  (29) 
adgpu

>  <m_score__min__energy>  (29) 
-8.5299999999999994

>  <m_primary>  (29) 
energy

$$$$
29:0
     RDKit          3D

 34 36  0  0  0  0  0  0  0  0999 V2000
   -5.0727   26.7556  -30.2743 H   0  0  0  0  0  0  0  0  0  0  0  0
   -4.9980   25.6860  -30.5200 C   0  0  0  0  0  0  0  0  0  0  0  0
   -3.8110   25.0400  -30.3820 N   0  0  0  0  0  0  0  0  0  0  0  0
   -3.6750   23.7190  -30.6760 C   0  0  0  0  0  0  0  0  0  0  0  0
   -2.3570   23.0440  -30.4700 C   0  0  0  0  0  0  0  0  0  0  0  0
   -2.1609   22.9436  -29.3923 H   0  0  0  0  0  0  0  0  0  0  0  0
   -2.3796   22.0465  -30.9331 H   0  0  0  0  0  0  0  0  0  0  0  0
   -1.5608   23.6453  -30.9331 H   0  0  0  0  0  0  0  0  0  0  0  0
   -4.7830   22.9880  -31.1240 C   0  0  0  0  0  0  0  0  0  0  0  0
   -4.6862   21.9134  -31.3383 H   0  0  0  0  0  0  0  0  0  0  0  0
   -6.0240   23.6370  -31.2990 C   0  0  0  0  0  0  0  0  0  0  0  0
   -7.0960   23.0200  -31.7140 N   0  0  0  0  0  0  0  0  0  0  0  0
   -7.2070   21.6750  -32.2020 C   0  0  0  0  0  0  0  0  0  0  0  0
   -8.3830   21.1210  -32.5500 N   0  0  0  0  0  0  0  0  0  0  0  0
   -8.1180   19.9420  -33.0880 N   0  0  0  0  0  0  0  0  0  0  0  0
   -8.8500   19.2900  -33.4490 H   0  0  0  0  0  0  0  0  0  0  0  0
   -6.7850   19.7430  -33.1150 C   0  0  0  0  0  0  0  0  0  0  0  0
   -6.1510   18.5440  -33.6990 C   0  0  0  0  0  0  0  0  0  0  0  0
   -6.8510   17.4370  -34.0250 N   0  0  0  0  0  0  0  0  0  0  0  0
   -6.0080   16.5730  -34.5120 O   0  0  0  0  0  0  0  0  0  0  0  0
   -4.7870   17.0540  -34.5200 C   0  0  0  0  0  0  0  0  0  0  0  0
   -3.5940   16.3030  -35.0140 C   0  0  0  0  0  0  0  0  0  0  0  0
   -3.0109   15.9359  -34.1565 H   0  0  0  0  0  0  0  0  0  0  0  0
   -3.9248   15.4499  -35.6246 H   0  0  0  0  0  0  0  0  0  0  0  0
   -2.9678   16.9701  -35.6246 H   0  0  0  0  0  0  0  0  0  0  0  0
   -4.8110   18.3310  -33.9930 C   0  0  0  0  0  0  0  0  0  0  0  0
   -3.6450   19.2500  -33.7940 C   0  0  0  0  0  0  0  0  0  0  0  0
   -3.4678   19.3897  -32.7174 H   0  0  0  0  0  0  0  0  0  0  0  0
   -2.7495   18.8122  -34.2592 H   0  0  0  0  0  0  0  0  0  0  0  0
   -3.8614   20.2230  -34.2592 H   0  0  0  0  0  0  0  0  0  0  0  0
   -6.1600   20.8500  -32.5730 C   0  0  0  0  0  0  0  0  0  0  0  0
   -5.0810   21.0328  -32.4623 H   0  0  0  0  0  0  0  0  0  0  0  0
   -6.1230   24.9950  -30.9730 C   0  0  0  0  0  0  0  0  0  0  0  0
   -7.0861   25.5167  -31.0737 H   0  0  0  0  0  0  0  0  0  0  0  0
  1  2  1  0
  2  3  1  0
  3  4  1  0
  4  5  1  0
  5  6  1  0
  5  7  1  0
  5  8  1  0
  4  9  2  0
  9 10  1  0
  9 11  1  0
 11 12  2  0
 12 13  1  0
 13 14  2  0
 14 15  1  0
 15 16  1  0
 15 17  1  0
 17 18  1  0
 18 19  2  0
 19 20  1  0
 20 21  1  0
 21 22  1  0
 22 23  1  0
 22 24  1  0
 22 25  1  0
 21 26  2  0
 26 27  1  0
 27 28  1  0
 27 29  1  0
 27 30  1  0
 17 31  2  0
 31 32  1  0
 11 33  1  0
 33 34  1  0
 33  2  2  0
 31 13  1  0
 26 18  1  0
M  CHG  1   3  -1
M  END
>  <UniqueID>  (30) 
28

>  <SMILES>  (30) 
Cc1c/c(=N\c2cc(-c3noc(C)c3C)[nH]n2)cc[n-]1

>  <Energy>  (30) 
104.37768621988899

>  <Genealogy>  (30) 
Cc1cc(=Nc2cc(-c3noc(C)c3C)[nH]n2)cc[n-]1 (protonated)
Cc1c/c(=N\c2cc(-c3noc(C)c3C)[nH]n2)cc[n-]1 (cis-trans isomerization)
Cc1c/c(=N\c2cc(-c3noc(C)c3C)[nH]n2)cc[n-]1 (3D coordinates assigned)
Cc1c/c(=N\c2cc(-c3noc(C)c3C)[nH]n2)cc[n-]1 (optimized conformer: 104.37768621988899 kcal/mol)

>  <smiles>  (30) 
Cc1cc(=Nc2cc(-c3noc(C)c3C)[nH]n2)cc[nH]1

>  <score_type>  (30) 
oracle

>  <origin>  (30) 
adgpu

>  <m_score__min__energy>  (30) 
-9.5700000000000003

>  <m_primary>  (30) 
energy

$$$$
30:0
     RDKit          3D

 25 25  0  0  0  0  0  0  0  0999 V2000
   -4.7340   23.0510  -28.9270 C   0  0  0  0  0  0  0  0  0  0  0  0
   -5.2600   22.4700  -30.1560 N   0  0  0  0  0  0  0  0  0  0  0  0
   -5.8820   23.2540  -31.1920 C   0  0  0  0  0  0  0  0  0  0  0  0
   -5.7330   24.8890  -31.2050 S   0  0  0  0  0  0  0  0  0  0  0  0
   -6.5160   22.6110  -32.3080 N   0  0  0  0  0  0  0  0  0  0  0  0
   -7.1250   21.3100  -32.2410 C   0  0  0  0  0  0  0  0  0  0  0  0
   -8.5220   21.1680  -32.3340 C   0  0  0  0  0  0  0  0  0  0  0  0
   -9.1080   19.9010  -32.2980 C   0  0  0  0  0  0  0  0  0  0  0  0
   -8.3090   18.7640  -32.1840 C   0  0  0  0  0  0  0  0  0  0  0  0
   -6.9190   18.8880  -32.1090 C   0  0  0  0  0  0  0  0  0  0  0  0
   -6.3150   20.1620  -32.1430 C   0  0  0  0  0  0  0  0  0  0  0  0
   -4.9220   20.3230  -32.0690 O   0  0  0  0  0  0  0  0  0  0  0  0
   -4.0990   20.7520  -33.1490 C   0  0  0  0  0  0  0  0  0  0  0  0
   -5.1886   22.5489  -28.0602 H   0  0  0  0  0  0  0  0  0  0  0  0
   -3.6424   22.9185  -28.8967 H   0  0  0  0  0  0  0  0  0  0  0  0
   -4.9741   24.1241  -28.8967 H   0  0  0  0  0  0  0  0  0  0  0  0
   -5.1840   21.4360  -30.2790 H   0  0  0  0  0  0  0  0  0  0  0  0
   -6.5440   23.1250  -33.2170 H   0  0  0  0  0  0  0  0  0  0  0  0
   -9.1565   22.0608  -32.4357 H   0  0  0  0  0  0  0  0  0  0  0  0
  -10.2016   19.7998  -32.3597 H   0  0  0  0  0  0  0  0  0  0  0  0
   -8.7737   17.7674  -32.1530 H   0  0  0  0  0  0  0  0  0  0  0  0
   -6.2930   17.9876  -32.0230 H   0  0  0  0  0  0  0  0  0  0  0  0
   -3.1896   21.2260  -32.7512 H   0  0  0  0  0  0  0  0  0  0  0  0
   -3.8207   19.8842  -33.7651 H   0  0  0  0  0  0  0  0  0  0  0  0
   -4.6510   21.4771  -33.7651 H   0  0  0  0  0  0  0  0  0  0  0  0
  1  2  1  0
  2  3  1  0
  3  4  2  0
  3  5  1  0
  5  6  1  0
  6  7  2  0
  7  8  1  0
  8  9  2  0
  9 10  1  0
 10 11  2  0
 11 12  1  0
 12 13  1  0
 11  6  1  0
  1 14  1  0
  1 15  1  0
  1 16  1  0
  2 17  1  0
  5 18  1  0
  7 19  1  0
  8 20  1  0
  9 21  1  0
 10 22  1  0
 13 23  1  0
 13 24  1  0
 13 25  1  0
M  END
>  <UniqueID>  (31) 
29

>  <SMILES>  (31) 
CNC(=S)Nc1ccccc1OC

>  <Energy>  (31) 
24.791132445950907

>  <Genealogy>  (31) 
CNC(=S)Nc1ccccc1OC (3D coordinates assigned)
CNC(=S)Nc1ccccc1OC (optimized conformer: 24.791132445950907 kcal/mol)

>  <smiles>  (31) 
CNC(=S)Nc1ccccc1OC

>  <score_type>  (31) 
oracle

>  <origin>  (31) 
adgpu

>  <m_score__min__energy>  (31) 
-5.3899999999999997

>  <m_primary>  (31) 
energy

$$$$
31:0
     RDKit          3D

 36 38  0  0  0  0  0  0  0  0999 V2000
   -0.2630   18.0780  -34.2650 C   0  0  0  0  0  0  0  0  0  0  0  0
   -1.5010   17.9170  -34.9530 O   0  0  0  0  0  0  0  0  0  0  0  0
   -2.7550   18.2330  -34.4120 C   0  0  0  0  0  0  0  0  0  0  0  0
   -3.7860   17.2980  -34.5360 C   0  0  0  0  0  0  0  0  0  0  0  0
   -5.0580   17.5560  -34.0160 C   0  0  0  0  0  0  0  0  0  0  0  0
   -6.0460   16.5880  -34.1680 O   0  0  0  0  0  0  0  0  0  0  0  0
   -5.3180   18.7780  -33.3510 C   0  0  0  0  0  0  0  0  0  0  0  0
   -6.5730   19.1020  -32.7930 C   0  0  0  0  0  0  0  0  0  0  0  0
   -7.5280   18.2840  -32.8750 O   0  0  0  0  0  0  0  0  0  0  0  0
   -6.7480   20.3440  -32.1380 C   0  0  0  0  0  0  0  0  0  0  0  0
   -7.9470   20.7290  -31.5060 O   0  0  0  0  0  0  0  0  0  0  0  0
   -9.2510   20.7110  -32.0770 C   0  0  0  0  0  0  0  0  0  0  0  0
   -5.6520   21.2320  -32.0920 C   0  0  0  0  0  0  0  0  0  0  0  0
   -5.7490   22.5630  -31.4530 C   0  0  0  0  0  0  0  0  0  0  0  0
   -6.9940   23.1250  -31.1170 C   0  0  0  0  0  0  0  0  0  0  0  0
   -7.0630   24.3940  -30.5360 C   0  0  0  0  0  0  0  0  0  0  0  0
   -5.8960   25.1250  -30.2970 C   0  0  0  0  0  0  0  0  0  0  0  0
   -5.9930   26.3890  -29.7160 O   0  0  0  0  0  0  0  0  0  0  0  0
   -4.6500   24.5810  -30.6500 C   0  0  0  0  0  0  0  0  0  0  0  0
   -3.4790   25.2970  -30.4280 O   0  0  0  0  0  0  0  0  0  0  0  0
   -4.5810   23.3100  -31.2310 C   0  0  0  0  0  0  0  0  0  0  0  0
   -4.4840   20.8810  -32.6180 O   0  0  0  0  0  0  0  0  0  0  0  0
   -4.2750   19.7220  -33.2280 C   0  0  0  0  0  0  0  0  0  0  0  0
   -3.0080   19.4490  -33.7530 C   0  0  0  0  0  0  0  0  0  0  0  0
   -0.4409   18.0549  -33.1797 H   0  0  0  0  0  0  0  0  0  0  0  0
    0.4195   17.2610  -34.5422 H   0  0  0  0  0  0  0  0  0  0  0  0
    0.1878   19.0423  -34.5422 H   0  0  0  0  0  0  0  0  0  0  0  0
   -3.5940   16.3448  -35.0504 H   0  0  0  0  0  0  0  0  0  0  0  0
  -10.0028   20.7006  -31.2740 H   0  0  0  0  0  0  0  0  0  0  0  0
   -9.3913   21.6073  -32.6991 H   0  0  0  0  0  0  0  0  0  0  0  0
   -9.3665   19.8112  -32.6991 H   0  0  0  0  0  0  0  0  0  0  0  0
   -7.9187   22.5622  -31.3128 H   0  0  0  0  0  0  0  0  0  0  0  0
   -8.0405   24.8197  -30.2654 H   0  0  0  0  0  0  0  0  0  0  0  0
   -5.3630   26.6940  -28.9820 H   0  0  0  0  0  0  0  0  0  0  0  0
   -3.6040   22.8927  -31.5161 H   0  0  0  0  0  0  0  0  0  0  0  0
   -2.2029   20.1914  -33.6496 H   0  0  0  0  0  0  0  0  0  0  0  0
  1  2  1  0
  2  3  1  0
  3  4  2  0
  4  5  1  0
  5  6  1  0
  5  7  2  0
  7  8  1  0
  8  9  2  0
  8 10  1  0
 10 11  1  0
 11 12  1  0
 10 13  2  0
 13 14  1  0
 14 15  2  0
 15 16  1  0
 16 17  2  0
 17 18  1  0
 17 19  1  0
 19 20  1  0
 19 21  2  0
 13 22  1  0
 22 23  1  0
 23 24  2  0
 24  3  1  0
 23  7  1  0
 21 14  1  0
  1 25  1  0
  1 26  1  0
  1 27  1  0
  4 28  1  0
 12 29  1  0
 12 30  1  0
 12 31  1  0
 15 32  1  0
 16 33  1  0
 18 34  1  0
 21 35  1  0
 24 36  1  0
M  CHG  2   6  -1  20  -1
M  END
>  <UniqueID>  (32) 
30

>  <SMILES>  (32) 
COc1cc([O-])c2c(=O)c(OC)c(-c3ccc(O)c([O-])c3)oc2c1

>  <Energy>  (32) 
53.05688419768561

>  <Genealogy>  (32) 
COc1cc([O-])c2c(=O)c(OC)c(-c3ccc(O)c([O-])c3)oc2c1 (protonated)
COc1cc([O-])c2c(=O)c(OC)c(-c3ccc(O)c([O-])c3)oc2c1 (3D coordinates assigned)
COc1cc([O-])c2c(=O)c(OC)c(-c3ccc(O)c([O-])c3)oc2c1 (optimized conformer: 53.05688419768561 kcal/mol)

>  <smiles>  (32) 
COc1cc(O)c2c(=O)c(OC)c(-c3ccc(O)c(O)c3)oc2c1

>  <score_type>  (32) 
oracle

>  <origin>  (32) 
adgpu

>  <m_score__min__energy>  (32) 
-10.199999999999999

>  <m_primary>  (32) 
energy

$$$$
32:0
     RDKit          3D

 42 45  0  0  0  0  0  0  0  0999 V2000
   -1.2730   26.0270  -29.1800 O   0  0  0  0  0  0  0  0  0  0  0  0
   -2.0960   24.9340  -28.9160 C   0  0  0  0  0  0  0  0  0  0  0  0
   -2.6330   24.7700  -27.6370 C   0  0  0  0  0  0  0  0  0  0  0  0
   -3.4620   23.6810  -27.3590 C   0  0  0  0  0  0  0  0  0  0  0  0
   -3.7540   22.7470  -28.3570 C   0  0  0  0  0  0  0  0  0  0  0  0
   -3.2100   22.8890  -29.6490 C   0  0  0  0  0  0  0  0  0  0  0  0
   -3.5150   21.9150  -30.7290 C   0  0  0  0  0  0  0  0  0  0  0  0
   -2.5330   21.4870  -31.6370 C   0  0  0  0  0  0  0  0  0  0  0  0
   -2.8630   20.5640  -32.6430 C   0  0  0  0  0  0  0  0  0  0  0  0
   -1.8340   20.0990  -33.6100 C   0  0  0  0  0  0  0  0  0  0  0  0
   -0.9280   21.0110  -34.1810 C   0  0  0  0  0  0  0  0  0  0  0  0
    0.0400   20.5730  -35.0900 C   0  0  0  0  0  0  0  0  0  0  0  0
    0.1150   19.2210  -35.4380 C   0  0  0  0  0  0  0  0  0  0  0  0
    1.3300   18.6730  -36.5780 Cl  0  0  0  0  0  0  0  0  0  0  0  0
   -0.7810   18.3070  -34.8770 C   0  0  0  0  0  0  0  0  0  0  0  0
   -1.7500   18.7410  -33.9670 C   0  0  0  0  0  0  0  0  0  0  0  0
   -4.1820   20.0910  -32.7250 C   0  0  0  0  0  0  0  0  0  0  0  0
   -5.1460   20.5460  -31.8120 C   0  0  0  0  0  0  0  0  0  0  0  0
   -6.5510   20.0800  -31.8910 C   0  0  0  0  0  0  0  0  0  0  0  0
   -6.8230   18.6980  -31.8870 C   0  0  0  0  0  0  0  0  0  0  0  0
   -8.1360   18.2310  -31.9850 C   0  0  0  0  0  0  0  0  0  0  0  0
   -9.1940   19.1340  -32.0870 C   0  0  0  0  0  0  0  0  0  0  0  0
   -8.9420   20.5070  -32.0910 C   0  0  0  0  0  0  0  0  0  0  0  0
   -7.6300   20.9890  -31.9940 C   0  0  0  0  0  0  0  0  0  0  0  0
   -7.3970   22.7340  -31.9420 Cl  0  0  0  0  0  0  0  0  0  0  0  0
   -4.7840   21.4400  -30.8530 N   0  0  0  0  0  0  0  0  0  0  0  0
   -2.3860   23.9990  -29.9190 C   0  0  0  0  0  0  0  0  0  0  0  0
   -1.2290   26.4460  -30.1020 H   0  0  0  0  0  0  0  0  0  0  0  0
   -2.4025   25.5001  -26.8471 H   0  0  0  0  0  0  0  0  0  0  0  0
   -3.8864   23.5580  -26.3517 H   0  0  0  0  0  0  0  0  0  0  0  0
   -4.4129   21.8954  -28.1323 H   0  0  0  0  0  0  0  0  0  0  0  0
   -1.5063   21.8742  -31.5605 H   0  0  0  0  0  0  0  0  0  0  0  0
   -0.9814   22.0759  -33.9106 H   0  0  0  0  0  0  0  0  0  0  0  0
    0.7438   21.2935  -35.5321 H   0  0  0  0  0  0  0  0  0  0  0  0
   -0.7239   17.2434  -35.1520 H   0  0  0  0  0  0  0  0  0  0  0  0
   -2.4509   18.0160  -33.5276 H   0  0  0  0  0  0  0  0  0  0  0  0
   -4.4596   19.3650  -33.5034 H   0  0  0  0  0  0  0  0  0  0  0  0
   -5.9938   17.9797  -31.8060 H   0  0  0  0  0  0  0  0  0  0  0  0
   -8.3357   17.1493  -31.9817 H   0  0  0  0  0  0  0  0  0  0  0  0
  -10.2271   18.7642  -32.1643 H   0  0  0  0  0  0  0  0  0  0  0  0
   -9.7795   21.2156  -32.1709 H   0  0  0  0  0  0  0  0  0  0  0  0
   -1.9661   24.1333  -30.9268 H   0  0  0  0  0  0  0  0  0  0  0  0
  1  2  1  0
  2  3  2  0
  3  4  1  0
  4  5  2  0
  5  6  1  0
  6  7  1  0
  7  8  2  0
  8  9  1  0
  9 10  1  0
 10 11  2  0
 11 12  1  0
 12 13  2  0
 13 14  1  0
 13 15  1  0
 15 16  2  0
  9 17  2  0
 17 18  1  0
 18 19  1  0
 19 20  2  0
 20 21  1  0
 21 22  2  0
 22 23  1  0
 23 24  2  0
 24 25  1  0
 18 26  2  0
  6 27  2  0
 27  2  1  0
 26  7  1  0
 16 10  1  0
 24 19  1  0
  1 28  1  0
  3 29  1  0
  4 30  1  0
  5 31  1  0
  8 32  1  0
 11 33  1  0
 12 34  1  0
 15 35  1  0
 16 36  1  0
 17 37  1  0
 20 38  1  0
 21 39  1  0
 22 40  1  0
 23 41  1  0
 27 42  1  0
M  END
>  <UniqueID>  (33) 
31

>  <SMILES>  (33) 
Oc1cccc(-c2cc(-c3ccc(Cl)cc3)cc(-c3ccccc3Cl)n2)c1

>  <Energy>  (33) 
62.352327310029054

>  <Genealogy>  (33) 
Oc1cccc(-c2cc(-c3ccc(Cl)cc3)cc(-c3ccccc3Cl)n2)c1 (3D coordinates assigned)
Oc1cccc(-c2cc(-c3ccc(Cl)cc3)cc(-c3ccccc3Cl)n2)c1 (optimized conformer: 62.352327310029054 kcal/mol)

>  <smiles>  (33) 
Oc1cccc(-c2cc(-c3ccc(Cl)cc3)cc(-c3ccccc3Cl)n2)c1

>  <score_type>  (33) 
oracle

>  <origin>  (33) 
adgpu

>  <m_score__min__energy>  (33) 
-9.8499999999999996

>  <m_primary>  (33) 
energy

$$$$
33:0
     RDKit          3D

 35 37  0  0  0  0  0  0  0  0999 V2000
   -3.4790   21.5770  -32.7120 C   0  0  0  0  0  0  0  0  0  0  0  0
   -4.9900   21.8720  -32.6830 C   0  0  0  0  0  0  0  0  0  0  0  0
   -5.5070   22.3770  -31.3820 N   0  0  2  0  0  0  0  0  0  0  0  0
   -6.9840   22.2800  -31.2220 C   0  0  0  0  0  0  0  0  0  0  0  0
   -7.5830   20.9470  -31.5970 C   0  0  0  0  0  0  0  0  0  0  0  0
   -8.8720   20.7400  -32.0770 C   0  0  0  0  0  0  0  0  0  0  0  0
   -9.1340   19.4050  -32.4060 C   0  0  0  0  0  0  0  0  0  0  0  0
   -8.0510   18.5590  -32.2080 C   0  0  0  0  0  0  0  0  0  0  0  0
   -6.7670   19.4750  -31.6250 S   0  0  0  0  0  0  0  0  0  0  0  0
   -4.9680   23.6770  -31.0210 C   0  0  0  0  0  0  0  0  0  0  0  0
   -5.3970   24.7260  -31.5720 O   0  0  0  0  0  0  0  0  0  0  0  0
   -3.8580   23.7920  -30.0560 C   0  0  0  0  0  0  0  0  0  0  0  0
   -3.5040   22.7750  -29.2260 N   0  0  0  0  0  0  0  0  0  0  0  0
   -2.4860   23.3060  -28.5340 C   0  0  0  0  0  0  0  0  0  0  0  0
   -1.7300   22.7030  -27.5300 C   0  0  0  0  0  0  0  0  0  0  0  0
   -0.7030   23.4650  -26.9400 C   0  0  0  0  0  0  0  0  0  0  0  0
   -0.4640   24.7920  -27.3640 C   0  0  0  0  0  0  0  0  0  0  0  0
   -1.2490   25.3670  -28.3810 C   0  0  0  0  0  0  0  0  0  0  0  0
   -2.2550   24.5830  -28.9420 C   0  0  0  0  0  0  0  0  0  0  0  0
   -3.1150   24.9220  -29.9110 N   0  0  0  0  0  0  0  0  0  0  0  0
   -3.1000   21.5030  -31.6820 H   0  0  0  0  0  0  0  0  0  0  0  0
   -3.3009   20.6271  -33.2374 H   0  0  0  0  0  0  0  0  0  0  0  0
   -2.9567   22.3901  -33.2374 H   0  0  0  0  0  0  0  0  0  0  0  0
   -5.2049   22.6282  -33.4524 H   0  0  0  0  0  0  0  0  0  0  0  0
   -5.4945   20.9111  -32.8624 H   0  0  0  0  0  0  0  0  0  0  0  0
   -5.1430   21.7100  -30.6620 H   0  0  0  0  0  0  0  0  0  0  0  0
   -7.2261   22.4776  -30.1673 H   0  0  0  0  0  0  0  0  0  0  0  0
   -7.4160   23.0157  -31.9163 H   0  0  0  0  0  0  0  0  0  0  0  0
   -9.6124   21.5460  -32.1872 H   0  0  0  0  0  0  0  0  0  0  0  0
  -10.1065   19.0586  -32.7857 H   0  0  0  0  0  0  0  0  0  0  0  0
   -8.0356   17.4759  -32.3996 H   0  0  0  0  0  0  0  0  0  0  0  0
   -1.9284   21.6694  -27.2101 H   0  0  0  0  0  0  0  0  0  0  0  0
   -0.0834   23.0250  -26.1447 H   0  0  0  0  0  0  0  0  0  0  0  0
    0.3403   25.3789  -26.8964 H   0  0  0  0  0  0  0  0  0  0  0  0
   -1.0745   26.3985  -28.7208 H   0  0  0  0  0  0  0  0  0  0  0  0
  1  2  1  0
  2  3  1  0
  3  4  1  0
  4  5  1  0
  5  6  2  0
  6  7  1  0
  7  8  2  0
  8  9  1  0
  3 10  1  0
 10 11  2  0
 10 12  1  0
 12 13  2  0
 13 14  1  0
 14 15  2  0
 15 16  1  0
 16 17  2  0
 17 18  1  0
 18 19  2  0
 19 20  1  0
  9  5  1  0
 20 12  1  0
 19 14  1  0
  1 21  1  0
  1 22  1  0
  1 23  1  0
  2 24  1  0
  2 25  1  0
  3 26  1  1
  4 27  1  0
  4 28  1  0
  6 29  1  0
  7 30  1  0
  8 31  1  0
 15 32  1  0
 16 33  1  0
 17 34  1  0
 18 35  1  0
M  CHG  2   3   1  20  -1
M  END
>  <UniqueID>  (34) 
32

>  <SMILES>  (34) 
CC[N@H+](Cc1cccs1)C(=O)c1nc2ccccc2[n-]1

>  <Energy>  (34) 
106.54132437838238

>  <Genealogy>  (34) 
CC[NH+](Cc1cccs1)C(=O)c1nc2ccccc2[n-]1 (protonated)
CC[N@H+](Cc1cccs1)C(=O)c1nc2ccccc2[n-]1 (chirality)
CC[N@H+](Cc1cccs1)C(=O)c1nc2ccccc2[n-]1 (3D coordinates assigned)
CC[N@H+](Cc1cccs1)C(=O)c1nc2ccccc2[n-]1 (optimized conformer: 106.54132437838238 kcal/mol)

>  <smiles>  (34) 
CCN(Cc1cccs1)C(=O)c1nc2ccccc2[nH]1

>  <score_type>  (34) 
oracle

>  <origin>  (34) 
adgpu

>  <m_score__min__energy>  (34) 
-7.2300000000000004

>  <m_primary>  (34) 
energy

$$$$
34:0
     RDKit          3D

 42 44  0  0  0  0  0  0  0  0999 V2000
   -6.1700   15.6350  -33.8840 C   0  0  0  0  0  0  0  0  0  0  0  0
   -7.2440   16.5120  -33.5590 O   0  0  0  0  0  0  0  0  0  0  0  0
   -7.0810   17.7920  -33.0090 C   0  0  0  0  0  0  0  0  0  0  0  0
   -8.1720   18.6280  -32.7040 C   0  0  0  0  0  0  0  0  0  0  0  0
   -7.9570   19.8960  -32.1550 C   0  0  0  0  0  0  0  0  0  0  0  0
   -6.6550   20.3420  -31.8870 C   0  0  0  0  0  0  0  0  0  0  0  0
   -6.4470   21.6590  -31.3500 N   0  0  0  0  0  0  0  0  0  0  0  0
   -7.2730   22.2290  -30.4860 N   0  0  0  0  0  0  0  0  0  0  0  0
   -6.8650   23.4530  -30.1890 N   0  0  0  0  0  0  0  0  0  0  0  0
   -5.7340   23.6780  -30.8880 C   0  0  0  0  0  0  0  0  0  0  0  0
   -4.9670   24.9420  -30.8280 C   0  0  0  0  0  0  0  0  0  0  0  0
   -5.5070   26.0230  -31.1760 O   0  0  0  0  0  0  0  0  0  0  0  0
   -3.5850   24.9580  -30.4440 N   0  0  0  0  0  0  0  0  0  0  0  0
   -2.9370   24.0140  -29.5810 C   0  0  0  0  0  0  0  0  0  0  0  0
   -3.1570   24.0930  -28.2020 C   0  0  0  0  0  0  0  0  0  0  0  0
   -2.5610   23.1720  -27.3350 C   0  0  0  0  0  0  0  0  0  0  0  0
   -1.7450   22.1420  -27.8440 C   0  0  0  0  0  0  0  0  0  0  0  0
   -1.1200   21.1910  -27.0210 O   0  0  0  0  0  0  0  0  0  0  0  0
   -1.5780   19.8580  -26.8070 C   0  0  0  0  0  0  0  0  0  0  0  0
   -0.5580   18.9580  -27.0610 F   0  0  0  0  0  0  0  0  0  0  0  0
   -2.6610   19.5880  -27.6250 F   0  0  0  0  0  0  0  0  0  0  0  0
   -1.9710   19.7260  -25.4890 F   0  0  0  0  0  0  0  0  0  0  0  0
   -1.5480   22.0520  -29.2270 C   0  0  0  0  0  0  0  0  0  0  0  0
   -2.1440   22.9720  -30.0930 C   0  0  0  0  0  0  0  0  0  0  0  0
   -5.4490   22.5320  -31.6130 C   0  0  0  0  0  0  0  0  0  0  0  0
   -4.2620   22.2800  -32.4970 C   0  0  0  0  0  0  0  0  0  0  0  0
   -5.5670   19.5160  -32.2120 C   0  0  0  0  0  0  0  0  0  0  0  0
   -5.7820   18.2490  -32.7610 C   0  0  0  0  0  0  0  0  0  0  0  0
   -5.7102   15.2595  -32.9579 H   0  0  0  0  0  0  0  0  0  0  0  0
   -6.5532   14.7884  -34.4725 H   0  0  0  0  0  0  0  0  0  0  0  0
   -5.4171   16.1797  -34.4725 H   0  0  0  0  0  0  0  0  0  0  0  0
   -9.1980   18.2822  -32.8984 H   0  0  0  0  0  0  0  0  0  0  0  0
   -8.8147   20.5476  -31.9320 H   0  0  0  0  0  0  0  0  0  0  0  0
   -3.8035   24.8853  -27.7966 H   0  0  0  0  0  0  0  0  0  0  0  0
   -2.7298   23.2518  -26.2510 H   0  0  0  0  0  0  0  0  0  0  0  0
   -0.9175   21.2487  -29.6360 H   0  0  0  0  0  0  0  0  0  0  0  0
   -1.9924   22.8809  -31.1787 H   0  0  0  0  0  0  0  0  0  0  0  0
   -3.3748   22.0916  -31.8747 H   0  0  0  0  0  0  0  0  0  0  0  0
   -4.4573   21.4033  -33.1320 H   0  0  0  0  0  0  0  0  0  0  0  0
   -4.0843   23.1604  -33.1320 H   0  0  0  0  0  0  0  0  0  0  0  0
   -4.5402   19.8680  -32.0336 H   0  0  0  0  0  0  0  0  0  0  0  0
   -4.9226   17.6054  -33.0002 H   0  0  0  0  0  0  0  0  0  0  0  0
  1  2  1  0
  2  3  1  0
  3  4  2  0
  4  5  1  0
  5  6  2  0
  6  7  1  0
  7  8  1  0
  8  9  2  0
  9 10  1  0
 10 11  1  0
 11 12  2  0
 11 13  1  0
 13 14  1  0
 14 15  2  0
 15 16  1  0
 16 17  2  0
 17 18  1  0
 18 19  1  0
 19 20  1  0
 19 21  1  0
 19 22  1  0
 17 23  1  0
 23 24  2  0
 10 25  2  0
 25 26  1  0
  6 27  1  0
 27 28  2  0
 28  3  1  0
 25  7  1  0
 24 14  1  0
  1 29  1  0
  1 30  1  0
  1 31  1  0
  4 32  1  0
  5 33  1  0
 15 34  1  0
 16 35  1  0
 23 36  1  0
 24 37  1  0
 26 38  1  0
 26 39  1  0
 26 40  1  0
 27 41  1  0
 28 42  1  0
M  CHG  1  13  -1
M  END
>  <UniqueID>  (35) 
33

>  <SMILES>  (35) 
COc1ccc(-n2nnc(C(=O)[N-]c3ccc(OC(F)(F)F)cc3)c2C)cc1

>  <Energy>  (35) 
90.2618351522846

>  <Genealogy>  (35) 
COc1ccc(-n2nnc(C(=O)[N-]c3ccc(OC(F)(F)F)cc3)c2C)cc1 (protonated)
COc1ccc(-n2nnc(C(=O)[N-]c3ccc(OC(F)(F)F)cc3)c2C)cc1 (3D coordinates assigned)
COc1ccc(-n2nnc(C(=O)[N-]c3ccc(OC(F)(F)F)cc3)c2C)cc1 (optimized conformer: 90.2618351522846 kcal/mol)

>  <smiles>  (35) 
COc1ccc(-n2nnc(C(=O)Nc3ccc(OC(F)(F)F)cc3)c2C)cc1

>  <score_type>  (35) 
oracle

>  <origin>  (35) 
adgpu

>  <m_score__min__energy>  (35) 
-9.6199999999999992

>  <m_primary>  (35) 
energy

$$$$
35:0
     RDKit          3D

 44 47  0  0  0  0  0  0  0  0999 V2000
   -5.2680   19.1120  -34.1930 C   0  0  0  0  0  0  0  0  0  0  0  0
   -6.3600   19.3320  -33.1960 C   0  0  0  0  0  0  0  0  0  0  0  0
   -6.9000   18.3090  -32.4210 C   0  0  0  0  0  0  0  0  0  0  0  0
   -8.0560   18.9770  -31.3980 S   0  0  0  0  0  0  0  0  0  0  0  0
   -7.8640   20.5620  -31.9220 C   0  0  0  0  0  0  0  0  0  0  0  0
   -8.8000   21.9350  -31.3490 S   0  0  0  0  0  0  0  0  0  0  0  0
   -9.8370   22.2820  -32.3800 O   0  0  0  0  0  0  0  0  0  0  0  0
   -9.5060   21.5520  -30.0790 O   0  0  0  0  0  0  0  0  0  0  0  0
   -7.7810   23.3280  -31.0650 N   0  0  0  0  0  0  0  0  0  0  0  0
   -7.0940   23.7590  -32.3050 C   0  0  0  0  0  0  0  0  0  0  0  0
   -5.6380   23.2700  -32.3670 C   0  0  0  0  0  0  0  0  0  0  0  0
   -4.8300   23.7550  -31.2160 N   0  0  0  0  0  0  0  0  0  0  0  0
   -3.6960   22.8500  -30.9350 C   0  0  0  0  0  0  0  0  0  0  0  0
   -2.7250   23.4800  -29.9830 C   0  0  0  0  0  0  0  0  0  0  0  0
   -2.7550   24.8030  -29.6750 N   0  0  0  0  0  0  0  0  0  0  0  0
   -1.7050   24.9300  -28.8510 C   0  0  0  0  0  0  0  0  0  0  0  0
   -1.2510   26.0870  -28.2220 C   0  0  0  0  0  0  0  0  0  0  0  0
   -0.1130   25.9780  -27.4000 C   0  0  0  0  0  0  0  0  0  0  0  0
    0.5340   24.7310  -27.2340 C   0  0  0  0  0  0  0  0  0  0  0  0
    0.0450   23.5840  -27.8880 C   0  0  0  0  0  0  0  0  0  0  0  0
   -1.0840   23.7290  -28.6910 C   0  0  0  0  0  0  0  0  0  0  0  0
   -1.7090   22.7840  -29.4060 N   0  0  0  0  0  0  0  0  0  0  0  0
   -5.6400   23.9920  -29.9930 C   0  0  0  0  0  0  0  0  0  0  0  0
   -6.8680   23.0750  -29.9320 C   0  0  0  0  0  0  0  0  0  0  0  0
   -6.8880   20.5980  -32.9070 C   0  0  0  0  0  0  0  0  0  0  0  0
   -4.3221   18.9214  -33.6648 H   0  0  0  0  0  0  0  0  0  0  0  0
   -5.5166   18.2459  -34.8239 H   0  0  0  0  0  0  0  0  0  0  0  0
   -5.1618   20.0068  -34.8239 H   0  0  0  0  0  0  0  0  0  0  0  0
   -6.6189   17.2466  -32.4694 H   0  0  0  0  0  0  0  0  0  0  0  0
   -7.6398   23.3548  -33.1703 H   0  0  0  0  0  0  0  0  0  0  0  0
   -7.0797   24.8589  -32.3162 H   0  0  0  0  0  0  0  0  0  0  0  0
   -5.6338   22.1700  -32.3636 H   0  0  0  0  0  0  0  0  0  0  0  0
   -5.1874   23.6706  -33.2870 H   0  0  0  0  0  0  0  0  0  0  0  0
   -4.0805   21.9193  -30.4923 H   0  0  0  0  0  0  0  0  0  0  0  0
   -3.1731   22.6418  -31.8801 H   0  0  0  0  0  0  0  0  0  0  0  0
   -1.7628   27.0505  -28.3623 H   0  0  0  0  0  0  0  0  0  0  0  0
    0.2754   26.8682  -26.8836 H   0  0  0  0  0  0  0  0  0  0  0  0
    1.4234   24.6571  -26.5909 H   0  0  0  0  0  0  0  0  0  0  0  0
    0.5373   22.6075  -27.7690 H   0  0  0  0  0  0  0  0  0  0  0  0
   -5.0124   23.8047  -29.1093 H   0  0  0  0  0  0  0  0  0  0  0  0
   -5.9937   25.0333  -30.0156 H   0  0  0  0  0  0  0  0  0  0  0  0
   -6.5352   22.0271  -29.9666 H   0  0  0  0  0  0  0  0  0  0  0  0
   -7.4092   23.2797  -28.9965 H   0  0  0  0  0  0  0  0  0  0  0  0
   -6.5629   21.5217  -33.4080 H   0  0  0  0  0  0  0  0  0  0  0  0
  1  2  1  0
  2  3  2  0
  3  4  1  0
  4  5  1  0
  5  6  1  0
  6  7  2  0
  6  8  2  0
  6  9  1  0
  9 10  1  0
 10 11  1  0
 11 12  1  0
 12 13  1  0
 13 14  1  0
 14 15  2  0
 15 16  1  0
 16 17  2  0
 17 18  1  0
 18 19  2  0
 19 20  1  0
 20 21  2  0
 21 22  1  0
 12 23  1  0
 23 24  1  0
  5 25  2  0
 25  2  1  0
 24  9  1  0
 22 14  1  0
 21 16  1  0
  1 26  1  0
  1 27  1  0
  1 28  1  0
  3 29  1  0
 10 30  1  0
 10 31  1  0
 11 32  1  0
 11 33  1  0
 13 34  1  0
 13 35  1  0
 17 36  1  0
 18 37  1  0
 19 38  1  0
 20 39  1  0
 23 40  1  0
 23 41  1  0
 24 42  1  0
 24 43  1  0
 25 44  1  0
M  CHG  1  22  -1
M  END
>  <UniqueID>  (36) 
34

>  <SMILES>  (36) 
Cc1csc(S(=O)(=O)N2CCN(Cc3nc4ccccc4[n-]3)CC2)c1

>  <Energy>  (36) 
115.42073840597617

>  <Genealogy>  (36) 
Cc1csc(S(=O)(=O)N2CCN(Cc3nc4ccccc4[n-]3)CC2)c1 (protonated)
Cc1csc(S(=O)(=O)N2CCN(Cc3nc4ccccc4[n-]3)CC2)c1 (3D coordinates assigned)
Cc1csc(S(=O)(=O)N2CCN(Cc3nc4ccccc4[n-]3)CC2)c1 (nonaromatic ring conformer: 115.42073840597617 kcal/mol)

>  <smiles>  (36) 
Cc1csc(S(=O)(=O)N2CCN(Cc3nc4ccccc4[nH]3)CC2)c1

>  <score_type>  (36) 
oracle

>  <origin>  (36) 
adgpu

>  <m_score__min__energy>  (36) 
-10.289999999999999

>  <m_primary>  (36) 
energy

$$$$
36:0
     RDKit          3D

 41 43  0  0  1  0  0  0  0  0999 V2000
   -9.0860   18.6810  -31.2260 C   0  0  0  0  0  0  0  0  0  0  0  0
   -8.0320   19.5410  -31.5480 O   0  0  0  0  0  0  0  0  0  0  0  0
   -7.0170   19.2310  -32.4360 C   0  0  0  0  0  0  0  0  0  0  0  0
   -7.0670   18.0090  -33.0690 C   0  0  0  0  0  0  0  0  0  0  0  0
   -6.0430   17.7140  -33.9560 C   0  0  0  0  0  0  0  0  0  0  0  0
   -5.0040   18.6020  -34.2060 C   0  0  0  0  0  0  0  0  0  0  0  0
   -4.9600   19.8250  -33.5680 C   0  0  0  0  0  0  0  0  0  0  0  0
   -5.9750   20.1290  -32.6830 C   0  0  0  0  0  0  0  0  0  0  0  0
   -6.0350   21.3590  -31.9670 N   0  0  0  0  0  0  0  0  0  0  0  0
   -4.9900   21.9130  -31.3200 C   0  0  0  0  0  0  0  0  0  0  0  0
   -5.4460   23.0800  -30.7620 C   0  0  0  0  0  0  0  0  0  0  0  0
   -4.6970   24.0850  -29.9350 C   0  0  2  0  0  0  0  0  0  0  0  0
   -4.1090   25.0310  -30.8080 O   0  0  0  0  0  0  0  0  0  0  0  0
   -3.5600   23.3650  -29.3680 N   0  0  0  0  0  0  0  0  0  0  0  0
   -2.5020   23.9690  -28.9510 C   0  0  0  0  0  0  0  0  0  0  0  0
   -1.3480   23.4480  -28.3930 C   0  0  0  0  0  0  0  0  0  0  0  0
   -0.4810   24.4800  -28.0980 C   0  0  0  0  0  0  0  0  0  0  0  0
    0.8760   24.3770  -27.4860 C   0  0  0  0  0  0  0  0  0  0  0  0
   -1.1180   25.6090  -28.4780 N   0  0  0  0  0  0  0  0  0  0  0  0
   -2.3060   25.2990  -28.9790 N   0  0  0  0  0  0  0  0  0  0  0  0
   -6.7810   23.2490  -31.0670 C   0  0  0  0  0  0  0  0  0  0  0  0
   -7.1240   22.1530  -31.8250 C   0  0  0  0  0  0  0  0  0  0  0  0
   -8.3950   21.9310  -32.3440 O   0  0  0  0  0  0  0  0  0  0  0  0
   -9.1774   18.6065  -30.1323 H   0  0  0  0  0  0  0  0  0  0  0  0
  -10.0228   19.0758  -31.6461 H   0  0  0  0  0  0  0  0  0  0  0  0
   -8.8872   17.6840  -31.6461 H   0  0  0  0  0  0  0  0  0  0  0  0
   -7.8842   17.2976  -32.8791 H   0  0  0  0  0  0  0  0  0  0  0  0
   -6.0535   16.7461  -34.4785 H   0  0  0  0  0  0  0  0  0  0  0  0
   -4.2109   18.3283  -34.9174 H   0  0  0  0  0  0  0  0  0  0  0  0
   -4.1419   20.5352  -33.7587 H   0  0  0  0  0  0  0  0  0  0  0  0
   -3.9696   21.5077  -31.2527 H   0  0  0  0  0  0  0  0  0  0  0  0
   -5.3590   24.5552  -29.1929 H   0  0  0  0  0  0  0  0  0  0  0  0
   -3.7010   24.5580  -31.5840 H   0  0  0  0  0  0  0  0  0  0  0  0
   -1.1528   22.3805  -28.2131 H   0  0  0  0  0  0  0  0  0  0  0  0
    0.7853   24.3839  -26.3898 H   0  0  0  0  0  0  0  0  0  0  0  0
    1.3535   23.4400  -27.8085 H   0  0  0  0  0  0  0  0  0  0  0  0
    1.4895   25.2312  -27.8085 H   0  0  0  0  0  0  0  0  0  0  0  0
   -0.6980   26.5560  -28.3740 H   0  0  0  0  0  0  0  0  0  0  0  0
   -2.9560   26.0520  -29.3320 H   0  0  0  0  0  0  0  0  0  0  0  0
   -7.4328   24.0830  -30.7677 H   0  0  0  0  0  0  0  0  0  0  0  0
   -8.7880   21.0090  -32.2000 H   0  0  0  0  0  0  0  0  0  0  0  0
  1  2  1  0
  2  3  1  0
  3  4  2  0
  4  5  1  0
  5  6  2  0
  6  7  1  0
  7  8  2  0
  8  9  1  0
  9 10  1  0
 10 11  2  0
 11 12  1  0
 12 13  1  0
 12 14  1  0
 14 15  2  0
 15 16  1  0
 16 17  2  0
 17 18  1  0
 17 19  1  0
 19 20  1  0
 11 21  1  0
 21 22  2  0
 22 23  1  0
  8  3  1  0
 22  9  1  0
 20 15  1  0
  1 24  1  0
  1 25  1  0
  1 26  1  0
  4 27  1  0
  5 28  1  0
  6 29  1  0
  7 30  1  0
 10 31  1  0
 12 32  1  1
 13 33  1  0
 16 34  1  0
 18 35  1  0
 18 36  1  0
 18 37  1  0
 19 38  1  0
 20 39  1  0
 21 40  1  0
 23 41  1  0
M  END
>  <smiles>  (37) 
COc1ccccc1-n1cc(C(O)N=c2cc(C)[nH][nH]2)cc1O

>  <score_type>  (37) 
oracle

>  <origin>  (37) 
adgpu

>  <m_score__min__energy>  (37) 
-8.6899999999999995

>  <m_primary>  (37) 
energy

$$$$
37:0
     RDKit          3D

 38 40  0  0  0  0  0  0  0  0999 V2000
   -4.9635   26.7289  -30.5230 H   0  0  0  0  0  0  0  0  0  0  0  0
   -5.2440   25.6670  -30.4620 C   0  0  0  0  0  0  0  0  0  0  0  0
   -4.3660   24.7090  -30.8610 N   0  0  0  0  0  0  0  0  0  0  0  0
   -4.6660   23.3810  -30.7940 C   0  0  0  0  0  0  0  0  0  0  0  0
   -3.7040   22.4070  -31.2480 N   0  0  0  0  0  0  0  0  0  0  0  0
   -2.4310   22.4850  -30.7650 C   0  0  0  0  0  0  0  0  0  0  0  0
   -2.1652   23.2706  -30.0423 H   0  0  0  0  0  0  0  0  0  0  0  0
   -1.4690   21.5740  -31.1840 C   0  0  0  0  0  0  0  0  0  0  0  0
   -0.4400   21.6429  -30.8014 H   0  0  0  0  0  0  0  0  0  0  0  0
   -1.8030   20.6000  -32.0660 N   0  0  0  0  0  0  0  0  0  0  0  0
   -1.0610   19.9270  -32.3670 H   0  0  0  0  0  0  0  0  0  0  0  0
   -3.0700   20.4740  -32.5530 C   0  0  0  0  0  0  0  0  0  0  0  0
   -3.3040   19.4950  -33.3920 N   0  0  0  0  0  0  0  0  0  0  0  0
   -4.5470   19.0960  -34.0520 C   0  0  0  0  0  0  0  0  0  0  0  0
   -5.1868   19.9812  -34.1825 H   0  0  0  0  0  0  0  0  0  0  0  0
   -4.3024   18.6544  -35.0293 H   0  0  0  0  0  0  0  0  0  0  0  0
   -5.2950   18.0540  -33.2140 C   0  0  0  0  0  0  0  0  0  0  0  0
   -5.4347   17.1415  -33.8122 H   0  0  0  0  0  0  0  0  0  0  0  0
   -4.7034   17.8317  -32.3137 H   0  0  0  0  0  0  0  0  0  0  0  0
   -6.6400   18.5800  -32.7930 C   0  0  0  0  0  0  0  0  0  0  0  0
   -7.2080   19.6830  -33.4520 C   0  0  0  0  0  0  0  0  0  0  0  0
   -6.6792   20.1486  -34.2967 H   0  0  0  0  0  0  0  0  0  0  0  0
   -8.4430   20.1910  -33.0380 C   0  0  0  0  0  0  0  0  0  0  0  0
   -8.8881   21.0488  -33.5634 H   0  0  0  0  0  0  0  0  0  0  0  0
   -9.1130   19.6100  -31.9570 C   0  0  0  0  0  0  0  0  0  0  0  0
  -10.0852   20.0098  -31.6331 H   0  0  0  0  0  0  0  0  0  0  0  0
   -8.5470   18.5210  -31.2880 C   0  0  0  0  0  0  0  0  0  0  0  0
   -9.0738   18.0655  -30.4366 H   0  0  0  0  0  0  0  0  0  0  0  0
   -7.3130   18.0100  -31.6990 C   0  0  0  0  0  0  0  0  0  0  0  0
   -6.8669   17.1585  -31.1642 H   0  0  0  0  0  0  0  0  0  0  0  0
   -4.0530   21.4090  -32.1250 C   0  0  0  0  0  0  0  0  0  0  0  0
   -5.2450   21.3270  -32.5270 O   0  0  0  0  0  0  0  0  0  0  0  0
   -5.9290   22.9840  -30.3220 C   0  0  0  0  0  0  0  0  0  0  0  0
   -6.1943   21.9174  -30.2784 H   0  0  0  0  0  0  0  0  0  0  0  0
   -6.8440   23.9540  -29.9090 C   0  0  0  0  0  0  0  0  0  0  0  0
   -7.8331   23.6541  -29.5324 H   0  0  0  0  0  0  0  0  0  0  0  0
   -6.5010   25.3050  -29.9750 C   0  0  0  0  0  0  0  0  0  0  0  0
   -7.2134   26.0762  -29.6468 H   0  0  0  0  0  0  0  0  0  0  0  0
  1  2  1  0
  2  3  2  0
  3  4  1  0
  4  5  1  0
  5  6  1  0
  6  7  1  0
  6  8  2  0
  8  9  1  0
  8 10  1  0
 10 11  1  0
 10 12  1  0
 12 13  2  0
 13 14  1  0
 14 15  1  0
 14 16  1  0
 14 17  1  0
 17 18  1  0
 17 19  1  0
 17 20  1  0
 20 21  2  0
 21 22  1  0
 21 23  1  0
 23 24  1  0
 23 25  2  0
 25 26  1  0
 25 27  1  0
 27 28  1  0
 27 29  2  0
 29 30  1  0
 12 31  1  0
 31 32  2  0
  4 33  2  0
 33 34  1  0
 33 35  1  0
 35 36  1  0
 35 37  2  0
 37 38  1  0
 37  2  1  0
 31  5  1  0
 29 20  1  0
M  END
>  <UniqueID>  (38) 
35

>  <SMILES>  (38) 
O=c1/c(=N\CCc2ccccc2)[nH]ccn1-c1ccccn1

>  <Energy>  (38) 
54.212449951048626

>  <Genealogy>  (38) 
O=c1/c(=N\CCc2ccccc2)[nH]ccn1-c1ccccn1 (cis-trans isomerization)
O=c1/c(=N\CCc2ccccc2)[nH]ccn1-c1ccccn1 (3D coordinates assigned)
O=c1/c(=N\CCc2ccccc2)[nH]ccn1-c1ccccn1 (optimized conformer: 54.212449951048626 kcal/mol)

>  <smiles>  (38) 
O=c1c(=NCCc2ccccc2)[nH]ccn1-c1ccccn1

>  <score_type>  (38) 
oracle

>  <origin>  (38) 
adgpu

>  <m_score__min__energy>  (38) 
-8.0600000000000005

>  <m_primary>  (38) 
energy

$$$$
38:0
     RDKit          3D

 20 20  0  0  0  0  0  0  0  0999 V2000
   -7.6430   21.3780  -31.9490 C   0  0  0  0  0  0  0  0  0  0  0  0
   -6.6640   22.3870  -31.4280 C   0  0  0  0  0  0  0  0  0  0  0  0
   -5.2980   22.2470  -31.6980 C   0  0  0  0  0  0  0  0  0  0  0  0
   -4.3890   23.2050  -31.2430 C   0  0  0  0  0  0  0  0  0  0  0  0
   -4.8300   24.3250  -30.5230 C   0  0  0  0  0  0  0  0  0  0  0  0
   -3.8660   25.2870  -30.0740 N   0  0  0  0  0  0  0  0  0  0  0  0
   -6.2120   24.4840  -30.2620 C   0  0  0  0  0  0  0  0  0  0  0  0
   -6.7330   25.6750  -29.5030 C   0  0  0  0  0  0  0  0  0  0  0  0
   -7.1180   23.5120  -30.7250 C   0  0  0  0  0  0  0  0  0  0  0  0
   -8.1334   20.8726  -31.1039 H   0  0  0  0  0  0  0  0  0  0  0  0
   -8.4015   21.8860  -32.5626 H   0  0  0  0  0  0  0  0  0  0  0  0
   -7.1124   20.6351  -32.5626 H   0  0  0  0  0  0  0  0  0  0  0  0
   -4.9388   21.3793  -32.2707 H   0  0  0  0  0  0  0  0  0  0  0  0
   -3.3162   23.0798  -31.4515 H   0  0  0  0  0  0  0  0  0  0  0  0
   -3.8780   25.6260  -29.0860 H   0  0  0  0  0  0  0  0  0  0  0  0
   -3.1310   25.6760  -30.7040 H   0  0  0  0  0  0  0  0  0  0  0  0
   -6.6503   25.4860  -28.4225 H   0  0  0  0  0  0  0  0  0  0  0  0
   -6.1418   26.5646  -29.7659 H   0  0  0  0  0  0  0  0  0  0  0  0
   -7.7875   25.8447  -29.7659 H   0  0  0  0  0  0  0  0  0  0  0  0
   -8.1940   23.6361  -30.5334 H   0  0  0  0  0  0  0  0  0  0  0  0
  1  2  1  0
  2  3  2  0
  3  4  1  0
  4  5  2  0
  5  6  1  0
  5  7  1  0
  7  8  1  0
  7  9  2  0
  9  2  1  0
  1 10  1  0
  1 11  1  0
  1 12  1  0
  3 13  1  0
  4 14  1  0
  6 15  1  0
  6 16  1  0
  8 17  1  0
  8 18  1  0
  8 19  1  0
  9 20  1  0
M  END
>  <UniqueID>  (39) 
36

>  <SMILES>  (39) 
Cc1ccc(N)c(C)c1

>  <Energy>  (39) 
17.45708997285915

>  <Genealogy>  (39) 
Cc1ccc(N)c(C)c1 (3D coordinates assigned)
Cc1ccc(N)c(C)c1 (optimized conformer: 17.45708997285915 kcal/mol)

>  <smiles>  (39) 
Cc1ccc(N)c(C)c1

>  <score_type>  (39) 
oracle

>  <origin>  (39) 
adgpu

>  <m_score__min__energy>  (39) 
-5.3099999999999996

>  <m_primary>  (39) 
energy

$$$$
39:0
     RDKit          3D

 55 58  0  0  1  0  0  0  0  0999 V2000
   -2.8750   20.7610  -32.8020 C   0  0  0  0  0  0  0  0  0  0  0  0
   -3.5820   21.3300  -31.7290 O   0  0  0  0  0  0  0  0  0  0  0  0
   -4.9170   21.6480  -31.7380 C   0  0  0  0  0  0  0  0  0  0  0  0
   -5.9220   20.6980  -32.0150 C   0  0  0  0  0  0  0  0  0  0  0  0
   -7.2190   21.1130  -32.0010 C   0  0  0  0  0  0  0  0  0  0  0  0
   -8.2290   20.2230  -32.2660 C   0  0  0  0  0  0  0  0  0  0  0  0
   -7.9930   19.0430  -32.5240 N   0  0  0  0  0  0  0  0  0  0  0  0
   -6.8720   18.2720  -32.6360 C   0  0  0  0  0  0  0  0  0  0  0  0
   -6.5220   17.4440  -31.5360 C   0  0  0  0  0  0  0  0  0  0  0  0
   -5.4670   16.5650  -31.6290 C   0  0  0  0  0  0  0  0  0  0  0  0
   -4.7190   16.4600  -32.7880 C   0  0  0  0  0  0  0  0  0  0  0  0
   -3.6880   15.6100  -32.8960 F   0  0  0  0  0  0  0  0  0  0  0  0
   -5.0550   17.2630  -33.8610 C   0  0  0  0  0  0  0  0  0  0  0  0
   -4.0940   17.1220  -35.3360 Cl  0  0  0  0  0  0  0  0  0  0  0  0
   -6.1010   18.1610  -33.8250 C   0  0  0  0  0  0  0  0  0  0  0  0
   -9.5060   20.6620  -32.2440 N   0  0  0  0  0  0  0  0  0  0  0  0
   -9.8550   21.9290  -31.9780 C   0  0  0  0  0  0  0  0  0  0  0  0
   -8.8900   22.8170  -31.7180 N   0  0  0  0  0  0  0  0  0  0  0  0
   -7.6150   22.4030  -31.7330 C   0  0  0  0  0  0  0  0  0  0  0  0
   -6.6450   23.3350  -31.4620 C   0  0  0  0  0  0  0  0  0  0  0  0
   -5.3400   22.9000  -31.4800 C   0  0  0  0  0  0  0  0  0  0  0  0
   -4.3670   23.8570  -31.2040 O   0  0  0  0  0  0  0  0  0  0  0  0
   -4.5180   24.8250  -30.2180 C   0  0  0  0  0  0  0  0  0  0  0  0
   -4.4910   24.0660  -28.8900 C   0  0  0  0  0  0  0  0  0  0  0  0
   -3.2150   24.2380  -28.1360 C   0  0  0  0  0  0  0  0  0  0  0  0
   -2.4340   23.0100  -28.2690 N   0  0  0  0  0  0  0  0  0  0  0  0
   -1.9340   22.8570  -29.6230 C   0  0  0  0  0  0  0  0  0  0  0  0
   -0.8630   21.7780  -29.5990 C   0  0  0  0  0  0  0  0  0  0  0  0
   -1.3480   20.7050  -28.8860 O   0  0  0  0  0  0  0  0  0  0  0  0
   -2.7380   20.6720  -28.7850 C   0  0  0  0  0  0  0  0  0  0  0  0
   -3.2830   21.8490  -28.0030 C   0  0  0  0  0  0  0  0  0  0  0  0
   -2.0737   20.1161  -32.4122 H   0  0  0  0  0  0  0  0  0  0  0  0
   -3.5621   20.1611  -33.4168 H   0  0  0  0  0  0  0  0  0  0  0  0
   -2.4359   21.5605  -33.4168 H   0  0  0  0  0  0  0  0  0  0  0  0
   -5.6654   19.6514  -32.2361 H   0  0  0  0  0  0  0  0  0  0  0  0
   -7.0992   17.5059  -30.6017 H   0  0  0  0  0  0  0  0  0  0  0  0
   -5.2136   15.9335  -30.7647 H   0  0  0  0  0  0  0  0  0  0  0  0
   -6.3350   18.7816  -34.7026 H   0  0  0  0  0  0  0  0  0  0  0  0
  -10.2960   20.0010  -32.4430 H   0  0  0  0  0  0  0  0  0  0  0  0
  -10.9126   22.2313  -31.9738 H   0  0  0  0  0  0  0  0  0  0  0  0
   -6.8993   24.3820  -31.2405 H   0  0  0  0  0  0  0  0  0  0  0  0
   -3.6925   25.5507  -30.2625 H   0  0  0  0  0  0  0  0  0  0  0  0
   -5.4518   25.3925  -30.3439 H   0  0  0  0  0  0  0  0  0  0  0  0
   -5.3184   24.4301  -28.2632 H   0  0  0  0  0  0  0  0  0  0  0  0
   -4.5880   22.9958  -29.1252 H   0  0  0  0  0  0  0  0  0  0  0  0
   -2.6493   25.0853  -28.5507 H   0  0  0  0  0  0  0  0  0  0  0  0
   -3.4259   24.4399  -27.0754 H   0  0  0  0  0  0  0  0  0  0  0  0
   -2.7530   22.5576  -30.2936 H   0  0  0  0  0  0  0  0  0  0  0  0
   -1.5173   23.8065  -29.9903 H   0  0  0  0  0  0  0  0  0  0  0  0
   -0.6264   21.4655  -30.6268 H   0  0  0  0  0  0  0  0  0  0  0  0
    0.0535   22.1634  -29.1283 H   0  0  0  0  0  0  0  0  0  0  0  0
   -3.1673   20.6902  -29.7976 H   0  0  0  0  0  0  0  0  0  0  0  0
   -3.0158   19.7526  -28.2488 H   0  0  0  0  0  0  0  0  0  0  0  0
   -4.3142   22.0616  -28.3214 H   0  0  0  0  0  0  0  0  0  0  0  0
   -3.2860   21.6203  -26.9270 H   0  0  0  0  0  0  0  0  0  0  0  0
  1  2  1  0
  2  3  1  0
  3  4  2  0
  4  5  1  0
  5  6  1  0
  6  7  2  0
  7  8  1  0
  8  9  2  0
  9 10  1  0
 10 11  2  0
 11 12  1  0
 11 13  1  0
 13 14  1  0
 13 15  2  0
  6 16  1  0
 16 17  1  0
 17 18  2  0
 18 19  1  0
 19 20  1  0
 20 21  2  0
 21 22  1  0
 22 23  1  0
 23 24  1  0
 24 25  1  0
 25 26  1  0
 26 27  1  0
 27 28  1  0
 28 29  1  0
 29 30  1  0
 30 31  1  0
 21  3  1  0
 31 26  1  0
 19  5  2  0
 15  8  1  0
  1 32  1  0
  1 33  1  0
  1 34  1  0
  4 35  1  0
  9 36  1  0
 10 37  1  0
 15 38  1  0
 16 39  1  0
 17 40  1  0
 20 41  1  0
 23 42  1  0
 23 43  1  0
 24 44  1  0
 24 45  1  0
 25 46  1  0
 25 47  1  0
 27 48  1  0
 27 49  1  0
 28 50  1  0
 28 51  1  0
 30 52  1  0
 30 53  1  0
 31 54  1  0
 31 55  1  0
M  END
>  <smiles>  (40) 
COc1cc2c(=Nc3ccc(F)c(Cl)c3)[nH]cnc2cc1OCCCN1CCOCC1

>  <score_type>  (40) 
oracle

>  <origin>  (40) 
adgpu

>  <m_score__min__energy>  (40) 
-9.1500000000000004

>  <m_primary>  (40) 
energy

$$$$
40:0
     RDKit          3D

 36 37  0  0  0  0  0  0  0  0999 V2000
   -9.4850   23.4240  -32.3320 C   0  0  0  0  0  0  0  0  0  0  0  0
   -8.8900   22.2910  -31.5030 C   0  0  0  0  0  0  0  0  0  0  0  0
   -7.6620   21.7850  -32.1320 N   0  0  0  0  0  0  0  0  0  0  0  0
   -6.5590   22.6980  -32.4530 C   0  0  0  0  0  0  0  0  0  0  0  0
   -6.0310   23.3250  -31.1920 C   0  0  0  0  0  0  0  0  0  0  0  0
   -6.3900   24.6390  -30.8480 C   0  0  0  0  0  0  0  0  0  0  0  0
   -5.8550   25.2380  -29.7030 C   0  0  0  0  0  0  0  0  0  0  0  0
   -4.9520   24.5340  -28.9010 C   0  0  0  0  0  0  0  0  0  0  0  0
   -4.5790   23.2310  -29.2460 C   0  0  0  0  0  0  0  0  0  0  0  0
   -5.1110   22.6290  -30.3910 C   0  0  0  0  0  0  0  0  0  0  0  0
   -7.5060   20.3740  -32.3720 C   0  0  0  0  0  0  0  0  0  0  0  0
   -8.3080   19.4480  -31.6880 C   0  0  0  0  0  0  0  0  0  0  0  0
   -8.1770   18.0810  -31.9400 C   0  0  0  0  0  0  0  0  0  0  0  0
   -7.2430   17.6250  -32.8750 C   0  0  0  0  0  0  0  0  0  0  0  0
   -6.4240   18.5390  -33.5560 C   0  0  0  0  0  0  0  0  0  0  0  0
   -5.4560   18.0550  -34.5950 C   0  0  0  0  0  0  0  0  0  0  0  0
   -6.5710   19.9130  -33.3120 C   0  0  0  0  0  0  0  0  0  0  0  0
   -9.8902   24.1957  -31.6609 H   0  0  0  0  0  0  0  0  0  0  0  0
   -8.7018   23.8644  -32.9666 H   0  0  0  0  0  0  0  0  0  0  0  0
  -10.2922   23.0293  -32.9666 H   0  0  0  0  0  0  0  0  0  0  0  0
   -8.6537   22.6646  -30.4957 H   0  0  0  0  0  0  0  0  0  0  0  0
   -9.6221   21.4723  -31.4409 H   0  0  0  0  0  0  0  0  0  0  0  0
   -5.7523   22.1363  -32.9467 H   0  0  0  0  0  0  0  0  0  0  0  0
   -6.9262   23.4881  -33.1244 H   0  0  0  0  0  0  0  0  0  0  0  0
   -7.0942   25.1985  -31.4813 H   0  0  0  0  0  0  0  0  0  0  0  0
   -6.1451   26.2642  -29.4332 H   0  0  0  0  0  0  0  0  0  0  0  0
   -4.5349   25.0049  -27.9986 H   0  0  0  0  0  0  0  0  0  0  0  0
   -3.8662   22.6788  -28.6160 H   0  0  0  0  0  0  0  0  0  0  0  0
   -4.8080   21.6076  -30.6648 H   0  0  0  0  0  0  0  0  0  0  0  0
   -9.0434   19.8006  -30.9498 H   0  0  0  0  0  0  0  0  0  0  0  0
   -8.8104   17.3608  -31.4014 H   0  0  0  0  0  0  0  0  0  0  0  0
   -7.1498   16.5478  -33.0773 H   0  0  0  0  0  0  0  0  0  0  0  0
   -4.5770   17.6155  -34.1008 H   0  0  0  0  0  0  0  0  0  0  0  0
   -5.9423   17.2940  -35.2230 H   0  0  0  0  0  0  0  0  0  0  0  0
   -5.1390   18.9006  -35.2230 H   0  0  0  0  0  0  0  0  0  0  0  0
   -5.9486   20.6345  -33.8617 H   0  0  0  0  0  0  0  0  0  0  0  0
  1  2  1  0
  2  3  1  0
  3  4  1  0
  4  5  1  0
  5  6  2  0
  6  7  1  0
  7  8  2  0
  8  9  1  0
  9 10  2  0
  3 11  1  0
 11 12  2  0
 12 13  1  0
 13 14  2  0
 14 15  1  0
 15 16  1  0
 15 17  2  0
 10  5  1  0
 17 11  1  0
  1 18  1  0
  1 19  1  0
  1 20  1  0
  2 21  1  0
  2 22  1  0
  4 23  1  0
  4 24  1  0
  6 25  1  0
  7 26  1  0
  8 27  1  0
  9 28  1  0
 10 29  1  0
 12 30  1  0
 13 31  1  0
 14 32  1  0
 16 33  1  0
 16 34  1  0
 16 35  1  0
 17 36  1  0
M  END
>  <UniqueID>  (41) 
37

>  <SMILES>  (41) 
CCN(Cc1ccccc1)c1cccc(C)c1

>  <Energy>  (41) 
33.98113542223861

>  <Genealogy>  (41) 
CCN(Cc1ccccc1)c1cccc(C)c1 (3D coordinates assigned)
CCN(Cc1ccccc1)c1cccc(C)c1 (optimized conformer: 33.98113542223861 kcal/mol)

>  <smiles>  (41) 
CCN(Cc1ccccc1)c1cccc(C)c1

>  <score_type>  (41) 
oracle

>  <origin>  (41) 
adgpu

>  <m_score__min__energy>  (41) 
-6.7800000000000002

>  <m_primary>  (41) 
energy

$$$$
41:0
     RDKit          3D

 28 29  0  0  0  0  0  0  0  0999 V2000
   -4.5840   15.5680  -34.4060 C   0  0  0  0  0  0  0  0  0  0  0  0
   -5.4000   16.7410  -33.9480 C   0  0  0  0  0  0  0  0  0  0  0  0
   -6.1430   16.6650  -32.7620 C   0  0  0  0  0  0  0  0  0  0  0  0
   -6.8730   17.7690  -32.3130 C   0  0  0  0  0  0  0  0  0  0  0  0
   -6.8640   18.9740  -33.0390 C   0  0  0  0  0  0  0  0  0  0  0  0
   -7.6400   20.1470  -32.5630 C   0  0  0  0  0  0  0  0  0  0  0  0
   -9.0360   20.0690  -32.4190 C   0  0  0  0  0  0  0  0  0  0  0  0
   -9.7640   21.1710  -31.9610 C   0  0  0  0  0  0  0  0  0  0  0  0
   -9.1100   22.3630  -31.6480 C   0  0  0  0  0  0  0  0  0  0  0  0
   -7.7210   22.4680  -31.8030 C   0  0  0  0  0  0  0  0  0  0  0  0
   -7.0130   23.7380  -31.4340 C   0  0  0  0  0  0  0  0  0  0  0  0
   -6.9880   21.3540  -32.2450 C   0  0  0  0  0  0  0  0  0  0  0  0
   -6.1010   19.0500  -34.2190 C   0  0  0  0  0  0  0  0  0  0  0  0
   -5.3710   17.9460  -34.6650 C   0  0  0  0  0  0  0  0  0  0  0  0
   -4.2038   15.0215  -33.5303 H   0  0  0  0  0  0  0  0  0  0  0  0
   -5.2123   14.8984  -35.0117 H   0  0  0  0  0  0  0  0  0  0  0  0
   -3.7377   15.9242  -35.0117 H   0  0  0  0  0  0  0  0  0  0  0  0
   -6.1516   15.7309  -32.1811 H   0  0  0  0  0  0  0  0  0  0  0  0
   -7.4590   17.6952  -31.3850 H   0  0  0  0  0  0  0  0  0  0  0  0
   -9.5594   19.1342  -32.6685 H   0  0  0  0  0  0  0  0  0  0  0  0
  -10.8557   21.0981  -31.8471 H   0  0  0  0  0  0  0  0  0  0  0  0
   -9.6867   23.2236  -31.2782 H   0  0  0  0  0  0  0  0  0  0  0  0
   -6.9642   23.8256  -30.3386 H   0  0  0  0  0  0  0  0  0  0  0  0
   -5.9934   23.7225  -31.8464 H   0  0  0  0  0  0  0  0  0  0  0  0
   -7.5623   24.5972  -31.8464 H   0  0  0  0  0  0  0  0  0  0  0  0
   -5.8947   21.4252  -32.3436 H   0  0  0  0  0  0  0  0  0  0  0  0
   -6.0794   19.9869  -34.7950 H   0  0  0  0  0  0  0  0  0  0  0  0
   -4.7702   18.0220  -35.5833 H   0  0  0  0  0  0  0  0  0  0  0  0
  1  2  1  0
  2  3  2  0
  3  4  1  0
  4  5  2  0
  5  6  1  0
  6  7  2  0
  7  8  1  0
  8  9  2  0
  9 10  1  0
 10 11  1  0
 10 12  2  0
  5 13  1  0
 13 14  2  0
 14  2  1  0
 12  6  1  0
  1 15  1  0
  1 16  1  0
  1 17  1  0
  3 18  1  0
  4 19  1  0
  7 20  1  0
  8 21  1  0
  9 22  1  0
 11 23  1  0
 11 24  1  0
 11 25  1  0
 12 26  1  0
 13 27  1  0
 14 28  1  0
M  END
>  <UniqueID>  (42) 
38

>  <SMILES>  (42) 
Cc1ccc(-c2cccc(C)c2)cc1

>  <Energy>  (42) 
32.08628090763119

>  <Genealogy>  (42) 
Cc1ccc(-c2cccc(C)c2)cc1 (3D coordinates assigned)
Cc1ccc(-c2cccc(C)c2)cc1 (optimized conformer: 32.08628090763119 kcal/mol)

>  <smiles>  (42) 
Cc1ccc(-c2cccc(C)c2)cc1

>  <score_type>  (42) 
oracle

>  <origin>  (42) 
adgpu

>  <m_score__min__energy>  (42) 
-6.6799999999999997

>  <m_primary>  (42) 
energy

$$$$
42:0
     RDKit          3D

 31 33  0  0  0  0  0  0  0  0999 V2000
   -6.2940   16.7640  -30.9670 H   0  0  0  0  0  0  0  0  0  0  0  0
   -6.4850   17.6880  -31.4090 N   0  0  0  0  0  0  0  0  0  0  0  0
   -6.2980   17.9190  -32.6720 C   0  0  0  0  0  0  0  0  0  0  0  0
   -6.4620   19.1460  -33.2870 C   0  0  0  0  0  0  0  0  0  0  0  0
   -6.9390   20.4110  -32.6890 C   0  0  0  0  0  0  0  0  0  0  0  0
   -6.0400   21.4760  -32.4570 C   0  0  0  0  0  0  0  0  0  0  0  0
   -4.3190   21.3320  -32.8060 Cl  0  0  0  0  0  0  0  0  0  0  0  0
   -6.5010   22.6700  -31.8920 C   0  0  0  0  0  0  0  0  0  0  0  0
   -5.7990   23.4980  -31.7142 H   0  0  0  0  0  0  0  0  0  0  0  0
   -7.8460   22.8160  -31.5530 C   0  0  0  0  0  0  0  0  0  0  0  0
   -8.2014   23.7579  -31.1097 H   0  0  0  0  0  0  0  0  0  0  0  0
   -8.7410   21.7700  -31.7750 C   0  0  0  0  0  0  0  0  0  0  0  0
   -9.8009   21.8901  -31.5064 H   0  0  0  0  0  0  0  0  0  0  0  0
   -8.2970   20.5680  -32.3380 C   0  0  0  0  0  0  0  0  0  0  0  0
   -9.4860   19.3010  -32.6350 Cl  0  0  0  0  0  0  0  0  0  0  0  0
   -6.0320   18.9440  -34.5870 C   0  0  0  0  0  0  0  0  0  0  0  0
   -6.0090   19.7060  -35.3800 H   0  0  0  0  0  0  0  0  0  0  0  0
   -5.6460   17.6590  -34.7210 N   0  0  0  0  0  0  0  0  0  0  0  0
   -5.2880   17.2180  -35.5990 H   0  0  0  0  0  0  0  0  0  0  0  0
   -5.8130   17.0290  -33.5670 N   0  0  0  0  0  0  0  0  0  0  0  0
   -5.5210   15.6350  -33.3700 C   0  0  0  0  0  0  0  0  0  0  0  0
   -6.1540   14.6670  -34.1660 C   0  0  0  0  0  0  0  0  0  0  0  0
   -6.8567   14.9791  -34.9527 H   0  0  0  0  0  0  0  0  0  0  0  0
   -5.8950   13.3080  -33.9630 C   0  0  0  0  0  0  0  0  0  0  0  0
   -6.3859   12.5545  -34.5965 H   0  0  0  0  0  0  0  0  0  0  0  0
   -5.0130   12.9060  -32.9560 C   0  0  0  0  0  0  0  0  0  0  0  0
   -4.8068   11.8368  -32.8003 H   0  0  0  0  0  0  0  0  0  0  0  0
   -4.3930   13.8620  -32.1470 C   0  0  0  0  0  0  0  0  0  0  0  0
   -3.7025   13.5446  -31.3517 H   0  0  0  0  0  0  0  0  0  0  0  0
   -4.6500   15.2230  -32.3480 C   0  0  0  0  0  0  0  0  0  0  0  0
   -4.1681   15.9727  -31.7033 H   0  0  0  0  0  0  0  0  0  0  0  0
  1  2  1  0
  2  3  2  0
  3  4  1  0
  4  5  1  0
  5  6  2  0
  6  7  1  0
  6  8  1  0
  8  9  1  0
  8 10  2  0
 10 11  1  0
 10 12  1  0
 12 13  1  0
 12 14  2  0
 14 15  1  0
  4 16  2  0
 16 17  1  0
 16 18  1  0
 18 19  1  0
 18 20  1  0
 20 21  1  0
 21 22  2  0
 22 23  1  0
 22 24  1  0
 24 25  1  0
 24 26  2  0
 26 27  1  0
 26 28  1  0
 28 29  1  0
 28 30  2  0
 30 31  1  0
 20  3  1  0
 30 21  1  0
 14  5  1  0
M  END
>  <UniqueID>  (43) 
39

>  <SMILES>  (43) 
[H]/N=c1/c(-c2c(Cl)cccc2Cl)c[nH]n1-c1ccccc1

>  <Energy>  (43) 
81.4690771459216

>  <Genealogy>  (43) 
[H]/N=c1/c(-c2c(Cl)cccc2Cl)c[nH]n1-c1ccccc1 (cis-trans isomerization)
[H]/N=c1/c(-c2c(Cl)cccc2Cl)c[nH]n1-c1ccccc1 (3D coordinates assigned)
[H]/N=c1/c(-c2c(Cl)cccc2Cl)c[nH]n1-c1ccccc1 (optimized conformer: 81.4690771459216 kcal/mol)

>  <smiles>  (43) 
N=c1c(-c2c(Cl)cccc2Cl)c[nH]n1-c1ccccc1

>  <score_type>  (43) 
oracle

>  <origin>  (43) 
adgpu

>  <m_score__min__energy>  (43) 
-7.3799999999999999

>  <m_primary>  (43) 
energy

$$$$
43:0
     RDKit          3D

 40 41  0  0  0  0  0  0  0  0999 V2000
   -3.3880   23.0660  -30.0990 O   0  0  0  0  0  0  0  0  0  0  0  0
   -3.3080   24.2870  -29.7920 C   0  0  0  0  0  0  0  0  0  0  0  0
   -3.8680   25.2760  -30.6650 N   0  0  0  0  0  0  0  0  0  0  0  0
   -5.2030   25.8440  -30.4950 C   0  0  0  0  0  0  0  0  0  0  0  0
   -6.0070   25.0590  -29.4470 C   0  0  0  0  0  0  0  0  0  0  0  0
   -6.6460   23.7880  -30.0350 C   0  0  0  0  0  0  0  0  0  0  0  0
   -5.7860   23.1990  -31.0760 N   0  0  0  0  0  0  0  0  0  0  0  0
   -6.5290   22.9480  -32.3240 C   0  0  0  0  0  0  0  0  0  0  0  0
   -7.1740   21.5800  -32.3310 C   0  0  0  0  0  0  0  0  0  0  0  0
   -6.4340   20.4500  -32.7230 C   0  0  0  0  0  0  0  0  0  0  0  0
   -7.0110   19.1770  -32.6680 C   0  0  0  0  0  0  0  0  0  0  0  0
   -8.3270   19.0220  -32.2270 C   0  0  0  0  0  0  0  0  0  0  0  0
   -9.0710   20.1390  -31.8410 C   0  0  0  0  0  0  0  0  0  0  0  0
   -8.4980   21.4140  -31.8900 C   0  0  0  0  0  0  0  0  0  0  0  0
   -2.6820   24.6950  -28.5140 C   0  0  0  0  0  0  0  0  0  0  0  0
   -3.3730   24.5430  -27.2980 C   0  0  0  0  0  0  0  0  0  0  0  0
   -2.7990   24.9760  -26.0980 C   0  0  0  0  0  0  0  0  0  0  0  0
   -1.5310   25.5620  -26.0980 C   0  0  0  0  0  0  0  0  0  0  0  0
   -0.7580   26.1700  -24.4610 Br  0  0  0  0  0  0  0  0  0  0  0  0
   -0.8330   25.7130  -27.2990 C   0  0  0  0  0  0  0  0  0  0  0  0
   -1.4040   25.2860  -28.5010 C   0  0  0  0  0  0  0  0  0  0  0  0
   -5.1097   26.8899  -30.1672 H   0  0  0  0  0  0  0  0  0  0  0  0
   -5.7328   25.7871  -31.4573 H   0  0  0  0  0  0  0  0  0  0  0  0
   -5.3328   24.7696  -28.6274 H   0  0  0  0  0  0  0  0  0  0  0  0
   -6.8184   25.7092  -29.0881 H   0  0  0  0  0  0  0  0  0  0  0  0
   -6.7914   23.0528  -29.2298 H   0  0  0  0  0  0  0  0  0  0  0  0
   -7.6111   24.0581  -30.4885 H   0  0  0  0  0  0  0  0  0  0  0  0
   -5.0070   23.8670  -31.2830 H   0  0  0  0  0  0  0  0  0  0  0  0
   -5.3660   22.3030  -30.7350 H   0  0  0  0  0  0  0  0  0  0  0  0
   -7.3136   23.7116  -32.4305 H   0  0  0  0  0  0  0  0  0  0  0  0
   -5.8158   22.9929  -33.1602 H   0  0  0  0  0  0  0  0  0  0  0  0
   -5.3982   20.5677  -33.0740 H   0  0  0  0  0  0  0  0  0  0  0  0
   -6.4270   18.2961  -32.9728 H   0  0  0  0  0  0  0  0  0  0  0  0
   -8.7778   18.0195  -32.1837 H   0  0  0  0  0  0  0  0  0  0  0  0
  -10.1089   20.0160  -31.4980 H   0  0  0  0  0  0  0  0  0  0  0  0
   -9.0864   22.2908  -31.5819 H   0  0  0  0  0  0  0  0  0  0  0  0
   -4.3711   24.0807  -27.2908 H   0  0  0  0  0  0  0  0  0  0  0  0
   -3.3474   24.8547  -25.1522 H   0  0  0  0  0  0  0  0  0  0  0  0
    0.1681   26.1689  -27.2984 H   0  0  0  0  0  0  0  0  0  0  0  0
   -0.8512   25.4125  -29.4435 H   0  0  0  0  0  0  0  0  0  0  0  0
  1  2  2  0
  2  3  1  0
  3  4  1  0
  4  5  1  0
  5  6  1  0
  6  7  1  0
  7  8  1  0
  8  9  1  0
  9 10  2  0
 10 11  1  0
 11 12  2  0
 12 13  1  0
 13 14  2  0
  2 15  1  0
 15 16  2  0
 16 17  1  0
 17 18  2  0
 18 19  1  0
 18 20  1  0
 20 21  2  0
 14  9  1  0
 21 15  1  0
  4 22  1  0
  4 23  1  0
  5 24  1  0
  5 25  1  0
  6 26  1  0
  6 27  1  0
  7 28  1  0
  7 29  1  0
  8 30  1  0
  8 31  1  0
 10 32  1  0
 11 33  1  0
 12 34  1  0
 13 35  1  0
 14 36  1  0
 16 37  1  0
 17 38  1  0
 20 39  1  0
 21 40  1  0
M  CHG  2   3  -1   7   1
M  END
>  <UniqueID>  (44) 
40

>  <SMILES>  (44) 
O=C([N-]CCC[NH2+]Cc1ccccc1)c1ccc(Br)cc1

>  <Energy>  (44) 
32.84827926653767

>  <Genealogy>  (44) 
O=C([N-]CCC[NH2+]Cc1ccccc1)c1ccc(Br)cc1 (protonated)
O=C([N-]CCC[NH2+]Cc1ccccc1)c1ccc(Br)cc1 (3D coordinates assigned)
O=C([N-]CCC[NH2+]Cc1ccccc1)c1ccc(Br)cc1 (optimized conformer: 32.84827926653767 kcal/mol)

>  <smiles>  (44) 
O=C(NCCCNCc1ccccc1)c1ccc(Br)cc1

>  <score_type>  (44) 
oracle

>  <origin>  (44) 
adgpu

>  <m_score__min__energy>  (44) 
-8.6400000000000006

>  <m_primary>  (44) 
energy

$$$$
44:0
     RDKit          3D

 23 24  0  0  0  0  0  0  0  0999 V2000
   -5.7400   16.3790  -30.9450 N   0  0  0  0  0  0  0  0  0  0  0  0
   -5.8290   17.4710  -31.8670 C   0  0  0  0  0  0  0  0  0  0  0  0
   -5.8040   18.7840  -31.3850 C   0  0  0  0  0  0  0  0  0  0  0  0
   -5.8890   19.8550  -32.2910 C   0  0  0  0  0  0  0  0  0  0  0  0
   -5.8680   21.2690  -31.8380 C   0  0  0  0  0  0  0  0  0  0  0  0
   -4.6610   21.8330  -31.3860 C   0  0  0  0  0  0  0  0  0  0  0  0
   -4.6150   23.1640  -30.9610 C   0  0  0  0  0  0  0  0  0  0  0  0
   -5.7680   23.9520  -30.9920 C   0  0  0  0  0  0  0  0  0  0  0  0
   -5.7070   25.6230  -30.4610 Cl  0  0  0  0  0  0  0  0  0  0  0  0
   -6.9710   23.4080  -31.4520 C   0  0  0  0  0  0  0  0  0  0  0  0
   -7.0230   22.0760  -31.8770 C   0  0  0  0  0  0  0  0  0  0  0  0
   -5.9780   19.6010  -33.5960 O   0  0  0  0  0  0  0  0  0  0  0  0
   -6.0020   18.3710  -34.0990 C   0  0  0  0  0  0  0  0  0  0  0  0
   -6.0900   18.2180  -35.3450 O   0  0  0  0  0  0  0  0  0  0  0  0
   -5.9330   17.2560  -33.2520 C   0  0  0  0  0  0  0  0  0  0  0  0
   -5.9700   15.6320  -33.9370 Cl  0  0  0  0  0  0  0  0  0  0  0  0
   -5.3450   15.4600  -31.2460 H   0  0  0  0  0  0  0  0  0  0  0  0
   -6.0600   16.4640  -29.9560 H   0  0  0  0  0  0  0  0  0  0  0  0
   -5.7185   18.9767  -30.3054 H   0  0  0  0  0  0  0  0  0  0  0  0
   -3.7465   21.2220  -31.3669 H   0  0  0  0  0  0  0  0  0  0  0  0
   -3.6678   23.5922  -30.6010 H   0  0  0  0  0  0  0  0  0  0  0  0
   -7.8787   24.0287  -31.4798 H   0  0  0  0  0  0  0  0  0  0  0  0
   -7.9711   21.6559  -32.2439 H   0  0  0  0  0  0  0  0  0  0  0  0
  1  2  1  0
  2  3  1  0
  3  4  2  0
  4  5  1  0
  5  6  2  0
  6  7  1  0
  7  8  2  0
  8  9  1  0
  8 10  1  0
 10 11  2  0
  4 12  1  0
 12 13  1  0
 13 14  2  0
 13 15  1  0
 15 16  1  0
 15  2  2  0
 11  5  1  0
  1 17  1  0
  1 18  1  0
  3 19  1  0
  6 20  1  0
  7 21  1  0
 10 22  1  0
 11 23  1  0
M  END
>  <UniqueID>  (45) 
41

>  <SMILES>  (45) 
Nc1cc(-c2ccc(Cl)cc2)oc(=O)c1Cl

>  <Energy>  (45) 
29.876330526952092

>  <Genealogy>  (45) 
Nc1cc(-c2ccc(Cl)cc2)oc(=O)c1Cl (3D coordinates assigned)
Nc1cc(-c2ccc(Cl)cc2)oc(=O)c1Cl (optimized conformer: 29.876330526952092 kcal/mol)

>  <smiles>  (45) 
Nc1cc(-c2ccc(Cl)cc2)oc(=O)c1Cl

>  <score_type>  (45) 
oracle

>  <origin>  (45) 
adgpu

>  <m_score__min__energy>  (45) 
-6.1500000000000004

>  <m_primary>  (45) 
energy

$$$$
45:0
     RDKit          3D

 46 49  0  0  0  0  0  0  0  0999 V2000
   -9.6781   23.3155  -31.9352 H   0  0  0  0  0  0  0  0  0  0  0  0
   -8.6950   22.8230  -31.9050 C   0  0  0  0  0  0  0  0  0  0  0  0
   -8.5670   21.5390  -32.3310 N   0  0  0  0  0  0  0  0  0  0  0  0
   -7.3690   20.8940  -32.3090 C   0  0  0  0  0  0  0  0  0  0  0  0
   -7.2850   19.4680  -32.7530 C   0  0  0  0  0  0  0  0  0  0  0  0
   -7.2463   18.8112  -31.8715 H   0  0  0  0  0  0  0  0  0  0  0  0
   -8.1701   19.2193  -33.3570 H   0  0  0  0  0  0  0  0  0  0  0  0
   -6.3769   19.3249  -33.3570 H   0  0  0  0  0  0  0  0  0  0  0  0
   -6.2300   21.5560  -31.8310 C   0  0  0  0  0  0  0  0  0  0  0  0
   -5.2630   21.0332  -31.7910 H   0  0  0  0  0  0  0  0  0  0  0  0
   -6.3290   22.8880  -31.4040 C   0  0  0  0  0  0  0  0  0  0  0  0
   -5.1530   23.6170  -30.8850 C   0  0  0  0  0  0  0  0  0  0  0  0
   -4.9430   24.9410  -31.0820 N   0  0  0  0  0  0  0  0  0  0  0  0
   -3.7990   25.2950  -30.5010 N   0  0  0  0  0  0  0  0  0  0  0  0
   -3.2810   24.1910  -29.9360 C   0  0  0  0  0  0  0  0  0  0  0  0
   -2.0740   24.0750  -29.2560 C   0  0  0  0  0  0  0  0  0  0  0  0
   -1.4318   24.9497  -29.0760 H   0  0  0  0  0  0  0  0  0  0  0  0
   -1.7040   22.7800  -28.8030 C   0  0  0  0  0  0  0  0  0  0  0  0
   -0.5820   22.5460  -28.1810 N   0  0  0  0  0  0  0  0  0  0  0  0
    0.3940   23.4980  -27.7330 C   0  0  0  0  0  0  0  0  0  0  0  0
    1.0010   24.2320  -28.5590 O   0  0  0  0  0  0  0  0  0  0  0  0
    0.6350   23.6440  -26.3290 N   0  0  0  0  0  0  0  0  0  0  0  0
    0.0470   23.0900  -25.6670 H   0  0  0  0  0  0  0  0  0  0  0  0
    1.8420   24.2830  -25.8050 C   0  0  0  0  0  0  0  0  0  0  0  0
    2.5268   23.5080  -25.4304 H   0  0  0  0  0  0  0  0  0  0  0  0
    2.3181   24.8554  -26.6148 H   0  0  0  0  0  0  0  0  0  0  0  0
    1.4960   25.2440  -24.6610 C   0  0  0  0  0  0  0  0  0  0  0  0
    0.9202   24.6980  -23.8992 H   0  0  0  0  0  0  0  0  0  0  0  0
    2.4371   25.6311  -24.2432 H   0  0  0  0  0  0  0  0  0  0  0  0
    0.6800   26.4160  -25.1420 C   0  0  0  0  0  0  0  0  0  0  0  0
   -0.4370   26.8540  -24.4090 C   0  0  0  0  0  0  0  0  0  0  0  0
   -0.7395   26.3165  -23.4982 H   0  0  0  0  0  0  0  0  0  0  0  0
   -1.1650   27.9700  -24.8330 C   0  0  0  0  0  0  0  0  0  0  0  0
   -2.0412   28.3049  -24.2585 H   0  0  0  0  0  0  0  0  0  0  0  0
   -0.7810   28.6600  -25.9850 C   0  0  0  0  0  0  0  0  0  0  0  0
   -1.3555   29.5371  -26.3176 H   0  0  0  0  0  0  0  0  0  0  0  0
    0.3320   28.2370  -26.7150 C   0  0  0  0  0  0  0  0  0  0  0  0
    0.6344   28.7829  -27.6208 H   0  0  0  0  0  0  0  0  0  0  0  0
    1.0630   27.1200  -26.2960 C   0  0  0  0  0  0  0  0  0  0  0  0
    1.9407   26.7918  -26.8721 H   0  0  0  0  0  0  0  0  0  0  0  0
   -2.5250   21.7150  -29.0760 N   0  0  0  0  0  0  0  0  0  0  0  0
   -3.7090   21.8460  -29.7440 C   0  0  0  0  0  0  0  0  0  0  0  0
   -4.3434   20.9710  -29.9485 H   0  0  0  0  0  0  0  0  0  0  0  0
   -4.0890   23.1180  -30.1580 C   0  0  0  0  0  0  0  0  0  0  0  0
   -7.5820   23.5190  -31.4290 C   0  0  0  0  0  0  0  0  0  0  0  0
   -7.6868   24.5555  -31.0758 H   0  0  0  0  0  0  0  0  0  0  0  0
  1  2  1  0
  2  3  2  0
  3  4  1  0
  4  5  1  0
  5  6  1  0
  5  7  1  0
  5  8  1  0
  4  9  2  0
  9 10  1  0
  9 11  1  0
 11 12  1  0
 12 13  2  0
 13 14  1  0
 14 15  1  0
 15 16  2  0
 16 17  1  0
 16 18  1  0
 18 19  2  0
 19 20  1  0
 20 21  2  0
 20 22  1  0
 22 23  1  0
 22 24  1  0
 24 25  1  0
 24 26  1  0
 24 27  1  0
 27 28  1  0
 27 29  1  0
 27 30  1  0
 30 31  2  0
 31 32  1  0
 31 33  1  0
 33 34  1  0
 33 35  2  0
 35 36  1  0
 35 37  1  0
 37 38  1  0
 37 39  2  0
 39 40  1  0
 18 41  1  0
 41 42  1  0
 42 43  1  0
 42 44  2  0
 11 45  2  0
 45 46  1  0
 45  2  1  0
 44 12  1  0
 44 15  1  0
 39 30  1  0
M  CHG  2  14  -1  41  -1
M  END
>  <UniqueID>  (46) 
42

>  <SMILES>  (46) 
Cc1cc(-c2n[n-]c3c/c(=N\C(=O)NCCc4ccccc4)[n-]cc23)ccn1

>  <Energy>  (46) 
94.32456797240933

>  <Genealogy>  (46) 
Cc1cc(-c2n[n-]c3cc(=NC(=O)NCCc4ccccc4)[n-]cc23)ccn1 (protonated)
Cc1cc(-c2n[n-]c3c/c(=N\C(=O)NCCc4ccccc4)[n-]cc23)ccn1 (cis-trans isomerization)
Cc1cc(-c2n[n-]c3c/c(=N\C(=O)NCCc4ccccc4)[n-]cc23)ccn1 (3D coordinates assigned)
Cc1cc(-c2n[n-]c3c/c(=N\C(=O)NCCc4ccccc4)[n-]cc23)ccn1 (optimized conformer: 94.32456797240933 kcal/mol)

>  <smiles>  (46) 
Cc1cc(-c2n[nH]c3cc(=NC(=O)NCCc4ccccc4)[nH]cc23)ccn1

>  <score_type>  (46) 
oracle

>  <origin>  (46) 
adgpu

>  <m_score__min__energy>  (46) 
-10.880000000000001

>  <m_primary>  (46) 
energy

$$$$
46:0
     RDKit          3D

 38 40  0  0  0  0  0  0  0  0999 V2000
   -4.2480   25.2590  -30.8810 O   0  0  0  0  0  0  0  0  0  0  0  0
   -3.6580   24.6220  -29.9670 C   0  0  0  0  0  0  0  0  0  0  0  0
   -2.3670   24.9170  -29.6910 N   0  0  0  0  0  0  0  0  0  0  0  0
   -1.6770   24.2650  -28.7270 C   0  0  0  0  0  0  0  0  0  0  0  0
   -0.4760   24.5900  -28.5180 O   0  0  0  0  0  0  0  0  0  0  0  0
   -2.2760   23.2700  -27.9980 N   0  0  0  0  0  0  0  0  0  0  0  0
   -1.5310   22.5740  -26.9280 C   0  0  0  0  0  0  0  0  0  0  0  0
   -1.1770   21.1730  -27.3560 C   0  0  0  0  0  0  0  0  0  0  0  0
   -1.7270   20.0630  -26.6910 C   0  0  0  0  0  0  0  0  0  0  0  0
   -1.3760   18.7650  -27.0770 C   0  0  0  0  0  0  0  0  0  0  0  0
   -0.4750   18.5650  -28.1260 C   0  0  0  0  0  0  0  0  0  0  0  0
    0.0760   19.6630  -28.7920 C   0  0  0  0  0  0  0  0  0  0  0  0
   -0.2710   20.9630  -28.4090 C   0  0  0  0  0  0  0  0  0  0  0  0
   -3.5870   22.9380  -28.2390 C   0  0  0  0  0  0  0  0  0  0  0  0
   -4.1780   21.9220  -27.4800 O   0  0  0  0  0  0  0  0  0  0  0  0
   -4.3200   23.6180  -29.2420 C   0  0  0  0  0  0  0  0  0  0  0  0
   -5.7620   23.2660  -29.5610 C   0  0  0  0  0  0  0  0  0  0  0  0
   -5.8570   22.3700  -30.7730 C   0  0  0  0  0  0  0  0  0  0  0  0
   -4.6940   21.9260  -31.4240 C   0  0  0  0  0  0  0  0  0  0  0  0
   -4.7840   21.0830  -32.5360 C   0  0  0  0  0  0  0  0  0  0  0  0
   -6.0350   20.6670  -33.0010 C   0  0  0  0  0  0  0  0  0  0  0  0
   -6.1200   19.8500  -34.0790 F   0  0  0  0  0  0  0  0  0  0  0  0
   -7.1970   21.0900  -32.3490 C   0  0  0  0  0  0  0  0  0  0  0  0
   -7.1110   21.9320  -31.2360 C   0  0  0  0  0  0  0  0  0  0  0  0
   -0.6073   23.1300  -26.7096 H   0  0  0  0  0  0  0  0  0  0  0  0
   -2.1640   22.5221  -26.0299 H   0  0  0  0  0  0  0  0  0  0  0  0
   -2.4360   20.2158  -25.8640 H   0  0  0  0  0  0  0  0  0  0  0  0
   -1.8101   17.9003  -26.5537 H   0  0  0  0  0  0  0  0  0  0  0  0
   -0.1995   17.5436  -28.4275 H   0  0  0  0  0  0  0  0  0  0  0  0
    0.7839   19.5048  -29.6190 H   0  0  0  0  0  0  0  0  0  0  0  0
    0.1673   21.8243  -28.9345 H   0  0  0  0  0  0  0  0  0  0  0  0
   -3.8550   20.9650  -27.4650 H   0  0  0  0  0  0  0  0  0  0  0  0
   -6.2029   22.7470  -28.6972 H   0  0  0  0  0  0  0  0  0  0  0  0
   -6.3055   24.1977  -29.7767 H   0  0  0  0  0  0  0  0  0  0  0  0
   -3.7068   22.2433  -31.0569 H   0  0  0  0  0  0  0  0  0  0  0  0
   -3.8690   20.7467  -33.0456 H   0  0  0  0  0  0  0  0  0  0  0  0
   -8.1813   20.7597  -32.7124 H   0  0  0  0  0  0  0  0  0  0  0  0
   -8.0279   22.2533  -30.7202 H   0  0  0  0  0  0  0  0  0  0  0  0
  1  2  2  0
  2  3  1  0
  3  4  1  0
  4  5  2  0
  4  6  1  0
  6  7  1  0
  7  8  1  0
  8  9  2  0
  9 10  1  0
 10 11  2  0
 11 12  1  0
 12 13  2  0
  6 14  1  0
 14 15  1  0
 14 16  2  0
 16 17  1  0
 17 18  1  0
 18 19  2  0
 19 20  1  0
 20 21  2  0
 21 22  1  0
 21 23  1  0
 23 24  2  0
 16  2  1  0
 24 18  1  0
 13  8  1  0
  7 25  1  0
  7 26  1  0
  9 27  1  0
 10 28  1  0
 11 29  1  0
 12 30  1  0
 13 31  1  0
 15 32  1  0
 17 33  1  0
 17 34  1  0
 19 35  1  0
 20 36  1  0
 23 37  1  0
 24 38  1  0
M  CHG  1   3  -1
M  END
>  <UniqueID>  (47) 
43

>  <SMILES>  (47) 
O=c1[n-]c(=O)n(Cc2ccccc2)c(O)c1Cc1ccc(F)cc1

>  <Energy>  (47) 
46.72958713445632

>  <Genealogy>  (47) 
O=c1[n-]c(=O)n(Cc2ccccc2)c(O)c1Cc1ccc(F)cc1 (protonated)
O=c1[n-]c(=O)n(Cc2ccccc2)c(O)c1Cc1ccc(F)cc1 (3D coordinates assigned)
O=c1[n-]c(=O)n(Cc2ccccc2)c(O)c1Cc1ccc(F)cc1 (optimized conformer: 46.72958713445632 kcal/mol)

>  <smiles>  (47) 
O=c1[nH]c(=O)n(Cc2ccccc2)c(O)c1Cc1ccc(F)cc1

>  <score_type>  (47) 
oracle

>  <origin>  (47) 
adgpu

>  <m_score__min__energy>  (47) 
-8.1799999999999997

>  <m_primary>  (47) 
energy

$$$$
47:0
     RDKit          3D

 45 48  0  0  0  0  0  0  0  0999 V2000
    3.9712   21.5177  -36.2050 H   0  0  0  0  0  0  0  0  0  0  0  0
    2.9210   21.8100  -36.0580 C   0  0  0  0  0  0  0  0  0  0  0  0
    2.4910   23.0300  -36.4770 N   0  0  0  0  0  0  0  0  0  0  0  0
    1.2020   23.4260  -36.3110 C   0  0  0  0  0  0  0  0  0  0  0  0
    0.8842   24.4202  -36.6583 H   0  0  0  0  0  0  0  0  0  0  0  0
    0.2790   22.5730  -35.7000 C   0  0  0  0  0  0  0  0  0  0  0  0
   -0.7638   22.8940  -35.5598 H   0  0  0  0  0  0  0  0  0  0  0  0
    0.6920   21.3050  -35.2670 C   0  0  0  0  0  0  0  0  0  0  0  0
   -0.2800   20.3680  -34.5950 C   0  0  0  0  0  0  0  0  0  0  0  0
    0.2748   19.6893  -33.9304 H   0  0  0  0  0  0  0  0  0  0  0  0
   -0.8111   19.7967  -35.3706 H   0  0  0  0  0  0  0  0  0  0  0  0
   -1.2630   21.1130  -33.8070 N   0  0  0  0  0  0  0  0  0  0  0  0
   -2.4860   20.7500  -33.5250 C   0  0  0  0  0  0  0  0  0  0  0  0
   -3.2800   21.5870  -32.7270 C   0  0  0  0  0  0  0  0  0  0  0  0
   -2.7990   22.6730  -32.2940 O   0  0  0  0  0  0  0  0  0  0  0  0
   -4.5630   21.2230  -32.4110 N   0  0  0  0  0  0  0  0  0  0  0  0
   -5.3500   22.0850  -31.5630 C   0  0  0  0  0  0  0  0  0  0  0  0
   -6.4520   22.7800  -32.0870 C   0  0  0  0  0  0  0  0  0  0  0  0
   -6.7265   22.6549  -33.1448 H   0  0  0  0  0  0  0  0  0  0  0  0
   -7.2010   23.6300  -31.2690 C   0  0  0  0  0  0  0  0  0  0  0  0
   -8.0620   24.1743  -31.6841 H   0  0  0  0  0  0  0  0  0  0  0  0
   -6.8570   23.7890  -29.9240 C   0  0  0  0  0  0  0  0  0  0  0  0
   -7.4466   24.4597  -29.2817 H   0  0  0  0  0  0  0  0  0  0  0  0
   -5.7650   23.0970  -29.3940 C   0  0  0  0  0  0  0  0  0  0  0  0
   -5.4972   23.2214  -28.3344 H   0  0  0  0  0  0  0  0  0  0  0  0
   -5.0120   22.2460  -30.2100 C   0  0  0  0  0  0  0  0  0  0  0  0
   -4.1531   21.7017  -29.7905 H   0  0  0  0  0  0  0  0  0  0  0  0
   -5.0810   20.0350  -32.8730 C   0  0  0  0  0  0  0  0  0  0  0  0
   -6.4770   19.6400  -32.5640 C   0  0  0  0  0  0  0  0  0  0  0  0
   -7.5480   20.2230  -33.2590 C   0  0  0  0  0  0  0  0  0  0  0  0
   -7.3542   20.9920  -34.0213 H   0  0  0  0  0  0  0  0  0  0  0  0
   -8.8610   19.8280  -32.9840 C   0  0  0  0  0  0  0  0  0  0  0  0
   -9.6983   20.2868  -33.5302 H   0  0  0  0  0  0  0  0  0  0  0  0
   -9.1110   18.8510  -32.0160 C   0  0  0  0  0  0  0  0  0  0  0  0
  -10.1445   18.5419  -31.8006 H   0  0  0  0  0  0  0  0  0  0  0  0
   -8.0480   18.2670  -31.3220 C   0  0  0  0  0  0  0  0  0  0  0  0
   -8.2459   17.4979  -30.5608 H   0  0  0  0  0  0  0  0  0  0  0  0
   -6.7340   18.6580  -31.5930 C   0  0  0  0  0  0  0  0  0  0  0  0
   -5.8996   18.1960  -31.0450 H   0  0  0  0  0  0  0  0  0  0  0  0
   -4.2810   19.2010  -33.6750 C   0  0  0  0  0  0  0  0  0  0  0  0
   -4.9000   17.6880  -34.3370 Cl  0  0  0  0  0  0  0  0  0  0  0  0
   -3.0120   19.5760  -33.9820 N   0  0  0  0  0  0  0  0  0  0  0  0
   -2.4560   18.9370  -34.5900 H   0  0  0  0  0  0  0  0  0  0  0  0
    2.0310   20.9270  -35.4410 C   0  0  0  0  0  0  0  0  0  0  0  0
    2.3783   19.9425  -35.0943 H   0  0  0  0  0  0  0  0  0  0  0  0
  1  2  1  0
  2  3  2  0
  3  4  1  0
  4  5  1  0
  4  6  2  0
  6  7  1  0
  6  8  1  0
  8  9  1  0
  9 10  1  0
  9 11  1  0
  9 12  1  0
 12 13  2  0
 13 14  1  0
 14 15  2  0
 14 16  1  0
 16 17  1  0
 17 18  2  0
 18 19  1  0
 18 20  1  0
 20 21  1  0
 20 22  2  0
 22 23  1  0
 22 24  1  0
 24 25  1  0
 24 26  2  0
 26 27  1  0
 16 28  1  0
 28 29  1  0
 29 30  2  0
 30 31  1  0
 30 32  1  0
 32 33  1  0
 32 34  2  0
 34 35  1  0
 34 36  1  0
 36 37  1  0
 36 38  2  0
 38 39  1  0
 28 40  2  0
 40 41  1  0
 40 42  1  0
 42 43  1  0
  8 44  2  0
 44 45  1  0
 44  2  1  0
 42 13  1  0
 26 17  1  0
 38 29  1  0
M  END
>  <UniqueID>  (48) 
44

>  <SMILES>  (48) 
O=c1/c(=N/Cc2ccncc2)[nH]c(Cl)c(-c2ccccc2)n1-c1ccccc1

>  <Energy>  (48) 
70.93947788602497

>  <Genealogy>  (48) 
O=c1/c(=N/Cc2ccncc2)[nH]c(Cl)c(-c2ccccc2)n1-c1ccccc1 (cis-trans isomerization)
O=c1/c(=N/Cc2ccncc2)[nH]c(Cl)c(-c2ccccc2)n1-c1ccccc1 (3D coordinates assigned)
O=c1/c(=N/Cc2ccncc2)[nH]c(Cl)c(-c2ccccc2)n1-c1ccccc1 (optimized conformer: 70.93947788602497 kcal/mol)

>  <smiles>  (48) 
O=c1c(=NCc2ccncc2)[nH]c(Cl)c(-c2ccccc2)n1-c1ccccc1

>  <score_type>  (48) 
oracle

>  <origin>  (48) 
adgpu

>  <m_score__min__energy>  (48) 
-8.5299999999999994

>  <m_primary>  (48) 
energy

$$$$
48:0
     RDKit          3D

 24 25  0  0  0  0  0  0  0  0999 V2000
   -5.4980   26.3480  -30.4750 O   0  0  0  0  0  0  0  0  0  0  0  0
   -4.9300   25.2360  -30.6540 C   0  0  0  0  0  0  0  0  0  0  0  0
   -3.5150   25.1100  -30.4540 N   0  0  0  0  0  0  0  0  0  0  0  0
   -2.8600   24.4890  -29.3380 C   0  0  0  0  0  0  0  0  0  0  0  0
   -3.4230   23.4060  -28.6420 C   0  0  0  0  0  0  0  0  0  0  0  0
   -2.7290   22.8250  -27.5780 C   0  0  0  0  0  0  0  0  0  0  0  0
   -1.4700   23.3190  -27.2300 C   0  0  0  0  0  0  0  0  0  0  0  0
   -0.9280   24.3520  -27.9290 N   0  0  0  0  0  0  0  0  0  0  0  0
   -1.5850   24.9340  -28.9680 C   0  0  0  0  0  0  0  0  0  0  0  0
   -5.7190   24.0740  -31.1250 C   0  0  0  0  0  0  0  0  0  0  0  0
   -7.0940   23.9750  -30.8360 C   0  0  0  0  0  0  0  0  0  0  0  0
   -7.8350   22.8770  -31.2840 C   0  0  0  0  0  0  0  0  0  0  0  0
   -7.2150   21.8670  -32.0240 C   0  0  0  0  0  0  0  0  0  0  0  0
   -7.9360   20.8040  -32.4580 F   0  0  0  0  0  0  0  0  0  0  0  0
   -5.8520   21.9540  -32.3190 C   0  0  0  0  0  0  0  0  0  0  0  0
   -5.1070   23.0490  -31.8730 C   0  0  0  0  0  0  0  0  0  0  0  0
   -4.4091   23.0161  -28.9346 H   0  0  0  0  0  0  0  0  0  0  0  0
   -3.1701   21.9862  -27.0195 H   0  0  0  0  0  0  0  0  0  0  0  0
   -0.9168   22.8726  -26.3906 H   0  0  0  0  0  0  0  0  0  0  0  0
   -1.1120   25.7590  -29.5208 H   0  0  0  0  0  0  0  0  0  0  0  0
   -7.5883   24.7668  -30.2539 H   0  0  0  0  0  0  0  0  0  0  0  0
   -8.9083   22.8083  -31.0533 H   0  0  0  0  0  0  0  0  0  0  0  0
   -5.3647   21.1594  -32.9031 H   0  0  0  0  0  0  0  0  0  0  0  0
   -4.0342   23.1111  -32.1079 H   0  0  0  0  0  0  0  0  0  0  0  0
  1  2  2  0
  2  3  1  0
  3  4  1  0
  4  5  2  0
  5  6  1  0
  6  7  2  0
  7  8  1  0
  8  9  2  0
  2 10  1  0
 10 11  2  0
 11 12  1  0
 12 13  2  0
 13 14  1  0
 13 15  1  0
 15 16  2  0
  9  4  1  0
 16 10  1  0
  5 17  1  0
  6 18  1  0
  7 19  1  0
  9 20  1  0
 11 21  1  0
 12 22  1  0
 15 23  1  0
 16 24  1  0
M  CHG  1   3  -1
M  END
>  <UniqueID>  (49) 
45

>  <SMILES>  (49) 
O=C([N-]c1cccnc1)c1ccc(F)cc1

>  <Energy>  (49) 
30.108579345156944

>  <Genealogy>  (49) 
O=C([N-]c1cccnc1)c1ccc(F)cc1 (protonated)
O=C([N-]c1cccnc1)c1ccc(F)cc1 (3D coordinates assigned)
O=C([N-]c1cccnc1)c1ccc(F)cc1 (optimized conformer: 30.108579345156944 kcal/mol)

>  <smiles>  (49) 
O=C(Nc1cccnc1)c1ccc(F)cc1

>  <score_type>  (49) 
oracle

>  <origin>  (49) 
adgpu

>  <m_score__min__energy>  (49) 
-7.3899999999999997

>  <m_primary>  (49) 
energy

$$$$
