0:0
     RDKit          3D

 40 42  0  0  0  0  0  0  0  0999 V2000
    0.1780   27.0660  -26.7080 C   0  0  0  0  0  0  0  0  0  0  0  0
    0.2910   26.0760  -27.7260 O   0  0  0  0  0  0  0  0  0  0  0  0
   -0.5270   24.9390  -27.8280 C   0  0  0  0  0  0  0  0  0  0  0  0
   -1.6180   24.8880  -28.7130 C   0  0  0  0  0  0  0  0  0  0  0  0
   -2.4170   23.7430  -28.7950 C   0  0  0  0  0  0  0  0  0  0  0  0
   -3.5620   23.7030  -29.7290 C   0  0  0  0  0  0  0  0  0  0  0  0
   -4.3650   22.6360  -29.9040 N   0  0  0  0  0  0  0  0  0  0  0  0
   -5.2280   23.0940  -30.8350 C   0  0  0  0  0  0  0  0  0  0  0  0
   -6.3420   22.2940  -31.3900 C   0  0  0  0  0  0  0  0  0  0  0  0
   -6.0830   21.1050  -32.0960 C   0  0  0  0  0  0  0  0  0  0  0  0
   -7.1370   20.3500  -32.6190 C   0  0  0  0  0  0  0  0  0  0  0  0
   -8.4590   20.7710  -32.4470 C   0  0  0  0  0  0  0  0  0  0  0  0
   -9.4970   20.0090  -32.9750 O   0  0  0  0  0  0  0  0  0  0  0  0
   -8.7240   21.9540  -31.7460 C   0  0  0  0  0  0  0  0  0  0  0  0
   -7.6730   22.7120  -31.2200 C   0  0  0  0  0  0  0  0  0  0  0  0
   -4.9600   24.3630  -31.2000 N   0  0  0  0  0  0  0  0  0  0  0  0
   -3.9240   24.7030  -30.4950 O   0  0  0  0  0  0  0  0  0  0  0  0
   -2.1200   22.6390  -27.9860 C   0  0  0  0  0  0  0  0  0  0  0  0
   -1.0320   22.6660  -27.0920 C   0  0  0  0  0  0  0  0  0  0  0  0
   -0.7390   21.5570  -26.2820 O   0  0  0  0  0  0  0  0  0  0  0  0
   -1.4060   20.3000  -26.3410 C   0  0  0  0  0  0  0  0  0  0  0  0
   -0.2270   23.8330  -27.0160 C   0  0  0  0  0  0  0  0  0  0  0  0
    0.8820   23.9630  -26.1570 O   0  0  0  0  0  0  0  0  0  0  0  0
    0.8600   23.9510  -24.7340 C   0  0  0  0  0  0  0  0  0  0  0  0
    0.2330   26.5845  -25.7205 H   0  0  0  0  0  0  0  0  0  0  0  0
    0.9992   27.7909  -26.8087 H   0  0  0  0  0  0  0  0  0  0  0  0
   -0.7855   27.5872  -26.8087 H   0  0  0  0  0  0  0  0  0  0  0  0
   -1.8456   25.7573  -29.3474 H   0  0  0  0  0  0  0  0  0  0  0  0
   -5.0456   20.7676  -32.2373 H   0  0  0  0  0  0  0  0  0  0  0  0
   -6.9252   19.4207  -33.1682 H   0  0  0  0  0  0  0  0  0  0  0  0
   -9.4690   19.6610  -33.9270 H   0  0  0  0  0  0  0  0  0  0  0  0
   -9.7629   22.2883  -31.6086 H   0  0  0  0  0  0  0  0  0  0  0  0
   -7.8892   23.6400  -30.6704 H   0  0  0  0  0  0  0  0  0  0  0  0
   -2.7462   21.7369  -28.0498 H   0  0  0  0  0  0  0  0  0  0  0  0
   -1.5979   19.9384  -25.3200 H   0  0  0  0  0  0  0  0  0  0  0  0
   -2.3610   20.4163  -26.8743 H   0  0  0  0  0  0  0  0  0  0  0  0
   -0.7743   19.5744  -26.8743 H   0  0  0  0  0  0  0  0  0  0  0  0
    1.7647   24.4444  -24.3491 H   0  0  0  0  0  0  0  0  0  0  0  0
   -0.0309   24.4881  -24.3765 H   0  0  0  0  0  0  0  0  0  0  0  0
    0.8292   22.9112  -24.3765 H   0  0  0  0  0  0  0  0  0  0  0  0
  1  2  1  0
  2  3  1  0
  3  4  2  0
  4  5  1  0
  5  6  1  0
  6  7  2  0
  7  8  1  0
  8  9  1  0
  9 10  2  0
 10 11  1  0
 11 12  2  0
 12 13  1  0
 12 14  1  0
 14 15  2  0
  8 16  2  0
 16 17  1  0
  5 18  2  0
 18 19  1  0
 19 20  1  0
 20 21  1  0
 19 22  2  0
 22 23  1  0
 23 24  1  0
 22  3  1  0
 17  6  1  0
 15  9  1  0
  1 25  1  0
  1 26  1  0
  1 27  1  0
  4 28  1  0
 10 29  1  0
 11 30  1  0
 13 31  1  0
 14 32  1  0
 15 33  1  0
 18 34  1  0
 21 35  1  0
 21 36  1  0
 21 37  1  0
 24 38  1  0
 24 39  1  0
 24 40  1  0
M  END
>  <UniqueID>  (1) 
1

>  <SMILES>  (1) 
COc1cc(-c2nc(-c3ccc(O)cc3)no2)cc(OC)c1OC

>  <Energy>  (1) 
77.28397710083043

>  <Genealogy>  (1) 
COc1cc(-c2nc(-c3ccc(O)cc3)no2)cc(OC)c1OC (3D coordinates assigned)
COc1cc(-c2nc(-c3ccc(O)cc3)no2)cc(OC)c1OC (optimized conformer: 77.28397710083043 kcal/mol)

>  <smiles>  (1) 
COc1cc(-c2nc(-c3ccc(O)cc3)no2)cc(OC)c1OC

>  <score_type>  (1) 
oracle

>  <origin>  (1) 
adgpu

>  <m_score__min__energy>  (1) 
-7.6600000000000001

>  <m_primary>  (1) 
energy

$$$$
1:0
     RDKit          3D

 37 39  0  0  0  0  0  0  0  0999 V2000
   -4.3690   24.8680  -31.1720 O   0  0  0  0  0  0  0  0  0  0  0  0
   -5.4940   24.4780  -30.2530 S   0  0  0  0  0  0  0  0  0  0  0  0
   -6.4850   25.6040  -30.1860 O   0  0  0  0  0  0  0  0  0  0  0  0
   -4.8520   24.1810  -28.6670 N   0  0  0  0  0  0  0  0  0  0  0  0
   -3.6310   23.4580  -28.4250 C   0  0  0  0  0  0  0  0  0  0  0  0
   -3.6410   22.1770  -27.8390 C   0  0  0  0  0  0  0  0  0  0  0  0
   -2.4420   21.4920  -27.6020 C   0  0  0  0  0  0  0  0  0  0  0  0
   -1.2190   22.0830  -27.9460 C   0  0  0  0  0  0  0  0  0  0  0  0
   -1.1990   23.3550  -28.5300 C   0  0  0  0  0  0  0  0  0  0  0  0
   -2.3950   24.0360  -28.7750 C   0  0  0  0  0  0  0  0  0  0  0  0
   -2.3470   25.2990  -29.3560 O   0  0  0  0  0  0  0  0  0  0  0  0
    0.0500   21.3380  -27.6390 C   0  0  0  0  0  0  0  0  0  0  0  0
   -0.0930   19.8610  -28.0410 C   0  0  0  0  0  0  0  0  0  0  0  0
   -1.4110   19.1940  -27.5630 C   0  0  0  0  0  0  0  0  0  0  0  0
   -2.4280   20.1530  -26.9140 C   0  0  0  0  0  0  0  0  0  0  0  0
   -6.3160   23.0380  -30.8470 C   0  0  0  0  0  0  0  0  0  0  0  0
   -7.6260   22.7640  -30.4330 C   0  0  0  0  0  0  0  0  0  0  0  0
   -8.2770   21.6090  -30.8800 C   0  0  0  0  0  0  0  0  0  0  0  0
   -7.6230   20.7260  -31.7440 C   0  0  0  0  0  0  0  0  0  0  0  0
   -8.5110   19.1480  -32.3510 Br  0  0  0  0  0  0  0  0  0  0  0  0
   -6.3170   20.9990  -32.1640 C   0  0  0  0  0  0  0  0  0  0  0  0
   -5.6640   22.1520  -31.7180 C   0  0  0  0  0  0  0  0  0  0  0  0
   -5.4540   24.4610  -27.8610 H   0  0  0  0  0  0  0  0  0  0  0  0
   -4.5987   21.7104  -27.5650 H   0  0  0  0  0  0  0  0  0  0  0  0
   -0.2387   23.8204  -28.7971 H   0  0  0  0  0  0  0  0  0  0  0  0
    0.8814   21.7889  -28.2007 H   0  0  0  0  0  0  0  0  0  0  0  0
    0.2506   21.3990  -26.5592 H   0  0  0  0  0  0  0  0  0  0  0  0
   -0.0527   19.7971  -29.1384 H   0  0  0  0  0  0  0  0  0  0  0  0
    0.7299   19.3199  -27.5510 H   0  0  0  0  0  0  0  0  0  0  0  0
   -1.8918   18.7253  -28.4343 H   0  0  0  0  0  0  0  0  0  0  0  0
   -1.1256   18.4740  -26.7819 H   0  0  0  0  0  0  0  0  0  0  0  0
   -3.4315   19.7072  -26.9794 H   0  0  0  0  0  0  0  0  0  0  0  0
   -2.1352   20.3075  -25.8650 H   0  0  0  0  0  0  0  0  0  0  0  0
   -8.1439   23.4584  -29.7551 H   0  0  0  0  0  0  0  0  0  0  0  0
   -9.3047   21.3956  -30.5511 H   0  0  0  0  0  0  0  0  0  0  0  0
   -5.8031   20.3057  -32.8460 H   0  0  0  0  0  0  0  0  0  0  0  0
   -4.6373   22.3649  -32.0505 H   0  0  0  0  0  0  0  0  0  0  0  0
  1  2  2  0
  2  3  2  0
  2  4  1  0
  4  5  1  0
  5  6  2  0
  6  7  1  0
  7  8  2  0
  8  9  1  0
  9 10  2  0
 10 11  1  0
  8 12  1  0
 12 13  1  0
 13 14  1  0
 14 15  1  0
  2 16  1  0
 16 17  2  0
 17 18  1  0
 18 19  2  0
 19 20  1  0
 19 21  1  0
 21 22  2  0
 10  5  1  0
 22 16  1  0
 15  7  1  0
  4 23  1  0
  6 24  1  0
  9 25  1  0
 12 26  1  0
 12 27  1  0
 13 28  1  0
 13 29  1  0
 14 30  1  0
 14 31  1  0
 15 32  1  0
 15 33  1  0
 17 34  1  0
 18 35  1  0
 21 36  1  0
 22 37  1  0
M  CHG  1  11  -1
M  END
>  <UniqueID>  (2) 
2

>  <SMILES>  (2) 
O=S(=O)(Nc1cc2c(cc1[O-])CCCC2)c1ccc(Br)cc1

>  <Energy>  (2) 
45.919759999432124

>  <Genealogy>  (2) 
O=S(=O)(Nc1cc2c(cc1[O-])CCCC2)c1ccc(Br)cc1 (protonated)
O=S(=O)(Nc1cc2c(cc1[O-])CCCC2)c1ccc(Br)cc1 (3D coordinates assigned)
O=S(=O)(Nc1cc2c(cc1[O-])CCCC2)c1ccc(Br)cc1 (nonaromatic ring conformer: 45.919759999432124 kcal/mol)

>  <smiles>  (2) 
O=S(=O)(Nc1cc2c(cc1O)CCCC2)c1ccc(Br)cc1

>  <score_type>  (2) 
oracle

>  <origin>  (2) 
adgpu

>  <m_score__min__energy>  (2) 
-13.140000000000001

>  <m_primary>  (2) 
energy

$$$$
2:0
     RDKit          3D

 58 62  0  0  0  0  0  0  0  0999 V2000
   -5.3264   26.3782  -30.5730 H   0  0  0  0  0  0  0  0  0  0  0  0
   -4.9840   25.3330  -30.5570 C   0  0  0  0  0  0  0  0  0  0  0  0
   -3.8780   24.9920  -29.8460 N   0  0  0  0  0  0  0  0  0  0  0  0
   -3.4400   23.7040  -29.8060 C   0  0  0  0  0  0  0  0  0  0  0  0
   -2.3670   23.3730  -29.1490 N   0  0  0  0  0  0  0  0  0  0  0  0
   -1.5620   24.2300  -28.3220 C   0  0  0  0  0  0  0  0  0  0  0  0
   -1.1540   23.7640  -27.0670 C   0  0  0  0  0  0  0  0  0  0  0  0
   -1.4308   22.7489  -26.7460 H   0  0  0  0  0  0  0  0  0  0  0  0
   -0.3980   24.5770  -26.2180 C   0  0  0  0  0  0  0  0  0  0  0  0
   -0.0647   24.1892  -25.2441 H   0  0  0  0  0  0  0  0  0  0  0  0
   -0.0610   25.8860  -26.6000 C   0  0  0  0  0  0  0  0  0  0  0  0
    0.7300   26.7200  -25.7320 N   0  0  0  0  0  0  0  0  0  0  0  0
    0.1620   27.9230  -25.1110 C   0  0  0  0  0  0  0  0  0  0  0  0
    0.6266   28.8144  -25.5577 H   0  0  0  0  0  0  0  0  0  0  0  0
   -0.9242   27.9331  -25.2847 H   0  0  0  0  0  0  0  0  0  0  0  0
    0.4230   27.9230  -23.5910 C   0  0  0  0  0  0  0  0  0  0  0  0
    0.5379   28.9654  -23.2591 H   0  0  0  0  0  0  0  0  0  0  0  0
   -0.4353   27.4225  -23.1191 H   0  0  0  0  0  0  0  0  0  0  0  0
    1.6320   27.1710  -23.1920 N   0  0  0  0  0  0  0  0  0  0  0  0
    1.3590   26.1830  -22.9740 H   0  0  0  0  0  0  0  0  0  0  0  0
    2.6560   27.1500  -24.2450 C   0  0  0  0  0  0  0  0  0  0  0  0
    2.9048   28.1832  -24.5291 H   0  0  0  0  0  0  0  0  0  0  0  0
    3.5505   26.6370  -23.8621 H   0  0  0  0  0  0  0  0  0  0  0  0
    2.1400   26.3960  -25.4800 C   0  0  0  0  0  0  0  0  0  0  0  0
    2.7393   26.6845  -26.3561 H   0  0  0  0  0  0  0  0  0  0  0  0
    2.2282   25.3148  -25.2977 H   0  0  0  0  0  0  0  0  0  0  0  0
   -0.4910   26.3630  -27.8500 C   0  0  0  0  0  0  0  0  0  0  0  0
   -0.2322   27.3854  -28.1626 H   0  0  0  0  0  0  0  0  0  0  0  0
   -1.2450   25.5480  -28.6990 C   0  0  0  0  0  0  0  0  0  0  0  0
   -1.5923   25.9389  -29.6667 H   0  0  0  0  0  0  0  0  0  0  0  0
   -4.1090   22.7480  -30.5010 N   0  0  0  0  0  0  0  0  0  0  0  0
   -5.2260   23.0340  -31.2250 C   0  0  0  0  0  0  0  0  0  0  0  0
   -5.9170   21.9400  -31.9540 C   0  0  0  0  0  0  0  0  0  0  0  0
   -7.3190   21.8480  -31.9840 C   0  0  0  0  0  0  0  0  0  0  0  0
   -7.9281   22.6141  -31.4819 H   0  0  0  0  0  0  0  0  0  0  0  0
   -7.9440   20.7890  -32.6480 C   0  0  0  0  0  0  0  0  0  0  0  0
   -9.0422   20.7339  -32.6798 H   0  0  0  0  0  0  0  0  0  0  0  0
   -7.1800   19.8010  -33.2710 C   0  0  0  0  0  0  0  0  0  0  0  0
   -7.6794   18.9721  -33.7940 H   0  0  0  0  0  0  0  0  0  0  0  0
   -5.7780   19.8590  -33.2340 C   0  0  0  0  0  0  0  0  0  0  0  0
   -4.9710   18.7940  -33.8810 C   0  0  0  0  0  0  0  0  0  0  0  0
   -5.5000   17.6750  -34.1110 O   0  0  0  0  0  0  0  0  0  0  0  0
   -3.6170   19.0100  -34.3010 N   0  0  0  0  0  0  0  0  0  0  0  0
   -2.5930   19.6840  -33.5530 C   0  0  0  0  0  0  0  0  0  0  0  0
   -2.4760   19.4290  -32.1800 C   0  0  0  0  0  0  0  0  0  0  0  0
   -3.1689   18.7277  -31.6921 H   0  0  0  0  0  0  0  0  0  0  0  0
   -1.4810   20.0630  -31.4270 C   0  0  0  0  0  0  0  0  0  0  0  0
   -1.3853   19.8485  -30.3524 H   0  0  0  0  0  0  0  0  0  0  0  0
   -0.6090   20.9680  -32.0380 C   0  0  0  0  0  0  0  0  0  0  0  0
    0.1778   21.4590  -31.4464 H   0  0  0  0  0  0  0  0  0  0  0  0
   -0.7370   21.2490  -33.4010 C   0  0  0  0  0  0  0  0  0  0  0  0
   -0.0554   21.9672  -33.8801 H   0  0  0  0  0  0  0  0  0  0  0  0
   -1.7310   20.6180  -34.1570 C   0  0  0  0  0  0  0  0  0  0  0  0
   -1.8389   20.8526  -35.2263 H   0  0  0  0  0  0  0  0  0  0  0  0
   -5.1560   20.9460  -32.5950 C   0  0  0  0  0  0  0  0  0  0  0  0
   -4.0585   21.0201  -32.5964 H   0  0  0  0  0  0  0  0  0  0  0  0
   -5.6850   24.3600  -31.2660 C   0  0  0  0  0  0  0  0  0  0  0  0
   -6.5807   24.6256  -31.8466 H   0  0  0  0  0  0  0  0  0  0  0  0
  1  2  1  0
  2  3  1  0
  3  4  1  0
  4  5  2  0
  5  6  1  0
  6  7  2  0
  7  8  1  0
  7  9  1  0
  9 10  1  0
  9 11  2  0
 11 12  1  0
 12 13  1  0
 13 14  1  0
 13 15  1  0
 13 16  1  0
 16 17  1  0
 16 18  1  0
 16 19  1  0
 19 20  1  0
 19 21  1  0
 21 22  1  0
 21 23  1  0
 21 24  1  0
 24 25  1  0
 24 26  1  0
 11 27  1  0
 27 28  1  0
 27 29  2  0
 29 30  1  0
  4 31  1  0
 31 32  2  0
 32 33  1  0
 33 34  2  0
 34 35  1  0
 34 36  1  0
 36 37  1  0
 36 38  2  0
 38 39  1  0
 38 40  1  0
 40 41  1  0
 41 42  2  0
 41 43  1  0
 43 44  1  0
 44 45  2  0
 45 46  1  0
 45 47  1  0
 47 48  1  0
 47 49  2  0
 49 50  1  0
 49 51  1  0
 51 52  1  0
 51 53  2  0
 53 54  1  0
 40 55  2  0
 55 56  1  0
 32 57  1  0
 57 58  1  0
 57  2  2  0
 29  6  1  0
 55 33  1  0
 24 12  1  0
 53 44  1  0
M  CHG  2   3  -1  43  -1
M  END
>  <UniqueID>  (3) 
3

>  <SMILES>  (3) 
O=C([N-]c1ccccc1)c1cccc(-c2cc[n-]/c(=N\c3ccc(N4CCNCC4)cc3)n2)c1

>  <Energy>  (3) 
89.55949166021331

>  <Genealogy>  (3) 
O=C([N-]c1ccccc1)c1cccc(-c2cc[n-]c(=Nc3ccc(N4CCNCC4)cc3)n2)c1 (protonated)
O=C([N-]c1ccccc1)c1cccc(-c2cc[n-]/c(=N\c3ccc(N4CCNCC4)cc3)n2)c1 (cis-trans isomerization)
O=C([N-]c1ccccc1)c1cccc(-c2cc[n-]/c(=N\c3ccc(N4CCNCC4)cc3)n2)c1 (3D coordinates assigned)
O=C([N-]c1ccccc1)c1cccc(-c2cc[n-]/c(=N\c3ccc(N4CCNCC4)cc3)n2)c1 (nonaromatic ring conformer: 89.55949166021331 kcal/mol)

>  <smiles>  (3) 
O=C(Nc1ccccc1)c1cccc(-c2cc[nH]c(=Nc3ccc(N4CCNCC4)cc3)n2)c1

>  <score_type>  (3) 
oracle

>  <origin>  (3) 
adgpu

>  <m_score__min__energy>  (3) 
-10.779999999999999

>  <m_primary>  (3) 
energy

$$$$
3:0
     RDKit          3D

 40 42  0  0  0  0  0  0  0  0999 V2000
    0.5660   23.0680  -24.8030 N   0  0  0  0  0  0  0  0  0  0  0  0
   -0.1510   23.3920  -25.6540 C   0  0  0  0  0  0  0  0  0  0  0  0
   -1.0340   23.7930  -26.7170 C   0  0  0  0  0  0  0  0  0  0  0  0
   -2.1480   23.0110  -27.0380 C   0  0  0  0  0  0  0  0  0  0  0  0
   -2.9840   23.3810  -28.0960 C   0  0  0  0  0  0  0  0  0  0  0  0
   -2.7160   24.5350  -28.8440 C   0  0  0  0  0  0  0  0  0  0  0  0
   -3.6000   24.8860  -29.9210 N   0  0  0  0  0  0  0  0  0  0  0  0
   -4.6680   24.0660  -30.4090 C   0  0  0  0  0  0  0  0  0  0  0  0
   -5.8520   24.3630  -30.0970 O   0  0  0  0  0  0  0  0  0  0  0  0
   -4.3980   22.8990  -31.2830 C   0  0  0  0  0  0  0  0  0  0  0  0
   -3.3140   22.0530  -30.9960 C   0  0  0  0  0  0  0  0  0  0  0  0
   -3.0910   20.9020  -31.7510 C   0  0  0  0  0  0  0  0  0  0  0  0
   -3.9600   20.5690  -32.8030 C   0  0  0  0  0  0  0  0  0  0  0  0
   -3.8170   19.3490  -33.5410 N   0  0  0  0  0  0  0  0  0  0  0  0
   -5.1040   18.2260  -33.8430 S   0  0  0  0  0  0  0  0  0  0  0  0
   -5.3960   18.1900  -35.3120 O   0  0  0  0  0  0  0  0  0  0  0  0
   -4.6760   16.8580  -33.3900 O   0  0  0  0  0  0  0  0  0  0  0  0
   -6.5580   18.7420  -32.9890 C   0  0  0  0  0  0  0  0  0  0  0  0
   -7.3210   19.8210  -33.4630 C   0  0  0  0  0  0  0  0  0  0  0  0
   -8.5060   20.1820  -32.8120 C   0  0  0  0  0  0  0  0  0  0  0  0
   -8.9290   19.4770  -31.6830 C   0  0  0  0  0  0  0  0  0  0  0  0
   -8.1730   18.4040  -31.2060 C   0  0  0  0  0  0  0  0  0  0  0  0
   -6.9900   18.0340  -31.8580 C   0  0  0  0  0  0  0  0  0  0  0  0
   -5.0070   21.4390  -33.1310 C   0  0  0  0  0  0  0  0  0  0  0  0
   -5.2330   22.5970  -32.3780 C   0  0  0  0  0  0  0  0  0  0  0  0
   -6.3100   23.4180  -32.7030 O   0  0  0  0  0  0  0  0  0  0  0  0
   -1.5750   25.3070  -28.5370 C   0  0  0  0  0  0  0  0  0  0  0  0
   -1.2310   26.4110  -29.3090 O   0  0  0  0  0  0  0  0  0  0  0  0
   -0.7500   24.9380  -27.4700 C   0  0  0  0  0  0  0  0  0  0  0  0
   -2.3670   22.1030  -26.4570 H   0  0  0  0  0  0  0  0  0  0  0  0
   -3.8587   22.7614  -28.3429 H   0  0  0  0  0  0  0  0  0  0  0  0
   -2.6343   22.3009  -30.1674 H   0  0  0  0  0  0  0  0  0  0  0  0
   -2.2326   20.2534  -31.5221 H   0  0  0  0  0  0  0  0  0  0  0  0
   -6.9869   20.3834  -34.3473 H   0  0  0  0  0  0  0  0  0  0  0  0
   -9.1057   21.0230  -33.1904 H   0  0  0  0  0  0  0  0  0  0  0  0
   -9.8576   19.7669  -31.1695 H   0  0  0  0  0  0  0  0  0  0  0  0
   -8.5071   17.8488  -30.3171 H   0  0  0  0  0  0  0  0  0  0  0  0
   -6.3984   17.1862  -31.4822 H   0  0  0  0  0  0  0  0  0  0  0  0
   -5.6576   21.2104  -33.9880 H   0  0  0  0  0  0  0  0  0  0  0  0
    0.1281   25.5518  -27.2208 H   0  0  0  0  0  0  0  0  0  0  0  0
  1  2  3  0
  2  3  1  0
  3  4  2  0
  4  5  1  0
  5  6  2  0
  6  7  1  0
  7  8  1  0
  8  9  2  0
  8 10  1  0
 10 11  2  0
 11 12  1  0
 12 13  2  0
 13 14  1  0
 14 15  1  0
 15 16  2  0
 15 17  2  0
 15 18  1  0
 18 19  2  0
 19 20  1  0
 20 21  2  0
 21 22  1  0
 22 23  2  0
 13 24  1  0
 24 25  2  0
 25 26  1  0
  6 27  1  0
 27 28  1  0
 27 29  2  0
 29  3  1  0
 25 10  1  0
 23 18  1  0
  4 30  1  0
  5 31  1  0
 11 32  1  0
 12 33  1  0
 19 34  1  0
 20 35  1  0
 21 36  1  0
 22 37  1  0
 23 38  1  0
 24 39  1  0
 29 40  1  0
M  CHG  4   7  -1  14  -1  26  -1  28  -1
M  END
>  <UniqueID>  (4) 
4

>  <SMILES>  (4) 
N#Cc1ccc([N-]C(=O)c2ccc([N-]S(=O)(=O)c3ccccc3)cc2[O-])c([O-])c1

>  <Energy>  (4) 
53.8438432868415

>  <Genealogy>  (4) 
N#Cc1ccc([N-]C(=O)c2ccc([N-]S(=O)(=O)c3ccccc3)cc2[O-])c([O-])c1 (protonated)
N#Cc1ccc([N-]C(=O)c2ccc([N-]S(=O)(=O)c3ccccc3)cc2[O-])c([O-])c1 (3D coordinates assigned)
N#Cc1ccc([N-]C(=O)c2ccc([N-]S(=O)(=O)c3ccccc3)cc2[O-])c([O-])c1 (optimized conformer: 53.8438432868415 kcal/mol)

>  <smiles>  (4) 
N#Cc1ccc(NC(=O)c2ccc(NS(=O)(=O)c3ccccc3)cc2O)c(O)c1

>  <score_type>  (4) 
oracle

>  <origin>  (4) 
adgpu

>  <m_score__min__energy>  (4) 
-15.82

>  <m_primary>  (4) 
energy

$$$$
4:0
     RDKit          3D

 46 49  0  0  0  0  0  0  0  0999 V2000
   -0.6620   21.4620  -34.5580 O   0  0  0  0  0  0  0  0  0  0  0  0
   -1.1430   20.7720  -33.6210 C   0  0  0  0  0  0  0  0  0  0  0  0
   -0.9840   19.3460  -33.6610 N   0  0  0  0  0  0  0  0  0  0  0  0
   -2.0260   18.3730  -33.5030 C   0  0  0  0  0  0  0  0  0  0  0  0
   -1.6980   17.1020  -33.0170 C   0  0  0  0  0  0  0  0  0  0  0  0
   -2.6920   16.1340  -32.8460 C   0  0  0  0  0  0  0  0  0  0  0  0
   -4.0210   16.4310  -33.1560 C   0  0  0  0  0  0  0  0  0  0  0  0
   -4.3640   17.7040  -33.6300 C   0  0  0  0  0  0  0  0  0  0  0  0
   -6.0380   18.1000  -34.0080 S   0  0  0  0  0  0  0  0  0  0  0  0
   -6.8200   16.8380  -34.2520 O   0  0  0  0  0  0  0  0  0  0  0  0
   -6.0720   18.9340  -35.2590 O   0  0  0  0  0  0  0  0  0  0  0  0
   -6.7280   19.0040  -32.6840 N   0  0  0  0  0  0  0  0  0  0  0  0
   -7.2810   20.2770  -33.1420 C   0  0  0  0  0  0  0  0  0  0  0  0
   -8.3960   20.6400  -32.1720 C   0  0  0  0  0  0  0  0  0  0  0  0
   -8.7600   19.3390  -31.4720 C   0  0  0  0  0  0  0  0  0  0  0  0
   -7.8480   18.2850  -32.0790 C   0  0  0  0  0  0  0  0  0  0  0  0
   -3.3700   18.6800  -33.7800 C   0  0  0  0  0  0  0  0  0  0  0  0
   -1.8940   21.4500  -32.5480 C   0  0  0  0  0  0  0  0  0  0  0  0
   -3.1440   22.0260  -32.6500 C   0  0  0  0  0  0  0  0  0  0  0  0
   -3.3940   22.5170  -31.3810 C   0  0  0  0  0  0  0  0  0  0  0  0
   -4.6290   23.1840  -30.9050 C   0  0  0  0  0  0  0  0  0  0  0  0
   -5.8260   22.4440  -30.8540 C   0  0  0  0  0  0  0  0  0  0  0  0
   -7.0150   23.0410  -30.4270 C   0  0  0  0  0  0  0  0  0  0  0  0
   -7.0260   24.3810  -30.0410 C   0  0  0  0  0  0  0  0  0  0  0  0
   -5.8450   25.1250  -30.0710 C   0  0  0  0  0  0  0  0  0  0  0  0
   -4.6470   24.5360  -30.4910 C   0  0  0  0  0  0  0  0  0  0  0  0
   -3.4850   25.2990  -30.4660 O   0  0  0  0  0  0  0  0  0  0  0  0
   -2.3410   22.2430  -30.5840 N   0  0  0  0  0  0  0  0  0  0  0  0
   -1.4250   21.6040  -31.2950 N   0  0  0  0  0  0  0  0  0  0  0  0
   -0.6533   16.8637  -32.7685 H   0  0  0  0  0  0  0  0  0  0  0  0
   -2.4268   15.1362  -32.4665 H   0  0  0  0  0  0  0  0  0  0  0  0
   -4.7994   15.6644  -33.0278 H   0  0  0  0  0  0  0  0  0  0  0  0
   -6.5025   21.0541  -33.1336 H   0  0  0  0  0  0  0  0  0  0  0  0
   -7.6606   20.1975  -34.1714 H   0  0  0  0  0  0  0  0  0  0  0  0
   -8.0446   21.3846  -31.4425 H   0  0  0  0  0  0  0  0  0  0  0  0
   -9.2603   21.0830  -32.6885 H   0  0  0  0  0  0  0  0  0  0  0  0
   -8.5845   19.4224  -30.3893 H   0  0  0  0  0  0  0  0  0  0  0  0
   -9.8223   19.0863  -31.6049 H   0  0  0  0  0  0  0  0  0  0  0  0
   -7.4835   17.6021  -31.2974 H   0  0  0  0  0  0  0  0  0  0  0  0
   -8.3820   17.6793  -32.8260 H   0  0  0  0  0  0  0  0  0  0  0  0
   -3.6423   19.6914  -34.1161 H   0  0  0  0  0  0  0  0  0  0  0  0
   -3.7926   22.0819  -33.5367 H   0  0  0  0  0  0  0  0  0  0  0  0
   -5.8250   21.3855  -31.1533 H   0  0  0  0  0  0  0  0  0  0  0  0
   -7.9441   22.4529  -30.3953 H   0  0  0  0  0  0  0  0  0  0  0  0
   -7.9646   24.8515  -29.7131 H   0  0  0  0  0  0  0  0  0  0  0  0
   -5.8562   26.1808  -29.7626 H   0  0  0  0  0  0  0  0  0  0  0  0
  1  2  2  0
  2  3  1  0
  3  4  1  0
  4  5  2  0
  5  6  1  0
  6  7  2  0
  7  8  1  0
  8  9  1  0
  9 10  2  0
  9 11  2  0
  9 12  1  0
 12 13  1  0
 13 14  1  0
 14 15  1  0
 15 16  1  0
  8 17  2  0
  2 18  1  0
 18 19  1  0
 19 20  2  0
 20 21  1  0
 21 22  2  0
 22 23  1  0
 23 24  2  0
 24 25  1  0
 25 26  2  0
 26 27  1  0
 20 28  1  0
 28 29  1  0
 17  4  1  0
 29 18  2  0
 16 12  1  0
 26 21  1  0
  5 30  1  0
  6 31  1  0
  7 32  1  0
 13 33  1  0
 13 34  1  0
 14 35  1  0
 14 36  1  0
 15 37  1  0
 15 38  1  0
 16 39  1  0
 16 40  1  0
 17 41  1  0
 19 42  1  0
 22 43  1  0
 23 44  1  0
 24 45  1  0
 25 46  1  0
M  CHG  3   3  -1  27  -1  28  -1
M  END
>  <UniqueID>  (5) 
5

>  <SMILES>  (5) 
O=C([N-]c1cccc(S(=O)(=O)N2CCCC2)c1)c1cc(-c2ccccc2[O-])[n-]n1

>  <Energy>  (5) 
87.57822124808197

>  <Genealogy>  (5) 
O=C([N-]c1cccc(S(=O)(=O)N2CCCC2)c1)c1cc(-c2ccccc2[O-])[n-]n1 (protonated)
O=C([N-]c1cccc(S(=O)(=O)N2CCCC2)c1)c1cc(-c2ccccc2[O-])[n-]n1 (3D coordinates assigned)
O=C([N-]c1cccc(S(=O)(=O)N2CCCC2)c1)c1cc(-c2ccccc2[O-])[n-]n1 (nonaromatic ring conformer: 87.57822124808197 kcal/mol)

>  <smiles>  (5) 
O=C(Nc1cccc(S(=O)(=O)N2CCCC2)c1)c1cc(-c2ccccc2O)[nH]n1

>  <score_type>  (5) 
oracle

>  <origin>  (5) 
adgpu

>  <m_score__min__energy>  (5) 
-15.48

>  <m_primary>  (5) 
energy

$$$$
5:0
     RDKit          3D

 36 38  0  0  0  0  0  0  0  0999 V2000
   -1.4390   25.3710  -27.8790 C   0  0  0  0  0  0  0  0  0  0  0  0
   -1.9820   25.3020  -29.1940 O   0  0  0  0  0  0  0  0  0  0  0  0
   -2.6200   24.1730  -29.7310 C   0  0  0  0  0  0  0  0  0  0  0  0
   -2.1040   22.8730  -29.5680 C   0  0  0  0  0  0  0  0  0  0  0  0
   -2.7670   21.7750  -30.1180 C   0  0  0  0  0  0  0  0  0  0  0  0
   -3.9480   21.9530  -30.8500 C   0  0  0  0  0  0  0  0  0  0  0  0
   -4.6690   20.7930  -31.4170 C   0  0  0  0  0  0  0  0  0  0  0  0
   -5.9960   20.5940  -31.2340 N   0  0  0  0  0  0  0  0  0  0  0  0
   -6.2940   19.4490  -31.8670 C   0  0  0  0  0  0  0  0  0  0  0  0
   -7.5460   18.8420  -31.9530 C   0  0  0  0  0  0  0  0  0  0  0  0
   -7.6480   17.6440  -32.6820 C   0  0  0  0  0  0  0  0  0  0  0  0
   -6.5100   17.0860  -33.3050 C   0  0  0  0  0  0  0  0  0  0  0  0
   -6.6570   15.5950  -34.2160 Cl  0  0  0  0  0  0  0  0  0  0  0  0
   -5.2580   17.7220  -33.2020 C   0  0  0  0  0  0  0  0  0  0  0  0
   -5.1820   18.9070  -32.4630 C   0  0  0  0  0  0  0  0  0  0  0  0
   -4.1220   19.7600  -32.1910 C   0  0  0  0  0  0  0  0  0  0  0  0
   -2.7370   19.6680  -32.6900 C   0  0  0  0  0  0  0  0  0  0  0  0
   -2.1740   20.6550  -33.2320 O   0  0  0  0  0  0  0  0  0  0  0  0
   -4.4760   23.2440  -30.9990 C   0  0  0  0  0  0  0  0  0  0  0  0
   -3.8130   24.3590  -30.4470 C   0  0  0  0  0  0  0  0  0  0  0  0
   -4.3080   25.6650  -30.5890 O   0  0  0  0  0  0  0  0  0  0  0  0
   -5.6530   26.0520  -30.3260 C   0  0  0  0  0  0  0  0  0  0  0  0
   -2.2490   25.2681  -27.1420 H   0  0  0  0  0  0  0  0  0  0  0  0
   -0.7111   24.5581  -27.7398 H   0  0  0  0  0  0  0  0  0  0  0  0
   -0.9375   26.3401  -27.7398 H   0  0  0  0  0  0  0  0  0  0  0  0
   -1.1721   22.7219  -29.0034 H   0  0  0  0  0  0  0  0  0  0  0  0
   -2.3595   20.7632  -29.9758 H   0  0  0  0  0  0  0  0  0  0  0  0
   -6.6560   21.2000  -30.6950 H   0  0  0  0  0  0  0  0  0  0  0  0
   -8.4265   19.2863  -31.4658 H   0  0  0  0  0  0  0  0  0  0  0  0
   -8.6209   17.1379  -32.7677 H   0  0  0  0  0  0  0  0  0  0  0  0
   -4.3663   17.2995  -33.6882 H   0  0  0  0  0  0  0  0  0  0  0  0
   -2.1868   18.7211  -32.5868 H   0  0  0  0  0  0  0  0  0  0  0  0
   -5.4161   23.3877  -31.5517 H   0  0  0  0  0  0  0  0  0  0  0  0
   -5.8152   26.0987  -29.2390 H   0  0  0  0  0  0  0  0  0  0  0  0
   -5.8430   27.0413  -30.7679 H   0  0  0  0  0  0  0  0  0  0  0  0
   -6.3397   25.3150  -30.7679 H   0  0  0  0  0  0  0  0  0  0  0  0
  1  2  1  0
  2  3  1  0
  3  4  2  0
  4  5  1  0
  5  6  2  0
  6  7  1  0
  7  8  1  0
  8  9  1  0
  9 10  2  0
 10 11  1  0
 11 12  2  0
 12 13  1  0
 12 14  1  0
 14 15  2  0
 15 16  1  0
 16 17  1  0
 17 18  2  0
  6 19  1  0
 19 20  2  0
 20 21  1  0
 21 22  1  0
 20  3  1  0
 16  7  2  0
 15  9  1  0
  1 23  1  0
  1 24  1  0
  1 25  1  0
  4 26  1  0
  5 27  1  0
  8 28  1  0
 10 29  1  0
 11 30  1  0
 14 31  1  0
 17 32  1  0
 19 33  1  0
 22 34  1  0
 22 35  1  0
 22 36  1  0
M  END
>  <UniqueID>  (6) 
6

>  <SMILES>  (6) 
COc1ccc(-c2[nH]c3ccc(Cl)cc3c2C=O)cc1OC

>  <Energy>  (6) 
75.89742014655364

>  <Genealogy>  (6) 
COc1ccc(-c2[nH]c3ccc(Cl)cc3c2C=O)cc1OC (3D coordinates assigned)
COc1ccc(-c2[nH]c3ccc(Cl)cc3c2C=O)cc1OC (optimized conformer: 75.89742014655364 kcal/mol)

>  <smiles>  (6) 
COc1ccc(-c2[nH]c3ccc(Cl)cc3c2C=O)cc1OC

>  <score_type>  (6) 
oracle

>  <origin>  (6) 
adgpu

>  <m_score__min__energy>  (6) 
-7.8399999999999999

>  <m_primary>  (6) 
energy

$$$$
6:0
     RDKit          3D

 46 48  0  0  0  0  0  0  0  0999 V2000
    2.1840   19.6500  -34.2090 C   0  0  0  0  0  0  0  0  0  0  0  0
    1.6350   20.0720  -32.9650 O   0  0  0  0  0  0  0  0  0  0  0  0
    0.2620   20.2040  -32.7080 C   0  0  0  0  0  0  0  0  0  0  0  0
   -0.2310   20.8710  -31.5730 C   0  0  0  0  0  0  0  0  0  0  0  0
   -1.6060   20.9670  -31.3580 C   0  0  0  0  0  0  0  0  0  0  0  0
   -2.5120   20.3890  -32.2550 C   0  0  0  0  0  0  0  0  0  0  0  0
   -3.9140   20.4990  -31.9660 N   0  0  0  0  0  0  0  0  0  0  0  0
   -4.7760   21.5990  -32.2930 C   0  0  0  0  0  0  0  0  0  0  0  0
   -4.2520   22.6840  -32.6550 O   0  0  0  0  0  0  0  0  0  0  0  0
   -6.2490   21.5190  -32.1230 C   0  0  0  0  0  0  0  0  0  0  0  0
   -6.9380   20.4580  -32.7370 C   0  0  0  0  0  0  0  0  0  0  0  0
   -8.3220   20.3400  -32.6140 C   0  0  0  0  0  0  0  0  0  0  0  0
   -9.0380   21.2750  -31.8690 C   0  0  0  0  0  0  0  0  0  0  0  0
   -8.3730   22.3300  -31.2450 C   0  0  0  0  0  0  0  0  0  0  0  0
   -6.9800   22.4690  -31.3620 C   0  0  0  0  0  0  0  0  0  0  0  0
   -6.2050   23.8520  -30.5660 S   0  0  0  0  0  0  0  0  0  0  0  0
   -7.2300   24.7030  -29.8690 O   0  0  0  0  0  0  0  0  0  0  0  0
   -5.5100   24.7050  -31.5910 O   0  0  0  0  0  0  0  0  0  0  0  0
   -5.0440   23.2920  -29.4060 N   0  0  0  0  0  0  0  0  0  0  0  0
   -3.9110   23.8830  -29.1940 C   0  0  0  0  0  0  0  0  0  0  0  0
   -2.9710   23.4690  -28.2790 C   0  0  0  0  0  0  0  0  0  0  0  0
   -1.9710   24.4060  -28.4260 C   0  0  0  0  0  0  0  0  0  0  0  0
   -0.6790   24.4370  -27.6820 C   0  0  0  0  0  0  0  0  0  0  0  0
   -2.3190   25.2720  -29.3530 O   0  0  0  0  0  0  0  0  0  0  0  0
   -3.4920   24.9880  -29.8420 N   0  0  0  0  0  0  0  0  0  0  0  0
   -2.0320   19.7550  -33.4210 C   0  0  0  0  0  0  0  0  0  0  0  0
   -2.9490   19.2640  -34.3620 O   0  0  0  0  0  0  0  0  0  0  0  0
   -3.9620   18.3020  -34.0800 C   0  0  0  0  0  0  0  0  0  0  0  0
   -0.6410   19.6540  -33.6240 C   0  0  0  0  0  0  0  0  0  0  0  0
    3.0438   18.9891  -34.0250 H   0  0  0  0  0  0  0  0  0  0  0  0
    1.4188   19.1054  -34.7816 H   0  0  0  0  0  0  0  0  0  0  0  0
    2.5135   20.5295  -34.7816 H   0  0  0  0  0  0  0  0  0  0  0  0
    0.4694   21.3185  -30.8524 H   0  0  0  0  0  0  0  0  0  0  0  0
   -1.9823   21.5027  -30.4740 H   0  0  0  0  0  0  0  0  0  0  0  0
   -6.3787   19.7124  -33.3212 H   0  0  0  0  0  0  0  0  0  0  0  0
   -8.8487   19.5086  -33.1052 H   0  0  0  0  0  0  0  0  0  0  0  0
  -10.1297   21.1807  -31.7730 H   0  0  0  0  0  0  0  0  0  0  0  0
   -8.9452   23.0610  -30.6550 H   0  0  0  0  0  0  0  0  0  0  0  0
   -3.0082   22.6051  -27.5991 H   0  0  0  0  0  0  0  0  0  0  0  0
   -0.8786   24.4322  -26.6003 H   0  0  0  0  0  0  0  0  0  0  0  0
   -0.0811   23.5529  -27.9485 H   0  0  0  0  0  0  0  0  0  0  0  0
   -0.1242   25.3487  -27.9485 H   0  0  0  0  0  0  0  0  0  0  0  0
   -4.0738   18.1958  -32.9909 H   0  0  0  0  0  0  0  0  0  0  0  0
   -4.9155   18.6351  -34.5157 H   0  0  0  0  0  0  0  0  0  0  0  0
   -3.6785   17.3326  -34.5157 H   0  0  0  0  0  0  0  0  0  0  0  0
   -0.2598   19.1351  -34.5158 H   0  0  0  0  0  0  0  0  0  0  0  0
  1  2  1  0
  2  3  1  0
  3  4  2  0
  4  5  1  0
  5  6  2  0
  6  7  1  0
  7  8  1  0
  8  9  2  0
  8 10  1  0
 10 11  2  0
 11 12  1  0
 12 13  2  0
 13 14  1  0
 14 15  2  0
 15 16  1  0
 16 17  2  0
 16 18  2  0
 16 19  1  0
 19 20  2  3
 20 21  1  0
 21 22  2  0
 22 23  1  0
 22 24  1  0
 24 25  1  0
  6 26  1  0
 26 27  1  0
 27 28  1  0
 26 29  2  0
 29  3  1  0
 15 10  1  0
 25 20  1  0
  1 30  1  0
  1 31  1  0
  1 32  1  0
  4 33  1  0
  5 34  1  0
 11 35  1  0
 12 36  1  0
 13 37  1  0
 14 38  1  0
 21 39  1  0
 23 40  1  0
 23 41  1  0
 23 42  1  0
 28 43  1  0
 28 44  1  0
 28 45  1  0
 29 46  1  0
M  CHG  2   7  -1  25  -1
M  END
>  <UniqueID>  (7) 
7

>  <SMILES>  (7) 
COc1ccc([N-]C(=O)c2ccccc2S(=O)(=O)N=c2cc(C)o[n-]2)c(OC)c1

>  <Energy>  (7) 
90.16564324404851

>  <Genealogy>  (7) 
COc1ccc([N-]C(=O)c2ccccc2S(=O)(=O)N=c2cc(C)o[n-]2)c(OC)c1 (protonated)
COc1ccc([N-]C(=O)c2ccccc2S(=O)(=O)N=c2cc(C)o[n-]2)c(OC)c1 (3D coordinates assigned)
COc1ccc([N-]C(=O)c2ccccc2S(=O)(=O)N=c2cc(C)o[n-]2)c(OC)c1 (optimized conformer: 90.16564324404851 kcal/mol)

>  <smiles>  (7) 
COc1ccc(NC(=O)c2ccccc2S(=O)(=O)N=c2cc(C)o[nH]2)c(OC)c1

>  <score_type>  (7) 
oracle

>  <origin>  (7) 
adgpu

>  <m_score__min__energy>  (7) 
-10.43

>  <m_primary>  (7) 
energy

$$$$
7:0
     RDKit          3D

 55 58  0  0  0  0  0  0  0  0999 V2000
   -6.9050   20.0570  -34.4960 O   0  0  0  0  0  0  0  0  0  0  0  0
   -7.3270   19.6800  -33.0980 S   0  0  0  0  0  0  0  0  0  0  0  0
   -8.8180   19.4420  -33.0840 O   0  0  0  0  0  0  0  0  0  0  0  0
   -6.5330   18.1680  -32.6530 C   0  0  0  0  0  0  0  0  0  0  0  0
   -6.4090   17.8080  -31.3050 C   0  0  0  0  0  0  0  0  0  0  0  0
   -5.7500   16.6250  -30.9510 C   0  0  0  0  0  0  0  0  0  0  0  0
   -5.2080   15.7990  -31.9410 C   0  0  0  0  0  0  0  0  0  0  0  0
   -4.5500   14.6270  -31.5890 O   0  0  0  0  0  0  0  0  0  0  0  0
   -5.3260   16.1560  -33.2880 C   0  0  0  0  0  0  0  0  0  0  0  0
   -5.9850   17.3390  -33.6440 C   0  0  0  0  0  0  0  0  0  0  0  0
   -6.9050   20.9990  -31.9760 C   0  0  0  0  0  0  0  0  0  0  0  0
   -7.8780   21.4510  -31.0710 C   0  0  0  0  0  0  0  0  0  0  0  0
   -7.5900   22.4660  -30.1610 C   0  0  0  0  0  0  0  0  0  0  0  0
   -6.3260   23.0460  -30.1350 C   0  0  0  0  0  0  0  0  0  0  0  0
   -5.3310   22.6180  -31.0190 C   0  0  0  0  0  0  0  0  0  0  0  0
   -4.0480   23.2640  -30.9880 N   0  0  0  0  0  0  0  0  0  0  0  0
   -3.3540   23.5940  -29.7700 C   0  0  0  0  0  0  0  0  0  0  0  0
   -4.0630   24.1440  -28.6970 C   0  0  0  0  0  0  0  0  0  0  0  0
   -3.3960   24.5300  -27.5330 C   0  0  0  0  0  0  0  0  0  0  0  0
   -2.0020   24.3760  -27.4440 C   0  0  0  0  0  0  0  0  0  0  0  0
   -1.2680   24.8100  -26.2760 N   0  0  0  0  0  0  0  0  0  0  0  0
    0.1930   24.6450  -26.2270 C   0  0  0  0  0  0  0  0  0  0  0  0
    0.6860   24.4400  -24.7800 C   0  0  0  0  0  0  0  0  0  0  0  0
   -0.0040   25.2820  -23.7710 N   0  0  0  0  0  0  0  0  0  0  0  0
   -0.8910   26.3030  -24.3420 C   0  0  0  0  0  0  0  0  0  0  0  0
   -1.9220   25.6620  -25.2730 C   0  0  0  0  0  0  0  0  0  0  0  0
   -1.3340   23.8320  -28.4990 N   0  0  0  0  0  0  0  0  0  0  0  0
   -1.9630   23.4410  -29.6410 C   0  0  0  0  0  0  0  0  0  0  0  0
   -5.6080   21.5830  -31.9520 C   0  0  0  0  0  0  0  0  0  0  0  0
   -4.5290   21.1380  -32.9190 C   0  0  0  0  0  0  0  0  0  0  0  0
   -3.9000   22.2480  -33.4940 O   0  0  0  0  0  0  0  0  0  0  0  0
   -6.8305   18.4565  -30.5228 H   0  0  0  0  0  0  0  0  0  0  0  0
   -5.6581   16.3442  -29.8914 H   0  0  0  0  0  0  0  0  0  0  0  0
   -4.9010   15.5072  -34.0680 H   0  0  0  0  0  0  0  0  0  0  0  0
   -6.0735   17.6195  -34.7039 H   0  0  0  0  0  0  0  0  0  0  0  0
   -8.8805   20.9982  -31.0803 H   0  0  0  0  0  0  0  0  0  0  0  0
   -8.3652   22.8100  -29.4604 H   0  0  0  0  0  0  0  0  0  0  0  0
   -6.1077   23.8473  -29.4137 H   0  0  0  0  0  0  0  0  0  0  0  0
   -3.5590   23.4160  -31.8950 H   0  0  0  0  0  0  0  0  0  0  0  0
   -5.1529   24.2732  -28.7708 H   0  0  0  0  0  0  0  0  0  0  0  0
   -3.9596   24.9532  -26.6884 H   0  0  0  0  0  0  0  0  0  0  0  0
    0.4749   23.7686  -26.8291 H   0  0  0  0  0  0  0  0  0  0  0  0
    0.6589   25.5580  -26.6263 H   0  0  0  0  0  0  0  0  0  0  0  0
    0.5319   23.3847  -24.5105 H   0  0  0  0  0  0  0  0  0  0  0  0
    1.7451   24.7369  -24.7646 H   0  0  0  0  0  0  0  0  0  0  0  0
    0.7120   25.7620  -23.1780 H   0  0  0  0  0  0  0  0  0  0  0  0
   -0.5690   24.6680  -23.1380 H   0  0  0  0  0  0  0  0  0  0  0  0
   -1.4147   26.8236  -23.5267 H   0  0  0  0  0  0  0  0  0  0  0  0
   -0.2849   27.0151  -24.9213 H   0  0  0  0  0  0  0  0  0  0  0  0
   -2.6136   25.0491  -24.6763 H   0  0  0  0  0  0  0  0  0  0  0  0
   -2.4680   26.4617  -25.7948 H   0  0  0  0  0  0  0  0  0  0  0  0
   -1.3807   23.0039  -30.4655 H   0  0  0  0  0  0  0  0  0  0  0  0
   -3.7823   20.5385  -32.3777 H   0  0  0  0  0  0  0  0  0  0  0  0
   -4.9908   20.5373  -33.7164 H   0  0  0  0  0  0  0  0  0  0  0  0
   -4.5250   22.6140  -34.1760 H   0  0  0  0  0  0  0  0  0  0  0  0
  1  2  2  0
  2  3  2  0
  2  4  1  0
  4  5  2  0
  5  6  1  0
  6  7  2  0
  7  8  1  0
  7  9  1  0
  9 10  2  0
  2 11  1  0
 11 12  2  0
 12 13  1  0
 13 14  2  0
 14 15  1  0
 15 16  1  0
 16 17  1  0
 17 18  2  0
 18 19  1  0
 19 20  2  0
 20 21  1  0
 21 22  1  0
 22 23  1  0
 23 24  1  0
 24 25  1  0
 25 26  1  0
 20 27  1  0
 27 28  2  0
 15 29  2  0
 29 30  1  0
 30 31  1  0
 10  4  1  0
 29 11  1  0
 28 17  1  0
 26 21  1  0
  5 32  1  0
  6 33  1  0
  9 34  1  0
 10 35  1  0
 12 36  1  0
 13 37  1  0
 14 38  1  0
 16 39  1  0
 18 40  1  0
 19 41  1  0
 22 42  1  0
 22 43  1  0
 23 44  1  0
 23 45  1  0
 24 46  1  0
 24 47  1  0
 25 48  1  0
 25 49  1  0
 26 50  1  0
 26 51  1  0
 28 52  1  0
 30 53  1  0
 30 54  1  0
 31 55  1  0
M  CHG  2   8  -1  24   1
M  END
>  <UniqueID>  (8) 
8

>  <SMILES>  (8) 
O=S(=O)(c1ccc([O-])cc1)c1cccc(Nc2ccc(N3CC[NH2+]CC3)nc2)c1CO

>  <Energy>  (8) 
78.48128081441972

>  <Genealogy>  (8) 
O=S(=O)(c1ccc([O-])cc1)c1cccc(Nc2ccc(N3CC[NH2+]CC3)nc2)c1CO (protonated)
O=S(=O)(c1ccc([O-])cc1)c1cccc(Nc2ccc(N3CC[NH2+]CC3)nc2)c1CO (3D coordinates assigned)
O=S(=O)(c1ccc([O-])cc1)c1cccc(Nc2ccc(N3CC[NH2+]CC3)nc2)c1CO (nonaromatic ring conformer: 78.48128081441972 kcal/mol)

>  <smiles>  (8) 
O=S(=O)(c1ccc(O)cc1)c1cccc(Nc2ccc(N3CCNCC3)nc2)c1CO

>  <score_type>  (8) 
oracle

>  <origin>  (8) 
adgpu

>  <m_score__min__energy>  (8) 
-11.119999999999999

>  <m_primary>  (8) 
energy

$$$$
8:0
     RDKit          3D

 37 39  0  0  0  0  0  0  0  0999 V2000
   -1.1470   25.8960  -26.1410 N   0  0  0  0  0  0  0  0  0  0  0  0
   -1.5060   25.4170  -27.2820 C   0  0  0  0  0  0  0  0  0  0  0  0
   -0.7490   25.2760  -28.3750 N   0  0  0  0  0  0  0  0  0  0  0  0
   -1.4370   24.7550  -29.3510 N   0  0  0  0  0  0  0  0  0  0  0  0
   -2.7220   24.5130  -28.9540 C   0  0  0  0  0  0  0  0  0  0  0  0
   -3.7670   23.9350  -29.7870 C   0  0  0  0  0  0  0  0  0  0  0  0
   -3.8750   22.5900  -30.0570 C   0  0  0  0  0  0  0  0  0  0  0  0
   -4.8830   22.0630  -30.8560 C   0  0  0  0  0  0  0  0  0  0  0  0
   -5.8220   22.9100  -31.4080 C   0  0  0  0  0  0  0  0  0  0  0  0
   -6.8540   22.4540  -32.2120 O   0  0  0  0  0  0  0  0  0  0  0  0
   -6.9040   21.0990  -32.4750 C   0  0  0  0  0  0  0  0  0  0  0  0
   -7.9610   20.2860  -32.1180 C   0  0  0  0  0  0  0  0  0  0  0  0
   -7.9560   18.9230  -32.4110 C   0  0  0  0  0  0  0  0  0  0  0  0
   -6.8510   18.4080  -33.0760 C   0  0  0  0  0  0  0  0  0  0  0  0
   -6.8490   16.6850  -33.4450 Cl  0  0  0  0  0  0  0  0  0  0  0  0
   -5.7780   19.1930  -33.4470 C   0  0  0  0  0  0  0  0  0  0  0  0
   -4.6270   18.5720  -34.1580 C   0  0  0  0  0  0  0  0  0  0  0  0
   -4.1510   17.5570  -33.3490 F   0  0  0  0  0  0  0  0  0  0  0  0
   -5.0300   18.0850  -35.3830 F   0  0  0  0  0  0  0  0  0  0  0  0
   -3.6840   19.5970  -34.3130 F   0  0  0  0  0  0  0  0  0  0  0  0
   -5.8300   20.5380  -33.1350 C   0  0  0  0  0  0  0  0  0  0  0  0
   -5.7400   24.2670  -31.1530 C   0  0  0  0  0  0  0  0  0  0  0  0
   -4.7190   24.7610  -30.3500 C   0  0  0  0  0  0  0  0  0  0  0  0
   -2.7570   24.9330  -27.6460 C   0  0  0  0  0  0  0  0  0  0  0  0
   -3.8660   24.8970  -26.7800 N   0  0  0  0  0  0  0  0  0  0  0  0
   -1.7520   25.9960  -25.3070 H   0  0  0  0  0  0  0  0  0  0  0  0
    0.2550   25.5560  -28.4120 H   0  0  0  0  0  0  0  0  0  0  0  0
   -1.0240   24.5610  -30.3040 H   0  0  0  0  0  0  0  0  0  0  0  0
   -3.1332   21.9037  -29.6227 H   0  0  0  0  0  0  0  0  0  0  0  0
   -4.9316   20.9807  -31.0465 H   0  0  0  0  0  0  0  0  0  0  0  0
   -8.8235   20.7218  -31.5924 H   0  0  0  0  0  0  0  0  0  0  0  0
   -8.7992   18.2771  -32.1250 H   0  0  0  0  0  0  0  0  0  0  0  0
   -4.9868   21.1833  -33.4225 H   0  0  0  0  0  0  0  0  0  0  0  0
   -6.4821   24.9543  -31.5853 H   0  0  0  0  0  0  0  0  0  0  0  0
   -4.6679   25.8428  -30.1572 H   0  0  0  0  0  0  0  0  0  0  0  0
   -4.5730   25.6760  -26.8080 H   0  0  0  0  0  0  0  0  0  0  0  0
   -3.9650   24.0960  -26.1230 H   0  0  0  0  0  0  0  0  0  0  0  0
  1  2  2  3
  2  3  1  0
  3  4  1  0
  4  5  1  0
  5  6  1  0
  6  7  2  0
  7  8  1  0
  8  9  2  0
  9 10  1  0
 10 11  1  0
 11 12  2  0
 12 13  1  0
 13 14  2  0
 14 15  1  0
 14 16  1  0
 16 17  1  0
 17 18  1  0
 17 19  1  0
 17 20  1  0
 16 21  2  0
  9 22  1  0
 22 23  2  0
  5 24  2  0
 24 25  1  0
 24  2  1  0
 23  6  1  0
 21 11  1  0
  1 26  1  0
  3 27  1  0
  4 28  1  0
  7 29  1  0
  8 30  1  0
 12 31  1  0
 13 32  1  0
 21 33  1  0
 22 34  1  0
 23 35  1  0
 25 36  1  0
 25 37  1  0
M  END
>  <smiles>  (9) 
N=c1[nH][nH]c(-c2ccc(Oc3ccc(Cl)c(C(F)(F)F)c3)cc2)c1N

>  <score_type>  (9) 
oracle

>  <origin>  (9) 
adgpu

>  <m_score__min__energy>  (9) 
-7.4699999999999998

>  <m_primary>  (9) 
energy

$$$$
9:0
     RDKit          3D

 37 39  0  0  0  0  0  0  0  0999 V2000
   -1.0650   18.1970  -34.9940 N   0  0  0  0  0  0  0  0  0  0  0  0
   -2.4370   18.1360  -33.9460 S   0  0  0  0  0  0  0  0  0  0  0  0
   -2.2130   19.0350  -32.7620 O   0  0  0  0  0  0  0  0  0  0  0  0
   -3.6410   18.6270  -34.6990 O   0  0  0  0  0  0  0  0  0  0  0  0
   -2.6950   16.4760  -33.3940 C   0  0  0  0  0  0  0  0  0  0  0  0
   -1.5920   15.6850  -33.0380 C   0  0  0  0  0  0  0  0  0  0  0  0
   -1.7750   14.3760  -32.5930 C   0  0  0  0  0  0  0  0  0  0  0  0
   -3.0600   13.8430  -32.4970 C   0  0  0  0  0  0  0  0  0  0  0  0
   -4.1680   14.6210  -32.8390 C   0  0  0  0  0  0  0  0  0  0  0  0
   -3.9990   15.9430  -33.2930 C   0  0  0  0  0  0  0  0  0  0  0  0
   -5.1240   16.7630  -33.6470 N   0  0  0  0  0  0  0  0  0  0  0  0
   -6.2490   17.4740  -32.5370 S   0  0  0  0  0  0  0  0  0  0  0  0
   -6.2300   16.7080  -31.2420 O   0  0  0  0  0  0  0  0  0  0  0  0
   -7.6270   17.4020  -33.1330 O   0  0  0  0  0  0  0  0  0  0  0  0
   -5.8380   19.1560  -32.2550 C   0  0  0  0  0  0  0  0  0  0  0  0
   -6.4690   20.2470  -32.8310 C   0  0  0  0  0  0  0  0  0  0  0  0
   -5.9300   21.4730  -32.4220 C   0  0  0  0  0  0  0  0  0  0  0  0
   -4.8660   21.3470  -31.5210 C   0  0  0  0  0  0  0  0  0  0  0  0
   -4.0910   22.4520  -30.9020 C   0  0  0  0  0  0  0  0  0  0  0  0
   -2.8840   22.1860  -30.2330 C   0  0  0  0  0  0  0  0  0  0  0  0
   -2.1490   23.2210  -29.6490 C   0  0  0  0  0  0  0  0  0  0  0  0
   -2.6070   24.5380  -29.7250 C   0  0  0  0  0  0  0  0  0  0  0  0
   -1.8750   25.5620  -29.1360 O   0  0  0  0  0  0  0  0  0  0  0  0
   -3.8030   24.8190  -30.3910 C   0  0  0  0  0  0  0  0  0  0  0  0
   -4.2640   26.1280  -30.4700 O   0  0  0  0  0  0  0  0  0  0  0  0
   -4.5400   23.7850  -30.9790 C   0  0  0  0  0  0  0  0  0  0  0  0
   -4.6090   19.7010  -31.2490 S   0  0  0  0  0  0  0  0  0  0  0  0
   -1.2850   17.6150  -35.8320 H   0  0  0  0  0  0  0  0  0  0  0  0
   -0.5760   16.1003  -33.1104 H   0  0  0  0  0  0  0  0  0  0  0  0
   -0.9043   13.7630  -32.3173 H   0  0  0  0  0  0  0  0  0  0  0  0
   -3.2010   12.8083  -32.1514 H   0  0  0  0  0  0  0  0  0  0  0  0
   -5.1798   14.1981  -32.7531 H   0  0  0  0  0  0  0  0  0  0  0  0
   -7.3076   20.1590  -33.5374 H   0  0  0  0  0  0  0  0  0  0  0  0
   -6.3072   22.4439  -32.7755 H   0  0  0  0  0  0  0  0  0  0  0  0
   -2.5140   21.1521  -30.1684 H   0  0  0  0  0  0  0  0  0  0  0  0
   -1.2065   22.9976  -29.1277 H   0  0  0  0  0  0  0  0  0  0  0  0
   -5.4779   24.0150  -31.5058 H   0  0  0  0  0  0  0  0  0  0  0  0
  1  2  1  0
  2  3  2  0
  2  4  2  0
  2  5  1  0
  5  6  2  0
  6  7  1  0
  7  8  2  0
  8  9  1  0
  9 10  2  0
 10 11  1  0
 11 12  1  0
 12 13  2  0
 12 14  2  0
 12 15  1  0
 15 16  2  0
 16 17  1  0
 17 18  2  0
 18 19  1  0
 19 20  2  0
 20 21  1  0
 21 22  2  0
 22 23  1  0
 22 24  1  0
 24 25  1  0
 24 26  2  0
 18 27  1  0
 10  5  1  0
 27 15  1  0
 26 19  1  0
  1 28  1  0
  6 29  1  0
  7 30  1  0
  8 31  1  0
  9 32  1  0
 16 33  1  0
 17 34  1  0
 20 35  1  0
 21 36  1  0
 26 37  1  0
M  CHG  4   1  -1  11  -1  23  -1  25  -1
M  END
>  <UniqueID>  (10) 
9

>  <SMILES>  (10) 
[NH-]S(=O)(=O)c1ccccc1[N-]S(=O)(=O)c1ccc(-c2ccc([O-])c([O-])c2)s1

>  <Energy>  (10) 
72.55947676406072

>  <Genealogy>  (10) 
[NH-]S(=O)(=O)c1ccccc1[N-]S(=O)(=O)c1ccc(-c2ccc([O-])c([O-])c2)s1 (protonated)
[NH-]S(=O)(=O)c1ccccc1[N-]S(=O)(=O)c1ccc(-c2ccc([O-])c([O-])c2)s1 (3D coordinates assigned)
[NH-]S(=O)(=O)c1ccccc1[N-]S(=O)(=O)c1ccc(-c2ccc([O-])c([O-])c2)s1 (optimized conformer: 72.55947676406072 kcal/mol)

>  <smiles>  (10) 
NS(=O)(=O)c1ccccc1NS(=O)(=O)c1ccc(-c2ccc(O)c(O)c2)s1

>  <score_type>  (10) 
oracle

>  <origin>  (10) 
adgpu

>  <m_score__min__energy>  (10) 
-12.449999999999999

>  <m_primary>  (10) 
energy

$$$$
10:0
     RDKit          3D

 43 45  0  0  0  0  0  0  0  0999 V2000
   -0.8630   22.6130  -26.1140 C   0  0  0  0  0  0  0  0  0  0  0  0
   -1.5850   23.3390  -27.2110 C   0  0  0  0  0  0  0  0  0  0  0  0
   -2.9310   23.0510  -27.4800 C   0  0  0  0  0  0  0  0  0  0  0  0
   -3.5940   23.7000  -28.5270 C   0  0  0  0  0  0  0  0  0  0  0  0
   -2.9150   24.6220  -29.3320 C   0  0  0  0  0  0  0  0  0  0  0  0
   -3.6300   25.2770  -30.3900 N   0  0  0  0  0  0  0  0  0  0  0  0
   -5.0550   25.3050  -30.5500 C   0  0  0  0  0  0  0  0  0  0  0  0
   -5.6910   26.3170  -30.1520 O   0  0  0  0  0  0  0  0  0  0  0  0
   -5.8000   24.1380  -31.0730 C   0  0  0  0  0  0  0  0  0  0  0  0
   -7.2040   24.1570  -31.0070 C   0  0  0  0  0  0  0  0  0  0  0  0
   -7.9540   23.1010  -31.5230 C   0  0  0  0  0  0  0  0  0  0  0  0
   -7.3120   22.0140  -32.1130 C   0  0  0  0  0  0  0  0  0  0  0  0
   -5.9180   21.9740  -32.1810 C   0  0  0  0  0  0  0  0  0  0  0  0
   -5.1400   23.0280  -31.6600 C   0  0  0  0  0  0  0  0  0  0  0  0
   -3.6990   22.9470  -31.6550 N   0  0  0  0  0  0  0  0  0  0  0  0
   -2.8070   21.5390  -31.1690 S   0  0  0  0  0  0  0  0  0  0  0  0
   -1.3580   21.9050  -31.0050 O   0  0  0  0  0  0  0  0  0  0  0  0
   -3.3370   21.0480  -29.8510 O   0  0  0  0  0  0  0  0  0  0  0  0
   -2.9900   20.2640  -32.3710 C   0  0  0  0  0  0  0  0  0  0  0  0
   -1.9660   20.0160  -33.2970 C   0  0  0  0  0  0  0  0  0  0  0  0
   -2.1170   19.0090  -34.2550 C   0  0  0  0  0  0  0  0  0  0  0  0
   -3.2890   18.2470  -34.2930 C   0  0  0  0  0  0  0  0  0  0  0  0
   -4.3100   18.4890  -33.3680 C   0  0  0  0  0  0  0  0  0  0  0  0
   -4.1620   19.4950  -32.4080 C   0  0  0  0  0  0  0  0  0  0  0  0
   -1.5690   24.9200  -29.0540 C   0  0  0  0  0  0  0  0  0  0  0  0
   -0.9050   24.2720  -28.0090 C   0  0  0  0  0  0  0  0  0  0  0  0
   -1.2212   22.9732  -25.1383 H   0  0  0  0  0  0  0  0  0  0  0  0
   -1.0561   21.5335  -26.1998 H   0  0  0  0  0  0  0  0  0  0  0  0
    0.2176   22.8001  -26.1998 H   0  0  0  0  0  0  0  0  0  0  0  0
   -3.4670   22.3125  -26.8658 H   0  0  0  0  0  0  0  0  0  0  0  0
   -4.6555   23.4844  -28.7188 H   0  0  0  0  0  0  0  0  0  0  0  0
   -7.7159   25.0133  -30.5437 H   0  0  0  0  0  0  0  0  0  0  0  0
   -9.0522   23.1259  -31.4644 H   0  0  0  0  0  0  0  0  0  0  0  0
   -7.9052   21.1850  -32.5264 H   0  0  0  0  0  0  0  0  0  0  0  0
   -5.4210   21.1101  -32.6465 H   0  0  0  0  0  0  0  0  0  0  0  0
   -3.1280   23.7820  -31.9090 H   0  0  0  0  0  0  0  0  0  0  0  0
   -1.0434   20.6143  -33.2694 H   0  0  0  0  0  0  0  0  0  0  0  0
   -1.3126   18.8158  -34.9800 H   0  0  0  0  0  0  0  0  0  0  0  0
   -3.4079   17.4577  -35.0499 H   0  0  0  0  0  0  0  0  0  0  0  0
   -5.2304   17.8873  -33.3958 H   0  0  0  0  0  0  0  0  0  0  0  0
   -4.9658   19.6833  -31.6811 H   0  0  0  0  0  0  0  0  0  0  0  0
   -1.0366   25.6664  -29.6618 H   0  0  0  0  0  0  0  0  0  0  0  0
    0.1541   24.4939  -27.8112 H   0  0  0  0  0  0  0  0  0  0  0  0
  1  2  1  0
  2  3  2  0
  3  4  1  0
  4  5  2  0
  5  6  1  0
  6  7  1  0
  7  8  2  0
  7  9  1  0
  9 10  2  0
 10 11  1  0
 11 12  2  0
 12 13  1  0
 13 14  2  0
 14 15  1  0
 15 16  1  0
 16 17  2  0
 16 18  2  0
 16 19  1  0
 19 20  2  0
 20 21  1  0
 21 22  2  0
 22 23  1  0
 23 24  2  0
  5 25  1  0
 25 26  2  0
 26  2  1  0
 14  9  1  0
 24 19  1  0
  1 27  1  0
  1 28  1  0
  1 29  1  0
  3 30  1  0
  4 31  1  0
 10 32  1  0
 11 33  1  0
 12 34  1  0
 13 35  1  0
 15 36  1  0
 20 37  1  0
 21 38  1  0
 22 39  1  0
 23 40  1  0
 24 41  1  0
 25 42  1  0
 26 43  1  0
M  CHG  1   6  -1
M  END
>  <UniqueID>  (11) 
10

>  <SMILES>  (11) 
Cc1ccc([N-]C(=O)c2ccccc2NS(=O)(=O)c2ccccc2)cc1

>  <Energy>  (11) 
57.51020260614793

>  <Genealogy>  (11) 
Cc1ccc([N-]C(=O)c2ccccc2NS(=O)(=O)c2ccccc2)cc1 (protonated)
Cc1ccc([N-]C(=O)c2ccccc2NS(=O)(=O)c2ccccc2)cc1 (3D coordinates assigned)
Cc1ccc([N-]C(=O)c2ccccc2NS(=O)(=O)c2ccccc2)cc1 (optimized conformer: 57.51020260614793 kcal/mol)

>  <smiles>  (11) 
Cc1ccc(NC(=O)c2ccccc2NS(=O)(=O)c2ccccc2)cc1

>  <score_type>  (11) 
oracle

>  <origin>  (11) 
adgpu

>  <m_score__min__energy>  (11) 
-11.01

>  <m_primary>  (11) 
energy

$$$$
11:0
     RDKit          3D

 44 46  0  0  0  0  0  0  0  0999 V2000
    4.9380   22.6270  -35.4400 C   0  0  0  0  0  0  0  0  0  0  0  0
    4.1200   21.6810  -36.2600 C   0  0  0  0  0  0  0  0  0  0  0  0
    4.0400   21.7460  -37.6020 N   0  0  0  0  0  0  0  0  0  0  0  0
    3.2700   20.7710  -37.9850 O   0  0  0  0  0  0  0  0  0  0  0  0
    2.8380   20.0690  -36.9640 C   0  0  0  0  0  0  0  0  0  0  0  0
    2.0640   19.0340  -37.1350 N   0  0  0  0  0  0  0  0  0  0  0  0
    1.3610   17.9570  -35.9680 S   0  0  0  0  0  0  0  0  0  0  0  0
    0.8210   16.7410  -36.6660 O   0  0  0  0  0  0  0  0  0  0  0  0
    2.4410   17.5170  -35.0230 O   0  0  0  0  0  0  0  0  0  0  0  0
    0.1180   18.7650  -35.0210 C   0  0  0  0  0  0  0  0  0  0  0  0
   -0.0260   20.1560  -35.0940 C   0  0  0  0  0  0  0  0  0  0  0  0
   -1.0190   20.8010  -34.3530 C   0  0  0  0  0  0  0  0  0  0  0  0
   -1.8860   20.0600  -33.5300 C   0  0  0  0  0  0  0  0  0  0  0  0
   -2.9040   20.7030  -32.7420 N   0  0  0  0  0  0  0  0  0  0  0  0
   -4.3020   20.6820  -33.0770 C   0  0  0  0  0  0  0  0  0  0  0  0
   -4.7490   19.7790  -33.8360 O   0  0  0  0  0  0  0  0  0  0  0  0
   -5.2350   21.6820  -32.5020 C   0  0  0  0  0  0  0  0  0  0  0  0
   -6.6230   21.4620  -32.5110 C   0  0  0  0  0  0  0  0  0  0  0  0
   -7.4920   22.4060  -31.9620 C   0  0  0  0  0  0  0  0  0  0  0  0
   -6.9910   23.5770  -31.3920 C   0  0  0  0  0  0  0  0  0  0  0  0
   -5.6070   23.8190  -31.3620 C   0  0  0  0  0  0  0  0  0  0  0  0
   -5.0930   25.0260  -30.7710 N   0  0  0  0  0  0  0  0  0  0  0  0
   -3.8780   25.3050  -30.8440 O   0  0  0  0  0  0  0  0  0  0  0  0
   -5.9330   25.8960  -30.1140 O   0  0  0  0  0  0  0  0  0  0  0  0
   -4.7360   22.8610  -31.9180 C   0  0  0  0  0  0  0  0  0  0  0  0
   -1.7140   18.6700  -33.4330 C   0  0  0  0  0  0  0  0  0  0  0  0
   -0.7210   18.0270  -34.1770 C   0  0  0  0  0  0  0  0  0  0  0  0
    3.3520   20.6260  -35.7900 C   0  0  0  0  0  0  0  0  0  0  0  0
    3.2580   20.1930  -34.3560 C   0  0  0  0  0  0  0  0  0  0  0  0
    4.7666   22.4288  -34.3717 H   0  0  0  0  0  0  0  0  0  0  0  0
    6.0039   22.4866  -35.6726 H   0  0  0  0  0  0  0  0  0  0  0  0
    4.6452   23.6615  -35.6726 H   0  0  0  0  0  0  0  0  0  0  0  0
    0.6456   20.7432  -35.7375 H   0  0  0  0  0  0  0  0  0  0  0  0
   -1.1235   21.8944  -34.4135 H   0  0  0  0  0  0  0  0  0  0  0  0
   -2.6260   21.1030  -31.8180 H   0  0  0  0  0  0  0  0  0  0  0  0
   -7.0271   20.5397  -32.9537 H   0  0  0  0  0  0  0  0  0  0  0  0
   -8.5771   22.2261  -31.9787 H   0  0  0  0  0  0  0  0  0  0  0  0
   -7.6841   24.3157  -30.9632 H   0  0  0  0  0  0  0  0  0  0  0  0
   -3.6505   23.0373  -31.8952 H   0  0  0  0  0  0  0  0  0  0  0  0
   -2.3646   18.0836  -32.7675 H   0  0  0  0  0  0  0  0  0  0  0  0
   -0.5980   16.9367  -34.0993 H   0  0  0  0  0  0  0  0  0  0  0  0
    3.4452   21.0555  -33.6995 H   0  0  0  0  0  0  0  0  0  0  0  0
    2.2522   19.7936  -34.1588 H   0  0  0  0  0  0  0  0  0  0  0  0
    4.0076   19.4125  -34.1588 H   0  0  0  0  0  0  0  0  0  0  0  0
  1  2  1  0
  2  3  1  0
  3  4  1  0
  4  5  1  0
  5  6  2  3
  6  7  1  0
  7  8  2  0
  7  9  2  0
  7 10  1  0
 10 11  2  0
 11 12  1  0
 12 13  2  0
 13 14  1  0
 14 15  1  0
 15 16  2  0
 15 17  1  0
 17 18  2  0
 18 19  1  0
 19 20  2  0
 20 21  1  0
 21 22  1  0
 22 23  2  0
 22 24  1  0
 21 25  2  0
 13 26  1  0
 26 27  2  0
  5 28  1  0
 28 29  1  0
 28  2  2  0
 27 10  1  0
 25 17  1  0
  1 30  1  0
  1 31  1  0
  1 32  1  0
 11 33  1  0
 12 34  1  0
 14 35  1  0
 18 36  1  0
 19 37  1  0
 20 38  1  0
 25 39  1  0
 26 40  1  0
 27 41  1  0
 29 42  1  0
 29 43  1  0
 29 44  1  0
M  CHG  3   3  -1  22   1  24  -1
M  END
>  <UniqueID>  (12) 
11

>  <SMILES>  (12) 
Cc1[n-]oc(=NS(=O)(=O)c2ccc(NC(=O)c3cccc([N+](=O)[O-])c3)cc2)c1C

>  <Energy>  (12) 
92.60303250414312

>  <Genealogy>  (12) 
Cc1[n-]oc(=NS(=O)(=O)c2ccc(NC(=O)c3cccc([N+](=O)[O-])c3)cc2)c1C (protonated)
Cc1[n-]oc(=NS(=O)(=O)c2ccc(NC(=O)c3cccc([N+](=O)[O-])c3)cc2)c1C (3D coordinates assigned)
Cc1[n-]oc(=NS(=O)(=O)c2ccc(NC(=O)c3cccc([N+](=O)[O-])c3)cc2)c1C (optimized conformer: 92.60303250414312 kcal/mol)

>  <smiles>  (12) 
Cc1[nH]oc(=NS(=O)(=O)c2ccc(NC(=O)c3cccc([N+](=O)[O-])c3)cc2)c1C

>  <score_type>  (12) 
oracle

>  <origin>  (12) 
adgpu

>  <m_score__min__energy>  (12) 
-11.050000000000001

>  <m_primary>  (12) 
energy

$$$$
12:0
     RDKit          3D

 54 57  0  0  0  0  0  0  0  0999 V2000
    1.3060   18.9210  -31.0280 C   0  0  0  0  0  0  0  0  0  0  0  0
    0.7550   19.7010  -32.0820 O   0  0  0  0  0  0  0  0  0  0  0  0
   -0.5910   19.6790  -32.4860 C   0  0  0  0  0  0  0  0  0  0  0  0
   -1.4180   20.8040  -32.2910 C   0  0  0  0  0  0  0  0  0  0  0  0
   -2.7600   20.7960  -32.6970 C   0  0  0  0  0  0  0  0  0  0  0  0
   -3.6340   21.9780  -32.4830 C   0  0  0  0  0  0  0  0  0  0  0  0
   -4.2430   22.4850  -33.4660 O   0  0  0  0  0  0  0  0  0  0  0  0
   -3.7520   22.5870  -31.1860 N   0  0  0  0  0  0  0  0  0  0  0  0
   -4.8500   23.4380  -30.8110 C   0  0  0  0  0  0  0  0  0  0  0  0
   -6.1670   22.9450  -30.7710 C   0  0  0  0  0  0  0  0  0  0  0  0
   -7.2250   23.7790  -30.3980 C   0  0  0  0  0  0  0  0  0  0  0  0
   -6.9790   25.1050  -30.0430 C   0  0  0  0  0  0  0  0  0  0  0  0
   -5.6740   25.6010  -30.0570 C   0  0  0  0  0  0  0  0  0  0  0  0
   -4.6100   24.7750  -30.4360 C   0  0  0  0  0  0  0  0  0  0  0  0
   -3.3190   25.2910  -30.4480 O   0  0  0  0  0  0  0  0  0  0  0  0
   -3.2800   19.6410  -33.2940 C   0  0  0  0  0  0  0  0  0  0  0  0
   -2.4770   18.5160  -33.5090 C   0  0  0  0  0  0  0  0  0  0  0  0
   -3.2290   17.0930  -34.2490 S   0  0  0  0  0  0  0  0  0  0  0  0
   -2.3660   15.8720  -34.0970 O   0  0  0  0  0  0  0  0  0  0  0  0
   -3.3900   17.3760  -35.7170 O   0  0  0  0  0  0  0  0  0  0  0  0
   -4.7790   16.8060  -33.5040 N   0  0  0  0  0  0  0  0  0  0  0  0
   -5.0370   15.5140  -32.8570 C   0  0  0  0  0  0  0  0  0  0  0  0
   -5.3230   15.7500  -31.3700 C   0  0  0  0  0  0  0  0  0  0  0  0
   -6.3570   16.7270  -31.2110 O   0  0  0  0  0  0  0  0  0  0  0  0
   -6.5010   17.8120  -32.0910 C   0  0  0  0  0  0  0  0  0  0  0  0
   -7.4390   18.8130  -31.8210 C   0  0  0  0  0  0  0  0  0  0  0  0
   -7.6080   19.8730  -32.7170 C   0  0  0  0  0  0  0  0  0  0  0  0
   -6.8550   19.9230  -33.8940 C   0  0  0  0  0  0  0  0  0  0  0  0
   -5.9200   18.9210  -34.1720 C   0  0  0  0  0  0  0  0  0  0  0  0
   -5.7170   17.8710  -33.2580 C   0  0  0  0  0  0  0  0  0  0  0  0
   -1.1280   18.5160  -33.0980 C   0  0  0  0  0  0  0  0  0  0  0  0
   -0.3800   17.3420  -33.3110 O   0  0  0  0  0  0  0  0  0  0  0  0
    0.5440   17.0980  -34.3620 C   0  0  0  0  0  0  0  0  0  0  0  0
    1.0046   19.3476  -30.0599 H   0  0  0  0  0  0  0  0  0  0  0  0
    0.9362   17.8879  -31.1045 H   0  0  0  0  0  0  0  0  0  0  0  0
    2.4033   18.9243  -31.1045 H   0  0  0  0  0  0  0  0  0  0  0  0
   -1.0034   21.7033  -31.8122 H   0  0  0  0  0  0  0  0  0  0  0  0
   -2.9330   22.5190  -30.5400 H   0  0  0  0  0  0  0  0  0  0  0  0
   -6.3656   21.8958  -31.0351 H   0  0  0  0  0  0  0  0  0  0  0  0
   -8.2533   23.3887  -30.3845 H   0  0  0  0  0  0  0  0  0  0  0  0
   -7.8132   25.7602  -29.7519 H   0  0  0  0  0  0  0  0  0  0  0  0
   -5.4815   26.6450  -29.7690 H   0  0  0  0  0  0  0  0  0  0  0  0
   -4.3367   19.6180  -33.5987 H   0  0  0  0  0  0  0  0  0  0  0  0
   -5.9066   15.0326  -33.3281 H   0  0  0  0  0  0  0  0  0  0  0  0
   -4.1591   14.8605  -32.9679 H   0  0  0  0  0  0  0  0  0  0  0  0
   -5.6431   14.8046  -30.9077 H   0  0  0  0  0  0  0  0  0  0  0  0
   -4.4070   16.1166  -30.8837 H   0  0  0  0  0  0  0  0  0  0  0  0
   -8.0441   18.7666  -30.9036 H   0  0  0  0  0  0  0  0  0  0  0  0
   -8.3345   20.6688  -32.4956 H   0  0  0  0  0  0  0  0  0  0  0  0
   -6.9983   20.7520  -34.6026 H   0  0  0  0  0  0  0  0  0  0  0  0
   -5.3420   18.9539  -35.1073 H   0  0  0  0  0  0  0  0  0  0  0  0
    1.5244   16.8391  -33.9356 H   0  0  0  0  0  0  0  0  0  0  0  0
    0.1823   16.2646  -34.9821 H   0  0  0  0  0  0  0  0  0  0  0  0
    0.6409   18.0013  -34.9821 H   0  0  0  0  0  0  0  0  0  0  0  0
  1  2  1  0
  2  3  1  0
  3  4  2  0
  4  5  1  0
  5  6  1  0
  6  7  2  0
  6  8  1  0
  8  9  1  0
  9 10  2  0
 10 11  1  0
 11 12  2  0
 12 13  1  0
 13 14  2  0
 14 15  1  0
  5 16  2  0
 16 17  1  0
 17 18  1  0
 18 19  2  0
 18 20  2  0
 18 21  1  0
 21 22  1  0
 22 23  1  0
 23 24  1  0
 24 25  1  0
 25 26  2  0
 26 27  1  0
 27 28  2  0
 28 29  1  0
 29 30  2  0
 17 31  2  0
 31 32  1  0
 32 33  1  0
 31  3  1  0
 14  9  1  0
 30 21  1  0
 30 25  1  0
  1 34  1  0
  1 35  1  0
  1 36  1  0
  4 37  1  0
  8 38  1  0
 10 39  1  0
 11 40  1  0
 12 41  1  0
 13 42  1  0
 16 43  1  0
 22 44  1  0
 22 45  1  0
 23 46  1  0
 23 47  1  0
 26 48  1  0
 27 49  1  0
 28 50  1  0
 29 51  1  0
 33 52  1  0
 33 53  1  0
 33 54  1  0
M  CHG  1  15  -1
M  END
>  <UniqueID>  (13) 
12

>  <SMILES>  (13) 
COc1cc(C(=O)Nc2ccccc2[O-])cc(S(=O)(=O)N2CCOc3ccccc32)c1OC

>  <Energy>  (13) 
72.54376966061945

>  <Genealogy>  (13) 
COc1cc(C(=O)Nc2ccccc2[O-])cc(S(=O)(=O)N2CCOc3ccccc32)c1OC (protonated)
COc1cc(C(=O)Nc2ccccc2[O-])cc(S(=O)(=O)N2CCOc3ccccc32)c1OC (3D coordinates assigned)
COc1cc(C(=O)Nc2ccccc2[O-])cc(S(=O)(=O)N2CCOc3ccccc32)c1OC (nonaromatic ring conformer: 72.54376966061945 kcal/mol)

>  <smiles>  (13) 
COc1cc(C(=O)Nc2ccccc2O)cc(S(=O)(=O)N2CCOc3ccccc32)c1OC

>  <score_type>  (13) 
oracle

>  <origin>  (13) 
adgpu

>  <m_score__min__energy>  (13) 
-11.050000000000001

>  <m_primary>  (13) 
energy

$$$$
13:0
     RDKit          3D

 40 42  0  0  0  0  0  0  0  0999 V2000
    0.1520   23.0130  -27.1010 O   0  0  0  0  0  0  0  0  0  0  0  0
    0.0480   24.4350  -27.5760 S   0  0  0  0  0  0  0  0  0  0  0  0
    1.3640   24.8480  -28.1720 O   0  0  0  0  0  0  0  0  0  0  0  0
   -1.1880   24.5410  -28.7900 N   0  0  0  0  0  0  0  0  0  0  0  0
   -2.4630   23.8760  -28.6930 C   0  0  0  0  0  0  0  0  0  0  0  0
   -2.6740   22.8300  -27.7750 C   0  0  0  0  0  0  0  0  0  0  0  0
   -3.9150   22.1980  -27.6950 C   0  0  0  0  0  0  0  0  0  0  0  0
   -4.9600   22.5930  -28.5290 C   0  0  0  0  0  0  0  0  0  0  0  0
   -4.7720   23.6300  -29.4530 C   0  0  0  0  0  0  0  0  0  0  0  0
   -6.0940   24.1110  -30.5170 S   0  0  0  0  0  0  0  0  0  0  0  0
   -5.5600   25.0200  -31.5890 O   0  0  0  0  0  0  0  0  0  0  0  0
   -7.1490   24.8580  -29.7490 O   0  0  0  0  0  0  0  0  0  0  0  0
   -6.8160   22.6710  -31.2270 C   0  0  0  0  0  0  0  0  0  0  0  0
   -8.0970   22.2680  -30.8240 C   0  0  0  0  0  0  0  0  0  0  0  0
   -8.6760   21.1170  -31.3700 C   0  0  0  0  0  0  0  0  0  0  0  0
   -7.9750   20.3630  -32.3160 C   0  0  0  0  0  0  0  0  0  0  0  0
   -6.6960   20.7580  -32.7160 C   0  0  0  0  0  0  0  0  0  0  0  0
   -6.1150   21.9090  -32.1740 C   0  0  0  0  0  0  0  0  0  0  0  0
   -3.5210   24.2670  -29.5380 C   0  0  0  0  0  0  0  0  0  0  0  0
   -3.3300   25.2930  -30.4590 O   0  0  0  0  0  0  0  0  0  0  0  0
   -0.3280   25.5160  -26.2370 C   0  0  0  0  0  0  0  0  0  0  0  0
   -0.6240   26.8670  -26.4740 C   0  0  0  0  0  0  0  0  0  0  0  0
   -0.9110   27.7190  -25.4030 C   0  0  0  0  0  0  0  0  0  0  0  0
   -0.9060   27.2280  -24.0940 C   0  0  0  0  0  0  0  0  0  0  0  0
   -0.6170   25.8810  -23.8550 C   0  0  0  0  0  0  0  0  0  0  0  0
   -0.3300   25.0250  -24.9240 C   0  0  0  0  0  0  0  0  0  0  0  0
   -1.0090   25.2000  -29.5790 H   0  0  0  0  0  0  0  0  0  0  0  0
   -1.8542   22.5086  -27.1158 H   0  0  0  0  0  0  0  0  0  0  0  0
   -4.0697   21.3846  -26.9708 H   0  0  0  0  0  0  0  0  0  0  0  0
   -5.9355   22.0891  -28.4616 H   0  0  0  0  0  0  0  0  0  0  0  0
   -8.6482   22.8580  -30.0769 H   0  0  0  0  0  0  0  0  0  0  0  0
   -9.6828   20.8054  -31.0549 H   0  0  0  0  0  0  0  0  0  0  0  0
   -8.4306   19.4586  -32.7454 H   0  0  0  0  0  0  0  0  0  0  0  0
   -6.1448   20.1625  -33.4587 H   0  0  0  0  0  0  0  0  0  0  0  0
   -5.1076   22.2172  -32.4904 H   0  0  0  0  0  0  0  0  0  0  0  0
   -0.6303   27.2561  -27.5029 H   0  0  0  0  0  0  0  0  0  0  0  0
   -1.1413   28.7781  -25.5909 H   0  0  0  0  0  0  0  0  0  0  0  0
   -1.1292   27.9008  -23.2528 H   0  0  0  0  0  0  0  0  0  0  0  0
   -0.6153   25.4938  -22.8254 H   0  0  0  0  0  0  0  0  0  0  0  0
   -0.1056   23.9651  -24.7338 H   0  0  0  0  0  0  0  0  0  0  0  0
  1  2  2  0
  2  3  2  0
  2  4  1  0
  4  5  1  0
  5  6  2  0
  6  7  1  0
  7  8  2  0
  8  9  1  0
  9 10  1  0
 10 11  2  0
 10 12  2  0
 10 13  1  0
 13 14  2  0
 14 15  1  0
 15 16  2  0
 16 17  1  0
 17 18  2  0
  9 19  2  0
 19 20  1  0
  2 21  1  0
 21 22  2  0
 22 23  1  0
 23 24  2  0
 24 25  1  0
 25 26  2  0
 19  5  1  0
 26 21  1  0
 18 13  1  0
  4 27  1  0
  6 28  1  0
  7 29  1  0
  8 30  1  0
 14 31  1  0
 15 32  1  0
 16 33  1  0
 17 34  1  0
 18 35  1  0
 22 36  1  0
 23 37  1  0
 24 38  1  0
 25 39  1  0
 26 40  1  0
M  CHG  1  20  -1
M  END
>  <UniqueID>  (14) 
13

>  <SMILES>  (14) 
O=S(=O)(Nc1cccc(S(=O)(=O)c2ccccc2)c1[O-])c1ccccc1

>  <Energy>  (14) 
49.084729049207134

>  <Genealogy>  (14) 
O=S(=O)(Nc1cccc(S(=O)(=O)c2ccccc2)c1[O-])c1ccccc1 (protonated)
O=S(=O)(Nc1cccc(S(=O)(=O)c2ccccc2)c1[O-])c1ccccc1 (3D coordinates assigned)
O=S(=O)(Nc1cccc(S(=O)(=O)c2ccccc2)c1[O-])c1ccccc1 (optimized conformer: 49.084729049207134 kcal/mol)

>  <smiles>  (14) 
O=S(=O)(Nc1cccc(S(=O)(=O)c2ccccc2)c1O)c1ccccc1

>  <score_type>  (14) 
oracle

>  <origin>  (14) 
adgpu

>  <m_score__min__energy>  (14) 
-12.68

>  <m_primary>  (14) 
energy

$$$$
14:0
     RDKit          3D

 55 58  0  0  0  0  0  0  0  0999 V2000
   -2.3470   21.7870  -33.3790 N   0  0  0  0  0  0  0  0  0  0  0  0
   -2.3290   20.3610  -33.5690 C   0  0  0  0  0  0  0  0  0  0  0  0
   -3.4760   19.6140  -33.2340 C   0  0  0  0  0  0  0  0  0  0  0  0
   -4.6310   20.2360  -32.6380 N   0  0  0  0  0  0  0  0  0  0  0  0
   -5.8200   20.4910  -33.4590 C   0  0  0  0  0  0  0  0  0  0  0  0
   -7.0180   19.8230  -32.8480 C   0  0  0  0  0  0  0  0  0  0  0  0
   -6.9490   18.4790  -32.4450 C   0  0  0  0  0  0  0  0  0  0  0  0
   -8.0800   17.8420  -31.9250 C   0  0  0  0  0  0  0  0  0  0  0  0
   -9.2880   18.5390  -31.8140 C   0  0  0  0  0  0  0  0  0  0  0  0
   -9.3680   19.8710  -32.2290 C   0  0  0  0  0  0  0  0  0  0  0  0
   -8.2390   20.5110  -32.7500 C   0  0  0  0  0  0  0  0  0  0  0  0
   -4.6260   20.5580  -31.2050 C   0  0  0  0  0  0  0  0  0  0  0  0
   -5.0340   21.9900  -30.9910 C   0  0  0  0  0  0  0  0  0  0  0  0
   -6.3880   22.3600  -31.0580 C   0  0  0  0  0  0  0  0  0  0  0  0
   -6.7590   23.7010  -30.9210 C   0  0  0  0  0  0  0  0  0  0  0  0
   -5.7820   24.6810  -30.7260 C   0  0  0  0  0  0  0  0  0  0  0  0
   -4.4310   24.3230  -30.6740 C   0  0  0  0  0  0  0  0  0  0  0  0
   -3.4620   25.2990  -30.4900 O   0  0  0  0  0  0  0  0  0  0  0  0
   -4.0570   22.9810  -30.8100 C   0  0  0  0  0  0  0  0  0  0  0  0
   -3.4480   18.2280  -33.4080 C   0  0  0  0  0  0  0  0  0  0  0  0
   -4.4480   17.5270  -33.0940 O   0  0  0  0  0  0  0  0  0  0  0  0
   -2.3360   17.6300  -33.8950 N   0  0  0  0  0  0  0  0  0  0  0  0
   -1.2310   18.3500  -34.2210 C   0  0  0  0  0  0  0  0  0  0  0  0
   -0.2160   17.7420  -34.6610 O   0  0  0  0  0  0  0  0  0  0  0  0
   -1.2160   19.7170  -34.0720 N   0  0  0  0  0  0  0  0  0  0  0  0
    0.0090   20.4520  -34.4540 C   0  0  0  0  0  0  0  0  0  0  0  0
    1.1860   20.0090  -33.6200 C   0  0  0  0  0  0  0  0  0  0  0  0
    2.4640   19.8680  -34.1930 C   0  0  0  0  0  0  0  0  0  0  0  0
    3.5460   19.4530  -33.4130 C   0  0  0  0  0  0  0  0  0  0  0  0
    3.3660   19.1670  -32.0570 C   0  0  0  0  0  0  0  0  0  0  0  0
    2.1010   19.2970  -31.4790 C   0  0  0  0  0  0  0  0  0  0  0  0
    1.0140   19.7140  -32.2550 C   0  0  0  0  0  0  0  0  0  0  0  0
   -2.1930   22.2310  -32.4500 H   0  0  0  0  0  0  0  0  0  0  0  0
   -2.6450   22.4300  -34.1440 H   0  0  0  0  0  0  0  0  0  0  0  0
   -5.9972   21.5751  -33.5169 H   0  0  0  0  0  0  0  0  0  0  0  0
   -5.6559   20.0858  -34.4684 H   0  0  0  0  0  0  0  0  0  0  0  0
   -6.0026   17.9262  -32.5388 H   0  0  0  0  0  0  0  0  0  0  0  0
   -8.0199   16.7919  -31.6029 H   0  0  0  0  0  0  0  0  0  0  0  0
  -10.1754   18.0382  -31.3998 H   0  0  0  0  0  0  0  0  0  0  0  0
  -10.3196   20.4164  -32.1458 H   0  0  0  0  0  0  0  0  0  0  0  0
   -8.3072   21.5568  -33.0843 H   0  0  0  0  0  0  0  0  0  0  0  0
   -5.3329   19.8971  -30.6820 H   0  0  0  0  0  0  0  0  0  0  0  0
   -3.6103   20.4119  -30.8087 H   0  0  0  0  0  0  0  0  0  0  0  0
   -7.1587   21.5918  -31.2188 H   0  0  0  0  0  0  0  0  0  0  0  0
   -7.8207   23.9849  -30.9667 H   0  0  0  0  0  0  0  0  0  0  0  0
   -6.0758   25.7350  -30.6133 H   0  0  0  0  0  0  0  0  0  0  0  0
   -2.9935   22.7022  -30.7749 H   0  0  0  0  0  0  0  0  0  0  0  0
   -2.3240   16.5910  -34.0150 H   0  0  0  0  0  0  0  0  0  0  0  0
    0.2274   20.2609  -35.5150 H   0  0  0  0  0  0  0  0  0  0  0  0
   -0.1581   21.5257  -34.2830 H   0  0  0  0  0  0  0  0  0  0  0  0
    2.6115   20.0859  -35.2611 H   0  0  0  0  0  0  0  0  0  0  0  0
    4.5425   19.3510  -33.8674 H   0  0  0  0  0  0  0  0  0  0  0  0
    4.2197   18.8398  -31.4454 H   0  0  0  0  0  0  0  0  0  0  0  0
    1.9592   19.0711  -30.4118 H   0  0  0  0  0  0  0  0  0  0  0  0
    0.0194   19.8118  -31.7954 H   0  0  0  0  0  0  0  0  0  0  0  0
  1  2  1  0
  2  3  2  0
  3  4  1  0
  4  5  1  0
  5  6  1  0
  6  7  2  0
  7  8  1  0
  8  9  2  0
  9 10  1  0
 10 11  2  0
  4 12  1  0
 12 13  1  0
 13 14  2  0
 14 15  1  0
 15 16  2  0
 16 17  1  0
 17 18  1  0
 17 19  2  0
  3 20  1  0
 20 21  2  0
 20 22  1  0
 22 23  1  0
 23 24  2  0
 23 25  1  0
 25 26  1  0
 26 27  1  0
 27 28  2  0
 28 29  1  0
 29 30  2  0
 30 31  1  0
 31 32  2  0
 25  2  1  0
 32 27  1  0
 11  6  1  0
 19 13  1  0
  1 33  1  0
  1 34  1  0
  5 35  1  0
  5 36  1  0
  7 37  1  0
  8 38  1  0
  9 39  1  0
 10 40  1  0
 11 41  1  0
 12 42  1  0
 12 43  1  0
 14 44  1  0
 15 45  1  0
 16 46  1  0
 19 47  1  0
 22 48  1  0
 26 49  1  0
 26 50  1  0
 28 51  1  0
 29 52  1  0
 30 53  1  0
 31 54  1  0
 32 55  1  0
M  CHG  1  18  -1
M  END
>  <UniqueID>  (15) 
14

>  <SMILES>  (15) 
Nc1c(N(Cc2ccccc2)Cc2cccc([O-])c2)c(=O)[nH]c(=O)n1Cc1ccccc1

>  <Energy>  (15) 
67.80100596962711

>  <Genealogy>  (15) 
Nc1c(N(Cc2ccccc2)Cc2cccc([O-])c2)c(=O)[nH]c(=O)n1Cc1ccccc1 (protonated)
Nc1c(N(Cc2ccccc2)Cc2cccc([O-])c2)c(=O)[nH]c(=O)n1Cc1ccccc1 (3D coordinates assigned)
Nc1c(N(Cc2ccccc2)Cc2cccc([O-])c2)c(=O)[nH]c(=O)n1Cc1ccccc1 (optimized conformer: 67.80100596962711 kcal/mol)

>  <smiles>  (15) 
Nc1c(N(Cc2ccccc2)Cc2cccc(O)c2)c(=O)[nH]c(=O)n1Cc1ccccc1

>  <score_type>  (15) 
oracle

>  <origin>  (15) 
adgpu

>  <m_score__min__energy>  (15) 
-11.5

>  <m_primary>  (15) 
energy

$$$$
15:0
     RDKit          3D

 56 59  0  0  0  0  0  0  0  0999 V2000
   -3.2690   24.2580  -30.4860 O   0  0  0  0  0  0  0  0  0  0  0  0
   -2.8300   23.0830  -30.3370 C   0  0  0  0  0  0  0  0  0  0  0  0
   -1.9750   22.7760  -29.2250 N   0  0  0  0  0  0  0  0  0  0  0  0
   -1.1710   23.7590  -28.5550 C   0  0  0  0  0  0  0  0  0  0  0  0
   -1.7170   24.9880  -28.1520 C   0  0  0  0  0  0  0  0  0  0  0  0
   -0.9100   25.9550  -27.5470 C   0  0  0  0  0  0  0  0  0  0  0  0
    0.4520   25.7010  -27.3260 C   0  0  0  0  0  0  0  0  0  0  0  0
    1.4690   26.9190  -26.5550 S   0  0  0  0  0  0  0  0  0  0  0  0
    1.0370   28.2860  -27.0170 O   0  0  0  0  0  0  0  0  0  0  0  0
    2.8940   26.7160  -26.9960 O   0  0  0  0  0  0  0  0  0  0  0  0
    1.3950   26.8440  -24.8060 N   0  0  0  0  0  0  0  0  0  0  0  0
    0.7060   28.0080  -24.2160 C   0  0  0  0  0  0  0  0  0  0  0  0
   -0.8340   27.8610  -24.2040 C   0  0  0  0  0  0  0  0  0  0  0  0
   -1.2760   26.5560  -24.5300 O   0  0  0  0  0  0  0  0  0  0  0  0
   -0.5410   25.6090  -23.7900 C   0  0  0  0  0  0  0  0  0  0  0  0
    0.9010   25.5420  -24.3100 C   0  0  0  0  0  0  0  0  0  0  0  0
    1.0000   24.4800  -27.7350 C   0  0  0  0  0  0  0  0  0  0  0  0
    0.1960   23.5200  -28.3550 C   0  0  0  0  0  0  0  0  0  0  0  0
   -3.2330   22.0240  -31.2890 C   0  0  0  0  0  0  0  0  0  0  0  0
   -2.9660   20.6720  -31.0100 C   0  0  0  0  0  0  0  0  0  0  0  0
   -3.3190   19.6750  -31.9230 C   0  0  0  0  0  0  0  0  0  0  0  0
   -3.9620   20.0090  -33.1270 C   0  0  0  0  0  0  0  0  0  0  0  0
   -4.3620   19.0210  -34.0860 N   0  0  0  0  0  0  0  0  0  0  0  0
   -5.6650   17.8860  -33.9110 S   0  0  0  0  0  0  0  0  0  0  0  0
   -5.1690   16.6970  -33.1380 O   0  0  0  0  0  0  0  0  0  0  0  0
   -6.1330   17.4040  -35.2550 O   0  0  0  0  0  0  0  0  0  0  0  0
   -6.9900   18.6370  -33.0130 C   0  0  0  0  0  0  0  0  0  0  0  0
   -7.1830   20.0250  -33.0950 C   0  0  0  0  0  0  0  0  0  0  0  0
   -8.2410   20.6260  -32.4070 C   0  0  0  0  0  0  0  0  0  0  0  0
   -9.1170   19.8450  -31.6430 C   0  0  0  0  0  0  0  0  0  0  0  0
   -8.9300   18.4610  -31.5600 C   0  0  0  0  0  0  0  0  0  0  0  0
   -7.8690   17.8600  -32.2380 C   0  0  0  0  0  0  0  0  0  0  0  0
   -4.2340   21.3550  -33.4030 C   0  0  0  0  0  0  0  0  0  0  0  0
   -3.8630   22.3570  -32.5010 C   0  0  0  0  0  0  0  0  0  0  0  0
   -2.0010   21.8080  -28.8340 H   0  0  0  0  0  0  0  0  0  0  0  0
   -2.7860   25.1908  -28.3134 H   0  0  0  0  0  0  0  0  0  0  0  0
   -1.3441   26.9189  -27.2429 H   0  0  0  0  0  0  0  0  0  0  0  0
    1.0537   28.1322  -23.1798 H   0  0  0  0  0  0  0  0  0  0  0  0
    0.9468   28.8818  -24.8393 H   0  0  0  0  0  0  0  0  0  0  0  0
   -1.2006   28.1123  -23.1978 H   0  0  0  0  0  0  0  0  0  0  0  0
   -1.2314   28.5403  -24.9725 H   0  0  0  0  0  0  0  0  0  0  0  0
   -0.5328   25.9019  -22.7297 H   0  0  0  0  0  0  0  0  0  0  0  0
   -1.0111   24.6206  -23.9001 H   0  0  0  0  0  0  0  0  0  0  0  0
    1.5544   25.2078  -23.4906 H   0  0  0  0  0  0  0  0  0  0  0  0
    0.9142   24.8398  -25.1566 H   0  0  0  0  0  0  0  0  0  0  0  0
    2.0678   24.2752  -27.5678 H   0  0  0  0  0  0  0  0  0  0  0  0
    0.6387   22.5699  -28.6886 H   0  0  0  0  0  0  0  0  0  0  0  0
   -2.4750   20.3969  -30.0649 H   0  0  0  0  0  0  0  0  0  0  0  0
   -3.0922   18.6224  -31.6980 H   0  0  0  0  0  0  0  0  0  0  0  0
   -6.5014   20.6400  -33.7009 H   0  0  0  0  0  0  0  0  0  0  0  0
   -8.3858   21.7148  -32.4658 H   0  0  0  0  0  0  0  0  0  0  0  0
   -9.9525   20.3199  -31.1079 H   0  0  0  0  0  0  0  0  0  0  0  0
   -9.6188   17.8473  -30.9608 H   0  0  0  0  0  0  0  0  0  0  0  0
   -7.7194   16.7726  -32.1659 H   0  0  0  0  0  0  0  0  0  0  0  0
   -4.7446   21.6265  -34.3387 H   0  0  0  0  0  0  0  0  0  0  0  0
   -4.0651   23.4113  -32.7409 H   0  0  0  0  0  0  0  0  0  0  0  0
  1  2  2  0
  2  3  1  0
  3  4  1  0
  4  5  2  0
  5  6  1  0
  6  7  2  0
  7  8  1  0
  8  9  2  0
  8 10  2  0
  8 11  1  0
 11 12  1  0
 12 13  1  0
 13 14  1  0
 14 15  1  0
 15 16  1  0
  7 17  1  0
 17 18  2  0
  2 19  1  0
 19 20  2  0
 20 21  1  0
 21 22  2  0
 22 23  1  0
 23 24  1  0
 24 25  2  0
 24 26  2  0
 24 27  1  0
 27 28  2  0
 28 29  1  0
 29 30  2  0
 30 31  1  0
 31 32  2  0
 22 33  1  0
 33 34  2  0
 18  4  1  0
 34 19  1  0
 16 11  1  0
 32 27  1  0
  3 35  1  0
  5 36  1  0
  6 37  1  0
 12 38  1  0
 12 39  1  0
 13 40  1  0
 13 41  1  0
 15 42  1  0
 15 43  1  0
 16 44  1  0
 16 45  1  0
 17 46  1  0
 18 47  1  0
 20 48  1  0
 21 49  1  0
 28 50  1  0
 29 51  1  0
 30 52  1  0
 31 53  1  0
 32 54  1  0
 33 55  1  0
 34 56  1  0
M  CHG  1  23  -1
M  END
>  <UniqueID>  (16) 
15

>  <SMILES>  (16) 
O=C(Nc1ccc(S(=O)(=O)N2CCOCC2)cc1)c1ccc([N-]S(=O)(=O)c2ccccc2)cc1

>  <Energy>  (16) 
80.73901717180806

>  <Genealogy>  (16) 
O=C(Nc1ccc(S(=O)(=O)N2CCOCC2)cc1)c1ccc([N-]S(=O)(=O)c2ccccc2)cc1 (protonated)
O=C(Nc1ccc(S(=O)(=O)N2CCOCC2)cc1)c1ccc([N-]S(=O)(=O)c2ccccc2)cc1 (3D coordinates assigned)
O=C(Nc1ccc(S(=O)(=O)N2CCOCC2)cc1)c1ccc([N-]S(=O)(=O)c2ccccc2)cc1 (nonaromatic ring conformer: 80.73901717180806 kcal/mol)

>  <smiles>  (16) 
O=C(Nc1ccc(S(=O)(=O)N2CCOCC2)cc1)c1ccc(NS(=O)(=O)c2ccccc2)cc1

>  <score_type>  (16) 
oracle

>  <origin>  (16) 
adgpu

>  <m_score__min__energy>  (16) 
-10.57

>  <m_primary>  (16) 
energy

$$$$
16:0
     RDKit          3D

 55 58  0  0  0  0  0  0  0  0999 V2000
   -4.2630   24.5490  -27.7660 O   0  0  0  0  0  0  0  0  0  0  0  0
   -4.0060   24.4870  -28.9980 C   0  0  0  0  0  0  0  0  0  0  0  0
   -2.7220   24.9200  -29.4660 N   0  0  0  0  0  0  0  0  0  0  0  0
   -1.5550   25.0660  -28.6380 C   0  0  0  0  0  0  0  0  0  0  0  0
   -1.1350   26.3350  -28.1980 C   0  0  0  0  0  0  0  0  0  0  0  0
    0.0180   26.4710  -27.4240 C   0  0  0  0  0  0  0  0  0  0  0  0
    0.7720   25.3470  -27.0910 C   0  0  0  0  0  0  0  0  0  0  0  0
    0.3750   24.0850  -27.5330 C   0  0  0  0  0  0  0  0  0  0  0  0
   -0.7830   23.9370  -28.3140 C   0  0  0  0  0  0  0  0  0  0  0  0
   -1.1870   22.6260  -28.7350 N   0  0  0  0  0  0  0  0  0  0  0  0
   -0.5930   22.0920  -29.9700 C   0  0  0  0  0  0  0  0  0  0  0  0
   -1.3170   20.8410  -30.5120 C   0  0  0  0  0  0  0  0  0  0  0  0
   -2.6460   20.7360  -30.0510 O   0  0  0  0  0  0  0  0  0  0  0  0
   -2.6380   20.6360  -28.6480 C   0  0  0  0  0  0  0  0  0  0  0  0
   -2.3240   22.0000  -28.0540 C   0  0  0  0  0  0  0  0  0  0  0  0
   -5.0290   23.9870  -29.9370 C   0  0  0  0  0  0  0  0  0  0  0  0
   -6.2230   24.6930  -30.1210 C   0  0  0  0  0  0  0  0  0  0  0  0
   -7.2320   24.1690  -30.9340 C   0  0  0  0  0  0  0  0  0  0  0  0
   -7.0460   22.9490  -31.5890 C   0  0  0  0  0  0  0  0  0  0  0  0
   -8.0500   22.4540  -32.3570 F   0  0  0  0  0  0  0  0  0  0  0  0
   -5.8440   22.2420  -31.4280 C   0  0  0  0  0  0  0  0  0  0  0  0
   -5.5980   20.6670  -32.1980 S   0  0  0  0  0  0  0  0  0  0  0  0
   -6.1070   19.5810  -31.2930 O   0  0  0  0  0  0  0  0  0  0  0  0
   -6.4140   20.6230  -33.4630 O   0  0  0  0  0  0  0  0  0  0  0  0
   -3.9130   20.3580  -32.5570 N   0  0  0  0  0  0  0  0  0  0  0  0
   -3.7520   19.1260  -33.3530 C   0  0  0  0  0  0  0  0  0  0  0  0
   -2.2490   18.8570  -33.6190 C   0  0  0  0  0  0  0  0  0  0  0  0
   -1.4270   19.9370  -33.2180 O   0  0  0  0  0  0  0  0  0  0  0  0
   -1.8950   21.1400  -33.7960 C   0  0  0  0  0  0  0  0  0  0  0  0
   -3.2950   21.5060  -33.2610 C   0  0  0  0  0  0  0  0  0  0  0  0
   -4.8430   22.7620  -30.5950 C   0  0  0  0  0  0  0  0  0  0  0  0
   -1.7203   27.2268  -28.4664 H   0  0  0  0  0  0  0  0  0  0  0  0
    0.3322   27.4662  -27.0763 H   0  0  0  0  0  0  0  0  0  0  0  0
    1.6801   25.4552  -26.4797 H   0  0  0  0  0  0  0  0  0  0  0  0
    0.9725   23.2002  -27.2683 H   0  0  0  0  0  0  0  0  0  0  0  0
   -0.6289   22.8761  -30.7407 H   0  0  0  0  0  0  0  0  0  0  0  0
    0.4369   21.7901  -29.7288 H   0  0  0  0  0  0  0  0  0  0  0  0
   -1.3290   20.8903  -31.6108 H   0  0  0  0  0  0  0  0  0  0  0  0
   -0.7698   19.9584  -30.1491 H   0  0  0  0  0  0  0  0  0  0  0  0
   -3.6248   20.2997  -28.2970 H   0  0  0  0  0  0  0  0  0  0  0  0
   -1.8745   19.9096  -28.3325 H   0  0  0  0  0  0  0  0  0  0  0  0
   -3.2063   22.6486  -28.1587 H   0  0  0  0  0  0  0  0  0  0  0  0
   -2.0642   21.8665  -26.9935 H   0  0  0  0  0  0  0  0  0  0  0  0
   -6.3680   25.6636  -29.6242 H   0  0  0  0  0  0  0  0  0  0  0  0
   -8.1763   24.7193  -31.0586 H   0  0  0  0  0  0  0  0  0  0  0  0
   -3.4310   20.2280  -31.6350 H   0  0  0  0  0  0  0  0  0  0  0  0
   -4.1814   18.2772  -32.8007 H   0  0  0  0  0  0  0  0  0  0  0  0
   -4.2719   19.2480  -34.3147 H   0  0  0  0  0  0  0  0  0  0  0  0
   -1.9473   17.9579  -33.0617 H   0  0  0  0  0  0  0  0  0  0  0  0
   -2.1197   18.7225  -34.7031 H   0  0  0  0  0  0  0  0  0  0  0  0
   -1.1939   21.9519  -33.5526 H   0  0  0  0  0  0  0  0  0  0  0  0
   -1.9628   21.0009  -34.8851 H   0  0  0  0  0  0  0  0  0  0  0  0
   -3.2031   22.3496  -32.5611 H   0  0  0  0  0  0  0  0  0  0  0  0
   -3.9347   21.7792  -34.1132 H   0  0  0  0  0  0  0  0  0  0  0  0
   -3.9046   22.2051  -30.4564 H   0  0  0  0  0  0  0  0  0  0  0  0
  1  2  2  0
  2  3  1  0
  3  4  1  0
  4  5  2  0
  5  6  1  0
  6  7  2  0
  7  8  1  0
  8  9  2  0
  9 10  1  0
 10 11  1  0
 11 12  1  0
 12 13  1  0
 13 14  1  0
 14 15  1  0
  2 16  1  0
 16 17  2  0
 17 18  1  0
 18 19  2  0
 19 20  1  0
 19 21  1  0
 21 22  1  0
 22 23  2  0
 22 24  2  0
 22 25  1  0
 25 26  1  0
 26 27  1  0
 27 28  1  0
 28 29  1  0
 29 30  1  0
 21 31  2  0
  9  4  1  0
 15 10  1  0
 31 16  1  0
 30 25  1  0
  5 32  1  0
  6 33  1  0
  7 34  1  0
  8 35  1  0
 11 36  1  0
 11 37  1  0
 12 38  1  0
 12 39  1  0
 14 40  1  0
 14 41  1  0
 15 42  1  0
 15 43  1  0
 17 44  1  0
 18 45  1  0
 25 46  1  0
 26 47  1  0
 26 48  1  0
 27 49  1  0
 27 50  1  0
 29 51  1  0
 29 52  1  0
 30 53  1  0
 30 54  1  0
 31 55  1  0
M  CHG  2   3  -1  25   1
M  END
>  <UniqueID>  (17) 
16

>  <SMILES>  (17) 
O=C([N-]c1ccccc1N1CCOCC1)c1ccc(F)c(S(=O)(=O)[NH+]2CCOCC2)c1

>  <Energy>  (17) 
78.77325336070507

>  <Genealogy>  (17) 
O=C([N-]c1ccccc1N1CCOCC1)c1ccc(F)c(S(=O)(=O)[NH+]2CCOCC2)c1 (protonated)
O=C([N-]c1ccccc1N1CCOCC1)c1ccc(F)c(S(=O)(=O)[NH+]2CCOCC2)c1 (3D coordinates assigned)
O=C([N-]c1ccccc1N1CCOCC1)c1ccc(F)c(S(=O)(=O)[NH+]2CCOCC2)c1 (nonaromatic ring conformer: 78.77325336070507 kcal/mol)

>  <smiles>  (17) 
O=C(Nc1ccccc1N1CCOCC1)c1ccc(F)c(S(=O)(=O)N2CCOCC2)c1

>  <score_type>  (17) 
oracle

>  <origin>  (17) 
adgpu

>  <m_score__min__energy>  (17) 
-9.7200000000000006

>  <m_primary>  (17) 
energy

$$$$
17:0
     RDKit          3D

 45 47  0  0  0  0  0  0  0  0999 V2000
   -9.0740   21.4990  -31.0320 C   0  0  0  0  0  0  0  0  0  0  0  0
   -8.3320   22.3490  -31.8950 O   0  0  0  0  0  0  0  0  0  0  0  0
   -7.1100   22.9520  -31.5560 C   0  0  0  0  0  0  0  0  0  0  0  0
   -5.8680   22.4090  -31.9400 C   0  0  0  0  0  0  0  0  0  0  0  0
   -4.6780   23.0540  -31.5840 C   0  0  0  0  0  0  0  0  0  0  0  0
   -4.7080   24.2270  -30.8160 C   0  0  0  0  0  0  0  0  0  0  0  0
   -3.4750   24.8650  -30.4670 N   0  0  0  0  0  0  0  0  0  0  0  0
   -2.7350   24.7340  -28.9050 S   0  0  0  0  0  0  0  0  0  0  0  0
   -3.7950   24.9010  -27.8520 O   0  0  0  0  0  0  0  0  0  0  0  0
   -1.7320   25.8440  -28.7450 O   0  0  0  0  0  0  0  0  0  0  0  0
   -1.9570   23.1700  -28.6750 C   0  0  0  0  0  0  0  0  0  0  0  0
   -0.5760   23.0880  -28.4480 C   0  0  0  0  0  0  0  0  0  0  0  0
    0.0350   21.8440  -28.2610 C   0  0  0  0  0  0  0  0  0  0  0  0
   -0.7280   20.6610  -28.3000 C   0  0  0  0  0  0  0  0  0  0  0  0
   -0.0820   19.3410  -28.0840 C   0  0  0  0  0  0  0  0  0  0  0  0
   -0.7140   18.3550  -27.3000 C   0  0  0  0  0  0  0  0  0  0  0  0
   -0.1060   17.1110  -27.1000 C   0  0  0  0  0  0  0  0  0  0  0  0
    1.1430   16.8340  -27.6740 C   0  0  0  0  0  0  0  0  0  0  0  0
    1.8940   15.2590  -27.4420 S   0  0  0  0  0  0  0  0  0  0  0  0
    1.0280   14.3800  -26.2330 N   0  0  0  0  0  0  0  0  0  0  0  0
    3.3230   15.4340  -27.0140 O   0  0  0  0  0  0  0  0  0  0  0  0
    1.8690   14.4870  -28.7330 O   0  0  0  0  0  0  0  0  0  0  0  0
    1.7780   17.8100  -28.4550 C   0  0  0  0  0  0  0  0  0  0  0  0
    1.1740   19.0550  -28.6580 C   0  0  0  0  0  0  0  0  0  0  0  0
   -2.1150   20.7520  -28.5360 C   0  0  0  0  0  0  0  0  0  0  0  0
   -2.7230   21.9970  -28.7220 C   0  0  0  0  0  0  0  0  0  0  0  0
   -5.9440   24.7720  -30.4380 C   0  0  0  0  0  0  0  0  0  0  0  0
   -7.1350   24.1390  -30.8100 C   0  0  0  0  0  0  0  0  0  0  0  0
   -8.8512   21.7543  -29.9855 H   0  0  0  0  0  0  0  0  0  0  0  0
  -10.1493   21.6329  -31.2211 H   0  0  0  0  0  0  0  0  0  0  0  0
   -8.7961   20.4516  -31.2211 H   0  0  0  0  0  0  0  0  0  0  0  0
   -5.8335   21.4757  -32.5211 H   0  0  0  0  0  0  0  0  0  0  0  0
   -3.7128   22.6381  -31.9088 H   0  0  0  0  0  0  0  0  0  0  0  0
    0.0294   24.0059  -28.4168 H   0  0  0  0  0  0  0  0  0  0  0  0
    1.1190   21.7892  -28.0822 H   0  0  0  0  0  0  0  0  0  0  0  0
   -1.6919   18.5650  -26.8422 H   0  0  0  0  0  0  0  0  0  0  0  0
   -0.6099   16.3469  -26.4899 H   0  0  0  0  0  0  0  0  0  0  0  0
    1.3620   14.7280  -25.3070 H   0  0  0  0  0  0  0  0  0  0  0  0
    0.0220   14.6510  -26.3160 H   0  0  0  0  0  0  0  0  0  0  0  0
    2.7561   17.5955  -28.9103 H   0  0  0  0  0  0  0  0  0  0  0  0
    1.6817   19.8158  -29.2691 H   0  0  0  0  0  0  0  0  0  0  0  0
   -2.7234   19.8364  -28.5741 H   0  0  0  0  0  0  0  0  0  0  0  0
   -3.8059   22.0563  -28.9058 H   0  0  0  0  0  0  0  0  0  0  0  0
   -5.9770   25.6995  -29.8475 H   0  0  0  0  0  0  0  0  0  0  0  0
   -8.1000   24.5766  -30.5145 H   0  0  0  0  0  0  0  0  0  0  0  0
  1  2  1  0
  2  3  1  0
  3  4  2  0
  4  5  1  0
  5  6  2  0
  6  7  1  0
  7  8  1  0
  8  9  2  0
  8 10  2  0
  8 11  1  0
 11 12  2  0
 12 13  1  0
 13 14  2  0
 14 15  1  0
 15 16  2  0
 16 17  1  0
 17 18  2  0
 18 19  1  0
 19 20  1  0
 19 21  2  0
 19 22  2  0
 18 23  1  0
 23 24  2  0
 14 25  1  0
 25 26  2  0
  6 27  1  0
 27 28  2  0
 28  3  1  0
 26 11  1  0
 24 15  1  0
  1 29  1  0
  1 30  1  0
  1 31  1  0
  4 32  1  0
  5 33  1  0
 12 34  1  0
 13 35  1  0
 16 36  1  0
 17 37  1  0
 20 38  1  0
 20 39  1  0
 23 40  1  0
 24 41  1  0
 25 42  1  0
 26 43  1  0
 27 44  1  0
 28 45  1  0
M  CHG  1   7  -1
M  END
>  <UniqueID>  (18) 
17

>  <SMILES>  (18) 
COc1ccc([N-]S(=O)(=O)c2ccc(-c3ccc(S(N)(=O)=O)cc3)cc2)cc1

>  <Energy>  (18) 
58.857663813619986

>  <Genealogy>  (18) 
COc1ccc([N-]S(=O)(=O)c2ccc(-c3ccc(S(N)(=O)=O)cc3)cc2)cc1 (protonated)
COc1ccc([N-]S(=O)(=O)c2ccc(-c3ccc(S(N)(=O)=O)cc3)cc2)cc1 (3D coordinates assigned)
COc1ccc([N-]S(=O)(=O)c2ccc(-c3ccc(S(N)(=O)=O)cc3)cc2)cc1 (optimized conformer: 58.857663813619986 kcal/mol)

>  <smiles>  (18) 
COc1ccc(NS(=O)(=O)c2ccc(-c3ccc(S(N)(=O)=O)cc3)cc2)cc1

>  <score_type>  (18) 
oracle

>  <origin>  (18) 
adgpu

>  <m_score__min__energy>  (18) 
-9.2899999999999991

>  <m_primary>  (18) 
energy

$$$$
18:0
     RDKit          3D

 55 58  0  0  1  0  0  0  0  0999 V2000
    0.5410   21.2390  -35.2340 C   0  0  0  0  0  0  0  0  0  0  0  0
   -0.5340   20.7850  -34.3150 C   0  0  0  0  0  0  0  0  0  0  0  0
   -1.1670   19.5900  -34.6010 C   0  0  0  0  0  0  0  0  0  0  0  0
   -2.1650   19.1610  -33.7520 C   0  0  0  0  0  0  0  0  0  0  0  0
   -2.8850   17.9450  -33.9470 N   0  0  0  0  0  0  0  0  0  0  0  0
   -4.1580   17.8760  -33.8360 C   0  0  0  0  0  0  0  0  0  0  0  0
   -4.9320   18.9970  -33.5130 C   0  0  0  0  0  0  0  0  0  0  0  0
   -6.2960   18.9470  -33.3890 C   0  0  0  0  0  0  0  0  0  0  0  0
   -7.0680   20.0870  -33.0530 N   0  0  0  0  0  0  0  0  0  0  0  0
   -8.5310   20.0690  -33.0090 C   0  0  0  0  0  0  0  0  0  0  0  0
   -8.8660   20.4330  -31.5580 C   0  0  0  0  0  0  0  0  0  0  0  0
   -8.4720   21.7540  -31.3690 O   0  0  0  0  0  0  0  0  0  0  0  0
   -7.1170   21.9400  -31.4510 C   0  0  0  0  0  0  0  0  0  0  0  0
   -6.4810   21.3810  -32.7120 C   0  0  0  0  0  0  0  0  0  0  0  0
   -6.8800   17.7450  -33.5960 N   0  0  0  0  0  0  0  0  0  0  0  0
   -6.1470   16.6370  -33.9120 C   0  0  0  0  0  0  0  0  0  0  0  0
   -6.8370   15.3280  -34.1350 C   0  0  0  0  0  0  0  0  0  0  0  0
   -4.8110   16.7150  -34.0260 N   0  0  0  0  0  0  0  0  0  0  0  0
   -2.5240   19.9070  -32.6390 C   0  0  0  0  0  0  0  0  0  0  0  0
   -1.8980   21.1040  -32.3440 C   0  0  0  0  0  0  0  0  0  0  0  0
   -2.3030   21.8610  -31.1600 C   0  0  0  0  0  0  0  0  0  0  0  0
   -3.4380   22.6210  -31.0940 C   0  0  0  0  0  0  0  0  0  0  0  0
   -3.7590   23.3120  -29.9440 C   0  0  0  0  0  0  0  0  0  0  0  0
   -2.9610   23.2710  -28.8160 C   0  0  0  0  0  0  0  0  0  0  0  0
   -3.3280   24.0110  -27.6200 C   0  0  0  0  0  0  0  0  0  0  0  0
   -4.6110   24.6190  -27.5390 N   0  0  0  0  0  0  0  0  0  0  0  0
   -2.5180   24.1140  -26.6630 O   0  0  0  0  0  0  0  0  0  0  0  0
   -1.8240   22.5130  -28.8710 C   0  0  0  0  0  0  0  0  0  0  0  0
   -1.4980   21.8120  -30.0360 C   0  0  0  0  0  0  0  0  0  0  0  0
   -0.8970   21.5370  -33.1930 C   0  0  0  0  0  0  0  0  0  0  0  0
    1.3975   21.6007  -34.6461 H   0  0  0  0  0  0  0  0  0  0  0  0
    0.8602   20.3989  -35.8682 H   0  0  0  0  0  0  0  0  0  0  0  0
    0.1614   22.0536  -35.8682 H   0  0  0  0  0  0  0  0  0  0  0  0
   -0.8821   18.9970  -35.4826 H   0  0  0  0  0  0  0  0  0  0  0  0
   -4.4236   19.9591  -33.3518 H   0  0  0  0  0  0  0  0  0  0  0  0
   -8.9517   20.8101  -33.7046 H   0  0  0  0  0  0  0  0  0  0  0  0
   -8.9504   19.0971  -33.3080 H   0  0  0  0  0  0  0  0  0  0  0  0
   -9.9474   20.3326  -31.3833 H   0  0  0  0  0  0  0  0  0  0  0  0
   -8.3472   19.7641  -30.8555 H   0  0  0  0  0  0  0  0  0  0  0  0
   -6.9155   23.0208  -31.4143 H   0  0  0  0  0  0  0  0  0  0  0  0
   -6.6737   21.3916  -30.6068 H   0  0  0  0  0  0  0  0  0  0  0  0
   -6.6464   22.0833  -33.5424 H   0  0  0  0  0  0  0  0  0  0  0  0
   -5.4034   21.2468  -32.5366 H   0  0  0  0  0  0  0  0  0  0  0  0
   -7.9010   17.5800  -33.5280 H   0  0  0  0  0  0  0  0  0  0  0  0
   -7.0781   14.8705  -33.1641 H   0  0  0  0  0  0  0  0  0  0  0  0
   -7.7646   15.4944  -34.7024 H   0  0  0  0  0  0  0  0  0  0  0  0
   -6.1755   14.6568  -34.7024 H   0  0  0  0  0  0  0  0  0  0  0  0
   -3.3225   19.5390  -31.9780 H   0  0  0  0  0  0  0  0  0  0  0  0
   -4.1028   22.6820  -31.9682 H   0  0  0  0  0  0  0  0  0  0  0  0
   -4.6790   23.9146  -29.9240 H   0  0  0  0  0  0  0  0  0  0  0  0
   -5.5020   24.1120  -27.6770 H   0  0  0  0  0  0  0  0  0  0  0  0
   -4.6860   25.6590  -27.3260 H   0  0  0  0  0  0  0  0  0  0  0  0
   -1.1625   22.4545  -27.9941 H   0  0  0  0  0  0  0  0  0  0  0  0
   -0.5795   21.2071  -30.0594 H   0  0  0  0  0  0  0  0  0  0  0  0
   -0.3794   22.4848  -32.9837 H   0  0  0  0  0  0  0  0  0  0  0  0
  1  2  1  0
  2  3  2  0
  3  4  1  0
  4  5  1  0
  5  6  2  0
  6  7  1  0
  7  8  2  0
  8  9  1  0
  9 10  1  0
 10 11  1  0
 11 12  1  0
 12 13  1  0
 13 14  1  0
  8 15  1  0
 15 16  1  0
 16 17  1  0
 16 18  2  0
  4 19  2  0
 19 20  1  0
 20 21  1  0
 21 22  2  0
 22 23  1  0
 23 24  2  0
 24 25  1  0
 25 26  1  0
 25 27  2  0
 24 28  1  0
 28 29  2  0
 20 30  2  0
 30  2  1  0
 18  6  1  0
 29 21  1  0
 14  9  1  0
  1 31  1  0
  1 32  1  0
  1 33  1  0
  3 34  1  0
  7 35  1  0
 10 36  1  0
 10 37  1  0
 11 38  1  0
 11 39  1  0
 13 40  1  0
 13 41  1  0
 14 42  1  0
 14 43  1  0
 15 44  1  0
 17 45  1  0
 17 46  1  0
 17 47  1  0
 19 48  1  0
 22 49  1  0
 23 50  1  0
 26 51  1  0
 26 52  1  0
 28 53  1  0
 29 54  1  0
 30 55  1  0
M  END
>  <smiles>  (19) 
Cc1cc(N=c2cc(N3CCOCC3)[nH]c(C)n2)cc(-c2ccc(C(N)=O)cc2)c1

>  <score_type>  (19) 
oracle

>  <origin>  (19) 
adgpu

>  <m_score__min__energy>  (19) 
-9.5399999999999991

>  <m_primary>  (19) 
energy

$$$$
19:0
     RDKit          3D

 47 49  0  0  0  0  0  0  0  0999 V2000
    0.0770   20.2550  -29.3210 C   0  0  0  0  0  0  0  0  0  0  0  0
    0.0270   21.1840  -30.3990 O   0  0  0  0  0  0  0  0  0  0  0  0
   -0.8450   21.0840  -31.4950 C   0  0  0  0  0  0  0  0  0  0  0  0
   -0.3720   20.9400  -32.8160 C   0  0  0  0  0  0  0  0  0  0  0  0
   -1.2710   20.8410  -33.8800 C   0  0  0  0  0  0  0  0  0  0  0  0
   -2.6450   20.8710  -33.6410 C   0  0  0  0  0  0  0  0  0  0  0  0
   -3.1240   21.0130  -32.3380 C   0  0  0  0  0  0  0  0  0  0  0  0
   -2.2290   21.1390  -31.2600 C   0  0  0  0  0  0  0  0  0  0  0  0
   -2.7050   21.2720  -29.9120 N   0  0  0  0  0  0  0  0  0  0  0  0
   -3.2630   22.4650  -29.3450 C   0  0  0  0  0  0  0  0  0  0  0  0
   -2.7780   22.9110  -28.2720 O   0  0  0  0  0  0  0  0  0  0  0  0
   -4.3650   23.1980  -30.0050 C   0  0  0  0  0  0  0  0  0  0  0  0
   -5.5500   22.5180  -30.3270 C   0  0  0  0  0  0  0  0  0  0  0  0
   -6.6000   23.1800  -30.9810 C   0  0  0  0  0  0  0  0  0  0  0  0
   -8.0610   22.3000  -31.4370 S   0  0  0  0  0  0  0  0  0  0  0  0
   -9.0960   23.2800  -31.9160 O   0  0  0  0  0  0  0  0  0  0  0  0
   -8.6080   21.6170  -30.2150 O   0  0  0  0  0  0  0  0  0  0  0  0
   -7.7730   21.0920  -32.6740 N   0  0  0  0  0  0  0  0  0  0  0  0
   -8.8160   20.0390  -32.7240 C   0  0  0  0  0  0  0  0  0  0  0  0
   -8.2790   18.6170  -32.4960 C   0  0  0  0  0  0  0  0  0  0  0  0
   -7.2540   18.6050  -31.3680 C   0  0  0  0  0  0  0  0  0  0  0  0
   -6.0600   19.5170  -31.6830 C   0  0  0  0  0  0  0  0  0  0  0  0
   -6.3760   20.6130  -32.7190 C   0  0  0  0  0  0  0  0  0  0  0  0
   -6.4840   24.5480  -31.2590 C   0  0  0  0  0  0  0  0  0  0  0  0
   -5.3140   25.2360  -30.9290 C   0  0  0  0  0  0  0  0  0  0  0  0
   -4.2550   24.5700  -30.3060 C   0  0  0  0  0  0  0  0  0  0  0  0
   -3.1110   25.2850  -29.9660 O   0  0  0  0  0  0  0  0  0  0  0  0
    0.0477   20.7998  -28.3658 H   0  0  0  0  0  0  0  0  0  0  0  0
   -0.7859   19.5755  -29.3822 H   0  0  0  0  0  0  0  0  0  0  0  0
    1.0078   19.6721  -29.3822 H   0  0  0  0  0  0  0  0  0  0  0  0
    0.7104   20.9055  -33.0090 H   0  0  0  0  0  0  0  0  0  0  0  0
   -0.8949   20.7392  -34.9087 H   0  0  0  0  0  0  0  0  0  0  0  0
   -3.3511   20.7827  -34.4798 H   0  0  0  0  0  0  0  0  0  0  0  0
   -4.2082   21.0265  -32.1527 H   0  0  0  0  0  0  0  0  0  0  0  0
   -5.6565   21.4552  -30.0639 H   0  0  0  0  0  0  0  0  0  0  0  0
   -9.5637   20.2553  -31.9467 H   0  0  0  0  0  0  0  0  0  0  0  0
   -9.2416   20.0600  -33.7381 H   0  0  0  0  0  0  0  0  0  0  0  0
   -9.1151   17.9529  -32.2317 H   0  0  0  0  0  0  0  0  0  0  0  0
   -7.7938   18.2689  -33.4198 H   0  0  0  0  0  0  0  0  0  0  0  0
   -7.7363   18.9542  -30.4431 H   0  0  0  0  0  0  0  0  0  0  0  0
   -6.8814   17.5766  -31.2512 H   0  0  0  0  0  0  0  0  0  0  0  0
   -5.7382   20.0030  -30.7501 H   0  0  0  0  0  0  0  0  0  0  0  0
   -5.2743   18.8808  -32.1166 H   0  0  0  0  0  0  0  0  0  0  0  0
   -5.7100   21.4685  -32.5328 H   0  0  0  0  0  0  0  0  0  0  0  0
   -6.2221   20.1678  -33.7130 H   0  0  0  0  0  0  0  0  0  0  0  0
   -7.3172   25.0823  -31.7389 H   0  0  0  0  0  0  0  0  0  0  0  0
   -5.2257   26.3077  -31.1607 H   0  0  0  0  0  0  0  0  0  0  0  0
  1  2  1  0
  2  3  1  0
  3  4  2  0
  4  5  1  0
  5  6  2  0
  6  7  1  0
  7  8  2  0
  8  9  1  0
  9 10  1  0
 10 11  2  0
 10 12  1  0
 12 13  2  0
 13 14  1  0
 14 15  1  0
 15 16  2  0
 15 17  2  0
 15 18  1  0
 18 19  1  0
 19 20  1  0
 20 21  1  0
 21 22  1  0
 22 23  1  0
 14 24  2  0
 24 25  1  0
 25 26  2  0
 26 27  1  0
  8  3  1  0
 26 12  1  0
 23 18  1  0
  1 28  1  0
  1 29  1  0
  1 30  1  0
  4 31  1  0
  5 32  1  0
  6 33  1  0
  7 34  1  0
 13 35  1  0
 19 36  1  0
 19 37  1  0
 20 38  1  0
 20 39  1  0
 21 40  1  0
 21 41  1  0
 22 42  1  0
 22 43  1  0
 23 44  1  0
 23 45  1  0
 24 46  1  0
 25 47  1  0
M  CHG  2   9  -1  27  -1
M  END
>  <UniqueID>  (20) 
18

>  <SMILES>  (20) 
COc1ccccc1[N-]C(=O)c1cc(S(=O)(=O)N2CCCCC2)ccc1[O-]

>  <Energy>  (20) 
62.38066855855112

>  <Genealogy>  (20) 
COc1ccccc1[N-]C(=O)c1cc(S(=O)(=O)N2CCCCC2)ccc1[O-] (protonated)
COc1ccccc1[N-]C(=O)c1cc(S(=O)(=O)N2CCCCC2)ccc1[O-] (3D coordinates assigned)
COc1ccccc1[N-]C(=O)c1cc(S(=O)(=O)N2CCCCC2)ccc1[O-] (nonaromatic ring conformer: 62.38066855855112 kcal/mol)

>  <smiles>  (20) 
COc1ccccc1NC(=O)c1cc(S(=O)(=O)N2CCCCC2)ccc1O

>  <score_type>  (20) 
oracle

>  <origin>  (20) 
adgpu

>  <m_score__min__energy>  (20) 
-12.85

>  <m_primary>  (20) 
energy

$$$$
20:0
     RDKit          3D

 67 71  0  0  0  0  0  0  0  0999 V2000
   -4.5470   23.1930  -28.1720 C   0  0  0  0  0  0  0  0  0  0  0  0
   -3.1300   23.4940  -28.5810 C   0  0  0  0  0  0  0  0  0  0  0  0
   -2.4310   24.5230  -27.9280 C   0  0  0  0  0  0  0  0  0  0  0  0
   -1.1180   24.8390  -28.2940 C   0  0  0  0  0  0  0  0  0  0  0  0
   -0.2600   26.1470  -27.4750 S   0  0  0  0  0  0  0  0  0  0  0  0
   -0.5040   27.4360  -28.2090 O   0  0  0  0  0  0  0  0  0  0  0  0
    1.2160   25.8640  -27.5140 O   0  0  0  0  0  0  0  0  0  0  0  0
   -0.7720   26.3260  -25.8150 N   0  0  0  0  0  0  0  0  0  0  0  0
   -0.6190   25.0550  -25.0890 C   0  0  0  0  0  0  0  0  0  0  0  0
   -0.8530   25.2600  -23.5770 C   0  0  0  0  0  0  0  0  0  0  0  0
   -1.4110   26.5340  -23.3170 O   0  0  0  0  0  0  0  0  0  0  0  0
   -0.4940   27.5480  -23.6910 C   0  0  0  0  0  0  0  0  0  0  0  0
   -0.0060   27.3860  -25.1460 C   0  0  0  0  0  0  0  0  0  0  0  0
   -0.4880   24.1070  -29.3060 C   0  0  0  0  0  0  0  0  0  0  0  0
   -1.1640   23.0670  -29.9470 C   0  0  0  0  0  0  0  0  0  0  0  0
   -2.4900   22.7540  -29.6030 C   0  0  0  0  0  0  0  0  0  0  0  0
   -3.1670   21.6610  -30.2520 N   0  0  0  0  0  0  0  0  0  0  0  0
   -2.9080   21.2760  -31.6130 C   0  0  0  0  0  0  0  0  0  0  0  0
   -2.2820   22.0620  -32.3760 O   0  0  0  0  0  0  0  0  0  0  0  0
   -3.4140   19.9910  -32.1540 C   0  0  0  0  0  0  0  0  0  0  0  0
   -2.5720   19.1240  -32.8730 C   0  0  0  0  0  0  0  0  0  0  0  0
   -3.0640   17.9150  -33.3700 C   0  0  0  0  0  0  0  0  0  0  0  0
   -4.4010   17.5660  -33.1760 C   0  0  0  0  0  0  0  0  0  0  0  0
   -5.2660   18.4360  -32.5000 C   0  0  0  0  0  0  0  0  0  0  0  0
   -6.9740   18.0190  -32.3120 S   0  0  0  0  0  0  0  0  0  0  0  0
   -7.1950   16.6610  -32.9170 O   0  0  0  0  0  0  0  0  0  0  0  0
   -7.3020   17.9270  -30.8480 O   0  0  0  0  0  0  0  0  0  0  0  0
   -8.0620   19.1580  -33.0900 N   0  0  0  0  0  0  0  0  0  0  0  0
   -9.3140   19.3910  -32.3500 C   0  0  0  0  0  0  0  0  0  0  0  0
   -9.1040   20.1790  -31.0480 C   0  0  0  0  0  0  0  0  0  0  0  0
   -8.0780   21.2730  -31.1770 C   0  0  0  0  0  0  0  0  0  0  0  0
   -7.8930   22.1640  -30.1080 C   0  0  0  0  0  0  0  0  0  0  0  0
   -6.9120   23.1580  -30.1750 C   0  0  0  0  0  0  0  0  0  0  0  0
   -6.1090   23.2710  -31.3120 C   0  0  0  0  0  0  0  0  0  0  0  0
   -6.2770   22.3850  -32.3780 C   0  0  0  0  0  0  0  0  0  0  0  0
   -7.2420   21.3670  -32.3100 C   0  0  0  0  0  0  0  0  0  0  0  0
   -7.4030   20.4190  -33.4740 C   0  0  0  0  0  0  0  0  0  0  0  0
   -4.7630   19.6330  -31.9700 C   0  0  0  0  0  0  0  0  0  0  0  0
   -4.6165   23.1782  -27.0743 H   0  0  0  0  0  0  0  0  0  0  0  0
   -5.2166   23.9689  -28.5714 H   0  0  0  0  0  0  0  0  0  0  0  0
   -4.8434   22.2119  -28.5714 H   0  0  0  0  0  0  0  0  0  0  0  0
   -2.9212   25.0863  -27.1203 H   0  0  0  0  0  0  0  0  0  0  0  0
   -1.3512   24.3293  -25.4728 H   0  0  0  0  0  0  0  0  0  0  0  0
    0.4042   24.6810  -25.2415 H   0  0  0  0  0  0  0  0  0  0  0  0
   -1.5421   24.4844  -23.2115 H   0  0  0  0  0  0  0  0  0  0  0  0
    0.1157   25.1904  -23.0605 H   0  0  0  0  0  0  0  0  0  0  0  0
   -0.9870   28.5261  -23.5897 H   0  0  0  0  0  0  0  0  0  0  0  0
    0.3823   27.4706  -23.0307 H   0  0  0  0  0  0  0  0  0  0  0  0
   -0.1470   28.3341  -25.6857 H   0  0  0  0  0  0  0  0  0  0  0  0
    1.0602   27.1153  -25.1424 H   0  0  0  0  0  0  0  0  0  0  0  0
    0.5440   24.3517  -29.5979 H   0  0  0  0  0  0  0  0  0  0  0  0
   -0.6532   22.4866  -30.7295 H   0  0  0  0  0  0  0  0  0  0  0  0
   -3.9480   21.1890  -29.7440 H   0  0  0  0  0  0  0  0  0  0  0  0
   -1.5210   19.3993  -33.0448 H   0  0  0  0  0  0  0  0  0  0  0  0
   -2.3944   17.2348  -33.9169 H   0  0  0  0  0  0  0  0  0  0  0  0
   -4.7770   16.6043  -33.5552 H   0  0  0  0  0  0  0  0  0  0  0  0
  -10.0023   19.9568  -32.9950 H   0  0  0  0  0  0  0  0  0  0  0  0
   -9.7227   18.4070  -32.0768 H   0  0  0  0  0  0  0  0  0  0  0  0
  -10.0627   20.6314  -30.7544 H   0  0  0  0  0  0  0  0  0  0  0  0
   -8.7336   19.4703  -30.2926 H   0  0  0  0  0  0  0  0  0  0  0  0
   -8.5244   22.0795  -29.2112 H   0  0  0  0  0  0  0  0  0  0  0  0
   -6.7727   23.8510  -29.3322 H   0  0  0  0  0  0  0  0  0  0  0  0
   -5.3434   24.0588  -31.3678 H   0  0  0  0  0  0  0  0  0  0  0  0
   -5.6499   22.4850  -33.2762 H   0  0  0  0  0  0  0  0  0  0  0  0
   -8.0090   20.9117  -34.2486 H   0  0  0  0  0  0  0  0  0  0  0  0
   -6.3971   20.1706  -33.8434 H   0  0  0  0  0  0  0  0  0  0  0  0
   -5.4302   20.2998  -31.4040 H   0  0  0  0  0  0  0  0  0  0  0  0
  1  2  1  0
  2  3  2  0
  3  4  1  0
  4  5  1  0
  5  6  2  0
  5  7  2  0
  5  8  1  0
  8  9  1  0
  9 10  1  0
 10 11  1  0
 11 12  1  0
 12 13  1  0
  4 14  2  0
 14 15  1  0
 15 16  2  0
 16 17  1  0
 17 18  1  0
 18 19  2  0
 18 20  1  0
 20 21  2  0
 21 22  1  0
 22 23  2  0
 23 24  1  0
 24 25  1  0
 25 26  2  0
 25 27  2  0
 25 28  1  0
 28 29  1  0
 29 30  1  0
 30 31  1  0
 31 32  2  0
 32 33  1  0
 33 34  2  0
 34 35  1  0
 35 36  2  0
 36 37  1  0
 24 38  2  0
 16  2  1  0
 38 20  1  0
 13  8  1  0
 37 28  1  0
 36 31  1  0
  1 39  1  0
  1 40  1  0
  1 41  1  0
  3 42  1  0
  9 43  1  0
  9 44  1  0
 10 45  1  0
 10 46  1  0
 12 47  1  0
 12 48  1  0
 13 49  1  0
 13 50  1  0
 14 51  1  0
 15 52  1  0
 17 53  1  0
 21 54  1  0
 22 55  1  0
 23 56  1  0
 29 57  1  0
 29 58  1  0
 30 59  1  0
 30 60  1  0
 32 61  1  0
 33 62  1  0
 34 63  1  0
 35 64  1  0
 37 65  1  0
 37 66  1  0
 38 67  1  0
M  END
>  <UniqueID>  (21) 
19

>  <SMILES>  (21) 
Cc1cc(S(=O)(=O)N2CCOCC2)ccc1NC(=O)c1cccc(S(=O)(=O)N2CCc3ccccc3C2)c1

>  <Energy>  (21) 
87.85526357771002

>  <Genealogy>  (21) 
Cc1cc(S(=O)(=O)N2CCOCC2)ccc1NC(=O)c1cccc(S(=O)(=O)N2CCc3ccccc3C2)c1 (3D coordinates assigned)
Cc1cc(S(=O)(=O)N2CCOCC2)ccc1NC(=O)c1cccc(S(=O)(=O)N2CCc3ccccc3C2)c1 (nonaromatic ring conformer: 87.85526357771002 kcal/mol)

>  <smiles>  (21) 
Cc1cc(S(=O)(=O)N2CCOCC2)ccc1NC(=O)c1cccc(S(=O)(=O)N2CCc3ccccc3C2)c1

>  <score_type>  (21) 
oracle

>  <origin>  (21) 
adgpu

>  <m_score__min__energy>  (21) 
-11.99

>  <m_primary>  (21) 
energy

$$$$
21:0
     RDKit          3D

 55 59  0  0  0  0  0  0  0  0999 V2000
   -0.1271   28.6590  -35.5114 H   0  0  0  0  0  0  0  0  0  0  0  0
    0.2230   27.6490  -35.7710 C   0  0  0  0  0  0  0  0  0  0  0  0
   -0.6360   26.7580  -36.4240 C   0  0  0  0  0  0  0  0  0  0  0  0
   -1.6624   27.0660  -36.6723 H   0  0  0  0  0  0  0  0  0  0  0  0
   -0.1900   25.4760  -36.7610 C   0  0  0  0  0  0  0  0  0  0  0  0
   -0.8733   24.7717  -37.2581 H   0  0  0  0  0  0  0  0  0  0  0  0
    1.1250   25.0840  -36.4680 C   0  0  0  0  0  0  0  0  0  0  0  0
    1.5330   23.7440  -36.7810 N   0  0  0  0  0  0  0  0  0  0  0  0
    1.0280   22.6640  -36.2620 C   0  0  0  0  0  0  0  0  0  0  0  0
    0.1010   22.6720  -35.2650 N   0  0  0  0  0  0  0  0  0  0  0  0
   -0.0870   21.3640  -35.0410 C   0  0  0  0  0  0  0  0  0  0  0  0
   -0.9440   20.7680  -34.1240 C   0  0  0  0  0  0  0  0  0  0  0  0
   -1.5697   21.3750  -33.4531 H   0  0  0  0  0  0  0  0  0  0  0  0
   -0.9850   19.3610  -34.0820 C   0  0  0  0  0  0  0  0  0  0  0  0
   -1.6507   18.8555  -33.3669 H   0  0  0  0  0  0  0  0  0  0  0  0
   -0.1760   18.5920  -34.9530 C   0  0  0  0  0  0  0  0  0  0  0  0
   -0.2800   16.8340  -34.9680 S   0  0  0  0  0  0  0  0  0  0  0  0
    0.0640   16.2560  -33.6230 O   0  0  0  0  0  0  0  0  0  0  0  0
    0.6950   16.3020  -35.9800 O   0  0  0  0  0  0  0  0  0  0  0  0
   -1.8870   16.3650  -35.4200 N   0  0  0  0  0  0  0  0  0  0  0  0
   -3.0880   16.7960  -34.7660 C   0  0  0  0  0  0  0  0  0  0  0  0
   -3.2150   16.5990  -33.3870 C   0  0  0  0  0  0  0  0  0  0  0  0
   -2.3949   16.1280  -32.8253 H   0  0  0  0  0  0  0  0  0  0  0  0
   -4.3760   16.9960  -32.7170 C   0  0  0  0  0  0  0  0  0  0  0  0
   -4.4735   16.8154  -31.6363 H   0  0  0  0  0  0  0  0  0  0  0  0
   -5.4160   17.6230  -33.4160 C   0  0  0  0  0  0  0  0  0  0  0  0
   -6.8640   18.1690  -32.5690 S   0  0  0  0  0  0  0  0  0  0  0  0
   -6.5100   18.4010  -31.1280 O   0  0  0  0  0  0  0  0  0  0  0  0
   -7.9260   17.1070  -32.6480 O   0  0  0  0  0  0  0  0  0  0  0  0
   -7.4720   19.6540  -33.2680 N   0  0  0  0  0  0  0  0  0  0  0  0
   -7.5420   19.5340  -34.3040 H   0  0  0  0  0  0  0  0  0  0  0  0
   -8.7820   20.0080  -32.7080 C   0  0  0  0  0  0  0  0  0  0  0  0
   -9.3977   20.4980  -33.4767 H   0  0  0  0  0  0  0  0  0  0  0  0
   -9.3098   19.1061  -32.3644 H   0  0  0  0  0  0  0  0  0  0  0  0
   -8.5480   20.9610  -31.5480 C   0  0  0  0  0  0  0  0  0  0  0  0
   -9.2669   21.7928  -31.5841 H   0  0  0  0  0  0  0  0  0  0  0  0
   -8.6821   20.4601  -30.5779 H   0  0  0  0  0  0  0  0  0  0  0  0
   -7.1320   21.4780  -31.7200 C   0  0  0  0  0  0  0  0  0  0  0  0
   -7.1372   22.5685  -31.8643 H   0  0  0  0  0  0  0  0  0  0  0  0
   -6.5151   21.2716  -30.8330 H   0  0  0  0  0  0  0  0  0  0  0  0
   -6.5840   20.7820  -32.9580 C   0  0  0  0  0  0  0  0  0  0  0  0
   -6.5624   21.4849  -33.8039 H   0  0  0  0  0  0  0  0  0  0  0  0
   -5.5590   20.4261  -32.7771 H   0  0  0  0  0  0  0  0  0  0  0  0
   -5.2870   17.8390  -34.7940 C   0  0  0  0  0  0  0  0  0  0  0  0
   -6.0947   18.3387  -35.3489 H   0  0  0  0  0  0  0  0  0  0  0  0
   -4.1340   17.4210  -35.4660 C   0  0  0  0  0  0  0  0  0  0  0  0
   -4.0452   17.5826  -36.5504 H   0  0  0  0  0  0  0  0  0  0  0  0
    0.6850   19.2340  -35.8660 C   0  0  0  0  0  0  0  0  0  0  0  0
    1.3234   18.6553  -36.5498 H   0  0  0  0  0  0  0  0  0  0  0  0
    0.6990   20.6270  -35.8720 C   0  0  0  0  0  0  0  0  0  0  0  0
    1.4290   21.4310  -36.6590 N   0  0  0  0  0  0  0  0  0  0  0  0
    1.9780   25.9760  -35.7870 C   0  0  0  0  0  0  0  0  0  0  0  0
    3.2190   25.5890  -35.4000 F   0  0  0  0  0  0  0  0  0  0  0  0
    1.5260   27.2570  -35.4480 C   0  0  0  0  0  0  0  0  0  0  0  0
    2.1967   27.9561  -34.9269 H   0  0  0  0  0  0  0  0  0  0  0  0
  1  2  1  0
  2  3  2  0
  3  4  1  0
  3  5  1  0
  5  6  1  0
  5  7  2  0
  7  8  1  0
  8  9  2  0
  9 10  1  0
 10 11  1  0
 11 12  2  0
 12 13  1  0
 12 14  1  0
 14 15  1  0
 14 16  2  0
 16 17  1  0
 17 18  2  0
 17 19  2  0
 17 20  1  0
 20 21  1  0
 21 22  2  0
 22 23  1  0
 22 24  1  0
 24 25  1  0
 24 26  2  0
 26 27  1  0
 27 28  2  0
 27 29  2  0
 27 30  1  0
 30 31  1  0
 30 32  1  0
 32 33  1  0
 32 34  1  0
 32 35  1  0
 35 36  1  0
 35 37  1  0
 35 38  1  0
 38 39  1  0
 38 40  1  0
 38 41  1  0
 41 42  1  0
 41 43  1  0
 26 44  1  0
 44 45  1  0
 44 46  2  0
 46 47  1  0
 16 48  1  0
 48 49  1  0
 48 50  2  0
 50 51  1  0
  7 52  1  0
 52 53  1  0
 52 54  2  0
 54 55  1  0
 54  2  1  0
 51  9  1  0
 50 11  1  0
 46 21  1  0
 41 30  1  0
M  CHG  4  10  -1  20  -1  30   1  51  -1
M  END
>  <UniqueID>  (22) 
20

>  <SMILES>  (22) 
O=S(=O)([N-]c1ccc(S(=O)(=O)[NH+]2CCCC2)cc1)c1ccc2[n-]/c(=N\c3ccccc3F)[n-]c2c1

>  <Energy>  (22) 
107.73409771856505

>  <Genealogy>  (22) 
O=S(=O)([N-]c1ccc(S(=O)(=O)[NH+]2CCCC2)cc1)c1ccc2[n-]c(=Nc3ccccc3F)[n-]c2c1 (protonated)
O=S(=O)([N-]c1ccc(S(=O)(=O)[NH+]2CCCC2)cc1)c1ccc2[n-]/c(=N\c3ccccc3F)[n-]c2c1 (cis-trans isomerization)
O=S(=O)([N-]c1ccc(S(=O)(=O)[NH+]2CCCC2)cc1)c1ccc2[n-]/c(=N\c3ccccc3F)[n-]c2c1 (3D coordinates assigned)
O=S(=O)([N-]c1ccc(S(=O)(=O)[NH+]2CCCC2)cc1)c1ccc2[n-]/c(=N\c3ccccc3F)[n-]c2c1 (nonaromatic ring conformer: 107.73409771856505 kcal/mol)

>  <smiles>  (22) 
O=S(=O)(Nc1ccc(S(=O)(=O)N2CCCC2)cc1)c1ccc2[nH]c(=Nc3ccccc3F)[nH]c2c1

>  <score_type>  (22) 
oracle

>  <origin>  (22) 
adgpu

>  <m_score__min__energy>  (22) 
-11.67

>  <m_primary>  (22) 
energy

$$$$
22:0
     RDKit          3D

 37 39  0  0  0  0  0  0  0  0999 V2000
   -1.6970   21.8380  -31.8340 C   0  0  0  0  0  0  0  0  0  0  0  0
   -3.0510   21.6620  -32.4560 C   0  0  0  0  0  0  0  0  0  0  0  0
   -3.7680   22.6860  -32.6210 O   0  0  0  0  0  0  0  0  0  0  0  0
   -3.5310   20.3280  -32.9180 C   0  0  0  0  0  0  0  0  0  0  0  0
   -2.6540   19.4740  -33.6130 C   0  0  0  0  0  0  0  0  0  0  0  0
   -3.0820   18.2260  -34.0740 C   0  0  0  0  0  0  0  0  0  0  0  0
   -2.2060   17.3890  -34.7640 O   0  0  0  0  0  0  0  0  0  0  0  0
   -4.3930   17.8080  -33.8490 C   0  0  0  0  0  0  0  0  0  0  0  0
   -5.2990   18.6310  -33.1540 C   0  0  0  0  0  0  0  0  0  0  0  0
   -6.6370   18.2330  -32.9050 C   0  0  0  0  0  0  0  0  0  0  0  0
   -7.1780   16.9080  -33.3780 C   0  0  0  0  0  0  0  0  0  0  0  0
   -7.4840   19.0950  -32.1950 C   0  0  0  0  0  0  0  0  0  0  0  0
   -7.0070   20.3250  -31.7450 C   0  0  0  0  0  0  0  0  0  0  0  0
   -8.0830   21.4400  -30.8500 S   0  0  0  0  0  0  0  0  0  0  0  0
   -6.8150   22.7030  -30.7350 C   0  0  0  0  0  0  0  0  0  0  0  0
   -6.7680   23.7370  -31.6770 C   0  0  0  0  0  0  0  0  0  0  0  0
   -5.7860   24.7280  -31.5830 C   0  0  0  0  0  0  0  0  0  0  0  0
   -4.8470   24.6850  -30.5460 C   0  0  0  0  0  0  0  0  0  0  0  0
   -3.8710   25.6700  -30.4510 O   0  0  0  0  0  0  0  0  0  0  0  0
   -4.8910   23.6510  -29.6050 C   0  0  0  0  0  0  0  0  0  0  0  0
   -5.8730   22.6600  -29.7000 C   0  0  0  0  0  0  0  0  0  0  0  0
   -5.7260   20.6890  -31.9940 N   0  0  0  0  0  0  0  0  0  0  0  0
   -4.8600   19.8970  -32.6860 C   0  0  0  0  0  0  0  0  0  0  0  0
   -1.7925   21.8256  -30.7382 H   0  0  0  0  0  0  0  0  0  0  0  0
   -1.0372   21.0181  -32.1539 H   0  0  0  0  0  0  0  0  0  0  0  0
   -1.2687   22.7994  -32.1539 H   0  0  0  0  0  0  0  0  0  0  0  0
   -1.6174   19.7934  -33.7958 H   0  0  0  0  0  0  0  0  0  0  0  0
   -2.3420   17.1710  -35.7440 H   0  0  0  0  0  0  0  0  0  0  0  0
   -4.7224   16.8256  -34.2182 H   0  0  0  0  0  0  0  0  0  0  0  0
   -7.4326   16.2844  -32.5084 H   0  0  0  0  0  0  0  0  0  0  0  0
   -8.0796   17.0758  -33.9854 H   0  0  0  0  0  0  0  0  0  0  0  0
   -6.4166   16.3968  -33.9854 H   0  0  0  0  0  0  0  0  0  0  0  0
   -8.5246   18.8010  -31.9930 H   0  0  0  0  0  0  0  0  0  0  0  0
   -7.5050   23.7702  -32.4929 H   0  0  0  0  0  0  0  0  0  0  0  0
   -5.7515   25.5407  -32.3235 H   0  0  0  0  0  0  0  0  0  0  0  0
   -4.1529   23.6174  -28.7901 H   0  0  0  0  0  0  0  0  0  0  0  0
   -5.9054   21.8459  -28.9609 H   0  0  0  0  0  0  0  0  0  0  0  0
  1  2  1  0
  2  3  2  0
  2  4  1  0
  4  5  2  0
  5  6  1  0
  6  7  1  0
  6  8  2  0
  8  9  1  0
  9 10  2  0
 10 11  1  0
 10 12  1  0
 12 13  2  0
 13 14  1  0
 14 15  1  0
 15 16  2  0
 16 17  1  0
 17 18  2  0
 18 19  1  0
 18 20  1  0
 20 21  2  0
 13 22  1  0
 22 23  2  0
 23  4  1  0
 23  9  1  0
 21 15  1  0
  1 24  1  0
  1 25  1  0
  1 26  1  0
  5 27  1  0
  7 28  1  0
  8 29  1  0
 11 30  1  0
 11 31  1  0
 11 32  1  0
 12 33  1  0
 16 34  1  0
 17 35  1  0
 20 36  1  0
 21 37  1  0
M  CHG  1  19  -1
M  END
>  <UniqueID>  (23) 
21

>  <SMILES>  (23) 
CC(=O)c1cc(O)cc2c(C)cc(Sc3ccc([O-])cc3)nc12

>  <Energy>  (23) 
41.88029330820032

>  <Genealogy>  (23) 
CC(=O)c1cc(O)cc2c(C)cc(Sc3ccc([O-])cc3)nc12 (protonated)
CC(=O)c1cc(O)cc2c(C)cc(Sc3ccc([O-])cc3)nc12 (3D coordinates assigned)
CC(=O)c1cc(O)cc2c(C)cc(Sc3ccc([O-])cc3)nc12 (optimized conformer: 41.88029330820032 kcal/mol)

>  <smiles>  (23) 
CC(=O)c1cc(O)cc2c(C)cc(Sc3ccc(O)cc3)nc12

>  <score_type>  (23) 
oracle

>  <origin>  (23) 
adgpu

>  <m_score__min__energy>  (23) 
-10.73

>  <m_primary>  (23) 
energy

$$$$
23:0
     RDKit          3D

 35 37  0  0  0  0  0  0  0  0999 V2000
   -2.0320   25.3530  -29.0630 O   0  0  0  0  0  0  0  0  0  0  0  0
   -2.7680   24.4530  -29.5550 C   0  0  0  0  0  0  0  0  0  0  0  0
   -2.5650   23.0280  -29.1460 C   0  0  0  0  0  0  0  0  0  0  0  0
   -1.4950   22.1510  -30.3420 S   0  0  0  0  0  0  0  0  0  0  0  0
   -2.8390   21.6660  -31.4230 C   0  0  0  0  0  0  0  0  0  0  0  0
   -3.1380   22.3020  -32.5710 N   0  0  0  0  0  0  0  0  0  0  0  0
   -4.1790   21.6640  -33.0710 N   0  0  0  0  0  0  0  0  0  0  0  0
   -4.4950   20.6570  -32.2290 C   0  0  0  0  0  0  0  0  0  0  0  0
   -5.6030   19.6890  -32.4280 C   0  0  0  0  0  0  0  0  0  0  0  0
   -5.5000   18.6310  -33.3560 C   0  0  0  0  0  0  0  0  0  0  0  0
   -6.5520   17.7230  -33.5140 C   0  0  0  0  0  0  0  0  0  0  0  0
   -7.7170   17.8600  -32.7580 C   0  0  0  0  0  0  0  0  0  0  0  0
   -7.8320   18.9030  -31.8360 C   0  0  0  0  0  0  0  0  0  0  0  0
   -6.7810   19.8110  -31.6680 C   0  0  0  0  0  0  0  0  0  0  0  0
   -3.6610   20.6250  -31.1670 N   0  0  0  0  0  0  0  0  0  0  0  0
   -3.7770   24.7780  -30.5170 N   0  0  0  0  0  0  0  0  0  0  0  0
   -5.0670   24.1620  -30.6290 C   0  0  0  0  0  0  0  0  0  0  0  0
   -5.7210   24.1840  -31.8720 C   0  0  0  0  0  0  0  0  0  0  0  0
   -6.9640   23.5580  -32.0280 C   0  0  0  0  0  0  0  0  0  0  0  0
   -7.5530   22.8920  -30.9470 C   0  0  0  0  0  0  0  0  0  0  0  0
   -6.9010   22.8480  -29.7100 C   0  0  0  0  0  0  0  0  0  0  0  0
   -5.6590   23.4760  -29.5500 C   0  0  0  0  0  0  0  0  0  0  0  0
   -2.0918   23.0023  -28.1533 H   0  0  0  0  0  0  0  0  0  0  0  0
   -3.5443   22.5277  -29.1183 H   0  0  0  0  0  0  0  0  0  0  0  0
   -4.6430   21.9260  -33.9670 H   0  0  0  0  0  0  0  0  0  0  0  0
   -4.5867   18.5197  -33.9589 H   0  0  0  0  0  0  0  0  0  0  0  0
   -6.4608   16.8984  -34.2363 H   0  0  0  0  0  0  0  0  0  0  0  0
   -8.5444   17.1469  -32.8881 H   0  0  0  0  0  0  0  0  0  0  0  0
   -8.7508   19.0107  -31.2408 H   0  0  0  0  0  0  0  0  0  0  0  0
   -6.8762   20.6266  -30.9361 H   0  0  0  0  0  0  0  0  0  0  0  0
   -5.2546   24.6954  -32.7269 H   0  0  0  0  0  0  0  0  0  0  0  0
   -7.4775   23.5897  -33.0003 H   0  0  0  0  0  0  0  0  0  0  0  0
   -8.5303   22.4023  -31.0703 H   0  0  0  0  0  0  0  0  0  0  0  0
   -7.3636   22.3203  -28.8630 H   0  0  0  0  0  0  0  0  0  0  0  0
   -5.1443   23.4334  -28.5788 H   0  0  0  0  0  0  0  0  0  0  0  0
  1  2  2  0
  2  3  1  0
  3  4  1  0
  4  5  1  0
  5  6  2  0
  6  7  1  0
  7  8  1  0
  8  9  1  0
  9 10  2  0
 10 11  1  0
 11 12  2  0
 12 13  1  0
 13 14  2  0
  8 15  2  0
  2 16  1  0
 16 17  1  0
 17 18  2  0
 18 19  1  0
 19 20  2  0
 20 21  1  0
 21 22  2  0
 15  5  1  0
 22 17  1  0
 14  9  1  0
  3 23  1  0
  3 24  1  0
  7 25  1  0
 10 26  1  0
 11 27  1  0
 12 28  1  0
 13 29  1  0
 14 30  1  0
 18 31  1  0
 19 32  1  0
 20 33  1  0
 21 34  1  0
 22 35  1  0
M  CHG  1  16  -1
M  END
>  <UniqueID>  (24) 
22

>  <SMILES>  (24) 
O=C(CSc1n[nH]c(-c2ccccc2)n1)[N-]c1ccccc1

>  <Energy>  (24) 
70.9794155261957

>  <Genealogy>  (24) 
O=C(CSc1n[nH]c(-c2ccccc2)n1)[N-]c1ccccc1 (protonated)
O=C(CSc1n[nH]c(-c2ccccc2)n1)[N-]c1ccccc1 (3D coordinates assigned)
O=C(CSc1n[nH]c(-c2ccccc2)n1)[N-]c1ccccc1 (optimized conformer: 70.9794155261957 kcal/mol)

>  <smiles>  (24) 
O=C(CSc1n[nH]c(-c2ccccc2)n1)Nc1ccccc1

>  <score_type>  (24) 
oracle

>  <origin>  (24) 
adgpu

>  <m_score__min__energy>  (24) 
-10.31

>  <m_primary>  (24) 
energy

$$$$
24:0
     RDKit          3D

 53 55  0  0  0  0  0  0  0  0999 V2000
   -3.4170   24.9900  -26.3570 C   0  0  0  0  0  0  0  0  0  0  0  0
   -4.2270   24.1130  -27.3220 C   0  0  0  0  0  0  0  0  0  0  0  0
   -3.8440   24.2420  -28.7450 N   0  0  0  0  0  0  0  0  0  0  0  0
   -2.9580   23.1920  -29.2880 C   0  0  0  0  0  0  0  0  0  0  0  0
   -2.4850   22.1970  -28.2560 C   0  0  0  0  0  0  0  0  0  0  0  0
   -3.1020   20.9390  -28.1440 C   0  0  0  0  0  0  0  0  0  0  0  0
   -2.6580   20.0180  -27.1900 C   0  0  0  0  0  0  0  0  0  0  0  0
   -1.5890   20.3390  -26.3500 C   0  0  0  0  0  0  0  0  0  0  0  0
   -0.9560   21.5800  -26.4670 C   0  0  0  0  0  0  0  0  0  0  0  0
   -1.3960   22.5030  -27.4200 C   0  0  0  0  0  0  0  0  0  0  0  0
   -5.1040   24.7780  -29.8350 S   0  0  0  0  0  0  0  0  0  0  0  0
   -6.1310   25.5700  -29.0750 O   0  0  0  0  0  0  0  0  0  0  0  0
   -4.5290   25.6480  -30.9170 O   0  0  0  0  0  0  0  0  0  0  0  0
   -5.8980   23.3760  -30.5450 C   0  0  0  0  0  0  0  0  0  0  0  0
   -5.4850   22.9110  -31.8000 C   0  0  0  0  0  0  0  0  0  0  0  0
   -6.1080   21.8030  -32.3810 C   0  0  0  0  0  0  0  0  0  0  0  0
   -7.1510   21.1500  -31.7110 C   0  0  0  0  0  0  0  0  0  0  0  0
   -7.9370   19.7400  -32.4200 S   0  0  0  0  0  0  0  0  0  0  0  0
   -8.4020   18.8410  -31.3090 O   0  0  0  0  0  0  0  0  0  0  0  0
   -9.1320   20.1690  -33.2270 O   0  0  0  0  0  0  0  0  0  0  0  0
   -6.8070   18.8860  -33.4440 N   0  0  0  0  0  0  0  0  0  0  0  0
   -7.1070   17.4310  -33.4730 C   0  0  0  0  0  0  0  0  0  0  0  0
   -6.1140   16.6220  -32.6210 C   0  0  0  0  0  0  0  0  0  0  0  0
   -4.7650   16.7790  -33.0390 O   0  0  0  0  0  0  0  0  0  0  0  0
   -4.4580   18.0860  -33.5070 C   0  0  0  0  0  0  0  0  0  0  0  0
   -5.4230   19.1790  -33.0140 C   0  0  0  0  0  0  0  0  0  0  0  0
   -7.5610   21.6120  -30.4540 C   0  0  0  0  0  0  0  0  0  0  0  0
   -6.9380   22.7200  -29.8730 C   0  0  0  0  0  0  0  0  0  0  0  0
   -3.6659   24.7205  -25.3200 H   0  0  0  0  0  0  0  0  0  0  0  0
   -2.3426   24.8296  -26.5298 H   0  0  0  0  0  0  0  0  0  0  0  0
   -3.6621   26.0483  -26.5298 H   0  0  0  0  0  0  0  0  0  0  0  0
   -4.0925   23.0624  -27.0250 H   0  0  0  0  0  0  0  0  0  0  0  0
   -5.2705   24.4535  -27.2493 H   0  0  0  0  0  0  0  0  0  0  0  0
   -3.5066   22.6460  -30.0696 H   0  0  0  0  0  0  0  0  0  0  0  0
   -2.0626   23.6992  -29.6765 H   0  0  0  0  0  0  0  0  0  0  0  0
   -3.9378   20.6778  -28.8097 H   0  0  0  0  0  0  0  0  0  0  0  0
   -3.1514   19.0389  -27.1009 H   0  0  0  0  0  0  0  0  0  0  0  0
   -1.2452   19.6152  -25.5964 H   0  0  0  0  0  0  0  0  0  0  0  0
   -0.1111   21.8303  -25.8086 H   0  0  0  0  0  0  0  0  0  0  0  0
   -0.8879   23.4738  -27.5167 H   0  0  0  0  0  0  0  0  0  0  0  0
   -4.6668   23.4200  -32.3306 H   0  0  0  0  0  0  0  0  0  0  0  0
   -5.7787   21.4427  -33.3668 H   0  0  0  0  0  0  0  0  0  0  0  0
   -6.9320   19.2650  -34.4120 H   0  0  0  0  0  0  0  0  0  0  0  0
   -8.1230   17.2698  -33.0835 H   0  0  0  0  0  0  0  0  0  0  0  0
   -7.0214   17.0866  -34.5142 H   0  0  0  0  0  0  0  0  0  0  0  0
   -6.1977   16.9542  -31.5757 H   0  0  0  0  0  0  0  0  0  0  0  0
   -6.3720   15.5590  -32.7368 H   0  0  0  0  0  0  0  0  0  0  0  0
   -3.4437   18.3437  -33.1681 H   0  0  0  0  0  0  0  0  0  0  0  0
   -4.5486   18.0572  -34.6029 H   0  0  0  0  0  0  0  0  0  0  0  0
   -5.3878   19.2233  -31.9155 H   0  0  0  0  0  0  0  0  0  0  0  0
   -5.1152   20.1433  -33.4445 H   0  0  0  0  0  0  0  0  0  0  0  0
   -8.3767   21.1007  -29.9218 H   0  0  0  0  0  0  0  0  0  0  0  0
   -7.2649   23.0780  -28.8856 H   0  0  0  0  0  0  0  0  0  0  0  0
  1  2  1  0
  2  3  1  0
  3  4  1  0
  4  5  1  0
  5  6  2  0
  6  7  1  0
  7  8  2  0
  8  9  1  0
  9 10  2  0
  3 11  1  0
 11 12  2  0
 11 13  2  0
 11 14  1  0
 14 15  2  0
 15 16  1  0
 16 17  2  0
 17 18  1  0
 18 19  2  0
 18 20  2  0
 18 21  1  0
 21 22  1  0
 22 23  1  0
 23 24  1  0
 24 25  1  0
 25 26  1  0
 17 27  1  0
 27 28  2  0
 10  5  1  0
 28 14  1  0
 26 21  1  0
  1 29  1  0
  1 30  1  0
  1 31  1  0
  2 32  1  0
  2 33  1  0
  4 34  1  0
  4 35  1  0
  6 36  1  0
  7 37  1  0
  8 38  1  0
  9 39  1  0
 10 40  1  0
 15 41  1  0
 16 42  1  0
 21 43  1  0
 22 44  1  0
 22 45  1  0
 23 46  1  0
 23 47  1  0
 25 48  1  0
 25 49  1  0
 26 50  1  0
 26 51  1  0
 27 52  1  0
 28 53  1  0
M  CHG  1  21   1
M  END
>  <UniqueID>  (25) 
23

>  <SMILES>  (25) 
CCN(Cc1ccccc1)S(=O)(=O)c1ccc(S(=O)(=O)[NH+]2CCOCC2)cc1

>  <Energy>  (25) 
72.3294083462567

>  <Genealogy>  (25) 
CCN(Cc1ccccc1)S(=O)(=O)c1ccc(S(=O)(=O)[NH+]2CCOCC2)cc1 (protonated)
CCN(Cc1ccccc1)S(=O)(=O)c1ccc(S(=O)(=O)[NH+]2CCOCC2)cc1 (3D coordinates assigned)
CCN(Cc1ccccc1)S(=O)(=O)c1ccc(S(=O)(=O)[NH+]2CCOCC2)cc1 (nonaromatic ring conformer: 72.3294083462567 kcal/mol)

>  <smiles>  (25) 
CCN(Cc1ccccc1)S(=O)(=O)c1ccc(S(=O)(=O)N2CCOCC2)cc1

>  <score_type>  (25) 
oracle

>  <origin>  (25) 
adgpu

>  <m_score__min__energy>  (25) 
-9.3800000000000008

>  <m_primary>  (25) 
energy

$$$$
25:0
     RDKit          3D

 50 53  0  0  0  0  0  0  0  0999 V2000
   -4.4750   18.8830  -33.1670 C   0  0  0  0  0  0  0  0  0  0  0  0
   -4.4770   20.2800  -33.4440 O   0  0  0  0  0  0  0  0  0  0  0  0
   -5.1020   21.2520  -32.6460 C   0  0  0  0  0  0  0  0  0  0  0  0
   -4.3630   22.1420  -31.8480 C   0  0  0  0  0  0  0  0  0  0  0  0
   -5.0090   23.1080  -31.0640 C   0  0  0  0  0  0  0  0  0  0  0  0
   -4.2400   24.0510  -30.2170 C   0  0  0  0  0  0  0  0  0  0  0  0
   -3.8960   25.1640  -30.7010 O   0  0  0  0  0  0  0  0  0  0  0  0
   -3.8930   23.7190  -28.8590 N   0  0  0  0  0  0  0  0  0  0  0  0
   -3.0800   24.5520  -28.0130 C   0  0  0  0  0  0  0  0  0  0  0  0
   -3.5330   24.8720  -26.7260 C   0  0  0  0  0  0  0  0  0  0  0  0
   -2.7530   25.6590  -25.8750 C   0  0  0  0  0  0  0  0  0  0  0  0
   -1.4940   26.1280  -26.2890 C   0  0  0  0  0  0  0  0  0  0  0  0
   -0.6740   26.9610  -25.3790 C   0  0  0  0  0  0  0  0  0  0  0  0
   -0.5110   28.3000  -25.5440 N   0  0  0  0  0  0  0  0  0  0  0  0
    0.2860   28.8250  -24.5790 C   0  0  0  0  0  0  0  0  0  0  0  0
    0.6330   30.1750  -24.4900 C   0  0  0  0  0  0  0  0  0  0  0  0
    1.4680   30.5900  -23.4390 C   0  0  0  0  0  0  0  0  0  0  0  0
    1.9440   29.6570  -22.4950 C   0  0  0  0  0  0  0  0  0  0  0  0
    1.5890   28.3020  -22.5940 C   0  0  0  0  0  0  0  0  0  0  0  0
    0.7600   27.9190  -23.6460 C   0  0  0  0  0  0  0  0  0  0  0  0
    0.1740   26.3940  -24.0200 S   0  0  0  0  0  0  0  0  0  0  0  0
   -1.0300   25.7830  -27.5710 C   0  0  0  0  0  0  0  0  0  0  0  0
   -1.8130   24.9970  -28.4220 C   0  0  0  0  0  0  0  0  0  0  0  0
   -6.4100   23.1600  -31.0650 C   0  0  0  0  0  0  0  0  0  0  0  0
   -7.1710   22.2780  -31.8570 C   0  0  0  0  0  0  0  0  0  0  0  0
   -8.5740   22.3430  -31.8600 O   0  0  0  0  0  0  0  0  0  0  0  0
   -9.4320   21.5660  -31.0310 C   0  0  0  0  0  0  0  0  0  0  0  0
   -6.5050   21.3160  -32.6590 C   0  0  0  0  0  0  0  0  0  0  0  0
   -7.1710   20.3940  -33.4880 O   0  0  0  0  0  0  0  0  0  0  0  0
   -7.9120   19.2540  -33.0680 C   0  0  0  0  0  0  0  0  0  0  0  0
   -4.4748   18.7250  -32.0784 H   0  0  0  0  0  0  0  0  0  0  0  0
   -5.3725   18.4212  -33.6043 H   0  0  0  0  0  0  0  0  0  0  0  0
   -3.5762   18.4238  -33.6043 H   0  0  0  0  0  0  0  0  0  0  0  0
   -3.2648   22.0799  -31.8385 H   0  0  0  0  0  0  0  0  0  0  0  0
   -4.2850   22.8520  -28.4310 H   0  0  0  0  0  0  0  0  0  0  0  0
   -4.5101   24.5007  -26.3832 H   0  0  0  0  0  0  0  0  0  0  0  0
   -3.1272   25.9138  -24.8725 H   0  0  0  0  0  0  0  0  0  0  0  0
    0.2596   30.8995  -25.2287 H   0  0  0  0  0  0  0  0  0  0  0  0
    1.7521   31.6491  -23.3521 H   0  0  0  0  0  0  0  0  0  0  0  0
    2.5973   29.9926  -21.6761 H   0  0  0  0  0  0  0  0  0  0  0  0
    1.9543   27.5655  -21.8632 H   0  0  0  0  0  0  0  0  0  0  0  0
   -0.0432   26.1343  -27.9069 H   0  0  0  0  0  0  0  0  0  0  0  0
   -1.4338   24.7256  -29.4183 H   0  0  0  0  0  0  0  0  0  0  0  0
   -6.9238   23.9023  -30.4365 H   0  0  0  0  0  0  0  0  0  0  0  0
   -9.2054   21.7712  -29.9743 H   0  0  0  0  0  0  0  0  0  0  0  0
  -10.4796   21.8290  -31.2391 H   0  0  0  0  0  0  0  0  0  0  0  0
   -9.2739   20.4975  -31.2391 H   0  0  0  0  0  0  0  0  0  0  0  0
   -7.9361   19.2169  -31.9689 H   0  0  0  0  0  0  0  0  0  0  0  0
   -8.9394   19.3214  -33.4552 H   0  0  0  0  0  0  0  0  0  0  0  0
   -7.4333   18.3425  -33.4552 H   0  0  0  0  0  0  0  0  0  0  0  0
  1  2  1  0
  2  3  1  0
  3  4  2  0
  4  5  1  0
  5  6  1  0
  6  7  2  0
  6  8  1  0
  8  9  1  0
  9 10  2  0
 10 11  1  0
 11 12  2  0
 12 13  1  0
 13 14  2  0
 14 15  1  0
 15 16  2  0
 16 17  1  0
 17 18  2  0
 18 19  1  0
 19 20  2  0
 20 21  1  0
 12 22  1  0
 22 23  2  0
  5 24  2  0
 24 25  1  0
 25 26  1  0
 26 27  1  0
 25 28  2  0
 28 29  1  0
 29 30  1  0
 28  3  1  0
 23  9  1  0
 21 13  1  0
 20 15  1  0
  1 31  1  0
  1 32  1  0
  1 33  1  0
  4 34  1  0
  8 35  1  0
 10 36  1  0
 11 37  1  0
 16 38  1  0
 17 39  1  0
 18 40  1  0
 19 41  1  0
 22 42  1  0
 23 43  1  0
 24 44  1  0
 27 45  1  0
 27 46  1  0
 27 47  1  0
 30 48  1  0
 30 49  1  0
 30 50  1  0
M  END
>  <UniqueID>  (26) 
24

>  <SMILES>  (26) 
COc1cc(C(=O)Nc2ccc(-c3nc4ccccc4s3)cc2)cc(OC)c1OC

>  <Energy>  (26) 
98.69137226408174

>  <Genealogy>  (26) 
COc1cc(C(=O)Nc2ccc(-c3nc4ccccc4s3)cc2)cc(OC)c1OC (3D coordinates assigned)
COc1cc(C(=O)Nc2ccc(-c3nc4ccccc4s3)cc2)cc(OC)c1OC (optimized conformer: 98.69137226408174 kcal/mol)

>  <smiles>  (26) 
COc1cc(C(=O)Nc2ccc(-c3nc4ccccc4s3)cc2)cc(OC)c1OC

>  <score_type>  (26) 
oracle

>  <origin>  (26) 
adgpu

>  <m_score__min__energy>  (26) 
-7.8200000000000003

>  <m_primary>  (26) 
energy

$$$$
26:0
     RDKit          3D

 37 39  0  0  0  0  0  0  0  0999 V2000
   -0.4710   16.7580  -26.4460 H   0  0  0  0  0  0  0  0  0  0  0  0
    0.0540   17.2400  -27.1670 O   0  0  0  0  0  0  0  0  0  0  0  0
   -0.1840   18.5790  -27.4690 C   0  0  0  0  0  0  0  0  0  0  0  0
   -1.3840   19.1940  -27.0900 C   0  0  0  0  0  0  0  0  0  0  0  0
   -2.1486   18.6181  -26.5480 H   0  0  0  0  0  0  0  0  0  0  0  0
   -1.6120   20.5380  -27.3990 C   0  0  0  0  0  0  0  0  0  0  0  0
   -2.5572   21.0142  -27.0993 H   0  0  0  0  0  0  0  0  0  0  0  0
   -0.6410   21.2870  -28.0910 C   0  0  0  0  0  0  0  0  0  0  0  0
   -0.8830   22.7160  -28.4180 C   0  0  0  0  0  0  0  0  0  0  0  0
    0.0750   23.6950  -28.1220 C   0  0  0  0  0  0  0  0  0  0  0  0
    1.0265   23.4102  -27.6492 H   0  0  0  0  0  0  0  0  0  0  0  0
   -0.1740   24.9950  -28.4200 N   0  0  0  0  0  0  0  0  0  0  0  0
   -1.3130   25.3730  -29.0000 N   0  0  0  0  0  0  0  0  0  0  0  0
   -2.2810   24.4800  -29.3340 C   0  0  0  0  0  0  0  0  0  0  0  0
   -3.3730   24.9250  -29.8900 N   0  0  0  0  0  0  0  0  0  0  0  0
   -4.4710   24.1540  -30.4050 C   0  0  0  0  0  0  0  0  0  0  0  0
   -5.7780   24.6020  -30.1920 C   0  0  0  0  0  0  0  0  0  0  0  0
   -5.9536   25.5136  -29.6020 H   0  0  0  0  0  0  0  0  0  0  0  0
   -6.8640   23.8990  -30.7240 C   0  0  0  0  0  0  0  0  0  0  0  0
   -7.8885   24.2540  -30.5385 H   0  0  0  0  0  0  0  0  0  0  0  0
   -6.6540   22.7390  -31.4960 C   0  0  0  0  0  0  0  0  0  0  0  0
   -7.7690   21.9620  -32.0910 C   0  0  0  0  0  0  0  0  0  0  0  0
   -8.5347   22.5095  -32.6601 H   0  0  0  0  0  0  0  0  0  0  0  0
   -7.8990   20.6360  -31.9770 C   0  0  0  0  0  0  0  0  0  0  0  0
   -7.1570   20.0615  -31.4031 H   0  0  0  0  0  0  0  0  0  0  0  0
   -9.0030   19.9560  -32.6000 C   0  0  0  0  0  0  0  0  0  0  0  0
   -9.8910   19.4090  -33.1020 N   0  0  0  0  0  0  0  0  0  0  0  0
   -5.3360   22.3240  -31.7500 C   0  0  0  0  0  0  0  0  0  0  0  0
   -5.1545   21.4368  -32.3744 H   0  0  0  0  0  0  0  0  0  0  0  0
   -4.2530   23.0290  -31.2160 C   0  0  0  0  0  0  0  0  0  0  0  0
   -3.2257   22.7007  -31.4323 H   0  0  0  0  0  0  0  0  0  0  0  0
   -2.0800   23.1220  -29.0240 C   0  0  0  0  0  0  0  0  0  0  0  0
   -2.8596   22.3816  -29.2565 H   0  0  0  0  0  0  0  0  0  0  0  0
    0.5610   20.6590  -28.4660 C   0  0  0  0  0  0  0  0  0  0  0  0
    1.3298   21.2307  -29.0065 H   0  0  0  0  0  0  0  0  0  0  0  0
    0.7860   19.3140  -28.1570 C   0  0  0  0  0  0  0  0  0  0  0  0
    1.7289   18.8329  -28.4561 H   0  0  0  0  0  0  0  0  0  0  0  0
  1  2  1  0
  2  3  1  0
  3  4  2  0
  4  5  1  0
  4  6  1  0
  6  7  1  0
  6  8  2  0
  8  9  1  0
  9 10  1  0
 10 11  1  0
 10 12  2  0
 12 13  1  0
 13 14  1  0
 14 15  2  0
 15 16  1  0
 16 17  2  0
 17 18  1  0
 17 19  1  0
 19 20  1  0
 19 21  2  0
 21 22  1  0
 22 23  1  0
 22 24  2  0
 24 25  1  0
 24 26  1  0
 26 27  3  0
 21 28  1  0
 28 29  1  0
 28 30  2  0
 30 31  1  0
 14 32  1  0
 32 33  1  0
  8 34  1  0
 34 35  1  0
 34 36  2  0
 36 37  1  0
 36  3  1  0
 32  9  2  0
 30 16  1  0
M  CHG  1  13  -1
M  END
>  <UniqueID>  (27) 
25

>  <SMILES>  (27) 
N#C/C=C/c1ccc(/N=c2\cc(-c3ccc(O)cc3)cn[n-]2)cc1

>  <Energy>  (27) 
55.90403639165125

>  <Genealogy>  (27) 
N#CC=Cc1ccc(N=c2cc(-c3ccc(O)cc3)cn[n-]2)cc1 (protonated)
N#C/C=C/c1ccc(/N=c2\cc(-c3ccc(O)cc3)cn[n-]2)cc1 (cis-trans isomerization)
N#C/C=C/c1ccc(/N=c2\cc(-c3ccc(O)cc3)cn[n-]2)cc1 (3D coordinates assigned)
N#C/C=C/c1ccc(/N=c2\cc(-c3ccc(O)cc3)cn[n-]2)cc1 (optimized conformer: 55.90403639165125 kcal/mol)

>  <smiles>  (27) 
N#CC=Cc1ccc(N=c2cc(-c3ccc(O)cc3)cn[nH]2)cc1

>  <score_type>  (27) 
oracle

>  <origin>  (27) 
adgpu

>  <m_score__min__energy>  (27) 
-11.01

>  <m_primary>  (27) 
energy

$$$$
27:0
     RDKit          3D

 46 48  0  0  0  0  0  0  0  0999 V2000
   -0.8700   26.4400  -27.8430 C   0  0  0  0  0  0  0  0  0  0  0  0
   -1.5560   25.8940  -28.9640 O   0  0  0  0  0  0  0  0  0  0  0  0
   -1.8130   24.5270  -29.1540 C   0  0  0  0  0  0  0  0  0  0  0  0
   -0.9740   23.5340  -28.6100 C   0  0  0  0  0  0  0  0  0  0  0  0
   -1.2900   22.1810  -28.7570 C   0  0  0  0  0  0  0  0  0  0  0  0
   -2.4460   21.8040  -29.4410 C   0  0  0  0  0  0  0  0  0  0  0  0
   -3.2800   22.7760  -29.9930 C   0  0  0  0  0  0  0  0  0  0  0  0
   -2.9590   24.1360  -29.8820 C   0  0  0  0  0  0  0  0  0  0  0  0
   -3.8500   25.0950  -30.4670 N   0  0  0  0  0  0  0  0  0  0  0  0
   -5.2790   25.0070  -30.4670 C   0  0  0  0  0  0  0  0  0  0  0  0
   -5.9450   25.3830  -29.4640 O   0  0  0  0  0  0  0  0  0  0  0  0
   -5.9910   24.5670  -31.7040 C   0  0  0  0  0  0  0  0  0  0  0  0
   -6.5450   23.1920  -31.5120 C   0  0  0  0  0  0  0  0  0  0  0  0
   -7.7440   22.8810  -30.8810 C   0  0  0  0  0  0  0  0  0  0  0  0
   -8.0490   21.5160  -30.9200 C   0  0  0  0  0  0  0  0  0  0  0  0
   -7.0890   20.7630  -31.5840 C   0  0  0  0  0  0  0  0  0  0  0  0
   -7.1610   19.0310  -31.8670 S   0  0  0  0  0  0  0  0  0  0  0  0
   -8.4940   18.5220  -31.3960 O   0  0  0  0  0  0  0  0  0  0  0  0
   -6.0950   18.3740  -31.0340 O   0  0  0  0  0  0  0  0  0  0  0  0
   -6.9270   18.5930  -33.5500 N   0  0  0  0  0  0  0  0  0  0  0  0
   -6.8560   17.1230  -33.7410 C   0  0  0  0  0  0  0  0  0  0  0  0
   -5.4130   16.6110  -33.9080 C   0  0  0  0  0  0  0  0  0  0  0  0
   -4.5180   17.4150  -33.1770 O   0  0  0  0  0  0  0  0  0  0  0  0
   -4.4170   18.6930  -33.7750 C   0  0  0  0  0  0  0  0  0  0  0  0
   -5.7860   19.3070  -34.1570 C   0  0  0  0  0  0  0  0  0  0  0  0
   -5.8760   21.7830  -32.1470 S   0  0  0  0  0  0  0  0  0  0  0  0
   -1.3324   26.0719  -26.9153 H   0  0  0  0  0  0  0  0  0  0  0  0
    0.1856   26.1323  -27.8736 H   0  0  0  0  0  0  0  0  0  0  0  0
   -0.9330   27.5378  -27.8736 H   0  0  0  0  0  0  0  0  0  0  0  0
   -0.0638   23.8262  -28.0658 H   0  0  0  0  0  0  0  0  0  0  0  0
   -0.6269   21.4125  -28.3331 H   0  0  0  0  0  0  0  0  0  0  0  0
   -2.7000   20.7388  -29.5451 H   0  0  0  0  0  0  0  0  0  0  0  0
   -4.1970   22.4730  -30.5197 H   0  0  0  0  0  0  0  0  0  0  0  0
   -6.8138   25.2648  -31.9187 H   0  0  0  0  0  0  0  0  0  0  0  0
   -5.2821   24.5570  -32.5450 H   0  0  0  0  0  0  0  0  0  0  0  0
   -8.3878   23.6320  -30.3998 H   0  0  0  0  0  0  0  0  0  0  0  0
   -8.9555   21.0838  -30.4711 H   0  0  0  0  0  0  0  0  0  0  0  0
   -7.7900   18.9290  -34.0400 H   0  0  0  0  0  0  0  0  0  0  0  0
   -7.3034   16.6328  -32.8638 H   0  0  0  0  0  0  0  0  0  0  0  0
   -7.4013   16.8828  -34.6656 H   0  0  0  0  0  0  0  0  0  0  0  0
   -5.3514   15.5755  -33.5420 H   0  0  0  0  0  0  0  0  0  0  0  0
   -5.1411   16.6529  -34.9730 H   0  0  0  0  0  0  0  0  0  0  0  0
   -3.9174   19.3702  -33.0666 H   0  0  0  0  0  0  0  0  0  0  0  0
   -3.8468   18.5693  -34.7075 H   0  0  0  0  0  0  0  0  0  0  0  0
   -5.8074   20.3537  -33.8193 H   0  0  0  0  0  0  0  0  0  0  0  0
   -5.8901   19.2262  -35.2491 H   0  0  0  0  0  0  0  0  0  0  0  0
  1  2  1  0
  2  3  1  0
  3  4  2  0
  4  5  1  0
  5  6  2  0
  6  7  1  0
  7  8  2  0
  8  9  1  0
  9 10  1  0
 10 11  2  0
 10 12  1  0
 12 13  1  0
 13 14  2  0
 14 15  1  0
 15 16  2  0
 16 17  1  0
 17 18  2  0
 17 19  2  0
 17 20  1  0
 20 21  1  0
 21 22  1  0
 22 23  1  0
 23 24  1  0
 24 25  1  0
 16 26  1  0
  8  3  1  0
 26 13  1  0
 25 20  1  0
  1 27  1  0
  1 28  1  0
  1 29  1  0
  4 30  1  0
  5 31  1  0
  6 32  1  0
  7 33  1  0
 12 34  1  0
 12 35  1  0
 14 36  1  0
 15 37  1  0
 20 38  1  0
 21 39  1  0
 21 40  1  0
 22 41  1  0
 22 42  1  0
 24 43  1  0
 24 44  1  0
 25 45  1  0
 25 46  1  0
M  CHG  2   9  -1  20   1
M  END
>  <UniqueID>  (28) 
26

>  <SMILES>  (28) 
COc1ccccc1[N-]C(=O)Cc1ccc(S(=O)(=O)[NH+]2CCOCC2)s1

>  <Energy>  (28) 
85.69651828559614

>  <Genealogy>  (28) 
COc1ccccc1[N-]C(=O)Cc1ccc(S(=O)(=O)[NH+]2CCOCC2)s1 (protonated)
COc1ccccc1[N-]C(=O)Cc1ccc(S(=O)(=O)[NH+]2CCOCC2)s1 (3D coordinates assigned)
COc1ccccc1[N-]C(=O)Cc1ccc(S(=O)(=O)[NH+]2CCOCC2)s1 (nonaromatic ring conformer: 85.69651828559614 kcal/mol)

>  <smiles>  (28) 
COc1ccccc1NC(=O)Cc1ccc(S(=O)(=O)N2CCOCC2)s1

>  <score_type>  (28) 
oracle

>  <origin>  (28) 
adgpu

>  <m_score__min__energy>  (28) 
-10.69

>  <m_primary>  (28) 
energy

$$$$
28:0
     RDKit          3D

 42 44  0  0  0  0  0  0  0  0999 V2000
    0.3630   25.9640  -26.8290 C   0  0  0  0  0  0  0  0  0  0  0  0
    0.6680   25.0280  -27.8580 O   0  0  0  0  0  0  0  0  0  0  0  0
   -0.2570   24.1320  -28.4150 C   0  0  0  0  0  0  0  0  0  0  0  0
    0.0560   22.7690  -28.4120 C   0  0  0  0  0  0  0  0  0  0  0  0
   -0.8330   21.8370  -28.9530 C   0  0  0  0  0  0  0  0  0  0  0  0
   -2.0450   22.2590  -29.5010 C   0  0  0  0  0  0  0  0  0  0  0  0
   -2.3790   23.6230  -29.5160 C   0  0  0  0  0  0  0  0  0  0  0  0
   -3.6650   24.0650  -30.0940 C   0  0  0  0  0  0  0  0  0  0  0  0
   -4.7150   23.2400  -30.3040 N   0  0  0  0  0  0  0  0  0  0  0  0
   -5.6420   24.0580  -30.8360 C   0  0  0  0  0  0  0  0  0  0  0  0
   -6.9940   23.6100  -31.2990 C   0  0  0  0  0  0  0  0  0  0  0  0
   -6.8830   22.8960  -32.5710 N   0  0  0  0  0  0  0  0  0  0  0  0
   -6.7470   21.4670  -32.6960 C   0  0  0  0  0  0  0  0  0  0  0  0
   -5.5390   20.8650  -33.0920 C   0  0  0  0  0  0  0  0  0  0  0  0
   -5.4440   19.4760  -33.2100 C   0  0  0  0  0  0  0  0  0  0  0  0
   -6.5500   18.6530  -32.9310 C   0  0  0  0  0  0  0  0  0  0  0  0
   -6.4330   17.1750  -33.0640 C   0  0  0  0  0  0  0  0  0  0  0  0
   -5.4180   16.3880  -32.2910 C   0  0  0  0  0  0  0  0  0  0  0  0
   -7.2040   16.5540  -33.8460 O   0  0  0  0  0  0  0  0  0  0  0  0
   -7.7550   19.2580  -32.5260 C   0  0  0  0  0  0  0  0  0  0  0  0
   -7.8480   20.6480  -32.4110 C   0  0  0  0  0  0  0  0  0  0  0  0
   -5.1340   25.3320  -30.9370 C   0  0  0  0  0  0  0  0  0  0  0  0
   -3.9120   25.3020  -30.4670 O   0  0  0  0  0  0  0  0  0  0  0  0
   -1.4800   24.5570  -28.9700 C   0  0  0  0  0  0  0  0  0  0  0  0
    0.5166   25.4925  -25.8471 H   0  0  0  0  0  0  0  0  0  0  0  0
    1.0223   26.8395  -26.9225 H   0  0  0  0  0  0  0  0  0  0  0  0
   -0.6856   26.2830  -26.9225 H   0  0  0  0  0  0  0  0  0  0  0  0
    1.0088   22.4284  -27.9806 H   0  0  0  0  0  0  0  0  0  0  0  0
   -0.5768   20.7673  -28.9470 H   0  0  0  0  0  0  0  0  0  0  0  0
   -2.7419   21.5200  -29.9231 H   0  0  0  0  0  0  0  0  0  0  0  0
   -7.4330   22.9410  -30.5442 H   0  0  0  0  0  0  0  0  0  0  0  0
   -7.6356   24.4926  -31.4383 H   0  0  0  0  0  0  0  0  0  0  0  0
   -6.8550   23.4770  -33.4410 H   0  0  0  0  0  0  0  0  0  0  0  0
   -4.6624   21.4925  -33.3105 H   0  0  0  0  0  0  0  0  0  0  0  0
   -4.4933   19.0209  -33.5247 H   0  0  0  0  0  0  0  0  0  0  0  0
   -5.5924   16.5232  -31.2134 H   0  0  0  0  0  0  0  0  0  0  0  0
   -5.5088   15.3219  -32.5462 H   0  0  0  0  0  0  0  0  0  0  0  0
   -4.4081   16.7414  -32.5462 H   0  0  0  0  0  0  0  0  0  0  0  0
   -8.6303   18.6319  -32.2982 H   0  0  0  0  0  0  0  0  0  0  0  0
   -8.7969   21.1046  -32.0929 H   0  0  0  0  0  0  0  0  0  0  0  0
   -5.6570   26.2127  -31.3381 H   0  0  0  0  0  0  0  0  0  0  0  0
   -1.7339   25.6273  -28.9765 H   0  0  0  0  0  0  0  0  0  0  0  0
  1  2  1  0
  2  3  1  0
  3  4  2  0
  4  5  1  0
  5  6  2  0
  6  7  1  0
  7  8  1  0
  8  9  2  0
  9 10  1  0
 10 11  1  0
 11 12  1  0
 12 13  1  0
 13 14  2  0
 14 15  1  0
 15 16  2  0
 16 17  1  0
 17 18  1  0
 17 19  2  0
 16 20  1  0
 20 21  2  0
 10 22  2  0
 22 23  1  0
  7 24  2  0
 24  3  1  0
 23  8  1  0
 21 13  1  0
  1 25  1  0
  1 26  1  0
  1 27  1  0
  4 28  1  0
  5 29  1  0
  6 30  1  0
 11 31  1  0
 11 32  1  0
 12 33  1  0
 14 34  1  0
 15 35  1  0
 18 36  1  0
 18 37  1  0
 18 38  1  0
 20 39  1  0
 21 40  1  0
 22 41  1  0
 24 42  1  0
M  END
>  <UniqueID>  (29) 
27

>  <SMILES>  (29) 
COc1cccc(-c2nc(CNc3ccc(C(C)=O)cc3)co2)c1

>  <Energy>  (29) 
72.04341457755122

>  <Genealogy>  (29) 
COc1cccc(-c2nc(CNc3ccc(C(C)=O)cc3)co2)c1 (3D coordinates assigned)
COc1cccc(-c2nc(CNc3ccc(C(C)=O)cc3)co2)c1 (optimized conformer: 72.04341457755122 kcal/mol)

>  <smiles>  (29) 
COc1cccc(-c2nc(CNc3ccc(C(C)=O)cc3)co2)c1

>  <score_type>  (29) 
oracle

>  <origin>  (29) 
adgpu

>  <m_score__min__energy>  (29) 
-8.6099999999999994

>  <m_primary>  (29) 
energy

$$$$
29:0
     RDKit          3D

 35 36  0  0  0  0  0  0  0  0999 V2000
   -3.1363   18.7377  -34.2100 H   0  0  0  0  0  0  0  0  0  0  0  0
   -4.0900   18.8120  -33.6670 C   0  0  0  0  0  0  0  0  0  0  0  0
   -4.8340   17.6610  -33.4030 C   0  0  0  0  0  0  0  0  0  0  0  0
   -4.4596   16.6791  -33.7280 H   0  0  0  0  0  0  0  0  0  0  0  0
   -6.0530   17.7530  -32.7270 C   0  0  0  0  0  0  0  0  0  0  0  0
   -6.6328   16.8416  -32.5191 H   0  0  0  0  0  0  0  0  0  0  0  0
   -6.5430   19.0020  -32.3110 C   0  0  0  0  0  0  0  0  0  0  0  0
   -7.8650   19.0770  -31.5950 C   0  0  0  0  0  0  0  0  0  0  0  0
   -7.6945   19.0673  -30.5083 H   0  0  0  0  0  0  0  0  0  0  0  0
   -8.3824   20.0059  -31.8767 H   0  0  0  0  0  0  0  0  0  0  0  0
   -8.4841   18.2125  -31.8767 H   0  0  0  0  0  0  0  0  0  0  0  0
   -5.7650   20.1610  -32.5430 C   0  0  0  0  0  0  0  0  0  0  0  0
   -6.2120   21.4580  -32.1200 N   0  0  0  0  0  0  0  0  0  0  0  0
   -5.4850   22.3710  -31.5350 C   0  0  0  0  0  0  0  0  0  0  0  0
   -6.0910   23.5810  -31.1230 C   0  0  0  0  0  0  0  0  0  0  0  0
   -7.5730   23.8120  -31.3410 C   0  0  0  0  0  0  0  0  0  0  0  0
   -8.0789   23.8909  -30.3674 H   0  0  0  0  0  0  0  0  0  0  0  0
   -7.7195   24.7438  -31.9069 H   0  0  0  0  0  0  0  0  0  0  0  0
   -7.9962   22.9690  -31.9069 H   0  0  0  0  0  0  0  0  0  0  0  0
   -5.2820   24.5930  -30.5510 C   0  0  0  0  0  0  0  0  0  0  0  0
   -5.8750   25.9180  -30.1320 C   0  0  0  0  0  0  0  0  0  0  0  0
   -5.9014   25.9770  -29.0339 H   0  0  0  0  0  0  0  0  0  0  0  0
   -5.2579   26.7377  -30.5285 H   0  0  0  0  0  0  0  0  0  0  0  0
   -6.8974   26.0039  -30.5285 H   0  0  0  0  0  0  0  0  0  0  0  0
   -3.9180   24.3380  -30.3280 C   0  0  0  0  0  0  0  0  0  0  0  0
   -3.1100   25.2980  -29.7210 O   0  0  0  0  0  0  0  0  0  0  0  0
   -3.3630   23.1140  -30.7210 C   0  0  0  0  0  0  0  0  0  0  0  0
   -1.8970   22.8530  -30.5170 C   0  0  0  0  0  0  0  0  0  0  0  0
   -1.6779   22.8140  -29.4397 H   0  0  0  0  0  0  0  0  0  0  0  0
   -1.6275   21.8927  -30.9810 H   0  0  0  0  0  0  0  0  0  0  0  0
   -1.3126   23.6612  -30.9810 H   0  0  0  0  0  0  0  0  0  0  0  0
   -4.1430   22.1810  -31.3330 N   0  0  0  0  0  0  0  0  0  0  0  0
   -3.6840   21.3010  -31.6600 H   0  0  0  0  0  0  0  0  0  0  0  0
   -4.5560   20.0580  -33.2420 C   0  0  0  0  0  0  0  0  0  0  0  0
   -3.9700   20.9636  -33.4576 H   0  0  0  0  0  0  0  0  0  0  0  0
  1  2  1  0
  2  3  2  0
  3  4  1  0
  3  5  1  0
  5  6  1  0
  5  7  2  0
  7  8  1  0
  8  9  1  0
  8 10  1  0
  8 11  1  0
  7 12  1  0
 12 13  1  0
 13 14  2  0
 14 15  1  0
 15 16  1  0
 16 17  1  0
 16 18  1  0
 16 19  1  0
 15 20  2  0
 20 21  1  0
 21 22  1  0
 21 23  1  0
 21 24  1  0
 20 25  1  0
 25 26  1  0
 25 27  2  0
 27 28  1  0
 28 29  1  0
 28 30  1  0
 28 31  1  0
 27 32  1  0
 32 33  1  0
 12 34  2  0
 34 35  1  0
 34  2  1  0
 32 14  1  0
M  CHG  1  26  -1
M  END
>  <UniqueID>  (30) 
28

>  <SMILES>  (30) 
Cc1ccccc1/N=c1\[nH]c(C)c([O-])c(C)c1C

>  <Energy>  (30) 
48.273531699245666

>  <Genealogy>  (30) 
Cc1ccccc1N=c1[nH]c(C)c([O-])c(C)c1C (protonated)
Cc1ccccc1/N=c1\[nH]c(C)c([O-])c(C)c1C (cis-trans isomerization)
Cc1ccccc1/N=c1\[nH]c(C)c([O-])c(C)c1C (3D coordinates assigned)
Cc1ccccc1/N=c1\[nH]c(C)c([O-])c(C)c1C (optimized conformer: 48.273531699245666 kcal/mol)

>  <smiles>  (30) 
Cc1ccccc1N=c1[nH]c(C)c(O)c(C)c1C

>  <score_type>  (30) 
oracle

>  <origin>  (30) 
adgpu

>  <m_score__min__energy>  (30) 
-10.140000000000001

>  <m_primary>  (30) 
energy

$$$$
30:0
     RDKit          3D

 45 47  0  0  0  0  0  0  0  0999 V2000
   -4.2850   13.3800  -31.2490 C   0  0  0  0  0  0  0  0  0  0  0  0
   -4.6380   14.6540  -32.0160 C   0  0  0  0  0  0  0  0  0  0  0  0
   -5.1420   14.3670  -33.4370 C   0  0  0  0  0  0  0  0  0  0  0  0
   -6.1000   15.4260  -33.9140 C   0  0  0  0  0  0  0  0  0  0  0  0
   -7.2670   15.0690  -34.2310 O   0  0  0  0  0  0  0  0  0  0  0  0
   -5.7860   16.8740  -33.9080 C   0  0  0  0  0  0  0  0  0  0  0  0
   -4.8080   17.4620  -34.6880 C   0  0  0  0  0  0  0  0  0  0  0  0
   -4.7910   18.7900  -34.4700 N   0  0  0  0  0  0  0  0  0  0  0  0
   -5.7110   19.0650  -33.5580 N   0  0  0  0  0  0  0  0  0  0  0  0
   -5.9510   20.3970  -33.0880 C   0  0  0  0  0  0  0  0  0  0  0  0
   -4.8710   21.2390  -32.7930 C   0  0  0  0  0  0  0  0  0  0  0  0
   -5.0940   22.5290  -32.3020 C   0  0  0  0  0  0  0  0  0  0  0  0
   -6.4060   22.9910  -32.0990 C   0  0  0  0  0  0  0  0  0  0  0  0
   -6.6690   24.2980  -31.5690 N   0  0  0  0  0  0  0  0  0  0  0  0
   -6.2280   24.7970  -30.3010 C   0  0  0  0  0  0  0  0  0  0  0  0
   -7.0380   25.4460  -29.5870 O   0  0  0  0  0  0  0  0  0  0  0  0
   -4.8340   24.6360  -29.8450 C   0  0  0  0  0  0  0  0  0  0  0  0
   -4.4140   23.8430  -28.7960 C   0  0  0  0  0  0  0  0  0  0  0  0
   -3.0540   24.0590  -28.7480 C   0  0  0  0  0  0  0  0  0  0  0  0
   -2.0930   23.3820  -27.8290 C   0  0  0  0  0  0  0  0  0  0  0  0
   -2.6900   24.9180  -29.7190 N   0  0  0  0  0  0  0  0  0  0  0  0
   -3.7780   25.2790  -30.3810 N   0  0  0  0  0  0  0  0  0  0  0  0
   -7.4830   22.1300  -32.3450 C   0  0  0  0  0  0  0  0  0  0  0  0
   -7.2590   20.8410  -32.8380 C   0  0  0  0  0  0  0  0  0  0  0  0
   -6.3400   17.9260  -33.1830 C   0  0  0  0  0  0  0  0  0  0  0  0
   -7.4790   17.8530  -32.2070 C   0  0  0  0  0  0  0  0  0  0  0  0
   -4.3393   13.5759  -30.1680 H   0  0  0  0  0  0  0  0  0  0  0  0
   -4.9964   12.5838  -31.5135 H   0  0  0  0  0  0  0  0  0  0  0  0
   -3.2653   13.0634  -31.5135 H   0  0  0  0  0  0  0  0  0  0  0  0
   -5.4244   15.1905  -31.4649 H   0  0  0  0  0  0  0  0  0  0  0  0
   -3.7211   15.2554  -32.1029 H   0  0  0  0  0  0  0  0  0  0  0  0
   -4.2806   14.3320  -34.1202 H   0  0  0  0  0  0  0  0  0  0  0  0
   -5.6746   13.4046  -33.4235 H   0  0  0  0  0  0  0  0  0  0  0  0
   -4.1440   16.9257  -35.3819 H   0  0  0  0  0  0  0  0  0  0  0  0
   -3.8418   20.8833  -32.9485 H   0  0  0  0  0  0  0  0  0  0  0  0
   -4.2404   23.1842  -32.0739 H   0  0  0  0  0  0  0  0  0  0  0  0
   -5.0219   23.1920  -28.1505 H   0  0  0  0  0  0  0  0  0  0  0  0
   -2.3790   23.5835  -26.7861 H   0  0  0  0  0  0  0  0  0  0  0  0
   -2.1130   22.2975  -28.0117 H   0  0  0  0  0  0  0  0  0  0  0  0
   -1.0785   23.7659  -28.0117 H   0  0  0  0  0  0  0  0  0  0  0  0
   -8.5107   22.4698  -32.1492 H   0  0  0  0  0  0  0  0  0  0  0  0
   -8.1109   20.1723  -33.0307 H   0  0  0  0  0  0  0  0  0  0  0  0
   -7.0845   17.8783  -31.1805 H   0  0  0  0  0  0  0  0  0  0  0  0
   -8.1509   18.7099  -32.3628 H   0  0  0  0  0  0  0  0  0  0  0  0
   -8.0360   16.9173  -32.3628 H   0  0  0  0  0  0  0  0  0  0  0  0
  1  2  1  0
  2  3  1  0
  3  4  1  0
  4  5  2  0
  4  6  1  0
  6  7  1  0
  7  8  2  0
  8  9  1  0
  9 10  1  0
 10 11  2  0
 11 12  1  0
 12 13  2  0
 13 14  1  0
 14 15  1  0
 15 16  2  0
 15 17  1  0
 17 18  2  0
 18 19  1  0
 19 20  1  0
 19 21  2  0
 21 22  1  0
 13 23  1  0
 23 24  2  0
  9 25  1  0
 25 26  1  0
 25  6  2  0
 24 10  1  0
 22 17  1  0
  1 27  1  0
  1 28  1  0
  1 29  1  0
  2 30  1  0
  2 31  1  0
  3 32  1  0
  3 33  1  0
  7 34  1  0
 11 35  1  0
 12 36  1  0
 18 37  1  0
 20 38  1  0
 20 39  1  0
 20 40  1  0
 23 41  1  0
 24 42  1  0
 26 43  1  0
 26 44  1  0
 26 45  1  0
M  CHG  2  14  -1  22  -1
M  END
>  <UniqueID>  (31) 
29

>  <SMILES>  (31) 
CCCC(=O)c1cnn(-c2ccc([N-]C(=O)c3cc(C)n[n-]3)cc2)c1C

>  <Energy>  (31) 
114.94263409221234

>  <Genealogy>  (31) 
CCCC(=O)c1cnn(-c2ccc([N-]C(=O)c3cc(C)n[n-]3)cc2)c1C (protonated)
CCCC(=O)c1cnn(-c2ccc([N-]C(=O)c3cc(C)n[n-]3)cc2)c1C (3D coordinates assigned)
CCCC(=O)c1cnn(-c2ccc([N-]C(=O)c3cc(C)n[n-]3)cc2)c1C (optimized conformer: 114.94263409221234 kcal/mol)

>  <smiles>  (31) 
CCCC(=O)c1cnn(-c2ccc(NC(=O)c3cc(C)n[nH]3)cc2)c1C

>  <score_type>  (31) 
oracle

>  <origin>  (31) 
adgpu

>  <m_score__min__energy>  (31) 
-10.82

>  <m_primary>  (31) 
energy

$$$$
31:0
     RDKit          3D

 54 56  0  0  0  0  0  0  0  0999 V2000
   -1.2210   25.8450  -27.5170 C   0  0  0  0  0  0  0  0  0  0  0  0
   -1.7660   25.6030  -28.8090 O   0  0  0  0  0  0  0  0  0  0  0  0
   -2.0240   24.3270  -29.3370 C   0  0  0  0  0  0  0  0  0  0  0  0
   -1.2190   23.2140  -29.0270 C   0  0  0  0  0  0  0  0  0  0  0  0
   -1.5100   21.9590  -29.5660 C   0  0  0  0  0  0  0  0  0  0  0  0
   -2.6090   21.7920  -30.4200 C   0  0  0  0  0  0  0  0  0  0  0  0
   -2.9160   20.4390  -31.0110 C   0  0  0  0  0  0  0  0  0  0  0  0
   -2.0400   20.1390  -32.2020 C   0  0  0  0  0  0  0  0  0  0  0  0
   -0.7890   20.1190  -32.0580 O   0  0  0  0  0  0  0  0  0  0  0  0
   -2.5940   19.7000  -33.4500 N   0  0  0  0  0  0  0  0  0  0  0  0
   -3.8250   18.9880  -33.6300 C   0  0  0  0  0  0  0  0  0  0  0  0
   -3.8970   17.9910  -34.6100 C   0  0  0  0  0  0  0  0  0  0  0  0
   -5.0950   17.3050  -34.8280 C   0  0  0  0  0  0  0  0  0  0  0  0
   -6.2310   17.6210  -34.0800 C   0  0  0  0  0  0  0  0  0  0  0  0
   -6.1790   18.6360  -33.1140 C   0  0  0  0  0  0  0  0  0  0  0  0
   -7.6180   19.0450  -32.1740 S   0  0  0  0  0  0  0  0  0  0  0  0
   -8.8230   19.0130  -33.0730 O   0  0  0  0  0  0  0  0  0  0  0  0
   -7.8140   18.0150  -31.0970 O   0  0  0  0  0  0  0  0  0  0  0  0
   -7.4820   20.6300  -31.4470 N   0  0  0  0  0  0  0  0  0  0  0  0
   -6.8120   21.5670  -32.3750 C   0  0  0  0  0  0  0  0  0  0  0  0
   -7.0330   23.0230  -31.9530 C   0  0  0  0  0  0  0  0  0  0  0  0
   -8.5270   23.3900  -31.9850 C   0  0  0  0  0  0  0  0  0  0  0  0
   -9.4440   22.1680  -31.8120 C   0  0  0  0  0  0  0  0  0  0  0  0
   -8.7870   21.1040  -30.9210 C   0  0  0  0  0  0  0  0  0  0  0  0
   -4.9780   19.3300  -32.9050 C   0  0  0  0  0  0  0  0  0  0  0  0
   -3.3990   22.9020  -30.7460 C   0  0  0  0  0  0  0  0  0  0  0  0
   -3.1190   24.1700  -30.1990 C   0  0  0  0  0  0  0  0  0  0  0  0
   -3.9070   25.2950  -30.4920 O   0  0  0  0  0  0  0  0  0  0  0  0
   -5.3190   25.3590  -30.3140 C   0  0  0  0  0  0  0  0  0  0  0  0
   -1.9412   25.5252  -26.7495 H   0  0  0  0  0  0  0  0  0  0  0  0
   -0.2858   25.2776  -27.4014 H   0  0  0  0  0  0  0  0  0  0  0  0
   -1.0148   26.9193  -27.4014 H   0  0  0  0  0  0  0  0  0  0  0  0
   -0.3556   23.3339  -28.3561 H   0  0  0  0  0  0  0  0  0  0  0  0
   -0.8733   21.0967  -29.3190 H   0  0  0  0  0  0  0  0  0  0  0  0
   -2.7503   19.6687  -30.2434 H   0  0  0  0  0  0  0  0  0  0  0  0
   -3.9633   20.4412  -31.3473 H   0  0  0  0  0  0  0  0  0  0  0  0
   -3.0081   17.7468  -35.2102 H   0  0  0  0  0  0  0  0  0  0  0  0
   -5.1431   16.5140  -35.5909 H   0  0  0  0  0  0  0  0  0  0  0  0
   -7.1692   17.0722  -34.2490 H   0  0  0  0  0  0  0  0  0  0  0  0
   -5.7325   21.3555  -32.3801 H   0  0  0  0  0  0  0  0  0  0  0  0
   -7.2411   21.4277  -33.3782 H   0  0  0  0  0  0  0  0  0  0  0  0
   -6.6509   23.1625  -30.9310 H   0  0  0  0  0  0  0  0  0  0  0  0
   -6.4984   23.6756  -32.6589 H   0  0  0  0  0  0  0  0  0  0  0  0
   -8.7318   24.1012  -31.1712 H   0  0  0  0  0  0  0  0  0  0  0  0
   -8.7399   23.8270  -32.9718 H   0  0  0  0  0  0  0  0  0  0  0  0
  -10.3884   22.4905  -31.3493 H   0  0  0  0  0  0  0  0  0  0  0  0
   -9.6288   21.7275  -32.8029 H   0  0  0  0  0  0  0  0  0  0  0  0
   -8.6262   21.5347  -29.9217 H   0  0  0  0  0  0  0  0  0  0  0  0
   -9.4635   20.2371  -30.8915 H   0  0  0  0  0  0  0  0  0  0  0  0
   -4.9392   20.1467  -32.1691 H   0  0  0  0  0  0  0  0  0  0  0  0
   -4.2470   22.7824  -31.4364 H   0  0  0  0  0  0  0  0  0  0  0  0
   -5.5530   25.3696  -29.2392 H   0  0  0  0  0  0  0  0  0  0  0  0
   -5.7065   26.2756  -30.7827 H   0  0  0  0  0  0  0  0  0  0  0  0
   -5.7878   24.4812  -30.7827 H   0  0  0  0  0  0  0  0  0  0  0  0
  1  2  1  0
  2  3  1  0
  3  4  2  0
  4  5  1  0
  5  6  2  0
  6  7  1  0
  7  8  1  0
  8  9  2  0
  8 10  1  0
 10 11  1  0
 11 12  2  0
 12 13  1  0
 13 14  2  0
 14 15  1  0
 15 16  1  0
 16 17  2  0
 16 18  2  0
 16 19  1  0
 19 20  1  0
 20 21  1  0
 21 22  1  0
 22 23  1  0
 23 24  1  0
 15 25  2  0
  6 26  1  0
 26 27  2  0
 27 28  1  0
 28 29  1  0
 27  3  1  0
 25 11  1  0
 24 19  1  0
  1 30  1  0
  1 31  1  0
  1 32  1  0
  4 33  1  0
  5 34  1  0
  7 35  1  0
  7 36  1  0
 12 37  1  0
 13 38  1  0
 14 39  1  0
 20 40  1  0
 20 41  1  0
 21 42  1  0
 21 43  1  0
 22 44  1  0
 22 45  1  0
 23 46  1  0
 23 47  1  0
 24 48  1  0
 24 49  1  0
 25 50  1  0
 26 51  1  0
 29 52  1  0
 29 53  1  0
 29 54  1  0
M  CHG  1  10  -1
M  END
>  <UniqueID>  (32) 
30

>  <SMILES>  (32) 
COc1ccc(CC(=O)[N-]c2cccc(S(=O)(=O)N3CCCCC3)c2)cc1OC

>  <Energy>  (32) 
60.205932578121505

>  <Genealogy>  (32) 
COc1ccc(CC(=O)[N-]c2cccc(S(=O)(=O)N3CCCCC3)c2)cc1OC (protonated)
COc1ccc(CC(=O)[N-]c2cccc(S(=O)(=O)N3CCCCC3)c2)cc1OC (3D coordinates assigned)
COc1ccc(CC(=O)[N-]c2cccc(S(=O)(=O)N3CCCCC3)c2)cc1OC (nonaromatic ring conformer: 60.205932578121505 kcal/mol)

>  <smiles>  (32) 
COc1ccc(CC(=O)Nc2cccc(S(=O)(=O)N3CCCCC3)c2)cc1OC

>  <score_type>  (32) 
oracle

>  <origin>  (32) 
adgpu

>  <m_score__min__energy>  (32) 
-10.880000000000001

>  <m_primary>  (32) 
energy

$$$$
32:0
     RDKit          3D

 39 41  0  0  0  0  0  0  0  0999 V2000
   -1.2310   26.6580  -28.9700 O   0  0  0  0  0  0  0  0  0  0  0  0
   -1.4040   25.3000  -28.7350 C   0  0  0  0  0  0  0  0  0  0  0  0
   -0.4950   24.6120  -27.9240 C   0  0  0  0  0  0  0  0  0  0  0  0
   -0.6640   23.2460  -27.6820 C   0  0  0  0  0  0  0  0  0  0  0  0
   -1.7520   22.5560  -28.2440 C   0  0  0  0  0  0  0  0  0  0  0  0
   -1.9270   21.0820  -27.9840 C   0  0  0  0  0  0  0  0  0  0  0  0
   -2.5630   20.4260  -29.1280 N   0  0  0  0  0  0  0  0  0  0  0  0
   -2.1910   20.6450  -30.5040 C   0  0  0  0  0  0  0  0  0  0  0  0
   -3.0790   21.2170  -31.4340 C   0  0  0  0  0  0  0  0  0  0  0  0
   -2.6860   21.4110  -32.7620 C   0  0  0  0  0  0  0  0  0  0  0  0
   -1.3930   21.0540  -33.1800 C   0  0  0  0  0  0  0  0  0  0  0  0
   -0.9780   21.2180  -34.5470 N   0  0  0  0  0  0  0  0  0  0  0  0
    0.2890   21.7660  -34.9510 C   0  0  0  0  0  0  0  0  0  0  0  0
    1.5000   21.1200  -34.6390 C   0  0  0  0  0  0  0  0  0  0  0  0
    2.7170   21.6590  -35.0670 C   0  0  0  0  0  0  0  0  0  0  0  0
    2.7360   22.8360  -35.8210 C   0  0  0  0  0  0  0  0  0  0  0  0
    1.5380   23.4700  -36.1550 C   0  0  0  0  0  0  0  0  0  0  0  0
    0.3180   22.9340  -35.7300 C   0  0  0  0  0  0  0  0  0  0  0  0
   -0.5150   20.4680  -32.2580 C   0  0  0  0  0  0  0  0  0  0  0  0
   -0.9070   20.2740  -30.9310 C   0  0  0  0  0  0  0  0  0  0  0  0
   -2.6550   23.2490  -29.0670 C   0  0  0  0  0  0  0  0  0  0  0  0
   -2.4830   24.6170  -29.3090 C   0  0  0  0  0  0  0  0  0  0  0  0
   -3.3870   25.2940  -30.1180 O   0  0  0  0  0  0  0  0  0  0  0  0
    0.3548   25.1476  -27.4757 H   0  0  0  0  0  0  0  0  0  0  0  0
    0.0575   22.7085  -27.0490 H   0  0  0  0  0  0  0  0  0  0  0  0
   -0.9410   20.6267  -27.8091 H   0  0  0  0  0  0  0  0  0  0  0  0
   -2.5695   20.9528  -27.1005 H   0  0  0  0  0  0  0  0  0  0  0  0
   -3.3660   19.7890  -28.9250 H   0  0  0  0  0  0  0  0  0  0  0  0
   -4.0889   21.5134  -31.1142 H   0  0  0  0  0  0  0  0  0  0  0  0
   -3.3934   21.8457  -33.4836 H   0  0  0  0  0  0  0  0  0  0  0  0
   -1.6400   20.9170  -35.2980 H   0  0  0  0  0  0  0  0  0  0  0  0
    1.4889   20.1872  -34.0560 H   0  0  0  0  0  0  0  0  0  0  0  0
    3.6610   21.1561  -34.8100 H   0  0  0  0  0  0  0  0  0  0  0  0
    3.6947   23.2625  -36.1510 H   0  0  0  0  0  0  0  0  0  0  0  0
    1.5535   24.3928  -36.7535 H   0  0  0  0  0  0  0  0  0  0  0  0
   -0.6238   23.4300  -36.0075 H   0  0  0  0  0  0  0  0  0  0  0  0
    0.4898   20.1586  -32.5814 H   0  0  0  0  0  0  0  0  0  0  0  0
   -0.2026   19.8263  -30.2145 H   0  0  0  0  0  0  0  0  0  0  0  0
   -3.5011   22.7143  -29.5234 H   0  0  0  0  0  0  0  0  0  0  0  0
  1  2  1  0
  2  3  2  0
  3  4  1  0
  4  5  2  0
  5  6  1  0
  6  7  1  0
  7  8  1  0
  8  9  2  0
  9 10  1  0
 10 11  2  0
 11 12  1  0
 12 13  1  0
 13 14  2  0
 14 15  1  0
 15 16  2  0
 16 17  1  0
 17 18  2  0
 11 19  1  0
 19 20  2  0
  5 21  1  0
 21 22  2  0
 22 23  1  0
 22  2  1  0
 20  8  1  0
 18 13  1  0
  3 24  1  0
  4 25  1  0
  6 26  1  0
  6 27  1  0
  7 28  1  0
  9 29  1  0
 10 30  1  0
 12 31  1  0
 14 32  1  0
 15 33  1  0
 16 34  1  0
 17 35  1  0
 18 36  1  0
 19 37  1  0
 20 38  1  0
 21 39  1  0
M  CHG  2   1  -1  23  -1
M  END
>  <UniqueID>  (33) 
31

>  <SMILES>  (33) 
[O-]c1ccc(CNc2ccc(Nc3ccccc3)cc2)cc1[O-]

>  <Energy>  (33) 
46.667310516897864

>  <Genealogy>  (33) 
[O-]c1ccc(CNc2ccc(Nc3ccccc3)cc2)cc1[O-] (protonated)
[O-]c1ccc(CNc2ccc(Nc3ccccc3)cc2)cc1[O-] (3D coordinates assigned)
[O-]c1ccc(CNc2ccc(Nc3ccccc3)cc2)cc1[O-] (optimized conformer: 46.667310516897864 kcal/mol)

>  <smiles>  (33) 
Oc1ccc(CNc2ccc(Nc3ccccc3)cc2)cc1O

>  <score_type>  (33) 
oracle

>  <origin>  (33) 
adgpu

>  <m_score__min__energy>  (33) 
-12.51

>  <m_primary>  (33) 
energy

$$$$
33:0
     RDKit          3D

 56 59  0  0  0  0  0  0  0  0999 V2000
   -3.4012   22.9646  -26.4954 H   0  0  0  0  0  0  0  0  0  0  0  0
   -3.6820   22.8730  -27.5550 C   0  0  0  0  0  0  0  0  0  0  0  0
   -3.3320   21.7740  -28.3460 C   0  0  0  0  0  0  0  0  0  0  0  0
   -2.5790   20.5660  -27.9160 C   0  0  0  0  0  0  0  0  0  0  0  0
   -3.0920   19.7010  -26.9310 C   0  0  0  0  0  0  0  0  0  0  0  0
   -4.0696   19.9133  -26.4736 H   0  0  0  0  0  0  0  0  0  0  0  0
   -2.3690   18.5750  -26.5300 C   0  0  0  0  0  0  0  0  0  0  0  0
   -2.7804   17.9069  -25.7590 H   0  0  0  0  0  0  0  0  0  0  0  0
   -1.1280   18.2930  -27.1020 C   0  0  0  0  0  0  0  0  0  0  0  0
   -0.5587   17.4115  -26.7720 H   0  0  0  0  0  0  0  0  0  0  0  0
   -0.6060   19.1310  -28.0960 C   0  0  0  0  0  0  0  0  0  0  0  0
    0.7470   18.8530  -28.6820 C   0  0  0  0  0  0  0  0  0  0  0  0
    1.4744   18.7035  -27.8705 H   0  0  0  0  0  0  0  0  0  0  0  0
    0.6985   17.9461  -29.3026 H   0  0  0  0  0  0  0  0  0  0  0  0
    1.0600   19.7056  -29.3026 H   0  0  0  0  0  0  0  0  0  0  0  0
   -1.3250   20.2710  -28.4880 C   0  0  0  0  0  0  0  0  0  0  0  0
   -0.9046   20.9425  -29.2511 H   0  0  0  0  0  0  0  0  0  0  0  0
   -3.9520   22.0370  -29.8950 S   0  0  0  0  0  0  0  0  0  0  0  0
   -4.6480   23.5250  -29.5650 C   0  0  0  0  0  0  0  0  0  0  0  0
   -5.6180   24.4500  -30.6940 S   0  0  0  0  0  0  0  0  0  0  0  0
   -4.8130   25.6100  -31.2010 O   0  0  0  0  0  0  0  0  0  0  0  0
   -6.8510   24.9690  -30.0100 O   0  0  0  0  0  0  0  0  0  0  0  0
   -6.0920   23.4470  -32.0310 N   0  0  0  0  0  0  0  0  0  0  0  0
   -5.7380   23.7180  -32.9750 H   0  0  0  0  0  0  0  0  0  0  0  0
   -7.0340   22.3650  -31.9210 C   0  0  0  0  0  0  0  0  0  0  0  0
   -8.3840   22.6530  -31.6750 C   0  0  0  0  0  0  0  0  0  0  0  0
   -8.7160   23.6995  -31.6066 H   0  0  0  0  0  0  0  0  0  0  0  0
   -9.3110   21.6180  -31.5160 C   0  0  0  0  0  0  0  0  0  0  0  0
  -10.3657   21.8529  -31.3101 H   0  0  0  0  0  0  0  0  0  0  0  0
   -8.9010   20.2870  -31.6180 C   0  0  0  0  0  0  0  0  0  0  0  0
   -9.6320   19.4757  -31.4862 H   0  0  0  0  0  0  0  0  0  0  0  0
   -7.5600   19.9830  -31.8880 C   0  0  0  0  0  0  0  0  0  0  0  0
   -7.0560   18.2950  -32.0000 S   0  0  0  0  0  0  0  0  0  0  0  0
   -6.4950   17.8360  -30.6820 O   0  0  0  0  0  0  0  0  0  0  0  0
   -8.2580   17.4590  -32.3310 O   0  0  0  0  0  0  0  0  0  0  0  0
   -5.8620   18.0630  -33.2450 N   0  0  0  0  0  0  0  0  0  0  0  0
   -4.6620   18.5760  -33.2950 C   0  0  0  0  0  0  0  0  0  0  0  0
   -4.1710   19.4140  -32.2760 C   0  0  0  0  0  0  0  0  0  0  0  0
   -4.7892   19.6295  -31.3921 H   0  0  0  0  0  0  0  0  0  0  0  0
   -2.9010   19.9680  -32.3920 C   0  0  0  0  0  0  0  0  0  0  0  0
   -2.5138   20.6402  -31.6121 H   0  0  0  0  0  0  0  0  0  0  0  0
   -2.1250   19.6620  -33.5070 C   0  0  0  0  0  0  0  0  0  0  0  0
   -0.7620   20.2550  -33.6740 C   0  0  0  0  0  0  0  0  0  0  0  0
   -0.3217   20.4466  -32.6843 H   0  0  0  0  0  0  0  0  0  0  0  0
   -0.1227   19.5537  -34.2302 H   0  0  0  0  0  0  0  0  0  0  0  0
   -0.8393   21.2008  -34.2302 H   0  0  0  0  0  0  0  0  0  0  0  0
   -2.6300   18.8390  -34.4620 N   0  0  0  0  0  0  0  0  0  0  0  0
   -3.8570   18.3130  -34.3750 N   0  0  0  0  0  0  0  0  0  0  0  0
   -4.2980   17.4220  -35.4500 C   0  0  0  0  0  0  0  0  0  0  0  0
   -4.7462   16.5165  -35.0150 H   0  0  0  0  0  0  0  0  0  0  0  0
   -5.0445   17.9385  -36.0713 H   0  0  0  0  0  0  0  0  0  0  0  0
   -3.4346   17.1417  -36.0713 H   0  0  0  0  0  0  0  0  0  0  0  0
   -6.6360   21.0220  -32.0530 C   0  0  0  0  0  0  0  0  0  0  0  0
   -5.5878   20.7857  -32.2883 H   0  0  0  0  0  0  0  0  0  0  0  0
   -4.4230   23.8460  -28.2370 C   0  0  0  0  0  0  0  0  0  0  0  0
   -4.7888   24.7704  -27.7661 H   0  0  0  0  0  0  0  0  0  0  0  0
  1  2  1  0
  2  3  2  0
  3  4  1  0
  4  5  2  0
  5  6  1  0
  5  7  1  0
  7  8  1  0
  7  9  2  0
  9 10  1  0
  9 11  1  0
 11 12  1  0
 12 13  1  0
 12 14  1  0
 12 15  1  0
 11 16  2  0
 16 17  1  0
  3 18  1  0
 18 19  1  0
 19 20  1  0
 20 21  2  0
 20 22  2  0
 20 23  1  0
 23 24  1  0
 23 25  1  0
 25 26  2  0
 26 27  1  0
 26 28  1  0
 28 29  1  0
 28 30  2  0
 30 31  1  0
 30 32  1  0
 32 33  1  0
 33 34  2  0
 33 35  2  0
 33 36  1  0
 36 37  2  0
 37 38  1  0
 38 39  1  0
 38 40  2  0
 40 41  1  0
 40 42  1  0
 42 43  1  0
 43 44  1  0
 43 45  1  0
 43 46  1  0
 42 47  2  0
 47 48  1  0
 48 49  1  0
 49 50  1  0
 49 51  1  0
 49 52  1  0
 32 53  2  0
 53 54  1  0
 19 55  2  0
 55 56  1  0
 55  2  1  0
 16  4  1  0
 53 25  1  0
 48 37  1  0
M  END
>  <UniqueID>  (34) 
32

>  <SMILES>  (34) 
Cc1cccc(-c2ccc(S(=O)(=O)Nc3cccc(S(=O)(=O)/N=c4\ccc(C)nn4C)c3)s2)c1

>  <Energy>  (34) 
92.43415216844487

>  <Genealogy>  (34) 
Cc1cccc(-c2ccc(S(=O)(=O)Nc3cccc(S(=O)(=O)/N=c4\ccc(C)nn4C)c3)s2)c1 (cis-trans isomerization)
Cc1cccc(-c2ccc(S(=O)(=O)Nc3cccc(S(=O)(=O)/N=c4\ccc(C)nn4C)c3)s2)c1 (3D coordinates assigned)
Cc1cccc(-c2ccc(S(=O)(=O)Nc3cccc(S(=O)(=O)/N=c4\ccc(C)nn4C)c3)s2)c1 (optimized conformer: 92.43415216844487 kcal/mol)

>  <smiles>  (34) 
Cc1cccc(-c2ccc(S(=O)(=O)Nc3cccc(S(=O)(=O)N=c4ccc(C)nn4C)c3)s2)c1

>  <score_type>  (34) 
oracle

>  <origin>  (34) 
adgpu

>  <m_score__min__energy>  (34) 
-11.99

>  <m_primary>  (34) 
energy

$$$$
34:0
     RDKit          3D

 44 47  0  0  0  0  0  0  0  0999 V2000
   -0.5620   21.1790  -34.4670 C   0  0  0  0  0  0  0  0  0  0  0  0
   -0.4920   20.6830  -33.0510 C   0  0  0  0  0  0  0  0  0  0  0  0
   -0.8140   21.5510  -31.9960 C   0  0  0  0  0  0  0  0  0  0  0  0
   -0.7870   21.1020  -30.6690 C   0  0  0  0  0  0  0  0  0  0  0  0
   -1.2020   22.2060  -29.3620 S   0  0  0  0  0  0  0  0  0  0  0  0
    0.0600   22.8030  -28.8070 O   0  0  0  0  0  0  0  0  0  0  0  0
   -1.9260   21.4840  -28.2610 O   0  0  0  0  0  0  0  0  0  0  0  0
   -2.2140   23.4770  -29.9660 N   0  0  0  0  0  0  0  0  0  0  0  0
   -3.4810   23.2910  -30.6150 C   0  0  0  0  0  0  0  0  0  0  0  0
   -3.9330   22.0210  -31.0140 C   0  0  0  0  0  0  0  0  0  0  0  0
   -5.1840   21.8650  -31.6420 C   0  0  0  0  0  0  0  0  0  0  0  0
   -5.6780   20.5330  -32.0750 C   0  0  0  0  0  0  0  0  0  0  0  0
   -6.9530   20.0590  -31.7110 C   0  0  0  0  0  0  0  0  0  0  0  0
   -7.3640   18.7980  -32.1430 C   0  0  0  0  0  0  0  0  0  0  0  0
   -8.5040   18.3710  -31.8160 O   0  0  0  0  0  0  0  0  0  0  0  0
   -6.5020   18.0290  -32.9390 C   0  0  0  0  0  0  0  0  0  0  0  0
   -6.8570   16.7520  -33.4120 C   0  0  0  0  0  0  0  0  0  0  0  0
   -5.9670   16.0290  -34.2130 C   0  0  0  0  0  0  0  0  0  0  0  0
   -4.7210   16.5710  -34.5470 C   0  0  0  0  0  0  0  0  0  0  0  0
   -3.8440   15.8500  -35.3480 O   0  0  0  0  0  0  0  0  0  0  0  0
   -4.3590   17.8390  -34.0770 C   0  0  0  0  0  0  0  0  0  0  0  0
   -5.2430   18.5700  -33.2760 C   0  0  0  0  0  0  0  0  0  0  0  0
   -4.8910   19.7760  -32.8400 O   0  0  0  0  0  0  0  0  0  0  0  0
   -5.9680   23.0050  -31.8820 C   0  0  0  0  0  0  0  0  0  0  0  0
   -5.5230   24.2690  -31.4880 C   0  0  0  0  0  0  0  0  0  0  0  0
   -4.2860   24.4130  -30.8560 C   0  0  0  0  0  0  0  0  0  0  0  0
   -3.8610   25.6770  -30.4630 O   0  0  0  0  0  0  0  0  0  0  0  0
   -0.4440   19.7740  -30.3940 C   0  0  0  0  0  0  0  0  0  0  0  0
   -0.1430   18.8960  -31.4400 C   0  0  0  0  0  0  0  0  0  0  0  0
   -0.1740   19.3410  -32.7660 C   0  0  0  0  0  0  0  0  0  0  0  0
    0.1110   18.4470  -33.7910 O   0  0  0  0  0  0  0  0  0  0  0  0
   -0.7157   22.2682  -34.4668 H   0  0  0  0  0  0  0  0  0  0  0  0
    0.3786   20.9415  -34.9856 H   0  0  0  0  0  0  0  0  0  0  0  0
   -1.4001   20.6905  -34.9856 H   0  0  0  0  0  0  0  0  0  0  0  0
   -1.0901   22.5934  -32.2130 H   0  0  0  0  0  0  0  0  0  0  0  0
   -3.3019   21.1383  -30.8335 H   0  0  0  0  0  0  0  0  0  0  0  0
   -7.6190   20.6776  -31.0915 H   0  0  0  0  0  0  0  0  0  0  0  0
   -7.8354   16.3220  -33.1515 H   0  0  0  0  0  0  0  0  0  0  0  0
   -6.2475   15.0312  -34.5815 H   0  0  0  0  0  0  0  0  0  0  0  0
   -3.3775   18.2615  -34.3380 H   0  0  0  0  0  0  0  0  0  0  0  0
   -6.9410   22.9017  -32.3846 H   0  0  0  0  0  0  0  0  0  0  0  0
   -6.1489   25.1538  -31.6761 H   0  0  0  0  0  0  0  0  0  0  0  0
   -0.4110   19.4197  -29.3531 H   0  0  0  0  0  0  0  0  0  0  0  0
    0.1193   17.8508  -31.2192 H   0  0  0  0  0  0  0  0  0  0  0  0
  1  2  1  0
  2  3  2  0
  3  4  1  0
  4  5  1  0
  5  6  2  0
  5  7  2  0
  5  8  1  0
  8  9  1  0
  9 10  2  0
 10 11  1  0
 11 12  1  0
 12 13  2  0
 13 14  1  0
 14 15  2  0
 14 16  1  0
 16 17  2  0
 17 18  1  0
 18 19  2  0
 19 20  1  0
 19 21  1  0
 21 22  2  0
 22 23  1  0
 11 24  2  0
 24 25  1  0
 25 26  2  0
 26 27  1  0
  4 28  2  0
 28 29  1  0
 29 30  2  0
 30 31  1  0
 30  2  1  0
 26  9  1  0
 23 12  1  0
 22 16  1  0
  1 32  1  0
  1 33  1  0
  1 34  1  0
  3 35  1  0
 10 36  1  0
 13 37  1  0
 17 38  1  0
 18 39  1  0
 21 40  1  0
 24 41  1  0
 25 42  1  0
 28 43  1  0
 29 44  1  0
M  CHG  4   8  -1  20  -1  27  -1  31  -1
M  END
>  <UniqueID>  (35) 
33

>  <SMILES>  (35) 
Cc1cc(S(=O)(=O)[N-]c2cc(-c3cc(=O)c4ccc([O-])cc4o3)ccc2[O-])ccc1[O-]

>  <Energy>  (35) 
60.67258934043269

>  <Genealogy>  (35) 
Cc1cc(S(=O)(=O)[N-]c2cc(-c3cc(=O)c4ccc([O-])cc4o3)ccc2[O-])ccc1[O-] (protonated)
Cc1cc(S(=O)(=O)[N-]c2cc(-c3cc(=O)c4ccc([O-])cc4o3)ccc2[O-])ccc1[O-] (3D coordinates assigned)
Cc1cc(S(=O)(=O)[N-]c2cc(-c3cc(=O)c4ccc([O-])cc4o3)ccc2[O-])ccc1[O-] (optimized conformer: 60.67258934043269 kcal/mol)

>  <smiles>  (35) 
Cc1cc(S(=O)(=O)Nc2cc(-c3cc(=O)c4ccc(O)cc4o3)ccc2O)ccc1O

>  <score_type>  (35) 
oracle

>  <origin>  (35) 
adgpu

>  <m_score__min__energy>  (35) 
-13.52

>  <m_primary>  (35) 
energy

$$$$
35:0
     RDKit          3D

 50 52  0  0  0  0  0  0  0  0999 V2000
   -4.5610   14.6450  -32.1990 C   0  0  0  0  0  0  0  0  0  0  0  0
   -4.2760   16.0110  -32.4820 O   0  0  0  0  0  0  0  0  0  0  0  0
   -5.2520   17.0060  -32.6410 C   0  0  0  0  0  0  0  0  0  0  0  0
   -5.3830   17.7540  -33.8250 C   0  0  0  0  0  0  0  0  0  0  0  0
   -6.3860   18.7200  -33.9410 C   0  0  0  0  0  0  0  0  0  0  0  0
   -7.2700   18.9670  -32.8790 C   0  0  0  0  0  0  0  0  0  0  0  0
   -8.2950   19.9640  -33.0370 N   0  0  0  0  0  0  0  0  0  0  0  0
   -8.7400   21.1170  -31.8170 S   0  0  0  0  0  0  0  0  0  0  0  0
   -9.8500   21.9890  -32.3300 O   0  0  0  0  0  0  0  0  0  0  0  0
   -9.2390   20.3830  -30.6040 O   0  0  0  0  0  0  0  0  0  0  0  0
   -7.3380   22.0810  -31.3580 C   0  0  0  0  0  0  0  0  0  0  0  0
   -6.4700   22.5580  -32.3490 C   0  0  0  0  0  0  0  0  0  0  0  0
   -5.3640   23.3390  -31.9990 C   0  0  0  0  0  0  0  0  0  0  0  0
   -5.1330   23.6700  -30.6560 C   0  0  0  0  0  0  0  0  0  0  0  0
   -4.0040   24.5420  -30.2890 C   0  0  0  0  0  0  0  0  0  0  0  0
   -3.8750   25.6580  -30.8570 O   0  0  0  0  0  0  0  0  0  0  0  0
   -3.0560   24.1510  -29.2870 N   0  0  0  0  0  0  0  0  0  0  0  0
   -1.7160   23.6530  -29.5850 C   0  0  0  0  0  0  0  0  0  0  0  0
   -1.6950   22.1210  -29.5260 C   0  0  0  0  0  0  0  0  0  0  0  0
   -2.3740   21.5200  -30.7280 C   0  0  0  0  0  0  0  0  0  0  0  0
   -3.5400   20.7500  -30.5710 C   0  0  0  0  0  0  0  0  0  0  0  0
   -4.1610   20.1810  -31.6850 C   0  0  0  0  0  0  0  0  0  0  0  0
   -3.6440   20.4000  -32.9650 C   0  0  0  0  0  0  0  0  0  0  0  0
   -2.4980   21.1810  -33.1310 C   0  0  0  0  0  0  0  0  0  0  0  0
   -1.8610   21.7380  -32.0180 C   0  0  0  0  0  0  0  0  0  0  0  0
   -5.9940   23.1800  -29.6640 C   0  0  0  0  0  0  0  0  0  0  0  0
   -7.0870   22.3840  -30.0130 C   0  0  0  0  0  0  0  0  0  0  0  0
   -7.1310   18.2200  -31.6940 C   0  0  0  0  0  0  0  0  0  0  0  0
   -6.1300   17.2510  -31.5820 C   0  0  0  0  0  0  0  0  0  0  0  0
   -4.5923   14.4950  -31.1097 H   0  0  0  0  0  0  0  0  0  0  0  0
   -5.5347   14.3758  -32.6343 H   0  0  0  0  0  0  0  0  0  0  0  0
   -3.7762   14.0089  -32.6343 H   0  0  0  0  0  0  0  0  0  0  0  0
   -4.6929   17.5778  -34.6633 H   0  0  0  0  0  0  0  0  0  0  0  0
   -6.4839   19.2931  -34.8748 H   0  0  0  0  0  0  0  0  0  0  0  0
   -8.7810   20.0470  -33.9590 H   0  0  0  0  0  0  0  0  0  0  0  0
   -6.6591   22.3174  -33.4056 H   0  0  0  0  0  0  0  0  0  0  0  0
   -4.6740   23.6943  -32.7785 H   0  0  0  0  0  0  0  0  0  0  0  0
   -1.4220   23.9818  -30.5927 H   0  0  0  0  0  0  0  0  0  0  0  0
   -1.0114   24.0505  -28.8396 H   0  0  0  0  0  0  0  0  0  0  0  0
   -0.6505   21.7775  -29.4949 H   0  0  0  0  0  0  0  0  0  0  0  0
   -2.2361   21.7999  -28.6237 H   0  0  0  0  0  0  0  0  0  0  0  0
   -3.9642   20.5954  -29.5679 H   0  0  0  0  0  0  0  0  0  0  0  0
   -5.0590   19.5591  -31.5548 H   0  0  0  0  0  0  0  0  0  0  0  0
   -4.1396   19.9573  -33.8416 H   0  0  0  0  0  0  0  0  0  0  0  0
   -2.0958   21.3582  -34.1394 H   0  0  0  0  0  0  0  0  0  0  0  0
   -0.9559   22.3485  -32.1525 H   0  0  0  0  0  0  0  0  0  0  0  0
   -5.8080   23.4233  -28.6075 H   0  0  0  0  0  0  0  0  0  0  0  0
   -7.7532   21.9935  -29.2296 H   0  0  0  0  0  0  0  0  0  0  0  0
   -7.8144   18.4000  -30.8510 H   0  0  0  0  0  0  0  0  0  0  0  0
   -6.0323   16.6750  -30.6500 H   0  0  0  0  0  0  0  0  0  0  0  0
  1  2  1  0
  2  3  1  0
  3  4  2  0
  4  5  1  0
  5  6  2  0
  6  7  1  0
  7  8  1  0
  8  9  2  0
  8 10  2  0
  8 11  1  0
 11 12  2  0
 12 13  1  0
 13 14  2  0
 14 15  1  0
 15 16  2  0
 15 17  1  0
 17 18  1  0
 18 19  1  0
 19 20  1  0
 20 21  2  0
 21 22  1  0
 22 23  2  0
 23 24  1  0
 24 25  2  0
 14 26  1  0
 26 27  2  0
  6 28  1  0
 28 29  2  0
 29  3  1  0
 27 11  1  0
 25 20  1  0
  1 30  1  0
  1 31  1  0
  1 32  1  0
  4 33  1  0
  5 34  1  0
  7 35  1  0
 12 36  1  0
 13 37  1  0
 18 38  1  0
 18 39  1  0
 19 40  1  0
 19 41  1  0
 21 42  1  0
 22 43  1  0
 23 44  1  0
 24 45  1  0
 25 46  1  0
 26 47  1  0
 27 48  1  0
 28 49  1  0
 29 50  1  0
M  CHG  1  17  -1
M  END
>  <UniqueID>  (36) 
34

>  <SMILES>  (36) 
COc1ccc(NS(=O)(=O)c2ccc(C(=O)[N-]CCc3ccccc3)cc2)cc1

>  <Energy>  (36) 
53.0200005781154

>  <Genealogy>  (36) 
COc1ccc(NS(=O)(=O)c2ccc(C(=O)[N-]CCc3ccccc3)cc2)cc1 (protonated)
COc1ccc(NS(=O)(=O)c2ccc(C(=O)[N-]CCc3ccccc3)cc2)cc1 (3D coordinates assigned)
COc1ccc(NS(=O)(=O)c2ccc(C(=O)[N-]CCc3ccccc3)cc2)cc1 (optimized conformer: 53.0200005781154 kcal/mol)

>  <smiles>  (36) 
COc1ccc(NS(=O)(=O)c2ccc(C(=O)NCCc3ccccc3)cc2)cc1

>  <score_type>  (36) 
oracle

>  <origin>  (36) 
adgpu

>  <m_score__min__energy>  (36) 
-11.42

>  <m_primary>  (36) 
energy

$$$$
36:0
     RDKit          3D

 60 63  0  0  0  0  0  0  0  0999 V2000
    0.5030   17.1030  -27.4730 C   0  0  0  0  0  0  0  0  0  0  0  0
   -0.3090   18.1440  -28.0100 O   0  0  0  0  0  0  0  0  0  0  0  0
   -0.1000   18.7640  -29.2550 C   0  0  0  0  0  0  0  0  0  0  0  0
    0.4760   18.0680  -30.3350 C   0  0  0  0  0  0  0  0  0  0  0  0
    0.7110   18.7080  -31.5510 C   0  0  0  0  0  0  0  0  0  0  0  0
    0.4010   20.0660  -31.7090 C   0  0  0  0  0  0  0  0  0  0  0  0
    0.7000   20.7660  -32.9270 N   0  0  0  0  0  0  0  0  0  0  0  0
   -0.4230   20.9000  -34.2460 S   0  0  0  0  0  0  0  0  0  0  0  0
   -0.3450   22.2910  -34.8140 O   0  0  0  0  0  0  0  0  0  0  0  0
   -0.0600   19.9100  -35.3160 O   0  0  0  0  0  0  0  0  0  0  0  0
   -2.0570   20.5510  -33.6830 C   0  0  0  0  0  0  0  0  0  0  0  0
   -2.7610   19.4410  -34.1740 C   0  0  0  0  0  0  0  0  0  0  0  0
   -4.0830   19.2190  -33.7790 C   0  0  0  0  0  0  0  0  0  0  0  0
   -4.7110   20.1060  -32.9010 C   0  0  0  0  0  0  0  0  0  0  0  0
   -4.0150   21.2170  -32.4060 C   0  0  0  0  0  0  0  0  0  0  0  0
   -4.8170   22.3380  -31.3100 S   0  0  0  0  0  0  0  0  0  0  0  0
   -4.3010   23.7320  -31.5510 O   0  0  0  0  0  0  0  0  0  0  0  0
   -4.5240   21.9720  -29.8810 O   0  0  0  0  0  0  0  0  0  0  0  0
   -6.5560   22.2700  -31.5800 C   0  0  0  0  0  0  0  0  0  0  0  0
   -7.2510   23.4230  -31.9750 C   0  0  0  0  0  0  0  0  0  0  0  0
   -8.6340   23.3780  -32.1670 C   0  0  0  0  0  0  0  0  0  0  0  0
   -9.3300   22.1830  -31.9650 C   0  0  0  0  0  0  0  0  0  0  0  0
   -8.6440   21.0330  -31.5680 C   0  0  0  0  0  0  0  0  0  0  0  0
   -7.2590   21.0750  -31.3710 C   0  0  0  0  0  0  0  0  0  0  0  0
   -2.6830   21.4290  -32.7880 C   0  0  0  0  0  0  0  0  0  0  0  0
   -0.2140   20.7520  -30.6530 C   0  0  0  0  0  0  0  0  0  0  0  0
   -0.4710   20.1130  -29.4300 C   0  0  0  0  0  0  0  0  0  0  0  0
   -1.2790   21.0370  -28.1470 S   0  0  0  0  0  0  0  0  0  0  0  0
   -0.3770   21.1660  -26.9510 O   0  0  0  0  0  0  0  0  0  0  0  0
   -2.4920   20.2600  -27.7140 O   0  0  0  0  0  0  0  0  0  0  0  0
   -1.7440   22.6460  -28.6640 N   0  0  0  0  0  0  0  0  0  0  0  0
   -2.9010   23.1460  -27.9070 C   0  0  0  0  0  0  0  0  0  0  0  0
   -3.3230   24.5280  -28.4540 C   0  0  0  0  0  0  0  0  0  0  0  0
   -2.3550   25.0890  -29.3260 O   0  0  0  0  0  0  0  0  0  0  0  0
   -1.0750   25.0410  -28.7230 C   0  0  0  0  0  0  0  0  0  0  0  0
   -0.6100   23.5810  -28.5480 C   0  0  0  0  0  0  0  0  0  0  0  0
    0.4716   17.1433  -26.3742 H   0  0  0  0  0  0  0  0  0  0  0  0
    0.1239   16.1287  -27.8152 H   0  0  0  0  0  0  0  0  0  0  0  0
    1.5402   17.2335  -27.8152 H   0  0  0  0  0  0  0  0  0  0  0  0
    0.7435   17.0075  -30.2179 H   0  0  0  0  0  0  0  0  0  0  0  0
    1.1422   18.1442  -32.3913 H   0  0  0  0  0  0  0  0  0  0  0  0
    1.6810   21.0710  -33.1080 H   0  0  0  0  0  0  0  0  0  0  0  0
   -2.2716   18.7446  -34.8708 H   0  0  0  0  0  0  0  0  0  0  0  0
   -4.6302   18.3442  -34.1601 H   0  0  0  0  0  0  0  0  0  0  0  0
   -5.7539   19.9319  -32.5977 H   0  0  0  0  0  0  0  0  0  0  0  0
   -6.7055   24.3649  -32.1339 H   0  0  0  0  0  0  0  0  0  0  0  0
   -9.1756   24.2837  -32.4774 H   0  0  0  0  0  0  0  0  0  0  0  0
  -10.4186   22.1482  -32.1188 H   0  0  0  0  0  0  0  0  0  0  0  0
   -9.1930   20.0930  -31.4099 H   0  0  0  0  0  0  0  0  0  0  0  0
   -6.7216   20.1698  -31.0520 H   0  0  0  0  0  0  0  0  0  0  0  0
   -2.1271   22.2878  -32.3837 H   0  0  0  0  0  0  0  0  0  0  0  0
   -0.4994   21.8062  -30.7844 H   0  0  0  0  0  0  0  0  0  0  0  0
   -3.7385   22.4404  -28.0107 H   0  0  0  0  0  0  0  0  0  0  0  0
   -2.6282   23.2420  -26.8457 H   0  0  0  0  0  0  0  0  0  0  0  0
   -4.2690   24.4152  -29.0038 H   0  0  0  0  0  0  0  0  0  0  0  0
   -3.4308   25.2071  -27.5954 H   0  0  0  0  0  0  0  0  0  0  0  0
   -0.3552   25.5754  -29.3604 H   0  0  0  0  0  0  0  0  0  0  0  0
   -1.1325   25.5153  -27.7322 H   0  0  0  0  0  0  0  0  0  0  0  0
    0.1318   23.3445  -29.3251 H   0  0  0  0  0  0  0  0  0  0  0  0
   -0.1682   23.4724  -27.5465 H   0  0  0  0  0  0  0  0  0  0  0  0
  1  2  1  0
  2  3  1  0
  3  4  2  0
  4  5  1  0
  5  6  2  0
  6  7  1  0
  7  8  1  0
  8  9  2  0
  8 10  2  0
  8 11  1  0
 11 12  2  0
 12 13  1  0
 13 14  2  0
 14 15  1  0
 15 16  1  0
 16 17  2  0
 16 18  2  0
 16 19  1  0
 19 20  2  0
 20 21  1  0
 21 22  2  0
 22 23  1  0
 23 24  2  0
 15 25  2  0
  6 26  1  0
 26 27  2  0
 27 28  1  0
 28 29  2  0
 28 30  2  0
 28 31  1  0
 31 32  1  0
 32 33  1  0
 33 34  1  0
 34 35  1  0
 35 36  1  0
 27  3  1  0
 36 31  1  0
 25 11  1  0
 24 19  1  0
  1 37  1  0
  1 38  1  0
  1 39  1  0
  4 40  1  0
  5 41  1  0
  7 42  1  0
 12 43  1  0
 13 44  1  0
 14 45  1  0
 20 46  1  0
 21 47  1  0
 22 48  1  0
 23 49  1  0
 24 50  1  0
 25 51  1  0
 26 52  1  0
 32 53  1  0
 32 54  1  0
 33 55  1  0
 33 56  1  0
 35 57  1  0
 35 58  1  0
 36 59  1  0
 36 60  1  0
M  END
>  <UniqueID>  (37) 
35

>  <SMILES>  (37) 
COc1ccc(NS(=O)(=O)c2cccc(S(=O)(=O)c3ccccc3)c2)cc1S(=O)(=O)N1CCOCC1

>  <Energy>  (37) 
76.21436497247733

>  <Genealogy>  (37) 
COc1ccc(NS(=O)(=O)c2cccc(S(=O)(=O)c3ccccc3)c2)cc1S(=O)(=O)N1CCOCC1 (3D coordinates assigned)
COc1ccc(NS(=O)(=O)c2cccc(S(=O)(=O)c3ccccc3)c2)cc1S(=O)(=O)N1CCOCC1 (nonaromatic ring conformer: 76.21436497247733 kcal/mol)

>  <smiles>  (37) 
COc1ccc(NS(=O)(=O)c2cccc(S(=O)(=O)c3ccccc3)c2)cc1S(=O)(=O)N1CCOCC1

>  <score_type>  (37) 
oracle

>  <origin>  (37) 
adgpu

>  <m_score__min__energy>  (37) 
-11.6

>  <m_primary>  (37) 
energy

$$$$
37:0
     RDKit          3D

 54 57  0  0  0  0  0  0  0  0999 V2000
   -0.2350   20.4270  -27.5370 C   0  0  0  0  0  0  0  0  0  0  0  0
   -0.2980   21.5380  -28.4870 N   0  0  0  0  0  0  0  0  0  0  0  0
   -0.5610   21.2820  -29.8790 C   0  0  0  0  0  0  0  0  0  0  0  0
    0.0110   20.1680  -30.5220 C   0  0  0  0  0  0  0  0  0  0  0  0
   -0.2430   19.9220  -31.8730 C   0  0  0  0  0  0  0  0  0  0  0  0
   -1.0680   20.7850  -32.5980 C   0  0  0  0  0  0  0  0  0  0  0  0
   -1.6360   21.8970  -31.9740 C   0  0  0  0  0  0  0  0  0  0  0  0
   -1.3830   22.1480  -30.6230 C   0  0  0  0  0  0  0  0  0  0  0  0
   -0.0880   23.1680  -27.9130 S   0  0  0  0  0  0  0  0  0  0  0  0
    0.5790   23.9890  -28.9810 O   0  0  0  0  0  0  0  0  0  0  0  0
    0.8000   23.1720  -26.7010 O   0  0  0  0  0  0  0  0  0  0  0  0
   -1.6530   23.8640  -27.4960 C   0  0  0  0  0  0  0  0  0  0  0  0
   -1.7920   24.6030  -26.3150 C   0  0  0  0  0  0  0  0  0  0  0  0
   -3.0340   25.1380  -25.9660 C   0  0  0  0  0  0  0  0  0  0  0  0
   -4.1460   24.9260  -26.7850 C   0  0  0  0  0  0  0  0  0  0  0  0
   -4.0240   24.1680  -27.9590 C   0  0  0  0  0  0  0  0  0  0  0  0
   -5.1870   23.9350  -28.7680 N   0  0  0  0  0  0  0  0  0  0  0  0
   -5.1300   23.7540  -30.1930 C   0  0  0  0  0  0  0  0  0  0  0  0
   -4.1380   24.1680  -30.8510 O   0  0  0  0  0  0  0  0  0  0  0  0
   -6.2330   23.0850  -30.9110 C   0  0  0  0  0  0  0  0  0  0  0  0
   -7.4230   23.7920  -31.1440 C   0  0  0  0  0  0  0  0  0  0  0  0
   -8.4770   23.1910  -31.8290 C   0  0  0  0  0  0  0  0  0  0  0  0
   -8.3330   21.8860  -32.2950 C   0  0  0  0  0  0  0  0  0  0  0  0
   -7.1690   21.2170  -32.0910 N   0  0  0  0  0  0  0  0  0  0  0  0
   -6.1210   21.7710  -31.4230 C   0  0  0  0  0  0  0  0  0  0  0  0
   -4.6090   20.8060  -31.2840 S   0  0  0  0  0  0  0  0  0  0  0  0
   -5.2540   19.4480  -32.2600 C   0  0  0  0  0  0  0  0  0  0  0  0
   -6.0930   18.4940  -31.6680 C   0  0  0  0  0  0  0  0  0  0  0  0
   -6.5850   17.4290  -32.4280 C   0  0  0  0  0  0  0  0  0  0  0  0
   -6.2330   17.3080  -33.7770 C   0  0  0  0  0  0  0  0  0  0  0  0
   -5.3890   18.2540  -34.3670 C   0  0  0  0  0  0  0  0  0  0  0  0
   -4.8990   19.3230  -33.6110 C   0  0  0  0  0  0  0  0  0  0  0  0
   -2.7650   23.6640  -28.3260 C   0  0  0  0  0  0  0  0  0  0  0  0
   -0.2573   20.8209  -26.5102 H   0  0  0  0  0  0  0  0  0  0  0  0
   -1.0969   19.7616  -27.6933 H   0  0  0  0  0  0  0  0  0  0  0  0
    0.6966   19.8633  -27.6933 H   0  0  0  0  0  0  0  0  0  0  0  0
    0.6629   19.4862  -29.9561 H   0  0  0  0  0  0  0  0  0  0  0  0
    0.2070   19.0480  -32.3666 H   0  0  0  0  0  0  0  0  0  0  0  0
   -1.2702   20.5883  -33.6612 H   0  0  0  0  0  0  0  0  0  0  0  0
   -2.2839   22.5768  -32.5468 H   0  0  0  0  0  0  0  0  0  0  0  0
   -1.8295   23.0285  -30.1379 H   0  0  0  0  0  0  0  0  0  0  0  0
   -0.9219   24.7624  -25.6612 H   0  0  0  0  0  0  0  0  0  0  0  0
   -3.1371   25.7281  -25.0434 H   0  0  0  0  0  0  0  0  0  0  0  0
   -5.1204   25.3549  -26.5082 H   0  0  0  0  0  0  0  0  0  0  0  0
   -6.0760   23.6900  -28.2770 H   0  0  0  0  0  0  0  0  0  0  0  0
   -7.5240   24.8264  -30.7838 H   0  0  0  0  0  0  0  0  0  0  0  0
   -9.4138   23.7416  -32.0002 H   0  0  0  0  0  0  0  0  0  0  0  0
   -9.1620   21.3976  -32.8281 H   0  0  0  0  0  0  0  0  0  0  0  0
   -6.3642   18.5833  -30.6057 H   0  0  0  0  0  0  0  0  0  0  0  0
   -7.2498   16.6849  -31.9650 H   0  0  0  0  0  0  0  0  0  0  0  0
   -6.6203   16.4687  -34.3733 H   0  0  0  0  0  0  0  0  0  0  0  0
   -5.1104   18.1570  -35.4267 H   0  0  0  0  0  0  0  0  0  0  0  0
   -4.2348   20.0664  -34.0760 H   0  0  0  0  0  0  0  0  0  0  0  0
   -2.6512   23.1097  -29.2693 H   0  0  0  0  0  0  0  0  0  0  0  0
  1  2  1  0
  2  3  1  0
  3  4  2  0
  4  5  1  0
  5  6  2  0
  6  7  1  0
  7  8  2  0
  2  9  1  0
  9 10  2  0
  9 11  2  0
  9 12  1  0
 12 13  2  0
 13 14  1  0
 14 15  2  0
 15 16  1  0
 16 17  1  0
 17 18  1  0
 18 19  2  0
 18 20  1  0
 20 21  2  0
 21 22  1  0
 22 23  2  0
 23 24  1  0
 24 25  2  0
 25 26  1  0
 26 27  1  0
 27 28  2  0
 28 29  1  0
 29 30  2  0
 30 31  1  0
 31 32  2  0
 16 33  2  0
  8  3  1  0
 33 12  1  0
 25 20  1  0
 32 27  1  0
  1 34  1  0
  1 35  1  0
  1 36  1  0
  4 37  1  0
  5 38  1  0
  6 39  1  0
  7 40  1  0
  8 41  1  0
 13 42  1  0
 14 43  1  0
 15 44  1  0
 17 45  1  0
 21 46  1  0
 22 47  1  0
 23 48  1  0
 28 49  1  0
 29 50  1  0
 30 51  1  0
 31 52  1  0
 32 53  1  0
 33 54  1  0
M  END
>  <UniqueID>  (38) 
36

>  <SMILES>  (38) 
CN(c1ccccc1)S(=O)(=O)c1cccc(NC(=O)c2cccnc2Sc2ccccc2)c1

>  <Energy>  (38) 
67.8394799390493

>  <Genealogy>  (38) 
CN(c1ccccc1)S(=O)(=O)c1cccc(NC(=O)c2cccnc2Sc2ccccc2)c1 (3D coordinates assigned)
CN(c1ccccc1)S(=O)(=O)c1cccc(NC(=O)c2cccnc2Sc2ccccc2)c1 (optimized conformer: 67.8394799390493 kcal/mol)

>  <smiles>  (38) 
CN(c1ccccc1)S(=O)(=O)c1cccc(NC(=O)c2cccnc2Sc2ccccc2)c1

>  <score_type>  (38) 
oracle

>  <origin>  (38) 
adgpu

>  <m_score__min__energy>  (38) 
-10.140000000000001

>  <m_primary>  (38) 
energy

$$$$
38:0
     RDKit          3D

 63 67  0  0  0  0  0  0  0  0999 V2000
   -3.9780   22.1480  -32.6160 O   0  0  0  0  0  0  0  0  0  0  0  0
   -4.7840   22.8140  -31.9120 C   0  0  0  0  0  0  0  0  0  0  0  0
   -4.3110   23.9320  -31.1460 N   0  0  0  0  0  0  0  0  0  0  0  0
   -3.8920   23.8860  -29.7750 C   0  0  0  0  0  0  0  0  0  0  0  0
   -4.5990   23.1430  -28.8140 C   0  0  0  0  0  0  0  0  0  0  0  0
   -4.1660   23.1200  -27.4850 C   0  0  0  0  0  0  0  0  0  0  0  0
   -3.0330   23.8440  -27.1030 C   0  0  0  0  0  0  0  0  0  0  0  0
   -2.3350   24.6070  -28.0480 C   0  0  0  0  0  0  0  0  0  0  0  0
   -0.9180   25.5210  -27.5400 S   0  0  0  0  0  0  0  0  0  0  0  0
   -0.8660   26.7950  -28.3370 O   0  0  0  0  0  0  0  0  0  0  0  0
   -1.0250   25.8700  -26.0800 O   0  0  0  0  0  0  0  0  0  0  0  0
    0.5100   24.5500  -27.8380 N   0  0  0  0  0  0  0  0  0  0  0  0
    0.1740   23.2670  -28.4910 C   0  0  0  0  0  0  0  0  0  0  0  0
    0.1110   22.0940  -27.4950 C   0  0  0  0  0  0  0  0  0  0  0  0
   -0.3290   22.5460  -26.2330 O   0  0  0  0  0  0  0  0  0  0  0  0
    0.6610   23.3650  -25.6340 C   0  0  0  0  0  0  0  0  0  0  0  0
    1.3120   24.3660  -26.6170 C   0  0  0  0  0  0  0  0  0  0  0  0
   -2.7760   24.6380  -29.3800 C   0  0  0  0  0  0  0  0  0  0  0  0
   -6.2280   22.4830  -31.9310 C   0  0  0  0  0  0  0  0  0  0  0  0
   -7.1980   23.4990  -31.8650 C   0  0  0  0  0  0  0  0  0  0  0  0
   -8.5600   23.1790  -31.8890 C   0  0  0  0  0  0  0  0  0  0  0  0
   -8.9670   21.8480  -31.9880 C   0  0  0  0  0  0  0  0  0  0  0  0
   -8.0150   20.8250  -32.0600 C   0  0  0  0  0  0  0  0  0  0  0  0
   -8.5240   19.1410  -32.2160 S   0  0  0  0  0  0  0  0  0  0  0  0
   -9.8450   19.0930  -32.9340 O   0  0  0  0  0  0  0  0  0  0  0  0
   -8.7200   18.5530  -30.8450 O   0  0  0  0  0  0  0  0  0  0  0  0
   -7.3580   18.1890  -33.1020 N   0  0  0  0  0  0  0  0  0  0  0  0
   -6.5110   19.0660  -33.9260 C   0  0  0  0  0  0  0  0  0  0  0  0
   -5.6690   18.2140  -34.8790 C   0  0  0  0  0  0  0  0  0  0  0  0
   -5.0070   17.0630  -34.1660 C   0  0  0  0  0  0  0  0  0  0  0  0
   -3.9890   16.3440  -34.8130 C   0  0  0  0  0  0  0  0  0  0  0  0
   -3.4090   15.2320  -34.1970 C   0  0  0  0  0  0  0  0  0  0  0  0
   -3.8410   14.8250  -32.9340 C   0  0  0  0  0  0  0  0  0  0  0  0
   -4.8570   15.5290  -32.2810 C   0  0  0  0  0  0  0  0  0  0  0  0
   -5.4630   16.6340  -32.9000 C   0  0  0  0  0  0  0  0  0  0  0  0
   -6.5270   17.4120  -32.1650 C   0  0  0  0  0  0  0  0  0  0  0  0
   -6.6490   21.1440  -32.0240 C   0  0  0  0  0  0  0  0  0  0  0  0
   -5.4957   22.5779  -29.1085 H   0  0  0  0  0  0  0  0  0  0  0  0
   -4.7182   22.5308  -26.7381 H   0  0  0  0  0  0  0  0  0  0  0  0
   -2.6889   23.8146  -26.0586 H   0  0  0  0  0  0  0  0  0  0  0  0
   -0.8062   23.3668  -28.9802 H   0  0  0  0  0  0  0  0  0  0  0  0
    0.9694   23.0447  -29.2176 H   0  0  0  0  0  0  0  0  0  0  0  0
   -0.5893   21.3345  -27.8728 H   0  0  0  0  0  0  0  0  0  0  0  0
    1.1163   21.6603  -27.3891 H   0  0  0  0  0  0  0  0  0  0  0  0
    0.1941   23.9338  -24.8164 H   0  0  0  0  0  0  0  0  0  0  0  0
    1.4591   22.6980  -25.2760 H   0  0  0  0  0  0  0  0  0  0  0  0
    1.4184   25.3382  -26.1135 H   0  0  0  0  0  0  0  0  0  0  0  0
    2.2898   23.9591  -26.9141 H   0  0  0  0  0  0  0  0  0  0  0  0
   -2.2434   25.2555  -30.1183 H   0  0  0  0  0  0  0  0  0  0  0  0
   -6.8844   24.5510  -31.7941 H   0  0  0  0  0  0  0  0  0  0  0  0
   -9.3123   23.9793  -31.8296 H   0  0  0  0  0  0  0  0  0  0  0  0
  -10.0390   21.6023  -32.0095 H   0  0  0  0  0  0  0  0  0  0  0  0
   -7.1474   19.7480  -34.5091 H   0  0  0  0  0  0  0  0  0  0  0  0
   -5.8465   19.6519  -33.2740 H   0  0  0  0  0  0  0  0  0  0  0  0
   -6.3211   17.8149  -35.6699 H   0  0  0  0  0  0  0  0  0  0  0  0
   -4.8798   18.8532  -35.3015 H   0  0  0  0  0  0  0  0  0  0  0  0
   -3.6463   16.6579  -35.8100 H   0  0  0  0  0  0  0  0  0  0  0  0
   -2.6098   14.6760  -34.7089 H   0  0  0  0  0  0  0  0  0  0  0  0
   -3.3817   13.9495  -32.4518 H   0  0  0  0  0  0  0  0  0  0  0  0
   -5.1830   15.2160  -31.2781 H   0  0  0  0  0  0  0  0  0  0  0  0
   -7.1688   16.7097  -31.6129 H   0  0  0  0  0  0  0  0  0  0  0  0
   -6.0340   18.1106  -31.4730 H   0  0  0  0  0  0  0  0  0  0  0  0
   -5.9003   20.3394  -32.0689 H   0  0  0  0  0  0  0  0  0  0  0  0
  1  2  2  0
  2  3  1  0
  3  4  1  0
  4  5  2  0
  5  6  1  0
  6  7  2  0
  7  8  1  0
  8  9  1  0
  9 10  2  0
  9 11  2  0
  9 12  1  0
 12 13  1  0
 13 14  1  0
 14 15  1  0
 15 16  1  0
 16 17  1  0
  8 18  2  0
  2 19  1  0
 19 20  2  0
 20 21  1  0
 21 22  2  0
 22 23  1  0
 23 24  1  0
 24 25  2  0
 24 26  2  0
 24 27  1  0
 27 28  1  0
 28 29  1  0
 29 30  1  0
 30 31  2  0
 31 32  1  0
 32 33  2  0
 33 34  1  0
 34 35  2  0
 35 36  1  0
 23 37  2  0
 18  4  1  0
 37 19  1  0
 17 12  1  0
 36 27  1  0
 35 30  1  0
  5 38  1  0
  6 39  1  0
  7 40  1  0
 13 41  1  0
 13 42  1  0
 14 43  1  0
 14 44  1  0
 16 45  1  0
 16 46  1  0
 17 47  1  0
 17 48  1  0
 18 49  1  0
 20 50  1  0
 21 51  1  0
 22 52  1  0
 28 53  1  0
 28 54  1  0
 29 55  1  0
 29 56  1  0
 31 57  1  0
 32 58  1  0
 33 59  1  0
 34 60  1  0
 36 61  1  0
 36 62  1  0
 37 63  1  0
M  CHG  1   3  -1
M  END
>  <UniqueID>  (39) 
37

>  <SMILES>  (39) 
O=C([N-]c1cccc(S(=O)(=O)N2CCOCC2)c1)c1cccc(S(=O)(=O)N2CCc3ccccc3C2)c1

>  <Energy>  (39) 
84.10419748970205

>  <Genealogy>  (39) 
O=C([N-]c1cccc(S(=O)(=O)N2CCOCC2)c1)c1cccc(S(=O)(=O)N2CCc3ccccc3C2)c1 (protonated)
O=C([N-]c1cccc(S(=O)(=O)N2CCOCC2)c1)c1cccc(S(=O)(=O)N2CCc3ccccc3C2)c1 (3D coordinates assigned)
O=C([N-]c1cccc(S(=O)(=O)N2CCOCC2)c1)c1cccc(S(=O)(=O)N2CCc3ccccc3C2)c1 (nonaromatic ring conformer: 84.10419748970205 kcal/mol)

>  <smiles>  (39) 
O=C(Nc1cccc(S(=O)(=O)N2CCOCC2)c1)c1cccc(S(=O)(=O)N2CCc3ccccc3C2)c1

>  <score_type>  (39) 
oracle

>  <origin>  (39) 
adgpu

>  <m_score__min__energy>  (39) 
-12.960000000000001

>  <m_primary>  (39) 
energy

$$$$
39:0
     RDKit          3D

 26 27  0  0  0  0  0  0  0  0999 V2000
    0.9990   19.3610  -31.5010 C   0  0  0  0  0  0  0  0  0  0  0  0
   -0.4580   19.3130  -31.5030 N   0  0  0  0  0  0  0  0  0  0  0  0
   -1.0990   20.8080  -30.8930 S   0  0  0  0  0  0  0  0  0  0  0  0
   -2.4230   21.0910  -31.5450 O   0  0  0  0  0  0  0  0  0  0  0  0
   -0.1560   21.9200  -31.2560 O   0  0  0  0  0  0  0  0  0  0  0  0
   -1.2200   20.7380  -29.1240 C   0  0  0  0  0  0  0  0  0  0  0  0
   -0.9560   19.5030  -28.5110 C   0  0  0  0  0  0  0  0  0  0  0  0
   -0.9860   19.3740  -27.1220 C   0  0  0  0  0  0  0  0  0  0  0  0
   -1.2790   20.4780  -26.3230 C   0  0  0  0  0  0  0  0  0  0  0  0
   -1.5510   21.7140  -26.9140 C   0  0  0  0  0  0  0  0  0  0  0  0
   -1.5370   21.8570  -28.3100 C   0  0  0  0  0  0  0  0  0  0  0  0
   -1.8610   23.1790  -28.8670 C   0  0  0  0  0  0  0  0  0  0  0  0
   -3.0440   23.5500  -29.4670 C   0  0  0  0  0  0  0  0  0  0  0  0
   -2.9020   24.8940  -29.7460 C   0  0  0  0  0  0  0  0  0  0  0  0
   -3.8700   25.6750  -30.3640 O   0  0  0  0  0  0  0  0  0  0  0  0
   -1.7100   25.3780  -29.3440 N   0  0  0  0  0  0  0  0  0  0  0  0
   -1.0860   24.3180  -28.7980 C   0  0  0  0  0  0  0  0  0  0  0  0
    0.1830   24.3840  -28.2390 O   0  0  0  0  0  0  0  0  0  0  0  0
    1.3640   19.3730  -30.4634 H   0  0  0  0  0  0  0  0  0  0  0  0
    1.3958   18.4754  -32.0190 H   0  0  0  0  0  0  0  0  0  0  0  0
    1.3366   20.2708  -32.0190 H   0  0  0  0  0  0  0  0  0  0  0  0
   -0.7227   18.6264  -29.1332 H   0  0  0  0  0  0  0  0  0  0  0  0
   -0.7780   18.3992  -26.6566 H   0  0  0  0  0  0  0  0  0  0  0  0
   -1.2960   20.3759  -25.2279 H   0  0  0  0  0  0  0  0  0  0  0  0
   -1.7783   22.5833  -26.2794 H   0  0  0  0  0  0  0  0  0  0  0  0
   -3.9148   22.9121  -29.6784 H   0  0  0  0  0  0  0  0  0  0  0  0
  1  2  1  0
  2  3  1  0
  3  4  2  0
  3  5  2  0
  3  6  1  0
  6  7  2  0
  7  8  1  0
  8  9  2  0
  9 10  1  0
 10 11  2  0
 11 12  1  0
 12 13  1  0
 13 14  2  0
 14 15  1  0
 14 16  1  0
 16 17  1  0
 17 18  1  0
 11  6  1  0
 17 12  2  0
  1 19  1  0
  1 20  1  0
  1 21  1  0
  7 22  1  0
  8 23  1  0
  9 24  1  0
 10 25  1  0
 13 26  1  0
M  CHG  4   2  -1  15  -1  16  -1  18  -1
M  END
>  <UniqueID>  (40) 
38

>  <SMILES>  (40) 
C[N-]S(=O)(=O)c1ccccc1-c1cc([O-])[n-]c1[O-]

>  <Energy>  (40) 
60.8595103532121

>  <Genealogy>  (40) 
C[N-]S(=O)(=O)c1ccccc1-c1cc([O-])[n-]c1[O-] (protonated)
C[N-]S(=O)(=O)c1ccccc1-c1cc([O-])[n-]c1[O-] (3D coordinates assigned)
C[N-]S(=O)(=O)c1ccccc1-c1cc([O-])[n-]c1[O-] (optimized conformer: 60.8595103532121 kcal/mol)

>  <smiles>  (40) 
CNS(=O)(=O)c1ccccc1-c1cc(O)[nH]c1O

>  <score_type>  (40) 
oracle

>  <origin>  (40) 
adgpu

>  <m_score__min__energy>  (40) 
-10.960000000000001

>  <m_primary>  (40) 
energy

$$$$
40:0
     RDKit          3D

 46 48  0  0  0  0  0  0  0  0999 V2000
    2.8040   21.8710  -35.8960 C   0  0  0  0  0  0  0  0  0  0  0  0
    1.4760   21.9430  -35.2150 C   0  0  0  0  0  0  0  0  0  0  0  0
    0.7700   22.9790  -35.3470 O   0  0  0  0  0  0  0  0  0  0  0  0
    0.9750   20.8000  -34.5040 N   0  0  0  0  0  0  0  0  0  0  0  0
   -0.2160   20.8090  -33.6960 C   0  0  0  0  0  0  0  0  0  0  0  0
   -0.1730   21.1270  -32.3270 C   0  0  0  0  0  0  0  0  0  0  0  0
   -1.3440   21.1170  -31.5630 C   0  0  0  0  0  0  0  0  0  0  0  0
   -2.5710   20.7800  -32.1450 C   0  0  0  0  0  0  0  0  0  0  0  0
   -3.7190   20.8050  -31.3370 O   0  0  0  0  0  0  0  0  0  0  0  0
   -4.4900   21.9710  -31.0410 C   0  0  0  0  0  0  0  0  0  0  0  0
   -5.9710   21.7170  -31.2290 C   0  0  0  0  0  0  0  0  0  0  0  0
   -6.4050   20.4400  -31.6310 C   0  0  0  0  0  0  0  0  0  0  0  0
   -7.7640   20.1780  -31.8320 C   0  0  0  0  0  0  0  0  0  0  0  0
   -8.2960   18.5360  -32.3190 S   0  0  0  0  0  0  0  0  0  0  0  0
   -6.6640   18.0790  -32.9240 C   0  0  0  0  0  0  0  0  0  0  0  0
   -6.2760   18.5220  -34.1970 C   0  0  0  0  0  0  0  0  0  0  0  0
   -5.0280   18.1740  -34.7170 C   0  0  0  0  0  0  0  0  0  0  0  0
   -4.1580   17.3790  -33.9700 C   0  0  0  0  0  0  0  0  0  0  0  0
   -4.5290   16.9400  -32.6960 C   0  0  0  0  0  0  0  0  0  0  0  0
   -5.7780   17.2890  -32.1590 C   0  0  0  0  0  0  0  0  0  0  0  0
   -6.1200   16.8440  -30.8400 N   0  0  0  0  0  0  0  0  0  0  0  0
   -8.7030   21.1960  -31.6460 C   0  0  0  0  0  0  0  0  0  0  0  0
   -8.2850   22.4750  -31.2790 C   0  0  0  0  0  0  0  0  0  0  0  0
   -6.9260   22.7490  -31.0780 C   0  0  0  0  0  0  0  0  0  0  0  0
   -6.4430   24.5460  -30.6100 Br  0  0  0  0  0  0  0  0  0  0  0  0
   -2.6100   20.4310  -33.5080 C   0  0  0  0  0  0  0  0  0  0  0  0
   -1.4400   20.4400  -34.2710 C   0  0  0  0  0  0  0  0  0  0  0  0
    3.6019   21.8277  -35.1400 H   0  0  0  0  0  0  0  0  0  0  0  0
    2.8453   20.9693  -36.5247 H   0  0  0  0  0  0  0  0  0  0  0  0
    2.9425   22.7630  -36.5247 H   0  0  0  0  0  0  0  0  0  0  0  0
    1.4500   19.8830  -34.6640 H   0  0  0  0  0  0  0  0  0  0  0  0
    0.7865   21.3849  -31.8548 H   0  0  0  0  0  0  0  0  0  0  0  0
   -1.3002   21.3764  -30.4949 H   0  0  0  0  0  0  0  0  0  0  0  0
   -4.3071   22.2654  -29.9970 H   0  0  0  0  0  0  0  0  0  0  0  0
   -4.1858   22.7714  -31.7315 H   0  0  0  0  0  0  0  0  0  0  0  0
   -5.6674   19.6394  -31.7888 H   0  0  0  0  0  0  0  0  0  0  0  0
   -6.9596   19.1478  -34.7896 H   0  0  0  0  0  0  0  0  0  0  0  0
   -4.7305   18.5265  -35.7156 H   0  0  0  0  0  0  0  0  0  0  0  0
   -3.1787   17.0974  -34.3844 H   0  0  0  0  0  0  0  0  0  0  0  0
   -3.8374   16.3167  -32.1101 H   0  0  0  0  0  0  0  0  0  0  0  0
   -5.7250   15.9700  -30.4310 H   0  0  0  0  0  0  0  0  0  0  0  0
   -6.7990   17.3850  -30.2590 H   0  0  0  0  0  0  0  0  0  0  0  0
   -9.7737   20.9883  -31.7893 H   0  0  0  0  0  0  0  0  0  0  0  0
   -9.0283   23.2749  -31.1463 H   0  0  0  0  0  0  0  0  0  0  0  0
   -3.5658   20.1500  -33.9743 H   0  0  0  0  0  0  0  0  0  0  0  0
   -1.4795   20.1549  -35.3327 H   0  0  0  0  0  0  0  0  0  0  0  0
  1  2  1  0
  2  3  2  0
  2  4  1  0
  4  5  1  0
  5  6  2  0
  6  7  1  0
  7  8  2  0
  8  9  1  0
  9 10  1  0
 10 11  1  0
 11 12  2  0
 12 13  1  0
 13 14  1  0
 14 15  1  0
 15 16  2  0
 16 17  1  0
 17 18  2  0
 18 19  1  0
 19 20  2  0
 20 21  1  0
 13 22  2  0
 22 23  1  0
 23 24  2  0
 24 25  1  0
  8 26  1  0
 26 27  2  0
 27  5  1  0
 24 11  1  0
 20 15  1  0
  1 28  1  0
  1 29  1  0
  1 30  1  0
  4 31  1  0
  6 32  1  0
  7 33  1  0
 10 34  1  0
 10 35  1  0
 12 36  1  0
 16 37  1  0
 17 38  1  0
 18 39  1  0
 19 40  1  0
 21 41  1  0
 21 42  1  0
 22 43  1  0
 23 44  1  0
 26 45  1  0
 27 46  1  0
M  END
>  <UniqueID>  (41) 
39

>  <SMILES>  (41) 
CC(=O)Nc1ccc(OCc2cc(Sc3ccccc3N)ccc2Br)cc1

>  <Energy>  (41) 
47.38927323621565

>  <Genealogy>  (41) 
CC(=O)Nc1ccc(OCc2cc(Sc3ccccc3N)ccc2Br)cc1 (3D coordinates assigned)
CC(=O)Nc1ccc(OCc2cc(Sc3ccccc3N)ccc2Br)cc1 (optimized conformer: 47.38927323621565 kcal/mol)

>  <smiles>  (41) 
CC(=O)Nc1ccc(OCc2cc(Sc3ccccc3N)ccc2Br)cc1

>  <score_type>  (41) 
oracle

>  <origin>  (41) 
adgpu

>  <m_score__min__energy>  (41) 
-9.0700000000000003

>  <m_primary>  (41) 
energy

$$$$
41:0
     RDKit          3D

 33 34  0  0  0  0  0  0  0  0999 V2000
   -2.4960   22.4630  -28.5610 C   0  0  0  0  0  0  0  0  0  0  0  0
   -2.7630   23.8590  -28.0030 C   0  0  0  0  0  0  0  0  0  0  0  0
   -2.5000   24.9100  -29.0480 C   0  0  0  0  0  0  0  0  0  0  0  0
   -1.4000   25.5230  -29.0360 O   0  0  0  0  0  0  0  0  0  0  0  0
   -3.4950   25.2960  -30.0050 N   0  0  0  0  0  0  0  0  0  0  0  0
   -4.5890   24.4910  -30.4670 C   0  0  0  0  0  0  0  0  0  0  0  0
   -5.8960   24.9050  -30.1900 C   0  0  0  0  0  0  0  0  0  0  0  0
   -6.9830   24.1610  -30.6520 C   0  0  0  0  0  0  0  0  0  0  0  0
   -6.7720   23.0060  -31.4100 C   0  0  0  0  0  0  0  0  0  0  0  0
   -5.4670   22.5880  -31.7250 C   0  0  0  0  0  0  0  0  0  0  0  0
   -5.2420   21.3750  -32.5480 C   0  0  0  0  0  0  0  0  0  0  0  0
   -4.3420   21.3770  -33.4310 O   0  0  0  0  0  0  0  0  0  0  0  0
   -5.9930   20.1780  -32.2750 N   0  0  0  0  0  0  0  0  0  0  0  0
   -6.0440   19.0630  -32.9520 C   0  0  0  0  0  0  0  0  0  0  0  0
   -6.7870   18.0020  -32.4170 C   0  0  0  0  0  0  0  0  0  0  0  0
   -6.8740   16.7910  -33.1090 C   0  0  0  0  0  0  0  0  0  0  0  0
   -6.2500   16.6450  -34.3060 N   0  0  0  0  0  0  0  0  0  0  0  0
   -5.5380   17.6580  -34.8650 C   0  0  0  0  0  0  0  0  0  0  0  0
   -5.4240   18.8860  -34.2080 C   0  0  0  0  0  0  0  0  0  0  0  0
   -4.3770   23.3460  -31.2550 C   0  0  0  0  0  0  0  0  0  0  0  0
   -2.3607   21.7555  -27.7296 H   0  0  0  0  0  0  0  0  0  0  0  0
   -3.3496   22.1452  -29.1777 H   0  0  0  0  0  0  0  0  0  0  0  0
   -1.5853   22.4826  -29.1777 H   0  0  0  0  0  0  0  0  0  0  0  0
   -3.8129   23.9245  -27.6815 H   0  0  0  0  0  0  0  0  0  0  0  0
   -2.0906   24.0330  -27.1500 H   0  0  0  0  0  0  0  0  0  0  0  0
   -6.0681   25.8209  -29.6055 H   0  0  0  0  0  0  0  0  0  0  0  0
   -8.0082   24.4846  -30.4189 H   0  0  0  0  0  0  0  0  0  0  0  0
   -7.6332   22.4196  -31.7628 H   0  0  0  0  0  0  0  0  0  0  0  0
   -7.3017   18.1224  -31.4523 H   0  0  0  0  0  0  0  0  0  0  0  0
   -7.4487   15.9551  -32.6835 H   0  0  0  0  0  0  0  0  0  0  0  0
   -5.0490   17.5109  -35.8393 H   0  0  0  0  0  0  0  0  0  0  0  0
   -4.8554   19.7087  -34.6660 H   0  0  0  0  0  0  0  0  0  0  0  0
   -3.3509   23.0396  -31.5066 H   0  0  0  0  0  0  0  0  0  0  0  0
  1  2  1  0
  2  3  1  0
  3  4  2  0
  3  5  1  0
  5  6  1  0
  6  7  2  0
  7  8  1  0
  8  9  2  0
  9 10  1  0
 10 11  1  0
 11 12  2  0
 11 13  1  0
 13 14  2  3
 14 15  1  0
 15 16  2  0
 16 17  1  0
 17 18  1  0
 18 19  2  0
 10 20  2  0
 20  6  1  0
 19 14  1  0
  1 21  1  0
  1 22  1  0
  1 23  1  0
  2 24  1  0
  2 25  1  0
  7 26  1  0
  8 27  1  0
  9 28  1  0
 15 29  1  0
 16 30  1  0
 18 31  1  0
 19 32  1  0
 20 33  1  0
M  CHG  2   5  -1  17  -1
M  END
>  <UniqueID>  (42) 
40

>  <SMILES>  (42) 
CCC(=O)[N-]c1cccc(C(=O)N=c2cc[n-]cc2)c1

>  <Energy>  (42) 
44.63581086538505

>  <Genealogy>  (42) 
CCC(=O)[N-]c1cccc(C(=O)N=c2cc[n-]cc2)c1 (protonated)
CCC(=O)[N-]c1cccc(C(=O)N=c2cc[n-]cc2)c1 (3D coordinates assigned)
CCC(=O)[N-]c1cccc(C(=O)N=c2cc[n-]cc2)c1 (optimized conformer: 44.63581086538505 kcal/mol)

>  <smiles>  (42) 
CCC(=O)Nc1cccc(C(=O)N=c2cc[nH]cc2)c1

>  <score_type>  (42) 
oracle

>  <origin>  (42) 
adgpu

>  <m_score__min__energy>  (42) 
-9.1099999999999994

>  <m_primary>  (42) 
energy

$$$$
42:0
     RDKit          3D

 46 48  0  0  0  0  0  0  0  0999 V2000
   -4.5130   17.3340  -34.8040 C   0  0  0  0  0  0  0  0  0  0  0  0
   -5.0140   17.3620  -33.4720 O   0  0  0  0  0  0  0  0  0  0  0  0
   -6.1330   18.1020  -33.0630 C   0  0  0  0  0  0  0  0  0  0  0  0
   -6.4450   19.2760  -33.7570 C   0  0  0  0  0  0  0  0  0  0  0  0
   -7.5510   20.0470  -33.3880 C   0  0  0  0  0  0  0  0  0  0  0  0
   -8.3660   19.6570  -32.3200 C   0  0  0  0  0  0  0  0  0  0  0  0
   -9.4670   20.4660  -31.9960 O   0  0  0  0  0  0  0  0  0  0  0  0
   -9.4160   21.6500  -31.2010 C   0  0  0  0  0  0  0  0  0  0  0  0
   -8.1560   22.4090  -31.4760 C   0  0  0  0  0  0  0  0  0  0  0  0
   -6.9150   22.1600  -30.9300 C   0  0  0  0  0  0  0  0  0  0  0  0
   -6.1130   23.1290  -31.5040 C   0  0  0  0  0  0  0  0  0  0  0  0
   -4.6830   23.3710  -31.2360 C   0  0  0  0  0  0  0  0  0  0  0  0
   -4.3310   24.5160  -30.8440 O   0  0  0  0  0  0  0  0  0  0  0  0
   -3.6880   22.3420  -31.3990 N   0  0  0  0  0  0  0  0  0  0  0  0
   -3.7620   21.3840  -32.5100 C   0  0  0  0  0  0  0  0  0  0  0  0
   -2.3550   21.1370  -33.0640 C   0  0  0  0  0  0  0  0  0  0  0  0
   -1.4280   20.6020  -32.0320 N   0  0  0  0  0  0  0  0  0  0  0  0
   -0.0350   20.9320  -32.3850 C   0  0  0  0  0  0  0  0  0  0  0  0
   -1.7390   21.0360  -30.6400 C   0  0  0  0  0  0  0  0  0  0  0  0
   -2.4710   22.3850  -30.5810 C   0  0  0  0  0  0  0  0  0  0  0  0
   -6.8530   23.8980  -32.3270 N   0  0  0  0  0  0  0  0  0  0  0  0
   -8.0680   23.4330  -32.2910 O   0  0  0  0  0  0  0  0  0  0  0  0
   -8.0540   18.4790  -31.6160 C   0  0  0  0  0  0  0  0  0  0  0  0
   -6.9480   17.7070  -31.9850 C   0  0  0  0  0  0  0  0  0  0  0  0
   -3.4149   17.2726  -34.7815 H   0  0  0  0  0  0  0  0  0  0  0  0
   -4.9186   16.4571  -35.3299 H   0  0  0  0  0  0  0  0  0  0  0  0
   -4.8183   18.2506  -35.3299 H   0  0  0  0  0  0  0  0  0  0  0  0
   -5.8146   19.5950  -34.6001 H   0  0  0  0  0  0  0  0  0  0  0  0
   -7.7825   20.9685  -33.9423 H   0  0  0  0  0  0  0  0  0  0  0  0
  -10.2815   22.2852  -31.4408 H   0  0  0  0  0  0  0  0  0  0  0  0
   -9.4376   21.3674  -30.1381 H   0  0  0  0  0  0  0  0  0  0  0  0
   -6.6309   21.3781  -30.2104 H   0  0  0  0  0  0  0  0  0  0  0  0
   -4.1859   20.4354  -32.1489 H   0  0  0  0  0  0  0  0  0  0  0  0
   -4.4033   21.7923  -33.3050 H   0  0  0  0  0  0  0  0  0  0  0  0
   -2.4219   20.4126  -33.8891 H   0  0  0  0  0  0  0  0  0  0  0  0
   -1.9547   22.1021  -33.4081 H   0  0  0  0  0  0  0  0  0  0  0  0
   -1.5030   19.5560  -32.0550 H   0  0  0  0  0  0  0  0  0  0  0  0
    0.5530   21.0713  -31.4659 H   0  0  0  0  0  0  0  0  0  0  0  0
    0.3977   20.1115  -32.9762 H   0  0  0  0  0  0  0  0  0  0  0  0
   -0.0164   21.8594  -32.9762 H   0  0  0  0  0  0  0  0  0  0  0  0
   -2.3741   20.2717  -30.1682 H   0  0  0  0  0  0  0  0  0  0  0  0
   -0.7818   21.1578  -30.1119 H   0  0  0  0  0  0  0  0  0  0  0  0
   -2.7428   22.6047  -29.5380 H   0  0  0  0  0  0  0  0  0  0  0  0
   -1.8060   23.1695  -30.9713 H   0  0  0  0  0  0  0  0  0  0  0  0
   -8.6836   18.1638  -30.7709 H   0  0  0  0  0  0  0  0  0  0  0  0
   -6.7135   16.7865  -31.4303 H   0  0  0  0  0  0  0  0  0  0  0  0
  1  2  1  0
  2  3  1  0
  3  4  2  0
  4  5  1  0
  5  6  2  0
  6  7  1  0
  7  8  1  0
  8  9  1  0
  9 10  2  0
 10 11  1  0
 11 12  1  0
 12 13  2  0
 12 14  1  0
 14 15  1  0
 15 16  1  0
 16 17  1  0
 17 18  1  0
 17 19  1  0
 19 20  1  0
 11 21  2  0
 21 22  1  0
  6 23  1  0
 23 24  2  0
 24  3  1  0
 22  9  1  0
 20 14  1  0
  1 25  1  0
  1 26  1  0
  1 27  1  0
  4 28  1  0
  5 29  1  0
  8 30  1  0
  8 31  1  0
 10 32  1  0
 15 33  1  0
 15 34  1  0
 16 35  1  0
 16 36  1  0
 17 37  1  0
 18 38  1  0
 18 39  1  0
 18 40  1  0
 19 41  1  0
 19 42  1  0
 20 43  1  0
 20 44  1  0
 23 45  1  0
 24 46  1  0
M  CHG  1  17   1
M  END
>  <UniqueID>  (43) 
41

>  <SMILES>  (43) 
COc1ccc(OCc2cc(C(=O)N3CC[NH+](C)CC3)no2)cc1

>  <Energy>  (43) 
84.90241585720698

>  <Genealogy>  (43) 
COc1ccc(OCc2cc(C(=O)N3CC[NH+](C)CC3)no2)cc1 (protonated)
COc1ccc(OCc2cc(C(=O)N3CC[NH+](C)CC3)no2)cc1 (3D coordinates assigned)
COc1ccc(OCc2cc(C(=O)N3CC[NH+](C)CC3)no2)cc1 (nonaromatic ring conformer: 84.90241585720698 kcal/mol)

>  <smiles>  (43) 
COc1ccc(OCc2cc(C(=O)N3CCN(C)CC3)no2)cc1

>  <score_type>  (43) 
oracle

>  <origin>  (43) 
adgpu

>  <m_score__min__energy>  (43) 
-7.8899999999999997

>  <m_primary>  (43) 
energy

$$$$
43:0
     RDKit          3D

 60 64  0  0  0  0  0  0  0  0999 V2000
    2.3678   20.5376  -35.1427 H   0  0  0  0  0  0  0  0  0  0  0  0
    1.8710   21.4830  -35.4060 C   0  0  0  0  0  0  0  0  0  0  0  0
    2.5610   22.4570  -36.0580 N   0  0  0  0  0  0  0  0  0  0  0  0
    1.9650   23.6260  -36.3990 C   0  0  0  0  0  0  0  0  0  0  0  0
    2.6560   24.5960  -37.0510 N   0  0  0  0  0  0  0  0  0  0  0  0
    2.0530   25.7620  -37.4080 C   0  0  0  0  0  0  0  0  0  0  0  0
    2.6265   26.5416  -37.9307 H   0  0  0  0  0  0  0  0  0  0  0  0
    0.6980   25.9680  -37.1080 C   0  0  0  0  0  0  0  0  0  0  0  0
    0.1280   27.0820  -37.4730 N   0  0  0  0  0  0  0  0  0  0  0  0
   -1.2340   27.5060  -37.2890 C   0  0  0  0  0  0  0  0  0  0  0  0
   -2.0740   27.2190  -38.1810 O   0  0  0  0  0  0  0  0  0  0  0  0
   -1.7010   28.2720  -36.0870 C   0  0  0  0  0  0  0  0  0  0  0  0
   -1.3825   27.7496  -35.1728 H   0  0  0  0  0  0  0  0  0  0  0  0
   -1.2646   29.2816  -36.1033 H   0  0  0  0  0  0  0  0  0  0  0  0
   -2.7983   28.3466  -36.1033 H   0  0  0  0  0  0  0  0  0  0  0  0
    0.0130   24.9910  -36.4500 N   0  0  0  0  0  0  0  0  0  0  0  0
    0.6150   23.8290  -36.0880 C   0  0  0  0  0  0  0  0  0  0  0  0
   -0.0740   22.8610  -35.4330 N   0  0  0  0  0  0  0  0  0  0  0  0
    0.5160   21.6880  -35.0680 C   0  0  0  0  0  0  0  0  0  0  0  0
   -0.2880   20.6550  -34.3600 C   0  0  0  0  0  0  0  0  0  0  0  0
    0.2280   19.3560  -34.1950 C   0  0  0  0  0  0  0  0  0  0  0  0
    1.2273   19.1126  -34.5851 H   0  0  0  0  0  0  0  0  0  0  0  0
   -0.5180   18.3730  -33.5400 C   0  0  0  0  0  0  0  0  0  0  0  0
   -0.1080   17.3587  -33.4258 H   0  0  0  0  0  0  0  0  0  0  0  0
   -1.7820   18.6740  -33.0300 C   0  0  0  0  0  0  0  0  0  0  0  0
   -2.3658   17.8940  -32.5193 H   0  0  0  0  0  0  0  0  0  0  0  0
   -2.3110   19.9640  -33.1650 C   0  0  0  0  0  0  0  0  0  0  0  0
   -3.6110   20.2580  -32.6230 N   0  0  0  0  0  0  0  0  0  0  0  0
   -3.6870   20.9870  -31.8780 H   0  0  0  0  0  0  0  0  0  0  0  0
   -4.8270   19.7060  -33.1430 C   0  0  0  0  0  0  0  0  0  0  0  0
   -4.8230   19.0700  -34.2350 O   0  0  0  0  0  0  0  0  0  0  0  0
   -6.0630   19.9630  -32.4650 N   0  0  0  0  0  0  0  0  0  0  0  0
   -6.4920   21.2500  -32.0040 C   0  0  0  0  0  0  0  0  0  0  0  0
   -7.8030   21.6660  -32.2690 C   0  0  0  0  0  0  0  0  0  0  0  0
   -8.4751   21.0195  -32.8524 H   0  0  0  0  0  0  0  0  0  0  0  0
   -8.2610   22.8980  -31.7960 C   0  0  0  0  0  0  0  0  0  0  0  0
   -9.2963   23.2116  -31.9957 H   0  0  0  0  0  0  0  0  0  0  0  0
   -7.4080   23.7330  -31.0700 C   0  0  0  0  0  0  0  0  0  0  0  0
   -7.7764   24.6969  -30.6890 H   0  0  0  0  0  0  0  0  0  0  0  0
   -6.0820   23.3440  -30.8260 C   0  0  0  0  0  0  0  0  0  0  0  0
   -4.9990   24.3890  -29.9020 S   0  0  0  0  0  0  0  0  0  0  0  0
   -5.8140   25.2930  -29.0210 O   0  0  0  0  0  0  0  0  0  0  0  0
   -4.2150   25.2490  -30.8510 O   0  0  0  0  0  0  0  0  0  0  0  0
   -3.8910   23.4650  -28.9080 N   0  0  0  0  0  0  0  0  0  0  0  0
   -3.4550   24.2370  -27.7390 C   0  0  0  0  0  0  0  0  0  0  0  0
   -4.1542   25.0664  -27.5568 H   0  0  0  0  0  0  0  0  0  0  0  0
   -3.4328   23.5979  -26.8440 H   0  0  0  0  0  0  0  0  0  0  0  0
   -2.0720   24.7840  -28.0320 C   0  0  0  0  0  0  0  0  0  0  0  0
   -2.1368   25.7953  -28.4599 H   0  0  0  0  0  0  0  0  0  0  0  0
   -1.4561   24.8701  -27.1247 H   0  0  0  0  0  0  0  0  0  0  0  0
   -1.4860   23.8180  -29.0330 C   0  0  0  0  0  0  0  0  0  0  0  0
   -0.9181   24.3604  -29.8032 H   0  0  0  0  0  0  0  0  0  0  0  0
   -0.7893   23.1117  -28.5578 H   0  0  0  0  0  0  0  0  0  0  0  0
   -2.6790   23.1010  -29.6570 C   0  0  0  0  0  0  0  0  0  0  0  0
   -2.7871   23.4075  -30.7079 H   0  0  0  0  0  0  0  0  0  0  0  0
   -2.5257   22.0125  -29.6166 H   0  0  0  0  0  0  0  0  0  0  0  0
   -5.6230   22.1120  -31.3130 C   0  0  0  0  0  0  0  0  0  0  0  0
   -4.5752   21.8178  -31.1532 H   0  0  0  0  0  0  0  0  0  0  0  0
   -1.5760   20.9410  -33.8600 C   0  0  0  0  0  0  0  0  0  0  0  0
   -2.0102   21.9396  -34.0156 H   0  0  0  0  0  0  0  0  0  0  0  0
  1  2  1  0
  2  3  2  0
  3  4  1  0
  4  5  1  0
  5  6  2  0
  6  7  1  0
  6  8  1  0
  8  9  2  0
  9 10  1  0
 10 11  2  0
 10 12  1  0
 12 13  1  0
 12 14  1  0
 12 15  1  0
  8 16  1  0
 16 17  1  0
 17 18  1  0
 18 19  2  0
 19 20  1  0
 20 21  2  0
 21 22  1  0
 21 23  1  0
 23 24  1  0
 23 25  2  0
 25 26  1  0
 25 27  1  0
 27 28  1  0
 28 29  1  0
 28 30  1  0
 30 31  2  0
 30 32  1  0
 32 33  1  0
 33 34  2  0
 34 35  1  0
 34 36  1  0
 36 37  1  0
 36 38  2  0
 38 39  1  0
 38 40  1  0
 40 41  1  0
 41 42  2  0
 41 43  2  0
 41 44  1  0
 44 45  1  0
 45 46  1  0
 45 47  1  0
 45 48  1  0
 48 49  1  0
 48 50  1  0
 48 51  1  0
 51 52  1  0
 51 53  1  0
 51 54  1  0
 54 55  1  0
 54 56  1  0
 40 57  2  0
 57 58  1  0
 27 59  2  0
 59 60  1  0
 19  2  1  0
 59 20  1  0
 17  4  2  0
 57 33  1  0
 54 44  1  0
M  CHG  2  16  -1  32  -1
M  END
>  <UniqueID>  (44) 
42

>  <SMILES>  (44) 
CC(=O)/N=c1/cnc2ncc(-c3cccc(NC(=O)[N-]c4cccc(S(=O)(=O)N5CCCC5)c4)c3)nc2[n-]1

>  <Energy>  (44) 
84.3095589912408

>  <Genealogy>  (44) 
CC(=O)N=c1cnc2ncc(-c3cccc(NC(=O)[N-]c4cccc(S(=O)(=O)N5CCCC5)c4)c3)nc2[n-]1 (protonated)
CC(=O)/N=c1/cnc2ncc(-c3cccc(NC(=O)[N-]c4cccc(S(=O)(=O)N5CCCC5)c4)c3)nc2[n-]1 (cis-trans isomerization)
CC(=O)/N=c1/cnc2ncc(-c3cccc(NC(=O)[N-]c4cccc(S(=O)(=O)N5CCCC5)c4)c3)nc2[n-]1 (3D coordinates assigned)
CC(=O)/N=c1/cnc2ncc(-c3cccc(NC(=O)[N-]c4cccc(S(=O)(=O)N5CCCC5)c4)c3)nc2[n-]1 (nonaromatic ring conformer: 84.3095589912408 kcal/mol)

>  <smiles>  (44) 
CC(=O)N=c1cnc2ncc(-c3cccc(NC(=O)Nc4cccc(S(=O)(=O)N5CCCC5)c4)c3)nc2[nH]1

>  <score_type>  (44) 
oracle

>  <origin>  (44) 
adgpu

>  <m_score__min__energy>  (44) 
-13.470000000000001

>  <m_primary>  (44) 
energy

$$$$
44:0
     RDKit          3D

 42 44  0  0  0  0  0  0  0  0999 V2000
   -1.6680   26.4620  -25.1020 C   0  0  0  0  0  0  0  0  0  0  0  0
   -1.3570   25.0390  -25.4570 C   0  0  0  0  0  0  0  0  0  0  0  0
   -0.4040   24.3200  -24.7200 C   0  0  0  0  0  0  0  0  0  0  0  0
   -0.0790   23.0100  -25.0810 C   0  0  0  0  0  0  0  0  0  0  0  0
   -0.6980   22.4100  -26.1790 C   0  0  0  0  0  0  0  0  0  0  0  0
   -1.6590   23.1150  -26.9240 C   0  0  0  0  0  0  0  0  0  0  0  0
   -2.2980   22.5120  -28.1120 C   0  0  0  0  0  0  0  0  0  0  0  0
   -2.5170   21.2270  -28.2410 O   0  0  0  0  0  0  0  0  0  0  0  0
   -3.1230   21.0460  -29.3920 C   0  0  0  0  0  0  0  0  0  0  0  0
   -3.3110   22.2000  -30.0660 N   0  0  0  0  0  0  0  0  0  0  0  0
   -2.7870   23.1360  -29.2500 C   0  0  0  0  0  0  0  0  0  0  0  0
   -2.6600   24.5560  -29.6320 C   0  0  0  0  0  0  0  0  0  0  0  0
   -1.6320   25.2000  -29.2960 O   0  0  0  0  0  0  0  0  0  0  0  0
   -3.6360   25.1970  -30.4610 N   0  0  0  0  0  0  0  0  0  0  0  0
   -5.0210   24.8400  -30.5360 C   0  0  0  0  0  0  0  0  0  0  0  0
   -6.0520   25.4640  -29.8680 C   0  0  0  0  0  0  0  0  0  0  0  0
   -7.2030   24.8230  -30.1560 N   0  0  0  0  0  0  0  0  0  0  0  0
   -6.9100   23.8080  -30.9570 N   0  0  0  0  0  0  0  0  0  0  0  0
   -7.9060   22.9120  -31.5350 C   0  0  0  0  0  0  0  0  0  0  0  0
   -7.4470   21.4590  -31.3980 C   0  0  0  0  0  0  0  0  0  0  0  0
   -8.3210   20.5200  -32.2370 C   0  0  0  0  0  0  0  0  0  0  0  0
   -8.4410   19.2120  -31.6010 N   0  0  0  0  0  0  0  0  0  0  0  0
   -7.8090   18.1940  -32.0310 C   0  0  0  0  0  0  0  0  0  0  0  0
   -7.1950   17.2050  -32.4490 O   0  0  0  0  0  0  0  0  0  0  0  0
   -5.5870   23.7820  -31.2120 C   0  0  0  0  0  0  0  0  0  0  0  0
   -1.9640   24.4400  -26.5720 C   0  0  0  0  0  0  0  0  0  0  0  0
   -1.6916   26.5701  -24.0076 H   0  0  0  0  0  0  0  0  0  0  0  0
   -0.8928   27.1217  -25.5190 H   0  0  0  0  0  0  0  0  0  0  0  0
   -2.6477   26.7382  -25.5190 H   0  0  0  0  0  0  0  0  0  0  0  0
    0.0887   24.7890  -23.8555 H   0  0  0  0  0  0  0  0  0  0  0  0
    0.6669   22.4497  -24.4982 H   0  0  0  0  0  0  0  0  0  0  0  0
   -0.4325   21.3808  -26.4624 H   0  0  0  0  0  0  0  0  0  0  0  0
   -3.4423   20.0619  -29.7656 H   0  0  0  0  0  0  0  0  0  0  0  0
   -5.9527   26.3394  -29.2094 H   0  0  0  0  0  0  0  0  0  0  0  0
   -8.8627   23.0428  -31.0081 H   0  0  0  0  0  0  0  0  0  0  0  0
   -8.0308   23.1516  -32.6013 H   0  0  0  0  0  0  0  0  0  0  0  0
   -6.4042   21.3785  -31.7387 H   0  0  0  0  0  0  0  0  0  0  0  0
   -7.5338   21.1645  -30.3417 H   0  0  0  0  0  0  0  0  0  0  0  0
   -9.3229   20.9612  -32.3448 H   0  0  0  0  0  0  0  0  0  0  0  0
   -7.8502   20.3893  -33.2225 H   0  0  0  0  0  0  0  0  0  0  0  0
   -5.0580   23.0521  -31.8423 H   0  0  0  0  0  0  0  0  0  0  0  0
   -2.6841   25.0128  -27.1747 H   0  0  0  0  0  0  0  0  0  0  0  0
  1  2  1  0
  2  3  2  0
  3  4  1  0
  4  5  2  0
  5  6  1  0
  6  7  1  0
  7  8  1  0
  8  9  1  0
  9 10  2  0
 10 11  1  0
 11 12  1  0
 12 13  2  0
 12 14  1  0
 14 15  1  0
 15 16  1  0
 16 17  2  0
 17 18  1  0
 18 19  1  0
 19 20  1  0
 20 21  1  0
 21 22  1  0
 22 23  2  0
 23 24  2  0
 18 25  1  0
  6 26  2  0
 26  2  1  0
 11  7  2  0
 25 15  2  0
  1 27  1  0
  1 28  1  0
  1 29  1  0
  3 30  1  0
  4 31  1  0
  5 32  1  0
  9 33  1  0
 16 34  1  0
 19 35  1  0
 19 36  1  0
 20 37  1  0
 20 38  1  0
 21 39  1  0
 21 40  1  0
 25 41  1  0
 26 42  1  0
M  CHG  1  14  -1
M  END
>  <UniqueID>  (45) 
43

>  <SMILES>  (45) 
Cc1cccc(-c2ocnc2C(=O)[N-]c2cnn(CCCN=C=O)c2)c1

>  <Energy>  (45) 
106.02718371240798

>  <Genealogy>  (45) 
Cc1cccc(-c2ocnc2C(=O)[N-]c2cnn(CCCN=C=O)c2)c1 (protonated)
Cc1cccc(-c2ocnc2C(=O)[N-]c2cnn(CCCN=C=O)c2)c1 (3D coordinates assigned)
Cc1cccc(-c2ocnc2C(=O)[N-]c2cnn(CCCN=C=O)c2)c1 (optimized conformer: 106.02718371240798 kcal/mol)

>  <smiles>  (45) 
Cc1cccc(-c2ocnc2C(=O)Nc2cnn(CCCN=C=O)c2)c1

>  <score_type>  (45) 
oracle

>  <origin>  (45) 
adgpu

>  <m_score__min__energy>  (45) 
-9.3300000000000001

>  <m_primary>  (45) 
energy

$$$$
45:0
     RDKit          3D

 47 49  0  0  0  0  0  0  0  0999 V2000
   -3.5170   22.0300  -32.2360 C   0  0  0  0  0  0  0  0  0  0  0  0
   -4.8120   22.6910  -31.8460 C   0  0  0  0  0  0  0  0  0  0  0  0
   -6.0200   22.1170  -32.2740 C   0  0  0  0  0  0  0  0  0  0  0  0
   -7.2420   22.6760  -31.8990 C   0  0  0  0  0  0  0  0  0  0  0  0
   -7.2760   23.8110  -31.0910 C   0  0  0  0  0  0  0  0  0  0  0  0
   -6.0830   24.4120  -30.6600 C   0  0  0  0  0  0  0  0  0  0  0  0
   -6.1340   25.6510  -29.8100 C   0  0  0  0  0  0  0  0  0  0  0  0
   -4.8430   23.8740  -31.0680 C   0  0  0  0  0  0  0  0  0  0  0  0
   -3.6330   24.5170  -30.6450 N   0  0  0  0  0  0  0  0  0  0  0  0
   -2.7710   24.0110  -29.6190 C   0  0  0  0  0  0  0  0  0  0  0  0
   -1.8880   23.1550  -29.9100 O   0  0  0  0  0  0  0  0  0  0  0  0
   -2.8920   24.5090  -28.2300 C   0  0  0  0  0  0  0  0  0  0  0  0
   -4.1210   24.4400  -27.5510 C   0  0  0  0  0  0  0  0  0  0  0  0
   -4.2340   24.9100  -26.2420 C   0  0  0  0  0  0  0  0  0  0  0  0
   -3.1250   25.4510  -25.5910 C   0  0  0  0  0  0  0  0  0  0  0  0
   -1.8820   25.5280  -26.2450 C   0  0  0  0  0  0  0  0  0  0  0  0
   -0.6680   26.1170  -25.5500 C   0  0  1  0  0  0  0  0  0  0  0  0
   -0.5280   27.6320  -25.8300 C   0  0  0  0  0  0  0  0  0  0  0  0
    0.2160   28.3720  -24.7060 C   0  0  0  0  0  0  0  0  0  0  0  0
    1.2180   27.4490  -24.0000 C   0  0  0  0  0  0  0  0  0  0  0  0
    0.5610   26.2800  -23.3720 N   0  0  0  0  0  0  0  0  0  0  0  0
   -0.6880   25.8400  -24.0320 C   0  0  0  0  0  0  0  0  0  0  0  0
   -1.7770   25.0560  -27.5670 C   0  0  0  0  0  0  0  0  0  0  0  0
   -2.9623   21.7468  -31.3293 H   0  0  0  0  0  0  0  0  0  0  0  0
   -3.7295   21.1301  -32.8318 H   0  0  0  0  0  0  0  0  0  0  0  0
   -2.9129   22.7300  -32.8318 H   0  0  0  0  0  0  0  0  0  0  0  0
   -6.0026   21.2196  -32.9099 H   0  0  0  0  0  0  0  0  0  0  0  0
   -8.1820   22.2193  -32.2423 H   0  0  0  0  0  0  0  0  0  0  0  0
   -8.2436   24.2384  -30.7892 H   0  0  0  0  0  0  0  0  0  0  0  0
   -6.1223   25.3673  -28.7473 H   0  0  0  0  0  0  0  0  0  0  0  0
   -5.2611   26.2830  -30.0304 H   0  0  0  0  0  0  0  0  0  0  0  0
   -7.0559   26.2092  -30.0304 H   0  0  0  0  0  0  0  0  0  0  0  0
   -5.0001   24.0123  -28.0553 H   0  0  0  0  0  0  0  0  0  0  0  0
   -5.2013   24.8537  -25.7213 H   0  0  0  0  0  0  0  0  0  0  0  0
   -3.2233   25.8198  -24.5593 H   0  0  0  0  0  0  0  0  0  0  0  0
    0.2147   25.6138  -25.9714 H   0  0  0  0  0  0  0  0  0  0  0  0
    0.0278   27.7673  -26.7696 H   0  0  0  0  0  0  0  0  0  0  0  0
   -1.5413   28.0550  -25.8952 H   0  0  0  0  0  0  0  0  0  0  0  0
    0.7580   29.2266  -25.1370 H   0  0  0  0  0  0  0  0  0  0  0  0
   -0.5230   28.7134  -23.9662 H   0  0  0  0  0  0  0  0  0  0  0  0
    1.9486   27.0890  -24.7393 H   0  0  0  0  0  0  0  0  0  0  0  0
    1.7051   28.0293  -23.2025 H   0  0  0  0  0  0  0  0  0  0  0  0
    0.3430   26.5100  -22.3740 H   0  0  0  0  0  0  0  0  0  0  0  0
    1.2400   25.4830  -23.3660 H   0  0  0  0  0  0  0  0  0  0  0  0
   -0.8138   24.7593  -23.8698 H   0  0  0  0  0  0  0  0  0  0  0  0
   -1.5221   26.4077  -23.5939 H   0  0  0  0  0  0  0  0  0  0  0  0
   -0.8106   25.1154  -28.0891 H   0  0  0  0  0  0  0  0  0  0  0  0
  1  2  1  0
  2  3  2  0
  3  4  1  0
  4  5  2  0
  5  6  1  0
  6  7  1  0
  6  8  2  0
  8  9  1  0
  9 10  1  0
 10 11  2  0
 10 12  1  0
 12 13  2  0
 13 14  1  0
 14 15  2  0
 15 16  1  0
 16 17  1  0
 17 18  1  0
 18 19  1  0
 19 20  1  0
 20 21  1  0
 21 22  1  0
 16 23  2  0
  8  2  1  0
 23 12  1  0
 22 17  1  0
  1 24  1  0
  1 25  1  0
  1 26  1  0
  3 27  1  0
  4 28  1  0
  5 29  1  0
  7 30  1  0
  7 31  1  0
  7 32  1  0
 13 33  1  0
 14 34  1  0
 15 35  1  0
 17 36  1  6
 18 37  1  0
 18 38  1  0
 19 39  1  0
 19 40  1  0
 20 41  1  0
 20 42  1  0
 21 43  1  0
 21 44  1  0
 22 45  1  0
 22 46  1  0
 23 47  1  0
M  CHG  2   9  -1  21   1
M  END
>  <UniqueID>  (46) 
44

>  <SMILES>  (46) 
Cc1cccc(C)c1[N-]C(=O)c1cccc([C@H]2CCC[NH2+]C2)c1

>  <Energy>  (46) 
61.99361704340135

>  <Genealogy>  (46) 
Cc1cccc(C)c1[N-]C(=O)c1cccc(C2CCC[NH2+]C2)c1 (protonated)
Cc1cccc(C)c1[N-]C(=O)c1cccc([C@H]2CCC[NH2+]C2)c1 (chirality)
Cc1cccc(C)c1[N-]C(=O)c1cccc([C@H]2CCC[NH2+]C2)c1 (3D coordinates assigned)
Cc1cccc(C)c1[N-]C(=O)c1cccc([C@H]2CCC[NH2+]C2)c1 (nonaromatic ring conformer: 61.99361704340135 kcal/mol)

>  <smiles>  (46) 
Cc1cccc(C)c1NC(=O)c1cccc(C2CCCNC2)c1

>  <score_type>  (46) 
oracle

>  <origin>  (46) 
adgpu

>  <m_score__min__energy>  (46) 
-10.390000000000001

>  <m_primary>  (46) 
energy

$$$$
46:0
     RDKit          3D

 39 41  0  0  0  0  0  0  0  0999 V2000
   -3.8080   25.2640  -30.3460 O   0  0  0  0  0  0  0  0  0  0  0  0
   -3.6820   24.5110  -29.3420 C   0  0  0  0  0  0  0  0  0  0  0  0
   -4.3320   23.2330  -29.3230 N   0  0  0  0  0  0  0  0  0  0  0  0
   -4.2270   22.2000  -30.3150 C   0  0  0  0  0  0  0  0  0  0  0  0
   -3.2080   21.2310  -30.2660 C   0  0  0  0  0  0  0  0  0  0  0  0
   -3.1060   20.2640  -31.2690 C   0  0  0  0  0  0  0  0  0  0  0  0
   -4.0070   20.2570  -32.3390 C   0  0  0  0  0  0  0  0  0  0  0  0
   -3.8060   19.0840  -33.6380 S   0  0  0  0  0  0  0  0  0  0  0  0
   -3.3500   17.7620  -33.0850 O   0  0  0  0  0  0  0  0  0  0  0  0
   -2.7550   19.5900  -34.5860 O   0  0  0  0  0  0  0  0  0  0  0  0
   -5.3020   18.8780  -34.5040 N   0  0  0  0  0  0  0  0  0  0  0  0
   -6.1310   17.8380  -33.8910 C   0  0  0  0  0  0  0  0  0  0  0  0
   -7.2160   18.4430  -33.0550 C   0  0  0  0  0  0  0  0  0  0  0  0
   -7.6400   19.7550  -33.1020 C   0  0  0  0  0  0  0  0  0  0  0  0
   -8.6350   19.8570  -32.1530 C   0  0  0  0  0  0  0  0  0  0  0  0
   -8.7610   18.6020  -31.5950 C   0  0  0  0  0  0  0  0  0  0  0  0
   -7.9040   17.7800  -32.1550 O   0  0  0  0  0  0  0  0  0  0  0  0
   -5.0150   21.2270  -32.4000 C   0  0  0  0  0  0  0  0  0  0  0  0
   -5.1200   22.2010  -31.4000 C   0  0  0  0  0  0  0  0  0  0  0  0
   -6.4890   23.5310  -31.5440 Br  0  0  0  0  0  0  0  0  0  0  0  0
   -2.8170   24.9180  -28.2030 C   0  0  0  0  0  0  0  0  0  0  0  0
   -3.1830   24.5610  -26.8880 C   0  0  0  0  0  0  0  0  0  0  0  0
   -2.3880   24.9330  -25.8010 C   0  0  0  0  0  0  0  0  0  0  0  0
   -1.2180   25.6640  -26.0050 C   0  0  0  0  0  0  0  0  0  0  0  0
   -0.8400   26.0290  -27.2980 C   0  0  0  0  0  0  0  0  0  0  0  0
   -1.6290   25.6630  -28.3960 C   0  0  0  0  0  0  0  0  0  0  0  0
   -1.2190   26.0510  -29.6660 O   0  0  0  0  0  0  0  0  0  0  0  0
   -2.4884   21.2349  -29.4341 H   0  0  0  0  0  0  0  0  0  0  0  0
   -2.3127   19.5038  -31.2171 H   0  0  0  0  0  0  0  0  0  0  0  0
   -6.5861   17.2263  -34.6839 H   0  0  0  0  0  0  0  0  0  0  0  0
   -5.4941   17.2168  -33.2442 H   0  0  0  0  0  0  0  0  0  0  0  0
   -7.2632   20.5527  -33.7590 H   0  0  0  0  0  0  0  0  0  0  0  0
   -9.2116   20.7571  -31.8935 H   0  0  0  0  0  0  0  0  0  0  0  0
   -9.4721   18.3308  -30.8008 H   0  0  0  0  0  0  0  0  0  0  0  0
   -5.7278   21.2236  -33.2378 H   0  0  0  0  0  0  0  0  0  0  0  0
   -4.1037   23.9839  -26.7168 H   0  0  0  0  0  0  0  0  0  0  0  0
   -2.6859   24.6484  -24.7811 H   0  0  0  0  0  0  0  0  0  0  0  0
   -0.5932   25.9529  -25.1470 H   0  0  0  0  0  0  0  0  0  0  0  0
    0.0824   26.6072  -27.4556 H   0  0  0  0  0  0  0  0  0  0  0  0
  1  2  2  0
  2  3  1  0
  3  4  1  0
  4  5  2  0
  5  6  1  0
  6  7  2  0
  7  8  1  0
  8  9  2  0
  8 10  2  0
  8 11  1  0
 11 12  1  0
 12 13  1  0
 13 14  2  0
 14 15  1  0
 15 16  2  0
 16 17  1  0
  7 18  1  0
 18 19  2  0
 19 20  1  0
  2 21  1  0
 21 22  2  0
 22 23  1  0
 23 24  2  0
 24 25  1  0
 25 26  2  0
 26 27  1  0
 19  4  1  0
 26 21  1  0
 17 13  1  0
  5 28  1  0
  6 29  1  0
 12 30  1  0
 12 31  1  0
 14 32  1  0
 15 33  1  0
 16 34  1  0
 18 35  1  0
 22 36  1  0
 23 37  1  0
 24 38  1  0
 25 39  1  0
M  CHG  3   3  -1  11  -1  27  -1
M  END
>  <UniqueID>  (47) 
45

>  <SMILES>  (47) 
O=C([N-]c1ccc(S(=O)(=O)[N-]Cc2ccco2)cc1Br)c1ccccc1[O-]

>  <Energy>  (47) 
69.59841660287185

>  <Genealogy>  (47) 
O=C([N-]c1ccc(S(=O)(=O)[N-]Cc2ccco2)cc1Br)c1ccccc1[O-] (protonated)
O=C([N-]c1ccc(S(=O)(=O)[N-]Cc2ccco2)cc1Br)c1ccccc1[O-] (3D coordinates assigned)
O=C([N-]c1ccc(S(=O)(=O)[N-]Cc2ccco2)cc1Br)c1ccccc1[O-] (optimized conformer: 69.59841660287185 kcal/mol)

>  <smiles>  (47) 
O=C(Nc1ccc(S(=O)(=O)NCc2ccco2)cc1Br)c1ccccc1O

>  <score_type>  (47) 
oracle

>  <origin>  (47) 
adgpu

>  <m_score__min__energy>  (47) 
-13.210000000000001

>  <m_primary>  (47) 
energy

$$$$
47:0
     RDKit          3D

 40 42  0  0  0  0  0  0  0  0999 V2000
   -0.6413   19.2701  -29.2922 H   0  0  0  0  0  0  0  0  0  0  0  0
   -0.9840   20.3130  -29.2220 C   0  0  0  0  0  0  0  0  0  0  0  0
   -1.7930   20.7110  -28.1520 C   0  0  0  0  0  0  0  0  0  0  0  0
   -2.0833   19.9831  -27.3800 H   0  0  0  0  0  0  0  0  0  0  0  0
   -2.2320   22.0370  -28.0660 C   0  0  0  0  0  0  0  0  0  0  0  0
   -2.8666   22.3513  -27.2243 H   0  0  0  0  0  0  0  0  0  0  0  0
   -1.8650   22.9660  -29.0500 C   0  0  0  0  0  0  0  0  0  0  0  0
   -2.4230   24.6350  -28.9650 S   0  0  0  0  0  0  0  0  0  0  0  0
   -1.2370   25.5490  -29.0750 O   0  0  0  0  0  0  0  0  0  0  0  0
   -3.1240   24.9030  -27.6630 O   0  0  0  0  0  0  0  0  0  0  0  0
   -3.5110   24.9500  -30.2790 N   0  0  0  0  0  0  0  0  0  0  0  0
   -4.5890   24.0940  -30.6820 C   0  0  0  0  0  0  0  0  0  0  0  0
   -4.3170   23.0450  -31.5680 C   0  0  0  0  0  0  0  0  0  0  0  0
   -3.2936   22.8985  -31.9438 H   0  0  0  0  0  0  0  0  0  0  0  0
   -5.3370   22.1830  -31.9780 C   0  0  0  0  0  0  0  0  0  0  0  0
   -5.1119   21.3586  -32.6706 H   0  0  0  0  0  0  0  0  0  0  0  0
   -6.6450   22.3640  -31.5110 C   0  0  0  0  0  0  0  0  0  0  0  0
   -7.9320   21.2800  -32.0310 S   0  0  0  0  0  0  0  0  0  0  0  0
   -8.2200   20.3010  -30.9290 O   0  0  0  0  0  0  0  0  0  0  0  0
   -9.1800   22.0600  -32.3350 O   0  0  0  0  0  0  0  0  0  0  0  0
   -7.4530   20.4060  -33.4520 N   0  0  0  0  0  0  0  0  0  0  0  0
   -6.8400   19.2600  -33.4350 C   0  0  0  0  0  0  0  0  0  0  0  0
   -6.4600   18.5330  -32.3190 C   0  0  0  0  0  0  0  0  0  0  0  0
   -6.5973   18.7853  -31.2572 H   0  0  0  0  0  0  0  0  0  0  0  0
   -5.8650   17.4110  -32.8690 C   0  0  0  0  0  0  0  0  0  0  0  0
   -5.3030   16.2550  -32.1140 C   0  0  0  0  0  0  0  0  0  0  0  0
   -5.3944   16.4431  -31.0341 H   0  0  0  0  0  0  0  0  0  0  0  0
   -5.8577   15.3418  -32.3754 H   0  0  0  0  0  0  0  0  0  0  0  0
   -4.2422   16.1272  -32.3754 H   0  0  0  0  0  0  0  0  0  0  0  0
   -5.9100   17.4910  -34.1810 O   0  0  0  0  0  0  0  0  0  0  0  0
   -6.4860   18.5970  -34.5490 N   0  0  0  0  0  0  0  0  0  0  0  0
   -6.6470   18.8930  -35.5380 H   0  0  0  0  0  0  0  0  0  0  0  0
   -6.9210   23.4070  -30.6190 C   0  0  0  0  0  0  0  0  0  0  0  0
   -7.9442   23.5481  -30.2408 H   0  0  0  0  0  0  0  0  0  0  0  0
   -5.9010   24.2700  -30.2070 C   0  0  0  0  0  0  0  0  0  0  0  0
   -6.1256   25.0897  -29.5087 H   0  0  0  0  0  0  0  0  0  0  0  0
   -1.0490   22.5620  -30.1180 C   0  0  0  0  0  0  0  0  0  0  0  0
   -0.7545   23.2884  -30.8898 H   0  0  0  0  0  0  0  0  0  0  0  0
   -0.6100   21.2370  -30.2020 C   0  0  0  0  0  0  0  0  0  0  0  0
    0.0298   20.9217  -31.0394 H   0  0  0  0  0  0  0  0  0  0  0  0
  1  2  1  0
  2  3  2  0
  3  4  1  0
  3  5  1  0
  5  6  1  0
  5  7  2  0
  7  8  1  0
  8  9  2  0
  8 10  2  0
  8 11  1  0
 11 12  1  0
 12 13  2  0
 13 14  1  0
 13 15  1  0
 15 16  1  0
 15 17  2  0
 17 18  1  0
 18 19  2  0
 18 20  2  0
 18 21  1  0
 21 22  2  0
 22 23  1  0
 23 24  1  0
 23 25  2  0
 25 26  1  0
 26 27  1  0
 26 28  1  0
 26 29  1  0
 25 30  1  0
 30 31  1  0
 31 32  1  0
 17 33  1  0
 33 34  1  0
 33 35  2  0
 35 36  1  0
  7 37  1  0
 37 38  1  0
 37 39  2  0
 39 40  1  0
 39  2  1  0
 35 12  1  0
 31 22  1  0
M  CHG  1  11  -1
M  END
>  <UniqueID>  (48) 
46

>  <SMILES>  (48) 
Cc1c/c(=N\S(=O)(=O)c2ccc([N-]S(=O)(=O)c3ccccc3)cc2)[nH]o1

>  <Energy>  (48) 
79.32548423601914

>  <Genealogy>  (48) 
Cc1cc(=NS(=O)(=O)c2ccc([N-]S(=O)(=O)c3ccccc3)cc2)[nH]o1 (protonated)
Cc1c/c(=N\S(=O)(=O)c2ccc([N-]S(=O)(=O)c3ccccc3)cc2)[nH]o1 (cis-trans isomerization)
Cc1c/c(=N\S(=O)(=O)c2ccc([N-]S(=O)(=O)c3ccccc3)cc2)[nH]o1 (3D coordinates assigned)
Cc1c/c(=N\S(=O)(=O)c2ccc([N-]S(=O)(=O)c3ccccc3)cc2)[nH]o1 (optimized conformer: 79.32548423601914 kcal/mol)

>  <smiles>  (48) 
Cc1cc(=NS(=O)(=O)c2ccc(NS(=O)(=O)c3ccccc3)cc2)[nH]o1

>  <score_type>  (48) 
oracle

>  <origin>  (48) 
adgpu

>  <m_score__min__energy>  (48) 
-10.59

>  <m_primary>  (48) 
energy

$$$$
48:0
     RDKit          3D

 37 39  0  0  0  0  0  0  0  0999 V2000
   -1.6700   16.5740  -35.3520 C   0  0  0  0  0  0  0  0  0  0  0  0
   -2.3810   17.5550  -34.4840 C   0  0  0  0  0  0  0  0  0  0  0  0
   -3.6780   17.4340  -34.1310 N   0  0  0  0  0  0  0  0  0  0  0  0
   -4.1170   18.4940  -33.3960 C   0  0  0  0  0  0  0  0  0  0  0  0
   -5.5290   18.5740  -32.9670 C   0  0  0  0  0  0  0  0  0  0  0  0
   -6.3660   19.5670  -33.5040 C   0  0  0  0  0  0  0  0  0  0  0  0
   -7.7000   19.6630  -33.0970 C   0  0  0  0  0  0  0  0  0  0  0  0
   -8.2070   18.7790  -32.1410 C   0  0  0  0  0  0  0  0  0  0  0  0
   -9.5000   18.8750  -31.7460 F   0  0  0  0  0  0  0  0  0  0  0  0
   -7.3770   17.8020  -31.5840 C   0  0  0  0  0  0  0  0  0  0  0  0
   -6.0420   17.7030  -31.9880 C   0  0  0  0  0  0  0  0  0  0  0  0
   -3.1420   19.4800  -33.1630 C   0  0  0  0  0  0  0  0  0  0  0  0
   -3.2550   20.6920  -32.3230 C   0  0  0  0  0  0  0  0  0  0  0  0
   -4.3130   21.5920  -32.5290 C   0  0  0  0  0  0  0  0  0  0  0  0
   -4.4240   22.7440  -31.7460 C   0  0  0  0  0  0  0  0  0  0  0  0
   -3.4730   23.0170  -30.7540 C   0  0  0  0  0  0  0  0  0  0  0  0
   -3.6030   24.4770  -29.7790 S   0  0  0  0  0  0  0  0  0  0  0  0
   -4.5940   24.1410  -28.3430 C   0  0  0  0  0  0  0  0  0  0  0  0
   -2.2340   24.9290  -29.3530 O   0  0  0  0  0  0  0  0  0  0  0  0
   -4.2410   25.5720  -30.5870 O   0  0  0  0  0  0  0  0  0  0  0  0
   -2.4000   22.1360  -30.5640 C   0  0  0  0  0  0  0  0  0  0  0  0
   -2.2890   20.9840  -31.3460 C   0  0  0  0  0  0  0  0  0  0  0  0
   -1.7210   18.9940  -33.9270 S   0  0  0  0  0  0  0  0  0  0  0  0
   -1.1406   15.8436  -34.7225 H   0  0  0  0  0  0  0  0  0  0  0  0
   -2.3995   16.0501  -35.9871 H   0  0  0  0  0  0  0  0  0  0  0  0
   -0.9451   17.1043  -35.9871 H   0  0  0  0  0  0  0  0  0  0  0  0
   -5.9693   20.2727  -34.2487 H   0  0  0  0  0  0  0  0  0  0  0  0
   -8.3518   20.4360  -33.5302 H   0  0  0  0  0  0  0  0  0  0  0  0
   -7.7745   17.1101  -30.8269 H   0  0  0  0  0  0  0  0  0  0  0  0
   -5.3894   16.9403  -31.5382 H   0  0  0  0  0  0  0  0  0  0  0  0
   -5.0589   21.3889  -33.3115 H   0  0  0  0  0  0  0  0  0  0  0  0
   -5.2609   23.4390  -31.9090 H   0  0  0  0  0  0  0  0  0  0  0  0
   -4.0047   24.3408  -27.4359 H   0  0  0  0  0  0  0  0  0  0  0  0
   -5.4838   24.7877  -28.3520 H   0  0  0  0  0  0  0  0  0  0  0  0
   -4.9070   23.0865  -28.3520 H   0  0  0  0  0  0  0  0  0  0  0  0
   -1.6425   22.3524  -29.7963 H   0  0  0  0  0  0  0  0  0  0  0  0
   -1.4398   20.3012  -31.1958 H   0  0  0  0  0  0  0  0  0  0  0  0
  1  2  1  0
  2  3  2  0
  3  4  1  0
  4  5  1  0
  5  6  2  0
  6  7  1  0
  7  8  2  0
  8  9  1  0
  8 10  1  0
 10 11  2  0
  4 12  2  0
 12 13  1  0
 13 14  2  0
 14 15  1  0
 15 16  2  0
 16 17  1  0
 17 18  1  0
 17 19  2  0
 17 20  2  0
 16 21  1  0
 21 22  2  0
 12 23  1  0
 23  2  1  0
 11  5  1  0
 22 13  1  0
  1 24  1  0
  1 25  1  0
  1 26  1  0
  6 27  1  0
  7 28  1  0
 10 29  1  0
 11 30  1  0
 14 31  1  0
 15 32  1  0
 18 33  1  0
 18 34  1  0
 18 35  1  0
 21 36  1  0
 22 37  1  0
M  END
>  <UniqueID>  (49) 
47

>  <SMILES>  (49) 
Cc1nc(-c2ccc(F)cc2)c(-c2ccc(S(C)(=O)=O)cc2)s1

>  <Energy>  (49) 
73.40062451616387

>  <Genealogy>  (49) 
Cc1nc(-c2ccc(F)cc2)c(-c2ccc(S(C)(=O)=O)cc2)s1 (3D coordinates assigned)
Cc1nc(-c2ccc(F)cc2)c(-c2ccc(S(C)(=O)=O)cc2)s1 (optimized conformer: 73.40062451616387 kcal/mol)

>  <smiles>  (49) 
Cc1nc(-c2ccc(F)cc2)c(-c2ccc(S(C)(=O)=O)cc2)s1

>  <score_type>  (49) 
oracle

>  <origin>  (49) 
adgpu

>  <m_score__min__energy>  (49) 
-8.5600000000000005

>  <m_primary>  (49) 
energy

$$$$
49:0
     RDKit          3D

 41 43  0  0  0  0  0  0  0  0999 V2000
   -1.9760   23.2320  -29.4650 C   0  0  0  0  0  0  0  0  0  0  0  0
   -3.3230   23.5660  -30.0140 C   0  0  0  0  0  0  0  0  0  0  0  0
   -4.2820   22.6430  -30.2340 N   0  0  0  0  0  0  0  0  0  0  0  0
   -5.2980   23.3450  -30.7810 C   0  0  0  0  0  0  0  0  0  0  0  0
   -6.5850   22.7370  -31.2000 C   0  0  0  0  0  0  0  0  0  0  0  0
   -7.6970   23.5600  -31.4520 C   0  0  0  0  0  0  0  0  0  0  0  0
   -8.9120   23.0050  -31.8560 C   0  0  0  0  0  0  0  0  0  0  0  0
   -9.0380   21.6230  -32.0060 C   0  0  0  0  0  0  0  0  0  0  0  0
   -7.9490   20.7770  -31.7440 C   0  0  0  0  0  0  0  0  0  0  0  0
   -8.0950   19.3120  -31.9200 C   0  0  0  0  0  0  0  0  0  0  0  0
   -9.1330   18.7470  -31.4760 O   0  0  0  0  0  0  0  0  0  0  0  0
   -7.0500   18.4910  -32.5760 C   0  0  0  0  0  0  0  0  0  0  0  0
   -6.4700   18.8960  -33.7840 C   0  0  0  0  0  0  0  0  0  0  0  0
   -5.5010   18.0940  -34.3880 C   0  0  0  0  0  0  0  0  0  0  0  0
   -5.1060   16.8780  -33.7980 C   0  0  0  0  0  0  0  0  0  0  0  0
   -4.0970   16.0340  -34.4150 N   0  0  0  0  0  0  0  0  0  0  0  0
   -3.4320   16.4520  -35.6560 C   0  0  0  0  0  0  0  0  0  0  0  0
   -3.7240   14.7500  -33.8070 C   0  0  0  0  0  0  0  0  0  0  0  0
   -5.7260   16.5080  -32.5880 C   0  0  0  0  0  0  0  0  0  0  0  0
   -6.6680   17.3080  -32.0220 N   0  0  0  0  0  0  0  0  0  0  0  0
   -6.7200   21.3440  -31.3580 C   0  0  0  0  0  0  0  0  0  0  0  0
   -4.9250   24.6740  -30.8930 C   0  0  0  0  0  0  0  0  0  0  0  0
   -3.6790   24.8010  -30.4120 N   0  0  0  0  0  0  0  0  0  0  0  0
   -2.0154   23.2418  -28.3657 H   0  0  0  0  0  0  0  0  0  0  0  0
   -1.6761   22.2323  -29.8123 H   0  0  0  0  0  0  0  0  0  0  0  0
   -1.2438   23.9758  -29.8123 H   0  0  0  0  0  0  0  0  0  0  0  0
   -7.6085   24.6496  -31.3297 H   0  0  0  0  0  0  0  0  0  0  0  0
   -9.7734   23.6589  -32.0569 H   0  0  0  0  0  0  0  0  0  0  0  0
   -9.9971   21.1940  -32.3317 H   0  0  0  0  0  0  0  0  0  0  0  0
   -6.7766   19.8417  -34.2547 H   0  0  0  0  0  0  0  0  0  0  0  0
   -5.0411   18.4148  -35.3344 H   0  0  0  0  0  0  0  0  0  0  0  0
   -2.5241   17.0227  -35.4112 H   0  0  0  0  0  0  0  0  0  0  0  0
   -3.1590   15.5628  -36.2431 H   0  0  0  0  0  0  0  0  0  0  0  0
   -4.1149   17.0836  -36.2431 H   0  0  0  0  0  0  0  0  0  0  0  0
   -3.7506   14.8417  -32.7112 H   0  0  0  0  0  0  0  0  0  0  0  0
   -4.4335   13.9728  -34.1273 H   0  0  0  0  0  0  0  0  0  0  0  0
   -2.7085   14.4739  -34.1273 H   0  0  0  0  0  0  0  0  0  0  0  0
   -5.4455   15.5642  -32.0975 H   0  0  0  0  0  0  0  0  0  0  0  0
   -5.8536   20.6907  -31.1774 H   0  0  0  0  0  0  0  0  0  0  0  0
   -5.5433   25.4851  -31.3050 H   0  0  0  0  0  0  0  0  0  0  0  0
   -3.1070   25.6730  -30.3700 H   0  0  0  0  0  0  0  0  0  0  0  0
  1  2  1  0
  2  3  2  0
  3  4  1  0
  4  5  1  0
  5  6  2  0
  6  7  1  0
  7  8  2  0
  8  9  1  0
  9 10  1  0
 10 11  2  0
 10 12  1  0
 12 13  2  0
 13 14  1  0
 14 15  2  0
 15 16  1  0
 16 17  1  0
 16 18  1  0
 15 19  1  0
 19 20  2  0
  9 21  2  0
  4 22  2  0
 22 23  1  0
 23  2  1  0
 21  5  1  0
 20 12  1  0
  1 24  1  0
  1 25  1  0
  1 26  1  0
  6 27  1  0
  7 28  1  0
  8 29  1  0
 13 30  1  0
 14 31  1  0
 17 32  1  0
 17 33  1  0
 17 34  1  0
 18 35  1  0
 18 36  1  0
 18 37  1  0
 19 38  1  0
 21 39  1  0
 22 40  1  0
 23 41  1  0
M  END
>  <UniqueID>  (50) 
48

>  <SMILES>  (50) 
Cc1nc(-c2cccc(C(=O)c3ccc(N(C)C)cn3)c2)c[nH]1

>  <Energy>  (50) 
78.40009342539166

>  <Genealogy>  (50) 
Cc1nc(-c2cccc(C(=O)c3ccc(N(C)C)cn3)c2)c[nH]1 (3D coordinates assigned)
Cc1nc(-c2cccc(C(=O)c3ccc(N(C)C)cn3)c2)c[nH]1 (optimized conformer: 78.40009342539166 kcal/mol)

>  <smiles>  (50) 
Cc1nc(-c2cccc(C(=O)c3ccc(N(C)C)cn3)c2)c[nH]1

>  <score_type>  (50) 
oracle

>  <origin>  (50) 
adgpu

>  <m_score__min__energy>  (50) 
-8.2400000000000002

>  <m_primary>  (50) 
energy

$$$$
