0:0
     RDKit          3D

 50 52  0  0  0  0  0  0  0  0999 V2000
   -9.6660   21.2540  -31.8850 C   0  0  0  0  0  0  0  0  0  0  0  0
   -8.5710   20.2750  -32.1810 C   0  0  0  0  0  0  0  0  0  0  0  0
   -7.5660   20.6040  -33.1030 C   0  0  0  0  0  0  0  0  0  0  0  0
   -6.5580   19.6830  -33.4040 C   0  0  0  0  0  0  0  0  0  0  0  0
   -6.5490   18.4220  -32.7950 C   0  0  0  0  0  0  0  0  0  0  0  0
   -5.2970   17.2540  -33.2210 S   0  0  0  0  0  0  0  0  0  0  0  0
   -5.2790   16.1590  -32.1910 O   0  0  0  0  0  0  0  0  0  0  0  0
   -5.5930   16.6440  -34.5630 O   0  0  0  0  0  0  0  0  0  0  0  0
   -3.7400   18.0250  -33.2680 N   0  0  0  0  0  0  0  0  0  0  0  0
   -3.1370   17.8180  -34.5860 C   0  0  0  0  0  0  0  0  0  0  0  0
   -1.6280   18.0470  -34.5210 C   0  0  0  0  0  0  0  0  0  0  0  0
   -1.2280   19.8330  -34.5120 S   0  0  0  0  0  0  0  0  0  0  0  0
   -0.9940   19.9390  -32.7350 C   0  0  0  0  0  0  0  0  0  0  0  0
    0.1490   19.5930  -32.1150 N   0  0  0  0  0  0  0  0  0  0  0  0
   -0.0010   19.8020  -30.8140 N   0  0  0  0  0  0  0  0  0  0  0  0
   -1.2370   20.2940  -30.6000 C   0  0  0  0  0  0  0  0  0  0  0  0
   -1.7510   20.6600  -29.2460 C   0  0  0  0  0  0  0  0  0  0  0  0
   -1.9090   20.3890  -31.8050 C   0  0  0  0  0  0  0  0  0  0  0  0
   -3.4990   21.0870  -32.1200 S   0  0  0  0  0  0  0  0  0  0  0  0
   -4.5530   20.2370  -31.4680 O   0  0  0  0  0  0  0  0  0  0  0  0
   -3.7250   21.1310  -33.6050 O   0  0  0  0  0  0  0  0  0  0  0  0
   -3.5880   22.6950  -31.4770 N   0  0  0  0  0  0  0  0  0  0  0  0
   -4.7930   23.3650  -31.0830 C   0  0  0  0  0  0  0  0  0  0  0  0
   -6.0560   22.7510  -31.1840 C   0  0  0  0  0  0  0  0  0  0  0  0
   -7.2040   23.4280  -30.7620 C   0  0  0  0  0  0  0  0  0  0  0  0
   -7.1050   24.7200  -30.2400 C   0  0  0  0  0  0  0  0  0  0  0  0
   -5.8570   25.3400  -30.1430 C   0  0  0  0  0  0  0  0  0  0  0  0
   -4.7040   24.6680  -30.5660 C   0  0  0  0  0  0  0  0  0  0  0  0
   -3.4710   25.3010  -30.4720 O   0  0  0  0  0  0  0  0  0  0  0  0
   -7.5670   18.0810  -31.8950 C   0  0  0  0  0  0  0  0  0  0  0  0
   -8.5730   19.0030  -31.5900 C   0  0  0  0  0  0  0  0  0  0  0  0
   -9.7812   21.3570  -30.7959 H   0  0  0  0  0  0  0  0  0  0  0  0
   -9.4117   22.2314  -32.3209 H   0  0  0  0  0  0  0  0  0  0  0  0
  -10.6090   20.8923  -32.3209 H   0  0  0  0  0  0  0  0  0  0  0  0
   -7.5711   21.5899  -33.5908 H   0  0  0  0  0  0  0  0  0  0  0  0
   -5.7687   19.9500  -34.1222 H   0  0  0  0  0  0  0  0  0  0  0  0
   -3.9080   19.0500  -33.1450 H   0  0  0  0  0  0  0  0  0  0  0  0
   -3.3337   16.7876  -34.9172 H   0  0  0  0  0  0  0  0  0  0  0  0
   -3.5769   18.5330  -35.2968 H   0  0  0  0  0  0  0  0  0  0  0  0
   -1.2347   17.5868  -33.6026 H   0  0  0  0  0  0  0  0  0  0  0  0
   -1.1685   17.5921  -35.4109 H   0  0  0  0  0  0  0  0  0  0  0  0
   -1.1114   20.2046  -28.4756 H   0  0  0  0  0  0  0  0  0  0  0  0
   -1.7391   21.7541  -29.1327 H   0  0  0  0  0  0  0  0  0  0  0  0
   -2.7810   20.2908  -29.1327 H   0  0  0  0  0  0  0  0  0  0  0  0
   -6.1398   21.7347  -31.5965 H   0  0  0  0  0  0  0  0  0  0  0  0
   -8.1877   22.9422  -30.8412 H   0  0  0  0  0  0  0  0  0  0  0  0
   -8.0096   25.2490  -29.9054 H   0  0  0  0  0  0  0  0  0  0  0  0
   -5.7801   26.3580  -29.7335 H   0  0  0  0  0  0  0  0  0  0  0  0
   -7.5749   17.0855  -31.4271 H   0  0  0  0  0  0  0  0  0  0  0  0
   -9.3700   18.7294  -30.8830 H   0  0  0  0  0  0  0  0  0  0  0  0
  1  2  1  0
  2  3  2  0
  3  4  1  0
  4  5  2  0
  5  6  1  0
  6  7  2  0
  6  8  2  0
  6  9  1  0
  9 10  1  0
 10 11  1  0
 11 12  1  0
 12 13  1  0
 13 14  2  0
 14 15  1  0
 15 16  1  0
 16 17  1  0
 16 18  2  0
 18 19  1  0
 19 20  2  0
 19 21  2  0
 19 22  1  0
 22 23  1  0
 23 24  2  0
 24 25  1  0
 25 26  2  0
 26 27  1  0
 27 28  2  0
 28 29  1  0
  5 30  1  0
 30 31  2  0
 31  2  1  0
 18 13  1  0
 28 23  1  0
  1 32  1  0
  1 33  1  0
  1 34  1  0
  3 35  1  0
  4 36  1  0
  9 37  1  0
 10 38  1  0
 10 39  1  0
 11 40  1  0
 11 41  1  0
 17 42  1  0
 17 43  1  0
 17 44  1  0
 24 45  1  0
 25 46  1  0
 26 47  1  0
 27 48  1  0
 30 49  1  0
 31 50  1  0
M  CHG  3  15  -1  22  -1  29  -1
M  END
>  <UniqueID>  (1) 
1

>  <SMILES>  (1) 
Cc1ccc(S(=O)(=O)NCCSc2n[n-]c(C)c2S(=O)(=O)[N-]c2ccccc2[O-])cc1

>  <Energy>  (1) 
72.03844202190193

>  <Genealogy>  (1) 
Cc1ccc(S(=O)(=O)NCCSc2n[n-]c(C)c2S(=O)(=O)[N-]c2ccccc2[O-])cc1 (protonated)
Cc1ccc(S(=O)(=O)NCCSc2n[n-]c(C)c2S(=O)(=O)[N-]c2ccccc2[O-])cc1 (3D coordinates assigned)
Cc1ccc(S(=O)(=O)NCCSc2n[n-]c(C)c2S(=O)(=O)[N-]c2ccccc2[O-])cc1 (optimized conformer: 72.03844202190193 kcal/mol)

>  <smiles>  (1) 
Cc1ccc(S(=O)(=O)NCCSc2n[nH]c(C)c2S(=O)(=O)Nc2ccccc2O)cc1

>  <score_type>  (1) 
oracle

>  <origin>  (1) 
adgpu

>  <m_score__min__energy>  (1) 
-13.76

>  <m_primary>  (1) 
energy

$$$$
1:0
     RDKit          3D

 61 64  0  0  0  0  0  0  0  0999 V2000
   -4.3420   25.1677  -27.6079 H   0  0  0  0  0  0  0  0  0  0  0  0
   -3.5480   24.5110  -27.9930 C   0  0  0  0  0  0  0  0  0  0  0  0
   -2.9300   24.8890  -29.2790 C   0  0  0  0  0  0  0  0  0  0  0  0
   -1.7510   25.3290  -29.3320 O   0  0  0  0  0  0  0  0  0  0  0  0
   -3.7370   24.8570  -30.4620 N   0  0  0  0  0  0  0  0  0  0  0  0
   -4.3810   23.6930  -30.9950 C   0  0  0  0  0  0  0  0  0  0  0  0
   -5.6610   23.7580  -31.5730 C   0  0  0  0  0  0  0  0  0  0  0  0
   -6.1883   24.7216  -31.6318 H   0  0  0  0  0  0  0  0  0  0  0  0
   -6.2650   22.6010  -32.0730 C   0  0  0  0  0  0  0  0  0  0  0  0
   -7.2706   22.6585  -32.5151 H   0  0  0  0  0  0  0  0  0  0  0  0
   -5.6000   21.3670  -32.0160 C   0  0  0  0  0  0  0  0  0  0  0  0
   -6.2720   20.1720  -32.4590 N   0  0  0  0  0  0  0  0  0  0  0  0
   -6.2580   18.9690  -31.6150 C   0  0  0  0  0  0  0  0  0  0  0  0
   -7.2355   18.8583  -31.1229 H   0  0  0  0  0  0  0  0  0  0  0  0
   -5.4671   19.0697  -30.8571 H   0  0  0  0  0  0  0  0  0  0  0  0
   -5.9770   17.7250  -32.4740 C   0  0  0  0  0  0  0  0  0  0  0  0
   -6.9285   17.2543  -32.7623 H   0  0  0  0  0  0  0  0  0  0  0  0
   -5.3760   17.0060  -31.8980 H   0  0  0  0  0  0  0  0  0  0  0  0
   -5.2380   18.1300  -33.6880 N   0  0  0  0  0  0  0  0  0  0  0  0
   -4.6380   16.9790  -34.3870 C   0  0  0  0  0  0  0  0  0  0  0  0
   -5.0237   16.9357  -35.4162 H   0  0  0  0  0  0  0  0  0  0  0  0
   -4.9000   16.0539  -33.8527 H   0  0  0  0  0  0  0  0  0  0  0  0
   -3.1380   17.1250  -34.4210 C   0  0  0  0  0  0  0  0  0  0  0  0
   -2.4640   16.2600  -35.0340 O   0  0  0  0  0  0  0  0  0  0  0  0
   -2.4420   18.2400  -33.7280 C   0  0  0  0  0  0  0  0  0  0  0  0
   -2.5760   19.5550  -34.2050 C   0  0  0  0  0  0  0  0  0  0  0  0
   -3.2400   19.7595  -35.0578 H   0  0  0  0  0  0  0  0  0  0  0  0
   -1.8730   20.6080  -33.6060 C   0  0  0  0  0  0  0  0  0  0  0  0
   -1.9854   21.6314  -33.9935 H   0  0  0  0  0  0  0  0  0  0  0  0
   -1.0260   20.3640  -32.5140 C   0  0  0  0  0  0  0  0  0  0  0  0
   -0.2280   21.4740  -31.9020 C   0  0  0  0  0  0  0  0  0  0  0  0
   -0.2800   21.4017  -30.8056 H   0  0  0  0  0  0  0  0  0  0  0  0
    0.8203   21.3935  -32.2255 H   0  0  0  0  0  0  0  0  0  0  0  0
   -0.6382   22.4420  -32.2255 H   0  0  0  0  0  0  0  0  0  0  0  0
   -0.8930   19.0560  -32.0310 C   0  0  0  0  0  0  0  0  0  0  0  0
   -0.2235   18.8532  -31.1821 H   0  0  0  0  0  0  0  0  0  0  0  0
   -1.6040   18.0070  -32.6190 C   0  0  0  0  0  0  0  0  0  0  0  0
   -1.5089   16.9893  -32.2125 H   0  0  0  0  0  0  0  0  0  0  0  0
   -6.1110   18.9200  -34.5850 C   0  0  0  0  0  0  0  0  0  0  0  0
   -6.8665   18.2542  -35.0277 H   0  0  0  0  0  0  0  0  0  0  0  0
   -5.4856   19.3732  -35.3683 H   0  0  0  0  0  0  0  0  0  0  0  0
   -6.8270   20.0530  -33.8150 C   0  0  0  0  0  0  0  0  0  0  0  0
   -7.9013   19.8259  -33.7497 H   0  0  0  0  0  0  0  0  0  0  0  0
   -6.6767   21.0024  -34.3499 H   0  0  0  0  0  0  0  0  0  0  0  0
   -4.3070   21.3110  -31.4580 C   0  0  0  0  0  0  0  0  0  0  0  0
   -3.6520   20.1300  -31.3330 F   0  0  0  0  0  0  0  0  0  0  0  0
   -3.7020   22.4710  -30.9680 C   0  0  0  0  0  0  0  0  0  0  0  0
   -2.6827   22.4226  -30.5574 H   0  0  0  0  0  0  0  0  0  0  0  0
   -3.2290   23.4370  -27.2490 C   0  0  0  0  0  0  0  0  0  0  0  0
   -3.6797   23.3650  -26.2481 H   0  0  0  0  0  0  0  0  0  0  0  0
   -2.3220   22.3440  -27.6650 C   0  0  0  0  0  0  0  0  0  0  0  0
   -0.9660   22.5930  -27.9540 C   0  0  0  0  0  0  0  0  0  0  0  0
   -0.5584   23.6082  -27.8393 H   0  0  0  0  0  0  0  0  0  0  0  0
   -0.1350   21.5520  -28.3870 C   0  0  0  0  0  0  0  0  0  0  0  0
    0.9280   21.7461  -28.5926 H   0  0  0  0  0  0  0  0  0  0  0  0
   -0.6570   20.2650  -28.5580 C   0  0  0  0  0  0  0  0  0  0  0  0
   -0.0018   19.4470  -28.8919 H   0  0  0  0  0  0  0  0  0  0  0  0
   -2.0120   20.0160  -28.3050 C   0  0  0  0  0  0  0  0  0  0  0  0
   -2.4218   19.0053  -28.4482 H   0  0  0  0  0  0  0  0  0  0  0  0
   -2.8460   21.0560  -27.8690 C   0  0  0  0  0  0  0  0  0  0  0  0
   -3.9134   20.8629  -27.6862 H   0  0  0  0  0  0  0  0  0  0  0  0
  1  2  1  0
  2  3  1  0
  3  4  2  0
  3  5  1  0
  5  6  1  0
  6  7  2  0
  7  8  1  0
  7  9  1  0
  9 10  1  0
  9 11  2  0
 11 12  1  0
 12 13  1  0
 13 14  1  0
 13 15  1  0
 13 16  1  0
 16 17  1  0
 16 18  1  0
 16 19  1  0
 19 20  1  0
 20 21  1  0
 20 22  1  0
 20 23  1  0
 23 24  2  0
 23 25  1  0
 25 26  2  0
 26 27  1  0
 26 28  1  0
 28 29  1  0
 28 30  2  0
 30 31  1  0
 31 32  1  0
 31 33  1  0
 31 34  1  0
 30 35  1  0
 35 36  1  0
 35 37  2  0
 37 38  1  0
 19 39  1  0
 39 40  1  0
 39 41  1  0
 39 42  1  0
 42 43  1  0
 42 44  1  0
 11 45  1  0
 45 46  1  0
 45 47  2  0
 47 48  1  0
  2 49  2  0
 49 50  1  0
 49 51  1  0
 51 52  2  0
 52 53  1  0
 52 54  1  0
 54 55  1  0
 54 56  2  0
 56 57  1  0
 56 58  1  0
 58 59  1  0
 58 60  2  0
 60 61  1  0
 47  6  1  0
 60 51  1  0
 42 12  1  0
 37 25  1  0
M  CHG  1   5  -1
M  END
>  <UniqueID>  (2) 
2

>  <SMILES>  (2) 
Cc1ccc(C(=O)CN2CCN(c3ccc([N-]C(=O)/C=C\c4ccccc4)cc3F)CC2)cc1

>  <Energy>  (2) 
86.63847628411732

>  <Genealogy>  (2) 
Cc1ccc(C(=O)CN2CCN(c3ccc([N-]C(=O)C=Cc4ccccc4)cc3F)CC2)cc1 (protonated)
Cc1ccc(C(=O)CN2CCN(c3ccc([N-]C(=O)/C=C\c4ccccc4)cc3F)CC2)cc1 (cis-trans isomerization)
Cc1ccc(C(=O)CN2CCN(c3ccc([N-]C(=O)/C=C\c4ccccc4)cc3F)CC2)cc1 (3D coordinates assigned)
Cc1ccc(C(=O)CN2CCN(c3ccc([N-]C(=O)/C=C\c4ccccc4)cc3F)CC2)cc1 (nonaromatic ring conformer: 86.63847628411732 kcal/mol)

>  <smiles>  (2) 
Cc1ccc(C(=O)CN2CCN(c3ccc(NC(=O)C=Cc4ccccc4)cc3F)CC2)cc1

>  <score_type>  (2) 
oracle

>  <origin>  (2) 
adgpu

>  <m_score__min__energy>  (2) 
-10.91

>  <m_primary>  (2) 
energy

$$$$
2:0
     RDKit          3D

 54 56  0  0  0  0  0  0  0  0999 V2000
   -7.9250   23.4100  -31.5300 C   0  0  0  0  0  0  0  0  0  0  0  0
   -6.4950   23.7430  -31.2210 C   0  0  0  0  0  0  0  0  0  0  0  0
   -6.1480   25.0250  -30.7760 C   0  0  0  0  0  0  0  0  0  0  0  0
   -4.8180   25.3070  -30.4700 C   0  0  0  0  0  0  0  0  0  0  0  0
   -3.8700   24.3410  -30.5950 N   0  0  0  0  0  0  0  0  0  0  0  0
   -4.1670   23.0760  -31.0070 C   0  0  0  0  0  0  0  0  0  0  0  0
   -3.1090   22.0980  -31.1320 N   0  0  0  0  0  0  0  0  0  0  0  0
   -2.5380   21.4620  -29.9370 C   0  0  0  0  0  0  0  0  0  0  0  0
   -2.5450   21.7890  -32.4580 C   0  0  0  0  0  0  0  0  0  0  0  0
   -3.5700   21.0880  -33.3530 C   0  0  0  0  0  0  0  0  0  0  0  0
   -3.9060   19.8120  -32.8170 O   0  0  0  0  0  0  0  0  0  0  0  0
   -3.2180   18.6410  -33.1550 C   0  0  0  0  0  0  0  0  0  0  0  0
   -1.8880   18.5250  -32.8810 N   0  0  0  0  0  0  0  0  0  0  0  0
   -1.1910   17.3940  -33.1640 C   0  0  0  0  0  0  0  0  0  0  0  0
   -1.8370   16.3030  -33.7420 C   0  0  0  0  0  0  0  0  0  0  0  0
   -3.1970   16.3920  -34.0400 C   0  0  0  0  0  0  0  0  0  0  0  0
   -3.9020   17.5750  -33.7690 C   0  0  0  0  0  0  0  0  0  0  0  0
   -5.6210   17.7210  -34.1710 S   0  0  0  0  0  0  0  0  0  0  0  0
   -6.2190   16.3440  -34.2680 O   0  0  0  0  0  0  0  0  0  0  0  0
   -5.7400   18.4030  -35.5070 O   0  0  0  0  0  0  0  0  0  0  0  0
   -6.5100   18.6310  -32.9710 N   0  0  0  0  0  0  0  0  0  0  0  0
   -7.6070   17.8080  -32.4220 C   0  0  0  0  0  0  0  0  0  0  0  0
   -8.2890   18.5130  -31.2300 C   0  0  0  0  0  0  0  0  0  0  0  0
   -8.1820   20.0450  -31.3080 C   0  0  0  0  0  0  0  0  0  0  0  0
   -8.1770   20.5250  -32.7620 C   0  0  0  0  0  0  0  0  0  0  0  0
   -7.0270   19.8840  -33.5750 C   0  0  0  0  0  0  0  0  0  0  0  0
   -5.5030   22.7580  -31.3190 C   0  0  0  0  0  0  0  0  0  0  0  0
   -8.4825   23.2802  -30.5907 H   0  0  0  0  0  0  0  0  0  0  0  0
   -8.3742   24.2276  -32.1129 H   0  0  0  0  0  0  0  0  0  0  0  0
   -7.9668   22.4781  -32.1129 H   0  0  0  0  0  0  0  0  0  0  0  0
   -6.9187   25.8025  -30.6690 H   0  0  0  0  0  0  0  0  0  0  0  0
   -4.5349   26.3130  -30.1267 H   0  0  0  0  0  0  0  0  0  0  0  0
   -2.9590   21.9310  -29.0354 H   0  0  0  0  0  0  0  0  0  0  0  0
   -2.7820   20.3894  -29.9404 H   0  0  0  0  0  0  0  0  0  0  0  0
   -1.4454   21.5894  -29.9404 H   0  0  0  0  0  0  0  0  0  0  0  0
   -2.2309   22.7264  -32.9403 H   0  0  0  0  0  0  0  0  0  0  0  0
   -1.6877   21.1138  -32.3200 H   0  0  0  0  0  0  0  0  0  0  0  0
   -4.4783   21.7052  -33.4163 H   0  0  0  0  0  0  0  0  0  0  0  0
   -3.1356   20.9515  -34.3543 H   0  0  0  0  0  0  0  0  0  0  0  0
   -0.1161   17.3393  -32.9368 H   0  0  0  0  0  0  0  0  0  0  0  0
   -1.2799   15.3802  -33.9613 H   0  0  0  0  0  0  0  0  0  0  0  0
   -3.7179   15.5331  -34.4883 H   0  0  0  0  0  0  0  0  0  0  0  0
   -5.8430   18.8840  -32.2050 H   0  0  0  0  0  0  0  0  0  0  0  0
   -8.3536   17.6327  -33.2105 H   0  0  0  0  0  0  0  0  0  0  0  0
   -7.1855   16.8551  -32.0692 H   0  0  0  0  0  0  0  0  0  0  0  0
   -9.3531   18.2345  -31.2180 H   0  0  0  0  0  0  0  0  0  0  0  0
   -7.7742   18.1897  -30.3132 H   0  0  0  0  0  0  0  0  0  0  0  0
   -9.0405   20.4920  -30.7853 H   0  0  0  0  0  0  0  0  0  0  0  0
   -7.2377   20.3533  -30.8355 H   0  0  0  0  0  0  0  0  0  0  0  0
   -9.1360   20.2562  -33.2290 H   0  0  0  0  0  0  0  0  0  0  0  0
   -8.0291   21.6150  -32.7616 H   0  0  0  0  0  0  0  0  0  0  0  0
   -7.3976   19.6576  -34.5856 H   0  0  0  0  0  0  0  0  0  0  0  0
   -6.1968   20.6055  -33.5905 H   0  0  0  0  0  0  0  0  0  0  0  0
   -5.7671   21.7392  -31.6388 H   0  0  0  0  0  0  0  0  0  0  0  0
  1  2  1  0
  2  3  2  0
  3  4  1  0
  4  5  2  0
  5  6  1  0
  6  7  1  0
  7  8  1  0
  7  9  1  0
  9 10  1  0
 10 11  1  0
 11 12  1  0
 12 13  2  0
 13 14  1  0
 14 15  2  0
 15 16  1  0
 16 17  2  0
 17 18  1  0
 18 19  2  0
 18 20  2  0
 18 21  1  0
 21 22  1  0
 22 23  1  0
 23 24  1  0
 24 25  1  0
 25 26  1  0
  6 27  2  0
 27  2  1  0
 17 12  1  0
 26 21  1  0
  1 28  1  0
  1 29  1  0
  1 30  1  0
  3 31  1  0
  4 32  1  0
  8 33  1  0
  8 34  1  0
  8 35  1  0
  9 36  1  0
  9 37  1  0
 10 38  1  0
 10 39  1  0
 14 40  1  0
 15 41  1  0
 16 42  1  0
 21 43  1  0
 22 44  1  0
 22 45  1  0
 23 46  1  0
 23 47  1  0
 24 48  1  0
 24 49  1  0
 25 50  1  0
 25 51  1  0
 26 52  1  0
 26 53  1  0
 27 54  1  0
M  CHG  1  21   1
M  END
>  <UniqueID>  (3) 
3

>  <SMILES>  (3) 
Cc1ccnc(N(C)CCOc2ncccc2S(=O)(=O)[NH+]2CCCCC2)c1

>  <Energy>  (3) 
54.87250061651034

>  <Genealogy>  (3) 
Cc1ccnc(N(C)CCOc2ncccc2S(=O)(=O)[NH+]2CCCCC2)c1 (protonated)
Cc1ccnc(N(C)CCOc2ncccc2S(=O)(=O)[NH+]2CCCCC2)c1 (3D coordinates assigned)
Cc1ccnc(N(C)CCOc2ncccc2S(=O)(=O)[NH+]2CCCCC2)c1 (nonaromatic ring conformer: 54.87250061651034 kcal/mol)

>  <smiles>  (3) 
Cc1ccnc(N(C)CCOc2ncccc2S(=O)(=O)N2CCCCC2)c1

>  <score_type>  (3) 
oracle

>  <origin>  (3) 
adgpu

>  <m_score__min__energy>  (3) 
-7.6600000000000001

>  <m_primary>  (3) 
energy

$$$$
3:0
     RDKit          3D

 52 56  0  0  0  0  0  0  0  0999 V2000
   -3.4020   25.6460  -27.0550 H   0  0  0  0  0  0  0  0  0  0  0  0
   -3.7570   24.7060  -27.1900 O   0  0  0  0  0  0  0  0  0  0  0  0
   -4.1600   24.2560  -28.4480 C   0  0  0  0  0  0  0  0  0  0  0  0
   -5.3450   23.5240  -28.5940 C   0  0  0  0  0  0  0  0  0  0  0  0
   -5.9586   23.2990  -27.7092 H   0  0  0  0  0  0  0  0  0  0  0  0
   -5.7580   23.0740  -29.8600 C   0  0  0  0  0  0  0  0  0  0  0  0
   -4.9430   23.3170  -30.9920 C   0  0  0  0  0  0  0  0  0  0  0  0
   -3.7690   24.0800  -30.8320 C   0  0  0  0  0  0  0  0  0  0  0  0
   -3.1515   24.3167  -31.7110 H   0  0  0  0  0  0  0  0  0  0  0  0
   -3.3790   24.5400  -29.5710 C   0  0  0  0  0  0  0  0  0  0  0  0
   -2.2080   25.2790  -29.4380 O   0  0  0  0  0  0  0  0  0  0  0  0
   -5.2920   22.7900  -32.3880 C   0  0  1  0  0  0  0  0  0  0  0  0
   -5.3643   23.6381  -33.0847 H   0  0  0  0  0  0  0  0  0  0  0  0
   -4.1100   21.9030  -32.9420 C   0  0  0  0  0  0  0  0  0  0  0  0
   -3.4062   21.7414  -32.1122 H   0  0  0  0  0  0  0  0  0  0  0  0
   -3.7185   22.4723  -33.7979 H   0  0  0  0  0  0  0  0  0  0  0  0
   -4.4530   20.5210  -33.5260 C   0  0  0  0  0  0  0  0  0  0  0  0
   -3.5632   19.8771  -33.4658 H   0  0  0  0  0  0  0  0  0  0  0  0
   -4.7690   20.6576  -34.5707 H   0  0  0  0  0  0  0  0  0  0  0  0
   -5.6030   19.8540  -32.7600 C   0  0  2  0  0  0  0  0  0  0  0  0
   -5.2200   19.6480  -31.2640 C   0  0  0  0  0  0  0  0  0  0  0  0
   -6.0069   20.0712  -30.6224 H   0  0  0  0  0  0  0  0  0  0  0  0
   -5.1168   18.5727  -31.0567 H   0  0  0  0  0  0  0  0  0  0  0  0
   -4.2659   20.1546  -31.0567 H   0  0  0  0  0  0  0  0  0  0  0  0
   -6.0830   18.5170  -33.3820 C   0  0  1  0  0  0  0  0  0  0  0  0
   -5.9500   18.5170  -34.4739 H   0  0  0  0  0  0  0  0  0  0  0  0
   -5.2540   17.3090  -33.0080 C   0  0  0  0  0  0  0  0  0  0  0  0
   -5.4830   16.7380  -31.9050 O   0  0  0  0  0  0  0  0  0  0  0  0
   -4.2760   16.7880  -33.9220 N   0  0  0  0  0  0  0  0  0  0  0  0
   -3.0330   17.1500  -34.0470 C   0  0  0  0  0  0  0  0  0  0  0  0
   -2.2130   16.5780  -34.9540 N   0  0  0  0  0  0  0  0  0  0  0  0
   -0.9560   17.0950  -34.8940 C   0  0  0  0  0  0  0  0  0  0  0  0
   -0.1469   16.7539  -35.5566 H   0  0  0  0  0  0  0  0  0  0  0  0
   -0.7660   18.0850  -33.9360 C   0  0  0  0  0  0  0  0  0  0  0  0
    0.1737   18.6215  -33.7382 H   0  0  0  0  0  0  0  0  0  0  0  0
   -2.2250   18.3180  -33.1330 S   0  0  0  0  0  0  0  0  0  0  0  0
   -7.5810   18.4190  -32.9990 C   0  0  0  0  0  0  0  0  0  0  0  0
   -7.7135   17.7199  -32.1602 H   0  0  0  0  0  0  0  0  0  0  0  0
   -8.1826   18.0459  -33.8409 H   0  0  0  0  0  0  0  0  0  0  0  0
   -8.0210   19.8330  -32.5860 C   0  0  0  0  0  0  0  0  0  0  0  0
   -8.2029   19.8839  -31.5023 H   0  0  0  0  0  0  0  0  0  0  0  0
   -8.9604   20.1396  -33.0692 H   0  0  0  0  0  0  0  0  0  0  0  0
   -6.8430   20.7230  -32.9800 C   0  0  1  0  0  0  0  0  0  0  0  0
   -6.9838   21.0193  -34.0300 H   0  0  0  0  0  0  0  0  0  0  0  0
   -6.7580   22.2090  -32.5130 C   0  0  1  0  0  0  0  0  0  0  0  0
   -7.1917   22.7374  -33.3748 H   0  0  0  0  0  0  0  0  0  0  0  0
   -7.6900   22.6070  -31.3470 C   0  0  0  0  0  0  0  0  0  0  0  0
   -8.6220   22.0282  -31.4272 H   0  0  0  0  0  0  0  0  0  0  0  0
   -7.8772   23.6883  -31.4233 H   0  0  0  0  0  0  0  0  0  0  0  0
   -7.0660   22.3410  -29.9840 C   0  0  0  0  0  0  0  0  0  0  0  0
   -6.8898   21.2613  -29.8694 H   0  0  0  0  0  0  0  0  0  0  0  0
   -7.7516   22.6947  -29.1999 H   0  0  0  0  0  0  0  0  0  0  0  0
  1  2  1  0
  2  3  1  0
  3  4  2  0
  4  5  1  0
  4  6  1  0
  6  7  2  0
  7  8  1  0
  8  9  1  0
  8 10  2  0
 10 11  1  0
  7 12  1  0
 12 13  1  6
 12 14  1  0
 14 15  1  0
 14 16  1  0
 14 17  1  0
 17 18  1  0
 17 19  1  0
 17 20  1  0
 20 21  1  1
 21 22  1  0
 21 23  1  0
 21 24  1  0
 20 25  1  0
 25 26  1  6
 25 27  1  0
 27 28  2  0
 27 29  1  0
 29 30  2  0
 30 31  1  0
 31 32  1  0
 32 33  1  0
 32 34  2  0
 34 35  1  0
 34 36  1  0
 25 37  1  0
 37 38  1  0
 37 39  1  0
 37 40  1  0
 40 41  1  0
 40 42  1  0
 40 43  1  0
 43 44  1  6
 43 45  1  0
 45 46  1  6
 45 47  1  0
 47 48  1  0
 47 49  1  0
 47 50  1  0
 50 51  1  0
 50 52  1  0
 10  3  1  0
 45 12  1  0
 50  6  1  0
 43 20  1  0
 36 30  1  0
M  CHG  2  11  -1  31  -1
M  END
>  <UniqueID>  (4) 
4

>  <SMILES>  (4) 
C[C@]12CC[C@@H]3c4cc([O-])c(O)cc4CCC3C1CCC2C(=O)/N=c1/[n-]ccs1

>  <Energy>  (4) 
127.73917129940494

>  <Genealogy>  (4) 
CC12CCC3c4cc([O-])c(O)cc4CCC3C1CCC2C(=O)N=c1[n-]ccs1 (protonated)
C[C@]12CC[C@@H]3c4cc([O-])c(O)cc4CCC3C1CCC2C(=O)N=c1[n-]ccs1 (chirality)
C[C@]12CC[C@@H]3c4cc([O-])c(O)cc4CCC3C1CCC2C(=O)/N=c1/[n-]ccs1 (cis-trans isomerization)
C[C@]12CC[C@@H]3c4cc([O-])c(O)cc4CCC3C1CCC2C(=O)/N=c1/[n-]ccs1 (3D coordinates assigned)
C[C@]12CC[C@@H]3c4cc([O-])c(O)cc4CCC3C1CCC2C(=O)/N=c1/[n-]ccs1 (nonaromatic ring conformer: 127.73917129940494 kcal/mol)

>  <smiles>  (4) 
CC12CCC3c4cc(O)c(O)cc4CCC3C1CCC2C(=O)N=c1[nH]ccs1

>  <score_type>  (4) 
oracle

>  <origin>  (4) 
adgpu

>  <m_score__min__energy>  (4) 
-11.449999999999999

>  <m_primary>  (4) 
energy

$$$$
4:0
     RDKit          3D

 43 45  0  0  0  0  0  0  0  0999 V2000
    1.6330   25.1680  -25.1070 C   0  0  0  0  0  0  0  0  0  0  0  0
    0.3220   24.8090  -25.6600 N   0  0  0  0  0  0  0  0  0  0  0  0
   -0.8270   24.6170  -24.7690 C   0  0  0  0  0  0  0  0  0  0  0  0
    0.1740   24.6570  -27.0890 C   0  0  0  0  0  0  0  0  0  0  0  0
    1.1380   24.9270  -27.8580 O   0  0  0  0  0  0  0  0  0  0  0  0
   -1.0900   24.1880  -27.6880 C   0  0  0  0  0  0  0  0  0  0  0  0
   -1.7350   23.0790  -27.1200 C   0  0  0  0  0  0  0  0  0  0  0  0
   -2.9390   22.6180  -27.6500 C   0  0  0  0  0  0  0  0  0  0  0  0
   -3.5090   23.2580  -28.7520 C   0  0  0  0  0  0  0  0  0  0  0  0
   -2.8760   24.3600  -29.3430 C   0  0  0  0  0  0  0  0  0  0  0  0
   -3.5200   24.9940  -30.4610 N   0  0  0  0  0  0  0  0  0  0  0  0
   -4.9270   25.2210  -30.6230 C   0  0  0  0  0  0  0  0  0  0  0  0
   -5.3730   26.3910  -30.4840 O   0  0  0  0  0  0  0  0  0  0  0  0
   -5.8710   24.1230  -30.9050 C   0  0  0  0  0  0  0  0  0  0  0  0
   -7.2420   24.1540  -30.7400 C   0  0  0  0  0  0  0  0  0  0  0  0
   -7.7610   22.9760  -31.1360 N   0  0  0  0  0  0  0  0  0  0  0  0
   -6.7620   22.1970  -31.5320 N   0  0  0  0  0  0  0  0  0  0  0  0
   -6.9530   20.8730  -32.0750 C   0  0  0  0  0  0  0  0  0  0  0  0
   -6.0270   20.3520  -32.9990 C   0  0  0  0  0  0  0  0  0  0  0  0
   -6.1820   19.0590  -33.5110 C   0  0  0  0  0  0  0  0  0  0  0  0
   -7.2670   18.2740  -33.1140 C   0  0  0  0  0  0  0  0  0  0  0  0
   -8.2000   18.7810  -32.2080 C   0  0  0  0  0  0  0  0  0  0  0  0
   -8.0450   20.0700  -31.6860 C   0  0  0  0  0  0  0  0  0  0  0  0
   -5.5940   22.8630  -31.4010 C   0  0  0  0  0  0  0  0  0  0  0  0
   -1.6750   24.8550  -28.7890 C   0  0  0  0  0  0  0  0  0  0  0  0
   -1.1000   26.0140  -29.3150 O   0  0  0  0  0  0  0  0  0  0  0  0
    1.5836   25.1545  -24.0082 H   0  0  0  0  0  0  0  0  0  0  0  0
    2.3863   24.4431  -25.4491 H   0  0  0  0  0  0  0  0  0  0  0  0
    1.9118   26.1756  -25.4491 H   0  0  0  0  0  0  0  0  0  0  0  0
   -0.4928   24.6728  -23.7225 H   0  0  0  0  0  0  0  0  0  0  0  0
   -1.5730   25.4029  -24.9581 H   0  0  0  0  0  0  0  0  0  0  0  0
   -1.2770   23.6312  -24.9581 H   0  0  0  0  0  0  0  0  0  0  0  0
   -1.2885   22.5710  -26.2525 H   0  0  0  0  0  0  0  0  0  0  0  0
   -3.4406   21.7489  -27.1994 H   0  0  0  0  0  0  0  0  0  0  0  0
   -4.4635   22.8941  -29.1601 H   0  0  0  0  0  0  0  0  0  0  0  0
   -7.8181   25.0051  -30.3477 H   0  0  0  0  0  0  0  0  0  0  0  0
   -5.1739   20.9671  -33.3213 H   0  0  0  0  0  0  0  0  0  0  0  0
   -5.4484   18.6602  -34.2271 H   0  0  0  0  0  0  0  0  0  0  0  0
   -7.3861   17.2567  -33.5152 H   0  0  0  0  0  0  0  0  0  0  0  0
   -9.0594   18.1656  -31.9036 H   0  0  0  0  0  0  0  0  0  0  0  0
   -8.7804   20.4598  -30.9669 H   0  0  0  0  0  0  0  0  0  0  0  0
   -4.5960   22.4707  -31.6464 H   0  0  0  0  0  0  0  0  0  0  0  0
   -0.1130   26.2280  -29.2410 H   0  0  0  0  0  0  0  0  0  0  0  0
  1  2  1  0
  2  3  1  0
  2  4  1  0
  4  5  2  0
  4  6  1  0
  6  7  2  0
  7  8  1  0
  8  9  2  0
  9 10  1  0
 10 11  1  0
 11 12  1  0
 12 13  2  0
 12 14  1  0
 14 15  1  0
 15 16  2  0
 16 17  1  0
 17 18  1  0
 18 19  2  0
 19 20  1  0
 20 21  2  0
 21 22  1  0
 22 23  2  0
 17 24  1  0
 10 25  2  0
 25 26  1  0
 25  6  1  0
 24 14  2  0
 23 18  1  0
  1 27  1  0
  1 28  1  0
  1 29  1  0
  3 30  1  0
  3 31  1  0
  3 32  1  0
  7 33  1  0
  8 34  1  0
  9 35  1  0
 15 36  1  0
 19 37  1  0
 20 38  1  0
 21 39  1  0
 22 40  1  0
 23 41  1  0
 24 42  1  0
 26 43  1  0
M  CHG  1  11  -1
M  END
>  <UniqueID>  (5) 
5

>  <SMILES>  (5) 
CN(C)C(=O)c1cccc([N-]C(=O)c2cnn(-c3ccccc3)c2)c1O

>  <Energy>  (5) 
87.02018639403505

>  <Genealogy>  (5) 
CN(C)C(=O)c1cccc([N-]C(=O)c2cnn(-c3ccccc3)c2)c1O (protonated)
CN(C)C(=O)c1cccc([N-]C(=O)c2cnn(-c3ccccc3)c2)c1O (3D coordinates assigned)
CN(C)C(=O)c1cccc([N-]C(=O)c2cnn(-c3ccccc3)c2)c1O (optimized conformer: 87.02018639403505 kcal/mol)

>  <smiles>  (5) 
CN(C)C(=O)c1cccc(NC(=O)c2cnn(-c3ccccc3)c2)c1O

>  <score_type>  (5) 
oracle

>  <origin>  (5) 
adgpu

>  <m_score__min__energy>  (5) 
-12.210000000000001

>  <m_primary>  (5) 
energy

$$$$
5:0
     RDKit          3D

 46 48  0  0  0  0  0  0  0  0999 V2000
   -0.2470   24.0110  -25.4150 C   0  0  0  0  0  0  0  0  0  0  0  0
   -0.6650   25.2380  -26.1060 N   0  0  0  0  0  0  0  0  0  0  0  0
   -1.9650   25.7010  -25.5980 C   0  0  0  0  0  0  0  0  0  0  0  0
   -0.7650   24.9470  -27.8250 S   0  0  0  0  0  0  0  0  0  0  0  0
    0.4630   24.2170  -28.2950 O   0  0  0  0  0  0  0  0  0  0  0  0
   -0.8550   26.2550  -28.5590 O   0  0  0  0  0  0  0  0  0  0  0  0
   -2.2040   23.9970  -28.1880 C   0  0  0  0  0  0  0  0  0  0  0  0
   -2.3730   22.7160  -27.6460 C   0  0  0  0  0  0  0  0  0  0  0  0
   -3.5310   21.9840  -27.9220 C   0  0  0  0  0  0  0  0  0  0  0  0
   -4.5250   22.5280  -28.7410 C   0  0  0  0  0  0  0  0  0  0  0  0
   -4.3630   23.8080  -29.2870 C   0  0  0  0  0  0  0  0  0  0  0  0
   -5.6100   24.4920  -30.3250 S   0  0  0  0  0  0  0  0  0  0  0  0
   -6.6600   25.1770  -29.4950 O   0  0  0  0  0  0  0  0  0  0  0  0
   -4.9780   25.5120  -31.2310 O   0  0  0  0  0  0  0  0  0  0  0  0
   -6.3650   23.2230  -31.2580 N   0  0  0  0  0  0  0  0  0  0  0  0
   -7.8280   23.1670  -31.3430 C   0  0  0  0  0  0  0  0  0  0  0  0
   -8.3010   21.7340  -31.1120 C   0  0  0  0  0  0  0  0  0  0  0  0
   -7.7060   20.8040  -32.1730 C   0  0  0  0  0  0  0  0  0  0  0  0
   -6.2170   21.0020  -32.3420 C   0  0  0  0  0  0  0  0  0  0  0  0
   -5.4710   20.0110  -32.9990 C   0  0  0  0  0  0  0  0  0  0  0  0
   -4.1070   20.1890  -33.2280 C   0  0  0  0  0  0  0  0  0  0  0  0
   -3.4780   21.3650  -32.8190 C   0  0  0  0  0  0  0  0  0  0  0  0
   -4.2080   22.3660  -32.1760 C   0  0  0  0  0  0  0  0  0  0  0  0
   -5.5860   22.2010  -31.9270 C   0  0  0  0  0  0  0  0  0  0  0  0
   -3.2050   24.5430  -29.0020 C   0  0  0  0  0  0  0  0  0  0  0  0
   -0.3000   24.1665  -24.3273 H   0  0  0  0  0  0  0  0  0  0  0  0
   -0.9142   23.1842  -25.7001 H   0  0  0  0  0  0  0  0  0  0  0  0
    0.7862   23.7634  -25.7001 H   0  0  0  0  0  0  0  0  0  0  0  0
    0.0500   25.9830  -25.9380 H   0  0  0  0  0  0  0  0  0  0  0  0
   -1.9516   25.6962  -24.4981 H   0  0  0  0  0  0  0  0  0  0  0  0
   -2.1566   26.7226  -25.9580 H   0  0  0  0  0  0  0  0  0  0  0  0
   -2.7592   25.0305  -25.9580 H   0  0  0  0  0  0  0  0  0  0  0  0
   -1.5923   22.2855  -27.0017 H   0  0  0  0  0  0  0  0  0  0  0  0
   -3.6606   20.9788  -27.4945 H   0  0  0  0  0  0  0  0  0  0  0  0
   -5.4357   21.9501  -28.9570 H   0  0  0  0  0  0  0  0  0  0  0  0
   -8.2645   23.8244  -30.5766 H   0  0  0  0  0  0  0  0  0  0  0  0
   -8.1485   23.5006  -32.3410 H   0  0  0  0  0  0  0  0  0  0  0  0
   -7.9782   21.4010  -30.1145 H   0  0  0  0  0  0  0  0  0  0  0  0
   -9.3984   21.7024  -31.1812 H   0  0  0  0  0  0  0  0  0  0  0  0
   -7.8923   19.7619  -31.8741 H   0  0  0  0  0  0  0  0  0  0  0  0
   -8.1872   21.0394  -33.1337 H   0  0  0  0  0  0  0  0  0  0  0  0
   -5.9656   19.0879  -33.3355 H   0  0  0  0  0  0  0  0  0  0  0  0
   -3.5268   19.4017  -33.7314 H   0  0  0  0  0  0  0  0  0  0  0  0
   -2.4026   21.5040  -33.0039 H   0  0  0  0  0  0  0  0  0  0  0  0
   -3.7039   23.2915  -31.8608 H   0  0  0  0  0  0  0  0  0  0  0  0
   -3.0811   25.5533  -29.4192 H   0  0  0  0  0  0  0  0  0  0  0  0
  1  2  1  0
  2  3  1  0
  2  4  1  0
  4  5  2  0
  4  6  2  0
  4  7  1  0
  7  8  2  0
  8  9  1  0
  9 10  2  0
 10 11  1  0
 11 12  1  0
 12 13  2  0
 12 14  2  0
 12 15  1  0
 15 16  1  0
 16 17  1  0
 17 18  1  0
 18 19  1  0
 19 20  2  0
 20 21  1  0
 21 22  2  0
 22 23  1  0
 23 24  2  0
 11 25  2  0
 25  7  1  0
 24 15  1  0
 24 19  1  0
  1 26  1  0
  1 27  1  0
  1 28  1  0
  2 29  1  0
  3 30  1  0
  3 31  1  0
  3 32  1  0
  8 33  1  0
  9 34  1  0
 10 35  1  0
 16 36  1  0
 16 37  1  0
 17 38  1  0
 17 39  1  0
 18 40  1  0
 18 41  1  0
 20 42  1  0
 21 43  1  0
 22 44  1  0
 23 45  1  0
 25 46  1  0
M  CHG  1   2   1
M  END
>  <UniqueID>  (6) 
6

>  <SMILES>  (6) 
C[NH+](C)S(=O)(=O)c1cccc(S(=O)(=O)N2CCCc3ccccc32)c1

>  <Energy>  (6) 
47.279844085033304

>  <Genealogy>  (6) 
C[NH+](C)S(=O)(=O)c1cccc(S(=O)(=O)N2CCCc3ccccc32)c1 (protonated)
C[NH+](C)S(=O)(=O)c1cccc(S(=O)(=O)N2CCCc3ccccc32)c1 (3D coordinates assigned)
C[NH+](C)S(=O)(=O)c1cccc(S(=O)(=O)N2CCCc3ccccc32)c1 (nonaromatic ring conformer: 47.279844085033304 kcal/mol)

>  <smiles>  (6) 
CN(C)S(=O)(=O)c1cccc(S(=O)(=O)N2CCCc3ccccc32)c1

>  <score_type>  (6) 
oracle

>  <origin>  (6) 
adgpu

>  <m_score__min__energy>  (6) 
-9.1600000000000001

>  <m_primary>  (6) 
energy

$$$$
6:0
     RDKit          3D

 50 53  0  0  0  0  0  0  0  0999 V2000
   -2.4810   24.6990  -29.7080 N   0  0  0  0  0  0  0  0  0  0  0  0
   -3.8770   24.4560  -29.9150 C   0  0  0  0  0  0  0  0  0  0  0  0
   -4.6850   25.4910  -30.4150 C   0  0  0  0  0  0  0  0  0  0  0  0
   -6.0560   25.2990  -30.5920 C   0  0  0  0  0  0  0  0  0  0  0  0
   -6.6370   24.0740  -30.2670 C   0  0  0  0  0  0  0  0  0  0  0  0
   -5.8460   23.0340  -29.7730 C   0  0  0  0  0  0  0  0  0  0  0  0
   -4.4640   23.2050  -29.6110 C   0  0  0  0  0  0  0  0  0  0  0  0
   -3.4770   21.8160  -29.0220 S   0  0  0  0  0  0  0  0  0  0  0  0
   -2.5960   21.6260  -30.5860 C   0  0  0  0  0  0  0  0  0  0  0  0
   -1.1940   21.6110  -30.5230 C   0  0  0  0  0  0  0  0  0  0  0  0
   -0.4290   21.5290  -31.6840 C   0  0  0  0  0  0  0  0  0  0  0  0
   -1.0540   21.4570  -32.9240 C   0  0  0  0  0  0  0  0  0  0  0  0
   -2.4460   21.4390  -33.0080 C   0  0  0  0  0  0  0  0  0  0  0  0
   -3.2510   21.4950  -31.8470 C   0  0  0  0  0  0  0  0  0  0  0  0
   -4.7400   21.3980  -31.9910 C   0  0  0  0  0  0  0  0  0  0  0  0
   -5.3700   22.2320  -32.6940 O   0  0  0  0  0  0  0  0  0  0  0  0
   -5.4880   20.3810  -31.3030 N   0  0  0  0  0  0  0  0  0  0  0  0
   -6.8380   20.0460  -31.6580 C   0  0  0  0  0  0  0  0  0  0  0  0
   -7.7400   21.0850  -31.9380 C   0  0  0  0  0  0  0  0  0  0  0  0
   -9.0590   20.8010  -32.3000 C   0  0  0  0  0  0  0  0  0  0  0  0
   -9.4950   19.4770  -32.3750 C   0  0  0  0  0  0  0  0  0  0  0  0
   -8.6160   18.4350  -32.0730 C   0  0  0  0  0  0  0  0  0  0  0  0
   -7.2930   18.7070  -31.7010 C   0  0  0  0  0  0  0  0  0  0  0  0
   -6.2390   17.3240  -31.2340 S   0  0  0  0  0  0  0  0  0  0  0  0
   -5.4070   17.2840  -32.8220 C   0  0  0  0  0  0  0  0  0  0  0  0
   -6.0120   17.8650  -33.9430 C   0  0  0  0  0  0  0  0  0  0  0  0
   -5.3630   17.8350  -35.1830 C   0  0  0  0  0  0  0  0  0  0  0  0
   -4.1140   17.2190  -35.3050 C   0  0  0  0  0  0  0  0  0  0  0  0
   -3.5130   16.6300  -34.1870 C   0  0  0  0  0  0  0  0  0  0  0  0
   -4.1600   16.6600  -32.9470 C   0  0  0  0  0  0  0  0  0  0  0  0
   -2.1040   25.6740  -29.7250 H   0  0  0  0  0  0  0  0  0  0  0  0
   -1.8110   23.9300  -29.4890 H   0  0  0  0  0  0  0  0  0  0  0  0
   -4.2331   26.4611  -30.6692 H   0  0  0  0  0  0  0  0  0  0  0  0
   -6.6786   26.1147  -30.9882 H   0  0  0  0  0  0  0  0  0  0  0  0
   -7.7189   23.9264  -30.3997 H   0  0  0  0  0  0  0  0  0  0  0  0
   -6.3113   22.0729  -29.5089 H   0  0  0  0  0  0  0  0  0  0  0  0
   -0.6934   21.6646  -29.5450 H   0  0  0  0  0  0  0  0  0  0  0  0
    0.6691   21.5212  -31.6200 H   0  0  0  0  0  0  0  0  0  0  0  0
   -0.4487   21.4141  -33.8415 H   0  0  0  0  0  0  0  0  0  0  0  0
   -2.9265   21.3801  -33.9958 H   0  0  0  0  0  0  0  0  0  0  0  0
   -5.1540   20.0760  -30.3610 H   0  0  0  0  0  0  0  0  0  0  0  0
   -7.4054   22.1308  -31.8718 H   0  0  0  0  0  0  0  0  0  0  0  0
   -9.7552   21.6220  -32.5263 H   0  0  0  0  0  0  0  0  0  0  0  0
  -10.5306   19.2547  -32.6719 H   0  0  0  0  0  0  0  0  0  0  0  0
   -8.9648   17.3932  -32.1276 H   0  0  0  0  0  0  0  0  0  0  0  0
   -6.9973   18.3450  -33.8494 H   0  0  0  0  0  0  0  0  0  0  0  0
   -5.8363   18.2966  -36.0622 H   0  0  0  0  0  0  0  0  0  0  0  0
   -3.6039   17.1973  -36.2794 H   0  0  0  0  0  0  0  0  0  0  0  0
   -2.5313   16.1431  -34.2832 H   0  0  0  0  0  0  0  0  0  0  0  0
   -3.6886   16.1930  -32.0696 H   0  0  0  0  0  0  0  0  0  0  0  0
  1  2  1  0
  2  3  2  0
  3  4  1  0
  4  5  2  0
  5  6  1  0
  6  7  2  0
  7  8  1  0
  8  9  1  0
  9 10  2  0
 10 11  1  0
 11 12  2  0
 12 13  1  0
 13 14  2  0
 14 15  1  0
 15 16  2  0
 15 17  1  0
 17 18  1  0
 18 19  2  0
 19 20  1  0
 20 21  2  0
 21 22  1  0
 22 23  2  0
 23 24  1  0
 24 25  1  0
 25 26  2  0
 26 27  1  0
 27 28  2  0
 28 29  1  0
 29 30  2  0
  7  2  1  0
 14  9  1  0
 23 18  1  0
 30 25  1  0
  1 31  1  0
  1 32  1  0
  3 33  1  0
  4 34  1  0
  5 35  1  0
  6 36  1  0
 10 37  1  0
 11 38  1  0
 12 39  1  0
 13 40  1  0
 17 41  1  0
 19 42  1  0
 20 43  1  0
 21 44  1  0
 22 45  1  0
 26 46  1  0
 27 47  1  0
 28 48  1  0
 29 49  1  0
 30 50  1  0
M  END
>  <UniqueID>  (7) 
7

>  <SMILES>  (7) 
Nc1ccccc1Sc1ccccc1C(=O)Nc1ccccc1Sc1ccccc1

>  <Energy>  (7) 
57.90872203845279

>  <Genealogy>  (7) 
Nc1ccccc1Sc1ccccc1C(=O)Nc1ccccc1Sc1ccccc1 (3D coordinates assigned)
Nc1ccccc1Sc1ccccc1C(=O)Nc1ccccc1Sc1ccccc1 (optimized conformer: 57.90872203845279 kcal/mol)

>  <smiles>  (7) 
Nc1ccccc1Sc1ccccc1C(=O)Nc1ccccc1Sc1ccccc1

>  <score_type>  (7) 
oracle

>  <origin>  (7) 
adgpu

>  <m_score__min__energy>  (7) 
-10.08

>  <m_primary>  (7) 
energy

$$$$
7:0
     RDKit          3D

 50 54  0  0  0  0  0  0  0  0999 V2000
   -8.2680   17.9940  -31.6435 H   0  0  0  0  0  0  0  0  0  0  0  0
   -8.1910   19.0890  -31.7140 C   0  0  0  0  0  0  0  0  0  0  0  0
   -9.2630   19.8340  -32.2440 C   0  0  0  0  0  0  0  0  0  0  0  0
  -10.1714   19.3168  -32.5864 H   0  0  0  0  0  0  0  0  0  0  0  0
   -9.1790   21.2340  -32.3380 C   0  0  0  0  0  0  0  0  0  0  0  0
  -10.0139   21.8209  -32.7485 H   0  0  0  0  0  0  0  0  0  0  0  0
   -8.0130   21.8630  -31.8990 C   0  0  0  0  0  0  0  0  0  0  0  0
   -6.9640   21.1270  -31.3800 C   0  0  0  0  0  0  0  0  0  0  0  0
   -7.0240   19.7370  -31.2750 C   0  0  0  0  0  0  0  0  0  0  0  0
   -6.1813   19.1644  -30.8602 H   0  0  0  0  0  0  0  0  0  0  0  0
   -5.9060   22.0440  -31.0160 C   0  0  0  0  0  0  0  0  0  0  0  0
   -4.6550   21.7920  -30.4550 C   0  0  0  0  0  0  0  0  0  0  0  0
   -4.3467   20.7653  -30.2085 H   0  0  0  0  0  0  0  0  0  0  0  0
   -3.7960   22.8770  -30.2110 C   0  0  0  0  0  0  0  0  0  0  0  0
   -2.5120   22.6180  -29.6280 N   0  0  0  0  0  0  0  0  0  0  0  0
   -1.2690   22.6490  -30.3350 C   0  0  0  0  0  0  0  0  0  0  0  0
   -0.2830   23.2310  -29.8100 O   0  0  0  0  0  0  0  0  0  0  0  0
   -1.1520   22.0250  -31.6210 N   0  0  0  0  0  0  0  0  0  0  0  0
   -2.0920   21.1290  -32.2310 C   0  0  0  0  0  0  0  0  0  0  0  0
   -3.0980   21.6660  -33.0440 C   0  0  0  0  0  0  0  0  0  0  0  0
   -3.1414   22.7522  -33.2121 H   0  0  0  0  0  0  0  0  0  0  0  0
   -4.0480   20.8330  -33.6440 C   0  0  0  0  0  0  0  0  0  0  0  0
   -4.8281   21.2644  -34.2884 H   0  0  0  0  0  0  0  0  0  0  0  0
   -4.0070   19.4490  -33.4250 C   0  0  0  0  0  0  0  0  0  0  0  0
   -5.1960   18.3830  -34.1630 S   0  0  0  0  0  0  0  0  0  0  0  0
   -4.6330   17.8320  -35.4430 O   0  0  0  0  0  0  0  0  0  0  0  0
   -6.4600   19.1420  -34.4600 O   0  0  0  0  0  0  0  0  0  0  0  0
   -5.5470   17.0890  -33.0640 N   0  0  0  0  0  0  0  0  0  0  0  0
   -4.7570   16.0780  -32.8850 C   0  0  0  0  0  0  0  0  0  0  0  0
   -3.5820   15.9040  -33.5230 N   0  0  0  0  0  0  0  0  0  0  0  0
   -3.0920   14.7830  -33.0790 O   0  0  0  0  0  0  0  0  0  0  0  0
   -3.8900   14.2360  -32.1900 C   0  0  0  0  0  0  0  0  0  0  0  0
   -3.6290   12.9370  -31.5040 C   0  0  0  0  0  0  0  0  0  0  0  0
   -3.6588   13.0853  -30.4144 H   0  0  0  0  0  0  0  0  0  0  0  0
   -4.3984   12.2071  -31.7959 H   0  0  0  0  0  0  0  0  0  0  0  0
   -2.6373   12.5609  -31.7959 H   0  0  0  0  0  0  0  0  0  0  0  0
   -5.0020   15.0350  -32.0220 C   0  0  0  0  0  0  0  0  0  0  0  0
   -5.8683   14.8775  -31.3626 H   0  0  0  0  0  0  0  0  0  0  0  0
   -3.0190   18.9110  -32.5910 C   0  0  0  0  0  0  0  0  0  0  0  0
   -2.9897   17.8270  -32.4064 H   0  0  0  0  0  0  0  0  0  0  0  0
   -2.0700   19.7440  -31.9920 C   0  0  0  0  0  0  0  0  0  0  0  0
   -1.3030   19.3142  -31.3310 H   0  0  0  0  0  0  0  0  0  0  0  0
   -4.2370   24.2000  -30.4850 C   0  0  0  0  0  0  0  0  0  0  0  0
   -3.4430   25.2950  -30.1650 O   0  0  0  0  0  0  0  0  0  0  0  0
   -5.5020   24.4210  -31.0560 C   0  0  0  0  0  0  0  0  0  0  0  0
   -5.8386   25.4412  -31.2922 H   0  0  0  0  0  0  0  0  0  0  0  0
   -6.3230   23.3250  -31.3180 C   0  0  0  0  0  0  0  0  0  0  0  0
   -7.7040   23.3320  -31.9060 C   0  0  0  0  0  0  0  0  0  0  0  0
   -8.4090   23.8981  -31.2795 H   0  0  0  0  0  0  0  0  0  0  0  0
   -7.7789   23.8110  -32.8934 H   0  0  0  0  0  0  0  0  0  0  0  0
  1  2  1  0
  2  3  2  0
  3  4  1  0
  3  5  1  0
  5  6  1  0
  5  7  2  0
  7  8  1  0
  8  9  2  0
  9 10  1  0
  8 11  1  0
 11 12  2  0
 12 13  1  0
 12 14  1  0
 14 15  1  0
 15 16  1  0
 16 17  2  0
 16 18  1  0
 18 19  1  0
 19 20  2  0
 20 21  1  0
 20 22  1  0
 22 23  1  0
 22 24  2  0
 24 25  1  0
 25 26  2  0
 25 27  2  0
 25 28  1  0
 28 29  2  0
 29 30  1  0
 30 31  1  0
 31 32  1  0
 32 33  1  0
 33 34  1  0
 33 35  1  0
 33 36  1  0
 32 37  2  0
 37 38  1  0
 24 39  1  0
 39 40  1  0
 39 41  2  0
 41 42  1  0
 14 43  2  0
 43 44  1  0
 43 45  1  0
 45 46  1  0
 45 47  2  0
 47 48  1  0
 48 49  1  0
 48 50  1  0
  9  2  1  0
 47 11  1  0
 48  7  1  0
 41 19  1  0
 37 29  1  0
M  CHG  4  15  -1  18  -1  30  -1  44  -1
M  END
>  <UniqueID>  (8) 
8

>  <SMILES>  (8) 
Cc1c/c(=N/S(=O)(=O)c2ccc([N-]C(=O)[N-]c3cc4c(cc3[O-])Cc3ccccc3-4)cc2)[n-]o1

>  <Energy>  (8) 
120.87578201995213

>  <Genealogy>  (8) 
Cc1cc(=NS(=O)(=O)c2ccc([N-]C(=O)[N-]c3cc4c(cc3[O-])Cc3ccccc3-4)cc2)[n-]o1 (protonated)
Cc1c/c(=N/S(=O)(=O)c2ccc([N-]C(=O)[N-]c3cc4c(cc3[O-])Cc3ccccc3-4)cc2)[n-]o1 (cis-trans isomerization)
Cc1c/c(=N/S(=O)(=O)c2ccc([N-]C(=O)[N-]c3cc4c(cc3[O-])Cc3ccccc3-4)cc2)[n-]o1 (3D coordinates assigned)
Cc1c/c(=N/S(=O)(=O)c2ccc([N-]C(=O)[N-]c3cc4c(cc3[O-])Cc3ccccc3-4)cc2)[n-]o1 (nonaromatic ring conformer: 120.87578201995213 kcal/mol)

>  <smiles>  (8) 
Cc1cc(=NS(=O)(=O)c2ccc(NC(=O)Nc3cc4c(cc3O)Cc3ccccc3-4)cc2)[nH]o1

>  <score_type>  (8) 
oracle

>  <origin>  (8) 
adgpu

>  <m_score__min__energy>  (8) 
-16.620000000000001

>  <m_primary>  (8) 
energy

$$$$
8:0
     RDKit          3D

 47 49  0  0  0  0  0  0  0  0999 V2000
    0.6110   21.1420  -33.6820 C   0  0  0  0  0  0  0  0  0  0  0  0
   -0.4900   21.5460  -32.8760 O   0  0  0  0  0  0  0  0  0  0  0  0
   -1.7960   21.0440  -32.9980 C   0  0  0  0  0  0  0  0  0  0  0  0
   -2.0920   19.9460  -33.8300 C   0  0  0  0  0  0  0  0  0  0  0  0
   -3.3890   19.4330  -33.8900 C   0  0  0  0  0  0  0  0  0  0  0  0
   -4.4100   20.0070  -33.1270 C   0  0  0  0  0  0  0  0  0  0  0  0
   -6.0370   19.3270  -33.1840 S   0  0  0  0  0  0  0  0  0  0  0  0
   -5.9310   17.8790  -33.5720 O   0  0  0  0  0  0  0  0  0  0  0  0
   -6.8440   20.0390  -34.2350 O   0  0  0  0  0  0  0  0  0  0  0  0
   -6.8130   19.4510  -31.6170 N   0  0  0  0  0  0  0  0  0  0  0  0
   -7.6080   20.6860  -31.4910 C   0  0  0  0  0  0  0  0  0  0  0  0
   -8.9240   20.6220  -32.3040 C   0  0  0  0  0  0  0  0  0  0  0  0
   -9.3090   19.3050  -32.6580 O   0  0  0  0  0  0  0  0  0  0  0  0
   -9.1110   18.4290  -31.5700 C   0  0  0  0  0  0  0  0  0  0  0  0
   -7.6060   18.2420  -31.3010 C   0  0  0  0  0  0  0  0  0  0  0  0
   -4.1250   21.1000  -32.2990 C   0  0  0  0  0  0  0  0  0  0  0  0
   -2.8320   21.6380  -32.2470 C   0  0  0  0  0  0  0  0  0  0  0  0
   -2.5780   22.7520  -31.3760 N   0  0  0  0  0  0  0  0  0  0  0  0
   -1.5790   22.7370  -30.3490 C   0  0  0  0  0  0  0  0  0  0  0  0
   -0.7580   21.7820  -30.2690 O   0  0  0  0  0  0  0  0  0  0  0  0
   -1.4980   23.8320  -29.4320 N   0  0  0  0  0  0  0  0  0  0  0  0
   -2.6070   24.2650  -28.5920 C   0  0  0  0  0  0  0  0  0  0  0  0
   -3.8250   24.4970  -29.4290 C   0  0  0  0  0  0  0  0  0  0  0  0
   -5.0670   23.9300  -29.2280 C   0  0  0  0  0  0  0  0  0  0  0  0
   -5.8760   24.4530  -30.2150 C   0  0  0  0  0  0  0  0  0  0  0  0
   -5.0780   25.3030  -30.9540 C   0  0  0  0  0  0  0  0  0  0  0  0
   -3.8610   25.3100  -30.4600 O   0  0  0  0  0  0  0  0  0  0  0  0
    1.4461   20.8356  -33.0350 H   0  0  0  0  0  0  0  0  0  0  0  0
    0.3096   20.2959  -34.3170 H   0  0  0  0  0  0  0  0  0  0  0  0
    0.9284   21.9823  -34.3170 H   0  0  0  0  0  0  0  0  0  0  0  0
   -1.2956   19.4899  -34.4364 H   0  0  0  0  0  0  0  0  0  0  0  0
   -3.6084   18.5735  -34.5404 H   0  0  0  0  0  0  0  0  0  0  0  0
   -7.8545   20.8416  -30.4303 H   0  0  0  0  0  0  0  0  0  0  0  0
   -7.0061   21.5162  -31.8890 H   0  0  0  0  0  0  0  0  0  0  0  0
   -9.7277   21.0688  -31.7003 H   0  0  0  0  0  0  0  0  0  0  0  0
   -8.7507   21.1703  -33.2417 H   0  0  0  0  0  0  0  0  0  0  0  0
   -9.5903   18.8496  -30.6737 H   0  0  0  0  0  0  0  0  0  0  0  0
   -9.5552   17.4522  -31.8118 H   0  0  0  0  0  0  0  0  0  0  0  0
   -7.4666   17.9982  -30.2375 H   0  0  0  0  0  0  0  0  0  0  0  0
   -7.2505   17.4321  -31.9550 H   0  0  0  0  0  0  0  0  0  0  0  0
   -4.9235   21.5403  -31.6837 H   0  0  0  0  0  0  0  0  0  0  0  0
   -3.0370   23.6640  -31.5920 H   0  0  0  0  0  0  0  0  0  0  0  0
   -2.8221   23.4877  -27.8440 H   0  0  0  0  0  0  0  0  0  0  0  0
   -2.3322   25.2033  -28.0879 H   0  0  0  0  0  0  0  0  0  0  0  0
   -5.3519   23.2118  -28.4451 H   0  0  0  0  0  0  0  0  0  0  0  0
   -6.9418   24.2365  -30.3800 H   0  0  0  0  0  0  0  0  0  0  0  0
   -5.4110   25.8864  -31.8251 H   0  0  0  0  0  0  0  0  0  0  0  0
  1  2  1  0
  2  3  1  0
  3  4  2  0
  4  5  1  0
  5  6  2  0
  6  7  1  0
  7  8  2  0
  7  9  2  0
  7 10  1  0
 10 11  1  0
 11 12  1  0
 12 13  1  0
 13 14  1  0
 14 15  1  0
  6 16  1  0
 16 17  2  0
 17 18  1  0
 18 19  1  0
 19 20  2  0
 19 21  1  0
 21 22  1  0
 22 23  1  0
 23 24  2  0
 24 25  1  0
 25 26  2  0
 26 27  1  0
 17  3  1  0
 27 23  1  0
 15 10  1  0
  1 28  1  0
  1 29  1  0
  1 30  1  0
  4 31  1  0
  5 32  1  0
 11 33  1  0
 11 34  1  0
 12 35  1  0
 12 36  1  0
 14 37  1  0
 14 38  1  0
 15 39  1  0
 15 40  1  0
 16 41  1  0
 18 42  1  0
 22 43  1  0
 22 44  1  0
 24 45  1  0
 25 46  1  0
 26 47  1  0
M  CHG  1  21  -1
M  END
>  <UniqueID>  (9) 
9

>  <SMILES>  (9) 
COc1ccc(S(=O)(=O)N2CCOCC2)cc1NC(=O)[N-]Cc1ccco1

>  <Energy>  (9) 
85.44939489329299

>  <Genealogy>  (9) 
COc1ccc(S(=O)(=O)N2CCOCC2)cc1NC(=O)[N-]Cc1ccco1 (protonated)
COc1ccc(S(=O)(=O)N2CCOCC2)cc1NC(=O)[N-]Cc1ccco1 (3D coordinates assigned)
COc1ccc(S(=O)(=O)N2CCOCC2)cc1NC(=O)[N-]Cc1ccco1 (nonaromatic ring conformer: 85.44939489329299 kcal/mol)

>  <smiles>  (9) 
COc1ccc(S(=O)(=O)N2CCOCC2)cc1NC(=O)NCc1ccco1

>  <score_type>  (9) 
oracle

>  <origin>  (9) 
adgpu

>  <m_score__min__energy>  (9) 
-9.2699999999999996

>  <m_primary>  (9) 
energy

$$$$
9:0
     RDKit          3D

 48 50  0  0  0  0  0  0  0  0999 V2000
   -2.5500   24.4520  -28.1700 C   0  0  0  0  0  0  0  0  0  0  0  0
   -2.6980   24.9410  -29.5340 N   0  0  0  0  0  0  0  0  0  0  0  0
   -3.7000   24.5040  -30.4630 C   0  0  0  0  0  0  0  0  0  0  0  0
   -4.5710   25.3280  -30.8450 O   0  0  0  0  0  0  0  0  0  0  0  0
   -3.7780   23.1140  -30.9460 C   0  0  0  0  0  0  0  0  0  0  0  0
   -4.9590   22.5970  -31.4980 C   0  0  0  0  0  0  0  0  0  0  0  0
   -5.0060   21.2620  -31.9140 C   0  0  0  0  0  0  0  0  0  0  0  0
   -6.1910   20.7750  -32.4850 O   0  0  0  0  0  0  0  0  0  0  0  0
   -6.3670   19.4930  -33.0250 C   0  0  0  0  0  0  0  0  0  0  0  0
   -6.9410   18.4990  -32.2260 C   0  0  0  0  0  0  0  0  0  0  0  0
   -7.1140   17.2030  -32.7210 C   0  0  0  0  0  0  0  0  0  0  0  0
   -6.6860   16.8770  -34.0190 C   0  0  0  0  0  0  0  0  0  0  0  0
   -6.8320   15.5460  -34.5420 N   0  0  0  0  0  0  0  0  0  0  0  0
   -6.1410   14.3970  -34.0240 C   0  0  0  0  0  0  0  0  0  0  0  0
   -6.8550   12.9290  -34.1190 S   0  0  0  0  0  0  0  0  0  0  0  0
   -4.8370   14.5050  -33.4280 N   0  0  0  0  0  0  0  0  0  0  0  0
   -3.8580   15.4860  -33.8070 C   0  0  0  0  0  0  0  0  0  0  0  0
   -3.5990   16.6100  -33.0040 C   0  0  0  0  0  0  0  0  0  0  0  0
   -2.6260   17.5400  -33.3810 C   0  0  0  0  0  0  0  0  0  0  0  0
   -1.9080   17.3690  -34.5790 C   0  0  0  0  0  0  0  0  0  0  0  0
   -0.9190   18.2710  -34.9980 O   0  0  0  0  0  0  0  0  0  0  0  0
   -0.7980   19.6080  -34.5260 C   0  0  0  0  0  0  0  0  0  0  0  0
   -2.1870   16.2630  -35.3900 C   0  0  0  0  0  0  0  0  0  0  0  0
   -3.1580   15.3320  -35.0110 C   0  0  0  0  0  0  0  0  0  0  0  0
   -6.1130   17.8740  -34.8220 C   0  0  0  0  0  0  0  0  0  0  0  0
   -5.9420   19.1690  -34.3260 C   0  0  0  0  0  0  0  0  0  0  0  0
   -3.8580   20.4650  -31.7860 C   0  0  0  0  0  0  0  0  0  0  0  0
   -2.7080   21.0050  -31.2090 C   0  0  0  0  0  0  0  0  0  0  0  0
   -2.6960   22.3010  -30.7990 N   0  0  0  0  0  0  0  0  0  0  0  0
   -2.7941   25.2585  -27.4629 H   0  0  0  0  0  0  0  0  0  0  0  0
   -3.2317   23.6039  -28.0085 H   0  0  0  0  0  0  0  0  0  0  0  0
   -1.5124   24.1243  -28.0085 H   0  0  0  0  0  0  0  0  0  0  0  0
   -5.8458   23.2392  -31.6036 H   0  0  0  0  0  0  0  0  0  0  0  0
   -7.2587   18.7387  -31.2005 H   0  0  0  0  0  0  0  0  0  0  0  0
   -7.5873   16.4351  -32.0915 H   0  0  0  0  0  0  0  0  0  0  0  0
   -7.4820   15.4030  -35.3480 H   0  0  0  0  0  0  0  0  0  0  0  0
   -4.5860   13.8230  -32.6750 H   0  0  0  0  0  0  0  0  0  0  0  0
   -4.1656   16.7588  -32.0730 H   0  0  0  0  0  0  0  0  0  0  0  0
   -2.4208   18.4090  -32.7386 H   0  0  0  0  0  0  0  0  0  0  0  0
   -0.7978   19.6099  -33.4260 H   0  0  0  0  0  0  0  0  0  0  0  0
    0.1432   20.0428  -34.8936 H   0  0  0  0  0  0  0  0  0  0  0  0
   -1.6458   20.2048  -34.8936 H   0  0  0  0  0  0  0  0  0  0  0  0
   -1.6377   16.1254  -36.3331 H   0  0  0  0  0  0  0  0  0  0  0  0
   -3.3742   14.4724  -35.6624 H   0  0  0  0  0  0  0  0  0  0  0  0
   -5.7965   17.6351  -35.8480 H   0  0  0  0  0  0  0  0  0  0  0  0
   -5.4727   19.9389  -34.9561 H   0  0  0  0  0  0  0  0  0  0  0  0
   -3.8647   19.4228  -32.1378 H   0  0  0  0  0  0  0  0  0  0  0  0
   -1.8103   20.3814  -31.0858 H   0  0  0  0  0  0  0  0  0  0  0  0
  1  2  1  0
  2  3  1  0
  3  4  2  0
  3  5  1  0
  5  6  2  0
  6  7  1  0
  7  8  1  0
  8  9  1  0
  9 10  2  0
 10 11  1  0
 11 12  2  0
 12 13  1  0
 13 14  1  0
 14 15  2  0
 14 16  1  0
 16 17  1  0
 17 18  2  0
 18 19  1  0
 19 20  2  0
 20 21  1  0
 21 22  1  0
 20 23  1  0
 23 24  2  0
 12 25  1  0
 25 26  2  0
  7 27  2  0
 27 28  1  0
 28 29  2  0
 29  5  1  0
 26  9  1  0
 24 17  1  0
  1 30  1  0
  1 31  1  0
  1 32  1  0
  6 33  1  0
 10 34  1  0
 11 35  1  0
 13 36  1  0
 16 37  1  0
 18 38  1  0
 19 39  1  0
 22 40  1  0
 22 41  1  0
 22 42  1  0
 23 43  1  0
 24 44  1  0
 25 45  1  0
 26 46  1  0
 27 47  1  0
 28 48  1  0
M  CHG  1   2  -1
M  END
>  <UniqueID>  (10) 
10

>  <SMILES>  (10) 
C[N-]C(=O)c1cc(Oc2ccc(NC(=S)Nc3ccc(OC)cc3)cc2)ccn1

>  <Energy>  (10) 
66.09604676958817

>  <Genealogy>  (10) 
C[N-]C(=O)c1cc(Oc2ccc(NC(=S)Nc3ccc(OC)cc3)cc2)ccn1 (protonated)
C[N-]C(=O)c1cc(Oc2ccc(NC(=S)Nc3ccc(OC)cc3)cc2)ccn1 (3D coordinates assigned)
C[N-]C(=O)c1cc(Oc2ccc(NC(=S)Nc3ccc(OC)cc3)cc2)ccn1 (optimized conformer: 66.09604676958817 kcal/mol)

>  <smiles>  (10) 
CNC(=O)c1cc(Oc2ccc(NC(=S)Nc3ccc(OC)cc3)cc2)ccn1

>  <score_type>  (10) 
oracle

>  <origin>  (10) 
adgpu

>  <m_score__min__energy>  (10) 
-9.0199999999999996

>  <m_primary>  (10) 
energy

$$$$
10:0
     RDKit          3D

 35 37  0  0  0  0  0  0  0  0999 V2000
   -6.0260   14.2250  -34.2000 C   0  0  0  0  0  0  0  0  0  0  0  0
   -5.9720   15.7040  -34.0150 C   0  0  0  0  0  0  0  0  0  0  0  0
   -7.0620   16.4720  -33.8280 N   0  0  0  0  0  0  0  0  0  0  0  0
   -6.5960   17.6710  -33.6490 O   0  0  0  0  0  0  0  0  0  0  0  0
   -5.2860   17.6510  -33.7110 C   0  0  0  0  0  0  0  0  0  0  0  0
   -4.4300   18.8420  -33.5380 C   0  0  0  0  0  0  0  0  0  0  0  0
   -3.0350   18.7200  -33.6120 C   0  0  0  0  0  0  0  0  0  0  0  0
   -2.2210   19.8430  -33.4620 C   0  0  0  0  0  0  0  0  0  0  0  0
   -2.7920   21.0990  -33.2440 C   0  0  0  0  0  0  0  0  0  0  0  0
   -4.1850   21.2460  -33.1710 C   0  0  0  0  0  0  0  0  0  0  0  0
   -4.7410   22.5550  -32.9530 N   0  0  0  0  0  0  0  0  0  0  0  0
   -5.2990   23.1280  -31.4130 S   0  0  0  0  0  0  0  0  0  0  0  0
   -5.7260   24.5630  -31.5480 O   0  0  0  0  0  0  0  0  0  0  0  0
   -6.4810   22.3100  -30.9770 O   0  0  0  0  0  0  0  0  0  0  0  0
   -4.0230   22.9580  -30.2030 C   0  0  0  0  0  0  0  0  0  0  0  0
   -3.8030   21.7180  -29.5820 C   0  0  0  0  0  0  0  0  0  0  0  0
   -2.8090   21.5850  -28.6090 C   0  0  0  0  0  0  0  0  0  0  0  0
   -2.6170   20.3910  -27.9950 F   0  0  0  0  0  0  0  0  0  0  0  0
   -2.0200   22.6820  -28.2590 C   0  0  0  0  0  0  0  0  0  0  0  0
   -2.2250   23.9190  -28.8780 C   0  0  0  0  0  0  0  0  0  0  0  0
   -1.2180   25.2880  -28.4280 Cl  0  0  0  0  0  0  0  0  0  0  0  0
   -3.2290   24.0620  -29.8470 C   0  0  0  0  0  0  0  0  0  0  0  0
   -3.4370   25.2990  -30.4500 O   0  0  0  0  0  0  0  0  0  0  0  0
   -5.0000   20.1050  -33.3060 C   0  0  0  0  0  0  0  0  0  0  0  0
   -4.8220   16.4050  -33.9380 N   0  0  0  0  0  0  0  0  0  0  0  0
   -6.0440   13.7329  -33.2164 H   0  0  0  0  0  0  0  0  0  0  0  0
   -6.9345   13.9585  -34.7600 H   0  0  0  0  0  0  0  0  0  0  0  0
   -5.1394   13.8929  -34.7600 H   0  0  0  0  0  0  0  0  0  0  0  0
   -2.5804   17.7341  -33.7892 H   0  0  0  0  0  0  0  0  0  0  0  0
   -1.1272   19.7392  -33.5155 H   0  0  0  0  0  0  0  0  0  0  0  0
   -2.1438   21.9802  -33.1286 H   0  0  0  0  0  0  0  0  0  0  0  0
   -4.8960   23.1820  -33.7750 H   0  0  0  0  0  0  0  0  0  0  0  0
   -4.4153   20.8483  -29.8625 H   0  0  0  0  0  0  0  0  0  0  0  0
   -1.2359   22.5733  -27.4952 H   0  0  0  0  0  0  0  0  0  0  0  0
   -6.0928   20.2038  -33.2291 H   0  0  0  0  0  0  0  0  0  0  0  0
  1  2  1  0
  2  3  2  0
  3  4  1  0
  4  5  1  0
  5  6  1  0
  6  7  2  0
  7  8  1  0
  8  9  2  0
  9 10  1  0
 10 11  1  0
 11 12  1  0
 12 13  2  0
 12 14  2  0
 12 15  1  0
 15 16  2  0
 16 17  1  0
 17 18  1  0
 17 19  2  0
 19 20  1  0
 20 21  1  0
 20 22  2  0
 22 23  1  0
 10 24  2  0
  5 25  2  0
 25  2  1  0
 24  6  1  0
 22 15  1  0
  1 26  1  0
  1 27  1  0
  1 28  1  0
  7 29  1  0
  8 30  1  0
  9 31  1  0
 11 32  1  0
 16 33  1  0
 19 34  1  0
 24 35  1  0
M  CHG  1  23  -1
M  END
>  <UniqueID>  (11) 
11

>  <SMILES>  (11) 
Cc1noc(-c2cccc(NS(=O)(=O)c3cc(F)cc(Cl)c3[O-])c2)n1

>  <Energy>  (11) 
72.35160702125087

>  <Genealogy>  (11) 
Cc1noc(-c2cccc(NS(=O)(=O)c3cc(F)cc(Cl)c3[O-])c2)n1 (protonated)
Cc1noc(-c2cccc(NS(=O)(=O)c3cc(F)cc(Cl)c3[O-])c2)n1 (3D coordinates assigned)
Cc1noc(-c2cccc(NS(=O)(=O)c3cc(F)cc(Cl)c3[O-])c2)n1 (optimized conformer: 72.35160702125087 kcal/mol)

>  <smiles>  (11) 
Cc1noc(-c2cccc(NS(=O)(=O)c3cc(F)cc(Cl)c3O)c2)n1

>  <score_type>  (11) 
oracle

>  <origin>  (11) 
adgpu

>  <m_score__min__energy>  (11) 
-12.460000000000001

>  <m_primary>  (11) 
energy

$$$$
11:0
     RDKit          3D

 51 55  0  0  0  0  0  0  0  0999 V2000
   -1.6520   20.7060  -34.0250 O   0  0  0  0  0  0  0  0  0  0  0  0
   -2.4300   20.0470  -33.2860 C   0  0  0  0  0  0  0  0  0  0  0  0
   -2.0680   19.7560  -31.9300 N   0  0  0  0  0  0  0  0  0  0  0  0
   -1.8510   20.7240  -30.8950 C   0  0  0  0  0  0  0  0  0  0  0  0
   -2.8160   20.8600  -29.8900 C   0  0  0  0  0  0  0  0  0  0  0  0
   -2.6510   21.8020  -28.8720 C   0  0  0  0  0  0  0  0  0  0  0  0
   -1.5260   22.6410  -28.8560 C   0  0  0  0  0  0  0  0  0  0  0  0
   -1.3580   23.6120  -27.8070 N   0  0  0  0  0  0  0  0  0  0  0  0
   -1.4480   25.0380  -27.9120 C   0  0  0  0  0  0  0  0  0  0  0  0
   -1.7280   25.6600  -28.9710 O   0  0  0  0  0  0  0  0  0  0  0  0
   -1.2250   25.6490  -26.6070 C   0  0  0  0  0  0  0  0  0  0  0  0
   -1.2230   26.9870  -26.2190 C   0  0  0  0  0  0  0  0  0  0  0  0
   -0.9810   27.2820  -24.8640 C   0  0  0  0  0  0  0  0  0  0  0  0
   -0.7480   26.2430  -23.9370 C   0  0  0  0  0  0  0  0  0  0  0  0
   -0.7570   24.9000  -24.3540 C   0  0  0  0  0  0  0  0  0  0  0  0
   -1.0030   24.6350  -25.7010 C   0  0  0  0  0  0  0  0  0  0  0  0
   -1.0780   23.3700  -26.4230 C   0  0  0  0  0  0  0  0  0  0  0  0
   -0.8800   22.2310  -25.9230 O   0  0  0  0  0  0  0  0  0  0  0  0
   -0.5750   22.5290  -29.8830 C   0  0  0  0  0  0  0  0  0  0  0  0
   -0.7360   21.5840  -30.9010 C   0  0  0  0  0  0  0  0  0  0  0  0
    0.1650   21.5520  -31.9140 F   0  0  0  0  0  0  0  0  0  0  0  0
   -3.6820   19.6030  -33.8180 N   0  0  0  0  0  0  0  0  0  0  0  0
   -4.9840   19.8910  -33.2840 C   0  0  0  0  0  0  0  0  0  0  0  0
   -5.9870   18.9140  -33.2470 C   0  0  0  0  0  0  0  0  0  0  0  0
   -7.2340   19.2110  -32.7090 C   0  0  0  0  0  0  0  0  0  0  0  0
   -7.5240   20.4960  -32.2460 C   0  0  0  0  0  0  0  0  0  0  0  0
   -9.1120   20.7300  -31.5210 Cl  0  0  0  0  0  0  0  0  0  0  0  0
   -6.5540   21.5260  -32.3510 C   0  0  0  0  0  0  0  0  0  0  0  0
   -6.9320   23.2060  -31.8900 S   0  0  0  0  0  0  0  0  0  0  0  0
   -6.0500   24.1490  -32.6590 O   0  0  0  0  0  0  0  0  0  0  0  0
   -8.3560   23.5610  -32.2220 O   0  0  0  0  0  0  0  0  0  0  0  0
   -6.6220   23.4010  -30.1360 C   0  0  0  0  0  0  0  0  0  0  0  0
   -6.2080   24.8020  -29.7180 C   0  0  0  0  0  0  0  0  0  0  0  0
   -5.1760   23.6840  -29.7610 C   0  0  0  0  0  0  0  0  0  0  0  0
   -5.2610   21.1940  -32.8380 C   0  0  0  0  0  0  0  0  0  0  0  0
   -4.2140   22.1200  -32.8690 O   0  0  0  0  0  0  0  0  0  0  0  0
   -3.7108   20.2203  -29.9021 H   0  0  0  0  0  0  0  0  0  0  0  0
   -3.4075   21.8868  -28.0779 H   0  0  0  0  0  0  0  0  0  0  0  0
   -1.4051   27.7889  -26.9496 H   0  0  0  0  0  0  0  0  0  0  0  0
   -0.9734   28.3285  -24.5254 H   0  0  0  0  0  0  0  0  0  0  0  0
   -0.5581   26.4857  -22.8811 H   0  0  0  0  0  0  0  0  0  0  0  0
   -0.5756   24.0835  -23.6396 H   0  0  0  0  0  0  0  0  0  0  0  0
    0.3041   23.1902  -29.8867 H   0  0  0  0  0  0  0  0  0  0  0  0
   -5.7873   17.9082  -33.6450 H   0  0  0  0  0  0  0  0  0  0  0  0
   -8.0009   18.4248  -32.6474 H   0  0  0  0  0  0  0  0  0  0  0  0
   -7.3821   22.6779  -29.8052 H   0  0  0  0  0  0  0  0  0  0  0  0
   -6.1741   25.6108  -30.4628 H   0  0  0  0  0  0  0  0  0  0  0  0
   -6.5474   25.5185  -28.9555 H   0  0  0  0  0  0  0  0  0  0  0  0
   -4.3963   23.6845  -30.5370 H   0  0  0  0  0  0  0  0  0  0  0  0
   -4.4605   23.2573  -29.0427 H   0  0  0  0  0  0  0  0  0  0  0  0
   -3.2880   21.9160  -33.2160 H   0  0  0  0  0  0  0  0  0  0  0  0
  1  2  2  0
  2  3  1  0
  3  4  1  0
  4  5  2  0
  5  6  1  0
  6  7  2  0
  7  8  1  0
  8  9  1  0
  9 10  2  0
  9 11  1  0
 11 12  2  0
 12 13  1  0
 13 14  2  0
 14 15  1  0
 15 16  2  0
 16 17  1  0
 17 18  2  0
  7 19  1  0
 19 20  2  0
 20 21  1  0
  2 22  1  0
 22 23  1  0
 23 24  2  0
 24 25  1  0
 25 26  2  0
 26 27  1  0
 26 28  1  0
 28 29  1  0
 29 30  2  0
 29 31  2  0
 29 32  1  0
 32 33  1  0
 33 34  1  0
 28 35  2  0
 35 36  1  0
 20  4  1  0
 35 23  1  0
 17  8  1  0
 34 32  1  0
 16 11  1  0
  5 37  1  0
  6 38  1  0
 12 39  1  0
 13 40  1  0
 14 41  1  0
 15 42  1  0
 19 43  1  0
 24 44  1  0
 25 45  1  0
 32 46  1  0
 33 47  1  0
 33 48  1  0
 34 49  1  0
 34 50  1  0
 36 51  1  0
M  CHG  2   3  -1  22  -1
M  END
>  <UniqueID>  (12) 
12

>  <SMILES>  (12) 
O=C([N-]c1ccc(N2C(=O)c3ccccc3C2=O)cc1F)[N-]c1ccc(Cl)c(S(=O)(=O)C2CC2)c1O

>  <Energy>  (12) 
371.978959032227

>  <Genealogy>  (12) 
O=C([N-]c1ccc(N2C(=O)c3ccccc3C2=O)cc1F)[N-]c1ccc(Cl)c(S(=O)(=O)C2CC2)c1O (protonated)
O=C([N-]c1ccc(N2C(=O)c3ccccc3C2=O)cc1F)[N-]c1ccc(Cl)c(S(=O)(=O)C2CC2)c1O (3D coordinates assigned)
O=C([N-]c1ccc(N2C(=O)c3ccccc3C2=O)cc1F)[N-]c1ccc(Cl)c(S(=O)(=O)C2CC2)c1O (nonaromatic ring conformer: 371.978959032227 kcal/mol)

>  <smiles>  (12) 
O=C(Nc1ccc(N2C(=O)c3ccccc3C2=O)cc1F)Nc1ccc(Cl)c(S(=O)(=O)C2CC2)c1O

>  <score_type>  (12) 
oracle

>  <origin>  (12) 
adgpu

>  <m_score__min__energy>  (12) 
-13.720000000000001

>  <m_primary>  (12) 
energy

$$$$
12:0
     RDKit          3D

 40 42  0  0  0  0  0  0  0  0999 V2000
   -4.9010   21.6480  -32.3750 C   0  0  0  0  0  0  0  0  0  0  0  0
   -4.8610   22.7360  -31.3560 C   0  0  0  0  0  0  0  0  0  0  0  0
   -5.8910   23.6130  -31.0700 C   0  0  0  0  0  0  0  0  0  0  0  0
   -5.4000   24.3830  -30.0360 C   0  0  0  0  0  0  0  0  0  0  0  0
   -6.1290   25.5230  -29.3940 C   0  0  0  0  0  0  0  0  0  0  0  0
   -4.1580   23.9470  -29.7180 N   0  0  0  0  0  0  0  0  0  0  0  0
   -3.2760   24.4530  -28.7000 C   0  0  0  0  0  0  0  0  0  0  0  0
   -1.9900   24.9120  -29.0210 C   0  0  0  0  0  0  0  0  0  0  0  0
   -1.1500   25.4200  -28.0250 C   0  0  0  0  0  0  0  0  0  0  0  0
   -1.5870   25.4890  -26.6900 C   0  0  0  0  0  0  0  0  0  0  0  0
   -0.7220   26.0170  -25.6630 N   0  0  0  0  0  0  0  0  0  0  0  0
    0.7180   25.7310  -25.7190 C   0  0  0  0  0  0  0  0  0  0  0  0
    1.4710   26.4940  -24.6280 C   0  0  0  0  0  0  0  0  0  0  0  0
    0.7840   26.3320  -23.3400 N   0  0  0  0  0  0  0  0  0  0  0  0
   -0.5830   26.8960  -23.3330 C   0  0  0  0  0  0  0  0  0  0  0  0
   -1.2200   27.0400  -24.7330 C   0  0  0  0  0  0  0  0  0  0  0  0
   -2.8860   25.0480  -26.3770 C   0  0  0  0  0  0  0  0  0  0  0  0
   -3.7230   24.5420  -27.3740 C   0  0  0  0  0  0  0  0  0  0  0  0
   -3.8250   22.9490  -30.5230 N   0  0  0  0  0  0  0  0  0  0  0  0
   -4.9369   20.6723  -31.8684 H   0  0  0  0  0  0  0  0  0  0  0  0
   -5.7954   21.7676  -33.0041 H   0  0  0  0  0  0  0  0  0  0  0  0
   -4.0003   21.7016  -33.0041 H   0  0  0  0  0  0  0  0  0  0  0  0
   -6.8757   23.6811  -31.5554 H   0  0  0  0  0  0  0  0  0  0  0  0
   -6.0680   25.4276  -28.2998 H   0  0  0  0  0  0  0  0  0  0  0  0
   -5.6706   26.4732  -29.7053 H   0  0  0  0  0  0  0  0  0  0  0  0
   -7.1839   25.5055  -29.7053 H   0  0  0  0  0  0  0  0  0  0  0  0
   -1.6399   24.8721  -30.0630 H   0  0  0  0  0  0  0  0  0  0  0  0
   -0.1401   25.7681  -28.2876 H   0  0  0  0  0  0  0  0  0  0  0  0
    0.8762   24.6516  -25.5777 H   0  0  0  0  0  0  0  0  0  0  0  0
    1.1012   26.0515  -26.6990 H   0  0  0  0  0  0  0  0  0  0  0  0
    2.4948   26.0997  -24.5475 H   0  0  0  0  0  0  0  0  0  0  0  0
    1.5034   27.5620  -24.8894 H   0  0  0  0  0  0  0  0  0  0  0  0
    1.3520   26.8030  -22.5980 H   0  0  0  0  0  0  0  0  0  0  0  0
    0.7420   25.3130  -23.1040 H   0  0  0  0  0  0  0  0  0  0  0  0
   -1.2242   26.2370  -22.7292 H   0  0  0  0  0  0  0  0  0  0  0  0
   -0.5019   27.9117  -22.9185 H   0  0  0  0  0  0  0  0  0  0  0  0
   -2.3113   26.9373  -24.6407 H   0  0  0  0  0  0  0  0  0  0  0  0
   -0.9503   28.0285  -25.1331 H   0  0  0  0  0  0  0  0  0  0  0  0
   -3.2452   25.1022  -25.3387 H   0  0  0  0  0  0  0  0  0  0  0  0
   -4.7401   24.2110  -27.1172 H   0  0  0  0  0  0  0  0  0  0  0  0
  1  2  1  0
  2  3  1  0
  3  4  2  0
  4  5  1  0
  4  6  1  0
  6  7  1  0
  7  8  2  0
  8  9  1  0
  9 10  2  0
 10 11  1  0
 11 12  1  0
 12 13  1  0
 13 14  1  0
 14 15  1  0
 15 16  1  0
 10 17  1  0
 17 18  2  0
  6 19  1  0
 19  2  2  0
 18  7  1  0
 16 11  1  0
  1 20  1  0
  1 21  1  0
  1 22  1  0
  3 23  1  0
  5 24  1  0
  5 25  1  0
  5 26  1  0
  8 27  1  0
  9 28  1  0
 12 29  1  0
 12 30  1  0
 13 31  1  0
 13 32  1  0
 14 33  1  0
 14 34  1  0
 15 35  1  0
 15 36  1  0
 16 37  1  0
 16 38  1  0
 17 39  1  0
 18 40  1  0
M  CHG  1  14   1
M  END
>  <UniqueID>  (13) 
13

>  <SMILES>  (13) 
Cc1cc(C)n(-c2ccc(N3CC[NH2+]CC3)cc2)n1

>  <Energy>  (13) 
81.60345890669198

>  <Genealogy>  (13) 
Cc1cc(C)n(-c2ccc(N3CC[NH2+]CC3)cc2)n1 (protonated)
Cc1cc(C)n(-c2ccc(N3CC[NH2+]CC3)cc2)n1 (3D coordinates assigned)
Cc1cc(C)n(-c2ccc(N3CC[NH2+]CC3)cc2)n1 (nonaromatic ring conformer: 81.60345890669198 kcal/mol)

>  <smiles>  (13) 
Cc1cc(C)n(-c2ccc(N3CCNCC3)cc2)n1

>  <score_type>  (13) 
oracle

>  <origin>  (13) 
adgpu

>  <m_score__min__energy>  (13) 
-7.7199999999999998

>  <m_primary>  (13) 
energy

$$$$
13:0
     RDKit          3D

 60 63  0  0  0  0  0  0  0  0999 V2000
   -2.7890   18.8830  -25.6970 C   0  0  0  0  0  0  0  0  0  0  0  0
   -2.0190   19.4630  -27.1910 S   0  0  0  0  0  0  0  0  0  0  0  0
   -1.0510   18.4330  -27.6970 O   0  0  0  0  0  0  0  0  0  0  0  0
   -3.0740   19.6920  -28.2370 O   0  0  0  0  0  0  0  0  0  0  0  0
   -1.1620   20.9640  -26.8600 C   0  0  0  0  0  0  0  0  0  0  0  0
   -1.1990   21.5380  -25.5820 C   0  0  0  0  0  0  0  0  0  0  0  0
   -0.4890   22.7110  -25.3230 C   0  0  0  0  0  0  0  0  0  0  0  0
    0.2740   23.3180  -26.3310 C   0  0  0  0  0  0  0  0  0  0  0  0
    1.0870   24.5480  -26.0370 C   0  0  0  0  0  0  0  0  0  0  0  0
    0.2130   25.6450  -25.6200 N   0  0  0  0  0  0  0  0  0  0  0  0
    0.3590   26.2760  -24.4660 N   0  0  0  0  0  0  0  0  0  0  0  0
   -0.6890   27.1070  -24.3120 C   0  0  0  0  0  0  0  0  0  0  0  0
   -1.5400   26.9860  -25.3910 C   0  0  0  0  0  0  0  0  0  0  0  0
   -0.9310   26.0580  -26.2100 C   0  0  0  0  0  0  0  0  0  0  0  0
   -1.4920   25.5440  -27.4680 C   0  0  0  0  0  0  0  0  0  0  0  0
   -1.1870   26.1190  -28.5480 O   0  0  0  0  0  0  0  0  0  0  0  0
   -2.3560   24.3980  -27.4630 N   0  0  0  0  0  0  0  0  0  0  0  0
   -3.2070   24.0330  -28.5630 C   0  0  0  0  0  0  0  0  0  0  0  0
   -4.5900   24.2730  -28.5340 C   0  0  0  0  0  0  0  0  0  0  0  0
   -5.3970   23.8690  -29.6010 C   0  0  0  0  0  0  0  0  0  0  0  0
   -4.8330   23.2280  -30.7110 C   0  0  0  0  0  0  0  0  0  0  0  0
   -5.8600   22.6390  -32.0170 S   0  0  0  0  0  0  0  0  0  0  0  0
   -6.4920   23.8100  -32.7140 O   0  0  0  0  0  0  0  0  0  0  0  0
   -5.0190   21.8990  -33.0210 O   0  0  0  0  0  0  0  0  0  0  0  0
   -7.1050   21.5790  -31.4110 N   0  0  0  0  0  0  0  0  0  0  0  0
   -6.7880   20.1500  -31.6700 C   0  0  0  0  0  0  0  0  0  0  0  0
   -7.6260   19.5390  -32.8070 C   0  0  0  0  0  0  0  0  0  0  0  0
   -9.1320   19.6580  -32.5120 C   0  0  0  0  0  0  0  0  0  0  0  0
   -9.4830   20.9230  -31.7070 C   0  0  0  0  0  0  0  0  0  0  0  0
   -8.4250   22.0160  -31.9050 C   0  0  0  0  0  0  0  0  0  0  0  0
   -3.4480   23.0390  -30.7680 C   0  0  0  0  0  0  0  0  0  0  0  0
   -2.6390   23.4530  -29.7080 C   0  0  0  0  0  0  0  0  0  0  0  0
    0.3000   22.7470  -27.6120 C   0  0  0  0  0  0  0  0  0  0  0  0
   -0.4120   21.5740  -27.8750 C   0  0  0  0  0  0  0  0  0  0  0  0
   -2.2517   19.2877  -24.8266 H   0  0  0  0  0  0  0  0  0  0  0  0
   -3.8362   19.2186  -25.6700 H   0  0  0  0  0  0  0  0  0  0  0  0
   -2.7554   17.7838  -25.6700 H   0  0  0  0  0  0  0  0  0  0  0  0
   -1.7878   21.0638  -24.7830 H   0  0  0  0  0  0  0  0  0  0  0  0
   -0.5281   23.1629  -24.3209 H   0  0  0  0  0  0  0  0  0  0  0  0
    1.8019   24.3267  -25.2308 H   0  0  0  0  0  0  0  0  0  0  0  0
    1.6274   24.8465  -26.9474 H   0  0  0  0  0  0  0  0  0  0  0  0
   -0.8433   27.7802  -23.4558 H   0  0  0  0  0  0  0  0  0  0  0  0
   -2.4912   27.5118  -25.5604 H   0  0  0  0  0  0  0  0  0  0  0  0
   -2.4990   23.8960  -26.5570 H   0  0  0  0  0  0  0  0  0  0  0  0
   -5.0400   24.7809  -27.6682 H   0  0  0  0  0  0  0  0  0  0  0  0
   -6.4806   24.0554  -29.5688 H   0  0  0  0  0  0  0  0  0  0  0  0
   -5.7242   20.0711  -31.9386 H   0  0  0  0  0  0  0  0  0  0  0  0
   -7.0254   19.5913  -30.7527 H   0  0  0  0  0  0  0  0  0  0  0  0
   -7.4006   20.0692  -33.7441 H   0  0  0  0  0  0  0  0  0  0  0  0
   -7.3707   18.4726  -32.8946 H   0  0  0  0  0  0  0  0  0  0  0  0
   -9.6763   19.6869  -33.4675 H   0  0  0  0  0  0  0  0  0  0  0  0
   -9.4209   18.7875  -31.9047 H   0  0  0  0  0  0  0  0  0  0  0  0
  -10.4591   21.3030  -32.0429 H   0  0  0  0  0  0  0  0  0  0  0  0
   -9.5167   20.6592  -30.6396 H   0  0  0  0  0  0  0  0  0  0  0  0
   -8.3472   22.2496  -32.9771 H   0  0  0  0  0  0  0  0  0  0  0  0
   -8.7327   22.9049  -31.3348 H   0  0  0  0  0  0  0  0  0  0  0  0
   -2.9952   22.5630  -31.6502 H   0  0  0  0  0  0  0  0  0  0  0  0
   -1.5484   23.3237  -29.7707 H   0  0  0  0  0  0  0  0  0  0  0  0
    0.8834   23.2248  -28.4128 H   0  0  0  0  0  0  0  0  0  0  0  0
   -0.3840   21.1284  -28.8803 H   0  0  0  0  0  0  0  0  0  0  0  0
  1  2  1  0
  2  3  2  0
  2  4  2  0
  2  5  1  0
  5  6  2  0
  6  7  1  0
  7  8  2  0
  8  9  1  0
  9 10  1  0
 10 11  1  0
 11 12  2  0
 12 13  1  0
 13 14  2  0
 14 15  1  0
 15 16  2  0
 15 17  1  0
 17 18  1  0
 18 19  2  0
 19 20  1  0
 20 21  2  0
 21 22  1  0
 22 23  2  0
 22 24  2  0
 22 25  1  0
 25 26  1  0
 26 27  1  0
 27 28  1  0
 28 29  1  0
 29 30  1  0
 21 31  1  0
 31 32  2  0
  8 33  1  0
 33 34  2  0
 34  5  1  0
 14 10  1  0
 32 18  1  0
 30 25  1  0
  1 35  1  0
  1 36  1  0
  1 37  1  0
  6 38  1  0
  7 39  1  0
  9 40  1  0
  9 41  1  0
 12 42  1  0
 13 43  1  0
 17 44  1  0
 19 45  1  0
 20 46  1  0
 26 47  1  0
 26 48  1  0
 27 49  1  0
 27 50  1  0
 28 51  1  0
 28 52  1  0
 29 53  1  0
 29 54  1  0
 30 55  1  0
 30 56  1  0
 31 57  1  0
 32 58  1  0
 33 59  1  0
 34 60  1  0
M  END
>  <UniqueID>  (14) 
14

>  <SMILES>  (14) 
CS(=O)(=O)c1ccc(Cn2nccc2C(=O)Nc2ccc(S(=O)(=O)N3CCCCC3)cc2)cc1

>  <Energy>  (14) 
99.41278581254032

>  <Genealogy>  (14) 
CS(=O)(=O)c1ccc(Cn2nccc2C(=O)Nc2ccc(S(=O)(=O)N3CCCCC3)cc2)cc1 (3D coordinates assigned)
CS(=O)(=O)c1ccc(Cn2nccc2C(=O)Nc2ccc(S(=O)(=O)N3CCCCC3)cc2)cc1 (nonaromatic ring conformer: 99.41278581254032 kcal/mol)

>  <smiles>  (14) 
CS(=O)(=O)c1ccc(Cn2nccc2C(=O)Nc2ccc(S(=O)(=O)N3CCCCC3)cc2)cc1

>  <score_type>  (14) 
oracle

>  <origin>  (14) 
adgpu

>  <m_score__min__energy>  (14) 
-10.15

>  <m_primary>  (14) 
energy

$$$$
14:0
     RDKit          3D

 59 62  0  0  0  0  0  0  0  0999 V2000
   -3.2120   15.8670  -34.8720 C   0  0  0  0  0  0  0  0  0  0  0  0
   -3.3050   17.2450  -34.3810 N   0  0  0  0  0  0  0  0  0  0  0  0
   -4.5320   17.7470  -33.7960 C   0  0  0  0  0  0  0  0  0  0  0  0
   -4.9690   17.3020  -32.5310 C   0  0  0  0  0  0  0  0  0  0  0  0
   -6.1490   17.7950  -31.9690 C   0  0  0  0  0  0  0  0  0  0  0  0
   -6.9180   18.7400  -32.6550 C   0  0  0  0  0  0  0  0  0  0  0  0
   -8.3890   19.3930  -31.9370 S   0  0  0  0  0  0  0  0  0  0  0  0
   -9.4460   19.4890  -33.0020 O   0  0  0  0  0  0  0  0  0  0  0  0
   -8.8800   18.4720  -30.8550 O   0  0  0  0  0  0  0  0  0  0  0  0
   -8.0690   20.9800  -31.2830 N   0  0  0  0  0  0  0  0  0  0  0  0
   -8.8240   21.9980  -32.0360 C   0  0  0  0  0  0  0  0  0  0  0  0
   -8.3360   23.4170  -31.6860 C   0  0  0  0  0  0  0  0  0  0  0  0
   -7.5310   23.4030  -30.5240 O   0  0  0  0  0  0  0  0  0  0  0  0
   -6.3430   22.6700  -30.7730 C   0  0  0  0  0  0  0  0  0  0  0  0
   -6.6300   21.2650  -31.3440 C   0  0  0  0  0  0  0  0  0  0  0  0
   -6.4910   19.1980  -33.9050 C   0  0  0  0  0  0  0  0  0  0  0  0
   -5.3130   18.7080  -34.4720 C   0  0  0  0  0  0  0  0  0  0  0  0
   -1.8920   18.2940  -34.5150 S   0  0  0  0  0  0  0  0  0  0  0  0
   -0.7280   17.4750  -33.9730 O   0  0  0  0  0  0  0  0  0  0  0  0
   -2.1630   19.6170  -33.3510 C   0  0  0  0  0  0  0  0  0  0  0  0
   -3.0860   20.6380  -33.6130 C   0  0  0  0  0  0  0  0  0  0  0  0
   -3.2770   21.6700  -32.6890 C   0  0  0  0  0  0  0  0  0  0  0  0
   -2.5530   21.6890  -31.4820 C   0  0  0  0  0  0  0  0  0  0  0  0
   -2.7330   22.7770  -30.4910 C   0  0  0  0  0  0  0  0  0  0  0  0
   -3.3870   23.8020  -30.8240 O   0  0  0  0  0  0  0  0  0  0  0  0
   -2.1840   22.6770  -29.1630 N   0  0  0  0  0  0  0  0  0  0  0  0
   -2.2640   23.7300  -28.1870 C   0  0  0  0  0  0  0  0  0  0  0  0
   -3.3970   23.8730  -27.3660 C   0  0  0  0  0  0  0  0  0  0  0  0
   -3.4740   24.9170  -26.4410 C   0  0  0  0  0  0  0  0  0  0  0  0
   -2.4290   25.8370  -26.3360 C   0  0  0  0  0  0  0  0  0  0  0  0
   -1.3050   25.7200  -27.1610 C   0  0  0  0  0  0  0  0  0  0  0  0
   -0.0060   26.8950  -27.0220 Cl  0  0  0  0  0  0  0  0  0  0  0  0
   -1.2230   24.6730  -28.0890 C   0  0  0  0  0  0  0  0  0  0  0  0
   -0.1030   24.5600  -28.9080 O   0  0  0  0  0  0  0  0  0  0  0  0
   -1.6250   20.6640  -31.2310 C   0  0  0  0  0  0  0  0  0  0  0  0
   -1.4380   19.6330  -32.1550 C   0  0  0  0  0  0  0  0  0  0  0  0
   -3.1653   15.1757  -34.0176 H   0  0  0  0  0  0  0  0  0  0  0  0
   -4.0965   15.6351  -35.4834 H   0  0  0  0  0  0  0  0  0  0  0  0
   -2.3043   15.7561  -35.4834 H   0  0  0  0  0  0  0  0  0  0  0  0
   -4.3739   16.5583  -31.9807 H   0  0  0  0  0  0  0  0  0  0  0  0
   -6.4751   17.4377  -30.9811 H   0  0  0  0  0  0  0  0  0  0  0  0
   -8.6852   21.8252  -33.1134 H   0  0  0  0  0  0  0  0  0  0  0  0
   -9.8875   21.9164  -31.7670 H   0  0  0  0  0  0  0  0  0  0  0  0
   -7.7474   23.8127  -32.5268 H   0  0  0  0  0  0  0  0  0  0  0  0
   -9.2134   24.0530  -31.4972 H   0  0  0  0  0  0  0  0  0  0  0  0
   -5.7288   23.2269  -31.4959 H   0  0  0  0  0  0  0  0  0  0  0  0
   -5.8190   22.5428  -29.8142 H   0  0  0  0  0  0  0  0  0  0  0  0
   -6.2947   21.2222  -32.3908 H   0  0  0  0  0  0  0  0  0  0  0  0
   -6.0890   20.5162  -30.7468 H   0  0  0  0  0  0  0  0  0  0  0  0
   -7.0866   19.9488  -34.4449 H   0  0  0  0  0  0  0  0  0  0  0  0
   -4.9901   19.0755  -35.4572 H   0  0  0  0  0  0  0  0  0  0  0  0
   -3.6629   20.6277  -34.5496 H   0  0  0  0  0  0  0  0  0  0  0  0
   -3.9976   22.4721  -32.9067 H   0  0  0  0  0  0  0  0  0  0  0  0
   -1.7280   21.7860  -28.8660 H   0  0  0  0  0  0  0  0  0  0  0  0
   -4.2282   23.1578  -27.4529 H   0  0  0  0  0  0  0  0  0  0  0  0
   -4.3588   25.0144  -25.7947 H   0  0  0  0  0  0  0  0  0  0  0  0
   -2.4895   26.6553  -25.6034 H   0  0  0  0  0  0  0  0  0  0  0  0
   -1.0408   20.6735  -30.2990 H   0  0  0  0  0  0  0  0  0  0  0  0
   -0.7172   18.8301  -31.9409 H   0  0  0  0  0  0  0  0  0  0  0  0
  1  2  1  0
  2  3  1  0
  3  4  2  0
  4  5  1  0
  5  6  2  0
  6  7  1  0
  7  8  2  0
  7  9  2  0
  7 10  1  0
 10 11  1  0
 11 12  1  0
 12 13  1  0
 13 14  1  0
 14 15  1  0
  6 16  1  0
 16 17  2  0
 18  2  1  1
 18 19  2  0
 18 20  1  0
 20 21  2  0
 21 22  1  0
 22 23  2  0
 23 24  1  0
 24 25  2  0
 24 26  1  0
 26 27  1  0
 27 28  2  0
 28 29  1  0
 29 30  2  0
 30 31  1  0
 31 32  1  0
 31 33  2  0
 33 34  1  0
 23 35  1  0
 35 36  2  0
 17  3  1  0
 36 20  1  0
 15 10  1  0
 33 27  1  0
  1 37  1  0
  1 38  1  0
  1 39  1  0
  4 40  1  0
  5 41  1  0
 11 42  1  0
 11 43  1  0
 12 44  1  0
 12 45  1  0
 14 46  1  0
 14 47  1  0
 15 48  1  0
 15 49  1  0
 16 50  1  0
 17 51  1  0
 21 52  1  0
 22 53  1  0
 26 54  1  0
 28 55  1  0
 29 56  1  0
 30 57  1  0
 35 58  1  0
 36 59  1  0
M  CHG  1  34  -1
M  END
>  <UniqueID>  (15) 
15

>  <SMILES>  (15) 
CN(c1ccc(S(=O)(=O)N2CCOCC2)cc1)[S@](=O)c1ccc(C(=O)Nc2cccc(Cl)c2[O-])cc1

>  <Energy>  (15) 
81.04495346179405

>  <Genealogy>  (15) 
CN(c1ccc(S(=O)(=O)N2CCOCC2)cc1)S(=O)c1ccc(C(=O)Nc2cccc(Cl)c2[O-])cc1 (protonated)
CN(c1ccc(S(=O)(=O)N2CCOCC2)cc1)[S@](=O)c1ccc(C(=O)Nc2cccc(Cl)c2[O-])cc1 (chirality)
CN(c1ccc(S(=O)(=O)N2CCOCC2)cc1)[S@](=O)c1ccc(C(=O)Nc2cccc(Cl)c2[O-])cc1 (3D coordinates assigned)
CN(c1ccc(S(=O)(=O)N2CCOCC2)cc1)[S@](=O)c1ccc(C(=O)Nc2cccc(Cl)c2[O-])cc1 (nonaromatic ring conformer: 81.04495346179405 kcal/mol)

>  <smiles>  (15) 
CN(c1ccc(S(=O)(=O)N2CCOCC2)cc1)S(=O)c1ccc(C(=O)Nc2cccc(Cl)c2O)cc1

>  <score_type>  (15) 
oracle

>  <origin>  (15) 
adgpu

>  <m_score__min__energy>  (15) 
-12.17

>  <m_primary>  (15) 
energy

$$$$
15:0
     RDKit          3D

 46 48  0  0  0  0  0  0  0  0999 V2000
   -5.8340   19.0140  -33.6620 C   0  0  0  0  0  0  0  0  0  0  0  0
   -5.7570   20.3060  -32.8950 C   0  0  0  0  0  0  0  0  0  0  0  0
   -6.9540   20.8530  -32.4050 C   0  0  0  0  0  0  0  0  0  0  0  0
   -6.9490   22.0230  -31.6520 C   0  0  0  0  0  0  0  0  0  0  0  0
   -5.7510   22.6730  -31.3620 C   0  0  0  0  0  0  0  0  0  0  0  0
   -5.7910   23.7920  -30.4640 N   0  0  0  0  0  0  0  0  0  0  0  0
   -5.1360   25.0550  -30.6620 C   0  0  0  0  0  0  0  0  0  0  0  0
   -5.7390   25.9590  -31.2960 O   0  0  0  0  0  0  0  0  0  0  0  0
   -3.8040   25.3050  -30.1940 N   0  0  0  0  0  0  0  0  0  0  0  0
   -3.0730   24.4950  -29.2620 C   0  0  0  0  0  0  0  0  0  0  0  0
   -3.6390   23.3310  -28.7110 C   0  0  0  0  0  0  0  0  0  0  0  0
   -2.8970   22.5400  -27.8300 C   0  0  0  0  0  0  0  0  0  0  0  0
   -1.5980   22.9140  -27.4760 C   0  0  0  0  0  0  0  0  0  0  0  0
   -1.0440   24.0870  -27.9940 C   0  0  0  0  0  0  0  0  0  0  0  0
   -1.7810   24.8810  -28.8800 C   0  0  0  0  0  0  0  0  0  0  0  0
   -1.2170   26.0450  -29.3910 O   0  0  0  0  0  0  0  0  0  0  0  0
   -4.5450   22.1920  -31.9190 C   0  0  0  0  0  0  0  0  0  0  0  0
   -3.3520   22.9070  -31.7710 O   0  0  0  0  0  0  0  0  0  0  0  0
   -4.5330   20.9890  -32.6580 C   0  0  0  0  0  0  0  0  0  0  0  0
   -2.9570   20.4200  -33.2680 S   0  0  0  0  0  0  0  0  0  0  0  0
   -2.1260   21.5220  -33.8630 O   0  0  0  0  0  0  0  0  0  0  0  0
   -3.2290   19.4100  -34.3480 O   0  0  0  0  0  0  0  0  0  0  0  0
   -2.0710   19.6470  -31.9700 N   0  0  0  0  0  0  0  0  0  0  0  0
   -1.7860   20.5830  -30.8660 C   0  0  0  0  0  0  0  0  0  0  0  0
   -0.6410   21.5670  -31.2050 C   0  0  0  0  0  0  0  0  0  0  0  0
    0.1480   21.1620  -32.3100 O   0  0  0  0  0  0  0  0  0  0  0  0
    0.4270   19.7820  -32.2260 C   0  0  0  0  0  0  0  0  0  0  0  0
   -0.8540   18.9630  -32.4610 C   0  0  0  0  0  0  0  0  0  0  0  0
   -5.8842   18.1713  -32.9567 H   0  0  0  0  0  0  0  0  0  0  0  0
   -6.7336   19.0164  -34.2950 H   0  0  0  0  0  0  0  0  0  0  0  0
   -4.9405   18.9096  -34.2950 H   0  0  0  0  0  0  0  0  0  0  0  0
   -7.9083   20.3497  -32.6194 H   0  0  0  0  0  0  0  0  0  0  0  0
   -7.8983   22.4382  -31.2827 H   0  0  0  0  0  0  0  0  0  0  0  0
   -4.6675   23.0430  -28.9742 H   0  0  0  0  0  0  0  0  0  0  0  0
   -3.3363   21.6212  -27.4143 H   0  0  0  0  0  0  0  0  0  0  0  0
   -1.0120   22.2850  -26.7897 H   0  0  0  0  0  0  0  0  0  0  0  0
   -0.0261   24.3873  -27.7049 H   0  0  0  0  0  0  0  0  0  0  0  0
   -3.3110   23.8340  -31.3690 H   0  0  0  0  0  0  0  0  0  0  0  0
   -2.6962   21.1617  -30.6501 H   0  0  0  0  0  0  0  0  0  0  0  0
   -1.4695   19.9882  -29.9965 H   0  0  0  0  0  0  0  0  0  0  0  0
   -1.0824   22.5481  -31.4342 H   0  0  0  0  0  0  0  0  0  0  0  0
    0.0242   21.6009  -30.3296 H   0  0  0  0  0  0  0  0  0  0  0  0
    1.1732   19.5155  -32.9891 H   0  0  0  0  0  0  0  0  0  0  0  0
    0.8170   19.5562  -31.2225 H   0  0  0  0  0  0  0  0  0  0  0  0
   -0.9632   18.7837  -33.5408 H   0  0  0  0  0  0  0  0  0  0  0  0
   -0.7534   18.0228  -31.8990 H   0  0  0  0  0  0  0  0  0  0  0  0
  1  2  1  0
  2  3  2  0
  3  4  1  0
  4  5  2  0
  5  6  1  0
  6  7  1  0
  7  8  2  0
  7  9  1  0
  9 10  1  0
 10 11  2  0
 11 12  1  0
 12 13  2  0
 13 14  1  0
 14 15  2  0
 15 16  1  0
  5 17  1  0
 17 18  1  0
 17 19  2  0
 19 20  1  0
 20 21  2  0
 20 22  2  0
 20 23  1  0
 23 24  1  0
 24 25  1  0
 25 26  1  0
 26 27  1  0
 27 28  1  0
 19  2  1  0
 28 23  1  0
 15 10  1  0
  1 29  1  0
  1 30  1  0
  1 31  1  0
  3 32  1  0
  4 33  1  0
 11 34  1  0
 12 35  1  0
 13 36  1  0
 14 37  1  0
 18 38  1  0
 24 39  1  0
 24 40  1  0
 25 41  1  0
 25 42  1  0
 27 43  1  0
 27 44  1  0
 28 45  1  0
 28 46  1  0
M  CHG  3   6  -1   9  -1  16  -1
M  END
>  <UniqueID>  (16) 
16

>  <SMILES>  (16) 
Cc1ccc([N-]C(=O)[N-]c2ccccc2[O-])c(O)c1S(=O)(=O)N1CCOCC1

>  <Energy>  (16) 
72.10947370695389

>  <Genealogy>  (16) 
Cc1ccc([N-]C(=O)[N-]c2ccccc2[O-])c(O)c1S(=O)(=O)N1CCOCC1 (protonated)
Cc1ccc([N-]C(=O)[N-]c2ccccc2[O-])c(O)c1S(=O)(=O)N1CCOCC1 (3D coordinates assigned)
Cc1ccc([N-]C(=O)[N-]c2ccccc2[O-])c(O)c1S(=O)(=O)N1CCOCC1 (nonaromatic ring conformer: 72.10947370695389 kcal/mol)

>  <smiles>  (16) 
Cc1ccc(NC(=O)Nc2ccccc2O)c(O)c1S(=O)(=O)N1CCOCC1

>  <score_type>  (16) 
oracle

>  <origin>  (16) 
adgpu

>  <m_score__min__energy>  (16) 
-14.65

>  <m_primary>  (16) 
energy

$$$$
16:0
     RDKit          3D

 55 58  0  0  0  0  0  0  0  0999 V2000
   -2.7070   15.4060  -34.7190 C   0  0  0  0  0  0  0  0  0  0  0  0
   -3.4430   16.6720  -34.3960 C   0  0  0  0  0  0  0  0  0  0  0  0
   -2.9190   17.9540  -34.4180 C   0  0  0  0  0  0  0  0  0  0  0  0
   -1.5530   18.3170  -34.6250 N   0  0  0  0  0  0  0  0  0  0  0  0
   -0.4660   18.5210  -33.2880 S   0  0  0  0  0  0  0  0  0  0  0  0
   -0.3440   17.2190  -32.5450 O   0  0  0  0  0  0  0  0  0  0  0  0
    0.8870   18.9140  -33.8100 O   0  0  0  0  0  0  0  0  0  0  0  0
   -1.0630   19.7530  -32.1740 C   0  0  0  0  0  0  0  0  0  0  0  0
   -1.6210   20.9410  -32.6570 C   0  0  0  0  0  0  0  0  0  0  0  0
   -2.2100   21.8500  -31.7760 C   0  0  0  0  0  0  0  0  0  0  0  0
   -2.2320   21.5970  -30.3920 C   0  0  0  0  0  0  0  0  0  0  0  0
   -2.9550   22.4820  -29.5170 N   0  0  0  0  0  0  0  0  0  0  0  0
   -4.0690   23.2900  -29.9390 C   0  0  0  0  0  0  0  0  0  0  0  0
   -5.2930   22.6980  -30.2980 C   0  0  0  0  0  0  0  0  0  0  0  0
   -6.3640   23.4900  -30.7320 C   0  0  0  0  0  0  0  0  0  0  0  0
   -7.8840   22.7380  -31.1820 Cl  0  0  0  0  0  0  0  0  0  0  0  0
   -6.2170   24.8760  -30.8230 C   0  0  0  0  0  0  0  0  0  0  0  0
   -5.0020   25.4710  -30.4840 C   0  0  0  0  0  0  0  0  0  0  0  0
   -3.9260   24.6860  -30.0480 C   0  0  0  0  0  0  0  0  0  0  0  0
   -2.7230   25.2990  -29.7150 O   0  0  0  0  0  0  0  0  0  0  0  0
   -1.6420   20.4110  -29.8950 C   0  0  0  0  0  0  0  0  0  0  0  0
   -1.6110   20.1230  -28.4850 N   0  0  0  0  0  0  0  0  0  0  0  0
   -0.7190   19.3920  -28.0070 O   0  0  0  0  0  0  0  0  0  0  0  0
   -2.6700   20.4880  -27.6830 O   0  0  0  0  0  0  0  0  0  0  0  0
   -1.0650   19.4980  -30.7950 C   0  0  0  0  0  0  0  0  0  0  0  0
   -3.9460   18.7660  -33.9910 C   0  0  0  0  0  0  0  0  0  0  0  0
   -3.8870   20.0170  -33.8420 O   0  0  0  0  0  0  0  0  0  0  0  0
   -5.0320   18.0140  -33.7210 N   0  0  0  0  0  0  0  0  0  0  0  0
   -6.2460   18.4890  -33.1120 C   0  0  0  0  0  0  0  0  0  0  0  0
   -6.8370   17.7710  -32.0630 C   0  0  0  0  0  0  0  0  0  0  0  0
   -8.0300   18.2200  -31.4920 C   0  0  0  0  0  0  0  0  0  0  0  0
   -8.6430   19.3820  -31.9710 C   0  0  0  0  0  0  0  0  0  0  0  0
   -8.0690   20.0920  -33.0280 C   0  0  0  0  0  0  0  0  0  0  0  0
   -6.8800   19.6440  -33.6010 C   0  0  0  0  0  0  0  0  0  0  0  0
   -4.7340   16.7440  -33.9880 N   0  0  0  0  0  0  0  0  0  0  0  0
   -5.6410   15.6040  -33.8290 C   0  0  0  0  0  0  0  0  0  0  0  0
   -2.4148   14.9033  -33.7852 H   0  0  0  0  0  0  0  0  0  0  0  0
   -3.3596   14.7416  -35.3044 H   0  0  0  0  0  0  0  0  0  0  0  0
   -1.8067   15.6444  -35.3044 H   0  0  0  0  0  0  0  0  0  0  0  0
   -1.1240   18.1110  -35.5550 H   0  0  0  0  0  0  0  0  0  0  0  0
   -1.5957   21.1600  -33.7347 H   0  0  0  0  0  0  0  0  0  0  0  0
   -2.6615   22.7734  -32.1678 H   0  0  0  0  0  0  0  0  0  0  0  0
   -2.6910   22.4880  -28.5060 H   0  0  0  0  0  0  0  0  0  0  0  0
   -5.4103   21.6059  -30.2377 H   0  0  0  0  0  0  0  0  0  0  0  0
   -7.0588   25.4978  -31.1618 H   0  0  0  0  0  0  0  0  0  0  0  0
   -4.8876   26.5624  -30.5593 H   0  0  0  0  0  0  0  0  0  0  0  0
   -0.6096   18.5725  -30.4129 H   0  0  0  0  0  0  0  0  0  0  0  0
   -6.3606   16.8528  -31.6891 H   0  0  0  0  0  0  0  0  0  0  0  0
   -8.4880   17.6587  -30.6643 H   0  0  0  0  0  0  0  0  0  0  0  0
   -9.5786   19.7374  -31.5147 H   0  0  0  0  0  0  0  0  0  0  0  0
   -8.5545   21.0032  -33.4076 H   0  0  0  0  0  0  0  0  0  0  0  0
   -6.4352   20.1978  -34.4410 H   0  0  0  0  0  0  0  0  0  0  0  0
   -5.7979   15.4068  -32.7582 H   0  0  0  0  0  0  0  0  0  0  0  0
   -6.6058   15.8339  -34.3047 H   0  0  0  0  0  0  0  0  0  0  0  0
   -5.2001   14.7155  -34.3047 H   0  0  0  0  0  0  0  0  0  0  0  0
  1  2  1  0
  2  3  2  0
  3  4  1  0
  4  5  1  0
  5  6  2  0
  5  7  2  0
  5  8  1  0
  8  9  2  0
  9 10  1  0
 10 11  2  0
 11 12  1  0
 12 13  1  0
 13 14  2  0
 14 15  1  0
 15 16  1  0
 15 17  2  0
 17 18  1  0
 18 19  2  0
 19 20  1  0
 11 21  1  0
 21 22  1  0
 22 23  2  0
 22 24  1  0
 21 25  2  0
  3 26  1  0
 26 27  2  0
 26 28  1  0
 28 29  1  0
 29 30  2  0
 30 31  1  0
 31 32  2  0
 32 33  1  0
 33 34  2  0
 28 35  1  0
 35 36  1  0
 35  2  1  0
 25  8  1  0
 34 29  1  0
 19 13  1  0
  1 37  1  0
  1 38  1  0
  1 39  1  0
  4 40  1  0
  9 41  1  0
 10 42  1  0
 12 43  1  0
 14 44  1  0
 17 45  1  0
 18 46  1  0
 25 47  1  0
 30 48  1  0
 31 49  1  0
 32 50  1  0
 33 51  1  0
 34 52  1  0
 36 53  1  0
 36 54  1  0
 36 55  1  0
M  CHG  3  20  -1  22   1  24  -1
M  END
>  <UniqueID>  (17) 
17

>  <SMILES>  (17) 
Cc1c(NS(=O)(=O)c2ccc(Nc3cc(Cl)ccc3[O-])c([N+](=O)[O-])c2)c(=O)n(-c2ccccc2)n1C

>  <Energy>  (17) 
114.84942525989139

>  <Genealogy>  (17) 
Cc1c(NS(=O)(=O)c2ccc(Nc3cc(Cl)ccc3[O-])c([N+](=O)[O-])c2)c(=O)n(-c2ccccc2)n1C (protonated)
Cc1c(NS(=O)(=O)c2ccc(Nc3cc(Cl)ccc3[O-])c([N+](=O)[O-])c2)c(=O)n(-c2ccccc2)n1C (3D coordinates assigned)
Cc1c(NS(=O)(=O)c2ccc(Nc3cc(Cl)ccc3[O-])c([N+](=O)[O-])c2)c(=O)n(-c2ccccc2)n1C (optimized conformer: 114.84942525989139 kcal/mol)

>  <smiles>  (17) 
Cc1c(NS(=O)(=O)c2ccc(Nc3cc(Cl)ccc3O)c([N+](=O)[O-])c2)c(=O)n(-c2ccccc2)n1C

>  <score_type>  (17) 
oracle

>  <origin>  (17) 
adgpu

>  <m_score__min__energy>  (17) 
-14.449999999999999

>  <m_primary>  (17) 
energy

$$$$
17:0
     RDKit          3D

 48 50  0  0  0  0  0  0  0  0999 V2000
   -9.4430   20.5510  -32.1460 C   0  0  0  0  0  0  0  0  0  0  0  0
   -8.1180   20.8500  -32.5710 O   0  0  0  0  0  0  0  0  0  0  0  0
   -7.3550   21.9320  -32.1040 C   0  0  0  0  0  0  0  0  0  0  0  0
   -7.9540   23.1110  -31.6260 C   0  0  0  0  0  0  0  0  0  0  0  0
   -7.1710   24.1660  -31.1550 C   0  0  0  0  0  0  0  0  0  0  0  0
   -5.7700   24.0660  -31.1470 C   0  0  0  0  0  0  0  0  0  0  0  0
   -4.9380   25.1830  -30.6410 C   0  0  0  0  0  0  0  0  0  0  0  0
   -5.4660   26.2990  -30.3820 O   0  0  0  0  0  0  0  0  0  0  0  0
   -3.5250   25.0090  -30.4650 N   0  0  0  0  0  0  0  0  0  0  0  0
   -2.9250   24.3770  -29.3270 C   0  0  0  0  0  0  0  0  0  0  0  0
   -3.5320   23.2230  -28.8120 C   0  0  0  0  0  0  0  0  0  0  0  0
   -2.9640   22.5480  -27.7300 C   0  0  0  0  0  0  0  0  0  0  0  0
   -1.7910   23.0260  -27.1450 C   0  0  0  0  0  0  0  0  0  0  0  0
   -1.1940   24.1930  -27.6280 C   0  0  0  0  0  0  0  0  0  0  0  0
   -1.7610   24.8890  -28.7070 C   0  0  0  0  0  0  0  0  0  0  0  0
   -1.1820   26.1360  -29.1130 N   0  0  0  0  0  0  0  0  0  0  0  0
   -5.1700   22.8890  -31.6250 C   0  0  0  0  0  0  0  0  0  0  0  0
   -5.9520   21.8290  -32.1090 C   0  0  0  0  0  0  0  0  0  0  0  0
   -5.1720   20.3530  -32.6920 S   0  0  0  0  0  0  0  0  0  0  0  0
   -4.4590   19.6860  -31.5480 O   0  0  0  0  0  0  0  0  0  0  0  0
   -4.1440   20.7350  -33.7220 O   0  0  0  0  0  0  0  0  0  0  0  0
   -6.4050   19.2970  -33.3740 N   0  0  0  0  0  0  0  0  0  0  0  0
   -5.9830   18.6900  -34.6520 C   0  0  0  0  0  0  0  0  0  0  0  0
   -5.0280   17.5100  -34.4290 C   0  0  0  0  0  0  0  0  0  0  0  0
   -5.6320   16.5350  -33.6050 O   0  0  0  0  0  0  0  0  0  0  0  0
   -5.8760   17.0860  -32.3270 C   0  0  0  0  0  0  0  0  0  0  0  0
   -6.8580   18.2680  -32.4140 C   0  0  0  0  0  0  0  0  0  0  0  0
   -9.4823   20.5421  -31.0467 H   0  0  0  0  0  0  0  0  0  0  0  0
  -10.1331   21.3160  -32.5314 H   0  0  0  0  0  0  0  0  0  0  0  0
   -9.7377   19.5638  -32.5314 H   0  0  0  0  0  0  0  0  0  0  0  0
   -9.0502   23.2027  -31.6233 H   0  0  0  0  0  0  0  0  0  0  0  0
   -7.6548   25.0829  -30.7872 H   0  0  0  0  0  0  0  0  0  0  0  0
   -4.4619   22.8469  -29.2634 H   0  0  0  0  0  0  0  0  0  0  0  0
   -3.4419   21.6380  -27.3381 H   0  0  0  0  0  0  0  0  0  0  0  0
   -1.3360   22.4837  -26.3030 H   0  0  0  0  0  0  0  0  0  0  0  0
   -0.2727   24.5692  -27.1592 H   0  0  0  0  0  0  0  0  0  0  0  0
   -0.6130   26.7160  -28.4590 H   0  0  0  0  0  0  0  0  0  0  0  0
   -1.2370   26.4460  -30.1080 H   0  0  0  0  0  0  0  0  0  0  0  0
   -4.0738   22.7972  -31.6198 H   0  0  0  0  0  0  0  0  0  0  0  0
   -7.2300   19.9070  -33.5820 H   0  0  0  0  0  0  0  0  0  0  0  0
   -6.8740   18.3316  -35.1883 H   0  0  0  0  0  0  0  0  0  0  0  0
   -5.4530   19.4554  -35.2379 H   0  0  0  0  0  0  0  0  0  0  0  0
   -4.7772   17.0585  -35.4002 H   0  0  0  0  0  0  0  0  0  0  0  0
   -4.1162   17.8780  -33.9357 H   0  0  0  0  0  0  0  0  0  0  0  0
   -6.3046   16.3095  -31.6764 H   0  0  0  0  0  0  0  0  0  0  0  0
   -4.9236   17.4513  -31.9153 H   0  0  0  0  0  0  0  0  0  0  0  0
   -7.8399   17.8906  -32.7355 H   0  0  0  0  0  0  0  0  0  0  0  0
   -6.9162   18.7344  -31.4195 H   0  0  0  0  0  0  0  0  0  0  0  0
  1  2  1  0
  2  3  1  0
  3  4  2  0
  4  5  1  0
  5  6  2  0
  6  7  1  0
  7  8  2  0
  7  9  1  0
  9 10  1  0
 10 11  2  0
 11 12  1  0
 12 13  2  0
 13 14  1  0
 14 15  2  0
 15 16  1  0
  6 17  1  0
 17 18  2  0
 18 19  1  0
 19 20  2  0
 19 21  2  0
 19 22  1  0
 22 23  1  0
 23 24  1  0
 24 25  1  0
 25 26  1  0
 26 27  1  0
 18  3  1  0
 27 22  1  0
 15 10  1  0
  1 28  1  0
  1 29  1  0
  1 30  1  0
  4 31  1  0
  5 32  1  0
 11 33  1  0
 12 34  1  0
 13 35  1  0
 14 36  1  0
 16 37  1  0
 16 38  1  0
 17 39  1  0
 22 40  1  0
 23 41  1  0
 23 42  1  0
 24 43  1  0
 24 44  1  0
 26 45  1  0
 26 46  1  0
 27 47  1  0
 27 48  1  0
M  CHG  2   9  -1  22   1
M  END
>  <UniqueID>  (18) 
18

>  <SMILES>  (18) 
COc1ccc(C(=O)[N-]c2ccccc2N)cc1S(=O)(=O)[NH+]1CCOCC1

>  <Energy>  (18) 
62.401161408450754

>  <Genealogy>  (18) 
COc1ccc(C(=O)[N-]c2ccccc2N)cc1S(=O)(=O)[NH+]1CCOCC1 (protonated)
COc1ccc(C(=O)[N-]c2ccccc2N)cc1S(=O)(=O)[NH+]1CCOCC1 (3D coordinates assigned)
COc1ccc(C(=O)[N-]c2ccccc2N)cc1S(=O)(=O)[NH+]1CCOCC1 (nonaromatic ring conformer: 62.401161408450754 kcal/mol)

>  <smiles>  (18) 
COc1ccc(C(=O)Nc2ccccc2N)cc1S(=O)(=O)N1CCOCC1

>  <score_type>  (18) 
oracle

>  <origin>  (18) 
adgpu

>  <m_score__min__energy>  (18) 
-10.65

>  <m_primary>  (18) 
energy

$$$$
18:0
     RDKit          3D

 31 33  0  0  0  0  0  0  0  0999 V2000
   -5.6280   26.2860  -30.3870 O   0  0  0  0  0  0  0  0  0  0  0  0
   -4.9710   25.2340  -30.6020 C   0  0  0  0  0  0  0  0  0  0  0  0
   -3.5480   25.2600  -30.4210 N   0  0  0  0  0  0  0  0  0  0  0  0
   -2.8160   24.6600  -29.3430 C   0  0  0  0  0  0  0  0  0  0  0  0
   -3.4680   23.7310  -28.5180 C   0  0  0  0  0  0  0  0  0  0  0  0
   -2.7880   23.1240  -27.4570 C   0  0  0  0  0  0  0  0  0  0  0  0
   -1.4460   23.4340  -27.2240 C   0  0  0  0  0  0  0  0  0  0  0  0
   -0.7720   24.3180  -28.0760 C   0  0  0  0  0  0  0  0  0  0  0  0
   -1.4530   24.9360  -29.1280 C   0  0  0  0  0  0  0  0  0  0  0  0
    0.5870   24.5700  -27.8570 O   0  0  0  0  0  0  0  0  0  0  0  0
    1.3560   23.7520  -26.9720 C   0  0  0  0  0  0  0  0  0  0  0  0
    0.5200   23.3690  -25.7420 C   0  0  0  0  0  0  0  0  0  0  0  0
   -0.7550   22.8650  -26.1490 O   0  0  0  0  0  0  0  0  0  0  0  0
   -5.6880   24.0170  -31.0430 C   0  0  0  0  0  0  0  0  0  0  0  0
   -7.0740   23.9380  -30.8350 C   0  0  0  0  0  0  0  0  0  0  0  0
   -7.7610   22.7750  -31.1820 C   0  0  0  0  0  0  0  0  0  0  0  0
   -7.0930   21.7240  -31.7260 N   0  0  0  0  0  0  0  0  0  0  0  0
   -5.7560   21.7740  -31.9600 C   0  0  0  0  0  0  0  0  0  0  0  0
   -5.0240   22.9240  -31.6460 C   0  0  0  0  0  0  0  0  0  0  0  0
   -3.6660   22.9560  -31.9690 O   0  0  0  0  0  0  0  0  0  0  0  0
   -4.5217   23.4782  -28.7070 H   0  0  0  0  0  0  0  0  0  0  0  0
   -3.3086   22.4045  -26.8079 H   0  0  0  0  0  0  0  0  0  0  0  0
   -0.9235   25.6385  -29.7883 H   0  0  0  0  0  0  0  0  0  0  0  0
    1.6660   22.8379  -27.4995 H   0  0  0  0  0  0  0  0  0  0  0  0
    2.2420   24.3145  -26.6425 H   0  0  0  0  0  0  0  0  0  0  0  0
    1.0507   22.5946  -25.1687 H   0  0  0  0  0  0  0  0  0  0  0  0
    0.3703   24.2621  -25.1175 H   0  0  0  0  0  0  0  0  0  0  0  0
   -7.6163   24.7904  -30.3999 H   0  0  0  0  0  0  0  0  0  0  0  0
   -8.8462   22.7083  -31.0150 H   0  0  0  0  0  0  0  0  0  0  0  0
   -5.2454   20.9044  -32.3994 H   0  0  0  0  0  0  0  0  0  0  0  0
   -3.1160   23.8040  -31.9490 H   0  0  0  0  0  0  0  0  0  0  0  0
  1  2  2  0
  2  3  1  0
  3  4  1  0
  4  5  2  0
  5  6  1  0
  6  7  2  0
  7  8  1  0
  8  9  2  0
  8 10  1  0
 10 11  1  0
 11 12  1  0
 12 13  1  0
  2 14  1  0
 14 15  2  0
 15 16  1  0
 16 17  2  0
 17 18  1  0
 18 19  2  0
 19 20  1  0
  9  4  1  0
 19 14  1  0
 13  7  1  0
  5 21  1  0
  6 22  1  0
  9 23  1  0
 11 24  1  0
 11 25  1  0
 12 26  1  0
 12 27  1  0
 15 28  1  0
 16 29  1  0
 18 30  1  0
 20 31  1  0
M  CHG  1   3  -1
M  END
>  <UniqueID>  (19) 
19

>  <SMILES>  (19) 
O=C([N-]c1ccc2c(c1)OCCO2)c1ccncc1O

>  <Energy>  (19) 
44.37787074400522

>  <Genealogy>  (19) 
O=C([N-]c1ccc2c(c1)OCCO2)c1ccncc1O (protonated)
O=C([N-]c1ccc2c(c1)OCCO2)c1ccncc1O (3D coordinates assigned)
O=C([N-]c1ccc2c(c1)OCCO2)c1ccncc1O (nonaromatic ring conformer: 44.37787074400522 kcal/mol)

>  <smiles>  (19) 
O=C(Nc1ccc2c(c1)OCCO2)c1ccncc1O

>  <score_type>  (19) 
oracle

>  <origin>  (19) 
adgpu

>  <m_score__min__energy>  (19) 
-8.1999999999999993

>  <m_primary>  (19) 
energy

$$$$
19:0
     RDKit          3D

 55 58  0  0  0  0  0  0  0  0999 V2000
   -0.4970   21.5940  -33.9770 O   0  0  0  0  0  0  0  0  0  0  0  0
   -1.5660   21.0640  -33.5690 C   0  0  0  0  0  0  0  0  0  0  0  0
   -2.3430   20.2940  -34.4970 N   0  0  0  0  0  0  0  0  0  0  0  0
   -3.0930   19.1050  -34.2050 C   0  0  0  0  0  0  0  0  0  0  0  0
   -2.5960   17.8250  -34.5060 C   0  0  0  0  0  0  0  0  0  0  0  0
   -3.3510   16.6900  -34.2030 C   0  0  0  0  0  0  0  0  0  0  0  0
   -4.5930   16.8200  -33.5780 C   0  0  0  0  0  0  0  0  0  0  0  0
   -5.0820   18.0890  -33.2390 C   0  0  0  0  0  0  0  0  0  0  0  0
   -6.6370   18.2520  -32.4160 S   0  0  0  0  0  0  0  0  0  0  0  0
   -6.4160   18.2230  -30.9280 O   0  0  0  0  0  0  0  0  0  0  0  0
   -7.5140   17.0870  -32.7790 O   0  0  0  0  0  0  0  0  0  0  0  0
   -7.4460   19.7390  -32.8540 N   0  0  0  0  0  0  0  0  0  0  0  0
   -6.6950   20.9270  -32.3930 C   0  0  0  0  0  0  0  0  0  0  0  0
   -7.3520   21.5850  -31.1640 C   0  0  0  0  0  0  0  0  0  0  0  0
   -8.6960   21.9870  -31.3900 O   0  0  0  0  0  0  0  0  0  0  0  0
   -9.4030   21.1520  -32.2970 C   0  0  0  0  0  0  0  0  0  0  0  0
   -8.8470   19.7210  -32.3910 C   0  0  0  0  0  0  0  0  0  0  0  0
   -4.3270   19.2280  -33.5550 C   0  0  0  0  0  0  0  0  0  0  0  0
   -1.9500   21.2100  -32.1440 C   0  0  0  0  0  0  0  0  0  0  0  0
   -1.3930   20.3810  -31.1540 C   0  0  0  0  0  0  0  0  0  0  0  0
   -1.7610   20.5330  -29.8150 C   0  0  0  0  0  0  0  0  0  0  0  0
   -2.6750   21.5240  -29.4450 C   0  0  0  0  0  0  0  0  0  0  0  0
   -3.2240   22.3710  -30.4180 C   0  0  0  0  0  0  0  0  0  0  0  0
   -4.3290   23.6670  -29.9680 S   0  0  0  0  0  0  0  0  0  0  0  0
   -5.5570   23.1220  -29.2900 O   0  0  0  0  0  0  0  0  0  0  0  0
   -4.7480   24.4000  -31.2100 O   0  0  0  0  0  0  0  0  0  0  0  0
   -3.5140   24.7630  -28.9000 N   0  0  0  0  0  0  0  0  0  0  0  0
   -2.2920   24.4690  -28.2070 C   0  0  0  0  0  0  0  0  0  0  0  0
   -2.1980   23.4040  -27.2900 C   0  0  0  0  0  0  0  0  0  0  0  0
   -0.9870   23.1320  -26.6460 C   0  0  0  0  0  0  0  0  0  0  0  0
   -0.8770   21.7930  -25.5180 Cl  0  0  0  0  0  0  0  0  0  0  0  0
    0.1380   23.9200  -26.9120 C   0  0  0  0  0  0  0  0  0  0  0  0
    0.0500   24.9840  -27.8120 C   0  0  0  0  0  0  0  0  0  0  0  0
   -1.1610   25.2630  -28.4550 C   0  0  0  0  0  0  0  0  0  0  0  0
   -1.2340   26.3300  -29.3440 O   0  0  0  0  0  0  0  0  0  0  0  0
   -2.8580   22.2140  -31.7620 C   0  0  0  0  0  0  0  0  0  0  0  0
   -1.6099   17.7172  -34.9814 H   0  0  0  0  0  0  0  0  0  0  0  0
   -2.9665   15.6912  -34.4572 H   0  0  0  0  0  0  0  0  0  0  0  0
   -5.1892   15.9239  -33.3511 H   0  0  0  0  0  0  0  0  0  0  0  0
   -5.6728   20.6197  -32.1272 H   0  0  0  0  0  0  0  0  0  0  0  0
   -6.6897   21.6634  -33.2101 H   0  0  0  0  0  0  0  0  0  0  0  0
   -7.3388   20.8638  -30.3336 H   0  0  0  0  0  0  0  0  0  0  0  0
   -6.7755   22.4934  -30.9350 H   0  0  0  0  0  0  0  0  0  0  0  0
  -10.4516   21.0951  -31.9697 H   0  0  0  0  0  0  0  0  0  0  0  0
   -9.2954   21.6021  -33.2949 H   0  0  0  0  0  0  0  0  0  0  0  0
   -8.8940   19.2487  -31.3987 H   0  0  0  0  0  0  0  0  0  0  0  0
   -9.4520   19.1514  -33.1118 H   0  0  0  0  0  0  0  0  0  0  0  0
   -4.7073   20.2256  -33.2901 H   0  0  0  0  0  0  0  0  0  0  0  0
   -0.6629   19.6080  -31.4358 H   0  0  0  0  0  0  0  0  0  0  0  0
   -1.3303   19.8709  -29.0494 H   0  0  0  0  0  0  0  0  0  0  0  0
   -2.9636   21.6393  -28.3898 H   0  0  0  0  0  0  0  0  0  0  0  0
   -3.0814   22.7833  -27.0795 H   0  0  0  0  0  0  0  0  0  0  0  0
    1.0929   23.7012  -26.4116 H   0  0  0  0  0  0  0  0  0  0  0  0
    0.9351   25.6045  -28.0160 H   0  0  0  0  0  0  0  0  0  0  0  0
   -3.2847   22.8819  -32.5247 H   0  0  0  0  0  0  0  0  0  0  0  0
  1  2  2  0
  2  3  1  0
  3  4  1  0
  4  5  2  0
  5  6  1  0
  6  7  2  0
  7  8  1  0
  8  9  1  0
  9 10  2  0
  9 11  2  0
  9 12  1  0
 12 13  1  0
 13 14  1  0
 14 15  1  0
 15 16  1  0
 16 17  1  0
  8 18  2  0
  2 19  1  0
 19 20  2  0
 20 21  1  0
 21 22  2  0
 22 23  1  0
 23 24  1  0
 24 25  2  0
 24 26  2  0
 24 27  1  0
 27 28  1  0
 28 29  2  0
 29 30  1  0
 30 31  1  0
 30 32  2  0
 32 33  1  0
 33 34  2  0
 34 35  1  0
 23 36  2  0
 18  4  1  0
 36 19  1  0
 17 12  1  0
 34 28  1  0
  5 37  1  0
  6 38  1  0
  7 39  1  0
 13 40  1  0
 13 41  1  0
 14 42  1  0
 14 43  1  0
 16 44  1  0
 16 45  1  0
 17 46  1  0
 17 47  1  0
 18 48  1  0
 20 49  1  0
 21 50  1  0
 22 51  1  0
 29 52  1  0
 32 53  1  0
 33 54  1  0
 36 55  1  0
M  CHG  3   3  -1  27  -1  35  -1
M  END
>  <UniqueID>  (20) 
20

>  <SMILES>  (20) 
O=C([N-]c1cccc(S(=O)(=O)N2CCOCC2)c1)c1cccc(S(=O)(=O)[N-]c2cc(Cl)ccc2[O-])c1

>  <Energy>  (20) 
80.69158494268733

>  <Genealogy>  (20) 
O=C([N-]c1cccc(S(=O)(=O)N2CCOCC2)c1)c1cccc(S(=O)(=O)[N-]c2cc(Cl)ccc2[O-])c1 (protonated)
O=C([N-]c1cccc(S(=O)(=O)N2CCOCC2)c1)c1cccc(S(=O)(=O)[N-]c2cc(Cl)ccc2[O-])c1 (3D coordinates assigned)
O=C([N-]c1cccc(S(=O)(=O)N2CCOCC2)c1)c1cccc(S(=O)(=O)[N-]c2cc(Cl)ccc2[O-])c1 (nonaromatic ring conformer: 80.69158494268733 kcal/mol)

>  <smiles>  (20) 
O=C(Nc1cccc(S(=O)(=O)N2CCOCC2)c1)c1cccc(S(=O)(=O)Nc2cc(Cl)ccc2O)c1

>  <score_type>  (20) 
oracle

>  <origin>  (20) 
adgpu

>  <m_score__min__energy>  (20) 
-14.869999999999999

>  <m_primary>  (20) 
energy

$$$$
20:0
     RDKit          3D

 63 66  0  0  0  0  0  0  0  0999 V2000
   -2.0020   24.9390  -28.3550 C   0  0  0  0  0  0  0  0  0  0  0  0
   -2.8680   25.2980  -29.4260 O   0  0  0  0  0  0  0  0  0  0  0  0
   -4.0060   24.5680  -29.8030 C   0  0  0  0  0  0  0  0  0  0  0  0
   -5.2290   25.2430  -29.8930 C   0  0  0  0  0  0  0  0  0  0  0  0
   -6.3900   24.5600  -30.2640 C   0  0  0  0  0  0  0  0  0  0  0  0
   -6.3410   23.1900  -30.5560 C   0  0  0  0  0  0  0  0  0  0  0  0
   -7.8100   22.3340  -31.0330 S   0  0  0  0  0  0  0  0  0  0  0  0
   -8.5160   23.1270  -32.0970 O   0  0  0  0  0  0  0  0  0  0  0  0
   -8.7300   22.2230  -29.8480 O   0  0  0  0  0  0  0  0  0  0  0  0
   -7.4540   20.7350  -31.6430 N   0  0  0  0  0  0  0  0  0  0  0  0
   -6.5810   20.8080  -32.8410 C   0  0  0  0  0  0  0  0  0  0  0  0
   -6.8560   19.6900  -33.8700 C   0  0  0  0  0  0  0  0  0  0  0  0
   -7.2540   18.4170  -33.2420 N   0  0  0  0  0  0  0  0  0  0  0  0
   -5.8930   17.5720  -32.5360 S   0  0  0  0  0  0  0  0  0  0  0  0
   -5.9970   17.5600  -31.0360 O   0  0  0  0  0  0  0  0  0  0  0  0
   -5.8860   16.1490  -33.0200 O   0  0  0  0  0  0  0  0  0  0  0  0
   -4.3780   18.3300  -33.0190 C   0  0  0  0  0  0  0  0  0  0  0  0
   -3.9420   19.4920  -32.3680 C   0  0  0  0  0  0  0  0  0  0  0  0
   -2.7320   20.0900  -32.7310 C   0  0  0  0  0  0  0  0  0  0  0  0
   -1.9430   19.5280  -33.7410 C   0  0  0  0  0  0  0  0  0  0  0  0
   -0.4300   20.3040  -34.2050 S   0  0  0  0  0  0  0  0  0  0  0  0
   -0.5820   21.7960  -34.1260 O   0  0  0  0  0  0  0  0  0  0  0  0
   -0.1280   19.9330  -35.6300 O   0  0  0  0  0  0  0  0  0  0  0  0
    0.8640   19.7460  -33.1640 N   0  0  0  0  0  0  0  0  0  0  0  0
    1.0960   18.2940  -33.2760 C   0  0  0  0  0  0  0  0  0  0  0  0
    0.1190   17.4780  -32.4150 C   0  0  0  0  0  0  0  0  0  0  0  0
    0.1560   17.9070  -31.0700 O   0  0  0  0  0  0  0  0  0  0  0  0
   -0.2720   19.2500  -30.9910 C   0  0  0  0  0  0  0  0  0  0  0  0
    0.6810   20.1750  -31.7650 C   0  0  0  0  0  0  0  0  0  0  0  0
   -2.3770   18.3640  -34.3930 C   0  0  0  0  0  0  0  0  0  0  0  0
   -3.5880   17.7660  -34.0300 C   0  0  0  0  0  0  0  0  0  0  0  0
   -8.3880   18.5430  -32.2950 C   0  0  0  0  0  0  0  0  0  0  0  0
   -8.7010   19.9990  -31.9040 C   0  0  0  0  0  0  0  0  0  0  0  0
   -5.1200   22.5090  -30.4620 C   0  0  0  0  0  0  0  0  0  0  0  0
   -3.9580   23.1920  -30.0900 C   0  0  0  0  0  0  0  0  0  0  0  0
   -2.4998   25.1454  -27.3960 H   0  0  0  0  0  0  0  0  0  0  0  0
   -1.7624   23.8674  -28.4206 H   0  0  0  0  0  0  0  0  0  0  0  0
   -1.0745   25.5268  -28.4206 H   0  0  0  0  0  0  0  0  0  0  0  0
   -5.2763   26.3191  -29.6700 H   0  0  0  0  0  0  0  0  0  0  0  0
   -7.3464   25.0997  -30.3272 H   0  0  0  0  0  0  0  0  0  0  0  0
   -6.9400   20.2420  -30.8780 H   0  0  0  0  0  0  0  0  0  0  0  0
   -6.7418   21.7797  -33.3308 H   0  0  0  0  0  0  0  0  0  0  0  0
   -5.5443   20.6828  -32.4951 H   0  0  0  0  0  0  0  0  0  0  0  0
   -7.6651   20.0196  -34.5384 H   0  0  0  0  0  0  0  0  0  0  0  0
   -5.9198   19.5088  -34.4184 H   0  0  0  0  0  0  0  0  0  0  0  0
   -4.5542   19.9349  -31.5686 H   0  0  0  0  0  0  0  0  0  0  0  0
   -2.3986   21.0058  -32.2209 H   0  0  0  0  0  0  0  0  0  0  0  0
    0.9735   17.9965  -34.3279 H   0  0  0  0  0  0  0  0  0  0  0  0
    2.1146   18.0877  -32.9155 H   0  0  0  0  0  0  0  0  0  0  0  0
   -0.9008   17.6070  -32.8066 H   0  0  0  0  0  0  0  0  0  0  0  0
    0.4140   16.4190  -32.4552 H   0  0  0  0  0  0  0  0  0  0  0  0
   -1.2815   19.3323  -31.4201 H   0  0  0  0  0  0  0  0  0  0  0  0
   -0.2780   19.5557  -29.9344 H   0  0  0  0  0  0  0  0  0  0  0  0
    0.2673   21.1942  -31.7588 H   0  0  0  0  0  0  0  0  0  0  0  0
    1.6627   20.1368  -31.2702 H   0  0  0  0  0  0  0  0  0  0  0  0
   -1.7636   17.9208  -35.1913 H   0  0  0  0  0  0  0  0  0  0  0  0
   -3.9216   16.8500  -34.5396 H   0  0  0  0  0  0  0  0  0  0  0  0
   -9.2831   18.1079  -32.7634 H   0  0  0  0  0  0  0  0  0  0  0  0
   -8.1013   18.0145  -31.3739 H   0  0  0  0  0  0  0  0  0  0  0  0
   -9.2454   20.4868  -32.7260 H   0  0  0  0  0  0  0  0  0  0  0  0
   -9.3163   20.0011  -30.9922 H   0  0  0  0  0  0  0  0  0  0  0  0
   -5.0754   21.4321  -30.6819 H   0  0  0  0  0  0  0  0  0  0  0  0
   -3.0027   22.6510  -30.0216 H   0  0  0  0  0  0  0  0  0  0  0  0
  1  2  1  0
  2  3  1  0
  3  4  2  0
  4  5  1  0
  5  6  2  0
  6  7  1  0
  7  8  2  0
  7  9  2  0
  7 10  1  0
 10 11  1  0
 11 12  1  0
 12 13  1  0
 13 14  1  0
 14 15  2  0
 14 16  2  0
 14 17  1  0
 17 18  2  0
 18 19  1  0
 19 20  2  0
 20 21  1  0
 21 22  2  0
 21 23  2  0
 21 24  1  0
 24 25  1  0
 25 26  1  0
 26 27  1  0
 27 28  1  0
 28 29  1  0
 20 30  1  0
 30 31  2  0
 13 32  1  0
 32 33  1  0
  6 34  1  0
 34 35  2  0
 35  3  1  0
 33 10  1  0
 31 17  1  0
 29 24  1  0
  1 36  1  0
  1 37  1  0
  1 38  1  0
  4 39  1  0
  5 40  1  0
 10 41  1  0
 11 42  1  0
 11 43  1  0
 12 44  1  0
 12 45  1  0
 18 46  1  0
 19 47  1  0
 25 48  1  0
 25 49  1  0
 26 50  1  0
 26 51  1  0
 28 52  1  0
 28 53  1  0
 29 54  1  0
 29 55  1  0
 30 56  1  0
 31 57  1  0
 32 58  1  0
 32 59  1  0
 33 60  1  0
 33 61  1  0
 34 62  1  0
 35 63  1  0
M  CHG  1  10   1
M  END
>  <UniqueID>  (21) 
21

>  <SMILES>  (21) 
COc1ccc(S(=O)(=O)[NH+]2CCN(S(=O)(=O)c3ccc(S(=O)(=O)N4CCOCC4)cc3)CC2)cc1

>  <Energy>  (21) 
78.68555116607261

>  <Genealogy>  (21) 
COc1ccc(S(=O)(=O)[NH+]2CCN(S(=O)(=O)c3ccc(S(=O)(=O)N4CCOCC4)cc3)CC2)cc1 (protonated)
COc1ccc(S(=O)(=O)[NH+]2CCN(S(=O)(=O)c3ccc(S(=O)(=O)N4CCOCC4)cc3)CC2)cc1 (3D coordinates assigned)
COc1ccc(S(=O)(=O)[NH+]2CCN(S(=O)(=O)c3ccc(S(=O)(=O)N4CCOCC4)cc3)CC2)cc1 (nonaromatic ring conformer: 78.68555116607261 kcal/mol)

>  <smiles>  (21) 
COc1ccc(S(=O)(=O)N2CCN(S(=O)(=O)c3ccc(S(=O)(=O)N4CCOCC4)cc3)CC2)cc1

>  <score_type>  (21) 
oracle

>  <origin>  (21) 
adgpu

>  <m_score__min__energy>  (21) 
-10.19

>  <m_primary>  (21) 
energy

$$$$
21:0
     RDKit          3D

 36 38  0  0  0  0  0  0  0  0999 V2000
   -4.4950   13.3570  -32.5890 C   0  0  0  0  0  0  0  0  0  0  0  0
   -5.2760   14.5170  -33.1060 C   0  0  0  0  0  0  0  0  0  0  0  0
   -5.1570   15.7710  -32.6200 N   0  0  0  0  0  0  0  0  0  0  0  0
   -6.0250   16.6410  -33.2110 C   0  0  0  0  0  0  0  0  0  0  0  0
   -6.0610   18.0760  -32.8280 C   0  0  0  0  0  0  0  0  0  0  0  0
   -5.1060   18.9920  -33.3110 C   0  0  0  0  0  0  0  0  0  0  0  0
   -5.1560   20.3380  -32.9330 C   0  0  0  0  0  0  0  0  0  0  0  0
   -6.1530   20.7900  -32.0610 C   0  0  0  0  0  0  0  0  0  0  0  0
   -6.1940   22.4830  -31.5770 S   0  0  0  0  0  0  0  0  0  0  0  0
   -7.1710   23.2050  -32.4610 O   0  0  0  0  0  0  0  0  0  0  0  0
   -6.6350   22.6230  -30.1460 O   0  0  0  0  0  0  0  0  0  0  0  0
   -4.6260   23.2000  -31.7670 N   0  0  0  0  0  0  0  0  0  0  0  0
   -3.5930   23.2810  -30.7720 C   0  0  0  0  0  0  0  0  0  0  0  0
   -2.9500   22.1430  -30.2350 C   0  0  0  0  0  0  0  0  0  0  0  0
   -3.3230   20.8570  -30.6020 O   0  0  0  0  0  0  0  0  0  0  0  0
   -1.9330   22.2960  -29.2880 C   0  0  0  0  0  0  0  0  0  0  0  0
   -1.5590   23.5700  -28.8470 C   0  0  0  0  0  0  0  0  0  0  0  0
   -0.5460   23.7210  -27.9000 O   0  0  0  0  0  0  0  0  0  0  0  0
   -2.2100   24.6980  -29.3530 C   0  0  0  0  0  0  0  0  0  0  0  0
   -1.8480   25.9660  -28.9090 O   0  0  0  0  0  0  0  0  0  0  0  0
   -3.2240   24.5550  -30.3070 C   0  0  0  0  0  0  0  0  0  0  0  0
   -3.8640   25.6860  -30.8040 O   0  0  0  0  0  0  0  0  0  0  0  0
   -7.1090   19.8890  -31.5780 C   0  0  0  0  0  0  0  0  0  0  0  0
   -7.0610   18.5430  -31.9540 C   0  0  0  0  0  0  0  0  0  0  0  0
   -6.8610   16.0570  -34.1680 C   0  0  0  0  0  0  0  0  0  0  0  0
   -6.4880   14.4200  -34.2610 S   0  0  0  0  0  0  0  0  0  0  0  0
   -4.5038   13.3700  -31.4891 H   0  0  0  0  0  0  0  0  0  0  0  0
   -4.9475   12.4210  -32.9482 H   0  0  0  0  0  0  0  0  0  0  0  0
   -3.4575   13.4242  -32.9482 H   0  0  0  0  0  0  0  0  0  0  0  0
   -4.3140   18.6459  -33.9914 H   0  0  0  0  0  0  0  0  0  0  0  0
   -4.4083   21.0443  -33.3229 H   0  0  0  0  0  0  0  0  0  0  0  0
   -1.4230   21.4079  -28.8865 H   0  0  0  0  0  0  0  0  0  0  0  0
   -0.2780   24.6340  -27.5520 H   0  0  0  0  0  0  0  0  0  0  0  0
   -7.9008   20.2409  -30.9003 H   0  0  0  0  0  0  0  0  0  0  0  0
   -7.8126   17.8416  -31.5627 H   0  0  0  0  0  0  0  0  0  0  0  0
   -7.6295   16.5782  -34.7577 H   0  0  0  0  0  0  0  0  0  0  0  0
  1  2  1  0
  2  3  2  0
  3  4  1  0
  4  5  1  0
  5  6  2  0
  6  7  1  0
  7  8  2  0
  8  9  1  0
  9 10  2  0
  9 11  2  0
  9 12  1  0
 12 13  1  0
 13 14  2  0
 14 15  1  0
 14 16  1  0
 16 17  2  0
 17 18  1  0
 17 19  1  0
 19 20  1  0
 19 21  2  0
 21 22  1  0
  8 23  1  0
 23 24  2  0
  4 25  2  0
 25 26  1  0
 26  2  1  0
 24  5  1  0
 21 13  1  0
  1 27  1  0
  1 28  1  0
  1 29  1  0
  6 30  1  0
  7 31  1  0
 16 32  1  0
 18 33  1  0
 23 34  1  0
 24 35  1  0
 25 36  1  0
M  CHG  4  12  -1  15  -1  20  -1  22  -1
M  END
>  <UniqueID>  (22) 
22

>  <SMILES>  (22) 
Cc1nc(-c2ccc(S(=O)(=O)[N-]c3c([O-])cc(O)c([O-])c3[O-])cc2)cs1

>  <Energy>  (22) 
76.23230798910605

>  <Genealogy>  (22) 
Cc1nc(-c2ccc(S(=O)(=O)[N-]c3c([O-])cc(O)c([O-])c3[O-])cc2)cs1 (protonated)
Cc1nc(-c2ccc(S(=O)(=O)[N-]c3c([O-])cc(O)c([O-])c3[O-])cc2)cs1 (3D coordinates assigned)
Cc1nc(-c2ccc(S(=O)(=O)[N-]c3c([O-])cc(O)c([O-])c3[O-])cc2)cs1 (optimized conformer: 76.23230798910605 kcal/mol)

>  <smiles>  (22) 
Cc1nc(-c2ccc(S(=O)(=O)Nc3c(O)cc(O)c(O)c3O)cc2)cs1

>  <score_type>  (22) 
oracle

>  <origin>  (22) 
adgpu

>  <m_score__min__energy>  (22) 
-13.699999999999999

>  <m_primary>  (22) 
energy

$$$$
22:0
     RDKit          3D

 45 47  0  0  0  0  0  0  0  0999 V2000
   -2.4470   24.7620  -28.2290 O   0  0  0  0  0  0  0  0  0  0  0  0
   -1.5720   23.7060  -28.8450 S   0  0  0  0  0  0  0  0  0  0  0  0
   -0.1540   24.2020  -28.8770 O   0  0  0  0  0  0  0  0  0  0  0  0
   -2.1050   23.4050  -30.4680 N   0  0  0  0  0  0  0  0  0  0  0  0
   -3.4720   23.2350  -30.8730 C   0  0  0  0  0  0  0  0  0  0  0  0
   -3.9550   21.9940  -31.3300 C   0  0  0  0  0  0  0  0  0  0  0  0
   -5.2870   21.8550  -31.7400 C   0  0  0  0  0  0  0  0  0  0  0  0
   -5.9010   20.3020  -32.3010 S   0  0  0  0  0  0  0  0  0  0  0  0
   -6.4450   20.4770  -33.6910 O   0  0  0  0  0  0  0  0  0  0  0  0
   -4.7860   19.2930  -32.3390 O   0  0  0  0  0  0  0  0  0  0  0  0
   -7.1650   19.7650  -31.2180 N   0  0  0  0  0  0  0  0  0  0  0  0
   -7.6500   18.4020  -31.5600 C   0  0  0  0  0  0  0  0  0  0  0  0
   -9.1380   18.3450  -31.9460 C   0  0  0  0  0  0  0  0  0  0  0  0
   -9.4860   19.4860  -32.8990 C   0  0  0  0  0  0  0  0  0  0  0  0
   -9.1620   20.8620  -32.2880 C   0  0  0  0  0  0  0  0  0  0  0  0
   -8.2260   20.7800  -31.0660 C   0  0  0  0  0  0  0  0  0  0  0  0
   -6.1470   22.9570  -31.6830 C   0  0  0  0  0  0  0  0  0  0  0  0
   -5.6810   24.1880  -31.2210 C   0  0  0  0  0  0  0  0  0  0  0  0
   -4.3500   24.3350  -30.8170 C   0  0  0  0  0  0  0  0  0  0  0  0
   -3.9220   25.5840  -30.3640 O   0  0  0  0  0  0  0  0  0  0  0  0
   -1.6360   22.2180  -27.9060 C   0  0  0  0  0  0  0  0  0  0  0  0
   -1.1430   22.1830  -26.5940 C   0  0  0  0  0  0  0  0  0  0  0  0
   -1.2250   21.0030  -25.8450 C   0  0  0  0  0  0  0  0  0  0  0  0
   -1.7930   19.8570  -26.4060 C   0  0  0  0  0  0  0  0  0  0  0  0
   -2.2800   19.8860  -27.7160 C   0  0  0  0  0  0  0  0  0  0  0  0
   -2.2010   21.0630  -28.4660 C   0  0  0  0  0  0  0  0  0  0  0  0
   -3.2803   21.1259  -31.3654 H   0  0  0  0  0  0  0  0  0  0  0  0
   -7.0582   18.0271  -32.4081 H   0  0  0  0  0  0  0  0  0  0  0  0
   -7.5323   17.7866  -30.6559 H   0  0  0  0  0  0  0  0  0  0  0  0
   -9.3477   17.3844  -32.4392 H   0  0  0  0  0  0  0  0  0  0  0  0
   -9.7465   18.4436  -31.0349 H   0  0  0  0  0  0  0  0  0  0  0  0
   -8.9079   19.3636  -33.8268 H   0  0  0  0  0  0  0  0  0  0  0  0
  -10.5671   19.4469  -33.0981 H   0  0  0  0  0  0  0  0  0  0  0  0
   -8.6780   21.4809  -33.0579 H   0  0  0  0  0  0  0  0  0  0  0  0
  -10.1114   21.2977  -31.9432 H   0  0  0  0  0  0  0  0  0  0  0  0
   -7.7528   21.7623  -30.9206 H   0  0  0  0  0  0  0  0  0  0  0  0
   -8.8395   20.4871  -30.2012 H   0  0  0  0  0  0  0  0  0  0  0  0
   -7.1941   22.8524  -32.0035 H   0  0  0  0  0  0  0  0  0  0  0  0
   -6.3646   25.0485  -31.1741 H   0  0  0  0  0  0  0  0  0  0  0  0
   -3.1050   25.6960  -29.7750 H   0  0  0  0  0  0  0  0  0  0  0  0
   -0.6913   23.0836  -26.1526 H   0  0  0  0  0  0  0  0  0  0  0  0
   -0.8419   20.9785  -24.8142 H   0  0  0  0  0  0  0  0  0  0  0  0
   -1.8572   18.9306  -25.8164 H   0  0  0  0  0  0  0  0  0  0  0  0
   -2.7256   18.9821  -28.1569 H   0  0  0  0  0  0  0  0  0  0  0  0
   -2.5827   21.0833  -29.4974 H   0  0  0  0  0  0  0  0  0  0  0  0
  1  2  2  0
  2  3  2  0
  2  4  1  0
  4  5  1  0
  5  6  2  0
  6  7  1  0
  7  8  1  0
  8  9  2  0
  8 10  2  0
  8 11  1  0
 11 12  1  0
 12 13  1  0
 13 14  1  0
 14 15  1  0
 15 16  1  0
  7 17  2  0
 17 18  1  0
 18 19  2  0
 19 20  1  0
  2 21  1  0
 21 22  2  0
 22 23  1  0
 23 24  2  0
 24 25  1  0
 25 26  2  0
 19  5  1  0
 26 21  1  0
 16 11  1  0
  6 27  1  0
 12 28  1  0
 12 29  1  0
 13 30  1  0
 13 31  1  0
 14 32  1  0
 14 33  1  0
 15 34  1  0
 15 35  1  0
 16 36  1  0
 16 37  1  0
 17 38  1  0
 18 39  1  0
 20 40  1  0
 22 41  1  0
 23 42  1  0
 24 43  1  0
 25 44  1  0
 26 45  1  0
M  CHG  1   4  -1
M  END
>  <UniqueID>  (23) 
23

>  <SMILES>  (23) 
O=S(=O)([N-]c1cc(S(=O)(=O)N2CCCCC2)ccc1O)c1ccccc1

>  <Energy>  (23) 
56.13499808626839

>  <Genealogy>  (23) 
O=S(=O)([N-]c1cc(S(=O)(=O)N2CCCCC2)ccc1O)c1ccccc1 (protonated)
O=S(=O)([N-]c1cc(S(=O)(=O)N2CCCCC2)ccc1O)c1ccccc1 (3D coordinates assigned)
O=S(=O)([N-]c1cc(S(=O)(=O)N2CCCCC2)ccc1O)c1ccccc1 (nonaromatic ring conformer: 56.13499808626839 kcal/mol)

>  <smiles>  (23) 
O=S(=O)(Nc1cc(S(=O)(=O)N2CCCCC2)ccc1O)c1ccccc1

>  <score_type>  (23) 
oracle

>  <origin>  (23) 
adgpu

>  <m_score__min__energy>  (23) 
-10.93

>  <m_primary>  (23) 
energy

$$$$
23:0
     RDKit          3D

 44 46  0  0  0  0  0  0  0  0999 V2000
   -3.4520   16.6510  -35.6620 O   0  0  0  0  0  0  0  0  0  0  0  0
   -3.3440   17.1530  -34.5100 C   0  0  0  0  0  0  0  0  0  0  0  0
   -4.4310   17.0750  -33.5740 N   0  0  0  0  0  0  0  0  0  0  0  0
   -5.6430   16.3350  -33.8040 C   0  0  0  0  0  0  0  0  0  0  0  0
   -5.5950   14.8780  -34.5570 S   0  0  0  0  0  0  0  0  0  0  0  0
   -6.8560   16.7250  -33.1400 N   0  0  0  0  0  0  0  0  0  0  0  0
   -7.1440   18.0730  -32.7320 C   0  0  0  0  0  0  0  0  0  0  0  0
   -8.0580   18.2990  -31.6920 C   0  0  0  0  0  0  0  0  0  0  0  0
   -8.3550   19.6010  -31.2820 C   0  0  0  0  0  0  0  0  0  0  0  0
   -7.7530   20.6960  -31.9160 C   0  0  0  0  0  0  0  0  0  0  0  0
   -8.1110   22.3420  -31.3860 S   0  0  0  0  0  0  0  0  0  0  0  0
   -9.0980   22.9600  -32.3370 O   0  0  0  0  0  0  0  0  0  0  0  0
   -8.7440   22.2960  -30.0230 O   0  0  0  0  0  0  0  0  0  0  0  0
   -6.6710   23.3300  -31.3240 N   0  0  0  0  0  0  0  0  0  0  0  0
   -5.5210   22.5440  -30.8490 C   0  0  0  0  0  0  0  0  0  0  0  0
   -4.2480   23.4210  -30.7950 C   0  0  0  0  0  0  0  0  0  0  0  0
   -4.5270   24.7930  -31.0170 O   0  0  0  0  0  0  0  0  0  0  0  0
   -5.5540   25.2210  -30.1460 C   0  0  0  0  0  0  0  0  0  0  0  0
   -6.8860   24.5110  -30.4630 C   0  0  0  0  0  0  0  0  0  0  0  0
   -6.8630   20.4760  -32.9760 C   0  0  0  0  0  0  0  0  0  0  0  0
   -6.5640   19.1740  -33.3860 C   0  0  0  0  0  0  0  0  0  0  0  0
   -2.1060   17.8550  -34.1410 C   0  0  0  0  0  0  0  0  0  0  0  0
   -0.9100   17.8080  -34.8320 C   0  0  0  0  0  0  0  0  0  0  0  0
   -0.0410   18.6120  -34.1250 C   0  0  0  0  0  0  0  0  0  0  0  0
   -0.7570   19.0980  -33.0500 C   0  0  0  0  0  0  0  0  0  0  0  0
   -1.9830   18.6280  -33.0870 O   0  0  0  0  0  0  0  0  0  0  0  0
   -4.3710   17.6460  -32.7020 H   0  0  0  0  0  0  0  0  0  0  0  0
   -7.5560   15.9820  -32.9150 H   0  0  0  0  0  0  0  0  0  0  0  0
   -8.5438   17.4456  -31.1963 H   0  0  0  0  0  0  0  0  0  0  0  0
   -9.0644   19.7673  -30.4580 H   0  0  0  0  0  0  0  0  0  0  0  0
   -6.4790   23.6530  -32.3020 H   0  0  0  0  0  0  0  0  0  0  0  0
   -5.7376   22.1586  -29.8417 H   0  0  0  0  0  0  0  0  0  0  0  0
   -5.3485   21.7106  -31.5460 H   0  0  0  0  0  0  0  0  0  0  0  0
   -3.7849   23.3107  -29.8034 H   0  0  0  0  0  0  0  0  0  0  0  0
   -3.5733   23.0823  -31.5950 H   0  0  0  0  0  0  0  0  0  0  0  0
   -5.2637   24.9932  -29.1097 H   0  0  0  0  0  0  0  0  0  0  0  0
   -5.6958   26.3036  -30.2800 H   0  0  0  0  0  0  0  0  0  0  0  0
   -7.3532   24.1879  -29.5210 H   0  0  0  0  0  0  0  0  0  0  0  0
   -7.5382   25.2173  -30.9976 H   0  0  0  0  0  0  0  0  0  0  0  0
   -6.3979   21.3317  -33.4873 H   0  0  0  0  0  0  0  0  0  0  0  0
   -5.8714   19.0098  -34.2246 H   0  0  0  0  0  0  0  0  0  0  0  0
   -0.6960   17.2466  -35.7534 H   0  0  0  0  0  0  0  0  0  0  0  0
    1.0106   18.8233  -34.3687 H   0  0  0  0  0  0  0  0  0  0  0  0
   -0.3612   19.7759  -32.2794 H   0  0  0  0  0  0  0  0  0  0  0  0
  1  2  2  0
  2  3  1  0
  3  4  1  0
  4  5  2  0
  4  6  1  0
  6  7  1  0
  7  8  2  0
  8  9  1  0
  9 10  2  0
 10 11  1  0
 11 12  2  0
 11 13  2  0
 11 14  1  0
 14 15  1  0
 15 16  1  0
 16 17  1  0
 17 18  1  0
 18 19  1  0
 10 20  1  0
 20 21  2  0
  2 22  1  0
 22 23  2  0
 23 24  1  0
 24 25  2  0
 25 26  1  0
 21  7  1  0
 26 22  1  0
 19 14  1  0
  3 27  1  0
  6 28  1  0
  8 29  1  0
  9 30  1  0
 14 31  1  0
 15 32  1  0
 15 33  1  0
 16 34  1  0
 16 35  1  0
 18 36  1  0
 18 37  1  0
 19 38  1  0
 19 39  1  0
 20 40  1  0
 21 41  1  0
 23 42  1  0
 24 43  1  0
 25 44  1  0
M  CHG  1  14   1
M  END
>  <UniqueID>  (24) 
24

>  <SMILES>  (24) 
O=C(NC(=S)Nc1ccc(S(=O)(=O)[NH+]2CCOCC2)cc1)c1ccco1

>  <Energy>  (24) 
82.7587806431142

>  <Genealogy>  (24) 
O=C(NC(=S)Nc1ccc(S(=O)(=O)[NH+]2CCOCC2)cc1)c1ccco1 (protonated)
O=C(NC(=S)Nc1ccc(S(=O)(=O)[NH+]2CCOCC2)cc1)c1ccco1 (3D coordinates assigned)
O=C(NC(=S)Nc1ccc(S(=O)(=O)[NH+]2CCOCC2)cc1)c1ccco1 (nonaromatic ring conformer: 82.7587806431142 kcal/mol)

>  <smiles>  (24) 
O=C(NC(=S)Nc1ccc(S(=O)(=O)N2CCOCC2)cc1)c1ccco1

>  <score_type>  (24) 
oracle

>  <origin>  (24) 
adgpu

>  <m_score__min__energy>  (24) 
-8.4900000000000002

>  <m_primary>  (24) 
energy

$$$$
24:0
     RDKit          3D

 52 55  0  0  0  0  0  0  0  0999 V2000
   -8.3770   18.2500  -31.6810 C   0  0  0  0  0  0  0  0  0  0  0  0
   -8.1190   19.7320  -31.5980 C   0  0  0  0  0  0  0  0  0  0  0  0
   -9.1310   20.5640  -31.0930 C   0  0  0  0  0  0  0  0  0  0  0  0
   -8.9460   21.9450  -31.0180 C   0  0  0  0  0  0  0  0  0  0  0  0
   -7.7470   22.5230  -31.4380 C   0  0  0  0  0  0  0  0  0  0  0  0
   -7.6040   23.9480  -31.3570 N   0  0  0  0  0  0  0  0  0  0  0  0
   -6.9790   24.6820  -30.2950 C   0  0  0  0  0  0  0  0  0  0  0  0
   -7.6720   25.3480  -29.4790 O   0  0  0  0  0  0  0  0  0  0  0  0
   -5.5150   24.6970  -30.1920 C   0  0  0  0  0  0  0  0  0  0  0  0
   -4.7690   24.2520  -29.1220 C   0  0  0  0  0  0  0  0  0  0  0  0
   -3.4600   24.4840  -29.5060 C   0  0  0  0  0  0  0  0  0  0  0  0
   -2.2320   24.2280  -28.7160 C   0  0  0  0  0  0  0  0  0  0  0  0
   -2.1300   23.0280  -27.9840 C   0  0  0  0  0  0  0  0  0  0  0  0
   -0.9850   22.7460  -27.2350 C   0  0  0  0  0  0  0  0  0  0  0  0
    0.0700   23.6580  -27.1980 C   0  0  0  0  0  0  0  0  0  0  0  0
   -0.0220   24.8590  -27.9040 C   0  0  0  0  0  0  0  0  0  0  0  0
   -1.1660   25.1540  -28.6540 C   0  0  0  0  0  0  0  0  0  0  0  0
   -1.2360   26.3790  -29.3080 O   0  0  0  0  0  0  0  0  0  0  0  0
   -3.4500   25.0470  -30.7330 N   0  0  0  0  0  0  0  0  0  0  0  0
   -4.7000   25.1720  -31.1530 N   0  0  0  0  0  0  0  0  0  0  0  0
   -6.7450   21.7050  -31.9860 C   0  0  0  0  0  0  0  0  0  0  0  0
   -6.9180   20.3140  -32.0740 C   0  0  0  0  0  0  0  0  0  0  0  0
   -5.6270   19.3350  -32.7900 S   0  0  0  0  0  0  0  0  0  0  0  0
   -5.8380   19.2690  -34.2770 O   0  0  0  0  0  0  0  0  0  0  0  0
   -5.6660   17.9370  -32.2350 O   0  0  0  0  0  0  0  0  0  0  0  0
   -4.0720   20.0500  -32.4410 N   0  0  0  0  0  0  0  0  0  0  0  0
   -3.7900   21.1360  -33.3940 C   0  0  0  0  0  0  0  0  0  0  0  0
   -2.3320   21.6110  -33.2460 C   0  0  0  0  0  0  0  0  0  0  0  0
   -1.7570   21.3140  -31.8510 C   0  0  0  0  0  0  0  0  0  0  0  0
   -2.8320   21.4600  -30.7710 C   0  0  0  0  0  0  0  0  0  0  0  0
   -4.0490   20.5480  -31.0490 C   0  0  0  0  0  0  0  0  0  0  0  0
   -8.4496   17.8330  -30.6657 H   0  0  0  0  0  0  0  0  0  0  0  0
   -9.3197   18.0715  -32.2190 H   0  0  0  0  0  0  0  0  0  0  0  0
   -7.5501   17.7634  -32.2190 H   0  0  0  0  0  0  0  0  0  0  0  0
  -10.0794   20.1226  -30.7530 H   0  0  0  0  0  0  0  0  0  0  0  0
   -9.7512   22.5830  -30.6249 H   0  0  0  0  0  0  0  0  0  0  0  0
   -5.1307   23.8136  -28.1802 H   0  0  0  0  0  0  0  0  0  0  0  0
   -2.9600   22.3064  -28.0026 H   0  0  0  0  0  0  0  0  0  0  0  0
   -0.9151   21.8029  -26.6732 H   0  0  0  0  0  0  0  0  0  0  0  0
    0.9736   23.4311  -26.6131 H   0  0  0  0  0  0  0  0  0  0  0  0
    0.8100   25.5778  -27.8705 H   0  0  0  0  0  0  0  0  0  0  0  0
   -5.8124   22.1600  -32.3511 H   0  0  0  0  0  0  0  0  0  0  0  0
   -3.9504   20.7703  -34.4190 H   0  0  0  0  0  0  0  0  0  0  0  0
   -4.4644   21.9796  -33.1854 H   0  0  0  0  0  0  0  0  0  0  0  0
   -1.7153   21.0981  -33.9987 H   0  0  0  0  0  0  0  0  0  0  0  0
   -2.3186   22.7016  -33.3889 H   0  0  0  0  0  0  0  0  0  0  0  0
   -1.3678   20.2853  -31.8341 H   0  0  0  0  0  0  0  0  0  0  0  0
   -0.9522   22.0345  -31.6435 H   0  0  0  0  0  0  0  0  0  0  0  0
   -2.3982   21.1887  -29.7972 H   0  0  0  0  0  0  0  0  0  0  0  0
   -3.1786   22.5040  -30.7709 H   0  0  0  0  0  0  0  0  0  0  0  0
   -4.0087   19.6867  -30.3660 H   0  0  0  0  0  0  0  0  0  0  0  0
   -4.9593   21.1448  -30.8905 H   0  0  0  0  0  0  0  0  0  0  0  0
  1  2  1  0
  2  3  2  0
  3  4  1  0
  4  5  2  0
  5  6  1  0
  6  7  1  0
  7  8  2  0
  7  9  1  0
  9 10  1  0
 10 11  2  0
 11 12  1  0
 12 13  2  0
 13 14  1  0
 14 15  2  0
 15 16  1  0
 16 17  2  0
 17 18  1  0
 11 19  1  0
 19 20  1  0
  5 21  1  0
 21 22  2  0
 22 23  1  0
 23 24  2  0
 23 25  2  0
 23 26  1  0
 26 27  1  0
 27 28  1  0
 28 29  1  0
 29 30  1  0
 30 31  1  0
 22  2  1  0
 31 26  1  0
 20  9  2  0
 17 12  1  0
  1 32  1  0
  1 33  1  0
  1 34  1  0
  3 35  1  0
  4 36  1  0
 10 37  1  0
 13 38  1  0
 14 39  1  0
 15 40  1  0
 16 41  1  0
 21 42  1  0
 27 43  1  0
 27 44  1  0
 28 45  1  0
 28 46  1  0
 29 47  1  0
 29 48  1  0
 30 49  1  0
 30 50  1  0
 31 51  1  0
 31 52  1  0
M  CHG  3   6  -1  18  -1  19  -1
M  END
>  <UniqueID>  (25) 
25

>  <SMILES>  (25) 
Cc1ccc([N-]C(=O)c2cc(-c3ccccc3[O-])[n-]n2)cc1S(=O)(=O)N1CCCCC1

>  <Energy>  (25) 
94.61221652461707

>  <Genealogy>  (25) 
Cc1ccc([N-]C(=O)c2cc(-c3ccccc3[O-])[n-]n2)cc1S(=O)(=O)N1CCCCC1 (protonated)
Cc1ccc([N-]C(=O)c2cc(-c3ccccc3[O-])[n-]n2)cc1S(=O)(=O)N1CCCCC1 (3D coordinates assigned)
Cc1ccc([N-]C(=O)c2cc(-c3ccccc3[O-])[n-]n2)cc1S(=O)(=O)N1CCCCC1 (nonaromatic ring conformer: 94.61221652461707 kcal/mol)

>  <smiles>  (25) 
Cc1ccc(NC(=O)c2cc(-c3ccccc3O)[nH]n2)cc1S(=O)(=O)N1CCCCC1

>  <score_type>  (25) 
oracle

>  <origin>  (25) 
adgpu

>  <m_score__min__energy>  (25) 
-15.34

>  <m_primary>  (25) 
energy

$$$$
25:0
     RDKit          3D

 43 45  0  0  0  0  0  0  0  0999 V2000
   -5.2480   16.1780  -32.0250 C   0  0  0  0  0  0  0  0  0  0  0  0
   -5.3870   17.3460  -32.8960 N   0  0  0  0  0  0  0  0  0  0  0  0
   -6.4120   18.3250  -32.6400 C   0  0  0  0  0  0  0  0  0  0  0  0
   -7.3570   18.1170  -31.6190 C   0  0  0  0  0  0  0  0  0  0  0  0
   -8.3460   19.0720  -31.3660 C   0  0  0  0  0  0  0  0  0  0  0  0
   -8.4000   20.2450  -32.1230 C   0  0  0  0  0  0  0  0  0  0  0  0
   -9.7530   21.5480  -31.7740 Br  0  0  0  0  0  0  0  0  0  0  0  0
   -7.4600   20.4650  -33.1350 C   0  0  0  0  0  0  0  0  0  0  0  0
   -6.4700   19.5120  -33.3910 C   0  0  0  0  0  0  0  0  0  0  0  0
   -4.3360   17.5040  -34.2740 S   0  0  0  0  0  0  0  0  0  0  0  0
   -5.1300   17.8740  -35.4950 O   0  0  0  0  0  0  0  0  0  0  0  0
   -3.6440   16.1910  -34.5160 O   0  0  0  0  0  0  0  0  0  0  0  0
   -3.1600   18.7820  -33.9770 C   0  0  0  0  0  0  0  0  0  0  0  0
   -1.8330   18.6030  -34.3820 C   0  0  0  0  0  0  0  0  0  0  0  0
   -0.8960   19.6180  -34.1810 C   0  0  0  0  0  0  0  0  0  0  0  0
   -1.2750   20.8140  -33.5640 C   0  0  0  0  0  0  0  0  0  0  0  0
   -0.3320   21.8200  -33.3790 O   0  0  0  0  0  0  0  0  0  0  0  0
   -2.5960   20.9970  -33.1290 C   0  0  0  0  0  0  0  0  0  0  0  0
   -2.9590   22.2460  -32.5210 N   0  0  0  0  0  0  0  0  0  0  0  0
   -3.3630   22.4490  -31.1600 C   0  0  0  0  0  0  0  0  0  0  0  0
   -2.6230   22.0430  -30.2220 O   0  0  0  0  0  0  0  0  0  0  0  0
   -4.6160   23.1870  -30.8420 C   0  0  0  0  0  0  0  0  0  0  0  0
   -5.8490   22.5030  -30.8740 C   0  0  0  0  0  0  0  0  0  0  0  0
   -7.0430   23.1660  -30.5800 C   0  0  0  0  0  0  0  0  0  0  0  0
   -7.0280   24.5200  -30.2490 C   0  0  0  0  0  0  0  0  0  0  0  0
   -5.8190   25.2160  -30.2150 C   0  0  0  0  0  0  0  0  0  0  0  0
   -4.6160   24.5640  -30.5090 C   0  0  0  0  0  0  0  0  0  0  0  0
   -3.4370   25.3000  -30.4700 O   0  0  0  0  0  0  0  0  0  0  0  0
   -3.5440   19.9810  -33.3570 C   0  0  0  0  0  0  0  0  0  0  0  0
   -5.2861   16.4982  -30.9733 H   0  0  0  0  0  0  0  0  0  0  0  0
   -6.0686   15.4728  -32.2235 H   0  0  0  0  0  0  0  0  0  0  0  0
   -4.2849   15.6851  -32.2235 H   0  0  0  0  0  0  0  0  0  0  0  0
   -7.3175   17.1977  -31.0163 H   0  0  0  0  0  0  0  0  0  0  0  0
   -9.0838   18.8994  -30.5686 H   0  0  0  0  0  0  0  0  0  0  0  0
   -7.4998   21.3892  -33.7302 H   0  0  0  0  0  0  0  0  0  0  0  0
   -5.7311   19.6921  -34.1857 H   0  0  0  0  0  0  0  0  0  0  0  0
   -1.5273   17.6605  -34.8598 H   0  0  0  0  0  0  0  0  0  0  0  0
    0.1443   19.4763  -34.5092 H   0  0  0  0  0  0  0  0  0  0  0  0
   -5.8708   21.4343  -31.1337 H   0  0  0  0  0  0  0  0  0  0  0  0
   -7.9967   22.6186  -30.6098 H   0  0  0  0  0  0  0  0  0  0  0  0
   -7.9688   25.0396  -30.0147 H   0  0  0  0  0  0  0  0  0  0  0  0
   -5.8114   26.2849  -29.9552 H   0  0  0  0  0  0  0  0  0  0  0  0
   -4.5895   20.1277  -33.0480 H   0  0  0  0  0  0  0  0  0  0  0  0
  1  2  1  0
  2  3  1  0
  3  4  2  0
  4  5  1  0
  5  6  2  0
  6  7  1  0
  6  8  1  0
  8  9  2  0
  2 10  1  0
 10 11  2  0
 10 12  2  0
 10 13  1  0
 13 14  2  0
 14 15  1  0
 15 16  2  0
 16 17  1  0
 16 18  1  0
 18 19  1  0
 19 20  1  0
 20 21  2  0
 20 22  1  0
 22 23  2  0
 23 24  1  0
 24 25  2  0
 25 26  1  0
 26 27  2  0
 27 28  1  0
 18 29  2  0
  9  3  1  0
 29 13  1  0
 27 22  1  0
  1 30  1  0
  1 31  1  0
  1 32  1  0
  4 33  1  0
  5 34  1  0
  8 35  1  0
  9 36  1  0
 14 37  1  0
 15 38  1  0
 23 39  1  0
 24 40  1  0
 25 41  1  0
 26 42  1  0
 29 43  1  0
M  CHG  3  17  -1  19  -1  28  -1
M  END
>  <UniqueID>  (26) 
26

>  <SMILES>  (26) 
CN(c1ccc(Br)cc1)S(=O)(=O)c1ccc([O-])c([N-]C(=O)c2ccccc2[O-])c1

>  <Energy>  (26) 
57.09939316319811

>  <Genealogy>  (26) 
CN(c1ccc(Br)cc1)S(=O)(=O)c1ccc([O-])c([N-]C(=O)c2ccccc2[O-])c1 (protonated)
CN(c1ccc(Br)cc1)S(=O)(=O)c1ccc([O-])c([N-]C(=O)c2ccccc2[O-])c1 (3D coordinates assigned)
CN(c1ccc(Br)cc1)S(=O)(=O)c1ccc([O-])c([N-]C(=O)c2ccccc2[O-])c1 (optimized conformer: 57.09939316319811 kcal/mol)

>  <smiles>  (26) 
CN(c1ccc(Br)cc1)S(=O)(=O)c1ccc(O)c(NC(=O)c2ccccc2O)c1

>  <score_type>  (26) 
oracle

>  <origin>  (26) 
adgpu

>  <m_score__min__energy>  (26) 
-15.210000000000001

>  <m_primary>  (26) 
energy

$$$$
26:0
     RDKit          3D

 65 69  0  0  0  0  0  0  0  0999 V2000
    4.8570   24.7090  -35.3970 C   0  0  0  0  0  0  0  0  0  0  0  0
    3.4100   24.3530  -35.5250 C   0  0  0  0  0  0  0  0  0  0  0  0
    3.0140   23.0620  -35.3130 N   0  0  0  0  0  0  0  0  0  0  0  0
    1.7330   22.6670  -35.4080 N   0  0  0  0  0  0  0  0  0  0  0  0
    1.4140   21.2630  -35.1330 C   0  0  0  0  0  0  0  0  0  0  0  0
    0.3380   21.1620  -34.0930 C   0  0  0  0  0  0  0  0  0  0  0  0
    0.6430   21.2880  -32.8760 O   0  0  0  0  0  0  0  0  0  0  0  0
   -1.0300   20.9840  -34.4880 N   0  0  0  0  0  0  0  0  0  0  0  0
   -2.0790   20.5650  -33.5980 C   0  0  0  0  0  0  0  0  0  0  0  0
   -2.2170   21.1990  -32.3540 C   0  0  0  0  0  0  0  0  0  0  0  0
   -3.2420   20.8280  -31.4800 C   0  0  0  0  0  0  0  0  0  0  0  0
   -4.1450   19.8260  -31.8440 C   0  0  0  0  0  0  0  0  0  0  0  0
   -4.0300   19.1950  -33.0890 C   0  0  0  0  0  0  0  0  0  0  0  0
   -5.1960   17.9560  -33.5510 S   0  0  0  0  0  0  0  0  0  0  0  0
   -4.9030   17.4720  -34.9450 O   0  0  0  0  0  0  0  0  0  0  0  0
   -5.0660   16.7960  -32.6030 O   0  0  0  0  0  0  0  0  0  0  0  0
   -6.8180   18.6000  -33.4730 N   0  0  0  0  0  0  0  0  0  0  0  0
   -7.4340   18.2590  -32.1700 C   0  0  0  0  0  0  0  0  0  0  0  0
   -8.6200   19.1740  -31.8480 C   0  0  0  0  0  0  0  0  0  0  0  0
   -8.1700   20.6420  -31.7310 C   0  0  0  0  0  0  0  0  0  0  0  0
   -6.9070   20.9430  -32.5560 C   0  0  0  0  0  0  0  0  0  0  0  0
   -6.8320   20.0470  -33.8020 C   0  0  0  0  0  0  0  0  0  0  0  0
   -3.0080   19.5760  -33.9700 C   0  0  0  0  0  0  0  0  0  0  0  0
    0.7450   23.5700  -35.7250 C   0  0  0  0  0  0  0  0  0  0  0  0
   -0.4640   23.2190  -35.8130 O   0  0  0  0  0  0  0  0  0  0  0  0
    1.1140   24.8890  -35.9450 C   0  0  0  0  0  0  0  0  0  0  0  0
    0.3170   25.9260  -36.2490 N   0  0  0  0  0  0  0  0  0  0  0  0
    1.1020   26.9920  -36.3590 N   0  0  0  0  0  0  0  0  0  0  0  0
    0.5810   28.3010  -36.6450 C   0  0  0  0  0  0  0  0  0  0  0  0
    0.7050   29.3250  -35.6930 C   0  0  0  0  0  0  0  0  0  0  0  0
    0.2300   30.6110  -35.9720 C   0  0  0  0  0  0  0  0  0  0  0  0
   -0.3590   30.8870  -37.2080 C   0  0  0  0  0  0  0  0  0  0  0  0
   -0.4610   29.8820  -38.1720 C   0  0  0  0  0  0  0  0  0  0  0  0
    0.0150   28.5960  -37.8980 C   0  0  0  0  0  0  0  0  0  0  0  0
    2.4000   26.6380  -36.1510 C   0  0  0  0  0  0  0  0  0  0  0  0
    3.5860   27.5510  -36.2810 C   0  0  0  0  0  0  0  0  0  0  0  0
    2.4170   25.2810  -35.8590 C   0  0  0  0  0  0  0  0  0  0  0  0
    5.1256   24.7751  -34.3323 H   0  0  0  0  0  0  0  0  0  0  0  0
    5.4694   23.9347  -35.8823 H   0  0  0  0  0  0  0  0  0  0  0  0
    5.0403   25.6790  -35.8823 H   0  0  0  0  0  0  0  0  0  0  0  0
    1.0677   20.7824  -36.0598 H   0  0  0  0  0  0  0  0  0  0  0  0
    2.3179   20.7597  -34.7593 H   0  0  0  0  0  0  0  0  0  0  0  0
   -1.2880   21.2340  -35.4700 H   0  0  0  0  0  0  0  0  0  0  0  0
   -1.5134   21.9936  -32.0648 H   0  0  0  0  0  0  0  0  0  0  0  0
   -3.3382   21.3256  -30.5037 H   0  0  0  0  0  0  0  0  0  0  0  0
   -4.9476   19.5322  -31.1516 H   0  0  0  0  0  0  0  0  0  0  0  0
   -7.7860   17.2174  -32.2036 H   0  0  0  0  0  0  0  0  0  0  0  0
   -6.6744   18.3928  -31.3857 H   0  0  0  0  0  0  0  0  0  0  0  0
   -9.3673   19.0899  -32.6508 H   0  0  0  0  0  0  0  0  0  0  0  0
   -9.0512   18.8623  -30.8852 H   0  0  0  0  0  0  0  0  0  0  0  0
   -8.9852   21.2894  -32.0865 H   0  0  0  0  0  0  0  0  0  0  0  0
   -7.9303   20.8330  -30.6746 H   0  0  0  0  0  0  0  0  0  0  0  0
   -6.9272   21.9964  -32.8720 H   0  0  0  0  0  0  0  0  0  0  0  0
   -6.0253   20.7435  -31.9293 H   0  0  0  0  0  0  0  0  0  0  0  0
   -7.7064   20.2542  -34.4364 H   0  0  0  0  0  0  0  0  0  0  0  0
   -5.8881   20.2773  -34.3178 H   0  0  0  0  0  0  0  0  0  0  0  0
   -2.9320   19.0987  -34.9582 H   0  0  0  0  0  0  0  0  0  0  0  0
    1.1782   29.1152  -34.7224 H   0  0  0  0  0  0  0  0  0  0  0  0
    0.3205   31.4058  -35.2170 H   0  0  0  0  0  0  0  0  0  0  0  0
   -0.7423   31.8956  -37.4219 H   0  0  0  0  0  0  0  0  0  0  0  0
   -0.9166   30.1023  -39.1487 H   0  0  0  0  0  0  0  0  0  0  0  0
   -0.0536   27.8116  -38.6661 H   0  0  0  0  0  0  0  0  0  0  0  0
    3.9466   27.8286  -35.2795 H   0  0  0  0  0  0  0  0  0  0  0  0
    4.3878   27.0348  -36.8293 H   0  0  0  0  0  0  0  0  0  0  0  0
    3.2920   28.4582  -36.8293 H   0  0  0  0  0  0  0  0  0  0  0  0
  1  2  1  0
  2  3  2  0
  3  4  1  0
  4  5  1  0
  5  6  1  0
  6  7  2  0
  6  8  1  0
  8  9  1  0
  9 10  2  0
 10 11  1  0
 11 12  2  0
 12 13  1  0
 13 14  1  0
 14 15  2  0
 14 16  2  0
 14 17  1  0
 17 18  1  0
 18 19  1  0
 19 20  1  0
 20 21  1  0
 21 22  1  0
 13 23  2  0
  4 24  1  0
 24 25  2  0
 24 26  1  0
 26 27  2  0
 27 28  1  0
 28 29  1  0
 29 30  2  0
 30 31  1  0
 31 32  2  0
 32 33  1  0
 33 34  2  0
 28 35  1  0
 35 36  1  0
 35 37  2  0
 37  2  1  0
 23  9  1  0
 37 26  1  0
 22 17  1  0
 34 29  1  0
  1 38  1  0
  1 39  1  0
  1 40  1  0
  5 41  1  0
  5 42  1  0
  8 43  1  0
 10 44  1  0
 11 45  1  0
 12 46  1  0
 18 47  1  0
 18 48  1  0
 19 49  1  0
 19 50  1  0
 20 51  1  0
 20 52  1  0
 21 53  1  0
 21 54  1  0
 22 55  1  0
 22 56  1  0
 23 57  1  0
 30 58  1  0
 31 59  1  0
 32 60  1  0
 33 61  1  0
 34 62  1  0
 36 63  1  0
 36 64  1  0
 36 65  1  0
M  END
>  <UniqueID>  (27) 
27

>  <SMILES>  (27) 
Cc1nn(CC(=O)Nc2cccc(S(=O)(=O)N3CCCCC3)c2)c(=O)c2nn(-c3ccccc3)c(C)c12

>  <Energy>  (27) 
122.69018338229002

>  <Genealogy>  (27) 
Cc1nn(CC(=O)Nc2cccc(S(=O)(=O)N3CCCCC3)c2)c(=O)c2nn(-c3ccccc3)c(C)c12 (3D coordinates assigned)
Cc1nn(CC(=O)Nc2cccc(S(=O)(=O)N3CCCCC3)c2)c(=O)c2nn(-c3ccccc3)c(C)c12 (nonaromatic ring conformer: 122.69018338229002 kcal/mol)

>  <smiles>  (27) 
Cc1nn(CC(=O)Nc2cccc(S(=O)(=O)N3CCCCC3)c2)c(=O)c2nn(-c3ccccc3)c(C)c12

>  <score_type>  (27) 
oracle

>  <origin>  (27) 
adgpu

>  <m_score__min__energy>  (27) 
-12.73

>  <m_primary>  (27) 
energy

$$$$
27:0
     RDKit          3D

 62 65  0  0  0  0  0  0  0  0999 V2000
   -0.1010   18.9100  -29.2220 C   0  0  0  0  0  0  0  0  0  0  0  0
   -0.7080   20.2810  -29.1770 C   0  0  0  0  0  0  0  0  0  0  0  0
   -0.0010   21.3460  -28.6010 C   0  0  0  0  0  0  0  0  0  0  0  0
   -0.5560   22.6290  -28.5720 C   0  0  0  0  0  0  0  0  0  0  0  0
   -1.8140   22.8660  -29.1460 C   0  0  0  0  0  0  0  0  0  0  0  0
   -2.5470   24.4660  -29.0830 S   0  0  0  0  0  0  0  0  0  0  0  0
   -1.4810   25.5180  -28.9690 O   0  0  0  0  0  0  0  0  0  0  0  0
   -3.4560   24.5710  -27.8910 O   0  0  0  0  0  0  0  0  0  0  0  0
   -3.4820   24.7090  -30.5180 N   0  0  0  0  0  0  0  0  0  0  0  0
   -4.8720   24.3780  -30.5730 C   0  0  0  0  0  0  0  0  0  0  0  0
   -5.8090   25.1740  -29.8990 C   0  0  0  0  0  0  0  0  0  0  0  0
   -7.1750   24.9080  -30.0180 C   0  0  0  0  0  0  0  0  0  0  0  0
   -7.6140   23.8530  -30.8200 C   0  0  0  0  0  0  0  0  0  0  0  0
   -6.6880   23.0550  -31.4970 C   0  0  0  0  0  0  0  0  0  0  0  0
   -5.3130   23.2940  -31.3610 C   0  0  0  0  0  0  0  0  0  0  0  0
   -4.3860   22.4950  -32.1120 N   0  0  0  0  0  0  0  0  0  0  0  0
   -4.7790   21.3190  -32.8350 C   0  0  0  0  0  0  0  0  0  0  0  0
   -5.9940   21.1310  -33.1120 O   0  0  0  0  0  0  0  0  0  0  0  0
   -3.7600   20.3240  -33.2450 C   0  0  0  0  0  0  0  0  0  0  0  0
   -2.4020   20.6470  -33.0720 C   0  0  0  0  0  0  0  0  0  0  0  0
   -1.3990   19.7270  -33.3980 C   0  0  0  0  0  0  0  0  0  0  0  0
    0.2910   20.1340  -33.1110 S   0  0  0  0  0  0  0  0  0  0  0  0
    0.3850   21.5230  -32.5400 O   0  0  0  0  0  0  0  0  0  0  0  0
    0.8450   19.1720  -32.0970 O   0  0  0  0  0  0  0  0  0  0  0  0
    1.2280   20.0120  -34.5880 N   0  0  0  0  0  0  0  0  0  0  0  0
    0.4530   20.4020  -35.7780 C   0  0  0  0  0  0  0  0  0  0  0  0
    0.2270   21.9310  -35.8500 C   0  0  0  0  0  0  0  0  0  0  0  0
    1.1110   22.6730  -35.0270 O   0  0  0  0  0  0  0  0  0  0  0  0
    2.4200   22.1590  -35.1280 C   0  0  0  0  0  0  0  0  0  0  0  0
    2.5020   20.7590  -34.4900 C   0  0  0  0  0  0  0  0  0  0  0  0
   -1.7510   18.4710  -33.9000 C   0  0  0  0  0  0  0  0  0  0  0  0
   -3.0910   18.1370  -34.0870 C   0  0  0  0  0  0  0  0  0  0  0  0
   -4.1090   19.0550  -33.7770 C   0  0  0  0  0  0  0  0  0  0  0  0
   -5.5420   18.6570  -34.0160 C   0  0  0  0  0  0  0  0  0  0  0  0
   -2.5060   21.8080  -29.7510 C   0  0  0  0  0  0  0  0  0  0  0  0
   -1.9570   20.5240  -29.7680 C   0  0  0  0  0  0  0  0  0  0  0  0
    0.0600   18.5464  -28.1964 H   0  0  0  0  0  0  0  0  0  0  0  0
   -0.7802   18.2255  -29.7513 H   0  0  0  0  0  0  0  0  0  0  0  0
    0.8623   18.9527  -29.7513 H   0  0  0  0  0  0  0  0  0  0  0  0
    0.9957   21.1712  -28.1696 H   0  0  0  0  0  0  0  0  0  0  0  0
   -0.0049   23.4546  -28.0980 H   0  0  0  0  0  0  0  0  0  0  0  0
   -5.4668   26.0118  -29.2737 H   0  0  0  0  0  0  0  0  0  0  0  0
   -7.9052   25.5300  -29.4796 H   0  0  0  0  0  0  0  0  0  0  0  0
   -8.6905   23.6496  -30.9191 H   0  0  0  0  0  0  0  0  0  0  0  0
   -7.0396   22.2348  -32.1402 H   0  0  0  0  0  0  0  0  0  0  0  0
   -3.4080   22.8450  -32.2260 H   0  0  0  0  0  0  0  0  0  0  0  0
   -2.1249   21.6349  -32.6756 H   0  0  0  0  0  0  0  0  0  0  0  0
    0.9989   20.0814  -36.6776 H   0  0  0  0  0  0  0  0  0  0  0  0
   -0.5321   19.9166  -35.7148 H   0  0  0  0  0  0  0  0  0  0  0  0
    0.3669   22.2549  -36.8919 H   0  0  0  0  0  0  0  0  0  0  0  0
   -0.7928   22.1246  -35.4861 H   0  0  0  0  0  0  0  0  0  0  0  0
    2.7006   22.0899  -36.1893 H   0  0  0  0  0  0  0  0  0  0  0  0
    3.1081   22.8326  -34.5963 H   0  0  0  0  0  0  0  0  0  0  0  0
    3.2875   20.1841  -35.0023 H   0  0  0  0  0  0  0  0  0  0  0  0
    2.7277   20.8930  -33.4218 H   0  0  0  0  0  0  0  0  0  0  0  0
   -0.9658   17.7419  -34.1489 H   0  0  0  0  0  0  0  0  0  0  0  0
   -3.3546   17.1445  -34.4813 H   0  0  0  0  0  0  0  0  0  0  0  0
   -6.0494   18.5161  -33.0502 H   0  0  0  0  0  0  0  0  0  0  0  0
   -6.0519   19.4475  -34.5862 H   0  0  0  0  0  0  0  0  0  0  0  0
   -5.5712   17.7167  -34.5862 H   0  0  0  0  0  0  0  0  0  0  0  0
   -3.4867   21.9899  -30.2149 H   0  0  0  0  0  0  0  0  0  0  0  0
   -2.5061   19.6998  -30.2467 H   0  0  0  0  0  0  0  0  0  0  0  0
  1  2  1  0
  2  3  2  0
  3  4  1  0
  4  5  2  0
  5  6  1  0
  6  7  2  0
  6  8  2  0
  6  9  1  0
  9 10  1  0
 10 11  2  0
 11 12  1  0
 12 13  2  0
 13 14  1  0
 14 15  2  0
 15 16  1  0
 16 17  1  0
 17 18  2  0
 17 19  1  0
 19 20  2  0
 20 21  1  0
 21 22  1  0
 22 23  2  0
 22 24  2  0
 22 25  1  0
 25 26  1  0
 26 27  1  0
 27 28  1  0
 28 29  1  0
 29 30  1  0
 21 31  2  0
 31 32  1  0
 32 33  2  0
 33 34  1  0
  5 35  1  0
 35 36  2  0
 36  2  1  0
 15 10  1  0
 33 19  1  0
 30 25  1  0
  1 37  1  0
  1 38  1  0
  1 39  1  0
  3 40  1  0
  4 41  1  0
 11 42  1  0
 12 43  1  0
 13 44  1  0
 14 45  1  0
 16 46  1  0
 20 47  1  0
 26 48  1  0
 26 49  1  0
 27 50  1  0
 27 51  1  0
 29 52  1  0
 29 53  1  0
 30 54  1  0
 30 55  1  0
 31 56  1  0
 32 57  1  0
 34 58  1  0
 34 59  1  0
 34 60  1  0
 35 61  1  0
 36 62  1  0
M  CHG  1   9  -1
M  END
>  <UniqueID>  (28) 
28

>  <SMILES>  (28) 
Cc1ccc(S(=O)(=O)[N-]c2ccccc2NC(=O)c2cc(S(=O)(=O)N3CCOCC3)ccc2C)cc1

>  <Energy>  (28) 
87.90300028160227

>  <Genealogy>  (28) 
Cc1ccc(S(=O)(=O)[N-]c2ccccc2NC(=O)c2cc(S(=O)(=O)N3CCOCC3)ccc2C)cc1 (protonated)
Cc1ccc(S(=O)(=O)[N-]c2ccccc2NC(=O)c2cc(S(=O)(=O)N3CCOCC3)ccc2C)cc1 (3D coordinates assigned)
Cc1ccc(S(=O)(=O)[N-]c2ccccc2NC(=O)c2cc(S(=O)(=O)N3CCOCC3)ccc2C)cc1 (nonaromatic ring conformer: 87.90300028160227 kcal/mol)

>  <smiles>  (28) 
Cc1ccc(S(=O)(=O)Nc2ccccc2NC(=O)c2cc(S(=O)(=O)N3CCOCC3)ccc2C)cc1

>  <score_type>  (28) 
oracle

>  <origin>  (28) 
adgpu

>  <m_score__min__energy>  (28) 
-11.890000000000001

>  <m_primary>  (28) 
energy

$$$$
28:0
     RDKit          3D

 25 26  0  0  0  0  0  0  0  0999 V2000
   -9.1890   19.4270  -32.8510 N   0  0  0  0  0  0  0  0  0  0  0  0
   -8.3650   20.5480  -32.5260 C   0  0  0  0  0  0  0  0  0  0  0  0
   -8.9230   21.6830  -31.9210 C   0  0  0  0  0  0  0  0  0  0  0  0
   -8.1160   22.7800  -31.6030 C   0  0  0  0  0  0  0  0  0  0  0  0
   -6.7410   22.7590  -31.8990 C   0  0  0  0  0  0  0  0  0  0  0  0
   -5.8960   23.8320  -31.5800 O   0  0  0  0  0  0  0  0  0  0  0  0
   -5.0000   23.8710  -30.5020 C   0  0  0  0  0  0  0  0  0  0  0  0
   -5.1610   22.9510  -29.4590 C   0  0  0  0  0  0  0  0  0  0  0  0
   -4.2800   22.9480  -28.3740 C   0  0  0  0  0  0  0  0  0  0  0  0
   -3.2210   23.8600  -28.3310 C   0  0  0  0  0  0  0  0  0  0  0  0
   -3.0370   24.7700  -29.3770 C   0  0  0  0  0  0  0  0  0  0  0  0
   -1.9760   25.6650  -29.3400 O   0  0  0  0  0  0  0  0  0  0  0  0
   -3.9200   24.7730  -30.4630 C   0  0  0  0  0  0  0  0  0  0  0  0
   -6.1840   21.6150  -32.4840 C   0  0  0  0  0  0  0  0  0  0  0  0
   -6.9900   20.5190  -32.8030 C   0  0  0  0  0  0  0  0  0  0  0  0
   -9.4950   18.7550  -32.1110 H   0  0  0  0  0  0  0  0  0  0  0  0
   -9.4980   19.2570  -33.8340 H   0  0  0  0  0  0  0  0  0  0  0  0
   -9.9993   21.7108  -31.6957 H   0  0  0  0  0  0  0  0  0  0  0  0
   -8.5585   23.6633  -31.1192 H   0  0  0  0  0  0  0  0  0  0  0  0
   -5.9869   22.2253  -29.4937 H   0  0  0  0  0  0  0  0  0  0  0  0
   -4.4197   22.2282  -27.5540 H   0  0  0  0  0  0  0  0  0  0  0  0
   -2.5319   23.8618  -27.4736 H   0  0  0  0  0  0  0  0  0  0  0  0
   -3.7694   25.4832  -31.2894 H   0  0  0  0  0  0  0  0  0  0  0  0
   -5.1048   21.5789  -32.6938 H   0  0  0  0  0  0  0  0  0  0  0  0
   -6.5446   19.6299  -33.2732 H   0  0  0  0  0  0  0  0  0  0  0  0
  1  2  1  0
  2  3  2  0
  3  4  1  0
  4  5  2  0
  5  6  1  0
  6  7  1  0
  7  8  2  0
  8  9  1  0
  9 10  2  0
 10 11  1  0
 11 12  1  0
 11 13  2  0
  5 14  1  0
 14 15  2  0
 15  2  1  0
 13  7  1  0
  1 16  1  0
  1 17  1  0
  3 18  1  0
  4 19  1  0
  8 20  1  0
  9 21  1  0
 10 22  1  0
 13 23  1  0
 14 24  1  0
 15 25  1  0
M  CHG  1  12  -1
M  END
>  <UniqueID>  (29) 
29

>  <SMILES>  (29) 
Nc1ccc(Oc2cccc([O-])c2)cc1

>  <Energy>  (29) 
31.337731537763677

>  <Genealogy>  (29) 
Nc1ccc(Oc2cccc([O-])c2)cc1 (protonated)
Nc1ccc(Oc2cccc([O-])c2)cc1 (3D coordinates assigned)
Nc1ccc(Oc2cccc([O-])c2)cc1 (optimized conformer: 31.337731537763677 kcal/mol)

>  <smiles>  (29) 
Nc1ccc(Oc2cccc(O)c2)cc1

>  <score_type>  (29) 
oracle

>  <origin>  (29) 
adgpu

>  <m_score__min__energy>  (29) 
-8.9199999999999999

>  <m_primary>  (29) 
energy

$$$$
29:0
     RDKit          3D

 37 39  0  0  0  0  0  0  0  0999 V2000
   -3.9480   25.3000  -30.9180 O   0  0  0  0  0  0  0  0  0  0  0  0
   -4.2860   24.7030  -29.8620 C   0  0  0  0  0  0  0  0  0  0  0  0
   -5.6450   24.8100  -29.4110 N   0  0  0  0  0  0  0  0  0  0  0  0
   -6.8020   24.1880  -30.0510 C   0  0  0  0  0  0  0  0  0  0  0  0
   -6.4800   23.7870  -31.4950 C   0  0  0  0  0  0  0  0  0  0  0  0
   -7.2690   22.5700  -31.8930 C   0  0  0  0  0  0  0  0  0  0  0  0
   -8.6500   22.5070  -31.6500 C   0  0  0  0  0  0  0  0  0  0  0  0
   -9.3730   21.3580  -31.9870 C   0  0  0  0  0  0  0  0  0  0  0  0
   -8.7220   20.2600  -32.5610 C   0  0  0  0  0  0  0  0  0  0  0  0
   -9.4540   19.1220  -32.8920 O   0  0  0  0  0  0  0  0  0  0  0  0
   -7.3410   20.3140  -32.7940 C   0  0  0  0  0  0  0  0  0  0  0  0
   -6.6170   21.4610  -32.4570 C   0  0  0  0  0  0  0  0  0  0  0  0
   -3.2840   23.8910  -29.1440 C   0  0  0  0  0  0  0  0  0  0  0  0
   -3.6170   22.6020  -28.6800 C   0  0  0  0  0  0  0  0  0  0  0  0
   -2.6330   21.8480  -28.0400 C   0  0  0  0  0  0  0  0  0  0  0  0
   -1.3910   22.3290  -27.8380 C   0  0  0  0  0  0  0  0  0  0  0  0
   -1.0230   23.6090  -28.2520 C   0  0  0  0  0  0  0  0  0  0  0  0
   -1.9810   24.3990  -28.9100 C   0  0  0  0  0  0  0  0  0  0  0  0
   -1.6300   25.6730  -29.3450 O   0  0  0  0  0  0  0  0  0  0  0  0
   -0.5880   21.3050  -27.1470 C   0  0  0  0  0  0  0  0  0  0  0  0
   -1.4340   20.1780  -26.9480 O   0  0  0  0  0  0  0  0  0  0  0  0
   -2.7120   20.4840  -27.4920 C   0  0  0  0  0  0  0  0  0  0  0  0
   -7.0879   23.2902  -29.4834 H   0  0  0  0  0  0  0  0  0  0  0  0
   -7.6282   24.9141  -30.0644 H   0  0  0  0  0  0  0  0  0  0  0  0
   -6.7352   24.6195  -32.1672 H   0  0  0  0  0  0  0  0  0  0  0  0
   -5.4073   23.5548  -31.5686 H   0  0  0  0  0  0  0  0  0  0  0  0
   -9.1656   23.3644  -31.1928 H   0  0  0  0  0  0  0  0  0  0  0  0
  -10.4563   21.3173  -31.8004 H   0  0  0  0  0  0  0  0  0  0  0  0
   -9.6810   18.8990  -33.8540 H   0  0  0  0  0  0  0  0  0  0  0  0
   -6.8259   19.4519  -33.2430 H   0  0  0  0  0  0  0  0  0  0  0  0
   -5.5319   21.4954  -32.6342 H   0  0  0  0  0  0  0  0  0  0  0  0
   -4.6311   22.1994  -28.8196 H   0  0  0  0  0  0  0  0  0  0  0  0
   -0.0079   23.9907  -28.0680 H   0  0  0  0  0  0  0  0  0  0  0  0
    0.2776   21.0234  -27.7646 H   0  0  0  0  0  0  0  0  0  0  0  0
   -0.2081   21.6853  -26.1873 H   0  0  0  0  0  0  0  0  0  0  0  0
   -2.9630   19.7703  -28.2905 H   0  0  0  0  0  0  0  0  0  0  0  0
   -3.4928   20.4164  -26.7201 H   0  0  0  0  0  0  0  0  0  0  0  0
  1  2  2  0
  2  3  1  0
  3  4  1  0
  4  5  1  0
  5  6  1  0
  6  7  2  0
  7  8  1  0
  8  9  2  0
  9 10  1  0
  9 11  1  0
 11 12  2  0
  2 13  1  0
 13 14  2  0
 14 15  1  0
 15 16  2  0
 16 17  1  0
 17 18  2  0
 18 19  1  0
 16 20  1  0
 20 21  1  0
 21 22  1  0
 12  6  1  0
 18 13  1  0
 22 15  1  0
  4 23  1  0
  4 24  1  0
  5 25  1  0
  5 26  1  0
  7 27  1  0
  8 28  1  0
 10 29  1  0
 11 30  1  0
 12 31  1  0
 14 32  1  0
 17 33  1  0
 20 34  1  0
 20 35  1  0
 22 36  1  0
 22 37  1  0
M  CHG  2   3  -1  19  -1
M  END
>  <UniqueID>  (30) 
30

>  <SMILES>  (30) 
O=C([N-]CCc1ccc(O)cc1)c1cc2c(cc1[O-])COC2

>  <Energy>  (30) 
50.6271708992481

>  <Genealogy>  (30) 
O=C([N-]CCc1ccc(O)cc1)c1cc2c(cc1[O-])COC2 (protonated)
O=C([N-]CCc1ccc(O)cc1)c1cc2c(cc1[O-])COC2 (3D coordinates assigned)
O=C([N-]CCc1ccc(O)cc1)c1cc2c(cc1[O-])COC2 (nonaromatic ring conformer: 50.6271708992481 kcal/mol)

>  <smiles>  (30) 
O=C(NCCc1ccc(O)cc1)c1cc2c(cc1O)COC2

>  <score_type>  (30) 
oracle

>  <origin>  (30) 
adgpu

>  <m_score__min__energy>  (30) 
-11.9

>  <m_primary>  (30) 
energy

$$$$
30:0
     RDKit          3D

 44 47  0  0  0  0  0  0  0  0999 V2000
   -1.5010   21.7460  -29.2860 O   0  0  0  0  0  0  0  0  0  0  0  0
   -1.8380   22.9080  -29.6420 C   0  0  0  0  0  0  0  0  0  0  0  0
   -2.5840   23.1060  -30.8500 N   0  0  0  0  0  0  0  0  0  0  0  0
   -4.0050   23.2750  -30.9320 C   0  0  0  0  0  0  0  0  0  0  0  0
   -4.7940   22.1610  -31.2460 C   0  0  0  0  0  0  0  0  0  0  0  0
   -6.1860   22.2770  -31.3370 C   0  0  0  0  0  0  0  0  0  0  0  0
   -7.1570   20.8510  -31.6970 S   0  0  0  0  0  0  0  0  0  0  0  0
   -7.7020   20.9850  -33.0910 O   0  0  0  0  0  0  0  0  0  0  0  0
   -8.3000   20.7490  -30.7270 O   0  0  0  0  0  0  0  0  0  0  0  0
   -6.1530   19.4210  -31.5870 N   0  0  0  0  0  0  0  0  0  0  0  0
   -6.9820   18.2120  -31.5640 C   0  0  0  0  0  0  0  0  0  0  0  0
   -7.1100   17.6960  -32.9900 C   0  0  0  0  0  0  0  0  0  0  0  0
   -6.0430   18.4220  -33.7860 C   0  0  0  0  0  0  0  0  0  0  0  0
   -5.3080   19.2920  -32.7780 C   0  0  0  0  0  0  0  0  0  0  0  0
   -6.7930   23.5250  -31.1390 C   0  0  0  0  0  0  0  0  0  0  0  0
   -6.0100   24.6480  -30.8600 C   0  0  0  0  0  0  0  0  0  0  0  0
   -4.6190   24.5330  -30.7690 C   0  0  0  0  0  0  0  0  0  0  0  0
   -3.8590   25.6780  -30.5550 O   0  0  0  0  0  0  0  0  0  0  0  0
   -1.4880   24.0550  -28.7820 C   0  0  0  0  0  0  0  0  0  0  0  0
   -1.5480   25.2920  -29.3400 N   0  0  0  0  0  0  0  0  0  0  0  0
   -1.1950   26.3910  -28.6750 N   0  0  0  0  0  0  0  0  0  0  0  0
   -0.7520   26.3410  -27.3960 C   0  0  0  0  0  0  0  0  0  0  0  0
   -0.4180   27.4090  -26.8170 O   0  0  0  0  0  0  0  0  0  0  0  0
   -0.6800   25.1030  -26.7370 C   0  0  0  0  0  0  0  0  0  0  0  0
   -0.2480   25.0120  -25.4000 C   0  0  0  0  0  0  0  0  0  0  0  0
   -0.2300   23.7790  -24.7470 C   0  0  0  0  0  0  0  0  0  0  0  0
   -0.6540   22.6300  -25.4120 C   0  0  0  0  0  0  0  0  0  0  0  0
   -1.0820   22.7000  -26.7390 C   0  0  0  0  0  0  0  0  0  0  0  0
   -1.0750   23.9310  -27.4320 C   0  0  0  0  0  0  0  0  0  0  0  0
   -4.3155   21.1864  -31.4226 H   0  0  0  0  0  0  0  0  0  0  0  0
   -6.5071   17.4468  -30.9323 H   0  0  0  0  0  0  0  0  0  0  0  0
   -7.9760   18.4406  -31.1520 H   0  0  0  0  0  0  0  0  0  0  0  0
   -6.9396   16.6097  -33.0216 H   0  0  0  0  0  0  0  0  0  0  0  0
   -8.1151   17.8769  -33.3987 H   0  0  0  0  0  0  0  0  0  0  0  0
   -5.3520   17.7022  -34.2491 H   0  0  0  0  0  0  0  0  0  0  0  0
   -6.4768   19.0190  -34.6017 H   0  0  0  0  0  0  0  0  0  0  0  0
   -4.3511   18.8219  -32.5072 H   0  0  0  0  0  0  0  0  0  0  0  0
   -5.1017   20.2831  -33.2084 H   0  0  0  0  0  0  0  0  0  0  0  0
   -7.8870   23.6202  -31.2034 H   0  0  0  0  0  0  0  0  0  0  0  0
   -6.4895   25.6268  -30.7113 H   0  0  0  0  0  0  0  0  0  0  0  0
    0.0771   25.9179  -24.8673 H   0  0  0  0  0  0  0  0  0  0  0  0
    0.1193   23.7138  -23.7060 H   0  0  0  0  0  0  0  0  0  0  0  0
   -0.6514   21.6626  -24.8884 H   0  0  0  0  0  0  0  0  0  0  0  0
   -1.4276   21.7889  -27.2493 H   0  0  0  0  0  0  0  0  0  0  0  0
  1  2  2  0
  2  3  1  0
  3  4  1  0
  4  5  2  0
  5  6  1  0
  6  7  1  0
  7  8  2  0
  7  9  2  0
  7 10  1  0
 10 11  1  0
 11 12  1  0
 12 13  1  0
 13 14  1  0
  6 15  2  0
 15 16  1  0
 16 17  2  0
 17 18  1  0
  2 19  1  0
 19 20  2  0
 20 21  1  0
 21 22  1  0
 22 23  2  0
 22 24  1  0
 24 25  2  0
 25 26  1  0
 26 27  2  0
 27 28  1  0
 28 29  2  0
 17  4  1  0
 29 19  1  0
 14 10  1  0
 29 24  1  0
  5 30  1  0
 11 31  1  0
 11 32  1  0
 12 33  1  0
 12 34  1  0
 13 35  1  0
 13 36  1  0
 14 37  1  0
 14 38  1  0
 15 39  1  0
 16 40  1  0
 25 41  1  0
 26 42  1  0
 27 43  1  0
 28 44  1  0
M  CHG  3   3  -1  18  -1  21  -1
M  END
>  <UniqueID>  (31) 
31

>  <SMILES>  (31) 
O=C([N-]c1cc(S(=O)(=O)N2CCCC2)ccc1[O-])c1n[n-]c(=O)c2ccccc12

>  <Energy>  (31) 
66.60010082781766

>  <Genealogy>  (31) 
O=C([N-]c1cc(S(=O)(=O)N2CCCC2)ccc1[O-])c1n[n-]c(=O)c2ccccc12 (protonated)
O=C([N-]c1cc(S(=O)(=O)N2CCCC2)ccc1[O-])c1n[n-]c(=O)c2ccccc12 (3D coordinates assigned)
O=C([N-]c1cc(S(=O)(=O)N2CCCC2)ccc1[O-])c1n[n-]c(=O)c2ccccc12 (nonaromatic ring conformer: 66.60010082781766 kcal/mol)

>  <smiles>  (31) 
O=C(Nc1cc(S(=O)(=O)N2CCCC2)ccc1O)c1n[nH]c(=O)c2ccccc12

>  <score_type>  (31) 
oracle

>  <origin>  (31) 
adgpu

>  <m_score__min__energy>  (31) 
-14.74

>  <m_primary>  (31) 
energy

$$$$
31:0
     RDKit          3D

 55 59  0  0  0  0  0  0  0  0999 V2000
   -0.7760   26.6600  -23.7150 C   0  0  0  0  0  0  0  0  0  0  0  0
   -1.0460   26.9950  -25.0720 O   0  0  0  0  0  0  0  0  0  0  0  0
   -1.2780   26.0560  -26.0870 C   0  0  0  0  0  0  0  0  0  0  0  0
   -1.6210   24.7480  -25.7190 C   0  0  0  0  0  0  0  0  0  0  0  0
   -1.8700   23.7780  -26.6940 C   0  0  0  0  0  0  0  0  0  0  0  0
   -1.7880   24.1070  -28.0540 C   0  0  0  0  0  0  0  0  0  0  0  0
   -2.0560   23.1130  -29.0590 N   0  0  0  0  0  0  0  0  0  0  0  0
   -3.3270   22.6080  -29.2210 C   0  0  0  0  0  0  0  0  0  0  0  0
   -4.4800   23.0220  -28.3360 C   0  0  0  0  0  0  0  0  0  0  0  0
   -4.7580   24.4570  -28.4510 N   0  0  0  0  0  0  0  0  0  0  0  0
   -5.1220   24.9220  -30.0940 S   0  0  0  0  0  0  0  0  0  0  0  0
   -6.0220   26.1280  -30.0870 O   0  0  0  0  0  0  0  0  0  0  0  0
   -3.8420   25.2900  -30.7880 O   0  0  0  0  0  0  0  0  0  0  0  0
   -5.8830   23.6010  -30.9810 C   0  0  0  0  0  0  0  0  0  0  0  0
   -5.1680   22.9620  -32.0270 C   0  0  0  0  0  0  0  0  0  0  0  0
   -5.7350   21.8790  -32.7230 C   0  0  0  0  0  0  0  0  0  0  0  0
   -7.0060   21.4610  -32.3390 C   0  0  0  0  0  0  0  0  0  0  0  0
   -7.7270   20.4430  -32.8250 N   0  0  0  0  0  0  0  0  0  0  0  0
   -8.8540   20.4700  -32.0730 C   0  0  0  0  0  0  0  0  0  0  0  0
   -9.7930   19.6440  -32.2220 O   0  0  0  0  0  0  0  0  0  0  0  0
   -8.8840   21.4560  -31.1390 N   0  0  0  0  0  0  0  0  0  0  0  0
   -7.7000   22.0690  -31.3320 C   0  0  0  0  0  0  0  0  0  0  0  0
   -7.1770   23.1530  -30.6310 C   0  0  0  0  0  0  0  0  0  0  0  0
   -3.5640   21.6630  -30.1670 N   0  0  0  0  0  0  0  0  0  0  0  0
   -2.5780   21.1840  -30.9610 C   0  0  0  0  0  0  0  0  0  0  0  0
   -2.8660   20.1890  -31.9030 C   0  0  0  0  0  0  0  0  0  0  0  0
   -1.8410   19.6710  -32.7190 C   0  0  0  0  0  0  0  0  0  0  0  0
   -2.0760   18.6590  -33.6640 O   0  0  0  0  0  0  0  0  0  0  0  0
   -3.3620   18.3220  -34.1780 C   0  0  0  0  0  0  0  0  0  0  0  0
   -0.5390   20.1750  -32.5910 C   0  0  0  0  0  0  0  0  0  0  0  0
   -0.2490   21.1710  -31.6520 C   0  0  0  0  0  0  0  0  0  0  0  0
   -1.2680   21.6780  -30.8240 C   0  0  0  0  0  0  0  0  0  0  0  0
   -1.0280   22.6640  -29.8500 C   0  0  0  0  0  0  0  0  0  0  0  0
    0.1380   23.1310  -29.7020 O   0  0  0  0  0  0  0  0  0  0  0  0
   -1.4370   25.4100  -28.4310 C   0  0  0  0  0  0  0  0  0  0  0  0
   -1.1820   26.3800  -27.4560 C   0  0  0  0  0  0  0  0  0  0  0  0
   -1.3268   27.3434  -23.0520 H   0  0  0  0  0  0  0  0  0  0  0  0
   -1.0956   25.6253  -23.5222 H   0  0  0  0  0  0  0  0  0  0  0  0
    0.3030   26.7525  -23.5222 H   0  0  0  0  0  0  0  0  0  0  0  0
   -1.6949   24.4825  -24.6541 H   0  0  0  0  0  0  0  0  0  0  0  0
   -2.1312   22.7528  -26.3929 H   0  0  0  0  0  0  0  0  0  0  0  0
   -5.3776   22.4593  -28.6320 H   0  0  0  0  0  0  0  0  0  0  0  0
   -4.2085   22.8059  -27.2922 H   0  0  0  0  0  0  0  0  0  0  0  0
   -4.1620   23.3165  -32.2958 H   0  0  0  0  0  0  0  0  0  0  0  0
   -5.1938   21.3807  -33.5408 H   0  0  0  0  0  0  0  0  0  0  0  0
   -7.4740   19.7790  -33.5890 H   0  0  0  0  0  0  0  0  0  0  0  0
   -7.7517   23.6439  -29.8318 H   0  0  0  0  0  0  0  0  0  0  0  0
   -3.8939   19.8112  -32.0061 H   0  0  0  0  0  0  0  0  0  0  0  0
   -4.0546   18.1405  -33.3429 H   0  0  0  0  0  0  0  0  0  0  0  0
   -3.7396   19.1515  -34.7939 H   0  0  0  0  0  0  0  0  0  0  0  0
   -3.2843   17.4139  -34.7939 H   0  0  0  0  0  0  0  0  0  0  0  0
    0.2623   19.7836  -33.2350 H   0  0  0  0  0  0  0  0  0  0  0  0
    0.7766   21.5582  -31.5608 H   0  0  0  0  0  0  0  0  0  0  0  0
   -1.3617   25.6709  -29.4969 H   0  0  0  0  0  0  0  0  0  0  0  0
   -0.9052   27.4007  -27.7587 H   0  0  0  0  0  0  0  0  0  0  0  0
  1  2  1  0
  2  3  1  0
  3  4  2  0
  4  5  1  0
  5  6  2  0
  6  7  1  0
  7  8  1  0
  8  9  1  0
  9 10  1  0
 10 11  1  0
 11 12  2  0
 11 13  2  0
 11 14  1  0
 14 15  2  0
 15 16  1  0
 16 17  2  0
 17 18  1  0
 18 19  1  0
 19 20  2  0
 19 21  1  0
 21 22  1  0
 22 23  2  0
  8 24  2  0
 24 25  1  0
 25 26  2  0
 26 27  1  0
 27 28  1  0
 28 29  1  0
 27 30  2  0
 30 31  1  0
 31 32  2  0
 32 33  1  0
 33 34  2  0
  6 35  1  0
 35 36  2  0
 36  3  1  0
 33  7  1  0
 23 14  1  0
 32 25  1  0
 22 17  1  0
  1 37  1  0
  1 38  1  0
  1 39  1  0
  4 40  1  0
  5 41  1  0
  9 42  1  0
  9 43  1  0
 15 44  1  0
 16 45  1  0
 18 46  1  0
 23 47  1  0
 26 48  1  0
 29 49  1  0
 29 50  1  0
 29 51  1  0
 30 52  1  0
 31 53  1  0
 35 54  1  0
 36 55  1  0
M  CHG  2  10  -1  21  -1
M  END
>  <UniqueID>  (32) 
32

>  <SMILES>  (32) 
COc1ccc(-n2c(C[N-]S(=O)(=O)c3ccc4[nH]c(=O)[n-]c4c3)nc3cc(OC)ccc3c2=O)cc1

>  <Energy>  (32) 
109.09385588206578

>  <Genealogy>  (32) 
COc1ccc(-n2c(C[N-]S(=O)(=O)c3ccc4[nH]c(=O)[n-]c4c3)nc3cc(OC)ccc3c2=O)cc1 (protonated)
COc1ccc(-n2c(C[N-]S(=O)(=O)c3ccc4[nH]c(=O)[n-]c4c3)nc3cc(OC)ccc3c2=O)cc1 (3D coordinates assigned)
COc1ccc(-n2c(C[N-]S(=O)(=O)c3ccc4[nH]c(=O)[n-]c4c3)nc3cc(OC)ccc3c2=O)cc1 (optimized conformer: 109.09385588206578 kcal/mol)

>  <smiles>  (32) 
COc1ccc(-n2c(CNS(=O)(=O)c3ccc4[nH]c(=O)[nH]c4c3)nc3cc(OC)ccc3c2=O)cc1

>  <score_type>  (32) 
oracle

>  <origin>  (32) 
adgpu

>  <m_score__min__energy>  (32) 
-10.789999999999999

>  <m_primary>  (32) 
energy

$$$$
32:0
     RDKit          3D

 48 50  0  0  0  0  0  0  0  0999 V2000
   -1.4610   21.1700  -33.2730 C   0  0  0  0  0  0  0  0  0  0  0  0
   -0.6180   21.3680  -32.1390 O   0  0  0  0  0  0  0  0  0  0  0  0
   -1.0690   21.3920  -30.8080 C   0  0  0  0  0  0  0  0  0  0  0  0
   -1.6580   22.5380  -30.2350 C   0  0  0  0  0  0  0  0  0  0  0  0
   -2.1130   22.5180  -28.9050 C   0  0  0  0  0  0  0  0  0  0  0  0
   -2.7900   23.7260  -28.3190 C   0  0  0  0  0  0  0  0  0  0  0  0
   -2.5730   24.9110  -29.2180 C   0  0  0  0  0  0  0  0  0  0  0  0
   -1.6330   25.7100  -28.9620 O   0  0  0  0  0  0  0  0  0  0  0  0
   -3.5010   25.2440  -30.2580 N   0  0  0  0  0  0  0  0  0  0  0  0
   -4.7020   24.5210  -30.5620 C   0  0  0  0  0  0  0  0  0  0  0  0
   -5.9660   25.0640  -30.2830 C   0  0  0  0  0  0  0  0  0  0  0  0
   -7.1230   24.3260  -30.5490 C   0  0  0  0  0  0  0  0  0  0  0  0
   -7.0250   23.0340  -31.0750 C   0  0  0  0  0  0  0  0  0  0  0  0
   -5.7670   22.4680  -31.3280 C   0  0  0  0  0  0  0  0  0  0  0  0
   -5.6430   20.8290  -31.9860 S   0  0  0  0  0  0  0  0  0  0  0  0
   -5.5150   20.9070  -33.4820 O   0  0  0  0  0  0  0  0  0  0  0  0
   -4.3980   20.1790  -31.4460 O   0  0  0  0  0  0  0  0  0  0  0  0
   -7.0270   19.8360  -31.5910 N   0  0  0  0  0  0  0  0  0  0  0  0
   -6.8020   18.4180  -31.8880 C   0  0  0  0  0  0  0  0  0  0  0  0
   -8.1450   17.8190  -32.2950 C   0  0  0  0  0  0  0  0  0  0  0  0
   -9.1000   18.9970  -32.4090 C   0  0  0  0  0  0  0  0  0  0  0  0
   -8.2100   20.2250  -32.3550 C   0  0  0  0  0  0  0  0  0  0  0  0
   -4.6070   23.2170  -31.0700 C   0  0  0  0  0  0  0  0  0  0  0  0
   -1.9870   21.3400  -28.1510 C   0  0  0  0  0  0  0  0  0  0  0  0
   -1.3890   20.2070  -28.7090 C   0  0  0  0  0  0  0  0  0  0  0  0
   -0.9300   20.2280  -30.0330 C   0  0  0  0  0  0  0  0  0  0  0  0
   -0.3390   19.0940  -30.5910 O   0  0  0  0  0  0  0  0  0  0  0  0
   -2.4801   20.9306  -32.9350 H   0  0  0  0  0  0  0  0  0  0  0  0
   -1.4818   22.0877  -33.8791 H   0  0  0  0  0  0  0  0  0  0  0  0
   -1.0711   20.3390  -33.8791 H   0  0  0  0  0  0  0  0  0  0  0  0
   -1.7623   23.4550  -30.8335 H   0  0  0  0  0  0  0  0  0  0  0  0
   -3.8684   23.5312  -28.2239 H   0  0  0  0  0  0  0  0  0  0  0  0
   -2.3652   23.9375  -27.3266 H   0  0  0  0  0  0  0  0  0  0  0  0
   -6.0463   26.0736  -29.8536 H   0  0  0  0  0  0  0  0  0  0  0  0
   -8.1119   24.7621  -30.3443 H   0  0  0  0  0  0  0  0  0  0  0  0
   -7.9379   22.4596  -31.2911 H   0  0  0  0  0  0  0  0  0  0  0  0
   -6.0798   18.3162  -32.7114 H   0  0  0  0  0  0  0  0  0  0  0  0
   -6.3943   17.8968  -31.0093 H   0  0  0  0  0  0  0  0  0  0  0  0
   -8.0573   17.3008  -33.2613 H   0  0  0  0  0  0  0  0  0  0  0  0
   -8.4986   17.0775  -31.5635 H   0  0  0  0  0  0  0  0  0  0  0  0
   -9.6503   18.9589  -33.3607 H   0  0  0  0  0  0  0  0  0  0  0  0
   -9.8561   18.9970  -31.6101 H   0  0  0  0  0  0  0  0  0  0  0  0
   -7.9235   20.5336  -33.3712 H   0  0  0  0  0  0  0  0  0  0  0  0
   -8.7277   21.0757  -31.8879 H   0  0  0  0  0  0  0  0  0  0  0  0
   -3.6179   22.7781  -31.2676 H   0  0  0  0  0  0  0  0  0  0  0  0
   -2.3606   21.3090  -27.1168 H   0  0  0  0  0  0  0  0  0  0  0  0
   -1.2779   19.2938  -28.1059 H   0  0  0  0  0  0  0  0  0  0  0  0
    0.0190   19.0950  -31.5410 H   0  0  0  0  0  0  0  0  0  0  0  0
  1  2  1  0
  2  3  1  0
  3  4  2  0
  4  5  1  0
  5  6  1  0
  6  7  1  0
  7  8  2  0
  7  9  1  0
  9 10  1  0
 10 11  2  0
 11 12  1  0
 12 13  2  0
 13 14  1  0
 14 15  1  0
 15 16  2  0
 15 17  2  0
 15 18  1  0
 18 19  1  0
 19 20  1  0
 20 21  1  0
 21 22  1  0
 14 23  2  0
  5 24  2  0
 24 25  1  0
 25 26  2  0
 26 27  1  0
 26  3  1  0
 23 10  1  0
 22 18  1  0
  1 28  1  0
  1 29  1  0
  1 30  1  0
  4 31  1  0
  6 32  1  0
  6 33  1  0
 11 34  1  0
 12 35  1  0
 13 36  1  0
 19 37  1  0
 19 38  1  0
 20 39  1  0
 20 40  1  0
 21 41  1  0
 21 42  1  0
 22 43  1  0
 22 44  1  0
 23 45  1  0
 24 46  1  0
 25 47  1  0
 27 48  1  0
M  CHG  1   9  -1
M  END
>  <UniqueID>  (33) 
33

>  <SMILES>  (33) 
COc1cc(CC(=O)[N-]c2cccc(S(=O)(=O)N3CCCC3)c2)ccc1O

>  <Energy>  (33) 
52.0726312923521

>  <Genealogy>  (33) 
COc1cc(CC(=O)[N-]c2cccc(S(=O)(=O)N3CCCC3)c2)ccc1O (protonated)
COc1cc(CC(=O)[N-]c2cccc(S(=O)(=O)N3CCCC3)c2)ccc1O (3D coordinates assigned)
COc1cc(CC(=O)[N-]c2cccc(S(=O)(=O)N3CCCC3)c2)ccc1O (nonaromatic ring conformer: 52.0726312923521 kcal/mol)

>  <smiles>  (33) 
COc1cc(CC(=O)Nc2cccc(S(=O)(=O)N3CCCC3)c2)ccc1O

>  <score_type>  (33) 
oracle

>  <origin>  (33) 
adgpu

>  <m_score__min__energy>  (33) 
-10.76

>  <m_primary>  (33) 
energy

$$$$
33:0
     RDKit          3D

 61 60  0  0  0  0  0  0  0  0999 V2000
   -4.5202   22.7046  -31.0177 H   0  0  0  0  0  0  0  0  0  0  0  0
   -3.7900   22.2570  -31.7080 C   0  0  0  0  0  0  0  0  0  0  0  0
   -2.5160   22.1290  -31.2920 C   0  0  0  0  0  0  0  0  0  0  0  0
   -2.2606   22.5124  -30.2931 H   0  0  0  0  0  0  0  0  0  0  0  0
   -1.4170   21.4950  -32.1050 C   0  0  0  0  0  0  0  0  0  0  0  0
   -0.4517   21.9311  -31.8084 H   0  0  0  0  0  0  0  0  0  0  0  0
   -1.6125   21.6855  -33.1706 H   0  0  0  0  0  0  0  0  0  0  0  0
   -1.3750   19.9860  -31.8780 C   0  0  0  0  0  0  0  0  0  0  0  0
   -1.3692   19.7777  -30.7979 H   0  0  0  0  0  0  0  0  0  0  0  0
   -2.2606   19.5215  -32.3363 H   0  0  0  0  0  0  0  0  0  0  0  0
   -0.4650   19.5715  -32.3363 H   0  0  0  0  0  0  0  0  0  0  0  0
   -4.2700   21.8200  -33.0690 C   0  0  0  0  0  0  0  0  0  0  0  0
   -4.9643   22.5760  -33.4645 H   0  0  0  0  0  0  0  0  0  0  0  0
   -3.3965   21.7131  -33.7289 H   0  0  0  0  0  0  0  0  0  0  0  0
   -4.9770   20.4950  -32.9960 C   0  0  0  0  0  0  0  0  0  0  0  0
   -5.8672   20.3942  -32.3577 H   0  0  0  0  0  0  0  0  0  0  0  0
   -4.5450   19.4330  -33.6930 C   0  0  0  0  0  0  0  0  0  0  0  0
   -3.6579   19.5380  -34.3350 H   0  0  0  0  0  0  0  0  0  0  0  0
   -5.2420   18.1040  -33.6190 C   0  0  0  0  0  0  0  0  0  0  0  0
   -5.0823   17.5592  -34.5611 H   0  0  0  0  0  0  0  0  0  0  0  0
   -4.8284   17.5335  -32.7743 H   0  0  0  0  0  0  0  0  0  0  0  0
   -6.7160   18.2910  -33.4010 C   0  0  0  0  0  0  0  0  0  0  0  0
   -7.3703   18.4533  -34.2702 H   0  0  0  0  0  0  0  0  0  0  0  0
   -7.2550   18.2650  -32.1720 C   0  0  0  0  0  0  0  0  0  0  0  0
   -6.6057   18.0780  -31.3040 H   0  0  0  0  0  0  0  0  0  0  0  0
   -8.7280   18.4860  -31.9550 C   0  0  0  0  0  0  0  0  0  0  0  0
   -9.2947   17.8148  -32.6171 H   0  0  0  0  0  0  0  0  0  0  0  0
   -8.9646   18.2746  -30.9017 H   0  0  0  0  0  0  0  0  0  0  0  0
   -9.1050   19.9100  -32.2570 C   0  0  0  0  0  0  0  0  0  0  0  0
   -9.3456   20.1956  -33.2917 H   0  0  0  0  0  0  0  0  0  0  0  0
   -9.1540   20.8390  -31.2910 C   0  0  0  0  0  0  0  0  0  0  0  0
   -8.9833   20.5377  -30.2469 H   0  0  0  0  0  0  0  0  0  0  0  0
   -9.4370   22.2840  -31.6020 C   0  0  0  0  0  0  0  0  0  0  0  0
  -10.3262   22.3391  -32.2471 H   0  0  0  0  0  0  0  0  0  0  0  0
   -9.5986   22.8073  -30.6481 H   0  0  0  0  0  0  0  0  0  0  0  0
   -8.2610   22.9700  -32.3210 C   0  0  0  0  0  0  0  0  0  0  0  0
   -8.0875   22.4460  -33.2725 H   0  0  0  0  0  0  0  0  0  0  0  0
   -8.5486   24.0232  -32.4555 H   0  0  0  0  0  0  0  0  0  0  0  0
   -6.9390   22.9750  -31.5260 C   0  0  0  0  0  0  0  0  0  0  0  0
   -6.6677   21.9318  -31.3065 H   0  0  0  0  0  0  0  0  0  0  0  0
   -6.2006   23.4921  -32.1563 H   0  0  0  0  0  0  0  0  0  0  0  0
   -6.9890   23.7470  -30.1950 C   0  0  0  0  0  0  0  0  0  0  0  0
   -8.0416   23.9366  -29.9379 H   0  0  0  0  0  0  0  0  0  0  0  0
   -6.4883   23.1295  -29.4348 H   0  0  0  0  0  0  0  0  0  0  0  0
   -6.2510   25.0890  -30.2590 C   0  0  0  0  0  0  0  0  0  0  0  0
   -6.2545   25.4560  -31.2960 H   0  0  0  0  0  0  0  0  0  0  0  0
   -6.7609   25.8096  -29.6027 H   0  0  0  0  0  0  0  0  0  0  0  0
   -4.8350   24.9260  -29.7970 C   0  0  0  0  0  0  0  0  0  0  0  0
   -3.8910   25.2570  -30.5660 O   0  0  0  0  0  0  0  0  0  0  0  0
   -4.5580   24.3490  -28.5100 N   0  0  0  0  0  0  0  0  0  0  0  0
   -5.3650   24.0130  -27.9350 H   0  0  0  0  0  0  0  0  0  0  0  0
   -3.1910   24.1690  -28.0090 C   0  0  0  0  0  0  0  0  0  0  0  0
   -2.4853   24.5769  -28.7477 H   0  0  0  0  0  0  0  0  0  0  0  0
   -2.8870   22.6800  -27.8180 C   0  0  0  0  0  0  0  0  0  0  0  0
   -2.8401   22.4503  -26.7433 H   0  0  0  0  0  0  0  0  0  0  0  0
   -3.6813   22.0805  -28.2868 H   0  0  0  0  0  0  0  0  0  0  0  0
   -1.9213   22.4399  -28.2868 H   0  0  0  0  0  0  0  0  0  0  0  0
   -3.0120   24.9240  -26.6890 C   0  0  0  0  0  0  0  0  0  0  0  0
   -3.1754   24.2348  -25.8474 H   0  0  0  0  0  0  0  0  0  0  0  0
   -1.9921   25.3326  -26.6357 H   0  0  0  0  0  0  0  0  0  0  0  0
   -3.7399   25.7470  -26.6357 H   0  0  0  0  0  0  0  0  0  0  0  0
  1  2  1  0
  2  3  2  3
  3  4  1  0
  3  5  1  0
  5  6  1  0
  5  7  1  0
  5  8  1  0
  8  9  1  0
  8 10  1  0
  8 11  1  0
  2 12  1  0
 12 13  1  0
 12 14  1  0
 12 15  1  0
 15 16  1  0
 15 17  2  0
 17 18  1  0
 17 19  1  0
 19 20  1  0
 19 21  1  0
 19 22  1  0
 22 23  1  0
 22 24  2  0
 24 25  1  0
 24 26  1  0
 26 27  1  0
 26 28  1  0
 26 29  1  0
 29 30  1  0
 29 31  2  3
 31 32  1  0
 31 33  1  0
 33 34  1  0
 33 35  1  0
 33 36  1  0
 36 37  1  0
 36 38  1  0
 36 39  1  0
 39 40  1  0
 39 41  1  0
 39 42  1  0
 42 43  1  0
 42 44  1  0
 42 45  1  0
 45 46  1  0
 45 47  1  0
 45 48  1  0
 48 49  2  0
 48 50  1  0
 50 51  1  0
 50 52  1  0
 52 53  1  0
 52 54  1  0
 54 55  1  0
 54 56  1  0
 54 57  1  0
 52 58  1  0
 58 59  1  0
 58 60  1  0
 58 61  1  0
M  END
>  <UniqueID>  (34) 
34

>  <SMILES>  (34) 
CCC=CC/C=C/C/C=C/CC=CCCCCCC(=O)NC(C)C

>  <Energy>  (34) 
23.772273139261465

>  <Genealogy>  (34) 
CCC=CC/C=C/C/C=C/CC=CCCCCCC(=O)NC(C)C (cis-trans isomerization)
CCC=CC/C=C/C/C=C/CC=CCCCCCC(=O)NC(C)C (3D coordinates assigned)
CCC=CC/C=C/C/C=C/CC=CCCCCCC(=O)NC(C)C (optimized conformer: 23.772273139261465 kcal/mol)

>  <smiles>  (34) 
CCC=CCC=CCC=CCC=CCCCCCC(=O)NC(C)C

>  <score_type>  (34) 
oracle

>  <origin>  (34) 
adgpu

>  <m_score__min__energy>  (34) 
-8.7300000000000004

>  <m_primary>  (34) 
energy

$$$$
34:0
     RDKit          3D

 43 45  0  0  0  0  0  0  0  0999 V2000
   -1.7280   25.3970  -29.0180 O   0  0  0  0  0  0  0  0  0  0  0  0
   -2.5250   24.5440  -29.4950 C   0  0  0  0  0  0  0  0  0  0  0  0
   -3.4880   24.9430  -30.4740 N   0  0  0  0  0  0  0  0  0  0  0  0
   -5.1900   24.9380  -30.1630 S   0  0  0  0  0  0  0  0  0  0  0  0
   -5.4240   24.9590  -28.6780 O   0  0  0  0  0  0  0  0  0  0  0  0
   -5.8120   26.1670  -30.7650 O   0  0  0  0  0  0  0  0  0  0  0  0
   -5.9080   23.4780  -30.8380 C   0  0  0  0  0  0  0  0  0  0  0  0
   -5.2690   22.2380  -30.7010 C   0  0  0  0  0  0  0  0  0  0  0  0
   -5.8550   21.0830  -31.2280 C   0  0  0  0  0  0  0  0  0  0  0  0
   -7.0890   21.1570  -31.8890 C   0  0  0  0  0  0  0  0  0  0  0  0
   -7.8090   19.7030  -32.5730 S   0  0  0  0  0  0  0  0  0  0  0  0
   -7.9970   18.6850  -31.4840 O   0  0  0  0  0  0  0  0  0  0  0  0
   -9.1540   20.0320  -33.1600 O   0  0  0  0  0  0  0  0  0  0  0  0
   -6.7500   19.0570  -33.8010 N   0  0  0  0  0  0  0  0  0  0  0  0
   -5.3990   19.6140  -33.7030 C   0  0  0  0  0  0  0  0  0  0  0  0
   -4.4530   18.5690  -34.2810 C   0  0  0  0  0  0  0  0  0  0  0  0
   -5.2360   17.2630  -34.2730 C   0  0  0  0  0  0  0  0  0  0  0  0
   -6.5940   17.6060  -33.6780 C   0  0  0  0  0  0  0  0  0  0  0  0
   -7.7250   22.3980  -32.0280 C   0  0  0  0  0  0  0  0  0  0  0  0
   -7.1400   23.5520  -31.5010 C   0  0  0  0  0  0  0  0  0  0  0  0
   -2.4610   23.1350  -29.0420 C   0  0  0  0  0  0  0  0  0  0  0  0
   -1.7060   22.1830  -29.7490 C   0  0  0  0  0  0  0  0  0  0  0  0
   -1.6560   20.8600  -29.3080 C   0  0  0  0  0  0  0  0  0  0  0  0
   -2.3610   20.4930  -28.1620 C   0  0  0  0  0  0  0  0  0  0  0  0
   -3.0870   21.4210  -27.4850 N   0  0  0  0  0  0  0  0  0  0  0  0
   -3.1530   22.7170  -27.8920 C   0  0  0  0  0  0  0  0  0  0  0  0
   -4.3038   22.1733  -30.1774 H   0  0  0  0  0  0  0  0  0  0  0  0
   -5.3462   20.1134  -31.1236 H   0  0  0  0  0  0  0  0  0  0  0  0
   -7.1510   19.2840  -34.7420 H   0  0  0  0  0  0  0  0  0  0  0  0
   -5.3309   20.5479  -34.2802 H   0  0  0  0  0  0  0  0  0  0  0  0
   -5.1415   19.8475  -32.6594 H   0  0  0  0  0  0  0  0  0  0  0  0
   -4.1642   18.8379  -35.3078 H   0  0  0  0  0  0  0  0  0  0  0  0
   -3.5242   18.4916  -33.6968 H   0  0  0  0  0  0  0  0  0  0  0  0
   -5.3512   16.8777  -35.2969 H   0  0  0  0  0  0  0  0  0  0  0  0
   -4.7218   16.4828  -33.6927 H   0  0  0  0  0  0  0  0  0  0  0  0
   -7.3923   17.0901  -34.2317 H   0  0  0  0  0  0  0  0  0  0  0  0
   -6.6586   17.2876  -32.6271 H   0  0  0  0  0  0  0  0  0  0  0  0
   -8.6887   22.4637  -32.5542 H   0  0  0  0  0  0  0  0  0  0  0  0
   -7.6483   24.5218  -31.6069 H   0  0  0  0  0  0  0  0  0  0  0  0
   -1.1533   22.4817  -30.6520 H   0  0  0  0  0  0  0  0  0  0  0  0
   -1.0658   20.1132  -29.8594 H   0  0  0  0  0  0  0  0  0  0  0  0
   -2.3294   19.4526  -27.8062 H   0  0  0  0  0  0  0  0  0  0  0  0
   -3.7504   23.4413  -27.3188 H   0  0  0  0  0  0  0  0  0  0  0  0
  1  2  2  0
  2  3  1  0
  3  4  1  0
  4  5  2  0
  4  6  2  0
  4  7  1  0
  7  8  2  0
  8  9  1  0
  9 10  2  0
 10 11  1  0
 11 12  2  0
 11 13  2  0
 11 14  1  0
 14 15  1  0
 15 16  1  0
 16 17  1  0
 17 18  1  0
 10 19  1  0
 19 20  2  0
  2 21  1  0
 21 22  2  0
 22 23  1  0
 23 24  2  0
 24 25  1  0
 25 26  2  0
 20  7  1  0
 26 21  1  0
 18 14  1  0
  8 27  1  0
  9 28  1  0
 14 29  1  0
 15 30  1  0
 15 31  1  0
 16 32  1  0
 16 33  1  0
 17 34  1  0
 17 35  1  0
 18 36  1  0
 18 37  1  0
 19 38  1  0
 20 39  1  0
 22 40  1  0
 23 41  1  0
 24 42  1  0
 26 43  1  0
M  CHG  2   3  -1  14   1
M  END
>  <UniqueID>  (35) 
35

>  <SMILES>  (35) 
O=C([N-]S(=O)(=O)c1ccc(S(=O)(=O)[NH+]2CCCC2)cc1)c1cccnc1

>  <Energy>  (35) 
48.39306270537793

>  <Genealogy>  (35) 
O=C([N-]S(=O)(=O)c1ccc(S(=O)(=O)[NH+]2CCCC2)cc1)c1cccnc1 (protonated)
O=C([N-]S(=O)(=O)c1ccc(S(=O)(=O)[NH+]2CCCC2)cc1)c1cccnc1 (3D coordinates assigned)
O=C([N-]S(=O)(=O)c1ccc(S(=O)(=O)[NH+]2CCCC2)cc1)c1cccnc1 (nonaromatic ring conformer: 48.39306270537793 kcal/mol)

>  <smiles>  (35) 
O=C(NS(=O)(=O)c1ccc(S(=O)(=O)N2CCCC2)cc1)c1cccnc1

>  <score_type>  (35) 
oracle

>  <origin>  (35) 
adgpu

>  <m_score__min__energy>  (35) 
-10.69

>  <m_primary>  (35) 
energy

$$$$
35:0
     RDKit          3D

 40 41  0  0  0  0  0  0  0  0999 V2000
   -6.4320   24.9670  -29.8680 C   0  0  0  0  0  0  0  0  0  0  0  0
   -5.1650   24.8410  -30.6610 C   0  0  0  0  0  0  0  0  0  0  0  0
   -4.2520   25.6850  -30.4700 O   0  0  0  0  0  0  0  0  0  0  0  0
   -4.9360   23.7960  -31.6250 N   0  0  0  0  0  0  0  0  0  0  0  0
   -3.9510   22.9480  -31.6980 C   0  0  0  0  0  0  0  0  0  0  0  0
   -3.9320   22.0450  -32.7110 N   0  0  0  0  0  0  0  0  0  0  0  0
   -2.9180   21.1450  -32.8170 C   0  0  0  0  0  0  0  0  0  0  0  0
   -2.8900   20.2150  -33.8560 O   0  0  0  0  0  0  0  0  0  0  0  0
   -3.5690   18.6540  -33.7110 S   0  0  0  0  0  0  0  0  0  0  0  0
   -3.5020   17.9440  -35.0340 O   0  0  0  0  0  0  0  0  0  0  0  0
   -2.7960   17.8600  -32.6940 O   0  0  0  0  0  0  0  0  0  0  0  0
   -5.2480   18.8020  -33.2080 C   0  0  0  0  0  0  0  0  0  0  0  0
   -5.9930   19.9430  -33.5390 C   0  0  0  0  0  0  0  0  0  0  0  0
   -7.3310   20.0470  -33.1450 C   0  0  0  0  0  0  0  0  0  0  0  0
   -7.9360   19.0160  -32.4110 C   0  0  0  0  0  0  0  0  0  0  0  0
   -9.3820   19.1120  -32.0230 C   0  0  0  0  0  0  0  0  0  0  0  0
   -7.1960   17.8640  -32.1040 C   0  0  0  0  0  0  0  0  0  0  0  0
   -5.8580   17.7600  -32.4960 C   0  0  0  0  0  0  0  0  0  0  0  0
   -1.9170   21.1500  -31.9020 N   0  0  0  0  0  0  0  0  0  0  0  0
   -1.9290   22.0500  -30.8870 C   0  0  0  0  0  0  0  0  0  0  0  0
   -0.6130   22.0500  -29.6730 S   0  0  0  0  0  0  0  0  0  0  0  0
   -1.5020   23.1000  -28.4680 C   0  0  0  0  0  0  0  0  0  0  0  0
   -1.0810   24.5650  -28.5670 C   0  0  0  0  0  0  0  0  0  0  0  0
   -1.9990   25.2790  -29.3470 O   0  0  0  0  0  0  0  0  0  0  0  0
   -2.9450   22.9410  -30.7840 N   0  0  0  0  0  0  0  0  0  0  0  0
   -6.1961   24.9435  -28.7938 H   0  0  0  0  0  0  0  0  0  0  0  0
   -6.9256   25.9187  -30.1143 H   0  0  0  0  0  0  0  0  0  0  0  0
   -7.1034   24.1312  -30.1143 H   0  0  0  0  0  0  0  0  0  0  0  0
   -5.5241   20.7581  -34.1098 H   0  0  0  0  0  0  0  0  0  0  0  0
   -7.9120   20.9421  -33.4121 H   0  0  0  0  0  0  0  0  0  0  0  0
   -9.4678   19.1177  -30.9264 H   0  0  0  0  0  0  0  0  0  0  0  0
   -9.8097   20.0405  -32.4291 H   0  0  0  0  0  0  0  0  0  0  0  0
   -9.9287   18.2482  -32.4291 H   0  0  0  0  0  0  0  0  0  0  0  0
   -7.6707   17.0391  -31.5525 H   0  0  0  0  0  0  0  0  0  0  0  0
   -5.2819   16.8572  -32.2448 H   0  0  0  0  0  0  0  0  0  0  0  0
   -2.5823   23.0269  -28.6620 H   0  0  0  0  0  0  0  0  0  0  0  0
   -1.2546   22.7425  -27.4576 H   0  0  0  0  0  0  0  0  0  0  0  0
   -1.0440   25.0017  -27.5581 H   0  0  0  0  0  0  0  0  0  0  0  0
   -0.0882   24.6228  -29.0371 H   0  0  0  0  0  0  0  0  0  0  0  0
   -2.4150   24.6160  -29.9570 H   0  0  0  0  0  0  0  0  0  0  0  0
  1  2  1  0
  2  3  2  0
  2  4  1  0
  4  5  2  3
  5  6  1  0
  6  7  2  0
  7  8  1  0
  8  9  1  0
  9 10  2  0
  9 11  2  0
  9 12  1  0
 12 13  2  0
 13 14  1  0
 14 15  2  0
 15 16  1  0
 15 17  1  0
 17 18  2  0
  7 19  1  0
 19 20  1  0
 20 21  1  0
 21 22  1  0
 22 23  1  0
 23 24  1  0
 20 25  2  0
 25  5  1  0
 18 12  1  0
  1 26  1  0
  1 27  1  0
  1 28  1  0
 13 29  1  0
 14 30  1  0
 16 31  1  0
 16 32  1  0
 16 33  1  0
 17 34  1  0
 18 35  1  0
 22 36  1  0
 22 37  1  0
 23 38  1  0
 23 39  1  0
 24 40  1  0
M  CHG  1  19  -1
M  END
>  <UniqueID>  (36) 
36

>  <SMILES>  (36) 
CC(=O)N=c1nc(OS(=O)(=O)c2ccc(C)cc2)[n-]c(SCCO)n1

>  <Energy>  (36) 
35.07359615891262

>  <Genealogy>  (36) 
CC(=O)N=c1nc(OS(=O)(=O)c2ccc(C)cc2)[n-]c(SCCO)n1 (protonated)
CC(=O)N=c1nc(OS(=O)(=O)c2ccc(C)cc2)[n-]c(SCCO)n1 (3D coordinates assigned)
CC(=O)N=c1nc(OS(=O)(=O)c2ccc(C)cc2)[n-]c(SCCO)n1 (optimized conformer: 35.07359615891262 kcal/mol)

>  <smiles>  (36) 
CC(=O)N=c1nc(OS(=O)(=O)c2ccc(C)cc2)[nH]c(SCCO)n1

>  <score_type>  (36) 
oracle

>  <origin>  (36) 
adgpu

>  <m_score__min__energy>  (36) 
-8.8300000000000001

>  <m_primary>  (36) 
energy

$$$$
36:0
     RDKit          3D

 44 46  0  0  0  0  0  0  0  0999 V2000
   -3.6110   24.2900  -28.1700 O   0  0  0  0  0  0  0  0  0  0  0  0
   -2.8630   24.4770  -29.4610 S   0  0  0  0  0  0  0  0  0  0  0  0
   -1.6450   25.3130  -29.1870 O   0  0  0  0  0  0  0  0  0  0  0  0
   -3.8690   25.2990  -30.6140 N   0  0  0  0  0  0  0  0  0  0  0  0
   -5.2430   25.3550  -30.1230 C   0  0  0  0  0  0  0  0  0  0  0  0
   -6.0120   24.1920  -30.6800 C   0  0  0  0  0  0  0  0  0  0  0  0
   -6.8400   23.4210  -29.8520 C   0  0  0  0  0  0  0  0  0  0  0  0
   -7.5770   22.3650  -30.3890 C   0  0  0  0  0  0  0  0  0  0  0  0
   -7.4870   22.0960  -31.7570 C   0  0  0  0  0  0  0  0  0  0  0  0
   -6.6940   22.8620  -32.5510 N   0  0  0  0  0  0  0  0  0  0  0  0
   -5.9650   23.8960  -32.0500 C   0  0  0  0  0  0  0  0  0  0  0  0
   -2.3580   22.9130  -30.0980 C   0  0  0  0  0  0  0  0  0  0  0  0
   -1.3060   22.2180  -29.4890 C   0  0  0  0  0  0  0  0  0  0  0  0
   -0.8940   20.9830  -29.9980 C   0  0  0  0  0  0  0  0  0  0  0  0
   -1.5280   20.4400  -31.1170 C   0  0  0  0  0  0  0  0  0  0  0  0
   -2.5820   21.1280  -31.7350 C   0  0  0  0  0  0  0  0  0  0  0  0
   -3.3950   20.4390  -33.1400 S   0  0  0  0  0  0  0  0  0  0  0  0
   -2.3840   20.1970  -34.2270 O   0  0  0  0  0  0  0  0  0  0  0  0
   -4.3940   21.4360  -33.6570 O   0  0  0  0  0  0  0  0  0  0  0  0
   -4.2190   18.9360  -32.7720 N   0  0  0  0  0  0  0  0  0  0  0  0
   -4.1460   17.9570  -33.8770 C   0  0  0  0  0  0  0  0  0  0  0  0
   -5.4460   17.8780  -34.6950 C   0  0  0  0  0  0  0  0  0  0  0  0
   -6.1080   19.1220  -34.6870 O   0  0  0  0  0  0  0  0  0  0  0  0
   -6.6220   19.3800  -33.3940 C   0  0  0  0  0  0  0  0  0  0  0  0
   -5.5870   19.1520  -32.2670 C   0  0  0  0  0  0  0  0  0  0  0  0
   -2.9860   22.3710  -31.2270 C   0  0  0  0  0  0  0  0  0  0  0  0
   -5.2437   25.3046  -29.0242 H   0  0  0  0  0  0  0  0  0  0  0  0
   -5.7126   26.2969  -30.4429 H   0  0  0  0  0  0  0  0  0  0  0  0
   -6.9087   23.6488  -28.7780 H   0  0  0  0  0  0  0  0  0  0  0  0
   -8.2216   21.7512  -29.7426 H   0  0  0  0  0  0  0  0  0  0  0  0
   -8.0589   21.2630  -32.1918 H   0  0  0  0  0  0  0  0  0  0  0  0
   -5.3375   24.5010  -32.7210 H   0  0  0  0  0  0  0  0  0  0  0  0
   -0.8030   22.6445  -28.6086 H   0  0  0  0  0  0  0  0  0  0  0  0
   -0.0689   20.4381  -29.5160 H   0  0  0  0  0  0  0  0  0  0  0  0
   -1.1995   19.4687  -31.5154 H   0  0  0  0  0  0  0  0  0  0  0  0
   -3.3255   18.2477  -34.5495 H   0  0  0  0  0  0  0  0  0  0  0  0
   -3.9777   16.9665  -33.4292 H   0  0  0  0  0  0  0  0  0  0  0  0
   -5.2053   17.6022  -35.7323 H   0  0  0  0  0  0  0  0  0  0  0  0
   -6.1048   17.1204  -34.2455 H   0  0  0  0  0  0  0  0  0  0  0  0
   -6.9567   20.4271  -33.3539 H   0  0  0  0  0  0  0  0  0  0  0  0
   -7.4483   18.6738  -33.2251 H   0  0  0  0  0  0  0  0  0  0  0  0
   -5.5827   20.0356  -31.6119 H   0  0  0  0  0  0  0  0  0  0  0  0
   -5.8850   18.2405  -31.7281 H   0  0  0  0  0  0  0  0  0  0  0  0
   -3.8007   22.9237  -31.7178 H   0  0  0  0  0  0  0  0  0  0  0  0
  1  2  2  0
  2  3  2  0
  2  4  1  0
  4  5  1  0
  5  6  1  0
  6  7  2  0
  7  8  1  0
  8  9  2  0
  9 10  1  0
 10 11  2  0
  2 12  1  0
 12 13  2  0
 13 14  1  0
 14 15  2  0
 15 16  1  0
 16 17  1  0
 17 18  2  0
 17 19  2  0
 17 20  1  0
 20 21  1  0
 21 22  1  0
 22 23  1  0
 23 24  1  0
 24 25  1  0
 16 26  2  0
 11  6  1  0
 26 12  1  0
 25 20  1  0
  5 27  1  0
  5 28  1  0
  7 29  1  0
  8 30  1  0
  9 31  1  0
 11 32  1  0
 13 33  1  0
 14 34  1  0
 15 35  1  0
 21 36  1  0
 21 37  1  0
 22 38  1  0
 22 39  1  0
 24 40  1  0
 24 41  1  0
 25 42  1  0
 25 43  1  0
 26 44  1  0
M  CHG  1   4  -1
M  END
>  <UniqueID>  (37) 
37

>  <SMILES>  (37) 
O=S(=O)([N-]Cc1cccnc1)c1cccc(S(=O)(=O)N2CCOCC2)c1

>  <Energy>  (37) 
53.9753977680796

>  <Genealogy>  (37) 
O=S(=O)([N-]Cc1cccnc1)c1cccc(S(=O)(=O)N2CCOCC2)c1 (protonated)
O=S(=O)([N-]Cc1cccnc1)c1cccc(S(=O)(=O)N2CCOCC2)c1 (3D coordinates assigned)
O=S(=O)([N-]Cc1cccnc1)c1cccc(S(=O)(=O)N2CCOCC2)c1 (nonaromatic ring conformer: 53.9753977680796 kcal/mol)

>  <smiles>  (37) 
O=S(=O)(NCc1cccnc1)c1cccc(S(=O)(=O)N2CCOCC2)c1

>  <score_type>  (37) 
oracle

>  <origin>  (37) 
adgpu

>  <m_score__min__energy>  (37) 
-10.300000000000001

>  <m_primary>  (37) 
energy

$$$$
37:0
     RDKit          3D

 51 55  0  0  0  0  0  0  0  0999 V2000
   -1.9090   19.6730  -31.6120 C   0  0  0  0  0  0  0  0  0  0  0  0
   -2.6690   20.1380  -32.8570 C   0  0  0  0  0  0  0  0  0  0  0  0
   -1.7430   20.7580  -33.9090 C   0  0  0  0  0  0  0  0  0  0  0  0
   -3.7730   21.0480  -32.5000 N   0  0  0  0  0  0  0  0  0  0  0  0
   -5.1030   20.7460  -32.5510 C   0  0  0  0  0  0  0  0  0  0  0  0
   -5.6510   19.4640  -33.0330 C   0  0  0  0  0  0  0  0  0  0  0  0
   -5.0920   18.8770  -34.1800 C   0  0  0  0  0  0  0  0  0  0  0  0
   -5.6030   17.6770  -34.6770 C   0  0  0  0  0  0  0  0  0  0  0  0
   -6.6760   17.0540  -34.0360 C   0  0  0  0  0  0  0  0  0  0  0  0
   -7.2370   17.6290  -32.8920 C   0  0  0  0  0  0  0  0  0  0  0  0
   -6.7290   18.8280  -32.3790 C   0  0  0  0  0  0  0  0  0  0  0  0
   -7.3010   19.3500  -31.2170 O   0  0  0  0  0  0  0  0  0  0  0  0
   -5.8710   21.7250  -31.9240 C   0  0  0  0  0  0  0  0  0  0  0  0
   -4.9600   22.6720  -31.5280 C   0  0  0  0  0  0  0  0  0  0  0  0
   -3.7190   22.2470  -31.8720 C   0  0  0  0  0  0  0  0  0  0  0  0
   -2.7790   22.8010  -30.8900 C   0  0  0  0  0  0  0  0  0  0  0  0
   -1.5430   22.5740  -30.8280 O   0  0  0  0  0  0  0  0  0  0  0  0
   -3.4930   23.6110  -29.9440 N   0  0  0  0  0  0  0  0  0  0  0  0
   -2.9590   24.2700  -28.7820 C   0  0  0  0  0  0  0  0  0  0  0  0
   -3.6890   24.2950  -27.5860 C   0  0  0  0  0  0  0  0  0  0  0  0
   -3.1740   24.9310  -26.4530 C   0  0  0  0  0  0  0  0  0  0  0  0
   -1.9160   25.5600  -26.4920 C   0  0  0  0  0  0  0  0  0  0  0  0
   -1.3660   26.2330  -25.2860 C   0  0  0  0  0  0  0  0  0  0  0  0
   -0.8760   25.6260  -24.1410 C   0  0  0  0  0  0  0  0  0  0  0  0
   -0.4750   26.6520  -23.3110 C   0  0  0  0  0  0  0  0  0  0  0  0
   -0.6980   27.8070  -23.8920 O   0  0  0  0  0  0  0  0  0  0  0  0
   -1.2310   27.5960  -25.0730 C   0  0  0  0  0  0  0  0  0  0  0  0
   -1.1890   25.5350  -27.6960 C   0  0  0  0  0  0  0  0  0  0  0  0
   -1.7050   24.8970  -28.8290 C   0  0  0  0  0  0  0  0  0  0  0  0
   -4.8670   23.4960  -30.3350 C   0  0  0  0  0  0  0  0  0  0  0  0
   -5.8370   24.0150  -29.7230 O   0  0  0  0  0  0  0  0  0  0  0  0
   -2.4464   20.0018  -30.7103 H   0  0  0  0  0  0  0  0  0  0  0  0
   -1.8360   18.5754  -31.6156 H   0  0  0  0  0  0  0  0  0  0  0  0
   -0.8985   20.1077  -31.6156 H   0  0  0  0  0  0  0  0  0  0  0  0
   -3.1087   19.2411  -33.3178 H   0  0  0  0  0  0  0  0  0  0  0  0
   -0.9299   21.3024  -33.4066 H   0  0  0  0  0  0  0  0  0  0  0  0
   -1.3175   19.9620  -34.5378 H   0  0  0  0  0  0  0  0  0  0  0  0
   -2.3169   21.4546  -34.5378 H   0  0  0  0  0  0  0  0  0  0  0  0
   -4.2478   19.3651  -34.6889 H   0  0  0  0  0  0  0  0  0  0  0  0
   -5.1599   17.2214  -35.5748 H   0  0  0  0  0  0  0  0  0  0  0  0
   -7.0799   16.1104  -34.4315 H   0  0  0  0  0  0  0  0  0  0  0  0
   -8.0834   17.1358  -32.3916 H   0  0  0  0  0  0  0  0  0  0  0  0
   -8.0730   18.9050  -30.7380 H   0  0  0  0  0  0  0  0  0  0  0  0
   -6.9614   21.7363  -31.7791 H   0  0  0  0  0  0  0  0  0  0  0  0
   -4.6752   23.8102  -27.5386 H   0  0  0  0  0  0  0  0  0  0  0  0
   -3.7583   24.9399  -25.5210 H   0  0  0  0  0  0  0  0  0  0  0  0
   -0.8185   24.5468  -23.9359 H   0  0  0  0  0  0  0  0  0  0  0  0
   -0.0343   26.5214  -22.3117 H   0  0  0  0  0  0  0  0  0  0  0  0
   -1.5255   28.3811  -25.7850 H   0  0  0  0  0  0  0  0  0  0  0  0
   -0.2042   26.0224  -27.7472 H   0  0  0  0  0  0  0  0  0  0  0  0
   -1.1237   24.8869  -29.7628 H   0  0  0  0  0  0  0  0  0  0  0  0
  1  2  1  0
  2  3  1  0
  2  4  1  0
  4  5  1  0
  5  6  1  0
  6  7  2  0
  7  8  1  0
  8  9  2  0
  9 10  1  0
 10 11  2  0
 11 12  1  0
  5 13  2  0
 13 14  1  0
 14 15  2  0
 15 16  1  0
 16 17  2  0
 16 18  1  0
 18 19  1  0
 19 20  2  0
 20 21  1  0
 21 22  2  0
 22 23  1  0
 23 24  1  0
 24 25  2  0
 25 26  1  0
 26 27  1  0
 22 28  1  0
 28 29  2  0
 18 30  1  0
 30 31  2  0
 15  4  1  0
 29 19  1  0
 11  6  1  0
 30 14  1  0
 27 23  2  0
  1 32  1  0
  1 33  1  0
  1 34  1  0
  2 35  1  0
  3 36  1  0
  3 37  1  0
  3 38  1  0
  7 39  1  0
  8 40  1  0
  9 41  1  0
 10 42  1  0
 12 43  1  0
 13 44  1  0
 20 45  1  0
 21 46  1  0
 24 47  1  0
 25 48  1  0
 27 49  1  0
 28 50  1  0
 29 51  1  0
M  END
>  <UniqueID>  (38) 
38

>  <SMILES>  (38) 
CC(C)n1c(-c2ccccc2O)cc2c1C(=O)N(c1ccc(-c3ccoc3)cc1)C2=O

>  <Energy>  (38) 
173.04156119599298

>  <Genealogy>  (38) 
CC(C)n1c(-c2ccccc2O)cc2c1C(=O)N(c1ccc(-c3ccoc3)cc1)C2=O (3D coordinates assigned)
CC(C)n1c(-c2ccccc2O)cc2c1C(=O)N(c1ccc(-c3ccoc3)cc1)C2=O (nonaromatic ring conformer: 173.04156119599298 kcal/mol)

>  <smiles>  (38) 
CC(C)n1c(-c2ccccc2O)cc2c1C(=O)N(c1ccc(-c3ccoc3)cc1)C2=O

>  <score_type>  (38) 
oracle

>  <origin>  (38) 
adgpu

>  <m_score__min__energy>  (38) 
-8.5700000000000003

>  <m_primary>  (38) 
energy

$$$$
38:0
     RDKit          3D

 47 50  0  0  0  0  0  0  0  0999 V2000
   -3.7280   24.9210  -29.2150 O   0  0  0  0  0  0  0  0  0  0  0  0
   -2.4830   24.7490  -29.3350 C   0  0  0  0  0  0  0  0  0  0  0  0
   -1.5820   25.7830  -28.9200 N   0  0  0  0  0  0  0  0  0  0  0  0
   -1.2680   26.1290  -27.5640 C   0  0  0  0  0  0  0  0  0  0  0  0
   -1.8060   25.3620  -26.5250 C   0  0  0  0  0  0  0  0  0  0  0  0
   -1.5390   25.6990  -25.1960 C   0  0  0  0  0  0  0  0  0  0  0  0
   -0.7490   26.8160  -24.9200 C   0  0  0  0  0  0  0  0  0  0  0  0
   -0.2530   27.5680  -25.9380 N   0  0  0  0  0  0  0  0  0  0  0  0
   -0.4930   27.2560  -27.2400 C   0  0  0  0  0  0  0  0  0  0  0  0
   -1.9680   23.4790  -29.9090 C   0  0  0  0  0  0  0  0  0  0  0  0
   -2.8390   22.6620  -30.6530 C   0  0  0  0  0  0  0  0  0  0  0  0
   -2.4310   21.4020  -31.1100 C   0  0  0  0  0  0  0  0  0  0  0  0
   -3.5960   20.3250  -31.8860 S   0  0  0  0  0  0  0  0  0  0  0  0
   -4.4500   19.6730  -30.8340 O   0  0  0  0  0  0  0  0  0  0  0  0
   -2.8540   19.2390  -32.6160 O   0  0  0  0  0  0  0  0  0  0  0  0
   -4.6430   21.1990  -32.9890 N   0  0  0  0  0  0  0  0  0  0  0  0
   -5.3700   22.3150  -32.3150 C   0  0  0  0  0  0  0  0  0  0  0  0
   -6.9040   22.2900  -32.4760 C   0  0  0  0  0  0  0  0  0  0  0  0
   -7.4220   20.8880  -32.3700 C   0  0  0  0  0  0  0  0  0  0  0  0
   -8.5850   20.5750  -31.6510 C   0  0  0  0  0  0  0  0  0  0  0  0
   -9.0440   19.2550  -31.6080 C   0  0  0  0  0  0  0  0  0  0  0  0
   -8.3560   18.2510  -32.2970 C   0  0  0  0  0  0  0  0  0  0  0  0
   -7.2030   18.5630  -33.0260 C   0  0  0  0  0  0  0  0  0  0  0  0
   -6.7280   19.8830  -33.0490 C   0  0  0  0  0  0  0  0  0  0  0  0
   -5.4750   20.2690  -33.7850 C   0  0  0  0  0  0  0  0  0  0  0  0
   -1.1200   20.9740  -30.8740 C   0  0  0  0  0  0  0  0  0  0  0  0
   -0.2310   21.7920  -30.1750 C   0  0  0  0  0  0  0  0  0  0  0  0
   -0.6440   23.0370  -29.6830 C   0  0  0  0  0  0  0  0  0  0  0  0
    0.2640   23.8270  -28.9770 O   0  0  0  0  0  0  0  0  0  0  0  0
   -2.4398   24.4928  -26.7549 H   0  0  0  0  0  0  0  0  0  0  0  0
   -1.9471   25.0904  -24.3756 H   0  0  0  0  0  0  0  0  0  0  0  0
   -0.5275   27.0881  -23.8775 H   0  0  0  0  0  0  0  0  0  0  0  0
   -0.0798   27.8868  -28.0409 H   0  0  0  0  0  0  0  0  0  0  0  0
   -3.8550   23.0177  -30.8791 H   0  0  0  0  0  0  0  0  0  0  0  0
   -5.1397   22.2714  -31.2403 H   0  0  0  0  0  0  0  0  0  0  0  0
   -5.0267   23.2406  -32.8002 H   0  0  0  0  0  0  0  0  0  0  0  0
   -7.3606   22.9049  -31.6864 H   0  0  0  0  0  0  0  0  0  0  0  0
   -7.1634   22.6902  -33.4673 H   0  0  0  0  0  0  0  0  0  0  0  0
   -9.1352   21.3669  -31.1217 H   0  0  0  0  0  0  0  0  0  0  0  0
   -9.9472   19.0059  -31.0316 H   0  0  0  0  0  0  0  0  0  0  0  0
   -8.7219   17.2141  -32.2658 H   0  0  0  0  0  0  0  0  0  0  0  0
   -6.6705   17.7755  -33.5795 H   0  0  0  0  0  0  0  0  0  0  0  0
   -4.8918   19.3611  -33.9985 H   0  0  0  0  0  0  0  0  0  0  0  0
   -5.7646   20.7765  -34.7170 H   0  0  0  0  0  0  0  0  0  0  0  0
   -0.7893   19.9908  -31.2401 H   0  0  0  0  0  0  0  0  0  0  0  0
    0.8032   21.4561  -30.0089 H   0  0  0  0  0  0  0  0  0  0  0  0
    0.2410   24.8400  -29.0280 H   0  0  0  0  0  0  0  0  0  0  0  0
  1  2  2  0
  2  3  1  0
  3  4  1  0
  4  5  2  0
  5  6  1  0
  6  7  2  0
  7  8  1  0
  8  9  2  0
  2 10  1  0
 10 11  2  0
 11 12  1  0
 12 13  1  0
 13 14  2  0
 13 15  2  0
 13 16  1  0
 16 17  1  0
 17 18  1  0
 18 19  1  0
 19 20  2  0
 20 21  1  0
 21 22  2  0
 22 23  1  0
 23 24  2  0
 24 25  1  0
 12 26  2  0
 26 27  1  0
 27 28  2  0
 28 29  1  0
  9  4  1  0
 28 10  1  0
 25 16  1  0
 24 19  1  0
  5 30  1  0
  6 31  1  0
  7 32  1  0
  9 33  1  0
 11 34  1  0
 17 35  1  0
 17 36  1  0
 18 37  1  0
 18 38  1  0
 20 39  1  0
 21 40  1  0
 22 41  1  0
 23 42  1  0
 25 43  1  0
 25 44  1  0
 26 45  1  0
 27 46  1  0
 29 47  1  0
M  CHG  1   3  -1
M  END
>  <UniqueID>  (39) 
39

>  <SMILES>  (39) 
O=C([N-]c1cccnc1)c1cc(S(=O)(=O)N2CCc3ccccc3C2)ccc1O

>  <Energy>  (39) 
63.56232066541942

>  <Genealogy>  (39) 
O=C([N-]c1cccnc1)c1cc(S(=O)(=O)N2CCc3ccccc3C2)ccc1O (protonated)
O=C([N-]c1cccnc1)c1cc(S(=O)(=O)N2CCc3ccccc3C2)ccc1O (3D coordinates assigned)
O=C([N-]c1cccnc1)c1cc(S(=O)(=O)N2CCc3ccccc3C2)ccc1O (nonaromatic ring conformer: 63.56232066541942 kcal/mol)

>  <smiles>  (39) 
O=C(Nc1cccnc1)c1cc(S(=O)(=O)N2CCc3ccccc3C2)ccc1O

>  <score_type>  (39) 
oracle

>  <origin>  (39) 
adgpu

>  <m_score__min__energy>  (39) 
-10.300000000000001

>  <m_primary>  (39) 
energy

$$$$
39:0
     RDKit          3D

 42 45  0  0  0  0  0  0  0  0999 V2000
   -9.2230   21.1940  -31.9110 C   0  0  0  0  0  0  0  0  0  0  0  0
   -8.2500   20.2170  -31.2600 C   0  0  0  0  0  0  0  0  0  0  0  0
   -6.8630   20.5520  -31.6270 N   0  0  0  0  0  0  0  0  0  0  0  0
   -6.2750   21.6380  -31.0390 C   0  0  0  0  0  0  0  0  0  0  0  0
   -4.9610   22.0060  -31.3490 C   0  0  0  0  0  0  0  0  0  0  0  0
   -4.3890   23.2180  -30.7330 C   0  0  0  0  0  0  0  0  0  0  0  0
   -4.6040   24.4600  -31.2110 N   0  0  0  0  0  0  0  0  0  0  0  0
   -3.8620   25.2880  -30.4910 N   0  0  0  0  0  0  0  0  0  0  0  0
   -3.1980   24.5350  -29.5950 C   0  0  0  0  0  0  0  0  0  0  0  0
   -2.0970   25.1530  -28.5530 S   0  0  0  0  0  0  0  0  0  0  0  0
   -3.5080   23.2260  -29.7080 N   0  0  0  0  0  0  0  0  0  0  0  0
   -2.8560   22.0790  -29.0690 C   0  0  0  0  0  0  0  0  0  0  0  0
   -1.7630   21.5590  -29.9470 C   0  0  0  0  0  0  0  0  0  0  0  0
   -1.4410   20.2300  -30.1370 C   0  0  0  0  0  0  0  0  0  0  0  0
   -0.4100   20.2270  -31.0510 C   0  0  0  0  0  0  0  0  0  0  0  0
   -0.1690   21.5500  -31.3620 C   0  0  0  0  0  0  0  0  0  0  0  0
   -0.9930   22.3210  -30.6900 O   0  0  0  0  0  0  0  0  0  0  0  0
   -4.2190   21.2170  -32.2380 C   0  0  0  0  0  0  0  0  0  0  0  0
   -3.0160   21.5100  -32.4890 O   0  0  0  0  0  0  0  0  0  0  0  0
   -4.8160   20.0920  -32.8290 C   0  0  0  0  0  0  0  0  0  0  0  0
   -4.1180   19.2700  -33.7300 C   0  0  0  0  0  0  0  0  0  0  0  0
   -4.7460   18.1570  -34.2900 C   0  0  0  0  0  0  0  0  0  0  0  0
   -6.0690   17.8670  -33.9470 C   0  0  0  0  0  0  0  0  0  0  0  0
   -6.7610   16.6780  -34.5340 C   0  0  0  0  0  0  0  0  0  0  0  0
   -6.7320   18.6730  -33.0740 N   0  0  0  0  0  0  0  0  0  0  0  0
   -6.1560   19.7700  -32.5070 C   0  0  0  0  0  0  0  0  0  0  0  0
   -9.7694   21.7427  -31.1297 H   0  0  0  0  0  0  0  0  0  0  0  0
   -8.6644   21.9059  -32.5365 H   0  0  0  0  0  0  0  0  0  0  0  0
   -9.9371   20.6383  -32.5365 H   0  0  0  0  0  0  0  0  0  0  0  0
   -8.3588   20.2714  -30.1668 H   0  0  0  0  0  0  0  0  0  0  0  0
   -8.4765   19.1999  -31.6123 H   0  0  0  0  0  0  0  0  0  0  0  0
   -6.8450   22.2324  -30.3098 H   0  0  0  0  0  0  0  0  0  0  0  0
   -2.4305   22.3925  -28.1043 H   0  0  0  0  0  0  0  0  0  0  0  0
   -3.5992   21.2843  -28.9077 H   0  0  0  0  0  0  0  0  0  0  0  0
   -1.9092   19.3569  -29.6591 H   0  0  0  0  0  0  0  0  0  0  0  0
    0.1152   19.3476  -31.4520 H   0  0  0  0  0  0  0  0  0  0  0  0
    0.5976   21.9051  -32.0664 H   0  0  0  0  0  0  0  0  0  0  0  0
   -3.0761   19.5041  -33.9939 H   0  0  0  0  0  0  0  0  0  0  0  0
   -4.2032   17.5122  -34.9968 H   0  0  0  0  0  0  0  0  0  0  0  0
   -7.1354   16.0348  -33.7240 H   0  0  0  0  0  0  0  0  0  0  0  0
   -7.6045   17.0142  -35.1548 H   0  0  0  0  0  0  0  0  0  0  0  0
   -6.0520   16.1106  -35.1548 H   0  0  0  0  0  0  0  0  0  0  0  0
  1  2  1  0
  2  3  1  0
  3  4  1  0
  4  5  2  0
  5  6  1  0
  6  7  2  0
  7  8  1  0
  8  9  1  0
  9 10  2  0
  9 11  1  0
 11 12  1  0
 12 13  1  0
 13 14  2  0
 14 15  1  0
 15 16  2  0
 16 17  1  0
  5 18  1  0
 18 19  2  0
 18 20  1  0
 20 21  2  0
 21 22  1  0
 22 23  2  0
 23 24  1  0
 23 25  1  0
 25 26  2  0
 26  3  1  0
 11  6  1  0
 17 13  1  0
 26 20  1  0
  1 27  1  0
  1 28  1  0
  1 29  1  0
  2 30  1  0
  2 31  1  0
  4 32  1  0
 12 33  1  0
 12 34  1  0
 14 35  1  0
 15 36  1  0
 16 37  1  0
 21 38  1  0
 22 39  1  0
 24 40  1  0
 24 41  1  0
 24 42  1  0
M  CHG  1   8  -1
M  END
>  <UniqueID>  (40) 
40

>  <SMILES>  (40) 
CCn1cc(-c2n[n-]c(=S)n2Cc2ccco2)c(=O)c2ccc(C)nc21

>  <Energy>  (40) 
114.22492998435521

>  <Genealogy>  (40) 
CCn1cc(-c2n[n-]c(=S)n2Cc2ccco2)c(=O)c2ccc(C)nc21 (protonated)
CCn1cc(-c2n[n-]c(=S)n2Cc2ccco2)c(=O)c2ccc(C)nc21 (3D coordinates assigned)
CCn1cc(-c2n[n-]c(=S)n2Cc2ccco2)c(=O)c2ccc(C)nc21 (optimized conformer: 114.22492998435521 kcal/mol)

>  <smiles>  (40) 
CCn1cc(-c2n[nH]c(=S)n2Cc2ccco2)c(=O)c2ccc(C)nc21

>  <score_type>  (40) 
oracle

>  <origin>  (40) 
adgpu

>  <m_score__min__energy>  (40) 
-9.4000000000000004

>  <m_primary>  (40) 
energy

$$$$
40:0
     RDKit          3D

 44 47  0  0  0  0  0  0  0  0999 V2000
   -1.7500   22.6420  -30.4830 C   0  0  0  0  0  0  0  0  0  0  0  0
   -3.0390   23.3020  -30.2800 N   0  0  0  0  0  0  0  0  0  0  0  0
   -3.2460   24.5500  -29.7950 C   0  0  0  0  0  0  0  0  0  0  0  0
   -2.2310   25.3840  -29.3420 O   0  0  0  0  0  0  0  0  0  0  0  0
   -4.5930   24.8890  -29.8160 C   0  0  0  0  0  0  0  0  0  0  0  0
   -5.2200   23.7860  -30.3600 C   0  0  0  0  0  0  0  0  0  0  0  0
   -6.5650   23.5680  -30.6420 C   0  0  0  0  0  0  0  0  0  0  0  0
   -6.9280   22.3360  -31.2220 C   0  0  0  0  0  0  0  0  0  0  0  0
   -8.6170   22.0310  -31.6120 S   0  0  0  0  0  0  0  0  0  0  0  0
   -9.3960   21.6520  -30.3840 O   0  0  0  0  0  0  0  0  0  0  0  0
   -9.2120   23.2800  -32.1960 O   0  0  0  0  0  0  0  0  0  0  0  0
   -8.7250   20.7510  -32.7780 N   0  0  0  0  0  0  0  0  0  0  0  0
   -7.8620   19.6040  -32.8380 C   0  0  0  0  0  0  0  0  0  0  0  0
   -6.8730   19.4760  -33.8330 C   0  0  0  0  0  0  0  0  0  0  0  0
   -6.0430   18.3480  -33.8690 C   0  0  0  0  0  0  0  0  0  0  0  0
   -6.1890   17.3400  -32.9040 C   0  0  0  0  0  0  0  0  0  0  0  0
   -7.1830   17.4530  -31.9230 C   0  0  0  0  0  0  0  0  0  0  0  0
   -8.0150   18.5790  -31.8820 C   0  0  0  0  0  0  0  0  0  0  0  0
   -8.9900   18.6540  -30.8870 O   0  0  0  0  0  0  0  0  0  0  0  0
   -5.3330   16.1040  -33.0050 C   0  0  0  0  0  0  0  0  0  0  0  0
   -3.8760   16.4280  -33.4030 C   0  0  0  0  0  0  0  0  0  0  0  0
   -3.6990   17.6660  -34.3190 C   0  0  0  0  0  0  0  0  0  0  0  0
   -5.0070   18.1680  -34.9420 C   0  0  0  0  0  0  0  0  0  0  0  0
   -5.9360   21.3650  -31.5040 C   0  0  0  0  0  0  0  0  0  0  0  0
   -4.5820   21.6180  -31.2140 C   0  0  0  0  0  0  0  0  0  0  0  0
   -4.2560   22.8460  -30.6350 C   0  0  0  0  0  0  0  0  0  0  0  0
   -1.2986   22.4109  -29.5069 H   0  0  0  0  0  0  0  0  0  0  0  0
   -1.9002   21.7099  -31.0474 H   0  0  0  0  0  0  0  0  0  0  0  0
   -1.0815   23.3088  -31.0474 H   0  0  0  0  0  0  0  0  0  0  0  0
   -5.0564   25.8267  -29.4753 H   0  0  0  0  0  0  0  0  0  0  0  0
   -7.3221   24.3342  -30.4189 H   0  0  0  0  0  0  0  0  0  0  0  0
   -6.7516   20.2675  -34.5872 H   0  0  0  0  0  0  0  0  0  0  0  0
   -7.3108   16.6520  -31.1800 H   0  0  0  0  0  0  0  0  0  0  0  0
   -9.4740   19.5150  -30.6640 H   0  0  0  0  0  0  0  0  0  0  0  0
   -5.3282   15.5968  -32.0289 H   0  0  0  0  0  0  0  0  0  0  0  0
   -5.7606   15.4630  -33.7900 H   0  0  0  0  0  0  0  0  0  0  0  0
   -3.3027   16.6030  -32.4807 H   0  0  0  0  0  0  0  0  0  0  0  0
   -3.5209   15.5653  -33.9858 H   0  0  0  0  0  0  0  0  0  0  0  0
   -3.2649   18.4807  -33.7207 H   0  0  0  0  0  0  0  0  0  0  0  0
   -3.0462   17.3589  -35.1494 H   0  0  0  0  0  0  0  0  0  0  0  0
   -4.8276   19.1311  -35.4423 H   0  0  0  0  0  0  0  0  0  0  0  0
   -5.3669   17.4318  -35.6758 H   0  0  0  0  0  0  0  0  0  0  0  0
   -6.2265   20.4041  -31.9539 H   0  0  0  0  0  0  0  0  0  0  0  0
   -3.8051   20.8717  -31.4365 H   0  0  0  0  0  0  0  0  0  0  0  0
  1  2  1  0
  2  3  1  0
  3  4  1  0
  3  5  2  0
  5  6  1  0
  6  7  2  0
  7  8  1  0
  8  9  1  0
  9 10  2  0
  9 11  2  0
  9 12  1  0
 12 13  1  0
 13 14  2  0
 14 15  1  0
 15 16  2  0
 16 17  1  0
 17 18  2  0
 18 19  1  0
 16 20  1  0
 20 21  1  0
 21 22  1  0
 22 23  1  0
  8 24  2  0
 24 25  1  0
 25 26  2  0
 26  2  1  0
 26  6  1  0
 18 13  1  0
 23 15  1  0
  1 27  1  0
  1 28  1  0
  1 29  1  0
  5 30  1  0
  7 31  1  0
 14 32  1  0
 17 33  1  0
 19 34  1  0
 20 35  1  0
 20 36  1  0
 21 37  1  0
 21 38  1  0
 22 39  1  0
 22 40  1  0
 23 41  1  0
 23 42  1  0
 24 43  1  0
 25 44  1  0
M  CHG  2   4  -1  12  -1
M  END
>  <UniqueID>  (41) 
41

>  <SMILES>  (41) 
Cn1c([O-])cc2cc(S(=O)(=O)[N-]c3cc4c(cc3O)CCCC4)ccc21

>  <Energy>  (41) 
88.97544022489969

>  <Genealogy>  (41) 
Cn1c([O-])cc2cc(S(=O)(=O)[N-]c3cc4c(cc3O)CCCC4)ccc21 (protonated)
Cn1c([O-])cc2cc(S(=O)(=O)[N-]c3cc4c(cc3O)CCCC4)ccc21 (3D coordinates assigned)
Cn1c([O-])cc2cc(S(=O)(=O)[N-]c3cc4c(cc3O)CCCC4)ccc21 (nonaromatic ring conformer: 88.97544022489969 kcal/mol)

>  <smiles>  (41) 
Cn1c(O)cc2cc(S(=O)(=O)Nc3cc4c(cc3O)CCCC4)ccc21

>  <score_type>  (41) 
oracle

>  <origin>  (41) 
adgpu

>  <m_score__min__energy>  (41) 
-11.949999999999999

>  <m_primary>  (41) 
energy

$$$$
41:0
     RDKit          3D

 45 47  0  0  0  0  0  0  0  0999 V2000
   -2.0960   22.4590  -30.6690 C   0  0  0  0  0  0  0  0  0  0  0  0
   -1.9840   22.1570  -32.0570 O   0  0  0  0  0  0  0  0  0  0  0  0
   -2.2230   20.8910  -32.6190 C   0  0  0  0  0  0  0  0  0  0  0  0
   -3.2340   20.0400  -32.1350 C   0  0  0  0  0  0  0  0  0  0  0  0
   -3.4470   18.7880  -32.7200 C   0  0  0  0  0  0  0  0  0  0  0  0
   -2.6560   18.3640  -33.7970 C   0  0  0  0  0  0  0  0  0  0  0  0
   -2.8680   17.0070  -34.4130 C   0  0  0  0  0  0  0  0  0  0  0  0
   -4.2160   17.0530  -35.6460 S   0  0  0  0  0  0  0  0  0  0  0  0
   -5.5210   17.1900  -34.4270 C   0  0  0  0  0  0  0  0  0  0  0  0
   -5.9630   16.1630  -33.6810 N   0  0  0  0  0  0  0  0  0  0  0  0
   -6.9120   16.6580  -32.9010 N   0  0  0  0  0  0  0  0  0  0  0  0
   -7.0090   17.9660  -33.2040 C   0  0  0  0  0  0  0  0  0  0  0  0
   -7.9810   18.9110  -32.5730 C   0  0  0  0  0  0  0  0  0  0  0  0
   -7.7940   20.2610  -33.1060 N   0  0  0  0  0  0  0  0  0  0  0  0
   -7.1700   21.3450  -32.3900 C   0  0  0  0  0  0  0  0  0  0  0  0
   -7.8790   21.9850  -31.3600 C   0  0  0  0  0  0  0  0  0  0  0  0
   -7.3060   23.0440  -30.6490 C   0  0  0  0  0  0  0  0  0  0  0  0
   -6.0110   23.4780  -30.9560 C   0  0  0  0  0  0  0  0  0  0  0  0
   -5.2900   24.8210  -30.0760 S   0  0  0  0  0  0  0  0  0  0  0  0
   -3.8150   25.2940  -30.8400 N   0  0  0  0  0  0  0  0  0  0  0  0
   -6.2460   25.9810  -30.0630 O   0  0  0  0  0  0  0  0  0  0  0  0
   -4.9900   24.4050  -28.6620 O   0  0  0  0  0  0  0  0  0  0  0  0
   -5.3000   22.8540  -31.9870 C   0  0  0  0  0  0  0  0  0  0  0  0
   -5.8720   21.7960  -32.7010 C   0  0  0  0  0  0  0  0  0  0  0  0
   -6.1590   18.3000  -34.1460 O   0  0  0  0  0  0  0  0  0  0  0  0
   -1.6440   19.2070  -34.2790 C   0  0  0  0  0  0  0  0  0  0  0  0
   -1.4290   20.4640  -33.6970 C   0  0  0  0  0  0  0  0  0  0  0  0
   -0.3790   21.3090  -34.2100 C   0  0  0  0  0  0  0  0  0  0  0  0
    0.4650   21.9850  -34.6220 N   0  0  0  0  0  0  0  0  0  0  0  0
   -1.7735   21.5895  -30.0774 H   0  0  0  0  0  0  0  0  0  0  0  0
   -1.4584   23.3226  -30.4290 H   0  0  0  0  0  0  0  0  0  0  0  0
   -3.1426   22.6980  -30.4290 H   0  0  0  0  0  0  0  0  0  0  0  0
   -3.8611   20.3620  -31.2905 H   0  0  0  0  0  0  0  0  0  0  0  0
   -4.2402   18.1316  -32.3327 H   0  0  0  0  0  0  0  0  0  0  0  0
   -1.9389   16.6868  -34.9072 H   0  0  0  0  0  0  0  0  0  0  0  0
   -3.1439   16.2994  -33.6173 H   0  0  0  0  0  0  0  0  0  0  0  0
   -9.0060   18.5746  -32.7877 H   0  0  0  0  0  0  0  0  0  0  0  0
   -7.8104   18.9279  -31.4864 H   0  0  0  0  0  0  0  0  0  0  0  0
   -8.1850   20.4530  -34.0580 H   0  0  0  0  0  0  0  0  0  0  0  0
   -8.8963   21.6494  -31.1100 H   0  0  0  0  0  0  0  0  0  0  0  0
   -7.8742   23.5372  -29.8466 H   0  0  0  0  0  0  0  0  0  0  0  0
   -3.9610   26.2560  -31.2220 H   0  0  0  0  0  0  0  0  0  0  0  0
   -4.2854   23.1975  -32.2374 H   0  0  0  0  0  0  0  0  0  0  0  0
   -5.3049   21.3130  -33.5104 H   0  0  0  0  0  0  0  0  0  0  0  0
   -1.0146   18.8795  -35.1196 H   0  0  0  0  0  0  0  0  0  0  0  0
  1  2  1  0
  2  3  1  0
  3  4  2  0
  4  5  1  0
  5  6  2  0
  6  7  1  0
  7  8  1  0
  8  9  1  0
  9 10  2  0
 10 11  1  0
 11 12  2  0
 12 13  1  0
 13 14  1  0
 14 15  1  0
 15 16  2  0
 16 17  1  0
 17 18  2  0
 18 19  1  0
 19 20  1  0
 19 21  2  0
 19 22  2  0
 18 23  1  0
 23 24  2  0
 12 25  1  0
  6 26  1  0
 26 27  2  0
 27 28  1  0
 28 29  3  0
 27  3  1  0
 25  9  1  0
 24 15  1  0
  1 30  1  0
  1 31  1  0
  1 32  1  0
  4 33  1  0
  5 34  1  0
  7 35  1  0
  7 36  1  0
 13 37  1  0
 13 38  1  0
 14 39  1  0
 16 40  1  0
 17 41  1  0
 20 42  1  0
 23 43  1  0
 24 44  1  0
 26 45  1  0
M  CHG  1  20  -1
M  END
>  <UniqueID>  (42) 
42

>  <SMILES>  (42) 
COc1ccc(CSc2nnc(CNc3ccc(S([NH-])(=O)=O)cc3)o2)cc1C#N

>  <Energy>  (42) 
75.47212097463832

>  <Genealogy>  (42) 
COc1ccc(CSc2nnc(CNc3ccc(S([NH-])(=O)=O)cc3)o2)cc1C#N (protonated)
COc1ccc(CSc2nnc(CNc3ccc(S([NH-])(=O)=O)cc3)o2)cc1C#N (3D coordinates assigned)
COc1ccc(CSc2nnc(CNc3ccc(S([NH-])(=O)=O)cc3)o2)cc1C#N (optimized conformer: 75.47212097463832 kcal/mol)

>  <smiles>  (42) 
COc1ccc(CSc2nnc(CNc3ccc(S(N)(=O)=O)cc3)o2)cc1C#N

>  <score_type>  (42) 
oracle

>  <origin>  (42) 
adgpu

>  <m_score__min__energy>  (42) 
-10.99

>  <m_primary>  (42) 
energy

$$$$
42:0
     RDKit          3D

 49 51  0  0  0  0  0  0  0  0999 V2000
   -9.1060   19.8640  -32.1480 C   0  0  0  0  0  0  0  0  0  0  0  0
   -8.0450   20.9210  -32.0690 C   0  0  0  0  0  0  0  0  0  0  0  0
   -6.7220   20.6230  -32.4250 C   0  0  0  0  0  0  0  0  0  0  0  0
   -5.7270   21.5990  -32.3130 C   0  0  0  0  0  0  0  0  0  0  0  0
   -6.0370   22.8820  -31.8480 C   0  0  0  0  0  0  0  0  0  0  0  0
   -4.9790   23.8420  -31.7230 N   0  0  0  0  0  0  0  0  0  0  0  0
   -4.9410   24.9600  -30.8250 C   0  0  0  0  0  0  0  0  0  0  0  0
   -5.9460   25.7090  -30.6940 O   0  0  0  0  0  0  0  0  0  0  0  0
   -3.7300   25.2950  -30.1430 N   0  0  0  0  0  0  0  0  0  0  0  0
   -3.0650   24.4520  -29.1920 C   0  0  0  0  0  0  0  0  0  0  0  0
   -3.7100   23.2910  -28.7730 C   0  0  0  0  0  0  0  0  0  0  0  0
   -3.1010   22.4330  -27.8660 C   0  0  0  0  0  0  0  0  0  0  0  0
   -1.8280   22.7160  -27.3470 C   0  0  0  0  0  0  0  0  0  0  0  0
   -1.2340   21.7320  -26.3750 C   0  0  0  0  0  0  0  0  0  0  0  0
   -1.1540   23.9040  -27.7540 C   0  0  0  0  0  0  0  0  0  0  0  0
    0.4280   24.3810  -27.0780 S   0  0  0  0  0  0  0  0  0  0  0  0
    1.3700   24.9060  -28.1250 O   0  0  0  0  0  0  0  0  0  0  0  0
    1.0660   23.1640  -26.4680 O   0  0  0  0  0  0  0  0  0  0  0  0
    0.1820   25.5930  -25.8450 N   0  0  0  0  0  0  0  0  0  0  0  0
   -0.3830   24.9770  -24.6360 C   0  0  0  0  0  0  0  0  0  0  0  0
   -0.6150   26.0510  -23.5520 C   0  0  0  0  0  0  0  0  0  0  0  0
   -0.3860   27.3630  -24.0390 O   0  0  0  0  0  0  0  0  0  0  0  0
   -1.1590   27.5820  -25.2030 C   0  0  0  0  0  0  0  0  0  0  0  0
   -0.7140   26.6480  -26.3480 C   0  0  0  0  0  0  0  0  0  0  0  0
   -1.7620   24.7330  -28.7350 C   0  0  0  0  0  0  0  0  0  0  0  0
   -1.0850   25.8170  -29.3040 O   0  0  0  0  0  0  0  0  0  0  0  0
   -7.3550   23.1680  -31.4500 C   0  0  0  0  0  0  0  0  0  0  0  0
   -8.3520   22.1930  -31.5610 C   0  0  0  0  0  0  0  0  0  0  0  0
   -9.4041   19.5670  -31.1317 H   0  0  0  0  0  0  0  0  0  0  0  0
   -9.9799   20.2611  -32.6851 H   0  0  0  0  0  0  0  0  0  0  0  0
   -8.7122   18.9886  -32.6851 H   0  0  0  0  0  0  0  0  0  0  0  0
   -6.4661   19.6186  -32.7934 H   0  0  0  0  0  0  0  0  0  0  0  0
   -4.6913   21.3562  -32.5929 H   0  0  0  0  0  0  0  0  0  0  0  0
   -4.7100   23.0514  -29.1635 H   0  0  0  0  0  0  0  0  0  0  0  0
   -3.6241   21.5184  -27.5499 H   0  0  0  0  0  0  0  0  0  0  0  0
   -1.4354   22.0656  -25.3463 H   0  0  0  0  0  0  0  0  0  0  0  0
   -1.6852   20.7415  -26.5342 H   0  0  0  0  0  0  0  0  0  0  0  0
   -0.1474   21.6698  -26.5342 H   0  0  0  0  0  0  0  0  0  0  0  0
   -1.3417   24.4989  -24.8854 H   0  0  0  0  0  0  0  0  0  0  0  0
    0.3219   24.2248  -24.2523 H   0  0  0  0  0  0  0  0  0  0  0  0
   -1.6549   25.9803  -23.2004 H   0  0  0  0  0  0  0  0  0  0  0  0
    0.0978   25.8652  -22.7351 H   0  0  0  0  0  0  0  0  0  0  0  0
   -2.2174   27.3898  -24.9731 H   0  0  0  0  0  0  0  0  0  0  0  0
   -1.0172   28.6238  -25.5262 H   0  0  0  0  0  0  0  0  0  0  0  0
   -1.6025   26.1817  -26.7988 H   0  0  0  0  0  0  0  0  0  0  0  0
   -0.1716   27.2431  -27.0974 H   0  0  0  0  0  0  0  0  0  0  0  0
   -0.1230   26.0540  -29.1090 H   0  0  0  0  0  0  0  0  0  0  0  0
   -7.6030   24.1622  -31.0499 H   0  0  0  0  0  0  0  0  0  0  0  0
   -9.3811   22.4242  -31.2488 H   0  0  0  0  0  0  0  0  0  0  0  0
  1  2  1  0
  2  3  2  0
  3  4  1  0
  4  5  2  0
  5  6  1  0
  6  7  1  0
  7  8  2  0
  7  9  1  0
  9 10  1  0
 10 11  2  0
 11 12  1  0
 12 13  2  0
 13 14  1  0
 13 15  1  0
 15 16  1  0
 16 17  2  0
 16 18  2  0
 16 19  1  0
 19 20  1  0
 20 21  1  0
 21 22  1  0
 22 23  1  0
 23 24  1  0
 15 25  2  0
 25 26  1  0
  5 27  1  0
 27 28  2  0
 28  2  1  0
 25 10  1  0
 24 19  1  0
  1 29  1  0
  1 30  1  0
  1 31  1  0
  3 32  1  0
  4 33  1  0
 11 34  1  0
 12 35  1  0
 14 36  1  0
 14 37  1  0
 14 38  1  0
 20 39  1  0
 20 40  1  0
 21 41  1  0
 21 42  1  0
 23 43  1  0
 23 44  1  0
 24 45  1  0
 24 46  1  0
 26 47  1  0
 27 48  1  0
 28 49  1  0
M  CHG  2   6  -1   9  -1
M  END
>  <UniqueID>  (43) 
43

>  <SMILES>  (43) 
Cc1ccc([N-]C(=O)[N-]c2ccc(C)c(S(=O)(=O)N3CCOCC3)c2O)cc1

>  <Energy>  (43) 
70.75320102277097

>  <Genealogy>  (43) 
Cc1ccc([N-]C(=O)[N-]c2ccc(C)c(S(=O)(=O)N3CCOCC3)c2O)cc1 (protonated)
Cc1ccc([N-]C(=O)[N-]c2ccc(C)c(S(=O)(=O)N3CCOCC3)c2O)cc1 (3D coordinates assigned)
Cc1ccc([N-]C(=O)[N-]c2ccc(C)c(S(=O)(=O)N3CCOCC3)c2O)cc1 (nonaromatic ring conformer: 70.75320102277097 kcal/mol)

>  <smiles>  (43) 
Cc1ccc(NC(=O)Nc2ccc(C)c(S(=O)(=O)N3CCOCC3)c2O)cc1

>  <score_type>  (43) 
oracle

>  <origin>  (43) 
adgpu

>  <m_score__min__energy>  (43) 
-12.99

>  <m_primary>  (43) 
energy

$$$$
43:0
     RDKit          3D

 35 38  0  0  0  0  0  0  0  0999 V2000
   -3.8440   25.6730  -30.8270 O   0  0  0  0  0  0  0  0  0  0  0  0
   -4.7780   24.7040  -30.4760 C   0  0  0  0  0  0  0  0  0  0  0  0
   -6.1400   25.0210  -30.4900 C   0  0  0  0  0  0  0  0  0  0  0  0
   -7.0880   24.0640  -30.1180 C   0  0  0  0  0  0  0  0  0  0  0  0
   -6.6770   22.7860  -29.7300 C   0  0  0  0  0  0  0  0  0  0  0  0
   -5.3170   22.4620  -29.7180 C   0  0  0  0  0  0  0  0  0  0  0  0
   -4.3590   23.4170  -30.0930 C   0  0  0  0  0  0  0  0  0  0  0  0
   -2.9640   23.0760  -30.0780 N   0  0  0  0  0  0  0  0  0  0  0  0
   -2.2870   22.2460  -30.9040 C   0  0  0  0  0  0  0  0  0  0  0  0
   -2.8830   21.3480  -31.9130 C   0  0  0  0  0  0  0  0  0  0  0  0
   -3.8180   20.3660  -31.6550 C   0  0  0  0  0  0  0  0  0  0  0  0
   -4.1020   19.8280  -32.9020 C   0  0  0  0  0  0  0  0  0  0  0  0
   -5.0480   18.7250  -33.2030 C   0  0  0  0  0  0  0  0  0  0  0  0
   -6.2410   18.5620  -32.4710 C   0  0  0  0  0  0  0  0  0  0  0  0
   -7.1190   17.5160  -32.7710 C   0  0  0  0  0  0  0  0  0  0  0  0
   -6.8200   16.6220  -33.8020 C   0  0  0  0  0  0  0  0  0  0  0  0
   -5.6410   16.7720  -34.5350 C   0  0  0  0  0  0  0  0  0  0  0  0
   -4.7590   17.8160  -34.2390 C   0  0  0  0  0  0  0  0  0  0  0  0
   -3.3810   20.4720  -33.8430 N   0  0  0  0  0  0  0  0  0  0  0  0
   -2.6480   21.3920  -33.2370 N   0  0  0  0  0  0  0  0  0  0  0  0
   -0.9580   22.3230  -30.6900 N   0  0  0  0  0  0  0  0  0  0  0  0
   -0.7650   23.2110  -29.7260 N   0  0  0  0  0  0  0  0  0  0  0  0
   -1.9790   23.6600  -29.3640 C   0  0  0  0  0  0  0  0  0  0  0  0
   -2.1980   24.8590  -28.2680 S   0  0  0  0  0  0  0  0  0  0  0  0
   -6.4660   26.0264  -30.7947 H   0  0  0  0  0  0  0  0  0  0  0  0
   -8.1585   24.3169  -30.1306 H   0  0  0  0  0  0  0  0  0  0  0  0
   -7.4238   22.0346  -29.4339 H   0  0  0  0  0  0  0  0  0  0  0  0
   -4.9965   21.4548  -29.4135 H   0  0  0  0  0  0  0  0  0  0  0  0
   -4.2416   20.0759  -30.6822 H   0  0  0  0  0  0  0  0  0  0  0  0
   -6.4832   19.2624  -31.6581 H   0  0  0  0  0  0  0  0  0  0  0  0
   -8.0477   17.3967  -32.1936 H   0  0  0  0  0  0  0  0  0  0  0  0
   -7.5129   15.8004  -34.0362 H   0  0  0  0  0  0  0  0  0  0  0  0
   -5.4056   16.0678  -35.3466 H   0  0  0  0  0  0  0  0  0  0  0  0
   -3.8318   17.9281  -34.8202 H   0  0  0  0  0  0  0  0  0  0  0  0
   -2.0280   22.0590  -33.7450 H   0  0  0  0  0  0  0  0  0  0  0  0
  1  2  1  0
  2  3  2  0
  3  4  1  0
  4  5  2  0
  5  6  1  0
  6  7  2  0
  7  8  1  0
  8  9  1  0
  9 10  1  0
 10 11  2  0
 11 12  1  0
 12 13  1  0
 13 14  2  0
 14 15  1  0
 15 16  2  0
 16 17  1  0
 17 18  2  0
 12 19  2  0
 19 20  1  0
  9 21  2  0
 21 22  1  0
 22 23  1  0
 23 24  2  0
  7  2  1  0
 23  8  1  0
 20 10  1  0
 18 13  1  0
  3 25  1  0
  4 26  1  0
  5 27  1  0
  6 28  1  0
 11 29  1  0
 14 30  1  0
 15 31  1  0
 16 32  1  0
 17 33  1  0
 18 34  1  0
 20 35  1  0
M  CHG  2   1  -1  22  -1
M  END
>  <UniqueID>  (44) 
44

>  <SMILES>  (44) 
[O-]c1ccccc1-n1c(-c2cc(-c3ccccc3)n[nH]2)n[n-]c1=S

>  <Energy>  (44) 
115.54350573539053

>  <Genealogy>  (44) 
[O-]c1ccccc1-n1c(-c2cc(-c3ccccc3)n[nH]2)n[n-]c1=S (protonated)
[O-]c1ccccc1-n1c(-c2cc(-c3ccccc3)n[nH]2)n[n-]c1=S (3D coordinates assigned)
[O-]c1ccccc1-n1c(-c2cc(-c3ccccc3)n[nH]2)n[n-]c1=S (optimized conformer: 115.54350573539053 kcal/mol)

>  <smiles>  (44) 
Oc1ccccc1-n1c(-c2cc(-c3ccccc3)n[nH]2)n[nH]c1=S

>  <score_type>  (44) 
oracle

>  <origin>  (44) 
adgpu

>  <m_score__min__energy>  (44) 
-11.94

>  <m_primary>  (44) 
energy

$$$$
44:0
     RDKit          3D

 31 32  0  0  0  0  0  0  0  0999 V2000
   -3.9540   20.5570  -31.3070 C   0  0  0  0  0  0  0  0  0  0  0  0
   -4.6020   21.9040  -31.2550 C   0  0  0  0  0  0  0  0  0  0  0  0
   -3.8700   23.0300  -30.8670 C   0  0  0  0  0  0  0  0  0  0  0  0
   -4.5190   24.2650  -30.8230 C   0  0  0  0  0  0  0  0  0  0  0  0
   -3.8860   25.2970  -30.4760 O   0  0  0  0  0  0  0  0  0  0  0  0
   -5.8370   24.3530  -31.1530 N   0  0  0  0  0  0  0  0  0  0  0  0
   -6.5340   23.2450  -31.5310 C   0  0  0  0  0  0  0  0  0  0  0  0
   -8.2690   23.3700  -31.9600 S   0  0  0  0  0  0  0  0  0  0  0  0
   -8.7620   21.8310  -31.0990 C   0  0  0  0  0  0  0  0  0  0  0  0
   -9.2320   20.7380  -32.0670 C   0  0  0  0  0  0  0  0  0  0  0  0
   -8.1220   19.7800  -32.4180 C   0  0  0  0  0  0  0  0  0  0  0  0
   -7.2350   20.0790  -33.4650 C   0  0  0  0  0  0  0  0  0  0  0  0
   -6.2180   19.1820  -33.8060 C   0  0  0  0  0  0  0  0  0  0  0  0
   -6.0810   17.9800  -33.1060 C   0  0  0  0  0  0  0  0  0  0  0  0
   -6.9620   17.6730  -32.0660 C   0  0  0  0  0  0  0  0  0  0  0  0
   -7.9810   18.5670  -31.7220 C   0  0  0  0  0  0  0  0  0  0  0  0
   -5.9170   22.0360  -31.5720 N   0  0  0  0  0  0  0  0  0  0  0  0
   -3.7795   20.1943  -30.2833 H   0  0  0  0  0  0  0  0  0  0  0  0
   -4.6123   19.8537  -31.8380 H   0  0  0  0  0  0  0  0  0  0  0  0
   -2.9936   20.6324  -31.8380 H   0  0  0  0  0  0  0  0  0  0  0  0
   -2.8058   22.9446  -30.6021 H   0  0  0  0  0  0  0  0  0  0  0  0
   -6.3200   25.2790  -31.1190 H   0  0  0  0  0  0  0  0  0  0  0  0
   -7.8986   21.4523  -30.5324 H   0  0  0  0  0  0  0  0  0  0  0  0
   -9.6061   22.0753  -30.4373 H   0  0  0  0  0  0  0  0  0  0  0  0
  -10.0516   20.1751  -31.5964 H   0  0  0  0  0  0  0  0  0  0  0  0
   -9.5661   21.2259  -32.9945 H   0  0  0  0  0  0  0  0  0  0  0  0
   -7.3408   21.0232  -34.0194 H   0  0  0  0  0  0  0  0  0  0  0  0
   -5.5252   19.4225  -34.6258 H   0  0  0  0  0  0  0  0  0  0  0  0
   -5.2796   17.2758  -33.3739 H   0  0  0  0  0  0  0  0  0  0  0  0
   -6.8539   16.7262  -31.5166 H   0  0  0  0  0  0  0  0  0  0  0  0
   -8.6742   18.3201  -30.9043 H   0  0  0  0  0  0  0  0  0  0  0  0
  1  2  1  0
  2  3  2  0
  3  4  1  0
  4  5  2  0
  4  6  1  0
  6  7  1  0
  7  8  1  0
  8  9  1  0
  9 10  1  0
 10 11  1  0
 11 12  2  0
 12 13  1  0
 13 14  2  0
 14 15  1  0
 15 16  2  0
  7 17  2  0
 17  2  1  0
 16 11  1  0
  1 18  1  0
  1 19  1  0
  1 20  1  0
  3 21  1  0
  6 22  1  0
  9 23  1  0
  9 24  1  0
 10 25  1  0
 10 26  1  0
 12 27  1  0
 13 28  1  0
 14 29  1  0
 15 30  1  0
 16 31  1  0
M  END
>  <UniqueID>  (45) 
45

>  <SMILES>  (45) 
Cc1cc(=O)[nH]c(SCCc2ccccc2)n1

>  <Energy>  (45) 
24.50614185012539

>  <Genealogy>  (45) 
Cc1cc(=O)[nH]c(SCCc2ccccc2)n1 (3D coordinates assigned)
Cc1cc(=O)[nH]c(SCCc2ccccc2)n1 (optimized conformer: 24.50614185012539 kcal/mol)

>  <smiles>  (45) 
Cc1cc(=O)[nH]c(SCCc2ccccc2)n1

>  <score_type>  (45) 
oracle

>  <origin>  (45) 
adgpu

>  <m_score__min__energy>  (45) 
-7.2000000000000002

>  <m_primary>  (45) 
energy

$$$$
45:0
     RDKit          3D

 42 44  0  0  0  0  0  0  0  0999 V2000
   -5.2190   24.7870  -30.3300 C   0  0  0  0  0  0  0  0  0  0  0  0
   -3.8610   24.6170  -30.7240 O   0  0  0  0  0  0  0  0  0  0  0  0
   -3.2010   23.3810  -30.8100 C   0  0  0  0  0  0  0  0  0  0  0  0
   -3.5880   22.4040  -31.7500 C   0  0  0  0  0  0  0  0  0  0  0  0
   -2.9290   21.1700  -31.8160 C   0  0  0  0  0  0  0  0  0  0  0  0
   -3.4100   19.9680  -33.0240 S   0  0  0  0  0  0  0  0  0  0  0  0
   -2.7330   20.2710  -34.3310 O   0  0  0  0  0  0  0  0  0  0  0  0
   -2.9300   18.6220  -32.5580 O   0  0  0  0  0  0  0  0  0  0  0  0
   -5.1420   19.8890  -33.2800 N   0  0  0  0  0  0  0  0  0  0  0  0
   -5.5130   18.8640  -34.2610 C   0  0  0  0  0  0  0  0  0  0  0  0
   -5.9430   19.8510  -32.0370 C   0  0  0  0  0  0  0  0  0  0  0  0
   -7.1260   20.7960  -32.0200 C   0  0  0  0  0  0  0  0  0  0  0  0
   -6.9340   22.1880  -31.9580 C   0  0  0  0  0  0  0  0  0  0  0  0
   -8.0330   23.0530  -31.9380 C   0  0  0  0  0  0  0  0  0  0  0  0
   -9.3300   22.5370  -31.9480 C   0  0  0  0  0  0  0  0  0  0  0  0
   -9.5320   21.1550  -31.9610 C   0  0  0  0  0  0  0  0  0  0  0  0
   -8.4360   20.2870  -31.9890 C   0  0  0  0  0  0  0  0  0  0  0  0
   -1.9340   20.8750  -30.8790 C   0  0  0  0  0  0  0  0  0  0  0  0
   -1.5380   21.8330  -29.9450 C   0  0  0  0  0  0  0  0  0  0  0  0
   -2.1410   23.1000  -29.9190 C   0  0  0  0  0  0  0  0  0  0  0  0
   -1.6840   24.0740  -28.9640 N   0  0  0  0  0  0  0  0  0  0  0  0
   -2.3610   24.6450  -27.9500 C   0  0  0  0  0  0  0  0  0  0  0  0
   -1.5820   25.5540  -27.3390 N   0  0  0  0  0  0  0  0  0  0  0  0
   -0.4310   25.5300  -27.9970 N   0  0  0  0  0  0  0  0  0  0  0  0
   -0.4920   24.6470  -28.9810 N   0  0  0  0  0  0  0  0  0  0  0  0
   -5.2839   24.7951  -29.2319 H   0  0  0  0  0  0  0  0  0  0  0  0
   -5.5994   25.7398  -30.7269 H   0  0  0  0  0  0  0  0  0  0  0  0
   -5.8225   23.9574  -30.7269 H   0  0  0  0  0  0  0  0  0  0  0  0
   -4.4182   22.6137  -32.4404 H   0  0  0  0  0  0  0  0  0  0  0  0
   -5.8419   17.9554  -33.7354 H   0  0  0  0  0  0  0  0  0  0  0  0
   -6.3322   19.2396  -34.8917 H   0  0  0  0  0  0  0  0  0  0  0  0
   -4.6432   18.6282  -34.8917 H   0  0  0  0  0  0  0  0  0  0  0  0
   -6.3204   18.8265  -31.9033 H   0  0  0  0  0  0  0  0  0  0  0  0
   -5.2744   20.1740  -31.2254 H   0  0  0  0  0  0  0  0  0  0  0  0
   -5.9140   22.5986  -31.9251 H   0  0  0  0  0  0  0  0  0  0  0  0
   -7.8750   24.1413  -31.9144 H   0  0  0  0  0  0  0  0  0  0  0  0
  -10.1931   23.2189  -31.9456 H   0  0  0  0  0  0  0  0  0  0  0  0
  -10.5543   20.7490  -31.9492 H   0  0  0  0  0  0  0  0  0  0  0  0
   -8.5999   19.1993  -31.9868 H   0  0  0  0  0  0  0  0  0  0  0  0
   -1.4607   19.8820  -30.8782 H   0  0  0  0  0  0  0  0  0  0  0  0
   -0.7450   21.5927  -29.2216 H   0  0  0  0  0  0  0  0  0  0  0  0
   -3.3956   24.4039  -27.6646 H   0  0  0  0  0  0  0  0  0  0  0  0
  1  2  1  0
  2  3  1  0
  3  4  2  0
  4  5  1  0
  5  6  1  0
  6  7  2  0
  6  8  2  0
  6  9  1  0
  9 10  1  0
  9 11  1  0
 11 12  1  0
 12 13  2  0
 13 14  1  0
 14 15  2  0
 15 16  1  0
 16 17  2  0
  5 18  2  0
 18 19  1  0
 19 20  2  0
 20 21  1  0
 21 22  1  0
 22 23  2  0
 23 24  1  0
 24 25  2  0
 20  3  1  0
 25 21  1  0
 17 12  1  0
  1 26  1  0
  1 27  1  0
  1 28  1  0
  4 29  1  0
 10 30  1  0
 10 31  1  0
 10 32  1  0
 11 33  1  0
 11 34  1  0
 13 35  1  0
 14 36  1  0
 15 37  1  0
 16 38  1  0
 17 39  1  0
 18 40  1  0
 19 41  1  0
 22 42  1  0
M  END
>  <UniqueID>  (46) 
46

>  <SMILES>  (46) 
COc1cc(S(=O)(=O)N(C)Cc2ccccc2)ccc1-n1cnnn1

>  <Energy>  (46) 
89.64029400557229

>  <Genealogy>  (46) 
COc1cc(S(=O)(=O)N(C)Cc2ccccc2)ccc1-n1cnnn1 (3D coordinates assigned)
COc1cc(S(=O)(=O)N(C)Cc2ccccc2)ccc1-n1cnnn1 (optimized conformer: 89.64029400557229 kcal/mol)

>  <smiles>  (46) 
COc1cc(S(=O)(=O)N(C)Cc2ccccc2)ccc1-n1cnnn1

>  <score_type>  (46) 
oracle

>  <origin>  (46) 
adgpu

>  <m_score__min__energy>  (46) 
-8.7200000000000006

>  <m_primary>  (46) 
energy

$$$$
46:0
     RDKit          3D

 59 62  0  0  0  0  0  0  0  0999 V2000
   -1.0010   26.4750  -28.2190 C   0  0  0  0  0  0  0  0  0  0  0  0
   -1.7320   25.4260  -28.8470 O   0  0  0  0  0  0  0  0  0  0  0  0
   -1.7820   24.1000  -28.3870 C   0  0  0  0  0  0  0  0  0  0  0  0
   -0.6280   23.4180  -27.9610 C   0  0  0  0  0  0  0  0  0  0  0  0
   -0.6850   22.0790  -27.5340 C   0  0  0  0  0  0  0  0  0  0  0  0
   -1.9420   21.4350  -27.4750 C   0  0  0  0  0  0  0  0  0  0  0  0
   -3.0920   22.1220  -27.8920 C   0  0  0  0  0  0  0  0  0  0  0  0
   -3.0200   23.4380  -28.3690 C   0  0  0  0  0  0  0  0  0  0  0  0
   -4.2030   24.1150  -28.8280 N   0  0  0  0  0  0  0  0  0  0  0  0
   -4.6200   24.2110  -30.5090 S   0  0  0  0  0  0  0  0  0  0  0  0
   -3.4360   23.7960  -31.3370 O   0  0  0  0  0  0  0  0  0  0  0  0
   -4.9790   25.6250  -30.8710 O   0  0  0  0  0  0  0  0  0  0  0  0
   -5.9630   23.1210  -30.8480 C   0  0  0  0  0  0  0  0  0  0  0  0
   -7.2740   23.5210  -30.5620 C   0  0  0  0  0  0  0  0  0  0  0  0
   -8.3450   22.6770  -30.8610 C   0  0  0  0  0  0  0  0  0  0  0  0
   -8.1180   21.4360  -31.4600 C   0  0  0  0  0  0  0  0  0  0  0  0
   -6.8080   21.0230  -31.7700 C   0  0  0  0  0  0  0  0  0  0  0  0
   -6.5630   19.7240  -32.4510 C   0  0  0  0  0  0  0  0  0  0  0  0
   -7.2730   18.5680  -32.0740 C   0  0  0  0  0  0  0  0  0  0  0  0
   -7.0030   17.3390  -32.6800 C   0  0  0  0  0  0  0  0  0  0  0  0
   -6.0310   17.2430  -33.6850 C   0  0  0  0  0  0  0  0  0  0  0  0
   -5.7080   15.9130  -34.3000 C   0  0  0  0  0  0  0  0  0  0  0  0
   -5.3160   18.3880  -34.0610 C   0  0  0  0  0  0  0  0  0  0  0  0
   -5.5860   19.6190  -33.4570 C   0  0  0  0  0  0  0  0  0  0  0  0
   -5.7340   21.8750  -31.4490 C   0  0  0  0  0  0  0  0  0  0  0  0
   -2.0730   20.0080  -27.0220 C   0  0  0  0  0  0  0  0  0  0  0  0
   -1.2410   19.0620  -27.9060 C   0  0  0  0  0  0  0  0  0  0  0  0
    0.1770   18.9300  -27.4970 N   0  0  0  0  0  0  0  0  0  0  0  0
    0.7830   17.6260  -27.8150 C   0  0  0  0  0  0  0  0  0  0  0  0
    1.0330   20.0990  -27.7890 C   0  0  0  0  0  0  0  0  0  0  0  0
    0.6140   21.4210  -27.0960 C   0  0  0  0  0  0  0  0  0  0  0  0
   -1.0742   26.3699  -27.1265 H   0  0  0  0  0  0  0  0  0  0  0  0
    0.0547   26.4191  -28.5228 H   0  0  0  0  0  0  0  0  0  0  0  0
   -1.4190   27.4461  -28.5228 H   0  0  0  0  0  0  0  0  0  0  0  0
    0.3389   23.9425  -27.9618 H   0  0  0  0  0  0  0  0  0  0  0  0
   -4.0687   21.6183  -27.8437 H   0  0  0  0  0  0  0  0  0  0  0  0
   -4.7170   24.7480  -28.1770 H   0  0  0  0  0  0  0  0  0  0  0  0
   -7.4604   24.5021  -30.1009 H   0  0  0  0  0  0  0  0  0  0  0  0
   -9.3723   22.9908  -30.6238 H   0  0  0  0  0  0  0  0  0  0  0  0
   -8.9679   20.7770  -31.6911 H   0  0  0  0  0  0  0  0  0  0  0  0
   -8.0472   18.6334  -31.2953 H   0  0  0  0  0  0  0  0  0  0  0  0
   -7.5563   16.4414  -32.3667 H   0  0  0  0  0  0  0  0  0  0  0  0
   -5.5288   15.1749  -33.5043 H   0  0  0  0  0  0  0  0  0  0  0  0
   -6.5520   15.5826  -34.9233 H   0  0  0  0  0  0  0  0  0  0  0  0
   -4.8065   16.0065  -34.9233 H   0  0  0  0  0  0  0  0  0  0  0  0
   -4.5382   18.3175  -34.8356 H   0  0  0  0  0  0  0  0  0  0  0  0
   -5.0292   20.5140  -33.7714 H   0  0  0  0  0  0  0  0  0  0  0  0
   -4.7040   21.5597  -31.6721 H   0  0  0  0  0  0  0  0  0  0  0  0
   -1.7219   19.9284  -25.9826 H   0  0  0  0  0  0  0  0  0  0  0  0
   -3.1304   19.7149  -27.0992 H   0  0  0  0  0  0  0  0  0  0  0  0
   -1.7030   18.0643  -27.8719 H   0  0  0  0  0  0  0  0  0  0  0  0
   -1.2368   19.4988  -28.9155 H   0  0  0  0  0  0  0  0  0  0  0  0
    1.0283   17.0982  -26.8816 H   0  0  0  0  0  0  0  0  0  0  0  0
    0.0722   17.0244  -28.4005 H   0  0  0  0  0  0  0  0  0  0  0  0
    1.7012   17.7814  -28.4005 H   0  0  0  0  0  0  0  0  0  0  0  0
    2.0573   19.8579  -27.4685 H   0  0  0  0  0  0  0  0  0  0  0  0
    0.9386   20.2808  -28.8698 H   0  0  0  0  0  0  0  0  0  0  0  0
    0.5276   21.2123  -26.0195 H   0  0  0  0  0  0  0  0  0  0  0  0
    1.3953   22.1400  -27.3833 H   0  0  0  0  0  0  0  0  0  0  0  0
  1  2  1  0
  2  3  1  0
  3  4  2  0
  4  5  1  0
  5  6  2  0
  6  7  1  0
  7  8  2  0
  8  9  1  0
  9 10  1  0
 10 11  2  0
 10 12  2  0
 10 13  1  0
 13 14  2  0
 14 15  1  0
 15 16  2  0
 16 17  1  0
 17 18  1  0
 18 19  2  0
 19 20  1  0
 20 21  2  0
 21 22  1  0
 21 23  1  0
 23 24  2  0
 17 25  2  0
  6 26  1  0
 26 27  1  0
 27 28  1  0
 28 29  1  0
 28 30  1  0
 30 31  1  0
  8  3  1  0
 25 13  1  0
 31  5  1  0
 24 18  1  0
  1 32  1  0
  1 33  1  0
  1 34  1  0
  4 35  1  0
  7 36  1  0
  9 37  1  0
 14 38  1  0
 15 39  1  0
 16 40  1  0
 19 41  1  0
 20 42  1  0
 22 43  1  0
 22 44  1  0
 22 45  1  0
 23 46  1  0
 24 47  1  0
 25 48  1  0
 26 49  1  0
 26 50  1  0
 27 51  1  0
 27 52  1  0
 29 53  1  0
 29 54  1  0
 29 55  1  0
 30 56  1  0
 30 57  1  0
 31 58  1  0
 31 59  1  0
M  END
>  <UniqueID>  (47) 
47

>  <SMILES>  (47) 
COc1cc2c(cc1NS(=O)(=O)c1cccc(-c3ccc(C)cc3)c1)CCN(C)CC2

>  <Energy>  (47) 
82.99632667028831

>  <Genealogy>  (47) 
COc1cc2c(cc1NS(=O)(=O)c1cccc(-c3ccc(C)cc3)c1)CCN(C)CC2 (3D coordinates assigned)
COc1cc2c(cc1NS(=O)(=O)c1cccc(-c3ccc(C)cc3)c1)CCN(C)CC2 (nonaromatic ring conformer: 82.99632667028831 kcal/mol)

>  <smiles>  (47) 
COc1cc2c(cc1NS(=O)(=O)c1cccc(-c3ccc(C)cc3)c1)CCN(C)CC2

>  <score_type>  (47) 
oracle

>  <origin>  (47) 
adgpu

>  <m_score__min__energy>  (47) 
-9.8100000000000005

>  <m_primary>  (47) 
energy

$$$$
47:0
     RDKit          3D

 54 57  0  0  0  0  0  0  0  0999 V2000
   -6.6050   25.3170  -30.1020 C   0  0  0  0  0  0  0  0  0  0  0  0
   -5.9640   24.0900  -30.6770 C   0  0  0  0  0  0  0  0  0  0  0  0
   -4.6060   23.8590  -30.7960 C   0  0  0  0  0  0  0  0  0  0  0  0
   -3.5560   24.7620  -30.4420 N   0  0  0  0  0  0  0  0  0  0  0  0
   -2.6350   24.6220  -28.9780 S   0  0  0  0  0  0  0  0  0  0  0  0
   -3.5450   24.8390  -27.8000 O   0  0  0  0  0  0  0  0  0  0  0  0
   -1.5750   25.6900  -28.9690 O   0  0  0  0  0  0  0  0  0  0  0  0
   -1.8730   23.0410  -28.8330 C   0  0  0  0  0  0  0  0  0  0  0  0
   -0.9110   22.6180  -29.7760 C   0  0  0  0  0  0  0  0  0  0  0  0
   -0.3250   21.3460  -29.6740 C   0  0  0  0  0  0  0  0  0  0  0  0
   -0.7190   20.5130  -28.6260 C   0  0  0  0  0  0  0  0  0  0  0  0
   -1.6700   20.9150  -27.7070 C   0  0  0  0  0  0  0  0  0  0  0  0
   -2.2540   22.1810  -27.7850 C   0  0  0  0  0  0  0  0  0  0  0  0
   -1.9690   19.8090  -26.7300 C   0  0  0  0  0  0  0  0  0  0  0  0
   -1.6140   20.2180  -25.2950 C   0  0  0  0  0  0  0  0  0  0  0  0
   -3.4270   19.3450  -26.8520 C   0  0  0  0  0  0  0  0  0  0  0  0
   -1.0260   18.7520  -27.2480 C   0  0  0  0  0  0  0  0  0  0  0  0
   -0.9350   17.5890  -26.7690 O   0  0  0  0  0  0  0  0  0  0  0  0
   -0.2560   19.1940  -28.3660 N   0  0  0  0  0  0  0  0  0  0  0  0
    0.4530   18.3280  -29.3020 C   0  0  0  0  0  0  0  0  0  0  0  0
   -4.5010   22.6520  -31.4510 C   0  0  0  0  0  0  0  0  0  0  0  0
   -3.4310   22.0960  -31.8170 O   0  0  0  0  0  0  0  0  0  0  0  0
   -5.7370   22.1580  -31.6780 N   0  0  0  0  0  0  0  0  0  0  0  0
   -6.0390   20.8930  -32.2950 C   0  0  0  0  0  0  0  0  0  0  0  0
   -5.3520   20.4860  -33.4520 C   0  0  0  0  0  0  0  0  0  0  0  0
   -5.6250   19.2440  -34.0340 C   0  0  0  0  0  0  0  0  0  0  0  0
   -6.5790   18.3980  -33.4630 C   0  0  0  0  0  0  0  0  0  0  0  0
   -7.2620   18.7920  -32.3080 C   0  0  0  0  0  0  0  0  0  0  0  0
   -6.9940   20.0350  -31.7260 C   0  0  0  0  0  0  0  0  0  0  0  0
   -6.6280   23.0430  -31.2270 N   0  0  0  0  0  0  0  0  0  0  0  0
   -8.0840   22.9130  -31.3310 C   0  0  0  0  0  0  0  0  0  0  0  0
   -6.5776   25.2645  -29.0036 H   0  0  0  0  0  0  0  0  0  0  0  0
   -6.0578   26.2093  -30.4402 H   0  0  0  0  0  0  0  0  0  0  0  0
   -7.6500   25.3776  -30.4402 H   0  0  0  0  0  0  0  0  0  0  0  0
   -0.6185   23.2897  -30.5965 H   0  0  0  0  0  0  0  0  0  0  0  0
    0.4278   21.0136  -30.4039 H   0  0  0  0  0  0  0  0  0  0  0  0
   -2.9984   22.5008  -27.0410 H   0  0  0  0  0  0  0  0  0  0  0  0
   -2.1652   19.5830  -24.5858 H   0  0  0  0  0  0  0  0  0  0  0  0
   -0.5328   20.0934  -25.1350 H   0  0  0  0  0  0  0  0  0  0  0  0
   -1.8894   21.2709  -25.1350 H   0  0  0  0  0  0  0  0  0  0  0  0
   -3.8538   19.2092  -25.8473 H   0  0  0  0  0  0  0  0  0  0  0  0
   -4.0084   20.1025  -27.3980 H   0  0  0  0  0  0  0  0  0  0  0  0
   -3.4637   18.3908  -27.3980 H   0  0  0  0  0  0  0  0  0  0  0  0
    1.0526   17.5956  -28.7417 H   0  0  0  0  0  0  0  0  0  0  0  0
   -0.2745   17.7988  -29.9350 H   0  0  0  0  0  0  0  0  0  0  0  0
    1.1154   18.9367  -29.9350 H   0  0  0  0  0  0  0  0  0  0  0  0
   -4.5965   21.1472  -33.9015 H   0  0  0  0  0  0  0  0  0  0  0  0
   -5.0881   18.9329  -34.9422 H   0  0  0  0  0  0  0  0  0  0  0  0
   -6.7930   17.4216  -33.9221 H   0  0  0  0  0  0  0  0  0  0  0  0
   -8.0104   18.1238  -31.8571 H   0  0  0  0  0  0  0  0  0  0  0  0
   -7.5339   20.3421  -30.8181 H   0  0  0  0  0  0  0  0  0  0  0  0
   -8.5216   22.8739  -30.3225 H   0  0  0  0  0  0  0  0  0  0  0  0
   -8.4915   23.7783  -31.8743 H   0  0  0  0  0  0  0  0  0  0  0  0
   -8.3318   21.9892  -31.8743 H   0  0  0  0  0  0  0  0  0  0  0  0
  1  2  1  0
  2  3  2  0
  3  4  1  0
  4  5  1  0
  5  6  2  0
  5  7  2  0
  5  8  1  0
  8  9  2  0
  9 10  1  0
 10 11  2  0
 11 12  1  0
 12 13  2  0
 12 14  1  0
 14 15  1  0
 14 16  1  0
 14 17  1  0
 17 18  2  0
 17 19  1  0
 19 20  1  0
  3 21  1  0
 21 22  2  0
 21 23  1  0
 23 24  1  0
 24 25  2  0
 25 26  1  0
 26 27  2  0
 27 28  1  0
 28 29  2  0
 23 30  1  0
 30 31  1  0
 30  2  1  0
 13  8  1  0
 29 24  1  0
 19 11  1  0
  1 32  1  0
  1 33  1  0
  1 34  1  0
  9 35  1  0
 10 36  1  0
 13 37  1  0
 15 38  1  0
 15 39  1  0
 15 40  1  0
 16 41  1  0
 16 42  1  0
 16 43  1  0
 20 44  1  0
 20 45  1  0
 20 46  1  0
 25 47  1  0
 26 48  1  0
 27 49  1  0
 28 50  1  0
 29 51  1  0
 31 52  1  0
 31 53  1  0
 31 54  1  0
M  CHG  1   4  -1
M  END
>  <UniqueID>  (48) 
48

>  <SMILES>  (48) 
Cc1c([N-]S(=O)(=O)c2ccc3c(c2)C(C)(C)C(=O)N3C)c(=O)n(-c2ccccc2)n1C

>  <Energy>  (48) 
119.97955731066972

>  <Genealogy>  (48) 
Cc1c([N-]S(=O)(=O)c2ccc3c(c2)C(C)(C)C(=O)N3C)c(=O)n(-c2ccccc2)n1C (protonated)
Cc1c([N-]S(=O)(=O)c2ccc3c(c2)C(C)(C)C(=O)N3C)c(=O)n(-c2ccccc2)n1C (3D coordinates assigned)
Cc1c([N-]S(=O)(=O)c2ccc3c(c2)C(C)(C)C(=O)N3C)c(=O)n(-c2ccccc2)n1C (nonaromatic ring conformer: 119.97955731066972 kcal/mol)

>  <smiles>  (48) 
Cc1c(NS(=O)(=O)c2ccc3c(c2)C(C)(C)C(=O)N3C)c(=O)n(-c2ccccc2)n1C

>  <score_type>  (48) 
oracle

>  <origin>  (48) 
adgpu

>  <m_score__min__energy>  (48) 
-11.56

>  <m_primary>  (48) 
energy

$$$$
48:0
     RDKit          3D

 64 67  0  0  0  0  0  0  0  0999 V2000
   -3.3140   20.7950  -30.9700 O   0  0  0  0  0  0  0  0  0  0  0  0
   -3.0040   21.6970  -31.8000 C   0  0  0  0  0  0  0  0  0  0  0  0
   -2.3640   21.3380  -33.1090 C   0  0  0  0  0  0  0  0  0  0  0  0
   -2.6270   19.9020  -33.4870 C   0  0  0  0  0  0  0  0  0  0  0  0
   -3.9200   19.4920  -33.8510 C   0  0  0  0  0  0  0  0  0  0  0  0
   -4.1720   18.1550  -34.1700 C   0  0  0  0  0  0  0  0  0  0  0  0
   -3.1360   17.2110  -34.1260 C   0  0  0  0  0  0  0  0  0  0  0  0
   -3.4450   15.5210  -34.5170 S   0  0  0  0  0  0  0  0  0  0  0  0
   -3.4430   15.3420  -36.0110 O   0  0  0  0  0  0  0  0  0  0  0  0
   -2.3280   14.6940  -33.9420 O   0  0  0  0  0  0  0  0  0  0  0  0
   -4.9670   15.0060  -33.8200 N   0  0  0  0  0  0  0  0  0  0  0  0
   -5.3850   13.6600  -34.2580 C   0  0  0  0  0  0  0  0  0  0  0  0
   -4.6280   12.5340  -33.5380 C   0  0  0  0  0  0  0  0  0  0  0  0
   -4.7420   12.6890  -32.0220 C   0  0  0  0  0  0  0  0  0  0  0  0
   -4.2710   14.0740  -31.5860 C   0  0  0  0  0  0  0  0  0  0  0  0
   -5.0140   15.1800  -32.3530 C   0  0  0  0  0  0  0  0  0  0  0  0
   -1.8490   17.6130  -33.7440 C   0  0  0  0  0  0  0  0  0  0  0  0
   -1.5950   18.9510  -33.4240 C   0  0  0  0  0  0  0  0  0  0  0  0
   -3.3680   23.0600  -31.5540 N   0  0  0  0  0  0  0  0  0  0  0  0
   -4.6820   23.5050  -31.1950 C   0  0  0  0  0  0  0  0  0  0  0  0
   -5.7740   22.6710  -31.4700 C   0  0  0  0  0  0  0  0  0  0  0  0
   -7.0760   23.0650  -31.1320 C   0  0  0  0  0  0  0  0  0  0  0  0
   -8.4450   22.0010  -31.4690 S   0  0  0  0  0  0  0  0  0  0  0  0
   -9.0570   21.5550  -30.1690 O   0  0  0  0  0  0  0  0  0  0  0  0
   -9.4880   22.7660  -32.2370 O   0  0  0  0  0  0  0  0  0  0  0  0
   -7.9560   20.5960  -32.3880 N   0  0  0  0  0  0  0  0  0  0  0  0
   -6.8040   19.9340  -31.7390 C   0  0  0  0  0  0  0  0  0  0  0  0
   -6.5910   18.5200  -32.2900 C   0  0  0  0  0  0  0  0  0  0  0  0
   -7.8160   17.6250  -32.0210 C   0  0  0  0  0  0  0  0  0  0  0  0
   -9.1100   18.4310  -31.8160 C   0  0  0  0  0  0  0  0  0  0  0  0
   -9.1070   19.7030  -32.6760 C   0  0  0  0  0  0  0  0  0  0  0  0
   -7.2840   24.3100  -30.5210 C   0  0  0  0  0  0  0  0  0  0  0  0
   -6.2050   25.1620  -30.2760 C   0  0  0  0  0  0  0  0  0  0  0  0
   -4.9070   24.7740  -30.6220 C   0  0  0  0  0  0  0  0  0  0  0  0
   -3.8580   25.6660  -30.4230 O   0  0  0  0  0  0  0  0  0  0  0  0
   -2.7692   21.9927  -33.8946 H   0  0  0  0  0  0  0  0  0  0  0  0
   -1.2769   21.4701  -33.0052 H   0  0  0  0  0  0  0  0  0  0  0  0
   -4.7380   20.2266  -33.8852 H   0  0  0  0  0  0  0  0  0  0  0  0
   -5.1868   17.8419  -34.4567 H   0  0  0  0  0  0  0  0  0  0  0  0
   -6.4603   13.5440  -34.0572 H   0  0  0  0  0  0  0  0  0  0  0  0
   -5.1570   13.5769  -35.3309 H   0  0  0  0  0  0  0  0  0  0  0  0
   -5.0550   11.5647  -33.8349 H   0  0  0  0  0  0  0  0  0  0  0  0
   -3.5659   12.5859  -33.8196 H   0  0  0  0  0  0  0  0  0  0  0  0
   -5.7918   12.5535  -31.7228 H   0  0  0  0  0  0  0  0  0  0  0  0
   -4.1076   11.9308  -31.5396 H   0  0  0  0  0  0  0  0  0  0  0  0
   -4.4600   14.1949  -30.5091 H   0  0  0  0  0  0  0  0  0  0  0  0
   -3.1961   14.1610  -31.8029 H   0  0  0  0  0  0  0  0  0  0  0  0
   -6.0669   15.1789  -32.0347 H   0  0  0  0  0  0  0  0  0  0  0  0
   -4.5123   16.1311  -32.1212 H   0  0  0  0  0  0  0  0  0  0  0  0
   -1.0357   16.8739  -33.6956 H   0  0  0  0  0  0  0  0  0  0  0  0
   -0.5833   19.2596  -33.1219 H   0  0  0  0  0  0  0  0  0  0  0  0
   -5.6079   21.6981  -31.9556 H   0  0  0  0  0  0  0  0  0  0  0  0
   -5.8981   20.5303  -31.9226 H   0  0  0  0  0  0  0  0  0  0  0  0
   -7.0090   19.8591  -30.6609 H   0  0  0  0  0  0  0  0  0  0  0  0
   -6.4221   18.5798  -33.3753 H   0  0  0  0  0  0  0  0  0  0  0  0
   -5.7197   18.0777  -31.7849 H   0  0  0  0  0  0  0  0  0  0  0  0
   -7.9541   16.9510  -32.8793 H   0  0  0  0  0  0  0  0  0  0  0  0
   -7.6219   17.0686  -31.0922 H   0  0  0  0  0  0  0  0  0  0  0  0
   -9.9710   17.8075  -32.0987 H   0  0  0  0  0  0  0  0  0  0  0  0
   -9.1774   18.7232  -30.7577 H   0  0  0  0  0  0  0  0  0  0  0  0
   -9.0665   19.4097  -33.7354 H   0  0  0  0  0  0  0  0  0  0  0  0
  -10.0242   20.2621  -32.4393 H   0  0  0  0  0  0  0  0  0  0  0  0
   -8.3006   24.6165  -30.2337 H   0  0  0  0  0  0  0  0  0  0  0  0
   -6.3770   26.1428  -29.8087 H   0  0  0  0  0  0  0  0  0  0  0  0
  1  2  2  0
  2  3  1  0
  3  4  1  0
  4  5  2  0
  5  6  1  0
  6  7  2  0
  7  8  1  0
  8  9  2  0
  8 10  2  0
  8 11  1  0
 11 12  1  0
 12 13  1  0
 13 14  1  0
 14 15  1  0
 15 16  1  0
  7 17  1  0
 17 18  2  0
  2 19  1  0
 19 20  1  0
 20 21  2  0
 21 22  1  0
 22 23  1  0
 23 24  2  0
 23 25  2  0
 23 26  1  0
 26 27  1  0
 27 28  1  0
 28 29  1  0
 29 30  1  0
 30 31  1  0
 22 32  2  0
 32 33  1  0
 33 34  2  0
 34 35  1  0
 18  4  1  0
 34 20  1  0
 16 11  1  0
 31 26  1  0
  3 36  1  0
  3 37  1  0
  5 38  1  0
  6 39  1  0
 12 40  1  0
 12 41  1  0
 13 42  1  0
 13 43  1  0
 14 44  1  0
 14 45  1  0
 15 46  1  0
 15 47  1  0
 16 48  1  0
 16 49  1  0
 17 50  1  0
 18 51  1  0
 21 52  1  0
 27 53  1  0
 27 54  1  0
 28 55  1  0
 28 56  1  0
 29 57  1  0
 29 58  1  0
 30 59  1  0
 30 60  1  0
 31 61  1  0
 31 62  1  0
 32 63  1  0
 33 64  1  0
M  CHG  2  19  -1  35  -1
M  END
>  <UniqueID>  (49) 
49

>  <SMILES>  (49) 
O=C(Cc1ccc(S(=O)(=O)N2CCCCC2)cc1)[N-]c1cc(S(=O)(=O)N2CCCCC2)ccc1[O-]

>  <Energy>  (49) 
74.58757488117935

>  <Genealogy>  (49) 
O=C(Cc1ccc(S(=O)(=O)N2CCCCC2)cc1)[N-]c1cc(S(=O)(=O)N2CCCCC2)ccc1[O-] (protonated)
O=C(Cc1ccc(S(=O)(=O)N2CCCCC2)cc1)[N-]c1cc(S(=O)(=O)N2CCCCC2)ccc1[O-] (3D coordinates assigned)
O=C(Cc1ccc(S(=O)(=O)N2CCCCC2)cc1)[N-]c1cc(S(=O)(=O)N2CCCCC2)ccc1[O-] (nonaromatic ring conformer: 74.58757488117935 kcal/mol)

>  <smiles>  (49) 
O=C(Cc1ccc(S(=O)(=O)N2CCCCC2)cc1)Nc1cc(S(=O)(=O)N2CCCCC2)ccc1O

>  <score_type>  (49) 
oracle

>  <origin>  (49) 
adgpu

>  <m_score__min__energy>  (49) 
-15.59

>  <m_primary>  (49) 
energy

$$$$
49:0
     RDKit          3D

 69 72  0  0  0  0  0  0  0  0999 V2000
   -7.2600   19.9380  -32.7670 C   0  0  0  0  0  0  0  0  0  0  0  0
   -7.8840   19.9930  -31.3730 C   0  0  0  0  0  0  0  0  0  0  0  0
   -8.4840   21.3210  -31.1010 N   0  0  0  0  0  0  0  0  0  0  0  0
   -8.4210   22.2090  -32.2960 C   0  0  0  0  0  0  0  0  0  0  0  0
   -8.1740   23.6850  -31.9330 C   0  0  0  0  0  0  0  0  0  0  0  0
   -6.9170   23.8700  -31.1660 N   0  0  0  0  0  0  0  0  0  0  0  0
   -5.7690   24.1350  -32.0640 C   0  0  0  0  0  0  0  0  0  0  0  0
   -4.5320   23.4020  -31.5930 C   0  0  0  0  0  0  0  0  0  0  0  0
   -4.2960   22.0850  -32.0160 C   0  0  0  0  0  0  0  0  0  0  0  0
   -3.1840   21.3670  -31.5460 C   0  0  0  0  0  0  0  0  0  0  0  0
   -2.9600   19.9760  -31.9850 C   0  0  0  0  0  0  0  0  0  0  0  0
   -1.7560   19.3660  -31.9430 N   0  0  0  0  0  0  0  0  0  0  0  0
   -1.9660   18.1850  -32.4320 O   0  0  0  0  0  0  0  0  0  0  0  0
   -3.2260   18.0600  -32.7710 C   0  0  0  0  0  0  0  0  0  0  0  0
   -3.7900   16.8570  -33.4150 C   0  0  0  0  0  0  0  0  0  0  0  0
   -2.9580   15.8090  -33.8340 C   0  0  0  0  0  0  0  0  0  0  0  0
   -3.5060   14.6380  -34.3670 C   0  0  0  0  0  0  0  0  0  0  0  0
   -4.9010   14.4870  -34.4830 C   0  0  0  0  0  0  0  0  0  0  0  0
   -5.4920   13.3090  -34.9740 O   0  0  0  0  0  0  0  0  0  0  0  0
   -4.8000   12.1300  -35.3840 C   0  0  0  0  0  0  0  0  0  0  0  0
   -4.8510   11.9460  -36.9150 C   0  0  0  0  0  0  0  0  0  0  0  0
   -6.2790   12.1280  -37.4480 C   0  0  0  0  0  0  0  0  0  0  0  0
   -3.8880   12.9290  -37.6020 C   0  0  0  0  0  0  0  0  0  0  0  0
   -5.7390   15.5530  -34.0990 C   0  0  0  0  0  0  0  0  0  0  0  0
   -7.2340   15.4210  -34.2150 C   0  0  0  0  0  0  0  0  0  0  0  0
   -5.1800   16.7250  -33.5590 C   0  0  0  0  0  0  0  0  0  0  0  0
   -3.9240   19.1820  -32.4970 N   0  0  0  0  0  0  0  0  0  0  0  0
   -2.2950   21.9850  -30.6530 C   0  0  0  0  0  0  0  0  0  0  0  0
   -2.5000   23.3120  -30.2470 C   0  0  0  0  0  0  0  0  0  0  0  0
   -1.5290   23.9680  -29.3060 C   0  0  0  0  0  0  0  0  0  0  0  0
   -3.6270   24.0180  -30.7080 C   0  0  0  0  0  0  0  0  0  0  0  0
   -3.8520   25.3260  -30.2820 O   0  0  0  0  0  0  0  0  0  0  0  0
   -6.6340   22.7530  -30.2280 C   0  0  0  0  0  0  0  0  0  0  0  0
   -7.8910   21.9380  -29.8880 C   0  0  0  0  0  0  0  0  0  0  0  0
   -6.1680   19.8417  -32.6764 H   0  0  0  0  0  0  0  0  0  0  0  0
   -7.6603   19.0717  -33.3140 H   0  0  0  0  0  0  0  0  0  0  0  0
   -7.5026   20.8610  -33.3140 H   0  0  0  0  0  0  0  0  0  0  0  0
   -8.6679   19.2246  -31.3012 H   0  0  0  0  0  0  0  0  0  0  0  0
   -7.0916   19.8127  -30.6316 H   0  0  0  0  0  0  0  0  0  0  0  0
   -7.6026   21.8656  -32.9458 H   0  0  0  0  0  0  0  0  0  0  0  0
   -9.3963   22.1520  -32.8016 H   0  0  0  0  0  0  0  0  0  0  0  0
   -8.1128   24.2727  -32.8608 H   0  0  0  0  0  0  0  0  0  0  0  0
   -9.0086   24.0219  -31.3006 H   0  0  0  0  0  0  0  0  0  0  0  0
   -6.0218   23.7980  -33.0801 H   0  0  0  0  0  0  0  0  0  0  0  0
   -5.5605   25.2150  -32.0570 H   0  0  0  0  0  0  0  0  0  0  0  0
   -4.9902   21.6091  -32.7242 H   0  0  0  0  0  0  0  0  0  0  0  0
   -1.8663   15.9087  -33.7428 H   0  0  0  0  0  0  0  0  0  0  0  0
   -2.8408   13.8272  -34.6988 H   0  0  0  0  0  0  0  0  0  0  0  0
   -3.7490   12.2047  -35.0681 H   0  0  0  0  0  0  0  0  0  0  0  0
   -5.2896   11.2631  -34.9164 H   0  0  0  0  0  0  0  0  0  0  0  0
   -4.5335   10.9188  -37.1474 H   0  0  0  0  0  0  0  0  0  0  0  0
   -6.9773   12.2170  -36.6027 H   0  0  0  0  0  0  0  0  0  0  0  0
   -6.3279   13.0396  -38.0616 H   0  0  0  0  0  0  0  0  0  0  0  0
   -6.5550   11.2578  -38.0616 H   0  0  0  0  0  0  0  0  0  0  0  0
   -3.3343   13.4942  -36.8379 H   0  0  0  0  0  0  0  0  0  0  0  0
   -3.1789   12.3694  -38.2297 H   0  0  0  0  0  0  0  0  0  0  0  0
   -4.4621   13.6264  -38.2297 H   0  0  0  0  0  0  0  0  0  0  0  0
   -7.6778   15.3818  -33.2092 H   0  0  0  0  0  0  0  0  0  0  0  0
   -7.6374   16.2870  -34.7603 H   0  0  0  0  0  0  0  0  0  0  0  0
   -7.4794   14.4977  -34.7603 H   0  0  0  0  0  0  0  0  0  0  0  0
   -5.8396   17.5477  -33.2459 H   0  0  0  0  0  0  0  0  0  0  0  0
   -1.4304   21.4242  -30.2683 H   0  0  0  0  0  0  0  0  0  0  0  0
   -1.8302   23.7645  -28.2678 H   0  0  0  0  0  0  0  0  0  0  0  0
   -0.5203   23.5656  -29.4807 H   0  0  0  0  0  0  0  0  0  0  0  0
   -1.5259   25.0540  -29.4807 H   0  0  0  0  0  0  0  0  0  0  0  0
   -5.8936   22.0834  -30.6899 H   0  0  0  0  0  0  0  0  0  0  0  0
   -6.2555   23.1900  -29.2922 H   0  0  0  0  0  0  0  0  0  0  0  0
   -7.6200   21.1424  -29.1784 H   0  0  0  0  0  0  0  0  0  0  0  0
   -8.6349   22.6185  -29.4481 H   0  0  0  0  0  0  0  0  0  0  0  0
  1  2  1  0
  2  3  1  0
  3  4  1  0
  4  5  1  0
  5  6  1  0
  6  7  1  0
  7  8  1  0
  8  9  2  0
  9 10  1  0
 10 11  1  0
 11 12  2  0
 12 13  1  0
 13 14  1  0
 14 15  1  0
 15 16  2  0
 16 17  1  0
 17 18  2  0
 18 19  1  0
 19 20  1  0
 20 21  1  0
 21 22  1  0
 21 23  1  0
 18 24  1  0
 24 25  1  0
 24 26  2  0
 14 27  2  0
 10 28  2  0
 28 29  1  0
 29 30  1  0
 29 31  2  0
 31 32  1  0
  6 33  1  0
 33 34  1  0
 34  3  1  0
 31  8  1  0
 27 11  1  0
 26 15  1  0
  1 35  1  0
  1 36  1  0
  1 37  1  0
  2 38  1  0
  2 39  1  0
  4 40  1  0
  4 41  1  0
  5 42  1  0
  5 43  1  0
  7 44  1  0
  7 45  1  0
  9 46  1  0
 16 47  1  0
 17 48  1  0
 20 49  1  0
 20 50  1  0
 21 51  1  0
 22 52  1  0
 22 53  1  0
 22 54  1  0
 23 55  1  0
 23 56  1  0
 23 57  1  0
 25 58  1  0
 25 59  1  0
 25 60  1  0
 26 61  1  0
 28 62  1  0
 30 63  1  0
 30 64  1  0
 30 65  1  0
 33 66  1  0
 33 67  1  0
 34 68  1  0
 34 69  1  0
M  CHG  1  32  -1
M  END
>  <UniqueID>  (50) 
50

>  <SMILES>  (50) 
CCN1CCN(Cc2cc(-c3noc(-c4ccc(OCC(C)C)c(C)c4)n3)cc(C)c2[O-])CC1

>  <Energy>  (50) 
113.08178380123609

>  <Genealogy>  (50) 
CCN1CCN(Cc2cc(-c3noc(-c4ccc(OCC(C)C)c(C)c4)n3)cc(C)c2[O-])CC1 (protonated)
CCN1CCN(Cc2cc(-c3noc(-c4ccc(OCC(C)C)c(C)c4)n3)cc(C)c2[O-])CC1 (3D coordinates assigned)
CCN1CCN(Cc2cc(-c3noc(-c4ccc(OCC(C)C)c(C)c4)n3)cc(C)c2[O-])CC1 (nonaromatic ring conformer: 113.08178380123609 kcal/mol)

>  <smiles>  (50) 
CCN1CCN(Cc2cc(-c3noc(-c4ccc(OCC(C)C)c(C)c4)n3)cc(C)c2O)CC1

>  <score_type>  (50) 
oracle

>  <origin>  (50) 
adgpu

>  <m_score__min__energy>  (50) 
-11.609999999999999

>  <m_primary>  (50) 
energy

$$$$
