0:0
     RDKit          3D

 50 53  0  0  0  0  0  0  0  0999 V2000
   -5.8140   24.6700  -29.0990 O   0  0  0  0  0  0  0  0  0  0  0  0
   -5.2620   24.7710  -30.4930 S   0  0  0  0  0  0  0  0  0  0  0  0
   -5.8560   25.9640  -31.1870 O   0  0  0  0  0  0  0  0  0  0  0  0
   -3.5370   24.9430  -30.4400 N   0  0  0  0  0  0  0  0  0  0  0  0
   -2.6480   24.1430  -29.6490 C   0  0  0  0  0  0  0  0  0  0  0  0
   -2.8980   22.7810  -29.3970 C   0  0  0  0  0  0  0  0  0  0  0  0
   -2.0120   22.0320  -28.6160 C   0  0  0  0  0  0  0  0  0  0  0  0
   -0.8500   22.6320  -28.0960 C   0  0  0  0  0  0  0  0  0  0  0  0
   -0.6090   23.9910  -28.3330 C   0  0  0  0  0  0  0  0  0  0  0  0
   -1.5000   24.7410  -29.1080 C   0  0  0  0  0  0  0  0  0  0  0  0
   -1.2420   26.0880  -29.3370 O   0  0  0  0  0  0  0  0  0  0  0  0
    0.0940   21.8310  -27.2330 C   0  0  0  0  0  0  0  0  0  0  0  0
   -0.0410   20.3240  -27.4950 C   0  0  0  0  0  0  0  0  0  0  0  0
   -1.5140   19.9090  -27.4460 C   0  0  0  0  0  0  0  0  0  0  0  0
   -2.2760   20.6770  -28.3770 O   0  0  0  0  0  0  0  0  0  0  0  0
   -5.6590   23.2960  -31.3760 C   0  0  0  0  0  0  0  0  0  0  0  0
   -4.6370   22.4340  -31.8020 C   0  0  0  0  0  0  0  0  0  0  0  0
   -4.9450   21.2600  -32.5010 C   0  0  0  0  0  0  0  0  0  0  0  0
   -3.6420   20.2000  -33.0350 S   0  0  0  0  0  0  0  0  0  0  0  0
   -3.3000   19.2650  -31.9080 O   0  0  0  0  0  0  0  0  0  0  0  0
   -4.0860   19.3890  -34.2230 O   0  0  0  0  0  0  0  0  0  0  0  0
   -2.2400   21.1630  -33.4530 N   0  0  0  0  0  0  0  0  0  0  0  0
   -1.2800   20.3680  -34.2270 C   0  0  0  0  0  0  0  0  0  0  0  0
   -0.2760   19.7610  -33.2580 C   0  0  0  0  0  0  0  0  0  0  0  0
   -0.4190   20.5570  -31.9740 C   0  0  0  0  0  0  0  0  0  0  0  0
   -1.5210   21.5740  -32.2410 C   0  0  0  0  0  0  0  0  0  0  0  0
   -6.2830   20.9470  -32.7770 C   0  0  0  0  0  0  0  0  0  0  0  0
   -7.3050   21.8030  -32.3580 C   0  0  0  0  0  0  0  0  0  0  0  0
   -7.0000   22.9790  -31.6580 C   0  0  0  0  0  0  0  0  0  0  0  0
   -8.0240   23.8310  -31.2470 O   0  0  0  0  0  0  0  0  0  0  0  0
   -3.7954   22.3029  -29.8167 H   0  0  0  0  0  0  0  0  0  0  0  0
    0.2849   24.4709  -27.9079 H   0  0  0  0  0  0  0  0  0  0  0  0
    1.1268   22.1402  -27.4516 H   0  0  0  0  0  0  0  0  0  0  0  0
   -0.1584   22.0208  -26.1793 H   0  0  0  0  0  0  0  0  0  0  0  0
    0.3698   20.0896  -28.4881 H   0  0  0  0  0  0  0  0  0  0  0  0
    0.5130   19.7738  -26.7202 H   0  0  0  0  0  0  0  0  0  0  0  0
   -1.5991   18.8421  -27.7000 H   0  0  0  0  0  0  0  0  0  0  0  0
   -1.9025   20.0871  -26.4324 H   0  0  0  0  0  0  0  0  0  0  0  0
   -3.5874   22.6818  -31.5856 H   0  0  0  0  0  0  0  0  0  0  0  0
   -1.8081   19.5677  -34.7661 H   0  0  0  0  0  0  0  0  0  0  0  0
   -0.7635   21.0042  -34.9608 H   0  0  0  0  0  0  0  0  0  0  0  0
   -0.5063   18.7002  -33.0803 H   0  0  0  0  0  0  0  0  0  0  0  0
    0.7497   19.8046  -33.6529 H   0  0  0  0  0  0  0  0  0  0  0  0
   -0.7010   19.8953  -31.1418 H   0  0  0  0  0  0  0  0  0  0  0  0
    0.5252   21.0457  -31.6916 H   0  0  0  0  0  0  0  0  0  0  0  0
   -2.2151   21.6036  -31.3882 H   0  0  0  0  0  0  0  0  0  0  0  0
   -1.0885   22.5762  -32.3770 H   0  0  0  0  0  0  0  0  0  0  0  0
   -6.5292   20.0254  -33.3247 H   0  0  0  0  0  0  0  0  0  0  0  0
   -8.3533   21.5531  -32.5783 H   0  0  0  0  0  0  0  0  0  0  0  0
   -7.8290   24.7500  -30.8660 H   0  0  0  0  0  0  0  0  0  0  0  0
  1  2  2  0
  2  3  2  0
  2  4  1  0
  4  5  1  0
  5  6  2  0
  6  7  1  0
  7  8  2  0
  8  9  1  0
  9 10  2  0
 10 11  1  0
  8 12  1  0
 12 13  1  0
 13 14  1  0
 14 15  1  0
  2 16  1  0
 16 17  2  0
 17 18  1  0
 18 19  1  0
 19 20  2  0
 19 21  2  0
 19 22  1  0
 22 23  1  0
 23 24  1  0
 24 25  1  0
 25 26  1  0
 18 27  2  0
 27 28  1  0
 28 29  2  0
 29 30  1  0
 10  5  1  0
 29 16  1  0
 15  7  1  0
 26 22  1  0
  6 31  1  0
  9 32  1  0
 12 33  1  0
 12 34  1  0
 13 35  1  0
 13 36  1  0
 14 37  1  0
 14 38  1  0
 17 39  1  0
 23 40  1  0
 23 41  1  0
 24 42  1  0
 24 43  1  0
 25 44  1  0
 25 45  1  0
 26 46  1  0
 26 47  1  0
 27 48  1  0
 28 49  1  0
 30 50  1  0
M  CHG  2   4  -1  11  -1
M  END
>  <UniqueID>  (1) 
1

>  <SMILES>  (1) 
O=S(=O)([N-]c1cc2c(cc1[O-])CCCO2)c1cc(S(=O)(=O)N2CCCC2)ccc1O

>  <Energy>  (1) 
57.29406030605319

>  <Genealogy>  (1) 
O=S(=O)([N-]c1cc2c(cc1[O-])CCCO2)c1cc(S(=O)(=O)N2CCCC2)ccc1O (protonated)
O=S(=O)([N-]c1cc2c(cc1[O-])CCCO2)c1cc(S(=O)(=O)N2CCCC2)ccc1O (3D coordinates assigned)
O=S(=O)([N-]c1cc2c(cc1[O-])CCCO2)c1cc(S(=O)(=O)N2CCCC2)ccc1O (nonaromatic ring conformer: 57.29406030605319 kcal/mol)

>  <smiles>  (1) 
O=S(=O)(Nc1cc2c(cc1O)CCCO2)c1cc(S(=O)(=O)N2CCCC2)ccc1O

>  <score_type>  (1) 
oracle

>  <origin>  (1) 
adgpu

>  <m_score__min__energy>  (1) 
-13.67

>  <m_primary>  (1) 
energy

$$$$
1:0
     RDKit          3D

 60 64  0  0  0  0  0  0  0  0999 V2000
   -5.8890   22.1180  -33.3680 H   0  0  0  0  0  0  0  0  0  0  0  0
   -5.7230   21.0930  -33.4390 N   0  0  0  0  0  0  0  0  0  0  0  0
   -6.4290   20.2150  -32.7960 C   0  0  0  0  0  0  0  0  0  0  0  0
   -6.2880   18.8470  -32.8800 C   0  0  0  0  0  0  0  0  0  0  0  0
   -5.3440   18.0770  -33.6400 N   0  0  0  0  0  0  0  0  0  0  0  0
   -5.7320   17.2940  -34.2140 H   0  0  0  0  0  0  0  0  0  0  0  0
   -3.9170   18.2530  -33.5730 C   0  0  0  0  0  0  0  0  0  0  0  0
   -3.4160   19.0900  -32.7720 O   0  0  0  0  0  0  0  0  0  0  0  0
   -3.0140   17.4400  -34.4120 C   0  0  0  0  0  0  0  0  0  0  0  0
   -1.6440   17.7570  -34.5160 C   0  0  0  0  0  0  0  0  0  0  0  0
   -1.2355   18.6080  -33.9512 H   0  0  0  0  0  0  0  0  0  0  0  0
   -0.8010   16.9960  -35.3330 C   0  0  0  0  0  0  0  0  0  0  0  0
    0.2658   17.2518  -35.4137 H   0  0  0  0  0  0  0  0  0  0  0  0
   -1.3160   15.9110  -36.0460 C   0  0  0  0  0  0  0  0  0  0  0  0
   -2.6820   15.6070  -35.9750 C   0  0  0  0  0  0  0  0  0  0  0  0
   -3.5310   16.3630  -35.1580 C   0  0  0  0  0  0  0  0  0  0  0  0
   -4.6013   16.1160  -35.0987 H   0  0  0  0  0  0  0  0  0  0  0  0
   -3.1830   14.5390  -36.7290 O   0  0  0  0  0  0  0  0  0  0  0  0
   -2.3990   13.9360  -37.7640 C   0  0  0  0  0  0  0  0  0  0  0  0
   -2.7766   12.9217  -37.9604 H   0  0  0  0  0  0  0  0  0  0  0  0
   -2.4753   14.5504  -38.6733 H   0  0  0  0  0  0  0  0  0  0  0  0
   -0.9240   13.8540  -37.3400 C   0  0  0  0  0  0  0  0  0  0  0  0
   -0.8144   13.0932  -36.5531 H   0  0  0  0  0  0  0  0  0  0  0  0
   -0.3149   13.5820  -38.2147 H   0  0  0  0  0  0  0  0  0  0  0  0
   -0.4810   15.1160  -36.8400 O   0  0  0  0  0  0  0  0  0  0  0  0
   -7.3150   18.3370  -32.1130 C   0  0  0  0  0  0  0  0  0  0  0  0
   -7.5367   17.2687  -31.9732 H   0  0  0  0  0  0  0  0  0  0  0  0
   -8.0050   19.3590  -31.5610 N   0  0  0  0  0  0  0  0  0  0  0  0
   -7.4750   20.4970  -31.9860 N   0  0  0  0  0  0  0  0  0  0  0  0
   -7.8970   21.8050  -31.4840 C   0  0  0  0  0  0  0  0  0  0  0  0
   -8.5976   22.2630  -32.1977 H   0  0  0  0  0  0  0  0  0  0  0  0
   -8.3939   21.6811  -30.5105 H   0  0  0  0  0  0  0  0  0  0  0  0
   -6.6930   22.6930  -31.3230 C   0  0  0  0  0  0  0  0  0  0  0  0
   -6.7950   24.0640  -31.6060 C   0  0  0  0  0  0  0  0  0  0  0  0
   -7.7235   24.4669  -32.0368 H   0  0  0  0  0  0  0  0  0  0  0  0
   -5.7230   24.9180  -31.3430 C   0  0  0  0  0  0  0  0  0  0  0  0
   -5.8029   25.9879  -31.5856 H   0  0  0  0  0  0  0  0  0  0  0  0
   -4.5470   24.4190  -30.7720 C   0  0  0  0  0  0  0  0  0  0  0  0
   -3.5170   25.3020  -30.4790 O   0  0  0  0  0  0  0  0  0  0  0  0
   -4.4290   23.0460  -30.4890 C   0  0  0  0  0  0  0  0  0  0  0  0
   -2.9940   22.3780  -29.6920 S   0  0  0  0  0  0  0  0  0  0  0  0
   -1.8320   22.3710  -30.6450 O   0  0  0  0  0  0  0  0  0  0  0  0
   -3.2780   20.9520  -29.3070 O   0  0  0  0  0  0  0  0  0  0  0  0
   -2.5460   23.3100  -28.2790 N   0  0  0  0  0  0  0  0  0  0  0  0
   -1.5590   24.3440  -28.6230 C   0  0  0  0  0  0  0  0  0  0  0  0
   -0.7151   23.8789  -29.1535 H   0  0  0  0  0  0  0  0  0  0  0  0
   -2.0370   25.0973  -29.2664 H   0  0  0  0  0  0  0  0  0  0  0  0
   -1.0400   25.0310  -27.3420 C   0  0  0  0  0  0  0  0  0  0  0  0
   -0.0443   24.6280  -27.1048 H   0  0  0  0  0  0  0  0  0  0  0  0
   -1.0042   26.1132  -27.5356 H   0  0  0  0  0  0  0  0  0  0  0  0
   -1.9250   24.8140  -26.1840 N   0  0  0  0  0  0  0  0  0  0  0  0
   -1.7590   23.8490  -25.8080 H   0  0  0  0  0  0  0  0  0  0  0  0
   -3.3420   24.9350  -26.5560 C   0  0  0  0  0  0  0  0  0  0  0  0
   -3.9609   24.7530  -25.6651 H   0  0  0  0  0  0  0  0  0  0  0  0
   -3.5067   25.9483  -26.9512 H   0  0  0  0  0  0  0  0  0  0  0  0
   -3.7350   23.9210  -27.6540 C   0  0  0  0  0  0  0  0  0  0  0  0
   -4.3494   23.1274  -27.2038 H   0  0  0  0  0  0  0  0  0  0  0  0
   -4.2963   24.4575  -28.4332 H   0  0  0  0  0  0  0  0  0  0  0  0
   -5.5030   22.1910  -30.7780 C   0  0  0  0  0  0  0  0  0  0  0  0
   -5.4103   21.1140  -30.5746 H   0  0  0  0  0  0  0  0  0  0  0  0
  1  2  1  0
  2  3  2  0
  3  4  1  0
  4  5  1  0
  5  6  1  0
  5  7  1  0
  7  8  2  0
  7  9  1  0
  9 10  2  0
 10 11  1  0
 10 12  1  0
 12 13  1  0
 12 14  2  0
 14 15  1  0
 15 16  2  0
 16 17  1  0
 15 18  1  0
 18 19  1  0
 19 20  1  0
 19 21  1  0
 19 22  1  0
 22 23  1  0
 22 24  1  0
 22 25  1  0
  4 26  2  0
 26 27  1  0
 26 28  1  0
 28 29  1  0
 29 30  1  0
 30 31  1  0
 30 32  1  0
 30 33  1  0
 33 34  2  0
 34 35  1  0
 34 36  1  0
 36 37  1  0
 36 38  2  0
 38 39  1  0
 38 40  1  0
 40 41  1  0
 41 42  2  0
 41 43  2  0
 41 44  1  0
 44 45  1  0
 45 46  1  0
 45 47  1  0
 45 48  1  0
 48 49  1  0
 48 50  1  0
 48 51  1  0
 51 52  1  0
 51 53  1  0
 53 54  1  0
 53 55  1  0
 53 56  1  0
 56 57  1  0
 56 58  1  0
 40 59  2  0
 59 60  1  0
 29  3  1  0
 59 33  1  0
 16  9  1  0
 56 44  1  0
 25 14  1  0
M  CHG  2  28  -1  39  -1
M  END
>  <UniqueID>  (2) 
2

>  <SMILES>  (2) 
[H]/N=c1/c(NC(=O)c2ccc3c(c2)OCCO3)c[n-]n1Cc1ccc([O-])c(S(=O)(=O)N2CCNCC2)c1

>  <Energy>  (2) 
111.1572939190612

>  <Genealogy>  (2) 
N=c1c(NC(=O)c2ccc3c(c2)OCCO3)c[n-]n1Cc1ccc([O-])c(S(=O)(=O)N2CCNCC2)c1 (protonated)
[H]/N=c1/c(NC(=O)c2ccc3c(c2)OCCO3)c[n-]n1Cc1ccc([O-])c(S(=O)(=O)N2CCNCC2)c1 (cis-trans isomerization)
[H]/N=c1/c(NC(=O)c2ccc3c(c2)OCCO3)c[n-]n1Cc1ccc([O-])c(S(=O)(=O)N2CCNCC2)c1 (3D coordinates assigned)
[H]/N=c1/c(NC(=O)c2ccc3c(c2)OCCO3)c[n-]n1Cc1ccc([O-])c(S(=O)(=O)N2CCNCC2)c1 (nonaromatic ring conformer: 111.1572939190612 kcal/mol)

>  <smiles>  (2) 
N=c1c(NC(=O)c2ccc3c(c2)OCCO3)c[nH]n1Cc1ccc(O)c(S(=O)(=O)N2CCNCC2)c1

>  <score_type>  (2) 
oracle

>  <origin>  (2) 
adgpu

>  <m_score__min__energy>  (2) 
-11.869999999999999

>  <m_primary>  (2) 
energy

$$$$
2:0
     RDKit          3D

 55 58  0  0  0  0  0  0  0  0999 V2000
   -1.5870   19.6660  -29.6090 O   0  0  0  0  0  0  0  0  0  0  0  0
   -1.4250   20.5790  -30.4650 C   0  0  0  0  0  0  0  0  0  0  0  0
   -1.1050   20.2280  -31.8220 N   0  0  0  0  0  0  0  0  0  0  0  0
   -1.5020   18.9890  -32.4360 C   0  0  0  0  0  0  0  0  0  0  0  0
   -0.5280   18.0200  -32.7240 C   0  0  0  0  0  0  0  0  0  0  0  0
   -0.8870   16.8190  -33.3410 C   0  0  0  0  0  0  0  0  0  0  0  0
   -2.2170   16.5800  -33.6890 C   0  0  0  0  0  0  0  0  0  0  0  0
   -3.1980   17.5470  -33.4350 C   0  0  0  0  0  0  0  0  0  0  0  0
   -4.8830   17.2510  -33.8840 S   0  0  0  0  0  0  0  0  0  0  0  0
   -5.0610   17.5610  -35.3450 O   0  0  0  0  0  0  0  0  0  0  0  0
   -5.1950   15.7950  -33.6760 O   0  0  0  0  0  0  0  0  0  0  0  0
   -6.0120   18.2110  -32.9580 N   0  0  0  0  0  0  0  0  0  0  0  0
   -7.1640   17.4310  -32.5080 C   0  0  0  0  0  0  0  0  0  0  0  0
   -8.3160   18.4140  -32.3400 C   0  0  0  0  0  0  0  0  0  0  0  0
   -7.8910   19.6680  -33.0890 C   0  0  0  0  0  0  0  0  0  0  0  0
   -6.5670   19.3120  -33.7410 C   0  0  0  0  0  0  0  0  0  0  0  0
   -2.8390   18.7490  -32.8060 C   0  0  0  0  0  0  0  0  0  0  0  0
   -1.5370   21.9990  -30.0480 C   0  0  0  0  0  0  0  0  0  0  0  0
   -0.5510   22.6050  -29.2460 C   0  0  0  0  0  0  0  0  0  0  0  0
   -0.6680   23.9460  -28.8710 C   0  0  0  0  0  0  0  0  0  0  0  0
   -1.7490   24.7110  -29.3170 C   0  0  0  0  0  0  0  0  0  0  0  0
   -1.8490   26.0460  -28.9450 O   0  0  0  0  0  0  0  0  0  0  0  0
   -2.7180   24.1360  -30.1500 C   0  0  0  0  0  0  0  0  0  0  0  0
   -3.8020   24.9360  -30.6290 N   0  0  0  0  0  0  0  0  0  0  0  0
   -5.3210   25.0590  -29.7980 S   0  0  0  0  0  0  0  0  0  0  0  0
   -5.8170   26.4750  -29.8830 O   0  0  0  0  0  0  0  0  0  0  0  0
   -5.1120   24.7160  -28.3500 O   0  0  0  0  0  0  0  0  0  0  0  0
   -6.5260   23.9660  -30.4760 C   0  0  0  0  0  0  0  0  0  0  0  0
   -7.1100   22.9760  -29.6740 C   0  0  0  0  0  0  0  0  0  0  0  0
   -8.0180   22.0680  -30.2290 C   0  0  0  0  0  0  0  0  0  0  0  0
   -8.3430   22.1430  -31.5870 C   0  0  0  0  0  0  0  0  0  0  0  0
   -7.7640   23.1290  -32.3910 C   0  0  0  0  0  0  0  0  0  0  0  0
   -6.8590   24.0400  -31.8380 C   0  0  0  0  0  0  0  0  0  0  0  0
   -2.6260   22.7760  -30.4810 C   0  0  0  0  0  0  0  0  0  0  0  0
   -0.4810   20.8690  -32.3640 H   0  0  0  0  0  0  0  0  0  0  0  0
    0.5239   18.2073  -32.4624 H   0  0  0  0  0  0  0  0  0  0  0  0
   -0.1194   16.0601  -33.5529 H   0  0  0  0  0  0  0  0  0  0  0  0
   -2.4962   15.6283  -34.1647 H   0  0  0  0  0  0  0  0  0  0  0  0
   -7.4221   16.6682  -33.2574 H   0  0  0  0  0  0  0  0  0  0  0  0
   -6.9461   16.9099  -31.5641 H   0  0  0  0  0  0  0  0  0  0  0  0
   -9.2395   18.0019  -32.7727 H   0  0  0  0  0  0  0  0  0  0  0  0
   -8.5244   18.6220  -31.2801 H   0  0  0  0  0  0  0  0  0  0  0  0
   -8.6377   19.9335  -33.8519 H   0  0  0  0  0  0  0  0  0  0  0  0
   -7.7996   20.5360  -32.4195 H   0  0  0  0  0  0  0  0  0  0  0  0
   -6.7271   18.9967  -34.7826 H   0  0  0  0  0  0  0  0  0  0  0  0
   -5.8845   20.1745  -33.7609 H   0  0  0  0  0  0  0  0  0  0  0  0
   -3.6074   19.5088  -32.6007 H   0  0  0  0  0  0  0  0  0  0  0  0
    0.3177   22.0185  -28.9122 H   0  0  0  0  0  0  0  0  0  0  0  0
    0.0943   24.4015  -28.2218 H   0  0  0  0  0  0  0  0  0  0  0  0
   -6.8539   22.9129  -28.6061 H   0  0  0  0  0  0  0  0  0  0  0  0
   -8.4769   21.2940  -29.5963 H   0  0  0  0  0  0  0  0  0  0  0  0
   -9.0544   21.4260  -32.0226 H   0  0  0  0  0  0  0  0  0  0  0  0
   -8.0204   23.1882  -33.4590 H   0  0  0  0  0  0  0  0  0  0  0  0
   -6.4066   24.8169  -32.4718 H   0  0  0  0  0  0  0  0  0  0  0  0
   -3.4168   22.3108  -31.0878 H   0  0  0  0  0  0  0  0  0  0  0  0
  1  2  2  0
  2  3  1  0
  3  4  1  0
  4  5  2  0
  5  6  1  0
  6  7  2  0
  7  8  1  0
  8  9  1  0
  9 10  2  0
  9 11  2  0
  9 12  1  0
 12 13  1  0
 13 14  1  0
 14 15  1  0
 15 16  1  0
  8 17  2  0
  2 18  1  0
 18 19  2  0
 19 20  1  0
 20 21  2  0
 21 22  1  0
 21 23  1  0
 23 24  1  0
 24 25  1  0
 25 26  2  0
 25 27  2  0
 25 28  1  0
 28 29  2  0
 29 30  1  0
 30 31  2  0
 31 32  1  0
 32 33  2  0
 23 34  2  0
 17  4  1  0
 34 18  1  0
 16 12  1  0
 33 28  1  0
  3 35  1  0
  5 36  1  0
  6 37  1  0
  7 38  1  0
 13 39  1  0
 13 40  1  0
 14 41  1  0
 14 42  1  0
 15 43  1  0
 15 44  1  0
 16 45  1  0
 16 46  1  0
 17 47  1  0
 19 48  1  0
 20 49  1  0
 29 50  1  0
 30 51  1  0
 31 52  1  0
 32 53  1  0
 33 54  1  0
 34 55  1  0
M  CHG  2  22  -1  24  -1
M  END
>  <UniqueID>  (3) 
3

>  <SMILES>  (3) 
O=C(Nc1cccc(S(=O)(=O)N2CCCC2)c1)c1ccc([O-])c([N-]S(=O)(=O)c2ccccc2)c1

>  <Energy>  (3) 
72.90464450221441

>  <Genealogy>  (3) 
O=C(Nc1cccc(S(=O)(=O)N2CCCC2)c1)c1ccc([O-])c([N-]S(=O)(=O)c2ccccc2)c1 (protonated)
O=C(Nc1cccc(S(=O)(=O)N2CCCC2)c1)c1ccc([O-])c([N-]S(=O)(=O)c2ccccc2)c1 (3D coordinates assigned)
O=C(Nc1cccc(S(=O)(=O)N2CCCC2)c1)c1ccc([O-])c([N-]S(=O)(=O)c2ccccc2)c1 (nonaromatic ring conformer: 72.90464450221441 kcal/mol)

>  <smiles>  (3) 
O=C(Nc1cccc(S(=O)(=O)N2CCCC2)c1)c1ccc(O)c(NS(=O)(=O)c2ccccc2)c1

>  <score_type>  (3) 
oracle

>  <origin>  (3) 
adgpu

>  <m_score__min__energy>  (3) 
-14.07

>  <m_primary>  (3) 
energy

$$$$
3:0
     RDKit          3D

 57 60  0  0  0  0  0  0  0  0999 V2000
   -0.3480   23.0040  -29.9220 O   0  0  0  0  0  0  0  0  0  0  0  0
   -1.4600   22.5600  -30.3130 C   0  0  0  0  0  0  0  0  0  0  0  0
   -2.6510   23.2150  -29.8580 N   0  0  0  0  0  0  0  0  0  0  0  0
   -3.9130   23.2540  -30.5420 C   0  0  0  0  0  0  0  0  0  0  0  0
   -4.5970   22.0720  -30.8860 C   0  0  0  0  0  0  0  0  0  0  0  0
   -5.8150   22.1340  -31.5780 C   0  0  0  0  0  0  0  0  0  0  0  0
   -6.6780   20.6510  -31.9990 S   0  0  0  0  0  0  0  0  0  0  0  0
   -7.6560   20.3370  -30.9000 O   0  0  0  0  0  0  0  0  0  0  0  0
   -7.4620   20.8730  -33.2640 O   0  0  0  0  0  0  0  0  0  0  0  0
   -5.6020   19.2840  -32.2210 N   0  0  0  0  0  0  0  0  0  0  0  0
   -5.2200   19.0760  -33.6340 C   0  0  0  0  0  0  0  0  0  0  0  0
   -5.9430   17.8760  -34.2710 C   0  0  0  0  0  0  0  0  0  0  0  0
   -7.2370   17.7480  -33.7320 O   0  0  0  0  0  0  0  0  0  0  0  0
   -7.1620   17.3140  -32.3870 C   0  0  0  0  0  0  0  0  0  0  0  0
   -6.0950   18.0650  -31.5550 C   0  0  0  0  0  0  0  0  0  0  0  0
   -6.3480   23.3810  -31.9270 C   0  0  0  0  0  0  0  0  0  0  0  0
   -5.6980   24.5550  -31.5430 C   0  0  0  0  0  0  0  0  0  0  0  0
   -4.4900   24.4940  -30.8440 C   0  0  0  0  0  0  0  0  0  0  0  0
   -3.8590   25.6710  -30.4600 O   0  0  0  0  0  0  0  0  0  0  0  0
   -1.4980   21.4140  -31.2530 C   0  0  0  0  0  0  0  0  0  0  0  0
   -1.9210   21.5830  -32.5840 C   0  0  0  0  0  0  0  0  0  0  0  0
   -2.0280   20.4850  -33.4400 C   0  0  0  0  0  0  0  0  0  0  0  0
   -1.6700   19.2030  -32.9950 C   0  0  0  0  0  0  0  0  0  0  0  0
   -1.9070   17.8020  -34.0460 S   0  0  0  0  0  0  0  0  0  0  0  0
   -0.6670   17.6030  -34.8750 O   0  0  0  0  0  0  0  0  0  0  0  0
   -3.0540   18.0700  -34.9810 O   0  0  0  0  0  0  0  0  0  0  0  0
   -2.2730   16.3530  -33.1350 N   0  0  0  0  0  0  0  0  0  0  0  0
   -3.6290   15.8660  -33.4430 C   0  0  0  0  0  0  0  0  0  0  0  0
   -3.8690   14.4790  -32.8080 C   0  0  0  0  0  0  0  0  0  0  0  0
   -2.8380   14.1540  -31.8940 O   0  0  0  0  0  0  0  0  0  0  0  0
   -1.6090   14.0330  -32.5880 C   0  0  0  0  0  0  0  0  0  0  0  0
   -1.2730   15.3070  -33.3930 C   0  0  0  0  0  0  0  0  0  0  0  0
   -1.1940   19.0380  -31.6890 C   0  0  0  0  0  0  0  0  0  0  0  0
   -1.1100   20.1320  -30.8220 C   0  0  0  0  0  0  0  0  0  0  0  0
   -4.1735   21.0949  -30.6104 H   0  0  0  0  0  0  0  0  0  0  0  0
   -5.4716   19.9824  -34.2043 H   0  0  0  0  0  0  0  0  0  0  0  0
   -4.1403   18.8673  -33.6604 H   0  0  0  0  0  0  0  0  0  0  0  0
   -6.0153   18.0301  -35.3577 H   0  0  0  0  0  0  0  0  0  0  0  0
   -5.3731   16.9592  -34.0596 H   0  0  0  0  0  0  0  0  0  0  0  0
   -8.1438   17.4692  -31.9157 H   0  0  0  0  0  0  0  0  0  0  0  0
   -6.8710   16.2533  -32.4049 H   0  0  0  0  0  0  0  0  0  0  0  0
   -6.5383   18.3477  -30.5888 H   0  0  0  0  0  0  0  0  0  0  0  0
   -5.2374   17.3877  -31.4293 H   0  0  0  0  0  0  0  0  0  0  0  0
   -7.2819   23.4355  -32.5056 H   0  0  0  0  0  0  0  0  0  0  0  0
   -6.1385   25.5318  -31.7917 H   0  0  0  0  0  0  0  0  0  0  0  0
   -2.1696   22.5888  -32.9536 H   0  0  0  0  0  0  0  0  0  0  0  0
   -2.3945   20.6254  -34.4676 H   0  0  0  0  0  0  0  0  0  0  0  0
   -4.3672   16.5778  -33.0450 H   0  0  0  0  0  0  0  0  0  0  0  0
   -3.7333   15.7777  -34.5345 H   0  0  0  0  0  0  0  0  0  0  0  0
   -4.8316   14.4888  -32.2758 H   0  0  0  0  0  0  0  0  0  0  0  0
   -3.8786   13.7243  -33.6082 H   0  0  0  0  0  0  0  0  0  0  0  0
   -0.8056   13.8511  -31.8590 H   0  0  0  0  0  0  0  0  0  0  0  0
   -1.6992   13.1965  -33.2967 H   0  0  0  0  0  0  0  0  0  0  0  0
   -0.2797   15.6733  -33.0944 H   0  0  0  0  0  0  0  0  0  0  0  0
   -1.2787   15.0639  -34.4658 H   0  0  0  0  0  0  0  0  0  0  0  0
   -0.8840   18.0411  -31.3424 H   0  0  0  0  0  0  0  0  0  0  0  0
   -0.7382   19.9894  -29.7966 H   0  0  0  0  0  0  0  0  0  0  0  0
  1  2  2  0
  2  3  1  0
  3  4  1  0
  4  5  2  0
  5  6  1  0
  6  7  1  0
  7  8  2  0
  7  9  2  0
  7 10  1  0
 10 11  1  0
 11 12  1  0
 12 13  1  0
 13 14  1  0
 14 15  1  0
  6 16  2  0
 16 17  1  0
 17 18  2  0
 18 19  1  0
  2 20  1  0
 20 21  2  0
 21 22  1  0
 22 23  2  0
 23 24  1  0
 24 25  2  0
 24 26  2  0
 24 27  1  0
 27 28  1  0
 28 29  1  0
 29 30  1  0
 30 31  1  0
 31 32  1  0
 23 33  1  0
 33 34  2  0
 18  4  1  0
 34 20  1  0
 15 10  1  0
 32 27  1  0
  5 35  1  0
 11 36  1  0
 11 37  1  0
 12 38  1  0
 12 39  1  0
 14 40  1  0
 14 41  1  0
 15 42  1  0
 15 43  1  0
 16 44  1  0
 17 45  1  0
 21 46  1  0
 22 47  1  0
 28 48  1  0
 28 49  1  0
 29 50  1  0
 29 51  1  0
 31 52  1  0
 31 53  1  0
 32 54  1  0
 32 55  1  0
 33 56  1  0
 34 57  1  0
M  CHG  2   3  -1  19  -1
M  END
>  <UniqueID>  (4) 
4

>  <SMILES>  (4) 
O=C([N-]c1cc(S(=O)(=O)N2CCOCC2)ccc1[O-])c1ccc(S(=O)(=O)N2CCOCC2)cc1

>  <Energy>  (4) 
84.16232746162648

>  <Genealogy>  (4) 
O=C([N-]c1cc(S(=O)(=O)N2CCOCC2)ccc1[O-])c1ccc(S(=O)(=O)N2CCOCC2)cc1 (protonated)
O=C([N-]c1cc(S(=O)(=O)N2CCOCC2)ccc1[O-])c1ccc(S(=O)(=O)N2CCOCC2)cc1 (3D coordinates assigned)
O=C([N-]c1cc(S(=O)(=O)N2CCOCC2)ccc1[O-])c1ccc(S(=O)(=O)N2CCOCC2)cc1 (nonaromatic ring conformer: 84.16232746162648 kcal/mol)

>  <smiles>  (4) 
O=C(Nc1cc(S(=O)(=O)N2CCOCC2)ccc1O)c1ccc(S(=O)(=O)N2CCOCC2)cc1

>  <score_type>  (4) 
oracle

>  <origin>  (4) 
adgpu

>  <m_score__min__energy>  (4) 
-15.16

>  <m_primary>  (4) 
energy

$$$$
4:0
     RDKit          3D

 62 66  0  0  0  0  0  0  0  0999 V2000
   -5.2630   25.8030  -30.0750 O   0  0  0  0  0  0  0  0  0  0  0  0
   -4.6860   24.7360  -30.4170 C   0  0  0  0  0  0  0  0  0  0  0  0
   -5.0430   24.1280  -31.6660 N   0  0  0  0  0  0  0  0  0  0  0  0
   -5.8650   22.9600  -31.8180 C   0  0  0  0  0  0  0  0  0  0  0  0
   -5.2670   21.6960  -31.7630 C   0  0  0  0  0  0  0  0  0  0  0  0
   -6.0450   20.5420  -31.8900 C   0  0  0  0  0  0  0  0  0  0  0  0
   -7.4330   20.6390  -32.0590 C   0  0  0  0  0  0  0  0  0  0  0  0
   -8.4130   19.1840  -32.1970 S   0  0  0  0  0  0  0  0  0  0  0  0
   -8.9730   18.8460  -30.8430 O   0  0  0  0  0  0  0  0  0  0  0  0
   -9.5460   19.4690  -33.1430 O   0  0  0  0  0  0  0  0  0  0  0  0
   -7.4030   17.8790  -32.7910 N   0  0  0  0  0  0  0  0  0  0  0  0
   -6.5270   18.2910  -33.8830 C   0  0  0  0  0  0  0  0  0  0  0  0
   -5.4120   17.2610  -33.9290 C   0  0  0  0  0  0  0  0  0  0  0  0
   -5.3450   16.6960  -32.5160 C   0  0  0  0  0  0  0  0  0  0  0  0
   -6.5030   17.3460  -31.7690 C   0  0  0  0  0  0  0  0  0  0  0  0
   -8.0370   21.9030  -32.0840 C   0  0  0  0  0  0  0  0  0  0  0  0
   -7.2600   23.0570  -31.9630 C   0  0  0  0  0  0  0  0  0  0  0  0
   -3.6940   24.1200  -29.5090 C   0  0  0  0  0  0  0  0  0  0  0  0
   -3.8370   24.2300  -28.1160 C   0  0  0  0  0  0  0  0  0  0  0  0
   -2.9150   23.6220  -27.2610 C   0  0  0  0  0  0  0  0  0  0  0  0
   -1.8390   22.8940  -27.7870 C   0  0  0  0  0  0  0  0  0  0  0  0
   -0.7310   22.0270  -26.7290 S   0  0  0  0  0  0  0  0  0  0  0  0
    0.3060   21.2870  -27.5260 O   0  0  0  0  0  0  0  0  0  0  0  0
   -1.5270   21.0300  -25.9330 O   0  0  0  0  0  0  0  0  0  0  0  0
    0.0580   23.1780  -25.6780 N   0  0  0  0  0  0  0  0  0  0  0  0
   -0.4260   23.3660  -24.3080 C   0  0  0  0  0  0  0  0  0  0  0  0
   -0.8090   24.8310  -24.1050 C   0  0  0  0  0  0  0  0  0  0  0  0
    0.4060   25.7380  -24.3370 C   0  0  0  0  0  0  0  0  0  0  0  0
    1.1620   25.3890  -25.5970 C   0  0  0  0  0  0  0  0  0  0  0  0
    2.0750   26.3140  -26.1270 C   0  0  0  0  0  0  0  0  0  0  0  0
    2.8370   25.9920  -27.2510 C   0  0  0  0  0  0  0  0  0  0  0  0
    2.7120   24.7350  -27.8410 C   0  0  0  0  0  0  0  0  0  0  0  0
    1.8200   23.7980  -27.3170 C   0  0  0  0  0  0  0  0  0  0  0  0
    1.0240   24.1160  -26.2020 C   0  0  0  0  0  0  0  0  0  0  0  0
   -1.6810   22.8000  -29.1750 C   0  0  0  0  0  0  0  0  0  0  0  0
   -2.5970   23.4180  -30.0320 C   0  0  0  0  0  0  0  0  0  0  0  0
   -4.1798   21.6104  -31.6192 H   0  0  0  0  0  0  0  0  0  0  0  0
   -5.5656   19.5525  -31.8572 H   0  0  0  0  0  0  0  0  0  0  0  0
   -7.0791   18.3007  -34.8343 H   0  0  0  0  0  0  0  0  0  0  0  0
   -6.1343   19.3065  -33.7263 H   0  0  0  0  0  0  0  0  0  0  0  0
   -5.6477   16.4670  -34.6529 H   0  0  0  0  0  0  0  0  0  0  0  0
   -4.4545   17.6998  -34.2464 H   0  0  0  0  0  0  0  0  0  0  0  0
   -5.4621   15.6024  -32.5322 H   0  0  0  0  0  0  0  0  0  0  0  0
   -4.3777   16.9050  -32.0357 H   0  0  0  0  0  0  0  0  0  0  0  0
   -7.0257   16.5995  -31.1529 H   0  0  0  0  0  0  0  0  0  0  0  0
   -6.1487   18.1398  -31.0949 H   0  0  0  0  0  0  0  0  0  0  0  0
   -9.1277   21.9867  -32.1994 H   0  0  0  0  0  0  0  0  0  0  0  0
   -7.7414   24.0459  -31.9812 H   0  0  0  0  0  0  0  0  0  0  0  0
   -4.6800   24.7983  -27.6960 H   0  0  0  0  0  0  0  0  0  0  0  0
   -3.0337   23.7148  -26.1714 H   0  0  0  0  0  0  0  0  0  0  0  0
   -1.3067   22.7290  -24.1386 H   0  0  0  0  0  0  0  0  0  0  0  0
    0.3657   23.0898  -23.5961 H   0  0  0  0  0  0  0  0  0  0  0  0
   -1.6034   25.1000  -24.8168 H   0  0  0  0  0  0  0  0  0  0  0  0
   -1.1644   24.9674  -23.0730 H   0  0  0  0  0  0  0  0  0  0  0  0
    0.0587   26.7791  -24.4119 H   0  0  0  0  0  0  0  0  0  0  0  0
    1.0919   25.5979  -23.4885 H   0  0  0  0  0  0  0  0  0  0  0  0
    2.1908   27.2999  -25.6530 H   0  0  0  0  0  0  0  0  0  0  0  0
    3.5362   26.7299  -27.6714 H   0  0  0  0  0  0  0  0  0  0  0  0
    3.3186   24.4807  -28.7227 H   0  0  0  0  0  0  0  0  0  0  0  0
    1.7390   22.8033  -27.7796 H   0  0  0  0  0  0  0  0  0  0  0  0
   -0.8329   22.2378  -29.5930 H   0  0  0  0  0  0  0  0  0  0  0  0
   -2.4571   23.3536  -31.1212 H   0  0  0  0  0  0  0  0  0  0  0  0
  1  2  2  0
  2  3  1  0
  3  4  1  0
  4  5  2  0
  5  6  1  0
  6  7  2  0
  7  8  1  0
  8  9  2  0
  8 10  2  0
  8 11  1  0
 11 12  1  0
 12 13  1  0
 13 14  1  0
 14 15  1  0
  7 16  1  0
 16 17  2  0
  2 18  1  0
 18 19  2  0
 19 20  1  0
 20 21  2  0
 21 22  1  0
 22 23  2  0
 22 24  2  0
 22 25  1  0
 25 26  1  0
 26 27  1  0
 27 28  1  0
 28 29  1  0
 29 30  2  0
 30 31  1  0
 31 32  2  0
 32 33  1  0
 33 34  2  0
 21 35  1  0
 35 36  2  0
 17  4  1  0
 36 18  1  0
 15 11  1  0
 34 25  1  0
 34 29  1  0
  5 37  1  0
  6 38  1  0
 12 39  1  0
 12 40  1  0
 13 41  1  0
 13 42  1  0
 14 43  1  0
 14 44  1  0
 15 45  1  0
 15 46  1  0
 16 47  1  0
 17 48  1  0
 19 49  1  0
 20 50  1  0
 26 51  1  0
 26 52  1  0
 27 53  1  0
 27 54  1  0
 28 55  1  0
 28 56  1  0
 30 57  1  0
 31 58  1  0
 32 59  1  0
 33 60  1  0
 35 61  1  0
 36 62  1  0
M  CHG  1   3  -1
M  END
>  <UniqueID>  (5) 
5

>  <SMILES>  (5) 
O=C([N-]c1ccc(S(=O)(=O)N2CCCC2)cc1)c1ccc(S(=O)(=O)N2CCCc3ccccc32)cc1

>  <Energy>  (5) 
75.8264734486076

>  <Genealogy>  (5) 
O=C([N-]c1ccc(S(=O)(=O)N2CCCC2)cc1)c1ccc(S(=O)(=O)N2CCCc3ccccc32)cc1 (protonated)
O=C([N-]c1ccc(S(=O)(=O)N2CCCC2)cc1)c1ccc(S(=O)(=O)N2CCCc3ccccc32)cc1 (3D coordinates assigned)
O=C([N-]c1ccc(S(=O)(=O)N2CCCC2)cc1)c1ccc(S(=O)(=O)N2CCCc3ccccc32)cc1 (nonaromatic ring conformer: 75.8264734486076 kcal/mol)

>  <smiles>  (5) 
O=C(Nc1ccc(S(=O)(=O)N2CCCC2)cc1)c1ccc(S(=O)(=O)N2CCCc3ccccc32)cc1

>  <score_type>  (5) 
oracle

>  <origin>  (5) 
adgpu

>  <m_score__min__energy>  (5) 
-13.109999999999999

>  <m_primary>  (5) 
energy

$$$$
5:0
     RDKit          3D

 52 55  0  0  0  0  0  0  0  0999 V2000
    0.0890   24.3830  -25.3350 C   0  0  0  0  0  0  0  0  0  0  0  0
   -0.2810   25.6030  -26.0740 N   0  0  0  0  0  0  0  0  0  0  0  0
   -1.5420   26.2030  -25.5890 C   0  0  0  0  0  0  0  0  0  0  0  0
   -2.7560   25.2980  -25.8430 C   0  0  0  0  0  0  0  0  0  0  0  0
   -2.7540   24.7250  -27.2370 C   0  0  0  0  0  0  0  0  0  0  0  0
   -3.9280   24.1460  -27.7410 C   0  0  0  0  0  0  0  0  0  0  0  0
   -3.9330   23.5140  -28.9970 C   0  0  0  0  0  0  0  0  0  0  0  0
   -5.1240   22.9150  -29.5230 N   0  0  0  0  0  0  0  0  0  0  0  0
   -5.9840   23.5340  -30.8980 S   0  0  0  0  0  0  0  0  0  0  0  0
   -4.9950   23.9050  -31.9640 O   0  0  0  0  0  0  0  0  0  0  0  0
   -6.7330   24.7680  -30.4820 O   0  0  0  0  0  0  0  0  0  0  0  0
   -7.1620   22.3170  -31.4370 C   0  0  0  0  0  0  0  0  0  0  0  0
   -8.5240   22.6530  -31.3110 C   0  0  0  0  0  0  0  0  0  0  0  0
   -9.5240   21.7720  -31.7260 C   0  0  0  0  0  0  0  0  0  0  0  0
   -9.1830   20.5440  -32.2840 C   0  0  0  0  0  0  0  0  0  0  0  0
   -7.8390   20.1960  -32.4370 C   0  0  0  0  0  0  0  0  0  0  0  0
   -6.8130   21.0720  -32.0320 C   0  0  0  0  0  0  0  0  0  0  0  0
   -5.1360   20.5250  -32.2410 S   0  0  0  0  0  0  0  0  0  0  0  0
   -4.4440   20.5140  -30.9060 O   0  0  0  0  0  0  0  0  0  0  0  0
   -4.3960   21.4720  -33.1460 O   0  0  0  0  0  0  0  0  0  0  0  0
   -5.1070   18.9220  -32.9760 C   0  0  0  0  0  0  0  0  0  0  0  0
   -4.4900   18.7240  -34.2220 C   0  0  0  0  0  0  0  0  0  0  0  0
   -4.4810   17.4530  -34.8050 C   0  0  0  0  0  0  0  0  0  0  0  0
   -5.0850   16.3760  -34.1490 C   0  0  0  0  0  0  0  0  0  0  0  0
   -5.6910   16.5660  -32.9030 C   0  0  0  0  0  0  0  0  0  0  0  0
   -5.7010   17.8350  -32.3150 C   0  0  0  0  0  0  0  0  0  0  0  0
   -2.7440   23.4340  -29.7360 C   0  0  0  0  0  0  0  0  0  0  0  0
   -2.7340   22.7790  -30.9660 O   0  0  0  0  0  0  0  0  0  0  0  0
   -1.5720   24.0270  -29.2450 C   0  0  0  0  0  0  0  0  0  0  0  0
   -1.5660   24.6640  -27.9940 C   0  0  0  0  0  0  0  0  0  0  0  0
   -0.3140   25.3770  -27.5330 C   0  0  0  0  0  0  0  0  0  0  0  0
    0.0301   24.5771  -24.2539 H   0  0  0  0  0  0  0  0  0  0  0  0
   -0.6029   23.5699  -25.5997 H   0  0  0  0  0  0  0  0  0  0  0  0
    1.1160   24.0912  -25.5997 H   0  0  0  0  0  0  0  0  0  0  0  0
   -1.4549   26.3820  -24.5072 H   0  0  0  0  0  0  0  0  0  0  0  0
   -1.7014   27.1410  -26.1410 H   0  0  0  0  0  0  0  0  0  0  0  0
   -2.7388   24.4700  -25.1191 H   0  0  0  0  0  0  0  0  0  0  0  0
   -3.6637   25.9088  -25.7291 H   0  0  0  0  0  0  0  0  0  0  0  0
   -4.8536   24.1868  -27.1480 H   0  0  0  0  0  0  0  0  0  0  0  0
   -8.8041   23.6250  -30.8788 H   0  0  0  0  0  0  0  0  0  0  0  0
  -10.5824   22.0488  -31.6118 H   0  0  0  0  0  0  0  0  0  0  0  0
   -9.9716   19.8474  -32.6046 H   0  0  0  0  0  0  0  0  0  0  0  0
   -7.5780   19.2237  -32.8802 H   0  0  0  0  0  0  0  0  0  0  0  0
   -4.0134   19.5695  -34.7398 H   0  0  0  0  0  0  0  0  0  0  0  0
   -3.9979   17.3002  -35.7814 H   0  0  0  0  0  0  0  0  0  0  0  0
   -5.0835   15.3787  -34.6132 H   0  0  0  0  0  0  0  0  0  0  0  0
   -6.1602   15.7166  -32.3849 H   0  0  0  0  0  0  0  0  0  0  0  0
   -6.1749   17.9816  -31.3332 H   0  0  0  0  0  0  0  0  0  0  0  0
   -3.5820   22.3960  -31.3710 H   0  0  0  0  0  0  0  0  0  0  0  0
   -0.6504   23.9928  -29.8446 H   0  0  0  0  0  0  0  0  0  0  0  0
    0.5587   24.7687  -27.8130 H   0  0  0  0  0  0  0  0  0  0  0  0
   -0.3005   26.3639  -28.0186 H   0  0  0  0  0  0  0  0  0  0  0  0
  1  2  1  0
  2  3  1  0
  3  4  1  0
  4  5  1  0
  5  6  2  0
  6  7  1  0
  7  8  1  0
  8  9  1  0
  9 10  2  0
  9 11  2  0
  9 12  1  0
 12 13  2  0
 13 14  1  0
 14 15  2  0
 15 16  1  0
 16 17  2  0
 17 18  1  0
 18 19  2  0
 18 20  2  0
 18 21  1  0
 21 22  2  0
 22 23  1  0
 23 24  2  0
 24 25  1  0
 25 26  2  0
  7 27  2  0
 27 28  1  0
 27 29  1  0
 29 30  2  0
 30 31  1  0
 31  2  1  0
 30  5  1  0
 17 12  1  0
 26 21  1  0
  1 32  1  0
  1 33  1  0
  1 34  1  0
  3 35  1  0
  3 36  1  0
  4 37  1  0
  4 38  1  0
  6 39  1  0
 13 40  1  0
 14 41  1  0
 15 42  1  0
 16 43  1  0
 22 44  1  0
 23 45  1  0
 24 46  1  0
 25 47  1  0
 26 48  1  0
 28 49  1  0
 29 50  1  0
 31 51  1  0
 31 52  1  0
M  CHG  1   8  -1
M  END
>  <UniqueID>  (6) 
6

>  <SMILES>  (6) 
CN1CCc2cc([N-]S(=O)(=O)c3ccccc3S(=O)(=O)c3ccccc3)c(O)cc2C1

>  <Energy>  (6) 
72.13918066976021

>  <Genealogy>  (6) 
CN1CCc2cc([N-]S(=O)(=O)c3ccccc3S(=O)(=O)c3ccccc3)c(O)cc2C1 (protonated)
CN1CCc2cc([N-]S(=O)(=O)c3ccccc3S(=O)(=O)c3ccccc3)c(O)cc2C1 (3D coordinates assigned)
CN1CCc2cc([N-]S(=O)(=O)c3ccccc3S(=O)(=O)c3ccccc3)c(O)cc2C1 (nonaromatic ring conformer: 72.13918066976021 kcal/mol)

>  <smiles>  (6) 
CN1CCc2cc(NS(=O)(=O)c3ccccc3S(=O)(=O)c3ccccc3)c(O)cc2C1

>  <score_type>  (6) 
oracle

>  <origin>  (6) 
adgpu

>  <m_score__min__energy>  (6) 
-11.59

>  <m_primary>  (6) 
energy

$$$$
6:0
     RDKit          3D

 42 45  0  0  0  0  0  0  0  0999 V2000
   -0.6830   21.9120  -31.8900 F   0  0  0  0  0  0  0  0  0  0  0  0
   -1.9250   21.3840  -32.0260 C   0  0  0  0  0  0  0  0  0  0  0  0
   -2.3440   20.9210  -33.2740 C   0  0  0  0  0  0  0  0  0  0  0  0
   -3.6180   20.3700  -33.4280 C   0  0  0  0  0  0  0  0  0  0  0  0
   -4.4940   20.2820  -32.3330 C   0  0  0  0  0  0  0  0  0  0  0  0
   -5.8090   19.7040  -32.4910 N   0  0  0  0  0  0  0  0  0  0  0  0
   -6.0860   18.7500  -33.5710 C   0  0  0  0  0  0  0  0  0  0  0  0
   -7.2130   17.7950  -33.1560 C   0  0  0  0  0  0  0  0  0  0  0  0
   -8.4420   18.4860  -32.7130 N   0  0  0  0  0  0  0  0  0  0  0  0
   -8.2580   19.8930  -32.3120 C   0  0  0  0  0  0  0  0  0  0  0  0
   -6.9130   20.1250  -31.6180 C   0  0  0  0  0  0  0  0  0  0  0  0
   -4.0640   20.7510  -31.0780 C   0  0  0  0  0  0  0  0  0  0  0  0
   -2.7750   21.2980  -30.9160 C   0  0  0  0  0  0  0  0  0  0  0  0
   -2.3000   21.7610  -29.6780 O   0  0  0  0  0  0  0  0  0  0  0  0
   -2.4040   23.1030  -29.2030 C   0  0  0  0  0  0  0  0  0  0  0  0
   -3.5730   23.7990  -29.8250 C   0  0  0  0  0  0  0  0  0  0  0  0
   -4.8380   23.3370  -29.7800 N   0  0  0  0  0  0  0  0  0  0  0  0
   -5.4920   24.3100  -30.4480 C   0  0  0  0  0  0  0  0  0  0  0  0
   -6.9580   24.2720  -30.7420 C   0  0  0  0  0  0  0  0  0  0  0  0
   -7.3500   23.3660  -31.9010 C   0  0  0  0  0  0  0  0  0  0  0  0
   -7.6210   22.9310  -30.4700 C   0  0  0  0  0  0  0  0  0  0  0  0
   -4.6740   25.2910  -30.8750 N   0  0  0  0  0  0  0  0  0  0  0  0
   -3.4950   24.9400  -30.4630 O   0  0  0  0  0  0  0  0  0  0  0  0
   -1.6685   20.9903  -34.1394 H   0  0  0  0  0  0  0  0  0  0  0  0
   -3.9381   20.0021  -34.4140 H   0  0  0  0  0  0  0  0  0  0  0  0
   -6.3898   19.3006  -34.4735 H   0  0  0  0  0  0  0  0  0  0  0  0
   -5.1770   18.1657  -33.7767 H   0  0  0  0  0  0  0  0  0  0  0  0
   -7.4635   17.1580  -34.0171 H   0  0  0  0  0  0  0  0  0  0  0  0
   -6.8433   17.2136  -32.2985 H   0  0  0  0  0  0  0  0  0  0  0  0
   -9.1390   18.4650  -33.4930 H   0  0  0  0  0  0  0  0  0  0  0  0
   -8.3074   20.5267  -33.2098 H   0  0  0  0  0  0  0  0  0  0  0  0
   -9.0550   20.1478  -31.5980 H   0  0  0  0  0  0  0  0  0  0  0  0
   -6.8043   21.1947  -31.3859 H   0  0  0  0  0  0  0  0  0  0  0  0
   -6.8819   19.5330  -30.6914 H   0  0  0  0  0  0  0  0  0  0  0  0
   -4.7414   20.6901  -30.2135 H   0  0  0  0  0  0  0  0  0  0  0  0
   -2.5320   23.0897  -28.1106 H   0  0  0  0  0  0  0  0  0  0  0  0
   -1.4862   23.6448  -29.4751 H   0  0  0  0  0  0  0  0  0  0  0  0
   -7.1642   25.3162  -30.4645 H   0  0  0  0  0  0  0  0  0  0  0  0
   -8.1863   23.6450  -32.5589 H   0  0  0  0  0  0  0  0  0  0  0  0
   -6.8203   22.9285  -32.7601 H   0  0  0  0  0  0  0  0  0  0  0  0
   -8.6536   22.8948  -30.0926 H   0  0  0  0  0  0  0  0  0  0  0  0
   -7.3686   22.0476  -29.8651 H   0  0  0  0  0  0  0  0  0  0  0  0
  1  2  1  0
  2  3  2  0
  3  4  1  0
  4  5  2  0
  5  6  1  0
  6  7  1  0
  7  8  1  0
  8  9  1  0
  9 10  1  0
 10 11  1  0
  5 12  1  0
 12 13  2  0
 13 14  1  0
 14 15  1  0
 15 16  1  0
 16 17  2  0
 17 18  1  0
 18 19  1  0
 19 20  1  0
 20 21  1  0
 18 22  2  0
 22 23  1  0
 13  2  1  0
 23 16  1  0
 11  6  1  0
 21 19  1  0
  3 24  1  0
  4 25  1  0
  7 26  1  0
  7 27  1  0
  8 28  1  0
  8 29  1  0
  9 30  1  0
 10 31  1  0
 10 32  1  0
 11 33  1  0
 11 34  1  0
 12 35  1  0
 15 36  1  0
 15 37  1  0
 19 38  1  0
 20 39  1  0
 20 40  1  0
 21 41  1  0
 21 42  1  0
M  END
>  <UniqueID>  (7) 
7

>  <SMILES>  (7) 
Fc1ccc(N2CCNCC2)cc1OCc1nc(C2CC2)no1

>  <Energy>  (7) 
346.56851265122054

>  <Genealogy>  (7) 
Fc1ccc(N2CCNCC2)cc1OCc1nc(C2CC2)no1 (3D coordinates assigned)
Fc1ccc(N2CCNCC2)cc1OCc1nc(C2CC2)no1 (nonaromatic ring conformer: 346.56851265122054 kcal/mol)

>  <smiles>  (7) 
Fc1ccc(N2CCNCC2)cc1OCc1nc(C2CC2)no1

>  <score_type>  (7) 
oracle

>  <origin>  (7) 
adgpu

>  <m_score__min__energy>  (7) 
-8.6600000000000001

>  <m_primary>  (7) 
energy

$$$$
7:0
     RDKit          3D

 56 59  0  0  0  0  0  0  0  0999 V2000
   -4.2230   25.6460  -31.0650 O   0  0  0  0  0  0  0  0  0  0  0  0
   -4.5120   24.6090  -30.4080 C   0  0  0  0  0  0  0  0  0  0  0  0
   -3.9750   24.4230  -29.0910 N   0  0  0  0  0  0  0  0  0  0  0  0
   -2.6780   23.8900  -28.7870 C   0  0  0  0  0  0  0  0  0  0  0  0
   -2.5540   22.5070  -28.5980 C   0  0  0  0  0  0  0  0  0  0  0  0
   -1.3180   21.9390  -28.2570 C   0  0  0  0  0  0  0  0  0  0  0  0
   -1.2190   20.2010  -27.9660 S   0  0  0  0  0  0  0  0  0  0  0  0
    0.0480   19.9380  -27.1940 O   0  0  0  0  0  0  0  0  0  0  0  0
   -2.3940   19.7710  -27.1300 O   0  0  0  0  0  0  0  0  0  0  0  0
   -1.1900   19.3220  -29.4880 N   0  0  0  0  0  0  0  0  0  0  0  0
   -1.2990   20.2350  -30.6320 C   0  0  0  0  0  0  0  0  0  0  0  0
    0.1080   20.6550  -31.0190 C   0  0  0  0  0  0  0  0  0  0  0  0
    1.0020   19.5380  -30.5140 C   0  0  0  0  0  0  0  0  0  0  0  0
    0.1000   18.6410  -29.6720 C   0  0  0  0  0  0  0  0  0  0  0  0
   -0.1910   22.7650  -28.1360 C   0  0  0  0  0  0  0  0  0  0  0  0
   -0.3000   24.1400  -28.3640 C   0  0  0  0  0  0  0  0  0  0  0  0
   -1.5350   24.7050  -28.6980 C   0  0  0  0  0  0  0  0  0  0  0  0
   -1.6090   26.0670  -28.9690 O   0  0  0  0  0  0  0  0  0  0  0  0
   -5.4590   23.6150  -30.9650 C   0  0  0  0  0  0  0  0  0  0  0  0
   -6.8340   23.9020  -31.0280 C   0  0  0  0  0  0  0  0  0  0  0  0
   -7.7260   22.9830  -31.5830 C   0  0  0  0  0  0  0  0  0  0  0  0
   -7.2590   21.7660  -32.0940 C   0  0  0  0  0  0  0  0  0  0  0  0
   -8.1550   20.8670  -32.6760 O   0  0  0  0  0  0  0  0  0  0  0  0
   -5.8900   21.4540  -32.0240 C   0  0  0  0  0  0  0  0  0  0  0  0
   -5.2940   19.9310  -32.6870 S   0  0  0  0  0  0  0  0  0  0  0  0
   -5.7620   18.8170  -31.7870 O   0  0  0  0  0  0  0  0  0  0  0  0
   -5.8720   19.7150  -34.0610 O   0  0  0  0  0  0  0  0  0  0  0  0
   -3.5420   20.0040  -32.7450 N   0  0  0  0  0  0  0  0  0  0  0  0
   -2.9570   18.8420  -33.4100 C   0  0  0  0  0  0  0  0  0  0  0  0
   -1.5840   19.2760  -33.9060 C   0  0  0  0  0  0  0  0  0  0  0  0
   -1.6290   20.7980  -33.9250 C   0  0  0  0  0  0  0  0  0  0  0  0
   -3.0420   21.1570  -33.4950 C   0  0  0  0  0  0  0  0  0  0  0  0
   -4.9970   22.3810  -31.4600 C   0  0  0  0  0  0  0  0  0  0  0  0
   -3.4355   21.8601  -28.7184 H   0  0  0  0  0  0  0  0  0  0  0  0
   -1.7832   19.7224  -31.4763 H   0  0  0  0  0  0  0  0  0  0  0  0
   -1.9062   21.1137  -30.3689 H   0  0  0  0  0  0  0  0  0  0  0  0
    0.1950   20.7566  -32.1108 H   0  0  0  0  0  0  0  0  0  0  0  0
    0.3816   21.6302  -30.5900 H   0  0  0  0  0  0  0  0  0  0  0  0
    1.4253   18.9735  -31.3579 H   0  0  0  0  0  0  0  0  0  0  0  0
    1.8494   19.9267  -29.9303 H   0  0  0  0  0  0  0  0  0  0  0  0
   -0.0563   17.6821  -30.1878 H   0  0  0  0  0  0  0  0  0  0  0  0
    0.5669   18.4453  -28.6954 H   0  0  0  0  0  0  0  0  0  0  0  0
    0.7811   22.3299  -27.8610 H   0  0  0  0  0  0  0  0  0  0  0  0
    0.5902   24.7808  -28.2803 H   0  0  0  0  0  0  0  0  0  0  0  0
   -7.2099   24.8588  -30.6366 H   0  0  0  0  0  0  0  0  0  0  0  0
   -8.8005   23.2159  -31.6191 H   0  0  0  0  0  0  0  0  0  0  0  0
   -7.8320   20.0830  -33.2280 H   0  0  0  0  0  0  0  0  0  0  0  0
   -2.8587   18.0072  -32.7005 H   0  0  0  0  0  0  0  0  0  0  0  0
   -3.5903   18.4973  -34.2407 H   0  0  0  0  0  0  0  0  0  0  0  0
   -0.7976   18.9219  -33.2233 H   0  0  0  0  0  0  0  0  0  0  0  0
   -1.3545   18.8591  -34.8977 H   0  0  0  0  0  0  0  0  0  0  0  0
   -0.8934   21.2150  -33.2215 H   0  0  0  0  0  0  0  0  0  0  0  0
   -1.3836   21.2055  -34.9168 H   0  0  0  0  0  0  0  0  0  0  0  0
   -3.0310   22.0525  -32.8563 H   0  0  0  0  0  0  0  0  0  0  0  0
   -3.6815   21.3815  -34.3614 H   0  0  0  0  0  0  0  0  0  0  0  0
   -3.9252   22.1396  -31.4048 H   0  0  0  0  0  0  0  0  0  0  0  0
  1  2  2  0
  2  3  1  0
  3  4  1  0
  4  5  2  0
  5  6  1  0
  6  7  1  0
  7  8  2  0
  7  9  2  0
  7 10  1  0
 10 11  1  0
 11 12  1  0
 12 13  1  0
 13 14  1  0
  6 15  2  0
 15 16  1  0
 16 17  2  0
 17 18  1  0
  2 19  1  0
 19 20  2  0
 20 21  1  0
 21 22  2  0
 22 23  1  0
 22 24  1  0
 24 25  1  0
 25 26  2  0
 25 27  2  0
 25 28  1  0
 28 29  1  0
 29 30  1  0
 30 31  1  0
 31 32  1  0
 24 33  2  0
 17  4  1  0
 33 19  1  0
 14 10  1  0
 32 28  1  0
  5 34  1  0
 11 35  1  0
 11 36  1  0
 12 37  1  0
 12 38  1  0
 13 39  1  0
 13 40  1  0
 14 41  1  0
 14 42  1  0
 15 43  1  0
 16 44  1  0
 20 45  1  0
 21 46  1  0
 23 47  1  0
 29 48  1  0
 29 49  1  0
 30 50  1  0
 30 51  1  0
 31 52  1  0
 31 53  1  0
 32 54  1  0
 32 55  1  0
 33 56  1  0
M  CHG  2   3  -1  18  -1
M  END
>  <UniqueID>  (8) 
8

>  <SMILES>  (8) 
O=C([N-]c1cc(S(=O)(=O)N2CCCC2)ccc1[O-])c1ccc(O)c(S(=O)(=O)N2CCCC2)c1

>  <Energy>  (8) 
72.6006688245704

>  <Genealogy>  (8) 
O=C([N-]c1cc(S(=O)(=O)N2CCCC2)ccc1[O-])c1ccc(O)c(S(=O)(=O)N2CCCC2)c1 (protonated)
O=C([N-]c1cc(S(=O)(=O)N2CCCC2)ccc1[O-])c1ccc(O)c(S(=O)(=O)N2CCCC2)c1 (3D coordinates assigned)
O=C([N-]c1cc(S(=O)(=O)N2CCCC2)ccc1[O-])c1ccc(O)c(S(=O)(=O)N2CCCC2)c1 (nonaromatic ring conformer: 72.6006688245704 kcal/mol)

>  <smiles>  (8) 
O=C(Nc1cc(S(=O)(=O)N2CCCC2)ccc1O)c1ccc(O)c(S(=O)(=O)N2CCCC2)c1

>  <score_type>  (8) 
oracle

>  <origin>  (8) 
adgpu

>  <m_score__min__energy>  (8) 
-14.19

>  <m_primary>  (8) 
energy

$$$$
8:0
     RDKit          3D

 49 51  0  0  0  0  0  0  0  0999 V2000
   -7.2540   18.2770  -32.6560 C   0  0  0  0  0  0  0  0  0  0  0  0
   -6.5430   19.3490  -33.2660 O   0  0  0  0  0  0  0  0  0  0  0  0
   -6.4420   20.6400  -32.7260 C   0  0  0  0  0  0  0  0  0  0  0  0
   -7.5580   21.1790  -32.0770 C   0  0  0  0  0  0  0  0  0  0  0  0
   -7.5080   22.4630  -31.5260 C   0  0  0  0  0  0  0  0  0  0  0  0
   -6.3450   23.2360  -31.6320 C   0  0  0  0  0  0  0  0  0  0  0  0
   -6.3260   24.5410  -31.0380 N   0  0  0  0  0  0  0  0  0  0  0  0
   -5.1590   25.3040  -30.7150 C   0  0  0  0  0  0  0  0  0  0  0  0
   -5.2800   26.5380  -30.4960 O   0  0  0  0  0  0  0  0  0  0  0  0
   -3.8620   24.6970  -30.7540 N   0  0  0  0  0  0  0  0  0  0  0  0
   -3.2610   23.8890  -29.7290 C   0  0  0  0  0  0  0  0  0  0  0  0
   -3.7150   22.5910  -29.4590 C   0  0  0  0  0  0  0  0  0  0  0  0
   -3.1020   21.8230  -28.4720 C   0  0  0  0  0  0  0  0  0  0  0  0
   -2.0170   22.3280  -27.7390 C   0  0  0  0  0  0  0  0  0  0  0  0
   -1.3870   21.4410  -26.6950 C   0  0  0  0  0  0  0  0  0  0  0  0
   -1.5110   23.6200  -28.0390 C   0  0  0  0  0  0  0  0  0  0  0  0
   -0.0930   24.2640  -27.1750 S   0  0  0  0  0  0  0  0  0  0  0  0
    0.6530   23.1740  -26.4560 O   0  0  0  0  0  0  0  0  0  0  0  0
    0.8340   24.8890  -28.1810 O   0  0  0  0  0  0  0  0  0  0  0  0
   -0.6020   25.4630  -26.0140 N   0  0  0  0  0  0  0  0  0  0  0  0
   -0.0970   25.1170  -24.6760 C   0  0  0  0  0  0  0  0  0  0  0  0
   -0.4050   26.2460  -23.6720 C   0  0  0  0  0  0  0  0  0  0  0  0
   -1.1870   27.2670  -24.2610 O   0  0  0  0  0  0  0  0  0  0  0  0
   -0.4820   27.8430  -25.3440 C   0  0  0  0  0  0  0  0  0  0  0  0
   -0.1130   26.7910  -26.4130 C   0  0  0  0  0  0  0  0  0  0  0  0
   -2.1530   24.3920  -29.0350 C   0  0  0  0  0  0  0  0  0  0  0  0
   -1.7030   25.6720  -29.3420 O   0  0  0  0  0  0  0  0  0  0  0  0
   -5.2130   22.6880  -32.2610 C   0  0  0  0  0  0  0  0  0  0  0  0
   -5.2630   21.4040  -32.8110 C   0  0  0  0  0  0  0  0  0  0  0  0
   -7.1915   18.3712  -31.5618 H   0  0  0  0  0  0  0  0  0  0  0  0
   -8.3084   18.3122  -32.9674 H   0  0  0  0  0  0  0  0  0  0  0  0
   -6.8114   17.3193  -32.9674 H   0  0  0  0  0  0  0  0  0  0  0  0
   -8.4824   20.5878  -31.9996 H   0  0  0  0  0  0  0  0  0  0  0  0
   -8.3881   22.8688  -31.0057 H   0  0  0  0  0  0  0  0  0  0  0  0
   -4.5595   22.1768  -30.0293 H   0  0  0  0  0  0  0  0  0  0  0  0
   -3.4728   20.8084  -28.2645 H   0  0  0  0  0  0  0  0  0  0  0  0
   -1.6496   21.8107  -25.6928 H   0  0  0  0  0  0  0  0  0  0  0  0
   -1.7581   20.4125  -26.8153 H   0  0  0  0  0  0  0  0  0  0  0  0
   -0.2937   21.4527  -26.8153 H   0  0  0  0  0  0  0  0  0  0  0  0
   -0.5799   24.1890  -24.3360 H   0  0  0  0  0  0  0  0  0  0  0  0
    0.9929   24.9797  -24.7325 H   0  0  0  0  0  0  0  0  0  0  0  0
   -0.9540   25.8239  -22.8174 H   0  0  0  0  0  0  0  0  0  0  0  0
    0.5487   26.6871  -23.3468 H   0  0  0  0  0  0  0  0  0  0  0  0
   -1.1120   28.6162  -25.8080 H   0  0  0  0  0  0  0  0  0  0  0  0
    0.4511   28.2751  -24.9533 H   0  0  0  0  0  0  0  0  0  0  0  0
   -0.5711   27.0729  -27.3725 H   0  0  0  0  0  0  0  0  0  0  0  0
    0.9817   26.7531  -26.5140 H   0  0  0  0  0  0  0  0  0  0  0  0
   -4.2833   23.2729  -32.3205 H   0  0  0  0  0  0  0  0  0  0  0  0
   -4.3766   20.9886  -33.3127 H   0  0  0  0  0  0  0  0  0  0  0  0
  1  2  1  0
  2  3  1  0
  3  4  2  0
  4  5  1  0
  5  6  2  0
  6  7  1  0
  7  8  1  0
  8  9  2  0
  8 10  1  0
 10 11  1  0
 11 12  2  0
 12 13  1  0
 13 14  2  0
 14 15  1  0
 14 16  1  0
 16 17  1  0
 17 18  2  0
 17 19  2  0
 17 20  1  0
 20 21  1  0
 21 22  1  0
 22 23  1  0
 23 24  1  0
 24 25  1  0
 16 26  2  0
 26 27  1  0
  6 28  1  0
 28 29  2  0
 29  3  1  0
 26 11  1  0
 25 20  1  0
  1 30  1  0
  1 31  1  0
  1 32  1  0
  4 33  1  0
  5 34  1  0
 12 35  1  0
 13 36  1  0
 15 37  1  0
 15 38  1  0
 15 39  1  0
 21 40  1  0
 21 41  1  0
 22 42  1  0
 22 43  1  0
 24 44  1  0
 24 45  1  0
 25 46  1  0
 25 47  1  0
 28 48  1  0
 29 49  1  0
M  CHG  3   7  -1  10  -1  27  -1
M  END
>  <UniqueID>  (9) 
9

>  <SMILES>  (9) 
COc1ccc([N-]C(=O)[N-]c2ccc(C)c(S(=O)(=O)N3CCOCC3)c2[O-])cc1

>  <Energy>  (9) 
66.82470135794794

>  <Genealogy>  (9) 
COc1ccc([N-]C(=O)[N-]c2ccc(C)c(S(=O)(=O)N3CCOCC3)c2[O-])cc1 (protonated)
COc1ccc([N-]C(=O)[N-]c2ccc(C)c(S(=O)(=O)N3CCOCC3)c2[O-])cc1 (3D coordinates assigned)
COc1ccc([N-]C(=O)[N-]c2ccc(C)c(S(=O)(=O)N3CCOCC3)c2[O-])cc1 (nonaromatic ring conformer: 66.82470135794794 kcal/mol)

>  <smiles>  (9) 
COc1ccc(NC(=O)Nc2ccc(C)c(S(=O)(=O)N3CCOCC3)c2O)cc1

>  <score_type>  (9) 
oracle

>  <origin>  (9) 
adgpu

>  <m_score__min__energy>  (9) 
-14.68

>  <m_primary>  (9) 
energy

$$$$
9:0
     RDKit          3D

 48 51  0  0  0  0  0  0  0  0999 V2000
   -9.0940   21.6340  -32.0600 C   0  0  0  0  0  0  0  0  0  0  0  0
   -7.6270   21.9390  -32.0630 C   0  0  0  0  0  0  0  0  0  0  0  0
   -7.1900   23.0500  -31.4100 N   0  0  0  0  0  0  0  0  0  0  0  0
   -5.8780   23.3990  -31.3650 C   0  0  0  0  0  0  0  0  0  0  0  0
   -5.3940   24.8500  -30.5040 S   0  0  0  0  0  0  0  0  0  0  0  0
   -5.9550   24.7930  -29.1100 O   0  0  0  0  0  0  0  0  0  0  0  0
   -5.9250   26.0540  -31.2290 O   0  0  0  0  0  0  0  0  0  0  0  0
   -3.6610   24.9190  -30.4520 N   0  0  0  0  0  0  0  0  0  0  0  0
   -2.7780   24.2580  -29.5320 C   0  0  0  0  0  0  0  0  0  0  0  0
   -3.0920   22.9420  -29.1720 C   0  0  0  0  0  0  0  0  0  0  0  0
   -2.2930   22.2250  -28.2690 C   0  0  0  0  0  0  0  0  0  0  0  0
   -1.1310   22.8210  -27.7460 C   0  0  0  0  0  0  0  0  0  0  0  0
   -0.8130   24.1380  -28.1000 C   0  0  0  0  0  0  0  0  0  0  0  0
   -1.6170   24.8560  -28.9910 C   0  0  0  0  0  0  0  0  0  0  0  0
   -1.2330   26.1470  -29.3280 O   0  0  0  0  0  0  0  0  0  0  0  0
   -0.2720   22.0970  -26.7330 C   0  0  0  0  0  0  0  0  0  0  0  0
   -0.4440   20.6320  -26.7720 N   0  0  0  0  0  0  0  0  0  0  0  0
    0.2800   20.0210  -27.9000 C   0  0  0  0  0  0  0  0  0  0  0  0
   -1.8710   20.2560  -26.7420 C   0  0  0  0  0  0  0  0  0  0  0  0
   -2.6470   20.7960  -27.9520 C   0  0  0  0  0  0  0  0  0  0  0  0
   -4.9230   22.6050  -32.0030 C   0  0  0  0  0  0  0  0  0  0  0  0
   -5.3270   21.4470  -32.6760 C   0  0  0  0  0  0  0  0  0  0  0  0
   -6.6940   21.1080  -32.7230 C   0  0  0  0  0  0  0  0  0  0  0  0
   -7.1050   19.9220  -33.4280 N   0  0  0  0  0  0  0  0  0  0  0  0
   -6.1320   18.9720  -33.8750 C   0  0  0  0  0  0  0  0  0  0  0  0
   -6.4940   17.9620  -34.5340 O   0  0  0  0  0  0  0  0  0  0  0  0
   -4.6930   19.1450  -33.4910 C   0  0  0  0  0  0  0  0  0  0  0  0
   -4.3190   20.6320  -33.4500 C   0  0  0  0  0  0  0  0  0  0  0  0
   -9.4510   21.5598  -31.0222 H   0  0  0  0  0  0  0  0  0  0  0  0
   -9.6368   22.4385  -32.5778 H   0  0  0  0  0  0  0  0  0  0  0  0
   -9.2712   20.6798  -32.5778 H   0  0  0  0  0  0  0  0  0  0  0  0
   -3.9816   22.4614  -29.6052 H   0  0  0  0  0  0  0  0  0  0  0  0
    0.0812   24.6142  -27.6715 H   0  0  0  0  0  0  0  0  0  0  0  0
    0.7832   22.3314  -26.9370 H   0  0  0  0  0  0  0  0  0  0  0  0
   -0.5833   22.4380  -25.7346 H   0  0  0  0  0  0  0  0  0  0  0  0
    1.0671   19.3567  -27.5138 H   0  0  0  0  0  0  0  0  0  0  0  0
   -0.4225   19.4386  -28.5143 H   0  0  0  0  0  0  0  0  0  0  0  0
    0.7360   20.8114  -28.5143 H   0  0  0  0  0  0  0  0  0  0  0  0
   -1.9466   19.1586  -26.7356 H   0  0  0  0  0  0  0  0  0  0  0  0
   -2.3139   20.6972  -25.8369 H   0  0  0  0  0  0  0  0  0  0  0  0
   -2.4152   20.1719  -28.8277 H   0  0  0  0  0  0  0  0  0  0  0  0
   -3.7186   20.7623  -27.7058 H   0  0  0  0  0  0  0  0  0  0  0  0
   -3.8604   22.8880  -31.9766 H   0  0  0  0  0  0  0  0  0  0  0  0
   -8.1130   19.7330  -33.6230 H   0  0  0  0  0  0  0  0  0  0  0  0
   -4.5287   18.7036  -32.4969 H   0  0  0  0  0  0  0  0  0  0  0  0
   -4.0637   18.6421  -34.2400 H   0  0  0  0  0  0  0  0  0  0  0  0
   -3.3342   20.7375  -32.9715 H   0  0  0  0  0  0  0  0  0  0  0  0
   -4.3008   21.0067  -34.4841 H   0  0  0  0  0  0  0  0  0  0  0  0
  1  2  1  0
  2  3  2  0
  3  4  1  0
  4  5  1  0
  5  6  2  0
  5  7  2  0
  5  8  1  0
  8  9  1  0
  9 10  2  0
 10 11  1  0
 11 12  2  0
 12 13  1  0
 13 14  2  0
 14 15  1  0
 12 16  1  0
 16 17  1  0
 17 18  1  0
 17 19  1  0
 19 20  1  0
  4 21  2  0
 21 22  1  0
 22 23  2  0
 23 24  1  0
 24 25  1  0
 25 26  2  0
 25 27  1  0
 27 28  1  0
 23  2  1  0
 14  9  1  0
 28 22  1  0
 20 11  1  0
  1 29  1  0
  1 30  1  0
  1 31  1  0
 10 32  1  0
 13 33  1  0
 16 34  1  0
 16 35  1  0
 18 36  1  0
 18 37  1  0
 18 38  1  0
 19 39  1  0
 19 40  1  0
 20 41  1  0
 20 42  1  0
 21 43  1  0
 24 44  1  0
 27 45  1  0
 27 46  1  0
 28 47  1  0
 28 48  1  0
M  CHG  2   8  -1  15  -1
M  END
>  <UniqueID>  (10) 
10

>  <SMILES>  (10) 
Cc1nc(S(=O)(=O)[N-]c2cc3c(cc2[O-])CN(C)CC3)cc2c1NC(=O)CC2

>  <Energy>  (10) 
63.76456269081747

>  <Genealogy>  (10) 
Cc1nc(S(=O)(=O)[N-]c2cc3c(cc2[O-])CN(C)CC3)cc2c1NC(=O)CC2 (protonated)
Cc1nc(S(=O)(=O)[N-]c2cc3c(cc2[O-])CN(C)CC3)cc2c1NC(=O)CC2 (3D coordinates assigned)
Cc1nc(S(=O)(=O)[N-]c2cc3c(cc2[O-])CN(C)CC3)cc2c1NC(=O)CC2 (nonaromatic ring conformer: 63.76456269081747 kcal/mol)

>  <smiles>  (10) 
Cc1nc(S(=O)(=O)Nc2cc3c(cc2O)CN(C)CC3)cc2c1NC(=O)CC2

>  <score_type>  (10) 
oracle

>  <origin>  (10) 
adgpu

>  <m_score__min__energy>  (10) 
-14.82

>  <m_primary>  (10) 
energy

$$$$
10:0
     RDKit          3D

 71 75  0  0  0  0  0  0  0  0999 V2000
    1.0450   19.6390  -33.6410 C   0  0  0  0  0  0  0  0  0  0  0  0
    0.2440   20.0270  -32.4270 C   0  0  0  0  0  0  0  0  0  0  0  0
   -0.1000   21.3770  -32.2320 C   0  0  0  0  0  0  0  0  0  0  0  0
   -0.8180   21.7700  -31.1000 C   0  0  0  0  0  0  0  0  0  0  0  0
   -1.2020   20.8230  -30.1450 C   0  0  0  0  0  0  0  0  0  0  0  0
   -2.1670   21.2910  -28.7500 S   0  0  0  0  0  0  0  0  0  0  0  0
   -3.6150   21.2560  -29.1510 O   0  0  0  0  0  0  0  0  0  0  0  0
   -1.9510   20.3220  -27.6230 O   0  0  0  0  0  0  0  0  0  0  0  0
   -1.7050   22.9100  -28.2100 C   0  0  0  0  0  0  0  0  0  0  0  0
   -1.0300   23.0520  -26.9790 C   0  0  0  0  0  0  0  0  0  0  0  0
   -0.6740   24.3310  -26.5670 C   0  0  0  0  0  0  0  0  0  0  0  0
   -0.9770   25.4400  -27.3090 C   0  0  0  0  0  0  0  0  0  0  0  0
   -1.6490   25.3460  -28.5270 C   0  0  0  0  0  0  0  0  0  0  0  0
   -2.0060   24.0610  -28.9950 C   0  0  0  0  0  0  0  0  0  0  0  0
   -2.6940   23.8950  -30.2430 N   0  0  0  0  0  0  0  0  0  0  0  0
   -4.4110   23.8010  -30.4710 S   0  0  0  0  0  0  0  0  0  0  0  0
   -4.9450   25.0120  -31.1840 O   0  0  0  0  0  0  0  0  0  0  0  0
   -5.0890   23.6920  -29.1350 O   0  0  0  0  0  0  0  0  0  0  0  0
   -4.7580   22.3860  -31.4620 C   0  0  0  0  0  0  0  0  0  0  0  0
   -3.7320   21.7020  -32.1270 C   0  0  0  0  0  0  0  0  0  0  0  0
   -4.0300   20.5990  -32.9360 C   0  0  0  0  0  0  0  0  0  0  0  0
   -5.3560   20.1700  -33.0780 C   0  0  0  0  0  0  0  0  0  0  0  0
   -5.7400   18.8000  -34.1250 S   0  0  0  0  0  0  0  0  0  0  0  0
   -4.4520   18.1520  -34.5510 O   0  0  0  0  0  0  0  0  0  0  0  0
   -6.4470   19.2980  -35.3580 O   0  0  0  0  0  0  0  0  0  0  0  0
   -6.7390   17.6140  -33.3070 N   0  0  0  0  0  0  0  0  0  0  0  0
   -6.3210   17.4640  -31.9030 C   0  0  0  0  0  0  0  0  0  0  0  0
   -5.3520   16.2830  -31.8310 C   0  0  0  0  0  0  0  0  0  0  0  0
   -5.4480   15.5910  -33.1800 C   0  0  0  0  0  0  0  0  0  0  0  0
   -6.5950   16.2810  -33.9020 C   0  0  0  0  0  0  0  0  0  0  0  0
   -6.3810   20.8490  -32.4000 C   0  0  0  0  0  0  0  0  0  0  0  0
   -6.0820   21.9540  -31.6020 C   0  0  0  0  0  0  0  0  0  0  0  0
   -0.4940   26.5390  -26.6920 N   0  0  0  0  0  0  0  0  0  0  0  0
   -0.5040   27.9160  -27.1770 C   0  0  0  0  0  0  0  0  0  0  0  0
    0.1310   26.0500  -25.5910 C   0  0  0  0  0  0  0  0  0  0  0  0
    0.7680   26.7690  -24.7740 O   0  0  0  0  0  0  0  0  0  0  0  0
    0.0180   24.7020  -25.4700 N   0  0  0  0  0  0  0  0  0  0  0  0
    0.6430   23.8410  -24.4700 C   0  0  0  0  0  0  0  0  0  0  0  0
   -0.8620   19.4780  -30.3260 C   0  0  0  0  0  0  0  0  0  0  0  0
   -0.1330   19.0670  -31.4560 C   0  0  0  0  0  0  0  0  0  0  0  0
    0.2260   17.6150  -31.6070 C   0  0  0  0  0  0  0  0  0  0  0  0
    1.9928   19.1799  -33.3235 H   0  0  0  0  0  0  0  0  0  0  0  0
    0.4722   18.9185  -34.2433 H   0  0  0  0  0  0  0  0  0  0  0  0
    1.2553   20.5351  -34.2433 H   0  0  0  0  0  0  0  0  0  0  0  0
    0.1988   22.1292  -32.9769 H   0  0  0  0  0  0  0  0  0  0  0  0
   -1.0824   22.8284  -30.9591 H   0  0  0  0  0  0  0  0  0  0  0  0
   -0.7917   22.1734  -26.3615 H   0  0  0  0  0  0  0  0  0  0  0  0
   -1.8946   26.2473  -29.1078 H   0  0  0  0  0  0  0  0  0  0  0  0
   -2.6891   22.0326  -32.0131 H   0  0  0  0  0  0  0  0  0  0  0  0
   -3.2219   20.0685  -33.4609 H   0  0  0  0  0  0  0  0  0  0  0  0
   -7.7380   17.9280  -33.3560 H   0  0  0  0  0  0  0  0  0  0  0  0
   -5.8197   18.3815  -31.5611 H   0  0  0  0  0  0  0  0  0  0  0  0
   -7.1939   17.2866  -31.2576 H   0  0  0  0  0  0  0  0  0  0  0  0
   -4.3262   16.6386  -31.6543 H   0  0  0  0  0  0  0  0  0  0  0  0
   -5.6033   15.6008  -31.0055 H   0  0  0  0  0  0  0  0  0  0  0  0
   -4.5104   15.7110  -33.7426 H   0  0  0  0  0  0  0  0  0  0  0  0
   -5.6194   14.5095  -33.0757 H   0  0  0  0  0  0  0  0  0  0  0  0
   -6.3673   16.3691  -34.9746 H   0  0  0  0  0  0  0  0  0  0  0  0
   -7.5258   15.7038  -33.7999 H   0  0  0  0  0  0  0  0  0  0  0  0
   -7.4225   20.5090  -32.4981 H   0  0  0  0  0  0  0  0  0  0  0  0
   -6.8903   22.4878  -31.0807 H   0  0  0  0  0  0  0  0  0  0  0  0
   -0.5090   28.6063  -26.3206 H   0  0  0  0  0  0  0  0  0  0  0  0
    0.3929   28.0961  -27.7879 H   0  0  0  0  0  0  0  0  0  0  0  0
   -1.4034   28.0831  -27.7879 H   0  0  0  0  0  0  0  0  0  0  0  0
    0.3827   24.1996  -23.4632 H   0  0  0  0  0  0  0  0  0  0  0  0
    0.2817   22.8098  -24.5967 H   0  0  0  0  0  0  0  0  0  0  0  0
    1.7354   23.8650  -24.5967 H   0  0  0  0  0  0  0  0  0  0  0  0
   -1.1683   18.7338  -29.5761 H   0  0  0  0  0  0  0  0  0  0  0  0
    0.3386   17.1597  -30.6120 H   0  0  0  0  0  0  0  0  0  0  0  0
   -0.5708   17.0958  -32.1598 H   0  0  0  0  0  0  0  0  0  0  0  0
    1.1730   17.5270  -32.1598 H   0  0  0  0  0  0  0  0  0  0  0  0
  1  2  1  0
  2  3  2  0
  3  4  1  0
  4  5  2  0
  5  6  1  0
  6  7  2  0
  6  8  2  0
  6  9  1  0
  9 10  2  0
 10 11  1  0
 11 12  2  0
 12 13  1  0
 13 14  2  0
 14 15  1  0
 15 16  1  0
 16 17  2  0
 16 18  2  0
 16 19  1  0
 19 20  2  0
 20 21  1  0
 21 22  2  0
 22 23  1  0
 23 24  2  0
 23 25  2  0
 23 26  1  0
 26 27  1  0
 27 28  1  0
 28 29  1  0
 29 30  1  0
 22 31  1  0
 31 32  2  0
 12 33  1  0
 33 34  1  0
 33 35  1  0
 35 36  2  0
 35 37  1  0
 37 38  1  0
  5 39  1  0
 39 40  2  0
 40 41  1  0
 40  2  1  0
 14  9  1  0
 32 19  1  0
 37 11  1  0
 30 26  1  0
  1 42  1  0
  1 43  1  0
  1 44  1  0
  3 45  1  0
  4 46  1  0
 10 47  1  0
 13 48  1  0
 20 49  1  0
 21 50  1  0
 26 51  1  0
 27 52  1  0
 27 53  1  0
 28 54  1  0
 28 55  1  0
 29 56  1  0
 29 57  1  0
 30 58  1  0
 30 59  1  0
 31 60  1  0
 32 61  1  0
 34 62  1  0
 34 63  1  0
 34 64  1  0
 38 65  1  0
 38 66  1  0
 38 67  1  0
 39 68  1  0
 41 69  1  0
 41 70  1  0
 41 71  1  0
M  CHG  2  15  -1  26   1
M  END
>  <UniqueID>  (11) 
11

>  <SMILES>  (11) 
Cc1ccc(S(=O)(=O)c2cc3c(cc2[N-]S(=O)(=O)c2ccc(S(=O)(=O)[NH+]4CCCC4)cc2)n(C)c(=O)n3C)cc1C

>  <Energy>  (11) 
127.77225050942735

>  <Genealogy>  (11) 
Cc1ccc(S(=O)(=O)c2cc3c(cc2[N-]S(=O)(=O)c2ccc(S(=O)(=O)[NH+]4CCCC4)cc2)n(C)c(=O)n3C)cc1C (protonated)
Cc1ccc(S(=O)(=O)c2cc3c(cc2[N-]S(=O)(=O)c2ccc(S(=O)(=O)[NH+]4CCCC4)cc2)n(C)c(=O)n3C)cc1C (3D coordinates assigned)
Cc1ccc(S(=O)(=O)c2cc3c(cc2[N-]S(=O)(=O)c2ccc(S(=O)(=O)[NH+]4CCCC4)cc2)n(C)c(=O)n3C)cc1C (nonaromatic ring conformer: 127.77225050942735 kcal/mol)

>  <smiles>  (11) 
Cc1ccc(S(=O)(=O)c2cc3c(cc2NS(=O)(=O)c2ccc(S(=O)(=O)N4CCCC4)cc2)n(C)c(=O)n3C)cc1C

>  <score_type>  (11) 
oracle

>  <origin>  (11) 
adgpu

>  <m_score__min__energy>  (11) 
-12.93

>  <m_primary>  (11) 
energy

$$$$
11:0
     RDKit          3D

 44 46  0  0  0  0  0  0  0  0999 V2000
   -4.5380   13.3430  -32.8540 C   0  0  0  0  0  0  0  0  0  0  0  0
   -4.4490   14.4220  -33.8920 C   0  0  0  0  0  0  0  0  0  0  0  0
   -4.1500   14.0950  -35.0720 O   0  0  0  0  0  0  0  0  0  0  0  0
   -4.7030   15.8510  -33.5640 C   0  0  0  0  0  0  0  0  0  0  0  0
   -5.9940   16.2710  -33.1980 C   0  0  0  0  0  0  0  0  0  0  0  0
   -6.2500   17.6090  -32.8870 C   0  0  0  0  0  0  0  0  0  0  0  0
   -5.2200   18.5640  -32.9330 C   0  0  0  0  0  0  0  0  0  0  0  0
   -5.4830   19.9480  -32.6110 N   0  0  0  0  0  0  0  0  0  0  0  0
   -4.5090   20.7350  -31.8430 C   0  0  0  0  0  0  0  0  0  0  0  0
   -4.6550   22.2270  -32.1720 C   0  0  0  0  0  0  0  0  0  0  0  0
   -6.0320   22.7370  -31.9690 N   0  0  0  0  0  0  0  0  0  0  0  0
   -6.1740   23.6440  -30.4800 S   0  0  0  0  0  0  0  0  0  0  0  0
   -7.2370   23.0180  -29.6190 O   0  0  0  0  0  0  0  0  0  0  0  0
   -6.6070   25.0480  -30.7930 O   0  0  0  0  0  0  0  0  0  0  0  0
   -4.6490   23.6720  -29.5770 C   0  0  0  0  0  0  0  0  0  0  0  0
   -4.4050   22.6820  -28.6110 C   0  0  0  0  0  0  0  0  0  0  0  0
   -3.2020   22.6650  -27.9010 C   0  0  0  0  0  0  0  0  0  0  0  0
   -2.2330   23.6400  -28.1420 C   0  0  0  0  0  0  0  0  0  0  0  0
   -2.4680   24.6400  -29.0910 C   0  0  0  0  0  0  0  0  0  0  0  0
   -1.5000   25.6110  -29.3200 O   0  0  0  0  0  0  0  0  0  0  0  0
   -3.6720   24.6630  -29.8070 C   0  0  0  0  0  0  0  0  0  0  0  0
   -3.8880   25.6750  -30.7350 O   0  0  0  0  0  0  0  0  0  0  0  0
   -7.0970   21.7150  -32.0600 C   0  0  0  0  0  0  0  0  0  0  0  0
   -6.7370   20.5870  -33.0310 C   0  0  0  0  0  0  0  0  0  0  0  0
   -3.9280   18.1470  -33.2990 C   0  0  0  0  0  0  0  0  0  0  0  0
   -3.6720   16.8090  -33.6100 C   0  0  0  0  0  0  0  0  0  0  0  0
   -4.5008   13.7945  -31.8516 H   0  0  0  0  0  0  0  0  0  0  0  0
   -5.4844   12.7954  -32.9746 H   0  0  0  0  0  0  0  0  0  0  0  0
   -3.6942   12.6477  -32.9746 H   0  0  0  0  0  0  0  0  0  0  0  0
   -6.8125   15.5373  -33.1560 H   0  0  0  0  0  0  0  0  0  0  0  0
   -7.2671   17.9176  -32.6036 H   0  0  0  0  0  0  0  0  0  0  0  0
   -4.6845   20.5812  -30.7680 H   0  0  0  0  0  0  0  0  0  0  0  0
   -3.4933   20.4068  -32.1087 H   0  0  0  0  0  0  0  0  0  0  0  0
   -3.9721   22.7964  -31.5244 H   0  0  0  0  0  0  0  0  0  0  0  0
   -4.4135   22.3522  -33.2378 H   0  0  0  0  0  0  0  0  0  0  0  0
   -5.1671   21.9141  -28.4120 H   0  0  0  0  0  0  0  0  0  0  0  0
   -3.0182   21.8818  -27.1507 H   0  0  0  0  0  0  0  0  0  0  0  0
   -1.2843   23.6219  -27.5855 H   0  0  0  0  0  0  0  0  0  0  0  0
   -7.2600   21.2838  -31.0613 H   0  0  0  0  0  0  0  0  0  0  0  0
   -8.0053   22.2075  -32.4374 H   0  0  0  0  0  0  0  0  0  0  0  0
   -7.5436   19.8391  -33.0366 H   0  0  0  0  0  0  0  0  0  0  0  0
   -6.6106   21.0046  -34.0408 H   0  0  0  0  0  0  0  0  0  0  0  0
   -3.1104   18.8816  -33.3409 H   0  0  0  0  0  0  0  0  0  0  0  0
   -2.6548   16.5010  -33.8936 H   0  0  0  0  0  0  0  0  0  0  0  0
  1  2  1  0
  2  3  2  0
  2  4  1  0
  4  5  2  0
  5  6  1  0
  6  7  2  0
  7  8  1  0
  8  9  1  0
  9 10  1  0
 10 11  1  0
 11 12  1  0
 12 13  2  0
 12 14  2  0
 12 15  1  0
 15 16  2  0
 16 17  1  0
 17 18  2  0
 18 19  1  0
 19 20  1  0
 19 21  2  0
 21 22  1  0
 11 23  1  0
 23 24  1  0
  7 25  1  0
 25 26  2  0
 26  4  1  0
 24  8  1  0
 21 15  1  0
  1 27  1  0
  1 28  1  0
  1 29  1  0
  5 30  1  0
  6 31  1  0
  9 32  1  0
  9 33  1  0
 10 34  1  0
 10 35  1  0
 16 36  1  0
 17 37  1  0
 18 38  1  0
 23 39  1  0
 23 40  1  0
 24 41  1  0
 24 42  1  0
 25 43  1  0
 26 44  1  0
M  CHG  2  20  -1  22  -1
M  END
>  <UniqueID>  (12) 
12

>  <SMILES>  (12) 
CC(=O)c1ccc(N2CCN(S(=O)(=O)c3cccc([O-])c3[O-])CC2)cc1

>  <Energy>  (12) 
55.522143687792216

>  <Genealogy>  (12) 
CC(=O)c1ccc(N2CCN(S(=O)(=O)c3cccc([O-])c3[O-])CC2)cc1 (protonated)
CC(=O)c1ccc(N2CCN(S(=O)(=O)c3cccc([O-])c3[O-])CC2)cc1 (3D coordinates assigned)
CC(=O)c1ccc(N2CCN(S(=O)(=O)c3cccc([O-])c3[O-])CC2)cc1 (nonaromatic ring conformer: 55.522143687792216 kcal/mol)

>  <smiles>  (12) 
CC(=O)c1ccc(N2CCN(S(=O)(=O)c3cccc(O)c3O)CC2)cc1

>  <score_type>  (12) 
oracle

>  <origin>  (12) 
adgpu

>  <m_score__min__energy>  (12) 
-14.85

>  <m_primary>  (12) 
energy

$$$$
12:0
     RDKit          3D

 61 65  0  0  0  0  0  0  0  0999 V2000
    0.0682   21.4172  -35.8054 H   0  0  0  0  0  0  0  0  0  0  0  0
   -0.2240   20.7770  -34.9600 C   0  0  0  0  0  0  0  0  0  0  0  0
   -0.2520   19.3870  -35.1140 C   0  0  0  0  0  0  0  0  0  0  0  0
    0.0125   18.9399  -36.0836 H   0  0  0  0  0  0  0  0  0  0  0  0
   -0.6160   18.5560  -34.0380 C   0  0  0  0  0  0  0  0  0  0  0  0
   -0.7920   17.0990  -34.2450 C   0  0  0  0  0  0  0  0  0  0  0  0
    0.0250   16.4650  -34.9700 O   0  0  0  0  0  0  0  0  0  0  0  0
   -1.9490   16.4310  -33.7110 N   0  0  0  0  0  0  0  0  0  0  0  0
   -3.1340   16.9550  -33.6300 C   0  0  0  0  0  0  0  0  0  0  0  0
   -3.4100   18.2380  -33.9690 N   0  0  0  0  0  0  0  0  0  0  0  0
   -4.6940   18.5500  -33.6650 C   0  0  0  0  0  0  0  0  0  0  0  0
   -5.2560   19.8150  -33.8460 C   0  0  0  0  0  0  0  0  0  0  0  0
   -4.6804   20.6216  -34.3236 H   0  0  0  0  0  0  0  0  0  0  0  0
   -6.5710   20.0370  -33.4060 C   0  0  0  0  0  0  0  0  0  0  0  0
   -7.0291   21.0283  -33.5385 H   0  0  0  0  0  0  0  0  0  0  0  0
   -7.3130   18.9990  -32.7940 C   0  0  0  0  0  0  0  0  0  0  0  0
   -8.9190   19.3320  -32.1380 S   0  0  0  0  0  0  0  0  0  0  0  0
   -9.4030   18.1340  -31.3640 O   0  0  0  0  0  0  0  0  0  0  0  0
   -9.8750   19.5690  -33.2750 O   0  0  0  0  0  0  0  0  0  0  0  0
   -8.9000   20.7390  -31.0960 N   0  0  0  0  0  0  0  0  0  0  0  0
   -7.5070   21.1590  -30.8230 C   0  0  0  0  0  0  0  0  0  0  0  0
   -7.0820   20.5054  -30.0470 H   0  0  0  0  0  0  0  0  0  0  0  0
   -6.9328   21.0804  -31.7580 H   0  0  0  0  0  0  0  0  0  0  0  0
   -7.4440   22.6120  -30.3400 C   0  0  0  0  0  0  0  0  0  0  0  0
   -8.0803   22.7252  -29.4499 H   0  0  0  0  0  0  0  0  0  0  0  0
   -6.4007   22.8601  -30.0952 H   0  0  0  0  0  0  0  0  0  0  0  0
   -7.9370   23.5680  -31.4390 C   0  0  0  0  0  0  0  0  0  0  0  0
   -8.3628   24.4631  -30.9620 H   0  0  0  0  0  0  0  0  0  0  0  0
   -7.0744   23.8175  -32.0743 H   0  0  0  0  0  0  0  0  0  0  0  0
   -9.0110   22.9320  -32.3410 C   0  0  0  0  0  0  0  0  0  0  0  0
   -9.7222   23.7116  -32.6515 H   0  0  0  0  0  0  0  0  0  0  0  0
   -8.5065   22.4872  -33.2114 H   0  0  0  0  0  0  0  0  0  0  0  0
   -9.7810   21.8170  -31.6140 C   0  0  0  0  0  0  0  0  0  0  0  0
  -10.3239   22.2620  -30.7671 H   0  0  0  0  0  0  0  0  0  0  0  0
  -10.4618   21.3589  -32.3465 H   0  0  0  0  0  0  0  0  0  0  0  0
   -6.7420   17.7170  -32.6510 C   0  0  0  0  0  0  0  0  0  0  0  0
   -7.3153   16.8896  -32.2076 H   0  0  0  0  0  0  0  0  0  0  0  0
   -5.4310   17.5270  -33.0870 C   0  0  0  0  0  0  0  0  0  0  0  0
   -4.4610   16.1610  -32.9420 S   0  0  0  0  0  0  0  0  0  0  0  0
   -0.9100   19.1440  -32.7950 C   0  0  0  0  0  0  0  0  0  0  0  0
   -1.1431   18.5038  -31.9314 H   0  0  0  0  0  0  0  0  0  0  0  0
   -0.9090   20.5400  -32.6450 C   0  0  0  0  0  0  0  0  0  0  0  0
   -1.3420   21.2670  -31.0950 S   0  0  0  0  0  0  0  0  0  0  0  0
   -1.7460   20.1740  -30.1410 O   0  0  0  0  0  0  0  0  0  0  0  0
   -0.1360   21.9580  -30.5180 O   0  0  0  0  0  0  0  0  0  0  0  0
   -2.6390   22.4310  -31.2460 N   0  0  0  0  0  0  0  0  0  0  0  0
   -3.5940   22.0230  -32.2940 C   0  0  0  0  0  0  0  0  0  0  0  0
   -3.1272   22.1598  -33.2806 H   0  0  0  0  0  0  0  0  0  0  0  0
   -3.8580   20.9664  -32.1392 H   0  0  0  0  0  0  0  0  0  0  0  0
   -4.8810   22.8710  -32.2210 C   0  0  0  0  0  0  0  0  0  0  0  0
   -5.1921   23.1424  -33.2406 H   0  0  0  0  0  0  0  0  0  0  0  0
   -5.6649   22.2793  -31.7256 H   0  0  0  0  0  0  0  0  0  0  0  0
   -4.6640   24.0530  -31.4720 O   0  0  0  0  0  0  0  0  0  0  0  0
   -4.3980   23.7300  -30.1140 C   0  0  0  0  0  0  0  0  0  0  0  0
   -4.0399   24.6345  -29.6005 H   0  0  0  0  0  0  0  0  0  0  0  0
   -5.3328   23.3552  -29.6718 H   0  0  0  0  0  0  0  0  0  0  0  0
   -3.3330   22.6220  -29.9640 C   0  0  0  0  0  0  0  0  0  0  0  0
   -2.6050   22.9154  -29.1933 H   0  0  0  0  0  0  0  0  0  0  0  0
   -3.8218   21.6819  -29.6686 H   0  0  0  0  0  0  0  0  0  0  0  0
   -0.5660   21.3530  -33.7360 C   0  0  0  0  0  0  0  0  0  0  0  0
   -0.5667   22.4475  -33.6260 H   0  0  0  0  0  0  0  0  0  0  0  0
  1  2  1  0
  2  3  2  0
  3  4  1  0
  3  5  1  0
  5  6  1  0
  6  7  2  0
  6  8  1  0
  8  9  2  0
  9 10  1  0
 10 11  1  0
 11 12  2  0
 12 13  1  0
 12 14  1  0
 14 15  1  0
 14 16  2  0
 16 17  1  0
 17 18  2  0
 17 19  2  0
 17 20  1  0
 20 21  1  0
 21 22  1  0
 21 23  1  0
 21 24  1  0
 24 25  1  0
 24 26  1  0
 24 27  1  0
 27 28  1  0
 27 29  1  0
 27 30  1  0
 30 31  1  0
 30 32  1  0
 30 33  1  0
 33 34  1  0
 33 35  1  0
 16 36  1  0
 36 37  1  0
 36 38  2  0
 38 39  1  0
  5 40  2  0
 40 41  1  0
 40 42  1  0
 42 43  1  0
 43 44  2  0
 43 45  2  0
 43 46  1  0
 46 47  1  0
 47 48  1  0
 47 49  1  0
 47 50  1  0
 50 51  1  0
 50 52  1  0
 50 53  1  0
 53 54  1  0
 54 55  1  0
 54 56  1  0
 54 57  1  0
 57 58  1  0
 57 59  1  0
 42 60  2  0
 60 61  1  0
 60  2  1  0
 39  9  1  0
 57 46  1  0
 38 11  1  0
 33 20  1  0
M  CHG  1  10  -1
M  END
>  <UniqueID>  (13) 
13

>  <SMILES>  (13) 
O=C(/N=c1\[n-]c2ccc(S(=O)(=O)N3CCCCC3)cc2s1)c1cccc(S(=O)(=O)N2CCOCC2)c1

>  <Energy>  (13) 
117.19783065355638

>  <Genealogy>  (13) 
O=C(N=c1[n-]c2ccc(S(=O)(=O)N3CCCCC3)cc2s1)c1cccc(S(=O)(=O)N2CCOCC2)c1 (protonated)
O=C(/N=c1\[n-]c2ccc(S(=O)(=O)N3CCCCC3)cc2s1)c1cccc(S(=O)(=O)N2CCOCC2)c1 (cis-trans isomerization)
O=C(/N=c1\[n-]c2ccc(S(=O)(=O)N3CCCCC3)cc2s1)c1cccc(S(=O)(=O)N2CCOCC2)c1 (3D coordinates assigned)
O=C(/N=c1\[n-]c2ccc(S(=O)(=O)N3CCCCC3)cc2s1)c1cccc(S(=O)(=O)N2CCOCC2)c1 (nonaromatic ring conformer: 117.19783065355638 kcal/mol)

>  <smiles>  (13) 
O=C(N=c1[nH]c2ccc(S(=O)(=O)N3CCCCC3)cc2s1)c1cccc(S(=O)(=O)N2CCOCC2)c1

>  <score_type>  (13) 
oracle

>  <origin>  (13) 
adgpu

>  <m_score__min__energy>  (13) 
-12.24

>  <m_primary>  (13) 
energy

$$$$
13:0
     RDKit          3D

 45 48  0  0  0  0  0  0  0  0999 V2000
   -0.9010   21.4970  -24.4210 C   0  0  0  0  0  0  0  0  0  0  0  0
   -0.7410   21.1720  -25.8480 N   0  0  0  0  0  0  0  0  0  0  0  0
   -2.0100   20.6320  -26.4040 C   0  0  0  0  0  0  0  0  0  0  0  0
   -2.1290   20.8220  -27.9220 C   0  0  0  0  0  0  0  0  0  0  0  0
   -2.0000   22.2820  -28.2310 C   0  0  0  0  0  0  0  0  0  0  0  0
   -2.8060   22.9050  -29.1960 C   0  0  0  0  0  0  0  0  0  0  0  0
   -2.6790   24.2880  -29.4370 C   0  0  0  0  0  0  0  0  0  0  0  0
   -3.4950   24.9680  -30.4040 N   0  0  0  0  0  0  0  0  0  0  0  0
   -5.2300   24.9610  -30.4370 S   0  0  0  0  0  0  0  0  0  0  0  0
   -5.7200   26.1520  -31.2160 O   0  0  0  0  0  0  0  0  0  0  0  0
   -5.7520   25.0570  -29.0300 O   0  0  0  0  0  0  0  0  0  0  0  0
   -5.8070   23.4580  -31.1530 C   0  0  0  0  0  0  0  0  0  0  0  0
   -4.9100   22.6470  -31.8840 C   0  0  0  0  0  0  0  0  0  0  0  0
   -5.3440   21.4440  -32.4700 C   0  0  0  0  0  0  0  0  0  0  0  0
   -6.6820   21.0800  -32.3230 C   0  0  0  0  0  0  0  0  0  0  0  0
   -7.5600   21.8780  -31.6090 C   0  0  0  0  0  0  0  0  0  0  0  0
   -7.1540   23.0650  -31.0080 C   0  0  0  0  0  0  0  0  0  0  0  0
   -8.8580   21.2230  -31.6160 C   0  0  0  0  0  0  0  0  0  0  0  0
   -9.9190   21.6260  -31.0690 O   0  0  0  0  0  0  0  0  0  0  0  0
   -8.6700   19.9930  -32.3720 C   0  0  0  0  0  0  0  0  0  0  0  0
   -9.5510   19.1160  -32.5750 O   0  0  0  0  0  0  0  0  0  0  0  0
   -7.3230   19.9080  -32.8440 N   0  0  0  0  0  0  0  0  0  0  0  0
   -6.6550   18.6880  -33.2840 C   0  0  0  0  0  0  0  0  0  0  0  0
   -1.7220   25.0260  -28.7220 C   0  0  0  0  0  0  0  0  0  0  0  0
   -1.5800   26.3920  -28.9480 O   0  0  0  0  0  0  0  0  0  0  0  0
   -0.9010   24.3950  -27.7800 C   0  0  0  0  0  0  0  0  0  0  0  0
   -1.0460   23.0220  -27.5250 C   0  0  0  0  0  0  0  0  0  0  0  0
   -0.1060   22.2970  -26.5930 C   0  0  0  0  0  0  0  0  0  0  0  0
   -0.4969   20.6761  -23.8104 H   0  0  0  0  0  0  0  0  0  0  0  0
   -0.3571   22.4256  -24.1932 H   0  0  0  0  0  0  0  0  0  0  0  0
   -1.9686   21.6322  -24.1932 H   0  0  0  0  0  0  0  0  0  0  0  0
   -2.0607   19.5561  -26.1805 H   0  0  0  0  0  0  0  0  0  0  0  0
   -2.8364   21.1881  -25.9373 H   0  0  0  0  0  0  0  0  0  0  0  0
   -1.3287   20.2634  -28.4295 H   0  0  0  0  0  0  0  0  0  0  0  0
   -3.1019   20.4475  -28.2731 H   0  0  0  0  0  0  0  0  0  0  0  0
   -3.5380   22.3133  -29.7652 H   0  0  0  0  0  0  0  0  0  0  0  0
   -3.8613   22.9596  -31.9960 H   0  0  0  0  0  0  0  0  0  0  0  0
   -4.6449   20.8060  -33.0305 H   0  0  0  0  0  0  0  0  0  0  0  0
   -7.8637   23.6802  -30.4355 H   0  0  0  0  0  0  0  0  0  0  0  0
   -6.3369   18.1070  -32.4058 H   0  0  0  0  0  0  0  0  0  0  0  0
   -7.3500   18.0872  -33.8890 H   0  0  0  0  0  0  0  0  0  0  0  0
   -5.7744   18.9499  -33.8890 H   0  0  0  0  0  0  0  0  0  0  0  0
   -0.1404   24.9763  -27.2382 H   0  0  0  0  0  0  0  0  0  0  0  0
    0.7268   21.8925  -27.1870 H   0  0  0  0  0  0  0  0  0  0  0  0
    0.2266   23.0291  -25.8424 H   0  0  0  0  0  0  0  0  0  0  0  0
  1  2  1  0
  2  3  1  0
  3  4  1  0
  4  5  1  0
  5  6  2  0
  6  7  1  0
  7  8  1  0
  8  9  1  0
  9 10  2  0
  9 11  2  0
  9 12  1  0
 12 13  2  0
 13 14  1  0
 14 15  2  0
 15 16  1  0
 16 17  2  0
 16 18  1  0
 18 19  2  0
 18 20  1  0
 20 21  2  0
 20 22  1  0
 22 23  1  0
  7 24  2  0
 24 25  1  0
 24 26  1  0
 26 27  2  0
 27 28  1  0
 28  2  1  0
 27  5  1  0
 17 12  1  0
 22 15  1  0
  1 29  1  0
  1 30  1  0
  1 31  1  0
  3 32  1  0
  3 33  1  0
  4 34  1  0
  4 35  1  0
  6 36  1  0
 13 37  1  0
 14 38  1  0
 17 39  1  0
 23 40  1  0
 23 41  1  0
 23 42  1  0
 26 43  1  0
 28 44  1  0
 28 45  1  0
M  CHG  2   8  -1  25  -1
M  END
>  <UniqueID>  (14) 
14

>  <SMILES>  (14) 
CN1CCc2cc([N-]S(=O)(=O)c3ccc4c(c3)C(=O)C(=O)N4C)c([O-])cc2C1

>  <Energy>  (14) 
93.29594063343401

>  <Genealogy>  (14) 
CN1CCc2cc([N-]S(=O)(=O)c3ccc4c(c3)C(=O)C(=O)N4C)c([O-])cc2C1 (protonated)
CN1CCc2cc([N-]S(=O)(=O)c3ccc4c(c3)C(=O)C(=O)N4C)c([O-])cc2C1 (3D coordinates assigned)
CN1CCc2cc([N-]S(=O)(=O)c3ccc4c(c3)C(=O)C(=O)N4C)c([O-])cc2C1 (nonaromatic ring conformer: 93.29594063343401 kcal/mol)

>  <smiles>  (14) 
CN1CCc2cc(NS(=O)(=O)c3ccc4c(c3)C(=O)C(=O)N4C)c(O)cc2C1

>  <score_type>  (14) 
oracle

>  <origin>  (14) 
adgpu

>  <m_score__min__energy>  (14) 
-14.4

>  <m_primary>  (14) 
energy

$$$$
14:0
     RDKit          3D

 70 74  0  0  0  0  0  0  0  0999 V2000
   -3.2260   22.3000  -32.4880 O   0  0  0  0  0  0  0  0  0  0  0  0
   -2.8390   21.1940  -32.0360 C   0  0  0  0  0  0  0  0  0  0  0  0
   -1.9400   21.1420  -30.9210 N   0  0  0  0  0  0  0  0  0  0  0  0
   -1.6380   22.2710  -30.0870 C   0  0  0  0  0  0  0  0  0  0  0  0
   -2.5620   23.3150  -29.9070 C   0  0  0  0  0  0  0  0  0  0  0  0
   -2.2370   24.4130  -29.1020 C   0  0  0  0  0  0  0  0  0  0  0  0
   -0.9870   24.4820  -28.4720 C   0  0  0  0  0  0  0  0  0  0  0  0
   -0.5440   25.8920  -27.5040 S   0  0  0  0  0  0  0  0  0  0  0  0
   -0.8640   27.1460  -28.2770 O   0  0  0  0  0  0  0  0  0  0  0  0
    0.9410   25.8710  -27.2470 O   0  0  0  0  0  0  0  0  0  0  0  0
   -1.4150   25.9340  -25.9800 N   0  0  0  0  0  0  0  0  0  0  0  0
   -1.3050   27.2500  -25.3320 C   0  0  0  0  0  0  0  0  0  0  0  0
   -0.3160   27.1470  -24.1760 C   0  0  0  0  0  0  0  0  0  0  0  0
    0.0900   25.6900  -24.1010 C   0  0  0  0  0  0  0  0  0  0  0  0
   -0.8680   24.9580  -25.0290 C   0  0  0  0  0  0  0  0  0  0  0  0
   -0.0800   23.4290  -28.6300 C   0  0  0  0  0  0  0  0  0  0  0  0
   -0.4070   22.3270  -29.4230 C   0  0  0  0  0  0  0  0  0  0  0  0
   -3.2570   19.9530  -32.7070 C   0  0  0  0  0  0  0  0  0  0  0  0
   -4.5310   19.4330  -32.4380 C   0  0  0  0  0  0  0  0  0  0  0  0
   -4.9800   18.2740  -33.0860 C   0  0  0  0  0  0  0  0  0  0  0  0
   -6.5920   17.6390  -32.7550 S   0  0  0  0  0  0  0  0  0  0  0  0
   -6.8430   16.4410  -33.6300 O   0  0  0  0  0  0  0  0  0  0  0  0
   -6.6640   17.1910  -31.3210 O   0  0  0  0  0  0  0  0  0  0  0  0
   -7.8300   18.8380  -33.0500 N   0  0  0  0  0  0  0  0  0  0  0  0
   -7.2500   20.1280  -33.4810 C   0  0  0  0  0  0  0  0  0  0  0  0
   -7.3190   21.1930  -32.3710 C   0  0  0  0  0  0  0  0  0  0  0  0
   -8.6410   21.4500  -31.9250 O   0  0  0  0  0  0  0  0  0  0  0  0
   -9.4760   20.2950  -31.9120 C   0  0  0  0  0  0  0  0  0  0  0  0
   -8.7100   18.9630  -31.8730 C   0  0  0  0  0  0  0  0  0  0  0  0
   -4.1440   17.6310  -34.0080 C   0  0  0  0  0  0  0  0  0  0  0  0
   -2.8730   18.1390  -34.2810 C   0  0  0  0  0  0  0  0  0  0  0  0
   -2.4190   19.2990  -33.6370 C   0  0  0  0  0  0  0  0  0  0  0  0
   -1.0870   19.7710  -33.9040 N   0  0  0  0  0  0  0  0  0  0  0  0
   -0.0110   19.3980  -32.9800 C   0  0  0  0  0  0  0  0  0  0  0  0
    1.1950   20.3680  -33.0260 C   0  0  0  0  0  0  0  0  0  0  0  0
    0.9390   21.5430  -33.7750 O   0  0  0  0  0  0  0  0  0  0  0  0
    0.5490   21.1890  -35.0850 C   0  0  0  0  0  0  0  0  0  0  0  0
   -0.8750   20.6470  -35.0620 C   0  0  0  0  0  0  0  0  0  0  0  0
   -1.3570   20.2850  -30.8190 H   0  0  0  0  0  0  0  0  0  0  0  0
   -3.5440   23.2689  -30.4005 H   0  0  0  0  0  0  0  0  0  0  0  0
   -2.9658   25.2252  -28.9633 H   0  0  0  0  0  0  0  0  0  0  0  0
   -0.9463   27.9920  -26.0605 H   0  0  0  0  0  0  0  0  0  0  0  0
   -2.2893   27.5646  -24.9550 H   0  0  0  0  0  0  0  0  0  0  0  0
    0.5634   27.7792  -24.3682 H   0  0  0  0  0  0  0  0  0  0  0  0
   -0.7640   27.4890  -23.2314 H   0  0  0  0  0  0  0  0  0  0  0  0
    1.1285   25.5615  -24.4400 H   0  0  0  0  0  0  0  0  0  0  0  0
    0.0407   25.3030  -23.0725 H   0  0  0  0  0  0  0  0  0  0  0  0
   -0.3297   24.1681  -25.5733 H   0  0  0  0  0  0  0  0  0  0  0  0
   -1.6796   24.4930  -24.4501 H   0  0  0  0  0  0  0  0  0  0  0  0
    0.8971   23.4692  -28.1264 H   0  0  0  0  0  0  0  0  0  0  0  0
    0.3077   21.4973  -29.5266 H   0  0  0  0  0  0  0  0  0  0  0  0
   -5.1841   19.9392  -31.7119 H   0  0  0  0  0  0  0  0  0  0  0  0
   -6.1967   19.9694  -33.7556 H   0  0  0  0  0  0  0  0  0  0  0  0
   -7.8348   20.4932  -34.3381 H   0  0  0  0  0  0  0  0  0  0  0  0
   -6.7226   20.8449  -31.5148 H   0  0  0  0  0  0  0  0  0  0  0  0
   -6.9280   22.1307  -32.7927 H   0  0  0  0  0  0  0  0  0  0  0  0
  -10.1226   20.3470  -31.0237 H   0  0  0  0  0  0  0  0  0  0  0  0
  -10.0436   20.3052  -32.8542 H   0  0  0  0  0  0  0  0  0  0  0  0
   -8.0995   18.9232  -30.9588 H   0  0  0  0  0  0  0  0  0  0  0  0
   -9.4348   18.1356  -31.8815 H   0  0  0  0  0  0  0  0  0  0  0  0
   -4.4910   16.7211  -34.5194 H   0  0  0  0  0  0  0  0  0  0  0  0
   -2.2235   17.6263  -35.0057 H   0  0  0  0  0  0  0  0  0  0  0  0
   -0.4153   19.3908  -31.9570 H   0  0  0  0  0  0  0  0  0  0  0  0
    0.3545   18.4068  -33.2864 H   0  0  0  0  0  0  0  0  0  0  0  0
    1.4492   20.6586  -31.9960 H   0  0  0  0  0  0  0  0  0  0  0  0
    2.0214   19.8381  -33.5222 H   0  0  0  0  0  0  0  0  0  0  0  0
    0.5931   22.0766  -35.7332 H   0  0  0  0  0  0  0  0  0  0  0  0
    1.2290   20.4168  -35.4740 H   0  0  0  0  0  0  0  0  0  0  0  0
   -1.5797   21.4900  -35.0088 H   0  0  0  0  0  0  0  0  0  0  0  0
   -1.0415   20.0619  -35.9785 H   0  0  0  0  0  0  0  0  0  0  0  0
  1  2  2  0
  2  3  1  0
  3  4  1  0
  4  5  2  0
  5  6  1  0
  6  7  2  0
  7  8  1  0
  8  9  2  0
  8 10  2  0
  8 11  1  0
 11 12  1  0
 12 13  1  0
 13 14  1  0
 14 15  1  0
  7 16  1  0
 16 17  2  0
  2 18  1  0
 18 19  2  0
 19 20  1  0
 20 21  1  0
 21 22  2  0
 21 23  2  0
 21 24  1  0
 24 25  1  0
 25 26  1  0
 26 27  1  0
 27 28  1  0
 28 29  1  0
 20 30  2  0
 30 31  1  0
 31 32  2  0
 32 33  1  0
 33 34  1  0
 34 35  1  0
 35 36  1  0
 36 37  1  0
 37 38  1  0
 17  4  1  0
 32 18  1  0
 38 33  1  0
 15 11  1  0
 29 24  1  0
  3 39  1  0
  5 40  1  0
  6 41  1  0
 12 42  1  0
 12 43  1  0
 13 44  1  0
 13 45  1  0
 14 46  1  0
 14 47  1  0
 15 48  1  0
 15 49  1  0
 16 50  1  0
 17 51  1  0
 19 52  1  0
 25 53  1  0
 25 54  1  0
 26 55  1  0
 26 56  1  0
 28 57  1  0
 28 58  1  0
 29 59  1  0
 29 60  1  0
 30 61  1  0
 31 62  1  0
 34 63  1  0
 34 64  1  0
 35 65  1  0
 35 66  1  0
 37 67  1  0
 37 68  1  0
 38 69  1  0
 38 70  1  0
M  END
>  <UniqueID>  (15) 
15

>  <SMILES>  (15) 
O=C(Nc1ccc(S(=O)(=O)N2CCCC2)cc1)c1cc(S(=O)(=O)N2CCOCC2)ccc1N1CCOCC1

>  <Energy>  (15) 
103.71394654380389

>  <Genealogy>  (15) 
O=C(Nc1ccc(S(=O)(=O)N2CCCC2)cc1)c1cc(S(=O)(=O)N2CCOCC2)ccc1N1CCOCC1 (3D coordinates assigned)
O=C(Nc1ccc(S(=O)(=O)N2CCCC2)cc1)c1cc(S(=O)(=O)N2CCOCC2)ccc1N1CCOCC1 (nonaromatic ring conformer: 103.71394654380389 kcal/mol)

>  <smiles>  (15) 
O=C(Nc1ccc(S(=O)(=O)N2CCCC2)cc1)c1cc(S(=O)(=O)N2CCOCC2)ccc1N1CCOCC1

>  <score_type>  (15) 
oracle

>  <origin>  (15) 
adgpu

>  <m_score__min__energy>  (15) 
-10.42

>  <m_primary>  (15) 
energy

$$$$
15:0
     RDKit          3D

 57 60  0  0  0  0  0  0  0  0999 V2000
   -1.3795   17.1421  -26.8029 H   0  0  0  0  0  0  0  0  0  0  0  0
   -1.2830   18.2040  -27.0730 C   0  0  0  0  0  0  0  0  0  0  0  0
   -2.2650   19.1170  -26.6790 C   0  0  0  0  0  0  0  0  0  0  0  0
   -3.1321   18.7732  -26.0960 H   0  0  0  0  0  0  0  0  0  0  0  0
   -2.1470   20.4680  -27.0250 C   0  0  0  0  0  0  0  0  0  0  0  0
   -2.9193   21.1844  -26.7084 H   0  0  0  0  0  0  0  0  0  0  0  0
   -1.0460   20.9120  -27.7750 C   0  0  0  0  0  0  0  0  0  0  0  0
   -0.9360   22.3540  -28.2010 C   0  0  0  0  0  0  0  0  0  0  0  0
   -0.9418   22.4083  -29.2996 H   0  0  0  0  0  0  0  0  0  0  0  0
    0.0019   22.7711  -27.8055 H   0  0  0  0  0  0  0  0  0  0  0  0
   -2.0320   23.1130  -27.6870 O   0  0  0  0  0  0  0  0  0  0  0  0
   -3.1800   23.4510  -28.4230 C   0  0  0  0  0  0  0  0  0  0  0  0
   -4.3660   22.7020  -28.3320 C   0  0  0  0  0  0  0  0  0  0  0  0
   -4.4382   21.8791  -27.6056 H   0  0  0  0  0  0  0  0  0  0  0  0
   -5.4510   22.9950  -29.1560 C   0  0  0  0  0  0  0  0  0  0  0  0
   -6.3708   22.3962  -29.0834 H   0  0  0  0  0  0  0  0  0  0  0  0
   -5.3760   24.0480  -30.0760 C   0  0  0  0  0  0  0  0  0  0  0  0
   -6.4720   24.2510  -31.0920 C   0  0  0  0  0  0  0  0  0  0  0  0
   -6.0620   24.7755  -31.9676 H   0  0  0  0  0  0  0  0  0  0  0  0
   -7.2754   24.8481  -30.6359 H   0  0  0  0  0  0  0  0  0  0  0  0
   -7.0200   22.9620  -31.5150 N   0  0  0  0  0  0  0  0  0  0  0  0
   -6.3190   22.0020  -32.0490 C   0  0  0  0  0  0  0  0  0  0  0  0
   -5.0090   22.1460  -32.2290 O   0  0  0  0  0  0  0  0  0  0  0  0
   -4.2610   21.2190  -32.8120 C   0  0  0  0  0  0  0  0  0  0  0  0
   -3.0250   21.4260  -32.9530 O   0  0  0  0  0  0  0  0  0  0  0  0
   -4.8490   20.0280  -33.2660 C   0  0  0  0  0  0  0  0  0  0  0  0
   -4.1140   19.0210  -33.9130 C   0  0  0  0  0  0  0  0  0  0  0  0
   -3.0341   19.1504  -34.0774 H   0  0  0  0  0  0  0  0  0  0  0  0
   -4.7550   17.8460  -34.3520 C   0  0  0  0  0  0  0  0  0  0  0  0
   -4.0570   16.8190  -35.0080 O   0  0  0  0  0  0  0  0  0  0  0  0
   -2.6430   16.6500  -34.9690 C   0  0  0  0  0  0  0  0  0  0  0  0
   -2.3073   16.6099  -33.9223 H   0  0  0  0  0  0  0  0  0  0  0  0
   -2.3716   15.7130  -35.4773 H   0  0  0  0  0  0  0  0  0  0  0  0
   -2.1584   17.4966  -35.4773 H   0  0  0  0  0  0  0  0  0  0  0  0
   -6.1330   17.6810  -34.1370 C   0  0  0  0  0  0  0  0  0  0  0  0
   -6.7390   16.4970  -34.5840 O   0  0  0  0  0  0  0  0  0  0  0  0
   -6.3710   15.1890  -34.1560 C   0  0  0  0  0  0  0  0  0  0  0  0
   -6.3607   15.1523  -33.0567 H   0  0  0  0  0  0  0  0  0  0  0  0
   -7.0987   14.4591  -34.5404 H   0  0  0  0  0  0  0  0  0  0  0  0
   -5.3695   14.9456  -34.5404 H   0  0  0  0  0  0  0  0  0  0  0  0
   -6.8650   18.6940  -33.4890 C   0  0  0  0  0  0  0  0  0  0  0  0
   -7.9443   18.5644  -33.3204 H   0  0  0  0  0  0  0  0  0  0  0  0
   -6.2300   19.8660  -33.0570 C   0  0  0  0  0  0  0  0  0  0  0  0
   -6.9380   20.8560  -32.4450 N   0  0  0  0  0  0  0  0  0  0  0  0
   -7.9670   20.7500  -32.2950 H   0  0  0  0  0  0  0  0  0  0  0  0
   -4.2210   24.8430  -30.1210 C   0  0  0  0  0  0  0  0  0  0  0  0
   -4.1764   25.7024  -30.8061 H   0  0  0  0  0  0  0  0  0  0  0  0
   -3.1170   24.5490  -29.2950 C   0  0  0  0  0  0  0  0  0  0  0  0
   -1.9290   25.2990  -29.3390 O   0  0  0  0  0  0  0  0  0  0  0  0
   -1.2390   25.7800  -28.1910 C   0  0  0  0  0  0  0  0  0  0  0  0
   -1.7475   25.4255  -27.2823 H   0  0  0  0  0  0  0  0  0  0  0  0
   -0.2045   25.4063  -28.2017 H   0  0  0  0  0  0  0  0  0  0  0  0
   -1.2317   26.8799  -28.2017 H   0  0  0  0  0  0  0  0  0  0  0  0
   -0.0580   19.9890  -28.1580 C   0  0  0  0  0  0  0  0  0  0  0  0
    0.8150   20.3289  -28.7345 H   0  0  0  0  0  0  0  0  0  0  0  0
   -0.1800   18.6390  -27.8090 C   0  0  0  0  0  0  0  0  0  0  0  0
    0.5943   17.9202  -28.1152 H   0  0  0  0  0  0  0  0  0  0  0  0
  1  2  1  0
  2  3  2  0
  3  4  1  0
  3  5  1  0
  5  6  1  0
  5  7  2  0
  7  8  1  0
  8  9  1  0
  8 10  1  0
  8 11  1  0
 11 12  1  0
 12 13  2  0
 13 14  1  0
 13 15  1  0
 15 16  1  0
 15 17  2  0
 17 18  1  0
 18 19  1  0
 18 20  1  0
 18 21  1  0
 21 22  2  0
 22 23  1  0
 23 24  1  0
 24 25  2  0
 24 26  1  0
 26 27  2  0
 27 28  1  0
 27 29  1  0
 29 30  1  0
 30 31  1  0
 31 32  1  0
 31 33  1  0
 31 34  1  0
 29 35  2  0
 35 36  1  0
 36 37  1  0
 37 38  1  0
 37 39  1  0
 37 40  1  0
 35 41  1  0
 41 42  1  0
 41 43  2  0
 43 44  1  0
 44 45  1  0
 17 46  1  0
 46 47  1  0
 46 48  2  0
 48 49  1  0
 49 50  1  0
 50 51  1  0
 50 52  1  0
 50 53  1  0
  7 54  1  0
 54 55  1  0
 54 56  2  0
 56 57  1  0
 56  2  1  0
 48 12  1  0
 44 22  1  0
 43 26  1  0
M  END
>  <UniqueID>  (16) 
16

>  <SMILES>  (16) 
COc1cc2[nH]/c(=N/Cc3ccc(OCc4ccccc4)c(OC)c3)oc(=O)c2cc1OC

>  <Energy>  (16) 
62.51252543244677

>  <Genealogy>  (16) 
COc1cc2[nH]/c(=N/Cc3ccc(OCc4ccccc4)c(OC)c3)oc(=O)c2cc1OC (cis-trans isomerization)
COc1cc2[nH]/c(=N/Cc3ccc(OCc4ccccc4)c(OC)c3)oc(=O)c2cc1OC (3D coordinates assigned)
COc1cc2[nH]/c(=N/Cc3ccc(OCc4ccccc4)c(OC)c3)oc(=O)c2cc1OC (optimized conformer: 62.51252543244677 kcal/mol)

>  <smiles>  (16) 
COc1cc2[nH]c(=NCc3ccc(OCc4ccccc4)c(OC)c3)oc(=O)c2cc1OC

>  <score_type>  (16) 
oracle

>  <origin>  (16) 
adgpu

>  <m_score__min__energy>  (16) 
-8.6999999999999993

>  <m_primary>  (16) 
energy

$$$$
16:0
     RDKit          3D

 54 56  0  0  0  0  0  0  0  0999 V2000
   -7.8590   18.3640  -32.1160 C   0  0  0  0  0  0  0  0  0  0  0  0
   -6.3350   18.4500  -32.2200 C   0  0  0  0  0  0  0  0  0  0  0  0
   -5.7060   17.0560  -32.1620 C   0  0  0  0  0  0  0  0  0  0  0  0
   -5.8590   19.2870  -33.7360 S   0  0  0  0  0  0  0  0  0  0  0  0
   -5.7990   18.2580  -34.8330 O   0  0  0  0  0  0  0  0  0  0  0  0
   -6.8850   20.3130  -34.1230 O   0  0  0  0  0  0  0  0  0  0  0  0
   -4.2650   20.0440  -33.5450 C   0  0  0  0  0  0  0  0  0  0  0  0
   -3.1250   19.2360  -33.7070 C   0  0  0  0  0  0  0  0  0  0  0  0
   -1.8570   19.7120  -33.3650 C   0  0  0  0  0  0  0  0  0  0  0  0
   -1.7110   20.9910  -32.8360 C   0  0  0  0  0  0  0  0  0  0  0  0
   -2.8270   21.8150  -32.6880 C   0  0  0  0  0  0  0  0  0  0  0  0
   -4.1000   21.3780  -33.0810 C   0  0  0  0  0  0  0  0  0  0  0  0
   -5.1580   22.2900  -32.9450 O   0  0  0  0  0  0  0  0  0  0  0  0
   -5.9930   22.4460  -31.8250 C   0  0  0  0  0  0  0  0  0  0  0  0
   -6.9970   21.4850  -31.6410 C   0  0  0  0  0  0  0  0  0  0  0  0
   -7.9210   21.6050  -30.6040 C   0  0  0  0  0  0  0  0  0  0  0  0
   -7.8420   22.6780  -29.7200 C   0  0  0  0  0  0  0  0  0  0  0  0
   -6.8200   23.6190  -29.8530 C   0  0  0  0  0  0  0  0  0  0  0  0
   -5.8680   23.5040  -30.8830 C   0  0  0  0  0  0  0  0  0  0  0  0
   -4.7520   24.4680  -30.9040 C   0  0  0  0  0  0  0  0  0  0  0  0
   -4.9770   25.6690  -31.2110 O   0  0  0  0  0  0  0  0  0  0  0  0
   -3.4540   24.0650  -30.4500 N   0  0  0  0  0  0  0  0  0  0  0  0
   -3.1630   23.0750  -29.4530 C   0  0  0  0  0  0  0  0  0  0  0  0
   -3.4410   21.7330  -29.7430 C   0  0  0  0  0  0  0  0  0  0  0  0
   -3.1110   20.7260  -28.8310 C   0  0  0  0  0  0  0  0  0  0  0  0
   -2.4880   21.0510  -27.6190 C   0  0  0  0  0  0  0  0  0  0  0  0
   -2.0310   19.7810  -26.4900 S   0  0  0  0  0  0  0  0  0  0  0  0
   -0.7190   18.8110  -27.1970 C   0  0  0  0  0  0  0  0  0  0  0  0
   -1.5660   20.3930  -25.1970 O   0  0  0  0  0  0  0  0  0  0  0  0
   -3.2150   18.8990  -26.2070 O   0  0  0  0  0  0  0  0  0  0  0  0
   -2.1860   22.3880  -27.3330 C   0  0  0  0  0  0  0  0  0  0  0  0
   -2.5190   23.3960  -28.2440 C   0  0  0  0  0  0  0  0  0  0  0  0
   -8.1538   18.3474  -31.0564 H   0  0  0  0  0  0  0  0  0  0  0  0
   -8.3100   19.2381  -32.6084 H   0  0  0  0  0  0  0  0  0  0  0  0
   -8.2088   17.4447  -32.6084 H   0  0  0  0  0  0  0  0  0  0  0  0
   -5.9636   19.0314  -31.3633 H   0  0  0  0  0  0  0  0  0  0  0  0
   -5.5715   16.7579  -31.1118 H   0  0  0  0  0  0  0  0  0  0  0  0
   -6.3659   16.3347  -32.6663 H   0  0  0  0  0  0  0  0  0  0  0  0
   -4.7286   17.0735  -32.6663 H   0  0  0  0  0  0  0  0  0  0  0  0
   -3.2333   18.2173  -34.1077 H   0  0  0  0  0  0  0  0  0  0  0  0
   -0.9726   19.0750  -33.5140 H   0  0  0  0  0  0  0  0  0  0  0  0
   -0.7165   21.3519  -32.5348 H   0  0  0  0  0  0  0  0  0  0  0  0
   -2.7067   22.8201  -32.2576 H   0  0  0  0  0  0  0  0  0  0  0  0
   -7.0565   20.6248  -32.3240 H   0  0  0  0  0  0  0  0  0  0  0  0
   -8.7132   20.8514  -30.4840 H   0  0  0  0  0  0  0  0  0  0  0  0
   -8.5856   22.7840  -28.9164 H   0  0  0  0  0  0  0  0  0  0  0  0
   -6.7580   24.4591  -29.1456 H   0  0  0  0  0  0  0  0  0  0  0  0
   -3.9229   21.4693  -30.6960 H   0  0  0  0  0  0  0  0  0  0  0  0
   -3.3410   19.6762  -29.0656 H   0  0  0  0  0  0  0  0  0  0  0  0
   -0.1169   18.3659  -26.3912 H   0  0  0  0  0  0  0  0  0  0  0  0
   -1.1482   18.0114  -27.8186 H   0  0  0  0  0  0  0  0  0  0  0  0
   -0.0803   19.4558  -27.8186 H   0  0  0  0  0  0  0  0  0  0  0  0
   -1.6850   22.6467  -26.3885 H   0  0  0  0  0  0  0  0  0  0  0  0
   -2.2763   24.4440  -28.0141 H   0  0  0  0  0  0  0  0  0  0  0  0
  1  2  1  0
  2  3  1  0
  2  4  1  0
  4  5  2  0
  4  6  2  0
  4  7  1  0
  7  8  2  0
  8  9  1  0
  9 10  2  0
 10 11  1  0
 11 12  2  0
 12 13  1  0
 13 14  1  0
 14 15  2  0
 15 16  1  0
 16 17  2  0
 17 18  1  0
 18 19  2  0
 19 20  1  0
 20 21  2  0
 20 22  1  0
 22 23  1  0
 23 24  2  0
 24 25  1  0
 25 26  2  0
 26 27  1  0
 27 28  1  0
 27 29  2  0
 27 30  2  0
 26 31  1  0
 31 32  2  0
 12  7  1  0
 19 14  1  0
 32 23  1  0
  1 33  1  0
  1 34  1  0
  1 35  1  0
  2 36  1  0
  3 37  1  0
  3 38  1  0
  3 39  1  0
  8 40  1  0
  9 41  1  0
 10 42  1  0
 11 43  1  0
 15 44  1  0
 16 45  1  0
 17 46  1  0
 18 47  1  0
 24 48  1  0
 25 49  1  0
 28 50  1  0
 28 51  1  0
 28 52  1  0
 31 53  1  0
 32 54  1  0
M  CHG  1  22  -1
M  END
>  <UniqueID>  (17) 
17

>  <SMILES>  (17) 
CC(C)S(=O)(=O)c1ccccc1Oc1ccccc1C(=O)[N-]c1ccc(S(C)(=O)=O)cc1

>  <Energy>  (17) 
64.15346264722184

>  <Genealogy>  (17) 
CC(C)S(=O)(=O)c1ccccc1Oc1ccccc1C(=O)[N-]c1ccc(S(C)(=O)=O)cc1 (protonated)
CC(C)S(=O)(=O)c1ccccc1Oc1ccccc1C(=O)[N-]c1ccc(S(C)(=O)=O)cc1 (3D coordinates assigned)
CC(C)S(=O)(=O)c1ccccc1Oc1ccccc1C(=O)[N-]c1ccc(S(C)(=O)=O)cc1 (optimized conformer: 64.15346264722184 kcal/mol)

>  <smiles>  (17) 
CC(C)S(=O)(=O)c1ccccc1Oc1ccccc1C(=O)Nc1ccc(S(C)(=O)=O)cc1

>  <score_type>  (17) 
oracle

>  <origin>  (17) 
adgpu

>  <m_score__min__energy>  (17) 
-11.06

>  <m_primary>  (17) 
energy

$$$$
17:0
     RDKit          3D

 57 60  0  0  0  0  0  0  0  0999 V2000
    0.9150   24.9930  -27.4360 C   0  0  0  0  0  0  0  0  0  0  0  0
    0.4450   24.1030  -28.4420 O   0  0  0  0  0  0  0  0  0  0  0  0
   -0.5030   23.0860  -28.2390 C   0  0  0  0  0  0  0  0  0  0  0  0
   -0.1440   21.8700  -27.6220 C   0  0  0  0  0  0  0  0  0  0  0  0
   -1.0910   20.8650  -27.4280 C   0  0  0  0  0  0  0  0  0  0  0  0
   -2.4040   21.0500  -27.8500 C   0  0  0  0  0  0  0  0  0  0  0  0
   -2.7790   22.2450  -28.4660 C   0  0  0  0  0  0  0  0  0  0  0  0
   -1.8430   23.2800  -28.6640 C   0  0  0  0  0  0  0  0  0  0  0  0
   -2.2820   24.5430  -29.3200 C   0  0  0  0  0  0  0  0  0  0  0  0
   -1.9610   25.6620  -28.8350 O   0  0  0  0  0  0  0  0  0  0  0  0
   -3.1260   24.4880  -30.4790 N   0  0  0  0  0  0  0  0  0  0  0  0
   -4.5500   24.3090  -30.4930 C   0  0  0  0  0  0  0  0  0  0  0  0
   -5.3950   25.3060  -29.9700 C   0  0  0  0  0  0  0  0  0  0  0  0
   -6.7820   25.1730  -30.0430 C   0  0  0  0  0  0  0  0  0  0  0  0
   -7.3450   24.0570  -30.6560 C   0  0  0  0  0  0  0  0  0  0  0  0
   -6.5230   23.0670  -31.1970 C   0  0  0  0  0  0  0  0  0  0  0  0
   -5.1200   23.1730  -31.1240 C   0  0  0  0  0  0  0  0  0  0  0  0
   -4.2870   22.0770  -31.6930 C   0  0  0  0  0  0  0  0  0  0  0  0
   -3.3850   22.3540  -32.5280 O   0  0  0  0  0  0  0  0  0  0  0  0
   -4.4940   20.7170  -31.2880 N   0  0  0  0  0  0  0  0  0  0  0  0
   -5.4080   19.7680  -31.8550 C   0  0  0  0  0  0  0  0  0  0  0  0
   -6.7400   20.1590  -32.0520 C   0  0  0  0  0  0  0  0  0  0  0  0
   -7.6590   19.2790  -32.6290 C   0  0  0  0  0  0  0  0  0  0  0  0
   -7.2550   18.0020  -33.0220 C   0  0  0  0  0  0  0  0  0  0  0  0
   -5.9250   17.5970  -32.8430 C   0  0  0  0  0  0  0  0  0  0  0  0
   -5.4050   15.9880  -33.3570 S   0  0  0  0  0  0  0  0  0  0  0  0
   -5.2570   15.1110  -32.1450 O   0  0  0  0  0  0  0  0  0  0  0  0
   -6.4650   15.3890  -34.2380 O   0  0  0  0  0  0  0  0  0  0  0  0
   -3.8920   16.0130  -34.2330 N   0  0  0  0  0  0  0  0  0  0  0  0
   -2.7560   15.7160  -33.3670 C   0  0  0  0  0  0  0  0  0  0  0  0
   -1.5420   16.3300  -34.0420 C   0  0  0  0  0  0  0  0  0  0  0  0
   -2.0960   17.4390  -34.9230 C   0  0  0  0  0  0  0  0  0  0  0  0
   -3.6110   17.3250  -34.8150 C   0  0  0  0  0  0  0  0  0  0  0  0
   -5.0000   18.4890  -32.2770 C   0  0  0  0  0  0  0  0  0  0  0  0
    0.6937   24.5740  -26.4433 H   0  0  0  0  0  0  0  0  0  0  0  0
    2.0015   25.1271  -27.5435 H   0  0  0  0  0  0  0  0  0  0  0  0
    0.4131   25.9659  -27.5435 H   0  0  0  0  0  0  0  0  0  0  0  0
    0.8930   21.7127  -27.2905 H   0  0  0  0  0  0  0  0  0  0  0  0
   -0.7993   19.9233  -26.9400 H   0  0  0  0  0  0  0  0  0  0  0  0
   -3.1473   20.2535  -27.6979 H   0  0  0  0  0  0  0  0  0  0  0  0
   -3.8179   22.3807  -28.8011 H   0  0  0  0  0  0  0  0  0  0  0  0
   -4.9575   26.1987  -29.4991 H   0  0  0  0  0  0  0  0  0  0  0  0
   -7.4316   25.9511  -29.6156 H   0  0  0  0  0  0  0  0  0  0  0  0
   -8.4387   23.9553  -30.7141 H   0  0  0  0  0  0  0  0  0  0  0  0
   -6.9766   22.1927  -31.6867 H   0  0  0  0  0  0  0  0  0  0  0  0
   -7.0638   21.1660  -31.7500 H   0  0  0  0  0  0  0  0  0  0  0  0
   -8.7032   19.5932  -32.7739 H   0  0  0  0  0  0  0  0  0  0  0  0
   -7.9825   17.3114  -33.4735 H   0  0  0  0  0  0  0  0  0  0  0  0
   -2.9067   16.1619  -32.3728 H   0  0  0  0  0  0  0  0  0  0  0  0
   -2.6317   14.6325  -33.2235 H   0  0  0  0  0  0  0  0  0  0  0  0
   -0.8504   16.7417  -33.2922 H   0  0  0  0  0  0  0  0  0  0  0  0
   -0.9742   15.5879  -34.6224 H   0  0  0  0  0  0  0  0  0  0  0  0
   -1.7576   18.4217  -34.5626 H   0  0  0  0  0  0  0  0  0  0  0  0
   -1.7525   17.3440  -35.9636 H   0  0  0  0  0  0  0  0  0  0  0  0
   -4.0059   18.1204  -34.1659 H   0  0  0  0  0  0  0  0  0  0  0  0
   -4.0876   17.4315  -35.8006 H   0  0  0  0  0  0  0  0  0  0  0  0
   -3.9488   18.1858  -32.1626 H   0  0  0  0  0  0  0  0  0  0  0  0
  1  2  1  0
  2  3  1  0
  3  4  2  0
  4  5  1  0
  5  6  2  0
  6  7  1  0
  7  8  2  0
  8  9  1  0
  9 10  2  0
  9 11  1  0
 11 12  1  0
 12 13  2  0
 13 14  1  0
 14 15  2  0
 15 16  1  0
 16 17  2  0
 17 18  1  0
 18 19  2  0
 18 20  1  0
 20 21  1  0
 21 22  2  0
 22 23  1  0
 23 24  2  0
 24 25  1  0
 25 26  1  0
 26 27  2  0
 26 28  2  0
 26 29  1  0
 29 30  1  0
 30 31  1  0
 31 32  1  0
 32 33  1  0
 25 34  2  0
  8  3  1  0
 17 12  1  0
 34 21  1  0
 33 29  1  0
  1 35  1  0
  1 36  1  0
  1 37  1  0
  4 38  1  0
  5 39  1  0
  6 40  1  0
  7 41  1  0
 13 42  1  0
 14 43  1  0
 15 44  1  0
 16 45  1  0
 22 46  1  0
 23 47  1  0
 24 48  1  0
 30 49  1  0
 30 50  1  0
 31 51  1  0
 31 52  1  0
 32 53  1  0
 32 54  1  0
 33 55  1  0
 33 56  1  0
 34 57  1  0
M  CHG  2  11  -1  20  -1
M  END
>  <UniqueID>  (18) 
18

>  <SMILES>  (18) 
COc1ccccc1C(=O)[N-]c1ccccc1C(=O)[N-]c1cccc(S(=O)(=O)N2CCCC2)c1

>  <Energy>  (18) 
73.2470905952814

>  <Genealogy>  (18) 
COc1ccccc1C(=O)[N-]c1ccccc1C(=O)[N-]c1cccc(S(=O)(=O)N2CCCC2)c1 (protonated)
COc1ccccc1C(=O)[N-]c1ccccc1C(=O)[N-]c1cccc(S(=O)(=O)N2CCCC2)c1 (3D coordinates assigned)
COc1ccccc1C(=O)[N-]c1ccccc1C(=O)[N-]c1cccc(S(=O)(=O)N2CCCC2)c1 (nonaromatic ring conformer: 73.2470905952814 kcal/mol)

>  <smiles>  (18) 
COc1ccccc1C(=O)Nc1ccccc1C(=O)Nc1cccc(S(=O)(=O)N2CCCC2)c1

>  <score_type>  (18) 
oracle

>  <origin>  (18) 
adgpu

>  <m_score__min__energy>  (18) 
-12.720000000000001

>  <m_primary>  (18) 
energy

$$$$
18:0
     RDKit          3D

 45 47  0  0  0  0  0  0  0  0999 V2000
   -0.2310   25.6410  -27.4660 C   0  0  0  0  0  0  0  0  0  0  0  0
   -1.1150   24.6110  -27.9940 N   0  0  0  0  0  0  0  0  0  0  0  0
   -1.1730   23.3310  -27.5790 C   0  0  0  0  0  0  0  0  0  0  0  0
   -2.0770   22.6590  -28.3730 C   0  0  0  0  0  0  0  0  0  0  0  0
   -2.5170   23.6080  -29.2830 C   0  0  0  0  0  0  0  0  0  0  0  0
   -3.5440   23.3980  -30.3310 C   0  0  0  0  0  0  0  0  0  0  0  0
   -3.7260   22.1010  -30.8400 C   0  0  0  0  0  0  0  0  0  0  0  0
   -4.7290   21.8310  -31.7830 C   0  0  0  0  0  0  0  0  0  0  0  0
   -4.9290   20.4550  -32.3090 C   0  0  0  0  0  0  0  0  0  0  0  0
   -4.2520   20.0270  -33.4650 C   0  0  0  0  0  0  0  0  0  0  0  0
   -4.4350   18.7310  -33.9550 C   0  0  0  0  0  0  0  0  0  0  0  0
   -5.2940   17.8430  -33.2990 C   0  0  0  0  0  0  0  0  0  0  0  0
   -5.5010   16.2090  -33.9210 S   0  0  0  0  0  0  0  0  0  0  0  0
   -4.4550   15.9470  -34.9670 O   0  0  0  0  0  0  0  0  0  0  0  0
   -6.8620   16.0540  -34.5420 O   0  0  0  0  0  0  0  0  0  0  0  0
   -5.3210   15.0590  -32.6320 N   0  0  0  0  0  0  0  0  0  0  0  0
   -4.2910   14.0810  -32.9810 C   0  0  0  0  0  0  0  0  0  0  0  0
   -4.8450   13.0760  -33.9940 C   0  0  0  0  0  0  0  0  0  0  0  0
   -6.0810   13.5600  -34.6090 N   0  0  0  0  0  0  0  0  0  0  0  0
   -5.9780   18.2630  -32.1510 C   0  0  0  0  0  0  0  0  0  0  0  0
   -5.7960   19.5580  -31.6570 C   0  0  0  0  0  0  0  0  0  0  0  0
   -5.5450   22.8880  -32.2070 C   0  0  0  0  0  0  0  0  0  0  0  0
   -5.3460   24.1420  -31.7280 N   0  0  0  0  0  0  0  0  0  0  0  0
   -4.3780   24.4360  -30.8210 C   0  0  0  0  0  0  0  0  0  0  0  0
   -4.2260   25.6760  -30.4700 N   0  0  0  0  0  0  0  0  0  0  0  0
   -1.9200   24.7920  -29.0280 N   0  0  0  0  0  0  0  0  0  0  0  0
   -0.2533   25.6150  -26.3665 H   0  0  0  0  0  0  0  0  0  0  0  0
    0.7955   25.4580  -27.8163 H   0  0  0  0  0  0  0  0  0  0  0  0
   -0.5676   26.6279  -27.8163 H   0  0  0  0  0  0  0  0  0  0  0  0
   -0.5974   22.8964  -26.7485 H   0  0  0  0  0  0  0  0  0  0  0  0
   -2.3816   21.6045  -28.3008 H   0  0  0  0  0  0  0  0  0  0  0  0
   -3.0730   21.2861  -30.4943 H   0  0  0  0  0  0  0  0  0  0  0  0
   -3.5734   20.7174  -33.9874 H   0  0  0  0  0  0  0  0  0  0  0  0
   -3.9011   18.4077  -34.8608 H   0  0  0  0  0  0  0  0  0  0  0  0
   -3.4275   14.6023  -33.4200 H   0  0  0  0  0  0  0  0  0  0  0  0
   -3.9804   13.5441  -32.0726 H   0  0  0  0  0  0  0  0  0  0  0  0
   -4.0946   12.9117  -34.7813 H   0  0  0  0  0  0  0  0  0  0  0  0
   -5.0678   12.1386  -33.4633 H   0  0  0  0  0  0  0  0  0  0  0  0
   -6.5740   12.7790  -35.1010 H   0  0  0  0  0  0  0  0  0  0  0  0
   -5.8470   14.3020  -35.3080 H   0  0  0  0  0  0  0  0  0  0  0  0
   -6.7100   13.9700  -33.8800 H   0  0  0  0  0  0  0  0  0  0  0  0
   -6.6609   17.5712  -31.6363 H   0  0  0  0  0  0  0  0  0  0  0  0
   -6.3340   19.8782  -30.7526 H   0  0  0  0  0  0  0  0  0  0  0  0
   -6.3510   22.7005  -32.9318 H   0  0  0  0  0  0  0  0  0  0  0  0
   -3.4920   26.0270  -29.8190 H   0  0  0  0  0  0  0  0  0  0  0  0
  1  2  1  0
  2  3  1  0
  3  4  2  0
  4  5  1  0
  5  6  1  0
  6  7  2  0
  7  8  1  0
  8  9  1  0
  9 10  2  0
 10 11  1  0
 11 12  2  0
 12 13  1  0
 13 14  2  0
 13 15  2  0
 13 16  1  0
 16 17  1  0
 17 18  1  0
 18 19  1  0
 12 20  1  0
 20 21  2  0
  8 22  2  0
 22 23  1  0
 23 24  1  0
 24 25  2  3
  5 26  2  0
 26  2  1  0
 24  6  1  0
 21  9  1  0
  1 27  1  0
  1 28  1  0
  1 29  1  0
  3 30  1  0
  4 31  1  0
  7 32  1  0
 10 33  1  0
 11 34  1  0
 17 35  1  0
 17 36  1  0
 18 37  1  0
 18 38  1  0
 19 39  1  0
 19 40  1  0
 19 41  1  0
 20 42  1  0
 21 43  1  0
 22 44  1  0
 25 45  1  0
M  CHG  3  16  -1  19   1  23  -1
M  END
>  <UniqueID>  (19) 
19

>  <SMILES>  (19) 
Cn1ccc(-c2cc(-c3ccc(S(=O)(=O)[N-]CC[NH3+])cc3)c[n-]c2=N)n1

>  <Energy>  (19) 
83.51001203196213

>  <Genealogy>  (19) 
Cn1ccc(-c2cc(-c3ccc(S(=O)(=O)[N-]CC[NH3+])cc3)c[n-]c2=N)n1 (protonated)
Cn1ccc(-c2cc(-c3ccc(S(=O)(=O)[N-]CC[NH3+])cc3)c[n-]c2=N)n1 (3D coordinates assigned)
Cn1ccc(-c2cc(-c3ccc(S(=O)(=O)[N-]CC[NH3+])cc3)c[n-]c2=N)n1 (optimized conformer: 83.51001203196213 kcal/mol)

>  <smiles>  (19) 
Cn1ccc(-c2cc(-c3ccc(S(=O)(=O)NCCN)cc3)c[nH]c2=N)n1

>  <score_type>  (19) 
oracle

>  <origin>  (19) 
adgpu

>  <m_score__min__energy>  (19) 
-8.75

>  <m_primary>  (19) 
energy

$$$$
19:0
     RDKit          3D

 48 51  0  0  0  0  0  0  0  0999 V2000
    3.6010   21.1670  -37.4480 N   0  0  0  0  0  0  0  0  0  0  0  0
    3.8960   20.6880  -36.1380 C   0  0  0  0  0  0  0  0  0  0  0  0
    5.0940   20.4590  -35.8230 O   0  0  0  0  0  0  0  0  0  0  0  0
    2.8090   20.4610  -35.1580 C   0  0  0  0  0  0  0  0  0  0  0  0
    3.0960   19.9390  -33.8660 C   0  0  0  0  0  0  0  0  0  0  0  0
    2.0680   19.7210  -32.9320 C   0  0  0  0  0  0  0  0  0  0  0  0
    0.7670   20.0310  -33.3160 C   0  0  0  0  0  0  0  0  0  0  0  0
   -0.3540   19.9030  -32.5930 N   0  0  0  0  0  0  0  0  0  0  0  0
   -1.3130   20.3480  -33.4490 C   0  0  0  0  0  0  0  0  0  0  0  0
   -2.7490   20.4010  -33.0920 C   0  0  0  0  0  0  0  0  0  0  0  0
   -3.5300   21.5150  -33.4420 C   0  0  0  0  0  0  0  0  0  0  0  0
   -4.8870   21.5610  -33.1090 C   0  0  0  0  0  0  0  0  0  0  0  0
   -5.4820   20.4970  -32.4210 C   0  0  0  0  0  0  0  0  0  0  0  0
   -7.1990   20.5620  -32.0340 S   0  0  0  0  0  0  0  0  0  0  0  0
   -8.0250   20.4720  -33.2870 O   0  0  0  0  0  0  0  0  0  0  0  0
   -7.5440   19.4020  -31.1440 O   0  0  0  0  0  0  0  0  0  0  0  0
   -7.5690   22.0460  -31.2070 N   0  0  0  0  0  0  0  0  0  0  0  0
   -6.5210   22.3440  -30.2340 C   0  0  0  0  0  0  0  0  0  0  0  0
   -5.6430   23.4750  -30.7630 C   0  0  0  0  0  0  0  0  0  0  0  0
   -4.2090   23.2760  -30.3390 C   0  0  0  0  0  0  0  0  0  0  0  0
   -3.6780   21.9770  -30.2710 C   0  0  0  0  0  0  0  0  0  0  0  0
   -2.3370   21.7740  -29.9110 C   0  0  0  0  0  0  0  0  0  0  0  0
   -1.8080   20.4880  -29.8380 O   0  0  0  0  0  0  0  0  0  0  0  0
   -1.5230   22.8730  -29.6260 C   0  0  0  0  0  0  0  0  0  0  0  0
   -2.0370   24.1700  -29.7060 C   0  0  0  0  0  0  0  0  0  0  0  0
   -3.3730   24.3770  -30.0670 C   0  0  0  0  0  0  0  0  0  0  0  0
   -3.8590   25.6780  -30.1580 O   0  0  0  0  0  0  0  0  0  0  0  0
   -4.7090   19.3840  -32.0660 C   0  0  0  0  0  0  0  0  0  0  0  0
   -3.3520   19.3360  -32.3990 C   0  0  0  0  0  0  0  0  0  0  0  0
   -0.8390   20.7430  -34.6620 N   0  0  0  0  0  0  0  0  0  0  0  0
    0.4790   20.5300  -34.5450 C   0  0  0  0  0  0  0  0  0  0  0  0
    1.4670   20.7610  -35.5000 C   0  0  0  0  0  0  0  0  0  0  0  0
    3.2500   22.1400  -37.5980 H   0  0  0  0  0  0  0  0  0  0  0  0
    4.1355   19.7030  -33.5944 H   0  0  0  0  0  0  0  0  0  0  0  0
    2.2849   19.3189  -31.9314 H   0  0  0  0  0  0  0  0  0  0  0  0
   -3.0709   22.3565  -33.9815 H   0  0  0  0  0  0  0  0  0  0  0  0
   -5.4900   22.4374  -33.3889 H   0  0  0  0  0  0  0  0  0  0  0  0
   -6.9802   22.6505  -29.2826 H   0  0  0  0  0  0  0  0  0  0  0  0
   -5.9054   21.4470  -30.0715 H   0  0  0  0  0  0  0  0  0  0  0  0
   -5.6964   23.4906  -31.8616 H   0  0  0  0  0  0  0  0  0  0  0  0
   -6.0058   24.4282  -30.3510 H   0  0  0  0  0  0  0  0  0  0  0  0
   -4.3182   21.1127  -30.5017 H   0  0  0  0  0  0  0  0  0  0  0  0
   -1.3150   20.0730  -30.6200 H   0  0  0  0  0  0  0  0  0  0  0  0
   -0.4731   22.7168  -29.3374 H   0  0  0  0  0  0  0  0  0  0  0  0
   -1.3893   25.0310  -29.4845 H   0  0  0  0  0  0  0  0  0  0  0  0
   -5.1708   18.5457  -31.5239 H   0  0  0  0  0  0  0  0  0  0  0  0
   -2.7514   18.4587  -32.1169 H   0  0  0  0  0  0  0  0  0  0  0  0
    1.2125   21.1647  -36.4911 H   0  0  0  0  0  0  0  0  0  0  0  0
  1  2  1  0
  2  3  2  0
  2  4  1  0
  4  5  2  0
  5  6  1  0
  6  7  2  0
  7  8  1  0
  8  9  1  0
  9 10  1  0
 10 11  2  0
 11 12  1  0
 12 13  2  0
 13 14  1  0
 14 15  2  0
 14 16  2  0
 14 17  1  0
 17 18  1  0
 18 19  1  0
 19 20  1  0
 20 21  2  0
 21 22  1  0
 22 23  1  0
 22 24  2  0
 24 25  1  0
 25 26  2  0
 26 27  1  0
 13 28  1  0
 28 29  2  0
  9 30  2  0
 30 31  1  0
 31 32  2  0
 32  4  1  0
 31  7  1  0
 29 10  1  0
 26 20  1  0
  1 33  1  0
  5 34  1  0
  6 35  1  0
 11 36  1  0
 12 37  1  0
 18 38  1  0
 18 39  1  0
 19 40  1  0
 19 41  1  0
 21 42  1  0
 23 43  1  0
 24 44  1  0
 25 45  1  0
 28 46  1  0
 29 47  1  0
 32 48  1  0
M  CHG  4   1  -1   8  -1  17  -1  27  -1
M  END
>  <UniqueID>  (20) 
20

>  <SMILES>  (20) 
[NH-]C(=O)c1ccc2[n-]c(-c3ccc(S(=O)(=O)[N-]CCc4cc(O)ccc4[O-])cc3)nc2c1

>  <Energy>  (20) 
83.85559115464876

>  <Genealogy>  (20) 
[NH-]C(=O)c1ccc2[n-]c(-c3ccc(S(=O)(=O)[N-]CCc4cc(O)ccc4[O-])cc3)nc2c1 (protonated)
[NH-]C(=O)c1ccc2[n-]c(-c3ccc(S(=O)(=O)[N-]CCc4cc(O)ccc4[O-])cc3)nc2c1 (3D coordinates assigned)
[NH-]C(=O)c1ccc2[n-]c(-c3ccc(S(=O)(=O)[N-]CCc4cc(O)ccc4[O-])cc3)nc2c1 (optimized conformer: 83.85559115464876 kcal/mol)

>  <smiles>  (20) 
NC(=O)c1ccc2[nH]c(-c3ccc(S(=O)(=O)NCCc4cc(O)ccc4O)cc3)nc2c1

>  <score_type>  (20) 
oracle

>  <origin>  (20) 
adgpu

>  <m_score__min__energy>  (20) 
-12.77

>  <m_primary>  (20) 
energy

$$$$
20:0
     RDKit          3D

 59 62  0  0  0  0  0  0  0  0999 V2000
    0.8640   24.5100  -28.5460 O   0  0  0  0  0  0  0  0  0  0  0  0
   -0.0960   23.8290  -28.9860 C   0  0  0  0  0  0  0  0  0  0  0  0
    0.0840   22.4200  -29.1840 N   0  0  0  0  0  0  0  0  0  0  0  0
   -0.6120   21.6060  -30.1380 C   0  0  0  0  0  0  0  0  0  0  0  0
   -1.4620   22.1670  -31.1070 C   0  0  0  0  0  0  0  0  0  0  0  0
   -2.0990   21.3470  -32.0410 C   0  0  0  0  0  0  0  0  0  0  0  0
   -1.9080   19.9590  -32.0120 C   0  0  0  0  0  0  0  0  0  0  0  0
   -2.6750   18.9360  -33.2250 S   0  0  0  0  0  0  0  0  0  0  0  0
   -2.3370   17.4960  -32.9460 O   0  0  0  0  0  0  0  0  0  0  0  0
   -2.1390   19.2920  -34.5840 O   0  0  0  0  0  0  0  0  0  0  0  0
   -4.4080   19.1390  -33.1660 N   0  0  0  0  0  0  0  0  0  0  0  0
   -5.0680   18.4890  -34.3010 C   0  0  0  0  0  0  0  0  0  0  0  0
   -6.4620   18.0960  -33.8340 C   0  0  0  0  0  0  0  0  0  0  0  0
   -6.4050   18.1360  -32.3150 C   0  0  0  0  0  0  0  0  0  0  0  0
   -4.9690   18.5030  -31.9740 C   0  0  0  0  0  0  0  0  0  0  0  0
   -1.0970   19.3960  -31.0160 C   0  0  0  0  0  0  0  0  0  0  0  0
   -0.4590   20.2160  -30.0820 C   0  0  0  0  0  0  0  0  0  0  0  0
   -1.3420   24.4830  -29.2670 N   0  0  0  0  0  0  0  0  0  0  0  0
   -2.6520   23.9410  -29.0430 C   0  0  0  0  0  0  0  0  0  0  0  0
   -2.8690   22.9240  -28.0980 C   0  0  0  0  0  0  0  0  0  0  0  0
   -4.1560   22.4320  -27.8790 C   0  0  0  0  0  0  0  0  0  0  0  0
   -5.2330   22.9330  -28.6140 C   0  0  0  0  0  0  0  0  0  0  0  0
   -5.0280   23.9220  -29.5870 C   0  0  0  0  0  0  0  0  0  0  0  0
   -6.4200   24.5430  -30.4850 S   0  0  0  0  0  0  0  0  0  0  0  0
   -5.9240   25.4780  -31.5540 O   0  0  0  0  0  0  0  0  0  0  0  0
   -7.3260   25.3170  -29.5690 O   0  0  0  0  0  0  0  0  0  0  0  0
   -7.2920   23.2270  -31.2290 N   0  0  0  0  0  0  0  0  0  0  0  0
   -6.3980   22.4870  -32.1440 C   0  0  0  0  0  0  0  0  0  0  0  0
   -6.9980   21.1370  -32.5990 C   0  0  0  0  0  0  0  0  0  0  0  0
   -8.4990   21.0600  -32.3090 C   0  0  0  0  0  0  0  0  0  0  0  0
   -8.7770   21.2860  -30.8150 C   0  0  0  0  0  0  0  0  0  0  0  0
   -7.8340   22.3350  -30.1900 C   0  0  0  0  0  0  0  0  0  0  0  0
   -3.7300   24.4250  -29.7990 C   0  0  0  0  0  0  0  0  0  0  0  0
   -3.5050   25.4240  -30.7410 O   0  0  0  0  0  0  0  0  0  0  0  0
   -1.6258   23.2545  -31.1297 H   0  0  0  0  0  0  0  0  0  0  0  0
   -2.7543   21.7931  -32.8036 H   0  0  0  0  0  0  0  0  0  0  0  0
   -5.1355   19.1858  -35.1494 H   0  0  0  0  0  0  0  0  0  0  0  0
   -4.5009   17.6076  -34.6350 H   0  0  0  0  0  0  0  0  0  0  0  0
   -7.2095   18.8101  -34.2100 H   0  0  0  0  0  0  0  0  0  0  0  0
   -6.7535   17.1029  -34.2065 H   0  0  0  0  0  0  0  0  0  0  0  0
   -7.0993   18.8942  -31.9237 H   0  0  0  0  0  0  0  0  0  0  0  0
   -6.6981   17.1740  -31.8693 H   0  0  0  0  0  0  0  0  0  0  0  0
   -4.9469   19.2016  -31.1246 H   0  0  0  0  0  0  0  0  0  0  0  0
   -4.3887   17.6135  -31.6875 H   0  0  0  0  0  0  0  0  0  0  0  0
   -0.9628   18.3052  -30.9700 H   0  0  0  0  0  0  0  0  0  0  0  0
    0.1675   19.7663  -29.2976 H   0  0  0  0  0  0  0  0  0  0  0  0
   -2.0214   22.5144  -27.5290 H   0  0  0  0  0  0  0  0  0  0  0  0
   -4.3230   21.6478  -27.1259 H   0  0  0  0  0  0  0  0  0  0  0  0
   -6.2473   22.5498  -28.4287 H   0  0  0  0  0  0  0  0  0  0  0  0
   -6.2122   23.1074  -33.0331 H   0  0  0  0  0  0  0  0  0  0  0  0
   -5.4677   22.2709  -31.5982 H   0  0  0  0  0  0  0  0  0  0  0  0
   -6.8373   21.0217  -33.6811 H   0  0  0  0  0  0  0  0  0  0  0  0
   -6.4982   20.3327  -32.0392 H   0  0  0  0  0  0  0  0  0  0  0  0
   -9.0196   21.8326  -32.8938 H   0  0  0  0  0  0  0  0  0  0  0  0
   -8.8618   20.0598  -32.5883 H   0  0  0  0  0  0  0  0  0  0  0  0
   -9.8150   21.6306  -30.6976 H   0  0  0  0  0  0  0  0  0  0  0  0
   -8.6061   20.3316  -30.2954 H   0  0  0  0  0  0  0  0  0  0  0  0
   -8.3939   22.9330  -29.4559 H   0  0  0  0  0  0  0  0  0  0  0  0
   -6.9993   21.8141  -29.6982 H   0  0  0  0  0  0  0  0  0  0  0  0
  1  2  2  0
  2  3  1  0
  3  4  1  0
  4  5  2  0
  5  6  1  0
  6  7  2  0
  7  8  1  0
  8  9  2  0
  8 10  2  0
  8 11  1  0
 11 12  1  0
 12 13  1  0
 13 14  1  0
 14 15  1  0
  7 16  1  0
 16 17  2  0
  2 18  1  0
 18 19  1  0
 19 20  2  0
 20 21  1  0
 21 22  2  0
 22 23  1  0
 23 24  1  0
 24 25  2  0
 24 26  2  0
 24 27  1  0
 27 28  1  0
 28 29  1  0
 29 30  1  0
 30 31  1  0
 31 32  1  0
 23 33  2  0
 33 34  1  0
 17  4  1  0
 33 19  1  0
 15 11  1  0
 32 27  1  0
  5 35  1  0
  6 36  1  0
 12 37  1  0
 12 38  1  0
 13 39  1  0
 13 40  1  0
 14 41  1  0
 14 42  1  0
 15 43  1  0
 15 44  1  0
 16 45  1  0
 17 46  1  0
 20 47  1  0
 21 48  1  0
 22 49  1  0
 28 50  1  0
 28 51  1  0
 29 52  1  0
 29 53  1  0
 30 54  1  0
 30 55  1  0
 31 56  1  0
 31 57  1  0
 32 58  1  0
 32 59  1  0
M  CHG  3   3  -1  18  -1  34  -1
M  END
>  <UniqueID>  (21) 
21

>  <SMILES>  (21) 
O=C([N-]c1ccc(S(=O)(=O)N2CCCC2)cc1)[N-]c1cccc(S(=O)(=O)N2CCCCC2)c1[O-]

>  <Energy>  (21) 
69.63351686938464

>  <Genealogy>  (21) 
O=C([N-]c1ccc(S(=O)(=O)N2CCCC2)cc1)[N-]c1cccc(S(=O)(=O)N2CCCCC2)c1[O-] (protonated)
O=C([N-]c1ccc(S(=O)(=O)N2CCCC2)cc1)[N-]c1cccc(S(=O)(=O)N2CCCCC2)c1[O-] (3D coordinates assigned)
O=C([N-]c1ccc(S(=O)(=O)N2CCCC2)cc1)[N-]c1cccc(S(=O)(=O)N2CCCCC2)c1[O-] (nonaromatic ring conformer: 69.63351686938464 kcal/mol)

>  <smiles>  (21) 
O=C(Nc1ccc(S(=O)(=O)N2CCCC2)cc1)Nc1cccc(S(=O)(=O)N2CCCCC2)c1O

>  <score_type>  (21) 
oracle

>  <origin>  (21) 
adgpu

>  <m_score__min__energy>  (21) 
-17.469999999999999

>  <m_primary>  (21) 
energy

$$$$
21:0
     RDKit          3D

 49 51  0  0  0  0  0  0  0  0999 V2000
   -9.5050   20.1030  -32.6260 C   0  0  0  0  0  0  0  0  0  0  0  0
   -8.3770   20.8490  -31.9760 C   0  0  0  0  0  0  0  0  0  0  0  0
   -8.6230   21.6800  -30.8730 C   0  0  0  0  0  0  0  0  0  0  0  0
   -7.5800   22.4040  -30.2890 C   0  0  0  0  0  0  0  0  0  0  0  0
   -6.2730   22.3070  -30.8000 C   0  0  0  0  0  0  0  0  0  0  0  0
   -5.1880   23.0610  -30.2350 N   0  0  0  0  0  0  0  0  0  0  0  0
   -4.7330   24.3260  -30.7360 C   0  0  0  0  0  0  0  0  0  0  0  0
   -5.3900   24.9370  -31.6220 O   0  0  0  0  0  0  0  0  0  0  0  0
   -3.5160   24.8810  -30.2230 N   0  0  0  0  0  0  0  0  0  0  0  0
   -2.6110   24.2550  -29.2990 C   0  0  0  0  0  0  0  0  0  0  0  0
   -2.6460   22.8760  -29.0550 C   0  0  0  0  0  0  0  0  0  0  0  0
   -1.7360   22.2930  -28.1770 C   0  0  0  0  0  0  0  0  0  0  0  0
   -0.7580   23.0680  -27.5300 C   0  0  0  0  0  0  0  0  0  0  0  0
    0.1990   22.3690  -26.6010 C   0  0  0  0  0  0  0  0  0  0  0  0
   -0.7070   24.4670  -27.7770 C   0  0  0  0  0  0  0  0  0  0  0  0
    0.4950   25.5520  -27.0320 S   0  0  0  0  0  0  0  0  0  0  0  0
    0.1960   27.0030  -27.2850 O   0  0  0  0  0  0  0  0  0  0  0  0
    1.8340   25.2450  -27.6420 O   0  0  0  0  0  0  0  0  0  0  0  0
    0.5500   25.2360  -25.3090 N   0  0  0  0  0  0  0  0  0  0  0  0
   -0.7990   25.2280  -24.6990 C   0  0  0  0  0  0  0  0  0  0  0  0
   -1.1440   26.5550  -24.0000 C   0  0  0  0  0  0  0  0  0  0  0  0
   -0.5130   27.6330  -24.6520 O   0  0  0  0  0  0  0  0  0  0  0  0
    0.8880   27.5710  -24.4500 C   0  0  0  0  0  0  0  0  0  0  0  0
    1.4750   26.1490  -24.6160 C   0  0  0  0  0  0  0  0  0  0  0  0
   -1.6280   25.0380  -28.6800 C   0  0  0  0  0  0  0  0  0  0  0  0
   -1.5740   26.4010  -28.9660 O   0  0  0  0  0  0  0  0  0  0  0  0
   -6.0410   21.5080  -31.9280 C   0  0  0  0  0  0  0  0  0  0  0  0
   -7.0830   20.7820  -32.5120 C   0  0  0  0  0  0  0  0  0  0  0  0
  -10.1554   19.6729  -31.8501 H   0  0  0  0  0  0  0  0  0  0  0  0
  -10.0887   20.7937  -33.2522 H   0  0  0  0  0  0  0  0  0  0  0  0
   -9.0978   19.2955  -33.2522 H   0  0  0  0  0  0  0  0  0  0  0  0
   -9.6416   21.7622  -30.4658 H   0  0  0  0  0  0  0  0  0  0  0  0
   -7.7823   23.0536  -29.4246 H   0  0  0  0  0  0  0  0  0  0  0  0
   -4.7580   22.7160  -29.3470 H   0  0  0  0  0  0  0  0  0  0  0  0
   -3.3966   22.2502  -29.5599 H   0  0  0  0  0  0  0  0  0  0  0  0
   -1.7832   21.2106  -27.9870 H   0  0  0  0  0  0  0  0  0  0  0  0
   -0.0846   22.5762  -25.5586 H   0  0  0  0  0  0  0  0  0  0  0  0
    0.1606   21.2848  -26.7829 H   0  0  0  0  0  0  0  0  0  0  0  0
    1.2201   22.7354  -26.7829 H   0  0  0  0  0  0  0  0  0  0  0  0
   -1.5413   25.0435  -25.4895 H   0  0  0  0  0  0  0  0  0  0  0  0
   -0.8127   24.4371  -23.9346 H   0  0  0  0  0  0  0  0  0  0  0  0
   -2.2335   26.7046  -24.0241 H   0  0  0  0  0  0  0  0  0  0  0  0
   -0.7909   26.5119  -22.9591 H   0  0  0  0  0  0  0  0  0  0  0  0
    1.3743   28.2354  -25.1794 H   0  0  0  0  0  0  0  0  0  0  0  0
    1.0783   27.8796  -23.4115 H   0  0  0  0  0  0  0  0  0  0  0  0
    2.4060   26.2171  -25.1979 H   0  0  0  0  0  0  0  0  0  0  0  0
    1.6565   25.7421  -23.6103 H   0  0  0  0  0  0  0  0  0  0  0  0
   -5.0299   21.4518  -32.3575 H   0  0  0  0  0  0  0  0  0  0  0  0
   -6.8872   20.1560  -33.3951 H   0  0  0  0  0  0  0  0  0  0  0  0
  1  2  1  0
  2  3  2  0
  3  4  1  0
  4  5  2  0
  5  6  1  0
  6  7  1  0
  7  8  2  0
  7  9  1  0
  9 10  1  0
 10 11  2  0
 11 12  1  0
 12 13  2  0
 13 14  1  0
 13 15  1  0
 15 16  1  0
 16 17  2  0
 16 18  2  0
 16 19  1  0
 19 20  1  0
 20 21  1  0
 21 22  1  0
 22 23  1  0
 23 24  1  0
 15 25  2  0
 25 26  1  0
  5 27  1  0
 27 28  2  0
 28  2  1  0
 25 10  1  0
 24 19  1  0
  1 29  1  0
  1 30  1  0
  1 31  1  0
  3 32  1  0
  4 33  1  0
  6 34  1  0
 11 35  1  0
 12 36  1  0
 14 37  1  0
 14 38  1  0
 14 39  1  0
 20 40  1  0
 20 41  1  0
 21 42  1  0
 21 43  1  0
 23 44  1  0
 23 45  1  0
 24 46  1  0
 24 47  1  0
 27 48  1  0
 28 49  1  0
M  CHG  2   9  -1  26  -1
M  END
>  <UniqueID>  (22) 
22

>  <SMILES>  (22) 
Cc1ccc(NC(=O)[N-]c2ccc(C)c(S(=O)(=O)N3CCOCC3)c2[O-])cc1

>  <Energy>  (22) 
71.75011315688867

>  <Genealogy>  (22) 
Cc1ccc(NC(=O)[N-]c2ccc(C)c(S(=O)(=O)N3CCOCC3)c2[O-])cc1 (protonated)
Cc1ccc(NC(=O)[N-]c2ccc(C)c(S(=O)(=O)N3CCOCC3)c2[O-])cc1 (3D coordinates assigned)
Cc1ccc(NC(=O)[N-]c2ccc(C)c(S(=O)(=O)N3CCOCC3)c2[O-])cc1 (nonaromatic ring conformer: 71.75011315688867 kcal/mol)

>  <smiles>  (22) 
Cc1ccc(NC(=O)Nc2ccc(C)c(S(=O)(=O)N3CCOCC3)c2O)cc1

>  <score_type>  (22) 
oracle

>  <origin>  (22) 
adgpu

>  <m_score__min__energy>  (22) 
-13.19

>  <m_primary>  (22) 
energy

$$$$
22:0
     RDKit          3D

 50 53  0  0  0  0  0  0  0  0999 V2000
   -6.5850   25.3980  -30.2280 O   0  0  0  0  0  0  0  0  0  0  0  0
   -6.1090   24.2950  -29.8490 C   0  0  0  0  0  0  0  0  0  0  0  0
   -4.8470   24.2740  -29.0390 C   0  0  0  0  0  0  0  0  0  0  0  0
   -3.6530   24.3550  -29.9110 N   0  0  0  0  0  0  0  0  0  0  0  0
   -2.4120   24.5000  -29.1430 C   0  0  0  0  0  0  0  0  0  0  0  0
   -2.0670   23.2550  -28.3060 C   0  0  0  0  0  0  0  0  0  0  0  0
   -2.4780   21.9550  -28.8930 N   0  0  0  0  0  0  0  0  0  0  0  0
   -2.1490   20.7210  -28.1670 C   0  0  0  0  0  0  0  0  0  0  0  0
   -3.1020   20.1220  -27.3000 C   0  0  0  0  0  0  0  0  0  0  0  0
   -2.8100   18.9540  -26.5890 C   0  0  0  0  0  0  0  0  0  0  0  0
   -1.5670   18.3460  -26.7210 C   0  0  0  0  0  0  0  0  0  0  0  0
   -0.6120   18.8970  -27.5710 C   0  0  0  0  0  0  0  0  0  0  0  0
   -0.8860   20.0650  -28.2930 C   0  0  0  0  0  0  0  0  0  0  0  0
    0.0980   20.5120  -29.1110 F   0  0  0  0  0  0  0  0  0  0  0  0
   -3.3070   21.8860  -30.1160 C   0  0  0  0  0  0  0  0  0  0  0  0
   -3.5000   23.2240  -30.8370 C   0  0  0  0  0  0  0  0  0  0  0  0
   -6.7670   23.0610  -30.1730 N   0  0  0  0  0  0  0  0  0  0  0  0
   -7.2550   22.6640  -31.5050 C   0  0  0  0  0  0  0  0  0  0  0  0
   -7.1030   21.2130  -31.8700 C   0  0  0  0  0  0  0  0  0  0  0  0
   -8.1460   20.3120  -31.6080 C   0  0  0  0  0  0  0  0  0  0  0  0
   -8.0360   18.9730  -31.9910 C   0  0  0  0  0  0  0  0  0  0  0  0
   -6.8860   18.5200  -32.6470 C   0  0  0  0  0  0  0  0  0  0  0  0
   -6.7800   16.8270  -33.1090 Cl  0  0  0  0  0  0  0  0  0  0  0  0
   -5.8420   19.4220  -32.9290 C   0  0  0  0  0  0  0  0  0  0  0  0
   -4.3840   18.8950  -33.7560 Cl  0  0  0  0  0  0  0  0  0  0  0  0
   -5.9590   20.7640  -32.5490 C   0  0  0  0  0  0  0  0  0  0  0  0
   -8.5330   23.3640  -31.9480 C   0  0  0  0  0  0  0  0  0  0  0  0
   -7.2150   23.6700  -32.6540 C   0  0  0  0  0  0  0  0  0  0  0  0
   -4.8478   25.1317  -28.3502 H   0  0  0  0  0  0  0  0  0  0  0  0
   -4.8070   23.3283  -28.4785 H   0  0  0  0  0  0  0  0  0  0  0  0
   -1.5865   24.6888  -29.8451 H   0  0  0  0  0  0  0  0  0  0  0  0
   -2.5576   25.3349  -28.4417 H   0  0  0  0  0  0  0  0  0  0  0  0
   -0.9763   23.2332  -28.1651 H   0  0  0  0  0  0  0  0  0  0  0  0
   -2.6339   23.3553  -27.3687 H   0  0  0  0  0  0  0  0  0  0  0  0
   -4.0920   20.5877  -27.1855 H   0  0  0  0  0  0  0  0  0  0  0  0
   -3.5669   18.5146  -25.9226 H   0  0  0  0  0  0  0  0  0  0  0  0
   -1.3383   17.4311  -26.1548 H   0  0  0  0  0  0  0  0  0  0  0  0
    0.3684   18.4095  -27.6766 H   0  0  0  0  0  0  0  0  0  0  0  0
   -2.8270   21.1861  -30.8159 H   0  0  0  0  0  0  0  0  0  0  0  0
   -4.3072   21.5601  -29.7944 H   0  0  0  0  0  0  0  0  0  0  0  0
   -2.6232   23.4087  -31.4750 H   0  0  0  0  0  0  0  0  0  0  0  0
   -4.4263   23.1514  -31.4258 H   0  0  0  0  0  0  0  0  0  0  0  0
   -6.7480   22.3140  -29.4470 H   0  0  0  0  0  0  0  0  0  0  0  0
   -9.0557   20.6619  -31.0980 H   0  0  0  0  0  0  0  0  0  0  0  0
   -8.8563   18.2723  -31.7761 H   0  0  0  0  0  0  0  0  0  0  0  0
   -5.1498   21.4712  -32.7837 H   0  0  0  0  0  0  0  0  0  0  0  0
   -9.3176   22.7969  -32.4703 H   0  0  0  0  0  0  0  0  0  0  0  0
   -9.3032   23.9670  -31.4447 H   0  0  0  0  0  0  0  0  0  0  0  0
   -7.0488   23.3225  -33.6844 H   0  0  0  0  0  0  0  0  0  0  0  0
   -6.6409   24.5831  -32.8701 H   0  0  0  0  0  0  0  0  0  0  0  0
  1  2  2  0
  2  3  1  0
  3  4  1  0
  4  5  1  0
  5  6  1  0
  6  7  1  0
  7  8  1  0
  8  9  2  0
  9 10  1  0
 10 11  2  0
 11 12  1  0
 12 13  2  0
 13 14  1  0
  7 15  1  0
 15 16  1  0
  2 17  1  0
 17 18  1  0
 18 19  1  0
 19 20  2  0
 20 21  1  0
 21 22  2  0
 22 23  1  0
 22 24  1  0
 24 25  1  0
 24 26  2  0
 18 27  1  0
 27 28  1  0
 16  4  1  0
 28 18  1  0
 13  8  1  0
 26 19  1  0
  3 29  1  0
  3 30  1  0
  5 31  1  0
  5 32  1  0
  6 33  1  0
  6 34  1  0
  9 35  1  0
 10 36  1  0
 11 37  1  0
 12 38  1  0
 15 39  1  0
 15 40  1  0
 16 41  1  0
 16 42  1  0
 17 43  1  0
 20 44  1  0
 21 45  1  0
 26 46  1  0
 27 47  1  0
 27 48  1  0
 28 49  1  0
 28 50  1  0
M  END
>  <UniqueID>  (23) 
23

>  <SMILES>  (23) 
O=C(CN1CCN(c2ccccc2F)CC1)NC1(c2ccc(Cl)c(Cl)c2)CC1

>  <Energy>  (23) 
339.75358409625966

>  <Genealogy>  (23) 
O=C(CN1CCN(c2ccccc2F)CC1)NC1(c2ccc(Cl)c(Cl)c2)CC1 (3D coordinates assigned)
O=C(CN1CCN(c2ccccc2F)CC1)NC1(c2ccc(Cl)c(Cl)c2)CC1 (nonaromatic ring conformer: 339.75358409625966 kcal/mol)

>  <smiles>  (23) 
O=C(CN1CCN(c2ccccc2F)CC1)NC1(c2ccc(Cl)c(Cl)c2)CC1

>  <score_type>  (23) 
oracle

>  <origin>  (23) 
adgpu

>  <m_score__min__energy>  (23) 
-9.9800000000000004

>  <m_primary>  (23) 
energy

$$$$
23:0
     RDKit          3D

 55 58  0  0  0  0  0  0  0  0999 V2000
   -3.4100   21.7450  -33.5190 O   0  0  0  0  0  0  0  0  0  0  0  0
   -2.8790   21.9100  -32.3870 C   0  0  0  0  0  0  0  0  0  0  0  0
   -3.2500   23.0380  -31.5860 N   0  0  0  0  0  0  0  0  0  0  0  0
   -4.5930   23.4540  -31.3010 C   0  0  0  0  0  0  0  0  0  0  0  0
   -5.6320   22.5350  -31.4880 C   0  0  0  0  0  0  0  0  0  0  0  0
   -6.9580   22.8870  -31.2040 C   0  0  0  0  0  0  0  0  0  0  0  0
   -8.2650   21.7250  -31.4680 S   0  0  0  0  0  0  0  0  0  0  0  0
   -9.3060   22.3540  -32.3520 O   0  0  0  0  0  0  0  0  0  0  0  0
   -8.9080   21.4050  -30.1470 O   0  0  0  0  0  0  0  0  0  0  0  0
   -7.7150   20.2400  -32.2060 N   0  0  0  0  0  0  0  0  0  0  0  0
   -6.9480   20.4840  -33.4260 C   0  0  0  0  0  0  0  0  0  0  0  0
   -6.0350   19.2790  -33.6050 C   0  0  0  0  0  0  0  0  0  0  0  0
   -5.9530   18.6290  -32.2320 C   0  0  0  0  0  0  0  0  0  0  0  0
   -6.8230   19.4870  -31.3270 C   0  0  0  0  0  0  0  0  0  0  0  0
   -7.2430   24.1740  -30.7300 C   0  0  0  0  0  0  0  0  0  0  0  0
   -6.2100   25.0870  -30.5110 C   0  0  0  0  0  0  0  0  0  0  0  0
   -4.8840   24.7300  -30.7760 C   0  0  0  0  0  0  0  0  0  0  0  0
   -3.8690   25.6330  -30.4830 O   0  0  0  0  0  0  0  0  0  0  0  0
   -1.9490   20.8830  -31.8560 C   0  0  0  0  0  0  0  0  0  0  0  0
   -1.3880   21.0750  -30.5790 C   0  0  0  0  0  0  0  0  0  0  0  0
   -0.4990   20.1380  -30.0360 C   0  0  0  0  0  0  0  0  0  0  0  0
    0.2070   20.4030  -28.4360 S   0  0  0  0  0  0  0  0  0  0  0  0
    1.4840   19.6170  -28.3280 O   0  0  0  0  0  0  0  0  0  0  0  0
    0.5440   21.8610  -28.2850 O   0  0  0  0  0  0  0  0  0  0  0  0
   -0.8620   19.9300  -27.1360 N   0  0  0  0  0  0  0  0  0  0  0  0
   -0.9930   18.4780  -27.0350 C   0  0  0  0  0  0  0  0  0  0  0  0
   -2.3380   18.2150  -26.3730 C   0  0  0  0  0  0  0  0  0  0  0  0
   -3.1380   19.4960  -26.5630 C   0  0  0  0  0  0  0  0  0  0  0  0
   -2.2200   20.4340  -27.3300 C   0  0  0  0  0  0  0  0  0  0  0  0
   -0.1540   19.0040  -30.7780 C   0  0  0  0  0  0  0  0  0  0  0  0
   -0.7120   18.7920  -32.0380 C   0  0  0  0  0  0  0  0  0  0  0  0
   -1.6110   19.7170  -32.5830 C   0  0  0  0  0  0  0  0  0  0  0  0
   -2.3320   19.3230  -34.1410 Cl  0  0  0  0  0  0  0  0  0  0  0  0
   -5.4050   21.5257  -31.8619 H   0  0  0  0  0  0  0  0  0  0  0  0
   -7.6243   20.5808  -34.2881 H   0  0  0  0  0  0  0  0  0  0  0  0
   -6.3694   21.4168  -33.3546 H   0  0  0  0  0  0  0  0  0  0  0  0
   -6.4613   18.5783  -34.3380 H   0  0  0  0  0  0  0  0  0  0  0  0
   -5.0428   19.5689  -33.9810 H   0  0  0  0  0  0  0  0  0  0  0  0
   -6.3363   17.5986  -32.2704 H   0  0  0  0  0  0  0  0  0  0  0  0
   -4.9166   18.5707  -31.8680 H   0  0  0  0  0  0  0  0  0  0  0  0
   -7.4076   18.8506  -30.6463 H   0  0  0  0  0  0  0  0  0  0  0  0
   -6.2121   20.1599  -30.7073 H   0  0  0  0  0  0  0  0  0  0  0  0
   -8.2844   24.4662  -30.5297 H   0  0  0  0  0  0  0  0  0  0  0  0
   -6.4401   26.0922  -30.1281 H   0  0  0  0  0  0  0  0  0  0  0  0
   -1.6511   21.9725  -30.0000 H   0  0  0  0  0  0  0  0  0  0  0  0
   -0.9657   18.0227  -28.0360 H   0  0  0  0  0  0  0  0  0  0  0  0
   -0.1685   18.0420  -26.4518 H   0  0  0  0  0  0  0  0  0  0  0  0
   -2.8464   17.3681  -26.8571 H   0  0  0  0  0  0  0  0  0  0  0  0
   -2.2274   17.9551  -25.3099 H   0  0  0  0  0  0  0  0  0  0  0  0
   -4.0533   19.2964  -27.1395 H   0  0  0  0  0  0  0  0  0  0  0  0
   -3.4542   19.9277  -25.6019 H   0  0  0  0  0  0  0  0  0  0  0  0
   -2.4785   20.4297  -28.3992 H   0  0  0  0  0  0  0  0  0  0  0  0
   -2.3168   21.4693  -26.9712 H   0  0  0  0  0  0  0  0  0  0  0  0
    0.5605   18.2763  -30.3659 H   0  0  0  0  0  0  0  0  0  0  0  0
   -0.4438   17.8907  -32.6087 H   0  0  0  0  0  0  0  0  0  0  0  0
  1  2  2  0
  2  3  1  0
  3  4  1  0
  4  5  2  0
  5  6  1  0
  6  7  1  0
  7  8  2  0
  7  9  2  0
  7 10  1  0
 10 11  1  0
 11 12  1  0
 12 13  1  0
 13 14  1  0
  6 15  2  0
 15 16  1  0
 16 17  2  0
 17 18  1  0
  2 19  1  0
 19 20  2  0
 20 21  1  0
 21 22  1  0
 22 23  2  0
 22 24  2  0
 22 25  1  0
 25 26  1  0
 26 27  1  0
 27 28  1  0
 28 29  1  0
 21 30  2  0
 30 31  1  0
 31 32  2  0
 32 33  1  0
 17  4  1  0
 32 19  1  0
 14 10  1  0
 29 25  1  0
  5 34  1  0
 11 35  1  0
 11 36  1  0
 12 37  1  0
 12 38  1  0
 13 39  1  0
 13 40  1  0
 14 41  1  0
 14 42  1  0
 15 43  1  0
 16 44  1  0
 20 45  1  0
 26 46  1  0
 26 47  1  0
 27 48  1  0
 27 49  1  0
 28 50  1  0
 28 51  1  0
 29 52  1  0
 29 53  1  0
 30 54  1  0
 31 55  1  0
M  CHG  2   3  -1  18  -1
M  END
>  <UniqueID>  (24) 
24

>  <SMILES>  (24) 
O=C([N-]c1cc(S(=O)(=O)N2CCCC2)ccc1[O-])c1cc(S(=O)(=O)N2CCCC2)ccc1Cl

>  <Energy>  (24) 
69.49562783686848

>  <Genealogy>  (24) 
O=C([N-]c1cc(S(=O)(=O)N2CCCC2)ccc1[O-])c1cc(S(=O)(=O)N2CCCC2)ccc1Cl (protonated)
O=C([N-]c1cc(S(=O)(=O)N2CCCC2)ccc1[O-])c1cc(S(=O)(=O)N2CCCC2)ccc1Cl (3D coordinates assigned)
O=C([N-]c1cc(S(=O)(=O)N2CCCC2)ccc1[O-])c1cc(S(=O)(=O)N2CCCC2)ccc1Cl (nonaromatic ring conformer: 69.49562783686848 kcal/mol)

>  <smiles>  (24) 
O=C(Nc1cc(S(=O)(=O)N2CCCC2)ccc1O)c1cc(S(=O)(=O)N2CCCC2)ccc1Cl

>  <score_type>  (24) 
oracle

>  <origin>  (24) 
adgpu

>  <m_score__min__energy>  (24) 
-15.15

>  <m_primary>  (24) 
energy

$$$$
24:0
     RDKit          3D

 50 53  0  0  0  0  0  0  0  0999 V2000
   -4.7566   26.3707  -30.2082 H   0  0  0  0  0  0  0  0  0  0  0  0
   -4.9200   25.3190  -30.4860 C   0  0  0  0  0  0  0  0  0  0  0  0
   -6.1270   24.9940  -30.9750 C   0  0  0  0  0  0  0  0  0  0  0  0
   -6.8166   25.8184  -31.2093 H   0  0  0  0  0  0  0  0  0  0  0  0
   -6.6040   23.6170  -31.2240 C   0  0  0  0  0  0  0  0  0  0  0  0
   -7.5930   23.0310  -30.4150 C   0  0  0  0  0  0  0  0  0  0  0  0
   -8.0048   23.5897  -29.5616 H   0  0  0  0  0  0  0  0  0  0  0  0
   -8.0550   21.7410  -30.6910 C   0  0  0  0  0  0  0  0  0  0  0  0
   -8.8185   21.2825  -30.0454 H   0  0  0  0  0  0  0  0  0  0  0  0
   -7.5490   21.0300  -31.7870 C   0  0  0  0  0  0  0  0  0  0  0  0
   -8.1520   19.4170  -32.1450 S   0  0  0  0  0  0  0  0  0  0  0  0
   -9.2980   19.5030  -33.1130 O   0  0  0  0  0  0  0  0  0  0  0  0
   -8.6530   18.7640  -30.8860 O   0  0  0  0  0  0  0  0  0  0  0  0
   -6.8500   18.4590  -32.8390 C   0  0  0  0  0  0  0  0  0  0  0  0
   -6.3830   17.3160  -32.1730 C   0  0  0  0  0  0  0  0  0  0  0  0
   -6.8432   17.0079  -31.2226 H   0  0  0  0  0  0  0  0  0  0  0  0
   -5.3340   16.5680  -32.7150 C   0  0  0  0  0  0  0  0  0  0  0  0
   -4.9725   15.6702  -32.1922 H   0  0  0  0  0  0  0  0  0  0  0  0
   -4.7430   16.9590  -33.9210 C   0  0  0  0  0  0  0  0  0  0  0  0
   -3.9201   16.3674  -34.3486 H   0  0  0  0  0  0  0  0  0  0  0  0
   -5.2000   18.1030  -34.5820 C   0  0  0  0  0  0  0  0  0  0  0  0
   -4.7339   18.4128  -35.5290 H   0  0  0  0  0  0  0  0  0  0  0  0
   -6.2480   18.8540  -34.0420 C   0  0  0  0  0  0  0  0  0  0  0  0
   -6.6011   19.7567  -34.5620 H   0  0  0  0  0  0  0  0  0  0  0  0
   -6.5950   21.6280  -32.6200 C   0  0  0  0  0  0  0  0  0  0  0  0
   -6.2103   21.0816  -33.4938 H   0  0  0  0  0  0  0  0  0  0  0  0
   -6.1300   22.9180  -32.3440 C   0  0  0  0  0  0  0  0  0  0  0  0
   -5.3891   23.3866  -33.0084 H   0  0  0  0  0  0  0  0  0  0  0  0
   -3.7930   24.3860  -30.2890 C   0  0  0  0  0  0  0  0  0  0  0  0
   -3.5180   23.4110  -31.1960 N   0  0  0  0  0  0  0  0  0  0  0  0
   -2.4580   22.5790  -31.0330 C   0  0  0  0  0  0  0  0  0  0  0  0
   -2.2310   21.6800  -31.8850 O   0  0  0  0  0  0  0  0  0  0  0  0
   -1.6220   22.7260  -29.9260 C   0  0  0  0  0  0  0  0  0  0  0  0
   -0.7623   22.0555  -29.7799 H   0  0  0  0  0  0  0  0  0  0  0  0
   -1.8990   23.7470  -29.0010 C   0  0  0  0  0  0  0  0  0  0  0  0
   -1.0670   23.9630  -27.8400 N   0  0  0  0  0  0  0  0  0  0  0  0
   -0.2680   22.8710  -27.2670 C   0  0  0  0  0  0  0  0  0  0  0  0
   -0.8135   21.9229  -27.3833 H   0  0  0  0  0  0  0  0  0  0  0  0
    0.6960   22.8190  -27.7942 H   0  0  0  0  0  0  0  0  0  0  0  0
   -0.0080   23.1250  -25.7780 C   0  0  0  0  0  0  0  0  0  0  0  0
   -0.9533   23.0226  -25.2250 H   0  0  0  0  0  0  0  0  0  0  0  0
    0.7286   22.3906  -25.4201 H   0  0  0  0  0  0  0  0  0  0  0  0
    0.5110   24.4220  -25.5700 O   0  0  0  0  0  0  0  0  0  0  0  0
   -0.4650   25.3820  -25.9210 C   0  0  0  0  0  0  0  0  0  0  0  0
   -1.3920   25.1728  -25.3671 H   0  0  0  0  0  0  0  0  0  0  0  0
   -0.0836   26.3817  -25.6660 H   0  0  0  0  0  0  0  0  0  0  0  0
   -0.7570   25.3370  -27.4230 C   0  0  0  0  0  0  0  0  0  0  0  0
   -1.6164   25.9866  -27.6454 H   0  0  0  0  0  0  0  0  0  0  0  0
    0.1304   25.6862  -27.9712 H   0  0  0  0  0  0  0  0  0  0  0  0
   -2.9740   24.5540  -29.2180 N   0  0  0  0  0  0  0  0  0  0  0  0
  1  2  1  0
  2  3  2  0
  3  4  1  0
  3  5  1  0
  5  6  2  0
  6  7  1  0
  6  8  1  0
  8  9  1  0
  8 10  2  0
 10 11  1  0
 11 12  2  0
 11 13  2  0
 11 14  1  0
 14 15  2  0
 15 16  1  0
 15 17  1  0
 17 18  1  0
 17 19  2  0
 19 20  1  0
 19 21  1  0
 21 22  1  0
 21 23  2  0
 23 24  1  0
 10 25  1  0
 25 26  1  0
 25 27  2  0
 27 28  1  0
  2 29  1  0
 29 30  2  0
 30 31  1  0
 31 32  2  0
 31 33  1  0
 33 34  1  0
 33 35  2  0
 35 36  1  0
 36 37  1  0
 37 38  1  0
 37 39  1  0
 37 40  1  0
 40 41  1  0
 40 42  1  0
 40 43  1  0
 43 44  1  0
 44 45  1  0
 44 46  1  0
 44 47  1  0
 47 48  1  0
 47 49  1  0
 35 50  1  0
 27  5  1  0
 50 29  1  0
 23 14  1  0
 47 36  1  0
M  CHG  1  50  -1
M  END
>  <UniqueID>  (25) 
25

>  <SMILES>  (25) 
O=c1cc(N2CCOCC2)[n-]c(/C=C\c2ccc(S(=O)(=O)c3ccccc3)cc2)n1

>  <Energy>  (25) 
68.12155688556018

>  <Genealogy>  (25) 
O=c1cc(N2CCOCC2)[n-]c(C=Cc2ccc(S(=O)(=O)c3ccccc3)cc2)n1 (protonated)
O=c1cc(N2CCOCC2)[n-]c(/C=C\c2ccc(S(=O)(=O)c3ccccc3)cc2)n1 (cis-trans isomerization)
O=c1cc(N2CCOCC2)[n-]c(/C=C\c2ccc(S(=O)(=O)c3ccccc3)cc2)n1 (3D coordinates assigned)
O=c1cc(N2CCOCC2)[n-]c(/C=C\c2ccc(S(=O)(=O)c3ccccc3)cc2)n1 (nonaromatic ring conformer: 68.12155688556018 kcal/mol)

>  <smiles>  (25) 
O=c1cc(N2CCOCC2)[nH]c(C=Cc2ccc(S(=O)(=O)c3ccccc3)cc2)n1

>  <score_type>  (25) 
oracle

>  <origin>  (25) 
adgpu

>  <m_score__min__energy>  (25) 
-11.109999999999999

>  <m_primary>  (25) 
energy

$$$$
25:0
     RDKit          3D

 64 68  0  0  0  0  0  0  0  0999 V2000
   -5.3590   22.6570  -28.6410 O   0  0  0  0  0  0  0  0  0  0  0  0
   -5.2720   23.1600  -29.7940 C   0  0  0  0  0  0  0  0  0  0  0  0
   -3.9990   23.2280  -30.4530 N   0  0  0  0  0  0  0  0  0  0  0  0
   -2.7500   23.3770  -29.7580 C   0  0  0  0  0  0  0  0  0  0  0  0
   -1.8760   22.2870  -29.5800 C   0  0  0  0  0  0  0  0  0  0  0  0
   -0.6830   22.4480  -28.8730 C   0  0  0  0  0  0  0  0  0  0  0  0
   -0.3540   23.6890  -28.3170 C   0  0  0  0  0  0  0  0  0  0  0  0
    1.1630   23.8790  -27.4430 S   0  0  0  0  0  0  0  0  0  0  0  0
    2.0170   24.8880  -28.1590 O   0  0  0  0  0  0  0  0  0  0  0  0
    1.9010   22.5690  -27.4040 O   0  0  0  0  0  0  0  0  0  0  0  0
    0.8260   24.4430  -25.8270 N   0  0  0  0  0  0  0  0  0  0  0  0
    0.2340   25.7810  -25.8430 C   0  0  0  0  0  0  0  0  0  0  0  0
   -0.6200   25.8920  -24.5880 C   0  0  0  0  0  0  0  0  0  0  0  0
   -0.8480   24.4610  -24.1250 C   0  0  0  0  0  0  0  0  0  0  0  0
   -0.1570   23.5910  -25.1620 C   0  0  0  0  0  0  0  0  0  0  0  0
   -1.2260   24.7750  -28.4800 C   0  0  0  0  0  0  0  0  0  0  0  0
   -2.4210   24.6150  -29.1880 C   0  0  0  0  0  0  0  0  0  0  0  0
   -6.5150   23.6550  -30.4880 C   0  0  0  0  0  0  0  0  0  0  0  0
   -6.5940   25.0360  -30.3920 F   0  0  0  0  0  0  0  0  0  0  0  0
   -7.6180   23.1250  -29.8420 F   0  0  0  0  0  0  0  0  0  0  0  0
   -6.5580   23.2370  -31.9750 C   0  0  0  0  0  0  0  0  0  0  0  0
   -5.6560   24.0140  -32.6800 F   0  0  0  0  0  0  0  0  0  0  0  0
   -7.8250   23.5020  -32.4690 F   0  0  0  0  0  0  0  0  0  0  0  0
   -6.2230   21.7790  -32.2220 C   0  0  0  0  0  0  0  0  0  0  0  0
   -5.0170   21.2450  -32.6830 C   0  0  0  0  0  0  0  0  0  0  0  0
   -5.1350   19.9120  -32.8770 N   0  0  0  0  0  0  0  0  0  0  0  0
   -3.8930   18.8600  -33.4740 S   0  0  0  0  0  0  0  0  0  0  0  0
   -3.9160   17.5770  -32.6910 O   0  0  0  0  0  0  0  0  0  0  0  0
   -4.1450   18.5430  -34.9220 O   0  0  0  0  0  0  0  0  0  0  0  0
   -2.3250   19.6490  -33.3330 C   0  0  0  0  0  0  0  0  0  0  0  0
   -1.7490   19.8820  -32.0750 C   0  0  0  0  0  0  0  0  0  0  0  0
   -0.5080   20.5220  -31.9780 C   0  0  0  0  0  0  0  0  0  0  0  0
    0.1630   20.9290  -33.1360 C   0  0  0  0  0  0  0  0  0  0  0  0
   -0.4050   20.6940  -34.3920 C   0  0  0  0  0  0  0  0  0  0  0  0
   -1.6450   20.0550  -34.4900 C   0  0  0  0  0  0  0  0  0  0  0  0
   -6.4070   19.5890  -32.5770 C   0  0  0  0  0  0  0  0  0  0  0  0
   -7.0190   18.3370  -32.6620 C   0  0  0  0  0  0  0  0  0  0  0  0
   -8.3800   18.2430  -32.3270 C   0  0  0  0  0  0  0  0  0  0  0  0
   -9.0990   19.3900  -31.9310 C   0  0  0  0  0  0  0  0  0  0  0  0
   -8.4630   20.6410  -31.8620 C   0  0  0  0  0  0  0  0  0  0  0  0
   -7.1040   20.7050  -32.1830 C   0  0  0  0  0  0  0  0  0  0  0  0
   -3.9830   23.1740  -31.4980 H   0  0  0  0  0  0  0  0  0  0  0  0
   -2.1347   21.3039  -30.0002 H   0  0  0  0  0  0  0  0  0  0  0  0
    0.0014   21.5953  -28.7525 H   0  0  0  0  0  0  0  0  0  0  0  0
    1.0243   26.5461  -25.8336 H   0  0  0  0  0  0  0  0  0  0  0  0
   -0.3694   25.9377  -26.7493 H   0  0  0  0  0  0  0  0  0  0  0  0
   -0.0922   26.4674  -23.8132 H   0  0  0  0  0  0  0  0  0  0  0  0
   -1.5682   26.4140  -24.7840 H   0  0  0  0  0  0  0  0  0  0  0  0
   -0.4045   24.3020  -23.1310 H   0  0  0  0  0  0  0  0  0  0  0  0
   -1.9184   24.2234  -24.0368 H   0  0  0  0  0  0  0  0  0  0  0  0
    0.3439   22.7422  -24.6735 H   0  0  0  0  0  0  0  0  0  0  0  0
   -0.8795   23.1791  -25.8820 H   0  0  0  0  0  0  0  0  0  0  0  0
   -0.9694   25.7545  -28.0501 H   0  0  0  0  0  0  0  0  0  0  0  0
   -3.1082   25.4668  -29.2986 H   0  0  0  0  0  0  0  0  0  0  0  0
   -4.1009   21.8268  -32.8627 H   0  0  0  0  0  0  0  0  0  0  0  0
   -2.2738   19.5610  -31.1631 H   0  0  0  0  0  0  0  0  0  0  0  0
   -0.0599   20.7051  -30.9902 H   0  0  0  0  0  0  0  0  0  0  0  0
    1.1373   21.4338  -33.0586 H   0  0  0  0  0  0  0  0  0  0  0  0
    0.1235   21.0118  -35.3029 H   0  0  0  0  0  0  0  0  0  0  0  0
   -2.0889   19.8700  -35.4793 H   0  0  0  0  0  0  0  0  0  0  0  0
   -6.4521   17.4503  -32.9819 H   0  0  0  0  0  0  0  0  0  0  0  0
   -8.8883   17.2686  -32.3738 H   0  0  0  0  0  0  0  0  0  0  0  0
  -10.1652   19.3046  -31.6744 H   0  0  0  0  0  0  0  0  0  0  0  0
   -9.0179   21.5429  -31.5643 H   0  0  0  0  0  0  0  0  0  0  0  0
  1  2  2  0
  2  3  1  0
  3  4  1  0
  4  5  2  0
  5  6  1  0
  6  7  2  0
  7  8  1  0
  8  9  2  0
  8 10  2  0
  8 11  1  0
 11 12  1  0
 12 13  1  0
 13 14  1  0
 14 15  1  0
  7 16  1  0
 16 17  2  0
  2 18  1  0
 18 19  1  0
 18 20  1  0
 18 21  1  0
 21 22  1  0
 21 23  1  0
 21 24  1  0
 24 25  2  0
 25 26  1  0
 26 27  1  0
 27 28  2  0
 27 29  2  0
 27 30  1  0
 30 31  2  0
 31 32  1  0
 32 33  2  0
 33 34  1  0
 34 35  2  0
 26 36  1  0
 36 37  2  0
 37 38  1  0
 38 39  2  0
 39 40  1  0
 40 41  2  0
 17  4  1  0
 41 24  1  0
 15 11  1  0
 35 30  1  0
 41 36  1  0
  3 42  1  0
  5 43  1  0
  6 44  1  0
 12 45  1  0
 12 46  1  0
 13 47  1  0
 13 48  1  0
 14 49  1  0
 14 50  1  0
 15 51  1  0
 15 52  1  0
 16 53  1  0
 17 54  1  0
 25 55  1  0
 31 56  1  0
 32 57  1  0
 33 58  1  0
 34 59  1  0
 35 60  1  0
 37 61  1  0
 38 62  1  0
 39 63  1  0
 40 64  1  0
M  END
>  <UniqueID>  (26) 
26

>  <SMILES>  (26) 
O=C(Nc1ccc(S(=O)(=O)N2CCCC2)cc1)C(F)(F)C(F)(F)c1cn(S(=O)(=O)c2ccccc2)c2ccccc12

>  <Energy>  (26) 
106.57882813220948

>  <Genealogy>  (26) 
O=C(Nc1ccc(S(=O)(=O)N2CCCC2)cc1)C(F)(F)C(F)(F)c1cn(S(=O)(=O)c2ccccc2)c2ccccc12 (3D coordinates assigned)
O=C(Nc1ccc(S(=O)(=O)N2CCCC2)cc1)C(F)(F)C(F)(F)c1cn(S(=O)(=O)c2ccccc2)c2ccccc12 (nonaromatic ring conformer: 106.57882813220948 kcal/mol)

>  <smiles>  (26) 
O=C(Nc1ccc(S(=O)(=O)N2CCCC2)cc1)C(F)(F)C(F)(F)c1cn(S(=O)(=O)c2ccccc2)c2ccccc12

>  <score_type>  (26) 
oracle

>  <origin>  (26) 
adgpu

>  <m_score__min__energy>  (26) 
-11.15

>  <m_primary>  (26) 
energy

$$$$
26:0
     RDKit          3D

 51 54  0  0  0  0  0  0  0  0999 V2000
    0.0970   19.8040  -27.9100 C   0  0  0  0  0  0  0  0  0  0  0  0
   -0.4540   20.5260  -26.7520 N   0  0  0  0  0  0  0  0  0  0  0  0
   -1.8940   20.2660  -26.5580 C   0  0  0  0  0  0  0  0  0  0  0  0
   -2.7490   20.8070  -27.7130 C   0  0  0  0  0  0  0  0  0  0  0  0
   -2.3410   22.1990  -28.1200 C   0  0  0  0  0  0  0  0  0  0  0  0
   -3.2030   22.9560  -28.9280 C   0  0  0  0  0  0  0  0  0  0  0  0
   -2.8460   24.2480  -29.3480 C   0  0  0  0  0  0  0  0  0  0  0  0
   -3.7180   25.0780  -30.1340 N   0  0  0  0  0  0  0  0  0  0  0  0
   -5.3990   24.8280  -30.4950 S   0  0  0  0  0  0  0  0  0  0  0  0
   -5.8720   25.9790  -31.3370 O   0  0  0  0  0  0  0  0  0  0  0  0
   -6.2360   24.8210  -29.2480 O   0  0  0  0  0  0  0  0  0  0  0  0
   -5.5880   23.3070  -31.3880 C   0  0  0  0  0  0  0  0  0  0  0  0
   -6.8570   22.7090  -31.5300 C   0  0  0  0  0  0  0  0  0  0  0  0
   -7.9890   23.2890  -30.9720 O   0  0  0  0  0  0  0  0  0  0  0  0
   -6.9960   21.5160  -32.2470 C   0  0  0  0  0  0  0  0  0  0  0  0
   -5.8900   20.9300  -32.8610 C   0  0  0  0  0  0  0  0  0  0  0  0
   -4.6340   21.5370  -32.7770 C   0  0  0  0  0  0  0  0  0  0  0  0
   -3.5230   20.9520  -33.4720 N   0  0  0  0  0  0  0  0  0  0  0  0
   -2.4500   20.2570  -32.8070 C   0  0  0  0  0  0  0  0  0  0  0  0
   -1.9260   20.7280  -31.5870 C   0  0  0  0  0  0  0  0  0  0  0  0
   -0.8700   20.0610  -30.9680 C   0  0  0  0  0  0  0  0  0  0  0  0
   -0.3160   18.9220  -31.5570 C   0  0  0  0  0  0  0  0  0  0  0  0
   -0.8150   18.4460  -32.7710 C   0  0  0  0  0  0  0  0  0  0  0  0
   -0.2430   17.3060  -33.3370 O   0  0  0  0  0  0  0  0  0  0  0  0
   -1.8830   19.1130  -33.4010 C   0  0  0  0  0  0  0  0  0  0  0  0
   -2.3870   18.6300  -34.6050 O   0  0  0  0  0  0  0  0  0  0  0  0
   -4.4750   22.7070  -32.0100 C   0  0  0  0  0  0  0  0  0  0  0  0
   -3.2070   23.2580  -31.8610 O   0  0  0  0  0  0  0  0  0  0  0  0
   -1.6080   24.7730  -28.9520 C   0  0  0  0  0  0  0  0  0  0  0  0
   -1.2370   26.0550  -29.3400 O   0  0  0  0  0  0  0  0  0  0  0  0
   -0.7350   24.0170  -28.1650 C   0  0  0  0  0  0  0  0  0  0  0  0
   -1.0860   22.7230  -27.7550 C   0  0  0  0  0  0  0  0  0  0  0  0
   -0.1670   21.9730  -26.8170 C   0  0  0  0  0  0  0  0  0  0  0  0
    0.7293   18.9754  -27.5585 H   0  0  0  0  0  0  0  0  0  0  0  0
   -0.7272   19.4036  -28.5185 H   0  0  0  0  0  0  0  0  0  0  0  0
    0.7007   20.4934  -28.5185 H   0  0  0  0  0  0  0  0  0  0  0  0
   -2.0495   19.1797  -26.4825 H   0  0  0  0  0  0  0  0  0  0  0  0
   -2.2067   20.7836  -25.6391 H   0  0  0  0  0  0  0  0  0  0  0  0
   -2.6384   20.1380  -28.5791 H   0  0  0  0  0  0  0  0  0  0  0  0
   -3.7932   20.8481  -27.3695 H   0  0  0  0  0  0  0  0  0  0  0  0
   -4.1702   22.5324  -29.2363 H   0  0  0  0  0  0  0  0  0  0  0  0
   -7.9833   21.0376  -32.3268 H   0  0  0  0  0  0  0  0  0  0  0  0
   -6.0064   19.9861  -33.4138 H   0  0  0  0  0  0  0  0  0  0  0  0
   -3.4340   21.1500  -34.4940 H   0  0  0  0  0  0  0  0  0  0  0  0
   -2.3529   21.6278  -31.1199 H   0  0  0  0  0  0  0  0  0  0  0  0
   -0.4716   20.4329  -30.0125 H   0  0  0  0  0  0  0  0  0  0  0  0
    0.5158   18.3986  -31.0629 H   0  0  0  0  0  0  0  0  0  0  0  0
   -0.5650   16.9220  -34.2160 H   0  0  0  0  0  0  0  0  0  0  0  0
    0.2349   24.4404  -27.8649 H   0  0  0  0  0  0  0  0  0  0  0  0
    0.8691   22.1085  -27.1608 H   0  0  0  0  0  0  0  0  0  0  0  0
   -0.3257   22.3825  -25.8085 H   0  0  0  0  0  0  0  0  0  0  0  0
  1  2  1  0
  2  3  1  0
  3  4  1  0
  4  5  1  0
  5  6  2  0
  6  7  1  0
  7  8  1  0
  8  9  1  0
  9 10  2  0
  9 11  2  0
  9 12  1  0
 12 13  2  0
 13 14  1  0
 13 15  1  0
 15 16  2  0
 16 17  1  0
 17 18  1  0
 18 19  1  0
 19 20  2  0
 20 21  1  0
 21 22  2  0
 22 23  1  0
 23 24  1  0
 23 25  2  0
 25 26  1  0
 17 27  2  0
 27 28  1  0
  7 29  2  0
 29 30  1  0
 29 31  1  0
 31 32  2  0
 32 33  1  0
 33  2  1  0
 32  5  1  0
 27 12  1  0
 25 19  1  0
  1 34  1  0
  1 35  1  0
  1 36  1  0
  3 37  1  0
  3 38  1  0
  4 39  1  0
  4 40  1  0
  6 41  1  0
 15 42  1  0
 16 43  1  0
 18 44  1  0
 20 45  1  0
 21 46  1  0
 22 47  1  0
 24 48  1  0
 31 49  1  0
 33 50  1  0
 33 51  1  0
M  CHG  5   8  -1  14  -1  26  -1  28  -1  30  -1
M  END
>  <UniqueID>  (27) 
27

>  <SMILES>  (27) 
CN1CCc2cc([N-]S(=O)(=O)c3c([O-])ccc(Nc4cccc(O)c4[O-])c3[O-])c([O-])cc2C1

>  <Energy>  (27) 
74.15513546534545

>  <Genealogy>  (27) 
CN1CCc2cc([N-]S(=O)(=O)c3c([O-])ccc(Nc4cccc(O)c4[O-])c3[O-])c([O-])cc2C1 (protonated)
CN1CCc2cc([N-]S(=O)(=O)c3c([O-])ccc(Nc4cccc(O)c4[O-])c3[O-])c([O-])cc2C1 (3D coordinates assigned)
CN1CCc2cc([N-]S(=O)(=O)c3c([O-])ccc(Nc4cccc(O)c4[O-])c3[O-])c([O-])cc2C1 (nonaromatic ring conformer: 74.15513546534545 kcal/mol)

>  <smiles>  (27) 
CN1CCc2cc(NS(=O)(=O)c3c(O)ccc(Nc4cccc(O)c4O)c3O)c(O)cc2C1

>  <score_type>  (27) 
oracle

>  <origin>  (27) 
adgpu

>  <m_score__min__energy>  (27) 
-13.25

>  <m_primary>  (27) 
energy

$$$$
27:0
     RDKit          3D

 64 68  0  0  0  0  0  0  0  0999 V2000
   -0.3700   24.4610  -25.7420 C   0  0  0  0  0  0  0  0  0  0  0  0
    0.3570   23.7310  -26.8830 C   0  0  2  0  0  0  0  0  0  0  0  0
    0.2300   24.4810  -28.1330 N   0  0  0  0  0  0  0  0  0  0  0  0
   -0.9540   24.6160  -28.9310 C   0  0  0  0  0  0  0  0  0  0  0  0
   -1.5450   25.7240  -28.9540 O   0  0  0  0  0  0  0  0  0  0  0  0
   -1.5160   23.4980  -29.7060 C   0  0  0  0  0  0  0  0  0  0  0  0
   -0.6750   22.6300  -30.4200 C   0  0  0  0  0  0  0  0  0  0  0  0
   -1.2130   21.5490  -31.1250 C   0  0  0  0  0  0  0  0  0  0  0  0
   -2.5970   21.3070  -31.1030 C   0  0  0  0  0  0  0  0  0  0  0  0
   -3.1840   20.1430  -31.8500 C   0  0  0  0  0  0  0  0  0  0  0  0
   -3.9120   20.7270  -33.4190 S   0  0  0  0  0  0  0  0  0  0  0  0
   -5.5750   20.8340  -32.7470 C   0  0  0  0  0  0  0  0  0  0  0  0
   -6.3080   19.6940  -32.6460 N   0  0  0  0  0  0  0  0  0  0  0  0
   -7.5670   19.7080  -32.1390 C   0  0  0  0  0  0  0  0  0  0  0  0
   -8.4890   18.1820  -32.0060 S   0  0  0  0  0  0  0  0  0  0  0  0
   -7.0810   17.1880  -32.5060 C   0  0  0  0  0  0  0  0  0  0  0  0
   -6.1120   16.8030  -31.5690 C   0  0  0  0  0  0  0  0  0  0  0  0
   -4.9980   16.0600  -31.9800 C   0  0  0  0  0  0  0  0  0  0  0  0
   -4.8610   15.6870  -33.3220 C   0  0  0  0  0  0  0  0  0  0  0  0
   -5.8350   16.0580  -34.2530 C   0  0  0  0  0  0  0  0  0  0  0  0
   -6.9430   16.8090  -33.8470 C   0  0  0  0  0  0  0  0  0  0  0  0
   -8.1330   20.8820  -31.7510 N   0  0  0  0  0  0  0  0  0  0  0  0
   -7.4520   22.0510  -31.8580 C   0  0  0  0  0  0  0  0  0  0  0  0
   -6.1390   22.0610  -32.3410 C   0  0  0  0  0  0  0  0  0  0  0  0
   -5.4260   23.3910  -32.4540 C   0  0  0  0  0  0  0  0  0  0  0  0
   -5.7090   24.2890  -31.2330 C   0  0  0  0  0  0  0  0  0  0  0  0
   -7.1660   24.2390  -30.6990 C   0  0  0  0  0  0  0  0  0  0  0  0
   -8.1130   23.3520  -31.5180 C   0  0  0  0  0  0  0  0  0  0  0  0
   -3.4350   22.1740  -30.3860 C   0  0  0  0  0  0  0  0  0  0  0  0
   -2.8980   23.2630  -29.6900 C   0  0  0  0  0  0  0  0  0  0  0  0
   -0.1350   22.3140  -27.1230 C   0  0  0  0  0  0  0  0  0  0  0  0
   -1.4060   21.9570  -26.6330 C   0  0  0  0  0  0  0  0  0  0  0  0
   -1.8870   20.6530  -26.7770 C   0  0  0  0  0  0  0  0  0  0  0  0
   -1.1010   19.6820  -27.3980 C   0  0  0  0  0  0  0  0  0  0  0  0
    0.1670   20.0150  -27.8810 C   0  0  0  0  0  0  0  0  0  0  0  0
    0.6570   21.3160  -27.7350 C   0  0  0  0  0  0  0  0  0  0  0  0
   -0.0002   24.0897  -24.7748 H   0  0  0  0  0  0  0  0  0  0  0  0
   -0.1786   25.5416  -25.8174 H   0  0  0  0  0  0  0  0  0  0  0  0
   -1.4514   24.2740  -25.8174 H   0  0  0  0  0  0  0  0  0  0  0  0
    1.4071   23.6661  -26.5621 H   0  0  0  0  0  0  0  0  0  0  0  0
    0.4116   22.8009  -30.4249 H   0  0  0  0  0  0  0  0  0  0  0  0
   -0.5500   20.8852  -31.6993 H   0  0  0  0  0  0  0  0  0  0  0  0
   -2.3932   19.4090  -32.0641 H   0  0  0  0  0  0  0  0  0  0  0  0
   -3.9667   19.6725  -31.2368 H   0  0  0  0  0  0  0  0  0  0  0  0
   -6.2264   17.0842  -30.5117 H   0  0  0  0  0  0  0  0  0  0  0  0
   -4.2304   15.7695  -31.2476 H   0  0  0  0  0  0  0  0  0  0  0  0
   -3.9869   15.1019  -33.6439 H   0  0  0  0  0  0  0  0  0  0  0  0
   -5.7302   15.7590  -35.3064 H   0  0  0  0  0  0  0  0  0  0  0  0
   -7.7070   17.1023  -34.5821 H   0  0  0  0  0  0  0  0  0  0  0  0
   -4.3429   23.2113  -32.5223 H   0  0  0  0  0  0  0  0  0  0  0  0
   -5.7950   23.9052  -33.3537 H   0  0  0  0  0  0  0  0  0  0  0  0
   -5.0374   23.9782  -30.4191 H   0  0  0  0  0  0  0  0  0  0  0  0
   -5.5426   25.3230  -31.5695 H   0  0  0  0  0  0  0  0  0  0  0  0
   -7.1413   23.8555  -29.6683 H   0  0  0  0  0  0  0  0  0  0  0  0
   -7.5598   25.2639  -30.7669 H   0  0  0  0  0  0  0  0  0  0  0  0
   -9.0215   23.1536  -30.9305 H   0  0  0  0  0  0  0  0  0  0  0  0
   -8.3709   23.8742  -32.4512 H   0  0  0  0  0  0  0  0  0  0  0  0
   -4.5205   21.9969  -30.3707 H   0  0  0  0  0  0  0  0  0  0  0  0
   -3.5623   23.9366  -29.1287 H   0  0  0  0  0  0  0  0  0  0  0  0
   -2.0273   22.7134  -26.1311 H   0  0  0  0  0  0  0  0  0  0  0  0
   -2.8869   20.3917  -26.4002 H   0  0  0  0  0  0  0  0  0  0  0  0
   -1.4793   18.6549  -27.5073 H   0  0  0  0  0  0  0  0  0  0  0  0
    0.7821   19.2504  -28.3781 H   0  0  0  0  0  0  0  0  0  0  0  0
    1.6650   21.5646  -28.0986 H   0  0  0  0  0  0  0  0  0  0  0  0
  1  2  1  0
  2  3  1  0
  3  4  1  0
  4  5  2  0
  4  6  1  0
  6  7  2  0
  7  8  1  0
  8  9  2  0
  9 10  1  0
 10 11  1  0
 11 12  1  0
 12 13  2  0
 13 14  1  0
 14 15  1  0
 15 16  1  0
 16 17  2  0
 17 18  1  0
 18 19  2  0
 19 20  1  0
 20 21  2  0
 14 22  2  0
 22 23  1  0
 23 24  2  0
 24 25  1  0
 25 26  1  0
 26 27  1  0
 27 28  1  0
  9 29  1  0
 29 30  2  0
  2 31  1  0
 31 32  2  0
 32 33  1  0
 33 34  2  0
 34 35  1  0
 35 36  2  0
 30  6  1  0
 36 31  1  0
 24 12  1  0
 21 16  1  0
 28 23  1  0
  1 37  1  0
  1 38  1  0
  1 39  1  0
  2 40  1  1
  7 41  1  0
  8 42  1  0
 10 43  1  0
 10 44  1  0
 17 45  1  0
 18 46  1  0
 19 47  1  0
 20 48  1  0
 21 49  1  0
 25 50  1  0
 25 51  1  0
 26 52  1  0
 26 53  1  0
 27 54  1  0
 27 55  1  0
 28 56  1  0
 28 57  1  0
 29 58  1  0
 30 59  1  0
 32 60  1  0
 33 61  1  0
 34 62  1  0
 35 63  1  0
 36 64  1  0
M  CHG  1   3  -1
M  END
>  <UniqueID>  (28) 
28

>  <SMILES>  (28) 
C[C@H]([N-]C(=O)c1ccc(CSc2nc(Sc3ccccc3)nc3c2CCCC3)cc1)c1ccccc1

>  <Energy>  (28) 
73.65226135629946

>  <Genealogy>  (28) 
CC([N-]C(=O)c1ccc(CSc2nc(Sc3ccccc3)nc3c2CCCC3)cc1)c1ccccc1 (protonated)
C[C@H]([N-]C(=O)c1ccc(CSc2nc(Sc3ccccc3)nc3c2CCCC3)cc1)c1ccccc1 (chirality)
C[C@H]([N-]C(=O)c1ccc(CSc2nc(Sc3ccccc3)nc3c2CCCC3)cc1)c1ccccc1 (3D coordinates assigned)
C[C@H]([N-]C(=O)c1ccc(CSc2nc(Sc3ccccc3)nc3c2CCCC3)cc1)c1ccccc1 (nonaromatic ring conformer: 73.65226135629946 kcal/mol)

>  <smiles>  (28) 
CC(NC(=O)c1ccc(CSc2nc(Sc3ccccc3)nc3c2CCCC3)cc1)c1ccccc1

>  <score_type>  (28) 
oracle

>  <origin>  (28) 
adgpu

>  <m_score__min__energy>  (28) 
-13.52

>  <m_primary>  (28) 
energy

$$$$
28:0
     RDKit          3D

 62 65  0  0  0  0  0  0  0  0999 V2000
   -4.9160   14.9550  -31.5520 C   0  0  0  0  0  0  0  0  0  0  0  0
   -5.0310   15.3720  -33.0210 C   0  0  0  0  0  0  0  0  0  0  0  0
   -3.8320   14.8440  -33.8310 C   0  0  0  0  0  0  0  0  0  0  0  0
   -5.2460   16.8380  -33.1490 N   0  0  0  0  0  0  0  0  0  0  0  0
   -6.5590   17.1910  -33.7210 C   0  0  0  0  0  0  0  0  0  0  0  0
   -6.8860   18.6460  -33.3610 C   0  0  0  0  0  0  0  0  0  0  0  0
   -5.6780   19.4780  -33.4270 N   0  0  0  0  0  0  0  0  0  0  0  0
   -5.6160   20.7400  -32.7340 C   0  0  0  0  0  0  0  0  0  0  0  0
   -4.4150   21.4660  -32.6810 C   0  0  0  0  0  0  0  0  0  0  0  0
   -4.3420   22.6630  -31.9600 C   0  0  0  0  0  0  0  0  0  0  0  0
   -5.4790   23.1550  -31.2950 C   0  0  0  0  0  0  0  0  0  0  0  0
   -5.3690   24.6090  -30.3130 S   0  0  0  0  0  0  0  0  0  0  0  0
   -6.7310   25.2240  -30.1840 O   0  0  0  0  0  0  0  0  0  0  0  0
   -4.4580   25.6180  -30.9520 O   0  0  0  0  0  0  0  0  0  0  0  0
   -4.8010   24.1730  -28.7360 N   0  0  0  0  0  0  0  0  0  0  0  0
   -3.6210   23.3950  -28.5130 C   0  0  0  0  0  0  0  0  0  0  0  0
   -3.7000   22.0890  -28.0080 C   0  0  0  0  0  0  0  0  0  0  0  0
   -2.5370   21.3310  -27.8020 C   0  0  0  0  0  0  0  0  0  0  0  0
   -1.2790   21.8850  -28.1280 C   0  0  0  0  0  0  0  0  0  0  0  0
   -1.2000   23.1920  -28.6360 C   0  0  0  0  0  0  0  0  0  0  0  0
   -2.3660   23.9420  -28.8400 C   0  0  0  0  0  0  0  0  0  0  0  0
   -2.2840   25.2390  -29.3510 O   0  0  0  0  0  0  0  0  0  0  0  0
   -0.0140   21.1070  -27.8600 C   0  0  0  0  0  0  0  0  0  0  0  0
   -0.2290   19.6470  -27.8900 N   0  0  0  0  0  0  0  0  0  0  0  0
   -0.4210   19.1420  -29.2600 C   0  0  0  0  0  0  0  0  0  0  0  0
   -1.3250   19.2530  -26.9830 C   0  0  0  0  0  0  0  0  0  0  0  0
   -2.6690   19.8950  -27.3610 C   0  0  0  0  0  0  0  0  0  0  0  0
   -6.6850   22.4500  -31.3740 C   0  0  0  0  0  0  0  0  0  0  0  0
   -6.7560   21.2500  -32.0830 C   0  0  0  0  0  0  0  0  0  0  0  0
   -4.5390   19.0010  -34.2230 C   0  0  0  0  0  0  0  0  0  0  0  0
   -4.1260   17.5880  -33.7750 C   0  0  0  0  0  0  0  0  0  0  0  0
   -5.1530   15.8142  -30.9073 H   0  0  0  0  0  0  0  0  0  0  0  0
   -5.6220   14.1368  -31.3467 H   0  0  0  0  0  0  0  0  0  0  0  0
   -3.8904   14.6144  -31.3467 H   0  0  0  0  0  0  0  0  0  0  0  0
   -5.9252   14.9045  -33.4591 H   0  0  0  0  0  0  0  0  0  0  0  0
   -3.0475   14.4985  -33.1417 H   0  0  0  0  0  0  0  0  0  0  0  0
   -4.1581   14.0062  -34.4649 H   0  0  0  0  0  0  0  0  0  0  0  0
   -3.4342   15.6502  -34.4649 H   0  0  0  0  0  0  0  0  0  0  0  0
   -6.5265   17.0801  -34.8149 H   0  0  0  0  0  0  0  0  0  0  0  0
   -7.3332   16.5244  -33.3133 H   0  0  0  0  0  0  0  0  0  0  0  0
   -7.6321   19.0349  -34.0695 H   0  0  0  0  0  0  0  0  0  0  0  0
   -7.2829   18.6773  -32.3356 H   0  0  0  0  0  0  0  0  0  0  0  0
   -3.5261   21.0913  -33.2096 H   0  0  0  0  0  0  0  0  0  0  0  0
   -3.3943   23.2195  -31.9134 H   0  0  0  0  0  0  0  0  0  0  0  0
   -4.6825   21.6548  -27.7712 H   0  0  0  0  0  0  0  0  0  0  0  0
   -0.2190   23.6286  -28.8747 H   0  0  0  0  0  0  0  0  0  0  0  0
   -3.0930   25.7150  -29.7330 H   0  0  0  0  0  0  0  0  0  0  0  0
    0.7302   21.3694  -28.6264 H   0  0  0  0  0  0  0  0  0  0  0  0
    0.3329   21.3722  -26.8504 H   0  0  0  0  0  0  0  0  0  0  0  0
   -0.8117   18.1145  -29.2206 H   0  0  0  0  0  0  0  0  0  0  0  0
   -1.1369   19.7863  -29.7913 H   0  0  0  0  0  0  0  0  0  0  0  0
    0.5421   19.1480  -29.7913 H   0  0  0  0  0  0  0  0  0  0  0  0
   -1.4353   18.1591  -27.0191 H   0  0  0  0  0  0  0  0  0  0  0  0
   -1.0624   19.6030  -25.9738 H   0  0  0  0  0  0  0  0  0  0  0  0
   -3.1142   19.3160  -28.1835 H   0  0  0  0  0  0  0  0  0  0  0  0
   -3.3009   19.8858  -26.4607 H   0  0  0  0  0  0  0  0  0  0  0  0
   -7.5824   22.8439  -30.8744 H   0  0  0  0  0  0  0  0  0  0  0  0
   -7.7071   20.6997  -32.1336 H   0  0  0  0  0  0  0  0  0  0  0  0
   -4.8243   18.9756  -35.2851 H   0  0  0  0  0  0  0  0  0  0  0  0
   -3.6897   19.6845  -34.0761 H   0  0  0  0  0  0  0  0  0  0  0  0
   -3.7746   17.0280  -34.6542 H   0  0  0  0  0  0  0  0  0  0  0  0
   -3.3333   17.6957  -33.0200 H   0  0  0  0  0  0  0  0  0  0  0  0
  1  2  1  0
  2  3  1  0
  2  4  1  0
  4  5  1  0
  5  6  1  0
  6  7  1  0
  7  8  1  0
  8  9  2  0
  9 10  1  0
 10 11  2  0
 11 12  1  0
 12 13  2  0
 12 14  2  0
 12 15  1  0
 15 16  1  0
 16 17  2  0
 17 18  1  0
 18 19  2  0
 19 20  1  0
 20 21  2  0
 21 22  1  0
 19 23  1  0
 23 24  1  0
 24 25  1  0
 24 26  1  0
 26 27  1  0
 11 28  1  0
 28 29  2  0
  7 30  1  0
 30 31  1  0
 31  4  1  0
 29  8  1  0
 21 16  1  0
 27 18  1  0
  1 32  1  0
  1 33  1  0
  1 34  1  0
  2 35  1  0
  3 36  1  0
  3 37  1  0
  3 38  1  0
  5 39  1  0
  5 40  1  0
  6 41  1  0
  6 42  1  0
  9 43  1  0
 10 44  1  0
 17 45  1  0
 20 46  1  0
 22 47  1  0
 23 48  1  0
 23 49  1  0
 25 50  1  0
 25 51  1  0
 25 52  1  0
 26 53  1  0
 26 54  1  0
 27 55  1  0
 27 56  1  0
 28 57  1  0
 29 58  1  0
 30 59  1  0
 30 60  1  0
 31 61  1  0
 31 62  1  0
M  CHG  1  15  -1
M  END
>  <UniqueID>  (29) 
29

>  <SMILES>  (29) 
CC(C)N1CCN(c2ccc(S(=O)(=O)[N-]c3cc4c(cc3O)CN(C)CC4)cc2)CC1

>  <Energy>  (29) 
87.24765456857627

>  <Genealogy>  (29) 
CC(C)N1CCN(c2ccc(S(=O)(=O)[N-]c3cc4c(cc3O)CN(C)CC4)cc2)CC1 (protonated)
CC(C)N1CCN(c2ccc(S(=O)(=O)[N-]c3cc4c(cc3O)CN(C)CC4)cc2)CC1 (3D coordinates assigned)
CC(C)N1CCN(c2ccc(S(=O)(=O)[N-]c3cc4c(cc3O)CN(C)CC4)cc2)CC1 (nonaromatic ring conformer: 87.24765456857627 kcal/mol)

>  <smiles>  (29) 
CC(C)N1CCN(c2ccc(S(=O)(=O)Nc3cc4c(cc3O)CN(C)CC4)cc2)CC1

>  <score_type>  (29) 
oracle

>  <origin>  (29) 
adgpu

>  <m_score__min__energy>  (29) 
-13.27

>  <m_primary>  (29) 
energy

$$$$
29:0
     RDKit          3D

 59 62  0  0  0  0  0  0  0  0999 V2000
   -4.5580   25.6690  -31.2250 O   0  0  0  0  0  0  0  0  0  0  0  0
   -4.6130   24.7200  -30.3980 C   0  0  0  0  0  0  0  0  0  0  0  0
   -3.8680   24.8320  -29.1780 N   0  0  0  0  0  0  0  0  0  0  0  0
   -2.6680   24.1170  -28.8490 C   0  0  0  0  0  0  0  0  0  0  0  0
   -2.7790   22.8060  -28.3690 C   0  0  0  0  0  0  0  0  0  0  0  0
   -1.6350   22.0650  -28.0490 C   0  0  0  0  0  0  0  0  0  0  0  0
   -1.8030   20.4160  -27.4520 S   0  0  0  0  0  0  0  0  0  0  0  0
   -3.2560   20.0270  -27.4160 O   0  0  0  0  0  0  0  0  0  0  0  0
   -1.2550   20.3540  -26.0530 O   0  0  0  0  0  0  0  0  0  0  0  0
   -0.9140   19.3250  -28.4850 N   0  0  0  0  0  0  0  0  0  0  0  0
    0.4370   19.1080  -27.9400 C   0  0  0  0  0  0  0  0  0  0  0  0
    1.1580   17.9910  -28.7190 C   0  0  0  0  0  0  0  0  0  0  0  0
    0.5880   17.7970  -30.1330 C   0  0  0  0  0  0  0  0  0  0  0  0
    0.1730   19.1370  -30.7440 C   0  0  0  0  0  0  0  0  0  0  0  0
   -0.8460   19.8830  -29.8520 C   0  0  0  0  0  0  0  0  0  0  0  0
   -0.3700   22.6500  -28.1850 C   0  0  0  0  0  0  0  0  0  0  0  0
   -0.2510   23.9680  -28.6310 C   0  0  0  0  0  0  0  0  0  0  0  0
   -1.3920   24.7110  -28.9520 C   0  0  0  0  0  0  0  0  0  0  0  0
   -1.2480   26.0370  -29.3420 O   0  0  0  0  0  0  0  0  0  0  0  0
   -5.4770   23.5510  -30.6900 C   0  0  0  0  0  0  0  0  0  0  0  0
   -6.8300   23.5400  -30.3100 C   0  0  0  0  0  0  0  0  0  0  0  0
   -7.6340   22.4330  -30.5880 C   0  0  0  0  0  0  0  0  0  0  0  0
   -7.1040   21.3240  -31.2620 C   0  0  0  0  0  0  0  0  0  0  0  0
   -7.9140   20.2240  -31.5380 O   0  0  0  0  0  0  0  0  0  0  0  0
   -5.7580   21.3290  -31.6600 C   0  0  0  0  0  0  0  0  0  0  0  0
   -5.0880   19.9470  -32.5320 S   0  0  0  0  0  0  0  0  0  0  0  0
   -5.5080   18.6630  -31.8700 O   0  0  0  0  0  0  0  0  0  0  0  0
   -5.6100   19.9590  -33.9420 O   0  0  0  0  0  0  0  0  0  0  0  0
   -3.3470   20.0740  -32.5510 N   0  0  0  0  0  0  0  0  0  0  0  0
   -2.9020   21.1660  -33.4140 C   0  0  0  0  0  0  0  0  0  0  0  0
   -1.5060   20.7960  -33.8920 C   0  0  0  0  0  0  0  0  0  0  0  0
   -1.4020   19.2900  -33.7020 C   0  0  0  0  0  0  0  0  0  0  0  0
   -2.7320   18.8660  -33.0990 C   0  0  0  0  0  0  0  0  0  0  0  0
   -4.9530   22.4430  -31.3790 C   0  0  0  0  0  0  0  0  0  0  0  0
   -3.7740   22.3544  -28.2423 H   0  0  0  0  0  0  0  0  0  0  0  0
    1.0155   20.0398  -28.0239 H   0  0  0  0  0  0  0  0  0  0  0  0
    0.3521   18.8092  -26.8848 H   0  0  0  0  0  0  0  0  0  0  0  0
    2.2240   18.2496  -28.8008 H   0  0  0  0  0  0  0  0  0  0  0  0
    1.0110   17.0506  -28.1676 H   0  0  0  0  0  0  0  0  0  0  0  0
    1.3555   17.3332  -30.7700 H   0  0  0  0  0  0  0  0  0  0  0  0
   -0.2998   17.1508  -30.0680 H   0  0  0  0  0  0  0  0  0  0  0  0
    1.0676   19.7655  -30.8651 H   0  0  0  0  0  0  0  0  0  0  0  0
   -0.3039   18.9373  -31.7149 H   0  0  0  0  0  0  0  0  0  0  0  0
   -0.5509   20.9407  -29.7874 H   0  0  0  0  0  0  0  0  0  0  0  0
   -1.8394   19.7686  -30.3104 H   0  0  0  0  0  0  0  0  0  0  0  0
    0.5320   22.0700  -27.9400 H   0  0  0  0  0  0  0  0  0  0  0  0
    0.7450   24.4242  -28.7304 H   0  0  0  0  0  0  0  0  0  0  0  0
   -7.2584   24.4095  -29.7900 H   0  0  0  0  0  0  0  0  0  0  0  0
   -8.6890   22.4310  -30.2765 H   0  0  0  0  0  0  0  0  0  0  0  0
   -7.5460   19.3910  -31.9830 H   0  0  0  0  0  0  0  0  0  0  0  0
   -3.5817   21.2735  -34.2722 H   0  0  0  0  0  0  0  0  0  0  0  0
   -2.8969   22.1240  -32.8734 H   0  0  0  0  0  0  0  0  0  0  0  0
   -1.3793   21.0602  -34.9523 H   0  0  0  0  0  0  0  0  0  0  0  0
   -0.7256   21.3344  -33.3341 H   0  0  0  0  0  0  0  0  0  0  0  0
   -1.2410   18.7904  -34.6687 H   0  0  0  0  0  0  0  0  0  0  0  0
   -0.5545   19.0168  -33.0561 H   0  0  0  0  0  0  0  0  0  0  0  0
   -3.3784   18.4296  -33.8747 H   0  0  0  0  0  0  0  0  0  0  0  0
   -2.5885   18.1049  -32.3179 H   0  0  0  0  0  0  0  0  0  0  0  0
   -3.9012   22.4497  -31.7010 H   0  0  0  0  0  0  0  0  0  0  0  0
  1  2  2  0
  2  3  1  0
  3  4  1  0
  4  5  2  0
  5  6  1  0
  6  7  1  0
  7  8  2  0
  7  9  2  0
  7 10  1  0
 10 11  1  0
 11 12  1  0
 12 13  1  0
 13 14  1  0
 14 15  1  0
  6 16  2  0
 16 17  1  0
 17 18  2  0
 18 19  1  0
  2 20  1  0
 20 21  2  0
 21 22  1  0
 22 23  2  0
 23 24  1  0
 23 25  1  0
 25 26  1  0
 26 27  2  0
 26 28  2  0
 26 29  1  0
 29 30  1  0
 30 31  1  0
 31 32  1  0
 32 33  1  0
 25 34  2  0
 18  4  1  0
 34 20  1  0
 15 10  1  0
 33 29  1  0
  5 35  1  0
 11 36  1  0
 11 37  1  0
 12 38  1  0
 12 39  1  0
 13 40  1  0
 13 41  1  0
 14 42  1  0
 14 43  1  0
 15 44  1  0
 15 45  1  0
 16 46  1  0
 17 47  1  0
 21 48  1  0
 22 49  1  0
 24 50  1  0
 30 51  1  0
 30 52  1  0
 31 53  1  0
 31 54  1  0
 32 55  1  0
 32 56  1  0
 33 57  1  0
 33 58  1  0
 34 59  1  0
M  CHG  2   3  -1  19  -1
M  END
>  <UniqueID>  (30) 
30

>  <SMILES>  (30) 
O=C([N-]c1cc(S(=O)(=O)N2CCCCC2)ccc1[O-])c1ccc(O)c(S(=O)(=O)N2CCCC2)c1

>  <Energy>  (30) 
72.939439307956

>  <Genealogy>  (30) 
O=C([N-]c1cc(S(=O)(=O)N2CCCCC2)ccc1[O-])c1ccc(O)c(S(=O)(=O)N2CCCC2)c1 (protonated)
O=C([N-]c1cc(S(=O)(=O)N2CCCCC2)ccc1[O-])c1ccc(O)c(S(=O)(=O)N2CCCC2)c1 (3D coordinates assigned)
O=C([N-]c1cc(S(=O)(=O)N2CCCCC2)ccc1[O-])c1ccc(O)c(S(=O)(=O)N2CCCC2)c1 (nonaromatic ring conformer: 72.939439307956 kcal/mol)

>  <smiles>  (30) 
O=C(Nc1cc(S(=O)(=O)N2CCCCC2)ccc1O)c1ccc(O)c(S(=O)(=O)N2CCCC2)c1

>  <score_type>  (30) 
oracle

>  <origin>  (30) 
adgpu

>  <m_score__min__energy>  (30) 
-14.289999999999999

>  <m_primary>  (30) 
energy

$$$$
30:0
     RDKit          3D

 42 44  0  0  0  0  0  0  0  0999 V2000
   -8.4600   19.1180  -32.2310 C   0  0  0  0  0  0  0  0  0  0  0  0
   -7.5210   19.9770  -33.0710 C   0  0  0  0  0  0  0  0  0  0  0  0
   -7.0420   21.1630  -32.2820 C   0  0  0  0  0  0  0  0  0  0  0  0
   -5.6670   21.3730  -32.0880 C   0  0  0  0  0  0  0  0  0  0  0  0
   -5.2190   22.5030  -31.3970 C   0  0  0  0  0  0  0  0  0  0  0  0
   -6.1380   23.4370  -30.8990 C   0  0  0  0  0  0  0  0  0  0  0  0
   -5.5890   24.8690  -30.0340 S   0  0  0  0  0  0  0  0  0  0  0  0
   -6.7750   25.7420  -29.7360 O   0  0  0  0  0  0  0  0  0  0  0  0
   -4.6130   25.6560  -30.8630 O   0  0  0  0  0  0  0  0  0  0  0  0
   -4.8400   24.4040  -28.5410 N   0  0  0  0  0  0  0  0  0  0  0  0
   -3.7490   23.4820  -28.4090 C   0  0  0  0  0  0  0  0  0  0  0  0
   -3.9150   22.2100  -27.8320 C   0  0  0  0  0  0  0  0  0  0  0  0
   -2.8340   21.3240  -27.7350 C   0  0  0  0  0  0  0  0  0  0  0  0
   -1.5680   21.7090  -28.2130 C   0  0  0  0  0  0  0  0  0  0  0  0
   -1.4040   22.9740  -28.7930 C   0  0  0  0  0  0  0  0  0  0  0  0
   -2.4820   23.8630  -28.8820 C   0  0  0  0  0  0  0  0  0  0  0  0
   -2.3050   25.1290  -29.4400 O   0  0  0  0  0  0  0  0  0  0  0  0
   -0.4120   20.7370  -28.1840 C   0  0  0  0  0  0  0  0  0  0  0  0
   -0.5790   19.6930  -27.0710 C   0  0  0  0  0  0  0  0  0  0  0  0
   -1.9530   19.0250  -27.1670 C   0  0  0  0  0  0  0  0  0  0  0  0
   -3.0100   20.0330  -27.1290 N   0  0  0  0  0  0  0  0  0  0  0  0
   -7.5100   23.2310  -31.0950 C   0  0  0  0  0  0  0  0  0  0  0  0
   -7.9600   22.1040  -31.7860 C   0  0  0  0  0  0  0  0  0  0  0  0
   -8.2643   19.2971  -31.1635 H   0  0  0  0  0  0  0  0  0  0  0  0
   -9.5028   19.3813  -32.4618 H   0  0  0  0  0  0  0  0  0  0  0  0
   -8.2903   18.0560  -32.4618 H   0  0  0  0  0  0  0  0  0  0  0  0
   -6.6545   19.3724  -33.3770 H   0  0  0  0  0  0  0  0  0  0  0  0
   -8.0657   20.3364  -33.9565 H   0  0  0  0  0  0  0  0  0  0  0  0
   -4.9404   20.6465  -32.4808 H   0  0  0  0  0  0  0  0  0  0  0  0
   -4.1411   22.6597  -31.2436 H   0  0  0  0  0  0  0  0  0  0  0  0
   -4.9027   21.9081  -27.4534 H   0  0  0  0  0  0  0  0  0  0  0  0
   -0.4190   23.2714  -29.1821 H   0  0  0  0  0  0  0  0  0  0  0  0
   -3.0900   25.6860  -29.7500 H   0  0  0  0  0  0  0  0  0  0  0  0
   -0.3562   20.2197  -29.1532 H   0  0  0  0  0  0  0  0  0  0  0  0
    0.5097   21.3045  -27.9878 H   0  0  0  0  0  0  0  0  0  0  0  0
    0.2041   18.9271  -27.1721 H   0  0  0  0  0  0  0  0  0  0  0  0
   -0.4938   20.1947  -26.0958 H   0  0  0  0  0  0  0  0  0  0  0  0
   -2.0192   18.4651  -28.1115 H   0  0  0  0  0  0  0  0  0  0  0  0
   -2.0792   18.3415  -26.3144 H   0  0  0  0  0  0  0  0  0  0  0  0
   -3.9170   19.7910  -26.6680 H   0  0  0  0  0  0  0  0  0  0  0  0
   -8.2351   23.9595  -30.7032 H   0  0  0  0  0  0  0  0  0  0  0  0
   -9.0382   21.9522  -31.9427 H   0  0  0  0  0  0  0  0  0  0  0  0
  1  2  1  0
  2  3  1  0
  3  4  2  0
  4  5  1  0
  5  6  2  0
  6  7  1  0
  7  8  2  0
  7  9  2  0
  7 10  1  0
 10 11  1  0
 11 12  2  0
 12 13  1  0
 13 14  2  0
 14 15  1  0
 15 16  2  0
 16 17  1  0
 14 18  1  0
 18 19  1  0
 19 20  1  0
 20 21  1  0
  6 22  1  0
 22 23  2  0
 23  3  1  0
 16 11  1  0
 21 13  1  0
  1 24  1  0
  1 25  1  0
  1 26  1  0
  2 27  1  0
  2 28  1  0
  4 29  1  0
  5 30  1  0
 12 31  1  0
 15 32  1  0
 17 33  1  0
 18 34  1  0
 18 35  1  0
 19 36  1  0
 19 37  1  0
 20 38  1  0
 20 39  1  0
 21 40  1  0
 22 41  1  0
 23 42  1  0
M  CHG  1  10  -1
M  END
>  <UniqueID>  (31) 
31

>  <SMILES>  (31) 
CCc1ccc(S(=O)(=O)[N-]c2cc3c(cc2O)CCCN3)cc1

>  <Energy>  (31) 
41.65632522462251

>  <Genealogy>  (31) 
CCc1ccc(S(=O)(=O)[N-]c2cc3c(cc2O)CCCN3)cc1 (protonated)
CCc1ccc(S(=O)(=O)[N-]c2cc3c(cc2O)CCCN3)cc1 (3D coordinates assigned)
CCc1ccc(S(=O)(=O)[N-]c2cc3c(cc2O)CCCN3)cc1 (nonaromatic ring conformer: 41.65632522462251 kcal/mol)

>  <smiles>  (31) 
CCc1ccc(S(=O)(=O)Nc2cc3c(cc2O)CCCN3)cc1

>  <score_type>  (31) 
oracle

>  <origin>  (31) 
adgpu

>  <m_score__min__energy>  (31) 
-11.31

>  <m_primary>  (31) 
energy

$$$$
31:0
     RDKit          3D

 22 23  0  0  0  0  0  0  0  0999 V2000
   -3.5300   22.0800  -32.6680 N   0  0  0  0  0  0  0  0  0  0  0  0
   -4.2580   22.6590  -31.9810 C   0  0  0  0  0  0  0  0  0  0  0  0
   -5.1660   23.3820  -31.1240 C   0  0  0  0  0  0  0  0  0  0  0  0
   -6.4910   22.9770  -30.8460 C   0  0  0  0  0  0  0  0  0  0  0  0
   -7.1150   21.7230  -31.3330 C   0  0  0  0  0  0  0  0  0  0  0  0
   -8.4990   21.6520  -31.5740 C   0  0  0  0  0  0  0  0  0  0  0  0
   -9.0750   20.4690  -32.0450 C   0  0  0  0  0  0  0  0  0  0  0  0
   -8.2770   19.3480  -32.2870 C   0  0  0  0  0  0  0  0  0  0  0  0
   -8.8380   18.2020  -32.7440 F   0  0  0  0  0  0  0  0  0  0  0  0
   -6.8990   19.4110  -32.0620 C   0  0  0  0  0  0  0  0  0  0  0  0
   -6.3190   20.5930  -31.5920 C   0  0  0  0  0  0  0  0  0  0  0  0
   -7.1870   23.8950  -30.0580 C   0  0  0  0  0  0  0  0  0  0  0  0
   -6.1700   25.1860  -29.6960 S   0  0  0  0  0  0  0  0  0  0  0  0
   -4.8440   24.6020  -30.5410 C   0  0  0  0  0  0  0  0  0  0  0  0
   -3.5930   25.2810  -30.6510 N   0  0  0  0  0  0  0  0  0  0  0  0
   -9.1317   22.5329  -31.3906 H   0  0  0  0  0  0  0  0  0  0  0  0
  -10.1590   20.4203  -32.2256 H   0  0  0  0  0  0  0  0  0  0  0  0
   -6.2700   18.5294  -32.2550 H   0  0  0  0  0  0  0  0  0  0  0  0
   -5.2329   20.6394  -31.4237 H   0  0  0  0  0  0  0  0  0  0  0  0
   -8.2310   23.7914  -29.7272 H   0  0  0  0  0  0  0  0  0  0  0  0
   -3.1480   25.4080  -31.5870 H   0  0  0  0  0  0  0  0  0  0  0  0
   -3.1100   25.6590  -29.8060 H   0  0  0  0  0  0  0  0  0  0  0  0
  1  2  3  0
  2  3  1  0
  3  4  1  0
  4  5  1  0
  5  6  2  0
  6  7  1  0
  7  8  2  0
  8  9  1  0
  8 10  1  0
 10 11  2  0
  4 12  2  0
 12 13  1  0
 13 14  1  0
 14 15  1  0
 14  3  2  0
 11  5  1  0
  6 16  1  0
  7 17  1  0
 10 18  1  0
 11 19  1  0
 12 20  1  0
 15 21  1  0
 15 22  1  0
M  END
>  <UniqueID>  (32) 
32

>  <SMILES>  (32) 
N#Cc1c(-c2ccc(F)cc2)csc1N

>  <Energy>  (32) 
53.418526627921636

>  <Genealogy>  (32) 
N#Cc1c(-c2ccc(F)cc2)csc1N (3D coordinates assigned)
N#Cc1c(-c2ccc(F)cc2)csc1N (optimized conformer: 53.418526627921636 kcal/mol)

>  <smiles>  (32) 
N#Cc1c(-c2ccc(F)cc2)csc1N

>  <score_type>  (32) 
oracle

>  <origin>  (32) 
adgpu

>  <m_score__min__energy>  (32) 
-7.0199999999999996

>  <m_primary>  (32) 
energy

$$$$
32:0
     RDKit          3D

 50 52  0  0  0  0  0  0  0  0999 V2000
   -3.3830   19.0220  -26.5090 C   0  0  0  0  0  0  0  0  0  0  0  0
   -2.0610   19.5850  -26.0010 C   0  0  0  0  0  0  0  0  0  0  0  0
   -1.3110   20.2070  -27.0900 N   0  0  0  0  0  0  0  0  0  0  0  0
   -1.9120   20.7940  -28.2520 C   0  0  0  0  0  0  0  0  0  0  0  0
   -2.5530   20.0660  -29.0590 O   0  0  0  0  0  0  0  0  0  0  0  0
   -1.7580   22.2440  -28.5130 C   0  0  0  0  0  0  0  0  0  0  0  0
   -0.6340   22.9380  -28.0310 C   0  0  0  0  0  0  0  0  0  0  0  0
   -0.4760   24.2990  -28.2960 C   0  0  0  0  0  0  0  0  0  0  0  0
   -1.4220   24.9810  -29.0570 C   0  0  0  0  0  0  0  0  0  0  0  0
   -1.2360   26.3280  -29.3300 O   0  0  0  0  0  0  0  0  0  0  0  0
   -2.5510   24.3100  -29.5500 C   0  0  0  0  0  0  0  0  0  0  0  0
   -3.4910   25.0370  -30.3550 N   0  0  0  0  0  0  0  0  0  0  0  0
   -5.2030   25.1060  -30.1080 S   0  0  0  0  0  0  0  0  0  0  0  0
   -5.4920   25.2220  -28.6350 O   0  0  0  0  0  0  0  0  0  0  0  0
   -5.7760   26.2910  -30.8300 O   0  0  0  0  0  0  0  0  0  0  0  0
   -5.9280   23.6300  -30.7350 C   0  0  0  0  0  0  0  0  0  0  0  0
   -7.3200   23.4640  -30.7500 C   0  0  0  0  0  0  0  0  0  0  0  0
   -7.8840   22.2800  -31.2390 C   0  0  0  0  0  0  0  0  0  0  0  0
   -7.0620   21.2510  -31.7200 C   0  0  0  0  0  0  0  0  0  0  0  0
   -7.7670   19.7690  -32.3600 S   0  0  0  0  0  0  0  0  0  0  0  0
   -8.7530   20.1070  -33.4480 O   0  0  0  0  0  0  0  0  0  0  0  0
   -8.4970   19.0520  -31.2590 O   0  0  0  0  0  0  0  0  0  0  0  0
   -6.4950   18.7490  -32.9790 N   0  0  0  0  0  0  0  0  0  0  0  0
   -6.0880   19.1680  -34.3200 C   0  0  0  0  0  0  0  0  0  0  0  0
   -5.5200   17.9340  -35.0060 C   0  0  0  0  0  0  0  0  0  0  0  0
   -6.0940   16.7550  -34.2350 C   0  0  0  0  0  0  0  0  0  0  0  0
   -6.9480   17.3670  -33.1340 C   0  0  0  0  0  0  0  0  0  0  0  0
   -5.6710   21.4190  -31.7150 C   0  0  0  0  0  0  0  0  0  0  0  0
   -5.1050   22.6030  -31.2230 C   0  0  0  0  0  0  0  0  0  0  0  0
   -2.7250   22.9450  -29.2590 C   0  0  0  0  0  0  0  0  0  0  0  0
   -4.0191   18.7511  -25.6534 H   0  0  0  0  0  0  0  0  0  0  0  0
   -3.8939   19.7806  -27.1201 H   0  0  0  0  0  0  0  0  0  0  0  0
   -3.1901   18.1279  -27.1201 H   0  0  0  0  0  0  0  0  0  0  0  0
   -2.2637   20.3387  -25.2258 H   0  0  0  0  0  0  0  0  0  0  0  0
   -1.4625   18.7609  -25.5854 H   0  0  0  0  0  0  0  0  0  0  0  0
    0.1259   22.4045  -27.4411 H   0  0  0  0  0  0  0  0  0  0  0  0
    0.3998   24.8355  -27.9020 H   0  0  0  0  0  0  0  0  0  0  0  0
   -7.9716   24.2675  -30.3760 H   0  0  0  0  0  0  0  0  0  0  0  0
   -8.9770   22.1562  -31.2460 H   0  0  0  0  0  0  0  0  0  0  0  0
   -6.9560   19.5476  -34.8790 H   0  0  0  0  0  0  0  0  0  0  0  0
   -5.3427   19.9757  -34.2747 H   0  0  0  0  0  0  0  0  0  0  0  0
   -5.8355   17.8976  -36.0592 H   0  0  0  0  0  0  0  0  0  0  0  0
   -4.4200   17.9311  -35.0062 H   0  0  0  0  0  0  0  0  0  0  0  0
   -6.7101   16.1270  -34.8953 H   0  0  0  0  0  0  0  0  0  0  0  0
   -5.3023   16.1097  -33.8266 H   0  0  0  0  0  0  0  0  0  0  0  0
   -8.0100   17.3447  -33.4197 H   0  0  0  0  0  0  0  0  0  0  0  0
   -6.8465   16.8065  -32.1930 H   0  0  0  0  0  0  0  0  0  0  0  0
   -5.0209   20.6188  -32.0986 H   0  0  0  0  0  0  0  0  0  0  0  0
   -4.0121   22.7279  -31.2193 H   0  0  0  0  0  0  0  0  0  0  0  0
   -3.6235   22.4209  -29.6169 H   0  0  0  0  0  0  0  0  0  0  0  0
  1  2  1  0
  2  3  1  0
  3  4  1  0
  4  5  2  0
  4  6  1  0
  6  7  2  0
  7  8  1  0
  8  9  2  0
  9 10  1  0
  9 11  1  0
 11 12  1  0
 12 13  1  0
 13 14  2  0
 13 15  2  0
 13 16  1  0
 16 17  2  0
 17 18  1  0
 18 19  2  0
 19 20  1  0
 20 21  2  0
 20 22  2  0
 20 23  1  0
 23 24  1  0
 24 25  1  0
 25 26  1  0
 26 27  1  0
 19 28  1  0
 28 29  2  0
 11 30  2  0
 30  6  1  0
 29 16  1  0
 27 23  1  0
  1 31  1  0
  1 32  1  0
  1 33  1  0
  2 34  1  0
  2 35  1  0
  7 36  1  0
  8 37  1  0
 17 38  1  0
 18 39  1  0
 24 40  1  0
 24 41  1  0
 25 42  1  0
 25 43  1  0
 26 44  1  0
 26 45  1  0
 27 46  1  0
 27 47  1  0
 28 48  1  0
 29 49  1  0
 30 50  1  0
M  CHG  3   3  -1  10  -1  12  -1
M  END
>  <UniqueID>  (33) 
33

>  <SMILES>  (33) 
CC[N-]C(=O)c1ccc([O-])c([N-]S(=O)(=O)c2ccc(S(=O)(=O)N3CCCC3)cc2)c1

>  <Energy>  (33) 
52.90325123314904

>  <Genealogy>  (33) 
CC[N-]C(=O)c1ccc([O-])c([N-]S(=O)(=O)c2ccc(S(=O)(=O)N3CCCC3)cc2)c1 (protonated)
CC[N-]C(=O)c1ccc([O-])c([N-]S(=O)(=O)c2ccc(S(=O)(=O)N3CCCC3)cc2)c1 (3D coordinates assigned)
CC[N-]C(=O)c1ccc([O-])c([N-]S(=O)(=O)c2ccc(S(=O)(=O)N3CCCC3)cc2)c1 (nonaromatic ring conformer: 52.90325123314904 kcal/mol)

>  <smiles>  (33) 
CCNC(=O)c1ccc(O)c(NS(=O)(=O)c2ccc(S(=O)(=O)N3CCCC3)cc2)c1

>  <score_type>  (33) 
oracle

>  <origin>  (33) 
adgpu

>  <m_score__min__energy>  (33) 
-14.970000000000001

>  <m_primary>  (33) 
energy

$$$$
33:0
     RDKit          3D

 69 72  0  0  0  0  0  0  0  0999 V2000
   -8.1510   17.8980  -32.3140 C   0  0  0  0  0  0  0  0  0  0  0  0
   -7.4660   19.1930  -32.4190 N   0  0  0  0  0  0  0  0  0  0  0  0
   -6.1800   19.1460  -31.7130 C   0  0  0  0  0  0  0  0  0  0  0  0
   -8.4690   20.4540  -31.7390 S   0  0  0  0  0  0  0  0  0  0  0  0
   -9.1210   19.9470  -30.4830 O   0  0  0  0  0  0  0  0  0  0  0  0
   -9.5540   20.8130  -32.7150 O   0  0  0  0  0  0  0  0  0  0  0  0
   -7.5270   21.8990  -31.3610 C   0  0  0  0  0  0  0  0  0  0  0  0
   -7.3940   22.3250  -30.0330 C   0  0  0  0  0  0  0  0  0  0  0  0
   -6.6390   23.4610  -29.7290 C   0  0  0  0  0  0  0  0  0  0  0  0
   -6.0000   24.1850  -30.7520 C   0  0  0  0  0  0  0  0  0  0  0  0
   -5.1870   25.3800  -30.4370 C   0  0  0  0  0  0  0  0  0  0  0  0
   -5.7520   26.5000  -30.3180 O   0  0  0  0  0  0  0  0  0  0  0  0
   -3.7720   25.2950  -30.2190 N   0  0  0  0  0  0  0  0  0  0  0  0
   -3.0200   24.0780  -30.1030 C   0  0  0  0  0  0  0  0  0  0  0  0
   -2.1500   23.8560  -29.0250 C   0  0  0  0  0  0  0  0  0  0  0  0
   -1.4290   22.6660  -28.9390 C   0  0  0  0  0  0  0  0  0  0  0  0
   -1.5690   21.6770  -29.9210 C   0  0  0  0  0  0  0  0  0  0  0  0
   -0.7980   20.4740  -29.8030 N   0  0  0  0  0  0  0  0  0  0  0  0
    0.3480   20.2760  -30.7000 C   0  0  0  0  0  0  0  0  0  0  0  0
    1.2350   19.1220  -30.2250 C   0  0  0  0  0  0  0  0  0  0  0  0
    1.5770   19.2770  -28.7350 C   0  0  0  0  0  0  0  0  0  0  0  0
    0.3410   19.5290  -27.8370 C   0  0  0  0  0  0  0  0  0  0  0  0
   -0.9730   19.6200  -28.6220 C   0  0  0  0  0  0  0  0  0  0  0  0
   -2.4640   21.8780  -30.9960 C   0  0  0  0  0  0  0  0  0  0  0  0
   -2.6490   20.6730  -32.2800 S   0  0  0  0  0  0  0  0  0  0  0  0
   -2.3660   19.3080  -31.7190 O   0  0  0  0  0  0  0  0  0  0  0  0
   -4.0560   20.7080  -32.8030 O   0  0  0  0  0  0  0  0  0  0  0  0
   -1.5670   21.0330  -33.6000 N   0  0  0  0  0  0  0  0  0  0  0  0
   -1.1740   19.8180  -34.3330 C   0  0  0  0  0  0  0  0  0  0  0  0
   -2.3290   18.8320  -34.3790 C   0  0  0  0  0  0  0  0  0  0  0  0
   -1.6830   17.4700  -34.5710 C   0  0  0  0  0  0  0  0  0  0  0  0
   -0.2770   17.5720  -33.9820 C   0  0  0  0  0  0  0  0  0  0  0  0
   -0.0290   19.0460  -33.6710 C   0  0  0  0  0  0  0  0  0  0  0  0
   -3.1890   23.0810  -31.0670 C   0  0  0  0  0  0  0  0  0  0  0  0
   -6.1480   23.7620  -32.0850 C   0  0  0  0  0  0  0  0  0  0  0  0
   -6.9010   22.6230  -32.3840 C   0  0  0  0  0  0  0  0  0  0  0  0
   -8.2873   17.6403  -31.2533 H   0  0  0  0  0  0  0  0  0  0  0  0
   -9.1333   17.9619  -32.8050 H   0  0  0  0  0  0  0  0  0  0  0  0
   -7.5454   17.1220  -32.8050 H   0  0  0  0  0  0  0  0  0  0  0  0
   -6.3573   19.1525  -30.6274 H   0  0  0  0  0  0  0  0  0  0  0  0
   -5.6423   18.2276  -31.9913 H   0  0  0  0  0  0  0  0  0  0  0  0
   -5.5767   20.0227  -31.9913 H   0  0  0  0  0  0  0  0  0  0  0  0
   -7.8862   21.7627  -29.2258 H   0  0  0  0  0  0  0  0  0  0  0  0
   -6.5438   23.7909  -28.6840 H   0  0  0  0  0  0  0  0  0  0  0  0
   -2.0364   24.6234  -28.2451 H   0  0  0  0  0  0  0  0  0  0  0  0
   -0.7448   22.5024  -28.0934 H   0  0  0  0  0  0  0  0  0  0  0  0
   -0.0231   20.0499  -31.7105 H   0  0  0  0  0  0  0  0  0  0  0  0
    0.9494   21.1971  -30.7026 H   0  0  0  0  0  0  0  0  0  0  0  0
    0.7024   18.1715  -30.3762 H   0  0  0  0  0  0  0  0  0  0  0  0
    2.1695   19.1326  -30.8051 H   0  0  0  0  0  0  0  0  0  0  0  0
    2.0720   18.3556  -28.3944 H   0  0  0  0  0  0  0  0  0  0  0  0
    2.2267   20.1599  -28.6439 H   0  0  0  0  0  0  0  0  0  0  0  0
    0.2598   18.7026  -27.1155 H   0  0  0  0  0  0  0  0  0  0  0  0
    0.4916   20.4996  -27.3418 H   0  0  0  0  0  0  0  0  0  0  0  0
   -1.2751   18.6123  -28.9434 H   0  0  0  0  0  0  0  0  0  0  0  0
   -1.7489   20.0554  -27.9752 H   0  0  0  0  0  0  0  0  0  0  0  0
   -2.0390   21.7140  -34.2380 H   0  0  0  0  0  0  0  0  0  0  0  0
   -0.8659   20.1795  -35.3251 H   0  0  0  0  0  0  0  0  0  0  0  0
   -2.8977   18.8599  -33.4378 H   0  0  0  0  0  0  0  0  0  0  0  0
   -3.0388   19.0677  -35.1857 H   0  0  0  0  0  0  0  0  0  0  0  0
   -2.2612   16.6970  -34.0435 H   0  0  0  0  0  0  0  0  0  0  0  0
   -1.6503   17.1907  -35.6345 H   0  0  0  0  0  0  0  0  0  0  0  0
   -0.2092   16.9749  -33.0606 H   0  0  0  0  0  0  0  0  0  0  0  0
    0.4734   17.1884  -34.6889 H   0  0  0  0  0  0  0  0  0  0  0  0
   -0.0344   19.2130  -32.5838 H   0  0  0  0  0  0  0  0  0  0  0  0
    0.9499   19.3772  -34.0480 H   0  0  0  0  0  0  0  0  0  0  0  0
   -3.8986   23.2391  -31.8925 H   0  0  0  0  0  0  0  0  0  0  0  0
   -5.6690   24.3301  -32.8961 H   0  0  0  0  0  0  0  0  0  0  0  0
   -7.0026   22.2933  -33.4285 H   0  0  0  0  0  0  0  0  0  0  0  0
  1  2  1  0
  2  3  1  0
  2  4  1  0
  4  5  2  0
  4  6  2  0
  4  7  1  0
  7  8  2  0
  8  9  1  0
  9 10  2  0
 10 11  1  0
 11 12  2  0
 11 13  1  0
 13 14  1  0
 14 15  2  0
 15 16  1  0
 16 17  2  0
 17 18  1  0
 18 19  1  0
 19 20  1  0
 20 21  1  0
 21 22  1  0
 22 23  1  0
 17 24  1  0
 24 25  1  0
 25 26  2  0
 25 27  2  0
 25 28  1  0
 28 29  1  0
 29 30  1  0
 30 31  1  0
 31 32  1  0
 32 33  1  0
 24 34  2  0
 10 35  1  0
 35 36  2  0
 36  7  1  0
 34 14  1  0
 23 18  1  0
 33 29  1  0
  1 37  1  0
  1 38  1  0
  1 39  1  0
  3 40  1  0
  3 41  1  0
  3 42  1  0
  8 43  1  0
  9 44  1  0
 15 45  1  0
 16 46  1  0
 19 47  1  0
 19 48  1  0
 20 49  1  0
 20 50  1  0
 21 51  1  0
 21 52  1  0
 22 53  1  0
 22 54  1  0
 23 55  1  0
 23 56  1  0
 28 57  1  0
 29 58  1  0
 30 59  1  0
 30 60  1  0
 31 61  1  0
 31 62  1  0
 32 63  1  0
 32 64  1  0
 33 65  1  0
 33 66  1  0
 34 67  1  0
 35 68  1  0
 36 69  1  0
M  CHG  1  13  -1
M  END
>  <UniqueID>  (34) 
34

>  <SMILES>  (34) 
CN(C)S(=O)(=O)c1ccc(C(=O)[N-]c2ccc(N3CCCCC3)c(S(=O)(=O)NC3CCCC3)c2)cc1

>  <Energy>  (34) 
82.62965625056853

>  <Genealogy>  (34) 
CN(C)S(=O)(=O)c1ccc(C(=O)[N-]c2ccc(N3CCCCC3)c(S(=O)(=O)NC3CCCC3)c2)cc1 (protonated)
CN(C)S(=O)(=O)c1ccc(C(=O)[N-]c2ccc(N3CCCCC3)c(S(=O)(=O)NC3CCCC3)c2)cc1 (3D coordinates assigned)
CN(C)S(=O)(=O)c1ccc(C(=O)[N-]c2ccc(N3CCCCC3)c(S(=O)(=O)NC3CCCC3)c2)cc1 (nonaromatic ring conformer: 82.62965625056853 kcal/mol)

>  <smiles>  (34) 
CN(C)S(=O)(=O)c1ccc(C(=O)Nc2ccc(N3CCCCC3)c(S(=O)(=O)NC3CCCC3)c2)cc1

>  <score_type>  (34) 
oracle

>  <origin>  (34) 
adgpu

>  <m_score__min__energy>  (34) 
-12.890000000000001

>  <m_primary>  (34) 
energy

$$$$
34:0
     RDKit          3D

 48 51  0  0  1  0  0  0  0  0999 V2000
   -2.2390   21.1720  -33.4130 C   0  0  0  0  0  0  0  0  0  0  0  0
   -3.4600   21.8250  -33.0730 O   0  0  0  0  0  0  0  0  0  0  0  0
   -4.5730   21.0240  -32.8510 C   0  0  0  0  0  0  0  0  0  0  0  0
   -4.7390   19.7960  -33.4820 C   0  0  0  0  0  0  0  0  0  0  0  0
   -5.8500   18.9990  -33.2590 C   0  0  0  0  0  0  0  0  0  0  0  0
   -6.0350   17.6810  -33.9310 C   0  0  0  0  0  0  0  0  0  0  0  0
   -7.2730   17.1740  -33.5720 F   0  0  0  0  0  0  0  0  0  0  0  0
   -5.9150   17.7980  -35.3030 F   0  0  0  0  0  0  0  0  0  0  0  0
   -5.0210   16.8650  -33.4510 F   0  0  0  0  0  0  0  0  0  0  0  0
   -6.8150   19.4510  -32.3800 C   0  0  0  0  0  0  0  0  0  0  0  0
   -6.6650   20.6620  -31.7490 C   0  0  0  0  0  0  0  0  0  0  0  0
   -5.5430   21.4670  -31.9750 C   0  0  0  0  0  0  0  0  0  0  0  0
   -5.4890   22.7180  -31.2600 C   0  0  0  0  0  0  0  0  0  0  0  0
   -6.5020   23.6470  -31.4910 C   0  0  0  0  0  0  0  0  0  0  0  0
   -6.4760   24.8520  -30.8230 C   0  0  0  0  0  0  0  0  0  0  0  0
   -5.4740   25.1700  -29.9270 C   0  0  0  0  0  0  0  0  0  0  0  0
   -4.4870   24.2300  -29.7210 C   0  0  0  0  0  0  0  0  0  0  0  0
   -3.4870   24.5510  -28.8250 C   0  0  0  0  0  0  0  0  0  0  0  0
   -2.4680   23.6340  -28.5850 C   0  0  0  0  0  0  0  0  0  0  0  0
   -1.2400   24.1110  -27.4390 S   0  0  0  0  0  0  0  0  0  0  0  0
   -0.7430   22.9710  -26.6070 O   0  0  0  0  0  0  0  0  0  0  0  0
   -0.1120   24.7380  -28.2430 O   0  0  0  0  0  0  0  0  0  0  0  0
   -1.7920   25.3750  -26.3820 N   0  0  0  0  0  0  0  0  0  0  0  0
   -1.0460   25.7670  -25.3830 C   0  0  0  0  0  0  0  0  0  0  0  0
   -1.4290   26.7590  -24.5150 C   0  0  0  0  0  0  0  0  0  0  0  0
   -0.5760   27.1060  -23.4890 C   0  0  0  0  0  0  0  0  0  0  0  0
    0.6080   26.4780  -23.3480 N   0  0  0  0  0  0  0  0  0  0  0  0
    0.9310   25.5130  -24.2280 C   0  0  0  0  0  0  0  0  0  0  0  0
    0.1350   25.1380  -25.2450 N   0  0  0  0  0  0  0  0  0  0  0  0
   -2.4480   22.4040  -29.2330 C   0  0  0  0  0  0  0  0  0  0  0  0
   -3.4600   22.0900  -30.1330 C   0  0  0  0  0  0  0  0  0  0  0  0
   -4.4690   23.0050  -30.3690 C   0  0  0  0  0  0  0  0  0  0  0  0
   -1.7069   20.8874  -32.4933 H   0  0  0  0  0  0  0  0  0  0  0  0
   -2.4576   20.2704  -34.0040 H   0  0  0  0  0  0  0  0  0  0  0  0
   -1.6105   21.8544  -34.0040 H   0  0  0  0  0  0  0  0  0  0  0  0
   -3.9640   19.4465  -34.1800 H   0  0  0  0  0  0  0  0  0  0  0  0
   -7.7075   18.8385  -32.1844 H   0  0  0  0  0  0  0  0  0  0  0  0
   -7.4430   21.0060  -31.0516 H   0  0  0  0  0  0  0  0  0  0  0  0
   -7.3132   23.4208  -32.1987 H   0  0  0  0  0  0  0  0  0  0  0  0
   -7.2772   25.5825  -31.0089 H   0  0  0  0  0  0  0  0  0  0  0  0
   -5.4641   26.1349  -29.3989 H   0  0  0  0  0  0  0  0  0  0  0  0
   -3.4955   25.5210  -28.3064 H   0  0  0  0  0  0  0  0  0  0  0  0
   -2.3972   27.2670  -24.6356 H   0  0  0  0  0  0  0  0  0  0  0  0
   -0.8630   27.8988  -22.7825 H   0  0  0  0  0  0  0  0  0  0  0  0
    1.2960   26.6890  -22.6000 H   0  0  0  0  0  0  0  0  0  0  0  0
    1.8985   25.0032  -24.1092 H   0  0  0  0  0  0  0  0  0  0  0  0
   -1.6387   21.6857  -29.0353 H   0  0  0  0  0  0  0  0  0  0  0  0
   -3.4579   21.1209  -30.6534 H   0  0  0  0  0  0  0  0  0  0  0  0
  1  2  1  0
  2  3  1  0
  3  4  2  0
  4  5  1  0
  5  6  1  0
  6  7  1  0
  6  8  1  0
  6  9  1  0
  5 10  2  0
 10 11  1  0
 11 12  2  0
 12 13  1  0
 13 14  2  0
 14 15  1  0
 15 16  2  0
 16 17  1  0
 17 18  2  0
 18 19  1  0
 19 20  1  0
 20 21  2  0
 20 22  2  0
 20 23  1  0
 23 24  2  0
 24 25  1  0
 25 26  2  0
 26 27  1  0
 27 28  1  0
 28 29  2  0
 19 30  2  0
 30 31  1  0
 31 32  2  0
 12  3  1  0
 32 13  1  0
 32 17  1  0
 29 24  1  0
  1 33  1  0
  1 34  1  0
  1 35  1  0
  4 36  1  0
 10 37  1  0
 11 38  1  0
 14 39  1  0
 15 40  1  0
 16 41  1  0
 18 42  1  0
 25 43  1  0
 26 44  1  0
 27 45  1  0
 28 46  1  0
 30 47  1  0
 31 48  1  0
M  END
>  <smiles>  (35) 
COc1cc(C(F)(F)F)ccc1-c1cccc2cc(S(=O)(=O)N=c3cc[nH]cn3)ccc12

>  <score_type>  (35) 
oracle

>  <origin>  (35) 
adgpu

>  <m_score__min__energy>  (35) 
-10.050000000000001

>  <m_primary>  (35) 
energy

$$$$
35:0
     RDKit          3D

 55 58  0  0  0  0  0  0  0  0999 V2000
    0.2720   16.9710  -30.0780 O   0  0  0  0  0  0  0  0  0  0  0  0
    0.2320   18.0840  -29.4840 C   0  0  0  0  0  0  0  0  0  0  0  0
    0.1900   18.1280  -27.9890 C   0  0  0  0  0  0  0  0  0  0  0  0
   -0.0800   19.5400  -27.5130 C   0  0  0  0  0  0  0  0  0  0  0  0
    0.8840   20.5200  -27.8130 C   0  0  0  0  0  0  0  0  0  0  0  0
    0.6960   21.8490  -27.4330 C   0  0  0  0  0  0  0  0  0  0  0  0
   -0.4560   22.2210  -26.7470 C   0  0  0  0  0  0  0  0  0  0  0  0
   -1.4280   21.2680  -26.4380 C   0  0  0  0  0  0  0  0  0  0  0  0
   -1.2670   19.9190  -26.8200 C   0  0  0  0  0  0  0  0  0  0  0  0
   -2.3390   18.9080  -26.4490 C   0  0  0  0  0  0  0  0  0  0  0  0
   -3.3330   18.8910  -27.4120 F   0  0  0  0  0  0  0  0  0  0  0  0
   -1.7750   17.6500  -26.3480 F   0  0  0  0  0  0  0  0  0  0  0  0
   -2.9360   19.2120  -25.2360 F   0  0  0  0  0  0  0  0  0  0  0  0
    0.2460   19.3090  -30.2260 N   0  0  0  0  0  0  0  0  0  0  0  0
   -0.8820   19.9350  -30.8510 C   0  0  0  0  0  0  0  0  0  0  0  0
   -1.6020   20.9710  -30.2280 C   0  0  0  0  0  0  0  0  0  0  0  0
   -2.6660   21.5890  -30.8930 C   0  0  0  0  0  0  0  0  0  0  0  0
   -3.0020   21.1990  -32.1950 C   0  0  0  0  0  0  0  0  0  0  0  0
   -4.3390   22.0080  -33.0780 S   0  0  0  0  0  0  0  0  0  0  0  0
   -5.5620   20.7400  -32.6930 C   0  0  0  0  0  0  0  0  0  0  0  0
   -5.3420   19.4600  -33.2260 C   0  0  0  0  0  0  0  0  0  0  0  0
   -6.2400   18.4220  -32.9820 C   0  0  0  0  0  0  0  0  0  0  0  0
   -7.3760   18.6500  -32.2070 C   0  0  0  0  0  0  0  0  0  0  0  0
   -7.6200   19.9210  -31.6840 C   0  0  0  0  0  0  0  0  0  0  0  0
   -6.7290   20.9810  -31.9220 C   0  0  0  0  0  0  0  0  0  0  0  0
   -7.1180   22.5590  -31.2080 S   0  0  0  0  0  0  0  0  0  0  0  0
   -8.2580   22.3920  -30.2420 O   0  0  0  0  0  0  0  0  0  0  0  0
   -7.5510   23.5170  -32.2810 O   0  0  0  0  0  0  0  0  0  0  0  0
   -5.7340   23.2170  -30.3340 C   0  0  0  0  0  0  0  0  0  0  0  0
   -5.0380   24.3140  -30.8630 C   0  0  0  0  0  0  0  0  0  0  0  0
   -3.9220   24.8270  -30.1930 C   0  0  0  0  0  0  0  0  0  0  0  0
   -3.5010   24.2550  -28.9860 C   0  0  0  0  0  0  0  0  0  0  0  0
   -1.9610   24.9400  -28.0850 Br  0  0  0  0  0  0  0  0  0  0  0  0
   -4.2040   23.1750  -28.4450 C   0  0  0  0  0  0  0  0  0  0  0  0
   -5.3190   22.6580  -29.1150 C   0  0  0  0  0  0  0  0  0  0  0  0
   -2.2990   20.1580  -32.8080 C   0  0  0  0  0  0  0  0  0  0  0  0
   -1.2350   19.5400  -32.1470 C   0  0  0  0  0  0  0  0  0  0  0  0
   -0.6097   17.4642  -27.6286 H   0  0  0  0  0  0  0  0  0  0  0  0
    1.1613   17.7963  -27.5935 H   0  0  0  0  0  0  0  0  0  0  0  0
    1.7980   20.2344  -28.3543 H   0  0  0  0  0  0  0  0  0  0  0  0
    1.4589   22.6033  -27.6758 H   0  0  0  0  0  0  0  0  0  0  0  0
   -0.6012   23.2694  -26.4472 H   0  0  0  0  0  0  0  0  0  0  0  0
   -2.3315   21.5725  -25.8894 H   0  0  0  0  0  0  0  0  0  0  0  0
   -1.3269   21.2962  -29.2138 H   0  0  0  0  0  0  0  0  0  0  0  0
   -3.2398   22.3828  -30.3922 H   0  0  0  0  0  0  0  0  0  0  0  0
   -4.4507   19.2740  -33.8433 H   0  0  0  0  0  0  0  0  0  0  0  0
   -6.0520   17.4225  -33.4012 H   0  0  0  0  0  0  0  0  0  0  0  0
   -8.0799   17.8286  -32.0076 H   0  0  0  0  0  0  0  0  0  0  0  0
   -8.5213   20.0949  -31.0778 H   0  0  0  0  0  0  0  0  0  0  0  0
   -5.3703   24.7718  -31.8064 H   0  0  0  0  0  0  0  0  0  0  0  0
   -3.3738   25.6820  -30.6155 H   0  0  0  0  0  0  0  0  0  0  0  0
   -3.8808   22.7309  -27.4919 H   0  0  0  0  0  0  0  0  0  0  0  0
   -5.8723   21.8103  -28.6846 H   0  0  0  0  0  0  0  0  0  0  0  0
   -2.5852   19.8237  -33.8162 H   0  0  0  0  0  0  0  0  0  0  0  0
   -0.6714   18.7387  -32.6473 H   0  0  0  0  0  0  0  0  0  0  0  0
  1  2  2  0
  2  3  1  0
  3  4  1  0
  4  5  2  0
  5  6  1  0
  6  7  2  0
  7  8  1  0
  8  9  2  0
  9 10  1  0
 10 11  1  0
 10 12  1  0
 10 13  1  0
  2 14  1  0
 14 15  1  0
 15 16  2  0
 16 17  1  0
 17 18  2  0
 18 19  1  0
 19 20  1  0
 20 21  2  0
 21 22  1  0
 22 23  2  0
 23 24  1  0
 24 25  2  0
 25 26  1  0
 26 27  2  0
 26 28  2  0
 26 29  1  0
 29 30  2  0
 30 31  1  0
 31 32  2  0
 32 33  1  0
 32 34  1  0
 34 35  2  0
 18 36  1  0
 36 37  2  0
  9  4  1  0
 37 15  1  0
 25 20  1  0
 35 29  1  0
  3 38  1  0
  3 39  1  0
  5 40  1  0
  6 41  1  0
  7 42  1  0
  8 43  1  0
 16 44  1  0
 17 45  1  0
 21 46  1  0
 22 47  1  0
 23 48  1  0
 24 49  1  0
 30 50  1  0
 31 51  1  0
 34 52  1  0
 35 53  1  0
 36 54  1  0
 37 55  1  0
M  CHG  1  14  -1
M  END
>  <UniqueID>  (36) 
35

>  <SMILES>  (36) 
O=C(Cc1ccccc1C(F)(F)F)[N-]c1ccc(Sc2ccccc2S(=O)(=O)c2ccc(Br)cc2)cc1

>  <Energy>  (36) 
63.4242249772664

>  <Genealogy>  (36) 
O=C(Cc1ccccc1C(F)(F)F)[N-]c1ccc(Sc2ccccc2S(=O)(=O)c2ccc(Br)cc2)cc1 (protonated)
O=C(Cc1ccccc1C(F)(F)F)[N-]c1ccc(Sc2ccccc2S(=O)(=O)c2ccc(Br)cc2)cc1 (3D coordinates assigned)
O=C(Cc1ccccc1C(F)(F)F)[N-]c1ccc(Sc2ccccc2S(=O)(=O)c2ccc(Br)cc2)cc1 (optimized conformer: 63.4242249772664 kcal/mol)

>  <smiles>  (36) 
O=C(Cc1ccccc1C(F)(F)F)Nc1ccc(Sc2ccccc2S(=O)(=O)c2ccc(Br)cc2)cc1

>  <score_type>  (36) 
oracle

>  <origin>  (36) 
adgpu

>  <m_score__min__energy>  (36) 
-11.06

>  <m_primary>  (36) 
energy

$$$$
36:0
     RDKit          3D

 47 49  0  0  0  0  0  0  0  0999 V2000
   -0.3420   19.5060  -34.4240 C   0  0  0  0  0  0  0  0  0  0  0  0
   -0.4110   19.5010  -32.9220 C   0  0  0  0  0  0  0  0  0  0  0  0
    0.1100   18.4120  -32.2080 C   0  0  0  0  0  0  0  0  0  0  0  0
    0.0610   18.3940  -30.8090 C   0  0  0  0  0  0  0  0  0  0  0  0
   -0.5260   19.4620  -30.1070 C   0  0  0  0  0  0  0  0  0  0  0  0
   -0.5610   19.4560  -28.3420 S   0  0  0  0  0  0  0  0  0  0  0  0
    0.2600   18.2890  -27.8540 O   0  0  0  0  0  0  0  0  0  0  0  0
   -1.9730   19.2780  -27.8470 O   0  0  0  0  0  0  0  0  0  0  0  0
    0.0900   20.9170  -27.6690 N   0  0  0  0  0  0  0  0  0  0  0  0
   -0.3800   22.2330  -27.9860 C   0  0  0  0  0  0  0  0  0  0  0  0
   -1.6310   22.4350  -28.5960 C   0  0  0  0  0  0  0  0  0  0  0  0
   -2.0430   23.7240  -28.9680 C   0  0  0  0  0  0  0  0  0  0  0  0
   -3.5280   23.9240  -29.9110 S   0  0  0  0  0  0  0  0  0  0  0  0
   -3.5800   25.2960  -30.5280 O   0  0  0  0  0  0  0  0  0  0  0  0
   -4.7170   23.7430  -29.0050 O   0  0  0  0  0  0  0  0  0  0  0  0
   -3.6020   22.7460  -31.1840 N   0  0  0  0  0  0  0  0  0  0  0  0
   -4.6840   21.8270  -31.3980 C   0  0  0  0  0  0  0  0  0  0  0  0
   -4.3940   20.5590  -31.9160 C   0  0  0  0  0  0  0  0  0  0  0  0
   -5.4240   19.6600  -32.2100 C   0  0  0  0  0  0  0  0  0  0  0  0
   -6.7580   20.0120  -31.9680 C   0  0  0  0  0  0  0  0  0  0  0  0
   -8.0550   18.8970  -32.3890 S   0  0  0  0  0  0  0  0  0  0  0  0
   -9.3760   19.7740  -33.0810 N   0  0  0  0  0  0  0  0  0  0  0  0
   -7.5580   17.8940  -33.3970 O   0  0  0  0  0  0  0  0  0  0  0  0
   -8.5170   18.1770  -31.1520 O   0  0  0  0  0  0  0  0  0  0  0  0
   -7.0530   21.2660  -31.4140 C   0  0  0  0  0  0  0  0  0  0  0  0
   -6.0230   22.1680  -31.1260 C   0  0  0  0  0  0  0  0  0  0  0  0
   -1.2250   24.8290  -28.6590 C   0  0  0  0  0  0  0  0  0  0  0  0
   -1.6290   26.1240  -28.9680 O   0  0  0  0  0  0  0  0  0  0  0  0
    0.0180   24.6300  -28.0450 C   0  0  0  0  0  0  0  0  0  0  0  0
    0.4500   23.3360  -27.7330 C   0  0  0  0  0  0  0  0  0  0  0  0
    1.7070   23.1530  -27.1630 O   0  0  0  0  0  0  0  0  0  0  0  0
   -1.0680   20.5430  -30.8190 C   0  0  0  0  0  0  0  0  0  0  0  0
   -1.0100   20.5650  -32.2200 C   0  0  0  0  0  0  0  0  0  0  0  0
    0.7081   19.5821  -34.7426 H   0  0  0  0  0  0  0  0  0  0  0  0
   -0.7769   18.5740  -34.8141 H   0  0  0  0  0  0  0  0  0  0  0  0
   -0.9067   20.3656  -34.8141 H   0  0  0  0  0  0  0  0  0  0  0  0
    0.5597   17.5672  -32.7504 H   0  0  0  0  0  0  0  0  0  0  0  0
    0.4831   17.5414  -30.2568 H   0  0  0  0  0  0  0  0  0  0  0  0
   -2.2919   21.5758  -28.7830 H   0  0  0  0  0  0  0  0  0  0  0  0
   -3.3481   20.2678  -32.0930 H   0  0  0  0  0  0  0  0  0  0  0  0
   -5.1857   18.6729  -32.6328 H   0  0  0  0  0  0  0  0  0  0  0  0
   -9.2650   19.7240  -34.1180 H   0  0  0  0  0  0  0  0  0  0  0  0
   -8.0973   21.5413  -31.2052 H   0  0  0  0  0  0  0  0  0  0  0  0
   -6.2601   23.1476  -30.6853 H   0  0  0  0  0  0  0  0  0  0  0  0
    0.6566   25.4935  -27.8073 H   0  0  0  0  0  0  0  0  0  0  0  0
   -1.5398   21.3756  -30.2766 H   0  0  0  0  0  0  0  0  0  0  0  0
   -1.4339   21.4164  -32.7727 H   0  0  0  0  0  0  0  0  0  0  0  0
  1  2  1  0
  2  3  2  0
  3  4  1  0
  4  5  2  0
  5  6  1  0
  6  7  2  0
  6  8  2  0
  6  9  1  0
  9 10  1  0
 10 11  2  0
 11 12  1  0
 12 13  1  0
 13 14  2  0
 13 15  2  0
 13 16  1  0
 16 17  1  0
 17 18  2  0
 18 19  1  0
 19 20  2  0
 20 21  1  0
 21 22  1  0
 21 23  2  0
 21 24  2  0
 20 25  1  0
 25 26  2  0
 12 27  2  0
 27 28  1  0
 27 29  1  0
 29 30  2  0
 30 31  1  0
  5 32  1  0
 32 33  2  0
 33  2  1  0
 30 10  1  0
 26 17  1  0
  1 34  1  0
  1 35  1  0
  1 36  1  0
  3 37  1  0
  4 38  1  0
 11 39  1  0
 18 40  1  0
 19 41  1  0
 22 42  1  0
 25 43  1  0
 26 44  1  0
 29 45  1  0
 32 46  1  0
 33 47  1  0
M  CHG  5   9  -1  16  -1  22  -1  28  -1  31  -1
M  END
>  <UniqueID>  (37) 
36

>  <SMILES>  (37) 
Cc1ccc(S(=O)(=O)[N-]c2cc(S(=O)(=O)[N-]c3ccc(S([NH-])(=O)=O)cc3)c([O-])cc2[O-])cc1

>  <Energy>  (37) 
56.4441819516053

>  <Genealogy>  (37) 
Cc1ccc(S(=O)(=O)[N-]c2cc(S(=O)(=O)[N-]c3ccc(S([NH-])(=O)=O)cc3)c([O-])cc2[O-])cc1 (protonated)
Cc1ccc(S(=O)(=O)[N-]c2cc(S(=O)(=O)[N-]c3ccc(S([NH-])(=O)=O)cc3)c([O-])cc2[O-])cc1 (3D coordinates assigned)
Cc1ccc(S(=O)(=O)[N-]c2cc(S(=O)(=O)[N-]c3ccc(S([NH-])(=O)=O)cc3)c([O-])cc2[O-])cc1 (optimized conformer: 56.4441819516053 kcal/mol)

>  <smiles>  (37) 
Cc1ccc(S(=O)(=O)Nc2cc(S(=O)(=O)Nc3ccc(S(N)(=O)=O)cc3)c(O)cc2O)cc1

>  <score_type>  (37) 
oracle

>  <origin>  (37) 
adgpu

>  <m_score__min__energy>  (37) 
-15.42

>  <m_primary>  (37) 
energy

$$$$
37:0
     RDKit          3D

 48 50  0  0  0  0  0  0  0  0999 V2000
   -1.9360   25.4970  -26.5020 N   0  0  0  0  0  0  0  0  0  0  0  0
   -0.7890   24.2990  -26.9870 S   0  0  0  0  0  0  0  0  0  0  0  0
    0.2630   24.9280  -27.8560 O   0  0  0  0  0  0  0  0  0  0  0  0
   -0.1120   23.7420  -25.7650 O   0  0  0  0  0  0  0  0  0  0  0  0
   -1.6210   22.9860  -27.8380 C   0  0  0  0  0  0  0  0  0  0  0  0
   -1.3980   21.6750  -27.3880 C   0  0  0  0  0  0  0  0  0  0  0  0
   -1.9510   20.5850  -28.0610 C   0  0  0  0  0  0  0  0  0  0  0  0
   -2.7310   20.7890  -29.1980 C   0  0  0  0  0  0  0  0  0  0  0  0
   -2.9760   22.0850  -29.6530 C   0  0  0  0  0  0  0  0  0  0  0  0
   -2.4530   23.1970  -28.9700 C   0  0  0  0  0  0  0  0  0  0  0  0
   -2.8030   24.5410  -29.4740 C   0  0  0  0  0  0  0  0  0  0  0  0
   -2.2860   25.5490  -28.9240 O   0  0  0  0  0  0  0  0  0  0  0  0
   -3.7200   24.7420  -30.5590 N   0  0  0  0  0  0  0  0  0  0  0  0
   -4.9430   24.0340  -30.8080 C   0  0  0  0  0  0  0  0  0  0  0  0
   -5.3960   23.7600  -32.1090 C   0  0  0  0  0  0  0  0  0  0  0  0
   -6.5920   23.0640  -32.3070 C   0  0  0  0  0  0  0  0  0  0  0  0
   -7.3610   22.6540  -31.2100 C   0  0  0  0  0  0  0  0  0  0  0  0
   -8.8790   21.7890  -31.4610 S   0  0  0  0  0  0  0  0  0  0  0  0
   -9.5290   21.5340  -30.1280 O   0  0  0  0  0  0  0  0  0  0  0  0
   -9.8100   22.6460  -32.2730 O   0  0  0  0  0  0  0  0  0  0  0  0
   -8.6250   20.2690  -32.2870 N   0  0  0  0  0  0  0  0  0  0  0  0
   -7.3970   20.2990  -33.1200 C   0  0  0  0  0  0  0  0  0  0  0  0
   -6.2220   19.5430  -32.4820 C   0  0  0  0  0  0  0  0  0  0  0  0
   -6.5840   18.0700  -32.2200 C   0  0  0  0  0  0  0  0  0  0  0  0
   -8.0790   17.8700  -31.9150 C   0  0  0  0  0  0  0  0  0  0  0  0
   -8.6960   19.1450  -31.3290 C   0  0  0  0  0  0  0  0  0  0  0  0
   -6.9240   22.9510  -29.9130 C   0  0  0  0  0  0  0  0  0  0  0  0
   -5.7280   23.6480  -29.7150 C   0  0  0  0  0  0  0  0  0  0  0  0
   -1.6850   26.3810  -26.9970 H   0  0  0  0  0  0  0  0  0  0  0  0
   -2.8670   25.1970  -26.8670 H   0  0  0  0  0  0  0  0  0  0  0  0
   -0.7799   21.5051  -26.4941 H   0  0  0  0  0  0  0  0  0  0  0  0
   -1.7712   19.5638  -27.6939 H   0  0  0  0  0  0  0  0  0  0  0  0
   -3.1535   19.9280  -29.7367 H   0  0  0  0  0  0  0  0  0  0  0  0
   -3.5851   22.2384  -30.5561 H   0  0  0  0  0  0  0  0  0  0  0  0
   -4.8071   24.0945  -32.9758 H   0  0  0  0  0  0  0  0  0  0  0  0
   -6.9309   22.8372  -33.3286 H   0  0  0  0  0  0  0  0  0  0  0  0
   -7.6224   19.8396  -34.0938 H   0  0  0  0  0  0  0  0  0  0  0  0
   -7.0945   21.3515  -33.2234 H   0  0  0  0  0  0  0  0  0  0  0  0
   -5.3575   19.5847  -33.1610 H   0  0  0  0  0  0  0  0  0  0  0  0
   -5.9829   20.0193  -31.5197 H   0  0  0  0  0  0  0  0  0  0  0  0
   -6.3250   17.4802  -33.1116 H   0  0  0  0  0  0  0  0  0  0  0  0
   -6.0181   17.7415  -31.3358 H   0  0  0  0  0  0  0  0  0  0  0  0
   -8.6045   17.6113  -32.8461 H   0  0  0  0  0  0  0  0  0  0  0  0
   -8.1807   17.0606  -31.1771 H   0  0  0  0  0  0  0  0  0  0  0  0
   -9.7503   18.9514  -31.0821 H   0  0  0  0  0  0  0  0  0  0  0  0
   -8.1283   19.4217  -30.4284 H   0  0  0  0  0  0  0  0  0  0  0  0
   -7.5238   22.6348  -29.0468 H   0  0  0  0  0  0  0  0  0  0  0  0
   -5.4019   23.8946  -28.6938 H   0  0  0  0  0  0  0  0  0  0  0  0
  1  2  1  0
  2  3  2  0
  2  4  2  0
  2  5  1  0
  5  6  2  0
  6  7  1  0
  7  8  2  0
  8  9  1  0
  9 10  2  0
 10 11  1  0
 11 12  2  0
 11 13  1  0
 13 14  1  0
 14 15  2  0
 15 16  1  0
 16 17  2  0
 17 18  1  0
 18 19  2  0
 18 20  2  0
 18 21  1  0
 21 22  1  0
 22 23  1  0
 23 24  1  0
 24 25  1  0
 25 26  1  0
 17 27  1  0
 27 28  2  0
 10  5  1  0
 28 14  1  0
 26 21  1  0
  1 29  1  0
  1 30  1  0
  6 31  1  0
  7 32  1  0
  8 33  1  0
  9 34  1  0
 15 35  1  0
 16 36  1  0
 22 37  1  0
 22 38  1  0
 23 39  1  0
 23 40  1  0
 24 41  1  0
 24 42  1  0
 25 43  1  0
 25 44  1  0
 26 45  1  0
 26 46  1  0
 27 47  1  0
 28 48  1  0
M  CHG  1  13  -1
M  END
>  <UniqueID>  (38) 
37

>  <SMILES>  (38) 
NS(=O)(=O)c1ccccc1C(=O)[N-]c1ccc(S(=O)(=O)N2CCCCC2)cc1

>  <Energy>  (38) 
63.07519149129574

>  <Genealogy>  (38) 
NS(=O)(=O)c1ccccc1C(=O)[N-]c1ccc(S(=O)(=O)N2CCCCC2)cc1 (protonated)
NS(=O)(=O)c1ccccc1C(=O)[N-]c1ccc(S(=O)(=O)N2CCCCC2)cc1 (3D coordinates assigned)
NS(=O)(=O)c1ccccc1C(=O)[N-]c1ccc(S(=O)(=O)N2CCCCC2)cc1 (nonaromatic ring conformer: 63.07519149129574 kcal/mol)

>  <smiles>  (38) 
NS(=O)(=O)c1ccccc1C(=O)Nc1ccc(S(=O)(=O)N2CCCCC2)cc1

>  <score_type>  (38) 
oracle

>  <origin>  (38) 
adgpu

>  <m_score__min__energy>  (38) 
-11.390000000000001

>  <m_primary>  (38) 
energy

$$$$
38:0
     RDKit          3D

 43 45  0  0  0  0  0  0  0  0999 V2000
   -6.3270   24.1070  -32.6460 O   0  0  0  0  0  0  0  0  0  0  0  0
   -6.5100   23.4430  -31.3100 S   0  0  0  0  0  0  0  0  0  0  0  0
   -7.3820   24.3290  -30.4620 O   0  0  0  0  0  0  0  0  0  0  0  0
   -4.9370   23.2540  -30.5340 C   0  0  0  0  0  0  0  0  0  0  0  0
   -3.8330   22.8170  -31.2790 C   0  0  0  0  0  0  0  0  0  0  0  0
   -2.6100   22.5730  -30.6480 C   0  0  0  0  0  0  0  0  0  0  0  0
   -2.4780   22.7680  -29.2650 C   0  0  0  0  0  0  0  0  0  0  0  0
   -1.2070   22.3640  -28.5600 C   0  0  0  0  0  0  0  0  0  0  0  0
   -0.2100   23.4480  -28.5720 N   0  0  0  0  0  0  0  0  0  0  0  0
   -0.5610   24.4640  -27.6470 N   0  0  0  0  0  0  0  0  0  0  0  0
   -1.0240   25.6980  -28.0150 C   0  0  0  0  0  0  0  0  0  0  0  0
   -1.2350   26.0550  -29.3420 O   0  0  0  0  0  0  0  0  0  0  0  0
   -1.2650   26.5790  -26.9680 C   0  0  0  0  0  0  0  0  0  0  0  0
   -0.8920   25.7820  -25.5330 S   0  0  0  0  0  0  0  0  0  0  0  0
   -0.4380   24.3580  -26.2970 C   0  0  0  0  0  0  0  0  0  0  0  0
    0.0690   23.0210  -25.4970 S   0  0  0  0  0  0  0  0  0  0  0  0
   -3.5770   23.2350  -28.5260 C   0  0  0  0  0  0  0  0  0  0  0  0
   -4.7980   23.4800  -29.1580 C   0  0  0  0  0  0  0  0  0  0  0  0
   -7.2940   21.8970  -31.5320 N   0  0  0  0  0  0  0  0  0  0  0  0
   -6.5540   21.0860  -32.5220 C   0  0  0  0  0  0  0  0  0  0  0  0
   -7.3520   19.8460  -32.9850 C   0  0  0  0  0  0  0  0  0  0  0  0
   -8.5180   19.5380  -32.0420 C   0  0  0  0  0  0  0  0  0  0  0  0
   -9.4540   20.7510  -31.9060 C   0  0  0  0  0  0  0  0  0  0  0  0
   -8.6930   22.0890  -31.9510 C   0  0  0  0  0  0  0  0  0  0  0  0
   -3.9295   22.6655  -32.3642 H   0  0  0  0  0  0  0  0  0  0  0  0
   -1.7483   22.2270  -31.2376 H   0  0  0  0  0  0  0  0  0  0  0  0
   -1.4437   22.1087  -27.5165 H   0  0  0  0  0  0  0  0  0  0  0  0
   -0.7805   21.4996  -29.0899 H   0  0  0  0  0  0  0  0  0  0  0  0
   -0.1540   23.8600  -29.5330 H   0  0  0  0  0  0  0  0  0  0  0  0
    0.7370   23.0650  -28.3410 H   0  0  0  0  0  0  0  0  0  0  0  0
   -1.6332   27.6114  -27.0602 H   0  0  0  0  0  0  0  0  0  0  0  0
   -3.4757   23.4086  -27.4445 H   0  0  0  0  0  0  0  0  0  0  0  0
   -5.6530   23.8514  -28.5741 H   0  0  0  0  0  0  0  0  0  0  0  0
   -6.3355   21.7128  -33.3991 H   0  0  0  0  0  0  0  0  0  0  0  0
   -5.6315   20.7296  -32.0403 H   0  0  0  0  0  0  0  0  0  0  0  0
   -7.7492   20.0339  -33.9934 H   0  0  0  0  0  0  0  0  0  0  0  0
   -6.6725   18.9810  -32.9837 H   0  0  0  0  0  0  0  0  0  0  0  0
   -9.0885   18.6868  -32.4419 H   0  0  0  0  0  0  0  0  0  0  0  0
   -8.1106   19.2973  -31.0489 H   0  0  0  0  0  0  0  0  0  0  0  0
  -10.1809   20.7303  -32.7313 H   0  0  0  0  0  0  0  0  0  0  0  0
   -9.9521   20.6817  -30.9277 H   0  0  0  0  0  0  0  0  0  0  0  0
   -8.7132   22.4834  -32.9777 H   0  0  0  0  0  0  0  0  0  0  0  0
   -9.1774   22.7989  -31.2644 H   0  0  0  0  0  0  0  0  0  0  0  0
  1  2  2  0
  2  3  2  0
  2  4  1  0
  4  5  2  0
  5  6  1  0
  6  7  2  0
  7  8  1  0
  8  9  1  0
  9 10  1  0
 10 11  1  0
 11 12  1  0
 11 13  2  0
 13 14  1  0
 14 15  1  0
 15 16  2  0
  7 17  1  0
 17 18  2  0
  2 19  1  0
 19 20  1  0
 20 21  1  0
 21 22  1  0
 22 23  1  0
 23 24  1  0
 18  4  1  0
 24 19  1  0
 15 10  1  0
  5 25  1  0
  6 26  1  0
  8 27  1  0
  8 28  1  0
  9 29  1  0
  9 30  1  0
 13 31  1  0
 17 32  1  0
 18 33  1  0
 20 34  1  0
 20 35  1  0
 21 36  1  0
 21 37  1  0
 22 38  1  0
 22 39  1  0
 23 40  1  0
 23 41  1  0
 24 42  1  0
 24 43  1  0
M  CHG  2   9   1  12  -1
M  END
>  <UniqueID>  (39) 
38

>  <SMILES>  (39) 
O=S(=O)(c1ccc(C[NH2+]n2c([O-])csc2=S)cc1)N1CCCCC1

>  <Energy>  (39) 
77.11333188660767

>  <Genealogy>  (39) 
O=S(=O)(c1ccc(C[NH2+]n2c([O-])csc2=S)cc1)N1CCCCC1 (protonated)
O=S(=O)(c1ccc(C[NH2+]n2c([O-])csc2=S)cc1)N1CCCCC1 (3D coordinates assigned)
O=S(=O)(c1ccc(C[NH2+]n2c([O-])csc2=S)cc1)N1CCCCC1 (nonaromatic ring conformer: 77.11333188660767 kcal/mol)

>  <smiles>  (39) 
O=S(=O)(c1ccc(CNn2c(O)csc2=S)cc1)N1CCCCC1

>  <score_type>  (39) 
oracle

>  <origin>  (39) 
adgpu

>  <m_score__min__energy>  (39) 
-10.82

>  <m_primary>  (39) 
energy

$$$$
39:0
     RDKit          3D

 70 74  0  0  0  0  0  0  0  0999 V2000
   -0.8290   18.9840  -29.3300 C   0  0  0  0  0  0  0  0  0  0  0  0
   -0.8360   19.4400  -27.9290 N   0  0  0  0  0  0  0  0  0  0  0  0
    0.4140   20.1320  -27.5500 C   0  0  0  0  0  0  0  0  0  0  0  0
    0.6170   21.4420  -28.3250 C   0  0  0  0  0  0  0  0  0  0  0  0
   -0.6460   22.2560  -28.4100 C   0  0  0  0  0  0  0  0  0  0  0  0
   -0.5760   23.5860  -28.8420 C   0  0  0  0  0  0  0  0  0  0  0  0
   -1.7330   24.3630  -28.9640 C   0  0  0  0  0  0  0  0  0  0  0  0
   -1.6000   25.6920  -29.3450 O   0  0  0  0  0  0  0  0  0  0  0  0
   -2.9950   23.7940  -28.6800 C   0  0  0  0  0  0  0  0  0  0  0  0
   -4.2280   24.5230  -28.7710 N   0  0  0  0  0  0  0  0  0  0  0  0
   -5.1360   24.8740  -30.2060 S   0  0  0  0  0  0  0  0  0  0  0  0
   -6.3030   25.7660  -29.8800 O   0  0  0  0  0  0  0  0  0  0  0  0
   -4.2430   25.5510  -31.2080 O   0  0  0  0  0  0  0  0  0  0  0  0
   -5.7520   23.3510  -30.8520 C   0  0  0  0  0  0  0  0  0  0  0  0
   -5.0310   22.7140  -31.8710 C   0  0  0  0  0  0  0  0  0  0  0  0
   -5.4670   21.4950  -32.3950 C   0  0  0  0  0  0  0  0  0  0  0  0
   -6.6570   20.9080  -31.9330 C   0  0  0  0  0  0  0  0  0  0  0  0
   -7.1050   19.6030  -32.4650 C   0  0  0  0  0  0  0  0  0  0  0  0
   -8.0900   19.5480  -33.2510 O   0  0  0  0  0  0  0  0  0  0  0  0
   -6.4020   18.4060  -32.1080 N   0  0  0  0  0  0  0  0  0  0  0  0
   -5.4330   17.7060  -32.9060 C   0  0  0  0  0  0  0  0  0  0  0  0
   -4.0510   17.8960  -32.7300 C   0  0  0  0  0  0  0  0  0  0  0  0
   -3.1290   17.2450  -33.5620 C   0  0  0  0  0  0  0  0  0  0  0  0
   -1.3930   17.4910  -33.3390 S   0  0  0  0  0  0  0  0  0  0  0  0
   -0.6990   17.3940  -34.6700 O   0  0  0  0  0  0  0  0  0  0  0  0
   -0.8550   16.3990  -32.4560 O   0  0  0  0  0  0  0  0  0  0  0  0
   -1.0390   19.0490  -32.6310 N   0  0  0  0  0  0  0  0  0  0  0  0
   -1.9760   20.0710  -33.1220 C   0  0  0  0  0  0  0  0  0  0  0  0
   -1.8450   21.3540  -32.2820 C   0  0  0  0  0  0  0  0  0  0  0  0
   -0.4350   21.5200  -31.6830 C   0  0  0  0  0  0  0  0  0  0  0  0
    0.6350   20.9270  -32.6040 C   0  0  0  0  0  0  0  0  0  0  0  0
    0.3650   19.4350  -32.9030 C   0  0  0  0  0  0  0  0  0  0  0  0
   -3.5950   16.4250  -34.5980 C   0  0  0  0  0  0  0  0  0  0  0  0
   -4.9670   16.2360  -34.7840 C   0  0  0  0  0  0  0  0  0  0  0  0
   -5.8880   16.8820  -33.9490 C   0  0  0  0  0  0  0  0  0  0  0  0
   -7.2560   16.7090  -34.1490 O   0  0  0  0  0  0  0  0  0  0  0  0
   -7.4010   21.5670  -30.9380 C   0  0  0  0  0  0  0  0  0  0  0  0
   -6.9490   22.7750  -30.3910 C   0  0  0  0  0  0  0  0  0  0  0  0
   -7.6800   23.3660  -29.4130 F   0  0  0  0  0  0  0  0  0  0  0  0
   -3.0610   22.4630  -28.2540 C   0  0  0  0  0  0  0  0  0  0  0  0
   -1.9050   21.6790  -28.1410 C   0  0  0  0  0  0  0  0  0  0  0  0
   -2.0200   20.2650  -27.6220 C   0  0  0  0  0  0  0  0  0  0  0  0
   -0.8121   17.8845  -29.3576 H   0  0  0  0  0  0  0  0  0  0  0  0
   -1.7329   19.3498  -29.8392 H   0  0  0  0  0  0  0  0  0  0  0  0
    0.0632   19.3773  -29.8392 H   0  0  0  0  0  0  0  0  0  0  0  0
    0.3793   20.3598  -26.4744 H   0  0  0  0  0  0  0  0  0  0  0  0
    1.2537   19.4647  -27.7943 H   0  0  0  0  0  0  0  0  0  0  0  0
    1.3887   22.0383  -27.8162 H   0  0  0  0  0  0  0  0  0  0  0  0
    0.9207   21.1833  -29.3501 H   0  0  0  0  0  0  0  0  0  0  0  0
    0.4016   24.0258  -29.0887 H   0  0  0  0  0  0  0  0  0  0  0  0
   -4.1135   23.1782  -32.2616 H   0  0  0  0  0  0  0  0  0  0  0  0
   -4.8754   20.9916  -33.1738 H   0  0  0  0  0  0  0  0  0  0  0  0
   -3.6898   18.5616  -31.9322 H   0  0  0  0  0  0  0  0  0  0  0  0
   -1.7474   20.2994  -34.1735 H   0  0  0  0  0  0  0  0  0  0  0  0
   -3.0038   19.6882  -33.0377 H   0  0  0  0  0  0  0  0  0  0  0  0
   -2.0607   22.2207  -32.9241 H   0  0  0  0  0  0  0  0  0  0  0  0
   -2.5587   21.2842  -31.4479 H   0  0  0  0  0  0  0  0  0  0  0  0
   -0.2306   22.5913  -31.5397 H   0  0  0  0  0  0  0  0  0  0  0  0
   -0.4010   20.9851  -30.7224 H   0  0  0  0  0  0  0  0  0  0  0  0
    0.6399   21.4857  -33.5515 H   0  0  0  0  0  0  0  0  0  0  0  0
    1.6077   21.0056  -32.0965 H   0  0  0  0  0  0  0  0  0  0  0  0
    0.5853   19.2418  -33.9633 H   0  0  0  0  0  0  0  0  0  0  0  0
    1.0107   18.8385  -32.2417 H   0  0  0  0  0  0  0  0  0  0  0  0
   -2.8779   15.9279  -35.2678 H   0  0  0  0  0  0  0  0  0  0  0  0
   -5.3252   15.5775  -35.5890 H   0  0  0  0  0  0  0  0  0  0  0  0
   -7.9300   17.3950  -33.8350 H   0  0  0  0  0  0  0  0  0  0  0  0
   -8.3469   21.1298  -30.5858 H   0  0  0  0  0  0  0  0  0  0  0  0
   -4.0379   22.0240  -28.0032 H   0  0  0  0  0  0  0  0  0  0  0  0
   -2.1480   20.3017  -26.5301 H   0  0  0  0  0  0  0  0  0  0  0  0
   -2.8831   19.8005  -28.1213 H   0  0  0  0  0  0  0  0  0  0  0  0
  1  2  1  0
  2  3  1  0
  3  4  1  0
  4  5  1  0
  5  6  2  0
  6  7  1  0
  7  8  1  0
  7  9  2  0
  9 10  1  0
 10 11  1  0
 11 12  2  0
 11 13  2  0
 11 14  1  0
 14 15  2  0
 15 16  1  0
 16 17  2  0
 17 18  1  0
 18 19  2  0
 18 20  1  0
 20 21  1  0
 21 22  2  0
 22 23  1  0
 23 24  1  0
 24 25  2  0
 24 26  2  0
 24 27  1  0
 27 28  1  0
 28 29  1  0
 29 30  1  0
 30 31  1  0
 31 32  1  0
 23 33  2  0
 33 34  1  0
 34 35  2  0
 35 36  1  0
 17 37  1  0
 37 38  2  0
 38 39  1  0
  9 40  1  0
 40 41  2  0
 41 42  1  0
 42  2  1  0
 41  5  1  0
 38 14  1  0
 35 21  1  0
 32 27  1  0
  1 43  1  0
  1 44  1  0
  1 45  1  0
  3 46  1  0
  3 47  1  0
  4 48  1  0
  4 49  1  0
  6 50  1  0
 15 51  1  0
 16 52  1  0
 22 53  1  0
 28 54  1  0
 28 55  1  0
 29 56  1  0
 29 57  1  0
 30 58  1  0
 30 59  1  0
 31 60  1  0
 31 61  1  0
 32 62  1  0
 32 63  1  0
 33 64  1  0
 34 65  1  0
 36 66  1  0
 37 67  1  0
 40 68  1  0
 42 69  1  0
 42 70  1  0
M  CHG  3   8  -1  10  -1  20  -1
M  END
>  <UniqueID>  (40) 
39

>  <SMILES>  (40) 
CN1CCc2cc([O-])c([N-]S(=O)(=O)c3ccc(C(=O)[N-]c4cc(S(=O)(=O)N5CCCCC5)ccc4O)cc3F)cc2C1

>  <Energy>  (40) 
96.4900150680203

>  <Genealogy>  (40) 
CN1CCc2cc([O-])c([N-]S(=O)(=O)c3ccc(C(=O)[N-]c4cc(S(=O)(=O)N5CCCCC5)ccc4O)cc3F)cc2C1 (protonated)
CN1CCc2cc([O-])c([N-]S(=O)(=O)c3ccc(C(=O)[N-]c4cc(S(=O)(=O)N5CCCCC5)ccc4O)cc3F)cc2C1 (3D coordinates assigned)
CN1CCc2cc([O-])c([N-]S(=O)(=O)c3ccc(C(=O)[N-]c4cc(S(=O)(=O)N5CCCCC5)ccc4O)cc3F)cc2C1 (nonaromatic ring conformer: 96.4900150680203 kcal/mol)

>  <smiles>  (40) 
CN1CCc2cc(O)c(NS(=O)(=O)c3ccc(C(=O)Nc4cc(S(=O)(=O)N5CCCCC5)ccc4O)cc3F)cc2C1

>  <score_type>  (40) 
oracle

>  <origin>  (40) 
adgpu

>  <m_score__min__energy>  (40) 
-14.9

>  <m_primary>  (40) 
energy

$$$$
40:0
     RDKit          3D

 73 77  0  0  0  0  0  0  0  0999 V2000
   -3.8760   25.5260  -30.4520 O   0  0  0  0  0  0  0  0  0  0  0  0
   -4.0270   24.2740  -30.4580 C   0  0  0  0  0  0  0  0  0  0  0  0
   -4.9240   23.6940  -31.4120 N   0  0  0  0  0  0  0  0  0  0  0  0
   -4.8760   22.3640  -31.9550 C   0  0  0  0  0  0  0  0  0  0  0  0
   -5.9230   21.4830  -31.6520 C   0  0  0  0  0  0  0  0  0  0  0  0
   -5.9820   20.2210  -32.2480 C   0  0  0  0  0  0  0  0  0  0  0  0
   -5.0010   19.8260  -33.1690 C   0  0  0  0  0  0  0  0  0  0  0  0
   -5.1230   18.2640  -33.9940 S   0  0  0  0  0  0  0  0  0  0  0  0
   -6.0210   17.3560  -33.1990 O   0  0  0  0  0  0  0  0  0  0  0  0
   -5.7670   18.4840  -35.3340 O   0  0  0  0  0  0  0  0  0  0  0  0
   -3.5700   17.4850  -34.2400 N   0  0  0  0  0  0  0  0  0  0  0  0
   -2.6770   17.5240  -33.0670 C   0  0  0  0  0  0  0  0  0  0  0  0
   -1.6850   18.6450  -33.2310 C   0  0  0  0  0  0  0  0  0  0  0  0
   -1.1850   19.3040  -32.0950 C   0  0  0  0  0  0  0  0  0  0  0  0
   -0.2550   20.3370  -32.2310 C   0  0  0  0  0  0  0  0  0  0  0  0
    0.1860   20.7180  -33.5020 C   0  0  0  0  0  0  0  0  0  0  0  0
   -0.3090   20.0710  -34.6360 C   0  0  0  0  0  0  0  0  0  0  0  0
   -1.2400   19.0360  -34.5050 C   0  0  0  0  0  0  0  0  0  0  0  0
   -3.6240   16.1920  -34.9550 C   0  0  0  0  0  0  0  0  0  0  0  0
   -4.0760   15.0160  -34.1130 C   0  0  0  0  0  0  0  0  0  0  0  0
   -3.2520   14.5570  -33.0670 C   0  0  0  0  0  0  0  0  0  0  0  0
   -3.6710   13.5070  -32.2440 C   0  0  0  0  0  0  0  0  0  0  0  0
   -4.9170   12.9100  -32.4470 C   0  0  0  0  0  0  0  0  0  0  0  0
   -5.7580   13.3790  -33.4610 C   0  0  0  0  0  0  0  0  0  0  0  0
   -5.3430   14.4290  -34.2880 C   0  0  0  0  0  0  0  0  0  0  0  0
   -3.9200   20.6790  -33.4230 C   0  0  0  0  0  0  0  0  0  0  0  0
   -3.8730   21.9550  -32.8510 C   0  0  0  0  0  0  0  0  0  0  0  0
   -3.3510   23.4670  -29.4810 N   0  0  0  0  0  0  0  0  0  0  0  0
   -2.1460   23.9020  -28.8280 C   0  0  0  0  0  0  0  0  0  0  0  0
   -1.9910   25.2670  -28.5260 C   0  0  0  0  0  0  0  0  0  0  0  0
   -0.8330   25.7340  -27.9050 C   0  0  0  0  0  0  0  0  0  0  0  0
    0.1920   24.8490  -27.5870 C   0  0  0  0  0  0  0  0  0  0  0  0
    0.0620   23.4930  -27.8830 C   0  0  0  0  0  0  0  0  0  0  0  0
   -1.1010   22.9960  -28.5000 C   0  0  0  0  0  0  0  0  0  0  0  0
   -1.2030   21.2390  -28.7760 S   0  0  0  0  0  0  0  0  0  0  0  0
   -2.1960   20.9190  -29.8570 O   0  0  0  0  0  0  0  0  0  0  0  0
    0.1420   20.7610  -29.2520 O   0  0  0  0  0  0  0  0  0  0  0  0
   -1.6190   20.3430  -27.3320 N   0  0  0  0  0  0  0  0  0  0  0  0
   -1.1050   18.9780  -27.3570 C   0  0  0  0  0  0  0  0  0  0  0  0
   -1.9750   18.1880  -26.3950 C   0  0  0  0  0  0  0  0  0  0  0  0
   -3.2950   18.9400  -26.3520 C   0  0  0  0  0  0  0  0  0  0  0  0
   -3.0660   20.2110  -27.1620 C   0  0  0  0  0  0  0  0  0  0  0  0
   -6.7040   21.7875  -30.9397 H   0  0  0  0  0  0  0  0  0  0  0  0
   -6.8022   19.5335  -31.9936 H   0  0  0  0  0  0  0  0  0  0  0  0
   -3.2728   17.6912  -32.1575 H   0  0  0  0  0  0  0  0  0  0  0  0
   -2.1402   16.5677  -32.9818 H   0  0  0  0  0  0  0  0  0  0  0  0
   -1.5279   19.0047  -31.0936 H   0  0  0  0  0  0  0  0  0  0  0  0
    0.1306   20.8509  -31.3381 H   0  0  0  0  0  0  0  0  0  0  0  0
    0.9230   21.5276  -33.6085 H   0  0  0  0  0  0  0  0  0  0  0  0
    0.0345   20.3764  -35.6354 H   0  0  0  0  0  0  0  0  0  0  0  0
   -1.6247   18.5270  -35.4010 H   0  0  0  0  0  0  0  0  0  0  0  0
   -4.3222   16.2968  -35.7985 H   0  0  0  0  0  0  0  0  0  0  0  0
   -2.5933   15.9693  -35.2682 H   0  0  0  0  0  0  0  0  0  0  0  0
   -2.2725   15.0276  -32.8964 H   0  0  0  0  0  0  0  0  0  0  0  0
   -3.0173   13.1503  -31.4344 H   0  0  0  0  0  0  0  0  0  0  0  0
   -5.2365   12.0720  -31.8101 H   0  0  0  0  0  0  0  0  0  0  0  0
   -6.7475   12.9218  -33.6089 H   0  0  0  0  0  0  0  0  0  0  0  0
   -6.0115   14.7978  -35.0799 H   0  0  0  0  0  0  0  0  0  0  0  0
   -3.1017   20.3434  -34.0771 H   0  0  0  0  0  0  0  0  0  0  0  0
   -3.0496   22.6395  -33.1029 H   0  0  0  0  0  0  0  0  0  0  0  0
   -3.7190   22.5100  -29.2950 H   0  0  0  0  0  0  0  0  0  0  0  0
   -2.7930   25.9747  -28.7828 H   0  0  0  0  0  0  0  0  0  0  0  0
   -0.7301   26.8029  -27.6665 H   0  0  0  0  0  0  0  0  0  0  0  0
    1.1066   25.2198  -27.1012 H   0  0  0  0  0  0  0  0  0  0  0  0
    0.8798   22.8019  -27.6308 H   0  0  0  0  0  0  0  0  0  0  0  0
   -1.1792   18.5597  -28.3717 H   0  0  0  0  0  0  0  0  0  0  0  0
   -0.0447   18.9403  -27.0666 H   0  0  0  0  0  0  0  0  0  0  0  0
   -2.1259   17.1624  -26.7630 H   0  0  0  0  0  0  0  0  0  0  0  0
   -1.5162   18.1004  -25.3991 H   0  0  0  0  0  0  0  0  0  0  0  0
   -4.0964   18.3361  -26.8026 H   0  0  0  0  0  0  0  0  0  0  0  0
   -3.6039   19.1636  -25.3202 H   0  0  0  0  0  0  0  0  0  0  0  0
   -3.5576   20.1298  -28.1427 H   0  0  0  0  0  0  0  0  0  0  0  0
   -3.4871   21.0889  -26.6502 H   0  0  0  0  0  0  0  0  0  0  0  0
  1  2  2  0
  2  3  1  0
  3  4  1  0
  4  5  2  0
  5  6  1  0
  6  7  2  0
  7  8  1  0
  8  9  2  0
  8 10  2  0
  8 11  1  0
 11 12  1  0
 12 13  1  0
 13 14  2  0
 14 15  1  0
 15 16  2  0
 16 17  1  0
 17 18  2  0
 11 19  1  0
 19 20  1  0
 20 21  2  0
 21 22  1  0
 22 23  2  0
 23 24  1  0
 24 25  2  0
  7 26  1  0
 26 27  2  0
  2 28  1  0
 28 29  1  0
 29 30  2  0
 30 31  1  0
 31 32  2  0
 32 33  1  0
 33 34  2  0
 34 35  1  0
 35 36  2  0
 35 37  2  0
 35 38  1  0
 38 39  1  0
 39 40  1  0
 40 41  1  0
 41 42  1  0
 27  4  1  0
 34 29  1  0
 42 38  1  0
 18 13  1  0
 25 20  1  0
  5 43  1  0
  6 44  1  0
 12 45  1  0
 12 46  1  0
 14 47  1  0
 15 48  1  0
 16 49  1  0
 17 50  1  0
 18 51  1  0
 19 52  1  0
 19 53  1  0
 21 54  1  0
 22 55  1  0
 23 56  1  0
 24 57  1  0
 25 58  1  0
 26 59  1  0
 27 60  1  0
 28 61  1  0
 30 62  1  0
 31 63  1  0
 32 64  1  0
 33 65  1  0
 39 66  1  0
 39 67  1  0
 40 68  1  0
 40 69  1  0
 41 70  1  0
 41 71  1  0
 42 72  1  0
 42 73  1  0
M  CHG  1   3  -1
M  END
>  <UniqueID>  (41) 
40

>  <SMILES>  (41) 
O=C([N-]c1ccc(S(=O)(=O)N(Cc2ccccc2)Cc2ccccc2)cc1)Nc1ccccc1S(=O)(=O)N1CCCC1

>  <Energy>  (41) 
95.33028177765138

>  <Genealogy>  (41) 
O=C([N-]c1ccc(S(=O)(=O)N(Cc2ccccc2)Cc2ccccc2)cc1)Nc1ccccc1S(=O)(=O)N1CCCC1 (protonated)
O=C([N-]c1ccc(S(=O)(=O)N(Cc2ccccc2)Cc2ccccc2)cc1)Nc1ccccc1S(=O)(=O)N1CCCC1 (3D coordinates assigned)
O=C([N-]c1ccc(S(=O)(=O)N(Cc2ccccc2)Cc2ccccc2)cc1)Nc1ccccc1S(=O)(=O)N1CCCC1 (nonaromatic ring conformer: 95.33028177765138 kcal/mol)

>  <smiles>  (41) 
O=C(Nc1ccc(S(=O)(=O)N(Cc2ccccc2)Cc2ccccc2)cc1)Nc1ccccc1S(=O)(=O)N1CCCC1

>  <score_type>  (41) 
oracle

>  <origin>  (41) 
adgpu

>  <m_score__min__energy>  (41) 
-12.199999999999999

>  <m_primary>  (41) 
energy

$$$$
41:0
     RDKit          3D

 41 43  0  0  0  0  0  0  0  0999 V2000
   -3.4680   18.3340  -34.1760 C   0  0  0  0  0  0  0  0  0  0  0  0
   -4.7930   17.7800  -34.6100 C   0  0  0  0  0  0  0  0  0  0  0  0
   -4.9450   17.4710  -35.8200 O   0  0  0  0  0  0  0  0  0  0  0  0
   -5.8840   17.5470  -33.7010 N   0  0  0  0  0  0  0  0  0  0  0  0
   -6.5800   18.4100  -33.0190 C   0  0  0  0  0  0  0  0  0  0  0  0
   -7.5600   18.0210  -32.1740 N   0  0  0  0  0  0  0  0  0  0  0  0
   -8.1900   19.0390  -31.5900 N   0  0  0  0  0  0  0  0  0  0  0  0
   -7.7170   20.2450  -31.9730 C   0  0  0  0  0  0  0  0  0  0  0  0
   -8.3470   21.7670  -31.3810 S   0  0  0  0  0  0  0  0  0  0  0  0
   -9.0380   21.5500  -30.0620 O   0  0  0  0  0  0  0  0  0  0  0  0
   -9.3450   22.3170  -32.3620 O   0  0  0  0  0  0  0  0  0  0  0  0
   -7.0190   22.9040  -31.1610 C   0  0  0  0  0  0  0  0  0  0  0  0
   -7.2850   24.2600  -30.9240 C   0  0  0  0  0  0  0  0  0  0  0  0
   -6.2320   25.1690  -30.7890 C   0  0  0  0  0  0  0  0  0  0  0  0
   -4.9070   24.7300  -30.8820 C   0  0  0  0  0  0  0  0  0  0  0  0
   -3.8740   25.6560  -30.7940 O   0  0  0  0  0  0  0  0  0  0  0  0
   -4.6320   23.3630  -31.0840 C   0  0  0  0  0  0  0  0  0  0  0  0
   -3.2870   22.8810  -31.1870 N   0  0  0  0  0  0  0  0  0  0  0  0
   -2.5260   22.3110  -30.1140 C   0  0  0  0  0  0  0  0  0  0  0  0
   -1.9020   21.2370  -30.3180 O   0  0  0  0  0  0  0  0  0  0  0  0
   -2.5610   22.8840  -28.7230 C   0  0  0  0  0  0  0  0  0  0  0  0
   -1.1950   23.3870  -28.3310 C   0  0  0  0  0  0  0  0  0  0  0  0
   -0.3160   22.5450  -27.6320 C   0  0  0  0  0  0  0  0  0  0  0  0
    0.9400   23.0090  -27.2380 C   0  0  0  0  0  0  0  0  0  0  0  0
    1.3080   24.3220  -27.5400 C   0  0  0  0  0  0  0  0  0  0  0  0
    2.4350   24.7600  -27.1870 O   0  0  0  0  0  0  0  0  0  0  0  0
    0.4480   25.1300  -28.2140 N   0  0  0  0  0  0  0  0  0  0  0  0
   -0.7800   24.7040  -28.6130 C   0  0  0  0  0  0  0  0  0  0  0  0
   -1.6100   25.5800  -29.3020 O   0  0  0  0  0  0  0  0  0  0  0  0
   -5.6920   22.4640  -31.2580 C   0  0  0  0  0  0  0  0  0  0  0  0
   -6.4680   20.0950  -33.0890 S   0  0  0  0  0  0  0  0  0  0  0  0
   -3.4210   18.3537  -33.0772 H   0  0  0  0  0  0  0  0  0  0  0  0
   -2.6593   17.6986  -34.5663 H   0  0  0  0  0  0  0  0  0  0  0  0
   -3.3522   19.3559  -34.5663 H   0  0  0  0  0  0  0  0  0  0  0  0
   -8.3250   24.6093  -30.8441 H   0  0  0  0  0  0  0  0  0  0  0  0
   -6.4458   26.2329  -30.6091 H   0  0  0  0  0  0  0  0  0  0  0  0
   -3.2777   23.7179  -28.6918 H   0  0  0  0  0  0  0  0  0  0  0  0
   -2.8686   22.0968  -28.0189 H   0  0  0  0  0  0  0  0  0  0  0  0
   -0.6184   21.5146  -27.3936 H   0  0  0  0  0  0  0  0  0  0  0  0
    1.6322   22.3481  -26.6958 H   0  0  0  0  0  0  0  0  0  0  0  0
   -5.4815   21.4058  -31.4722 H   0  0  0  0  0  0  0  0  0  0  0  0
  1  2  1  0
  2  3  2  0
  2  4  1  0
  4  5  2  3
  5  6  1  0
  6  7  1  0
  7  8  2  0
  8  9  1  0
  9 10  2  0
  9 11  2  0
  9 12  1  0
 12 13  2  0
 13 14  1  0
 14 15  2  0
 15 16  1  0
 15 17  1  0
 17 18  1  0
 18 19  1  0
 19 20  2  0
 19 21  1  0
 21 22  1  0
 22 23  1  0
 23 24  2  0
 24 25  1  0
 25 26  2  0
 25 27  1  0
 27 28  1  0
 28 29  1  0
 17 30  2  0
  8 31  1  0
 31  5  1  0
 30 12  1  0
 28 22  2  0
  1 32  1  0
  1 33  1  0
  1 34  1  0
 13 35  1  0
 14 36  1  0
 21 37  1  0
 21 38  1  0
 23 39  1  0
 24 40  1  0
 30 41  1  0
M  CHG  5   6  -1  16  -1  18  -1  27  -1  29  -1
M  END
>  <UniqueID>  (42) 
41

>  <SMILES>  (42) 
CC(=O)N=c1[n-]nc(S(=O)(=O)c2ccc([O-])c([N-]C(=O)Cc3ccc(=O)[n-]c3[O-])c2)s1

>  <Energy>  (42) 
90.82967884454062

>  <Genealogy>  (42) 
CC(=O)N=c1[n-]nc(S(=O)(=O)c2ccc([O-])c([N-]C(=O)Cc3ccc(=O)[n-]c3[O-])c2)s1 (protonated)
CC(=O)N=c1[n-]nc(S(=O)(=O)c2ccc([O-])c([N-]C(=O)Cc3ccc(=O)[n-]c3[O-])c2)s1 (3D coordinates assigned)
CC(=O)N=c1[n-]nc(S(=O)(=O)c2ccc([O-])c([N-]C(=O)Cc3ccc(=O)[n-]c3[O-])c2)s1 (optimized conformer: 90.82967884454062 kcal/mol)

>  <smiles>  (42) 
CC(=O)N=c1[nH]nc(S(=O)(=O)c2ccc(O)c(NC(=O)Cc3ccc(=O)[nH]c3O)c2)s1

>  <score_type>  (42) 
oracle

>  <origin>  (42) 
adgpu

>  <m_score__min__energy>  (42) 
-17.280000000000001

>  <m_primary>  (42) 
energy

$$$$
42:0
     RDKit          3D

 60 64  0  0  0  0  0  0  0  0999 V2000
   -2.7340   20.7450  -31.5120 O   0  0  0  0  0  0  0  0  0  0  0  0
   -3.5890   21.6660  -31.6130 C   0  0  0  0  0  0  0  0  0  0  0  0
   -4.6870   21.5280  -32.5270 N   0  0  0  0  0  0  0  0  0  0  0  0
   -5.0970   20.2490  -33.0310 C   0  0  0  0  0  0  0  0  0  0  0  0
   -4.1340   19.4000  -33.5930 C   0  0  0  0  0  0  0  0  0  0  0  0
   -4.4900   18.1290  -34.0600 C   0  0  0  0  0  0  0  0  0  0  0  0
   -3.2800   17.0580  -34.7590 S   0  0  0  0  0  0  0  0  0  0  0  0
   -3.7410   16.5710  -36.1080 O   0  0  0  0  0  0  0  0  0  0  0  0
   -1.9960   17.8210  -34.9360 O   0  0  0  0  0  0  0  0  0  0  0  0
   -3.0170   15.7040  -33.6860 N   0  0  0  0  0  0  0  0  0  0  0  0
   -4.0040   15.6750  -32.5950 C   0  0  0  0  0  0  0  0  0  0  0  0
   -4.6190   14.2800  -32.5530 C   0  0  0  0  0  0  0  0  0  0  0  0
   -3.7200   13.4370  -33.4270 C   0  0  0  0  0  0  0  0  0  0  0  0
   -3.1380   14.4320  -34.4060 C   0  0  0  0  0  0  0  0  0  0  0  0
   -5.8250   17.7160  -33.9910 C   0  0  0  0  0  0  0  0  0  0  0  0
   -6.7980   18.5660  -33.4620 C   0  0  0  0  0  0  0  0  0  0  0  0
   -6.4480   19.8370  -32.9810 C   0  0  0  0  0  0  0  0  0  0  0  0
   -7.4880   20.7290  -32.5380 N   0  0  0  0  0  0  0  0  0  0  0  0
   -8.6740   20.1610  -31.8840 C   0  0  0  0  0  0  0  0  0  0  0  0
   -9.5020   21.2550  -31.2200 C   0  0  0  0  0  0  0  0  0  0  0  0
   -8.6350   22.1630  -30.5780 O   0  0  0  0  0  0  0  0  0  0  0  0
   -8.0140   22.9850  -31.5460 C   0  0  0  0  0  0  0  0  0  0  0  0
   -7.2950   22.1840  -32.6640 C   0  0  0  0  0  0  0  0  0  0  0  0
   -3.4410   22.8770  -30.7900 C   0  0  0  0  0  0  0  0  0  0  0  0
   -2.7920   22.9730  -29.5760 C   0  0  0  0  0  0  0  0  0  0  0  0
   -2.9010   24.3120  -29.2420 C   0  0  0  0  0  0  0  0  0  0  0  0
   -2.3670   24.9700  -28.0200 C   0  0  0  0  0  0  0  0  0  0  0  0
   -2.8070   24.5610  -26.7440 C   0  0  0  0  0  0  0  0  0  0  0  0
   -2.3080   25.1680  -25.5890 C   0  0  0  0  0  0  0  0  0  0  0  0
   -1.3640   26.1890  -25.6870 C   0  0  0  0  0  0  0  0  0  0  0  0
   -0.9130   26.6050  -26.9410 C   0  0  0  0  0  0  0  0  0  0  0  0
   -1.4080   26.0050  -28.1050 C   0  0  0  0  0  0  0  0  0  0  0  0
   -0.9430   26.4550  -29.3370 O   0  0  0  0  0  0  0  0  0  0  0  0
   -3.5730   24.9580  -30.2160 N   0  0  0  0  0  0  0  0  0  0  0  0
   -3.8990   24.0870  -31.1570 N   0  0  0  0  0  0  0  0  0  0  0  0
   -5.0890   22.3860  -32.9670 H   0  0  0  0  0  0  0  0  0  0  0  0
   -3.0890   19.7352  -33.6679 H   0  0  0  0  0  0  0  0  0  0  0  0
   -3.5086   15.8936  -31.6375 H   0  0  0  0  0  0  0  0  0  0  0  0
   -4.7841   16.4316  -32.7651 H   0  0  0  0  0  0  0  0  0  0  0  0
   -4.6325   13.8930  -31.5234 H   0  0  0  0  0  0  0  0  0  0  0  0
   -5.6621   14.2748  -32.9021 H   0  0  0  0  0  0  0  0  0  0  0  0
   -2.9263   12.9624  -32.8313 H   0  0  0  0  0  0  0  0  0  0  0  0
   -4.2562   12.6144  -33.9227 H   0  0  0  0  0  0  0  0  0  0  0  0
   -2.1489   14.0938  -34.7485 H   0  0  0  0  0  0  0  0  0  0  0  0
   -3.7788   14.5373  -35.2938 H   0  0  0  0  0  0  0  0  0  0  0  0
   -6.1091   16.7176  -34.3550 H   0  0  0  0  0  0  0  0  0  0  0  0
   -7.8469   18.2370  -33.4219 H   0  0  0  0  0  0  0  0  0  0  0  0
   -9.2907   19.6490  -32.6373 H   0  0  0  0  0  0  0  0  0  0  0  0
   -8.3444   19.4504  -31.1117 H   0  0  0  0  0  0  0  0  0  0  0  0
  -10.0917   21.7849  -31.9825 H   0  0  0  0  0  0  0  0  0  0  0  0
  -10.1838   20.8078  -30.4817 H   0  0  0  0  0  0  0  0  0  0  0  0
   -8.7835   23.6188  -32.0108 H   0  0  0  0  0  0  0  0  0  0  0  0
   -7.2468   23.5771  -31.0256 H   0  0  0  0  0  0  0  0  0  0  0  0
   -7.6902   22.5079  -33.6381 H   0  0  0  0  0  0  0  0  0  0  0  0
   -6.2171   22.3842  -32.5740 H   0  0  0  0  0  0  0  0  0  0  0  0
   -2.3013   22.1707  -29.0054 H   0  0  0  0  0  0  0  0  0  0  0  0
   -3.5510   23.7555  -26.6573 H   0  0  0  0  0  0  0  0  0  0  0  0
   -2.6607   24.8396  -24.6002 H   0  0  0  0  0  0  0  0  0  0  0  0
   -0.9744   26.6670  -24.7761 H   0  0  0  0  0  0  0  0  0  0  0  0
   -0.1650   27.4082  -27.0148 H   0  0  0  0  0  0  0  0  0  0  0  0
  1  2  2  0
  2  3  1  0
  3  4  1  0
  4  5  2  0
  5  6  1  0
  6  7  1  0
  7  8  2  0
  7  9  2  0
  7 10  1  0
 10 11  1  0
 11 12  1  0
 12 13  1  0
 13 14  1  0
  6 15  2  0
 15 16  1  0
 16 17  2  0
 17 18  1  0
 18 19  1  0
 19 20  1  0
 20 21  1  0
 21 22  1  0
 22 23  1  0
  2 24  1  0
 24 25  1  0
 25 26  2  0
 26 27  1  0
 27 28  2  0
 28 29  1  0
 29 30  2  0
 30 31  1  0
 31 32  2  0
 32 33  1  0
 26 34  1  0
 34 35  1  0
 17  4  1  0
 23 18  1  0
 35 24  2  0
 14 10  1  0
 32 27  1  0
  3 36  1  0
  5 37  1  0
 11 38  1  0
 11 39  1  0
 12 40  1  0
 12 41  1  0
 13 42  1  0
 13 43  1  0
 14 44  1  0
 14 45  1  0
 15 46  1  0
 16 47  1  0
 19 48  1  0
 19 49  1  0
 20 50  1  0
 20 51  1  0
 22 52  1  0
 22 53  1  0
 23 54  1  0
 23 55  1  0
 25 56  1  0
 28 57  1  0
 29 58  1  0
 30 59  1  0
 31 60  1  0
M  CHG  2  33  -1  34  -1
M  END
>  <UniqueID>  (43) 
42

>  <SMILES>  (43) 
O=C(Nc1cc(S(=O)(=O)N2CCCC2)ccc1N1CCOCC1)c1cc(-c2ccccc2[O-])[n-]n1

>  <Energy>  (43) 
113.0218463170602

>  <Genealogy>  (43) 
O=C(Nc1cc(S(=O)(=O)N2CCCC2)ccc1N1CCOCC1)c1cc(-c2ccccc2[O-])[n-]n1 (protonated)
O=C(Nc1cc(S(=O)(=O)N2CCCC2)ccc1N1CCOCC1)c1cc(-c2ccccc2[O-])[n-]n1 (3D coordinates assigned)
O=C(Nc1cc(S(=O)(=O)N2CCCC2)ccc1N1CCOCC1)c1cc(-c2ccccc2[O-])[n-]n1 (nonaromatic ring conformer: 113.0218463170602 kcal/mol)

>  <smiles>  (43) 
O=C(Nc1cc(S(=O)(=O)N2CCCC2)ccc1N1CCOCC1)c1cc(-c2ccccc2O)[nH]n1

>  <score_type>  (43) 
oracle

>  <origin>  (43) 
adgpu

>  <m_score__min__energy>  (43) 
-14.210000000000001

>  <m_primary>  (43) 
energy

$$$$
43:0
     RDKit          3D

 57 60  0  0  0  0  0  0  0  0999 V2000
   -3.7720   19.9090  -33.8360 O   0  0  0  0  0  0  0  0  0  0  0  0
   -4.5400   19.3330  -33.0190 C   0  0  0  0  0  0  0  0  0  0  0  0
   -5.0320   20.0460  -31.8680 N   0  0  0  0  0  0  0  0  0  0  0  0
   -4.6160   21.3750  -31.5080 C   0  0  0  0  0  0  0  0  0  0  0  0
   -5.3780   22.4700  -31.9350 C   0  0  0  0  0  0  0  0  0  0  0  0
   -5.0090   23.7690  -31.5800 C   0  0  0  0  0  0  0  0  0  0  0  0
   -3.8860   23.9900  -30.7770 C   0  0  0  0  0  0  0  0  0  0  0  0
   -3.5420   25.2950  -30.4440 O   0  0  0  0  0  0  0  0  0  0  0  0
   -3.1290   22.8990  -30.3110 C   0  0  0  0  0  0  0  0  0  0  0  0
   -1.7080   23.1370  -29.2770 S   0  0  0  0  0  0  0  0  0  0  0  0
   -0.4710   23.0250  -30.1230 O   0  0  0  0  0  0  0  0  0  0  0  0
   -1.7380   24.5210  -28.6910 O   0  0  0  0  0  0  0  0  0  0  0  0
   -1.6080   21.9720  -27.9770 N   0  0  0  0  0  0  0  0  0  0  0  0
   -0.7650   20.8310  -28.3240 C   0  0  0  0  0  0  0  0  0  0  0  0
   -1.2370   19.6710  -27.4590 C   0  0  0  0  0  0  0  0  0  0  0  0
   -2.6310   20.0610  -26.9880 C   0  0  0  0  0  0  0  0  0  0  0  0
   -2.9110   21.4040  -27.6430 C   0  0  0  0  0  0  0  0  0  0  0  0
   -3.5010   21.5960  -30.6800 C   0  0  0  0  0  0  0  0  0  0  0  0
   -4.9280   17.9250  -33.2710 C   0  0  0  0  0  0  0  0  0  0  0  0
   -6.0920   17.6030  -33.9920 C   0  0  0  0  0  0  0  0  0  0  0  0
   -6.4370   16.2680  -34.2240 C   0  0  0  0  0  0  0  0  0  0  0  0
   -5.6200   15.2360  -33.7470 C   0  0  0  0  0  0  0  0  0  0  0  0
   -6.0640   13.5510  -34.0130 S   0  0  0  0  0  0  0  0  0  0  0  0
   -5.9210   12.7790  -32.7290 O   0  0  0  0  0  0  0  0  0  0  0  0
   -7.5020   13.4900  -34.4490 O   0  0  0  0  0  0  0  0  0  0  0  0
   -5.0460   12.8610  -35.2520 N   0  0  0  0  0  0  0  0  0  0  0  0
   -5.8650   12.4540  -36.4090 C   0  0  0  0  0  0  0  0  0  0  0  0
   -4.9760   12.1340  -37.6270 C   0  0  0  0  0  0  0  0  0  0  0  0
   -3.6230   11.9940  -37.2430 O   0  0  0  0  0  0  0  0  0  0  0  0
   -3.1300   13.2340  -36.7640 C   0  0  0  0  0  0  0  0  0  0  0  0
   -4.0290   13.8380  -35.6650 C   0  0  0  0  0  0  0  0  0  0  0  0
   -4.4560   15.5470  -33.0350 C   0  0  0  0  0  0  0  0  0  0  0  0
   -4.1080   16.8810  -32.8050 C   0  0  0  0  0  0  0  0  0  0  0  0
   -5.7700   19.6060  -31.2750 H   0  0  0  0  0  0  0  0  0  0  0  0
   -6.2725   22.3056  -32.5537 H   0  0  0  0  0  0  0  0  0  0  0  0
   -5.6050   24.6231  -31.9340 H   0  0  0  0  0  0  0  0  0  0  0  0
   -0.8800   20.5828  -29.3894 H   0  0  0  0  0  0  0  0  0  0  0  0
    0.2983   21.0524  -28.1496 H   0  0  0  0  0  0  0  0  0  0  0  0
   -1.2751   18.7424  -28.0474 H   0  0  0  0  0  0  0  0  0  0  0  0
   -0.5563   19.4858  -26.6150 H   0  0  0  0  0  0  0  0  0  0  0  0
   -3.3704   19.3130  -27.3100 H   0  0  0  0  0  0  0  0  0  0  0  0
   -2.6940   20.1170  -25.8912 H   0  0  0  0  0  0  0  0  0  0  0  0
   -3.5121   21.2664  -28.5539 H   0  0  0  0  0  0  0  0  0  0  0  0
   -3.4783   22.0670  -26.9731 H   0  0  0  0  0  0  0  0  0  0  0  0
   -2.9140   20.7392  -30.3175 H   0  0  0  0  0  0  0  0  0  0  0  0
   -6.7359   18.4077  -34.3764 H   0  0  0  0  0  0  0  0  0  0  0  0
   -7.3533   16.0278  -34.7831 H   0  0  0  0  0  0  0  0  0  0  0  0
   -6.4459   11.5588  -36.1420 H   0  0  0  0  0  0  0  0  0  0  0  0
   -6.5373   13.2837  -36.6729 H   0  0  0  0  0  0  0  0  0  0  0  0
   -5.3188   11.1949  -38.0859 H   0  0  0  0  0  0  0  0  0  0  0  0
   -5.0527   12.9639  -38.3449 H   0  0  0  0  0  0  0  0  0  0  0  0
   -2.1227   13.0780  -36.3505 H   0  0  0  0  0  0  0  0  0  0  0  0
   -3.1135   13.9380  -37.6091 H   0  0  0  0  0  0  0  0  0  0  0  0
   -3.4103   14.1085  -34.7966 H   0  0  0  0  0  0  0  0  0  0  0  0
   -4.5297   14.7338  -36.0610 H   0  0  0  0  0  0  0  0  0  0  0  0
   -3.8131   14.7392  -32.6553 H   0  0  0  0  0  0  0  0  0  0  0  0
   -3.1850   17.1167  -32.2549 H   0  0  0  0  0  0  0  0  0  0  0  0
  1  2  2  0
  2  3  1  0
  3  4  1  0
  4  5  2  0
  5  6  1  0
  6  7  2  0
  7  8  1  0
  7  9  1  0
  9 10  1  0
 10 11  2  0
 10 12  2  0
 10 13  1  0
 13 14  1  0
 14 15  1  0
 15 16  1  0
 16 17  1  0
  9 18  2  0
  2 19  1  0
 19 20  2  0
 20 21  1  0
 21 22  2  0
 22 23  1  0
 23 24  2  0
 23 25  2  0
 23 26  1  0
 26 27  1  0
 27 28  1  0
 28 29  1  0
 29 30  1  0
 30 31  1  0
 22 32  1  0
 32 33  2  0
 18  4  1  0
 33 19  1  0
 17 13  1  0
 31 26  1  0
  3 34  1  0
  5 35  1  0
  6 36  1  0
 14 37  1  0
 14 38  1  0
 15 39  1  0
 15 40  1  0
 16 41  1  0
 16 42  1  0
 17 43  1  0
 17 44  1  0
 18 45  1  0
 20 46  1  0
 21 47  1  0
 27 48  1  0
 27 49  1  0
 28 50  1  0
 28 51  1  0
 30 52  1  0
 30 53  1  0
 31 54  1  0
 31 55  1  0
 32 56  1  0
 33 57  1  0
M  CHG  1   8  -1
M  END
>  <UniqueID>  (44) 
43

>  <SMILES>  (44) 
O=C(Nc1ccc([O-])c(S(=O)(=O)N2CCCC2)c1)c1ccc(S(=O)(=O)N2CCOCC2)cc1

>  <Energy>  (44) 
75.47014508414516

>  <Genealogy>  (44) 
O=C(Nc1ccc([O-])c(S(=O)(=O)N2CCCC2)c1)c1ccc(S(=O)(=O)N2CCOCC2)cc1 (protonated)
O=C(Nc1ccc([O-])c(S(=O)(=O)N2CCCC2)c1)c1ccc(S(=O)(=O)N2CCOCC2)cc1 (3D coordinates assigned)
O=C(Nc1ccc([O-])c(S(=O)(=O)N2CCCC2)c1)c1ccc(S(=O)(=O)N2CCOCC2)cc1 (nonaromatic ring conformer: 75.47014508414516 kcal/mol)

>  <smiles>  (44) 
O=C(Nc1ccc(O)c(S(=O)(=O)N2CCCC2)c1)c1ccc(S(=O)(=O)N2CCOCC2)cc1

>  <score_type>  (44) 
oracle

>  <origin>  (44) 
adgpu

>  <m_score__min__energy>  (44) 
-11.06

>  <m_primary>  (44) 
energy

$$$$
44:0
     RDKit          3D

 56 60  0  0  0  0  0  0  0  0999 V2000
    1.6230   15.2010  -27.7860 C   0  0  0  0  0  0  0  0  0  0  0  0
    2.1730   16.5880  -28.7530 S   0  0  0  0  0  0  0  0  0  0  0  0
    3.6500   16.7870  -28.5500 O   0  0  0  0  0  0  0  0  0  0  0  0
    1.9180   16.3200  -30.2100 O   0  0  0  0  0  0  0  0  0  0  0  0
    1.3020   18.0320  -28.2510 C   0  0  0  0  0  0  0  0  0  0  0  0
    1.9260   19.2830  -28.3030 C   0  0  0  0  0  0  0  0  0  0  0  0
    1.2310   20.4350  -27.9200 C   0  0  0  0  0  0  0  0  0  0  0  0
   -0.0990   20.3520  -27.4560 C   0  0  0  0  0  0  0  0  0  0  0  0
   -0.9000   21.5930  -27.0920 C   0  0  2  0  0  0  0  0  0  0  0  0
   -1.4010   22.3260  -28.2800 C   0  0  0  0  0  0  0  0  0  0  0  0
   -0.8820   23.5500  -28.3660 C   0  0  0  0  0  0  0  0  0  0  0  0
   -1.7420   24.3120  -29.1250 C   0  0  0  0  0  0  0  0  0  0  0  0
   -1.6260   25.6800  -29.3420 O   0  0  0  0  0  0  0  0  0  0  0  0
   -2.7830   23.5520  -29.5510 N   0  0  0  0  0  0  0  0  0  0  0  0
   -3.9490   24.0530  -30.2970 C   0  0  0  0  0  0  0  0  0  0  0  0
   -5.0440   24.5520  -29.3330 C   0  0  0  0  0  0  0  0  0  0  0  0
   -6.2450   25.1470  -30.0940 C   0  0  0  0  0  0  0  0  0  0  0  0
   -6.5540   24.4310  -31.4260 C   0  0  0  0  0  0  0  0  0  0  0  0
   -5.9950   23.0050  -31.4640 C   0  0  0  0  0  0  0  0  0  0  0  0
   -4.4630   23.0080  -31.3230 C   0  0  0  0  0  0  0  0  0  0  0  0
   -2.6000   22.3360  -28.9620 C   0  0  0  0  0  0  0  0  0  0  0  0
   -3.5080   21.2780  -28.9640 O   0  0  0  0  0  0  0  0  0  0  0  0
    0.0250   23.8230  -27.2290 C   0  0  1  0  0  0  0  0  0  0  0  0
   -0.4160   24.9950  -26.3510 C   0  0  0  0  0  0  0  0  0  0  0  0
   -0.2610   24.4770  -24.9410 C   0  0  0  0  0  0  0  0  0  0  0  0
   -0.5120   22.9880  -25.0760 C   0  0  0  0  0  0  0  0  0  0  0  0
   -0.0180   22.5880  -26.4030 N   0  0  0  0  0  0  0  0  0  0  0  0
   -0.7290   19.0920  -27.4530 C   0  0  0  0  0  0  0  0  0  0  0  0
   -0.0320   17.9430  -27.8360 C   0  0  0  0  0  0  0  0  0  0  0  0
    1.7175   15.4393  -26.7163 H   0  0  0  0  0  0  0  0  0  0  0  0
    0.5707   14.9839  -28.0217 H   0  0  0  0  0  0  0  0  0  0  0  0
    2.2405   14.3217  -28.0217 H   0  0  0  0  0  0  0  0  0  0  0  0
    2.9680   19.3611  -28.6467 H   0  0  0  0  0  0  0  0  0  0  0  0
    1.7262   21.4153  -27.9811 H   0  0  0  0  0  0  0  0  0  0  0  0
   -1.7313   21.2265  -26.4718 H   0  0  0  0  0  0  0  0  0  0  0  0
   -3.6345   24.9236  -30.8912 H   0  0  0  0  0  0  0  0  0  0  0  0
   -5.3927   23.7069  -28.7213 H   0  0  0  0  0  0  0  0  0  0  0  0
   -4.6115   25.3428  -28.7024 H   0  0  0  0  0  0  0  0  0  0  0  0
   -7.1333   25.0781  -29.4488 H   0  0  0  0  0  0  0  0  0  0  0  0
   -5.9847   26.1867  -30.3416 H   0  0  0  0  0  0  0  0  0  0  0  0
   -7.6451   24.3867  -31.5588 H   0  0  0  0  0  0  0  0  0  0  0  0
   -6.0733   25.0021  -32.2340 H   0  0  0  0  0  0  0  0  0  0  0  0
   -6.4310   22.4258  -30.6367 H   0  0  0  0  0  0  0  0  0  0  0  0
   -6.2564   22.5524  -32.4319 H   0  0  0  0  0  0  0  0  0  0  0  0
   -4.1393   22.0085  -30.9970 H   0  0  0  0  0  0  0  0  0  0  0  0
   -4.0435   23.2768  -32.3037 H   0  0  0  0  0  0  0  0  0  0  0  0
   -3.7360   20.7520  -29.7970 H   0  0  0  0  0  0  0  0  0  0  0  0
    1.0198   24.0893  -27.6156 H   0  0  0  0  0  0  0  0  0  0  0  0
    0.2271   25.8717  -26.5179 H   0  0  0  0  0  0  0  0  0  0  0  0
   -1.4427   25.3237  -26.5697 H   0  0  0  0  0  0  0  0  0  0  0  0
    0.7529   24.6711  -24.5610 H   0  0  0  0  0  0  0  0  0  0  0  0
   -0.9464   24.9623  -24.2306 H   0  0  0  0  0  0  0  0  0  0  0  0
    0.0295   22.4407  -24.2904 H   0  0  0  0  0  0  0  0  0  0  0  0
   -1.5826   22.7588  -24.9697 H   0  0  0  0  0  0  0  0  0  0  0  0
   -1.7821   19.0116  -27.1455 H   0  0  0  0  0  0  0  0  0  0  0  0
   -0.5337   16.9644  -27.8113 H   0  0  0  0  0  0  0  0  0  0  0  0
  1  2  1  0
  2  3  2  0
  2  4  2  0
  2  5  1  0
  5  6  2  0
  6  7  1  0
  7  8  2  0
  8  9  1  0
  9 10  1  0
 10 11  1  0
 11 12  2  0
 12 13  1  0
 12 14  1  0
 14 15  1  0
 15 16  1  0
 16 17  1  0
 17 18  1  0
 18 19  1  0
 19 20  1  0
 14 21  1  0
 21 22  1  0
 11 23  1  0
 23 24  1  0
 24 25  1  0
 25 26  1  0
 26 27  1  0
  8 28  1  0
 28 29  2  0
 29  5  1  0
 27  9  1  0
 21 10  2  0
 27 23  1  0
 20 15  1  0
  1 30  1  0
  1 31  1  0
  1 32  1  0
  6 33  1  0
  7 34  1  0
  9 35  1  1
 15 36  1  0
 16 37  1  0
 16 38  1  0
 17 39  1  0
 17 40  1  0
 18 41  1  0
 18 42  1  0
 19 43  1  0
 19 44  1  0
 20 45  1  0
 20 46  1  0
 22 47  1  0
 23 48  1  6
 24 49  1  0
 24 50  1  0
 25 51  1  0
 25 52  1  0
 26 53  1  0
 26 54  1  0
 28 55  1  0
 29 56  1  0
M  CHG  1  13  -1
M  END
>  <UniqueID>  (45) 
44

>  <SMILES>  (45) 
CS(=O)(=O)c1ccc([C@@H]2c3c(c([O-])n(C4CCCCC4)c3O)[C@H]3CCCN23)cc1

>  <Energy>  (45) 
121.20688488421949

>  <Genealogy>  (45) 
CS(=O)(=O)c1ccc(C2c3c(c([O-])n(C4CCCCC4)c3O)C3CCCN32)cc1 (protonated)
CS(=O)(=O)c1ccc([C@@H]2c3c(c([O-])n(C4CCCCC4)c3O)[C@H]3CCCN23)cc1 (chirality)
CS(=O)(=O)c1ccc([C@@H]2c3c(c([O-])n(C4CCCCC4)c3O)[C@H]3CCCN23)cc1 (3D coordinates assigned)
CS(=O)(=O)c1ccc([C@@H]2c3c(c([O-])n(C4CCCCC4)c3O)[C@H]3CCCN23)cc1 (nonaromatic ring conformer: 121.20688488421949 kcal/mol)

>  <smiles>  (45) 
CS(=O)(=O)c1ccc(C2c3c(c(O)n(C4CCCCC4)c3O)C3CCCN32)cc1

>  <score_type>  (45) 
oracle

>  <origin>  (45) 
adgpu

>  <m_score__min__energy>  (45) 
-10.800000000000001

>  <m_primary>  (45) 
energy

$$$$
45:0
     RDKit          3D

 54 57  0  0  0  0  0  0  0  0999 V2000
   -2.3370   25.2890  -29.2950 N   0  0  0  0  0  0  0  0  0  0  0  0
   -3.2240   24.0380  -28.5010 S   0  0  0  0  0  0  0  0  0  0  0  0
   -4.0980   24.6420  -27.4380 O   0  0  0  0  0  0  0  0  0  0  0  0
   -2.2680   23.0770  -27.8510 O   0  0  0  0  0  0  0  0  0  0  0  0
   -4.2110   23.1840  -29.6820 C   0  0  0  0  0  0  0  0  0  0  0  0
   -3.6340   22.1970  -30.4930 C   0  0  0  0  0  0  0  0  0  0  0  0
   -4.3980   21.5510  -31.4680 C   0  0  0  0  0  0  0  0  0  0  0  0
   -5.7490   21.8990  -31.6580 C   0  0  0  0  0  0  0  0  0  0  0  0
   -6.5360   21.3020  -32.7030 N   0  0  0  0  0  0  0  0  0  0  0  0
   -6.9350   19.9190  -32.7230 C   0  0  0  0  0  0  0  0  0  0  0  0
   -8.1700   19.5700  -32.1740 C   0  0  0  0  0  0  0  0  0  0  0  0
   -8.5510   18.2290  -32.1430 C   0  0  0  0  0  0  0  0  0  0  0  0
   -9.7680   17.8700  -31.5750 O   0  0  0  0  0  0  0  0  0  0  0  0
   -7.7530   17.2940  -32.6500 O   0  0  0  0  0  0  0  0  0  0  0  0
   -6.5810   17.5720  -33.2100 C   0  0  0  0  0  0  0  0  0  0  0  0
   -5.8970   16.6260  -33.6860 O   0  0  0  0  0  0  0  0  0  0  0  0
   -6.1220   18.9060  -33.2850 C   0  0  0  0  0  0  0  0  0  0  0  0
   -4.8510   19.2510  -33.9650 C   0  0  0  0  0  0  0  0  0  0  0  0
   -3.7510   19.4030  -33.2920 N   0  0  0  0  0  0  0  0  0  0  0  0
   -2.5050   19.8650  -33.8380 C   0  0  0  0  0  0  0  0  0  0  0  0
   -1.7000   18.9570  -34.5350 C   0  0  0  0  0  0  0  0  0  0  0  0
   -0.4580   19.3520  -35.0410 C   0  0  0  0  0  0  0  0  0  0  0  0
    0.0040   20.6590  -34.8350 C   0  0  0  0  0  0  0  0  0  0  0  0
    1.5860   21.1540  -35.4270 S   0  0  0  0  0  0  0  0  0  0  0  0
    2.4860   21.5460  -34.2890 O   0  0  0  0  0  0  0  0  0  0  0  0
    2.2090   20.0020  -36.1670 O   0  0  0  0  0  0  0  0  0  0  0  0
    1.4200   22.5010  -36.5140 N   0  0  0  0  0  0  0  0  0  0  0  0
    2.0110   23.6560  -36.4140 C   0  0  0  0  0  0  0  0  0  0  0  0
    2.9060   23.9650  -35.3670 C   0  0  0  0  0  0  0  0  0  0  0  0
    3.4860   25.2350  -35.3120 C   0  0  0  0  0  0  0  0  0  0  0  0
    3.1820   26.1820  -36.2890 C   0  0  0  0  0  0  0  0  0  0  0  0
    2.3010   25.8440  -37.3160 C   0  0  0  0  0  0  0  0  0  0  0  0
    1.7420   24.6040  -37.3530 N   0  0  0  0  0  0  0  0  0  0  0  0
   -0.7910   21.5690  -34.1280 C   0  0  0  0  0  0  0  0  0  0  0  0
   -2.0360   21.1770  -33.6260 C   0  0  0  0  0  0  0  0  0  0  0  0
   -6.3280   22.8650  -30.8240 C   0  0  0  0  0  0  0  0  0  0  0  0
   -5.5630   23.5120  -29.8490 C   0  0  0  0  0  0  0  0  0  0  0  0
   -2.6520   25.2990  -30.2900 H   0  0  0  0  0  0  0  0  0  0  0  0
   -2.5751   21.9300  -30.3612 H   0  0  0  0  0  0  0  0  0  0  0  0
   -3.9420   20.7668  -32.0902 H   0  0  0  0  0  0  0  0  0  0  0  0
   -6.8900   21.9200  -33.4680 H   0  0  0  0  0  0  0  0  0  0  0  0
   -8.8367   20.3458  -31.7695 H   0  0  0  0  0  0  0  0  0  0  0  0
   -9.8040   17.4600  -30.6490 H   0  0  0  0  0  0  0  0  0  0  0  0
   -4.8394   19.3803  -35.0573 H   0  0  0  0  0  0  0  0  0  0  0  0
   -2.0472   17.9242  -34.6860 H   0  0  0  0  0  0  0  0  0  0  0  0
    0.1585   18.6347  -35.6026 H   0  0  0  0  0  0  0  0  0  0  0  0
    3.1447   23.2125  -34.6010 H   0  0  0  0  0  0  0  0  0  0  0  0
    4.1820   25.4875  -34.4984 H   0  0  0  0  0  0  0  0  0  0  0  0
    3.6321   27.1849  -36.2503 H   0  0  0  0  0  0  0  0  0  0  0  0
    2.0580   26.5801  -38.0964 H   0  0  0  0  0  0  0  0  0  0  0  0
   -0.4347   22.5971  -33.9666 H   0  0  0  0  0  0  0  0  0  0  0  0
   -2.6512   21.8950  -33.0639 H   0  0  0  0  0  0  0  0  0  0  0  0
   -7.3929   23.1162  -30.9374 H   0  0  0  0  0  0  0  0  0  0  0  0
   -6.0237   24.2807  -29.2112 H   0  0  0  0  0  0  0  0  0  0  0  0
  1  2  1  0
  2  3  2  0
  2  4  2  0
  2  5  1  0
  5  6  2  0
  6  7  1  0
  7  8  2  0
  8  9  1  0
  9 10  1  0
 10 11  1  0
 11 12  2  0
 12 13  1  0
 12 14  1  0
 14 15  1  0
 15 16  2  0
 15 17  1  0
 17 18  1  0
 18 19  2  3
 19 20  1  0
 20 21  2  0
 21 22  1  0
 22 23  2  0
 23 24  1  0
 24 25  2  0
 24 26  2  0
 24 27  1  0
 27 28  2  3
 28 29  1  0
 29 30  2  0
 30 31  1  0
 31 32  2  0
 32 33  1  0
 23 34  1  0
 34 35  2  0
  8 36  1  0
 36 37  2  0
 37  5  1  0
 17 10  2  0
 35 20  1  0
 33 28  1  0
  1 38  1  0
  6 39  1  0
  7 40  1  0
  9 41  1  0
 11 42  1  0
 13 43  1  0
 18 44  1  0
 21 45  1  0
 22 46  1  0
 29 47  1  0
 30 48  1  0
 31 49  1  0
 32 50  1  0
 34 51  1  0
 35 52  1  0
 36 53  1  0
 37 54  1  0
M  CHG  2   1  -1  33  -1
M  END
>  <UniqueID>  (46) 
45

>  <SMILES>  (46) 
[NH-]S(=O)(=O)c1ccc(Nc2cc(O)oc(=O)c2C=Nc2ccc(S(=O)(=O)N=c3cccc[n-]3)cc2)cc1

>  <Energy>  (46) 
74.53783474643075

>  <Genealogy>  (46) 
[NH-]S(=O)(=O)c1ccc(Nc2cc(O)oc(=O)c2C=Nc2ccc(S(=O)(=O)N=c3cccc[n-]3)cc2)cc1 (protonated)
[NH-]S(=O)(=O)c1ccc(Nc2cc(O)oc(=O)c2C=Nc2ccc(S(=O)(=O)N=c3cccc[n-]3)cc2)cc1 (3D coordinates assigned)
[NH-]S(=O)(=O)c1ccc(Nc2cc(O)oc(=O)c2C=Nc2ccc(S(=O)(=O)N=c3cccc[n-]3)cc2)cc1 (optimized conformer: 74.53783474643075 kcal/mol)

>  <smiles>  (46) 
NS(=O)(=O)c1ccc(Nc2cc(O)oc(=O)c2C=Nc2ccc(S(=O)(=O)N=c3cccc[nH]3)cc2)cc1

>  <score_type>  (46) 
oracle

>  <origin>  (46) 
adgpu

>  <m_score__min__energy>  (46) 
-12.69

>  <m_primary>  (46) 
energy

$$$$
46:0
     RDKit          3D

 53 55  0  0  0  0  0  0  0  0999 V2000
   -4.5410   25.3530  -31.1860 O   0  0  0  0  0  0  0  0  0  0  0  0
   -4.1360   24.7900  -30.1310 C   0  0  0  0  0  0  0  0  0  0  0  0
   -5.1080   24.0500  -29.2600 C   0  0  0  0  0  0  0  0  0  0  0  0
   -6.5300   24.1000  -29.8270 C   0  0  0  0  0  0  0  0  0  0  0  0
   -7.0220   22.7440  -30.0700 N   0  0  0  0  0  0  0  0  0  0  0  0
   -7.2590   22.4970  -31.7740 S   0  0  0  0  0  0  0  0  0  0  0  0
   -8.6060   21.8670  -32.0010 O   0  0  0  0  0  0  0  0  0  0  0  0
   -7.2220   23.8160  -32.4960 O   0  0  0  0  0  0  0  0  0  0  0  0
   -6.0080   21.4230  -32.4010 C   0  0  0  0  0  0  0  0  0  0  0  0
   -4.6620   21.7610  -32.2470 C   0  0  0  0  0  0  0  0  0  0  0  0
   -3.6680   20.9320  -32.7680 C   0  0  0  0  0  0  0  0  0  0  0  0
   -4.0030   19.7590  -33.4580 C   0  0  0  0  0  0  0  0  0  0  0  0
   -2.9610   19.0200  -34.0220 O   0  0  0  0  0  0  0  0  0  0  0  0
   -5.3640   19.3890  -33.5930 C   0  0  0  0  0  0  0  0  0  0  0  0
   -5.7880   18.1230  -34.2350 C   0  0  0  0  0  0  0  0  0  0  0  0
   -6.7860   17.4930  -33.7890 O   0  0  0  0  0  0  0  0  0  0  0  0
   -5.0600   17.5720  -35.2850 O   0  0  0  0  0  0  0  0  0  0  0  0
   -6.3560   20.2440  -33.0730 C   0  0  0  0  0  0  0  0  0  0  0  0
   -2.7710   24.9200  -29.7130 N   0  0  0  0  0  0  0  0  0  0  0  0
   -2.2150   24.4020  -28.4980 C   0  0  0  0  0  0  0  0  0  0  0  0
   -1.6150   25.2420  -27.5430 C   0  0  0  0  0  0  0  0  0  0  0  0
   -1.0580   24.6990  -26.3810 C   0  0  0  0  0  0  0  0  0  0  0  0
   -1.0820   23.3180  -26.1700 C   0  0  0  0  0  0  0  0  0  0  0  0
   -1.6530   22.4670  -27.1280 C   0  0  0  0  0  0  0  0  0  0  0  0
   -1.6850   20.7200  -26.8610 S   0  0  0  0  0  0  0  0  0  0  0  0
   -2.9930   20.1740  -27.3680 O   0  0  0  0  0  0  0  0  0  0  0  0
   -1.6130   20.4500  -25.3830 O   0  0  0  0  0  0  0  0  0  0  0  0
   -0.3680   19.8850  -27.6500 N   0  0  0  0  0  0  0  0  0  0  0  0
   -0.3610   20.1130  -29.0940 C   0  0  0  0  0  0  0  0  0  0  0  0
    0.3390   18.9140  -29.7180 C   0  0  0  0  0  0  0  0  0  0  0  0
    0.2970   17.8250  -28.6540 C   0  0  0  0  0  0  0  0  0  0  0  0
   -0.4520   18.4370  -27.4800 C   0  0  0  0  0  0  0  0  0  0  0  0
   -2.2180   23.0170  -28.2900 C   0  0  0  0  0  0  0  0  0  0  0  0
   -4.7910   22.9993  -29.1851 H   0  0  0  0  0  0  0  0  0  0  0  0
   -5.1166   24.5311  -28.2708 H   0  0  0  0  0  0  0  0  0  0  0  0
   -7.1915   24.6034  -29.1066 H   0  0  0  0  0  0  0  0  0  0  0  0
   -6.5197   24.6550  -30.7767 H   0  0  0  0  0  0  0  0  0  0  0  0
   -4.3848   22.6825  -31.7140 H   0  0  0  0  0  0  0  0  0  0  0  0
   -2.6099   21.2020  -32.6358 H   0  0  0  0  0  0  0  0  0  0  0  0
   -3.1040   18.2130  -34.6120 H   0  0  0  0  0  0  0  0  0  0  0  0
   -7.4173   19.9824  -33.1963 H   0  0  0  0  0  0  0  0  0  0  0  0
   -1.5838   26.3287  -27.7105 H   0  0  0  0  0  0  0  0  0  0  0  0
   -0.5998   25.3607  -25.6312 H   0  0  0  0  0  0  0  0  0  0  0  0
   -0.6517   22.8966  -25.2495 H   0  0  0  0  0  0  0  0  0  0  0  0
   -1.3913   20.1902  -29.4714 H   0  0  0  0  0  0  0  0  0  0  0  0
    0.1560   21.0507  -29.3459 H   0  0  0  0  0  0  0  0  0  0  0  0
   -0.1912   18.5873  -30.6247 H   0  0  0  0  0  0  0  0  0  0  0  0
    1.3695   19.1524  -30.0201 H   0  0  0  0  0  0  0  0  0  0  0  0
   -0.2353   16.9391  -29.0306 H   0  0  0  0  0  0  0  0  0  0  0  0
    1.3060   17.4932  -28.3678 H   0  0  0  0  0  0  0  0  0  0  0  0
   -1.5031   18.1129  -27.4882 H   0  0  0  0  0  0  0  0  0  0  0  0
   -0.0173   18.1213  -26.5201 H   0  0  0  0  0  0  0  0  0  0  0  0
   -2.6672   22.3538  -29.0439 H   0  0  0  0  0  0  0  0  0  0  0  0
  1  2  2  0
  2  3  1  0
  3  4  1  0
  4  5  1  0
  5  6  1  0
  6  7  2  0
  6  8  2  0
  6  9  1  0
  9 10  2  0
 10 11  1  0
 11 12  2  0
 12 13  1  0
 12 14  1  0
 14 15  1  0
 15 16  2  0
 15 17  1  0
 14 18  2  0
  2 19  1  0
 19 20  1  0
 20 21  2  0
 21 22  1  0
 22 23  2  0
 23 24  1  0
 24 25  1  0
 25 26  2  0
 25 27  2  0
 25 28  1  0
 28 29  1  0
 29 30  1  0
 30 31  1  0
 31 32  1  0
 24 33  2  0
 18  9  1  0
 33 20  1  0
 32 28  1  0
  3 34  1  0
  3 35  1  0
  4 36  1  0
  4 37  1  0
 10 38  1  0
 11 39  1  0
 13 40  1  0
 18 41  1  0
 21 42  1  0
 22 43  1  0
 23 44  1  0
 29 45  1  0
 29 46  1  0
 30 47  1  0
 30 48  1  0
 31 49  1  0
 31 50  1  0
 32 51  1  0
 32 52  1  0
 33 53  1  0
M  CHG  3   5  -1  17  -1  19  -1
M  END
>  <UniqueID>  (47) 
46

>  <SMILES>  (47) 
O=C(CC[N-]S(=O)(=O)c1ccc(O)c(C(=O)[O-])c1)[N-]c1cccc(S(=O)(=O)N2CCCC2)c1

>  <Energy>  (47) 
59.27561791450311

>  <Genealogy>  (47) 
O=C(CC[N-]S(=O)(=O)c1ccc(O)c(C(=O)[O-])c1)[N-]c1cccc(S(=O)(=O)N2CCCC2)c1 (protonated)
O=C(CC[N-]S(=O)(=O)c1ccc(O)c(C(=O)[O-])c1)[N-]c1cccc(S(=O)(=O)N2CCCC2)c1 (3D coordinates assigned)
O=C(CC[N-]S(=O)(=O)c1ccc(O)c(C(=O)[O-])c1)[N-]c1cccc(S(=O)(=O)N2CCCC2)c1 (nonaromatic ring conformer: 59.27561791450311 kcal/mol)

>  <smiles>  (47) 
O=C(CCNS(=O)(=O)c1ccc(O)c(C(=O)O)c1)Nc1cccc(S(=O)(=O)N2CCCC2)c1

>  <score_type>  (47) 
oracle

>  <origin>  (47) 
adgpu

>  <m_score__min__energy>  (47) 
-11.390000000000001

>  <m_primary>  (47) 
energy

$$$$
47:0
     RDKit          3D

 51 53  0  0  0  0  0  0  0  0999 V2000
   -0.1290   22.6690  -24.6400 C   0  0  0  0  0  0  0  0  0  0  0  0
   -0.7930   22.3480  -25.9820 C   0  0  0  0  0  0  0  0  0  0  0  0
   -1.2370   20.8880  -26.0230 C   0  0  0  0  0  0  0  0  0  0  0  0
    0.1420   22.5930  -27.0800 N   0  0  0  0  0  0  0  0  0  0  0  0
   -0.1070   23.4190  -28.2270 C   0  0  0  0  0  0  0  0  0  0  0  0
    0.3820   24.5790  -28.2550 O   0  0  0  0  0  0  0  0  0  0  0  0
   -0.9230   22.9580  -29.3650 C   0  0  0  0  0  0  0  0  0  0  0  0
   -2.2670   23.3400  -29.4820 C   0  0  0  0  0  0  0  0  0  0  0  0
   -3.0460   22.8930  -30.5610 C   0  0  0  0  0  0  0  0  0  0  0  0
   -4.4610   23.3160  -30.6960 C   0  0  0  0  0  0  0  0  0  0  0  0
   -5.4650   22.3430  -30.8510 C   0  0  0  0  0  0  0  0  0  0  0  0
   -6.8120   22.7170  -31.0020 C   0  0  0  0  0  0  0  0  0  0  0  0
   -7.8830   21.6620  -31.1220 C   0  0  0  0  0  0  0  0  0  0  0  0
   -8.7420   21.7040  -30.0370 F   0  0  0  0  0  0  0  0  0  0  0  0
   -8.6300   21.8570  -32.2710 F   0  0  0  0  0  0  0  0  0  0  0  0
   -7.2890   20.4150  -31.1780 F   0  0  0  0  0  0  0  0  0  0  0  0
   -7.1540   24.0780  -30.9460 C   0  0  0  0  0  0  0  0  0  0  0  0
   -6.1630   25.0490  -30.7860 C   0  0  0  0  0  0  0  0  0  0  0  0
   -4.8230   24.6770  -30.6580 C   0  0  0  0  0  0  0  0  0  0  0  0
   -3.8620   25.6650  -30.4690 O   0  0  0  0  0  0  0  0  0  0  0  0
   -2.4650   22.0550  -31.5270 C   0  0  0  0  0  0  0  0  0  0  0  0
   -1.1290   21.6490  -31.4050 C   0  0  0  0  0  0  0  0  0  0  0  0
   -0.5450   20.7840  -32.3850 N   0  0  0  0  0  0  0  0  0  0  0  0
   -0.2960   19.3590  -32.4850 C   0  0  0  0  0  0  0  0  0  0  0  0
    0.3080   19.4760  -33.7950 C   0  0  0  0  0  0  0  0  0  0  0  0
   -0.4940   18.8100  -34.9240 C   0  0  0  0  0  0  0  0  0  0  0  0
    1.8050   19.1330  -33.8360 C   0  0  0  0  0  0  0  0  0  0  0  0
    0.0670   20.9530  -33.7250 C   0  0  0  0  0  0  0  0  0  0  0  0
    0.2900   21.9300  -34.4900 O   0  0  0  0  0  0  0  0  0  0  0  0
   -0.3660   22.0940  -30.3190 C   0  0  0  0  0  0  0  0  0  0  0  0
   -0.7883   22.3503  -23.8192 H   0  0  0  0  0  0  0  0  0  0  0  0
    0.8300   22.1350  -24.5684 H   0  0  0  0  0  0  0  0  0  0  0  0
    0.0482   23.7523  -24.5684 H   0  0  0  0  0  0  0  0  0  0  0  0
   -1.6723   22.9994  -26.0932 H   0  0  0  0  0  0  0  0  0  0  0  0
   -1.3517   20.5107  -24.9961 H   0  0  0  0  0  0  0  0  0  0  0  0
   -2.1989   20.8120  -26.5512 H   0  0  0  0  0  0  0  0  0  0  0  0
   -0.4803   20.2893  -26.5512 H   0  0  0  0  0  0  0  0  0  0  0  0
   -2.7152   23.9960  -28.7213 H   0  0  0  0  0  0  0  0  0  0  0  0
   -5.1932   21.2771  -30.8541 H   0  0  0  0  0  0  0  0  0  0  0  0
   -8.2082   24.3809  -31.0286 H   0  0  0  0  0  0  0  0  0  0  0  0
   -6.4396   26.1133  -30.7606 H   0  0  0  0  0  0  0  0  0  0  0  0
   -3.0628   21.7149  -32.3855 H   0  0  0  0  0  0  0  0  0  0  0  0
    0.3957   18.9817  -31.7174 H   0  0  0  0  0  0  0  0  0  0  0  0
   -1.1386   18.6646  -32.3517 H   0  0  0  0  0  0  0  0  0  0  0  0
   -1.2715   18.1643  -34.4898 H   0  0  0  0  0  0  0  0  0  0  0  0
   -0.9661   19.5854  -35.5452 H   0  0  0  0  0  0  0  0  0  0  0  0
    0.1815   18.2035  -35.5452 H   0  0  0  0  0  0  0  0  0  0  0  0
    2.1893   19.0450  -32.8091 H   0  0  0  0  0  0  0  0  0  0  0  0
    1.9482   18.1788  -34.3641 H   0  0  0  0  0  0  0  0  0  0  0  0
    2.3494   19.9297  -34.3641 H   0  0  0  0  0  0  0  0  0  0  0  0
    0.6779   21.7637  -30.2131 H   0  0  0  0  0  0  0  0  0  0  0  0
  1  2  1  0
  2  3  1  0
  2  4  1  0
  4  5  1  0
  5  6  2  0
  5  7  1  0
  7  8  2  0
  8  9  1  0
  9 10  1  0
 10 11  2  0
 11 12  1  0
 12 13  1  0
 13 14  1  0
 13 15  1  0
 13 16  1  0
 12 17  2  0
 17 18  1  0
 18 19  2  0
 19 20  1  0
  9 21  2  0
 21 22  1  0
 22 23  1  0
 23 24  1  0
 24 25  1  0
 25 26  1  0
 25 27  1  0
 25 28  1  0
 28 29  2  0
 22 30  2  0
 30  7  1  0
 19 10  1  0
 28 23  1  0
  1 31  1  0
  1 32  1  0
  1 33  1  0
  2 34  1  0
  3 35  1  0
  3 36  1  0
  3 37  1  0
  8 38  1  0
 11 39  1  0
 17 40  1  0
 18 41  1  0
 21 42  1  0
 24 43  1  0
 24 44  1  0
 26 45  1  0
 26 46  1  0
 26 47  1  0
 27 48  1  0
 27 49  1  0
 27 50  1  0
 30 51  1  0
M  CHG  2   4  -1  20  -1
M  END
>  <UniqueID>  (48) 
47

>  <SMILES>  (48) 
CC(C)[N-]C(=O)c1cc(-c2cc(C(F)(F)F)ccc2[O-])cc(N2CC(C)(C)C2=O)c1

>  <Energy>  (48) 
87.38805978823726

>  <Genealogy>  (48) 
CC(C)[N-]C(=O)c1cc(-c2cc(C(F)(F)F)ccc2[O-])cc(N2CC(C)(C)C2=O)c1 (protonated)
CC(C)[N-]C(=O)c1cc(-c2cc(C(F)(F)F)ccc2[O-])cc(N2CC(C)(C)C2=O)c1 (3D coordinates assigned)
CC(C)[N-]C(=O)c1cc(-c2cc(C(F)(F)F)ccc2[O-])cc(N2CC(C)(C)C2=O)c1 (nonaromatic ring conformer: 87.38805978823726 kcal/mol)

>  <smiles>  (48) 
CC(C)NC(=O)c1cc(-c2cc(C(F)(F)F)ccc2O)cc(N2CC(C)(C)C2=O)c1

>  <score_type>  (48) 
oracle

>  <origin>  (48) 
adgpu

>  <m_score__min__energy>  (48) 
-11.83

>  <m_primary>  (48) 
energy

$$$$
48:0
     RDKit          3D

 35 36  0  0  0  0  0  0  0  0999 V2000
   -2.0920   21.1690  -33.3060 C   0  0  0  0  0  0  0  0  0  0  0  0
   -2.4180   21.3130  -32.0080 C   0  0  0  0  0  0  0  0  0  0  0  0
   -3.0090   22.6390  -31.5970 C   0  0  0  0  0  0  0  0  0  0  0  0
   -4.4830   22.6270  -31.7040 C   0  0  0  0  0  0  0  0  0  0  0  0
   -5.1890   21.5040  -32.1420 C   0  0  0  0  0  0  0  0  0  0  0  0
   -6.5530   21.4780  -32.2410 C   0  0  0  0  0  0  0  0  0  0  0  0
   -7.3750   20.3450  -32.6830 C   0  0  0  0  0  0  0  0  0  0  0  0
   -6.7480   19.0140  -32.5230 C   0  0  0  0  0  0  0  0  0  0  0  0
   -6.7080   18.4390  -31.2480 C   0  0  0  0  0  0  0  0  0  0  0  0
   -6.1330   17.2420  -31.0250 N   0  0  0  0  0  0  0  0  0  0  0  0
   -5.5690   16.5550  -32.0380 C   0  0  0  0  0  0  0  0  0  0  0  0
   -5.0080   15.3980  -31.8310 N   0  0  0  0  0  0  0  0  0  0  0  0
   -5.5940   17.0820  -33.2550 N   0  0  0  0  0  0  0  0  0  0  0  0
   -6.1660   18.2910  -33.5310 C   0  0  0  0  0  0  0  0  0  0  0  0
   -6.1430   18.6710  -34.7360 N   0  0  0  0  0  0  0  0  0  0  0  0
   -7.2330   22.6460  -31.8800 C   0  0  0  0  0  0  0  0  0  0  0  0
   -6.5570   23.7740  -31.4440 C   0  0  0  0  0  0  0  0  0  0  0  0
   -5.1810   23.7760  -31.3510 C   0  0  0  0  0  0  0  0  0  0  0  0
   -4.5400   24.9280  -30.9070 O   0  0  0  0  0  0  0  0  0  0  0  0
   -1.6573   20.2234  -33.6623 H   0  0  0  0  0  0  0  0  0  0  0  0
   -2.2602   21.9969  -34.0105 H   0  0  0  0  0  0  0  0  0  0  0  0
   -2.2610   20.5023  -31.2813 H   0  0  0  0  0  0  0  0  0  0  0  0
   -2.7272   22.8491  -30.5547 H   0  0  0  0  0  0  0  0  0  0  0  0
   -2.6186   23.4164  -32.2703 H   0  0  0  0  0  0  0  0  0  0  0  0
   -4.6238   20.6019  -32.4192 H   0  0  0  0  0  0  0  0  0  0  0  0
   -8.3086   20.3540  -32.1013 H   0  0  0  0  0  0  0  0  0  0  0  0
   -7.5304   20.4824  -33.7633 H   0  0  0  0  0  0  0  0  0  0  0  0
   -7.1593   18.9804  -30.4035 H   0  0  0  0  0  0  0  0  0  0  0  0
   -6.1390   16.8650  -30.0500 H   0  0  0  0  0  0  0  0  0  0  0  0
   -5.0380   15.0640  -30.8330 H   0  0  0  0  0  0  0  0  0  0  0  0
   -5.1490   16.5310  -34.0300 H   0  0  0  0  0  0  0  0  0  0  0  0
   -6.5040   19.4980  -35.1930 H   0  0  0  0  0  0  0  0  0  0  0  0
   -8.3309   22.6694  -31.9438 H   0  0  0  0  0  0  0  0  0  0  0  0
   -7.1230   24.6764  -31.1695 H   0  0  0  0  0  0  0  0  0  0  0  0
   -4.2480   25.6510  -31.5840 H   0  0  0  0  0  0  0  0  0  0  0  0
  1  2  2  0
  2  3  1  0
  3  4  1  0
  4  5  2  0
  5  6  1  0
  6  7  1  0
  7  8  1  0
  8  9  2  0
  9 10  1  0
 10 11  1  0
 11 12  2  3
 11 13  1  0
 13 14  1  0
 14 15  2  3
  6 16  2  0
 16 17  1  0
 17 18  2  0
 18 19  1  0
 18  4  1  0
 14  8  1  0
  1 20  1  0
  1 21  1  0
  2 22  1  0
  3 23  1  0
  3 24  1  0
  5 25  1  0
  7 26  1  0
  7 27  1  0
  9 28  1  0
 10 29  1  0
 12 30  1  0
 13 31  1  0
 15 32  1  0
 16 33  1  0
 17 34  1  0
 19 35  1  0
M  END
>  <smiles>  (49) 
C=CCc1cc(Cc2c[nH]c(=N)[nH]c2=N)ccc1O

>  <score_type>  (49) 
oracle

>  <origin>  (49) 
adgpu

>  <m_score__min__energy>  (49) 
-7.7999999999999998

>  <m_primary>  (49) 
energy

$$$$
49:0
     RDKit          3D

 74 78  0  0  0  0  0  0  0  0999 V2000
   -5.2760   15.5300  -31.2380 N   0  0  0  0  0  0  0  0  0  0  0  0
   -5.6550   16.5820  -32.1320 C   0  0  0  0  0  0  0  0  0  0  0  0
   -6.4580   17.6330  -31.6640 C   0  0  0  0  0  0  0  0  0  0  0  0
   -6.8630   18.6620  -32.5250 C   0  0  0  0  0  0  0  0  0  0  0  0
   -7.8510   19.9910  -31.9150 S   0  0  0  0  0  0  0  0  0  0  0  0
   -8.8030   19.4680  -30.8760 O   0  0  0  0  0  0  0  0  0  0  0  0
   -8.6640   20.5570  -33.0460 O   0  0  0  0  0  0  0  0  0  0  0  0
   -6.8740   21.2610  -31.2200 N   0  0  0  0  0  0  0  0  0  0  0  0
   -5.9900   21.8540  -32.2450 C   0  0  0  0  0  0  0  0  0  0  0  0
   -5.4020   23.2110  -31.8000 C   0  0  0  0  0  0  0  0  0  0  0  0
   -5.5180   23.3750  -30.3450 N   0  0  0  0  0  0  0  0  0  0  0  0
   -4.3820   23.7510  -29.5380 C   0  0  0  0  0  0  0  0  0  0  0  0
   -3.0990   23.8430  -30.1050 C   0  0  0  0  0  0  0  0  0  0  0  0
   -1.9950   24.1770  -29.3160 C   0  0  0  0  0  0  0  0  0  0  0  0
   -2.1520   24.4030  -27.9430 C   0  0  0  0  0  0  0  0  0  0  0  0
   -0.7500   24.7850  -26.9470 S   0  0  0  0  0  0  0  0  0  0  0  0
    0.1970   25.6140  -27.7680 O   0  0  0  0  0  0  0  0  0  0  0  0
   -1.1870   25.5860  -25.7520 O   0  0  0  0  0  0  0  0  0  0  0  0
    0.0490   23.3100  -26.4390 N   0  0  0  0  0  0  0  0  0  0  0  0
    0.8440   22.6750  -27.5090 C   0  0  0  0  0  0  0  0  0  0  0  0
   -0.0100   21.8810  -28.5090 C   0  0  0  0  0  0  0  0  0  0  0  0
   -0.9010   20.8750  -27.7850 C   0  0  0  0  0  0  0  0  0  0  0  0
   -1.7480   21.5750  -26.7250 C   0  0  0  0  0  0  0  0  0  0  0  0
   -0.8610   22.3700  -25.7540 C   0  0  0  0  0  0  0  0  0  0  0  0
   -3.4270   24.3130  -27.3690 C   0  0  0  0  0  0  0  0  0  0  0  0
   -4.5340   23.9900  -28.1600 C   0  0  0  0  0  0  0  0  0  0  0  0
   -6.8390   23.1910  -29.7240 C   0  0  0  0  0  0  0  0  0  0  0  0
   -7.7200   22.2830  -30.5890 C   0  0  0  0  0  0  0  0  0  0  0  0
   -6.4650   18.6360  -33.8680 C   0  0  0  0  0  0  0  0  0  0  0  0
   -5.6610   17.5980  -34.3420 C   0  0  0  0  0  0  0  0  0  0  0  0
   -5.2450   16.5730  -33.4810 C   0  0  0  0  0  0  0  0  0  0  0  0
   -4.3930   15.5390  -33.9870 N   0  0  0  0  0  0  0  0  0  0  0  0
   -4.9450   14.1960  -34.2030 C   0  0  0  0  0  0  0  0  0  0  0  0
   -3.8520   13.2070  -34.6220 C   0  0  0  0  0  0  0  0  0  0  0  0
   -2.6470   13.3090  -33.6760 C   0  0  0  0  0  0  0  0  0  0  0  0
   -2.1050   14.7510  -33.5260 C   0  0  0  0  0  0  0  0  0  0  0  0
   -2.9710   15.8110  -34.2200 C   0  0  0  0  0  0  0  0  0  0  0  0
   -5.4810   15.6010  -30.2150 H   0  0  0  0  0  0  0  0  0  0  0  0
   -4.8040   14.6630  -31.5810 H   0  0  0  0  0  0  0  0  0  0  0  0
   -6.7730   17.6496  -30.6102 H   0  0  0  0  0  0  0  0  0  0  0  0
   -5.1617   21.1578  -32.4430 H   0  0  0  0  0  0  0  0  0  0  0  0
   -6.5932   22.0292  -33.1480 H   0  0  0  0  0  0  0  0  0  0  0  0
   -4.3405   23.2554  -32.0849 H   0  0  0  0  0  0  0  0  0  0  0  0
   -5.9635   24.0184  -32.2928 H   0  0  0  0  0  0  0  0  0  0  0  0
   -2.9628   23.6504  -31.1794 H   0  0  0  0  0  0  0  0  0  0  0  0
   -0.9991   24.2627  -29.7751 H   0  0  0  0  0  0  0  0  0  0  0  0
    1.3832   23.4615  -28.0573 H   0  0  0  0  0  0  0  0  0  0  0  0
    1.5294   21.9623  -27.0271 H   0  0  0  0  0  0  0  0  0  0  0  0
   -0.6425   22.5793  -29.0767 H   0  0  0  0  0  0  0  0  0  0  0  0
    0.6608   21.3328  -29.1869 H   0  0  0  0  0  0  0  0  0  0  0  0
   -1.5646   20.3884  -28.5150 H   0  0  0  0  0  0  0  0  0  0  0  0
   -0.2637   20.1257  -27.2927 H   0  0  0  0  0  0  0  0  0  0  0  0
   -2.4480   22.2640  -27.2202 H   0  0  0  0  0  0  0  0  0  0  0  0
   -2.2993   20.8128  -26.1548 H   0  0  0  0  0  0  0  0  0  0  0  0
   -1.5103   22.9428  -25.0756 H   0  0  0  0  0  0  0  0  0  0  0  0
   -0.2365   21.6450  -25.2114 H   0  0  0  0  0  0  0  0  0  0  0  0
   -3.5576   24.4971  -26.2924 H   0  0  0  0  0  0  0  0  0  0  0  0
   -5.5314   23.9223  -27.7012 H   0  0  0  0  0  0  0  0  0  0  0  0
   -6.7115   22.7326  -28.7322 H   0  0  0  0  0  0  0  0  0  0  0  0
   -7.3264   24.1726  -29.6298 H   0  0  0  0  0  0  0  0  0  0  0  0
   -8.4794   21.7965  -29.9593 H   0  0  0  0  0  0  0  0  0  0  0  0
   -8.2239   22.8801  -31.3633 H   0  0  0  0  0  0  0  0  0  0  0  0
   -6.7870   19.4359  -34.5510 H   0  0  0  0  0  0  0  0  0  0  0  0
   -5.3520   17.5843  -35.3976 H   0  0  0  0  0  0  0  0  0  0  0  0
   -5.4081   13.8442  -33.2693 H   0  0  0  0  0  0  0  0  0  0  0  0
   -5.6909   14.2522  -35.0095 H   0  0  0  0  0  0  0  0  0  0  0  0
   -4.2554   12.1843  -34.5862 H   0  0  0  0  0  0  0  0  0  0  0  0
   -3.5248   13.4485  -35.6441 H   0  0  0  0  0  0  0  0  0  0  0  0
   -2.9510   12.9455  -32.6833 H   0  0  0  0  0  0  0  0  0  0  0  0
   -1.8396   12.7017  -34.1111 H   0  0  0  0  0  0  0  0  0  0  0  0
   -2.0529   14.9926  -32.4541 H   0  0  0  0  0  0  0  0  0  0  0  0
   -1.1176   14.7752  -34.0103 H   0  0  0  0  0  0  0  0  0  0  0  0
   -2.7209   16.8039  -33.8179 H   0  0  0  0  0  0  0  0  0  0  0  0
   -2.7738   15.7817  -35.3018 H   0  0  0  0  0  0  0  0  0  0  0  0
  1  2  1  0
  2  3  2  0
  3  4  1  0
  4  5  1  0
  5  6  2  0
  5  7  2  0
  5  8  1  0
  8  9  1  0
  9 10  1  0
 10 11  1  0
 11 12  1  0
 12 13  2  0
 13 14  1  0
 14 15  2  0
 15 16  1  0
 16 17  2  0
 16 18  2  0
 16 19  1  0
 19 20  1  0
 20 21  1  0
 21 22  1  0
 22 23  1  0
 23 24  1  0
 15 25  1  0
 25 26  2  0
 11 27  1  0
 27 28  1  0
  4 29  2  0
 29 30  1  0
 30 31  2  0
 31 32  1  0
 32 33  1  0
 33 34  1  0
 34 35  1  0
 35 36  1  0
 36 37  1  0
 31  2  1  0
 37 32  1  0
 28  8  1  0
 26 12  1  0
 24 19  1  0
  1 38  1  0
  1 39  1  0
  3 40  1  0
  9 41  1  0
  9 42  1  0
 10 43  1  0
 10 44  1  0
 13 45  1  0
 14 46  1  0
 20 47  1  0
 20 48  1  0
 21 49  1  0
 21 50  1  0
 22 51  1  0
 22 52  1  0
 23 53  1  0
 23 54  1  0
 24 55  1  0
 24 56  1  0
 25 57  1  0
 26 58  1  0
 27 59  1  0
 27 60  1  0
 28 61  1  0
 28 62  1  0
 29 63  1  0
 30 64  1  0
 33 65  1  0
 33 66  1  0
 34 67  1  0
 34 68  1  0
 35 69  1  0
 35 70  1  0
 36 71  1  0
 36 72  1  0
 37 73  1  0
 37 74  1  0
M  END
>  <UniqueID>  (50) 
48

>  <SMILES>  (50) 
Nc1cc(S(=O)(=O)N2CCN(c3ccc(S(=O)(=O)N4CCCCC4)cc3)CC2)ccc1N1CCCCC1

>  <Energy>  (50) 
90.30193700348298

>  <Genealogy>  (50) 
Nc1cc(S(=O)(=O)N2CCN(c3ccc(S(=O)(=O)N4CCCCC4)cc3)CC2)ccc1N1CCCCC1 (3D coordinates assigned)
Nc1cc(S(=O)(=O)N2CCN(c3ccc(S(=O)(=O)N4CCCCC4)cc3)CC2)ccc1N1CCCCC1 (nonaromatic ring conformer: 90.30193700348298 kcal/mol)

>  <smiles>  (50) 
Nc1cc(S(=O)(=O)N2CCN(c3ccc(S(=O)(=O)N4CCCCC4)cc3)CC2)ccc1N1CCCCC1

>  <score_type>  (50) 
oracle

>  <origin>  (50) 
adgpu

>  <m_score__min__energy>  (50) 
-10.640000000000001

>  <m_primary>  (50) 
energy

$$$$
