0:0
     RDKit          3D

 31 32  0  0  1  0  0  0  0  0999 V2000
   -3.7360   20.1660  -33.4400 C   0  0  0  0  0  0  0  0  0  0  0  0
   -4.7350   19.1190  -33.4970 N   0  0  0  0  0  0  0  0  0  0  0  0
   -5.8720   19.1730  -32.9220 C   0  0  0  0  0  0  0  0  0  0  0  0
   -6.2130   20.2680  -32.1960 N   0  0  0  0  0  0  0  0  0  0  0  0
   -7.3930   20.3500  -31.5850 C   0  0  0  0  0  0  0  0  0  0  0  0
   -7.7410   21.3850  -30.8870 N   0  0  0  0  0  0  0  0  0  0  0  0
   -6.7990   22.4490  -30.7940 C   0  0  0  0  0  0  0  0  0  0  0  0
   -6.6620   23.2400  -31.9390 C   0  0  0  0  0  0  0  0  0  0  0  0
   -5.7810   24.2990  -31.9680 C   0  0  0  0  0  0  0  0  0  0  0  0
   -5.0160   24.5830  -30.8420 C   0  0  0  0  0  0  0  0  0  0  0  0
   -4.1130   25.6610  -30.8580 O   0  0  0  0  0  0  0  0  0  0  0  0
   -5.1540   23.7920  -29.6970 C   0  0  0  0  0  0  0  0  0  0  0  0
   -6.0530   22.7200  -29.6810 C   0  0  0  0  0  0  0  0  0  0  0  0
   -8.2730   19.3380  -31.6820 N   0  0  0  0  0  0  0  0  0  0  0  0
   -7.9880   18.2280  -32.3890 C   0  0  0  0  0  0  0  0  0  0  0  0
   -6.7810   18.1400  -33.0150 C   0  0  0  0  0  0  0  0  0  0  0  0
   -6.4390   16.9230  -33.8050 C   0  0  0  0  0  0  0  0  0  0  0  0
   -5.2940   16.3420  -33.2520 F   0  0  0  0  0  0  0  0  0  0  0  0
   -7.4540   16.0160  -33.7520 F   0  0  0  0  0  0  0  0  0  0  0  0
   -6.1370   17.3240  -35.0910 F   0  0  0  0  0  0  0  0  0  0  0  0
   -3.5113   20.4015  -32.3893 H   0  0  0  0  0  0  0  0  0  0  0  0
   -2.8192   19.8258  -33.9437 H   0  0  0  0  0  0  0  0  0  0  0  0
   -4.1188   21.0659  -33.9437 H   0  0  0  0  0  0  0  0  0  0  0  0
   -5.5210   21.0320  -32.1370 H   0  0  0  0  0  0  0  0  0  0  0  0
   -7.2665   23.0134  -32.8297 H   0  0  0  0  0  0  0  0  0  0  0  0
   -5.6836   24.9147  -32.8743 H   0  0  0  0  0  0  0  0  0  0  0  0
   -3.4250   25.6710  -31.5940 H   0  0  0  0  0  0  0  0  0  0  0  0
   -4.5521   24.0140  -28.8035 H   0  0  0  0  0  0  0  0  0  0  0  0
   -6.1588   22.0995  -28.7789 H   0  0  0  0  0  0  0  0  0  0  0  0
   -9.1920   19.4200  -31.1980 H   0  0  0  0  0  0  0  0  0  0  0  0
   -8.7166   17.4070  -32.4599 H   0  0  0  0  0  0  0  0  0  0  0  0
  1  2  1  0
  2  3  2  0
  3  4  1  0
  4  5  1  0
  5  6  2  0
  6  7  1  0
  7  8  2  0
  8  9  1  0
  9 10  2  0
 10 11  1  0
 10 12  1  0
 12 13  2  0
  5 14  1  0
 14 15  1  0
 15 16  2  0
 16 17  1  0
 17 18  1  0
 17 19  1  0
 17 20  1  0
 16  3  1  0
 13  7  1  0
  1 21  1  0
  1 22  1  0
  1 23  1  0
  4 24  1  0
  8 25  1  0
  9 26  1  0
 11 27  1  0
 12 28  1  0
 13 29  1  0
 14 30  1  0
 15 31  1  0
M  END
>  <smiles>  (1) 
CN=c1[nH]c(=Nc2ccc(O)cc2)[nH]cc1C(F)(F)F

>  <score_type>  (1) 
oracle

>  <origin>  (1) 
adgpu

>  <m_score__min__energy>  (1) 
-7.0999999999999996

>  <m_primary>  (1) 
energy

$$$$
1:0
     RDKit          3D

 46 49  0  0  0  0  0  0  0  0999 V2000
   -1.9830   25.6690  -28.6900 O   0  0  0  0  0  0  0  0  0  0  0  0
   -2.4870   24.7210  -29.3500 C   0  0  0  0  0  0  0  0  0  0  0  0
   -3.4870   25.0240  -30.3320 N   0  0  0  0  0  0  0  0  0  0  0  0
   -4.5880   24.1840  -30.7080 C   0  0  0  0  0  0  0  0  0  0  0  0
   -5.8890   24.5900  -30.3900 C   0  0  0  0  0  0  0  0  0  0  0  0
   -6.9830   23.7900  -30.7320 C   0  0  0  0  0  0  0  0  0  0  0  0
   -6.7840   22.5650  -31.3810 C   0  0  0  0  0  0  0  0  0  0  0  0
   -8.1590   21.5490  -31.8070 S   0  0  0  0  0  0  0  0  0  0  0  0
   -9.2650   22.4250  -32.3210 O   0  0  0  0  0  0  0  0  0  0  0  0
   -8.6530   20.7930  -30.6050 O   0  0  0  0  0  0  0  0  0  0  0  0
   -7.7090   20.4180  -33.0480 N   0  0  0  0  0  0  0  0  0  0  0  0
   -7.1050   19.2750  -32.8760 C   0  0  0  0  0  0  0  0  0  0  0  0
   -6.7310   18.7990  -31.6060 C   0  0  0  0  0  0  0  0  0  0  0  0
   -6.0800   17.5730  -31.5000 C   0  0  0  0  0  0  0  0  0  0  0  0
   -5.8150   16.8420  -32.6540 C   0  0  0  0  0  0  0  0  0  0  0  0
   -4.9980   15.2960  -32.5630 Cl  0  0  0  0  0  0  0  0  0  0  0  0
   -6.1940   17.3370  -33.8600 N   0  0  0  0  0  0  0  0  0  0  0  0
   -6.8180   18.5120  -33.9700 N   0  0  0  0  0  0  0  0  0  0  0  0
   -5.4820   22.1460  -31.6850 C   0  0  0  0  0  0  0  0  0  0  0  0
   -4.3880   22.9440  -31.3420 C   0  0  0  0  0  0  0  0  0  0  0  0
   -1.9970   23.3400  -29.1270 C   0  0  0  0  0  0  0  0  0  0  0  0
   -2.3980   22.6060  -27.9990 C   0  0  0  0  0  0  0  0  0  0  0  0
   -1.9310   21.3050  -27.7960 C   0  0  0  0  0  0  0  0  0  0  0  0
   -1.0600   20.7050  -28.7230 C   0  0  0  0  0  0  0  0  0  0  0  0
   -0.5740   19.3620  -28.5120 N   0  0  0  0  0  0  0  0  0  0  0  0
   -0.6820   18.6370  -27.3780 C   0  0  0  0  0  0  0  0  0  0  0  0
   -0.1020   17.3970  -27.5550 C   0  0  0  0  0  0  0  0  0  0  0  0
    0.3810   17.3680  -28.8470 C   0  0  0  0  0  0  0  0  0  0  0  0
    0.0740   18.5900  -29.4100 C   0  0  0  0  0  0  0  0  0  0  0  0
   -0.6730   21.4360  -29.8610 C   0  0  0  0  0  0  0  0  0  0  0  0
   -1.1410   22.7360  -30.0630 C   0  0  0  0  0  0  0  0  0  0  0  0
   -6.0516   25.5444  -29.8678 H   0  0  0  0  0  0  0  0  0  0  0  0
   -8.0031   24.1235  -30.4907 H   0  0  0  0  0  0  0  0  0  0  0  0
   -6.9510   19.3902  -30.7049 H   0  0  0  0  0  0  0  0  0  0  0  0
   -5.7785   17.1866  -30.5152 H   0  0  0  0  0  0  0  0  0  0  0  0
   -7.0860   18.8470  -34.9230 H   0  0  0  0  0  0  0  0  0  0  0  0
   -5.3207   21.1851  -32.1956 H   0  0  0  0  0  0  0  0  0  0  0  0
   -3.3673   22.6020  -31.5682 H   0  0  0  0  0  0  0  0  0  0  0  0
   -3.0853   23.0590  -27.2694 H   0  0  0  0  0  0  0  0  0  0  0  0
   -2.2473   20.7452  -26.9035 H   0  0  0  0  0  0  0  0  0  0  0  0
   -1.1613   18.9833  -26.4504 H   0  0  0  0  0  0  0  0  0  0  0  0
   -0.0375   16.5894  -26.8110 H   0  0  0  0  0  0  0  0  0  0  0  0
    0.9079   16.5338  -29.3334 H   0  0  0  0  0  0  0  0  0  0  0  0
    0.3209   18.8907  -30.4389 H   0  0  0  0  0  0  0  0  0  0  0  0
    0.0041   20.9796  -30.5980 H   0  0  0  0  0  0  0  0  0  0  0  0
   -0.8370   23.2917  -30.9623 H   0  0  0  0  0  0  0  0  0  0  0  0
  1  2  2  0
  2  3  1  0
  3  4  1  0
  4  5  2  0
  5  6  1  0
  6  7  2  0
  7  8  1  0
  8  9  2  0
  8 10  2  0
  8 11  1  0
 11 12  2  3
 12 13  1  0
 13 14  2  0
 14 15  1  0
 15 16  1  0
 15 17  2  0
 17 18  1  0
  7 19  1  0
 19 20  2  0
  2 21  1  0
 21 22  2  0
 22 23  1  0
 23 24  2  0
 24 25  1  0
 25 26  1  0
 26 27  2  0
 27 28  1  0
 28 29  2  0
 24 30  1  0
 30 31  2  0
 20  4  1  0
 31 21  1  0
 18 12  1  0
 29 25  1  0
  5 32  1  0
  6 33  1  0
 13 34  1  0
 14 35  1  0
 18 36  1  0
 19 37  1  0
 20 38  1  0
 22 39  1  0
 23 40  1  0
 26 41  1  0
 27 42  1  0
 28 43  1  0
 29 44  1  0
 30 45  1  0
 31 46  1  0
M  CHG  1   3  -1
M  END
>  <UniqueID>  (2) 
1

>  <SMILES>  (2) 
O=C([N-]c1ccc(S(=O)(=O)N=c2ccc(Cl)n[nH]2)cc1)c1ccc(-n2cccc2)cc1

>  <Energy>  (2) 
92.55805062218867

>  <Genealogy>  (2) 
O=C([N-]c1ccc(S(=O)(=O)N=c2ccc(Cl)n[nH]2)cc1)c1ccc(-n2cccc2)cc1 (protonated)
O=C([N-]c1ccc(S(=O)(=O)N=c2ccc(Cl)n[nH]2)cc1)c1ccc(-n2cccc2)cc1 (3D coordinates assigned)
O=C([N-]c1ccc(S(=O)(=O)N=c2ccc(Cl)n[nH]2)cc1)c1ccc(-n2cccc2)cc1 (optimized conformer: 92.55805062218867 kcal/mol)

>  <smiles>  (2) 
O=C(Nc1ccc(S(=O)(=O)N=c2ccc(Cl)n[nH]2)cc1)c1ccc(-n2cccc2)cc1

>  <score_type>  (2) 
oracle

>  <origin>  (2) 
adgpu

>  <m_score__min__energy>  (2) 
-12.15

>  <m_primary>  (2) 
energy

$$$$
2:0
     RDKit          3D

 25 26  0  0  0  0  0  0  0  0999 V2000
   -6.2020   24.6250  -31.2850 O   0  0  0  0  0  0  0  0  0  0  0  0
   -5.7260   23.4990  -30.9750 C   0  0  0  0  0  0  0  0  0  0  0  0
   -6.4410   22.2720  -31.4090 C   0  0  0  0  0  0  0  0  0  0  0  0
   -7.6430   21.8790  -30.7940 C   0  0  0  0  0  0  0  0  0  0  0  0
   -8.2980   20.7130  -31.2020 C   0  0  0  0  0  0  0  0  0  0  0  0
   -7.7610   19.9190  -32.2190 C   0  0  0  0  0  0  0  0  0  0  0  0
   -8.4360   18.7620  -32.6060 O   0  0  0  0  0  0  0  0  0  0  0  0
   -6.5530   20.2940  -32.8270 C   0  0  0  0  0  0  0  0  0  0  0  0
   -6.0000   19.5160  -33.8380 O   0  0  0  0  0  0  0  0  0  0  0  0
   -5.8960   21.4610  -32.4200 C   0  0  0  0  0  0  0  0  0  0  0  0
   -4.4770   23.4440  -30.1760 C   0  0  0  0  0  0  0  0  0  0  0  0
   -4.1680   22.2930  -29.4280 C   0  0  0  0  0  0  0  0  0  0  0  0
   -3.0050   22.2400  -28.6560 C   0  0  0  0  0  0  0  0  0  0  0  0
   -2.1410   23.3360  -28.6120 C   0  0  0  0  0  0  0  0  0  0  0  0
   -0.9860   23.2750  -27.8400 O   0  0  0  0  0  0  0  0  0  0  0  0
   -2.4390   24.4910  -29.3430 C   0  0  0  0  0  0  0  0  0  0  0  0
   -1.5780   25.5820  -29.2970 O   0  0  0  0  0  0  0  0  0  0  0  0
   -3.6030   24.5510  -30.1220 C   0  0  0  0  0  0  0  0  0  0  0  0
   -3.8760   25.7040  -30.8510 O   0  0  0  0  0  0  0  0  0  0  0  0
   -8.0705   22.4925  -29.9872 H   0  0  0  0  0  0  0  0  0  0  0  0
   -9.2418   20.4188  -30.7195 H   0  0  0  0  0  0  0  0  0  0  0  0
   -8.2910   18.3330  -33.5120 H   0  0  0  0  0  0  0  0  0  0  0  0
   -4.9456   21.7459  -32.8949 H   0  0  0  0  0  0  0  0  0  0  0  0
   -4.8475   21.4283  -29.4513 H   0  0  0  0  0  0  0  0  0  0  0  0
   -2.7692   21.3323  -28.0811 H   0  0  0  0  0  0  0  0  0  0  0  0
  1  2  2  0
  2  3  1  0
  3  4  2  0
  4  5  1  0
  5  6  2  0
  6  7  1  0
  6  8  1  0
  8  9  1  0
  8 10  2  0
  2 11  1  0
 11 12  2  0
 12 13  1  0
 13 14  2  0
 14 15  1  0
 14 16  1  0
 16 17  1  0
 16 18  2  0
 18 19  1  0
 10  3  1  0
 18 11  1  0
  4 20  1  0
  5 21  1  0
  7 22  1  0
 10 23  1  0
 12 24  1  0
 13 25  1  0
M  CHG  4   9  -1  15  -1  17  -1  19  -1
M  END
>  <UniqueID>  (3) 
2

>  <SMILES>  (3) 
O=C(c1ccc(O)c([O-])c1)c1ccc([O-])c([O-])c1[O-]

>  <Energy>  (3) 
34.35372908104104

>  <Genealogy>  (3) 
O=C(c1ccc(O)c([O-])c1)c1ccc([O-])c([O-])c1[O-] (protonated)
O=C(c1ccc(O)c([O-])c1)c1ccc([O-])c([O-])c1[O-] (3D coordinates assigned)
O=C(c1ccc(O)c([O-])c1)c1ccc([O-])c([O-])c1[O-] (optimized conformer: 34.35372908104104 kcal/mol)

>  <smiles>  (3) 
O=C(c1ccc(O)c(O)c1)c1ccc(O)c(O)c1O

>  <score_type>  (3) 
oracle

>  <origin>  (3) 
adgpu

>  <m_score__min__energy>  (3) 
-12.92

>  <m_primary>  (3) 
energy

$$$$
3:0
     RDKit          3D

 30 31  0  0  0  0  0  0  0  0999 V2000
   -5.7280   21.2840  -31.5450 C   0  0  0  0  0  0  0  0  0  0  0  0
   -4.7550   22.0890  -31.0640 C   0  0  0  0  0  0  0  0  0  0  0  0
   -3.6040   21.4840  -30.5070 C   0  0  0  0  0  0  0  0  0  0  0  0
   -3.4770   20.0950  -30.4760 O   0  0  0  0  0  0  0  0  0  0  0  0
   -2.5590   22.2550  -29.9860 C   0  0  0  0  0  0  0  0  0  0  0  0
   -1.3930   21.5810  -29.4850 N   0  0  0  0  0  0  0  0  0  0  0  0
   -1.4440   20.4740  -28.5660 C   0  0  0  0  0  0  0  0  0  0  0  0
   -2.4510   20.3740  -27.5840 C   0  0  0  0  0  0  0  0  0  0  0  0
   -2.4720   19.2880  -26.7040 C   0  0  0  0  0  0  0  0  0  0  0  0
   -1.4900   18.2980  -26.7870 C   0  0  0  0  0  0  0  0  0  0  0  0
   -0.4820   18.3940  -27.7500 C   0  0  0  0  0  0  0  0  0  0  0  0
   -0.4570   19.4780  -28.6320 C   0  0  0  0  0  0  0  0  0  0  0  0
   -2.6530   23.6600  -29.9700 C   0  0  0  0  0  0  0  0  0  0  0  0
   -1.5910   24.4880  -29.3420 C   0  0  0  0  0  0  0  0  0  0  0  0
   -1.8340   25.6670  -28.9720 O   0  0  0  0  0  0  0  0  0  0  0  0
   -0.3110   23.9770  -29.1620 O   0  0  0  0  0  0  0  0  0  0  0  0
   -3.7840   24.2830  -30.5320 C   0  0  0  0  0  0  0  0  0  0  0  0
   -3.8700   25.6750  -30.5060 O   0  0  0  0  0  0  0  0  0  0  0  0
   -4.8380   23.5200  -31.0960 C   0  0  0  0  0  0  0  0  0  0  0  0
   -5.8840   24.1830  -31.6390 C   0  0  0  0  0  0  0  0  0  0  0  0
   -6.6364   21.7215  -31.9849 H   0  0  0  0  0  0  0  0  0  0  0  0
   -5.6117   20.1912  -31.4967 H   0  0  0  0  0  0  0  0  0  0  0  0
   -0.4610   21.9910  -29.7200 H   0  0  0  0  0  0  0  0  0  0  0  0
   -3.2233   21.1538  -27.5101 H   0  0  0  0  0  0  0  0  0  0  0  0
   -3.2639   19.2128  -25.9442 H   0  0  0  0  0  0  0  0  0  0  0  0
   -1.5102   17.4434  -26.0947 H   0  0  0  0  0  0  0  0  0  0  0  0
    0.2926   17.6156  -27.8140 H   0  0  0  0  0  0  0  0  0  0  0  0
    0.3425   19.5512  -29.3839 H   0  0  0  0  0  0  0  0  0  0  0  0
   -6.7187   23.6225  -32.0851 H   0  0  0  0  0  0  0  0  0  0  0  0
   -5.9002   25.2829  -31.6346 H   0  0  0  0  0  0  0  0  0  0  0  0
  1  2  2  0
  2  3  1  0
  3  4  1  0
  3  5  2  0
  5  6  1  0
  6  7  1  0
  7  8  2  0
  8  9  1  0
  9 10  2  0
 10 11  1  0
 11 12  2  0
  5 13  1  0
 13 14  1  0
 14 15  2  0
 14 16  1  0
 13 17  2  0
 17 18  1  0
 17 19  1  0
 19 20  2  0
 19  2  1  0
 12  7  1  0
  1 21  1  0
  1 22  1  0
  6 23  1  0
  8 24  1  0
  9 25  1  0
 10 26  1  0
 11 27  1  0
 12 28  1  0
 20 29  1  0
 20 30  1  0
M  CHG  3   4  -1  16  -1  18  -1
M  END
>  <UniqueID>  (4) 
3

>  <SMILES>  (4) 
C=c1c([O-])c(Nc2ccccc2)c(C(=O)[O-])c([O-])c1=C

>  <Energy>  (4) 
54.782568825114964

>  <Genealogy>  (4) 
C=c1c([O-])c(Nc2ccccc2)c(C(=O)[O-])c([O-])c1=C (protonated)
C=c1c([O-])c(Nc2ccccc2)c(C(=O)[O-])c([O-])c1=C (3D coordinates assigned)
C=c1c([O-])c(Nc2ccccc2)c(C(=O)[O-])c([O-])c1=C (optimized conformer: 54.782568825114964 kcal/mol)

>  <smiles>  (4) 
C=c1c(O)c(Nc2ccccc2)c(C(=O)O)c(O)c1=C

>  <score_type>  (4) 
oracle

>  <origin>  (4) 
adgpu

>  <m_score__min__energy>  (4) 
-11.23

>  <m_primary>  (4) 
energy

$$$$
4:0
     RDKit          3D

 56 58  0  0  0  0  0  0  0  0999 V2000
   -0.8910   26.6910  -27.5100 C   0  0  0  0  0  0  0  0  0  0  0  0
   -1.6180   26.2340  -28.6440 O   0  0  0  0  0  0  0  0  0  0  0  0
   -1.7490   24.8960  -29.0560 C   0  0  0  0  0  0  0  0  0  0  0  0
   -0.7320   24.0160  -28.6670 C   0  0  0  0  0  0  0  0  0  0  0  0
   -0.8000   22.6590  -28.9800 C   0  0  0  0  0  0  0  0  0  0  0  0
   -1.9070   22.1520  -29.6630 C   0  0  0  0  0  0  0  0  0  0  0  0
   -1.9770   20.4360  -30.0580 S   0  0  0  0  0  0  0  0  0  0  0  0
   -1.6220   19.6430  -28.8290 O   0  0  0  0  0  0  0  0  0  0  0  0
   -3.3680   20.0600  -30.4870 O   0  0  0  0  0  0  0  0  0  0  0  0
   -0.8420   20.0840  -31.3400 N   0  0  0  0  0  0  0  0  0  0  0  0
   -1.3110   18.9190  -32.1210 C   0  0  0  0  0  0  0  0  0  0  0  0
   -0.7000   18.9300  -33.5320 C   0  0  0  0  0  0  0  0  0  0  0  0
   -1.0560   20.0740  -34.3000 O   0  0  0  0  0  0  0  0  0  0  0  0
   -1.3680   21.2170  -33.5140 C   0  0  0  0  0  0  0  0  0  0  0  0
   -0.5980   21.2810  -32.1830 C   0  0  0  0  0  0  0  0  0  0  0  0
   -2.9270   23.0210  -30.0680 C   0  0  0  0  0  0  0  0  0  0  0  0
   -2.8280   24.4030  -29.8360 C   0  0  0  0  0  0  0  0  0  0  0  0
   -3.8250   25.2970  -30.3520 N   0  0  0  0  0  0  0  0  0  0  0  0
   -5.2540   25.2050  -30.2190 C   0  0  0  0  0  0  0  0  0  0  0  0
   -5.8850   26.2250  -29.8370 O   0  0  0  0  0  0  0  0  0  0  0  0
   -6.0430   23.9870  -30.6220 C   0  0  0  0  0  0  0  0  0  0  0  0
   -5.5500   23.3890  -32.2760 S   0  0  0  0  0  0  0  0  0  0  0  0
   -6.5870   21.9150  -32.2290 C   0  0  0  0  0  0  0  0  0  0  0  0
   -7.9100   22.0350  -31.7840 C   0  0  0  0  0  0  0  0  0  0  0  0
   -8.7250   20.9080  -31.6750 C   0  0  0  0  0  0  0  0  0  0  0  0
   -8.2320   19.6450  -32.0290 C   0  0  0  0  0  0  0  0  0  0  0  0
   -9.1080   18.4320  -31.9230 C   0  0  0  0  0  0  0  0  0  0  0  0
   -6.9300   19.5300  -32.5390 C   0  0  0  0  0  0  0  0  0  0  0  0
   -6.0960   20.6580  -32.6380 C   0  0  0  0  0  0  0  0  0  0  0  0
   -4.7120   20.5160  -33.2120 C   0  0  0  0  0  0  0  0  0  0  0  0
   -1.4036   26.3688  -26.5916 H   0  0  0  0  0  0  0  0  0  0  0  0
    0.1244   26.2684  -27.5307 H   0  0  0  0  0  0  0  0  0  0  0  0
   -0.8316   27.7892  -27.5307 H   0  0  0  0  0  0  0  0  0  0  0  0
    0.1329   24.4006  -28.1065 H   0  0  0  0  0  0  0  0  0  0  0  0
    0.0202   21.9866  -28.6882 H   0  0  0  0  0  0  0  0  0  0  0  0
    0.0610   19.8220  -30.8780 H   0  0  0  0  0  0  0  0  0  0  0  0
   -1.0124   17.9944  -31.6052 H   0  0  0  0  0  0  0  0  0  0  0  0
   -2.4063   18.9697  -32.2091 H   0  0  0  0  0  0  0  0  0  0  0  0
    0.3955   18.9029  -33.4364 H   0  0  0  0  0  0  0  0  0  0  0  0
   -1.0966   18.0510  -34.0612 H   0  0  0  0  0  0  0  0  0  0  0  0
   -1.1266   22.1170  -34.0986 H   0  0  0  0  0  0  0  0  0  0  0  0
   -2.4374   21.1534  -33.2642 H   0  0  0  0  0  0  0  0  0  0  0  0
    0.4785   21.3498  -32.3987 H   0  0  0  0  0  0  0  0  0  0  0  0
   -0.9506   22.1636  -31.6292 H   0  0  0  0  0  0  0  0  0  0  0  0
   -3.8164   22.6170  -30.5738 H   0  0  0  0  0  0  0  0  0  0  0  0
   -5.8685   23.1882  -29.8862 H   0  0  0  0  0  0  0  0  0  0  0  0
   -7.1078   24.2608  -30.6566 H   0  0  0  0  0  0  0  0  0  0  0  0
   -8.3091   23.0251  -31.5186 H   0  0  0  0  0  0  0  0  0  0  0  0
   -9.7576   21.0111  -31.3101 H   0  0  0  0  0  0  0  0  0  0  0  0
   -9.2792   18.1949  -30.8626 H   0  0  0  0  0  0  0  0  0  0  0  0
  -10.0717   18.6316  -32.4143 H   0  0  0  0  0  0  0  0  0  0  0  0
   -8.6155   17.5799  -32.4143 H   0  0  0  0  0  0  0  0  0  0  0  0
   -6.5578   18.5475  -32.8647 H   0  0  0  0  0  0  0  0  0  0  0  0
   -3.9814   20.4410  -32.3931 H   0  0  0  0  0  0  0  0  0  0  0  0
   -4.6632   19.6081  -33.8312 H   0  0  0  0  0  0  0  0  0  0  0  0
   -4.4799   21.3950  -33.8312 H   0  0  0  0  0  0  0  0  0  0  0  0
  1  2  1  0
  2  3  1  0
  3  4  2  0
  4  5  1  0
  5  6  2  0
  6  7  1  0
  7  8  2  0
  7  9  2  0
  7 10  1  0
 10 11  1  0
 11 12  1  0
 12 13  1  0
 13 14  1  0
 14 15  1  0
  6 16  1  0
 16 17  2  0
 17 18  1  0
 18 19  1  0
 19 20  2  0
 19 21  1  0
 21 22  1  0
 22 23  1  0
 23 24  2  0
 24 25  1  0
 25 26  2  0
 26 27  1  0
 26 28  1  0
 28 29  2  0
 29 30  1  0
 17  3  1  0
 29 23  1  0
 15 10  1  0
  1 31  1  0
  1 32  1  0
  1 33  1  0
  4 34  1  0
  5 35  1  0
 10 36  1  0
 11 37  1  0
 11 38  1  0
 12 39  1  0
 12 40  1  0
 14 41  1  0
 14 42  1  0
 15 43  1  0
 15 44  1  0
 16 45  1  0
 21 46  1  0
 21 47  1  0
 24 48  1  0
 25 49  1  0
 27 50  1  0
 27 51  1  0
 27 52  1  0
 28 53  1  0
 30 54  1  0
 30 55  1  0
 30 56  1  0
M  CHG  2  10   1  18  -1
M  END
>  <UniqueID>  (5) 
4

>  <SMILES>  (5) 
COc1ccc(S(=O)(=O)[NH+]2CCOCC2)cc1[N-]C(=O)CSc1ccc(C)cc1C

>  <Energy>  (5) 
66.1995721769523

>  <Genealogy>  (5) 
COc1ccc(S(=O)(=O)[NH+]2CCOCC2)cc1[N-]C(=O)CSc1ccc(C)cc1C (protonated)
COc1ccc(S(=O)(=O)[NH+]2CCOCC2)cc1[N-]C(=O)CSc1ccc(C)cc1C (3D coordinates assigned)
COc1ccc(S(=O)(=O)[NH+]2CCOCC2)cc1[N-]C(=O)CSc1ccc(C)cc1C (nonaromatic ring conformer: 66.1995721769523 kcal/mol)

>  <smiles>  (5) 
COc1ccc(S(=O)(=O)N2CCOCC2)cc1NC(=O)CSc1ccc(C)cc1C

>  <score_type>  (5) 
oracle

>  <origin>  (5) 
adgpu

>  <m_score__min__energy>  (5) 
-11.19

>  <m_primary>  (5) 
energy

$$$$
5:0
     RDKit          3D

 42 44  0  0  0  0  0  0  0  0999 V2000
   -0.0300   22.9500  -25.0560 C   0  0  0  0  0  0  0  0  0  0  0  0
    0.0790   22.5560  -26.4200 O   0  0  0  0  0  0  0  0  0  0  0  0
   -0.9610   22.6440  -27.3600 C   0  0  0  0  0  0  0  0  0  0  0  0
   -2.0250   21.7220  -27.3860 C   0  0  0  0  0  0  0  0  0  0  0  0
   -3.0370   21.8390  -28.3390 C   0  0  0  0  0  0  0  0  0  0  0  0
   -3.0040   22.8650  -29.2920 C   0  0  0  0  0  0  0  0  0  0  0  0
   -4.0780   22.9750  -30.2420 N   0  0  0  0  0  0  0  0  0  0  0  0
   -4.5910   24.2210  -30.7420 C   0  0  0  0  0  0  0  0  0  0  0  0
   -3.9720   25.3010  -30.5380 O   0  0  0  0  0  0  0  0  0  0  0  0
   -5.8220   24.2330  -31.5940 C   0  0  0  0  0  0  0  0  0  0  0  0
   -6.3120   22.8720  -31.7840 N   0  0  0  0  0  0  0  0  0  0  0  0
   -5.5960   21.7930  -32.3930 C   0  0  0  0  0  0  0  0  0  0  0  0
   -4.4310   21.9190  -32.8590 O   0  0  0  0  0  0  0  0  0  0  0  0
   -6.3600   20.5390  -32.4240 C   0  0  0  0  0  0  0  0  0  0  0  0
   -5.9510   19.3080  -32.9470 C   0  0  0  0  0  0  0  0  0  0  0  0
   -6.8380   18.2200  -32.8810 C   0  0  0  0  0  0  0  0  0  0  0  0
   -8.1120   18.3700  -32.3000 C   0  0  0  0  0  0  0  0  0  0  0  0
   -8.5110   19.6120  -31.7790 C   0  0  0  0  0  0  0  0  0  0  0  0
   -7.6170   20.6800  -31.8520 C   0  0  0  0  0  0  0  0  0  0  0  0
   -7.8660   22.3070  -31.2830 S   0  0  0  0  0  0  0  0  0  0  0  0
   -8.9780   23.0090  -32.0140 O   0  0  0  0  0  0  0  0  0  0  0  0
   -8.0280   22.3710  -29.7880 O   0  0  0  0  0  0  0  0  0  0  0  0
   -1.9550   23.8010  -29.2530 C   0  0  0  0  0  0  0  0  0  0  0  0
   -0.9270   23.6900  -28.2950 C   0  0  0  0  0  0  0  0  0  0  0  0
    0.1400   24.6010  -28.2380 O   0  0  0  0  0  0  0  0  0  0  0  0
    0.2560   25.6490  -27.2790 C   0  0  0  0  0  0  0  0  0  0  0  0
    0.2068   22.0940  -24.4070 H   0  0  0  0  0  0  0  0  0  0  0  0
    0.6751   23.7697  -24.8536 H   0  0  0  0  0  0  0  0  0  0  0  0
   -1.0561   23.2907  -24.8536 H   0  0  0  0  0  0  0  0  0  0  0  0
   -2.0584   20.9047  -26.6505 H   0  0  0  0  0  0  0  0  0  0  0  0
   -3.8685   21.1189  -28.3421 H   0  0  0  0  0  0  0  0  0  0  0  0
   -4.4540   22.0920  -30.6590 H   0  0  0  0  0  0  0  0  0  0  0  0
   -6.6000   24.8346  -31.1012 H   0  0  0  0  0  0  0  0  0  0  0  0
   -5.5779   24.6685  -32.5742 H   0  0  0  0  0  0  0  0  0  0  0  0
   -4.9554   19.1938  -33.4007 H   0  0  0  0  0  0  0  0  0  0  0  0
   -6.5347   17.2434  -33.2864 H   0  0  0  0  0  0  0  0  0  0  0  0
   -8.7976   17.5110  -32.2540 H   0  0  0  0  0  0  0  0  0  0  0  0
   -9.5046   19.7392  -31.3244 H   0  0  0  0  0  0  0  0  0  0  0  0
   -1.9366   24.6283  -29.9777 H   0  0  0  0  0  0  0  0  0  0  0  0
    0.2091   25.2250  -26.2651 H   0  0  0  0  0  0  0  0  0  0  0  0
    1.2169   26.1666  -27.4159 H   0  0  0  0  0  0  0  0  0  0  0  0
   -0.5685   26.3642  -27.4159 H   0  0  0  0  0  0  0  0  0  0  0  0
  1  2  1  0
  2  3  1  0
  3  4  2  0
  4  5  1  0
  5  6  2  0
  6  7  1  0
  7  8  1  0
  8  9  2  0
  8 10  1  0
 10 11  1  0
 11 12  1  0
 12 13  2  0
 12 14  1  0
 14 15  2  0
 15 16  1  0
 16 17  2  0
 17 18  1  0
 18 19  2  0
 19 20  1  0
 20 21  2  0
 20 22  2  0
  6 23  1  0
 23 24  2  0
 24 25  1  0
 25 26  1  0
 24  3  1  0
 20 11  1  0
 19 14  1  0
  1 27  1  0
  1 28  1  0
  1 29  1  0
  4 30  1  0
  5 31  1  0
  7 32  1  0
 10 33  1  0
 10 34  1  0
 15 35  1  0
 16 36  1  0
 17 37  1  0
 18 38  1  0
 23 39  1  0
 26 40  1  0
 26 41  1  0
 26 42  1  0
M  END
>  <UniqueID>  (6) 
5

>  <SMILES>  (6) 
COc1ccc(NC(=O)CN2C(=O)c3ccccc3S2(=O)=O)cc1OC

>  <Energy>  (6) 
66.34464244023268

>  <Genealogy>  (6) 
COc1ccc(NC(=O)CN2C(=O)c3ccccc3S2(=O)=O)cc1OC (3D coordinates assigned)
COc1ccc(NC(=O)CN2C(=O)c3ccccc3S2(=O)=O)cc1OC (nonaromatic ring conformer: 66.34464244023268 kcal/mol)

>  <smiles>  (6) 
COc1ccc(NC(=O)CN2C(=O)c3ccccc3S2(=O)=O)cc1OC

>  <score_type>  (6) 
oracle

>  <origin>  (6) 
adgpu

>  <m_score__min__energy>  (6) 
-9.5800000000000001

>  <m_primary>  (6) 
energy

$$$$
6:0
     RDKit          3D

 43 45  0  0  0  0  0  0  0  0999 V2000
   -2.9700   12.5130  -36.9600 C   0  0  0  0  0  0  0  0  0  0  0  0
   -3.4660   13.6170  -36.0830 C   0  0  0  0  0  0  0  0  0  0  0  0
   -3.0530   14.9370  -36.2930 C   0  0  0  0  0  0  0  0  0  0  0  0
   -3.5210   15.9210  -35.4820 N   0  0  0  0  0  0  0  0  0  0  0  0
   -4.3840   15.6580  -34.4630 C   0  0  0  0  0  0  0  0  0  0  0  0
   -4.8720   16.7600  -33.6070 C   0  0  0  0  0  0  0  0  0  0  0  0
   -5.3590   16.5010  -32.4710 O   0  0  0  0  0  0  0  0  0  0  0  0
   -4.7600   18.1250  -34.0460 N   0  0  0  0  0  0  0  0  0  0  0  0
   -5.4450   19.2260  -33.4240 C   0  0  0  0  0  0  0  0  0  0  0  0
   -6.8270   19.1410  -33.2050 C   0  0  0  0  0  0  0  0  0  0  0  0
   -7.5120   20.1890  -32.5810 C   0  0  0  0  0  0  0  0  0  0  0  0
   -6.8200   21.3320  -32.1600 C   0  0  0  0  0  0  0  0  0  0  0  0
   -7.6800   22.6410  -31.3550 S   0  0  0  0  0  0  0  0  0  0  0  0
   -9.0210   22.8110  -32.0100 O   0  0  0  0  0  0  0  0  0  0  0  0
   -7.8590   22.2840  -29.9060 O   0  0  0  0  0  0  0  0  0  0  0  0
   -6.7290   24.0830  -31.5140 N   0  0  0  0  0  0  0  0  0  0  0  0
   -5.5880   24.3870  -30.9620 C   0  0  0  0  0  0  0  0  0  0  0  0
   -4.9940   25.5320  -31.2020 O   0  0  0  0  0  0  0  0  0  0  0  0
   -3.8760   25.6360  -30.5490 N   0  0  0  0  0  0  0  0  0  0  0  0
   -3.7240   24.5010  -29.8420 C   0  0  0  0  0  0  0  0  0  0  0  0
   -2.5600   24.2420  -28.9410 C   0  0  0  0  0  0  0  0  0  0  0  0
   -4.7990   23.6520  -30.0750 C   0  0  0  0  0  0  0  0  0  0  0  0
   -5.0190   22.3160  -29.4300 C   0  0  0  0  0  0  0  0  0  0  0  0
   -5.4340   21.4080  -32.3470 C   0  0  0  0  0  0  0  0  0  0  0  0
   -4.7490   20.3620  -32.9720 C   0  0  0  0  0  0  0  0  0  0  0  0
   -4.7980   14.3320  -34.2550 C   0  0  0  0  0  0  0  0  0  0  0  0
   -4.3300   13.3490  -35.0680 N   0  0  0  0  0  0  0  0  0  0  0  0
   -2.5989   11.6871  -36.3353 H   0  0  0  0  0  0  0  0  0  0  0  0
   -3.7923   12.1516  -37.5950 H   0  0  0  0  0  0  0  0  0  0  0  0
   -2.1538   12.8878  -37.5950 H   0  0  0  0  0  0  0  0  0  0  0  0
   -2.3547   15.1762  -37.1086 H   0  0  0  0  0  0  0  0  0  0  0  0
   -4.0740   18.3440  -34.8030 H   0  0  0  0  0  0  0  0  0  0  0  0
   -7.3767   18.2439  -33.5261 H   0  0  0  0  0  0  0  0  0  0  0  0
   -8.5977   20.1153  -32.4203 H   0  0  0  0  0  0  0  0  0  0  0  0
   -2.8847   24.3143  -27.8925 H   0  0  0  0  0  0  0  0  0  0  0  0
   -2.1644   23.2339  -29.1337 H   0  0  0  0  0  0  0  0  0  0  0  0
   -1.7742   24.9873  -29.1337 H   0  0  0  0  0  0  0  0  0  0  0  0
   -5.0003   22.4295  -28.3360 H   0  0  0  0  0  0  0  0  0  0  0  0
   -5.9952   21.9153  -29.7405 H   0  0  0  0  0  0  0  0  0  0  0  0
   -4.2228   21.6234  -29.7405 H   0  0  0  0  0  0  0  0  0  0  0  0
   -4.8823   22.2944  -32.0006 H   0  0  0  0  0  0  0  0  0  0  0  0
   -3.6598   20.4275  -33.1112 H   0  0  0  0  0  0  0  0  0  0  0  0
   -5.4961   14.0911  -33.4398 H   0  0  0  0  0  0  0  0  0  0  0  0
  1  2  1  0
  2  3  2  0
  3  4  1  0
  4  5  2  0
  5  6  1  0
  6  7  2  0
  6  8  1  0
  8  9  1  0
  9 10  2  0
 10 11  1  0
 11 12  2  0
 12 13  1  0
 13 14  2  0
 13 15  2  0
 13 16  1  0
 16 17  2  3
 17 18  1  0
 18 19  1  0
 19 20  1  0
 20 21  1  0
 20 22  2  0
 22 23  1  0
 12 24  1  0
 24 25  2  0
  5 26  1  0
 26 27  2  0
 27  2  1  0
 25  9  1  0
 22 17  1  0
  1 28  1  0
  1 29  1  0
  1 30  1  0
  3 31  1  0
  8 32  1  0
 10 33  1  0
 11 34  1  0
 21 35  1  0
 21 36  1  0
 21 37  1  0
 23 38  1  0
 23 39  1  0
 23 40  1  0
 24 41  1  0
 25 42  1  0
 26 43  1  0
M  CHG  1  19  -1
M  END
>  <UniqueID>  (7) 
6

>  <SMILES>  (7) 
Cc1cnc(C(=O)Nc2ccc(S(=O)(=O)N=c3o[n-]c(C)c3C)cc2)cn1

>  <Energy>  (7) 
89.78367418679017

>  <Genealogy>  (7) 
Cc1cnc(C(=O)Nc2ccc(S(=O)(=O)N=c3o[n-]c(C)c3C)cc2)cn1 (protonated)
Cc1cnc(C(=O)Nc2ccc(S(=O)(=O)N=c3o[n-]c(C)c3C)cc2)cn1 (3D coordinates assigned)
Cc1cnc(C(=O)Nc2ccc(S(=O)(=O)N=c3o[n-]c(C)c3C)cc2)cn1 (optimized conformer: 89.78367418679017 kcal/mol)

>  <smiles>  (7) 
Cc1cnc(C(=O)Nc2ccc(S(=O)(=O)N=c3o[nH]c(C)c3C)cc2)cn1

>  <score_type>  (7) 
oracle

>  <origin>  (7) 
adgpu

>  <m_score__min__energy>  (7) 
-10.35

>  <m_primary>  (7) 
energy

$$$$
7:0
     RDKit          3D

 69 75  0  0  0  0  0  0  0  0999 V2000
   -2.8030   18.9690  -25.9720 C   0  0  0  0  0  0  0  0  0  0  0  0
   -1.8740   19.8220  -26.7840 C   0  0  0  0  0  0  0  0  0  0  0  0
   -1.5380   21.1110  -26.3470 C   0  0  0  0  0  0  0  0  0  0  0  0
   -0.7000   21.9190  -27.1210 C   0  0  0  0  0  0  0  0  0  0  0  0
   -0.2050   21.4510  -28.3400 C   0  0  0  0  0  0  0  0  0  0  0  0
   -0.5530   20.1710  -28.8040 C   0  0  0  0  0  0  0  0  0  0  0  0
   -0.0370   19.6860  -30.0590 N   0  0  0  0  0  0  0  0  0  0  0  0
   -0.1800   20.5100  -31.2710 C   0  0  0  0  0  0  0  0  0  0  0  0
    0.1790   19.7160  -32.5320 C   0  0  0  0  0  0  0  0  0  0  0  0
   -0.4010   18.3670  -32.4510 N   0  0  0  0  0  0  0  0  0  0  0  0
   -1.1690   17.8040  -33.5330 C   0  0  0  0  0  0  0  0  0  0  0  0
   -1.1260   16.5600  -33.7400 O   0  0  0  0  0  0  0  0  0  0  0  0
   -2.0160   18.6640  -34.4300 C   0  0  0  0  0  0  0  0  0  0  0  0
   -2.9440   19.4680  -33.6410 N   0  0  0  0  0  0  0  0  0  0  0  0
   -2.6520   20.6170  -33.0020 C   0  0  0  0  0  0  0  0  0  0  0  0
   -3.8120   21.0980  -32.4300 C   0  0  0  0  0  0  0  0  0  0  0  0
   -3.9190   22.2780  -31.5590 C   0  0  0  0  0  0  0  0  0  0  0  0
   -3.3120   22.3810  -30.3610 N   0  0  0  0  0  0  0  0  0  0  0  0
   -3.7140   23.6050  -29.9600 C   0  0  0  0  0  0  0  0  0  0  0  0
   -3.3140   24.2230  -28.6780 C   0  0  0  0  0  0  0  0  0  0  0  0
   -4.2270   24.2770  -27.5910 C   0  0  0  0  0  0  0  0  0  0  0  0
   -3.8520   24.8650  -26.3680 C   0  0  0  0  0  0  0  0  0  0  0  0
   -2.5680   25.3870  -26.2650 C   0  0  0  0  0  0  0  0  0  0  0  0
   -1.6890   25.3430  -27.2990 C   0  0  0  0  0  0  0  0  0  0  0  0
   -2.0190   24.7700  -28.5240 C   0  0  0  0  0  0  0  0  0  0  0  0
   -0.4990   25.9320  -26.9160 O   0  0  0  0  0  0  0  0  0  0  0  0
   -0.6400   26.3730  -25.5580 C   0  0  0  0  0  0  0  0  0  0  0  0
   -1.9740   26.0060  -25.1820 O   0  0  0  0  0  0  0  0  0  0  0  0
   -4.5200   24.2010  -30.8610 N   0  0  0  0  0  0  0  0  0  0  0  0
   -4.6230   23.3470  -31.8330 O   0  0  0  0  0  0  0  0  0  0  0  0
   -4.7930   20.1770  -32.7860 C   0  0  0  0  0  0  0  0  0  0  0  0
   -6.2380   20.2250  -32.4870 C   0  0  0  0  0  0  0  0  0  0  0  0
   -6.9850   19.0440  -32.3390 C   0  0  0  0  0  0  0  0  0  0  0  0
   -8.3460   19.1060  -32.0230 C   0  0  0  0  0  0  0  0  0  0  0  0
   -8.9660   20.3440  -31.8360 C   0  0  0  0  0  0  0  0  0  0  0  0
   -8.2250   21.5230  -31.9570 C   0  0  0  0  0  0  0  0  0  0  0  0
   -6.8640   21.4640  -32.2730 C   0  0  0  0  0  0  0  0  0  0  0  0
   -4.2340   19.1960  -33.5240 N   0  0  0  0  0  0  0  0  0  0  0  0
   -0.1580   17.5450  -31.2550 C   0  0  0  0  0  0  0  0  0  0  0  0
    0.5570   18.3450  -30.1600 C   0  0  0  0  0  0  0  0  0  0  0  0
   -1.3890   19.3610  -28.0180 C   0  0  0  0  0  0  0  0  0  0  0  0
   -2.6166   19.1402  -24.9015 H   0  0  0  0  0  0  0  0  0  0  0  0
   -3.8443   19.2322  -26.2095 H   0  0  0  0  0  0  0  0  0  0  0  0
   -2.6294   17.9091  -26.2095 H   0  0  0  0  0  0  0  0  0  0  0  0
   -1.9348   21.4875  -25.3927 H   0  0  0  0  0  0  0  0  0  0  0  0
   -0.4299   22.9256  -26.7691 H   0  0  0  0  0  0  0  0  0  0  0  0
    0.4611   22.0879  -28.9405 H   0  0  0  0  0  0  0  0  0  0  0  0
   -1.2219   20.8541  -31.3491 H   0  0  0  0  0  0  0  0  0  0  0  0
    0.5081   21.3646  -31.1921 H   0  0  0  0  0  0  0  0  0  0  0  0
   -0.2214   20.2336  -33.4162 H   0  0  0  0  0  0  0  0  0  0  0  0
    1.2732   19.6375  -32.6135 H   0  0  0  0  0  0  0  0  0  0  0  0
   -1.3639   19.3314  -35.0125 H   0  0  0  0  0  0  0  0  0  0  0  0
   -2.5932   18.0140  -35.1041 H   0  0  0  0  0  0  0  0  0  0  0  0
   -1.6605   21.0901  -32.9458 H   0  0  0  0  0  0  0  0  0  0  0  0
   -5.2365   23.8554  -27.7059 H   0  0  0  0  0  0  0  0  0  0  0  0
   -4.5527   24.9098  -25.5212 H   0  0  0  0  0  0  0  0  0  0  0  0
   -1.2925   24.7434  -29.3495 H   0  0  0  0  0  0  0  0  0  0  0  0
    0.0951   25.8719  -24.9111 H   0  0  0  0  0  0  0  0  0  0  0  0
   -0.4661   27.4544  -25.4560 H   0  0  0  0  0  0  0  0  0  0  0  0
   -6.4974   18.0670  -32.4722 H   0  0  0  0  0  0  0  0  0  0  0  0
   -8.9291   18.1788  -31.9215 H   0  0  0  0  0  0  0  0  0  0  0  0
  -10.0379   20.3909  -31.5934 H   0  0  0  0  0  0  0  0  0  0  0  0
   -8.7124   22.4972  -31.8037 H   0  0  0  0  0  0  0  0  0  0  0  0
   -6.2806   22.3930  -32.3544 H   0  0  0  0  0  0  0  0  0  0  0  0
   -1.1224   17.1876  -30.8648 H   0  0  0  0  0  0  0  0  0  0  0  0
    0.4855   16.7001  -31.5415 H   0  0  0  0  0  0  0  0  0  0  0  0
    0.4497   17.8240  -29.1972 H   0  0  0  0  0  0  0  0  0  0  0  0
    1.6235   18.4368  -30.4131 H   0  0  0  0  0  0  0  0  0  0  0  0
   -1.6659   18.3571  -28.3723 H   0  0  0  0  0  0  0  0  0  0  0  0
  1  2  1  0
  2  3  2  0
  3  4  1  0
  4  5  2  0
  5  6  1  0
  6  7  1  0
  7  8  1  0
  8  9  1  0
  9 10  1  0
 10 11  1  0
 11 12  2  0
 11 13  1  0
 13 14  1  0
 14 15  1  0
 15 16  2  0
 16 17  1  0
 17 18  2  0
 18 19  1  0
 19 20  1  0
 20 21  2  0
 21 22  1  0
 22 23  2  0
 23 24  1  0
 24 25  2  0
 24 26  1  0
 26 27  1  0
 27 28  1  0
 19 29  2  0
 29 30  1  0
 16 31  1  0
 31 32  1  0
 32 33  2  0
 33 34  1  0
 34 35  2  0
 35 36  1  0
 36 37  2  0
 31 38  2  0
 10 39  1  0
 39 40  1  0
  6 41  2  0
 41  2  1  0
 40  7  1  0
 38 14  1  0
 30 17  1  0
 37 32  1  0
 25 20  1  0
 28 23  1  0
  1 42  1  0
  1 43  1  0
  1 44  1  0
  3 45  1  0
  4 46  1  0
  5 47  1  0
  8 48  1  0
  8 49  1  0
  9 50  1  0
  9 51  1  0
 13 52  1  0
 13 53  1  0
 15 54  1  0
 21 55  1  0
 22 56  1  0
 25 57  1  0
 27 58  1  0
 27 59  1  0
 33 60  1  0
 34 61  1  0
 35 62  1  0
 36 63  1  0
 37 64  1  0
 39 65  1  0
 39 66  1  0
 40 67  1  0
 40 68  1  0
 41 69  1  0
M  END
>  <UniqueID>  (8) 
7

>  <SMILES>  (8) 
Cc1cccc(N2CCN(C(=O)Cn3cc(-c4nc(-c5ccc6c(c5)OCO6)no4)c(-c4ccccc4)n3)CC2)c1

>  <Energy>  (8) 
178.7762373725388

>  <Genealogy>  (8) 
Cc1cccc(N2CCN(C(=O)Cn3cc(-c4nc(-c5ccc6c(c5)OCO6)no4)c(-c4ccccc4)n3)CC2)c1 (3D coordinates assigned)
Cc1cccc(N2CCN(C(=O)Cn3cc(-c4nc(-c5ccc6c(c5)OCO6)no4)c(-c4ccccc4)n3)CC2)c1 (nonaromatic ring conformer: 178.7762373725388 kcal/mol)

>  <smiles>  (8) 
Cc1cccc(N2CCN(C(=O)Cn3cc(-c4nc(-c5ccc6c(c5)OCO6)no4)c(-c4ccccc4)n3)CC2)c1

>  <score_type>  (8) 
oracle

>  <origin>  (8) 
adgpu

>  <m_score__min__energy>  (8) 
-11.18

>  <m_primary>  (8) 
energy

$$$$
8:0
     RDKit          3D

 42 45  0  0  0  0  0  0  0  0999 V2000
   -2.2300   23.3270  -30.4690 O   0  0  0  0  0  0  0  0  0  0  0  0
   -3.1200   24.1110  -30.0490 C   0  0  0  0  0  0  0  0  0  0  0  0
   -2.7210   25.2850  -29.3290 N   0  0  0  0  0  0  0  0  0  0  0  0
   -2.0110   25.2700  -28.0550 C   0  0  0  0  0  0  0  0  0  0  0  0
   -0.5780   24.7880  -28.1930 C   0  0  0  0  0  0  0  0  0  0  0  0
   -0.8670   26.2660  -27.9760 C   0  0  0  0  0  0  0  0  0  0  0  0
   -4.5370   23.8170  -30.3480 C   0  0  0  0  0  0  0  0  0  0  0  0
   -5.5610   24.2760  -29.5050 C   0  0  0  0  0  0  0  0  0  0  0  0
   -6.8950   23.9850  -29.7960 C   0  0  0  0  0  0  0  0  0  0  0  0
   -7.2200   23.2310  -30.9250 C   0  0  0  0  0  0  0  0  0  0  0  0
   -6.2030   22.7590  -31.7760 C   0  0  0  0  0  0  0  0  0  0  0  0
   -6.4840   21.9890  -32.9160 O   0  0  0  0  0  0  0  0  0  0  0  0
   -6.3780   20.5940  -32.9780 C   0  0  0  0  0  0  0  0  0  0  0  0
   -5.2210   20.0280  -33.5030 C   0  0  0  0  0  0  0  0  0  0  0  0
   -5.0940   18.6780  -33.5570 N   0  0  0  0  0  0  0  0  0  0  0  0
   -6.0580   17.8540  -33.1310 N   0  0  0  0  0  0  0  0  0  0  0  0
   -5.8230   16.4360  -33.2230 C   0  0  0  0  0  0  0  0  0  0  0  0
   -4.9270   15.8140  -32.3370 C   0  0  0  0  0  0  0  0  0  0  0  0
   -4.7080   14.4350  -32.4030 C   0  0  0  0  0  0  0  0  0  0  0  0
   -5.3900   13.6620  -33.3490 C   0  0  0  0  0  0  0  0  0  0  0  0
   -6.2960   14.2680  -34.2230 C   0  0  0  0  0  0  0  0  0  0  0  0
   -6.5160   15.6480  -34.1590 C   0  0  0  0  0  0  0  0  0  0  0  0
   -7.2380   18.3600  -32.6500 C   0  0  0  0  0  0  0  0  0  0  0  0
   -8.1790   17.5890  -32.3100 O   0  0  0  0  0  0  0  0  0  0  0  0
   -7.4160   19.7470  -32.5630 C   0  0  0  0  0  0  0  0  0  0  0  0
   -8.9610   20.4030  -32.0200 Cl  0  0  0  0  0  0  0  0  0  0  0  0
   -4.8670   23.0390  -31.4690 C   0  0  0  0  0  0  0  0  0  0  0  0
   -2.8670   25.0235  -27.4097 H   0  0  0  0  0  0  0  0  0  0  0  0
   -0.1177   24.1938  -27.3899 H   0  0  0  0  0  0  0  0  0  0  0  0
   -0.0217   24.2058  -28.9424 H   0  0  0  0  0  0  0  0  0  0  0  0
   -0.6159   26.7406  -27.0159 H   0  0  0  0  0  0  0  0  0  0  0  0
   -0.6065   27.1956  -28.5032 H   0  0  0  0  0  0  0  0  0  0  0  0
   -5.3115   24.8673  -28.6116 H   0  0  0  0  0  0  0  0  0  0  0  0
   -7.6929   24.3512  -29.1333 H   0  0  0  0  0  0  0  0  0  0  0  0
   -8.2728   23.0053  -31.1500 H   0  0  0  0  0  0  0  0  0  0  0  0
   -4.4108   20.6732  -33.8736 H   0  0  0  0  0  0  0  0  0  0  0  0
   -4.3943   16.4164  -31.5864 H   0  0  0  0  0  0  0  0  0  0  0  0
   -3.9991   13.9573  -31.7108 H   0  0  0  0  0  0  0  0  0  0  0  0
   -5.2130   12.5778  -33.4046 H   0  0  0  0  0  0  0  0  0  0  0  0
   -6.8370   13.6592  -34.9624 H   0  0  0  0  0  0  0  0  0  0  0  0
   -7.2353   16.1194  -34.8449 H   0  0  0  0  0  0  0  0  0  0  0  0
   -4.0667   22.6453  -32.1128 H   0  0  0  0  0  0  0  0  0  0  0  0
  1  2  2  0
  2  3  1  0
  3  4  1  0
  4  5  1  0
  5  6  1  0
  2  7  1  0
  7  8  2  0
  8  9  1  0
  9 10  2  0
 10 11  1  0
 11 12  1  0
 12 13  1  0
 13 14  1  0
 14 15  2  0
 15 16  1  0
 16 17  1  0
 17 18  2  0
 18 19  1  0
 19 20  2  0
 20 21  1  0
 21 22  2  0
 16 23  1  0
 23 24  2  0
 23 25  1  0
 25 26  1  0
 11 27  2  0
  6  4  1  0
 27  7  1  0
 25 13  2  0
 22 17  1  0
  4 28  1  0
  5 29  1  0
  5 30  1  0
  6 31  1  0
  6 32  1  0
  8 33  1  0
  9 34  1  0
 10 35  1  0
 14 36  1  0
 18 37  1  0
 19 38  1  0
 20 39  1  0
 21 40  1  0
 22 41  1  0
 27 42  1  0
M  CHG  1   3  -1
M  END
>  <UniqueID>  (9) 
8

>  <SMILES>  (9) 
O=C([N-]C1CC1)c1cccc(Oc2cnn(-c3ccccc3)c(=O)c2Cl)c1

>  <Energy>  (9) 
331.1095240312829

>  <Genealogy>  (9) 
O=C([N-]C1CC1)c1cccc(Oc2cnn(-c3ccccc3)c(=O)c2Cl)c1 (protonated)
O=C([N-]C1CC1)c1cccc(Oc2cnn(-c3ccccc3)c(=O)c2Cl)c1 (3D coordinates assigned)
O=C([N-]C1CC1)c1cccc(Oc2cnn(-c3ccccc3)c(=O)c2Cl)c1 (nonaromatic ring conformer: 331.1095240312829 kcal/mol)

>  <smiles>  (9) 
O=C(NC1CC1)c1cccc(Oc2cnn(-c3ccccc3)c(=O)c2Cl)c1

>  <score_type>  (9) 
oracle

>  <origin>  (9) 
adgpu

>  <m_score__min__energy>  (9) 
-10.369999999999999

>  <m_primary>  (9) 
energy

$$$$
9:0
     RDKit          3D

 38 40  0  0  0  0  0  0  0  0999 V2000
   -6.4170   25.4050  -29.4460 C   0  0  0  0  0  0  0  0  0  0  0  0
   -6.3090   24.1810  -30.3120 C   0  0  0  0  0  0  0  0  0  0  0  0
   -6.9470   24.1630  -31.5640 C   0  0  0  0  0  0  0  0  0  0  0  0
   -6.8770   23.0290  -32.3770 C   0  0  0  0  0  0  0  0  0  0  0  0
   -6.1680   21.9050  -31.9520 C   0  0  0  0  0  0  0  0  0  0  0  0
   -5.5150   21.9150  -30.7180 C   0  0  0  0  0  0  0  0  0  0  0  0
   -5.5620   23.0530  -29.9020 C   0  0  0  0  0  0  0  0  0  0  0  0
   -4.8790   23.0310  -28.6820 O   0  0  0  0  0  0  0  0  0  0  0  0
   -3.6040   22.4740  -28.5240 C   0  0  0  0  0  0  0  0  0  0  0  0
   -3.4630   21.2280  -27.9930 N   0  0  0  0  0  0  0  0  0  0  0  0
   -2.2410   20.6550  -27.8540 C   0  0  0  0  0  0  0  0  0  0  0  0
   -1.1290   21.3220  -28.2520 N   0  0  0  0  0  0  0  0  0  0  0  0
   -1.2150   22.5690  -28.7800 C   0  0  0  0  0  0  0  0  0  0  0  0
   -2.4620   23.1960  -28.9150 C   0  0  0  0  0  0  0  0  0  0  0  0
   -2.5420   24.5630  -29.4820 C   0  0  0  0  0  0  0  0  0  0  0  0
   -3.3390   24.7850  -30.4330 O   0  0  0  0  0  0  0  0  0  0  0  0
   -1.7740   25.6580  -28.9640 N   0  0  0  0  0  0  0  0  0  0  0  0
   -1.3310   25.8290  -27.6100 C   0  0  0  0  0  0  0  0  0  0  0  0
   -2.1800   25.5880  -26.5140 C   0  0  0  0  0  0  0  0  0  0  0  0
   -1.7120   25.7670  -25.2090 C   0  0  0  0  0  0  0  0  0  0  0  0
   -0.3920   26.1700  -24.9830 C   0  0  0  0  0  0  0  0  0  0  0  0
    0.0580   26.3500  -23.6770 O   0  0  0  0  0  0  0  0  0  0  0  0
    0.4640   26.3850  -26.0700 C   0  0  0  0  0  0  0  0  0  0  0  0
   -0.0030   26.2090  -27.3770 C   0  0  0  0  0  0  0  0  0  0  0  0
   -6.3908   25.1084  -28.3871 H   0  0  0  0  0  0  0  0  0  0  0  0
   -5.5749   26.0801  -29.6586 H   0  0  0  0  0  0  0  0  0  0  0  0
   -7.3643   25.9222  -29.6586 H   0  0  0  0  0  0  0  0  0  0  0  0
   -7.5049   25.0472  -31.9060 H   0  0  0  0  0  0  0  0  0  0  0  0
   -7.3819   23.0223  -33.3542 H   0  0  0  0  0  0  0  0  0  0  0  0
   -6.1235   21.0100  -32.5899 H   0  0  0  0  0  0  0  0  0  0  0  0
   -4.9609   21.0251  -30.3848 H   0  0  0  0  0  0  0  0  0  0  0  0
   -2.1520   19.6489  -27.4183 H   0  0  0  0  0  0  0  0  0  0  0  0
   -0.3022   23.0905  -29.1037 H   0  0  0  0  0  0  0  0  0  0  0  0
   -3.2153   25.2577  -26.6847 H   0  0  0  0  0  0  0  0  0  0  0  0
   -2.3845   25.5902  -24.3566 H   0  0  0  0  0  0  0  0  0  0  0  0
    0.6000   25.6380  -23.2010 H   0  0  0  0  0  0  0  0  0  0  0  0
    1.5056   26.6929  -25.8960 H   0  0  0  0  0  0  0  0  0  0  0  0
    0.6767   26.3700  -28.2268 H   0  0  0  0  0  0  0  0  0  0  0  0
  1  2  1  0
  2  3  2  0
  3  4  1  0
  4  5  2  0
  5  6  1  0
  6  7  2  0
  7  8  1  0
  8  9  1  0
  9 10  2  0
 10 11  1  0
 11 12  2  0
 12 13  1  0
 13 14  2  0
 14 15  1  0
 15 16  2  0
 15 17  1  0
 17 18  1  0
 18 19  2  0
 19 20  1  0
 20 21  2  0
 21 22  1  0
 21 23  1  0
 23 24  2  0
  7  2  1  0
 14  9  1  0
 24 18  1  0
  1 25  1  0
  1 26  1  0
  1 27  1  0
  3 28  1  0
  4 29  1  0
  5 30  1  0
  6 31  1  0
 11 32  1  0
 13 33  1  0
 19 34  1  0
 20 35  1  0
 22 36  1  0
 23 37  1  0
 24 38  1  0
M  CHG  1  17  -1
M  END
>  <UniqueID>  (10) 
9

>  <SMILES>  (10) 
Cc1ccccc1Oc1ncncc1C(=O)[N-]c1ccc(O)cc1

>  <Energy>  (10) 
54.86189661521962

>  <Genealogy>  (10) 
Cc1ccccc1Oc1ncncc1C(=O)[N-]c1ccc(O)cc1 (protonated)
Cc1ccccc1Oc1ncncc1C(=O)[N-]c1ccc(O)cc1 (3D coordinates assigned)
Cc1ccccc1Oc1ncncc1C(=O)[N-]c1ccc(O)cc1 (optimized conformer: 54.86189661521962 kcal/mol)

>  <smiles>  (10) 
Cc1ccccc1Oc1ncncc1C(=O)Nc1ccc(O)cc1

>  <score_type>  (10) 
oracle

>  <origin>  (10) 
adgpu

>  <m_score__min__energy>  (10) 
-9.1500000000000004

>  <m_primary>  (10) 
energy

$$$$
10:0
     RDKit          3D

 39 41  0  0  0  0  0  0  0  0999 V2000
   -6.3314   23.5587  -28.7974 H   0  0  0  0  0  0  0  0  0  0  0  0
   -6.5880   23.3860  -29.8530 C   0  0  0  0  0  0  0  0  0  0  0  0
   -7.3860   22.2930  -30.2060 C   0  0  0  0  0  0  0  0  0  0  0  0
   -7.7519   21.6075  -29.4274 H   0  0  0  0  0  0  0  0  0  0  0  0
   -7.7210   22.0680  -31.5470 C   0  0  0  0  0  0  0  0  0  0  0  0
   -8.7070   20.6780  -31.9920 S   0  0  0  0  0  0  0  0  0  0  0  0
   -8.7470   19.7000  -30.8520 O   0  0  0  0  0  0  0  0  0  0  0  0
  -10.1090   21.1240  -32.2950 O   0  0  0  0  0  0  0  0  0  0  0  0
   -8.0320   19.9120  -33.3860 N   0  0  0  0  0  0  0  0  0  0  0  0
   -8.4250   18.9450  -33.4230 H   0  0  0  0  0  0  0  0  0  0  0  0
   -8.4020   20.4190  -34.2220 H   0  0  0  0  0  0  0  0  0  0  0  0
   -7.2410   22.9380  -32.5360 C   0  0  0  0  0  0  0  0  0  0  0  0
   -7.4940   22.7607  -33.5917 H   0  0  0  0  0  0  0  0  0  0  0  0
   -6.4420   24.0300  -32.1850 C   0  0  0  0  0  0  0  0  0  0  0  0
   -6.0694   24.7091  -32.9660 H   0  0  0  0  0  0  0  0  0  0  0  0
   -6.1130   24.2640  -30.8410 C   0  0  0  0  0  0  0  0  0  0  0  0
   -5.2260   25.4240  -30.4740 C   0  0  0  0  0  0  0  0  0  0  0  0
   -5.7344   26.0448  -29.7216 H   0  0  0  0  0  0  0  0  0  0  0  0
   -5.0217   26.0162  -31.3782 H   0  0  0  0  0  0  0  0  0  0  0  0
   -3.9570   24.9440  -29.9250 N   0  0  0  0  0  0  0  0  0  0  0  0
   -3.2810   23.9280  -30.3790 C   0  0  0  0  0  0  0  0  0  0  0  0
   -3.7600   23.2190  -31.4400 N   0  0  0  0  0  0  0  0  0  0  0  0
   -3.0930   22.1580  -31.9560 C   0  0  0  0  0  0  0  0  0  0  0  0
   -3.6090   21.4530  -33.0500 C   0  0  0  0  0  0  0  0  0  0  0  0
   -4.5654   21.7565  -33.5008 H   0  0  0  0  0  0  0  0  0  0  0  0
   -2.9040   20.3610  -33.5680 C   0  0  0  0  0  0  0  0  0  0  0  0
   -3.3069   19.8053  -34.4276 H   0  0  0  0  0  0  0  0  0  0  0  0
   -1.6860   19.9740  -32.9940 C   0  0  0  0  0  0  0  0  0  0  0  0
   -1.1346   19.1152  -33.4044 H   0  0  0  0  0  0  0  0  0  0  0  0
   -1.1690   20.6770  -31.9000 C   0  0  0  0  0  0  0  0  0  0  0  0
   -0.2133   20.3710  -31.4495 H   0  0  0  0  0  0  0  0  0  0  0  0
   -1.8710   21.7700  -31.3810 C   0  0  0  0  0  0  0  0  0  0  0  0
   -1.3860   22.4680  -30.3230 N   0  0  0  0  0  0  0  0  0  0  0  0
   -2.0410   23.5380  -29.7940 C   0  0  0  0  0  0  0  0  0  0  0  0
   -1.4820   24.1420  -28.7800 N   0  0  0  0  0  0  0  0  0  0  0  0
   -1.9560   25.3040  -28.0310 C   0  0  0  0  0  0  0  0  0  0  0  0
   -1.8742   25.1034  -26.9525 H   0  0  0  0  0  0  0  0  0  0  0  0
   -1.3437   26.1808  -28.2884 H   0  0  0  0  0  0  0  0  0  0  0  0
   -3.0069   25.5024  -28.2884 H   0  0  0  0  0  0  0  0  0  0  0  0
  1  2  1  0
  2  3  2  0
  3  4  1  0
  3  5  1  0
  5  6  1  0
  6  7  2  0
  6  8  2  0
  6  9  1  0
  9 10  1  0
  9 11  1  0
  5 12  2  0
 12 13  1  0
 12 14  1  0
 14 15  1  0
 14 16  2  0
 16 17  1  0
 17 18  1  0
 17 19  1  0
 17 20  1  0
 20 21  2  3
 21 22  1  0
 22 23  1  0
 23 24  2  0
 24 25  1  0
 24 26  1  0
 26 27  1  0
 26 28  2  0
 28 29  1  0
 28 30  1  0
 30 31  1  0
 30 32  2  0
 32 33  1  0
 33 34  1  0
 34 35  2  0
 35 36  1  0
 36 37  1  0
 36 38  1  0
 36 39  1  0
 16  2  1  0
 34 21  1  0
 32 23  1  0
M  CHG  2  22  -1  33  -1
M  END
>  <UniqueID>  (11) 
10

>  <SMILES>  (11) 
C/N=c1/[n-]c2ccccc2[n-]c1=NCc1ccc(S(N)(=O)=O)cc1

>  <Energy>  (11) 
47.22578895260145

>  <Genealogy>  (11) 
CN=c1[n-]c2ccccc2[n-]c1=NCc1ccc(S(N)(=O)=O)cc1 (protonated)
C/N=c1/[n-]c2ccccc2[n-]c1=NCc1ccc(S(N)(=O)=O)cc1 (cis-trans isomerization)
C/N=c1/[n-]c2ccccc2[n-]c1=NCc1ccc(S(N)(=O)=O)cc1 (3D coordinates assigned)
C/N=c1/[n-]c2ccccc2[n-]c1=NCc1ccc(S(N)(=O)=O)cc1 (optimized conformer: 47.22578895260145 kcal/mol)

>  <smiles>  (11) 
CN=c1[nH]c2ccccc2[nH]c1=NCc1ccc(S(N)(=O)=O)cc1

>  <score_type>  (11) 
oracle

>  <origin>  (11) 
adgpu

>  <m_score__min__energy>  (11) 
-10.35

>  <m_primary>  (11) 
energy

$$$$
11:0
     RDKit          3D

 30 32  0  0  0  0  0  0  0  0999 V2000
   -8.0222   23.8652  -30.5512 H   0  0  0  0  0  0  0  0  0  0  0  0
   -7.8800   23.2190  -31.4300 C   0  0  0  0  0  0  0  0  0  0  0  0
   -8.7076   23.0630  -32.1377 H   0  0  0  0  0  0  0  0  0  0  0  0
   -6.7010   22.6230  -31.6380 C   0  0  0  0  0  0  0  0  0  0  0  0
   -5.5430   22.7320  -30.8450 C   0  0  0  0  0  0  0  0  0  0  0  0
   -5.4140   23.4620  -29.7170 C   0  0  0  0  0  0  0  0  0  0  0  0
   -6.3226   23.9185  -29.2974 H   0  0  0  0  0  0  0  0  0  0  0  0
   -4.1440   23.6910  -29.0080 C   0  0  0  0  0  0  0  0  0  0  0  0
   -3.9080   23.0200  -27.8020 C   0  0  0  0  0  0  0  0  0  0  0  0
   -4.6560   22.3192  -27.4026 H   0  0  0  0  0  0  0  0  0  0  0  0
   -2.7190   23.2460  -27.1110 C   0  0  0  0  0  0  0  0  0  0  0  0
   -2.5184   22.7141  -26.1693 H   0  0  0  0  0  0  0  0  0  0  0  0
   -1.7850   24.1480  -27.6170 C   0  0  0  0  0  0  0  0  0  0  0  0
   -0.8402   24.3258  -27.0825 H   0  0  0  0  0  0  0  0  0  0  0  0
   -2.0580   24.8250  -28.8090 C   0  0  0  0  0  0  0  0  0  0  0  0
   -1.2210   25.6510  -29.2610 O   0  0  0  0  0  0  0  0  0  0  0  0
   -3.2280   24.5960  -29.4770 N   0  0  0  0  0  0  0  0  0  0  0  0
   -3.4880   25.2990  -30.6330 O   0  0  0  0  0  0  0  0  0  0  0  0
   -4.5960   21.9190  -31.4800 C   0  0  0  0  0  0  0  0  0  0  0  0
   -3.2890   21.5370  -31.1420 C   0  0  0  0  0  0  0  0  0  0  0  0
   -2.8100   21.9152  -30.2268 H   0  0  0  0  0  0  0  0  0  0  0  0
   -2.6070   20.6590  -32.0020 C   0  0  0  0  0  0  0  0  0  0  0  0
   -1.5750   20.3588  -31.7678 H   0  0  0  0  0  0  0  0  0  0  0  0
   -3.2330   20.1600  -33.1610 C   0  0  0  0  0  0  0  0  0  0  0  0
   -2.6845   19.4812  -33.8306 H   0  0  0  0  0  0  0  0  0  0  0  0
   -4.5530   20.5250  -33.4650 C   0  0  0  0  0  0  0  0  0  0  0  0
   -5.0569   20.1315  -34.3601 H   0  0  0  0  0  0  0  0  0  0  0  0
   -5.2080   21.4010  -32.6000 C   0  0  0  0  0  0  0  0  0  0  0  0
   -6.4790   21.8200  -32.7040 N   0  0  0  0  0  0  0  0  0  0  0  0
   -7.1590   21.5650  -33.4550 H   0  0  0  0  0  0  0  0  0  0  0  0
  1  2  1  0
  2  3  1  0
  2  4  2  0
  4  5  1  0
  5  6  2  0
  6  7  1  0
  6  8  1  0
  8  9  2  0
  9 10  1  0
  9 11  1  0
 11 12  1  0
 11 13  2  0
 13 14  1  0
 13 15  1  0
 15 16  2  0
 15 17  1  0
 17 18  1  0
  5 19  1  0
 19 20  2  0
 20 21  1  0
 20 22  1  0
 22 23  1  0
 22 24  2  0
 24 25  1  0
 24 26  1  0
 26 27  1  0
 26 28  2  0
 28 29  1  0
 29 30  1  0
 29  4  1  0
 17  8  1  0
 28 19  1  0
M  CHG  1  18  -1
M  END
>  <UniqueID>  (12) 
11

>  <SMILES>  (12) 
C=c1[nH]c2ccccc2/c1=C\c1cccc(=O)n1[O-]

>  <Energy>  (12) 
79.86676332775023

>  <Genealogy>  (12) 
C=c1[nH]c2ccccc2c1=Cc1cccc(=O)n1[O-] (protonated)
C=c1[nH]c2ccccc2/c1=C\c1cccc(=O)n1[O-] (cis-trans isomerization)
C=c1[nH]c2ccccc2/c1=C\c1cccc(=O)n1[O-] (3D coordinates assigned)
C=c1[nH]c2ccccc2/c1=C\c1cccc(=O)n1[O-] (optimized conformer: 79.86676332775023 kcal/mol)

>  <smiles>  (12) 
C=c1[nH]c2ccccc2c1=Cc1cccc(=O)n1O

>  <score_type>  (12) 
oracle

>  <origin>  (12) 
adgpu

>  <m_score__min__energy>  (12) 
-10.449999999999999

>  <m_primary>  (12) 
energy

$$$$
12:0
     RDKit          3D

 37 39  0  0  0  0  0  0  0  0999 V2000
   -2.8020   18.9400  -26.3330 N   0  0  0  0  0  0  0  0  0  0  0  0
   -2.3580   19.4990  -27.2440 C   0  0  0  0  0  0  0  0  0  0  0  0
   -1.8060   20.1930  -28.3740 C   0  0  0  0  0  0  0  0  0  0  0  0
   -0.4650   20.4290  -28.5930 C   0  0  0  0  0  0  0  0  0  0  0  0
   -0.4000   21.1190  -29.7850 C   0  0  0  0  0  0  0  0  0  0  0  0
   -1.7080   21.2560  -30.2130 C   0  0  0  0  0  0  0  0  0  0  0  0
   -2.1460   21.9240  -31.4420 C   0  0  0  0  0  0  0  0  0  0  0  0
   -1.5500   21.6810  -32.5250 O   0  0  0  0  0  0  0  0  0  0  0  0
   -3.2770   22.8040  -31.4080 N   0  0  0  0  0  0  0  0  0  0  0  0
   -4.6600   22.4370  -31.5350 C   0  0  0  0  0  0  0  0  0  0  0  0
   -5.0440   21.2290  -32.1460 C   0  0  0  0  0  0  0  0  0  0  0  0
   -6.3960   20.8990  -32.2720 C   0  0  0  0  0  0  0  0  0  0  0  0
   -7.3760   21.7730  -31.8040 C   0  0  0  0  0  0  0  0  0  0  0  0
   -7.0100   22.9860  -31.2210 C   0  0  0  0  0  0  0  0  0  0  0  0
   -5.6560   23.3330  -31.0950 C   0  0  0  0  0  0  0  0  0  0  0  0
   -5.2180   24.8880  -30.3750 S   0  0  0  0  0  0  0  0  0  0  0  0
   -5.8850   25.0040  -29.0330 O   0  0  0  0  0  0  0  0  0  0  0  0
   -5.6740   26.0290  -31.2410 O   0  0  0  0  0  0  0  0  0  0  0  0
   -3.4990   24.9910  -30.1640 N   0  0  0  0  0  0  0  0  0  0  0  0
   -2.7790   24.5690  -28.9960 C   0  0  0  0  0  0  0  0  0  0  0  0
   -3.1730   23.4470  -28.2430 C   0  0  0  0  0  0  0  0  0  0  0  0
   -2.4520   23.0740  -27.1040 C   0  0  0  0  0  0  0  0  0  0  0  0
   -1.3340   23.8120  -26.7090 C   0  0  0  0  0  0  0  0  0  0  0  0
   -0.9320   24.9220  -27.4550 C   0  0  0  0  0  0  0  0  0  0  0  0
   -1.6480   25.2990  -28.5960 C   0  0  0  0  0  0  0  0  0  0  0  0
   -1.2320   26.4030  -29.3320 O   0  0  0  0  0  0  0  0  0  0  0  0
   -2.5250   20.6940  -29.3520 O   0  0  0  0  0  0  0  0  0  0  0  0
    0.3766   20.1295  -27.9511 H   0  0  0  0  0  0  0  0  0  0  0  0
    0.5054   21.4850  -30.2912 H   0  0  0  0  0  0  0  0  0  0  0  0
   -4.2753   20.5404  -32.5267 H   0  0  0  0  0  0  0  0  0  0  0  0
   -6.6875   19.9478  -32.7413 H   0  0  0  0  0  0  0  0  0  0  0  0
   -8.4392   21.5057  -31.8946 H   0  0  0  0  0  0  0  0  0  0  0  0
   -7.7871   23.6747  -30.8579 H   0  0  0  0  0  0  0  0  0  0  0  0
   -4.0514   22.8612  -28.5515 H   0  0  0  0  0  0  0  0  0  0  0  0
   -2.7661   22.1976  -26.5181 H   0  0  0  0  0  0  0  0  0  0  0  0
   -0.7705   23.5191  -25.8109 H   0  0  0  0  0  0  0  0  0  0  0  0
   -0.0500   25.5014  -27.1445 H   0  0  0  0  0  0  0  0  0  0  0  0
  1  2  3  0
  2  3  1  0
  3  4  2  0
  4  5  1  0
  5  6  2  0
  6  7  1  0
  7  8  2  0
  7  9  1  0
  9 10  1  0
 10 11  2  0
 11 12  1  0
 12 13  2  0
 13 14  1  0
 14 15  2  0
 15 16  1  0
 16 17  2  0
 16 18  2  0
 16 19  1  0
 19 20  1  0
 20 21  2  0
 21 22  1  0
 22 23  2  0
 23 24  1  0
 24 25  2  0
 25 26  1  0
  6 27  1  0
 27  3  1  0
 15 10  1  0
 25 20  1  0
  4 28  1  0
  5 29  1  0
 11 30  1  0
 12 31  1  0
 13 32  1  0
 14 33  1  0
 21 34  1  0
 22 35  1  0
 23 36  1  0
 24 37  1  0
M  CHG  3   9  -1  19  -1  26  -1
M  END
>  <UniqueID>  (13) 
12

>  <SMILES>  (13) 
N#Cc1ccc(C(=O)[N-]c2ccccc2S(=O)(=O)[N-]c2ccccc2[O-])o1

>  <Energy>  (13) 
70.78902475919011

>  <Genealogy>  (13) 
N#Cc1ccc(C(=O)[N-]c2ccccc2S(=O)(=O)[N-]c2ccccc2[O-])o1 (protonated)
N#Cc1ccc(C(=O)[N-]c2ccccc2S(=O)(=O)[N-]c2ccccc2[O-])o1 (3D coordinates assigned)
N#Cc1ccc(C(=O)[N-]c2ccccc2S(=O)(=O)[N-]c2ccccc2[O-])o1 (optimized conformer: 70.78902475919011 kcal/mol)

>  <smiles>  (13) 
N#Cc1ccc(C(=O)Nc2ccccc2S(=O)(=O)Nc2ccccc2O)o1

>  <score_type>  (13) 
oracle

>  <origin>  (13) 
adgpu

>  <m_score__min__energy>  (13) 
-13.359999999999999

>  <m_primary>  (13) 
energy

$$$$
13:0
     RDKit          3D

 37 39  0  0  0  0  0  0  0  0999 V2000
   -6.6190   25.2750  -30.0280 O   0  0  0  0  0  0  0  0  0  0  0  0
   -5.3220   24.5230  -30.1370 S   0  0  0  0  0  0  0  0  0  0  0  0
   -4.3380   25.3520  -30.9120 O   0  0  0  0  0  0  0  0  0  0  0  0
   -4.6950   24.2410  -28.5440 N   0  0  0  0  0  0  0  0  0  0  0  0
   -3.4940   23.5170  -28.2430 C   0  0  0  0  0  0  0  0  0  0  0  0
   -3.5160   22.2910  -27.5510 C   0  0  0  0  0  0  0  0  0  0  0  0
   -2.3240   21.6120  -27.2840 C   0  0  0  0  0  0  0  0  0  0  0  0
   -1.1030   22.1460  -27.6980 C   0  0  0  0  0  0  0  0  0  0  0  0
   -1.0700   23.3640  -28.3820 C   0  0  0  0  0  0  0  0  0  0  0  0
   -2.2610   24.0510  -28.6560 C   0  0  0  0  0  0  0  0  0  0  0  0
   -2.2290   25.2660  -29.3400 O   0  0  0  0  0  0  0  0  0  0  0  0
   -5.5600   22.9910  -30.9730 C   0  0  0  0  0  0  0  0  0  0  0  0
   -6.8120   22.3640  -30.9590 C   0  0  0  0  0  0  0  0  0  0  0  0
   -6.9950   21.1430  -31.6130 C   0  0  0  0  0  0  0  0  0  0  0  0
   -5.9260   20.5310  -32.2940 C   0  0  0  0  0  0  0  0  0  0  0  0
   -6.1180   19.2310  -32.9870 C   0  0  0  0  0  0  0  0  0  0  0  0
   -6.9480   18.2380  -32.4320 C   0  0  0  0  0  0  0  0  0  0  0  0
   -7.1270   17.0170  -33.0870 C   0  0  0  0  0  0  0  0  0  0  0  0
   -6.4850   16.7720  -34.3030 C   0  0  0  0  0  0  0  0  0  0  0  0
   -5.6600   17.7490  -34.8650 C   0  0  0  0  0  0  0  0  0  0  0  0
   -5.4760   18.9710  -34.2130 C   0  0  0  0  0  0  0  0  0  0  0  0
   -4.6740   21.1710  -32.3090 C   0  0  0  0  0  0  0  0  0  0  0  0
   -4.4940   22.3930  -31.6540 C   0  0  0  0  0  0  0  0  0  0  0  0
   -4.4749   21.8661  -27.2193 H   0  0  0  0  0  0  0  0  0  0  0  0
   -2.3483   20.6531  -26.7455 H   0  0  0  0  0  0  0  0  0  0  0  0
   -0.1670   21.6084  -27.4860 H   0  0  0  0  0  0  0  0  0  0  0  0
   -0.1069   23.7850  -28.7064 H   0  0  0  0  0  0  0  0  0  0  0  0
   -3.0700   25.6820  -29.7230 H   0  0  0  0  0  0  0  0  0  0  0  0
   -7.6546   22.8345  -30.4311 H   0  0  0  0  0  0  0  0  0  0  0  0
   -7.9814   20.6566  -31.5956 H   0  0  0  0  0  0  0  0  0  0  0  0
   -7.4590   18.4250  -31.4760 H   0  0  0  0  0  0  0  0  0  0  0  0
   -7.7752   16.2466  -32.6439 H   0  0  0  0  0  0  0  0  0  0  0  0
   -6.6290   15.8105  -34.8176 H   0  0  0  0  0  0  0  0  0  0  0  0
   -5.1543   17.5560  -35.8226 H   0  0  0  0  0  0  0  0  0  0  0  0
   -4.8246   19.7359  -34.6609 H   0  0  0  0  0  0  0  0  0  0  0  0
   -3.8299   20.7067  -32.8400 H   0  0  0  0  0  0  0  0  0  0  0  0
   -3.5109   22.8860  -31.6741 H   0  0  0  0  0  0  0  0  0  0  0  0
  1  2  2  0
  2  3  2  0
  2  4  1  0
  4  5  1  0
  5  6  2  0
  6  7  1  0
  7  8  2  0
  8  9  1  0
  9 10  2  0
 10 11  1  0
  2 12  1  0
 12 13  2  0
 13 14  1  0
 14 15  2  0
 15 16  1  0
 16 17  2  0
 17 18  1  0
 18 19  2  0
 19 20  1  0
 20 21  2  0
 15 22  1  0
 22 23  2  0
 10  5  1  0
 23 12  1  0
 21 16  1  0
  6 24  1  0
  7 25  1  0
  8 26  1  0
  9 27  1  0
 11 28  1  0
 13 29  1  0
 14 30  1  0
 17 31  1  0
 18 32  1  0
 19 33  1  0
 20 34  1  0
 21 35  1  0
 22 36  1  0
 23 37  1  0
M  CHG  1   4  -1
M  END
>  <UniqueID>  (14) 
13

>  <SMILES>  (14) 
O=S(=O)([N-]c1ccccc1O)c1ccc(-c2ccccc2)cc1

>  <Energy>  (14) 
48.08018098952224

>  <Genealogy>  (14) 
O=S(=O)([N-]c1ccccc1O)c1ccc(-c2ccccc2)cc1 (protonated)
O=S(=O)([N-]c1ccccc1O)c1ccc(-c2ccccc2)cc1 (3D coordinates assigned)
O=S(=O)([N-]c1ccccc1O)c1ccc(-c2ccccc2)cc1 (optimized conformer: 48.08018098952224 kcal/mol)

>  <smiles>  (14) 
O=S(=O)(Nc1ccccc1O)c1ccc(-c2ccccc2)cc1

>  <score_type>  (14) 
oracle

>  <origin>  (14) 
adgpu

>  <m_score__min__energy>  (14) 
-11.58

>  <m_primary>  (14) 
energy

$$$$
14:0
     RDKit          3D

 42 44  0  0  0  0  0  0  0  0999 V2000
   -3.4400   25.7240  -31.0850 H   0  0  0  0  0  0  0  0  0  0  0  0
   -4.2330   25.9650  -30.4500 N   0  0  0  0  0  0  0  0  0  0  0  0
   -5.4030   25.1490  -30.3950 C   0  0  0  0  0  0  0  0  0  0  0  0
   -6.4550   25.6210  -29.8830 O   0  0  0  0  0  0  0  0  0  0  0  0
   -5.3850   23.7670  -30.9290 C   0  0  0  0  0  0  0  0  0  0  0  0
   -6.3680   23.3410  -31.8400 C   0  0  0  0  0  0  0  0  0  0  0  0
   -7.1501   24.0416  -32.1679 H   0  0  0  0  0  0  0  0  0  0  0  0
   -6.3570   22.0330  -32.3310 C   0  0  0  0  0  0  0  0  0  0  0  0
   -7.1331   21.7065  -33.0389 H   0  0  0  0  0  0  0  0  0  0  0  0
   -5.3640   21.1390  -31.9260 C   0  0  0  0  0  0  0  0  0  0  0  0
   -5.3694   20.1071  -32.3069 H   0  0  0  0  0  0  0  0  0  0  0  0
   -4.3600   21.5480  -31.0370 C   0  0  0  0  0  0  0  0  0  0  0  0
   -3.3600   20.6020  -30.6200 N   0  0  0  0  0  0  0  0  0  0  0  0
   -3.5310   19.5910  -30.8190 H   0  0  0  0  0  0  0  0  0  0  0  0
   -2.0750   20.9800  -30.0950 C   0  0  0  0  0  0  0  0  0  0  0  0
   -1.6070   22.1220  -30.3540 O   0  0  0  0  0  0  0  0  0  0  0  0
   -1.2710   20.0260  -29.2940 C   0  0  0  0  0  0  0  0  0  0  0  0
   -1.7810   19.4680  -28.1060 C   0  0  0  0  0  0  0  0  0  0  0  0
   -2.7926   19.7357  -27.7668 H   0  0  0  0  0  0  0  0  0  0  0  0
   -1.0100   18.5760  -27.3550 C   0  0  0  0  0  0  0  0  0  0  0  0
   -1.4280   18.1287  -26.4411 H   0  0  0  0  0  0  0  0  0  0  0  0
    0.2890   18.2480  -27.7570 C   0  0  0  0  0  0  0  0  0  0  0  0
    1.0360   17.2860  -26.9940 N   0  0  0  0  0  0  0  0  0  0  0  0
    1.5300   16.1530  -27.4100 C   0  0  0  0  0  0  0  0  0  0  0  0
    2.1280   15.3370  -26.5000 N   0  0  0  0  0  0  0  0  0  0  0  0
    2.6800   14.1430  -26.8420 C   0  0  0  0  0  0  0  0  0  0  0  0
    3.1584   13.5208  -26.0713 H   0  0  0  0  0  0  0  0  0  0  0  0
    2.6430   13.7000  -28.1720 C   0  0  0  0  0  0  0  0  0  0  0  0
    3.2980   12.4020  -28.5710 C   0  0  0  0  0  0  0  0  0  0  0  0
    4.0420   12.6010  -29.7190 F   0  0  0  0  0  0  0  0  0  0  0  0
    2.3430   11.4300  -28.8150 F   0  0  0  0  0  0  0  0  0  0  0  0
    4.1320   11.9470  -27.5650 F   0  0  0  0  0  0  0  0  0  0  0  0
    2.0750   14.5440  -29.1380 C   0  0  0  0  0  0  0  0  0  0  0  0
    2.0712   14.2405  -30.1953 H   0  0  0  0  0  0  0  0  0  0  0  0
    1.5150   15.7660  -28.7650 C   0  0  0  0  0  0  0  0  0  0  0  0
    1.0647   16.4232  -29.5235 H   0  0  0  0  0  0  0  0  0  0  0  0
    0.7930   18.7790  -28.9540 C   0  0  0  0  0  0  0  0  0  0  0  0
    1.7963   18.4911  -29.3012 H   0  0  0  0  0  0  0  0  0  0  0  0
    0.0260   19.6720  -29.7070 C   0  0  0  0  0  0  0  0  0  0  0  0
    0.4403   20.1019  -30.6309 H   0  0  0  0  0  0  0  0  0  0  0  0
   -4.3860   22.8600  -30.5280 C   0  0  0  0  0  0  0  0  0  0  0  0
   -3.6174   23.1800  -29.8091 H   0  0  0  0  0  0  0  0  0  0  0  0
  1  2  1  0
  2  3  1  0
  3  4  2  0
  3  5  1  0
  5  6  2  0
  6  7  1  0
  6  8  1  0
  8  9  1  0
  8 10  2  0
 10 11  1  0
 10 12  1  0
 12 13  1  0
 13 14  1  0
 13 15  1  0
 15 16  2  0
 15 17  1  0
 17 18  2  0
 18 19  1  0
 18 20  1  0
 20 21  1  0
 20 22  2  0
 22 23  1  0
 23 24  2  0
 24 25  1  0
 25 26  1  0
 26 27  1  0
 26 28  2  0
 28 29  1  0
 29 30  1  0
 29 31  1  0
 29 32  1  0
 28 33  1  0
 33 34  1  0
 33 35  2  0
 35 36  1  0
 22 37  1  0
 37 38  1  0
 37 39  2  0
 39 40  1  0
 12 41  2  0
 41 42  1  0
 41  5  1  0
 39 17  1  0
 35 24  1  0
M  CHG  2   2  -1  25  -1
M  END
>  <UniqueID>  (15) 
14

>  <SMILES>  (15) 
[NH-]C(=O)c1cccc(NC(=O)c2ccc(/N=c3\ccc(C(F)(F)F)c[n-]3)cc2)c1

>  <Energy>  (15) 
61.50701654806844

>  <Genealogy>  (15) 
[NH-]C(=O)c1cccc(NC(=O)c2ccc(N=c3ccc(C(F)(F)F)c[n-]3)cc2)c1 (protonated)
[NH-]C(=O)c1cccc(NC(=O)c2ccc(/N=c3\ccc(C(F)(F)F)c[n-]3)cc2)c1 (cis-trans isomerization)
[NH-]C(=O)c1cccc(NC(=O)c2ccc(/N=c3\ccc(C(F)(F)F)c[n-]3)cc2)c1 (3D coordinates assigned)
[NH-]C(=O)c1cccc(NC(=O)c2ccc(/N=c3\ccc(C(F)(F)F)c[n-]3)cc2)c1 (optimized conformer: 61.50701654806844 kcal/mol)

>  <smiles>  (15) 
NC(=O)c1cccc(NC(=O)c2ccc(N=c3ccc(C(F)(F)F)c[nH]3)cc2)c1

>  <score_type>  (15) 
oracle

>  <origin>  (15) 
adgpu

>  <m_score__min__energy>  (15) 
-9.1899999999999995

>  <m_primary>  (15) 
energy

$$$$
15:0
     RDKit          3D

 55 59  0  0  0  0  0  0  0  0999 V2000
   -3.9370   11.4360  -39.1560 C   0  0  0  0  0  0  0  0  0  0  0  0
   -2.9150   11.8490  -38.2570 O   0  0  0  0  0  0  0  0  0  0  0  0
   -3.0550   12.9500  -37.4080 C   0  0  0  0  0  0  0  0  0  0  0  0
   -3.9290   12.8730  -36.3230 C   0  0  0  0  0  0  0  0  0  0  0  0
   -4.0720   13.9700  -35.4730 C   0  0  0  0  0  0  0  0  0  0  0  0
   -3.3410   15.1480  -35.7110 C   0  0  0  0  0  0  0  0  0  0  0  0
   -3.4490   16.3270  -34.8150 C   0  0  0  0  0  0  0  0  0  0  0  0
   -4.6770   16.9820  -34.6020 C   0  0  0  0  0  0  0  0  0  0  0  0
   -4.7330   18.0870  -33.7490 C   0  0  0  0  0  0  0  0  0  0  0  0
   -3.5720   18.5390  -33.1120 C   0  0  0  0  0  0  0  0  0  0  0  0
   -3.5980   19.6390  -32.2430 C   0  0  0  0  0  0  0  0  0  0  0  0
   -2.4180   20.0710  -31.6110 C   0  0  0  0  0  0  0  0  0  0  0  0
   -2.4300   21.2150  -30.6740 C   0  0  0  0  0  0  0  0  0  0  0  0
   -2.8560   22.4470  -31.0010 N   0  0  0  0  0  0  0  0  0  0  0  0
   -2.7150   23.1820  -29.8800 C   0  0  0  0  0  0  0  0  0  0  0  0
   -3.0540   24.6070  -29.7930 C   0  0  0  0  0  0  0  0  0  0  0  0
   -2.5950   25.3040  -28.8490 O   0  0  0  0  0  0  0  0  0  0  0  0
   -3.9000   25.1990  -30.7850 N   0  0  0  0  0  0  0  0  0  0  0  0
   -5.3460   25.3200  -30.6440 C   0  0  0  0  0  0  0  0  0  0  0  0
   -6.0140   24.0130  -30.9800 C   0  0  0  0  0  0  0  0  0  0  0  0
   -7.0030   23.4910  -30.1360 C   0  0  0  0  0  0  0  0  0  0  0  0
   -7.6280   22.2870  -30.4690 C   0  0  0  0  0  0  0  0  0  0  0  0
   -7.2780   21.6290  -31.6060 N   0  0  0  0  0  0  0  0  0  0  0  0
   -6.3240   22.1140  -32.4450 C   0  0  0  0  0  0  0  0  0  0  0  0
   -5.6760   23.3170  -32.1510 C   0  0  0  0  0  0  0  0  0  0  0  0
   -2.2270   22.4740  -28.8400 N   0  0  0  0  0  0  0  0  0  0  0  0
   -2.0570   21.2330  -29.3390 C   0  0  0  0  0  0  0  0  0  0  0  0
   -1.5510   20.0880  -28.5210 C   0  0  0  0  0  0  0  0  0  0  0  0
   -1.2190   19.3790  -31.8460 C   0  0  0  0  0  0  0  0  0  0  0  0
   -1.1870   18.2870  -32.7190 C   0  0  0  0  0  0  0  0  0  0  0  0
   -2.3580   17.8630  -33.3530 C   0  0  0  0  0  0  0  0  0  0  0  0
   -2.3300   16.7920  -34.1900 N   0  0  0  0  0  0  0  0  0  0  0  0
   -2.4660   15.1770  -36.8100 C   0  0  0  0  0  0  0  0  0  0  0  0
   -2.3490   14.0940  -37.6240 N   0  0  0  0  0  0  0  0  0  0  0  0
   -4.8082   11.0840  -38.5840 H   0  0  0  0  0  0  0  0  0  0  0  0
   -4.2331   12.2851  -39.7896 H   0  0  0  0  0  0  0  0  0  0  0  0
   -3.5601   10.6196  -39.7896 H   0  0  0  0  0  0  0  0  0  0  0  0
   -4.5021   11.9523  -36.1389 H   0  0  0  0  0  0  0  0  0  0  0  0
   -4.7579   13.9136  -34.6149 H   0  0  0  0  0  0  0  0  0  0  0  0
   -5.5880   16.6254  -35.1049 H   0  0  0  0  0  0  0  0  0  0  0  0
   -5.6900   18.6018  -33.5781 H   0  0  0  0  0  0  0  0  0  0  0  0
   -4.5449   20.1662  -32.0547 H   0  0  0  0  0  0  0  0  0  0  0  0
   -3.2070   22.7690  -31.9310 H   0  0  0  0  0  0  0  0  0  0  0  0
   -5.5879   25.5953  -29.6068 H   0  0  0  0  0  0  0  0  0  0  0  0
   -5.7095   26.0959  -31.3338 H   0  0  0  0  0  0  0  0  0  0  0  0
   -7.2854   24.0258  -29.2172 H   0  0  0  0  0  0  0  0  0  0  0  0
   -8.4044   21.8707  -29.8104 H   0  0  0  0  0  0  0  0  0  0  0  0
   -6.0617   21.5582  -33.3573 H   0  0  0  0  0  0  0  0  0  0  0  0
   -4.9082   23.7146  -32.8311 H   0  0  0  0  0  0  0  0  0  0  0  0
   -1.6562   20.3261  -27.4523 H   0  0  0  0  0  0  0  0  0  0  0  0
   -2.1338   19.1848  -28.7545 H   0  0  0  0  0  0  0  0  0  0  0  0
   -0.4908   19.9108  -28.7545 H   0  0  0  0  0  0  0  0  0  0  0  0
   -0.2967   19.6987  -31.3389 H   0  0  0  0  0  0  0  0  0  0  0  0
   -0.2392   17.7613  -32.9068 H   0  0  0  0  0  0  0  0  0  0  0  0
   -1.8725   16.0806  -37.0130 H   0  0  0  0  0  0  0  0  0  0  0  0
  1  2  1  0
  2  3  1  0
  3  4  2  0
  4  5  1  0
  5  6  2  0
  6  7  1  0
  7  8  2  0
  8  9  1  0
  9 10  2  0
 10 11  1  0
 11 12  2  0
 12 13  1  0
 13 14  1  0
 14 15  1  0
 15 16  1  0
 16 17  2  0
 16 18  1  0
 18 19  1  0
 19 20  1  0
 20 21  2  0
 21 22  1  0
 22 23  2  0
 23 24  1  0
 24 25  2  0
 15 26  2  0
 26 27  1  0
 27 28  1  0
 12 29  1  0
 29 30  2  0
 30 31  1  0
 31 32  2  0
  6 33  1  0
 33 34  2  0
 34  3  1  0
 32  7  1  0
 31 10  1  0
 27 13  2  0
 25 20  1  0
  1 35  1  0
  1 36  1  0
  1 37  1  0
  4 38  1  0
  5 39  1  0
  8 40  1  0
  9 41  1  0
 11 42  1  0
 14 43  1  0
 19 44  1  0
 19 45  1  0
 21 46  1  0
 22 47  1  0
 24 48  1  0
 25 49  1  0
 28 50  1  0
 28 51  1  0
 28 52  1  0
 29 53  1  0
 30 54  1  0
 33 55  1  0
M  CHG  1  18  -1
M  END
>  <UniqueID>  (16) 
15

>  <SMILES>  (16) 
COc1ccc(-c2ccc3cc(-c4[nH]c(C(=O)[N-]Cc5ccncc5)nc4C)ccc3n2)cn1

>  <Energy>  (16) 
96.6363109488739

>  <Genealogy>  (16) 
COc1ccc(-c2ccc3cc(-c4[nH]c(C(=O)[N-]Cc5ccncc5)nc4C)ccc3n2)cn1 (protonated)
COc1ccc(-c2ccc3cc(-c4[nH]c(C(=O)[N-]Cc5ccncc5)nc4C)ccc3n2)cn1 (3D coordinates assigned)
COc1ccc(-c2ccc3cc(-c4[nH]c(C(=O)[N-]Cc5ccncc5)nc4C)ccc3n2)cn1 (optimized conformer: 96.6363109488739 kcal/mol)

>  <smiles>  (16) 
COc1ccc(-c2ccc3cc(-c4[nH]c(C(=O)NCc5ccncc5)nc4C)ccc3n2)cn1

>  <score_type>  (16) 
oracle

>  <origin>  (16) 
adgpu

>  <m_score__min__energy>  (16) 
-9.6099999999999994

>  <m_primary>  (16) 
energy

$$$$
16:0
     RDKit          3D

 71 76  0  0  0  0  0  0  0  0999 V2000
   -0.0966   25.1135  -27.8123 H   0  0  0  0  0  0  0  0  0  0  0  0
   -1.1400   24.8760  -28.0670 C   0  0  0  0  0  0  0  0  0  0  0  0
   -1.7170   25.2860  -29.2280 N   0  0  0  0  0  0  0  0  0  0  0  0
   -2.9980   24.8770  -29.3170 C   0  0  0  0  0  0  0  0  0  0  0  0
   -3.7450   25.1620  -30.3420 N   0  0  0  0  0  0  0  0  0  0  0  0
   -5.4030   24.6780  -30.5170 S   0  0  0  0  0  0  0  0  0  0  0  0
   -6.1350   25.6680  -31.3820 O   0  0  0  0  0  0  0  0  0  0  0  0
   -6.0540   24.6650  -29.1640 O   0  0  0  0  0  0  0  0  0  0  0  0
   -5.4860   23.0610  -31.2080 C   0  0  0  0  0  0  0  0  0  0  0  0
   -6.5090   22.7140  -32.1020 C   0  0  0  0  0  0  0  0  0  0  0  0
   -7.2686   23.4592  -32.3806 H   0  0  0  0  0  0  0  0  0  0  0  0
   -6.5680   21.4250  -32.6410 C   0  0  0  0  0  0  0  0  0  0  0  0
   -7.3694   21.1617  -33.3471 H   0  0  0  0  0  0  0  0  0  0  0  0
   -5.6090   20.4680  -32.2840 C   0  0  0  0  0  0  0  0  0  0  0  0
   -5.6880   19.1330  -32.8090 N   0  0  0  0  0  0  0  0  0  0  0  0
   -6.2010   18.0670  -31.9880 C   0  0  0  0  0  0  0  0  0  0  0  0
   -6.7190   18.3130  -30.8670 O   0  0  0  0  0  0  0  0  0  0  0  0
   -6.1760   16.7220  -32.4630 N   0  0  0  0  0  0  0  0  0  0  0  0
   -5.4520   16.3330  -33.6710 C   0  0  1  0  0  0  0  0  0  0  0  0
   -5.5340   17.5000  -34.6950 C   0  0  0  0  0  0  0  0  0  0  0  0
   -4.8969   17.2543  -35.5574 H   0  0  0  0  0  0  0  0  0  0  0  0
   -6.5902   17.6113  -34.9814 H   0  0  0  0  0  0  0  0  0  0  0  0
   -5.0720   18.8480  -34.1130 C   0  0  0  0  0  0  0  0  0  0  0  0
   -3.9791   18.8245  -33.9904 H   0  0  0  0  0  0  0  0  0  0  0  0
   -5.3809   19.6397  -34.8114 H   0  0  0  0  0  0  0  0  0  0  0  0
   -3.9870   16.0200  -33.2710 C   0  0  0  0  0  0  0  0  0  0  0  0
   -3.4761   16.9663  -33.0398 H   0  0  0  0  0  0  0  0  0  0  0  0
   -4.0180   15.3492  -32.3998 H   0  0  0  0  0  0  0  0  0  0  0  0
   -3.2050   15.2980  -34.3840 C   0  0  0  0  0  0  0  0  0  0  0  0
   -2.9604   16.0331  -35.1649 H   0  0  0  0  0  0  0  0  0  0  0  0
   -2.3129   14.8633  -33.9093 H   0  0  0  0  0  0  0  0  0  0  0  0
   -3.9430   14.1650  -35.0230 N   0  0  1  0  0  0  0  0  0  0  0  0
   -4.1830   14.4580  -36.0010 H   0  0  0  0  0  0  0  0  0  0  0  0
   -3.0670   12.9700  -35.1110 C   0  0  0  0  0  0  0  0  0  0  0  0
   -3.6827   12.1005  -35.3846 H   0  0  0  0  0  0  0  0  0  0  0  0
   -2.2971   13.1747  -35.8695 H   0  0  0  0  0  0  0  0  0  0  0  0
   -2.3600   12.6730  -33.8060 C   0  0  0  0  0  0  0  0  0  0  0  0
   -2.8950   11.7360  -32.9090 C   0  0  0  0  0  0  0  0  0  0  0  0
   -3.8233   11.2029  -33.1621 H   0  0  0  0  0  0  0  0  0  0  0  0
   -2.2530   11.4780  -31.6960 C   0  0  0  0  0  0  0  0  0  0  0  0
   -2.6657   10.7277  -31.0055 H   0  0  0  0  0  0  0  0  0  0  0  0
   -1.0870   12.1710  -31.3570 C   0  0  0  0  0  0  0  0  0  0  0  0
   -0.5824   11.9584  -30.4030 H   0  0  0  0  0  0  0  0  0  0  0  0
   -0.5590   13.1320  -32.2230 C   0  0  0  0  0  0  0  0  0  0  0  0
    0.6040   13.8200  -31.8440 O   0  0  0  0  0  0  0  0  0  0  0  0
    0.6790   15.1970  -31.5870 C   0  0  0  0  0  0  0  0  0  0  0  0
    1.8110   15.6970  -30.9330 C   0  0  0  0  0  0  0  0  0  0  0  0
    2.6099   15.0091  -30.6192 H   0  0  0  0  0  0  0  0  0  0  0  0
    1.9320   17.0680  -30.6760 C   0  0  0  0  0  0  0  0  0  0  0  0
    2.8324   17.4564  -30.1777 H   0  0  0  0  0  0  0  0  0  0  0  0
    0.9100   17.9430  -31.0520 C   0  0  0  0  0  0  0  0  0  0  0  0
    1.0090   19.0209  -30.8561 H   0  0  0  0  0  0  0  0  0  0  0  0
   -0.2380   17.4490  -31.6770 C   0  0  0  0  0  0  0  0  0  0  0  0
   -1.0459   18.1375  -31.9657 H   0  0  0  0  0  0  0  0  0  0  0  0
   -0.3610   16.0790  -31.9360 C   0  0  0  0  0  0  0  0  0  0  0  0
   -1.2727   15.6906  -32.4135 H   0  0  0  0  0  0  0  0  0  0  0  0
   -1.1810   13.3570  -33.4640 C   0  0  0  0  0  0  0  0  0  0  0  0
   -0.7412   14.0741  -34.1727 H   0  0  0  0  0  0  0  0  0  0  0  0
   -5.2150   13.8400  -34.3310 C   0  0  0  0  0  0  0  0  0  0  0  0
   -5.7256   13.0338  -34.8781 H   0  0  0  0  0  0  0  0  0  0  0  0
   -4.9823   13.5236  -33.3035 H   0  0  0  0  0  0  0  0  0  0  0  0
   -6.1390   15.0650  -34.2660 C   0  0  0  0  0  0  0  0  0  0  0  0
   -6.4785   15.2993  -35.2857 H   0  0  0  0  0  0  0  0  0  0  0  0
   -6.9730   14.8055  -33.5973 H   0  0  0  0  0  0  0  0  0  0  0  0
   -4.5780   20.8190  -31.3990 C   0  0  0  0  0  0  0  0  0  0  0  0
   -3.8165   20.0750  -31.1222 H   0  0  0  0  0  0  0  0  0  0  0  0
   -4.5150   22.1100  -30.8680 C   0  0  0  0  0  0  0  0  0  0  0  0
   -3.7000   22.3806  -30.1805 H   0  0  0  0  0  0  0  0  0  0  0  0
   -3.4680   23.9930  -27.9600 S   0  0  0  0  0  0  0  0  0  0  0  0
   -1.9610   24.1360  -27.2250 C   0  0  0  0  0  0  0  0  0  0  0  0
   -1.6758   23.7170  -26.2488 H   0  0  0  0  0  0  0  0  0  0  0  0
  1  2  1  0
  2  3  1  0
  3  4  1  0
  4  5  2  0
  5  6  1  0
  6  7  2  0
  6  8  2  0
  6  9  1  0
  9 10  2  0
 10 11  1  0
 10 12  1  0
 12 13  1  0
 12 14  2  0
 14 15  1  0
 15 16  1  0
 16 17  2  0
 16 18  1  0
 19 18  1  1
 19 20  1  0
 20 21  1  0
 20 22  1  0
 20 23  1  0
 23 24  1  0
 23 25  1  0
 19 26  1  0
 26 27  1  0
 26 28  1  0
 26 29  1  0
 29 30  1  0
 29 31  1  0
 29 32  1  0
 32 33  1  6
 32 34  1  0
 34 35  1  0
 34 36  1  0
 34 37  1  0
 37 38  2  0
 38 39  1  0
 38 40  1  0
 40 41  1  0
 40 42  2  0
 42 43  1  0
 42 44  1  0
 44 45  1  0
 45 46  1  0
 46 47  2  0
 47 48  1  0
 47 49  1  0
 49 50  1  0
 49 51  2  0
 51 52  1  0
 51 53  1  0
 53 54  1  0
 53 55  2  0
 55 56  1  0
 44 57  2  0
 57 58  1  0
 32 59  1  0
 59 60  1  0
 59 61  1  0
 59 62  1  0
 62 63  1  0
 62 64  1  0
 14 65  1  0
 65 66  1  0
 65 67  2  0
 67 68  1  0
  4 69  1  0
 69 70  1  0
 70 71  1  0
 70  2  2  0
 67  9  1  0
 23 15  1  0
 57 37  1  0
 62 19  1  0
 55 46  1  0
M  CHG  3   3  -1  18  -1  32   1
M  END
>  <UniqueID>  (17) 
16

>  <SMILES>  (17) 
O=C1[N-]C2(CCN1c1ccc(S(=O)(=O)/N=c3/[n-]ccs3)cc1)CC[NH+](Cc1cccc(Oc3ccccc3)c1)CC2

>  <Energy>  (17) 
135.8701672434187

>  <Genealogy>  (17) 
O=C1[N-]C2(CCN1c1ccc(S(=O)(=O)N=c3[n-]ccs3)cc1)CC[NH+](Cc1cccc(Oc3ccccc3)c1)CC2 (protonated)
O=C1[N-]C2(CCN1c1ccc(S(=O)(=O)/N=c3/[n-]ccs3)cc1)CC[NH+](Cc1cccc(Oc3ccccc3)c1)CC2 (cis-trans isomerization)
O=C1[N-]C2(CCN1c1ccc(S(=O)(=O)/N=c3/[n-]ccs3)cc1)CC[NH+](Cc1cccc(Oc3ccccc3)c1)CC2 (3D coordinates assigned)
O=C1[N-]C2(CCN1c1ccc(S(=O)(=O)/N=c3/[n-]ccs3)cc1)CC[NH+](Cc1cccc(Oc3ccccc3)c1)CC2 (nonaromatic ring conformer: 135.8701672434187 kcal/mol)

>  <smiles>  (17) 
O=C1NC2(CCN(Cc3cccc(Oc4ccccc4)c3)CC2)CCN1c1ccc(S(=O)(=O)N=c2[nH]ccs2)cc1

>  <score_type>  (17) 
oracle

>  <origin>  (17) 
adgpu

>  <m_score__min__energy>  (17) 
-11.050000000000001

>  <m_primary>  (17) 
energy

$$$$
17:0
     RDKit          3D

 44 46  0  0  0  0  0  0  0  0999 V2000
   -3.9481   20.4255  -32.9776 H   0  0  0  0  0  0  0  0  0  0  0  0
   -4.7190   21.0860  -32.5540 C   0  0  0  0  0  0  0  0  0  0  0  0
   -4.3460   22.1510  -31.7290 C   0  0  0  0  0  0  0  0  0  0  0  0
   -3.2843   22.3170  -31.4942 H   0  0  0  0  0  0  0  0  0  0  0  0
   -5.3210   23.0080  -31.2000 C   0  0  0  0  0  0  0  0  0  0  0  0
   -4.8670   24.3330  -30.1340 S   0  0  0  0  0  0  0  0  0  0  0  0
   -6.1080   24.8990  -29.5000 O   0  0  0  0  0  0  0  0  0  0  0  0
   -4.1800   25.4270  -30.9020 O   0  0  0  0  0  0  0  0  0  0  0  0
   -3.8090   23.7470  -28.8920 N   0  0  0  0  0  0  0  0  0  0  0  0
   -2.6410   24.2590  -28.6590 C   0  0  0  0  0  0  0  0  0  0  0  0
   -2.1120   25.2980  -29.3360 N   0  0  0  0  0  0  0  0  0  0  0  0
   -0.9390   25.5120  -28.8130 O   0  0  0  0  0  0  0  0  0  0  0  0
   -0.6930   24.6630  -27.8400 C   0  0  0  0  0  0  0  0  0  0  0  0
    0.5570   24.6490  -27.0260 C   0  0  0  0  0  0  0  0  0  0  0  0
    0.2984   24.6519  -25.9568 H   0  0  0  0  0  0  0  0  0  0  0  0
    1.1371   23.7443  -27.2605 H   0  0  0  0  0  0  0  0  0  0  0  0
    1.1572   25.5405  -27.2605 H   0  0  0  0  0  0  0  0  0  0  0  0
   -1.7720   23.8180  -27.6870 C   0  0  0  0  0  0  0  0  0  0  0  0
   -1.9050   22.9965  -26.9676 H   0  0  0  0  0  0  0  0  0  0  0  0
   -6.6700   22.7940  -31.5080 C   0  0  0  0  0  0  0  0  0  0  0  0
   -7.4386   23.4662  -31.0988 H   0  0  0  0  0  0  0  0  0  0  0  0
   -7.0440   21.7300  -32.3330 C   0  0  0  0  0  0  0  0  0  0  0  0
   -8.1046   21.5781  -32.5822 H   0  0  0  0  0  0  0  0  0  0  0  0
   -6.0760   20.8550  -32.8450 C   0  0  0  0  0  0  0  0  0  0  0  0
   -6.4790   19.7810  -33.7100 N   0  0  0  0  0  0  0  0  0  0  0  0
   -7.3520   19.9010  -34.2710 H   0  0  0  0  0  0  0  0  0  0  0  0
   -5.7470   18.5540  -33.8580 C   0  0  0  0  0  0  0  0  0  0  0  0
   -5.7380   17.8260  -35.3300 S   0  0  0  0  0  0  0  0  0  0  0  0
   -5.0330   17.9920  -32.7380 N   0  0  0  0  0  0  0  0  0  0  0  0
   -4.9260   18.5680  -31.8740 H   0  0  0  0  0  0  0  0  0  0  0  0
   -4.4070   16.7000  -32.7310 C   0  0  0  0  0  0  0  0  0  0  0  0
   -3.2500   16.4500  -33.4860 C   0  0  0  0  0  0  0  0  0  0  0  0
   -2.7917   17.2613  -34.0707 H   0  0  0  0  0  0  0  0  0  0  0  0
   -2.6780   15.1750  -33.4980 C   0  0  0  0  0  0  0  0  0  0  0  0
   -1.7684   14.9891  -34.0880 H   0  0  0  0  0  0  0  0  0  0  0  0
   -3.2580   14.1300  -32.7610 C   0  0  0  0  0  0  0  0  0  0  0  0
   -2.6600   12.7530  -32.7990 C   0  0  0  0  0  0  0  0  0  0  0  0
   -2.5035   12.3927  -31.7715 H   0  0  0  0  0  0  0  0  0  0  0  0
   -3.3430   12.0711  -33.3267 H   0  0  0  0  0  0  0  0  0  0  0  0
   -1.6954   12.7866  -33.3267 H   0  0  0  0  0  0  0  0  0  0  0  0
   -4.4400   14.3700  -32.0420 C   0  0  0  0  0  0  0  0  0  0  0  0
   -5.0430   13.3670  -31.3530 F   0  0  0  0  0  0  0  0  0  0  0  0
   -5.0110   15.6470  -32.0320 C   0  0  0  0  0  0  0  0  0  0  0  0
   -5.9405   15.8255  -31.4715 H   0  0  0  0  0  0  0  0  0  0  0  0
  1  2  1  0
  2  3  2  0
  3  4  1  0
  3  5  1  0
  5  6  1  0
  6  7  2  0
  6  8  2  0
  6  9  1  0
  9 10  2  0
 10 11  1  0
 11 12  1  0
 12 13  1  0
 13 14  1  0
 14 15  1  0
 14 16  1  0
 14 17  1  0
 13 18  2  0
 18 19  1  0
  5 20  2  0
 20 21  1  0
 20 22  1  0
 22 23  1  0
 22 24  2  0
 24 25  1  0
 25 26  1  0
 25 27  1  0
 27 28  2  0
 27 29  1  0
 29 30  1  0
 29 31  1  0
 31 32  2  0
 32 33  1  0
 32 34  1  0
 34 35  1  0
 34 36  2  0
 36 37  1  0
 37 38  1  0
 37 39  1  0
 37 40  1  0
 36 41  1  0
 41 42  1  0
 41 43  2  0
 43 44  1  0
 24  2  1  0
 43 31  1  0
 18 10  1  0
M  CHG  1  11  -1
M  END
>  <UniqueID>  (18) 
17

>  <SMILES>  (18) 
Cc1c/c(=N/S(=O)(=O)c2ccc(NC(=S)Nc3ccc(C)c(F)c3)cc2)[n-]o1

>  <Energy>  (18) 
88.66242735627482

>  <Genealogy>  (18) 
Cc1cc(=NS(=O)(=O)c2ccc(NC(=S)Nc3ccc(C)c(F)c3)cc2)[n-]o1 (protonated)
Cc1c/c(=N/S(=O)(=O)c2ccc(NC(=S)Nc3ccc(C)c(F)c3)cc2)[n-]o1 (cis-trans isomerization)
Cc1c/c(=N/S(=O)(=O)c2ccc(NC(=S)Nc3ccc(C)c(F)c3)cc2)[n-]o1 (3D coordinates assigned)
Cc1c/c(=N/S(=O)(=O)c2ccc(NC(=S)Nc3ccc(C)c(F)c3)cc2)[n-]o1 (optimized conformer: 88.66242735627482 kcal/mol)

>  <smiles>  (18) 
Cc1cc(=NS(=O)(=O)c2ccc(NC(=S)Nc3ccc(C)c(F)c3)cc2)[nH]o1

>  <score_type>  (18) 
oracle

>  <origin>  (18) 
adgpu

>  <m_score__min__energy>  (18) 
-10.630000000000001

>  <m_primary>  (18) 
energy

$$$$
18:0
     RDKit          3D

 60 63  0  0  0  0  0  0  0  0999 V2000
   -4.4900   24.6080  -30.8760 O   0  0  0  0  0  0  0  0  0  0  0  0
   -4.2890   23.7360  -29.9880 C   0  0  0  0  0  0  0  0  0  0  0  0
   -5.1870   22.6150  -29.8680 N   0  0  0  0  0  0  0  0  0  0  0  0
   -6.3850   22.4700  -30.6490 C   0  0  0  0  0  0  0  0  0  0  0  0
   -7.1650   23.5830  -31.0090 C   0  0  0  0  0  0  0  0  0  0  0  0
   -8.3380   23.4130  -31.7480 C   0  0  0  0  0  0  0  0  0  0  0  0
   -8.7510   22.1330  -32.1240 C   0  0  0  0  0  0  0  0  0  0  0  0
   -7.9940   21.0130  -31.7550 C   0  0  0  0  0  0  0  0  0  0  0  0
   -8.5130   19.3890  -32.1970 S   0  0  0  0  0  0  0  0  0  0  0  0
   -8.8870   18.6090  -30.9660 O   0  0  0  0  0  0  0  0  0  0  0  0
   -9.7230   19.4980  -33.0840 O   0  0  0  0  0  0  0  0  0  0  0  0
   -7.2220   18.5750  -33.0460 N   0  0  0  0  0  0  0  0  0  0  0  0
   -6.4830   19.5160  -33.9270 C   0  0  0  0  0  0  0  0  0  0  0  0
   -5.1450   19.9720  -33.3280 C   0  0  0  0  0  0  0  0  0  0  0  0
   -4.2260   18.7720  -33.0450 C   0  0  0  0  0  0  0  0  0  0  0  0
   -5.0070   17.4970  -32.6820 C   0  0  0  0  0  0  0  0  0  0  0  0
   -6.3730   17.8390  -32.0810 C   0  0  0  0  0  0  0  0  0  0  0  0
   -6.8210   21.1850  -31.0070 C   0  0  0  0  0  0  0  0  0  0  0  0
   -3.1200   23.8870  -29.0880 C   0  0  0  0  0  0  0  0  0  0  0  0
   -3.2740   24.1640  -27.7180 C   0  0  0  0  0  0  0  0  0  0  0  0
   -2.1560   24.2960  -26.8910 C   0  0  0  0  0  0  0  0  0  0  0  0
   -0.8660   24.1540  -27.4150 C   0  0  0  0  0  0  0  0  0  0  0  0
    0.5470   24.3420  -26.3760 S   0  0  0  0  0  0  0  0  0  0  0  0
    1.7660   23.8810  -27.1260 O   0  0  0  0  0  0  0  0  0  0  0  0
    0.3930   23.4570  -25.1690 O   0  0  0  0  0  0  0  0  0  0  0  0
    0.7850   25.9970  -25.8550 N   0  0  0  0  0  0  0  0  0  0  0  0
   -0.1780   26.9360  -26.4690 C   0  0  0  0  0  0  0  0  0  0  0  0
   -1.3110   27.3400  -25.5130 C   0  0  0  0  0  0  0  0  0  0  0  0
   -1.5840   26.2990  -24.6050 O   0  0  0  0  0  0  0  0  0  0  0  0
   -0.5090   26.1630  -23.6970 C   0  0  0  0  0  0  0  0  0  0  0  0
    0.8760   26.1220  -24.3880 C   0  0  0  0  0  0  0  0  0  0  0  0
   -0.7050   23.8550  -28.7730 C   0  0  0  0  0  0  0  0  0  0  0  0
   -1.8210   23.7220  -29.6030 C   0  0  0  0  0  0  0  0  0  0  0  0
   -4.9470   21.8320  -29.2220 H   0  0  0  0  0  0  0  0  0  0  0  0
   -6.8499   24.5927  -30.7071 H   0  0  0  0  0  0  0  0  0  0  0  0
   -8.9379   24.2894  -32.0345 H   0  0  0  0  0  0  0  0  0  0  0  0
   -9.6723   22.0037  -32.7109 H   0  0  0  0  0  0  0  0  0  0  0  0
   -6.2853   19.0160  -34.8867 H   0  0  0  0  0  0  0  0  0  0  0  0
   -7.1099   20.4111  -34.0523 H   0  0  0  0  0  0  0  0  0  0  0  0
   -4.6453   20.6473  -34.0381 H   0  0  0  0  0  0  0  0  0  0  0  0
   -5.3462   20.4889  -32.3781 H   0  0  0  0  0  0  0  0  0  0  0  0
   -3.6230   18.5714  -33.9429 H   0  0  0  0  0  0  0  0  0  0  0  0
   -3.5966   19.0326  -32.1813 H   0  0  0  0  0  0  0  0  0  0  0  0
   -5.1550   16.8954  -33.5910 H   0  0  0  0  0  0  0  0  0  0  0  0
   -4.4282   16.9337  -31.9352 H   0  0  0  0  0  0  0  0  0  0  0  0
   -6.8818   16.9062  -31.7962 H   0  0  0  0  0  0  0  0  0  0  0  0
   -6.2124   18.4815  -31.2027 H   0  0  0  0  0  0  0  0  0  0  0  0
   -6.2373   20.3053  -30.6980 H   0  0  0  0  0  0  0  0  0  0  0  0
   -4.2827   24.2776  -27.2942 H   0  0  0  0  0  0  0  0  0  0  0  0
   -2.2904   24.5130  -25.8210 H   0  0  0  0  0  0  0  0  0  0  0  0
    0.3631   27.8434  -26.7754 H   0  0  0  0  0  0  0  0  0  0  0  0
   -0.6371   26.4239  -27.3275 H   0  0  0  0  0  0  0  0  0  0  0  0
   -1.0101   28.2384  -24.9541 H   0  0  0  0  0  0  0  0  0  0  0  0
   -2.2172   27.5458  -26.1017 H   0  0  0  0  0  0  0  0  0  0  0  0
   -0.5279   27.0166  -23.0035 H   0  0  0  0  0  0  0  0  0  0  0  0
   -0.6418   25.2028  -23.1769 H   0  0  0  0  0  0  0  0  0  0  0  0
    1.4150   27.0504  -24.1481 H   0  0  0  0  0  0  0  0  0  0  0  0
    1.4039   25.2323  -24.0142 H   0  0  0  0  0  0  0  0  0  0  0  0
    0.3050   23.7241  -29.1887 H   0  0  0  0  0  0  0  0  0  0  0  0
   -1.6829   23.4862  -30.6685 H   0  0  0  0  0  0  0  0  0  0  0  0
  1  2  2  0
  2  3  1  0
  3  4  1  0
  4  5  2  0
  5  6  1  0
  6  7  2  0
  7  8  1  0
  8  9  1  0
  9 10  2  0
  9 11  2  0
  9 12  1  0
 12 13  1  0
 13 14  1  0
 14 15  1  0
 15 16  1  0
 16 17  1  0
  8 18  2  0
  2 19  1  0
 19 20  2  0
 20 21  1  0
 21 22  2  0
 22 23  1  0
 23 24  2  0
 23 25  2  0
 23 26  1  0
 26 27  1  0
 27 28  1  0
 28 29  1  0
 29 30  1  0
 30 31  1  0
 22 32  1  0
 32 33  2  0
 18  4  1  0
 33 19  1  0
 17 12  1  0
 31 26  1  0
  3 34  1  0
  5 35  1  0
  6 36  1  0
  7 37  1  0
 13 38  1  0
 13 39  1  0
 14 40  1  0
 14 41  1  0
 15 42  1  0
 15 43  1  0
 16 44  1  0
 16 45  1  0
 17 46  1  0
 17 47  1  0
 18 48  1  0
 20 49  1  0
 21 50  1  0
 27 51  1  0
 27 52  1  0
 28 53  1  0
 28 54  1  0
 30 55  1  0
 30 56  1  0
 31 57  1  0
 31 58  1  0
 32 59  1  0
 33 60  1  0
M  END
>  <UniqueID>  (19) 
18

>  <SMILES>  (19) 
O=C(Nc1cccc(S(=O)(=O)N2CCCCC2)c1)c1ccc(S(=O)(=O)N2CCOCC2)cc1

>  <Energy>  (19) 
84.8014950531244

>  <Genealogy>  (19) 
O=C(Nc1cccc(S(=O)(=O)N2CCCCC2)c1)c1ccc(S(=O)(=O)N2CCOCC2)cc1 (3D coordinates assigned)
O=C(Nc1cccc(S(=O)(=O)N2CCCCC2)c1)c1ccc(S(=O)(=O)N2CCOCC2)cc1 (nonaromatic ring conformer: 84.8014950531244 kcal/mol)

>  <smiles>  (19) 
O=C(Nc1cccc(S(=O)(=O)N2CCCCC2)c1)c1ccc(S(=O)(=O)N2CCOCC2)cc1

>  <score_type>  (19) 
oracle

>  <origin>  (19) 
adgpu

>  <m_score__min__energy>  (19) 
-10.67

>  <m_primary>  (19) 
energy

$$$$
19:0
     RDKit          3D

 44 46  0  0  0  0  0  0  0  0999 V2000
   -5.5420   26.4010  -30.3650 O   0  0  0  0  0  0  0  0  0  0  0  0
   -4.9360   25.3220  -30.6070 C   0  0  0  0  0  0  0  0  0  0  0  0
   -3.5110   25.2600  -30.4650 N   0  0  0  0  0  0  0  0  0  0  0  0
   -2.8380   24.8330  -29.2440 C   0  0  0  0  0  0  0  0  0  0  0  0
   -2.6650   23.3390  -29.2420 C   0  0  0  0  0  0  0  0  0  0  0  0
   -3.2490   22.5660  -28.2230 C   0  0  0  0  0  0  0  0  0  0  0  0
   -3.0700   21.1790  -28.2020 C   0  0  0  0  0  0  0  0  0  0  0  0
   -2.3070   20.5560  -29.1930 C   0  0  0  0  0  0  0  0  0  0  0  0
   -1.7190   21.3180  -30.2070 C   0  0  0  0  0  0  0  0  0  0  0  0
   -1.8940   22.7050  -30.2310 C   0  0  0  0  0  0  0  0  0  0  0  0
   -5.6950   24.1230  -31.0300 C   0  0  0  0  0  0  0  0  0  0  0  0
   -7.0900   24.0640  -30.8600 C   0  0  0  0  0  0  0  0  0  0  0  0
   -7.8020   22.9250  -31.2440 C   0  0  0  0  0  0  0  0  0  0  0  0
   -7.1340   21.8310  -31.7950 C   0  0  0  0  0  0  0  0  0  0  0  0
   -5.7440   21.8680  -31.9650 C   0  0  0  0  0  0  0  0  0  0  0  0
   -4.8920   20.4690  -32.6260 S   0  0  0  0  0  0  0  0  0  0  0  0
   -3.7790   20.9410  -33.5200 O   0  0  0  0  0  0  0  0  0  0  0  0
   -4.2810   19.6820  -31.4980 O   0  0  0  0  0  0  0  0  0  0  0  0
   -5.9660   19.4350  -33.5430 N   0  0  0  0  0  0  0  0  0  0  0  0
   -7.0700   18.9160  -32.7060 C   0  0  0  0  0  0  0  0  0  0  0  0
   -6.8580   17.4400  -32.3220 C   0  0  0  0  0  0  0  0  0  0  0  0
   -6.7370   16.5770  -33.4460 O   0  0  0  0  0  0  0  0  0  0  0  0
   -6.1200   17.1860  -34.5740 C   0  0  0  0  0  0  0  0  0  0  0  0
   -5.2030   18.3690  -34.2210 C   0  0  0  0  0  0  0  0  0  0  0  0
   -5.0310   23.0170  -31.5930 C   0  0  0  0  0  0  0  0  0  0  0  0
   -1.8501   25.3133  -29.1866 H   0  0  0  0  0  0  0  0  0  0  0  0
   -3.4483   25.1250  -28.3767 H   0  0  0  0  0  0  0  0  0  0  0  0
   -3.8484   23.0535  -27.4400 H   0  0  0  0  0  0  0  0  0  0  0  0
   -3.5305   20.5778  -27.4042 H   0  0  0  0  0  0  0  0  0  0  0  0
   -2.1688   19.4649  -29.1753 H   0  0  0  0  0  0  0  0  0  0  0  0
   -1.1184   20.8261  -30.9863 H   0  0  0  0  0  0  0  0  0  0  0  0
   -1.4262   23.3024  -31.0274 H   0  0  0  0  0  0  0  0  0  0  0  0
   -7.6238   24.9202  -30.4219 H   0  0  0  0  0  0  0  0  0  0  0  0
   -8.8934   22.8906  -31.1114 H   0  0  0  0  0  0  0  0  0  0  0  0
   -7.7001   20.9374  -32.0966 H   0  0  0  0  0  0  0  0  0  0  0  0
   -7.1314   19.5169  -31.7866 H   0  0  0  0  0  0  0  0  0  0  0  0
   -8.0000   18.9851  -33.2893 H   0  0  0  0  0  0  0  0  0  0  0  0
   -5.9385   17.3639  -31.7231 H   0  0  0  0  0  0  0  0  0  0  0  0
   -7.7474   17.1192  -31.7598 H   0  0  0  0  0  0  0  0  0  0  0  0
   -5.5188   16.4248  -35.0927 H   0  0  0  0  0  0  0  0  0  0  0  0
   -6.9291   17.5863  -35.2025 H   0  0  0  0  0  0  0  0  0  0  0  0
   -4.4015   18.0184  -33.5542 H   0  0  0  0  0  0  0  0  0  0  0  0
   -4.7758   18.7752  -35.1497 H   0  0  0  0  0  0  0  0  0  0  0  0
   -3.9419   23.0542  -31.7427 H   0  0  0  0  0  0  0  0  0  0  0  0
  1  2  2  0
  2  3  1  0
  3  4  1  0
  4  5  1  0
  5  6  2  0
  6  7  1  0
  7  8  2  0
  8  9  1  0
  9 10  2  0
  2 11  1  0
 11 12  2  0
 12 13  1  0
 13 14  2  0
 14 15  1  0
 15 16  1  0
 16 17  2  0
 16 18  2  0
 16 19  1  0
 19 20  1  0
 20 21  1  0
 21 22  1  0
 22 23  1  0
 23 24  1  0
 15 25  2  0
 10  5  1  0
 25 11  1  0
 24 19  1  0
  4 26  1  0
  4 27  1  0
  6 28  1  0
  7 29  1  0
  8 30  1  0
  9 31  1  0
 10 32  1  0
 12 33  1  0
 13 34  1  0
 14 35  1  0
 20 36  1  0
 20 37  1  0
 21 38  1  0
 21 39  1  0
 23 40  1  0
 23 41  1  0
 24 42  1  0
 24 43  1  0
 25 44  1  0
M  CHG  1   3  -1
M  END
>  <UniqueID>  (20) 
19

>  <SMILES>  (20) 
O=C([N-]Cc1ccccc1)c1cccc(S(=O)(=O)N2CCOCC2)c1

>  <Energy>  (20) 
55.2543367661523

>  <Genealogy>  (20) 
O=C([N-]Cc1ccccc1)c1cccc(S(=O)(=O)N2CCOCC2)c1 (protonated)
O=C([N-]Cc1ccccc1)c1cccc(S(=O)(=O)N2CCOCC2)c1 (3D coordinates assigned)
O=C([N-]Cc1ccccc1)c1cccc(S(=O)(=O)N2CCOCC2)c1 (nonaromatic ring conformer: 55.2543367661523 kcal/mol)

>  <smiles>  (20) 
O=C(NCc1ccccc1)c1cccc(S(=O)(=O)N2CCOCC2)c1

>  <score_type>  (20) 
oracle

>  <origin>  (20) 
adgpu

>  <m_score__min__energy>  (20) 
-10.09

>  <m_primary>  (20) 
energy

$$$$
20:0
     RDKit          3D

 48 51  0  0  0  0  0  0  0  0999 V2000
   -0.8080   26.1710  -27.8730 H   0  0  0  0  0  0  0  0  0  0  0  0
   -1.5870   26.0980  -28.5660 N   0  0  0  0  0  0  0  0  0  0  0  0
   -2.0340   24.9510  -28.9630 C   0  0  0  0  0  0  0  0  0  0  0  0
   -1.4940   23.8020  -28.4810 N   0  0  0  0  0  0  0  0  0  0  0  0
   -1.9650   22.5950  -28.8930 C   0  0  0  0  0  0  0  0  0  0  0  0
   -1.4000   21.3710  -28.3810 N   0  0  0  0  0  0  0  0  0  0  0  0
   -2.2400   20.1610  -28.3360 C   0  0  0  0  0  0  0  0  0  0  0  0
   -3.1914   20.4059  -27.8412 H   0  0  0  0  0  0  0  0  0  0  0  0
   -2.4081   19.8222  -29.3689 H   0  0  0  0  0  0  0  0  0  0  0  0
   -1.5590   19.0260  -27.5670 C   0  0  0  0  0  0  0  0  0  0  0  0
   -1.5642   19.2596  -26.4921 H   0  0  0  0  0  0  0  0  0  0  0  0
   -2.1055   18.0885  -27.7473 H   0  0  0  0  0  0  0  0  0  0  0  0
   -0.1740   18.8720  -28.0240 N   0  0  0  0  0  0  0  0  0  0  0  0
    0.3610   17.5630  -28.2680 C   0  0  0  0  0  0  0  0  0  0  0  0
    0.6560   16.7170  -27.1890 C   0  0  0  0  0  0  0  0  0  0  0  0
    0.4690   17.0567  -26.1596 H   0  0  0  0  0  0  0  0  0  0  0  0
    1.1720   15.4790  -27.4100 N   0  0  0  0  0  0  0  0  0  0  0  0
    1.4200   15.0220  -28.6650 C   0  0  0  0  0  0  0  0  0  0  0  0
    1.8481   14.0192  -28.8100 H   0  0  0  0  0  0  0  0  0  0  0  0
    1.1320   15.8240  -29.7710 C   0  0  0  0  0  0  0  0  0  0  0  0
    1.3238   15.4538  -30.7889 H   0  0  0  0  0  0  0  0  0  0  0  0
    0.5980   17.1010  -29.5750 C   0  0  0  0  0  0  0  0  0  0  0  0
    0.2000   18.0810  -30.9820 Cl  0  0  0  0  0  0  0  0  0  0  0  0
    0.6770   20.0480  -28.2410 C   0  0  0  0  0  0  0  0  0  0  0  0
    1.5939   19.9405  -27.6429 H   0  0  0  0  0  0  0  0  0  0  0  0
    0.9130   20.1091  -29.3137 H   0  0  0  0  0  0  0  0  0  0  0  0
   -0.0350   21.3420  -27.8320 C   0  0  0  0  0  0  0  0  0  0  0  0
   -0.0843   21.3974  -26.7345 H   0  0  0  0  0  0  0  0  0  0  0  0
    0.5278   22.2000  -28.2285 H   0  0  0  0  0  0  0  0  0  0  0  0
   -2.9820   22.5520  -29.7930 N   0  0  0  0  0  0  0  0  0  0  0  0
   -3.5190   23.6980  -30.2910 C   0  0  0  0  0  0  0  0  0  0  0  0
   -4.5060   23.6680  -31.1390 N   0  0  0  0  0  0  0  0  0  0  0  0
   -5.0950   22.4980  -31.7320 C   0  0  0  0  0  0  0  0  0  0  0  0
   -4.3510   21.6170  -32.5410 C   0  0  0  0  0  0  0  0  0  0  0  0
   -3.2789   21.7984  -32.7074 H   0  0  0  0  0  0  0  0  0  0  0  0
   -4.9710   20.5130  -33.1330 C   0  0  0  0  0  0  0  0  0  0  0  0
   -4.3827   19.8210  -33.7535 H   0  0  0  0  0  0  0  0  0  0  0  0
   -6.3350   20.2860  -32.9390 C   0  0  0  0  0  0  0  0  0  0  0  0
   -6.8178   19.4134  -33.4031 H   0  0  0  0  0  0  0  0  0  0  0  0
   -7.0900   21.1680  -32.1540 C   0  0  0  0  0  0  0  0  0  0  0  0
   -8.8170   20.9080  -31.9360 S   0  0  0  0  0  0  0  0  0  0  0  0
   -9.5760   22.1090  -32.4280 O   0  0  0  0  0  0  0  0  0  0  0  0
   -9.1270   20.7060  -30.4790 O   0  0  0  0  0  0  0  0  0  0  0  0
   -9.3060   19.5100  -32.8250 N   0  0  0  0  0  0  0  0  0  0  0  0
   -9.0370   19.6720  -33.8220 H   0  0  0  0  0  0  0  0  0  0  0  0
   -6.4680   22.2790  -31.5670 C   0  0  0  0  0  0  0  0  0  0  0  0
   -7.0645   22.9854  -30.9711 H   0  0  0  0  0  0  0  0  0  0  0  0
   -3.0460   24.8960  -29.8650 N   0  0  0  0  0  0  0  0  0  0  0  0
  1  2  1  0
  2  3  2  0
  3  4  1  0
  4  5  1  0
  5  6  1  0
  6  7  1  0
  7  8  1  0
  7  9  1  0
  7 10  1  0
 10 11  1  0
 10 12  1  0
 10 13  1  0
 13 14  1  0
 14 15  2  0
 15 16  1  0
 15 17  1  0
 17 18  2  0
 18 19  1  0
 18 20  1  0
 20 21  1  0
 20 22  2  0
 22 23  1  0
 13 24  1  0
 24 25  1  0
 24 26  1  0
 24 27  1  0
 27 28  1  0
 27 29  1  0
  5 30  2  0
 30 31  1  0
 31 32  2  0
 32 33  1  0
 33 34  2  0
 34 35  1  0
 34 36  1  0
 36 37  1  0
 36 38  2  0
 38 39  1  0
 38 40  1  0
 40 41  1  0
 41 42  2  0
 41 43  2  0
 41 44  1  0
 44 45  1  0
 40 46  2  0
 46 47  1  0
 31 48  1  0
 48  3  1  0
 27  6  1  0
 46 33  1  0
 22 14  1  0
M  CHG  3   4  -1  44  -1  48  -1
M  END
>  <UniqueID>  (21) 
20

>  <SMILES>  (21) 
[H]/N=c1\[n-]c(N2CCN(c3cnccc3Cl)CC2)n/c(=N\c2cccc(S([NH-])(=O)=O)c2)[n-]1

>  <Energy>  (21) 
64.19110677052399

>  <Genealogy>  (21) 
N=c1[n-]c(N2CCN(c3cnccc3Cl)CC2)nc(=Nc2cccc(S([NH-])(=O)=O)c2)[n-]1 (protonated)
[H]/N=c1\[n-]c(N2CCN(c3cnccc3Cl)CC2)n/c(=N\c2cccc(S([NH-])(=O)=O)c2)[n-]1 (cis-trans isomerization)
[H]/N=c1\[n-]c(N2CCN(c3cnccc3Cl)CC2)n/c(=N\c2cccc(S([NH-])(=O)=O)c2)[n-]1 (3D coordinates assigned)
[H]/N=c1\[n-]c(N2CCN(c3cnccc3Cl)CC2)n/c(=N\c2cccc(S([NH-])(=O)=O)c2)[n-]1 (nonaromatic ring conformer: 64.19110677052399 kcal/mol)

>  <smiles>  (21) 
N=c1[nH]c(N2CCN(c3cnccc3Cl)CC2)nc(=Nc2cccc(S(N)(=O)=O)c2)[nH]1

>  <score_type>  (21) 
oracle

>  <origin>  (21) 
adgpu

>  <m_score__min__energy>  (21) 
-11.83

>  <m_primary>  (21) 
energy

$$$$
21:0
     RDKit          3D

 31 32  0  0  0  0  0  0  0  0999 V2000
   -5.8660   19.0400  -34.0820 C   0  0  0  0  0  0  0  0  0  0  0  0
   -5.2110   20.4630  -33.1550 S   0  0  0  0  0  0  0  0  0  0  0  0
   -6.8300   20.9670  -32.5530 C   0  0  0  0  0  0  0  0  0  0  0  0
   -7.8480   20.0050  -32.5010 C   0  0  0  0  0  0  0  0  0  0  0  0
   -9.1150   20.3410  -32.0240 C   0  0  0  0  0  0  0  0  0  0  0  0
   -9.3770   21.6440  -31.6010 C   0  0  0  0  0  0  0  0  0  0  0  0
   -8.3740   22.6140  -31.6540 C   0  0  0  0  0  0  0  0  0  0  0  0
   -7.0860   22.2900  -32.1230 C   0  0  0  0  0  0  0  0  0  0  0  0
   -6.0540   23.2920  -32.1840 N   0  0  0  0  0  0  0  0  0  0  0  0
   -5.4550   24.1220  -30.7830 S   0  0  0  0  0  0  0  0  0  0  0  0
   -4.6270   25.2990  -31.2160 O   0  0  0  0  0  0  0  0  0  0  0  0
   -6.6130   24.6240  -29.9650 O   0  0  0  0  0  0  0  0  0  0  0  0
   -4.4380   23.0380  -29.8370 C   0  0  0  0  0  0  0  0  0  0  0  0
   -4.2210   23.3050  -28.4780 C   0  0  0  0  0  0  0  0  0  0  0  0
   -3.3960   22.4680  -27.7210 C   0  0  0  0  0  0  0  0  0  0  0  0
   -2.7840   21.3610  -28.3180 C   0  0  0  0  0  0  0  0  0  0  0  0
   -2.9990   21.0910  -29.6720 C   0  0  0  0  0  0  0  0  0  0  0  0
   -3.8240   21.9260  -30.4320 C   0  0  0  0  0  0  0  0  0  0  0  0
   -6.2188   18.2736  -33.3762 H   0  0  0  0  0  0  0  0  0  0  0  0
   -6.7034   19.3688  -34.7150 H   0  0  0  0  0  0  0  0  0  0  0  0
   -5.0717   18.6177  -34.7150 H   0  0  0  0  0  0  0  0  0  0  0  0
   -7.6464   18.9777  -32.8387 H   0  0  0  0  0  0  0  0  0  0  0  0
   -9.9070   19.5788  -31.9815 H   0  0  0  0  0  0  0  0  0  0  0  0
  -10.3763   21.9081  -31.2247 H   0  0  0  0  0  0  0  0  0  0  0  0
   -8.5919   23.6412  -31.3263 H   0  0  0  0  0  0  0  0  0  0  0  0
   -5.5510   23.4730  -33.0800 H   0  0  0  0  0  0  0  0  0  0  0  0
   -4.7010   24.1751  -28.0062 H   0  0  0  0  0  0  0  0  0  0  0  0
   -3.2280   22.6802  -26.6548 H   0  0  0  0  0  0  0  0  0  0  0  0
   -2.1340   20.7035  -27.7221 H   0  0  0  0  0  0  0  0  0  0  0  0
   -2.5183   20.2198  -30.1410 H   0  0  0  0  0  0  0  0  0  0  0  0
   -3.9916   21.7106  -31.4976 H   0  0  0  0  0  0  0  0  0  0  0  0
  1  2  1  0
  2  3  1  0
  3  4  2  0
  4  5  1  0
  5  6  2  0
  6  7  1  0
  7  8  2  0
  8  9  1  0
  9 10  1  0
 10 11  2  0
 10 12  2  0
 10 13  1  0
 13 14  2  0
 14 15  1  0
 15 16  2  0
 16 17  1  0
 17 18  2  0
  8  3  1  0
 18 13  1  0
  1 19  1  0
  1 20  1  0
  1 21  1  0
  4 22  1  0
  5 23  1  0
  6 24  1  0
  7 25  1  0
  9 26  1  0
 14 27  1  0
 15 28  1  0
 16 29  1  0
 17 30  1  0
 18 31  1  0
M  END
>  <UniqueID>  (22) 
21

>  <SMILES>  (22) 
CSc1ccccc1NS(=O)(=O)c1ccccc1

>  <Energy>  (22) 
31.063706556809375

>  <Genealogy>  (22) 
CSc1ccccc1NS(=O)(=O)c1ccccc1 (3D coordinates assigned)
CSc1ccccc1NS(=O)(=O)c1ccccc1 (optimized conformer: 31.063706556809375 kcal/mol)

>  <smiles>  (22) 
CSc1ccccc1NS(=O)(=O)c1ccccc1

>  <score_type>  (22) 
oracle

>  <origin>  (22) 
adgpu

>  <m_score__min__energy>  (22) 
-7.6900000000000004

>  <m_primary>  (22) 
energy

$$$$
22:0
     RDKit          3D

 31 33  0  0  0  0  0  0  0  0999 V2000
   -0.7630   19.0470  -33.3070 C   0  0  0  0  0  0  0  0  0  0  0  0
   -1.1090   19.9320  -32.1580 C   0  0  0  0  0  0  0  0  0  0  0  0
   -0.9900   19.5570  -30.8660 N   0  0  0  0  0  0  0  0  0  0  0  0
   -1.3000   20.5670  -30.0080 C   0  0  0  0  0  0  0  0  0  0  0  0
   -1.2240   20.3740  -28.5270 C   0  0  0  0  0  0  0  0  0  0  0  0
   -1.6600   21.7720  -30.6260 C   0  0  0  0  0  0  0  0  0  0  0  0
   -1.9560   23.0540  -29.9570 C   0  0  0  0  0  0  0  0  0  0  0  0
   -1.0130   23.7900  -29.3310 N   0  0  0  0  0  0  0  0  0  0  0  0
   -1.6650   24.9120  -28.9640 C   0  0  0  0  0  0  0  0  0  0  0  0
   -0.9470   26.1330  -28.1510 S   0  0  0  0  0  0  0  0  0  0  0  0
   -2.9600   24.9250  -29.3290 N   0  0  0  0  0  0  0  0  0  0  0  0
   -3.1590   23.7500  -29.9510 C   0  0  0  0  0  0  0  0  0  0  0  0
   -4.4800   23.3000  -30.4340 C   0  0  0  0  0  0  0  0  0  0  0  0
   -4.6090   22.6440  -31.6700 C   0  0  0  0  0  0  0  0  0  0  0  0
   -5.8600   22.2040  -32.1080 C   0  0  0  0  0  0  0  0  0  0  0  0
   -6.9920   22.3990  -31.3100 C   0  0  0  0  0  0  0  0  0  0  0  0
   -8.7010   21.7950  -31.9090 Br  0  0  0  0  0  0  0  0  0  0  0  0
   -6.8680   23.0320  -30.0680 C   0  0  0  0  0  0  0  0  0  0  0  0
   -5.6170   23.4740  -29.6280 C   0  0  0  0  0  0  0  0  0  0  0  0
   -1.5600   21.5440  -32.2940 S   0  0  0  0  0  0  0  0  0  0  0  0
   -0.3869   18.0850  -32.9286 H   0  0  0  0  0  0  0  0  0  0  0  0
   -1.6599   18.8745  -33.9200 H   0  0  0  0  0  0  0  0  0  0  0  0
    0.0131   19.5286  -33.9200 H   0  0  0  0  0  0  0  0  0  0  0  0
   -1.5817   21.2823  -28.0200 H   0  0  0  0  0  0  0  0  0  0  0  0
   -1.8529   19.5198  -28.2358 H   0  0  0  0  0  0  0  0  0  0  0  0
   -0.1815   20.1779  -28.2358 H   0  0  0  0  0  0  0  0  0  0  0  0
   -3.6660   25.6700  -29.1340 H   0  0  0  0  0  0  0  0  0  0  0  0
   -3.7200   22.4762  -32.2958 H   0  0  0  0  0  0  0  0  0  0  0  0
   -5.9553   21.7030  -33.0827 H   0  0  0  0  0  0  0  0  0  0  0  0
   -7.7565   23.1820  -29.4370 H   0  0  0  0  0  0  0  0  0  0  0  0
   -5.5226   23.9604  -28.6459 H   0  0  0  0  0  0  0  0  0  0  0  0
  1  2  1  0
  2  3  2  0
  3  4  1  0
  4  5  1  0
  4  6  2  0
  6  7  1  0
  7  8  1  0
  8  9  1  0
  9 10  2  0
  9 11  1  0
 11 12  1  0
 12 13  1  0
 13 14  2  0
 14 15  1  0
 15 16  2  0
 16 17  1  0
 16 18  1  0
 18 19  2  0
  6 20  1  0
 20  2  1  0
 12  7  2  0
 19 13  1  0
  1 21  1  0
  1 22  1  0
  1 23  1  0
  5 24  1  0
  5 25  1  0
  5 26  1  0
 11 27  1  0
 14 28  1  0
 15 29  1  0
 18 30  1  0
 19 31  1  0
M  CHG  1   8  -1
M  END
>  <UniqueID>  (23) 
22

>  <SMILES>  (23) 
Cc1nc(C)c(-c2[n-]c(=S)[nH]c2-c2ccc(Br)cc2)s1

>  <Energy>  (23) 
96.41534049365282

>  <Genealogy>  (23) 
Cc1nc(C)c(-c2[n-]c(=S)[nH]c2-c2ccc(Br)cc2)s1 (protonated)
Cc1nc(C)c(-c2[n-]c(=S)[nH]c2-c2ccc(Br)cc2)s1 (3D coordinates assigned)
Cc1nc(C)c(-c2[n-]c(=S)[nH]c2-c2ccc(Br)cc2)s1 (optimized conformer: 96.41534049365282 kcal/mol)

>  <smiles>  (23) 
Cc1nc(C)c(-c2[nH]c(=S)[nH]c2-c2ccc(Br)cc2)s1

>  <score_type>  (23) 
oracle

>  <origin>  (23) 
adgpu

>  <m_score__min__energy>  (23) 
-8.6400000000000006

>  <m_primary>  (23) 
energy

$$$$
23:0
     RDKit          3D

 55 59  0  0  0  0  0  0  0  0999 V2000
   -0.4740   28.2230  -25.0370 O   0  0  0  0  0  0  0  0  0  0  0  0
   -0.5270   26.8080  -24.5310 S   0  0  0  0  0  0  0  0  0  0  0  0
   -1.6070   26.7270  -23.4890 O   0  0  0  0  0  0  0  0  0  0  0  0
   -0.9330   25.7280  -25.8670 C   0  0  0  0  0  0  0  0  0  0  0  0
   -1.4910   24.4690  -25.6090 C   0  0  0  0  0  0  0  0  0  0  0  0
   -1.7970   23.6050  -26.6630 C   0  0  0  0  0  0  0  0  0  0  0  0
   -1.5530   23.9870  -27.9950 C   0  0  0  0  0  0  0  0  0  0  0  0
   -1.8700   23.0620  -29.1120 C   0  0  0  0  0  0  0  0  0  0  0  0
   -3.1200   22.4290  -29.1760 C   0  0  0  0  0  0  0  0  0  0  0  0
   -3.4310   21.5640  -30.2280 C   0  0  0  0  0  0  0  0  0  0  0  0
   -2.5170   21.3430  -31.2800 C   0  0  0  0  0  0  0  0  0  0  0  0
   -2.7800   20.5060  -32.4120 C   0  0  0  0  0  0  0  0  0  0  0  0
   -3.9650   20.0990  -32.7910 N   0  0  0  0  0  0  0  0  0  0  0  0
   -5.2670   20.5590  -32.4030 C   0  0  0  0  0  0  0  0  0  0  0  0
   -5.5920   21.9260  -32.4500 C   0  0  0  0  0  0  0  0  0  0  0  0
   -6.8820   22.3530  -32.1210 C   0  0  0  0  0  0  0  0  0  0  0  0
   -7.8600   21.4180  -31.7680 C   0  0  0  0  0  0  0  0  0  0  0  0
   -9.4800   21.9540  -31.3550 Cl  0  0  0  0  0  0  0  0  0  0  0  0
   -7.5510   20.0530  -31.7560 C   0  0  0  0  0  0  0  0  0  0  0  0
   -6.2600   19.6240  -32.0840 C   0  0  0  0  0  0  0  0  0  0  0  0
   -1.7040   20.1200  -33.2200 C   0  0  0  0  0  0  0  0  0  0  0  0
   -0.4400   20.6700  -33.0230 C   0  0  0  0  0  0  0  0  0  0  0  0
   -0.2320   21.5560  -32.0210 N   0  0  0  0  0  0  0  0  0  0  0  0
   -1.2160   21.9000  -31.1500 C   0  0  0  0  0  0  0  0  0  0  0  0
   -0.9150   22.7730  -30.0980 C   0  0  0  0  0  0  0  0  0  0  0  0
   -1.0000   25.2560  -28.2470 C   0  0  0  0  0  0  0  0  0  0  0  0
   -0.6940   26.1190  -27.1900 C   0  0  0  0  0  0  0  0  0  0  0  0
    1.0080   26.3920  -23.8040 N   0  0  0  0  0  0  0  0  0  0  0  0
    1.8370   25.6220  -24.7470 C   0  0  0  0  0  0  0  0  0  0  0  0
    3.2020   25.2740  -24.1130 C   0  0  0  0  0  0  0  0  0  0  0  0
    3.3840   25.8920  -22.8500 O   0  0  0  0  0  0  0  0  0  0  0  0
    3.1770   27.2870  -22.9660 C   0  0  0  0  0  0  0  0  0  0  0  0
    1.7180   27.6060  -23.3590 C   0  0  0  0  0  0  0  0  0  0  0  0
   -1.6889   24.1597  -24.5721 H   0  0  0  0  0  0  0  0  0  0  0  0
   -2.2324   22.6176  -26.4499 H   0  0  0  0  0  0  0  0  0  0  0  0
   -3.8646   22.6160  -28.3882 H   0  0  0  0  0  0  0  0  0  0  0  0
   -4.4023   21.0478  -30.2363 H   0  0  0  0  0  0  0  0  0  0  0  0
   -4.8295   22.6614  -32.7463 H   0  0  0  0  0  0  0  0  0  0  0  0
   -7.1277   23.4250  -32.1398 H   0  0  0  0  0  0  0  0  0  0  0  0
   -8.3234   19.3169  -31.4886 H   0  0  0  0  0  0  0  0  0  0  0  0
   -6.0244   18.5496  -32.0913 H   0  0  0  0  0  0  0  0  0  0  0  0
   -1.8581   19.3769  -34.0163 H   0  0  0  0  0  0  0  0  0  0  0  0
    0.3918   20.3837  -33.6835 H   0  0  0  0  0  0  0  0  0  0  0  0
    0.0808   23.2372  -30.0439 H   0  0  0  0  0  0  0  0  0  0  0  0
   -0.8070   25.5716  -29.2829 H   0  0  0  0  0  0  0  0  0  0  0  0
   -0.2636   27.1095  -27.3989 H   0  0  0  0  0  0  0  0  0  0  0  0
    0.7990   25.7930  -22.9690 H   0  0  0  0  0  0  0  0  0  0  0  0
    1.3137   24.6914  -25.0116 H   0  0  0  0  0  0  0  0  0  0  0  0
    2.0091   26.2312  -25.6466 H   0  0  0  0  0  0  0  0  0  0  0  0
    3.2643   24.1833  -23.9850 H   0  0  0  0  0  0  0  0  0  0  0  0
    3.9890   25.6463  -24.7853 H   0  0  0  0  0  0  0  0  0  0  0  0
    3.4007   27.7641  -22.0004 H   0  0  0  0  0  0  0  0  0  0  0  0
    3.8413   27.6727  -23.7533 H   0  0  0  0  0  0  0  0  0  0  0  0
    1.1958   28.0281  -22.4877 H   0  0  0  0  0  0  0  0  0  0  0  0
    1.7306   28.3266  -24.1900 H   0  0  0  0  0  0  0  0  0  0  0  0
  1  2  2  0
  2  3  2  0
  2  4  1  0
  4  5  2  0
  5  6  1  0
  6  7  2  0
  7  8  1  0
  8  9  2  0
  9 10  1  0
 10 11  2  0
 11 12  1  0
 12 13  2  3
 13 14  1  0
 14 15  2  0
 15 16  1  0
 16 17  2  0
 17 18  1  0
 17 19  1  0
 19 20  2  0
 12 21  1  0
 21 22  2  0
 22 23  1  0
 23 24  1  0
 24 25  2  0
  7 26  1  0
 26 27  2  0
  2 28  1  0
 28 29  1  0
 29 30  1  0
 30 31  1  0
 31 32  1  0
 32 33  1  0
 27  4  1  0
 33 28  1  0
 25  8  1  0
 24 11  1  0
 20 14  1  0
  5 34  1  0
  6 35  1  0
  9 36  1  0
 10 37  1  0
 15 38  1  0
 16 39  1  0
 19 40  1  0
 20 41  1  0
 21 42  1  0
 22 43  1  0
 25 44  1  0
 26 45  1  0
 27 46  1  0
 28 47  1  0
 29 48  1  0
 29 49  1  0
 30 50  1  0
 30 51  1  0
 32 52  1  0
 32 53  1  0
 33 54  1  0
 33 55  1  0
M  CHG  2  23  -1  28   1
M  END
>  <UniqueID>  (24) 
23

>  <SMILES>  (24) 
O=S(=O)(c1ccc(-c2ccc3c(=Nc4ccc(Cl)cc4)cc[n-]c3c2)cc1)[NH+]1CCOCC1

>  <Energy>  (24) 
96.64487293783912

>  <Genealogy>  (24) 
O=S(=O)(c1ccc(-c2ccc3c(=Nc4ccc(Cl)cc4)cc[n-]c3c2)cc1)[NH+]1CCOCC1 (protonated)
O=S(=O)(c1ccc(-c2ccc3c(=Nc4ccc(Cl)cc4)cc[n-]c3c2)cc1)[NH+]1CCOCC1 (3D coordinates assigned)
O=S(=O)(c1ccc(-c2ccc3c(=Nc4ccc(Cl)cc4)cc[n-]c3c2)cc1)[NH+]1CCOCC1 (nonaromatic ring conformer: 96.64487293783912 kcal/mol)

>  <smiles>  (24) 
O=S(=O)(c1ccc(-c2ccc3c(=Nc4ccc(Cl)cc4)cc[nH]c3c2)cc1)N1CCOCC1

>  <score_type>  (24) 
oracle

>  <origin>  (24) 
adgpu

>  <m_score__min__energy>  (24) 
-9.8200000000000003

>  <m_primary>  (24) 
energy

$$$$
24:0
     RDKit          3D

 45 47  0  0  0  0  0  0  0  0999 V2000
   -0.4980   25.7840  -23.6960 C   0  0  0  0  0  0  0  0  0  0  0  0
   -0.7250   25.8880  -25.1750 C   0  0  0  0  0  0  0  0  0  0  0  0
    0.2220   26.5210  -25.9910 C   0  0  0  0  0  0  0  0  0  0  0  0
    0.0310   26.5810  -27.3730 C   0  0  0  0  0  0  0  0  0  0  0  0
   -1.1010   26.0030  -27.9560 C   0  0  0  0  0  0  0  0  0  0  0  0
   -1.2360   26.0440  -29.3410 O   0  0  0  0  0  0  0  0  0  0  0  0
   -2.0660   25.3650  -27.1490 C   0  0  0  0  0  0  0  0  0  0  0  0
   -3.2810   24.7470  -27.7320 C   0  0  0  0  0  0  0  0  0  0  0  0
   -4.1050   24.1690  -26.9740 O   0  0  0  0  0  0  0  0  0  0  0  0
   -3.5630   24.8660  -29.1370 N   0  0  0  0  0  0  0  0  0  0  0  0
   -4.4920   24.0240  -29.8410 C   0  0  0  0  0  0  0  0  0  0  0  0
   -5.8750   24.2790  -29.8170 C   0  0  0  0  0  0  0  0  0  0  0  0
   -6.7610   23.4350  -30.4930 C   0  0  0  0  0  0  0  0  0  0  0  0
   -6.2780   22.3210  -31.1950 C   0  0  0  0  0  0  0  0  0  0  0  0
   -7.3920   21.2460  -32.0340 S   0  0  0  0  0  0  0  0  0  0  0  0
   -6.9780   21.1550  -33.4750 O   0  0  0  0  0  0  0  0  0  0  0  0
   -8.7810   21.8120  -31.9350 O   0  0  0  0  0  0  0  0  0  0  0  0
   -7.3070   19.6880  -31.2750 N   0  0  0  0  0  0  0  0  0  0  0  0
   -6.5440   18.6710  -31.5570 C   0  0  0  0  0  0  0  0  0  0  0  0
   -6.6050   17.5570  -30.8660 O   0  0  0  0  0  0  0  0  0  0  0  0
   -5.7680   16.6700  -31.3180 N   0  0  0  0  0  0  0  0  0  0  0  0
   -5.1250   17.2280  -32.3610 C   0  0  0  0  0  0  0  0  0  0  0  0
   -4.0850   16.5140  -33.1610 C   0  0  0  0  0  0  0  0  0  0  0  0
   -5.5800   18.5240  -32.5560 C   0  0  0  0  0  0  0  0  0  0  0  0
   -5.1430   19.4520  -33.6520 C   0  0  0  0  0  0  0  0  0  0  0  0
   -4.9060   22.0470  -31.1950 C   0  0  0  0  0  0  0  0  0  0  0  0
   -4.0190   22.8910  -30.5190 C   0  0  0  0  0  0  0  0  0  0  0  0
   -1.8550   25.2970  -25.7600 C   0  0  0  0  0  0  0  0  0  0  0  0
   -1.3722   26.1845  -23.1618 H   0  0  0  0  0  0  0  0  0  0  0  0
   -0.3518   24.7291  -23.4208 H   0  0  0  0  0  0  0  0  0  0  0  0
    0.3964   26.3621  -23.4208 H   0  0  0  0  0  0  0  0  0  0  0  0
    1.1189   26.9722  -25.5415 H   0  0  0  0  0  0  0  0  0  0  0  0
    0.7752   27.0858  -28.0066 H   0  0  0  0  0  0  0  0  0  0  0  0
   -3.1540   25.6810  -29.6480 H   0  0  0  0  0  0  0  0  0  0  0  0
   -6.2616   25.1473  -29.2633 H   0  0  0  0  0  0  0  0  0  0  0  0
   -7.8405   23.6453  -30.4743 H   0  0  0  0  0  0  0  0  0  0  0  0
   -3.3718   16.0244  -32.4815 H   0  0  0  0  0  0  0  0  0  0  0  0
   -4.5670   15.7555  -33.7953 H   0  0  0  0  0  0  0  0  0  0  0  0
   -3.5503   17.2364  -33.7953 H   0  0  0  0  0  0  0  0  0  0  0  0
   -4.7137   20.3637  -33.2110 H   0  0  0  0  0  0  0  0  0  0  0  0
   -4.3850   18.9535  -34.2740 H   0  0  0  0  0  0  0  0  0  0  0  0
   -6.0101   19.7188  -34.2740 H   0  0  0  0  0  0  0  0  0  0  0  0
   -4.5235   21.1645  -31.7287 H   0  0  0  0  0  0  0  0  0  0  0  0
   -2.9426   22.6646  -30.5191 H   0  0  0  0  0  0  0  0  0  0  0  0
   -2.5849   24.7740  -25.1246 H   0  0  0  0  0  0  0  0  0  0  0  0
  1  2  1  0
  2  3  2  0
  3  4  1  0
  4  5  2  0
  5  6  1  0
  5  7  1  0
  7  8  1  0
  8  9  2  0
  8 10  1  0
 10 11  1  0
 11 12  2  0
 12 13  1  0
 13 14  2  0
 14 15  1  0
 15 16  2  0
 15 17  2  0
 15 18  1  0
 18 19  2  3
 19 20  1  0
 20 21  1  0
 21 22  1  0
 22 23  1  0
 22 24  2  0
 24 25  1  0
 14 26  1  0
 26 27  2  0
  7 28  2  0
 28  2  1  0
 27 11  1  0
 24 19  1  0
  1 29  1  0
  1 30  1  0
  1 31  1  0
  3 32  1  0
  4 33  1  0
 10 34  1  0
 12 35  1  0
 13 36  1  0
 23 37  1  0
 23 38  1  0
 23 39  1  0
 25 40  1  0
 25 41  1  0
 25 42  1  0
 26 43  1  0
 27 44  1  0
 28 45  1  0
M  CHG  2   6  -1  21  -1
M  END
>  <UniqueID>  (25) 
24

>  <SMILES>  (25) 
Cc1ccc([O-])c(C(=O)Nc2ccc(S(=O)(=O)N=c3o[n-]c(C)c3C)cc2)c1

>  <Energy>  (25) 
94.20419677343827

>  <Genealogy>  (25) 
Cc1ccc([O-])c(C(=O)Nc2ccc(S(=O)(=O)N=c3o[n-]c(C)c3C)cc2)c1 (protonated)
Cc1ccc([O-])c(C(=O)Nc2ccc(S(=O)(=O)N=c3o[n-]c(C)c3C)cc2)c1 (3D coordinates assigned)
Cc1ccc([O-])c(C(=O)Nc2ccc(S(=O)(=O)N=c3o[n-]c(C)c3C)cc2)c1 (optimized conformer: 94.20419677343827 kcal/mol)

>  <smiles>  (25) 
Cc1ccc(O)c(C(=O)Nc2ccc(S(=O)(=O)N=c3o[nH]c(C)c3C)cc2)c1

>  <score_type>  (25) 
oracle

>  <origin>  (25) 
adgpu

>  <m_score__min__energy>  (25) 
-11.98

>  <m_primary>  (25) 
energy

$$$$
25:0
     RDKit          3D

 34 35  0  0  0  0  0  0  0  0999 V2000
   -1.3460   26.7820  -24.7460 C   0  0  0  0  0  0  0  0  0  0  0  0
   -0.7320   25.4500  -25.1790 C   0  0  0  0  0  0  0  0  0  0  0  0
   -1.0050   25.1340  -26.6570 C   0  0  0  0  0  0  0  0  0  0  0  0
   -2.2840   24.3560  -26.8510 C   0  0  0  0  0  0  0  0  0  0  0  0
   -2.9860   24.2760  -28.0010 C   0  0  0  0  0  0  0  0  0  0  0  0
   -4.1200   23.5230  -27.9920 N   0  0  0  0  0  0  0  0  0  0  0  0
   -4.9070   23.3600  -29.0860 C   0  0  0  0  0  0  0  0  0  0  0  0
   -5.9650   22.6860  -28.9730 O   0  0  0  0  0  0  0  0  0  0  0  0
   -4.5370   23.9800  -30.3030 C   0  0  0  0  0  0  0  0  0  0  0  0
   -5.2280   23.8810  -31.4570 C   0  0  0  0  0  0  0  0  0  0  0  0
   -6.3830   22.9960  -31.7060 C   0  0  0  0  0  0  0  0  0  0  0  0
   -7.6700   23.4190  -31.3420 C   0  0  0  0  0  0  0  0  0  0  0  0
   -8.7790   22.6150  -31.6210 C   0  0  0  0  0  0  0  0  0  0  0  0
   -8.6140   21.3950  -32.2820 C   0  0  0  0  0  0  0  0  0  0  0  0
   -7.3380   20.9790  -32.6780 C   0  0  0  0  0  0  0  0  0  0  0  0
   -7.1880   19.7670  -33.3480 O   0  0  0  0  0  0  0  0  0  0  0  0
   -6.2250   21.7840  -32.3980 C   0  0  0  0  0  0  0  0  0  0  0  0
   -3.4190   24.7540  -30.3050 N   0  0  0  0  0  0  0  0  0  0  0  0
   -2.6350   24.9250  -29.2100 C   0  0  0  0  0  0  0  0  0  0  0  0
   -1.6160   25.6580  -29.3060 O   0  0  0  0  0  0  0  0  0  0  0  0
   -1.3703   26.8347  -23.6475 H   0  0  0  0  0  0  0  0  0  0  0  0
   -0.7390   27.6107  -25.1395 H   0  0  0  0  0  0  0  0  0  0  0  0
   -2.3703   26.8587  -25.1395 H   0  0  0  0  0  0  0  0  0  0  0  0
    0.3558   25.4946  -25.0221 H   0  0  0  0  0  0  0  0  0  0  0  0
   -1.1934   24.6551  -24.5747 H   0  0  0  0  0  0  0  0  0  0  0  0
   -1.0790   26.0803  -27.2130 H   0  0  0  0  0  0  0  0  0  0  0  0
   -0.1751   24.5139  -27.0268 H   0  0  0  0  0  0  0  0  0  0  0  0
   -2.6770   23.8081  -25.9819 H   0  0  0  0  0  0  0  0  0  0  0  0
   -4.9003   24.5194  -32.2907 H   0  0  0  0  0  0  0  0  0  0  0  0
   -7.8069   24.3859  -30.8357 H   0  0  0  0  0  0  0  0  0  0  0  0
   -9.7845   22.9437  -31.3193 H   0  0  0  0  0  0  0  0  0  0  0  0
   -9.4882   20.7609  -32.4913 H   0  0  0  0  0  0  0  0  0  0  0  0
   -7.7520   19.5370  -34.1590 H   0  0  0  0  0  0  0  0  0  0  0  0
   -5.2233   21.4650  -32.7217 H   0  0  0  0  0  0  0  0  0  0  0  0
  1  2  1  0
  2  3  1  0
  3  4  1  0
  4  5  2  3
  5  6  1  0
  6  7  1  0
  7  8  2  0
  7  9  1  0
  9 10  2  3
 10 11  1  0
 11 12  2  0
 12 13  1  0
 13 14  2  0
 14 15  1  0
 15 16  1  0
 15 17  2  0
  9 18  1  0
 18 19  1  0
 19 20  2  0
 19  5  1  0
 17 11  1  0
  1 21  1  0
  1 22  1  0
  1 23  1  0
  2 24  1  0
  2 25  1  0
  3 26  1  0
  3 27  1  0
  4 28  1  0
 10 29  1  0
 12 30  1  0
 13 31  1  0
 14 32  1  0
 16 33  1  0
 17 34  1  0
M  CHG  2   6  -1  18  -1
M  END
>  <UniqueID>  (26) 
25

>  <SMILES>  (26) 
CCCC=c1[n-]c(=O)c(=Cc2cccc(O)c2)[n-]c1=O

>  <Energy>  (26) 
47.956442747960295

>  <Genealogy>  (26) 
CCCC=c1[n-]c(=O)c(=Cc2cccc(O)c2)[n-]c1=O (protonated)
CCCC=c1[n-]c(=O)c(=Cc2cccc(O)c2)[n-]c1=O (3D coordinates assigned)
CCCC=c1[n-]c(=O)c(=Cc2cccc(O)c2)[n-]c1=O (optimized conformer: 47.956442747960295 kcal/mol)

>  <smiles>  (26) 
CCCC=c1[nH]c(=O)c(=Cc2cccc(O)c2)[nH]c1=O

>  <score_type>  (26) 
oracle

>  <origin>  (26) 
adgpu

>  <m_score__min__energy>  (26) 
-8.6999999999999993

>  <m_primary>  (26) 
energy

$$$$
26:0
     RDKit          3D

 46 47  0  0  0  0  0  0  0  0999 V2000
   -6.4470   16.7130  -33.5280 C   0  0  0  0  0  0  0  0  0  0  0  0
   -6.9310   18.0480  -33.0450 C   0  0  0  0  0  0  0  0  0  0  0  0
   -6.3870   19.2270  -33.5790 C   0  0  0  0  0  0  0  0  0  0  0  0
   -6.8590   20.4740  -33.1600 C   0  0  0  0  0  0  0  0  0  0  0  0
   -7.8840   20.5560  -32.2080 C   0  0  0  0  0  0  0  0  0  0  0  0
   -8.4760   22.1220  -31.6610 S   0  0  0  0  0  0  0  0  0  0  0  0
   -8.6790   22.0680  -30.1730 O   0  0  0  0  0  0  0  0  0  0  0  0
   -9.7840   22.4580  -32.3190 O   0  0  0  0  0  0  0  0  0  0  0  0
   -7.3150   23.3550  -32.0370 N   0  0  0  0  0  0  0  0  0  0  0  0
   -6.0320   23.4710  -31.3970 C   0  0  0  0  0  0  0  0  0  0  0  0
   -5.8640   24.4120  -30.3680 C   0  0  0  0  0  0  0  0  0  0  0  0
   -4.6300   24.5510  -29.7260 C   0  0  0  0  0  0  0  0  0  0  0  0
   -3.5440   23.7560  -30.1070 C   0  0  0  0  0  0  0  0  0  0  0  0
   -1.9900   23.9630  -29.3040 S   0  0  0  0  0  0  0  0  0  0  0  0
   -2.0500   23.2180  -28.0000 O   0  0  0  0  0  0  0  0  0  0  0  0
   -0.8870   23.3560  -30.1260 O   0  0  0  0  0  0  0  0  0  0  0  0
   -1.6320   25.6380  -28.9590 N   0  0  0  0  0  0  0  0  0  0  0  0
   -0.9350   25.9410  -27.6900 C   0  0  0  0  0  0  0  0  0  0  0  0
   -1.9590   25.7140  -26.5650 C   0  0  0  0  0  0  0  0  0  0  0  0
    0.2700   25.0100  -27.4330 C   0  0  0  0  0  0  0  0  0  0  0  0
   -0.4910   27.4170  -27.6460 C   0  0  0  0  0  0  0  0  0  0  0  0
   -3.7030   22.8130  -31.1310 C   0  0  0  0  0  0  0  0  0  0  0  0
   -4.9350   22.6740  -31.7760 C   0  0  0  0  0  0  0  0  0  0  0  0
   -8.4420   19.3810  -31.6880 C   0  0  0  0  0  0  0  0  0  0  0  0
   -7.9720   18.1330  -32.1080 C   0  0  0  0  0  0  0  0  0  0  0  0
   -6.2149   16.0727  -32.6642 H   0  0  0  0  0  0  0  0  0  0  0  0
   -7.2300   16.2375  -34.1370 H   0  0  0  0  0  0  0  0  0  0  0  0
   -5.5412   16.8498  -34.1370 H   0  0  0  0  0  0  0  0  0  0  0  0
   -5.5858   19.1690  -34.3305 H   0  0  0  0  0  0  0  0  0  0  0  0
   -6.4246   21.3938  -33.5787 H   0  0  0  0  0  0  0  0  0  0  0  0
   -7.6130   24.0920  -32.7130 H   0  0  0  0  0  0  0  0  0  0  0  0
   -6.7108   25.0451  -30.0646 H   0  0  0  0  0  0  0  0  0  0  0  0
   -4.5126   25.2883  -28.9182 H   0  0  0  0  0  0  0  0  0  0  0  0
   -1.4625   25.8241  -25.5896 H   0  0  0  0  0  0  0  0  0  0  0  0
   -2.7678   26.4547  -26.6504 H   0  0  0  0  0  0  0  0  0  0  0  0
   -2.3790   24.7009  -26.6504 H   0  0  0  0  0  0  0  0  0  0  0  0
    0.4195   24.8945  -26.3494 H   0  0  0  0  0  0  0  0  0  0  0  0
    0.0753   24.0255  -27.8833 H   0  0  0  0  0  0  0  0  0  0  0  0
    1.1735   25.4469  -27.8833 H   0  0  0  0  0  0  0  0  0  0  0  0
   -0.3939   27.7396  -26.5989 H   0  0  0  0  0  0  0  0  0  0  0  0
    0.4789   27.5234  -28.1539 H   0  0  0  0  0  0  0  0  0  0  0  0
   -1.2412   28.0409  -28.1539 H   0  0  0  0  0  0  0  0  0  0  0  0
   -2.8545   22.1793  -31.4285 H   0  0  0  0  0  0  0  0  0  0  0  0
   -5.0483   21.9372  -32.5849 H   0  0  0  0  0  0  0  0  0  0  0  0
   -9.2526   19.4404  -30.9468 H   0  0  0  0  0  0  0  0  0  0  0  0
   -8.4201   17.2140  -31.7022 H   0  0  0  0  0  0  0  0  0  0  0  0
  1  2  1  0
  2  3  2  0
  3  4  1  0
  4  5  2  0
  5  6  1  0
  6  7  2  0
  6  8  2  0
  6  9  1  0
  9 10  1  0
 10 11  2  0
 11 12  1  0
 12 13  2  0
 13 14  1  0
 14 15  2  0
 14 16  2  0
 14 17  1  0
 17 18  1  0
 18 19  1  0
 18 20  1  0
 18 21  1  0
 13 22  1  0
 22 23  2  0
  5 24  1  0
 24 25  2  0
 25  2  1  0
 23 10  1  0
  1 26  1  0
  1 27  1  0
  1 28  1  0
  3 29  1  0
  4 30  1  0
  9 31  1  0
 11 32  1  0
 12 33  1  0
 19 34  1  0
 19 35  1  0
 19 36  1  0
 20 37  1  0
 20 38  1  0
 20 39  1  0
 21 40  1  0
 21 41  1  0
 21 42  1  0
 22 43  1  0
 23 44  1  0
 24 45  1  0
 25 46  1  0
M  CHG  1  17  -1
M  END
>  <UniqueID>  (27) 
26

>  <SMILES>  (27) 
Cc1ccc(S(=O)(=O)Nc2ccc(S(=O)(=O)[N-]C(C)(C)C)cc2)cc1

>  <Energy>  (27) 
48.526916900776946

>  <Genealogy>  (27) 
Cc1ccc(S(=O)(=O)Nc2ccc(S(=O)(=O)[N-]C(C)(C)C)cc2)cc1 (protonated)
Cc1ccc(S(=O)(=O)Nc2ccc(S(=O)(=O)[N-]C(C)(C)C)cc2)cc1 (3D coordinates assigned)
Cc1ccc(S(=O)(=O)Nc2ccc(S(=O)(=O)[N-]C(C)(C)C)cc2)cc1 (optimized conformer: 48.526916900776946 kcal/mol)

>  <smiles>  (27) 
Cc1ccc(S(=O)(=O)Nc2ccc(S(=O)(=O)NC(C)(C)C)cc2)cc1

>  <score_type>  (27) 
oracle

>  <origin>  (27) 
adgpu

>  <m_score__min__energy>  (27) 
-10.49

>  <m_primary>  (27) 
energy

$$$$
27:0
     RDKit          3D

 51 54  0  0  0  0  0  0  0  0999 V2000
   -1.5290   25.6620  -28.9990 O   0  0  0  0  0  0  0  0  0  0  0  0
   -2.4130   24.8160  -29.2900 C   0  0  0  0  0  0  0  0  0  0  0  0
   -3.5020   25.2160  -30.1320 N   0  0  0  0  0  0  0  0  0  0  0  0
   -4.5990   24.3970  -30.5640 C   0  0  0  0  0  0  0  0  0  0  0  0
   -4.4580   23.4290  -31.5710 C   0  0  0  0  0  0  0  0  0  0  0  0
   -5.5600   22.6710  -31.9800 C   0  0  0  0  0  0  0  0  0  0  0  0
   -6.8230   22.8830  -31.4040 C   0  0  0  0  0  0  0  0  0  0  0  0
   -8.0020   22.1020  -31.8440 C   0  0  0  0  0  0  0  0  0  0  0  0
   -9.0270   22.7220  -32.2390 O   0  0  0  0  0  0  0  0  0  0  0  0
   -7.9920   20.6600  -31.8620 N   0  0  0  0  0  0  0  0  0  0  0  0
   -6.7610   19.9730  -32.3180 C   0  0  0  0  0  0  0  0  0  0  0  0
   -6.9870   18.5010  -32.7550 C   0  0  0  0  0  0  0  0  0  0  0  0
   -8.3390   18.1840  -33.0100 O   0  0  0  0  0  0  0  0  0  0  0  0
   -9.1050   18.4560  -31.8610 C   0  0  0  0  0  0  0  0  0  0  0  0
   -9.2770   19.9600  -31.7230 C   0  0  0  0  0  0  0  0  0  0  0  0
   -6.9550   23.8340  -30.3800 C   0  0  0  0  0  0  0  0  0  0  0  0
   -5.8540   24.5900  -29.9720 C   0  0  0  0  0  0  0  0  0  0  0  0
   -2.3290   23.4640  -28.7060 C   0  0  0  0  0  0  0  0  0  0  0  0
   -3.0530   23.0460  -27.6030 C   0  0  0  0  0  0  0  0  0  0  0  0
   -2.7400   21.7150  -27.4110 C   0  0  0  0  0  0  0  0  0  0  0  0
   -1.8470   21.3710  -28.4060 C   0  0  0  0  0  0  0  0  0  0  0  0
   -1.5920   22.4360  -29.1920 N   0  0  0  0  0  0  0  0  0  0  0  0
   -0.8530   22.3660  -30.4550 C   0  0  0  0  0  0  0  0  0  0  0  0
   -1.6420   21.5920  -31.4760 C   0  0  0  0  0  0  0  0  0  0  0  0
   -2.7680   20.8460  -31.0920 C   0  0  0  0  0  0  0  0  0  0  0  0
   -3.4630   20.0760  -32.0330 C   0  0  0  0  0  0  0  0  0  0  0  0
   -3.0260   20.0400  -33.3610 C   0  0  0  0  0  0  0  0  0  0  0  0
   -1.9030   20.7720  -33.7480 C   0  0  0  0  0  0  0  0  0  0  0  0
   -1.2010   21.5360  -32.8090 C   0  0  0  0  0  0  0  0  0  0  0  0
   -3.4766   23.2660  -32.0404 H   0  0  0  0  0  0  0  0  0  0  0  0
   -5.4365   21.9035  -32.7582 H   0  0  0  0  0  0  0  0  0  0  0  0
   -6.3508   20.5292  -33.1738 H   0  0  0  0  0  0  0  0  0  0  0  0
   -6.0725   19.9492  -31.4604 H   0  0  0  0  0  0  0  0  0  0  0  0
   -6.4089   18.3190  -33.6730 H   0  0  0  0  0  0  0  0  0  0  0  0
   -6.6606   17.8647  -31.9192 H   0  0  0  0  0  0  0  0  0  0  0  0
  -10.0919   17.9794  -31.9548 H   0  0  0  0  0  0  0  0  0  0  0  0
   -8.5939   18.0581  -30.9719 H   0  0  0  0  0  0  0  0  0  0  0  0
   -9.9648   20.3151  -32.5046 H   0  0  0  0  0  0  0  0  0  0  0  0
   -9.6815   20.1726  -30.7224 H   0  0  0  0  0  0  0  0  0  0  0  0
   -7.9313   23.9846  -29.8961 H   0  0  0  0  0  0  0  0  0  0  0  0
   -5.9731   25.3432  -29.1793 H   0  0  0  0  0  0  0  0  0  0  0  0
   -3.7419   23.6542  -26.9985 H   0  0  0  0  0  0  0  0  0  0  0  0
   -3.1269   21.0567  -26.6192 H   0  0  0  0  0  0  0  0  0  0  0  0
   -1.4069   20.3716  -28.5384 H   0  0  0  0  0  0  0  0  0  0  0  0
   -0.6755   23.3851  -30.8291 H   0  0  0  0  0  0  0  0  0  0  0  0
    0.1068   21.8572  -30.2818 H   0  0  0  0  0  0  0  0  0  0  0  0
   -3.1063   20.8665  -30.0455 H   0  0  0  0  0  0  0  0  0  0  0  0
   -4.3500   19.5012  -31.7284 H   0  0  0  0  0  0  0  0  0  0  0  0
   -3.5684   19.4337  -34.1015 H   0  0  0  0  0  0  0  0  0  0  0  0
   -1.5681   20.7484  -34.7955 H   0  0  0  0  0  0  0  0  0  0  0  0
   -0.3032   22.0932  -33.1146 H   0  0  0  0  0  0  0  0  0  0  0  0
  1  2  2  0
  2  3  1  0
  3  4  1  0
  4  5  2  0
  5  6  1  0
  6  7  2  0
  7  8  1  0
  8  9  2  0
  8 10  1  0
 10 11  1  0
 11 12  1  0
 12 13  1  0
 13 14  1  0
 14 15  1  0
  7 16  1  0
 16 17  2  0
  2 18  1  0
 18 19  2  0
 19 20  1  0
 20 21  2  0
 21 22  1  0
 22 23  1  0
 23 24  1  0
 24 25  2  0
 25 26  1  0
 26 27  2  0
 27 28  1  0
 28 29  2  0
 17  4  1  0
 22 18  1  0
 29 24  1  0
 15 10  1  0
  5 30  1  0
  6 31  1  0
 11 32  1  0
 11 33  1  0
 12 34  1  0
 12 35  1  0
 14 36  1  0
 14 37  1  0
 15 38  1  0
 15 39  1  0
 16 40  1  0
 17 41  1  0
 19 42  1  0
 20 43  1  0
 21 44  1  0
 23 45  1  0
 23 46  1  0
 25 47  1  0
 26 48  1  0
 27 49  1  0
 28 50  1  0
 29 51  1  0
M  CHG  1   3  -1
M  END
>  <UniqueID>  (28) 
27

>  <SMILES>  (28) 
O=C([N-]c1ccc(C(=O)N2CCOCC2)cc1)c1cccn1Cc1ccccc1

>  <Energy>  (28) 
96.92157488806119

>  <Genealogy>  (28) 
O=C([N-]c1ccc(C(=O)N2CCOCC2)cc1)c1cccn1Cc1ccccc1 (protonated)
O=C([N-]c1ccc(C(=O)N2CCOCC2)cc1)c1cccn1Cc1ccccc1 (3D coordinates assigned)
O=C([N-]c1ccc(C(=O)N2CCOCC2)cc1)c1cccn1Cc1ccccc1 (nonaromatic ring conformer: 96.92157488806119 kcal/mol)

>  <smiles>  (28) 
O=C(Nc1ccc(C(=O)N2CCOCC2)cc1)c1cccn1Cc1ccccc1

>  <score_type>  (28) 
oracle

>  <origin>  (28) 
adgpu

>  <m_score__min__energy>  (28) 
-10.859999999999999

>  <m_primary>  (28) 
energy

$$$$
28:0
     RDKit          3D

 56 58  0  0  0  0  0  0  0  0999 V2000
    4.3530   19.2280  -34.2200 C   0  0  0  0  0  0  0  0  0  0  0  0
    3.2470   20.1280  -34.5180 N   0  0  0  0  0  0  0  0  0  0  0  0
    3.4630   21.4310  -35.0740 C   0  0  0  0  0  0  0  0  0  0  0  0
    4.6300   21.8090  -35.3650 O   0  0  0  0  0  0  0  0  0  0  0  0
    2.3230   22.3290  -35.3350 C   0  0  0  0  0  0  0  0  0  0  0  0
    0.9740   21.9960  -35.4000 C   0  0  0  0  0  0  0  0  0  0  0  0
    0.3770   20.7230  -35.1190 N   0  0  0  0  0  0  0  0  0  0  0  0
   -0.1120   20.2720  -33.8470 C   0  0  0  0  0  0  0  0  0  0  0  0
    0.4440   19.2790  -33.3080 O   0  0  0  0  0  0  0  0  0  0  0  0
   -1.2650   20.9110  -33.1700 C   0  0  0  0  0  0  0  0  0  0  0  0
   -1.1130   21.5490  -31.9250 C   0  0  0  0  0  0  0  0  0  0  0  0
   -2.2200   22.0910  -31.2690 C   0  0  0  0  0  0  0  0  0  0  0  0
   -3.4900   22.0230  -31.8550 C   0  0  0  0  0  0  0  0  0  0  0  0
   -4.9020   22.6800  -31.0310 S   0  0  0  0  0  0  0  0  0  0  0  0
   -4.9760   24.1690  -31.2300 O   0  0  0  0  0  0  0  0  0  0  0  0
   -4.7610   22.3870  -29.5630 O   0  0  0  0  0  0  0  0  0  0  0  0
   -6.3560   21.9350  -31.6560 N   0  0  0  0  0  0  0  0  0  0  0  0
   -7.5130   22.3550  -30.8350 C   0  0  0  0  0  0  0  0  0  0  0  0
   -8.7730   22.5510  -31.6850 C   0  0  0  0  0  0  0  0  0  0  0  0
   -9.5330   21.2500  -31.9750 C   0  0  0  0  0  0  0  0  0  0  0  0
   -8.7590   20.0120  -31.4940 C   0  0  0  0  0  0  0  0  0  0  0  0
   -7.4430   19.7660  -32.2440 C   0  0  0  0  0  0  0  0  0  0  0  0
   -6.2060   20.4600  -31.6560 C   0  0  0  0  0  0  0  0  0  0  0  0
   -3.6410   21.4260  -33.1120 C   0  0  0  0  0  0  0  0  0  0  0  0
   -2.5360   20.8770  -33.7680 C   0  0  0  0  0  0  0  0  0  0  0  0
    0.2650   23.0430  -35.7560 O   0  0  0  0  0  0  0  0  0  0  0  0
    1.0770   24.0640  -35.9110 C   0  0  0  0  0  0  0  0  0  0  0  0
    0.6220   25.4280  -36.3150 C   0  0  0  0  0  0  0  0  0  0  0  0
    2.3850   23.6720  -35.6710 C   0  0  0  0  0  0  0  0  0  0  0  0
    3.6080   24.5350  -35.7590 C   0  0  0  0  0  0  0  0  0  0  0  0
    4.4668   19.1354  -33.1298 H   0  0  0  0  0  0  0  0  0  0  0  0
    4.1468   18.2379  -34.6526 H   0  0  0  0  0  0  0  0  0  0  0  0
    5.2806   19.6311  -34.6526 H   0  0  0  0  0  0  0  0  0  0  0  0
    2.2700   19.7840  -34.3780 H   0  0  0  0  0  0  0  0  0  0  0  0
   -0.1160   21.6212  -31.4658 H   0  0  0  0  0  0  0  0  0  0  0  0
   -2.0940   22.5731  -30.2884 H   0  0  0  0  0  0  0  0  0  0  0  0
   -7.7112   21.5824  -30.0775 H   0  0  0  0  0  0  0  0  0  0  0  0
   -7.2659   23.3174  -30.3631 H   0  0  0  0  0  0  0  0  0  0  0  0
   -9.4485   23.2356  -31.1511 H   0  0  0  0  0  0  0  0  0  0  0  0
   -8.4457   22.9538  -32.6549 H   0  0  0  0  0  0  0  0  0  0  0  0
  -10.5045   21.2838  -31.4601 H   0  0  0  0  0  0  0  0  0  0  0  0
   -9.6629   21.1677  -33.0642 H   0  0  0  0  0  0  0  0  0  0  0  0
   -8.5291   20.1416  -30.4261 H   0  0  0  0  0  0  0  0  0  0  0  0
   -9.4021   19.1407  -31.6872 H   0  0  0  0  0  0  0  0  0  0  0  0
   -7.2533   18.6825  -32.2486 H   0  0  0  0  0  0  0  0  0  0  0  0
   -7.5823   20.1967  -33.2465 H   0  0  0  0  0  0  0  0  0  0  0  0
   -6.0617   20.1159  -30.6212 H   0  0  0  0  0  0  0  0  0  0  0  0
   -5.3377   20.2025  -32.2803 H   0  0  0  0  0  0  0  0  0  0  0  0
   -4.6333   21.3889  -33.5853 H   0  0  0  0  0  0  0  0  0  0  0  0
   -2.6620   20.4155  -34.7585 H   0  0  0  0  0  0  0  0  0  0  0  0
    0.4215   26.0290  -35.4157 H   0  0  0  0  0  0  0  0  0  0  0  0
    1.4067   25.9140  -36.9134 H   0  0  0  0  0  0  0  0  0  0  0  0
   -0.2973   25.3456  -36.9134 H   0  0  0  0  0  0  0  0  0  0  0  0
    3.9568   24.7811  -34.7452 H   0  0  0  0  0  0  0  0  0  0  0  0
    4.4000   23.9947  -36.2982 H   0  0  0  0  0  0  0  0  0  0  0  0
    3.3644   25.4623  -36.2982 H   0  0  0  0  0  0  0  0  0  0  0  0
  1  2  1  0
  2  3  1  0
  3  4  2  0
  3  5  1  0
  5  6  2  0
  6  7  1  0
  7  8  1  0
  8  9  2  0
  8 10  1  0
 10 11  2  0
 11 12  1  0
 12 13  2  0
 13 14  1  0
 14 15  2  0
 14 16  2  0
 14 17  1  0
 17 18  1  0
 18 19  1  0
 19 20  1  0
 20 21  1  0
 21 22  1  0
 22 23  1  0
 13 24  1  0
 24 25  2  0
  6 26  1  0
 26 27  1  0
 27 28  1  0
 27 29  2  0
 29 30  1  0
 29  5  1  0
 25 10  1  0
 23 17  1  0
  1 31  1  0
  1 32  1  0
  1 33  1  0
  2 34  1  0
 11 35  1  0
 12 36  1  0
 18 37  1  0
 18 38  1  0
 19 39  1  0
 19 40  1  0
 20 41  1  0
 20 42  1  0
 21 43  1  0
 21 44  1  0
 22 45  1  0
 22 46  1  0
 23 47  1  0
 23 48  1  0
 24 49  1  0
 25 50  1  0
 28 51  1  0
 28 52  1  0
 28 53  1  0
 30 54  1  0
 30 55  1  0
 30 56  1  0
M  CHG  1   7  -1
M  END
>  <UniqueID>  (29) 
28

>  <SMILES>  (29) 
CNC(=O)c1c([N-]C(=O)c2ccc(S(=O)(=O)N3CCCCCC3)cc2)oc(C)c1C

>  <Energy>  (29) 
90.26603826961035

>  <Genealogy>  (29) 
CNC(=O)c1c([N-]C(=O)c2ccc(S(=O)(=O)N3CCCCCC3)cc2)oc(C)c1C (protonated)
CNC(=O)c1c([N-]C(=O)c2ccc(S(=O)(=O)N3CCCCCC3)cc2)oc(C)c1C (3D coordinates assigned)
CNC(=O)c1c([N-]C(=O)c2ccc(S(=O)(=O)N3CCCCCC3)cc2)oc(C)c1C (nonaromatic ring conformer: 90.26603826961035 kcal/mol)

>  <smiles>  (29) 
CNC(=O)c1c(NC(=O)c2ccc(S(=O)(=O)N3CCCCCC3)cc2)oc(C)c1C

>  <score_type>  (29) 
oracle

>  <origin>  (29) 
adgpu

>  <m_score__min__energy>  (29) 
-9.3800000000000008

>  <m_primary>  (29) 
energy

$$$$
29:0
     RDKit          3D

 47 49  0  0  0  0  0  0  0  0999 V2000
   -2.5190   20.0240  -33.7950 C   0  0  0  0  0  0  0  0  0  0  0  0
   -3.2270   18.7800  -34.0820 N   0  0  0  0  0  0  0  0  0  0  0  0
   -2.6380   17.7350  -34.6410 N   0  0  0  0  0  0  0  0  0  0  0  0
   -3.5510   16.7480  -34.7240 C   0  0  0  0  0  0  0  0  0  0  0  0
   -3.2920   15.4170  -35.3550 C   0  0  0  0  0  0  0  0  0  0  0  0
   -4.3250   14.5460  -35.0620 F   0  0  0  0  0  0  0  0  0  0  0  0
   -2.1080   14.8860  -34.8760 F   0  0  0  0  0  0  0  0  0  0  0  0
   -3.1990   15.5680  -36.7260 F   0  0  0  0  0  0  0  0  0  0  0  0
   -4.7630   17.1820  -34.2230 C   0  0  0  0  0  0  0  0  0  0  0  0
   -4.5240   18.4850  -33.8310 C   0  0  0  0  0  0  0  0  0  0  0  0
   -5.5270   19.3760  -33.2140 C   0  0  0  0  0  0  0  0  0  0  0  0
   -6.5180   18.8660  -32.6240 O   0  0  0  0  0  0  0  0  0  0  0  0
   -5.4300   20.8020  -33.3450 N   0  0  0  0  0  0  0  0  0  0  0  0
   -6.0660   21.7260  -32.4470 C   0  0  0  0  0  0  0  0  0  0  0  0
   -7.4620   21.7030  -32.3040 C   0  0  0  0  0  0  0  0  0  0  0  0
   -8.0980   22.5950  -31.4390 C   0  0  0  0  0  0  0  0  0  0  0  0
   -7.3490   23.5240  -30.7130 C   0  0  0  0  0  0  0  0  0  0  0  0
   -5.9560   23.5730  -30.8580 C   0  0  0  0  0  0  0  0  0  0  0  0
   -5.0050   24.7360  -29.9310 S   0  0  0  0  0  0  0  0  0  0  0  0
   -5.9270   25.5700  -29.0850 O   0  0  0  0  0  0  0  0  0  0  0  0
   -4.2860   25.6550  -30.8780 O   0  0  0  0  0  0  0  0  0  0  0  0
   -3.8410   23.9340  -28.9030 N   0  0  0  0  0  0  0  0  0  0  0  0
   -2.5250   23.7870  -29.5750 C   0  0  0  0  0  0  0  0  0  0  0  0
   -2.2660   22.3600  -30.0830 C   0  0  0  0  0  0  0  0  0  0  0  0
   -2.3290   21.3420  -28.9320 C   0  0  0  0  0  0  0  0  0  0  0  0
   -3.3120   21.7560  -27.8220 C   0  0  0  0  0  0  0  0  0  0  0  0
   -4.4080   22.6750  -28.3710 C   0  0  0  0  0  0  0  0  0  0  0  0
   -5.3200   22.6850  -31.7370 C   0  0  0  0  0  0  0  0  0  0  0  0
   -2.4420   20.1592  -32.7061 H   0  0  0  0  0  0  0  0  0  0  0  0
   -1.5102   19.9808  -34.2313 H   0  0  0  0  0  0  0  0  0  0  0  0
   -3.0713   20.8693  -34.2313 H   0  0  0  0  0  0  0  0  0  0  0  0
   -5.7048   16.6180  -34.1522 H   0  0  0  0  0  0  0  0  0  0  0  0
   -4.9790   21.1820  -34.2070 H   0  0  0  0  0  0  0  0  0  0  0  0
   -8.0584   20.9778  -32.8770 H   0  0  0  0  0  0  0  0  0  0  0  0
   -9.1921   22.5663  -31.3288 H   0  0  0  0  0  0  0  0  0  0  0  0
   -7.8538   24.2189  -30.0257 H   0  0  0  0  0  0  0  0  0  0  0  0
   -2.4902   24.4758  -30.4319 H   0  0  0  0  0  0  0  0  0  0  0  0
   -1.7482   24.0173  -28.8310 H   0  0  0  0  0  0  0  0  0  0  0  0
   -3.0282   22.1019  -30.8329 H   0  0  0  0  0  0  0  0  0  0  0  0
   -1.2598   22.3243  -30.5260 H   0  0  0  0  0  0  0  0  0  0  0  0
   -2.6472   20.3708  -29.3389 H   0  0  0  0  0  0  0  0  0  0  0  0
   -1.3263   21.2877  -28.4829 H   0  0  0  0  0  0  0  0  0  0  0  0
   -3.7780   20.8535  -27.3997 H   0  0  0  0  0  0  0  0  0  0  0  0
   -2.7542   22.3017  -27.0467 H   0  0  0  0  0  0  0  0  0  0  0  0
   -4.9411   22.1530  -29.1793 H   0  0  0  0  0  0  0  0  0  0  0  0
   -5.0942   22.9249  -27.5484 H   0  0  0  0  0  0  0  0  0  0  0  0
   -4.2297   22.7383  -31.8727 H   0  0  0  0  0  0  0  0  0  0  0  0
  1  2  1  0
  2  3  1  0
  3  4  2  0
  4  5  1  0
  5  6  1  0
  5  7  1  0
  5  8  1  0
  4  9  1  0
  9 10  2  0
 10 11  1  0
 11 12  2  0
 11 13  1  0
 13 14  1  0
 14 15  2  0
 15 16  1  0
 16 17  2  0
 17 18  1  0
 18 19  1  0
 19 20  2  0
 19 21  2  0
 19 22  1  0
 22 23  1  0
 23 24  1  0
 24 25  1  0
 25 26  1  0
 26 27  1  0
 18 28  2  0
 10  2  1  0
 28 14  1  0
 27 22  1  0
  1 29  1  0
  1 30  1  0
  1 31  1  0
  9 32  1  0
 13 33  1  0
 15 34  1  0
 16 35  1  0
 17 36  1  0
 23 37  1  0
 23 38  1  0
 24 39  1  0
 24 40  1  0
 25 41  1  0
 25 42  1  0
 26 43  1  0
 26 44  1  0
 27 45  1  0
 27 46  1  0
 28 47  1  0
M  END
>  <UniqueID>  (30) 
29

>  <SMILES>  (30) 
Cn1nc(C(F)(F)F)cc1C(=O)Nc1cccc(S(=O)(=O)N2CCCCC2)c1

>  <Energy>  (30) 
85.82905387838242

>  <Genealogy>  (30) 
Cn1nc(C(F)(F)F)cc1C(=O)Nc1cccc(S(=O)(=O)N2CCCCC2)c1 (3D coordinates assigned)
Cn1nc(C(F)(F)F)cc1C(=O)Nc1cccc(S(=O)(=O)N2CCCCC2)c1 (nonaromatic ring conformer: 85.82905387838242 kcal/mol)

>  <smiles>  (30) 
Cn1nc(C(F)(F)F)cc1C(=O)Nc1cccc(S(=O)(=O)N2CCCCC2)c1

>  <score_type>  (30) 
oracle

>  <origin>  (30) 
adgpu

>  <m_score__min__energy>  (30) 
-8.6899999999999995

>  <m_primary>  (30) 
energy

$$$$
30:0
     RDKit          3D

 50 52  0  0  1  0  0  0  0  0999 V2000
   -6.1680   17.7230  -33.9470 C   0  0  0  0  0  0  0  0  0  0  0  0
   -7.4720   18.0990  -33.4680 N   0  0  0  0  0  0  0  0  0  0  0  0
   -7.2690   18.7190  -31.8690 S   0  0  0  0  0  0  0  0  0  0  0  0
   -8.4980   18.2820  -31.1040 O   0  0  0  0  0  0  0  0  0  0  0  0
   -6.0890   18.1060  -31.1710 O   0  0  0  0  0  0  0  0  0  0  0  0
   -7.2300   20.4570  -31.8520 C   0  0  0  0  0  0  0  0  0  0  0  0
   -6.0410   21.1780  -31.6850 C   0  0  0  0  0  0  0  0  0  0  0  0
   -6.0520   22.5540  -31.6720 C   0  0  0  0  0  0  0  0  0  0  0  0
   -4.8920   23.3540  -31.5010 N   0  0  0  0  0  0  0  0  0  0  0  0
   -4.3180   23.4480  -30.3530 C   0  0  0  0  0  0  0  0  0  0  0  0
   -3.1870   24.2210  -30.1670 C   0  0  0  0  0  0  0  0  0  0  0  0
   -2.5550   24.3360  -28.9380 C   0  0  0  0  0  0  0  0  0  0  0  0
   -1.4020   25.1570  -28.8910 N   0  0  0  0  0  0  0  0  0  0  0  0
   -0.9160   25.7340  -27.6790 C   0  0  0  0  0  0  0  0  0  0  0  0
   -0.8410   27.1040  -27.4840 C   0  0  0  0  0  0  0  0  0  0  0  0
   -0.3660   27.5710  -26.2740 C   0  0  0  0  0  0  0  0  0  0  0  0
    0.0260   26.7230  -25.2790 C   0  0  0  0  0  0  0  0  0  0  0  0
    0.6350   27.2450  -23.7300 S   0  0  0  0  0  0  0  0  0  0  0  0
    2.0240   26.2840  -23.3540 N   0  0  0  0  0  0  0  0  0  0  0  0
   -0.4140   27.1790  -22.6810 O   0  0  0  0  0  0  0  0  0  0  0  0
    1.0910   28.6830  -23.9180 O   0  0  0  0  0  0  0  0  0  0  0  0
   -0.0530   25.3450  -25.4820 C   0  0  0  0  0  0  0  0  0  0  0  0
   -0.5270   24.8610  -26.6900 C   0  0  0  0  0  0  0  0  0  0  0  0
   -3.0550   23.6720  -27.8840 N   0  0  0  0  0  0  0  0  0  0  0  0
   -4.1610   22.9110  -28.0510 C   0  0  0  0  0  0  0  0  0  0  0  0
   -4.7780   22.8000  -29.2580 N   0  0  0  0  0  0  0  0  0  0  0  0
   -7.2630   23.2330  -31.8300 C   0  0  0  0  0  0  0  0  0  0  0  0
   -8.4600   22.5450  -31.9980 C   0  0  0  0  0  0  0  0  0  0  0  0
   -8.3980   21.1610  -32.0030 C   0  0  0  0  0  0  0  0  0  0  0  0
   -9.6580   20.4070  -32.1830 C   0  0  0  0  0  0  0  0  0  0  0  0
   -5.5041   17.5316  -33.0911 H   0  0  0  0  0  0  0  0  0  0  0  0
   -6.2504   16.8120  -34.5580 H   0  0  0  0  0  0  0  0  0  0  0  0
   -5.7528   18.5380  -34.5580 H   0  0  0  0  0  0  0  0  0  0  0  0
   -7.9320   18.7990  -34.0570 H   0  0  0  0  0  0  0  0  0  0  0  0
   -5.0896   20.6394  -31.5631 H   0  0  0  0  0  0  0  0  0  0  0  0
   -2.7722   24.7662  -31.0276 H   0  0  0  0  0  0  0  0  0  0  0  0
   -0.8960   25.3370  -29.8010 H   0  0  0  0  0  0  0  0  0  0  0  0
   -1.1524   27.8030  -28.2742 H   0  0  0  0  0  0  0  0  0  0  0  0
   -0.3019   28.6565  -26.1077 H   0  0  0  0  0  0  0  0  0  0  0  0
    1.7780   25.2730  -23.2470 H   0  0  0  0  0  0  0  0  0  0  0  0
    2.5050   26.6330  -22.4820 H   0  0  0  0  0  0  0  0  0  0  0  0
    0.2585   24.6488  -24.6894 H   0  0  0  0  0  0  0  0  0  0  0  0
   -0.5925   23.7760  -26.8588 H   0  0  0  0  0  0  0  0  0  0  0  0
   -2.5810   23.7610  -26.9710 H   0  0  0  0  0  0  0  0  0  0  0  0
   -4.5722   22.3675  -27.1876 H   0  0  0  0  0  0  0  0  0  0  0  0
   -7.2697   24.3329  -31.8213 H   0  0  0  0  0  0  0  0  0  0  0  0
   -9.4149   23.0769  -32.1216 H   0  0  0  0  0  0  0  0  0  0  0  0
  -10.0786   20.1553  -31.1982 H   0  0  0  0  0  0  0  0  0  0  0  0
  -10.3773   21.0232  -32.7423 H   0  0  0  0  0  0  0  0  0  0  0  0
   -9.4550   19.4818  -32.7423 H   0  0  0  0  0  0  0  0  0  0  0  0
  1  2  1  0
  2  3  1  0
  3  4  2  0
  3  5  2  0
  3  6  1  0
  6  7  2  0
  7  8  1  0
  8  9  1  0
  9 10  2  0
 10 11  1  0
 11 12  2  0
 12 13  1  0
 13 14  1  0
 14 15  2  0
 15 16  1  0
 16 17  2  0
 17 18  1  0
 18 19  1  0
 18 20  2  0
 18 21  2  0
 17 22  1  0
 22 23  2  0
 12 24  1  0
 24 25  1  0
 25 26  2  0
  8 27  2  0
 27 28  1  0
 28 29  2  0
 29 30  1  0
 29  6  1  0
 26 10  1  0
 23 14  1  0
  1 31  1  0
  1 32  1  0
  1 33  1  0
  2 34  1  0
  7 35  1  0
 11 36  1  0
 13 37  1  0
 15 38  1  0
 16 39  1  0
 19 40  1  0
 19 41  1  0
 22 42  1  0
 23 43  1  0
 24 44  1  0
 25 45  1  0
 27 46  1  0
 28 47  1  0
 30 48  1  0
 30 49  1  0
 30 50  1  0
M  END
>  <smiles>  (31) 
CNS(=O)(=O)c1cc(N=c2cc(Nc3ccc(S(N)(=O)=O)cc3)[nH]cn2)ccc1C

>  <score_type>  (31) 
oracle

>  <origin>  (31) 
adgpu

>  <m_score__min__energy>  (31) 
-10.41

>  <m_primary>  (31) 
energy

$$$$
31:0
     RDKit          3D

 63 66  0  0  0  0  0  0  0  0999 V2000
   -4.0300   24.3170  -27.2920 C   0  0  0  0  0  0  0  0  0  0  0  0
   -3.1640   23.4710  -28.1780 C   0  0  0  0  0  0  0  0  0  0  0  0
   -3.5060   22.1350  -28.4430 C   0  0  0  0  0  0  0  0  0  0  0  0
   -2.7170   21.3620  -29.3030 C   0  0  0  0  0  0  0  0  0  0  0  0
   -1.5900   21.9210  -29.9170 C   0  0  0  0  0  0  0  0  0  0  0  0
   -0.7920   21.1310  -30.8010 N   0  0  0  0  0  0  0  0  0  0  0  0
    0.2720   20.2980  -30.2460 C   0  0  0  0  0  0  0  0  0  0  0  0
   -1.2130   21.0750  -32.4870 S   0  0  0  0  0  0  0  0  0  0  0  0
   -2.3840   21.9830  -32.7360 O   0  0  0  0  0  0  0  0  0  0  0  0
   -0.0660   21.5420  -33.3390 O   0  0  0  0  0  0  0  0  0  0  0  0
   -1.6200   19.4160  -32.9180 C   0  0  0  0  0  0  0  0  0  0  0  0
   -0.6540   18.4070  -32.8360 C   0  0  0  0  0  0  0  0  0  0  0  0
   -0.9660   17.1080  -33.2430 C   0  0  0  0  0  0  0  0  0  0  0  0
   -2.2430   16.8040  -33.7240 C   0  0  0  0  0  0  0  0  0  0  0  0
   -3.2290   17.8060  -33.8100 C   0  0  0  0  0  0  0  0  0  0  0  0
   -4.5800   17.5100  -34.3600 C   0  0  0  0  0  0  0  0  0  0  0  0
   -4.7120   17.2010  -35.5770 O   0  0  0  0  0  0  0  0  0  0  0  0
   -5.7450   17.5210  -33.5300 N   0  0  0  0  0  0  0  0  0  0  0  0
   -6.2770   18.6720  -32.8540 C   0  0  0  0  0  0  0  0  0  0  0  0
   -5.4970   19.4370  -31.9720 C   0  0  0  0  0  0  0  0  0  0  0  0
   -6.0410   20.5700  -31.3570 C   0  0  0  0  0  0  0  0  0  0  0  0
   -7.3650   20.9500  -31.6130 C   0  0  0  0  0  0  0  0  0  0  0  0
   -8.0190   22.4200  -30.8890 S   0  0  0  0  0  0  0  0  0  0  0  0
   -7.9050   22.3160  -29.3930 O   0  0  0  0  0  0  0  0  0  0  0  0
   -9.4710   22.5630  -31.2510 O   0  0  0  0  0  0  0  0  0  0  0  0
   -7.1200   23.8070  -31.4660 N   0  0  0  0  0  0  0  0  0  0  0  0
   -5.9420   23.3870  -32.2630 C   0  0  0  0  0  0  0  0  0  0  0  0
   -4.6510   23.3930  -31.4240 C   0  0  0  0  0  0  0  0  0  0  0  0
   -4.3370   24.6540  -30.8430 O   0  0  0  0  0  0  0  0  0  0  0  0
   -5.4730   25.4750  -30.6070 C   0  0  0  0  0  0  0  0  0  0  0  0
   -6.7610   24.6830  -30.3250 C   0  0  0  0  0  0  0  0  0  0  0  0
   -8.1480   20.1750  -32.4830 C   0  0  0  0  0  0  0  0  0  0  0  0
   -7.6050   19.0460  -33.1020 C   0  0  0  0  0  0  0  0  0  0  0  0
   -2.9010   19.1150  -33.4060 C   0  0  0  0  0  0  0  0  0  0  0  0
   -1.2500   23.2560  -29.6600 C   0  0  0  0  0  0  0  0  0  0  0  0
   -2.0350   24.0300  -28.7980 C   0  0  0  0  0  0  0  0  0  0  0  0
   -3.8035   24.0958  -26.2385 H   0  0  0  0  0  0  0  0  0  0  0  0
   -3.8331   25.3802  -27.4939 H   0  0  0  0  0  0  0  0  0  0  0  0
   -5.0883   24.0953  -27.4939 H   0  0  0  0  0  0  0  0  0  0  0  0
   -4.3974   21.6942  -27.9729 H   0  0  0  0  0  0  0  0  0  0  0  0
   -2.9833   20.3125  -29.4968 H   0  0  0  0  0  0  0  0  0  0  0  0
    0.2288   20.3318  -29.1474 H   0  0  0  0  0  0  0  0  0  0  0  0
    0.1405   19.2603  -30.5864 H   0  0  0  0  0  0  0  0  0  0  0  0
    1.2478   20.6747  -30.5864 H   0  0  0  0  0  0  0  0  0  0  0  0
    0.3505   18.6368  -32.4512 H   0  0  0  0  0  0  0  0  0  0  0  0
   -0.2019   16.3188  -33.1847 H   0  0  0  0  0  0  0  0  0  0  0  0
   -2.4790   15.7763  -34.0371 H   0  0  0  0  0  0  0  0  0  0  0  0
   -4.4569   19.1452  -31.7642 H   0  0  0  0  0  0  0  0  0  0  0  0
   -5.4250   21.1664  -30.6679 H   0  0  0  0  0  0  0  0  0  0  0  0
   -7.7650   24.3390  -32.0970 H   0  0  0  0  0  0  0  0  0  0  0  0
   -6.1143   22.3694  -32.6436 H   0  0  0  0  0  0  0  0  0  0  0  0
   -5.8158   24.1025  -33.0889 H   0  0  0  0  0  0  0  0  0  0  0  0
   -4.7635   22.6583  -30.6131 H   0  0  0  0  0  0  0  0  0  0  0  0
   -3.8273   23.1482  -32.1107 H   0  0  0  0  0  0  0  0  0  0  0  0
   -5.2631   26.1170  -29.7388 H   0  0  0  0  0  0  0  0  0  0  0  0
   -5.6469   26.0546  -31.5256 H   0  0  0  0  0  0  0  0  0  0  0  0
   -6.6097   24.0610  -29.4304 H   0  0  0  0  0  0  0  0  0  0  0  0
   -7.5804   25.4001  -30.1688 H   0  0  0  0  0  0  0  0  0  0  0  0
   -9.1930   20.4575  -32.6782 H   0  0  0  0  0  0  0  0  0  0  0  0
   -8.2230   18.4475  -33.7875 H   0  0  0  0  0  0  0  0  0  0  0  0
   -3.6577   19.9105  -33.4738 H   0  0  0  0  0  0  0  0  0  0  0  0
   -0.3627   23.6972  -30.1376 H   0  0  0  0  0  0  0  0  0  0  0  0
   -1.7668   25.0793  -28.6056 H   0  0  0  0  0  0  0  0  0  0  0  0
  1  2  1  0
  2  3  2  0
  3  4  1  0
  4  5  2  0
  5  6  1  0
  6  7  1  0
  6  8  1  0
  8  9  2  0
  8 10  2  0
  8 11  1  0
 11 12  2  0
 12 13  1  0
 13 14  2  0
 14 15  1  0
 15 16  1  0
 16 17  2  0
 16 18  1  0
 18 19  1  0
 19 20  2  0
 20 21  1  0
 21 22  2  0
 22 23  1  0
 23 24  2  0
 23 25  2  0
 23 26  1  0
 26 27  1  0
 27 28  1  0
 28 29  1  0
 29 30  1  0
 30 31  1  0
 22 32  1  0
 32 33  2  0
 15 34  2  0
  5 35  1  0
 35 36  2  0
 36  2  1  0
 34 11  1  0
 33 19  1  0
 31 26  1  0
  1 37  1  0
  1 38  1  0
  1 39  1  0
  3 40  1  0
  4 41  1  0
  7 42  1  0
  7 43  1  0
  7 44  1  0
 12 45  1  0
 13 46  1  0
 14 47  1  0
 20 48  1  0
 21 49  1  0
 26 50  1  0
 27 51  1  0
 27 52  1  0
 28 53  1  0
 28 54  1  0
 30 55  1  0
 30 56  1  0
 31 57  1  0
 31 58  1  0
 32 59  1  0
 33 60  1  0
 34 61  1  0
 35 62  1  0
 36 63  1  0
M  CHG  2  18  -1  26   1
M  END
>  <UniqueID>  (32) 
30

>  <SMILES>  (32) 
Cc1ccc(N(C)S(=O)(=O)c2cccc(C(=O)[N-]c3ccc(S(=O)(=O)[NH+]4CCOCC4)cc3)c2)cc1

>  <Energy>  (32) 
91.92413804964715

>  <Genealogy>  (32) 
Cc1ccc(N(C)S(=O)(=O)c2cccc(C(=O)[N-]c3ccc(S(=O)(=O)[NH+]4CCOCC4)cc3)c2)cc1 (protonated)
Cc1ccc(N(C)S(=O)(=O)c2cccc(C(=O)[N-]c3ccc(S(=O)(=O)[NH+]4CCOCC4)cc3)c2)cc1 (3D coordinates assigned)
Cc1ccc(N(C)S(=O)(=O)c2cccc(C(=O)[N-]c3ccc(S(=O)(=O)[NH+]4CCOCC4)cc3)c2)cc1 (nonaromatic ring conformer: 91.92413804964715 kcal/mol)

>  <smiles>  (32) 
Cc1ccc(N(C)S(=O)(=O)c2cccc(C(=O)Nc3ccc(S(=O)(=O)N4CCOCC4)cc3)c2)cc1

>  <score_type>  (32) 
oracle

>  <origin>  (32) 
adgpu

>  <m_score__min__energy>  (32) 
-12.460000000000001

>  <m_primary>  (32) 
energy

$$$$
32:0
     RDKit          3D

 44 46  0  0  0  0  0  0  0  0999 V2000
    1.9380   21.4350  -36.4270 N   0  0  0  0  0  0  0  0  0  0  0  0
    1.6970   20.1540  -35.2910 S   0  0  0  0  0  0  0  0  0  0  0  0
    1.8380   18.8420  -36.0090 O   0  0  0  0  0  0  0  0  0  0  0  0
    2.7340   20.2460  -34.2090 O   0  0  0  0  0  0  0  0  0  0  0  0
    0.0920   20.2750  -34.5760 C   0  0  0  0  0  0  0  0  0  0  0  0
   -0.7770   19.1770  -34.6080 C   0  0  0  0  0  0  0  0  0  0  0  0
   -2.0510   19.2720  -34.0380 C   0  0  0  0  0  0  0  0  0  0  0  0
   -2.4760   20.4730  -33.4440 C   0  0  0  0  0  0  0  0  0  0  0  0
   -3.7780   20.5920  -32.8460 N   0  0  0  0  0  0  0  0  0  0  0  0
   -4.0880   21.4610  -31.7410 C   0  0  0  0  0  0  0  0  0  0  0  0
   -3.1940   21.6850  -30.8080 N   0  0  0  0  0  0  0  0  0  0  0  0
   -3.4310   22.4250  -29.5960 C   0  0  0  0  0  0  0  0  0  0  0  0
   -4.5450   22.3310  -29.0100 O   0  0  0  0  0  0  0  0  0  0  0  0
   -2.3550   23.2610  -29.0080 C   0  0  0  0  0  0  0  0  0  0  0  0
   -1.4040   22.6710  -28.1540 C   0  0  0  0  0  0  0  0  0  0  0  0
   -0.3830   23.4390  -27.5900 C   0  0  0  0  0  0  0  0  0  0  0  0
   -0.3010   24.8040  -27.8630 C   0  0  0  0  0  0  0  0  0  0  0  0
   -1.2380   25.4050  -28.7060 C   0  0  0  0  0  0  0  0  0  0  0  0
   -2.2660   24.6450  -29.2750 C   0  0  0  0  0  0  0  0  0  0  0  0
   -3.1910   25.2780  -30.0980 O   0  0  0  0  0  0  0  0  0  0  0  0
   -5.4370   22.0720  -31.6970 C   0  0  0  0  0  0  0  0  0  0  0  0
   -5.5810   23.4690  -31.6710 C   0  0  0  0  0  0  0  0  0  0  0  0
   -6.8540   24.0440  -31.6170 C   0  0  0  0  0  0  0  0  0  0  0  0
   -7.9910   23.2300  -31.5820 C   0  0  0  0  0  0  0  0  0  0  0  0
   -7.8550   21.8390  -31.5930 C   0  0  0  0  0  0  0  0  0  0  0  0
   -6.5840   21.2590  -31.6470 C   0  0  0  0  0  0  0  0  0  0  0  0
   -1.5880   21.5560  -33.3830 C   0  0  0  0  0  0  0  0  0  0  0  0
   -0.3140   21.4600  -33.9500 C   0  0  0  0  0  0  0  0  0  0  0  0
    2.5340   21.0530  -37.1960 H   0  0  0  0  0  0  0  0  0  0  0  0
   -0.4569   18.2376  -35.0825 H   0  0  0  0  0  0  0  0  0  0  0  0
   -2.7239   18.4020  -34.0547 H   0  0  0  0  0  0  0  0  0  0  0  0
   -4.5510   20.0190  -33.2540 H   0  0  0  0  0  0  0  0  0  0  0  0
   -2.2460   21.2580  -30.9020 H   0  0  0  0  0  0  0  0  0  0  0  0
   -1.4656   21.5960  -27.9290 H   0  0  0  0  0  0  0  0  0  0  0  0
    0.3582   22.9661  -26.9289 H   0  0  0  0  0  0  0  0  0  0  0  0
    0.5019   25.4074  -27.4142 H   0  0  0  0  0  0  0  0  0  0  0  0
   -1.1677   26.4809  -28.9238 H   0  0  0  0  0  0  0  0  0  0  0  0
   -4.6892   24.1126  -31.6932 H   0  0  0  0  0  0  0  0  0  0  0  0
   -6.9618   25.1386  -31.6020 H   0  0  0  0  0  0  0  0  0  0  0  0
   -8.9920   23.6846  -31.5458 H   0  0  0  0  0  0  0  0  0  0  0  0
   -8.7494   21.1995  -31.5591 H   0  0  0  0  0  0  0  0  0  0  0  0
   -6.4806   20.1639  -31.6504 H   0  0  0  0  0  0  0  0  0  0  0  0
   -1.8958   22.4876  -32.8856 H   0  0  0  0  0  0  0  0  0  0  0  0
    0.3722   22.3185  -33.9043 H   0  0  0  0  0  0  0  0  0  0  0  0
  1  2  1  0
  2  3  2  0
  2  4  2  0
  2  5  1  0
  5  6  2  0
  6  7  1  0
  7  8  2  0
  8  9  1  0
  9 10  1  0
 10 11  2  3
 11 12  1  0
 12 13  2  0
 12 14  1  0
 14 15  2  0
 15 16  1  0
 16 17  2  0
 17 18  1  0
 18 19  2  0
 19 20  1  0
 10 21  1  0
 21 22  2  0
 22 23  1  0
 23 24  2  0
 24 25  1  0
 25 26  2  0
  8 27  1  0
 27 28  2  0
 28  5  1  0
 19 14  1  0
 26 21  1  0
  1 29  1  0
  6 30  1  0
  7 31  1  0
  9 32  1  0
 11 33  1  0
 15 34  1  0
 16 35  1  0
 17 36  1  0
 18 37  1  0
 22 38  1  0
 23 39  1  0
 24 40  1  0
 25 41  1  0
 26 42  1  0
 27 43  1  0
 28 44  1  0
M  CHG  3   1  -1  11   1  20  -1
M  END
>  <UniqueID>  (33) 
31

>  <SMILES>  (33) 
[NH-]S(=O)(=O)c1ccc(NC(=[NH+]C(=O)c2ccccc2[O-])c2ccccc2)cc1

>  <Energy>  (33) 
65.17165483782641

>  <Genealogy>  (33) 
[NH-]S(=O)(=O)c1ccc(NC(=[NH+]C(=O)c2ccccc2[O-])c2ccccc2)cc1 (protonated)
[NH-]S(=O)(=O)c1ccc(NC(=[NH+]C(=O)c2ccccc2[O-])c2ccccc2)cc1 (3D coordinates assigned)
[NH-]S(=O)(=O)c1ccc(NC(=[NH+]C(=O)c2ccccc2[O-])c2ccccc2)cc1 (optimized conformer: 65.17165483782641 kcal/mol)

>  <smiles>  (33) 
NS(=O)(=O)c1ccc(NC(=NC(=O)c2ccccc2O)c2ccccc2)cc1

>  <score_type>  (33) 
oracle

>  <origin>  (33) 
adgpu

>  <m_score__min__energy>  (33) 
-10.23

>  <m_primary>  (33) 
energy

$$$$
33:0
     RDKit          3D

 48 49  0  0  0  0  0  0  0  0999 V2000
   -3.8820   18.5520  -26.2140 C   0  0  0  0  0  0  0  0  0  0  0  0
   -2.7850   19.2100  -25.5050 N   0  0  0  0  0  0  0  0  0  0  0  0
   -1.7430   19.6230  -26.4500 C   0  0  0  0  0  0  0  0  0  0  0  0
   -2.3680   19.9550  -27.8060 C   0  0  0  0  0  0  0  0  0  0  0  0
   -2.2850   21.4330  -28.0840 C   0  0  0  0  0  0  0  0  0  0  0  0
   -3.4540   22.1960  -28.1920 C   0  0  0  0  0  0  0  0  0  0  0  0
   -3.3910   23.5750  -28.4560 C   0  0  0  0  0  0  0  0  0  0  0  0
   -4.5910   24.3640  -28.5490 N   0  0  0  0  0  0  0  0  0  0  0  0
   -5.2720   24.8820  -30.0590 S   0  0  0  0  0  0  0  0  0  0  0  0
   -6.4270   25.8040  -29.7950 O   0  0  0  0  0  0  0  0  0  0  0  0
   -4.2220   25.6220  -30.8420 O   0  0  0  0  0  0  0  0  0  0  0  0
   -5.8570   23.4880  -30.9630 C   0  0  0  0  0  0  0  0  0  0  0  0
   -4.9680   22.6790  -31.6850 C   0  0  0  0  0  0  0  0  0  0  0  0
   -5.4420   21.5570  -32.3720 C   0  0  0  0  0  0  0  0  0  0  0  0
   -6.8020   21.2370  -32.3400 C   0  0  0  0  0  0  0  0  0  0  0  0
   -7.6930   22.0420  -31.6230 C   0  0  0  0  0  0  0  0  0  0  0  0
   -9.3990   21.6380  -31.5770 Cl  0  0  0  0  0  0  0  0  0  0  0  0
   -7.2210   23.1680  -30.9380 C   0  0  0  0  0  0  0  0  0  0  0  0
   -2.1330   24.1820  -28.6490 C   0  0  0  0  0  0  0  0  0  0  0  0
   -2.0400   25.5610  -28.8490 O   0  0  0  0  0  0  0  0  0  0  0  0
   -1.2080   26.3760  -28.0330 C   0  0  0  0  0  0  0  0  0  0  0  0
   -0.9580   23.4010  -28.6090 C   0  0  0  0  0  0  0  0  0  0  0  0
    0.3110   23.9580  -28.8180 O   0  0  0  0  0  0  0  0  0  0  0  0
    1.2210   24.2610  -27.7990 C   0  0  0  0  0  0  0  0  0  0  0  0
    1.0010   23.7050  -26.4330 C   0  0  0  0  0  0  0  0  0  0  0  0
    2.2670   24.9230  -28.0400 O   0  0  0  0  0  0  0  0  0  0  0  0
   -1.0420   22.0400  -28.3030 C   0  0  0  0  0  0  0  0  0  0  0  0
   -4.5882   18.1284  -25.4847 H   0  0  0  0  0  0  0  0  0  0  0  0
   -4.4034   19.2866  -26.8453 H   0  0  0  0  0  0  0  0  0  0  0  0
   -3.4795   17.7461  -26.8453 H   0  0  0  0  0  0  0  0  0  0  0  0
   -2.3700   18.5060  -24.8490 H   0  0  0  0  0  0  0  0  0  0  0  0
   -1.2282   20.5128  -26.0586 H   0  0  0  0  0  0  0  0  0  0  0  0
   -1.0233   18.8007  -26.5759 H   0  0  0  0  0  0  0  0  0  0  0  0
   -1.8301   19.4086  -28.5948 H   0  0  0  0  0  0  0  0  0  0  0  0
   -3.4269   19.6576  -27.7892 H   0  0  0  0  0  0  0  0  0  0  0  0
   -4.4333   21.7104  -28.0688 H   0  0  0  0  0  0  0  0  0  0  0  0
   -5.1510   24.5550  -27.6880 H   0  0  0  0  0  0  0  0  0  0  0  0
   -3.8967   22.9272  -31.7110 H   0  0  0  0  0  0  0  0  0  0  0  0
   -4.7427   20.9248  -32.9389 H   0  0  0  0  0  0  0  0  0  0  0  0
   -7.1717   20.3520  -32.8787 H   0  0  0  0  0  0  0  0  0  0  0  0
   -7.9231   23.8035  -30.3784 H   0  0  0  0  0  0  0  0  0  0  0  0
   -1.4186   26.1697  -26.9732 H   0  0  0  0  0  0  0  0  0  0  0  0
   -0.1524   26.1527  -28.2473 H   0  0  0  0  0  0  0  0  0  0  0  0
   -1.4094   27.4360  -28.2473 H   0  0  0  0  0  0  0  0  0  0  0  0
    1.2965   24.4517  -25.6812 H   0  0  0  0  0  0  0  0  0  0  0  0
   -0.0630   23.4570  -26.3050 H   0  0  0  0  0  0  0  0  0  0  0  0
    1.6073   22.7961  -26.3050 H   0  0  0  0  0  0  0  0  0  0  0  0
   -0.1229   21.4396  -28.2335 H   0  0  0  0  0  0  0  0  0  0  0  0
  1  2  1  0
  2  3  1  0
  3  4  1  0
  4  5  1  0
  5  6  2  0
  6  7  1  0
  7  8  1  0
  8  9  1  0
  9 10  2  0
  9 11  2  0
  9 12  1  0
 12 13  2  0
 13 14  1  0
 14 15  2  0
 15 16  1  0
 16 17  1  0
 16 18  2  0
  7 19  2  0
 19 20  1  0
 20 21  1  0
 19 22  1  0
 22 23  1  0
 23 24  1  0
 24 25  1  0
 24 26  2  0
 22 27  2  0
 27  5  1  0
 18 12  1  0
  1 28  1  0
  1 29  1  0
  1 30  1  0
  2 31  1  0
  3 32  1  0
  3 33  1  0
  4 34  1  0
  4 35  1  0
  6 36  1  0
  8 37  1  0
 13 38  1  0
 14 39  1  0
 15 40  1  0
 18 41  1  0
 21 42  1  0
 21 43  1  0
 21 44  1  0
 25 45  1  0
 25 46  1  0
 25 47  1  0
 27 48  1  0
M  END
>  <UniqueID>  (34) 
32

>  <SMILES>  (34) 
CNCCc1cc(NS(=O)(=O)c2cccc(Cl)c2)c(OC)c(OC(C)=O)c1

>  <Energy>  (34) 
54.93515371885761

>  <Genealogy>  (34) 
CNCCc1cc(NS(=O)(=O)c2cccc(Cl)c2)c(OC)c(OC(C)=O)c1 (3D coordinates assigned)
CNCCc1cc(NS(=O)(=O)c2cccc(Cl)c2)c(OC)c(OC(C)=O)c1 (optimized conformer: 54.93515371885761 kcal/mol)

>  <smiles>  (34) 
CNCCc1cc(NS(=O)(=O)c2cccc(Cl)c2)c(OC)c(OC(C)=O)c1

>  <score_type>  (34) 
oracle

>  <origin>  (34) 
adgpu

>  <m_score__min__energy>  (34) 
-10.58

>  <m_primary>  (34) 
energy

$$$$
34:0
     RDKit          3D

 47 48  0  0  0  0  0  0  0  0999 V2000
   -9.4400   20.8350  -31.9660 C   0  0  0  0  0  0  0  0  0  0  0  0
   -8.2490   20.2620  -32.7390 C   0  0  0  0  0  0  0  0  0  0  0  0
   -7.1350   19.8110  -31.8830 N   0  0  0  0  0  0  0  0  0  0  0  0
   -7.0250   18.3660  -31.5980 C   0  0  0  0  0  0  0  0  0  0  0  0
   -6.9470   17.4800  -32.8470 C   0  0  0  0  0  0  0  0  0  0  0  0
   -5.6450   20.7170  -32.0350 S   0  0  0  0  0  0  0  0  0  0  0  0
   -4.5560   19.9750  -31.3120 O   0  0  0  0  0  0  0  0  0  0  0  0
   -5.2480   20.8140  -33.4830 O   0  0  0  0  0  0  0  0  0  0  0  0
   -5.7660   22.3380  -31.3450 C   0  0  0  0  0  0  0  0  0  0  0  0
   -7.0210   22.8660  -31.0160 C   0  0  0  0  0  0  0  0  0  0  0  0
   -7.1240   24.1460  -30.4670 C   0  0  0  0  0  0  0  0  0  0  0  0
   -5.9750   24.9110  -30.2480 C   0  0  0  0  0  0  0  0  0  0  0  0
   -4.7100   24.3960  -30.5830 C   0  0  0  0  0  0  0  0  0  0  0  0
   -3.5000   25.1320  -30.3510 N   0  0  0  0  0  0  0  0  0  0  0  0
   -2.5100   24.8700  -29.3470 C   0  0  0  0  0  0  0  0  0  0  0  0
   -2.4110   23.7290  -28.8260 O   0  0  0  0  0  0  0  0  0  0  0  0
   -1.6130   25.9040  -28.9260 N   0  0  0  0  0  0  0  0  0  0  0  0
   -0.7900   25.8830  -27.7490 C   0  0  0  0  0  0  0  0  0  0  0  0
   -1.0030   26.7870  -26.6930 C   0  0  0  0  0  0  0  0  0  0  0  0
   -0.2080   26.7350  -25.5460 C   0  0  0  0  0  0  0  0  0  0  0  0
    0.7930   25.7620  -25.4210 C   0  0  0  0  0  0  0  0  0  0  0  0
    1.6700   25.7310  -24.2050 C   0  0  0  0  0  0  0  0  0  0  0  0
    1.0030   24.8530  -26.4690 C   0  0  0  0  0  0  0  0  0  0  0  0
    0.2110   24.9000  -27.6220 C   0  0  0  0  0  0  0  0  0  0  0  0
    0.4430   23.9660  -28.6320 O   0  0  0  0  0  0  0  0  0  0  0  0
   -4.6130   23.1000  -31.1050 C   0  0  0  0  0  0  0  0  0  0  0  0
   -9.2534   20.7452  -30.8857 H   0  0  0  0  0  0  0  0  0  0  0  0
   -9.5717   21.8951  -32.2285 H   0  0  0  0  0  0  0  0  0  0  0  0
  -10.3505   20.2764  -32.2285 H   0  0  0  0  0  0  0  0  0  0  0  0
   -8.6012   19.4027  -33.3286 H   0  0  0  0  0  0  0  0  0  0  0  0
   -7.8571   21.0762  -33.3663 H   0  0  0  0  0  0  0  0  0  0  0  0
   -6.1157   18.2009  -31.0013 H   0  0  0  0  0  0  0  0  0  0  0  0
   -7.9440   18.0794  -31.0657 H   0  0  0  0  0  0  0  0  0  0  0  0
   -6.8543   16.4266  -32.5441 H   0  0  0  0  0  0  0  0  0  0  0  0
   -7.8601   17.6101  -33.4465 H   0  0  0  0  0  0  0  0  0  0  0  0
   -6.0707   17.7677  -33.4465 H   0  0  0  0  0  0  0  0  0  0  0  0
   -7.9290   22.2701  -31.1907 H   0  0  0  0  0  0  0  0  0  0  0  0
   -8.1120   24.5532  -30.2063 H   0  0  0  0  0  0  0  0  0  0  0  0
   -6.0603   25.9177  -29.8128 H   0  0  0  0  0  0  0  0  0  0  0  0
   -1.8011   27.5400  -26.7710 H   0  0  0  0  0  0  0  0  0  0  0  0
   -0.3684   27.4618  -24.7361 H   0  0  0  0  0  0  0  0  0  0  0  0
    1.0440   25.7531  -23.3008 H   0  0  0  0  0  0  0  0  0  0  0  0
    2.2729   24.8110  -24.2111 H   0  0  0  0  0  0  0  0  0  0  0  0
    2.3364   26.6062  -24.2111 H   0  0  0  0  0  0  0  0  0  0  0  0
    1.7972   24.0967  -26.3837 H   0  0  0  0  0  0  0  0  0  0  0  0
   -0.2750   23.6900  -29.2910 H   0  0  0  0  0  0  0  0  0  0  0  0
   -3.6232   22.6756  -31.3289 H   0  0  0  0  0  0  0  0  0  0  0  0
  1  2  1  0
  2  3  1  0
  3  4  1  0
  4  5  1  0
  3  6  1  0
  6  7  2  0
  6  8  2  0
  6  9  1  0
  9 10  2  0
 10 11  1  0
 11 12  2  0
 12 13  1  0
 13 14  1  0
 14 15  1  0
 15 16  2  0
 15 17  1  0
 17 18  1  0
 18 19  2  0
 19 20  1  0
 20 21  2  0
 21 22  1  0
 21 23  1  0
 23 24  2  0
 24 25  1  0
 13 26  2  0
 26  9  1  0
 24 18  1  0
  1 27  1  0
  1 28  1  0
  1 29  1  0
  2 30  1  0
  2 31  1  0
  4 32  1  0
  4 33  1  0
  5 34  1  0
  5 35  1  0
  5 36  1  0
 10 37  1  0
 11 38  1  0
 12 39  1  0
 19 40  1  0
 20 41  1  0
 22 42  1  0
 22 43  1  0
 22 44  1  0
 23 45  1  0
 25 46  1  0
 26 47  1  0
M  CHG  2  14  -1  17  -1
M  END
>  <UniqueID>  (35) 
33

>  <SMILES>  (35) 
CCN(CC)S(=O)(=O)c1cccc([N-]C(=O)[N-]c2ccc(C)cc2O)c1

>  <Energy>  (35) 
59.85227353376385

>  <Genealogy>  (35) 
CCN(CC)S(=O)(=O)c1cccc([N-]C(=O)[N-]c2ccc(C)cc2O)c1 (protonated)
CCN(CC)S(=O)(=O)c1cccc([N-]C(=O)[N-]c2ccc(C)cc2O)c1 (3D coordinates assigned)
CCN(CC)S(=O)(=O)c1cccc([N-]C(=O)[N-]c2ccc(C)cc2O)c1 (optimized conformer: 59.85227353376385 kcal/mol)

>  <smiles>  (35) 
CCN(CC)S(=O)(=O)c1cccc(NC(=O)Nc2ccc(C)cc2O)c1

>  <score_type>  (35) 
oracle

>  <origin>  (35) 
adgpu

>  <m_score__min__energy>  (35) 
-12.119999999999999

>  <m_primary>  (35) 
energy

$$$$
35:0
     RDKit          3D

 51 54  0  0  1  0  0  0  0  0999 V2000
   -8.7680   20.0060  -32.3040 N   0  0  0  0  0  0  0  0  0  0  0  0
   -8.0060   20.8560  -32.0670 C   0  0  0  0  0  0  0  0  0  0  0  0
   -7.0670   21.8860  -31.7960 C   0  0  0  0  0  0  0  0  0  0  0  0
   -7.5220   23.1670  -31.6560 C   0  0  0  0  0  0  0  0  0  0  0  0
   -6.6310   24.1720  -31.3970 C   0  0  0  0  0  0  0  0  0  0  0  0
   -5.2720   23.8830  -31.2790 C   0  0  0  0  0  0  0  0  0  0  0  0
   -4.7940   22.5970  -31.4170 C   0  0  0  0  0  0  0  0  0  0  0  0
   -3.3730   22.3830  -31.2800 C   0  0  0  0  0  0  0  0  0  0  0  0
   -2.7270   21.6930  -32.2980 C   0  0  0  0  0  0  0  0  0  0  0  0
   -3.4080   21.2060  -33.4410 N   0  0  0  0  0  0  0  0  0  0  0  0
   -1.4000   21.4600  -32.2310 N   0  0  0  0  0  0  0  0  0  0  0  0
   -0.7450   21.9250  -31.1380 C   0  0  0  0  0  0  0  0  0  0  0  0
   -1.3580   22.5910  -30.1500 N   0  0  0  0  0  0  0  0  0  0  0  0
   -2.6880   22.8370  -30.1960 C   0  0  0  0  0  0  0  0  0  0  0  0
   -3.2600   23.4800  -29.2350 N   0  0  0  0  0  0  0  0  0  0  0  0
   -2.4130   23.9030  -28.1480 C   0  0  0  0  0  0  0  0  0  0  0  0
   -1.9910   25.1980  -28.0260 C   0  0  0  0  0  0  0  0  0  0  0  0
   -1.1760   25.5280  -26.9510 C   0  0  0  0  0  0  0  0  0  0  0  0
   -0.8000   24.5750  -26.0270 C   0  0  0  0  0  0  0  0  0  0  0  0
   -1.2560   23.2570  -26.1920 C   0  0  0  0  0  0  0  0  0  0  0  0
   -2.0650   22.8990  -27.2470 C   0  0  0  0  0  0  0  0  0  0  0  0
   -0.8650   22.2270  -25.2300 C   0  0  0  0  0  0  0  0  0  0  0  0
    0.0260   22.6590  -24.1260 C   0  0  0  0  0  0  0  0  0  0  0  0
    0.9210   23.8470  -24.4690 C   0  0  0  0  0  0  0  0  0  0  0  0
    0.0510   24.9000  -24.8940 N   0  0  0  0  0  0  0  0  0  0  0  0
   -0.1030   26.1690  -24.3390 C   0  0  0  0  0  0  0  0  0  0  0  0
   -1.2850   26.6270  -24.0580 O   0  0  0  0  0  0  0  0  0  0  0  0
    0.9640   27.1430  -23.9990 C   0  0  0  0  0  0  0  0  0  0  0  0
    0.7730   27.9520  -22.8610 N   0  0  0  0  0  0  0  0  0  0  0  0
   -5.7130   21.6060  -31.6780 C   0  0  0  0  0  0  0  0  0  0  0  0
   -8.5954   23.3880  -31.7508 H   0  0  0  0  0  0  0  0  0  0  0  0
   -6.9861   25.2067  -31.2820 H   0  0  0  0  0  0  0  0  0  0  0  0
   -4.5650   24.6997  -31.0711 H   0  0  0  0  0  0  0  0  0  0  0  0
   -3.1960   21.5500  -34.4060 H   0  0  0  0  0  0  0  0  0  0  0  0
   -4.1380   20.4860  -33.3300 H   0  0  0  0  0  0  0  0  0  0  0  0
   -0.8750   20.9530  -32.9610 H   0  0  0  0  0  0  0  0  0  0  0  0
    0.3377   21.7474  -31.0592 H   0  0  0  0  0  0  0  0  0  0  0  0
   -2.2897   25.9596  -28.7613 H   0  0  0  0  0  0  0  0  0  0  0  0
   -0.8252   26.5641  -26.8346 H   0  0  0  0  0  0  0  0  0  0  0  0
   -2.4209   21.8658  -27.3729 H   0  0  0  0  0  0  0  0  0  0  0  0
   -1.7840   21.8236  -24.7798 H   0  0  0  0  0  0  0  0  0  0  0  0
   -0.2808   21.4952  -25.8072 H   0  0  0  0  0  0  0  0  0  0  0  0
   -0.6010   22.9371  -23.2661 H   0  0  0  0  0  0  0  0  0  0  0  0
    0.6949   21.8124  -23.9116 H   0  0  0  0  0  0  0  0  0  0  0  0
    1.4929   24.1605  -23.5832 H   0  0  0  0  0  0  0  0  0  0  0  0
    1.6448   23.5865  -25.2553 H   0  0  0  0  0  0  0  0  0  0  0  0
    1.8923   26.5732  -23.8452 H   0  0  0  0  0  0  0  0  0  0  0  0
    0.9764   27.8483  -24.8431 H   0  0  0  0  0  0  0  0  0  0  0  0
   -0.2420   27.9980  -22.6040 H   0  0  0  0  0  0  0  0  0  0  0  0
    1.2610   27.5360  -22.0360 H   0  0  0  0  0  0  0  0  0  0  0  0
   -5.3663   20.5687  -31.7957 H   0  0  0  0  0  0  0  0  0  0  0  0
  1  2  3  0
  2  3  1  0
  3  4  2  0
  4  5  1  0
  5  6  2  0
  6  7  1  0
  7  8  1  0
  8  9  2  0
  9 10  1  0
  9 11  1  0
 11 12  1  0
 12 13  2  0
 13 14  1  0
 14 15  2  0
 15 16  1  0
 16 17  2  0
 17 18  1  0
 18 19  2  0
 19 20  1  0
 20 21  2  0
 20 22  1  0
 22 23  1  0
 23 24  1  0
 24 25  1  0
 25 26  1  0
 26 27  2  0
 26 28  1  0
 28 29  1  0
  7 30  2  0
 30  3  1  0
 14  8  1  0
 21 16  1  0
 25 19  1  0
  4 31  1  0
  5 32  1  0
  6 33  1  0
 10 34  1  0
 10 35  1  0
 11 36  1  0
 12 37  1  0
 17 38  1  0
 18 39  1  0
 21 40  1  0
 22 41  1  0
 22 42  1  0
 23 43  1  0
 23 44  1  0
 24 45  1  0
 24 46  1  0
 28 47  1  0
 28 48  1  0
 29 49  1  0
 29 50  1  0
 30 51  1  0
M  END
>  <smiles>  (36) 
N#Cc1cccc(-c2c(N)[nH]cnc2=Nc2ccc3c(c2)CCCN3C(=O)CN)c1

>  <score_type>  (36) 
oracle

>  <origin>  (36) 
adgpu

>  <m_score__min__energy>  (36) 
-8.8300000000000001

>  <m_primary>  (36) 
energy

$$$$
36:0
     RDKit          3D

 49 51  0  0  0  0  0  0  0  0999 V2000
   -6.0460   17.9280  -34.1990 N   0  0  0  0  0  0  0  0  0  0  0  0
   -5.0530   18.4390  -33.8940 C   0  0  0  0  0  0  0  0  0  0  0  0
   -3.8180   19.0730  -33.5160 C   0  0  0  0  0  0  0  0  0  0  0  0
   -3.7140   20.4700  -33.5270 C   0  0  0  0  0  0  0  0  0  0  0  0
   -2.5140   21.0870  -33.1600 C   0  0  0  0  0  0  0  0  0  0  0  0
   -1.4030   20.3110  -32.7880 C   0  0  0  0  0  0  0  0  0  0  0  0
   -0.1110   20.9710  -32.3830 C   0  0  0  0  0  0  0  0  0  0  0  0
   -0.1730   21.4310  -31.0330 O   0  0  0  0  0  0  0  0  0  0  0  0
   -1.3510   21.7570  -30.3390 C   0  0  0  0  0  0  0  0  0  0  0  0
   -1.9470   20.7670  -29.5490 C   0  0  0  0  0  0  0  0  0  0  0  0
   -3.1270   21.0320  -28.8500 C   0  0  0  0  0  0  0  0  0  0  0  0
   -3.7240   22.2920  -28.9340 C   0  0  0  0  0  0  0  0  0  0  0  0
   -3.1370   23.2990  -29.7160 C   0  0  0  0  0  0  0  0  0  0  0  0
   -3.7920   24.6480  -29.8440 C   0  0  0  0  0  0  0  0  0  0  0  0
   -4.5180   24.7560  -31.1190 N   0  0  0  0  0  0  0  0  0  0  0  0
   -5.9800   24.8380  -30.9360 C   0  0  0  0  0  0  0  0  0  0  0  0
   -6.4860   23.6750  -30.0750 C   0  0  0  0  0  0  0  0  0  0  0  0
   -7.0630   22.5610  -30.9180 C   0  0  0  0  0  0  0  0  0  0  0  0
   -8.3010   21.9930  -30.5720 C   0  0  0  0  0  0  0  0  0  0  0  0
   -8.8320   20.9410  -31.3210 C   0  0  0  0  0  0  0  0  0  0  0  0
   -8.1330   20.4450  -32.4230 C   0  0  0  0  0  0  0  0  0  0  0  0
   -6.9010   21.0000  -32.7780 C   0  0  0  0  0  0  0  0  0  0  0  0
   -6.3590   22.0560  -32.0300 C   0  0  0  0  0  0  0  0  0  0  0  0
   -5.1280   22.6050  -32.3900 O   0  0  0  0  0  0  0  0  0  0  0  0
   -1.9520   23.0270  -30.4150 C   0  0  0  0  0  0  0  0  0  0  0  0
   -1.5180   18.9120  -32.7650 C   0  0  0  0  0  0  0  0  0  0  0  0
   -2.7180   18.2960  -33.1320 C   0  0  0  0  0  0  0  0  0  0  0  0
   -4.5777   21.0826  -33.8248 H   0  0  0  0  0  0  0  0  0  0  0  0
   -2.4393   22.1845  -33.1625 H   0  0  0  0  0  0  0  0  0  0  0  0
    0.7094   20.2445  -32.4782 H   0  0  0  0  0  0  0  0  0  0  0  0
    0.0620   21.8358  -33.0404 H   0  0  0  0  0  0  0  0  0  0  0  0
   -1.4824   19.7724  -29.4781 H   0  0  0  0  0  0  0  0  0  0  0  0
   -3.5870   20.2468  -28.2321 H   0  0  0  0  0  0  0  0  0  0  0  0
   -4.6560   22.4955  -28.3862 H   0  0  0  0  0  0  0  0  0  0  0  0
   -4.4995   24.7859  -29.0131 H   0  0  0  0  0  0  0  0  0  0  0  0
   -3.0123   25.4233  -29.8149 H   0  0  0  0  0  0  0  0  0  0  0  0
   -4.1990   25.6400  -31.5820 H   0  0  0  0  0  0  0  0  0  0  0  0
   -6.2289   25.7883  -30.4410 H   0  0  0  0  0  0  0  0  0  0  0  0
   -6.4629   24.7828  -31.9228 H   0  0  0  0  0  0  0  0  0  0  0  0
   -5.6468   23.2772  -29.4855 H   0  0  0  0  0  0  0  0  0  0  0  0
   -7.2837   24.0563  -29.4206 H   0  0  0  0  0  0  0  0  0  0  0  0
   -8.8558   22.3801  -29.7046 H   0  0  0  0  0  0  0  0  0  0  0  0
   -9.8017   20.5027  -31.0426 H   0  0  0  0  0  0  0  0  0  0  0  0
   -8.5527   19.6164  -33.0124 H   0  0  0  0  0  0  0  0  0  0  0  0
   -6.3536   20.6074  -33.6476 H   0  0  0  0  0  0  0  0  0  0  0  0
   -5.0620   23.5080  -32.8430 H   0  0  0  0  0  0  0  0  0  0  0  0
   -1.4882   23.8136  -31.0282 H   0  0  0  0  0  0  0  0  0  0  0  0
   -0.6594   18.2974  -32.4566 H   0  0  0  0  0  0  0  0  0  0  0  0
   -2.7984   17.1990  -33.1191 H   0  0  0  0  0  0  0  0  0  0  0  0
  1  2  3  0
  2  3  1  0
  3  4  2  0
  4  5  1  0
  5  6  2  0
  6  7  1  0
  7  8  1  0
  8  9  1  0
  9 10  2  0
 10 11  1  0
 11 12  2  0
 12 13  1  0
 13 14  1  0
 14 15  1  0
 15 16  1  0
 16 17  1  0
 17 18  1  0
 18 19  2  0
 19 20  1  0
 20 21  2  0
 21 22  1  0
 22 23  2  0
 23 24  1  0
 13 25  2  0
  6 26  1  0
 26 27  2  0
 27  3  1  0
 25  9  1  0
 23 18  1  0
  4 28  1  0
  5 29  1  0
  7 30  1  0
  7 31  1  0
 10 32  1  0
 11 33  1  0
 12 34  1  0
 14 35  1  0
 14 36  1  0
 15 37  1  0
 16 38  1  0
 16 39  1  0
 17 40  1  0
 17 41  1  0
 19 42  1  0
 20 43  1  0
 21 44  1  0
 22 45  1  0
 24 46  1  0
 25 47  1  0
 26 48  1  0
 27 49  1  0
M  END
>  <UniqueID>  (37) 
34

>  <SMILES>  (37) 
N#Cc1ccc(COc2cccc(CNCCc3ccccc3O)c2)cc1

>  <Energy>  (37) 
46.274028722118075

>  <Genealogy>  (37) 
N#Cc1ccc(COc2cccc(CNCCc3ccccc3O)c2)cc1 (3D coordinates assigned)
N#Cc1ccc(COc2cccc(CNCCc3ccccc3O)c2)cc1 (optimized conformer: 46.274028722118075 kcal/mol)

>  <smiles>  (37) 
N#Cc1ccc(COc2cccc(CNCCc3ccccc3O)c2)cc1

>  <score_type>  (37) 
oracle

>  <origin>  (37) 
adgpu

>  <m_score__min__energy>  (37) 
-10

>  <m_primary>  (37) 
energy

$$$$
37:0
     RDKit          3D

 65 68  0  0  0  0  0  0  0  0999 V2000
    0.4850   23.8440  -24.8940 C   0  0  0  0  0  0  0  0  0  0  0  0
    1.8900   23.9170  -25.1090 O   0  0  0  0  0  0  0  0  0  0  0  0
    2.5010   24.6760  -26.1200 C   0  0  0  0  0  0  0  0  0  0  0  0
    3.2850   24.0850  -27.1300 C   0  0  0  0  0  0  0  0  0  0  0  0
    3.8800   24.8780  -28.1170 C   0  0  0  0  0  0  0  0  0  0  0  0
    3.6950   26.2620  -28.1100 C   0  0  0  0  0  0  0  0  0  0  0  0
    2.9190   26.8580  -27.1130 C   0  0  0  0  0  0  0  0  0  0  0  0
    2.3270   26.0710  -26.1170 C   0  0  0  0  0  0  0  0  0  0  0  0
    1.5640   26.7010  -25.0880 N   0  0  0  0  0  0  0  0  0  0  0  0
    0.0800   27.5120  -25.4500 S   0  0  0  0  0  0  0  0  0  0  0  0
    0.3850   28.7860  -26.1880 O   0  0  0  0  0  0  0  0  0  0  0  0
   -0.6340   27.8550  -24.1740 O   0  0  0  0  0  0  0  0  0  0  0  0
   -0.9380   26.4820  -26.4510 C   0  0  0  0  0  0  0  0  0  0  0  0
   -2.0700   25.8690  -25.8980 C   0  0  0  0  0  0  0  0  0  0  0  0
   -2.8400   24.9890  -26.6630 C   0  0  0  0  0  0  0  0  0  0  0  0
   -2.4790   24.6980  -27.9880 C   0  0  0  0  0  0  0  0  0  0  0  0
   -3.2830   23.7880  -28.7570 N   0  0  0  0  0  0  0  0  0  0  0  0
   -4.0960   24.1960  -29.8700 C   0  0  0  0  0  0  0  0  0  0  0  0
   -3.8560   25.2890  -30.4530 O   0  0  0  0  0  0  0  0  0  0  0  0
   -5.1840   23.3250  -30.3750 C   0  0  0  0  0  0  0  0  0  0  0  0
   -6.4860   23.8250  -30.5480 C   0  0  0  0  0  0  0  0  0  0  0  0
   -7.5020   23.0010  -31.0380 C   0  0  0  0  0  0  0  0  0  0  0  0
   -7.2380   21.6620  -31.3520 C   0  0  0  0  0  0  0  0  0  0  0  0
   -8.5320   20.6130  -31.9370 S   0  0  0  0  0  0  0  0  0  0  0  0
   -9.6290   21.4580  -32.5220 O   0  0  0  0  0  0  0  0  0  0  0  0
   -9.1080   19.8450  -30.7800 O   0  0  0  0  0  0  0  0  0  0  0  0
   -7.9550   19.4920  -33.1470 N   0  0  0  0  0  0  0  0  0  0  0  0
   -6.7390   20.0220  -33.7980 C   0  0  0  0  0  0  0  0  0  0  0  0
   -5.9830   18.9230  -34.5510 C   0  0  0  0  0  0  0  0  0  0  0  0
   -5.5040   17.8080  -33.5900 C   0  0  0  0  0  0  0  0  0  0  0  0
   -4.0220   17.9770  -33.2320 C   0  0  0  0  0  0  0  0  0  0  0  0
   -6.3610   17.7400  -32.3060 C   0  0  0  0  0  0  0  0  0  0  0  0
   -7.8170   18.1200  -32.6000 C   0  0  0  0  0  0  0  0  0  0  0  0
   -5.9410   21.1610  -31.1930 C   0  0  0  0  0  0  0  0  0  0  0  0
   -4.9200   21.9860  -30.7130 C   0  0  0  0  0  0  0  0  0  0  0  0
   -1.3580   25.3350  -28.5490 C   0  0  0  0  0  0  0  0  0  0  0  0
   -0.5890   26.2160  -27.7810 C   0  0  0  0  0  0  0  0  0  0  0  0
    0.2795   23.8333  -23.8134 H   0  0  0  0  0  0  0  0  0  0  0  0
   -0.0018   24.7181  -25.3512 H   0  0  0  0  0  0  0  0  0  0  0  0
    0.0914   22.9242  -25.3512 H   0  0  0  0  0  0  0  0  0  0  0  0
    3.4301   22.9947  -27.1427 H   0  0  0  0  0  0  0  0  0  0  0  0
    4.4948   24.4103  -28.9001 H   0  0  0  0  0  0  0  0  0  0  0  0
    4.1603   26.8830  -28.8896 H   0  0  0  0  0  0  0  0  0  0  0  0
    2.7725   27.9482  -27.1101 H   0  0  0  0  0  0  0  0  0  0  0  0
   -2.3539   26.0815  -24.8567 H   0  0  0  0  0  0  0  0  0  0  0  0
   -3.7340   24.5217  -26.2245 H   0  0  0  0  0  0  0  0  0  0  0  0
   -3.1790   22.7650  -28.5730 H   0  0  0  0  0  0  0  0  0  0  0  0
   -6.7066   24.8727  -30.2957 H   0  0  0  0  0  0  0  0  0  0  0  0
   -8.5150   23.4061  -31.1780 H   0  0  0  0  0  0  0  0  0  0  0  0
   -7.0284   20.8092  -34.5097 H   0  0  0  0  0  0  0  0  0  0  0  0
   -6.0767   20.4250  -33.0177 H   0  0  0  0  0  0  0  0  0  0  0  0
   -6.6504   18.4824  -35.3063 H   0  0  0  0  0  0  0  0  0  0  0  0
   -5.0995   19.3737  -35.0267 H   0  0  0  0  0  0  0  0  0  0  0  0
   -5.6276   16.8559  -34.1269 H   0  0  0  0  0  0  0  0  0  0  0  0
   -3.9082   17.9900  -32.1380 H   0  0  0  0  0  0  0  0  0  0  0  0
   -3.4458   17.1387  -33.6507 H   0  0  0  0  0  0  0  0  0  0  0  0
   -3.6493   18.9235  -33.6507 H   0  0  0  0  0  0  0  0  0  0  0  0
   -6.3297   16.7159  -31.9058 H   0  0  0  0  0  0  0  0  0  0  0  0
   -5.9530   18.4513  -31.5728 H   0  0  0  0  0  0  0  0  0  0  0  0
   -8.2251   17.4074  -33.3319 H   0  0  0  0  0  0  0  0  0  0  0  0
   -8.3662   18.0870  -31.6475 H   0  0  0  0  0  0  0  0  0  0  0  0
   -5.7241   20.1129  -31.4470 H   0  0  0  0  0  0  0  0  0  0  0  0
   -3.9022   21.5847  -30.5988 H   0  0  0  0  0  0  0  0  0  0  0  0
   -1.0844   25.1398  -29.5964 H   0  0  0  0  0  0  0  0  0  0  0  0
    0.2932   26.7017  -28.2235 H   0  0  0  0  0  0  0  0  0  0  0  0
  1  2  1  0
  2  3  1  0
  3  4  2  0
  4  5  1  0
  5  6  2  0
  6  7  1  0
  7  8  2  0
  8  9  1  0
  9 10  1  0
 10 11  2  0
 10 12  2  0
 10 13  1  0
 13 14  2  0
 14 15  1  0
 15 16  2  0
 16 17  1  0
 17 18  1  0
 18 19  2  0
 18 20  1  0
 20 21  2  0
 21 22  1  0
 22 23  2  0
 23 24  1  0
 24 25  2  0
 24 26  2  0
 24 27  1  0
 27 28  1  0
 28 29  1  0
 29 30  1  0
 30 31  1  0
 30 32  1  0
 32 33  1  0
 23 34  1  0
 34 35  2  0
 16 36  1  0
 36 37  2  0
  8  3  1  0
 37 13  1  0
 35 20  1  0
 33 27  1  0
  1 38  1  0
  1 39  1  0
  1 40  1  0
  4 41  1  0
  5 42  1  0
  6 43  1  0
  7 44  1  0
 14 45  1  0
 15 46  1  0
 17 47  1  0
 21 48  1  0
 22 49  1  0
 28 50  1  0
 28 51  1  0
 29 52  1  0
 29 53  1  0
 30 54  1  0
 31 55  1  0
 31 56  1  0
 31 57  1  0
 32 58  1  0
 32 59  1  0
 33 60  1  0
 33 61  1  0
 34 62  1  0
 35 63  1  0
 36 64  1  0
 37 65  1  0
M  CHG  1   9  -1
M  END
>  <UniqueID>  (38) 
35

>  <SMILES>  (38) 
COc1ccccc1[N-]S(=O)(=O)c1ccc(NC(=O)c2ccc(S(=O)(=O)N3CCC(C)CC3)cc2)cc1

>  <Energy>  (38) 
84.1230441454778

>  <Genealogy>  (38) 
COc1ccccc1[N-]S(=O)(=O)c1ccc(NC(=O)c2ccc(S(=O)(=O)N3CCC(C)CC3)cc2)cc1 (protonated)
COc1ccccc1[N-]S(=O)(=O)c1ccc(NC(=O)c2ccc(S(=O)(=O)N3CCC(C)CC3)cc2)cc1 (3D coordinates assigned)
COc1ccccc1[N-]S(=O)(=O)c1ccc(NC(=O)c2ccc(S(=O)(=O)N3CCC(C)CC3)cc2)cc1 (nonaromatic ring conformer: 84.1230441454778 kcal/mol)

>  <smiles>  (38) 
COc1ccccc1NS(=O)(=O)c1ccc(NC(=O)c2ccc(S(=O)(=O)N3CCC(C)CC3)cc2)cc1

>  <score_type>  (38) 
oracle

>  <origin>  (38) 
adgpu

>  <m_score__min__energy>  (38) 
-10.58

>  <m_primary>  (38) 
energy

$$$$
38:0
     RDKit          3D

 44 45  0  0  0  0  0  0  0  0999 V2000
   -2.7040   24.6620  -27.1740 C   0  0  0  0  0  0  0  0  0  0  0  0
   -2.0970   24.6890  -28.4620 O   0  0  0  0  0  0  0  0  0  0  0  0
   -2.3110   23.7280  -29.4630 C   0  0  0  0  0  0  0  0  0  0  0  0
   -1.6130   22.5070  -29.4850 C   0  0  0  0  0  0  0  0  0  0  0  0
   -1.8550   21.5740  -30.4930 C   0  0  0  0  0  0  0  0  0  0  0  0
   -2.7910   21.8440  -31.4950 C   0  0  0  0  0  0  0  0  0  0  0  0
   -3.1350   20.6220  -32.7160 S   0  0  0  0  0  0  0  0  0  0  0  0
   -3.2640   19.2840  -32.0410 O   0  0  0  0  0  0  0  0  0  0  0  0
   -2.0230   20.5550  -33.7230 O   0  0  0  0  0  0  0  0  0  0  0  0
   -4.6190   21.0080  -33.5210 N   0  0  0  0  0  0  0  0  0  0  0  0
   -5.8560   20.4100  -33.1160 C   0  0  0  0  0  0  0  0  0  0  0  0
   -6.0690   19.0430  -33.3360 C   0  0  0  0  0  0  0  0  0  0  0  0
   -5.0720   18.2710  -33.9430 O   0  0  0  0  0  0  0  0  0  0  0  0
   -5.3300   16.9970  -34.5230 C   0  0  0  0  0  0  0  0  0  0  0  0
   -7.2380   18.4700  -32.9510 N   0  0  0  0  0  0  0  0  0  0  0  0
   -8.2290   19.1710  -32.3430 C   0  0  0  0  0  0  0  0  0  0  0  0
   -9.4800   18.4480  -31.9470 C   0  0  0  0  0  0  0  0  0  0  0  0
   -8.0670   20.5470  -32.1030 C   0  0  0  0  0  0  0  0  0  0  0  0
   -9.4670   21.5450  -31.2250 Br  0  0  0  0  0  0  0  0  0  0  0  0
   -6.8740   21.1800  -32.5100 C   0  0  0  0  0  0  0  0  0  0  0  0
   -6.7000   22.6650  -32.2950 C   0  0  0  0  0  0  0  0  0  0  0  0
   -3.4910   23.0560  -31.4790 C   0  0  0  0  0  0  0  0  0  0  0  0
   -3.2550   24.0040  -30.4630 C   0  0  0  0  0  0  0  0  0  0  0  0
   -3.9410   25.2270  -30.4130 O   0  0  0  0  0  0  0  0  0  0  0  0
   -5.3580   25.3570  -30.3290 C   0  0  0  0  0  0  0  0  0  0  0  0
   -1.9232   24.6967  -26.3999 H   0  0  0  0  0  0  0  0  0  0  0  0
   -3.3687   25.5315  -27.0636 H   0  0  0  0  0  0  0  0  0  0  0  0
   -3.2889   23.7370  -27.0636 H   0  0  0  0  0  0  0  0  0  0  0  0
   -0.8719   22.2867  -28.7026 H   0  0  0  0  0  0  0  0  0  0  0  0
   -1.3063   20.6207  -30.4994 H   0  0  0  0  0  0  0  0  0  0  0  0
   -4.5670   21.5200  -34.4280 H   0  0  0  0  0  0  0  0  0  0  0  0
   -5.4803   16.2546  -33.7253 H   0  0  0  0  0  0  0  0  0  0  0  0
   -6.2348   17.0542  -35.1460 H   0  0  0  0  0  0  0  0  0  0  0  0
   -4.4742   16.6976  -35.1460 H   0  0  0  0  0  0  0  0  0  0  0  0
   -9.5488   18.4082  -30.8499 H   0  0  0  0  0  0  0  0  0  0  0  0
  -10.3543   18.9801  -32.3502 H   0  0  0  0  0  0  0  0  0  0  0  0
   -9.4554   17.4248  -32.3502 H   0  0  0  0  0  0  0  0  0  0  0  0
   -6.6749   22.8789  -31.2163 H   0  0  0  0  0  0  0  0  0  0  0  0
   -5.7571   22.9943  -32.7561 H   0  0  0  0  0  0  0  0  0  0  0  0
   -7.5412   23.2033  -32.7561 H   0  0  0  0  0  0  0  0  0  0  0  0
   -4.2304   23.2701  -32.2648 H   0  0  0  0  0  0  0  0  0  0  0  0
   -5.6616   25.3849  -29.2721 H   0  0  0  0  0  0  0  0  0  0  0  0
   -5.6709   26.2876  -30.8250 H   0  0  0  0  0  0  0  0  0  0  0  0
   -5.8350   24.4988  -30.8250 H   0  0  0  0  0  0  0  0  0  0  0  0
  1  2  1  0
  2  3  1  0
  3  4  2  0
  4  5  1  0
  5  6  2  0
  6  7  1  0
  7  8  2  0
  7  9  2  0
  7 10  1  0
 10 11  1  0
 11 12  2  0
 12 13  1  0
 13 14  1  0
 12 15  1  0
 15 16  2  0
 16 17  1  0
 16 18  1  0
 18 19  1  0
 18 20  2  0
 20 21  1  0
  6 22  1  0
 22 23  2  0
 23 24  1  0
 24 25  1  0
 23  3  1  0
 20 11  1  0
  1 26  1  0
  1 27  1  0
  1 28  1  0
  4 29  1  0
  5 30  1  0
 10 31  1  0
 14 32  1  0
 14 33  1  0
 14 34  1  0
 17 35  1  0
 17 36  1  0
 17 37  1  0
 21 38  1  0
 21 39  1  0
 21 40  1  0
 22 41  1  0
 25 42  1  0
 25 43  1  0
 25 44  1  0
M  END
>  <UniqueID>  (39) 
36

>  <SMILES>  (39) 
COc1ccc(S(=O)(=O)Nc2c(OC)nc(C)c(Br)c2C)cc1OC

>  <Energy>  (39) 
47.83098921444055

>  <Genealogy>  (39) 
COc1ccc(S(=O)(=O)Nc2c(OC)nc(C)c(Br)c2C)cc1OC (3D coordinates assigned)
COc1ccc(S(=O)(=O)Nc2c(OC)nc(C)c(Br)c2C)cc1OC (optimized conformer: 47.83098921444055 kcal/mol)

>  <smiles>  (39) 
COc1ccc(S(=O)(=O)Nc2c(OC)nc(C)c(Br)c2C)cc1OC

>  <score_type>  (39) 
oracle

>  <origin>  (39) 
adgpu

>  <m_score__min__energy>  (39) 
-8.6300000000000008

>  <m_primary>  (39) 
energy

$$$$
39:0
     RDKit          3D

 55 58  0  0  0  0  0  0  0  0999 V2000
   -6.2810   19.6910  -33.8060 C   0  0  0  0  0  0  0  0  0  0  0  0
   -6.3360   20.7000  -32.6510 C   0  0  0  0  0  0  0  0  0  0  0  0
   -7.7880   21.0300  -32.2830 C   0  0  0  0  0  0  0  0  0  0  0  0
   -5.5170   20.2380  -31.4250 C   0  0  0  0  0  0  0  0  0  0  0  0
   -4.1130   20.7910  -31.3950 C   0  0  0  0  0  0  0  0  0  0  0  0
   -3.1930   20.1100  -31.9240 O   0  0  0  0  0  0  0  0  0  0  0  0
   -3.7850   22.1170  -30.8130 C   0  0  0  0  0  0  0  0  0  0  0  0
   -4.1950   23.3670  -31.2530 C   0  0  0  0  0  0  0  0  0  0  0  0
   -4.9850   23.6490  -32.3630 O   0  0  0  0  0  0  0  0  0  0  0  0
   -3.6920   24.2940  -30.3700 C   0  0  0  0  0  0  0  0  0  0  0  0
   -3.8620   25.6720  -30.4740 O   0  0  0  0  0  0  0  0  0  0  0  0
   -2.9900   23.6870  -29.3940 N   0  0  0  0  0  0  0  0  0  0  0  0
   -2.2850   24.3470  -28.3270 C   0  0  0  0  0  0  0  0  0  0  0  0
   -2.9060   24.5610  -27.0880 C   0  0  0  0  0  0  0  0  0  0  0  0
   -2.2240   25.2140  -26.0570 C   0  0  0  0  0  0  0  0  0  0  0  0
   -0.9040   25.6600  -26.2470 C   0  0  0  0  0  0  0  0  0  0  0  0
   -0.1790   26.3580  -25.1540 C   0  0  0  0  0  0  0  0  0  0  0  0
   -0.7730   26.5120  -23.8860 C   0  0  0  0  0  0  0  0  0  0  0  0
   -0.0880   27.1690  -22.8590 C   0  0  0  0  0  0  0  0  0  0  0  0
    1.1920   27.6780  -23.0850 C   0  0  0  0  0  0  0  0  0  0  0  0
    1.7920   27.5320  -24.3370 C   0  0  0  0  0  0  0  0  0  0  0  0
    1.1120   26.8750  -25.3670 C   0  0  0  0  0  0  0  0  0  0  0  0
   -0.2820   25.4350  -27.4880 C   0  0  0  0  0  0  0  0  0  0  0  0
   -0.9660   24.7820  -28.5170 C   0  0  0  0  0  0  0  0  0  0  0  0
   -3.0420   22.3550  -29.6530 C   0  0  0  0  0  0  0  0  0  0  0  0
   -2.3960   21.3220  -28.8170 C   0  0  0  0  0  0  0  0  0  0  0  0
   -3.1060   20.7460  -27.7510 C   0  0  0  0  0  0  0  0  0  0  0  0
   -2.5170   19.7520  -26.9670 C   0  0  0  0  0  0  0  0  0  0  0  0
   -1.2170   19.3210  -27.2430 C   0  0  0  0  0  0  0  0  0  0  0  0
   -0.5030   19.8870  -28.3030 C   0  0  0  0  0  0  0  0  0  0  0  0
   -1.0860   20.8870  -29.0890 C   0  0  0  0  0  0  0  0  0  0  0  0
   -0.3540   21.4500  -30.1300 O   0  0  0  0  0  0  0  0  0  0  0  0
   -6.2254   18.6706  -33.3991 H   0  0  0  0  0  0  0  0  0  0  0  0
   -7.1859   19.7907  -34.4234 H   0  0  0  0  0  0  0  0  0  0  0  0
   -5.3923   19.8885  -34.4234 H   0  0  0  0  0  0  0  0  0  0  0  0
   -5.8598   21.6273  -33.0022 H   0  0  0  0  0  0  0  0  0  0  0  0
   -7.8925   21.0537  -31.1882 H   0  0  0  0  0  0  0  0  0  0  0  0
   -8.0574   22.0123  -32.6984 H   0  0  0  0  0  0  0  0  0  0  0  0
   -8.4555   20.2607  -32.6984 H   0  0  0  0  0  0  0  0  0  0  0  0
   -6.0395   20.5652  -30.5140 H   0  0  0  0  0  0  0  0  0  0  0  0
   -5.4319   19.1431  -31.4871 H   0  0  0  0  0  0  0  0  0  0  0  0
   -4.9840   23.0420  -33.1730 H   0  0  0  0  0  0  0  0  0  0  0  0
   -3.9368   24.2127  -26.9262 H   0  0  0  0  0  0  0  0  0  0  0  0
   -2.7232   25.3800  -25.0909 H   0  0  0  0  0  0  0  0  0  0  0  0
   -1.7816   26.1131  -23.7026 H   0  0  0  0  0  0  0  0  0  0  0  0
   -0.5586   27.2849  -21.8715 H   0  0  0  0  0  0  0  0  0  0  0  0
    1.7285   28.1948  -22.2756 H   0  0  0  0  0  0  0  0  0  0  0  0
    2.8006   27.9342  -24.5133 H   0  0  0  0  0  0  0  0  0  0  0  0
    1.5900   26.7615  -26.3512 H   0  0  0  0  0  0  0  0  0  0  0  0
    0.7513   25.7757  -27.6501 H   0  0  0  0  0  0  0  0  0  0  0  0
   -0.4665   24.6084  -29.4815 H   0  0  0  0  0  0  0  0  0  0  0  0
   -4.1312   21.0796  -27.5326 H   0  0  0  0  0  0  0  0  0  0  0  0
   -3.0772   19.3077  -26.1311 H   0  0  0  0  0  0  0  0  0  0  0  0
   -0.7553   18.5361  -26.6260 H   0  0  0  0  0  0  0  0  0  0  0  0
    0.5199   19.5454  -28.5198 H   0  0  0  0  0  0  0  0  0  0  0  0
  1  2  1  0
  2  3  1  0
  2  4  1  0
  4  5  1  0
  5  6  2  0
  5  7  1  0
  7  8  1  0
  8  9  1  0
  8 10  2  0
 10 11  1  0
 10 12  1  0
 12 13  1  0
 13 14  2  0
 14 15  1  0
 15 16  2  0
 16 17  1  0
 17 18  2  0
 18 19  1  0
 19 20  2  0
 20 21  1  0
 21 22  2  0
 16 23  1  0
 23 24  2  0
 12 25  1  0
 25 26  1  0
 26 27  2  0
 27 28  1  0
 28 29  2  0
 29 30  1  0
 30 31  2  0
 31 32  1  0
 25  7  2  0
 31 26  1  0
 24 13  1  0
 22 17  1  0
  1 33  1  0
  1 34  1  0
  1 35  1  0
  2 36  1  0
  3 37  1  0
  3 38  1  0
  3 39  1  0
  4 40  1  0
  4 41  1  0
  9 42  1  0
 14 43  1  0
 15 44  1  0
 18 45  1  0
 19 46  1  0
 20 47  1  0
 21 48  1  0
 22 49  1  0
 23 50  1  0
 24 51  1  0
 27 52  1  0
 28 53  1  0
 29 54  1  0
 30 55  1  0
M  CHG  2  11  -1  32  -1
M  END
>  <UniqueID>  (40) 
37

>  <SMILES>  (40) 
CC(C)CC(=O)c1c(O)c([O-])n(-c2ccc(-c3ccccc3)cc2)c1-c1ccccc1[O-]

>  <Energy>  (40) 
101.09666473102875

>  <Genealogy>  (40) 
CC(C)CC(=O)c1c(O)c([O-])n(-c2ccc(-c3ccccc3)cc2)c1-c1ccccc1[O-] (protonated)
CC(C)CC(=O)c1c(O)c([O-])n(-c2ccc(-c3ccccc3)cc2)c1-c1ccccc1[O-] (3D coordinates assigned)
CC(C)CC(=O)c1c(O)c([O-])n(-c2ccc(-c3ccccc3)cc2)c1-c1ccccc1[O-] (optimized conformer: 101.09666473102875 kcal/mol)

>  <smiles>  (40) 
CC(C)CC(=O)c1c(O)c(O)n(-c2ccc(-c3ccccc3)cc2)c1-c1ccccc1O

>  <score_type>  (40) 
oracle

>  <origin>  (40) 
adgpu

>  <m_score__min__energy>  (40) 
-13.06

>  <m_primary>  (40) 
energy

$$$$
40:0
     RDKit          3D

 70 75  0  0  0  0  0  0  0  0999 V2000
  -10.5264   22.1995  -31.0855 H   0  0  0  0  0  0  0  0  0  0  0  0
   -9.5100   21.8400  -31.3040 C   0  0  0  0  0  0  0  0  0  0  0  0
   -8.4430   22.4290  -30.7120 N   0  0  0  0  0  0  0  0  0  0  0  0
   -7.1660   22.0610  -31.0010 C   0  0  0  0  0  0  0  0  0  0  0  0
   -6.1030   22.7250  -30.3770 C   0  0  0  0  0  0  0  0  0  0  0  0
   -6.3100   23.4917  -29.6159 H   0  0  0  0  0  0  0  0  0  0  0  0
   -4.7750   22.4200  -30.7150 C   0  0  0  0  0  0  0  0  0  0  0  0
   -3.6390   23.0420  -29.9920 C   0  0  0  0  0  0  0  0  0  0  0  0
   -3.8830   23.9440  -28.9420 C   0  0  0  0  0  0  0  0  0  0  0  0
   -4.9184   24.1761  -28.6519 H   0  0  0  0  0  0  0  0  0  0  0  0
   -2.8220   24.5480  -28.2640 C   0  0  0  0  0  0  0  0  0  0  0  0
   -3.0277   25.2702  -27.4602 H   0  0  0  0  0  0  0  0  0  0  0  0
   -1.4960   24.2400  -28.6010 C   0  0  0  0  0  0  0  0  0  0  0  0
   -0.3380   24.8740  -27.8580 C   0  0  0  0  0  0  0  0  0  0  0  0
   -0.2526   25.9224  -28.1797 H   0  0  0  0  0  0  0  0  0  0  0  0
    0.5579   24.2834  -28.0999 H   0  0  0  0  0  0  0  0  0  0  0  0
   -0.4840   24.8490  -26.3850 N   0  0  0  0  0  0  0  0  0  0  0  0
   -1.0560   26.0930  -25.8200 C   0  0  0  0  0  0  0  0  0  0  0  0
   -2.1106   26.1763  -26.1214 H   0  0  0  0  0  0  0  0  0  0  0  0
   -0.4846   26.9526  -26.2002 H   0  0  0  0  0  0  0  0  0  0  0  0
   -0.9680   26.0760  -24.2870 C   0  0  0  0  0  0  0  0  0  0  0  0
   -1.5353   25.2124  -23.9099 H   0  0  0  0  0  0  0  0  0  0  0  0
   -1.3846   27.0240  -23.9159 H   0  0  0  0  0  0  0  0  0  0  0  0
    0.4380   25.9750  -23.8010 N   0  0  0  0  0  0  0  0  0  0  0  0
    0.4390   25.3370  -22.9700 H   0  0  0  0  0  0  0  0  0  0  0  0
    0.9320   27.2820  -23.3380 C   0  0  0  0  0  0  0  0  0  0  0  0
    0.9397   27.3024  -22.2382 H   0  0  0  0  0  0  0  0  0  0  0  0
    1.9529   27.4426  -23.7149 H   0  0  0  0  0  0  0  0  0  0  0  0
    0.2726   28.0777  -23.7149 H   0  0  0  0  0  0  0  0  0  0  0  0
    1.3750   25.4090  -24.8050 C   0  0  0  0  0  0  0  0  0  0  0  0
    2.2361   24.9672  -24.2822 H   0  0  0  0  0  0  0  0  0  0  0  0
    1.6994   26.2205  -25.4730 H   0  0  0  0  0  0  0  0  0  0  0  0
    0.6950   24.3240  -25.6550 C   0  0  0  0  0  0  0  0  0  0  0  0
    0.3690   23.5073  -24.9941 H   0  0  0  0  0  0  0  0  0  0  0  0
    1.4238   23.9674  -26.3978 H   0  0  0  0  0  0  0  0  0  0  0  0
   -1.2520   23.3440  -29.6530 C   0  0  0  0  0  0  0  0  0  0  0  0
   -0.2161   23.1040  -29.9347 H   0  0  0  0  0  0  0  0  0  0  0  0
   -2.3130   22.7530  -30.3470 C   0  0  0  0  0  0  0  0  0  0  0  0
   -2.1067   22.0586  -31.1748 H   0  0  0  0  0  0  0  0  0  0  0  0
   -4.5320   21.5100  -31.7530 C   0  0  0  0  0  0  0  0  0  0  0  0
   -3.4984   21.3140  -32.0743 H   0  0  0  0  0  0  0  0  0  0  0  0
   -5.5880   20.8500  -32.3830 C   0  0  0  0  0  0  0  0  0  0  0  0
   -5.3826   20.1843  -33.2343 H   0  0  0  0  0  0  0  0  0  0  0  0
   -6.9180   21.0270  -31.9400 C   0  0  0  0  0  0  0  0  0  0  0  0
   -8.0350   20.2920  -32.4480 C   0  0  0  0  0  0  0  0  0  0  0  0
   -7.9540   19.1510  -33.0860 N   0  0  0  0  0  0  0  0  0  0  0  0
   -6.8370   18.2540  -33.2050 C   0  0  0  0  0  0  0  0  0  0  0  0
   -6.0880   18.2400  -34.3850 C   0  0  0  0  0  0  0  0  0  0  0  0
   -6.3811   18.8809  -35.2296 H   0  0  0  0  0  0  0  0  0  0  0  0
   -4.9650   17.4110  -34.4930 C   0  0  0  0  0  0  0  0  0  0  0  0
   -4.3816   17.4040  -35.4255 H   0  0  0  0  0  0  0  0  0  0  0  0
   -4.5760   16.5900  -33.4260 C   0  0  0  0  0  0  0  0  0  0  0  0
   -3.3720   15.8820  -33.5490 O   0  0  0  0  0  0  0  0  0  0  0  0
   -2.9630   14.7850  -32.7750 C   0  0  0  0  0  0  0  0  0  0  0  0
   -1.6240   14.6000  -32.3790 C   0  0  0  0  0  0  0  0  0  0  0  0
   -0.8574   15.3327  -32.6712 H   0  0  0  0  0  0  0  0  0  0  0  0
   -1.2690   13.4810  -31.6120 C   0  0  0  0  0  0  0  0  0  0  0  0
   -0.2203   13.3281  -31.3172 H   0  0  0  0  0  0  0  0  0  0  0  0
   -2.2450   12.5590  -31.2210 C   0  0  0  0  0  0  0  0  0  0  0  0
   -1.9625   11.6772  -30.6272 H   0  0  0  0  0  0  0  0  0  0  0  0
   -3.5830   12.7590  -31.5860 C   0  0  0  0  0  0  0  0  0  0  0  0
   -4.3530   12.0401  -31.2694 H   0  0  0  0  0  0  0  0  0  0  0  0
   -3.9390   13.8730  -32.3530 C   0  0  0  0  0  0  0  0  0  0  0  0
   -4.9922   14.0341  -32.6267 H   0  0  0  0  0  0  0  0  0  0  0  0
   -5.3570   16.5780  -32.2540 C   0  0  0  0  0  0  0  0  0  0  0  0
   -5.0654   15.9380  -31.4082 H   0  0  0  0  0  0  0  0  0  0  0  0
   -6.5000   17.3750  -32.1610 C   0  0  0  0  0  0  0  0  0  0  0  0
   -7.1389   17.3147  -31.2676 H   0  0  0  0  0  0  0  0  0  0  0  0
   -9.3230   20.7800  -32.1890 C   0  0  0  0  0  0  0  0  0  0  0  0
  -10.1912   20.3237  -32.6871 H   0  0  0  0  0  0  0  0  0  0  0  0
  1  2  1  0
  2  3  1  0
  3  4  1  0
  4  5  2  0
  5  6  1  0
  5  7  1  0
  7  8  1  0
  8  9  2  0
  9 10  1  0
  9 11  1  0
 11 12  1  0
 11 13  2  0
 13 14  1  0
 14 15  1  0
 14 16  1  0
 14 17  1  0
 17 18  1  0
 18 19  1  0
 18 20  1  0
 18 21  1  0
 21 22  1  0
 21 23  1  0
 21 24  1  0
 24 25  1  0
 24 26  1  0
 26 27  1  0
 26 28  1  0
 26 29  1  0
 24 30  1  0
 30 31  1  0
 30 32  1  0
 30 33  1  0
 33 34  1  0
 33 35  1  0
 13 36  1  0
 36 37  1  0
 36 38  2  0
 38 39  1  0
  7 40  2  0
 40 41  1  0
 40 42  1  0
 42 43  1  0
 42 44  2  0
 44 45  1  0
 45 46  2  0
 46 47  1  0
 47 48  2  0
 48 49  1  0
 48 50  1  0
 50 51  1  0
 50 52  2  0
 52 53  1  0
 53 54  1  0
 54 55  2  0
 55 56  1  0
 55 57  1  0
 57 58  1  0
 57 59  2  0
 59 60  1  0
 59 61  1  0
 61 62  1  0
 61 63  2  0
 63 64  1  0
 52 65  1  0
 65 66  1  0
 65 67  2  0
 67 68  1  0
 45 69  1  0
 69 70  1  0
 69  2  2  0
 44  4  1  0
 67 47  1  0
 38  8  1  0
 63 54  1  0
 33 17  1  0
M  CHG  2   3  -1  24   1
M  END
>  <UniqueID>  (41) 
38

>  <SMILES>  (41) 
C[NH+]1CCN(Cc2ccc(-c3ccc4/c(=N\c5ccc(Oc6ccccc6)cc5)cc[n-]c4c3)cc2)CC1

>  <Energy>  (41) 
129.27753683138008

>  <Genealogy>  (41) 
C[NH+]1CCN(Cc2ccc(-c3ccc4c(=Nc5ccc(Oc6ccccc6)cc5)cc[n-]c4c3)cc2)CC1 (protonated)
C[NH+]1CCN(Cc2ccc(-c3ccc4/c(=N\c5ccc(Oc6ccccc6)cc5)cc[n-]c4c3)cc2)CC1 (cis-trans isomerization)
C[NH+]1CCN(Cc2ccc(-c3ccc4/c(=N\c5ccc(Oc6ccccc6)cc5)cc[n-]c4c3)cc2)CC1 (3D coordinates assigned)
C[NH+]1CCN(Cc2ccc(-c3ccc4/c(=N\c5ccc(Oc6ccccc6)cc5)cc[n-]c4c3)cc2)CC1 (nonaromatic ring conformer: 129.27753683138008 kcal/mol)

>  <smiles>  (41) 
CN1CCN(Cc2ccc(-c3ccc4c(=Nc5ccc(Oc6ccccc6)cc5)cc[nH]c4c3)cc2)CC1

>  <score_type>  (41) 
oracle

>  <origin>  (41) 
adgpu

>  <m_score__min__energy>  (41) 
-11.34

>  <m_primary>  (41) 
energy

$$$$
41:0
     RDKit          3D

 43 45  0  0  0  0  0  0  0  0999 V2000
   -0.6190   21.5300  -34.2910 N   0  0  0  0  0  0  0  0  0  0  0  0
   -1.0120   21.1050  -32.9830 C   0  0  0  0  0  0  0  0  0  0  0  0
   -0.1180   20.7870  -32.1540 O   0  0  0  0  0  0  0  0  0  0  0  0
   -2.4390   21.0480  -32.5820 C   0  0  0  0  0  0  0  0  0  0  0  0
   -3.4250   21.6010  -33.4190 C   0  0  0  0  0  0  0  0  0  0  0  0
   -4.7730   21.5590  -33.0520 C   0  0  0  0  0  0  0  0  0  0  0  0
   -5.1600   20.9710  -31.8400 C   0  0  0  0  0  0  0  0  0  0  0  0
   -6.5410   20.9520  -31.4480 N   0  0  0  0  0  0  0  0  0  0  0  0
   -7.0590   21.9460  -30.5020 C   0  0  0  0  0  0  0  0  0  0  0  0
   -6.1250   23.1240  -30.4220 C   0  0  0  0  0  0  0  0  0  0  0  0
   -6.3170   24.2380  -31.2520 C   0  0  0  0  0  0  0  0  0  0  0  0
   -5.4090   25.2980  -31.2010 C   0  0  0  0  0  0  0  0  0  0  0  0
   -4.3460   25.2480  -30.3560 N   0  0  0  0  0  0  0  0  0  0  0  0
   -4.1330   24.1780  -29.5440 C   0  0  0  0  0  0  0  0  0  0  0  0
   -5.0170   23.0960  -29.5630 C   0  0  0  0  0  0  0  0  0  0  0  0
   -7.6200   19.7730  -32.1320 S   0  0  0  0  0  0  0  0  0  0  0  0
   -8.4290   19.1460  -31.0300 O   0  0  0  0  0  0  0  0  0  0  0  0
   -8.5670   20.4310  -33.0980 O   0  0  0  0  0  0  0  0  0  0  0  0
   -6.6930   18.5440  -32.9850 C   0  0  0  0  0  0  0  0  0  0  0  0
   -6.1160   18.8390  -34.2280 C   0  0  0  0  0  0  0  0  0  0  0  0
   -5.3450   17.8800  -34.8910 C   0  0  0  0  0  0  0  0  0  0  0  0
   -5.1470   16.6220  -34.3150 C   0  0  0  0  0  0  0  0  0  0  0  0
   -4.3960   15.6930  -34.9570 F   0  0  0  0  0  0  0  0  0  0  0  0
   -5.7200   16.3220  -33.0770 C   0  0  0  0  0  0  0  0  0  0  0  0
   -6.4910   17.2810  -32.4100 C   0  0  0  0  0  0  0  0  0  0  0  0
   -4.1800   20.4310  -30.9970 C   0  0  0  0  0  0  0  0  0  0  0  0
   -2.8320   20.4710  -31.3620 C   0  0  0  0  0  0  0  0  0  0  0  0
   -1.2990   21.9530  -34.9600 H   0  0  0  0  0  0  0  0  0  0  0  0
    0.3880   21.5050  -34.5660 H   0  0  0  0  0  0  0  0  0  0  0  0
   -3.1328   22.0703  -34.3700 H   0  0  0  0  0  0  0  0  0  0  0  0
   -5.5347   21.9900  -33.7184 H   0  0  0  0  0  0  0  0  0  0  0  0
   -8.0479   22.2888  -30.8404 H   0  0  0  0  0  0  0  0  0  0  0  0
   -7.1415   21.4852  -29.5066 H   0  0  0  0  0  0  0  0  0  0  0  0
   -7.1761   24.2766  -31.9379 H   0  0  0  0  0  0  0  0  0  0  0  0
   -5.5549   26.1763  -31.8470 H   0  0  0  0  0  0  0  0  0  0  0  0
   -3.2631   24.1643  -28.8709 H   0  0  0  0  0  0  0  0  0  0  0  0
   -4.8450   22.2285  -28.9088 H   0  0  0  0  0  0  0  0  0  0  0  0
   -6.2705   19.8284  -34.6831 H   0  0  0  0  0  0  0  0  0  0  0  0
   -4.8940   18.1154  -35.8663 H   0  0  0  0  0  0  0  0  0  0  0  0
   -5.5651   15.3309  -32.6257 H   0  0  0  0  0  0  0  0  0  0  0  0
   -6.9390   17.0438  -31.4338 H   0  0  0  0  0  0  0  0  0  0  0  0
   -4.4738   19.9724  -30.0413 H   0  0  0  0  0  0  0  0  0  0  0  0
   -2.0719   20.0474  -30.6891 H   0  0  0  0  0  0  0  0  0  0  0  0
  1  2  1  0
  2  3  2  0
  2  4  1  0
  4  5  2  0
  5  6  1  0
  6  7  2  0
  7  8  1  0
  8  9  1  0
  9 10  1  0
 10 11  2  0
 11 12  1  0
 12 13  2  0
 13 14  1  0
 14 15  2  0
  8 16  1  0
 16 17  2  0
 16 18  2  0
 16 19  1  0
 19 20  2  0
 20 21  1  0
 21 22  2  0
 22 23  1  0
 22 24  1  0
 24 25  2  0
  7 26  1  0
 26 27  2  0
 27  4  1  0
 15 10  1  0
 25 19  1  0
  1 28  1  0
  1 29  1  0
  5 30  1  0
  6 31  1  0
  9 32  1  0
  9 33  1  0
 11 34  1  0
 12 35  1  0
 14 36  1  0
 15 37  1  0
 20 38  1  0
 21 39  1  0
 24 40  1  0
 25 41  1  0
 26 42  1  0
 27 43  1  0
M  END
>  <UniqueID>  (42) 
39

>  <SMILES>  (42) 
NC(=O)c1ccc(N(Cc2ccncc2)S(=O)(=O)c2ccc(F)cc2)cc1

>  <Energy>  (42) 
50.33421489491128

>  <Genealogy>  (42) 
NC(=O)c1ccc(N(Cc2ccncc2)S(=O)(=O)c2ccc(F)cc2)cc1 (3D coordinates assigned)
NC(=O)c1ccc(N(Cc2ccncc2)S(=O)(=O)c2ccc(F)cc2)cc1 (optimized conformer: 50.33421489491128 kcal/mol)

>  <smiles>  (42) 
NC(=O)c1ccc(N(Cc2ccncc2)S(=O)(=O)c2ccc(F)cc2)cc1

>  <score_type>  (42) 
oracle

>  <origin>  (42) 
adgpu

>  <m_score__min__energy>  (42) 
-8.7699999999999996

>  <m_primary>  (42) 
energy

$$$$
42:0
     RDKit          3D

 49 51  0  0  0  0  0  0  0  0999 V2000
   -3.7820   25.3020  -30.7710 O   0  0  0  0  0  0  0  0  0  0  0  0
   -5.1360   24.8730  -30.2810 S   0  0  0  0  0  0  0  0  0  0  0  0
   -6.1010   26.0060  -30.4990 O   0  0  0  0  0  0  0  0  0  0  0  0
   -5.0400   24.5040  -28.5850 N   0  0  0  0  0  0  0  0  0  0  0  0
   -4.3870   23.2070  -28.3990 C   0  0  0  0  0  0  0  0  0  0  0  0
   -2.8940   23.3270  -28.7090 C   0  0  0  0  0  0  0  0  0  0  0  0
   -2.2850   24.4690  -27.9390 C   0  0  0  0  0  0  0  0  0  0  0  0
   -1.3210   25.2950  -28.5410 C   0  0  0  0  0  0  0  0  0  0  0  0
   -0.7300   26.3330  -27.8150 C   0  0  0  0  0  0  0  0  0  0  0  0
   -1.0900   26.5480  -26.4820 C   0  0  0  0  0  0  0  0  0  0  0  0
   -2.0370   25.7230  -25.8710 C   0  0  0  0  0  0  0  0  0  0  0  0
   -2.6310   24.6830  -26.5950 C   0  0  0  0  0  0  0  0  0  0  0  0
   -5.6540   23.4540  -31.1890 C   0  0  0  0  0  0  0  0  0  0  0  0
   -4.7040   22.6620  -31.8450 C   0  0  0  0  0  0  0  0  0  0  0  0
   -5.1020   21.5190  -32.5440 C   0  0  0  0  0  0  0  0  0  0  0  0
   -6.4580   21.1460  -32.5910 C   0  0  0  0  0  0  0  0  0  0  0  0
   -6.9040   19.9080  -33.3490 C   0  0  0  0  0  0  0  0  0  0  0  0
   -7.8510   19.0110  -32.5010 C   0  0  0  0  0  0  0  0  0  0  0  0
   -7.1970   17.6900  -32.0720 C   0  0  0  0  0  0  0  0  0  0  0  0
   -6.6890   16.8820  -33.2800 C   0  0  0  0  0  0  0  0  0  0  0  0
   -6.1010   17.7550  -34.4090 C   0  0  0  0  0  0  0  0  0  0  0  0
   -5.6840   19.1430  -33.9120 C   0  0  0  0  0  0  0  0  0  0  0  0
   -7.4060   21.9470  -31.9280 C   0  0  0  0  0  0  0  0  0  0  0  0
   -7.0050   23.0900  -31.2300 C   0  0  0  0  0  0  0  0  0  0  0  0
   -4.4360   25.2390  -28.1510 H   0  0  0  0  0  0  0  0  0  0  0  0
   -4.5181   22.8786  -27.3574 H   0  0  0  0  0  0  0  0  0  0  0  0
   -4.8405   22.4720  -29.0803 H   0  0  0  0  0  0  0  0  0  0  0  0
   -2.3895   22.3909  -28.4274 H   0  0  0  0  0  0  0  0  0  0  0  0
   -2.7685   23.5169  -29.7852 H   0  0  0  0  0  0  0  0  0  0  0  0
   -1.0301   25.1241  -29.5880 H   0  0  0  0  0  0  0  0  0  0  0  0
    0.0191   26.9811  -28.2934 H   0  0  0  0  0  0  0  0  0  0  0  0
   -0.6270   27.3679  -25.9133 H   0  0  0  0  0  0  0  0  0  0  0  0
   -2.3161   25.8908  -24.8203 H   0  0  0  0  0  0  0  0  0  0  0  0
   -3.3717   24.0307  -26.1094 H   0  0  0  0  0  0  0  0  0  0  0  0
   -3.6404   22.9403  -31.8102 H   0  0  0  0  0  0  0  0  0  0  0  0
   -4.3493   20.9061  -33.0615 H   0  0  0  0  0  0  0  0  0  0  0  0
   -7.5050   20.2327  -34.2112 H   0  0  0  0  0  0  0  0  0  0  0  0
   -8.1453   19.5664  -31.5983 H   0  0  0  0  0  0  0  0  0  0  0  0
   -8.7189   18.7610  -33.1289 H   0  0  0  0  0  0  0  0  0  0  0  0
   -6.3470   17.9125  -31.4101 H   0  0  0  0  0  0  0  0  0  0  0  0
   -7.9563   17.0864  -31.5531 H   0  0  0  0  0  0  0  0  0  0  0  0
   -5.9065   16.1919  -32.9316 H   0  0  0  0  0  0  0  0  0  0  0  0
   -7.5574   16.3545  -33.7014 H   0  0  0  0  0  0  0  0  0  0  0  0
   -5.2179   17.2480  -34.8250 H   0  0  0  0  0  0  0  0  0  0  0  0
   -6.8821   17.8907  -35.1716 H   0  0  0  0  0  0  0  0  0  0  0  0
   -4.9297   19.0316  -33.1192 H   0  0  0  0  0  0  0  0  0  0  0  0
   -5.2672   19.7118  -34.7562 H   0  0  0  0  0  0  0  0  0  0  0  0
   -8.4706   21.6718  -31.9591 H   0  0  0  0  0  0  0  0  0  0  0  0
   -7.7542   23.7058  -30.7109 H   0  0  0  0  0  0  0  0  0  0  0  0
  1  2  2  0
  2  3  2  0
  2  4  1  0
  4  5  1  0
  5  6  1  0
  6  7  1  0
  7  8  2  0
  8  9  1  0
  9 10  2  0
 10 11  1  0
 11 12  2  0
  2 13  1  0
 13 14  2  0
 14 15  1  0
 15 16  2  0
 16 17  1  0
 17 18  1  0
 18 19  1  0
 19 20  1  0
 20 21  1  0
 21 22  1  0
 16 23  1  0
 23 24  2  0
 12  7  1  0
 24 13  1  0
 22 17  1  0
  4 25  1  0
  5 26  1  0
  5 27  1  0
  6 28  1  0
  6 29  1  0
  8 30  1  0
  9 31  1  0
 10 32  1  0
 11 33  1  0
 12 34  1  0
 14 35  1  0
 15 36  1  0
 17 37  1  0
 18 38  1  0
 18 39  1  0
 19 40  1  0
 19 41  1  0
 20 42  1  0
 20 43  1  0
 21 44  1  0
 21 45  1  0
 22 46  1  0
 22 47  1  0
 23 48  1  0
 24 49  1  0
M  END
>  <UniqueID>  (43) 
40

>  <SMILES>  (43) 
O=S(=O)(NCCc1ccccc1)c1ccc(C2CCCCC2)cc1

>  <Energy>  (43) 
47.59031502722748

>  <Genealogy>  (43) 
O=S(=O)(NCCc1ccccc1)c1ccc(C2CCCCC2)cc1 (3D coordinates assigned)
O=S(=O)(NCCc1ccccc1)c1ccc(C2CCCCC2)cc1 (nonaromatic ring conformer: 47.59031502722748 kcal/mol)

>  <smiles>  (43) 
O=S(=O)(NCCc1ccccc1)c1ccc(C2CCCCC2)cc1

>  <score_type>  (43) 
oracle

>  <origin>  (43) 
adgpu

>  <m_score__min__energy>  (43) 
-10.720000000000001

>  <m_primary>  (43) 
energy

$$$$
43:0
     RDKit          3D

 52 54  0  0  0  0  0  0  0  0999 V2000
    3.0000   25.5850  -27.7080 C   0  0  0  0  0  0  0  0  0  0  0  0
    1.7390   25.6650  -26.9600 N   0  0  0  0  0  0  0  0  0  0  0  0
    1.9990   25.5800  -25.5180 C   0  0  0  0  0  0  0  0  0  0  0  0
    0.6780   24.3670  -27.4500 S   0  0  0  0  0  0  0  0  0  0  0  0
    0.7780   24.1720  -28.9370 O   0  0  0  0  0  0  0  0  0  0  0  0
    1.1120   23.0900  -26.7850 O   0  0  0  0  0  0  0  0  0  0  0  0
   -1.0010   24.7050  -27.0210 C   0  0  0  0  0  0  0  0  0  0  0  0
   -1.2980   25.5700  -25.9600 C   0  0  0  0  0  0  0  0  0  0  0  0
   -2.6270   25.8320  -25.6210 C   0  0  0  0  0  0  0  0  0  0  0  0
   -3.6660   25.2430  -26.3450 C   0  0  0  0  0  0  0  0  0  0  0  0
   -3.3860   24.3940  -27.4260 C   0  0  0  0  0  0  0  0  0  0  0  0
   -4.4700   23.7890  -28.1510 N   0  0  0  0  0  0  0  0  0  0  0  0
   -4.5270   23.7210  -29.5860 C   0  0  0  0  0  0  0  0  0  0  0  0
   -3.8540   24.5340  -30.2770 O   0  0  0  0  0  0  0  0  0  0  0  0
   -5.4060   22.7380  -30.2660 C   0  0  0  0  0  0  0  0  0  0  0  0
   -4.8530   21.6010  -30.8820 C   0  0  0  0  0  0  0  0  0  0  0  0
   -5.6740   20.6670  -31.5180 C   0  0  0  0  0  0  0  0  0  0  0  0
   -7.0650   20.8450  -31.5380 C   0  0  0  0  0  0  0  0  0  0  0  0
   -8.1020   19.6650  -32.3470 S   0  0  0  0  0  0  0  0  0  0  0  0
   -8.7880   18.8230  -31.3060 O   0  0  0  0  0  0  0  0  0  0  0  0
   -9.1620   20.3970  -33.1230 O   0  0  0  0  0  0  0  0  0  0  0  0
   -7.2230   18.6190  -33.4350 N   0  0  0  0  0  0  0  0  0  0  0  0
   -6.4940   17.5710  -32.7230 C   0  0  0  0  0  0  0  0  0  0  0  0
   -5.3380   17.1650  -33.6230 C   0  0  0  0  0  0  0  0  0  0  0  0
   -5.1540   18.3250  -34.5890 C   0  0  0  0  0  0  0  0  0  0  0  0
   -6.2130   19.3450  -34.2010 C   0  0  0  0  0  0  0  0  0  0  0  0
   -7.6220   21.9760  -30.9270 C   0  0  0  0  0  0  0  0  0  0  0  0
   -6.8020   22.9120  -30.2910 C   0  0  0  0  0  0  0  0  0  0  0  0
   -2.0450   24.1120  -27.7460 C   0  0  0  0  0  0  0  0  0  0  0  0
    3.8421   25.5316  -27.0023 H   0  0  0  0  0  0  0  0  0  0  0  0
    2.9944   24.6854  -28.3410 H   0  0  0  0  0  0  0  0  0  0  0  0
    3.1081   26.4781  -28.3410 H   0  0  0  0  0  0  0  0  0  0  0  0
    1.0955   25.8754  -24.9645 H   0  0  0  0  0  0  0  0  0  0  0  0
    2.2691   24.5468  -25.2544 H   0  0  0  0  0  0  0  0  0  0  0  0
    2.8273   26.2541  -25.2544 H   0  0  0  0  0  0  0  0  0  0  0  0
   -0.4830   26.0436  -25.3930 H   0  0  0  0  0  0  0  0  0  0  0  0
   -2.8563   26.5044  -24.7812 H   0  0  0  0  0  0  0  0  0  0  0  0
   -4.7104   25.4461  -26.0658 H   0  0  0  0  0  0  0  0  0  0  0  0
   -5.3130   23.4910  -27.6110 H   0  0  0  0  0  0  0  0  0  0  0  0
   -3.7642   21.4459  -30.8627 H   0  0  0  0  0  0  0  0  0  0  0  0
   -5.2275   19.7878  -32.0054 H   0  0  0  0  0  0  0  0  0  0  0  0
   -6.1136   17.9557  -31.7653 H   0  0  0  0  0  0  0  0  0  0  0  0
   -7.1456   16.7134  -32.4995 H   0  0  0  0  0  0  0  0  0  0  0  0
   -4.4247   17.0089  -33.0301 H   0  0  0  0  0  0  0  0  0  0  0  0
   -5.5409   16.2210  -34.1500 H   0  0  0  0  0  0  0  0  0  0  0  0
   -4.1475   18.7565  -34.4850 H   0  0  0  0  0  0  0  0  0  0  0  0
   -5.2578   18.0056  -35.6365 H   0  0  0  0  0  0  0  0  0  0  0  0
   -5.7677   20.1406  -33.5855 H   0  0  0  0  0  0  0  0  0  0  0  0
   -6.6525   19.8217  -35.0896 H   0  0  0  0  0  0  0  0  0  0  0  0
   -8.7112   22.1282  -30.9480 H   0  0  0  0  0  0  0  0  0  0  0  0
   -7.2513   23.7913  -29.8063 H   0  0  0  0  0  0  0  0  0  0  0  0
   -1.8139   23.4216  -28.5706 H   0  0  0  0  0  0  0  0  0  0  0  0
  1  2  1  0
  2  3  1  0
  2  4  1  0
  4  5  2  0
  4  6  2  0
  4  7  1  0
  7  8  2  0
  8  9  1  0
  9 10  2  0
 10 11  1  0
 11 12  1  0
 12 13  1  0
 13 14  2  0
 13 15  1  0
 15 16  2  0
 16 17  1  0
 17 18  2  0
 18 19  1  0
 19 20  2  0
 19 21  2  0
 19 22  1  0
 22 23  1  0
 23 24  1  0
 24 25  1  0
 25 26  1  0
 18 27  1  0
 27 28  2  0
 11 29  2  0
 29  7  1  0
 28 15  1  0
 26 22  1  0
  1 30  1  0
  1 31  1  0
  1 32  1  0
  3 33  1  0
  3 34  1  0
  3 35  1  0
  8 36  1  0
  9 37  1  0
 10 38  1  0
 12 39  1  0
 16 40  1  0
 17 41  1  0
 23 42  1  0
 23 43  1  0
 24 44  1  0
 24 45  1  0
 25 46  1  0
 25 47  1  0
 26 48  1  0
 26 49  1  0
 27 50  1  0
 28 51  1  0
 29 52  1  0
M  END
>  <UniqueID>  (44) 
41

>  <SMILES>  (44) 
CN(C)S(=O)(=O)c1cccc(NC(=O)c2ccc(S(=O)(=O)N3CCCC3)cc2)c1

>  <Energy>  (44) 
56.687429957867536

>  <Genealogy>  (44) 
CN(C)S(=O)(=O)c1cccc(NC(=O)c2ccc(S(=O)(=O)N3CCCC3)cc2)c1 (3D coordinates assigned)
CN(C)S(=O)(=O)c1cccc(NC(=O)c2ccc(S(=O)(=O)N3CCCC3)cc2)c1 (nonaromatic ring conformer: 56.687429957867536 kcal/mol)

>  <smiles>  (44) 
CN(C)S(=O)(=O)c1cccc(NC(=O)c2ccc(S(=O)(=O)N3CCCC3)cc2)c1

>  <score_type>  (44) 
oracle

>  <origin>  (44) 
adgpu

>  <m_score__min__energy>  (44) 
-9.8300000000000001

>  <m_primary>  (44) 
energy

$$$$
44:0
     RDKit          3D

 45 47  0  0  0  0  0  0  0  0999 V2000
   -0.6370   20.6913  -25.7360 H   0  0  0  0  0  0  0  0  0  0  0  0
   -1.1970   21.2990  -26.4620 C   0  0  0  0  0  0  0  0  0  0  0  0
   -1.8740   20.6800  -27.5160 C   0  0  0  0  0  0  0  0  0  0  0  0
   -1.8438   19.5854  -27.6206 H   0  0  0  0  0  0  0  0  0  0  0  0
   -2.5890   21.4490  -28.4370 C   0  0  0  0  0  0  0  0  0  0  0  0
   -3.1145   20.9589  -29.2698 H   0  0  0  0  0  0  0  0  0  0  0  0
   -2.6390   22.8460  -28.3030 C   0  0  0  0  0  0  0  0  0  0  0  0
   -3.3760   23.6700  -29.2840 C   0  0  0  0  0  0  0  0  0  0  0  0
   -3.0030   24.9240  -29.7160 C   0  0  0  0  0  0  0  0  0  0  0  0
   -1.8840   25.6330  -29.2920 O   0  0  0  0  0  0  0  0  0  0  0  0
   -3.8680   25.3790  -30.6380 N   0  0  0  0  0  0  0  0  0  0  0  0
   -4.7700   24.3790  -30.7590 C   0  0  0  0  0  0  0  0  0  0  0  0
   -5.7640   24.4750  -31.6010 N   0  0  0  0  0  0  0  0  0  0  0  0
   -6.7550   23.4880  -31.9030 C   0  0  0  0  0  0  0  0  0  0  0  0
   -7.9760   23.8070  -31.8230 O   0  0  0  0  0  0  0  0  0  0  0  0
   -6.3670   22.1360  -32.3780 C   0  0  0  0  0  0  0  0  0  0  0  0
   -7.3180   21.1040  -32.4380 C   0  0  0  0  0  0  0  0  0  0  0  0
   -8.3528   21.2966  -32.1184 H   0  0  0  0  0  0  0  0  0  0  0  0
   -6.9600   19.8330  -32.9010 C   0  0  0  0  0  0  0  0  0  0  0  0
   -7.7129   19.0316  -32.9317 H   0  0  0  0  0  0  0  0  0  0  0  0
   -5.6470   19.5720  -33.3270 C   0  0  0  0  0  0  0  0  0  0  0  0
   -5.2490   18.2750  -33.8140 N   0  0  0  0  0  0  0  0  0  0  0  0
   -4.5350   18.2370  -34.5770 H   0  0  0  0  0  0  0  0  0  0  0  0
   -5.8740   17.0380  -33.4300 C   0  0  0  0  0  0  0  0  0  0  0  0
   -6.8980   17.0300  -32.6940 O   0  0  0  0  0  0  0  0  0  0  0  0
   -5.3100   15.7370  -33.9160 C   0  0  0  0  0  0  0  0  0  0  0  0
   -4.5417   15.9383  -34.6771 H   0  0  0  0  0  0  0  0  0  0  0  0
   -6.1252   15.1367  -34.3462 H   0  0  0  0  0  0  0  0  0  0  0  0
   -4.6830   14.9590  -32.7660 C   0  0  0  0  0  0  0  0  0  0  0  0
   -5.0233   15.3813  -31.8090 H   0  0  0  0  0  0  0  0  0  0  0  0
   -4.9858   13.9034  -32.8293 H   0  0  0  0  0  0  0  0  0  0  0  0
   -3.5872   15.0306  -32.8293 H   0  0  0  0  0  0  0  0  0  0  0  0
   -4.6890   20.5880  -33.2220 C   0  0  0  0  0  0  0  0  0  0  0  0
   -3.6465   20.3842  -33.5076 H   0  0  0  0  0  0  0  0  0  0  0  0
   -5.0430   21.8590  -32.7580 C   0  0  0  0  0  0  0  0  0  0  0  0
   -4.2792   22.6476  -32.6901 H   0  0  0  0  0  0  0  0  0  0  0  0
   -4.5130   23.3210  -29.9330 N   0  0  0  0  0  0  0  0  0  0  0  0
   -5.3080   22.1090  -29.7030 C   0  0  0  0  0  0  0  0  0  0  0  0
   -5.4175   21.9421  -28.6213 H   0  0  0  0  0  0  0  0  0  0  0  0
   -6.3022   22.2309  -30.1577 H   0  0  0  0  0  0  0  0  0  0  0  0
   -4.8002   21.2456  -30.1577 H   0  0  0  0  0  0  0  0  0  0  0  0
   -1.9450   23.4600  -27.2490 C   0  0  0  0  0  0  0  0  0  0  0  0
   -1.9635   24.5550  -27.1462 H   0  0  0  0  0  0  0  0  0  0  0  0
   -1.2310   22.6880  -26.3300 C   0  0  0  0  0  0  0  0  0  0  0  0
   -0.6952   23.1748  -25.5018 H   0  0  0  0  0  0  0  0  0  0  0  0
  1  2  1  0
  2  3  2  0
  3  4  1  0
  3  5  1  0
  5  6  1  0
  5  7  2  0
  7  8  1  0
  8  9  2  0
  9 10  1  0
  9 11  1  0
 11 12  1  0
 12 13  2  0
 13 14  1  0
 14 15  2  0
 14 16  1  0
 16 17  2  0
 17 18  1  0
 17 19  1  0
 19 20  1  0
 19 21  2  0
 21 22  1  0
 22 23  1  0
 22 24  1  0
 24 25  2  0
 24 26  1  0
 26 27  1  0
 26 28  1  0
 26 29  1  0
 29 30  1  0
 29 31  1  0
 29 32  1  0
 21 33  1  0
 33 34  1  0
 33 35  2  0
 35 36  1  0
 12 37  1  0
 37 38  1  0
 38 39  1  0
 38 40  1  0
 38 41  1  0
  7 42  1  0
 42 43  1  0
 42 44  2  0
 44 45  1  0
 44  2  1  0
 37  8  1  0
 35 16  1  0
M  CHG  2  10  -1  11  -1
M  END
>  <UniqueID>  (45) 
42

>  <SMILES>  (45) 
CCC(=O)Nc1ccc(C(=O)/N=c2/[n-]c([O-])c(-c3ccccc3)n2C)cc1

>  <Energy>  (45) 
97.33288584491049

>  <Genealogy>  (45) 
CCC(=O)Nc1ccc(C(=O)N=c2[n-]c([O-])c(-c3ccccc3)n2C)cc1 (protonated)
CCC(=O)Nc1ccc(C(=O)/N=c2/[n-]c([O-])c(-c3ccccc3)n2C)cc1 (cis-trans isomerization)
CCC(=O)Nc1ccc(C(=O)/N=c2/[n-]c([O-])c(-c3ccccc3)n2C)cc1 (3D coordinates assigned)
CCC(=O)Nc1ccc(C(=O)/N=c2/[n-]c([O-])c(-c3ccccc3)n2C)cc1 (optimized conformer: 97.33288584491049 kcal/mol)

>  <smiles>  (45) 
CCC(=O)Nc1ccc(C(=O)N=c2[nH]c(O)c(-c3ccccc3)n2C)cc1

>  <score_type>  (45) 
oracle

>  <origin>  (45) 
adgpu

>  <m_score__min__energy>  (45) 
-11.74

>  <m_primary>  (45) 
energy

$$$$
45:0
     RDKit          3D

 48 50  0  0  0  0  0  0  0  0999 V2000
   -2.7280   18.8290  -25.7380 C   0  0  0  0  0  0  0  0  0  0  0  0
   -2.3410   19.9260  -26.6840 C   0  0  0  0  0  0  0  0  0  0  0  0
   -1.3500   20.8540  -26.3250 C   0  0  0  0  0  0  0  0  0  0  0  0
   -1.0320   21.9100  -27.1840 C   0  0  0  0  0  0  0  0  0  0  0  0
   -1.7080   22.0580  -28.4010 C   0  0  0  0  0  0  0  0  0  0  0  0
   -1.3410   23.4310  -29.4440 S   0  0  0  0  0  0  0  0  0  0  0  0
   -0.1640   24.1720  -28.8770 O   0  0  0  0  0  0  0  0  0  0  0  0
   -1.0060   22.9710  -30.8350 O   0  0  0  0  0  0  0  0  0  0  0  0
   -2.7100   24.4940  -29.5130 N   0  0  0  0  0  0  0  0  0  0  0  0
   -3.9020   24.2450  -30.2720 C   0  0  0  0  0  0  0  0  0  0  0  0
   -4.8310   25.2810  -30.4250 C   0  0  0  0  0  0  0  0  0  0  0  0
   -6.0220   25.0660  -31.1240 C   0  0  0  0  0  0  0  0  0  0  0  0
   -6.2950   23.8110  -31.6760 C   0  0  0  0  0  0  0  0  0  0  0  0
   -5.3680   22.7690  -31.5400 C   0  0  0  0  0  0  0  0  0  0  0  0
   -5.6520   21.4690  -32.0910 N   0  0  0  0  0  0  0  0  0  0  0  0
   -4.7490   20.8830  -32.9510 C   0  0  0  0  0  0  0  0  0  0  0  0
   -3.4610   21.5750  -33.3280 C   0  0  0  0  0  0  0  0  0  0  0  0
   -5.0250   19.6250  -33.5060 C   0  0  0  0  0  0  0  0  0  0  0  0
   -6.2120   18.9650  -33.1840 C   0  0  0  0  0  0  0  0  0  0  0  0
   -6.5180   17.6100  -33.7510 C   0  0  0  0  0  0  0  0  0  0  0  0
   -7.1100   19.5670  -32.3020 C   0  0  0  0  0  0  0  0  0  0  0  0
   -6.8280   20.8310  -31.7650 C   0  0  0  0  0  0  0  0  0  0  0  0
   -7.8300   21.4620  -30.8290 C   0  0  0  0  0  0  0  0  0  0  0  0
   -4.1690   22.9910  -30.8500 C   0  0  0  0  0  0  0  0  0  0  0  0
   -2.7030   21.1370  -28.7580 C   0  0  0  0  0  0  0  0  0  0  0  0
   -3.0230   20.0820  -27.8990 C   0  0  0  0  0  0  0  0  0  0  0  0
   -2.6050   19.1778  -24.7020 H   0  0  0  0  0  0  0  0  0  0  0  0
   -3.7785   18.5510  -25.9090 H   0  0  0  0  0  0  0  0  0  0  0  0
   -2.0845   17.9534  -25.9090 H   0  0  0  0  0  0  0  0  0  0  0  0
   -0.8226   20.7497  -25.3653 H   0  0  0  0  0  0  0  0  0  0  0  0
   -0.2473   22.6277  -26.9025 H   0  0  0  0  0  0  0  0  0  0  0  0
   -4.6223   26.2706  -29.9923 H   0  0  0  0  0  0  0  0  0  0  0  0
   -6.7460   25.8860  -31.2400 H   0  0  0  0  0  0  0  0  0  0  0  0
   -7.2376   23.6414  -32.2171 H   0  0  0  0  0  0  0  0  0  0  0  0
   -2.9201   21.8656  -32.4153 H   0  0  0  0  0  0  0  0  0  0  0  0
   -2.8372   20.8906  -33.9217 H   0  0  0  0  0  0  0  0  0  0  0  0
   -3.6874   22.4730  -33.9217 H   0  0  0  0  0  0  0  0  0  0  0  0
   -4.3059   19.1583  -34.1952 H   0  0  0  0  0  0  0  0  0  0  0  0
   -6.6791   16.8966  -32.9294 H   0  0  0  0  0  0  0  0  0  0  0  0
   -7.4257   17.6679  -34.3697 H   0  0  0  0  0  0  0  0  0  0  0  0
   -5.6735   17.2722  -34.3697 H   0  0  0  0  0  0  0  0  0  0  0  0
   -8.0408   19.0490  -32.0275 H   0  0  0  0  0  0  0  0  0  0  0  0
   -7.5292   21.2726  -29.7880 H   0  0  0  0  0  0  0  0  0  0  0  0
   -7.8669   22.5466  -31.0084 H   0  0  0  0  0  0  0  0  0  0  0  0
   -8.8241   21.0266  -31.0084 H   0  0  0  0  0  0  0  0  0  0  0  0
   -3.4319   22.1795  -30.7598 H   0  0  0  0  0  0  0  0  0  0  0  0
   -3.2328   21.2450  -29.7160 H   0  0  0  0  0  0  0  0  0  0  0  0
   -3.8141   19.3703  -28.1776 H   0  0  0  0  0  0  0  0  0  0  0  0
  1  2  1  0
  2  3  2  0
  3  4  1  0
  4  5  2  0
  5  6  1  0
  6  7  2  0
  6  8  2  0
  6  9  1  0
  9 10  1  0
 10 11  2  0
 11 12  1  0
 12 13  2  0
 13 14  1  0
 14 15  1  0
 15 16  2  0
 16 17  1  0
 16 18  1  0
 18 19  2  0
 19 20  1  0
 19 21  1  0
 21 22  2  0
 22 23  1  0
 14 24  2  0
  5 25  1  0
 25 26  2  0
 26  2  1  0
 24 10  1  0
 22 15  1  0
  1 27  1  0
  1 28  1  0
  1 29  1  0
  3 30  1  0
  4 31  1  0
 11 32  1  0
 12 33  1  0
 13 34  1  0
 17 35  1  0
 17 36  1  0
 17 37  1  0
 18 38  1  0
 20 39  1  0
 20 40  1  0
 20 41  1  0
 21 42  1  0
 23 43  1  0
 23 44  1  0
 23 45  1  0
 24 46  1  0
 25 47  1  0
 26 48  1  0
M  CHG  2   9  -1  15   1
M  END
>  <UniqueID>  (46) 
43

>  <SMILES>  (46) 
Cc1ccc(S(=O)(=O)[N-]c2cccc(-[n+]3c(C)cc(C)cc3C)c2)cc1

>  <Energy>  (46) 
59.12618144397903

>  <Genealogy>  (46) 
Cc1ccc(S(=O)(=O)[N-]c2cccc(-[n+]3c(C)cc(C)cc3C)c2)cc1 (protonated)
Cc1ccc(S(=O)(=O)[N-]c2cccc(-[n+]3c(C)cc(C)cc3C)c2)cc1 (3D coordinates assigned)
Cc1ccc(S(=O)(=O)[N-]c2cccc(-[n+]3c(C)cc(C)cc3C)c2)cc1 (optimized conformer: 59.12618144397903 kcal/mol)

>  <smiles>  (46) 
Cc1ccc(S(=O)(=O)Nc2cccc(-[n+]3c(C)cc(C)cc3C)c2)cc1

>  <score_type>  (46) 
oracle

>  <origin>  (46) 
adgpu

>  <m_score__min__energy>  (46) 
-9.8399999999999999

>  <m_primary>  (46) 
energy

$$$$
46:0
     RDKit          3D

 42 45  0  0  0  0  0  0  0  0999 V2000
   -1.2010   26.4170  -29.7090 H   0  0  0  0  0  0  0  0  0  0  0  0
   -1.2310   26.4470  -28.6650 N   0  0  0  0  0  0  0  0  0  0  0  0
   -0.9020   24.8450  -28.1060 S   0  0  0  0  0  0  0  0  0  0  0  0
   -1.4340   24.6850  -26.7090 O   0  0  0  0  0  0  0  0  0  0  0  0
    0.5830   24.6140  -28.0850 O   0  0  0  0  0  0  0  0  0  0  0  0
   -1.6730   23.6790  -29.1770 C   0  0  0  0  0  0  0  0  0  0  0  0
   -2.9450   23.9410  -29.7030 C   0  0  0  0  0  0  0  0  0  0  0  0
   -3.4591   24.8804  -29.4516 H   0  0  0  0  0  0  0  0  0  0  0  0
   -3.5630   23.0130  -30.5460 C   0  0  0  0  0  0  0  0  0  0  0  0
   -4.5528   23.2340  -30.9720 H   0  0  0  0  0  0  0  0  0  0  0  0
   -2.9240   21.7970  -30.8520 C   0  0  0  0  0  0  0  0  0  0  0  0
   -3.5020   20.8320  -31.7470 N   0  0  0  0  0  0  0  0  0  0  0  0
   -4.7590   20.6860  -32.0600 C   0  0  0  0  0  0  0  0  0  0  0  0
   -5.7110   21.4220  -31.4210 N   0  0  0  0  0  0  0  0  0  0  0  0
   -7.0350   21.2440  -31.6540 C   0  0  0  0  0  0  0  0  0  0  0  0
   -7.9880   22.0210  -30.9870 C   0  0  0  0  0  0  0  0  0  0  0  0
   -7.6677   22.7932  -30.2720 H   0  0  0  0  0  0  0  0  0  0  0  0
   -9.3500   21.8130  -31.2320 C   0  0  0  0  0  0  0  0  0  0  0  0
  -10.1014   22.4235  -30.7097 H   0  0  0  0  0  0  0  0  0  0  0  0
   -9.7580   20.8290  -32.1410 C   0  0  0  0  0  0  0  0  0  0  0  0
  -10.8295   20.6678  -32.3306 H   0  0  0  0  0  0  0  0  0  0  0  0
   -8.8060   20.0500  -32.8090 C   0  0  0  0  0  0  0  0  0  0  0  0
   -9.1280   19.2774  -33.5228 H   0  0  0  0  0  0  0  0  0  0  0  0
   -7.4430   20.2570  -32.5660 C   0  0  0  0  0  0  0  0  0  0  0  0
   -6.5040   19.5160  -33.2050 N   0  0  0  0  0  0  0  0  0  0  0  0
   -5.1710   19.6990  -33.0030 C   0  0  0  0  0  0  0  0  0  0  0  0
   -4.3500   18.9350  -33.6750 N   0  0  0  0  0  0  0  0  0  0  0  0
   -2.9190   19.0000  -33.7390 C   0  0  0  0  0  0  0  0  0  0  0  0
   -2.1310   17.9400  -33.2590 C   0  0  0  0  0  0  0  0  0  0  0  0
   -2.6122   17.0406  -32.8473 H   0  0  0  0  0  0  0  0  0  0  0  0
   -0.7360   18.0270  -33.3040 C   0  0  0  0  0  0  0  0  0  0  0  0
   -0.1214   17.1879  -32.9459 H   0  0  0  0  0  0  0  0  0  0  0  0
   -0.1210   19.1800  -33.8040 C   0  0  0  0  0  0  0  0  0  0  0  0
    1.6290   19.2880  -33.8620 Cl  0  0  0  0  0  0  0  0  0  0  0  0
   -0.9040   20.2510  -34.2500 C   0  0  0  0  0  0  0  0  0  0  0  0
   -0.4214   21.1615  -34.6348 H   0  0  0  0  0  0  0  0  0  0  0  0
   -2.2990   20.1650  -34.2070 C   0  0  0  0  0  0  0  0  0  0  0  0
   -2.9113   21.0153  -34.5419 H   0  0  0  0  0  0  0  0  0  0  0  0
   -1.6420   21.5530  -30.3450 C   0  0  0  0  0  0  0  0  0  0  0  0
   -1.1171   20.6240  -30.6125 H   0  0  0  0  0  0  0  0  0  0  0  0
   -1.0240   22.4800  -29.5020 C   0  0  0  0  0  0  0  0  0  0  0  0
   -0.0254   22.2683  -29.0922 H   0  0  0  0  0  0  0  0  0  0  0  0
  1  2  1  0
  2  3  1  0
  3  4  2  0
  3  5  2  0
  3  6  1  0
  6  7  2  0
  7  8  1  0
  7  9  1  0
  9 10  1  0
  9 11  2  0
 11 12  1  0
 12 13  2  3
 13 14  1  0
 14 15  1  0
 15 16  2  0
 16 17  1  0
 16 18  1  0
 18 19  1  0
 18 20  2  0
 20 21  1  0
 20 22  1  0
 22 23  1  0
 22 24  2  0
 24 25  1  0
 25 26  1  0
 26 27  2  0
 27 28  1  0
 28 29  2  0
 29 30  1  0
 29 31  1  0
 31 32  1  0
 31 33  2  0
 33 34  1  0
 33 35  1  0
 35 36  1  0
 35 37  2  0
 37 38  1  0
 11 39  1  0
 39 40  1  0
 39 41  2  0
 41 42  1  0
 41  6  1  0
 26 13  1  0
 37 28  1  0
 24 15  1  0
M  CHG  3   2  -1  14  -1  25  -1
M  END
>  <UniqueID>  (47) 
44

>  <SMILES>  (47) 
[NH-]S(=O)(=O)c1ccc(N=c2[n-]c3ccccc3[n-]/c2=N/c2ccc(Cl)cc2)cc1

>  <Energy>  (47) 
69.78751966396071

>  <Genealogy>  (47) 
[NH-]S(=O)(=O)c1ccc(N=c2[n-]c3ccccc3[n-]c2=Nc2ccc(Cl)cc2)cc1 (protonated)
[NH-]S(=O)(=O)c1ccc(N=c2[n-]c3ccccc3[n-]/c2=N/c2ccc(Cl)cc2)cc1 (cis-trans isomerization)
[NH-]S(=O)(=O)c1ccc(N=c2[n-]c3ccccc3[n-]/c2=N/c2ccc(Cl)cc2)cc1 (3D coordinates assigned)
[NH-]S(=O)(=O)c1ccc(N=c2[n-]c3ccccc3[n-]/c2=N/c2ccc(Cl)cc2)cc1 (optimized conformer: 69.78751966396071 kcal/mol)

>  <smiles>  (47) 
NS(=O)(=O)c1ccc(N=c2[nH]c3ccccc3[nH]c2=Nc2ccc(Cl)cc2)cc1

>  <score_type>  (47) 
oracle

>  <origin>  (47) 
adgpu

>  <m_score__min__energy>  (47) 
-11.24

>  <m_primary>  (47) 
energy

$$$$
47:0
     RDKit          3D

 53 56  0  0  0  0  0  0  0  0999 V2000
   -8.9690   21.0300  -31.9580 C   0  0  0  0  0  0  0  0  0  0  0  0
   -8.8210   22.2770  -31.2880 O   0  0  0  0  0  0  0  0  0  0  0  0
   -7.5920   22.9170  -31.0710 C   0  0  0  0  0  0  0  0  0  0  0  0
   -6.9470   23.5070  -32.1640 C   0  0  0  0  0  0  0  0  0  0  0  0
   -5.7270   24.1690  -31.9980 C   0  0  0  0  0  0  0  0  0  0  0  0
   -5.1310   24.2460  -30.7280 C   0  0  0  0  0  0  0  0  0  0  0  0
   -3.8950   24.9410  -30.5040 N   0  0  0  0  0  0  0  0  0  0  0  0
   -2.7190   24.5230  -29.2990 S   0  0  0  0  0  0  0  0  0  0  0  0
   -3.3790   24.5720  -27.9490 O   0  0  0  0  0  0  0  0  0  0  0  0
   -1.6100   25.5360  -29.3410 O   0  0  0  0  0  0  0  0  0  0  0  0
   -2.0390   22.9170  -29.6180 C   0  0  0  0  0  0  0  0  0  0  0  0
   -2.6400   22.1150  -30.6030 C   0  0  0  0  0  0  0  0  0  0  0  0
   -2.1640   20.8250  -30.8750 C   0  0  0  0  0  0  0  0  0  0  0  0
   -2.7950   19.9740  -31.9060 C   0  0  0  0  0  0  0  0  0  0  0  0
   -2.1210   19.0650  -32.5890 O   0  0  0  0  0  0  0  0  0  0  0  0
   -2.9510   18.4890  -33.4240 C   0  0  0  0  0  0  0  0  0  0  0  0
   -2.6660   17.4800  -34.3390 C   0  0  0  0  0  0  0  0  0  0  0  0
   -3.7220   16.9960  -35.1510 C   0  0  0  0  0  0  0  0  0  0  0  0
   -3.5310   15.9830  -36.1010 O   0  0  0  0  0  0  0  0  0  0  0  0
   -2.3750   15.1550  -36.1700 C   0  0  0  0  0  0  0  0  0  0  0  0
   -5.0190   17.5460  -35.0100 C   0  0  0  0  0  0  0  0  0  0  0  0
   -5.2730   18.5650  -34.0750 C   0  0  0  0  0  0  0  0  0  0  0  0
   -4.2080   19.0140  -33.2950 C   0  0  0  0  0  0  0  0  0  0  0  0
   -4.1380   19.9710  -32.3030 C   0  0  0  0  0  0  0  0  0  0  0  0
   -5.2730   20.7890  -31.7660 C   0  0  0  0  0  0  0  0  0  0  0  0
   -1.0380   20.3540  -30.1880 C   0  0  0  0  0  0  0  0  0  0  0  0
   -0.4170   21.1470  -29.2230 C   0  0  0  0  0  0  0  0  0  0  0  0
   -0.8980   22.4350  -28.9330 C   0  0  0  0  0  0  0  0  0  0  0  0
   -0.1970   23.2520  -27.8800 C   0  0  0  0  0  0  0  0  0  0  0  0
   -5.7690   23.6470  -29.6360 C   0  0  0  0  0  0  0  0  0  0  0  0
   -6.9910   22.9890  -29.8010 C   0  0  0  0  0  0  0  0  0  0  0  0
   -9.0647   20.2240  -31.2156 H   0  0  0  0  0  0  0  0  0  0  0  0
   -9.8702   21.0570  -32.5881 H   0  0  0  0  0  0  0  0  0  0  0  0
   -8.0865   20.8453  -32.5881 H   0  0  0  0  0  0  0  0  0  0  0  0
   -7.4042   23.4493  -33.1628 H   0  0  0  0  0  0  0  0  0  0  0  0
   -5.2319   24.6313  -32.8647 H   0  0  0  0  0  0  0  0  0  0  0  0
   -3.4979   22.5059  -31.1698 H   0  0  0  0  0  0  0  0  0  0  0  0
   -1.6495   17.0695  -34.4295 H   0  0  0  0  0  0  0  0  0  0  0  0
   -2.0364   14.9125  -35.1519 H   0  0  0  0  0  0  0  0  0  0  0  0
   -2.6207   14.2262  -36.7057 H   0  0  0  0  0  0  0  0  0  0  0  0
   -1.5747   15.6865  -36.7057 H   0  0  0  0  0  0  0  0  0  0  0  0
   -5.8389   17.1711  -35.6403 H   0  0  0  0  0  0  0  0  0  0  0  0
   -6.2796   18.9942  -33.9625 H   0  0  0  0  0  0  0  0  0  0  0  0
   -5.2492   20.7719  -30.6664 H   0  0  0  0  0  0  0  0  0  0  0  0
   -5.1763   21.8264  -32.1187 H   0  0  0  0  0  0  0  0  0  0  0  0
   -6.2266   20.3692  -32.1187 H   0  0  0  0  0  0  0  0  0  0  0  0
   -0.6410   19.3526  -30.4108 H   0  0  0  0  0  0  0  0  0  0  0  0
    0.4594   20.7596  -28.6828 H   0  0  0  0  0  0  0  0  0  0  0  0
   -0.4985   22.9006  -26.8822 H   0  0  0  0  0  0  0  0  0  0  0  0
    0.8914   23.1413  -27.9943 H   0  0  0  0  0  0  0  0  0  0  0  0
   -0.4718   24.3110  -27.9943 H   0  0  0  0  0  0  0  0  0  0  0  0
   -5.3050   23.6944  -28.6398 H   0  0  0  0  0  0  0  0  0  0  0  0
   -7.4849   22.5255  -28.9343 H   0  0  0  0  0  0  0  0  0  0  0  0
  1  2  1  0
  2  3  1  0
  3  4  2  0
  4  5  1  0
  5  6  2  0
  6  7  1  0
  7  8  1  0
  8  9  2  0
  8 10  2  0
  8 11  1  0
 11 12  2  0
 12 13  1  0
 13 14  1  0
 14 15  1  0
 15 16  1  0
 16 17  2  0
 17 18  1  0
 18 19  1  0
 19 20  1  0
 18 21  2  0
 21 22  1  0
 22 23  2  0
 23 24  1  0
 24 25  1  0
 13 26  2  0
 26 27  1  0
 27 28  2  0
 28 29  1  0
  6 30  1  0
 30 31  2  0
 31  3  1  0
 28 11  1  0
 24 14  2  0
 23 16  1  0
  1 32  1  0
  1 33  1  0
  1 34  1  0
  4 35  1  0
  5 36  1  0
 12 37  1  0
 17 38  1  0
 20 39  1  0
 20 40  1  0
 20 41  1  0
 21 42  1  0
 22 43  1  0
 25 44  1  0
 25 45  1  0
 25 46  1  0
 26 47  1  0
 27 48  1  0
 29 49  1  0
 29 50  1  0
 29 51  1  0
 30 52  1  0
 31 53  1  0
M  CHG  1   7  -1
M  END
>  <UniqueID>  (48) 
45

>  <SMILES>  (48) 
COc1ccc([N-]S(=O)(=O)c2cc(-c3oc4cc(OC)ccc4c3C)ccc2C)cc1

>  <Energy>  (48) 
95.47366954888565

>  <Genealogy>  (48) 
COc1ccc([N-]S(=O)(=O)c2cc(-c3oc4cc(OC)ccc4c3C)ccc2C)cc1 (protonated)
COc1ccc([N-]S(=O)(=O)c2cc(-c3oc4cc(OC)ccc4c3C)ccc2C)cc1 (3D coordinates assigned)
COc1ccc([N-]S(=O)(=O)c2cc(-c3oc4cc(OC)ccc4c3C)ccc2C)cc1 (optimized conformer: 95.47366954888565 kcal/mol)

>  <smiles>  (48) 
COc1ccc(NS(=O)(=O)c2cc(-c3oc4cc(OC)ccc4c3C)ccc2C)cc1

>  <score_type>  (48) 
oracle

>  <origin>  (48) 
adgpu

>  <m_score__min__energy>  (48) 
-10.539999999999999

>  <m_primary>  (48) 
energy

$$$$
48:0
     RDKit          3D

 35 37  0  0  0  0  0  0  0  0999 V2000
   -8.9810   19.2350  -33.4870 H   0  0  0  0  0  0  0  0  0  0  0  0
   -8.3900   19.8150  -32.8490 N   0  0  0  0  0  0  0  0  0  0  0  0
   -7.0970   19.8620  -32.9440 C   0  0  0  0  0  0  0  0  0  0  0  0
   -6.4300   19.1240  -33.9300 C   0  0  0  0  0  0  0  0  0  0  0  0
   -6.9986   18.4987  -34.6341 H   0  0  0  0  0  0  0  0  0  0  0  0
   -5.0420   19.1880  -34.0120 C   0  0  0  0  0  0  0  0  0  0  0  0
   -4.5135   18.6123  -34.7861 H   0  0  0  0  0  0  0  0  0  0  0  0
   -4.3130   19.9810  -33.1150 C   0  0  0  0  0  0  0  0  0  0  0  0
   -2.8320   19.9730  -33.1900 C   0  0  0  0  0  0  0  0  0  0  0  0
   -2.1120   21.1340  -33.5030 C   0  0  0  0  0  0  0  0  0  0  0  0
   -2.6465   22.0744  -33.7028 H   0  0  0  0  0  0  0  0  0  0  0  0
   -0.7560   21.1000  -33.5600 N   0  0  0  0  0  0  0  0  0  0  0  0
   -0.0750   19.9510  -33.3150 C   0  0  0  0  0  0  0  0  0  0  0  0
    1.0235   19.9405  -33.3724 H   0  0  0  0  0  0  0  0  0  0  0  0
   -0.7490   18.8140  -32.9990 N   0  0  0  0  0  0  0  0  0  0  0  0
   -2.1050   18.8040  -32.9280 C   0  0  0  0  0  0  0  0  0  0  0  0
   -2.6339   17.8763  -32.6643 H   0  0  0  0  0  0  0  0  0  0  0  0
   -5.0220   20.7320  -32.1430 C   0  0  0  0  0  0  0  0  0  0  0  0
   -4.3270   21.6550  -31.2140 C   0  0  0  0  0  0  0  0  0  0  0  0
   -3.4540   21.1490  -30.2380 C   0  0  0  0  0  0  0  0  0  0  0  0
   -3.2866   20.0645  -30.1621 H   0  0  0  0  0  0  0  0  0  0  0  0
   -2.7980   22.0160  -29.3640 C   0  0  0  0  0  0  0  0  0  0  0  0
   -2.1212   21.6118  -28.5968 H   0  0  0  0  0  0  0  0  0  0  0  0
   -2.9970   23.3950  -29.4590 C   0  0  0  0  0  0  0  0  0  0  0  0
   -2.4768   24.0732  -28.7666 H   0  0  0  0  0  0  0  0  0  0  0  0
   -3.8620   23.9200  -30.4390 C   0  0  0  0  0  0  0  0  0  0  0  0
   -4.0940   25.2980  -30.5730 O   0  0  0  0  0  0  0  0  0  0  0  0
   -5.3750   25.9110  -30.4750 C   0  0  0  0  0  0  0  0  0  0  0  0
   -5.6406   26.0381  -29.4151 H   0  0  0  0  0  0  0  0  0  0  0  0
   -5.3495   26.8945  -30.9671 H   0  0  0  0  0  0  0  0  0  0  0  0
   -6.1249   25.2741  -30.9671 H   0  0  0  0  0  0  0  0  0  0  0  0
   -4.5190   23.0450  -31.3150 C   0  0  0  0  0  0  0  0  0  0  0  0
   -5.3670   23.5500  -32.2470 F   0  0  0  0  0  0  0  0  0  0  0  0
   -6.3850   20.6420  -32.0840 N   0  0  0  0  0  0  0  0  0  0  0  0
   -6.9030   21.2050  -31.3710 H   0  0  0  0  0  0  0  0  0  0  0  0
  1  2  1  0
  2  3  2  0
  3  4  1  0
  4  5  1  0
  4  6  2  0
  6  7  1  0
  6  8  1  0
  8  9  1  0
  9 10  2  0
 10 11  1  0
 10 12  1  0
 12 13  2  0
 13 14  1  0
 13 15  1  0
 15 16  2  0
 16 17  1  0
  8 18  2  0
 18 19  1  0
 19 20  2  0
 20 21  1  0
 20 22  1  0
 22 23  1  0
 22 24  2  0
 24 25  1  0
 24 26  1  0
 26 27  1  0
 27 28  1  0
 28 29  1  0
 28 30  1  0
 28 31  1  0
 26 32  2  0
 32 33  1  0
 18 34  1  0
 34 35  1  0
 34  3  1  0
 16  9  1  0
 32 19  1  0
M  END
>  <UniqueID>  (49) 
46

>  <SMILES>  (49) 
[H]/N=c1\ccc(-c2cncnc2)c(-c2cccc(OC)c2F)[nH]1

>  <Energy>  (49) 
52.5878835964106

>  <Genealogy>  (49) 
[H]/N=c1\ccc(-c2cncnc2)c(-c2cccc(OC)c2F)[nH]1 (cis-trans isomerization)
[H]/N=c1\ccc(-c2cncnc2)c(-c2cccc(OC)c2F)[nH]1 (3D coordinates assigned)
[H]/N=c1\ccc(-c2cncnc2)c(-c2cccc(OC)c2F)[nH]1 (optimized conformer: 52.5878835964106 kcal/mol)

>  <smiles>  (49) 
COc1cccc(-c2[nH]c(=N)ccc2-c2cncnc2)c1F

>  <score_type>  (49) 
oracle

>  <origin>  (49) 
adgpu

>  <m_score__min__energy>  (49) 
-6.9100000000000001

>  <m_primary>  (49) 
energy

$$$$
49:0
     RDKit          3D

 40 42  0  0  0  0  0  0  0  0999 V2000
   -7.2690   14.5610  -34.6090 C   0  0  0  0  0  0  0  0  0  0  0  0
   -5.5900   15.0410  -34.0950 S   0  0  0  0  0  0  0  0  0  0  0  0
   -6.0480   16.7450  -33.7660 C   0  0  0  0  0  0  0  0  0  0  0  0
   -6.8680   17.0520  -32.6750 C   0  0  0  0  0  0  0  0  0  0  0  0
   -7.2270   18.3790  -32.4200 C   0  0  0  0  0  0  0  0  0  0  0  0
   -6.7810   19.4100  -33.2680 C   0  0  0  0  0  0  0  0  0  0  0  0
   -7.1060   20.7540  -33.0370 O   0  0  0  0  0  0  0  0  0  0  0  0
   -6.2730   21.6990  -32.4150 C   0  0  0  0  0  0  0  0  0  0  0  0
   -4.8920   21.4770  -32.2740 C   0  0  0  0  0  0  0  0  0  0  0  0
   -4.0840   22.4240  -31.6410 C   0  0  0  0  0  0  0  0  0  0  0  0
   -4.6360   23.6110  -31.1460 C   0  0  0  0  0  0  0  0  0  0  0  0
   -3.7720   24.5440  -30.4730 N   0  0  0  0  0  0  0  0  0  0  0  0
   -3.0370   24.3110  -29.4250 C   0  0  0  0  0  0  0  0  0  0  0  0
   -3.0840   23.1140  -28.7790 N   0  0  0  0  0  0  0  0  0  0  0  0
   -2.3370   22.8810  -27.6690 C   0  0  0  0  0  0  0  0  0  0  0  0
   -1.5160   23.8920  -27.1510 C   0  0  0  0  0  0  0  0  0  0  0  0
   -0.6370   23.6430  -25.9520 C   0  0  0  0  0  0  0  0  0  0  0  0
   -0.7830   22.3300  -25.5450 F   0  0  0  0  0  0  0  0  0  0  0  0
    0.6910   23.8740  -26.2640 F   0  0  0  0  0  0  0  0  0  0  0  0
   -0.9890   24.4810  -24.9080 F   0  0  0  0  0  0  0  0  0  0  0  0
   -1.4710   25.1110  -27.8400 C   0  0  0  0  0  0  0  0  0  0  0  0
   -2.2360   25.2970  -28.9470 N   0  0  0  0  0  0  0  0  0  0  0  0
   -6.0240   23.8130  -31.2380 C   0  0  0  0  0  0  0  0  0  0  0  0
   -6.8380   22.8650  -31.8730 C   0  0  0  0  0  0  0  0  0  0  0  0
   -8.2590   23.0960  -31.9620 C   0  0  0  0  0  0  0  0  0  0  0  0
   -9.3980   23.2820  -32.0340 N   0  0  0  0  0  0  0  0  0  0  0  0
   -5.9480   19.0960  -34.3490 C   0  0  0  0  0  0  0  0  0  0  0  0
   -5.5890   17.7680  -34.6030 C   0  0  0  0  0  0  0  0  0  0  0  0
   -7.8888   14.3838  -33.7176 H   0  0  0  0  0  0  0  0  0  0  0  0
   -7.7133   15.3681  -35.2100 H   0  0  0  0  0  0  0  0  0  0  0  0
   -7.2195   13.6410  -35.2100 H   0  0  0  0  0  0  0  0  0  0  0  0
   -7.2307   16.2485  -32.0171 H   0  0  0  0  0  0  0  0  0  0  0  0
   -7.8605   18.6182  -31.5532 H   0  0  0  0  0  0  0  0  0  0  0  0
   -4.4448   20.5511  -32.6649 H   0  0  0  0  0  0  0  0  0  0  0  0
   -3.0059   22.2356  -31.5307 H   0  0  0  0  0  0  0  0  0  0  0  0
   -2.3763   21.8983  -27.1762 H   0  0  0  0  0  0  0  0  0  0  0  0
   -0.8150   25.9190  -27.4839 H   0  0  0  0  0  0  0  0  0  0  0  0
   -6.4740   24.7205  -30.8091 H   0  0  0  0  0  0  0  0  0  0  0  0
   -5.5738   19.8981  -35.0021 H   0  0  0  0  0  0  0  0  0  0  0  0
   -4.9451   17.5277  -35.4618 H   0  0  0  0  0  0  0  0  0  0  0  0
  1  2  1  0
  2  3  1  0
  3  4  2  0
  4  5  1  0
  5  6  2  0
  6  7  1  0
  7  8  1  0
  8  9  2  0
  9 10  1  0
 10 11  2  0
 11 12  1  0
 12 13  2  3
 13 14  1  0
 14 15  2  0
 15 16  1  0
 16 17  1  0
 17 18  1  0
 17 19  1  0
 17 20  1  0
 16 21  2  0
 21 22  1  0
 11 23  1  0
 23 24  2  0
 24 25  1  0
 25 26  3  0
  6 27  1  0
 27 28  2  0
 28  3  1  0
 24  8  1  0
 22 13  1  0
  1 29  1  0
  1 30  1  0
  1 31  1  0
  4 32  1  0
  5 33  1  0
  9 34  1  0
 10 35  1  0
 15 36  1  0
 21 37  1  0
 23 38  1  0
 27 39  1  0
 28 40  1  0
M  CHG  1  22  -1
M  END
>  <UniqueID>  (50) 
47

>  <SMILES>  (50) 
CSc1ccc(Oc2ccc(N=c3ncc(C(F)(F)F)c[n-]3)cc2C#N)cc1

>  <Energy>  (50) 
52.416591079590475

>  <Genealogy>  (50) 
CSc1ccc(Oc2ccc(N=c3ncc(C(F)(F)F)c[n-]3)cc2C#N)cc1 (protonated)
CSc1ccc(Oc2ccc(N=c3ncc(C(F)(F)F)c[n-]3)cc2C#N)cc1 (3D coordinates assigned)
CSc1ccc(Oc2ccc(N=c3ncc(C(F)(F)F)c[n-]3)cc2C#N)cc1 (optimized conformer: 52.416591079590475 kcal/mol)

>  <smiles>  (50) 
CSc1ccc(Oc2ccc(N=c3ncc(C(F)(F)F)c[nH]3)cc2C#N)cc1

>  <score_type>  (50) 
oracle

>  <origin>  (50) 
adgpu

>  <m_score__min__energy>  (50) 
-9.75

>  <m_primary>  (50) 
energy

$$$$
