0:0
     RDKit          3D

 31 33  0  0  0  0  0  0  0  0999 V2000
    1.4670   26.8090  -22.2880 H   0  0  0  0  0  0  0  0  0  0  0  0
    0.9460   27.4060  -22.9690 N   0  0  0  0  0  0  0  0  0  0  0  0
    0.2150   26.8990  -23.9090 C   0  0  0  0  0  0  0  0  0  0  0  0
   -0.4390   27.7250  -24.7650 N   0  0  0  0  0  0  0  0  0  0  0  0
   -1.2170   27.2320  -25.7630 C   0  0  0  0  0  0  0  0  0  0  0  0
   -1.7388   27.9213  -26.4431 H   0  0  0  0  0  0  0  0  0  0  0  0
   -1.3570   25.8460  -25.9290 C   0  0  0  0  0  0  0  0  0  0  0  0
   -2.2000   25.2820  -27.0140 C   0  0  0  0  0  0  0  0  0  0  0  0
   -1.7710   25.3110  -28.3510 C   0  0  0  0  0  0  0  0  0  0  0  0
   -0.7968   25.7554  -28.6027 H   0  0  0  0  0  0  0  0  0  0  0  0
   -2.5510   24.7940  -29.3350 N   0  0  0  0  0  0  0  0  0  0  0  0
   -3.7670   24.2320  -29.0850 C   0  0  0  0  0  0  0  0  0  0  0  0
   -4.5610   23.6810  -30.2140 C   0  0  0  0  0  0  0  0  0  0  0  0
   -5.8530   24.1790  -30.4690 C   0  0  0  0  0  0  0  0  0  0  0  0
   -6.2651   24.9774  -29.8344 H   0  0  0  0  0  0  0  0  0  0  0  0
   -6.6160   23.6670  -31.5220 C   0  0  0  0  0  0  0  0  0  0  0  0
   -7.6223   24.0669  -31.7155 H   0  0  0  0  0  0  0  0  0  0  0  0
   -6.1040   22.6490  -32.3290 C   0  0  0  0  0  0  0  0  0  0  0  0
   -6.7046   22.2500  -33.1597 H   0  0  0  0  0  0  0  0  0  0  0  0
   -4.8280   22.1380  -32.0800 C   0  0  0  0  0  0  0  0  0  0  0  0
   -4.4265   21.3332  -32.7133 H   0  0  0  0  0  0  0  0  0  0  0  0
   -4.0600   22.6460  -31.0290 C   0  0  0  0  0  0  0  0  0  0  0  0
   -3.0578   22.2354  -30.8364 H   0  0  0  0  0  0  0  0  0  0  0  0
   -4.2290   24.1740  -27.7590 C   0  0  0  0  0  0  0  0  0  0  0  0
   -5.2031   23.7159  -27.5326 H   0  0  0  0  0  0  0  0  0  0  0  0
   -3.4450   24.7010  -26.7300 C   0  0  0  0  0  0  0  0  0  0  0  0
   -3.8057   24.6602  -25.6916 H   0  0  0  0  0  0  0  0  0  0  0  0
   -0.6690   25.0120  -25.0340 C   0  0  0  0  0  0  0  0  0  0  0  0
   -0.7502   23.9194  -25.1319 H   0  0  0  0  0  0  0  0  0  0  0  0
    0.0970   25.5470  -24.0470 N   0  0  0  0  0  0  0  0  0  0  0  0
    0.5950   24.9030  -23.3920 H   0  0  0  0  0  0  0  0  0  0  0  0
  1  2  1  0
  2  3  2  0
  3  4  1  0
  4  5  2  0
  5  6  1  0
  5  7  1  0
  7  8  1  0
  8  9  2  0
  9 10  1  0
  9 11  1  0
 11 12  2  0
 12 13  1  0
 13 14  2  0
 14 15  1  0
 14 16  1  0
 16 17  1  0
 16 18  2  0
 18 19  1  0
 18 20  1  0
 20 21  1  0
 20 22  2  0
 22 23  1  0
 12 24  1  0
 24 25  1  0
 24 26  2  0
 26 27  1  0
  7 28  2  0
 28 29  1  0
 28 30  1  0
 30 31  1  0
 30  3  1  0
 26  8  1  0
 22 13  1  0
M  END
>  <UniqueID>  (1) 
1

>  <SMILES>  (1) 
[H]/N=c1/ncc(-c2ccc(-c3ccccc3)nc2)c[nH]1

>  <Energy>  (1) 
44.346874600428784

>  <Genealogy>  (1) 
[H]/N=c1/ncc(-c2ccc(-c3ccccc3)nc2)c[nH]1 (cis-trans isomerization)
[H]/N=c1/ncc(-c2ccc(-c3ccccc3)nc2)c[nH]1 (3D coordinates assigned)
[H]/N=c1/ncc(-c2ccc(-c3ccccc3)nc2)c[nH]1 (optimized conformer: 44.346874600428784 kcal/mol)

>  <smiles>  (1) 
N=c1ncc(-c2ccc(-c3ccccc3)nc2)c[nH]1

>  <score_type>  (1) 
oracle

>  <origin>  (1) 
adgpu

>  <m_score__min__energy>  (1) 
-7.5

>  <m_primary>  (1) 
energy

$$$$
1:0
     RDKit          3D

 25 26  0  0  0  0  0  0  0  0999 V2000
   -5.3200   26.2380  -29.4380 H   0  0  0  0  0  0  0  0  0  0  0  0
   -5.2810   25.8220  -30.3960 N   0  0  0  0  0  0  0  0  0  0  0  0
   -5.8150   24.6740  -30.6680 C   0  0  0  0  0  0  0  0  0  0  0  0
   -5.7350   24.1590  -31.9640 C   0  0  0  0  0  0  0  0  0  0  0  0
   -5.2186   24.7243  -32.7537 H   0  0  0  0  0  0  0  0  0  0  0  0
   -6.2990   22.9560  -32.2420 N   0  0  0  0  0  0  0  0  0  0  0  0
   -6.9490   22.2310  -31.2900 C   0  0  0  0  0  0  0  0  0  0  0  0
   -7.5430   20.9180  -31.6500 C   0  0  0  0  0  0  0  0  0  0  0  0
   -8.9090   20.8360  -31.9790 C   0  0  0  0  0  0  0  0  0  0  0  0
   -9.5293   21.7443  -31.9642 H   0  0  0  0  0  0  0  0  0  0  0  0
   -9.4830   19.6110  -32.3240 C   0  0  0  0  0  0  0  0  0  0  0  0
  -10.5494   19.5612  -32.5891 H   0  0  0  0  0  0  0  0  0  0  0  0
   -8.7100   18.4500  -32.3340 C   0  0  0  0  0  0  0  0  0  0  0  0
   -9.1645   17.4903  -32.6210 H   0  0  0  0  0  0  0  0  0  0  0  0
   -7.3550   18.5040  -31.9790 C   0  0  0  0  0  0  0  0  0  0  0  0
   -6.5160   17.2590  -32.0140 C   0  0  0  0  0  0  0  0  0  0  0  0
   -6.2976   16.9350  -30.9857 H   0  0  0  0  0  0  0  0  0  0  0  0
   -7.0627   16.4631  -32.5410 H   0  0  0  0  0  0  0  0  0  0  0  0
   -5.5731   17.4670  -32.5410 H   0  0  0  0  0  0  0  0  0  0  0  0
   -6.7720   19.7380  -31.6510 C   0  0  0  0  0  0  0  0  0  0  0  0
   -5.7038   19.7846  -31.3924 H   0  0  0  0  0  0  0  0  0  0  0  0
   -7.0180   22.7480  -29.9840 C   0  0  0  0  0  0  0  0  0  0  0  0
   -7.5254   22.1782  -29.1916 H   0  0  0  0  0  0  0  0  0  0  0  0
   -6.4560   23.9540  -29.7030 N   0  0  0  0  0  0  0  0  0  0  0  0
   -6.5170   24.3200  -28.7260 H   0  0  0  0  0  0  0  0  0  0  0  0
  1  2  1  0
  2  3  2  0
  3  4  1  0
  4  5  1  0
  4  6  2  0
  6  7  1  0
  7  8  1  0
  8  9  2  0
  9 10  1  0
  9 11  1  0
 11 12  1  0
 11 13  2  0
 13 14  1  0
 13 15  1  0
 15 16  1  0
 16 17  1  0
 16 18  1  0
 16 19  1  0
 15 20  2  0
 20 21  1  0
  7 22  2  0
 22 23  1  0
 22 24  1  0
 24 25  1  0
 24  3  1  0
 20  8  1  0
M  END
>  <UniqueID>  (2) 
2

>  <SMILES>  (2) 
[H]/N=c1/cnc(-c2cccc(C)c2)c[nH]1

>  <Energy>  (2) 
30.227453227240797

>  <Genealogy>  (2) 
[H]/N=c1/cnc(-c2cccc(C)c2)c[nH]1 (cis-trans isomerization)
[H]/N=c1/cnc(-c2cccc(C)c2)c[nH]1 (3D coordinates assigned)
[H]/N=c1/cnc(-c2cccc(C)c2)c[nH]1 (optimized conformer: 30.227453227240797 kcal/mol)

>  <smiles>  (2) 
Cc1cccc(-c2c[nH]c(=N)cn2)c1

>  <score_type>  (2) 
oracle

>  <origin>  (2) 
adgpu

>  <m_score__min__energy>  (2) 
-6.7699999999999996

>  <m_primary>  (2) 
energy

$$$$
2:0
     RDKit          3D

 30 32  0  0  0  0  0  0  0  0999 V2000
   -5.4331   26.7278  -30.7642 H   0  0  0  0  0  0  0  0  0  0  0  0
   -5.1080   25.6770  -30.7750 C   0  0  0  0  0  0  0  0  0  0  0  0
   -3.8660   25.2470  -30.4700 N   0  0  0  0  0  0  0  0  0  0  0  0
   -3.8450   23.9280  -30.5990 N   0  0  0  0  0  0  0  0  0  0  0  0
   -2.6720   23.1320  -30.3430 C   0  0  0  0  0  0  0  0  0  0  0  0
   -1.8580   23.3750  -29.2200 C   0  0  0  0  0  0  0  0  0  0  0  0
   -2.1096   24.1923  -28.5282 H   0  0  0  0  0  0  0  0  0  0  0  0
   -0.7310   22.5820  -28.9800 C   0  0  0  0  0  0  0  0  0  0  0  0
   -0.0956   22.7816  -28.1046 H   0  0  0  0  0  0  0  0  0  0  0  0
   -0.4110   21.5370  -29.8500 C   0  0  0  0  0  0  0  0  0  0  0  0
    0.4788   20.9181  -29.6625 H   0  0  0  0  0  0  0  0  0  0  0  0
   -1.2210   21.2780  -30.9580 C   0  0  0  0  0  0  0  0  0  0  0  0
   -0.9707   20.4527  -31.6408 H   0  0  0  0  0  0  0  0  0  0  0  0
   -2.3500   22.0670  -31.2000 C   0  0  0  0  0  0  0  0  0  0  0  0
   -2.9906   21.8519  -32.0680 H   0  0  0  0  0  0  0  0  0  0  0  0
   -5.0760   23.5060  -30.9640 C   0  0  0  0  0  0  0  0  0  0  0  0
   -5.3880   22.2550  -31.1500 N   0  0  0  0  0  0  0  0  0  0  0  0
   -6.6900   21.7320  -31.4560 C   0  0  0  0  0  0  0  0  0  0  0  0
   -7.8290   22.1320  -30.7340 C   0  0  0  0  0  0  0  0  0  0  0  0
   -7.7375   22.8887  -29.9409 H   0  0  0  0  0  0  0  0  0  0  0  0
   -9.0770   21.5710  -31.0210 C   0  0  0  0  0  0  0  0  0  0  0  0
   -9.9680   21.9004  -30.4663 H   0  0  0  0  0  0  0  0  0  0  0  0
   -9.1940   20.5920  -32.0120 C   0  0  0  0  0  0  0  0  0  0  0  0
  -10.1779   20.1581  -32.2437 H   0  0  0  0  0  0  0  0  0  0  0  0
   -8.0600   20.1650  -32.7080 C   0  0  0  0  0  0  0  0  0  0  0  0
   -8.1508   19.3880  -33.4814 H   0  0  0  0  0  0  0  0  0  0  0  0
   -6.8090   20.7240  -32.4230 C   0  0  0  0  0  0  0  0  0  0  0  0
   -5.7140   20.2940  -33.1000 F   0  0  0  0  0  0  0  0  0  0  0  0
   -5.9110   24.6010  -31.1030 C   0  0  0  0  0  0  0  0  0  0  0  0
   -6.9688   24.6123  -31.4047 H   0  0  0  0  0  0  0  0  0  0  0  0
  1  2  1  0
  2  3  1  0
  3  4  1  0
  4  5  1  0
  5  6  2  0
  6  7  1  0
  6  8  1  0
  8  9  1  0
  8 10  2  0
 10 11  1  0
 10 12  1  0
 12 13  1  0
 12 14  2  0
 14 15  1  0
  4 16  1  0
 16 17  2  0
 17 18  1  0
 18 19  2  0
 19 20  1  0
 19 21  1  0
 21 22  1  0
 21 23  2  0
 23 24  1  0
 23 25  1  0
 25 26  1  0
 25 27  2  0
 27 28  1  0
 16 29  1  0
 29 30  1  0
 29  2  2  0
 14  5  1  0
 27 18  1  0
M  CHG  1   3  -1
M  END
>  <UniqueID>  (3) 
3

>  <SMILES>  (3) 
Fc1ccccc1/N=c1\cc[n-]n1-c1ccccc1

>  <Energy>  (3) 
76.04532390588207

>  <Genealogy>  (3) 
Fc1ccccc1N=c1cc[n-]n1-c1ccccc1 (protonated)
Fc1ccccc1/N=c1\cc[n-]n1-c1ccccc1 (cis-trans isomerization)
Fc1ccccc1/N=c1\cc[n-]n1-c1ccccc1 (3D coordinates assigned)
Fc1ccccc1/N=c1\cc[n-]n1-c1ccccc1 (optimized conformer: 76.04532390588207 kcal/mol)

>  <smiles>  (3) 
Fc1ccccc1N=c1cc[nH]n1-c1ccccc1

>  <score_type>  (3) 
oracle

>  <origin>  (3) 
adgpu

>  <m_score__min__energy>  (3) 
-8.6999999999999993

>  <m_primary>  (3) 
energy

$$$$
3:0
     RDKit          3D

 47 49  0  0  0  0  0  0  0  0999 V2000
    0.0690   20.6310  -27.8470 C   0  0  0  0  0  0  0  0  0  0  0  0
    0.1150   22.0500  -27.9550 O   0  0  0  0  0  0  0  0  0  0  0  0
   -0.8740   22.8290  -28.5720 C   0  0  0  0  0  0  0  0  0  0  0  0
   -1.7060   22.3270  -29.5910 C   0  0  0  0  0  0  0  0  0  0  0  0
   -2.6810   23.1460  -30.1710 C   0  0  0  0  0  0  0  0  0  0  0  0
   -2.8560   24.4600  -29.7240 C   0  0  0  0  0  0  0  0  0  0  0  0
   -3.8530   25.2860  -30.3370 N   0  0  0  0  0  0  0  0  0  0  0  0
   -5.2580   25.0080  -30.3320 C   0  0  0  0  0  0  0  0  0  0  0  0
   -6.0570   25.9180  -29.9850 O   0  0  0  0  0  0  0  0  0  0  0  0
   -5.8000   23.6810  -30.8170 C   0  0  2  0  0  0  0  0  0  0  0  0
   -5.2850   23.3830  -32.2300 C   0  0  0  0  0  0  0  0  0  0  0  0
   -5.7720   22.0000  -32.6830 C   0  0  0  0  0  0  0  0  0  0  0  0
   -7.2380   21.7890  -32.5110 N   0  0  1  0  0  0  0  0  0  0  0  0
   -7.5260   20.5560  -31.8000 C   0  0  0  0  0  0  0  0  0  0  0  0
   -8.3020   20.5820  -30.8060 O   0  0  0  0  0  0  0  0  0  0  0  0
   -6.9670   19.2490  -32.2010 C   0  0  0  0  0  0  0  0  0  0  0  0
   -6.6030   19.0350  -33.5390 C   0  0  0  0  0  0  0  0  0  0  0  0
   -6.0220   17.8240  -33.9250 C   0  0  0  0  0  0  0  0  0  0  0  0
   -5.7860   16.8240  -32.9760 C   0  0  0  0  0  0  0  0  0  0  0  0
   -5.0240   15.3200  -33.4550 Cl  0  0  0  0  0  0  0  0  0  0  0  0
   -6.1390   17.0370  -31.6390 C   0  0  0  0  0  0  0  0  0  0  0  0
   -6.7190   18.2480  -31.2500 C   0  0  0  0  0  0  0  0  0  0  0  0
   -7.9940   22.9550  -31.9820 C   0  0  0  0  0  0  0  0  0  0  0  0
   -7.3440   23.6360  -30.7590 C   0  0  0  0  0  0  0  0  0  0  0  0
   -2.0130   24.9670  -28.7250 C   0  0  0  0  0  0  0  0  0  0  0  0
   -1.0290   24.1560  -28.1550 C   0  0  0  0  0  0  0  0  0  0  0  0
    0.0597   20.3442  -26.7851 H   0  0  0  0  0  0  0  0  0  0  0  0
   -0.8418   20.2554  -28.3362 H   0  0  0  0  0  0  0  0  0  0  0  0
    0.9536   20.1972  -28.3362 H   0  0  0  0  0  0  0  0  0  0  0  0
   -1.5891   21.2878  -29.9321 H   0  0  0  0  0  0  0  0  0  0  0  0
   -3.3128   22.7549  -30.9821 H   0  0  0  0  0  0  0  0  0  0  0  0
   -5.4336   22.8956  -30.1396 H   0  0  0  0  0  0  0  0  0  0  0  0
   -5.6623   24.1480  -32.9245 H   0  0  0  0  0  0  0  0  0  0  0  0
   -4.1851   23.3956  -32.2245 H   0  0  0  0  0  0  0  0  0  0  0  0
   -5.5274   21.8787  -33.7486 H   0  0  0  0  0  0  0  0  0  0  0  0
   -5.2661   21.2592  -32.0463 H   0  0  0  0  0  0  0  0  0  0  0  0
   -7.6240   21.6480  -33.4770 H   0  0  0  0  0  0  0  0  0  0  0  0
   -6.7755   19.8231  -34.2867 H   0  0  0  0  0  0  0  0  0  0  0  0
   -5.7497   17.6569  -34.9776 H   0  0  0  0  0  0  0  0  0  0  0  0
   -5.9597   16.2496  -30.8921 H   0  0  0  0  0  0  0  0  0  0  0  0
   -6.9817   18.4165  -30.1952 H   0  0  0  0  0  0  0  0  0  0  0  0
   -8.0811   23.7014  -32.7853 H   0  0  0  0  0  0  0  0  0  0  0  0
   -8.9682   22.5705  -31.6457 H   0  0  0  0  0  0  0  0  0  0  0  0
   -7.7189   24.6683  -30.6970 H   0  0  0  0  0  0  0  0  0  0  0  0
   -7.6140   23.0362  -29.8774 H   0  0  0  0  0  0  0  0  0  0  0  0
   -2.1271   26.0081  -28.3886 H   0  0  0  0  0  0  0  0  0  0  0  0
   -0.3713   24.5631  -27.3729 H   0  0  0  0  0  0  0  0  0  0  0  0
  1  2  1  0
  2  3  1  0
  3  4  2  0
  4  5  1  0
  5  6  2  0
  6  7  1  0
  7  8  1  0
  8  9  2  0
  8 10  1  0
 10 11  1  0
 11 12  1  0
 12 13  1  0
 13 14  1  0
 14 15  2  0
 14 16  1  0
 16 17  2  0
 17 18  1  0
 18 19  2  0
 19 20  1  0
 19 21  1  0
 21 22  2  0
 13 23  1  0
 23 24  1  0
  6 25  1  0
 25 26  2  0
 26  3  1  0
 24 10  1  0
 22 16  1  0
  1 27  1  0
  1 28  1  0
  1 29  1  0
  4 30  1  0
  5 31  1  0
 10 32  1  1
 11 33  1  0
 11 34  1  0
 12 35  1  0
 12 36  1  0
 13 37  1  6
 17 38  1  0
 18 39  1  0
 21 40  1  0
 22 41  1  0
 23 42  1  0
 23 43  1  0
 24 44  1  0
 24 45  1  0
 25 46  1  0
 26 47  1  0
M  CHG  2   7  -1  13   1
M  END
>  <UniqueID>  (4) 
4

>  <SMILES>  (4) 
COc1ccc([N-]C(=O)C2CC[NH+](C(=O)c3ccc(Cl)cc3)CC2)cc1

>  <Energy>  (4) 
69.66607780296272

>  <Genealogy>  (4) 
COc1ccc([N-]C(=O)C2CC[NH+](C(=O)c3ccc(Cl)cc3)CC2)cc1 (protonated)
COc1ccc([N-]C(=O)C2CC[NH+](C(=O)c3ccc(Cl)cc3)CC2)cc1 (3D coordinates assigned)
COc1ccc([N-]C(=O)C2CC[NH+](C(=O)c3ccc(Cl)cc3)CC2)cc1 (nonaromatic ring conformer: 69.66607780296272 kcal/mol)

>  <smiles>  (4) 
COc1ccc(NC(=O)C2CCN(C(=O)c3ccc(Cl)cc3)CC2)cc1

>  <score_type>  (4) 
oracle

>  <origin>  (4) 
adgpu

>  <m_score__min__energy>  (4) 
-9.3699999999999992

>  <m_primary>  (4) 
energy

$$$$
4:0
     RDKit          3D

 26 27  0  0  0  0  0  0  0  0999 V2000
   -9.3214   23.1407  -31.8097 H   0  0  0  0  0  0  0  0  0  0  0  0
   -8.7900   22.1830  -31.9120 C   0  0  0  0  0  0  0  0  0  0  0  0
   -7.3960   22.1630  -31.9970 C   0  0  0  0  0  0  0  0  0  0  0  0
   -6.8299   23.1054  -31.9592 H   0  0  0  0  0  0  0  0  0  0  0  0
   -6.7190   20.9470  -32.1300 C   0  0  0  0  0  0  0  0  0  0  0  0
   -5.6212   20.9383  -32.1984 H   0  0  0  0  0  0  0  0  0  0  0  0
   -7.4310   19.7340  -32.1770 C   0  0  0  0  0  0  0  0  0  0  0  0
   -6.7130   18.4410  -32.3180 C   0  0  0  0  0  0  0  0  0  0  0  0
   -6.3080   17.9760  -33.5780 C   0  0  0  0  0  0  0  0  0  0  0  0
   -6.5218   18.5731  -34.4768 H   0  0  0  0  0  0  0  0  0  0  0  0
   -5.6360   16.7610  -33.6960 C   0  0  0  0  0  0  0  0  0  0  0  0
   -5.3188   16.3997  -34.6854 H   0  0  0  0  0  0  0  0  0  0  0  0
   -5.3660   16.0020  -32.5520 C   0  0  0  0  0  0  0  0  0  0  0  0
   -4.7370   14.8690  -32.6880 N   0  0  0  0  0  0  0  0  0  0  0  0
   -4.3770   13.9570  -31.6080 C   0  0  0  0  0  0  0  0  0  0  0  0
   -4.5684   14.4420  -30.6394 H   0  0  0  0  0  0  0  0  0  0  0  0
   -4.9810   13.0409  -31.6851 H   0  0  0  0  0  0  0  0  0  0  0  0
   -3.3101   13.7004  -31.6851 H   0  0  0  0  0  0  0  0  0  0  0  0
   -5.7660   16.4660  -31.3280 N   0  0  0  0  0  0  0  0  0  0  0  0
   -5.5760   15.9240  -30.4560 H   0  0  0  0  0  0  0  0  0  0  0  0
   -6.4240   17.6500  -31.1930 C   0  0  0  0  0  0  0  0  0  0  0  0
   -6.7325   17.9909  -30.1937 H   0  0  0  0  0  0  0  0  0  0  0  0
   -8.8360   19.7680  -32.0890 C   0  0  0  0  0  0  0  0  0  0  0  0
   -9.4081   18.8292  -32.1244 H   0  0  0  0  0  0  0  0  0  0  0  0
   -9.5090   20.9860  -31.9570 C   0  0  0  0  0  0  0  0  0  0  0  0
  -10.6067   21.0021  -31.8884 H   0  0  0  0  0  0  0  0  0  0  0  0
  1  2  1  0
  2  3  2  0
  3  4  1  0
  3  5  1  0
  5  6  1  0
  5  7  2  0
  7  8  1  0
  8  9  1  0
  9 10  1  0
  9 11  2  0
 11 12  1  0
 11 13  1  0
 13 14  2  0
 14 15  1  0
 15 16  1  0
 15 17  1  0
 15 18  1  0
 13 19  1  0
 19 20  1  0
 19 21  1  0
 21 22  1  0
  7 23  1  0
 23 24  1  0
 23 25  2  0
 25 26  1  0
 25  2  1  0
 21  8  2  0
M  END
>  <UniqueID>  (5) 
5

>  <SMILES>  (5) 
C/N=c1/ccc(-c2ccccc2)c[nH]1

>  <Energy>  (5) 
32.43247835134423

>  <Genealogy>  (5) 
C/N=c1/ccc(-c2ccccc2)c[nH]1 (cis-trans isomerization)
C/N=c1/ccc(-c2ccccc2)c[nH]1 (3D coordinates assigned)
C/N=c1/ccc(-c2ccccc2)c[nH]1 (optimized conformer: 32.43247835134423 kcal/mol)

>  <smiles>  (5) 
CN=c1ccc(-c2ccccc2)c[nH]1

>  <score_type>  (5) 
oracle

>  <origin>  (5) 
adgpu

>  <m_score__min__energy>  (5) 
-6.1799999999999997

>  <m_primary>  (5) 
energy

$$$$
5:0
     RDKit          3D

 23 24  0  0  0  0  0  0  0  0999 V2000
   -1.5210   25.1840  -26.9932 H   0  0  0  0  0  0  0  0  0  0  0  0
   -2.2660   24.7690  -27.6880 C   0  0  0  0  0  0  0  0  0  0  0  0
   -1.9790   24.2920  -29.2770 S   0  0  0  0  0  0  0  0  0  0  0  0
   -3.5680   23.8210  -29.5380 C   0  0  0  0  0  0  0  0  0  0  0  0
   -4.0020   23.3710  -30.6790 N   0  0  0  0  0  0  0  0  0  0  0  0
   -5.3230   22.8830  -30.9550 C   0  0  0  0  0  0  0  0  0  0  0  0
   -6.4020   23.7720  -30.8960 C   0  0  0  0  0  0  0  0  0  0  0  0
   -6.2327   24.8191  -30.6047 H   0  0  0  0  0  0  0  0  0  0  0  0
   -7.6930   23.3370  -31.2050 C   0  0  0  0  0  0  0  0  0  0  0  0
   -8.5378   24.0384  -31.1393 H   0  0  0  0  0  0  0  0  0  0  0  0
   -7.9160   22.0120  -31.5980 C   0  0  0  0  0  0  0  0  0  0  0  0
   -9.5550   21.5000  -31.9780 Cl  0  0  0  0  0  0  0  0  0  0  0  0
   -6.8330   21.1220  -31.6930 C   0  0  0  0  0  0  0  0  0  0  0  0
   -7.0640   19.4570  -32.2110 Cl  0  0  0  0  0  0  0  0  0  0  0  0
   -5.5410   21.5620  -31.3830 C   0  0  0  0  0  0  0  0  0  0  0  0
   -4.6910   20.8698  -31.4749 H   0  0  0  0  0  0  0  0  0  0  0  0
   -4.3350   24.0360  -28.4430 N   0  0  0  0  0  0  0  0  0  0  0  0
   -5.3670   23.8850  -28.3930 H   0  0  0  0  0  0  0  0  0  0  0  0
   -3.6130   24.5460  -27.4070 C   0  0  0  0  0  0  0  0  0  0  0  0
   -4.2450   24.9260  -26.1070 C   0  0  0  0  0  0  0  0  0  0  0  0
   -3.6270   24.5544  -25.2764 H   0  0  0  0  0  0  0  0  0  0  0  0
   -4.3238   26.0214  -26.0439 H   0  0  0  0  0  0  0  0  0  0  0  0
   -5.2494   24.4819  -26.0439 H   0  0  0  0  0  0  0  0  0  0  0  0
  1  2  1  0
  2  3  1  0
  3  4  1  0
  4  5  2  0
  5  6  1  0
  6  7  2  0
  7  8  1  0
  7  9  1  0
  9 10  1  0
  9 11  2  0
 11 12  1  0
 11 13  1  0
 13 14  1  0
 13 15  2  0
 15 16  1  0
  4 17  1  0
 17 18  1  0
 17 19  1  0
 19 20  1  0
 20 21  1  0
 20 22  1  0
 20 23  1  0
 19  2  2  0
 15  6  1  0
M  END
>  <UniqueID>  (6) 
6

>  <SMILES>  (6) 
Cc1cs/c(=N/c2ccc(Cl)c(Cl)c2)[nH]1

>  <Energy>  (6) 
59.8886201590932

>  <Genealogy>  (6) 
Cc1cs/c(=N/c2ccc(Cl)c(Cl)c2)[nH]1 (cis-trans isomerization)
Cc1cs/c(=N/c2ccc(Cl)c(Cl)c2)[nH]1 (3D coordinates assigned)
Cc1cs/c(=N/c2ccc(Cl)c(Cl)c2)[nH]1 (optimized conformer: 59.8886201590932 kcal/mol)

>  <smiles>  (6) 
Cc1csc(=Nc2ccc(Cl)c(Cl)c2)[nH]1

>  <score_type>  (6) 
oracle

>  <origin>  (6) 
adgpu

>  <m_score__min__energy>  (6) 
-6.4199999999999999

>  <m_primary>  (6) 
energy

$$$$
6:0
     RDKit          3D

 55 58  0  0  0  0  0  0  0  0999 V2000
    3.6314   23.5905  -27.3847 H   0  0  0  0  0  0  0  0  0  0  0  0
    2.8750   24.3180  -27.0550 C   0  0  0  0  0  0  0  0  0  0  0  0
    1.7420   24.5530  -27.8420 C   0  0  0  0  0  0  0  0  0  0  0  0
    1.6019   23.9972  -28.7809 H   0  0  0  0  0  0  0  0  0  0  0  0
    0.7800   25.4990  -27.4360 C   0  0  0  0  0  0  0  0  0  0  0  0
   -0.4140   25.7450  -28.1970 N   0  0  0  0  0  0  0  0  0  0  0  0
   -1.2260   24.8490  -28.6800 C   0  0  0  0  0  0  0  0  0  0  0  0
   -0.9530   23.5210  -28.5800 N   0  0  0  0  0  0  0  0  0  0  0  0
   -1.8020   22.6070  -29.1080 C   0  0  0  0  0  0  0  0  0  0  0  0
   -1.4560   20.8630  -28.9390 S   0  0  0  0  0  0  0  0  0  0  0  0
   -1.0830   20.6990  -30.6830 C   0  0  0  0  0  0  0  0  0  0  0  0
    0.2470   20.6490  -31.1170 C   0  0  0  0  0  0  0  0  0  0  0  0
    1.0669   20.7371  -30.3890 H   0  0  0  0  0  0  0  0  0  0  0  0
    0.5330   20.4870  -32.4760 C   0  0  0  0  0  0  0  0  0  0  0  0
    1.5790   20.4615  -32.8154 H   0  0  0  0  0  0  0  0  0  0  0  0
   -0.5050   20.3570  -33.4080 C   0  0  0  0  0  0  0  0  0  0  0  0
   -0.1780   20.2070  -34.7960 N   0  0  0  0  0  0  0  0  0  0  0  0
    0.6850   21.0590  -35.5610 C   0  0  0  0  0  0  0  0  0  0  0  0
    0.6610   22.2990  -35.3420 O   0  0  0  0  0  0  0  0  0  0  0  0
    1.6400   20.5080  -36.5880 C   0  0  0  0  0  0  0  0  0  0  0  0
    2.6358   20.9448  -36.4218 H   0  0  0  0  0  0  0  0  0  0  0  0
    1.2621   20.7683  -37.5877 H   0  0  0  0  0  0  0  0  0  0  0  0
    1.7420   18.9880  -36.4930 C   0  0  0  0  0  0  0  0  0  0  0  0
    1.7622   18.6873  -35.4351 H   0  0  0  0  0  0  0  0  0  0  0  0
    0.8725   18.5305  -36.9877 H   0  0  0  0  0  0  0  0  0  0  0  0
    2.6648   18.6508  -36.9877 H   0  0  0  0  0  0  0  0  0  0  0  0
   -1.8380   20.4450  -32.9710 C   0  0  0  0  0  0  0  0  0  0  0  0
   -2.6590   20.3846  -33.7006 H   0  0  0  0  0  0  0  0  0  0  0  0
   -2.1240   20.6090  -31.6130 C   0  0  0  0  0  0  0  0  0  0  0  0
   -3.1691   20.6674  -31.2749 H   0  0  0  0  0  0  0  0  0  0  0  0
   -2.9310   23.0160  -29.7360 N   0  0  0  0  0  0  0  0  0  0  0  0
   -3.2170   24.3420  -29.8370 C   0  0  0  0  0  0  0  0  0  0  0  0
   -4.2930   24.7550  -30.4390 N   0  0  0  0  0  0  0  0  0  0  0  0
   -5.3480   23.9300  -30.9630 C   0  0  0  0  0  0  0  0  0  0  0  0
   -6.7040   24.2200  -30.7240 C   0  0  0  0  0  0  0  0  0  0  0  0
   -6.9771   25.0829  -30.0989 H   0  0  0  0  0  0  0  0  0  0  0  0
   -7.7060   23.4170  -31.2770 C   0  0  0  0  0  0  0  0  0  0  0  0
   -8.7632   23.6411  -31.0720 H   0  0  0  0  0  0  0  0  0  0  0  0
   -7.3670   22.3230  -32.0950 C   0  0  0  0  0  0  0  0  0  0  0  0
   -8.3350   21.4860  -32.6700 O   0  0  0  0  0  0  0  0  0  0  0  0
   -8.6510   20.1800  -32.1990 C   0  0  0  0  0  0  0  0  0  0  0  0
   -8.6517   20.1771  -31.0990 H   0  0  0  0  0  0  0  0  0  0  0  0
   -9.6457   19.8882  -32.5671 H   0  0  0  0  0  0  0  0  0  0  0  0
   -7.8998   19.4657  -32.5671 H   0  0  0  0  0  0  0  0  0  0  0  0
   -6.0180   22.0570  -32.3550 C   0  0  0  0  0  0  0  0  0  0  0  0
   -5.7432   21.2089  -32.9994 H   0  0  0  0  0  0  0  0  0  0  0  0
   -5.0170   22.8610  -31.8020 C   0  0  0  0  0  0  0  0  0  0  0  0
   -3.9612   22.6514  -32.0284 H   0  0  0  0  0  0  0  0  0  0  0  0
   -2.3520   25.2530  -29.3220 N   0  0  0  0  0  0  0  0  0  0  0  0
    0.9470   26.1600  -26.2110 C   0  0  0  0  0  0  0  0  0  0  0  0
    0.1819   26.8703  -25.8645 H   0  0  0  0  0  0  0  0  0  0  0  0
    2.0800   25.9220  -25.4270 C   0  0  0  0  0  0  0  0  0  0  0  0
    2.2107   26.4567  -24.4746 H   0  0  0  0  0  0  0  0  0  0  0  0
    3.0470   25.0060  -25.8510 C   0  0  0  0  0  0  0  0  0  0  0  0
    4.1440   24.7750  -25.0880 F   0  0  0  0  0  0  0  0  0  0  0  0
  1  2  1  0
  2  3  2  0
  3  4  1  0
  3  5  1  0
  5  6  1  0
  6  7  2  0
  7  8  1  0
  8  9  1  0
  9 10  1  0
 10 11  1  0
 11 12  2  0
 12 13  1  0
 12 14  1  0
 14 15  1  0
 14 16  2  0
 16 17  1  0
 17 18  1  0
 18 19  2  0
 18 20  1  0
 20 21  1  0
 20 22  1  0
 20 23  1  0
 23 24  1  0
 23 25  1  0
 23 26  1  0
 16 27  1  0
 27 28  1  0
 27 29  2  0
 29 30  1  0
  9 31  2  0
 31 32  1  0
 32 33  2  0
 33 34  1  0
 34 35  2  0
 35 36  1  0
 35 37  1  0
 37 38  1  0
 37 39  2  0
 39 40  1  0
 40 41  1  0
 41 42  1  0
 41 43  1  0
 41 44  1  0
 39 45  1  0
 45 46  1  0
 45 47  2  0
 47 48  1  0
 32 49  1  0
  5 50  2  0
 50 51  1  0
 50 52  1  0
 52 53  1  0
 52 54  2  0
 54 55  1  0
 54  2  1  0
 49  7  1  0
 29 11  1  0
 47 34  1  0
M  CHG  3   8  -1  17  -1  49  -1
M  END
>  <UniqueID>  (7) 
7

>  <SMILES>  (7) 
CCC(=O)[N-]c1ccc(Sc2n/c(=N\c3ccc(OC)cc3)[n-]/c(=N/c3ccc(F)cc3)[n-]2)cc1

>  <Energy>  (7) 
67.54943354494452

>  <Genealogy>  (7) 
CCC(=O)[N-]c1ccc(Sc2nc(=Nc3ccc(OC)cc3)[n-]c(=Nc3ccc(F)cc3)[n-]2)cc1 (protonated)
CCC(=O)[N-]c1ccc(Sc2n/c(=N\c3ccc(OC)cc3)[n-]/c(=N/c3ccc(F)cc3)[n-]2)cc1 (cis-trans isomerization)
CCC(=O)[N-]c1ccc(Sc2n/c(=N\c3ccc(OC)cc3)[n-]/c(=N/c3ccc(F)cc3)[n-]2)cc1 (3D coordinates assigned)
CCC(=O)[N-]c1ccc(Sc2n/c(=N\c3ccc(OC)cc3)[n-]/c(=N/c3ccc(F)cc3)[n-]2)cc1 (optimized conformer: 67.54943354494452 kcal/mol)

>  <smiles>  (7) 
CCC(=O)Nc1ccc(Sc2nc(=Nc3ccc(OC)cc3)[nH]c(=Nc3ccc(F)cc3)[nH]2)cc1

>  <score_type>  (7) 
oracle

>  <origin>  (7) 
adgpu

>  <m_score__min__energy>  (7) 
-11.42

>  <m_primary>  (7) 
energy

$$$$
7:0
     RDKit          3D

 38 40  0  0  0  0  0  0  0  0999 V2000
   -6.1190   25.3500  -29.5650 C   0  0  0  0  0  0  0  0  0  0  0  0
   -5.2040   25.6550  -30.7450 C   0  0  0  0  0  0  0  0  0  0  0  0
   -3.8730   25.2140  -30.4790 O   0  0  0  0  0  0  0  0  0  0  0  0
   -3.5130   24.1000  -29.7000 C   0  0  0  0  0  0  0  0  0  0  0  0
   -3.1390   24.2230  -28.3460 C   0  0  0  0  0  0  0  0  0  0  0  0
   -2.7780   23.0940  -27.6050 C   0  0  0  0  0  0  0  0  0  0  0  0
   -2.7780   21.8350  -28.2030 C   0  0  0  0  0  0  0  0  0  0  0  0
   -3.1420   21.6970  -29.5440 C   0  0  0  0  0  0  0  0  0  0  0  0
   -3.5190   22.8210  -30.2990 C   0  0  0  0  0  0  0  0  0  0  0  0
   -3.8710   22.6510  -31.7570 C   0  0  0  0  0  0  0  0  0  0  0  0
   -5.1980   22.0360  -31.8920 N   0  0  0  0  0  0  0  0  0  0  0  0
   -6.3120   22.8310  -31.8780 C   0  0  0  0  0  0  0  0  0  0  0  0
   -7.5880   22.2740  -31.9740 C   0  0  0  0  0  0  0  0  0  0  0  0
   -7.7290   20.8880  -32.0820 C   0  0  0  0  0  0  0  0  0  0  0  0
   -8.9980   20.2960  -32.1770 C   0  0  0  0  0  0  0  0  0  0  0  0
   -9.1180   18.9070  -32.2820 C   0  0  0  0  0  0  0  0  0  0  0  0
   -7.9750   18.1010  -32.2920 C   0  0  0  0  0  0  0  0  0  0  0  0
   -6.7060   18.6800  -32.1980 C   0  0  0  0  0  0  0  0  0  0  0  0
   -6.5760   20.0740  -32.0930 C   0  0  0  0  0  0  0  0  0  0  0  0
   -5.3140   20.6760  -31.9970 C   0  0  0  0  0  0  0  0  0  0  0  0
   -5.5774   25.5305  -28.6248 H   0  0  0  0  0  0  0  0  0  0  0  0
   -7.0040   26.0017  -29.6093 H   0  0  0  0  0  0  0  0  0  0  0  0
   -6.4360   24.2976  -29.6093 H   0  0  0  0  0  0  0  0  0  0  0  0
   -5.5835   25.1386  -31.6390 H   0  0  0  0  0  0  0  0  0  0  0  0
   -5.1898   26.7426  -30.9094 H   0  0  0  0  0  0  0  0  0  0  0  0
   -3.1313   25.2144  -27.8695 H   0  0  0  0  0  0  0  0  0  0  0  0
   -2.4933   23.1994  -26.5477 H   0  0  0  0  0  0  0  0  0  0  0  0
   -2.4909   20.9489  -27.6178 H   0  0  0  0  0  0  0  0  0  0  0  0
   -3.1336   20.7019  -30.0127 H   0  0  0  0  0  0  0  0  0  0  0  0
   -3.8760   23.6361  -32.2465 H   0  0  0  0  0  0  0  0  0  0  0  0
   -3.1238   21.9983  -32.2320 H   0  0  0  0  0  0  0  0  0  0  0  0
   -6.2003   23.9218  -31.7900 H   0  0  0  0  0  0  0  0  0  0  0  0
   -8.4770   22.9218  -31.9647 H   0  0  0  0  0  0  0  0  0  0  0  0
   -9.8997   20.9259  -32.1688 H   0  0  0  0  0  0  0  0  0  0  0  0
  -10.1143   18.4467  -32.3570 H   0  0  0  0  0  0  0  0  0  0  0  0
   -8.0748   17.0086  -32.3740 H   0  0  0  0  0  0  0  0  0  0  0  0
   -5.8091   18.0432  -32.2063 H   0  0  0  0  0  0  0  0  0  0  0  0
   -4.4092   20.0505  -32.0061 H   0  0  0  0  0  0  0  0  0  0  0  0
  1  2  1  0
  2  3  1  0
  3  4  1  0
  4  5  2  0
  5  6  1  0
  6  7  2  0
  7  8  1  0
  8  9  2  0
  9 10  1  0
 10 11  1  0
 11 12  2  0
 12 13  1  0
 13 14  2  0
 14 15  1  0
 15 16  2  0
 16 17  1  0
 17 18  2  0
 18 19  1  0
 19 20  2  0
  9  4  1  0
 20 11  1  0
 19 14  1  0
  1 21  1  0
  1 22  1  0
  1 23  1  0
  2 24  1  0
  2 25  1  0
  5 26  1  0
  6 27  1  0
  7 28  1  0
  8 29  1  0
 10 30  1  0
 10 31  1  0
 12 32  1  0
 13 33  1  0
 15 34  1  0
 16 35  1  0
 17 36  1  0
 18 37  1  0
 20 38  1  0
M  CHG  1  11   1
M  END
>  <UniqueID>  (8) 
8

>  <SMILES>  (8) 
CCOc1ccccc1C[n+]1ccc2ccccc2c1

>  <Energy>  (8) 
41.363464105617034

>  <Genealogy>  (8) 
CCOc1ccccc1C[n+]1ccc2ccccc2c1 (3D coordinates assigned)
CCOc1ccccc1C[n+]1ccc2ccccc2c1 (optimized conformer: 41.363464105617034 kcal/mol)

>  <smiles>  (8) 
CCOc1ccccc1C[n+]1ccc2ccccc2c1

>  <score_type>  (8) 
oracle

>  <origin>  (8) 
adgpu

>  <m_score__min__energy>  (8) 
-7.8200000000000003

>  <m_primary>  (8) 
energy

$$$$
8:0
     RDKit          3D

 31 33  0  0  0  0  0  0  0  0999 V2000
   -4.6980   25.9530  -30.3810 N   0  0  0  0  0  0  0  0  0  0  0  0
   -5.0760   24.6400  -30.8020 C   0  0  0  0  0  0  0  0  0  0  0  0
   -6.4170   24.3480  -31.0840 C   0  0  0  0  0  0  0  0  0  0  0  0
   -6.7890   23.0650  -31.4940 C   0  0  0  0  0  0  0  0  0  0  0  0
   -5.8240   22.0480  -31.6320 C   0  0  0  0  0  0  0  0  0  0  0  0
   -6.2070   20.6800  -32.0670 C   0  0  0  0  0  0  0  0  0  0  0  0
   -7.4790   20.2420  -32.4380 C   0  0  0  0  0  0  0  0  0  0  0  0
   -7.5300   18.8910  -32.8060 C   0  0  0  0  0  0  0  0  0  0  0  0
   -6.2990   18.2390  -32.7310 C   0  0  0  0  0  0  0  0  0  0  0  0
   -6.0190   16.8160  -33.0550 C   0  0  0  0  0  0  0  0  0  0  0  0
   -6.8520   16.0920  -33.9300 C   0  0  0  0  0  0  0  0  0  0  0  0
   -6.5790   14.7510  -34.2260 C   0  0  0  0  0  0  0  0  0  0  0  0
   -5.4750   14.1180  -33.6530 C   0  0  0  0  0  0  0  0  0  0  0  0
   -4.6420   14.8210  -32.7810 C   0  0  0  0  0  0  0  0  0  0  0  0
   -4.9110   16.1600  -32.4820 C   0  0  0  0  0  0  0  0  0  0  0  0
   -5.1600   19.3670  -32.2090 S   0  0  0  0  0  0  0  0  0  0  0  0
   -4.4790   22.3500  -31.3420 C   0  0  0  0  0  0  0  0  0  0  0  0
   -4.1110   23.6340  -30.9320 C   0  0  0  0  0  0  0  0  0  0  0  0
   -3.8800   26.4380  -30.8130 H   0  0  0  0  0  0  0  0  0  0  0  0
   -5.2320   26.4490  -29.6330 H   0  0  0  0  0  0  0  0  0  0  0  0
   -7.1810   25.1328  -30.9821 H   0  0  0  0  0  0  0  0  0  0  0  0
   -7.8451   22.8471  -31.7110 H   0  0  0  0  0  0  0  0  0  0  0  0
   -8.3619   20.8981  -32.4412 H   0  0  0  0  0  0  0  0  0  0  0  0
   -8.4560   18.3903  -33.1249 H   0  0  0  0  0  0  0  0  0  0  0  0
   -7.7244   16.5842  -34.3846 H   0  0  0  0  0  0  0  0  0  0  0  0
   -7.2359   14.1954  -34.9114 H   0  0  0  0  0  0  0  0  0  0  0  0
   -5.2613   13.0650  -33.8886 H   0  0  0  0  0  0  0  0  0  0  0  0
   -3.7730   14.3209  -32.3286 H   0  0  0  0  0  0  0  0  0  0  0  0
   -4.2512   16.7070  -31.7925 H   0  0  0  0  0  0  0  0  0  0  0  0
   -3.7116   21.5680  -31.4392 H   0  0  0  0  0  0  0  0  0  0  0  0
   -3.0567   23.8558  -30.7100 H   0  0  0  0  0  0  0  0  0  0  0  0
  1  2  1  0
  2  3  2  0
  3  4  1  0
  4  5  2  0
  5  6  1  0
  6  7  2  0
  7  8  1  0
  8  9  2  0
  9 10  1  0
 10 11  2  0
 11 12  1  0
 12 13  2  0
 13 14  1  0
 14 15  2  0
  9 16  1  0
  5 17  1  0
 17 18  2  0
 18  2  1  0
 16  6  1  0
 15 10  1  0
  1 19  1  0
  1 20  1  0
  3 21  1  0
  4 22  1  0
  7 23  1  0
  8 24  1  0
 11 25  1  0
 12 26  1  0
 13 27  1  0
 14 28  1  0
 15 29  1  0
 17 30  1  0
 18 31  1  0
M  END
>  <UniqueID>  (9) 
9

>  <SMILES>  (9) 
Nc1ccc(-c2ccc(-c3ccccc3)s2)cc1

>  <Energy>  (9) 
63.66141888640291

>  <Genealogy>  (9) 
Nc1ccc(-c2ccc(-c3ccccc3)s2)cc1 (3D coordinates assigned)
Nc1ccc(-c2ccc(-c3ccccc3)s2)cc1 (optimized conformer: 63.66141888640291 kcal/mol)

>  <smiles>  (9) 
Nc1ccc(-c2ccc(-c3ccccc3)s2)cc1

>  <score_type>  (9) 
oracle

>  <origin>  (9) 
adgpu

>  <m_score__min__energy>  (9) 
-7.54

>  <m_primary>  (9) 
energy

$$$$
9:0
     RDKit          3D

 29 29  0  0  0  0  0  0  0  0999 V2000
   -8.1790   18.3390  -32.0060 C   0  0  0  0  0  0  0  0  0  0  0  0
   -8.2460   19.7580  -32.4590 C   0  0  0  0  0  0  0  0  0  0  0  0
   -9.3560   20.3570  -32.4820 O   0  0  0  0  0  0  0  0  0  0  0  0
   -7.0440   20.4450  -32.8170 N   0  0  0  0  0  0  0  0  0  0  0  0
   -5.8250   19.7520  -33.2120 C   0  0  0  0  0  0  0  0  0  0  0  0
   -4.6310   20.7130  -33.2070 C   0  0  0  0  0  0  0  0  0  0  0  0
   -3.9860   20.8650  -31.8230 C   0  0  0  0  0  0  0  0  0  0  0  0
   -3.1840   22.4950  -31.6360 S   0  0  0  0  0  0  0  0  0  0  0  0
   -4.7050   23.3280  -31.1720 C   0  0  0  0  0  0  0  0  0  0  0  0
   -5.9310   22.6720  -31.3420 C   0  0  0  0  0  0  0  0  0  0  0  0
   -7.1280   23.3090  -30.9860 C   0  0  0  0  0  0  0  0  0  0  0  0
   -8.3520   22.6640  -31.1480 O   0  0  0  0  0  0  0  0  0  0  0  0
   -7.0950   24.6060  -30.4630 C   0  0  0  0  0  0  0  0  0  0  0  0
   -5.8730   25.2660  -30.2950 C   0  0  0  0  0  0  0  0  0  0  0  0
   -4.6780   24.6300  -30.6490 C   0  0  0  0  0  0  0  0  0  0  0  0
   -3.4700   25.2970  -30.4780 O   0  0  0  0  0  0  0  0  0  0  0  0
   -8.1774   18.3048  -30.9065 H   0  0  0  0  0  0  0  0  0  0  0  0
   -9.0522   17.7903  -32.3886 H   0  0  0  0  0  0  0  0  0  0  0  0
   -7.2579   17.8750  -32.3886 H   0  0  0  0  0  0  0  0  0  0  0  0
   -5.6311   18.9311  -32.5059 H   0  0  0  0  0  0  0  0  0  0  0  0
   -5.9567   19.3561  -34.2298 H   0  0  0  0  0  0  0  0  0  0  0  0
   -3.8724   20.3324  -33.9068 H   0  0  0  0  0  0  0  0  0  0  0  0
   -5.0060   21.7034  -33.5045 H   0  0  0  0  0  0  0  0  0  0  0  0
   -4.7636   20.7583  -31.0523 H   0  0  0  0  0  0  0  0  0  0  0  0
   -3.2169   20.0864  -31.7125 H   0  0  0  0  0  0  0  0  0  0  0  0
   -5.9546   21.6533  -31.7564 H   0  0  0  0  0  0  0  0  0  0  0  0
   -8.4380   21.8250  -31.7090 H   0  0  0  0  0  0  0  0  0  0  0  0
   -8.0326   25.1084  -30.1830 H   0  0  0  0  0  0  0  0  0  0  0  0
   -5.8516   26.2862  -29.8841 H   0  0  0  0  0  0  0  0  0  0  0  0
  1  2  1  0
  2  3  2  0
  2  4  1  0
  4  5  1  0
  5  6  1  0
  6  7  1  0
  7  8  1  0
  8  9  1  0
  9 10  2  0
 10 11  1  0
 11 12  1  0
 11 13  2  0
 13 14  1  0
 14 15  2  0
 15 16  1  0
 15  9  1  0
  1 17  1  0
  1 18  1  0
  1 19  1  0
  5 20  1  0
  5 21  1  0
  6 22  1  0
  6 23  1  0
  7 24  1  0
  7 25  1  0
 10 26  1  0
 12 27  1  0
 13 28  1  0
 14 29  1  0
M  CHG  2   4  -1  16  -1
M  END
>  <UniqueID>  (10) 
10

>  <SMILES>  (10) 
CC(=O)[N-]CCCSc1cc(O)ccc1[O-]

>  <Energy>  (10) 
16.05190440374658

>  <Genealogy>  (10) 
CC(=O)[N-]CCCSc1cc(O)ccc1[O-] (protonated)
CC(=O)[N-]CCCSc1cc(O)ccc1[O-] (3D coordinates assigned)
CC(=O)[N-]CCCSc1cc(O)ccc1[O-] (optimized conformer: 16.05190440374658 kcal/mol)

>  <smiles>  (10) 
CC(=O)NCCCSc1cc(O)ccc1O

>  <score_type>  (10) 
oracle

>  <origin>  (10) 
adgpu

>  <m_score__min__energy>  (10) 
-9.8699999999999992

>  <m_primary>  (10) 
energy

$$$$
10:0
     RDKit          3D

 40 42  0  0  0  0  0  0  0  0999 V2000
   -4.1710   19.9400  -33.4680 C   0  0  0  0  0  0  0  0  0  0  0  0
   -4.5540   21.0430  -32.6530 O   0  0  0  0  0  0  0  0  0  0  0  0
   -5.8590   21.2710  -32.1870 C   0  0  0  0  0  0  0  0  0  0  0  0
   -6.9630   20.5360  -32.6620 C   0  0  0  0  0  0  0  0  0  0  0  0
   -8.2490   20.8030  -32.1820 C   0  0  0  0  0  0  0  0  0  0  0  0
   -8.4470   21.8010  -31.2280 C   0  0  0  0  0  0  0  0  0  0  0  0
   -7.3610   22.5350  -30.7470 C   0  0  0  0  0  0  0  0  0  0  0  0
   -6.0650   22.2740  -31.2180 C   0  0  0  0  0  0  0  0  0  0  0  0
   -4.9520   23.0350  -30.7090 N   0  0  0  0  0  0  0  0  0  0  0  0
   -3.9420   22.4050  -30.0290 C   0  0  0  0  0  0  0  0  0  0  0  0
   -3.9760   21.1590  -29.8350 O   0  0  0  0  0  0  0  0  0  0  0  0
   -2.8630   23.1410  -29.5360 C   0  0  0  0  0  0  0  0  0  0  0  0
   -2.8390   24.5210  -29.7360 C   0  0  0  0  0  0  0  0  0  0  0  0
   -1.7280   25.2980  -29.2580 N   0  0  0  0  0  0  0  0  0  0  0  0
   -1.5550   25.6970  -27.8890 C   0  0  0  0  0  0  0  0  0  0  0  0
   -0.7560   26.8110  -27.5910 C   0  0  0  0  0  0  0  0  0  0  0  0
   -0.5550   27.2050  -26.2650 C   0  0  0  0  0  0  0  0  0  0  0  0
   -1.1470   26.4870  -25.2160 C   0  0  0  0  0  0  0  0  0  0  0  0
   -0.8980   26.8860  -23.7910 C   0  0  0  0  0  0  0  0  0  0  0  0
   -1.9120   25.3480  -25.5070 C   0  0  0  0  0  0  0  0  0  0  0  0
   -2.1140   24.9550  -26.8330 C   0  0  0  0  0  0  0  0  0  0  0  0
   -3.8490   25.1090  -30.4290 N   0  0  0  0  0  0  0  0  0  0  0  0
   -4.8960   24.3900  -30.9100 C   0  0  0  0  0  0  0  0  0  0  0  0
   -5.8050   24.9850  -31.5500 O   0  0  0  0  0  0  0  0  0  0  0  0
   -3.8777   19.0952  -32.8275 H   0  0  0  0  0  0  0  0  0  0  0  0
   -5.0182   19.6417  -34.1031 H   0  0  0  0  0  0  0  0  0  0  0  0
   -3.3213   20.2310  -34.1031 H   0  0  0  0  0  0  0  0  0  0  0  0
   -6.8126   19.7479  -33.4145 H   0  0  0  0  0  0  0  0  0  0  0  0
   -9.1061   20.2248  -32.5575 H   0  0  0  0  0  0  0  0  0  0  0  0
   -9.4601   22.0101  -30.8540 H   0  0  0  0  0  0  0  0  0  0  0  0
   -7.5220   23.3217  -29.9952 H   0  0  0  0  0  0  0  0  0  0  0  0
   -2.0445   22.6402  -28.9982 H   0  0  0  0  0  0  0  0  0  0  0  0
   -1.0450   25.6610  -29.9620 H   0  0  0  0  0  0  0  0  0  0  0  0
   -0.2843   27.3785  -28.4067 H   0  0  0  0  0  0  0  0  0  0  0  0
    0.0704   28.0823  -26.0434 H   0  0  0  0  0  0  0  0  0  0  0  0
   -1.3586   26.1480  -23.1178 H   0  0  0  0  0  0  0  0  0  0  0  0
    0.1855   26.9257  -23.6053 H   0  0  0  0  0  0  0  0  0  0  0  0
   -1.3384   27.8767  -23.6053 H   0  0  0  0  0  0  0  0  0  0  0  0
   -2.3548   24.7617  -24.6884 H   0  0  0  0  0  0  0  0  0  0  0  0
   -2.7141   24.0595  -27.0521 H   0  0  0  0  0  0  0  0  0  0  0  0
  1  2  1  0
  2  3  1  0
  3  4  2  0
  4  5  1  0
  5  6  2  0
  6  7  1  0
  7  8  2  0
  8  9  1  0
  9 10  1  0
 10 11  2  0
 10 12  1  0
 12 13  2  0
 13 14  1  0
 14 15  1  0
 15 16  2  0
 16 17  1  0
 17 18  2  0
 18 19  1  0
 18 20  1  0
 20 21  2  0
 13 22  1  0
 22 23  1  0
 23 24  2  0
  8  3  1  0
 23  9  1  0
 21 15  1  0
  1 25  1  0
  1 26  1  0
  1 27  1  0
  4 28  1  0
  5 29  1  0
  6 30  1  0
  7 31  1  0
 12 32  1  0
 14 33  1  0
 16 34  1  0
 17 35  1  0
 19 36  1  0
 19 37  1  0
 19 38  1  0
 20 39  1  0
 21 40  1  0
M  CHG  1  22  -1
M  END
>  <UniqueID>  (11) 
11

>  <SMILES>  (11) 
COc1ccccc1-n1c(=O)cc(Nc2ccc(C)cc2)[n-]c1=O

>  <Energy>  (11) 
55.96085335042318

>  <Genealogy>  (11) 
COc1ccccc1-n1c(=O)cc(Nc2ccc(C)cc2)[n-]c1=O (protonated)
COc1ccccc1-n1c(=O)cc(Nc2ccc(C)cc2)[n-]c1=O (3D coordinates assigned)
COc1ccccc1-n1c(=O)cc(Nc2ccc(C)cc2)[n-]c1=O (optimized conformer: 55.96085335042318 kcal/mol)

>  <smiles>  (11) 
COc1ccccc1-n1c(=O)cc(Nc2ccc(C)cc2)[nH]c1=O

>  <score_type>  (11) 
oracle

>  <origin>  (11) 
adgpu

>  <m_score__min__energy>  (11) 
-9.5999999999999996

>  <m_primary>  (11) 
energy

$$$$
11:0
     RDKit          3D

 29 30  0  0  0  0  0  0  0  0999 V2000
   -4.2670   19.7260  -33.4790 C   0  0  0  0  0  0  0  0  0  0  0  0
   -5.1840   21.2390  -33.0530 S   0  0  0  0  0  0  0  0  0  0  0  0
   -6.5850   20.3410  -32.3680 C   0  0  0  0  0  0  0  0  0  0  0  0
   -6.4590   18.9630  -32.1480 C   0  0  0  0  0  0  0  0  0  0  0  0
   -7.5310   18.2300  -31.6340 C   0  0  0  0  0  0  0  0  0  0  0  0
   -8.7370   18.8680  -31.3370 C   0  0  0  0  0  0  0  0  0  0  0  0
   -8.8710   20.2420  -31.5480 C   0  0  0  0  0  0  0  0  0  0  0  0
   -7.7970   20.9900  -32.0510 C   0  0  0  0  0  0  0  0  0  0  0  0
   -8.0130   22.7600  -32.2940 S   0  0  0  0  0  0  0  0  0  0  0  0
   -6.7320   23.1850  -31.1110 C   0  0  0  0  0  0  0  0  0  0  0  0
   -6.6070   22.4550  -29.9220 C   0  0  0  0  0  0  0  0  0  0  0  0
   -5.6090   22.7800  -29.0010 C   0  0  0  0  0  0  0  0  0  0  0  0
   -4.7350   23.8410  -29.2590 C   0  0  0  0  0  0  0  0  0  0  0  0
   -4.8590   24.5840  -30.4430 C   0  0  0  0  0  0  0  0  0  0  0  0
   -3.9700   25.6710  -30.7060 N   0  0  0  0  0  0  0  0  0  0  0  0
   -5.8640   24.2540  -31.3650 C   0  0  0  0  0  0  0  0  0  0  0  0
   -3.9564   19.2135  -32.5566 H   0  0  0  0  0  0  0  0  0  0  0  0
   -4.9132   19.0594  -34.0690 H   0  0  0  0  0  0  0  0  0  0  0  0
   -3.3771   19.9905  -34.0690 H   0  0  0  0  0  0  0  0  0  0  0  0
   -5.5111   18.4560  -32.3813 H   0  0  0  0  0  0  0  0  0  0  0  0
   -7.4251   17.1486  -31.4629 H   0  0  0  0  0  0  0  0  0  0  0  0
   -9.5818   18.2882  -30.9367 H   0  0  0  0  0  0  0  0  0  0  0  0
   -9.8244   20.7402  -31.3183 H   0  0  0  0  0  0  0  0  0  0  0  0
   -7.2966   21.6238  -29.7134 H   0  0  0  0  0  0  0  0  0  0  0  0
   -5.5101   22.2007  -28.0712 H   0  0  0  0  0  0  0  0  0  0  0  0
   -3.9488   24.0936  -28.5323 H   0  0  0  0  0  0  0  0  0  0  0  0
   -3.4160   25.7070  -31.5910 H   0  0  0  0  0  0  0  0  0  0  0  0
   -3.8600   26.4510  -30.0200 H   0  0  0  0  0  0  0  0  0  0  0  0
   -5.9704   24.8376  -32.2913 H   0  0  0  0  0  0  0  0  0  0  0  0
  1  2  1  0
  2  3  1  0
  3  4  2  0
  4  5  1  0
  5  6  2  0
  6  7  1  0
  7  8  2  0
  8  9  1  0
  9 10  1  0
 10 11  2  0
 11 12  1  0
 12 13  2  0
 13 14  1  0
 14 15  1  0
 14 16  2  0
  8  3  1  0
 16 10  1  0
  1 17  1  0
  1 18  1  0
  1 19  1  0
  4 20  1  0
  5 21  1  0
  6 22  1  0
  7 23  1  0
 11 24  1  0
 12 25  1  0
 13 26  1  0
 15 27  1  0
 15 28  1  0
 16 29  1  0
M  END
>  <UniqueID>  (12) 
12

>  <SMILES>  (12) 
CSc1ccccc1Sc1cccc(N)c1

>  <Energy>  (12) 
20.46685272951112

>  <Genealogy>  (12) 
CSc1ccccc1Sc1cccc(N)c1 (3D coordinates assigned)
CSc1ccccc1Sc1cccc(N)c1 (optimized conformer: 20.46685272951112 kcal/mol)

>  <smiles>  (12) 
CSc1ccccc1Sc1cccc(N)c1

>  <score_type>  (12) 
oracle

>  <origin>  (12) 
adgpu

>  <m_score__min__energy>  (12) 
-7.3200000000000003

>  <m_primary>  (12) 
energy

$$$$
12:0
     RDKit          3D

 30 30  0  0  0  0  0  0  0  0999 V2000
   -6.3120   25.3020  -29.7170 C   0  0  0  0  0  0  0  0  0  0  0  0
   -5.7380   24.4980  -30.8830 C   0  0  0  0  0  0  0  0  0  0  0  0
   -6.8090   23.7080  -31.6550 C   0  0  0  0  0  0  0  0  0  0  0  0
   -7.6030   22.6980  -30.8050 C   0  0  0  0  0  0  0  0  0  0  0  0
   -8.6640   21.9070  -31.5890 C   0  0  0  0  0  0  0  0  0  0  0  0
   -8.1480   20.6040  -32.0320 N   0  0  0  0  0  0  0  0  0  0  0  0
   -8.7400   19.4550  -31.5820 C   0  0  0  0  0  0  0  0  0  0  0  0
   -8.2590   18.2050  -31.9760 C   0  0  0  0  0  0  0  0  0  0  0  0
   -7.1670   18.1270  -32.8500 C   0  0  0  0  0  0  0  0  0  0  0  0
   -6.6100   16.7940  -33.2500 C   0  0  0  0  0  0  0  0  0  0  0  0
   -6.5630   19.3100  -33.2890 C   0  0  0  0  0  0  0  0  0  0  0  0
   -7.0720   20.5420  -32.8740 C   0  0  0  0  0  0  0  0  0  0  0  0
   -5.9899   24.8509  -28.7668 H   0  0  0  0  0  0  0  0  0  0  0  0
   -5.9486   26.3388  -29.7724 H   0  0  0  0  0  0  0  0  0  0  0  0
   -7.4106   25.2950  -29.7724 H   0  0  0  0  0  0  0  0  0  0  0  0
   -5.2457   25.1931  -31.5791 H   0  0  0  0  0  0  0  0  0  0  0  0
   -5.0310   23.7680  -30.4621 H   0  0  0  0  0  0  0  0  0  0  0  0
   -7.5210   24.4274  -32.0859 H   0  0  0  0  0  0  0  0  0  0  0  0
   -6.2733   23.1203  -32.4150 H   0  0  0  0  0  0  0  0  0  0  0  0
   -6.8920   21.9813  -30.3681 H   0  0  0  0  0  0  0  0  0  0  0  0
   -8.1430   23.2817  -30.0449 H   0  0  0  0  0  0  0  0  0  0  0  0
   -9.5383   21.7436  -30.9418 H   0  0  0  0  0  0  0  0  0  0  0  0
   -8.9393   22.4897  -32.4804 H   0  0  0  0  0  0  0  0  0  0  0  0
   -9.6033   19.5170  -30.9032 H   0  0  0  0  0  0  0  0  0  0  0  0
   -8.7349   17.2864  -31.6022 H   0  0  0  0  0  0  0  0  0  0  0  0
   -6.3671   16.2126  -32.3484 H   0  0  0  0  0  0  0  0  0  0  0  0
   -7.3558   16.2493  -33.8476 H   0  0  0  0  0  0  0  0  0  0  0  0
   -5.6984   16.9419  -33.8476 H   0  0  0  0  0  0  0  0  0  0  0  0
   -5.6909   19.2697  -33.9582 H   0  0  0  0  0  0  0  0  0  0  0  0
   -6.6030   21.4720  -33.2277 H   0  0  0  0  0  0  0  0  0  0  0  0
  1  2  1  0
  2  3  1  0
  3  4  1  0
  4  5  1  0
  5  6  1  0
  6  7  2  0
  7  8  1  0
  8  9  2  0
  9 10  1  0
  9 11  1  0
 11 12  2  0
 12  6  1  0
  1 13  1  0
  1 14  1  0
  1 15  1  0
  2 16  1  0
  2 17  1  0
  3 18  1  0
  3 19  1  0
  4 20  1  0
  4 21  1  0
  5 22  1  0
  5 23  1  0
  7 24  1  0
  8 25  1  0
 10 26  1  0
 10 27  1  0
 10 28  1  0
 11 29  1  0
 12 30  1  0
M  CHG  1   6   1
M  END
>  <UniqueID>  (13) 
13

>  <SMILES>  (13) 
CCCCC[n+]1ccc(C)cc1

>  <Energy>  (13) 
20.5890714991252

>  <Genealogy>  (13) 
CCCCC[n+]1ccc(C)cc1 (3D coordinates assigned)
CCCCC[n+]1ccc(C)cc1 (optimized conformer: 20.5890714991252 kcal/mol)

>  <smiles>  (13) 
CCCCC[n+]1ccc(C)cc1

>  <score_type>  (13) 
oracle

>  <origin>  (13) 
adgpu

>  <m_score__min__energy>  (13) 
-4.7300000000000004

>  <m_primary>  (13) 
energy

$$$$
13:0
     RDKit          3D

 36 38  0  0  0  0  0  0  0  0999 V2000
   -4.4260   21.5530  -33.4310 O   0  0  0  0  0  0  0  0  0  0  0  0
   -5.0460   20.8870  -32.5560 C   0  0  0  0  0  0  0  0  0  0  0  0
   -5.2340   21.4400  -31.2430 N   0  0  0  0  0  0  0  0  0  0  0  0
   -4.4080   22.4790  -30.6890 C   0  0  0  0  0  0  0  0  0  0  0  0
   -4.9980   23.6870  -30.2870 C   0  0  0  0  0  0  0  0  0  0  0  0
   -4.2200   24.7050  -29.7270 C   0  0  0  0  0  0  0  0  0  0  0  0
   -2.8350   24.5290  -29.5650 C   0  0  0  0  0  0  0  0  0  0  0  0
   -2.0140   25.5430  -28.9680 N   0  0  0  0  0  0  0  0  0  0  0  0
   -0.9350   25.3240  -28.0510 C   0  0  0  0  0  0  0  0  0  0  0  0
    0.0510   24.6380  -28.4280 O   0  0  0  0  0  0  0  0  0  0  0  0
   -0.9170   25.9430  -26.7130 C   0  0  0  0  0  0  0  0  0  0  0  0
   -1.6310   25.5080  -25.6140 C   0  0  0  0  0  0  0  0  0  0  0  0
   -1.3010   26.3720  -24.5920 C   0  0  0  0  0  0  0  0  0  0  0  0
   -0.4050   27.2750  -25.1260 C   0  0  0  0  0  0  0  0  0  0  0  0
   -0.1960   26.9920  -26.3920 O   0  0  0  0  0  0  0  0  0  0  0  0
   -2.2540   23.3080  -29.9210 C   0  0  0  0  0  0  0  0  0  0  0  0
   -3.0300   22.2900  -30.4810 C   0  0  0  0  0  0  0  0  0  0  0  0
   -5.6170   19.5650  -32.9150 C   0  0  0  0  0  0  0  0  0  0  0  0
   -6.6700   19.0190  -32.1570 C   0  0  0  0  0  0  0  0  0  0  0  0
   -7.2160   17.7770  -32.4940 C   0  0  0  0  0  0  0  0  0  0  0  0
   -6.7220   17.0680  -33.5920 C   0  0  0  0  0  0  0  0  0  0  0  0
   -7.2530   15.8640  -33.9170 F   0  0  0  0  0  0  0  0  0  0  0  0
   -5.6840   17.6040  -34.3570 C   0  0  0  0  0  0  0  0  0  0  0  0
   -5.1350   18.8460  -34.0250 C   0  0  0  0  0  0  0  0  0  0  0  0
   -6.0830   21.1530  -30.7060 H   0  0  0  0  0  0  0  0  0  0  0  0
   -6.0808   23.8343  -30.4134 H   0  0  0  0  0  0  0  0  0  0  0  0
   -4.6935   25.6467  -29.4122 H   0  0  0  0  0  0  0  0  0  0  0  0
   -2.3191   24.6512  -25.5645 H   0  0  0  0  0  0  0  0  0  0  0  0
   -1.6765   26.3466  -23.5584 H   0  0  0  0  0  0  0  0  0  0  0  0
    0.0628   28.1049  -24.5761 H   0  0  0  0  0  0  0  0  0  0  0  0
   -1.1779   23.1477  -29.7589 H   0  0  0  0  0  0  0  0  0  0  0  0
   -2.5605   21.3354  -30.7608 H   0  0  0  0  0  0  0  0  0  0  0  0
   -7.0660   19.5735  -31.2935 H   0  0  0  0  0  0  0  0  0  0  0  0
   -8.0363   17.3570  -31.8935 H   0  0  0  0  0  0  0  0  0  0  0  0
   -5.2972   17.0473  -35.2233 H   0  0  0  0  0  0  0  0  0  0  0  0
   -4.3209   19.2642  -34.6352 H   0  0  0  0  0  0  0  0  0  0  0  0
  1  2  2  0
  2  3  1  0
  3  4  1  0
  4  5  2  0
  5  6  1  0
  6  7  2  0
  7  8  1  0
  8  9  1  0
  9 10  2  0
  9 11  1  0
 11 12  2  0
 12 13  1  0
 13 14  2  0
 14 15  1  0
  7 16  1  0
 16 17  2  0
  2 18  1  0
 18 19  2  0
 19 20  1  0
 20 21  2  0
 21 22  1  0
 21 23  1  0
 23 24  2  0
 17  4  1  0
 24 18  1  0
 15 11  1  0
  3 25  1  0
  5 26  1  0
  6 27  1  0
 12 28  1  0
 13 29  1  0
 14 30  1  0
 16 31  1  0
 17 32  1  0
 19 33  1  0
 20 34  1  0
 23 35  1  0
 24 36  1  0
M  CHG  1   8  -1
M  END
>  <UniqueID>  (14) 
14

>  <SMILES>  (14) 
O=C(Nc1ccc([N-]C(=O)c2ccco2)cc1)c1ccc(F)cc1

>  <Energy>  (14) 
74.5882926147592

>  <Genealogy>  (14) 
O=C(Nc1ccc([N-]C(=O)c2ccco2)cc1)c1ccc(F)cc1 (protonated)
O=C(Nc1ccc([N-]C(=O)c2ccco2)cc1)c1ccc(F)cc1 (3D coordinates assigned)
O=C(Nc1ccc([N-]C(=O)c2ccco2)cc1)c1ccc(F)cc1 (optimized conformer: 74.5882926147592 kcal/mol)

>  <smiles>  (14) 
O=C(Nc1ccc(NC(=O)c2ccco2)cc1)c1ccc(F)cc1

>  <score_type>  (14) 
oracle

>  <origin>  (14) 
adgpu

>  <m_score__min__energy>  (14) 
-9.1300000000000008

>  <m_primary>  (14) 
energy

$$$$
14:0
     RDKit          3D

 44 45  0  0  1  0  0  0  0  0999 V2000
   -7.5390   22.8780  -30.5240 C   0  0  0  0  0  0  0  0  0  0  0  0
   -8.1610   22.5520  -31.8400 C   0  0  0  0  0  0  0  0  0  0  0  0
   -8.0560   21.1590  -32.2220 N   0  0  0  0  0  0  0  0  0  0  0  0
   -9.2720   20.3610  -32.2550 C   0  0  0  0  0  0  0  0  0  0  0  0
   -9.0200   18.9920  -31.6340 C   0  0  0  0  0  0  0  0  0  0  0  0
   -6.7800   20.6230  -32.5570 C   0  0  0  0  0  0  0  0  0  0  0  0
   -5.6390   21.0110  -31.9550 N   0  0  0  0  0  0  0  0  0  0  0  0
   -4.4890   20.4200  -32.3570 C   0  0  0  0  0  0  0  0  0  0  0  0
   -3.3620   20.7520  -31.8310 N   0  0  0  0  0  0  0  0  0  0  0  0
   -3.2700   21.7510  -30.8080 C   0  0  0  0  0  0  0  0  0  0  0  0
   -2.7250   21.4440  -29.5800 C   0  0  0  0  0  0  0  0  0  0  0  0
   -2.6660   22.4480  -28.6350 C   0  0  0  0  0  0  0  0  0  0  0  0
   -3.1290   23.7230  -28.8830 C   0  0  0  0  0  0  0  0  0  0  0  0
   -3.6750   24.0420  -30.1060 C   0  0  0  0  0  0  0  0  0  0  0  0
   -4.1710   25.3290  -30.4350 N   0  0  0  0  0  0  0  0  0  0  0  0
   -5.5420   25.7390  -30.3330 C   0  0  0  0  0  0  0  0  0  0  0  0
   -3.7290   23.0300  -31.0430 C   0  0  0  0  0  0  0  0  0  0  0  0
   -4.4660   19.4550  -33.3430 C   0  0  0  0  0  0  0  0  0  0  0  0
   -5.6530   19.0710  -33.9480 C   0  0  0  0  0  0  0  0  0  0  0  0
   -5.7080   18.0470  -35.0060 C   0  0  0  0  0  0  0  0  0  0  0  0
   -6.7860   19.6720  -33.5340 N   0  0  0  0  0  0  0  0  0  0  0  0
   -8.1965   22.5334  -29.7123 H   0  0  0  0  0  0  0  0  0  0  0  0
   -6.5640   22.3750  -30.4446 H   0  0  0  0  0  0  0  0  0  0  0  0
   -7.3978   23.9660  -30.4446 H   0  0  0  0  0  0  0  0  0  0  0  0
   -9.2277   22.8160  -31.7913 H   0  0  0  0  0  0  0  0  0  0  0  0
   -7.6112   23.1282  -32.5987 H   0  0  0  0  0  0  0  0  0  0  0  0
  -10.0610   20.8773  -31.6885 H   0  0  0  0  0  0  0  0  0  0  0  0
   -9.5862   20.2285  -33.3008 H   0  0  0  0  0  0  0  0  0  0  0  0
   -9.0359   19.0782  -30.5375 H   0  0  0  0  0  0  0  0  0  0  0  0
   -9.8044   18.2923  -31.9582 H   0  0  0  0  0  0  0  0  0  0  0  0
   -8.0378   18.6175  -31.9582 H   0  0  0  0  0  0  0  0  0  0  0  0
   -2.3499   20.4335  -29.3606 H   0  0  0  0  0  0  0  0  0  0  0  0
   -2.2342   22.2231  -27.6486 H   0  0  0  0  0  0  0  0  0  0  0  0
   -3.0616   24.4907  -28.0981 H   0  0  0  0  0  0  0  0  0  0  0  0
   -3.4880   26.0580  -30.7880 H   0  0  0  0  0  0  0  0  0  0  0  0
   -5.8218   25.8227  -29.2725 H   0  0  0  0  0  0  0  0  0  0  0  0
   -5.6704   26.7148  -30.8242 H   0  0  0  0  0  0  0  0  0  0  0  0
   -6.1851   24.9939  -30.8242 H   0  0  0  0  0  0  0  0  0  0  0  0
   -4.1609   23.2556  -32.0292 H   0  0  0  0  0  0  0  0  0  0  0  0
   -3.5143   18.9944  -33.6464 H   0  0  0  0  0  0  0  0  0  0  0  0
   -5.7616   17.0486  -34.5475 H   0  0  0  0  0  0  0  0  0  0  0  0
   -6.5986   18.2122  -35.6302 H   0  0  0  0  0  0  0  0  0  0  0  0
   -4.8049   18.1158  -35.6302 H   0  0  0  0  0  0  0  0  0  0  0  0
   -7.6720   19.3780  -33.9970 H   0  0  0  0  0  0  0  0  0  0  0  0
  1  2  1  0
  2  3  1  0
  3  4  1  0
  4  5  1  0
  3  6  1  0
  6  7  2  0
  7  8  1  0
  8  9  2  0
  9 10  1  0
 10 11  2  0
 11 12  1  0
 12 13  2  0
 13 14  1  0
 14 15  1  0
 15 16  1  0
 14 17  2  0
  8 18  1  0
 18 19  2  0
 19 20  1  0
 19 21  1  0
 21  6  1  0
 17 10  1  0
  1 22  1  0
  1 23  1  0
  1 24  1  0
  2 25  1  0
  2 26  1  0
  4 27  1  0
  4 28  1  0
  5 29  1  0
  5 30  1  0
  5 31  1  0
 11 32  1  0
 12 33  1  0
 13 34  1  0
 15 35  1  0
 16 36  1  0
 16 37  1  0
 16 38  1  0
 17 39  1  0
 18 40  1  0
 20 41  1  0
 20 42  1  0
 20 43  1  0
 21 44  1  0
M  END
>  <smiles>  (15) 
CCN(CC)c1nc(=Nc2cccc(NC)c2)cc(C)[nH]1

>  <score_type>  (15) 
oracle

>  <origin>  (15) 
adgpu

>  <m_score__min__energy>  (15) 
-7.8099999999999996

>  <m_primary>  (15) 
energy

$$$$
15:0
     RDKit          3D

 22 22  0  0  0  0  0  0  0  0999 V2000
   -5.2450   25.6690  -30.5390 C   0  0  0  0  0  0  0  0  0  0  0  0
   -3.8640   25.3260  -30.4580 O   0  0  0  0  0  0  0  0  0  0  0  0
   -3.3540   24.2560  -29.7060 C   0  0  0  0  0  0  0  0  0  0  0  0
   -3.9630   22.9880  -29.7020 C   0  0  0  0  0  0  0  0  0  0  0  0
   -3.4280   21.9470  -28.9430 C   0  0  0  0  0  0  0  0  0  0  0  0
   -2.2730   22.1540  -28.1720 C   0  0  0  0  0  0  0  0  0  0  0  0
   -1.6940   21.0640  -27.3640 C   0  0  0  0  0  0  0  0  0  0  0  0
   -2.4140   20.1340  -26.9130 O   0  0  0  0  0  0  0  0  0  0  0  0
   -1.6630   23.4160  -28.1730 C   0  0  0  0  0  0  0  0  0  0  0  0
   -2.1990   24.4720  -28.9380 C   0  0  0  0  0  0  0  0  0  0  0  0
   -1.6120   25.7470  -28.9620 O   0  0  0  0  0  0  0  0  0  0  0  0
   -0.8680   26.3140  -27.8870 C   0  0  0  0  0  0  0  0  0  0  0  0
   -5.6575   25.7714  -29.5244 H   0  0  0  0  0  0  0  0  0  0  0  0
   -5.3552   26.6218  -31.0775 H   0  0  0  0  0  0  0  0  0  0  0  0
   -5.7882   24.8785  -31.0775 H   0  0  0  0  0  0  0  0  0  0  0  0
   -4.8685   22.8159  -30.3023 H   0  0  0  0  0  0  0  0  0  0  0  0
   -3.9131   20.9598  -28.9486 H   0  0  0  0  0  0  0  0  0  0  0  0
   -0.6147   21.0633  -27.1516 H   0  0  0  0  0  0  0  0  0  0  0  0
   -0.7576   23.5840  -27.5713 H   0  0  0  0  0  0  0  0  0  0  0  0
   -1.2988   25.9857  -26.9296 H   0  0  0  0  0  0  0  0  0  0  0  0
    0.1790   25.9827  -27.9508 H   0  0  0  0  0  0  0  0  0  0  0  0
   -0.9098   27.4114  -27.9508 H   0  0  0  0  0  0  0  0  0  0  0  0
  1  2  1  0
  2  3  1  0
  3  4  2  0
  4  5  1  0
  5  6  2  0
  6  7  1  0
  7  8  2  0
  6  9  1  0
  9 10  2  0
 10 11  1  0
 11 12  1  0
 10  3  1  0
  1 13  1  0
  1 14  1  0
  1 15  1  0
  4 16  1  0
  5 17  1  0
  7 18  1  0
  9 19  1  0
 12 20  1  0
 12 21  1  0
 12 22  1  0
M  END
>  <UniqueID>  (16) 
15

>  <SMILES>  (16) 
COc1ccc(C=O)cc1OC

>  <Energy>  (16) 
19.237459563607697

>  <Genealogy>  (16) 
COc1ccc(C=O)cc1OC (3D coordinates assigned)
COc1ccc(C=O)cc1OC (optimized conformer: 19.237459563607697 kcal/mol)

>  <smiles>  (16) 
COc1ccc(C=O)cc1OC

>  <score_type>  (16) 
oracle

>  <origin>  (16) 
adgpu

>  <m_score__min__energy>  (16) 
-5.1500000000000004

>  <m_primary>  (16) 
energy

$$$$
16:0
     RDKit          3D

 25 25  0  0  0  0  0  0  0  0999 V2000
   -2.3910   24.0110  -29.1250 C   0  0  0  0  0  0  0  0  0  0  0  0
   -3.1110   24.9140  -29.9550 O   0  0  0  0  0  0  0  0  0  0  0  0
   -4.4650   24.7420  -30.2570 C   0  0  0  0  0  0  0  0  0  0  0  0
   -4.9940   25.3570  -31.2230 O   0  0  0  0  0  0  0  0  0  0  0  0
   -5.3030   23.8570  -29.3930 C   0  0  0  0  0  0  0  0  0  0  0  0
   -6.1170   22.9250  -30.2470 C   0  0  0  0  0  0  0  0  0  0  0  0
   -7.4770   22.7160  -29.9710 C   0  0  0  0  0  0  0  0  0  0  0  0
   -8.2430   21.8760  -30.7840 C   0  0  0  0  0  0  0  0  0  0  0  0
   -7.6580   21.2370  -31.8950 C   0  0  0  0  0  0  0  0  0  0  0  0
   -8.3840   20.3850  -32.7410 O   0  0  0  0  0  0  0  0  0  0  0  0
   -8.9170   19.1260  -32.3480 C   0  0  0  0  0  0  0  0  0  0  0  0
   -6.3050   21.4590  -32.1750 C   0  0  0  0  0  0  0  0  0  0  0  0
   -5.5390   22.2990  -31.3610 C   0  0  0  0  0  0  0  0  0  0  0  0
   -2.5827   24.2514  -28.0689 H   0  0  0  0  0  0  0  0  0  0  0  0
   -2.7190   22.9817  -29.3321 H   0  0  0  0  0  0  0  0  0  0  0  0
   -1.3145   24.1015  -29.3321 H   0  0  0  0  0  0  0  0  0  0  0  0
   -4.6495   23.2684  -28.7324 H   0  0  0  0  0  0  0  0  0  0  0  0
   -5.9811   24.4787  -28.7899 H   0  0  0  0  0  0  0  0  0  0  0  0
   -7.9430   23.2164  -29.1094 H   0  0  0  0  0  0  0  0  0  0  0  0
   -9.3066   21.7132  -30.5556 H   0  0  0  0  0  0  0  0  0  0  0  0
   -8.9427   19.0653  -31.2500 H   0  0  0  0  0  0  0  0  0  0  0  0
   -9.9373   19.0197  -32.7451 H   0  0  0  0  0  0  0  0  0  0  0  0
   -8.2832   18.3194  -32.7451 H   0  0  0  0  0  0  0  0  0  0  0  0
   -5.8401   20.9685  -33.0429 H   0  0  0  0  0  0  0  0  0  0  0  0
   -4.4779   22.4697  -31.5955 H   0  0  0  0  0  0  0  0  0  0  0  0
  1  2  1  0
  2  3  1  0
  3  4  2  0
  3  5  1  0
  5  6  1  0
  6  7  2  0
  7  8  1  0
  8  9  2  0
  9 10  1  0
 10 11  1  0
  9 12  1  0
 12 13  2  0
 13  6  1  0
  1 14  1  0
  1 15  1  0
  1 16  1  0
  5 17  1  0
  5 18  1  0
  7 19  1  0
  8 20  1  0
 11 21  1  0
 11 22  1  0
 11 23  1  0
 12 24  1  0
 13 25  1  0
M  END
>  <UniqueID>  (17) 
16

>  <SMILES>  (17) 
COC(=O)Cc1ccc(OC)cc1

>  <Energy>  (17) 
18.198767676379987

>  <Genealogy>  (17) 
COC(=O)Cc1ccc(OC)cc1 (3D coordinates assigned)
COC(=O)Cc1ccc(OC)cc1 (optimized conformer: 18.198767676379987 kcal/mol)

>  <smiles>  (17) 
COC(=O)Cc1ccc(OC)cc1

>  <score_type>  (17) 
oracle

>  <origin>  (17) 
adgpu

>  <m_score__min__energy>  (17) 
-5.2800000000000002

>  <m_primary>  (17) 
energy

$$$$
17:0
     RDKit          3D

 29 30  0  0  0  0  0  0  0  0999 V2000
   -4.3240   24.9110  -26.3440 C   0  0  0  0  0  0  0  0  0  0  0  0
   -3.0000   24.9140  -27.0580 C   0  0  0  0  0  0  0  0  0  0  0  0
   -1.9060   25.5820  -26.4830 C   0  0  0  0  0  0  0  0  0  0  0  0
   -0.6650   25.5920  -27.1250 C   0  0  0  0  0  0  0  0  0  0  0  0
   -0.5010   24.9260  -28.3390 C   0  0  0  0  0  0  0  0  0  0  0  0
   -1.5760   24.2480  -28.9170 C   0  0  0  0  0  0  0  0  0  0  0  0
   -2.8370   24.2410  -28.2910 C   0  0  0  0  0  0  0  0  0  0  0  0
   -3.9290   23.5070  -28.8710 N   0  0  0  0  0  0  0  0  0  0  0  0
   -4.4980   23.8200  -30.1550 C   0  0  0  0  0  0  0  0  0  0  0  0
   -4.0380   24.7840  -30.8270 O   0  0  0  0  0  0  0  0  0  0  0  0
   -5.6290   23.0350  -30.7060 C   0  0  0  0  0  0  0  0  0  0  0  0
   -6.8680   23.0340  -30.0400 C   0  0  0  0  0  0  0  0  0  0  0  0
   -7.9440   22.2950  -30.5440 C   0  0  0  0  0  0  0  0  0  0  0  0
   -7.7920   21.5420  -31.7100 C   0  0  0  0  0  0  0  0  0  0  0  0
   -9.1410   20.6130  -32.3390 Cl  0  0  0  0  0  0  0  0  0  0  0  0
   -6.5600   21.5230  -32.3720 C   0  0  0  0  0  0  0  0  0  0  0  0
   -5.4840   22.2620  -31.8730 C   0  0  0  0  0  0  0  0  0  0  0  0
   -4.1545   24.9114  -25.2571 H   0  0  0  0  0  0  0  0  0  0  0  0
   -4.8949   25.8079  -26.6264 H   0  0  0  0  0  0  0  0  0  0  0  0
   -4.8908   24.0116  -26.6264 H   0  0  0  0  0  0  0  0  0  0  0  0
   -2.0272   26.1008  -25.5206 H   0  0  0  0  0  0  0  0  0  0  0  0
    0.1835   26.1258  -26.6722 H   0  0  0  0  0  0  0  0  0  0  0  0
    0.4771   24.9348  -28.8423 H   0  0  0  0  0  0  0  0  0  0  0  0
   -1.4366   23.7150  -29.8691 H   0  0  0  0  0  0  0  0  0  0  0  0
   -4.3350   22.7270  -28.3080 H   0  0  0  0  0  0  0  0  0  0  0  0
   -6.9919   23.6184  -29.1163 H   0  0  0  0  0  0  0  0  0  0  0  0
   -8.9115   22.3073  -30.0207 H   0  0  0  0  0  0  0  0  0  0  0  0
   -6.4378   20.9252  -33.2872 H   0  0  0  0  0  0  0  0  0  0  0  0
   -4.5167   22.2393  -32.3962 H   0  0  0  0  0  0  0  0  0  0  0  0
  1  2  1  0
  2  3  2  0
  3  4  1  0
  4  5  2  0
  5  6  1  0
  6  7  2  0
  7  8  1  0
  8  9  1  0
  9 10  2  0
  9 11  1  0
 11 12  2  0
 12 13  1  0
 13 14  2  0
 14 15  1  0
 14 16  1  0
 16 17  2  0
  7  2  1  0
 17 11  1  0
  1 18  1  0
  1 19  1  0
  1 20  1  0
  3 21  1  0
  4 22  1  0
  5 23  1  0
  6 24  1  0
  8 25  1  0
 12 26  1  0
 13 27  1  0
 16 28  1  0
 17 29  1  0
M  END
>  <UniqueID>  (18) 
17

>  <SMILES>  (18) 
Cc1ccccc1NC(=O)c1ccc(Cl)cc1

>  <Energy>  (18) 
36.85906133849567

>  <Genealogy>  (18) 
Cc1ccccc1NC(=O)c1ccc(Cl)cc1 (3D coordinates assigned)
Cc1ccccc1NC(=O)c1ccc(Cl)cc1 (optimized conformer: 36.85906133849567 kcal/mol)

>  <smiles>  (18) 
Cc1ccccc1NC(=O)c1ccc(Cl)cc1

>  <score_type>  (18) 
oracle

>  <origin>  (18) 
adgpu

>  <m_score__min__energy>  (18) 
-7.1799999999999997

>  <m_primary>  (18) 
energy

$$$$
18:0
     RDKit          3D

 36 37  0  0  0  0  0  0  0  0999 V2000
   -1.6210   26.1340  -28.9740 O   0  0  0  0  0  0  0  0  0  0  0  0
   -2.0190   24.8290  -29.2380 C   0  0  0  0  0  0  0  0  0  0  0  0
   -1.2890   23.7580  -28.7110 C   0  0  0  0  0  0  0  0  0  0  0  0
   -1.6830   22.4430  -28.9740 C   0  0  0  0  0  0  0  0  0  0  0  0
   -2.8150   22.1870  -29.7650 C   0  0  0  0  0  0  0  0  0  0  0  0
   -3.2300   20.7680  -30.0600 C   0  0  0  0  0  0  0  0  0  0  0  0
   -2.6140   20.2400  -31.3710 C   0  0  0  0  0  0  0  0  0  0  0  0
   -3.4250   20.5550  -32.5620 N   0  0  0  0  0  0  0  0  0  0  0  0
   -4.6720   19.7770  -32.6250 C   0  0  0  0  0  0  0  0  0  0  0  0
   -5.6890   20.4890  -33.5210 C   0  0  0  0  0  0  0  0  0  0  0  0
   -6.9160   20.8650  -32.7360 C   0  0  0  0  0  0  0  0  0  0  0  0
   -7.9900   19.9660  -32.6280 C   0  0  0  0  0  0  0  0  0  0  0  0
   -9.1180   20.3040  -31.8700 C   0  0  0  0  0  0  0  0  0  0  0  0
   -9.1750   21.5340  -31.2100 C   0  0  0  0  0  0  0  0  0  0  0  0
   -8.1040   22.4280  -31.3010 C   0  0  0  0  0  0  0  0  0  0  0  0
   -6.9760   22.0950  -32.0580 C   0  0  0  0  0  0  0  0  0  0  0  0
   -3.5440   23.2670  -30.2930 C   0  0  0  0  0  0  0  0  0  0  0  0
   -3.1460   24.5830  -30.0310 C   0  0  0  0  0  0  0  0  0  0  0  0
   -3.8740   25.6430  -30.5590 O   0  0  0  0  0  0  0  0  0  0  0  0
   -0.4031   23.9513  -28.0883 H   0  0  0  0  0  0  0  0  0  0  0  0
   -1.1038   21.6047  -28.5595 H   0  0  0  0  0  0  0  0  0  0  0  0
   -2.9028   20.1238  -29.2306 H   0  0  0  0  0  0  0  0  0  0  0  0
   -4.3242   20.7532  -30.1718 H   0  0  0  0  0  0  0  0  0  0  0  0
   -1.6187   20.6914  -31.4963 H   0  0  0  0  0  0  0  0  0  0  0  0
   -2.5634   19.1441  -31.2904 H   0  0  0  0  0  0  0  0  0  0  0  0
   -3.6500   21.5760  -32.5880 H   0  0  0  0  0  0  0  0  0  0  0  0
   -4.4587   18.7797  -33.0372 H   0  0  0  0  0  0  0  0  0  0  0  0
   -5.0889   19.6806  -31.6116 H   0  0  0  0  0  0  0  0  0  0  0  0
   -5.2312   21.3999  -33.9342 H   0  0  0  0  0  0  0  0  0  0  0  0
   -5.9831   19.8082  -34.3334 H   0  0  0  0  0  0  0  0  0  0  0  0
   -7.9448   18.9936  -33.1403 H   0  0  0  0  0  0  0  0  0  0  0  0
   -9.9600   19.6003  -31.7942 H   0  0  0  0  0  0  0  0  0  0  0  0
  -10.0634   21.7993  -30.6181 H   0  0  0  0  0  0  0  0  0  0  0  0
   -8.1485   23.3941  -30.7768 H   0  0  0  0  0  0  0  0  0  0  0  0
   -6.1326   22.7982  -32.1231 H   0  0  0  0  0  0  0  0  0  0  0  0
   -4.4312   23.0768  -30.9149 H   0  0  0  0  0  0  0  0  0  0  0  0
  1  2  1  0
  2  3  2  0
  3  4  1  0
  4  5  2  0
  5  6  1  0
  6  7  1  0
  7  8  1  0
  8  9  1  0
  9 10  1  0
 10 11  1  0
 11 12  2  0
 12 13  1  0
 13 14  2  0
 14 15  1  0
 15 16  2  0
  5 17  1  0
 17 18  2  0
 18 19  1  0
 18  2  1  0
 16 11  1  0
  3 20  1  0
  4 21  1  0
  6 22  1  0
  6 23  1  0
  7 24  1  0
  7 25  1  0
  8 26  1  0
  9 27  1  0
  9 28  1  0
 10 29  1  0
 10 30  1  0
 12 31  1  0
 13 32  1  0
 14 33  1  0
 15 34  1  0
 16 35  1  0
 17 36  1  0
M  CHG  2   1  -1  19  -1
M  END
>  <UniqueID>  (19) 
18

>  <SMILES>  (19) 
[O-]c1ccc(CCNCCc2ccccc2)cc1[O-]

>  <Energy>  (19) 
33.91106516054206

>  <Genealogy>  (19) 
[O-]c1ccc(CCNCCc2ccccc2)cc1[O-] (protonated)
[O-]c1ccc(CCNCCc2ccccc2)cc1[O-] (3D coordinates assigned)
[O-]c1ccc(CCNCCc2ccccc2)cc1[O-] (optimized conformer: 33.91106516054206 kcal/mol)

>  <smiles>  (19) 
Oc1ccc(CCNCCc2ccccc2)cc1O

>  <score_type>  (19) 
oracle

>  <origin>  (19) 
adgpu

>  <m_score__min__energy>  (19) 
-12.67

>  <m_primary>  (19) 
energy

$$$$
19:0
     RDKit          3D

 30 32  0  0  0  0  0  0  0  0999 V2000
   -9.2627   22.2081  -31.1036 H   0  0  0  0  0  0  0  0  0  0  0  0
   -8.6980   21.3680  -31.5340 C   0  0  0  0  0  0  0  0  0  0  0  0
   -9.3500   19.9050  -32.0540 S   0  0  0  0  0  0  0  0  0  0  0  0
   -7.8620   19.2800  -32.5060 C   0  0  0  0  0  0  0  0  0  0  0  0
   -7.7170   18.1070  -33.0510 N   0  0  0  0  0  0  0  0  0  0  0  0
   -6.4730   17.4740  -33.3910 C   0  0  0  0  0  0  0  0  0  0  0  0
   -5.8240   16.6880  -32.4310 C   0  0  0  0  0  0  0  0  0  0  0  0
   -6.2885   16.5329  -31.4460 H   0  0  0  0  0  0  0  0  0  0  0  0
   -4.5880   16.0990  -32.7180 C   0  0  0  0  0  0  0  0  0  0  0  0
   -4.0922   15.4668  -31.9667 H   0  0  0  0  0  0  0  0  0  0  0  0
   -3.9830   16.3140  -33.9600 C   0  0  0  0  0  0  0  0  0  0  0  0
   -3.0153   15.8437  -34.1888 H   0  0  0  0  0  0  0  0  0  0  0  0
   -4.6070   17.1260  -34.9110 C   0  0  0  0  0  0  0  0  0  0  0  0
   -4.1257   17.3020  -35.8843 H   0  0  0  0  0  0  0  0  0  0  0  0
   -5.8430   17.7150  -34.6260 C   0  0  0  0  0  0  0  0  0  0  0  0
   -6.3239   18.3682  -35.3690 H   0  0  0  0  0  0  0  0  0  0  0  0
   -6.8620   20.1680  -32.2920 N   0  0  0  0  0  0  0  0  0  0  0  0
   -5.8690   20.0170  -32.5740 H   0  0  0  0  0  0  0  0  0  0  0  0
   -7.3160   21.3320  -31.7430 C   0  0  0  0  0  0  0  0  0  0  0  0
   -6.4120   22.4610  -31.4110 C   0  0  0  0  0  0  0  0  0  0  0  0
   -6.9390   23.7330  -31.1160 C   0  0  0  0  0  0  0  0  0  0  0  0
   -8.0276   23.8901  -31.1311 H   0  0  0  0  0  0  0  0  0  0  0  0
   -6.0880   24.7980  -30.8040 C   0  0  0  0  0  0  0  0  0  0  0  0
   -6.5094   25.7878  -30.5745 H   0  0  0  0  0  0  0  0  0  0  0  0
   -4.7040   24.6080  -30.7830 C   0  0  0  0  0  0  0  0  0  0  0  0
   -3.8610   25.6680  -30.4720 O   0  0  0  0  0  0  0  0  0  0  0  0
   -4.1690   23.3510  -31.0750 C   0  0  0  0  0  0  0  0  0  0  0  0
   -3.0794   23.2011  -31.0578 H   0  0  0  0  0  0  0  0  0  0  0  0
   -5.0150   22.2830  -31.3890 C   0  0  0  0  0  0  0  0  0  0  0  0
   -4.5865   21.2967  -31.6205 H   0  0  0  0  0  0  0  0  0  0  0  0
  1  2  1  0
  2  3  1  0
  3  4  1  0
  4  5  2  0
  5  6  1  0
  6  7  2  0
  7  8  1  0
  7  9  1  0
  9 10  1  0
  9 11  2  0
 11 12  1  0
 11 13  1  0
 13 14  1  0
 13 15  2  0
 15 16  1  0
  4 17  1  0
 17 18  1  0
 17 19  1  0
 19 20  1  0
 20 21  2  0
 21 22  1  0
 21 23  1  0
 23 24  1  0
 23 25  2  0
 25 26  1  0
 25 27  1  0
 27 28  1  0
 27 29  2  0
 29 30  1  0
 19  2  2  0
 29 20  1  0
 15  6  1  0
M  CHG  1  26  -1
M  END
>  <UniqueID>  (20) 
19

>  <SMILES>  (20) 
[O-]c1ccc(-c2cs/c(=N/c3ccccc3)[nH]2)cc1

>  <Energy>  (20) 
73.27959679450582

>  <Genealogy>  (20) 
[O-]c1ccc(-c2csc(=Nc3ccccc3)[nH]2)cc1 (protonated)
[O-]c1ccc(-c2cs/c(=N/c3ccccc3)[nH]2)cc1 (cis-trans isomerization)
[O-]c1ccc(-c2cs/c(=N/c3ccccc3)[nH]2)cc1 (3D coordinates assigned)
[O-]c1ccc(-c2cs/c(=N/c3ccccc3)[nH]2)cc1 (optimized conformer: 73.27959679450582 kcal/mol)

>  <smiles>  (20) 
Oc1ccc(-c2csc(=Nc3ccccc3)[nH]2)cc1

>  <score_type>  (20) 
oracle

>  <origin>  (20) 
adgpu

>  <m_score__min__energy>  (20) 
-10.99

>  <m_primary>  (20) 
energy

$$$$
20:0
     RDKit          3D

 40 43  0  0  0  0  0  0  0  0999 V2000
   -4.0390   25.3280  -30.5230 O   0  0  0  0  0  0  0  0  0  0  0  0
   -4.5780   24.1890  -30.5430 C   0  0  0  0  0  0  0  0  0  0  0  0
   -5.9200   24.0640  -31.0030 N   0  0  0  0  0  0  0  0  0  0  0  0
   -6.5880   23.0320  -31.4510 C   0  0  0  0  0  0  0  0  0  0  0  0
   -7.9640   23.2660  -31.6200 C   0  0  0  0  0  0  0  0  0  0  0  0
   -8.8370   22.2610  -32.0120 C   0  0  0  0  0  0  0  0  0  0  0  0
   -8.3570   20.9830  -32.2490 C   0  0  0  0  0  0  0  0  0  0  0  0
   -9.4690   19.7020  -32.7000 Cl  0  0  0  0  0  0  0  0  0  0  0  0
   -6.9940   20.7190  -32.1430 C   0  0  0  0  0  0  0  0  0  0  0  0
   -6.0480   21.7270  -31.7970 C   0  0  0  0  0  0  0  0  0  0  0  0
   -4.7100   21.4030  -31.8840 C   0  0  0  0  0  0  0  0  0  0  0  0
   -4.2320   20.1740  -32.5690 C   0  0  0  0  0  0  0  0  0  0  0  0
   -4.7740   18.9270  -32.2220 C   0  0  0  0  0  0  0  0  0  0  0  0
   -4.3020   17.7600  -32.8310 C   0  0  0  0  0  0  0  0  0  0  0  0
   -3.2780   17.8280  -33.7790 C   0  0  0  0  0  0  0  0  0  0  0  0
   -2.7180   19.0650  -34.1150 C   0  0  0  0  0  0  0  0  0  0  0  0
   -3.1860   20.2350  -33.5080 C   0  0  0  0  0  0  0  0  0  0  0  0
   -3.6660   22.2300  -31.3700 N   0  0  0  0  0  0  0  0  0  0  0  0
   -3.8320   22.9740  -30.1420 C   0  0  1  0  0  0  0  0  0  0  0  0
   -2.5150   23.2370  -29.4150 C   0  0  0  0  0  0  0  0  0  0  0  0
   -2.3600   24.3210  -28.5230 C   0  0  0  0  0  0  0  0  0  0  0  0
   -1.1230   24.5810  -27.9260 C   0  0  0  0  0  0  0  0  0  0  0  0
   -0.0150   23.7910  -28.2350 C   0  0  0  0  0  0  0  0  0  0  0  0
   -0.1370   22.7520  -29.1570 C   0  0  0  0  0  0  0  0  0  0  0  0
   -1.3710   22.4860  -29.7560 C   0  0  0  0  0  0  0  0  0  0  0  0
   -8.3603   24.2755  -31.4361 H   0  0  0  0  0  0  0  0  0  0  0  0
   -9.9083   22.4786  -32.1344 H   0  0  0  0  0  0  0  0  0  0  0  0
   -6.6349   19.6968  -32.3330 H   0  0  0  0  0  0  0  0  0  0  0  0
   -5.5730   18.8673  -31.4683 H   0  0  0  0  0  0  0  0  0  0  0  0
   -4.7380   16.7863  -32.5630 H   0  0  0  0  0  0  0  0  0  0  0  0
   -2.9123   16.9093  -34.2609 H   0  0  0  0  0  0  0  0  0  0  0  0
   -1.9083   19.1177  -34.8577 H   0  0  0  0  0  0  0  0  0  0  0  0
   -2.7353   21.2049  -33.7653 H   0  0  0  0  0  0  0  0  0  0  0  0
   -2.8350   22.4060  -31.9830 H   0  0  0  0  0  0  0  0  0  0  0  0
   -4.3912   22.4097  -29.3811 H   0  0  0  0  0  0  0  0  0  0  0  0
   -3.2209   24.9669  -28.2959 H   0  0  0  0  0  0  0  0  0  0  0  0
   -1.0228   25.4106  -27.2107 H   0  0  0  0  0  0  0  0  0  0  0  0
    0.9535   23.9876  -27.7519 H   0  0  0  0  0  0  0  0  0  0  0  0
    0.7405   22.1402  -29.4134 H   0  0  0  0  0  0  0  0  0  0  0  0
   -1.4511   21.6816  -30.5021 H   0  0  0  0  0  0  0  0  0  0  0  0
  1  2  2  0
  2  3  1  0
  3  4  2  0
  4  5  1  0
  5  6  2  0
  6  7  1  0
  7  8  1  0
  7  9  2  0
  9 10  1  0
 10 11  2  0
 11 12  1  0
 12 13  2  0
 13 14  1  0
 14 15  2  0
 15 16  1  0
 16 17  2  0
 11 18  1  0
 18 19  1  0
 19 20  1  0
 20 21  2  0
 21 22  1  0
 22 23  2  0
 23 24  1  0
 24 25  2  0
 19  2  1  0
 25 20  1  0
 10  4  1  0
 17 12  1  0
  5 26  1  0
  6 27  1  0
  9 28  1  0
 13 29  1  0
 14 30  1  0
 15 31  1  0
 16 32  1  0
 17 33  1  0
 18 34  1  0
 19 35  1  1
 21 36  1  0
 22 37  1  0
 23 38  1  0
 24 39  1  0
 25 40  1  0
M  END
>  <UniqueID>  (21) 
20

>  <SMILES>  (21) 
O=C1N=c2ccc(Cl)cc2=C(c2ccccc2)N[C@H]1c1ccccc1

>  <Energy>  (21) 
84.99988771445939

>  <Genealogy>  (21) 
O=C1N=c2ccc(Cl)cc2=C(c2ccccc2)N[C@H]1c1ccccc1 (chirality)
O=C1N=c2ccc(Cl)cc2=C(c2ccccc2)N[C@H]1c1ccccc1 (3D coordinates assigned)
O=C1N=c2ccc(Cl)cc2=C(c2ccccc2)N[C@H]1c1ccccc1 (nonaromatic ring conformer: 84.99988771445939 kcal/mol)

>  <smiles>  (21) 
O=C1N=c2ccc(Cl)cc2=C(c2ccccc2)NC1c1ccccc1

>  <score_type>  (21) 
oracle

>  <origin>  (21) 
adgpu

>  <m_score__min__energy>  (21) 
-8.6600000000000001

>  <m_primary>  (21) 
energy

$$$$
21:0
     RDKit          3D

 41 43  0  0  0  0  0  0  0  0999 V2000
   -6.0915   25.6385  -30.8060 H   0  0  0  0  0  0  0  0  0  0  0  0
   -5.7430   24.6020  -30.9250 C   0  0  0  0  0  0  0  0  0  0  0  0
   -6.6540   23.5920  -31.2490 C   0  0  0  0  0  0  0  0  0  0  0  0
   -7.7195   23.8345  -31.3753 H   0  0  0  0  0  0  0  0  0  0  0  0
   -6.2120   22.2660  -31.4140 C   0  0  0  0  0  0  0  0  0  0  0  0
   -7.0960   21.2210  -31.7210 O   0  0  0  0  0  0  0  0  0  0  0  0
   -6.7240   19.9500  -32.1820 C   0  0  0  0  0  0  0  0  0  0  0  0
   -7.2550   18.7710  -31.6280 C   0  0  0  0  0  0  0  0  0  0  0  0
   -7.9769   18.8313  -30.8003 H   0  0  0  0  0  0  0  0  0  0  0  0
   -6.8690   17.5240  -32.1250 C   0  0  0  0  0  0  0  0  0  0  0  0
   -7.2953   16.6075  -31.6910 H   0  0  0  0  0  0  0  0  0  0  0  0
   -5.9430   17.4320  -33.1720 C   0  0  0  0  0  0  0  0  0  0  0  0
   -5.5990   16.1430  -33.7040 N   0  0  0  0  0  0  0  0  0  0  0  0
   -5.8290   15.9800  -34.7100 H   0  0  0  0  0  0  0  0  0  0  0  0
   -5.0600   15.1700  -33.0120 C   0  0  0  0  0  0  0  0  0  0  0  0
   -4.9600   15.2370  -31.5830 N   0  0  0  0  0  0  0  0  0  0  0  0
   -5.4430   15.9750  -31.0230 H   0  0  0  0  0  0  0  0  0  0  0  0
   -4.4760   14.4740  -31.0620 H   0  0  0  0  0  0  0  0  0  0  0  0
   -4.6720   13.9500  -33.6650 N   0  0  0  0  0  0  0  0  0  0  0  0
   -4.7640   13.0610  -33.1220 H   0  0  0  0  0  0  0  0  0  0  0  0
   -4.1320   13.8770  -34.9960 C   0  0  0  0  0  0  0  0  0  0  0  0
   -3.2300   14.8610  -35.4280 C   0  0  0  0  0  0  0  0  0  0  0  0
   -2.9322   15.6679  -34.7423 H   0  0  0  0  0  0  0  0  0  0  0  0
   -2.7080   14.8230  -36.7220 C   0  0  0  0  0  0  0  0  0  0  0  0
   -1.9924   15.5930  -37.0460 H   0  0  0  0  0  0  0  0  0  0  0  0
   -3.0900   13.8110  -37.6090 C   0  0  0  0  0  0  0  0  0  0  0  0
   -2.4110   13.7970  -39.2310 Cl  0  0  0  0  0  0  0  0  0  0  0  0
   -4.0100   12.8340  -37.1950 C   0  0  0  0  0  0  0  0  0  0  0  0
   -4.5330   11.5550  -38.2830 Cl  0  0  0  0  0  0  0  0  0  0  0  0
   -4.5320   12.8730  -35.8970 C   0  0  0  0  0  0  0  0  0  0  0  0
   -5.2606   12.1129  -35.5787 H   0  0  0  0  0  0  0  0  0  0  0  0
   -5.4500   18.6110  -33.7580 C   0  0  0  0  0  0  0  0  0  0  0  0
   -4.7579   18.5511  -34.6109 H   0  0  0  0  0  0  0  0  0  0  0  0
   -5.8360   19.8590  -33.2610 C   0  0  0  0  0  0  0  0  0  0  0  0
   -5.4394   20.7763  -33.7207 H   0  0  0  0  0  0  0  0  0  0  0  0
   -4.8580   21.9650  -31.2180 C   0  0  0  0  0  0  0  0  0  0  0  0
   -4.5085   20.9268  -31.3179 H   0  0  0  0  0  0  0  0  0  0  0  0
   -3.9480   22.9770  -30.8960 C   0  0  0  0  0  0  0  0  0  0  0  0
   -2.8841   22.7350  -30.7559 H   0  0  0  0  0  0  0  0  0  0  0  0
   -4.3890   24.2960  -30.7520 C   0  0  0  0  0  0  0  0  0  0  0  0
   -3.4850   25.3010  -30.4310 O   0  0  0  0  0  0  0  0  0  0  0  0
  1  2  1  0
  2  3  2  0
  3  4  1  0
  3  5  1  0
  5  6  1  0
  6  7  1  0
  7  8  2  0
  8  9  1  0
  8 10  1  0
 10 11  1  0
 10 12  2  0
 12 13  1  0
 13 14  1  0
 13 15  2  0
 15 16  1  0
 16 17  1  0
 16 18  1  0
 15 19  1  0
 19 20  1  0
 19 21  1  0
 21 22  2  0
 22 23  1  0
 22 24  1  0
 24 25  1  0
 24 26  2  0
 26 27  1  0
 26 28  1  0
 28 29  1  0
 28 30  2  0
 30 31  1  0
 12 32  1  0
 32 33  1  0
 32 34  2  0
 34 35  1  0
  5 36  2  0
 36 37  1  0
 36 38  1  0
 38 39  1  0
 38 40  2  0
 40 41  1  0
 40  2  1  0
 34  7  1  0
 30 21  1  0
M  CHG  2  13   1  41  -1
M  END
>  <UniqueID>  (22) 
21

>  <SMILES>  (22) 
N/C(Nc1ccc(Cl)c(Cl)c1)=[NH+]\c1ccc(Oc2ccc([O-])cc2)cc1

>  <Energy>  (22) 
61.99918946494216

>  <Genealogy>  (22) 
NC(Nc1ccc(Cl)c(Cl)c1)=[NH+]c1ccc(Oc2ccc([O-])cc2)cc1 (protonated)
N/C(Nc1ccc(Cl)c(Cl)c1)=[NH+]\c1ccc(Oc2ccc([O-])cc2)cc1 (cis-trans isomerization)
N/C(Nc1ccc(Cl)c(Cl)c1)=[NH+]\c1ccc(Oc2ccc([O-])cc2)cc1 (3D coordinates assigned)
N/C(Nc1ccc(Cl)c(Cl)c1)=[NH+]\c1ccc(Oc2ccc([O-])cc2)cc1 (optimized conformer: 61.99918946494216 kcal/mol)

>  <smiles>  (22) 
NC(=Nc1ccc(Oc2ccc(O)cc2)cc1)Nc1ccc(Cl)c(Cl)c1

>  <score_type>  (22) 
oracle

>  <origin>  (22) 
adgpu

>  <m_score__min__energy>  (22) 
-9.5800000000000001

>  <m_primary>  (22) 
energy

$$$$
22:0
     RDKit          3D

 24 25  0  0  0  0  0  0  0  0999 V2000
   -6.6820   18.6820  -33.4510 C   0  0  0  0  0  0  0  0  0  0  0  0
   -7.4030   19.8010  -32.7600 C   0  0  0  0  0  0  0  0  0  0  0  0
   -8.7940   19.7510  -32.6000 C   0  0  0  0  0  0  0  0  0  0  0  0
   -9.4680   20.8080  -31.9840 C   0  0  0  0  0  0  0  0  0  0  0  0
   -8.7630   21.9260  -31.5360 C   0  0  0  0  0  0  0  0  0  0  0  0
   -7.3680   22.0040  -31.7040 C   0  0  0  0  0  0  0  0  0  0  0  0
   -6.6170   23.1980  -31.2380 C   0  0  0  0  0  0  0  0  0  0  0  0
   -7.2150   24.1350  -30.3770 C   0  0  0  0  0  0  0  0  0  0  0  0
   -6.4980   25.2520  -29.9470 C   0  0  0  0  0  0  0  0  0  0  0  0
   -5.1840   25.4280  -30.3790 C   0  0  0  0  0  0  0  0  0  0  0  0
   -4.6130   24.5180  -31.2120 N   0  0  0  0  0  0  0  0  0  0  0  0
   -5.2890   23.4210  -31.6450 C   0  0  0  0  0  0  0  0  0  0  0  0
   -6.6960   20.9340  -32.3260 C   0  0  0  0  0  0  0  0  0  0  0  0
   -6.2469   18.0068  -32.6995 H   0  0  0  0  0  0  0  0  0  0  0  0
   -7.3901   18.1228  -34.0802 H   0  0  0  0  0  0  0  0  0  0  0  0
   -5.8801   19.0957  -34.0802 H   0  0  0  0  0  0  0  0  0  0  0  0
   -9.3567   18.8772  -32.9604 H   0  0  0  0  0  0  0  0  0  0  0  0
  -10.5589   20.7590  -31.8515 H   0  0  0  0  0  0  0  0  0  0  0  0
   -9.3014   22.7519  -31.0482 H   0  0  0  0  0  0  0  0  0  0  0  0
   -8.2520   23.9869  -30.0412 H   0  0  0  0  0  0  0  0  0  0  0  0
   -6.9646   25.9864  -29.2740 H   0  0  0  0  0  0  0  0  0  0  0  0
   -4.6087   26.3042  -30.0454 H   0  0  0  0  0  0  0  0  0  0  0  0
   -4.7950   22.7039  -32.3172 H   0  0  0  0  0  0  0  0  0  0  0  0
   -5.6072   20.9863  -32.4732 H   0  0  0  0  0  0  0  0  0  0  0  0
  1  2  1  0
  2  3  2  0
  3  4  1  0
  4  5  2  0
  5  6  1  0
  6  7  1  0
  7  8  2  0
  8  9  1  0
  9 10  2  0
 10 11  1  0
 11 12  2  0
  6 13  2  0
 13  2  1  0
 12  7  1  0
  1 14  1  0
  1 15  1  0
  1 16  1  0
  3 17  1  0
  4 18  1  0
  5 19  1  0
  8 20  1  0
  9 21  1  0
 10 22  1  0
 12 23  1  0
 13 24  1  0
M  END
>  <UniqueID>  (23) 
22

>  <SMILES>  (23) 
Cc1cccc(-c2cccnc2)c1

>  <Energy>  (23) 
29.924012361365428

>  <Genealogy>  (23) 
Cc1cccc(-c2cccnc2)c1 (3D coordinates assigned)
Cc1cccc(-c2cccnc2)c1 (optimized conformer: 29.924012361365428 kcal/mol)

>  <smiles>  (23) 
Cc1cccc(-c2cccnc2)c1

>  <score_type>  (23) 
oracle

>  <origin>  (23) 
adgpu

>  <m_score__min__energy>  (23) 
-6.8700000000000001

>  <m_primary>  (23) 
energy

$$$$
23:0
     RDKit          3D

 27 28  0  0  0  0  0  0  0  0999 V2000
   -4.5110   24.3720  -28.6290 O   0  0  0  0  0  0  0  0  0  0  0  0
   -3.6820   24.5390  -29.5610 C   0  0  0  0  0  0  0  0  0  0  0  0
   -4.0730   24.2020  -30.8970 N   0  0  0  0  0  0  0  0  0  0  0  0
   -5.2170   23.4200  -31.2650 C   0  0  0  0  0  0  0  0  0  0  0  0
   -6.5140   23.7770  -30.8580 C   0  0  0  0  0  0  0  0  0  0  0  0
   -7.6050   22.9760  -31.2040 C   0  0  0  0  0  0  0  0  0  0  0  0
   -7.4140   21.8040  -31.9430 C   0  0  0  0  0  0  0  0  0  0  0  0
   -8.8120   20.8210  -32.3590 Cl  0  0  0  0  0  0  0  0  0  0  0  0
   -6.1170   21.4270  -32.3300 C   0  0  0  0  0  0  0  0  0  0  0  0
   -5.8300   19.9530  -33.2460 Cl  0  0  0  0  0  0  0  0  0  0  0  0
   -5.0250   22.2320  -31.9820 C   0  0  0  0  0  0  0  0  0  0  0  0
   -2.3580   25.0300  -29.2820 N   0  0  0  0  0  0  0  0  0  0  0  0
   -1.9000   25.4170  -27.9760 C   0  0  0  0  0  0  0  0  0  0  0  0
   -0.7820   26.2590  -27.8630 C   0  0  0  0  0  0  0  0  0  0  0  0
   -0.3020   26.6320  -26.6040 C   0  0  0  0  0  0  0  0  0  0  0  0
   -0.9240   26.1550  -25.4460 C   0  0  0  0  0  0  0  0  0  0  0  0
   -0.3180   26.6220  -23.8680 Cl  0  0  0  0  0  0  0  0  0  0  0  0
   -2.0230   25.2960  -25.5500 C   0  0  0  0  0  0  0  0  0  0  0  0
   -2.5050   24.9220  -26.8070 C   0  0  0  0  0  0  0  0  0  0  0  0
   -6.6706   24.6902  -30.2650 H   0  0  0  0  0  0  0  0  0  0  0  0
   -8.6190   23.2684  -30.8938 H   0  0  0  0  0  0  0  0  0  0  0  0
   -4.0087   21.9290  -32.2740 H   0  0  0  0  0  0  0  0  0  0  0  0
   -1.7040   25.1820  -30.0820 H   0  0  0  0  0  0  0  0  0  0  0  0
   -0.2809   26.6273  -28.7703 H   0  0  0  0  0  0  0  0  0  0  0  0
    0.5667   27.3021  -26.5242 H   0  0  0  0  0  0  0  0  0  0  0  0
   -2.5089   24.9140  -24.6401 H   0  0  0  0  0  0  0  0  0  0  0  0
   -3.3622   24.2368  -26.8826 H   0  0  0  0  0  0  0  0  0  0  0  0
  1  2  2  0
  2  3  1  0
  3  4  1  0
  4  5  2  0
  5  6  1  0
  6  7  2  0
  7  8  1  0
  7  9  1  0
  9 10  1  0
  9 11  2  0
  2 12  1  0
 12 13  1  0
 13 14  2  0
 14 15  1  0
 15 16  2  0
 16 17  1  0
 16 18  1  0
 18 19  2  0
 11  4  1  0
 19 13  1  0
  5 20  1  0
  6 21  1  0
 11 22  1  0
 12 23  1  0
 14 24  1  0
 15 25  1  0
 18 26  1  0
 19 27  1  0
M  CHG  1   3  -1
M  END
>  <UniqueID>  (24) 
23

>  <SMILES>  (24) 
O=C([N-]c1ccc(Cl)c(Cl)c1)Nc1ccc(Cl)cc1

>  <Energy>  (24) 
36.8876153732265

>  <Genealogy>  (24) 
O=C([N-]c1ccc(Cl)c(Cl)c1)Nc1ccc(Cl)cc1 (protonated)
O=C([N-]c1ccc(Cl)c(Cl)c1)Nc1ccc(Cl)cc1 (3D coordinates assigned)
O=C([N-]c1ccc(Cl)c(Cl)c1)Nc1ccc(Cl)cc1 (optimized conformer: 36.8876153732265 kcal/mol)

>  <smiles>  (24) 
O=C(Nc1ccc(Cl)cc1)Nc1ccc(Cl)c(Cl)c1

>  <score_type>  (24) 
oracle

>  <origin>  (24) 
adgpu

>  <m_score__min__energy>  (24) 
-9.4000000000000004

>  <m_primary>  (24) 
energy

$$$$
24:0
     RDKit          3D

 27 28  0  0  0  0  0  0  0  0999 V2000
   -9.4850   19.2920  -32.6520 C   0  0  0  0  0  0  0  0  0  0  0  0
   -8.4460   20.3120  -32.2940 C   0  0  0  0  0  0  0  0  0  0  0  0
   -7.2260   20.3530  -32.9850 C   0  0  0  0  0  0  0  0  0  0  0  0
   -6.2430   21.2800  -32.6270 C   0  0  0  0  0  0  0  0  0  0  0  0
   -6.4590   22.1710  -31.5640 C   0  0  0  0  0  0  0  0  0  0  0  0
   -5.4180   23.1510  -31.1840 C   0  0  0  0  0  0  0  0  0  0  0  0
   -5.5820   24.3860  -30.5800 C   0  0  0  0  0  0  0  0  0  0  0  0
   -6.8680   25.0270  -30.1670 C   0  0  0  0  0  0  0  0  0  0  0  0
   -4.3790   24.9660  -30.4120 N   0  0  0  0  0  0  0  0  0  0  0  0
   -3.4870   24.1400  -30.8790 O   0  0  0  0  0  0  0  0  0  0  0  0
   -4.0470   23.0500  -31.3520 C   0  0  0  0  0  0  0  0  0  0  0  0
   -3.2830   21.9180  -31.9570 C   0  0  0  0  0  0  0  0  0  0  0  0
   -7.6740   22.1170  -30.8610 C   0  0  0  0  0  0  0  0  0  0  0  0
   -8.6570   21.1900  -31.2200 C   0  0  0  0  0  0  0  0  0  0  0  0
   -9.9158   18.8691  -31.7325 H   0  0  0  0  0  0  0  0  0  0  0  0
  -10.2799   19.7702  -33.2431 H   0  0  0  0  0  0  0  0  0  0  0  0
   -9.0215   18.4884  -33.2431 H   0  0  0  0  0  0  0  0  0  0  0  0
   -7.0420   19.6522  -33.8127 H   0  0  0  0  0  0  0  0  0  0  0  0
   -5.2938   21.3115  -33.1820 H   0  0  0  0  0  0  0  0  0  0  0  0
   -6.9270   25.0564  -29.0690 H   0  0  0  0  0  0  0  0  0  0  0  0
   -6.9109   26.0519  -30.5641 H   0  0  0  0  0  0  0  0  0  0  0  0
   -7.7123   24.4443  -30.5641 H   0  0  0  0  0  0  0  0  0  0  0  0
   -2.8605   21.2919  -31.1573 H   0  0  0  0  0  0  0  0  0  0  0  0
   -3.9574   21.3118  -32.5796 H   0  0  0  0  0  0  0  0  0  0  0  0
   -2.4685   22.3167  -32.5796 H   0  0  0  0  0  0  0  0  0  0  0  0
   -7.8529   22.8077  -30.0237 H   0  0  0  0  0  0  0  0  0  0  0  0
   -9.6013   21.1487  -30.6573 H   0  0  0  0  0  0  0  0  0  0  0  0
  1  2  1  0
  2  3  2  0
  3  4  1  0
  4  5  2  0
  5  6  1  0
  6  7  1  0
  7  8  1  0
  7  9  2  0
  9 10  1  0
 10 11  1  0
 11 12  1  0
  5 13  1  0
 13 14  2  0
 14  2  1  0
 11  6  2  0
  1 15  1  0
  1 16  1  0
  1 17  1  0
  3 18  1  0
  4 19  1  0
  8 20  1  0
  8 21  1  0
  8 22  1  0
 12 23  1  0
 12 24  1  0
 12 25  1  0
 13 26  1  0
 14 27  1  0
M  END
>  <UniqueID>  (25) 
24

>  <SMILES>  (25) 
Cc1ccc(-c2c(C)noc2C)cc1

>  <Energy>  (25) 
59.8707682554234

>  <Genealogy>  (25) 
Cc1ccc(-c2c(C)noc2C)cc1 (3D coordinates assigned)
Cc1ccc(-c2c(C)noc2C)cc1 (optimized conformer: 59.8707682554234 kcal/mol)

>  <smiles>  (25) 
Cc1ccc(-c2c(C)noc2C)cc1

>  <score_type>  (25) 
oracle

>  <origin>  (25) 
adgpu

>  <m_score__min__energy>  (25) 
-7.4299999999999997

>  <m_primary>  (25) 
energy

$$$$
25:0
     RDKit          3D

 24 24  0  0  0  0  0  0  0  0999 V2000
   -4.5860   26.6060  -30.0350 H   0  0  0  0  0  0  0  0  0  0  0  0
   -4.4940   25.6590  -30.4670 N   0  0  0  0  0  0  0  0  0  0  0  0
   -3.4910   24.8880  -30.1980 C   0  0  0  0  0  0  0  0  0  0  0  0
   -2.5230   25.2970  -29.3390 N   0  0  0  0  0  0  0  0  0  0  0  0
   -1.4690   24.4840  -29.0570 C   0  0  0  0  0  0  0  0  0  0  0  0
   -0.5340   24.8600  -28.2370 N   0  0  0  0  0  0  0  0  0  0  0  0
   -0.5020   26.1420  -27.5310 C   0  0  0  0  0  0  0  0  0  0  0  0
    0.5223   26.3346  -27.1792 H   0  0  0  0  0  0  0  0  0  0  0  0
   -0.8241   26.9341  -28.2230 H   0  0  0  0  0  0  0  0  0  0  0  0
   -1.4470   26.1240  -26.3340 C   0  0  0  0  0  0  0  0  0  0  0  0
   -0.8604   26.1352  -25.4035 H   0  0  0  0  0  0  0  0  0  0  0  0
   -2.0982   27.0099  -26.3676 H   0  0  0  0  0  0  0  0  0  0  0  0
   -2.0640   25.2139  -26.3676 H   0  0  0  0  0  0  0  0  0  0  0  0
   -1.3890   23.2630  -29.6430 N   0  0  0  0  0  0  0  0  0  0  0  0
   -2.3520   22.8490  -30.5050 C   0  0  0  0  0  0  0  0  0  0  0  0
   -2.2550   21.6730  -31.0520 N   0  0  0  0  0  0  0  0  0  0  0  0
   -3.2130   21.1090  -32.0020 C   0  0  0  0  0  0  0  0  0  0  0  0
   -3.4199   20.0639  -31.7284 H   0  0  0  0  0  0  0  0  0  0  0  0
   -4.1378   21.7036  -31.9662 H   0  0  0  0  0  0  0  0  0  0  0  0
   -2.6560   21.1540  -33.4220 C   0  0  0  0  0  0  0  0  0  0  0  0
   -1.5602   21.2425  -33.3834 H   0  0  0  0  0  0  0  0  0  0  0  0
   -2.9308   20.2307  -33.9531 H   0  0  0  0  0  0  0  0  0  0  0  0
   -3.0754   22.0212  -33.9531 H   0  0  0  0  0  0  0  0  0  0  0  0
   -3.4050   23.6660  -30.7800 N   0  0  0  0  0  0  0  0  0  0  0  0
  1  2  1  0
  2  3  2  0
  3  4  1  0
  4  5  1  0
  5  6  2  3
  6  7  1  0
  7  8  1  0
  7  9  1  0
  7 10  1  0
 10 11  1  0
 10 12  1  0
 10 13  1  0
  5 14  1  0
 14 15  1  0
 15 16  2  0
 16 17  1  0
 17 18  1  0
 17 19  1  0
 17 20  1  0
 20 21  1  0
 20 22  1  0
 20 23  1  0
 15 24  1  0
 24  3  1  0
M  CHG  3   4  -1  14  -1  24  -1
M  END
>  <UniqueID>  (26) 
25

>  <SMILES>  (26) 
[H]/N=c1\[n-]c(=NCC)[n-]/c(=N/CC)[n-]1

>  <Energy>  (26) 
16.43623579711985

>  <Genealogy>  (26) 
CCN=c1[n-]c(=N)[n-]c(=NCC)[n-]1 (protonated)
[H]/N=c1\[n-]c(=NCC)[n-]/c(=N/CC)[n-]1 (cis-trans isomerization)
[H]/N=c1\[n-]c(=NCC)[n-]/c(=N/CC)[n-]1 (3D coordinates assigned)
[H]/N=c1\[n-]c(=NCC)[n-]/c(=N/CC)[n-]1 (optimized conformer: 16.43623579711985 kcal/mol)

>  <smiles>  (26) 
CCN=c1[nH]c(=N)[nH]c(=NCC)[nH]1

>  <score_type>  (26) 
oracle

>  <origin>  (26) 
adgpu

>  <m_score__min__energy>  (26) 
-8.4499999999999993

>  <m_primary>  (26) 
energy

$$$$
26:0
     RDKit          3D

 46 48  0  0  0  0  0  0  0  0999 V2000
    2.5620   24.4650  -28.2050 H   0  0  0  0  0  0  0  0  0  0  0  0
    1.9430   24.9120  -27.4920 N   0  0  0  0  0  0  0  0  0  0  0  0
    0.6540   24.8540  -27.5850 C   0  0  0  0  0  0  0  0  0  0  0  0
    0.0710   24.2030  -28.6230 N   0  0  0  0  0  0  0  0  0  0  0  0
   -1.2830   24.1480  -28.7280 C   0  0  0  0  0  0  0  0  0  0  0  0
   -1.8960   23.4270  -29.8690 C   0  0  0  0  0  0  0  0  0  0  0  0
   -1.2130   22.3370  -30.4360 C   0  0  0  0  0  0  0  0  0  0  0  0
   -0.2301   22.0430  -30.0391 H   0  0  0  0  0  0  0  0  0  0  0  0
   -1.7730   21.6230  -31.5010 C   0  0  0  0  0  0  0  0  0  0  0  0
   -1.0330   20.4760  -32.1220 C   0  0  0  0  0  0  0  0  0  0  0  0
   -0.6192   19.8347  -31.3298 H   0  0  0  0  0  0  0  0  0  0  0  0
   -1.7232   19.8891  -32.7458 H   0  0  0  0  0  0  0  0  0  0  0  0
   -0.2138   20.8629  -32.7458 H   0  0  0  0  0  0  0  0  0  0  0  0
   -3.0020   22.0400  -32.0200 C   0  0  0  0  0  0  0  0  0  0  0  0
   -3.4511   21.5009  -32.8672 H   0  0  0  0  0  0  0  0  0  0  0  0
   -3.6430   23.1090  -31.4810 N   0  0  0  0  0  0  0  0  0  0  0  0
   -3.1310   23.8140  -30.4320 C   0  0  0  0  0  0  0  0  0  0  0  0
   -3.7620   24.8580  -29.9770 N   0  0  0  0  0  0  0  0  0  0  0  0
   -5.0280   25.3720  -30.5000 C   0  0  0  0  0  0  0  0  0  0  0  0
   -5.4936   26.0234  -29.7458 H   0  0  0  0  0  0  0  0  0  0  0  0
   -4.8285   25.9405  -31.4203 H   0  0  0  0  0  0  0  0  0  0  0  0
   -5.9640   24.2380  -30.8210 C   0  0  0  0  0  0  0  0  0  0  0  0
   -6.4470   23.4130  -29.7940 C   0  0  0  0  0  0  0  0  0  0  0  0
   -6.1258   23.5865  -28.7564 H   0  0  0  0  0  0  0  0  0  0  0  0
   -7.3340   22.3720  -30.0820 C   0  0  0  0  0  0  0  0  0  0  0  0
   -7.7036   21.7265  -29.2716 H   0  0  0  0  0  0  0  0  0  0  0  0
   -7.7540   22.1480  -31.4000 C   0  0  0  0  0  0  0  0  0  0  0  0
   -8.8600   20.8300  -31.7680 S   0  0  0  0  0  0  0  0  0  0  0  0
  -10.1760   21.3860  -32.2370 O   0  0  0  0  0  0  0  0  0  0  0  0
   -9.0980   20.0020  -30.5350 O   0  0  0  0  0  0  0  0  0  0  0  0
   -8.1580   19.8080  -33.0420 C   0  0  0  0  0  0  0  0  0  0  0  0
   -7.5924   18.9846  -32.5815 H   0  0  0  0  0  0  0  0  0  0  0  0
   -8.9639   19.3950  -33.6664 H   0  0  0  0  0  0  0  0  0  0  0  0
   -7.4833   20.4120  -33.6664 H   0  0  0  0  0  0  0  0  0  0  0  0
   -7.2710   22.9680  -32.4300 C   0  0  0  0  0  0  0  0  0  0  0  0
   -7.5916   22.7918  -33.4674 H   0  0  0  0  0  0  0  0  0  0  0  0
   -6.3830   24.0090  -32.1420 C   0  0  0  0  0  0  0  0  0  0  0  0
   -6.0109   24.6515  -32.9536 H   0  0  0  0  0  0  0  0  0  0  0  0
   -2.0550   24.7320  -27.7680 N   0  0  0  0  0  0  0  0  0  0  0  0
   -3.0970   24.6630  -27.8110 H   0  0  0  0  0  0  0  0  0  0  0  0
   -1.4710   25.3800  -26.7240 C   0  0  0  0  0  0  0  0  0  0  0  0
   -2.3120   26.0450  -25.6820 C   0  0  0  0  0  0  0  0  0  0  0  0
   -1.9513   25.7598  -24.6827 H   0  0  0  0  0  0  0  0  0  0  0  0
   -2.2447   27.1368  -25.7983 H   0  0  0  0  0  0  0  0  0  0  0  0
   -3.3588   25.7277  -25.7983 H   0  0  0  0  0  0  0  0  0  0  0  0
   -0.1170   25.4460  -26.6410 N   0  0  0  0  0  0  0  0  0  0  0  0
  1  2  1  0
  2  3  2  0
  3  4  1  0
  4  5  2  0
  5  6  1  0
  6  7  2  0
  7  8  1  0
  7  9  1  0
  9 10  1  0
 10 11  1  0
 10 12  1  0
 10 13  1  0
  9 14  2  0
 14 15  1  0
 14 16  1  0
 16 17  1  0
 17 18  2  0
 18 19  1  0
 19 20  1  0
 19 21  1  0
 19 22  1  0
 22 23  2  0
 23 24  1  0
 23 25  1  0
 25 26  1  0
 25 27  2  0
 27 28  1  0
 28 29  2  0
 28 30  2  0
 28 31  1  0
 31 32  1  0
 31 33  1  0
 31 34  1  0
 27 35  1  0
 35 36  1  0
 35 37  2  0
 37 38  1  0
  5 39  1  0
 39 40  1  0
 39 41  1  0
 41 42  1  0
 42 43  1  0
 42 44  1  0
 42 45  1  0
 41 46  2  0
 46  3  1  0
 17  6  1  0
 37 22  1  0
M  CHG  1  16  -1
M  END
>  <UniqueID>  (27) 
26

>  <SMILES>  (27) 
[H]/N=c1/nc(C)[nH]c(-c2cc(C)c[n-]/c2=N\Cc2ccc(S(C)(=O)=O)cc2)n1

>  <Energy>  (27) 
48.724423863991724

>  <Genealogy>  (27) 
Cc1c[n-]c(=NCc2ccc(S(C)(=O)=O)cc2)c(-c2nc(=N)nc(C)[nH]2)c1 (protonated)
[H]/N=c1/nc(C)[nH]c(-c2cc(C)c[n-]/c2=N\Cc2ccc(S(C)(=O)=O)cc2)n1 (cis-trans isomerization)
[H]/N=c1/nc(C)[nH]c(-c2cc(C)c[n-]/c2=N\Cc2ccc(S(C)(=O)=O)cc2)n1 (3D coordinates assigned)
[H]/N=c1/nc(C)[nH]c(-c2cc(C)c[n-]/c2=N\Cc2ccc(S(C)(=O)=O)cc2)n1 (optimized conformer: 48.724423863991724 kcal/mol)

>  <smiles>  (27) 
Cc1c[nH]c(=NCc2ccc(S(C)(=O)=O)cc2)c(-c2nc(=N)nc(C)[nH]2)c1

>  <score_type>  (27) 
oracle

>  <origin>  (27) 
adgpu

>  <m_score__min__energy>  (27) 
-10

>  <m_primary>  (27) 
energy

$$$$
27:0
     RDKit          3D

 21 21  0  0  0  0  0  0  0  0999 V2000
   -8.9430   22.6820  -31.9690 C   0  0  0  0  0  0  0  0  0  0  0  0
   -8.0300   22.3000  -30.8070 C   0  0  0  0  0  0  0  0  0  0  0  0
   -6.7620   23.1230  -30.8130 C   0  0  0  0  0  0  0  0  0  0  0  0
   -6.8340   24.4730  -30.4290 C   0  0  0  0  0  0  0  0  0  0  0  0
   -5.6860   25.2650  -30.4520 C   0  0  0  0  0  0  0  0  0  0  0  0
   -4.5000   24.7340  -30.8460 N   0  0  0  0  0  0  0  0  0  0  0  0
   -4.3890   23.4330  -31.2170 C   0  0  0  0  0  0  0  0  0  0  0  0
   -5.5080   22.5900  -31.1920 C   0  0  0  0  0  0  0  0  0  0  0  0
   -5.2970   20.8690  -31.6830 S   0  0  0  0  0  0  0  0  0  0  0  0
   -4.1850   21.2570  -33.0710 C   0  0  0  0  0  0  0  0  0  0  0  0
   -9.8907   23.0785  -31.5757 H   0  0  0  0  0  0  0  0  0  0  0  0
   -8.4515   23.4499  -32.5844 H   0  0  0  0  0  0  0  0  0  0  0  0
   -9.1448   21.7928  -32.5844 H   0  0  0  0  0  0  0  0  0  0  0  0
   -8.5638   22.4707  -29.8605 H   0  0  0  0  0  0  0  0  0  0  0  0
   -7.7569   21.2397  -30.9133 H   0  0  0  0  0  0  0  0  0  0  0  0
   -7.7945   24.9045  -30.1107 H   0  0  0  0  0  0  0  0  0  0  0  0
   -5.7416   26.3214  -30.1505 H   0  0  0  0  0  0  0  0  0  0  0  0
   -3.4143   23.0379  -31.5394 H   0  0  0  0  0  0  0  0  0  0  0  0
   -3.2144   21.5957  -32.6796 H   0  0  0  0  0  0  0  0  0  0  0  0
   -4.0384   20.3569  -33.6861 H   0  0  0  0  0  0  0  0  0  0  0  0
   -4.6302   22.0529  -33.6861 H   0  0  0  0  0  0  0  0  0  0  0  0
  1  2  1  0
  2  3  1  0
  3  4  2  0
  4  5  1  0
  5  6  2  0
  6  7  1  0
  7  8  2  0
  8  9  1  0
  9 10  1  0
  8  3  1  0
  1 11  1  0
  1 12  1  0
  1 13  1  0
  2 14  1  0
  2 15  1  0
  4 16  1  0
  5 17  1  0
  7 18  1  0
 10 19  1  0
 10 20  1  0
 10 21  1  0
M  END
>  <UniqueID>  (28) 
27

>  <SMILES>  (28) 
CCc1ccncc1SC

>  <Energy>  (28) 
14.714836552451834

>  <Genealogy>  (28) 
CCc1ccncc1SC (3D coordinates assigned)
CCc1ccncc1SC (optimized conformer: 14.714836552451834 kcal/mol)

>  <smiles>  (28) 
CCc1ccncc1SC

>  <score_type>  (28) 
oracle

>  <origin>  (28) 
adgpu

>  <m_score__min__energy>  (28) 
-4.75

>  <m_primary>  (28) 
energy

$$$$
28:0
     RDKit          3D

 37 38  0  0  0  0  0  0  0  0999 V2000
   -5.6650   25.8570  -30.1180 C   0  0  0  0  0  0  0  0  0  0  0  0
   -4.9560   24.9060  -30.9050 O   0  0  0  0  0  0  0  0  0  0  0  0
   -5.5230   23.7430  -31.4460 C   0  0  0  0  0  0  0  0  0  0  0  0
   -6.9170   23.6240  -31.4500 C   0  0  0  0  0  0  0  0  0  0  0  0
   -7.5420   22.4890  -31.9770 C   0  0  0  0  0  0  0  0  0  0  0  0
   -8.9440   22.4290  -31.9530 O   0  0  0  0  0  0  0  0  0  0  0  0
   -9.6980   21.2210  -31.9610 C   0  0  0  0  0  0  0  0  0  0  0  0
   -6.7530   21.4540  -32.5090 C   0  0  0  0  0  0  0  0  0  0  0  0
   -5.3530   21.5580  -32.5160 C   0  0  0  0  0  0  0  0  0  0  0  0
   -4.5500   20.4960  -33.0670 N   0  0  0  0  0  0  0  0  0  0  0  0
   -3.1310   20.7460  -33.3420 C   0  0  0  0  0  0  0  0  0  0  0  0
   -5.1470   19.2020  -33.3220 C   0  0  0  0  0  0  0  0  0  0  0  0
   -5.7020   18.4260  -32.2850 C   0  0  0  0  0  0  0  0  0  0  0  0
   -6.2630   17.1810  -32.5790 C   0  0  0  0  0  0  0  0  0  0  0  0
   -6.2840   16.7120  -33.8970 C   0  0  0  0  0  0  0  0  0  0  0  0
   -6.8470   15.3600  -34.2170 C   0  0  0  0  0  0  0  0  0  0  0  0
   -5.7060   17.4990  -34.9000 C   0  0  0  0  0  0  0  0  0  0  0  0
   -5.1630   18.7070  -34.5930 N   0  0  0  0  0  0  0  0  0  0  0  0
   -4.7430   22.7030  -31.9840 C   0  0  0  0  0  0  0  0  0  0  0  0
   -5.5049   25.6423  -29.0511 H   0  0  0  0  0  0  0  0  0  0  0  0
   -5.2989   26.8686  -30.3474 H   0  0  0  0  0  0  0  0  0  0  0  0
   -6.7390   25.7950  -30.3474 H   0  0  0  0  0  0  0  0  0  0  0  0
   -7.5310   24.4355  -31.0323 H   0  0  0  0  0  0  0  0  0  0  0  0
   -9.8952   20.9050  -30.9260 H   0  0  0  0  0  0  0  0  0  0  0  0
  -10.6525   21.3880  -32.4816 H   0  0  0  0  0  0  0  0  0  0  0  0
   -9.1287   20.4369  -32.4816 H   0  0  0  0  0  0  0  0  0  0  0  0
   -7.2361   20.5565  -32.9226 H   0  0  0  0  0  0  0  0  0  0  0  0
   -2.5848   20.8422  -32.3920 H   0  0  0  0  0  0  0  0  0  0  0  0
   -2.7162   19.9071  -33.9201 H   0  0  0  0  0  0  0  0  0  0  0  0
   -3.0279   21.6761  -33.9201 H   0  0  0  0  0  0  0  0  0  0  0  0
   -5.6935   18.7985  -31.2500 H   0  0  0  0  0  0  0  0  0  0  0  0
   -6.6896   16.5674  -31.7718 H   0  0  0  0  0  0  0  0  0  0  0  0
   -7.0698   14.8249  -33.2821 H   0  0  0  0  0  0  0  0  0  0  0  0
   -7.7713   15.4768  -34.8019 H   0  0  0  0  0  0  0  0  0  0  0  0
   -6.1130   14.7862  -34.8019 H   0  0  0  0  0  0  0  0  0  0  0  0
   -5.6911   17.1391  -35.9394 H   0  0  0  0  0  0  0  0  0  0  0  0
   -3.6464   22.7888  -31.9873 H   0  0  0  0  0  0  0  0  0  0  0  0
  1  2  1  0
  2  3  1  0
  3  4  2  0
  4  5  1  0
  5  6  1  0
  6  7  1  0
  5  8  2  0
  8  9  1  0
  9 10  1  0
 10 11  1  0
 10 12  1  0
 12 13  2  0
 13 14  1  0
 14 15  2  0
 15 16  1  0
 15 17  1  0
 17 18  2  0
  9 19  2  0
 19  3  1  0
 18 12  1  0
  1 20  1  0
  1 21  1  0
  1 22  1  0
  4 23  1  0
  7 24  1  0
  7 25  1  0
  7 26  1  0
  8 27  1  0
 11 28  1  0
 11 29  1  0
 11 30  1  0
 13 31  1  0
 14 32  1  0
 16 33  1  0
 16 34  1  0
 16 35  1  0
 17 36  1  0
 19 37  1  0
M  END
>  <UniqueID>  (29) 
28

>  <SMILES>  (29) 
COc1cc(OC)cc(N(C)c2ccc(C)cn2)c1

>  <Energy>  (29) 
42.80111824528022

>  <Genealogy>  (29) 
COc1cc(OC)cc(N(C)c2ccc(C)cn2)c1 (3D coordinates assigned)
COc1cc(OC)cc(N(C)c2ccc(C)cn2)c1 (optimized conformer: 42.80111824528022 kcal/mol)

>  <smiles>  (29) 
COc1cc(OC)cc(N(C)c2ccc(C)cn2)c1

>  <score_type>  (29) 
oracle

>  <origin>  (29) 
adgpu

>  <m_score__min__energy>  (29) 
-6.4100000000000001

>  <m_primary>  (29) 
energy

$$$$
29:0
     RDKit          3D

 36 38  0  0  0  0  0  0  0  0999 V2000
   -4.4840   25.6840  -30.8350 O   0  0  0  0  0  0  0  0  0  0  0  0
   -3.9780   24.5840  -30.4870 C   0  0  0  0  0  0  0  0  0  0  0  0
   -4.2460   23.4190  -31.2770 N   0  0  0  0  0  0  0  0  0  0  0  0
   -5.5250   22.7900  -31.4400 C   0  0  0  0  0  0  0  0  0  0  0  0
   -6.7120   23.4970  -31.1780 C   0  0  0  0  0  0  0  0  0  0  0  0
   -7.9550   22.9020  -31.4030 C   0  0  0  0  0  0  0  0  0  0  0  0
   -8.0260   21.6040  -31.9100 C   0  0  0  0  0  0  0  0  0  0  0  0
   -6.8560   20.8980  -32.1950 C   0  0  0  0  0  0  0  0  0  0  0  0
   -5.5990   21.4840  -31.9670 C   0  0  0  0  0  0  0  0  0  0  0  0
   -4.4070   20.7290  -32.2440 N   0  0  0  0  0  0  0  0  0  0  0  0
   -3.2190   20.8810  -31.3970 C   0  0  0  0  0  0  0  0  0  0  0  0
   -1.9980   21.3000  -32.2410 C   0  0  0  0  0  0  0  0  0  0  0  0
   -2.0670   20.8710  -33.6530 N   0  0  0  0  0  0  0  0  0  0  0  0
   -2.8600   19.6490  -33.8340 C   0  0  0  0  0  0  0  0  0  0  0  0
   -4.3250   19.9000  -33.4520 C   0  0  0  0  0  0  0  0  0  0  0  0
   -3.0690   24.5400  -29.3270 C   0  0  0  0  0  0  0  0  0  0  0  0
   -3.2060   23.7190  -28.2240 C   0  0  0  0  0  0  0  0  0  0  0  0
   -2.1470   24.0260  -27.3980 C   0  0  0  0  0  0  0  0  0  0  0  0
   -1.4330   25.0160  -28.0420 C   0  0  0  0  0  0  0  0  0  0  0  0
   -2.0090   25.3020  -29.1870 O   0  0  0  0  0  0  0  0  0  0  0  0
   -6.6609   24.5262  -30.7930 H   0  0  0  0  0  0  0  0  0  0  0  0
   -8.8785   23.4567  -31.1805 H   0  0  0  0  0  0  0  0  0  0  0  0
   -9.0059   21.1361  -32.0855 H   0  0  0  0  0  0  0  0  0  0  0  0
   -6.9181   19.8773  -32.6003 H   0  0  0  0  0  0  0  0  0  0  0  0
   -3.4139   21.6515  -30.6365 H   0  0  0  0  0  0  0  0  0  0  0  0
   -3.0019   19.9160  -30.9156 H   0  0  0  0  0  0  0  0  0  0  0  0
   -1.9206   22.3970  -32.2163 H   0  0  0  0  0  0  0  0  0  0  0  0
   -1.1212   20.8031  -31.8002 H   0  0  0  0  0  0  0  0  0  0  0  0
   -2.5060   21.6370  -34.2170 H   0  0  0  0  0  0  0  0  0  0  0  0
   -2.8086   19.3364  -34.8874 H   0  0  0  0  0  0  0  0  0  0  0  0
   -2.4524   18.8599  -33.1850 H   0  0  0  0  0  0  0  0  0  0  0  0
   -4.8316   20.4166  -34.2805 H   0  0  0  0  0  0  0  0  0  0  0  0
   -4.8112   18.9335  -33.2535 H   0  0  0  0  0  0  0  0  0  0  0  0
   -3.9960   22.9753  -28.0431 H   0  0  0  0  0  0  0  0  0  0  0  0
   -1.9170   23.5734  -26.4222 H   0  0  0  0  0  0  0  0  0  0  0  0
   -0.5204   25.4929  -27.6551 H   0  0  0  0  0  0  0  0  0  0  0  0
  1  2  2  0
  2  3  1  0
  3  4  1  0
  4  5  2  0
  5  6  1  0
  6  7  2  0
  7  8  1  0
  8  9  2  0
  9 10  1  0
 10 11  1  0
 11 12  1  0
 12 13  1  0
 13 14  1  0
 14 15  1  0
  2 16  1  0
 16 17  2  0
 17 18  1  0
 18 19  2  0
 19 20  1  0
  9  4  1  0
 15 10  1  0
 20 16  1  0
  5 21  1  0
  6 22  1  0
  7 23  1  0
  8 24  1  0
 11 25  1  0
 11 26  1  0
 12 27  1  0
 12 28  1  0
 13 29  1  0
 14 30  1  0
 14 31  1  0
 15 32  1  0
 15 33  1  0
 17 34  1  0
 18 35  1  0
 19 36  1  0
M  CHG  1   3  -1
M  END
>  <UniqueID>  (30) 
29

>  <SMILES>  (30) 
O=C([N-]c1ccccc1N1CCNCC1)c1ccco1

>  <Energy>  (30) 
77.00958914344423

>  <Genealogy>  (30) 
O=C([N-]c1ccccc1N1CCNCC1)c1ccco1 (protonated)
O=C([N-]c1ccccc1N1CCNCC1)c1ccco1 (3D coordinates assigned)
O=C([N-]c1ccccc1N1CCNCC1)c1ccco1 (nonaromatic ring conformer: 77.00958914344423 kcal/mol)

>  <smiles>  (30) 
O=C(Nc1ccccc1N1CCNCC1)c1ccco1

>  <score_type>  (30) 
oracle

>  <origin>  (30) 
adgpu

>  <m_score__min__energy>  (30) 
-8.7599999999999998

>  <m_primary>  (30) 
energy

$$$$
30:0
     RDKit          3D

 39 40  0  0  0  0  0  0  0  0999 V2000
   -6.1970   24.5770  -30.0890 C   0  0  0  0  0  0  0  0  0  0  0  0
   -5.1790   25.6300  -30.3740 C   0  0  0  0  0  0  0  0  0  0  0  0
   -5.5350   26.8370  -30.4480 O   0  0  0  0  0  0  0  0  0  0  0  0
   -3.7960   25.2640  -30.4580 N   0  0  0  0  0  0  0  0  0  0  0  0
   -3.2670   23.9300  -30.4900 C   0  0  0  0  0  0  0  0  0  0  0  0
   -3.8030   22.9450  -31.3400 C   0  0  0  0  0  0  0  0  0  0  0  0
   -3.2830   21.6440  -31.3380 C   0  0  0  0  0  0  0  0  0  0  0  0
   -3.9470   20.4360  -32.4350 S   0  0  0  0  0  0  0  0  0  0  0  0
   -3.2580   19.1250  -32.1780 O   0  0  0  0  0  0  0  0  0  0  0  0
   -3.6760   20.8430  -33.8560 O   0  0  0  0  0  0  0  0  0  0  0  0
   -5.6620   20.2630  -32.1430 N   0  0  0  0  0  0  0  0  0  0  0  0
   -6.5070   21.3630  -32.6400 C   0  0  0  0  0  0  0  0  0  0  0  0
   -7.6020   21.8110  -31.6660 C   0  0  0  0  0  0  0  0  0  0  0  0
   -8.9180   21.0410  -31.8370 C   0  0  0  0  0  0  0  0  0  0  0  0
   -8.7150   19.6940  -32.5390 C   0  0  0  0  0  0  0  0  0  0  0  0
   -7.6870   18.7380  -31.8970 C   0  0  0  0  0  0  0  0  0  0  0  0
   -6.2100   18.9050  -32.3030 C   0  0  0  0  0  0  0  0  0  0  0  0
   -2.2210   21.3230  -30.4850 C   0  0  0  0  0  0  0  0  0  0  0  0
   -1.7010   22.2880  -29.6200 C   0  0  0  0  0  0  0  0  0  0  0  0
   -2.2240   23.5850  -29.6140 C   0  0  0  0  0  0  0  0  0  0  0  0
   -1.5450   24.7750  -28.5110 Cl  0  0  0  0  0  0  0  0  0  0  0  0
   -6.3095   24.4607  -29.0010 H   0  0  0  0  0  0  0  0  0  0  0  0
   -7.1617   24.8713  -30.5280 H   0  0  0  0  0  0  0  0  0  0  0  0
   -5.8703   23.6228  -30.5280 H   0  0  0  0  0  0  0  0  0  0  0  0
   -4.6368   23.1984  -32.0113 H   0  0  0  0  0  0  0  0  0  0  0  0
   -5.8589   22.2267  -32.8497 H   0  0  0  0  0  0  0  0  0  0  0  0
   -7.0203   20.9839  -33.5360 H   0  0  0  0  0  0  0  0  0  0  0  0
   -7.2393   21.6587  -30.6388 H   0  0  0  0  0  0  0  0  0  0  0  0
   -7.8137   22.8694  -31.8780 H   0  0  0  0  0  0  0  0  0  0  0  0
   -9.3541   20.8602  -30.8434 H   0  0  0  0  0  0  0  0  0  0  0  0
   -9.5862   21.6503  -32.4633 H   0  0  0  0  0  0  0  0  0  0  0  0
   -9.6858   19.1773  -32.5605 H   0  0  0  0  0  0  0  0  0  0  0  0
   -8.3093   19.9381  -33.5319 H   0  0  0  0  0  0  0  0  0  0  0  0
   -7.7465   18.8739  -30.8071 H   0  0  0  0  0  0  0  0  0  0  0  0
   -7.9669   17.7390  -32.2625 H   0  0  0  0  0  0  0  0  0  0  0  0
   -5.6087   18.2212  -31.6859 H   0  0  0  0  0  0  0  0  0  0  0  0
   -6.1640   18.6837  -33.3795 H   0  0  0  0  0  0  0  0  0  0  0  0
   -1.7952   20.3088  -30.4960 H   0  0  0  0  0  0  0  0  0  0  0  0
   -0.8764   22.0269  -28.9404 H   0  0  0  0  0  0  0  0  0  0  0  0
  1  2  1  0
  2  3  2  0
  2  4  1  0
  4  5  1  0
  5  6  2  0
  6  7  1  0
  7  8  1  0
  8  9  2  0
  8 10  2  0
  8 11  1  0
 11 12  1  0
 12 13  1  0
 13 14  1  0
 14 15  1  0
 15 16  1  0
 16 17  1  0
  7 18  2  0
 18 19  1  0
 19 20  2  0
 20 21  1  0
 20  5  1  0
 17 11  1  0
  1 22  1  0
  1 23  1  0
  1 24  1  0
  6 25  1  0
 12 26  1  0
 12 27  1  0
 13 28  1  0
 13 29  1  0
 14 30  1  0
 14 31  1  0
 15 32  1  0
 15 33  1  0
 16 34  1  0
 16 35  1  0
 17 36  1  0
 17 37  1  0
 18 38  1  0
 19 39  1  0
M  CHG  1   4  -1
M  END
>  <UniqueID>  (31) 
30

>  <SMILES>  (31) 
CC(=O)[N-]c1cc(S(=O)(=O)N2CCCCCC2)ccc1Cl

>  <Energy>  (31) 
50.414341702222124

>  <Genealogy>  (31) 
CC(=O)[N-]c1cc(S(=O)(=O)N2CCCCCC2)ccc1Cl (protonated)
CC(=O)[N-]c1cc(S(=O)(=O)N2CCCCCC2)ccc1Cl (3D coordinates assigned)
CC(=O)[N-]c1cc(S(=O)(=O)N2CCCCCC2)ccc1Cl (nonaromatic ring conformer: 50.414341702222124 kcal/mol)

>  <smiles>  (31) 
CC(=O)Nc1cc(S(=O)(=O)N2CCCCCC2)ccc1Cl

>  <score_type>  (31) 
oracle

>  <origin>  (31) 
adgpu

>  <m_score__min__energy>  (31) 
-8.3000000000000007

>  <m_primary>  (31) 
energy

$$$$
31:0
     RDKit          3D

 26 27  0  0  0  0  0  0  0  0999 V2000
   -4.1600   24.5750  -26.8070 C   0  0  0  0  0  0  0  0  0  0  0  0
   -2.8070   24.0200  -27.2500 C   0  0  0  0  0  0  0  0  0  0  0  0
   -2.3880   24.5360  -28.6320 C   0  0  0  0  0  0  0  0  0  0  0  0
   -3.4870   24.3730  -29.6350 C   0  0  0  0  0  0  0  0  0  0  0  0
   -4.2420   23.2650  -29.7540 N   0  0  0  0  0  0  0  0  0  0  0  0
   -5.0820   23.6170  -30.7530 C   0  0  0  0  0  0  0  0  0  0  0  0
   -6.1430   22.7290  -31.2850 C   0  0  0  0  0  0  0  0  0  0  0  0
   -7.4680   22.8760  -30.8310 C   0  0  0  0  0  0  0  0  0  0  0  0
   -8.4810   22.0480  -31.3230 C   0  0  0  0  0  0  0  0  0  0  0  0
   -8.1870   21.0660  -32.2700 C   0  0  0  0  0  0  0  0  0  0  0  0
   -6.8780   20.9100  -32.7280 C   0  0  0  0  0  0  0  0  0  0  0  0
   -5.8560   21.7330  -32.2430 C   0  0  0  0  0  0  0  0  0  0  0  0
   -4.5960   21.5510  -32.7110 F   0  0  0  0  0  0  0  0  0  0  0  0
   -4.8440   24.8660  -31.2020 N   0  0  0  0  0  0  0  0  0  0  0  0
   -3.8530   25.3000  -30.4840 O   0  0  0  0  0  0  0  0  0  0  0  0
   -4.2065   24.5941  -25.7081 H   0  0  0  0  0  0  0  0  0  0  0  0
   -4.2829   25.5962  -27.1970 H   0  0  0  0  0  0  0  0  0  0  0  0
   -4.9646   23.9343  -27.1970 H   0  0  0  0  0  0  0  0  0  0  0  0
   -2.0448   24.3188  -26.5153 H   0  0  0  0  0  0  0  0  0  0  0  0
   -2.8979   22.9256  -27.3138 H   0  0  0  0  0  0  0  0  0  0  0  0
   -2.1319   25.6028  -28.5526 H   0  0  0  0  0  0  0  0  0  0  0  0
   -1.5215   23.9494  -28.9712 H   0  0  0  0  0  0  0  0  0  0  0  0
   -7.7073   23.6475  -30.0843 H   0  0  0  0  0  0  0  0  0  0  0  0
   -9.5130   22.1708  -30.9627 H   0  0  0  0  0  0  0  0  0  0  0  0
   -8.9862   20.4156  -32.6550 H   0  0  0  0  0  0  0  0  0  0  0  0
   -6.6485   20.1355  -33.4746 H   0  0  0  0  0  0  0  0  0  0  0  0
  1  2  1  0
  2  3  1  0
  3  4  1  0
  4  5  2  0
  5  6  1  0
  6  7  1  0
  7  8  2  0
  8  9  1  0
  9 10  2  0
 10 11  1  0
 11 12  2  0
 12 13  1  0
  6 14  2  0
 14 15  1  0
 15  4  1  0
 12  7  1  0
  1 16  1  0
  1 17  1  0
  1 18  1  0
  2 19  1  0
  2 20  1  0
  3 21  1  0
  3 22  1  0
  8 23  1  0
  9 24  1  0
 10 25  1  0
 11 26  1  0
M  END
>  <UniqueID>  (32) 
31

>  <SMILES>  (32) 
CCCc1nc(-c2ccccc2F)no1

>  <Energy>  (32) 
55.09328725183255

>  <Genealogy>  (32) 
CCCc1nc(-c2ccccc2F)no1 (3D coordinates assigned)
CCCc1nc(-c2ccccc2F)no1 (optimized conformer: 55.09328725183255 kcal/mol)

>  <smiles>  (32) 
CCCc1nc(-c2ccccc2F)no1

>  <score_type>  (32) 
oracle

>  <origin>  (32) 
adgpu

>  <m_score__min__energy>  (32) 
-6.7199999999999998

>  <m_primary>  (32) 
energy

$$$$
32:0
     RDKit          3D

 28 29  0  0  0  0  0  0  0  0999 V2000
   -0.8720   21.0494  -28.7488 H   0  0  0  0  0  0  0  0  0  0  0  0
   -0.8600   22.1430  -28.6310 C   0  0  0  0  0  0  0  0  0  0  0  0
   -1.9130   22.8830  -29.0620 N   0  0  0  0  0  0  0  0  0  0  0  0
   -1.9440   24.2420  -28.9470 C   0  0  0  0  0  0  0  0  0  0  0  0
   -2.9810   24.9230  -29.3500 N   0  0  0  0  0  0  0  0  0  0  0  0
   -4.1420   24.4120  -30.0260 C   0  0  0  0  0  0  0  0  0  0  0  0
   -4.0620   23.3550  -30.9510 C   0  0  0  0  0  0  0  0  0  0  0  0
   -3.0926   22.8756  -31.1522 H   0  0  0  0  0  0  0  0  0  0  0  0
   -5.2100   22.9110  -31.6160 C   0  0  0  0  0  0  0  0  0  0  0  0
   -5.1403   22.0800  -32.3333 H   0  0  0  0  0  0  0  0  0  0  0  0
   -6.4500   23.5210  -31.3720 C   0  0  0  0  0  0  0  0  0  0  0  0
   -7.6720   23.0710  -32.1160 C   0  0  0  0  0  0  0  0  0  0  0  0
   -8.4535   22.7832  -31.3974 H   0  0  0  0  0  0  0  0  0  0  0  0
   -8.0397   23.8927  -32.7481 H   0  0  0  0  0  0  0  0  0  0  0  0
   -7.4190   22.2071  -32.7481 H   0  0  0  0  0  0  0  0  0  0  0  0
   -6.5190   24.6070  -30.4870 C   0  0  0  0  0  0  0  0  0  0  0  0
   -7.4807   25.1122  -30.3142 H   0  0  0  0  0  0  0  0  0  0  0  0
   -5.3720   25.0500  -29.8240 C   0  0  0  0  0  0  0  0  0  0  0  0
   -5.4356   25.9072  -29.1375 H   0  0  0  0  0  0  0  0  0  0  0  0
   -0.8590   24.9110  -28.3430 C   0  0  0  0  0  0  0  0  0  0  0  0
   -0.8600   26.4070  -28.1790 C   0  0  0  0  0  0  0  0  0  0  0  0
   -0.8602   26.6585  -27.1081 H   0  0  0  0  0  0  0  0  0  0  0  0
    0.0379   26.8286  -28.6545 H   0  0  0  0  0  0  0  0  0  0  0  0
   -1.7584   26.8274  -28.6545 H   0  0  0  0  0  0  0  0  0  0  0  0
    0.2350   24.1550  -27.8930 C   0  0  0  0  0  0  0  0  0  0  0  0
    1.0933   24.6582  -27.4238 H   0  0  0  0  0  0  0  0  0  0  0  0
    0.2370   22.7680  -28.0390 C   0  0  0  0  0  0  0  0  0  0  0  0
    1.0946   22.1735  -27.6909 H   0  0  0  0  0  0  0  0  0  0  0  0
  1  2  1  0
  2  3  1  0
  3  4  1  0
  4  5  2  0
  5  6  1  0
  6  7  2  0
  7  8  1  0
  7  9  1  0
  9 10  1  0
  9 11  2  0
 11 12  1  0
 12 13  1  0
 12 14  1  0
 12 15  1  0
 11 16  1  0
 16 17  1  0
 16 18  2  0
 18 19  1  0
  4 20  1  0
 20 21  1  0
 21 22  1  0
 21 23  1  0
 21 24  1  0
 20 25  2  0
 25 26  1  0
 25 27  1  0
 27 28  1  0
 27  2  2  0
 18  6  1  0
M  CHG  1   3  -1
M  END
>  <UniqueID>  (33) 
32

>  <SMILES>  (33) 
Cc1ccc(/N=c2\[n-]cccc2C)cc1

>  <Energy>  (33) 
35.006580857456804

>  <Genealogy>  (33) 
Cc1ccc(N=c2[n-]cccc2C)cc1 (protonated)
Cc1ccc(/N=c2\[n-]cccc2C)cc1 (cis-trans isomerization)
Cc1ccc(/N=c2\[n-]cccc2C)cc1 (3D coordinates assigned)
Cc1ccc(/N=c2\[n-]cccc2C)cc1 (optimized conformer: 35.006580857456804 kcal/mol)

>  <smiles>  (33) 
Cc1ccc(N=c2[nH]cccc2C)cc1

>  <score_type>  (33) 
oracle

>  <origin>  (33) 
adgpu

>  <m_score__min__energy>  (33) 
-6.5999999999999996

>  <m_primary>  (33) 
energy

$$$$
33:0
     RDKit          3D

 30 31  0  0  0  0  0  0  0  0999 V2000
   -2.2830   23.3610  -28.7750 C   0  0  0  0  0  0  0  0  0  0  0  0
   -2.4300   24.7330  -29.3420 C   0  0  0  0  0  0  0  0  0  0  0  0
   -1.5960   25.6280  -29.0390 O   0  0  0  0  0  0  0  0  0  0  0  0
   -3.4870   25.0060  -30.2660 N   0  0  0  0  0  0  0  0  0  0  0  0
   -4.9030   24.8350  -29.9520 C   0  0  0  0  0  0  0  0  0  0  0  0
   -5.7700   24.9710  -31.2080 C   0  0  0  0  0  0  0  0  0  0  0  0
   -6.3270   23.6460  -31.6340 C   0  0  0  0  0  0  0  0  0  0  0  0
   -7.6530   23.2470  -31.5200 C   0  0  0  0  0  0  0  0  0  0  0  0
   -7.8700   21.9280  -31.9360 C   0  0  0  0  0  0  0  0  0  0  0  0
   -6.7130   21.2820  -32.3670 C   0  0  0  0  0  0  0  0  0  0  0  0
   -6.6380   19.8890  -32.8490 C   0  0  0  0  0  0  0  0  0  0  0  0
   -7.3410   18.8530  -32.2110 C   0  0  0  0  0  0  0  0  0  0  0  0
   -7.2420   17.5490  -32.7010 C   0  0  0  0  0  0  0  0  0  0  0  0
   -6.4480   17.2860  -33.8180 C   0  0  0  0  0  0  0  0  0  0  0  0
   -5.7610   18.3350  -34.4300 C   0  0  0  0  0  0  0  0  0  0  0  0
   -5.8700   19.5980  -33.9380 N   0  0  0  0  0  0  0  0  0  0  0  0
   -5.4210   22.3590  -32.2260 S   0  0  0  0  0  0  0  0  0  0  0  0
   -2.2889   23.4157  -27.6764 H   0  0  0  0  0  0  0  0  0  0  0  0
   -3.1189   22.7321  -29.1153 H   0  0  0  0  0  0  0  0  0  0  0  0
   -1.3328   22.9235  -29.1153 H   0  0  0  0  0  0  0  0  0  0  0  0
   -5.0559   23.8363  -29.5170 H   0  0  0  0  0  0  0  0  0  0  0  0
   -5.1984   25.6185  -29.2386 H   0  0  0  0  0  0  0  0  0  0  0  0
   -6.6027   25.6577  -30.9955 H   0  0  0  0  0  0  0  0  0  0  0  0
   -5.1412   25.3603  -32.0223 H   0  0  0  0  0  0  0  0  0  0  0  0
   -8.4518   23.9015  -31.1411 H   0  0  0  0  0  0  0  0  0  0  0  0
   -8.8594   21.4474  -31.9238 H   0  0  0  0  0  0  0  0  0  0  0  0
   -7.9653   19.0678  -31.3312 H   0  0  0  0  0  0  0  0  0  0  0  0
   -7.7884   16.7315  -32.2078 H   0  0  0  0  0  0  0  0  0  0  0  0
   -6.3646   16.2624  -34.2119 H   0  0  0  0  0  0  0  0  0  0  0  0
   -5.1312   18.1403  -35.3106 H   0  0  0  0  0  0  0  0  0  0  0  0
  1  2  1  0
  2  3  2  0
  2  4  1  0
  4  5  1  0
  5  6  1  0
  6  7  1  0
  7  8  2  0
  8  9  1  0
  9 10  2  0
 10 11  1  0
 11 12  2  0
 12 13  1  0
 13 14  2  0
 14 15  1  0
 15 16  2  0
 10 17  1  0
 17  7  1  0
 16 11  1  0
  1 18  1  0
  1 19  1  0
  1 20  1  0
  5 21  1  0
  5 22  1  0
  6 23  1  0
  6 24  1  0
  8 25  1  0
  9 26  1  0
 12 27  1  0
 13 28  1  0
 14 29  1  0
 15 30  1  0
M  CHG  1   4  -1
M  END
>  <UniqueID>  (34) 
33

>  <SMILES>  (34) 
CC(=O)[N-]CCc1ccc(-c2ccccn2)s1

>  <Energy>  (34) 
50.46306650526656

>  <Genealogy>  (34) 
CC(=O)[N-]CCc1ccc(-c2ccccn2)s1 (protonated)
CC(=O)[N-]CCc1ccc(-c2ccccn2)s1 (3D coordinates assigned)
CC(=O)[N-]CCc1ccc(-c2ccccn2)s1 (optimized conformer: 50.46306650526656 kcal/mol)

>  <smiles>  (34) 
CC(=O)NCCc1ccc(-c2ccccn2)s1

>  <score_type>  (34) 
oracle

>  <origin>  (34) 
adgpu

>  <m_score__min__energy>  (34) 
-9.1899999999999995

>  <m_primary>  (34) 
energy

$$$$
34:0
     RDKit          3D

 26 27  0  0  0  0  0  0  0  0999 V2000
   -9.5120   21.6380  -31.4270 C   0  0  0  0  0  0  0  0  0  0  0  0
   -8.5050   20.5990  -31.8400 C   0  0  0  0  0  0  0  0  0  0  0  0
   -8.7990   19.2410  -31.6290 C   0  0  0  0  0  0  0  0  0  0  0  0
   -7.8720   18.2530  -31.9720 C   0  0  0  0  0  0  0  0  0  0  0  0
   -6.6430   18.6100  -32.5280 C   0  0  0  0  0  0  0  0  0  0  0  0
   -6.3450   19.9540  -32.7620 C   0  0  0  0  0  0  0  0  0  0  0  0
   -7.2760   20.9540  -32.4480 C   0  0  0  0  0  0  0  0  0  0  0  0
   -6.9390   22.3220  -32.7180 N   0  0  0  0  0  0  0  0  0  0  0  0
   -6.3530   23.2050  -31.7460 C   0  0  0  0  0  0  0  0  0  0  0  0
   -7.1360   23.9050  -30.8120 C   0  0  0  0  0  0  0  0  0  0  0  0
   -6.5300   24.7630  -29.8930 C   0  0  0  0  0  0  0  0  0  0  0  0
   -5.1440   24.9230  -29.9190 C   0  0  0  0  0  0  0  0  0  0  0  0
   -4.3980   24.2520  -30.8370 N   0  0  0  0  0  0  0  0  0  0  0  0
   -4.9650   23.4110  -31.7420 C   0  0  0  0  0  0  0  0  0  0  0  0
   -9.5593   21.6868  -30.3291 H   0  0  0  0  0  0  0  0  0  0  0  0
   -9.2115   22.6185  -31.8250 H   0  0  0  0  0  0  0  0  0  0  0  0
  -10.5014   21.3683  -31.8250 H   0  0  0  0  0  0  0  0  0  0  0  0
   -9.7660   18.9536  -31.1906 H   0  0  0  0  0  0  0  0  0  0  0  0
   -8.1115   17.1927  -31.8035 H   0  0  0  0  0  0  0  0  0  0  0  0
   -5.9082   17.8319  -32.7822 H   0  0  0  0  0  0  0  0  0  0  0  0
   -5.3726   20.2301  -33.1959 H   0  0  0  0  0  0  0  0  0  0  0  0
   -7.2400   22.7220  -33.6360 H   0  0  0  0  0  0  0  0  0  0  0  0
   -8.2284   23.7764  -30.8053 H   0  0  0  0  0  0  0  0  0  0  0  0
   -7.1386   25.3074  -29.1559 H   0  0  0  0  0  0  0  0  0  0  0  0
   -4.6544   25.5924  -29.1964 H   0  0  0  0  0  0  0  0  0  0  0  0
   -4.3324   22.8891  -32.4751 H   0  0  0  0  0  0  0  0  0  0  0  0
  1  2  1  0
  2  3  2  0
  3  4  1  0
  4  5  2  0
  5  6  1  0
  6  7  2  0
  7  8  1  0
  8  9  1  0
  9 10  2  0
 10 11  1  0
 11 12  2  0
 12 13  1  0
 13 14  2  0
  7  2  1  0
 14  9  1  0
  1 15  1  0
  1 16  1  0
  1 17  1  0
  3 18  1  0
  4 19  1  0
  5 20  1  0
  6 21  1  0
  8 22  1  0
 10 23  1  0
 11 24  1  0
 12 25  1  0
 14 26  1  0
M  END
>  <UniqueID>  (35) 
34

>  <SMILES>  (35) 
Cc1ccccc1Nc1cccnc1

>  <Energy>  (35) 
34.3144979669265

>  <Genealogy>  (35) 
Cc1ccccc1Nc1cccnc1 (3D coordinates assigned)
Cc1ccccc1Nc1cccnc1 (optimized conformer: 34.3144979669265 kcal/mol)

>  <smiles>  (35) 
Cc1ccccc1Nc1cccnc1

>  <score_type>  (35) 
oracle

>  <origin>  (35) 
adgpu

>  <m_score__min__energy>  (35) 
-6.8399999999999999

>  <m_primary>  (35) 
energy

$$$$
35:0
     RDKit          3D

 37 39  0  0  0  0  0  0  0  0999 V2000
    0.3570   24.8480  -23.7170 H   0  0  0  0  0  0  0  0  0  0  0  0
    0.4510   25.5350  -24.4540 O   0  0  0  0  0  0  0  0  0  0  0  0
   -0.1770   25.4200  -25.6960 C   0  0  0  0  0  0  0  0  0  0  0  0
    0.4940   25.6570  -26.9150 C   0  0  0  0  0  0  0  0  0  0  0  0
    1.9470   26.0440  -26.9780 C   0  0  0  0  0  0  0  0  0  0  0  0
    2.3078   26.2531  -25.9601 H   0  0  0  0  0  0  0  0  0  0  0  0
    2.0442   26.9370  -27.6129 H   0  0  0  0  0  0  0  0  0  0  0  0
    2.7860   24.9240  -27.5840 C   0  0  0  0  0  0  0  0  0  0  0  0
    3.2348   24.3249  -26.7780 H   0  0  0  0  0  0  0  0  0  0  0  0
    2.1454   24.2811  -28.2056 H   0  0  0  0  0  0  0  0  0  0  0  0
    3.5830   25.3581  -28.2056 H   0  0  0  0  0  0  0  0  0  0  0  0
   -0.1800   25.4950  -28.0870 N   0  0  0  0  0  0  0  0  0  0  0  0
   -1.4870   25.1230  -28.1500 C   0  0  0  0  0  0  0  0  0  0  0  0
   -2.0360   25.0070  -29.3280 N   0  0  0  0  0  0  0  0  0  0  0  0
   -3.3510   24.5470  -29.6730 C   0  0  0  0  0  0  0  0  0  0  0  0
   -4.0420   23.6190  -28.9850 N   0  0  0  0  0  0  0  0  0  0  0  0
   -5.1450   23.3860  -29.6730 N   0  0  0  0  0  0  0  0  0  0  0  0
   -5.0890   24.1700  -30.7650 C   0  0  0  0  0  0  0  0  0  0  0  0
   -6.1200   24.1560  -31.8480 C   0  0  0  0  0  0  0  0  0  0  0  0
   -6.9809   24.7671  -31.5390 H   0  0  0  0  0  0  0  0  0  0  0  0
   -5.6811   24.5673  -32.7690 H   0  0  0  0  0  0  0  0  0  0  0  0
   -6.5780   22.7440  -32.1070 C   0  0  0  0  0  0  0  0  0  0  0  0
   -7.9350   22.3960  -31.9600 C   0  0  0  0  0  0  0  0  0  0  0  0
   -8.8540   23.3300  -31.6080 F   0  0  0  0  0  0  0  0  0  0  0  0
   -8.3500   21.0780  -32.1730 C   0  0  0  0  0  0  0  0  0  0  0  0
   -9.4124   20.8137  -32.0661 H   0  0  0  0  0  0  0  0  0  0  0  0
   -7.4200   20.0960  -32.5210 C   0  0  0  0  0  0  0  0  0  0  0  0
   -7.7509   19.0608  -32.6912 H   0  0  0  0  0  0  0  0  0  0  0  0
   -6.0700   20.4280  -32.6530 C   0  0  0  0  0  0  0  0  0  0  0  0
   -5.3386   19.6521  -32.9231 H   0  0  0  0  0  0  0  0  0  0  0  0
   -5.6450   21.7430  -32.4430 C   0  0  0  0  0  0  0  0  0  0  0  0
   -4.3250   22.0400  -32.5630 F   0  0  0  0  0  0  0  0  0  0  0  0
   -3.9590   24.9020  -30.8210 N   0  0  0  0  0  0  0  0  0  0  0  0
   -2.1900   24.9160  -26.9470 C   0  0  0  0  0  0  0  0  0  0  0  0
   -3.2552   24.6421  -26.9675 H   0  0  0  0  0  0  0  0  0  0  0  0
   -1.5250   25.0610  -25.7300 C   0  0  0  0  0  0  0  0  0  0  0  0
   -2.0678   24.8909  -24.7885 H   0  0  0  0  0  0  0  0  0  0  0  0
  1  2  1  0
  2  3  1  0
  3  4  2  0
  4  5  1  0
  5  6  1  0
  5  7  1  0
  5  8  1  0
  8  9  1  0
  8 10  1  0
  8 11  1  0
  4 12  1  0
 12 13  1  0
 13 14  2  0
 14 15  1  0
 15 16  2  0
 16 17  1  0
 17 18  1  0
 18 19  1  0
 19 20  1  0
 19 21  1  0
 19 22  1  0
 22 23  2  0
 23 24  1  0
 23 25  1  0
 25 26  1  0
 25 27  2  0
 27 28  1  0
 27 29  1  0
 29 30  1  0
 29 31  2  0
 31 32  1  0
 18 33  2  0
 13 34  1  0
 34 35  1  0
 34 36  2  0
 36 37  1  0
 36  3  1  0
 33 15  1  0
 31 22  1  0
M  CHG  2  12  -1  17  -1
M  END
>  <UniqueID>  (36) 
35

>  <SMILES>  (36) 
CCc1[n-]/c(=N/c2n[n-]c(Cc3c(F)cccc3F)n2)ccc1O

>  <Energy>  (36) 
76.54532195085238

>  <Genealogy>  (36) 
CCc1[n-]c(=Nc2n[n-]c(Cc3c(F)cccc3F)n2)ccc1O (protonated)
CCc1[n-]/c(=N/c2n[n-]c(Cc3c(F)cccc3F)n2)ccc1O (cis-trans isomerization)
CCc1[n-]/c(=N/c2n[n-]c(Cc3c(F)cccc3F)n2)ccc1O (3D coordinates assigned)
CCc1[n-]/c(=N/c2n[n-]c(Cc3c(F)cccc3F)n2)ccc1O (optimized conformer: 76.54532195085238 kcal/mol)

>  <smiles>  (36) 
CCc1[nH]c(=Nc2n[nH]c(Cc3c(F)cccc3F)n2)ccc1O

>  <score_type>  (36) 
oracle

>  <origin>  (36) 
adgpu

>  <m_score__min__energy>  (36) 
-9.7699999999999996

>  <m_primary>  (36) 
energy

$$$$
36:0
     RDKit          3D

 34 36  0  0  0  0  0  0  0  0999 V2000
  -10.4832   22.6856  -32.0807 H   0  0  0  0  0  0  0  0  0  0  0  0
   -9.4920   22.2220  -31.9680 C   0  0  0  0  0  0  0  0  0  0  0  0
   -9.3480   20.8830  -32.1340 N   0  0  0  0  0  0  0  0  0  0  0  0
   -8.1400   20.2830  -31.9780 C   0  0  0  0  0  0  0  0  0  0  0  0
   -8.0260   18.8710  -32.2130 N   0  0  0  0  0  0  0  0  0  0  0  0
   -7.0410   18.2350  -32.7870 C   0  0  0  0  0  0  0  0  0  0  0  0
   -5.8370   18.8760  -33.1500 C   0  0  0  0  0  0  0  0  0  0  0  0
   -5.7027   19.9507  -32.9575 H   0  0  0  0  0  0  0  0  0  0  0  0
   -4.8170   18.1380  -33.7550 C   0  0  0  0  0  0  0  0  0  0  0  0
   -3.3160   18.9210  -34.2140 Cl  0  0  0  0  0  0  0  0  0  0  0  0
   -4.9910   16.7730  -33.9840 C   0  0  0  0  0  0  0  0  0  0  0  0
   -4.1965   16.1848  -34.4666 H   0  0  0  0  0  0  0  0  0  0  0  0
   -6.1820   16.1620  -33.5950 C   0  0  0  0  0  0  0  0  0  0  0  0
   -6.3258   15.0847  -33.7646 H   0  0  0  0  0  0  0  0  0  0  0  0
   -7.1680   16.8930  -33.0060 N   0  0  0  0  0  0  0  0  0  0  0  0
   -8.0490   16.4050  -32.7250 H   0  0  0  0  0  0  0  0  0  0  0  0
   -7.0120   21.0660  -31.6980 C   0  0  0  0  0  0  0  0  0  0  0  0
   -6.0178   20.6030  -31.6125 H   0  0  0  0  0  0  0  0  0  0  0  0
   -7.1710   22.4530  -31.5280 C   0  0  0  0  0  0  0  0  0  0  0  0
   -6.0520   23.3100  -31.2140 N   0  0  0  0  0  0  0  0  0  0  0  0
   -4.6880   22.8360  -31.4860 C   0  0  0  0  0  0  0  0  0  0  0  0
   -4.6417   21.7497  -31.3195 H   0  0  0  0  0  0  0  0  0  0  0  0
   -4.4303   23.0693  -32.5296 H   0  0  0  0  0  0  0  0  0  0  0  0
   -3.6870   23.5320  -30.5590 C   0  0  0  0  0  0  0  0  0  0  0  0
   -3.8491   23.1855  -29.5276 H   0  0  0  0  0  0  0  0  0  0  0  0
   -2.6677   23.2838  -30.8899 H   0  0  0  0  0  0  0  0  0  0  0  0
   -3.8510   24.9350  -30.6080 O   0  0  0  0  0  0  0  0  0  0  0  0
   -5.1120   25.2820  -30.0740 C   0  0  0  0  0  0  0  0  0  0  0  0
   -5.2051   24.8557  -29.0642 H   0  0  0  0  0  0  0  0  0  0  0  0
   -5.1879   26.3787  -30.0368 H   0  0  0  0  0  0  0  0  0  0  0  0
   -6.2450   24.7430  -30.9520 C   0  0  0  0  0  0  0  0  0  0  0  0
   -7.2052   24.8911  -30.4362 H   0  0  0  0  0  0  0  0  0  0  0  0
   -6.2431   25.2844  -31.9095 H   0  0  0  0  0  0  0  0  0  0  0  0
   -8.4150   22.9910  -31.6630 N   0  0  0  0  0  0  0  0  0  0  0  0
  1  2  1  0
  2  3  2  0
  3  4  1  0
  4  5  1  0
  5  6  2  0
  6  7  1  0
  7  8  1  0
  7  9  2  0
  9 10  1  0
  9 11  1  0
 11 12  1  0
 11 13  2  0
 13 14  1  0
 13 15  1  0
 15 16  1  0
  4 17  2  0
 17 18  1  0
 17 19  1  0
 19 20  1  0
 20 21  1  0
 21 22  1  0
 21 23  1  0
 21 24  1  0
 24 25  1  0
 24 26  1  0
 24 27  1  0
 27 28  1  0
 28 29  1  0
 28 30  1  0
 28 31  1  0
 31 32  1  0
 31 33  1  0
 19 34  2  0
 34  2  1  0
 15  6  1  0
 31 20  1  0
M  END
>  <UniqueID>  (37) 
36

>  <SMILES>  (37) 
Clc1cc[nH]/c(=N/c2cc(N3CCOCC3)ncn2)c1

>  <Energy>  (37) 
50.52475489335333

>  <Genealogy>  (37) 
Clc1cc[nH]/c(=N/c2cc(N3CCOCC3)ncn2)c1 (cis-trans isomerization)
Clc1cc[nH]/c(=N/c2cc(N3CCOCC3)ncn2)c1 (3D coordinates assigned)
Clc1cc[nH]/c(=N/c2cc(N3CCOCC3)ncn2)c1 (nonaromatic ring conformer: 50.52475489335333 kcal/mol)

>  <smiles>  (37) 
Clc1cc[nH]c(=Nc2cc(N3CCOCC3)ncn2)c1

>  <score_type>  (37) 
oracle

>  <origin>  (37) 
adgpu

>  <m_score__min__energy>  (37) 
-7.75

>  <m_primary>  (37) 
energy

$$$$
37:0
     RDKit          3D

 30 32  0  0  0  0  0  0  0  0999 V2000
   -3.8640   25.6590  -30.4440 O   0  0  0  0  0  0  0  0  0  0  0  0
   -4.4550   24.4650  -30.8370 C   0  0  0  0  0  0  0  0  0  0  0  0
   -5.8170   24.4260  -31.1430 C   0  0  0  0  0  0  0  0  0  0  0  0
   -6.4150   23.2250  -31.5390 C   0  0  0  0  0  0  0  0  0  0  0  0
   -5.6530   22.0450  -31.6320 C   0  0  0  0  0  0  0  0  0  0  0  0
   -6.2860   20.7690  -32.0520 C   0  0  0  0  0  0  0  0  0  0  0  0
   -7.6310   20.5840  -32.3280 C   0  0  0  0  0  0  0  0  0  0  0  0
   -7.7810   19.2600  -32.6850 C   0  0  0  0  0  0  0  0  0  0  0  0
   -6.5230   18.6850  -32.6150 C   0  0  0  0  0  0  0  0  0  0  0  0
   -6.1950   17.2690  -32.9190 C   0  0  0  0  0  0  0  0  0  0  0  0
   -6.8480   16.5910  -33.9670 C   0  0  0  0  0  0  0  0  0  0  0  0
   -6.5370   15.2580  -34.2510 C   0  0  0  0  0  0  0  0  0  0  0  0
   -5.5740   14.5860  -33.4950 C   0  0  0  0  0  0  0  0  0  0  0  0
   -4.9210   15.2460  -32.4530 C   0  0  0  0  0  0  0  0  0  0  0  0
   -5.2280   16.5810  -32.1640 C   0  0  0  0  0  0  0  0  0  0  0  0
   -5.6180   19.6110  -32.2290 N   0  0  0  0  0  0  0  0  0  0  0  0
   -4.2800   22.0980  -31.3230 C   0  0  0  0  0  0  0  0  0  0  0  0
   -3.6880   23.3000  -30.9270 C   0  0  0  0  0  0  0  0  0  0  0  0
   -6.4214   25.3424  -31.0724 H   0  0  0  0  0  0  0  0  0  0  0  0
   -7.4882   23.2025  -31.7794 H   0  0  0  0  0  0  0  0  0  0  0  0
   -8.4242   21.3442  -32.2732 H   0  0  0  0  0  0  0  0  0  0  0  0
   -8.7176   18.7585  -32.9699 H   0  0  0  0  0  0  0  0  0  0  0  0
   -7.6079   17.1141  -34.5661 H   0  0  0  0  0  0  0  0  0  0  0  0
   -7.0519   14.7372  -35.0718 H   0  0  0  0  0  0  0  0  0  0  0  0
   -5.3304   13.5373  -33.7207 H   0  0  0  0  0  0  0  0  0  0  0  0
   -4.1632   14.7160  -31.8573 H   0  0  0  0  0  0  0  0  0  0  0  0
   -4.7097   17.0952  -31.3412 H   0  0  0  0  0  0  0  0  0  0  0  0
   -4.5890   19.4680  -32.1350 H   0  0  0  0  0  0  0  0  0  0  0  0
   -3.6690   21.1861  -31.3940 H   0  0  0  0  0  0  0  0  0  0  0  0
   -2.6153   23.3296  -30.6854 H   0  0  0  0  0  0  0  0  0  0  0  0
  1  2  1  0
  2  3  2  0
  3  4  1  0
  4  5  2  0
  5  6  1  0
  6  7  2  0
  7  8  1  0
  8  9  2  0
  9 10  1  0
 10 11  2  0
 11 12  1  0
 12 13  2  0
 13 14  1  0
 14 15  2  0
  9 16  1  0
  5 17  1  0
 17 18  2  0
 18  2  1  0
 16  6  1  0
 15 10  1  0
  3 19  1  0
  4 20  1  0
  7 21  1  0
  8 22  1  0
 11 23  1  0
 12 24  1  0
 13 25  1  0
 14 26  1  0
 15 27  1  0
 16 28  1  0
 17 29  1  0
 18 30  1  0
M  CHG  1   1  -1
M  END
>  <UniqueID>  (38) 
37

>  <SMILES>  (38) 
[O-]c1ccc(-c2ccc(-c3ccccc3)[nH]2)cc1

>  <Energy>  (38) 
63.361036755525966

>  <Genealogy>  (38) 
[O-]c1ccc(-c2ccc(-c3ccccc3)[nH]2)cc1 (protonated)
[O-]c1ccc(-c2ccc(-c3ccccc3)[nH]2)cc1 (3D coordinates assigned)
[O-]c1ccc(-c2ccc(-c3ccccc3)[nH]2)cc1 (optimized conformer: 63.361036755525966 kcal/mol)

>  <smiles>  (38) 
Oc1ccc(-c2ccc(-c3ccccc3)[nH]2)cc1

>  <score_type>  (38) 
oracle

>  <origin>  (38) 
adgpu

>  <m_score__min__energy>  (38) 
-10

>  <m_primary>  (38) 
energy

$$$$
38:0
     RDKit          3D

 32 33  0  0  0  0  0  0  0  0999 V2000
   -1.9900   25.7470  -26.4640 C   0  0  0  0  0  0  0  0  0  0  0  0
   -1.1560   25.9160  -27.7290 C   0  0  0  0  0  0  0  0  0  0  0  0
   -1.9470   25.6810  -28.8930 O   0  0  0  0  0  0  0  0  0  0  0  0
   -2.5490   24.4590  -29.2390 C   0  0  0  0  0  0  0  0  0  0  0  0
   -2.2200   23.2450  -28.6040 C   0  0  0  0  0  0  0  0  0  0  0  0
   -2.8740   22.0640  -28.9570 C   0  0  0  0  0  0  0  0  0  0  0  0
   -2.4570   20.5590  -28.1530 Cl  0  0  0  0  0  0  0  0  0  0  0  0
   -3.8610   22.0760  -29.9460 C   0  0  0  0  0  0  0  0  0  0  0  0
   -4.1950   23.2690  -30.6090 C   0  0  0  0  0  0  0  0  0  0  0  0
   -5.2390   23.2460  -31.6650 C   0  0  0  0  0  0  0  0  0  0  0  0
   -5.8230   24.3150  -31.9910 O   0  0  0  0  0  0  0  0  0  0  0  0
   -5.6450   22.0070  -32.2590 N   0  0  0  0  0  0  0  0  0  0  0  0
   -6.9510   21.4180  -32.1780 C   0  0  0  0  0  0  0  0  0  0  0  0
   -8.0350   22.1130  -31.6100 C   0  0  0  0  0  0  0  0  0  0  0  0
   -9.3100   21.5370  -31.5930 C   0  0  0  0  0  0  0  0  0  0  0  0
   -9.5160   20.2730  -32.1490 C   0  0  0  0  0  0  0  0  0  0  0  0
   -8.4490   19.5820  -32.7300 C   0  0  0  0  0  0  0  0  0  0  0  0
   -7.1700   20.1540  -32.7540 C   0  0  0  0  0  0  0  0  0  0  0  0
   -5.8510   19.2670  -33.5030 Cl  0  0  0  0  0  0  0  0  0  0  0  0
   -3.5370   24.4640  -30.2390 C   0  0  0  0  0  0  0  0  0  0  0  0
   -3.8620   25.6740  -30.8460 O   0  0  0  0  0  0  0  0  0  0  0  0
   -1.3472   25.8773  -25.5809 H   0  0  0  0  0  0  0  0  0  0  0  0
   -2.7906   26.5012  -26.4492 H   0  0  0  0  0  0  0  0  0  0  0  0
   -2.4339   24.7407  -26.4492 H   0  0  0  0  0  0  0  0  0  0  0  0
   -0.7582   26.9409  -27.7643 H   0  0  0  0  0  0  0  0  0  0  0  0
   -0.3332   25.1862  -27.7088 H   0  0  0  0  0  0  0  0  0  0  0  0
   -1.4431   23.2281  -27.8255 H   0  0  0  0  0  0  0  0  0  0  0  0
   -4.3813   21.1429  -30.2080 H   0  0  0  0  0  0  0  0  0  0  0  0
   -7.8793   23.1125  -31.1779 H   0  0  0  0  0  0  0  0  0  0  0  0
  -10.1520   22.0813  -31.1405 H   0  0  0  0  0  0  0  0  0  0  0  0
  -10.5185   19.8207  -32.1298 H   0  0  0  0  0  0  0  0  0  0  0  0
   -8.6136   18.5871  -33.1693 H   0  0  0  0  0  0  0  0  0  0  0  0
  1  2  1  0
  2  3  1  0
  3  4  1  0
  4  5  2  0
  5  6  1  0
  6  7  1  0
  6  8  2  0
  8  9  1  0
  9 10  1  0
 10 11  2  0
 10 12  1  0
 12 13  1  0
 13 14  2  0
 14 15  1  0
 15 16  2  0
 16 17  1  0
 17 18  2  0
 18 19  1  0
  9 20  2  0
 20 21  1  0
 20  4  1  0
 18 13  1  0
  1 22  1  0
  1 23  1  0
  1 24  1  0
  2 25  1  0
  2 26  1  0
  5 27  1  0
  8 28  1  0
 14 29  1  0
 15 30  1  0
 16 31  1  0
 17 32  1  0
M  CHG  2  12  -1  21  -1
M  END
>  <UniqueID>  (39) 
38

>  <SMILES>  (39) 
CCOc1cc(Cl)cc(C(=O)[N-]c2ccccc2Cl)c1[O-]

>  <Energy>  (39) 
38.03430957289141

>  <Genealogy>  (39) 
CCOc1cc(Cl)cc(C(=O)[N-]c2ccccc2Cl)c1[O-] (protonated)
CCOc1cc(Cl)cc(C(=O)[N-]c2ccccc2Cl)c1[O-] (3D coordinates assigned)
CCOc1cc(Cl)cc(C(=O)[N-]c2ccccc2Cl)c1[O-] (optimized conformer: 38.03430957289141 kcal/mol)

>  <smiles>  (39) 
CCOc1cc(Cl)cc(C(=O)Nc2ccccc2Cl)c1O

>  <score_type>  (39) 
oracle

>  <origin>  (39) 
adgpu

>  <m_score__min__energy>  (39) 
-11.960000000000001

>  <m_primary>  (39) 
energy

$$$$
39:0
     RDKit          3D

 43 45  0  0  1  0  0  0  0  0999 V2000
   -7.0270   25.3040  -29.7700 C   0  0  0  0  0  0  0  0  0  0  0  0
   -5.9090   24.3820  -30.0930 C   0  0  0  0  0  0  0  0  0  0  0  0
   -6.1440   23.3310  -30.9070 N   0  0  0  0  0  0  0  0  0  0  0  0
   -5.1340   22.4860  -31.2080 C   0  0  0  0  0  0  0  0  0  0  0  0
   -5.3500   21.4820  -31.9830 N   0  0  0  0  0  0  0  0  0  0  0  0
   -6.6490   21.1980  -32.5650 C   0  0  1  0  0  0  0  0  0  0  0  0
   -6.4730   20.3410  -33.7900 C   0  0  0  0  0  0  0  0  0  0  0  0
   -6.1890   18.9040  -33.4880 C   0  0  0  0  0  0  0  0  0  0  0  0
   -6.3510   18.5440  -32.0240 C   0  0  2  0  0  0  0  0  0  0  0  0
   -6.3730   17.0580  -31.8610 C   0  0  0  0  0  0  0  0  0  0  0  0
   -7.7070   19.1260  -31.6140 C   0  0  0  0  0  0  0  0  0  0  0  0
   -7.6220   20.6270  -31.5740 C   0  0  0  0  0  0  0  0  0  0  0  0
   -3.8650   22.7260  -30.6650 C   0  0  0  0  0  0  0  0  0  0  0  0
   -3.6250   23.8030  -29.8320 C   0  0  0  0  0  0  0  0  0  0  0  0
   -2.3000   24.0370  -29.2770 C   0  0  0  0  0  0  0  0  0  0  0  0
   -1.9770   25.1500  -28.5250 C   0  0  0  0  0  0  0  0  0  0  0  0
   -0.7100   25.3600  -28.0030 C   0  0  0  0  0  0  0  0  0  0  0  0
    0.2620   24.4620  -28.2220 N   0  0  0  0  0  0  0  0  0  0  0  0
   -0.0010   23.3600  -28.9500 C   0  0  0  0  0  0  0  0  0  0  0  0
   -1.2710   23.1300  -29.4840 C   0  0  0  0  0  0  0  0  0  0  0  0
   -4.6740   24.6040  -29.5730 N   0  0  0  0  0  0  0  0  0  0  0  0
   -7.1290   25.3881  -28.6780 H   0  0  0  0  0  0  0  0  0  0  0  0
   -6.8187   26.2964  -30.1964 H   0  0  0  0  0  0  0  0  0  0  0  0
   -7.9616   24.9106  -30.1964 H   0  0  0  0  0  0  0  0  0  0  0  0
   -7.1076   22.1481  -32.8765 H   0  0  0  0  0  0  0  0  0  0  0  0
   -5.6346   20.7439  -34.3771 H   0  0  0  0  0  0  0  0  0  0  0  0
   -7.4254   20.3698  -34.3396 H   0  0  0  0  0  0  0  0  0  0  0  0
   -5.1533   18.6847  -33.7868 H   0  0  0  0  0  0  0  0  0  0  0  0
   -6.9235   18.3070  -34.0484 H   0  0  0  0  0  0  0  0  0  0  0  0
   -5.5256   18.9357  -31.4114 H   0  0  0  0  0  0  0  0  0  0  0  0
   -6.3767   16.8066  -30.7901 H   0  0  0  0  0  0  0  0  0  0  0  0
   -7.2773   16.6503  -32.3365 H   0  0  0  0  0  0  0  0  0  0  0  0
   -5.4812   16.6237  -32.3365 H   0  0  0  0  0  0  0  0  0  0  0  0
   -7.9811   18.7484  -30.6178 H   0  0  0  0  0  0  0  0  0  0  0  0
   -8.4702   18.8233  -32.3460 H   0  0  0  0  0  0  0  0  0  0  0  0
   -7.3096   20.9313  -30.5642 H   0  0  0  0  0  0  0  0  0  0  0  0
   -8.6172   21.0148  -31.8371 H   0  0  0  0  0  0  0  0  0  0  0  0
   -3.0394   22.0407  -30.9074 H   0  0  0  0  0  0  0  0  0  0  0  0
   -2.7576   25.9008  -28.3324 H   0  0  0  0  0  0  0  0  0  0  0  0
   -0.5019   26.2625  -27.4096 H   0  0  0  0  0  0  0  0  0  0  0  0
    0.7997   22.6269  -29.1275 H   0  0  0  0  0  0  0  0  0  0  0  0
   -1.4570   22.2207  -30.0745 H   0  0  0  0  0  0  0  0  0  0  0  0
   -4.5890   25.4340  -28.9610 H   0  0  0  0  0  0  0  0  0  0  0  0
  1  2  1  0
  2  3  2  0
  3  4  1  0
  4  5  2  0
  5  6  1  0
  6  7  1  0
  7  8  1  0
  8  9  1  0
  9 10  1  0
  9 11  1  0
 11 12  1  0
  4 13  1  0
 13 14  2  0
 14 15  1  0
 15 16  2  0
 16 17  1  0
 17 18  2  0
 18 19  1  0
 19 20  2  0
 14 21  1  0
 21  2  1  0
 12  6  1  0
 20 15  1  0
  1 22  1  0
  1 23  1  0
  1 24  1  0
  6 25  1  6
  7 26  1  0
  7 27  1  0
  8 28  1  0
  8 29  1  0
  9 30  1  1
 10 31  1  0
 10 32  1  0
 10 33  1  0
 11 34  1  0
 11 35  1  0
 12 36  1  0
 12 37  1  0
 13 38  1  0
 16 39  1  0
 17 40  1  0
 19 41  1  0
 20 42  1  0
 21 43  1  0
M  END
>  <smiles>  (40) 
Cc1nc(=NC2CCC(C)CC2)cc(-c2ccncc2)[nH]1

>  <score_type>  (40) 
oracle

>  <origin>  (40) 
adgpu

>  <m_score__min__energy>  (40) 
-8.0700000000000003

>  <m_primary>  (40) 
energy

$$$$
40:0
     RDKit          3D

 24 24  0  0  0  0  0  0  0  0999 V2000
   -4.3327   26.5212  -30.3838 H   0  0  0  0  0  0  0  0  0  0  0  0
   -4.9810   25.6330  -30.4120 C   0  0  0  0  0  0  0  0  0  0  0  0
   -4.6760   24.5890  -31.2180 N   0  0  0  0  0  0  0  0  0  0  0  0
   -5.4540   23.4770  -31.2930 C   0  0  0  0  0  0  0  0  0  0  0  0
   -4.8530   22.2100  -32.3550 Cl  0  0  0  0  0  0  0  0  0  0  0  0
   -6.6370   23.4110  -30.4950 C   0  0  0  0  0  0  0  0  0  0  0  0
   -7.4840   22.4140  -30.4830 N   0  0  0  0  0  0  0  0  0  0  0  0
   -7.5500   21.1700  -31.2500 C   0  0  0  0  0  0  0  0  0  0  0  0
   -7.3907   20.3212  -30.5687 H   0  0  0  0  0  0  0  0  0  0  0  0
   -6.7708   21.2013  -32.0258 H   0  0  0  0  0  0  0  0  0  0  0  0
   -8.9130   21.0060  -31.9420 C   0  0  0  0  0  0  0  0  0  0  0  0
   -8.9819   21.7442  -32.7546 H   0  0  0  0  0  0  0  0  0  0  0  0
   -9.6858   21.1573  -31.1740 H   0  0  0  0  0  0  0  0  0  0  0  0
   -9.1350   19.6050  -32.5370 C   0  0  0  0  0  0  0  0  0  0  0  0
   -9.0028   19.6622  -33.6275 H   0  0  0  0  0  0  0  0  0  0  0  0
  -10.1522   19.2883  -32.2629 H   0  0  0  0  0  0  0  0  0  0  0  0
   -8.1660   18.5610  -31.9830 C   0  0  0  0  0  0  0  0  0  0  0  0
   -8.1893   18.5861  -30.8835 H   0  0  0  0  0  0  0  0  0  0  0  0
   -8.4639   17.5618  -32.3334 H   0  0  0  0  0  0  0  0  0  0  0  0
   -7.1474   18.7838  -32.3334 H   0  0  0  0  0  0  0  0  0  0  0  0
   -6.9140   24.4700  -29.6780 N   0  0  0  0  0  0  0  0  0  0  0  0
   -7.7690   24.4490  -29.0760 H   0  0  0  0  0  0  0  0  0  0  0  0
   -6.1210   25.5710  -29.6210 C   0  0  0  0  0  0  0  0  0  0  0  0
   -6.3794   26.4067  -28.9540 H   0  0  0  0  0  0  0  0  0  0  0  0
  1  2  1  0
  2  3  1  0
  3  4  2  0
  4  5  1  0
  4  6  1  0
  6  7  2  0
  7  8  1  0
  8  9  1  0
  8 10  1  0
  8 11  1  0
 11 12  1  0
 11 13  1  0
 11 14  1  0
 14 15  1  0
 14 16  1  0
 14 17  1  0
 17 18  1  0
 17 19  1  0
 17 20  1  0
  6 21  1  0
 21 22  1  0
 21 23  1  0
 23 24  1  0
 23  2  2  0
M  END
>  <UniqueID>  (41) 
39

>  <SMILES>  (41) 
CCCC/N=c1/[nH]ccnc1Cl

>  <Energy>  (41) 
29.20057375513137

>  <Genealogy>  (41) 
CCCC/N=c1/[nH]ccnc1Cl (cis-trans isomerization)
CCCC/N=c1/[nH]ccnc1Cl (3D coordinates assigned)
CCCC/N=c1/[nH]ccnc1Cl (optimized conformer: 29.20057375513137 kcal/mol)

>  <smiles>  (41) 
CCCCN=c1[nH]ccnc1Cl

>  <score_type>  (41) 
oracle

>  <origin>  (41) 
adgpu

>  <m_score__min__energy>  (41) 
-5.1900000000000004

>  <m_primary>  (41) 
energy

$$$$
41:0
     RDKit          3D

 30 31  0  0  0  0  0  0  0  0999 V2000
   -3.8610   25.3110  -30.8720 N   0  0  0  0  0  0  0  0  0  0  0  0
   -3.6500   23.7980  -30.0650 S   0  0  0  0  0  0  0  0  0  0  0  0
   -4.8360   23.5290  -29.1820 O   0  0  0  0  0  0  0  0  0  0  0  0
   -2.4130   23.8590  -29.2120 O   0  0  0  0  0  0  0  0  0  0  0  0
   -3.5060   22.5130  -31.2600 C   0  0  0  0  0  0  0  0  0  0  0  0
   -2.4000   21.6550  -31.2250 C   0  0  0  0  0  0  0  0  0  0  0  0
   -2.2790   20.6220  -32.1600 C   0  0  0  0  0  0  0  0  0  0  0  0
   -3.2690   20.4340  -33.1410 C   0  0  0  0  0  0  0  0  0  0  0  0
   -3.1920   19.3840  -34.1130 N   0  0  0  0  0  0  0  0  0  0  0  0
   -4.2580   18.0180  -34.1960 S   0  0  0  0  0  0  0  0  0  0  0  0
   -4.6920   17.8190  -35.6200 O   0  0  0  0  0  0  0  0  0  0  0  0
   -3.5220   16.7930  -33.7310 O   0  0  0  0  0  0  0  0  0  0  0  0
   -5.6840   18.3010  -33.2000 C   0  0  0  0  0  0  0  0  0  0  0  0
   -5.8670   17.5880  -32.0060 C   0  0  0  0  0  0  0  0  0  0  0  0
   -6.9950   17.8250  -31.2140 C   0  0  0  0  0  0  0  0  0  0  0  0
   -7.9440   18.7720  -31.6120 C   0  0  0  0  0  0  0  0  0  0  0  0
   -9.0360   18.9990  -30.8390 F   0  0  0  0  0  0  0  0  0  0  0  0
   -7.7680   19.4800  -32.8050 C   0  0  0  0  0  0  0  0  0  0  0  0
   -8.6890   20.3970  -33.1920 F   0  0  0  0  0  0  0  0  0  0  0  0
   -6.6410   19.2440  -33.5990 C   0  0  0  0  0  0  0  0  0  0  0  0
   -4.3720   21.2950  -33.1710 C   0  0  0  0  0  0  0  0  0  0  0  0
   -4.4940   22.3280  -32.2360 C   0  0  0  0  0  0  0  0  0  0  0  0
   -3.8640   26.0520  -30.1360 H   0  0  0  0  0  0  0  0  0  0  0  0
   -1.6230   21.7940  -30.4589 H   0  0  0  0  0  0  0  0  0  0  0  0
   -1.4058   19.9538  -32.1280 H   0  0  0  0  0  0  0  0  0  0  0  0
   -5.1224   16.8416  -31.6922 H   0  0  0  0  0  0  0  0  0  0  0  0
   -7.1359   17.2660  -30.2771 H   0  0  0  0  0  0  0  0  0  0  0  0
   -6.5055   19.7997  -34.5386 H   0  0  0  0  0  0  0  0  0  0  0  0
   -5.1498   21.1581  -33.9367 H   0  0  0  0  0  0  0  0  0  0  0  0
   -5.3671   22.9963  -32.2670 H   0  0  0  0  0  0  0  0  0  0  0  0
  1  2  1  0
  2  3  2  0
  2  4  2  0
  2  5  1  0
  5  6  2  0
  6  7  1  0
  7  8  2  0
  8  9  1  0
  9 10  1  0
 10 11  2  0
 10 12  2  0
 10 13  1  0
 13 14  2  0
 14 15  1  0
 15 16  2  0
 16 17  1  0
 16 18  1  0
 18 19  1  0
 18 20  2  0
  8 21  1  0
 21 22  2  0
 22  5  1  0
 20 13  1  0
  1 23  1  0
  6 24  1  0
  7 25  1  0
 14 26  1  0
 15 27  1  0
 20 28  1  0
 21 29  1  0
 22 30  1  0
M  CHG  2   1  -1   9  -1
M  END
>  <UniqueID>  (42) 
40

>  <SMILES>  (42) 
[NH-]S(=O)(=O)c1ccc([N-]S(=O)(=O)c2ccc(F)c(F)c2)cc1

>  <Energy>  (42) 
33.64998870049239

>  <Genealogy>  (42) 
[NH-]S(=O)(=O)c1ccc([N-]S(=O)(=O)c2ccc(F)c(F)c2)cc1 (protonated)
[NH-]S(=O)(=O)c1ccc([N-]S(=O)(=O)c2ccc(F)c(F)c2)cc1 (3D coordinates assigned)
[NH-]S(=O)(=O)c1ccc([N-]S(=O)(=O)c2ccc(F)c(F)c2)cc1 (optimized conformer: 33.64998870049239 kcal/mol)

>  <smiles>  (42) 
NS(=O)(=O)c1ccc(NS(=O)(=O)c2ccc(F)c(F)c2)cc1

>  <score_type>  (42) 
oracle

>  <origin>  (42) 
adgpu

>  <m_score__min__energy>  (42) 
-10.16

>  <m_primary>  (42) 
energy

$$$$
42:0
     RDKit          3D

 27 28  0  0  0  0  0  0  0  0999 V2000
   -1.7690   24.6670  -28.4140 H   0  0  0  0  0  0  0  0  0  0  0  0
   -2.1540   25.0650  -29.3000 N   0  0  0  0  0  0  0  0  0  0  0  0
   -3.3530   24.7870  -29.6920 C   0  0  0  0  0  0  0  0  0  0  0  0
   -3.8860   25.2790  -30.8290 N   0  0  0  0  0  0  0  0  0  0  0  0
   -5.1330   24.8620  -31.0350 N   0  0  0  0  0  0  0  0  0  0  0  0
   -5.5870   24.0450  -30.0600 C   0  0  0  0  0  0  0  0  0  0  0  0
   -7.2210   23.3130  -30.0640 S   0  0  0  0  0  0  0  0  0  0  0  0
   -7.1470   22.7700  -31.8080 C   0  0  0  0  0  0  0  0  0  0  0  0
   -7.4676   23.5994  -32.4555 H   0  0  0  0  0  0  0  0  0  0  0  0
   -6.1120   22.4758  -32.0365 H   0  0  0  0  0  0  0  0  0  0  0  0
   -8.0430   21.5840  -32.0500 C   0  0  0  0  0  0  0  0  0  0  0  0
   -9.2770   21.7230  -31.8340 O   0  0  0  0  0  0  0  0  0  0  0  0
   -7.5230   20.2660  -32.5080 C   0  0  0  0  0  0  0  0  0  0  0  0
   -8.0730   19.0780  -31.9890 C   0  0  0  0  0  0  0  0  0  0  0  0
   -8.8859   19.1322  -31.2499 H   0  0  0  0  0  0  0  0  0  0  0  0
   -7.5970   17.8310  -32.4030 C   0  0  0  0  0  0  0  0  0  0  0  0
   -8.0293   16.9125  -31.9793 H   0  0  0  0  0  0  0  0  0  0  0  0
   -6.5730   17.7440  -33.3540 C   0  0  0  0  0  0  0  0  0  0  0  0
   -6.0350   16.4060  -33.7670 C   0  0  0  0  0  0  0  0  0  0  0  0
   -5.7970   15.8140  -32.8709 H   0  0  0  0  0  0  0  0  0  0  0  0
   -6.7901   15.8763  -34.3665 H   0  0  0  0  0  0  0  0  0  0  0  0
   -5.1235   16.5465  -34.3665 H   0  0  0  0  0  0  0  0  0  0  0  0
   -6.0080   18.9210  -33.8650 C   0  0  0  0  0  0  0  0  0  0  0  0
   -5.1868   18.8615  -34.5945 H   0  0  0  0  0  0  0  0  0  0  0  0
   -6.4820   20.1690  -33.4530 C   0  0  0  0  0  0  0  0  0  0  0  0
   -6.0383   21.0849  -33.8703 H   0  0  0  0  0  0  0  0  0  0  0  0
   -4.4250   23.7850  -28.8650 S   0  0  0  0  0  0  0  0  0  0  0  0
  1  2  1  0
  2  3  2  0
  3  4  1  0
  4  5  1  0
  5  6  2  0
  6  7  1  0
  7  8  1  0
  8  9  1  0
  8 10  1  0
  8 11  1  0
 11 12  2  0
 11 13  1  0
 13 14  2  0
 14 15  1  0
 14 16  1  0
 16 17  1  0
 16 18  2  0
 18 19  1  0
 19 20  1  0
 19 21  1  0
 19 22  1  0
 18 23  1  0
 23 24  1  0
 23 25  2  0
 25 26  1  0
  6 27  1  0
 27  3  1  0
 25 13  1  0
M  CHG  1   4  -1
M  END
>  <UniqueID>  (43) 
41

>  <SMILES>  (43) 
[H]/N=c1/[n-]nc(SCC(=O)c2ccc(C)cc2)s1

>  <Energy>  (43) 
58.33305930562327

>  <Genealogy>  (43) 
Cc1ccc(C(=O)CSc2n[n-]c(=N)s2)cc1 (protonated)
[H]/N=c1/[n-]nc(SCC(=O)c2ccc(C)cc2)s1 (cis-trans isomerization)
[H]/N=c1/[n-]nc(SCC(=O)c2ccc(C)cc2)s1 (3D coordinates assigned)
[H]/N=c1/[n-]nc(SCC(=O)c2ccc(C)cc2)s1 (optimized conformer: 58.33305930562327 kcal/mol)

>  <smiles>  (43) 
Cc1ccc(C(=O)CSc2n[nH]c(=N)s2)cc1

>  <score_type>  (43) 
oracle

>  <origin>  (43) 
adgpu

>  <m_score__min__energy>  (43) 
-9.8000000000000007

>  <m_primary>  (43) 
energy

$$$$
43:0
     RDKit          3D

 41 43  0  0  0  0  0  0  0  0999 V2000
   -2.2950   21.5020  -31.5960 C   0  0  0  0  0  0  0  0  0  0  0  0
   -2.7930   22.4310  -30.5240 C   0  0  0  0  0  0  0  0  0  0  0  0
   -2.0850   22.5560  -29.3190 C   0  0  0  0  0  0  0  0  0  0  0  0
   -2.5220   23.4420  -28.3340 C   0  0  0  0  0  0  0  0  0  0  0  0
   -3.6720   24.2060  -28.5370 C   0  0  0  0  0  0  0  0  0  0  0  0
   -4.4010   24.0900  -29.7320 C   0  0  0  0  0  0  0  0  0  0  0  0
   -5.6430   24.9170  -29.9190 C   0  0  0  0  0  0  0  0  0  0  0  0
   -3.9370   23.2210  -30.7460 C   0  0  0  0  0  0  0  0  0  0  0  0
   -4.6140   23.1160  -31.9690 O   0  0  0  0  0  0  0  0  0  0  0  0
   -5.6860   22.2430  -32.2040 C   0  0  0  0  0  0  0  0  0  0  0  0
   -6.9500   22.4370  -31.6180 C   0  0  0  0  0  0  0  0  0  0  0  0
   -7.9880   21.5370  -31.8730 C   0  0  0  0  0  0  0  0  0  0  0  0
   -9.5530   21.7690  -31.1150 Cl  0  0  0  0  0  0  0  0  0  0  0  0
   -7.7800   20.4510  -32.7270 C   0  0  0  0  0  0  0  0  0  0  0  0
   -6.5330   20.2670  -33.3490 C   0  0  0  0  0  0  0  0  0  0  0  0
   -6.2890   19.1440  -34.2140 N   0  0  0  0  0  0  0  0  0  0  0  0
   -5.7750   17.8760  -33.7740 C   0  0  0  0  0  0  0  0  0  0  0  0
   -5.0930   17.0170  -34.6570 C   0  0  0  0  0  0  0  0  0  0  0  0
   -4.5780   15.8010  -34.2000 C   0  0  0  0  0  0  0  0  0  0  0  0
   -4.7240   15.4360  -32.8580 C   0  0  0  0  0  0  0  0  0  0  0  0
   -4.0760   13.9100  -32.2860 Cl  0  0  0  0  0  0  0  0  0  0  0  0
   -5.3800   16.2950  -31.9700 C   0  0  0  0  0  0  0  0  0  0  0  0
   -5.8960   17.5120  -32.4250 C   0  0  0  0  0  0  0  0  0  0  0  0
   -5.4890   21.1600  -33.0670 C   0  0  0  0  0  0  0  0  0  0  0  0
   -1.8242   20.6237  -31.1303 H   0  0  0  0  0  0  0  0  0  0  0  0
   -3.1398   21.1770  -32.2210 H   0  0  0  0  0  0  0  0  0  0  0  0
   -1.5566   22.0256  -32.2210 H   0  0  0  0  0  0  0  0  0  0  0  0
   -1.1810   21.9524  -29.1502 H   0  0  0  0  0  0  0  0  0  0  0  0
   -1.9583   23.5387  -27.3944 H   0  0  0  0  0  0  0  0  0  0  0  0
   -4.0097   24.9034  -27.7563 H   0  0  0  0  0  0  0  0  0  0  0  0
   -6.0532   25.1901  -28.9356 H   0  0  0  0  0  0  0  0  0  0  0  0
   -5.3944   25.8305  -30.4791 H   0  0  0  0  0  0  0  0  0  0  0  0
   -6.3899   24.3353  -30.4791 H   0  0  0  0  0  0  0  0  0  0  0  0
   -7.1217   23.2995  -30.9573 H   0  0  0  0  0  0  0  0  0  0  0  0
   -8.5956   19.7369  -32.9134 H   0  0  0  0  0  0  0  0  0  0  0  0
   -6.5000   19.2590  -35.2320 H   0  0  0  0  0  0  0  0  0  0  0  0
   -4.9651   17.3044  -35.7111 H   0  0  0  0  0  0  0  0  0  0  0  0
   -4.0565   15.1292  -34.8976 H   0  0  0  0  0  0  0  0  0  0  0  0
   -5.4900   16.0126  -30.9126 H   0  0  0  0  0  0  0  0  0  0  0  0
   -6.4005   18.1890  -31.7199 H   0  0  0  0  0  0  0  0  0  0  0  0
   -4.5031   21.0068  -33.5302 H   0  0  0  0  0  0  0  0  0  0  0  0
  1  2  1  0
  2  3  2  0
  3  4  1  0
  4  5  2  0
  5  6  1  0
  6  7  1  0
  6  8  2  0
  8  9  1  0
  9 10  1  0
 10 11  2  0
 11 12  1  0
 12 13  1  0
 12 14  2  0
 14 15  1  0
 15 16  1  0
 16 17  1  0
 17 18  2  0
 18 19  1  0
 19 20  2  0
 20 21  1  0
 20 22  1  0
 22 23  2  0
 15 24  2  0
  8  2  1  0
 24 10  1  0
 23 17  1  0
  1 25  1  0
  1 26  1  0
  1 27  1  0
  3 28  1  0
  4 29  1  0
  5 30  1  0
  7 31  1  0
  7 32  1  0
  7 33  1  0
 11 34  1  0
 14 35  1  0
 16 36  1  0
 18 37  1  0
 19 38  1  0
 22 39  1  0
 23 40  1  0
 24 41  1  0
M  END
>  <UniqueID>  (44) 
42

>  <SMILES>  (44) 
Cc1cccc(C)c1Oc1cc(Cl)cc(Nc2ccc(Cl)cc2)c1

>  <Energy>  (44) 
55.905241410696114

>  <Genealogy>  (44) 
Cc1cccc(C)c1Oc1cc(Cl)cc(Nc2ccc(Cl)cc2)c1 (3D coordinates assigned)
Cc1cccc(C)c1Oc1cc(Cl)cc(Nc2ccc(Cl)cc2)c1 (optimized conformer: 55.905241410696114 kcal/mol)

>  <smiles>  (44) 
Cc1cccc(C)c1Oc1cc(Cl)cc(Nc2ccc(Cl)cc2)c1

>  <score_type>  (44) 
oracle

>  <origin>  (44) 
adgpu

>  <m_score__min__energy>  (44) 
-8.5999999999999996

>  <m_primary>  (44) 
energy

$$$$
44:0
     RDKit          3D

 43 46  0  0  0  0  0  0  0  0999 V2000
    0.2930   24.9410  -28.0550 O   0  0  0  0  0  0  0  0  0  0  0  0
   -0.8760   25.3790  -27.8780 C   0  0  0  0  0  0  0  0  0  0  0  0
   -1.2810   25.8760  -26.5290 C   0  0  0  0  0  0  0  0  0  0  0  0
   -0.8990   27.3230  -26.3760 C   0  0  0  0  0  0  0  0  0  0  0  0
   -1.0210   27.9620  -25.1300 C   0  0  0  0  0  0  0  0  0  0  0  0
   -0.6340   29.2970  -24.9830 C   0  0  0  0  0  0  0  0  0  0  0  0
   -0.1140   30.0000  -26.0730 C   0  0  0  0  0  0  0  0  0  0  0  0
    0.0230   29.3680  -27.3120 C   0  0  0  0  0  0  0  0  0  0  0  0
   -0.3630   28.0330  -27.4640 C   0  0  0  0  0  0  0  0  0  0  0  0
   -1.7880   25.5030  -28.9770 N   0  0  0  0  0  0  0  0  0  0  0  0
   -2.7050   24.5030  -29.4440 C   0  0  0  0  0  0  0  0  0  0  0  0
   -2.4510   23.1270  -29.2920 C   0  0  0  0  0  0  0  0  0  0  0  0
   -3.3780   22.1830  -29.7430 C   0  0  0  0  0  0  0  0  0  0  0  0
   -4.5730   22.6000  -30.3360 C   0  0  0  0  0  0  0  0  0  0  0  0
   -5.4760   21.6830  -30.7750 N   0  0  0  0  0  0  0  0  0  0  0  0
   -6.6590   22.0400  -31.3500 C   0  0  0  0  0  0  0  0  0  0  0  0
   -7.5910   20.9780  -31.8100 C   0  0  0  0  0  0  0  0  0  0  0  0
   -7.1060   19.6800  -32.0560 C   0  0  0  0  0  0  0  0  0  0  0  0
   -7.9710   18.6670  -32.4830 C   0  0  0  0  0  0  0  0  0  0  0  0
   -9.3300   18.9360  -32.6610 C   0  0  0  0  0  0  0  0  0  0  0  0
   -9.8270   20.2150  -32.4080 C   0  0  0  0  0  0  0  0  0  0  0  0
   -8.9670   21.2320  -31.9820 C   0  0  0  0  0  0  0  0  0  0  0  0
   -6.9570   23.4060  -31.5090 C   0  0  0  0  0  0  0  0  0  0  0  0
   -6.0500   24.3700  -31.0670 C   0  0  0  0  0  0  0  0  0  0  0  0
   -4.8460   23.9770  -30.4720 C   0  0  0  0  0  0  0  0  0  0  0  0
   -3.9140   24.9200  -30.0190 C   0  0  0  0  0  0  0  0  0  0  0  0
   -2.3702   25.7731  -26.4151 H   0  0  0  0  0  0  0  0  0  0  0  0
   -0.7669   25.2840  -25.7575 H   0  0  0  0  0  0  0  0  0  0  0  0
   -1.4224   27.4095  -24.2676 H   0  0  0  0  0  0  0  0  0  0  0  0
   -0.7389   29.7950  -24.0078 H   0  0  0  0  0  0  0  0  0  0  0  0
    0.1877   31.0513  -25.9558 H   0  0  0  0  0  0  0  0  0  0  0  0
    0.4350   29.9217  -28.1686 H   0  0  0  0  0  0  0  0  0  0  0  0
   -0.2468   27.5365  -28.4387 H   0  0  0  0  0  0  0  0  0  0  0  0
   -1.5176   22.7926  -28.8156 H   0  0  0  0  0  0  0  0  0  0  0  0
   -3.1665   21.1094  -29.6309 H   0  0  0  0  0  0  0  0  0  0  0  0
   -6.0379   19.4602  -31.9113 H   0  0  0  0  0  0  0  0  0  0  0  0
   -7.5805   17.6575  -32.6788 H   0  0  0  0  0  0  0  0  0  0  0  0
  -10.0084   18.1395  -33.0006 H   0  0  0  0  0  0  0  0  0  0  0  0
  -10.8984   20.4239  -32.5440 H   0  0  0  0  0  0  0  0  0  0  0  0
   -9.3667   22.2367  -31.7798 H   0  0  0  0  0  0  0  0  0  0  0  0
   -7.9023   23.7131  -31.9804 H   0  0  0  0  0  0  0  0  0  0  0  0
   -6.2815   25.4387  -31.1863 H   0  0  0  0  0  0  0  0  0  0  0  0
   -4.1320   25.9939  -30.1150 H   0  0  0  0  0  0  0  0  0  0  0  0
  1  2  2  0
  2  3  1  0
  3  4  1  0
  4  5  2  0
  5  6  1  0
  6  7  2  0
  7  8  1  0
  8  9  2  0
  2 10  1  0
 10 11  1  0
 11 12  2  0
 12 13  1  0
 13 14  2  0
 14 15  1  0
 15 16  2  0
 16 17  1  0
 17 18  2  0
 18 19  1  0
 19 20  2  0
 20 21  1  0
 21 22  2  0
 16 23  1  0
 23 24  2  0
 24 25  1  0
 25 26  2  0
  9  4  1  0
 26 11  1  0
 25 14  1  0
 22 17  1  0
  3 27  1  0
  3 28  1  0
  5 29  1  0
  6 30  1  0
  7 31  1  0
  8 32  1  0
  9 33  1  0
 12 34  1  0
 13 35  1  0
 18 36  1  0
 19 37  1  0
 20 38  1  0
 21 39  1  0
 22 40  1  0
 23 41  1  0
 24 42  1  0
 26 43  1  0
M  CHG  1  10  -1
M  END
>  <UniqueID>  (45) 
43

>  <SMILES>  (45) 
O=C(Cc1ccccc1)[N-]c1ccc2nc(-c3ccccc3)ccc2c1

>  <Energy>  (45) 
56.34636286137433

>  <Genealogy>  (45) 
O=C(Cc1ccccc1)[N-]c1ccc2nc(-c3ccccc3)ccc2c1 (protonated)
O=C(Cc1ccccc1)[N-]c1ccc2nc(-c3ccccc3)ccc2c1 (3D coordinates assigned)
O=C(Cc1ccccc1)[N-]c1ccc2nc(-c3ccccc3)ccc2c1 (optimized conformer: 56.34636286137433 kcal/mol)

>  <smiles>  (45) 
O=C(Cc1ccccc1)Nc1ccc2nc(-c3ccccc3)ccc2c1

>  <score_type>  (45) 
oracle

>  <origin>  (45) 
adgpu

>  <m_score__min__energy>  (45) 
-10.92

>  <m_primary>  (45) 
energy

$$$$
45:0
     RDKit          3D

 29 30  0  0  0  0  0  0  0  0999 V2000
   -3.8690   25.3160  -30.6780 O   0  0  0  0  0  0  0  0  0  0  0  0
   -4.9590   24.7190  -30.4690 C   0  0  0  0  0  0  0  0  0  0  0  0
   -5.8280   24.4590  -31.5760 N   0  0  0  0  0  0  0  0  0  0  0  0
   -6.5350   23.2350  -31.8220 C   0  0  0  0  0  0  0  0  0  0  0  0
   -7.9160   23.1170  -31.5970 C   0  0  0  0  0  0  0  0  0  0  0  0
   -8.5550   21.8970  -31.8190 C   0  0  0  0  0  0  0  0  0  0  0  0
   -7.8070   20.8000  -32.2480 C   0  0  0  0  0  0  0  0  0  0  0  0
   -6.4660   20.9240  -32.4360 N   0  0  0  0  0  0  0  0  0  0  0  0
   -5.8210   22.1030  -32.2280 C   0  0  0  0  0  0  0  0  0  0  0  0
   -5.3410   24.3700  -29.1300 N   0  0  0  0  0  0  0  0  0  0  0  0
   -4.4450   24.5370  -27.9890 C   0  0  0  0  0  0  0  0  0  0  0  0
   -3.2180   23.6780  -28.1560 C   0  0  0  0  0  0  0  0  0  0  0  0
   -3.2800   22.3140  -27.8280 C   0  0  0  0  0  0  0  0  0  0  0  0
   -2.1480   21.5040  -27.9610 C   0  0  0  0  0  0  0  0  0  0  0  0
   -2.2170   20.1870  -27.6420 F   0  0  0  0  0  0  0  0  0  0  0  0
   -0.9480   22.0480  -28.4210 C   0  0  0  0  0  0  0  0  0  0  0  0
   -0.8740   23.4050  -28.7480 C   0  0  0  0  0  0  0  0  0  0  0  0
    0.2950   23.9290  -29.1920 F   0  0  0  0  0  0  0  0  0  0  0  0
   -2.0030   24.2220  -28.6170 C   0  0  0  0  0  0  0  0  0  0  0  0
   -1.9090   25.5370  -28.9380 F   0  0  0  0  0  0  0  0  0  0  0  0
   -8.4931   23.9853  -31.2462 H   0  0  0  0  0  0  0  0  0  0  0  0
   -9.6388   21.8007  -31.6573 H   0  0  0  0  0  0  0  0  0  0  0  0
   -8.3019   19.8354  -32.4340 H   0  0  0  0  0  0  0  0  0  0  0  0
   -4.7334   22.1666  -32.3797 H   0  0  0  0  0  0  0  0  0  0  0  0
   -6.3110   24.0270  -28.9470 H   0  0  0  0  0  0  0  0  0  0  0  0
   -4.1421   25.5920  -27.9171 H   0  0  0  0  0  0  0  0  0  0  0  0
   -4.9724   24.2326  -27.0729 H   0  0  0  0  0  0  0  0  0  0  0  0
   -4.2235   21.8807  -27.4647 H   0  0  0  0  0  0  0  0  0  0  0  0
   -0.0594   21.4082  -28.5264 H   0  0  0  0  0  0  0  0  0  0  0  0
  1  2  2  0
  2  3  1  0
  3  4  1  0
  4  5  2  0
  5  6  1  0
  6  7  2  0
  7  8  1  0
  8  9  2  0
  2 10  1  0
 10 11  1  0
 11 12  1  0
 12 13  2  0
 13 14  1  0
 14 15  1  0
 14 16  2  0
 16 17  1  0
 17 18  1  0
 17 19  2  0
 19 20  1  0
  9  4  1  0
 19 12  1  0
  5 21  1  0
  6 22  1  0
  7 23  1  0
  9 24  1  0
 10 25  1  0
 11 26  1  0
 11 27  1  0
 13 28  1  0
 16 29  1  0
M  CHG  1   3  -1
M  END
>  <UniqueID>  (46) 
44

>  <SMILES>  (46) 
O=C([N-]c1cccnc1)NCc1cc(F)cc(F)c1F

>  <Energy>  (46) 
32.94475240897222

>  <Genealogy>  (46) 
O=C([N-]c1cccnc1)NCc1cc(F)cc(F)c1F (protonated)
O=C([N-]c1cccnc1)NCc1cc(F)cc(F)c1F (3D coordinates assigned)
O=C([N-]c1cccnc1)NCc1cc(F)cc(F)c1F (optimized conformer: 32.94475240897222 kcal/mol)

>  <smiles>  (46) 
O=C(NCc1cc(F)cc(F)c1F)Nc1cccnc1

>  <score_type>  (46) 
oracle

>  <origin>  (46) 
adgpu

>  <m_score__min__energy>  (46) 
-7.5899999999999999

>  <m_primary>  (46) 
energy

$$$$
46:0
     RDKit          3D

 27 28  0  0  0  0  0  0  0  0999 V2000
   -2.1840   23.3280  -29.0360 C   0  0  0  0  0  0  0  0  0  0  0  0
   -2.6480   23.1740  -30.3730 O   0  0  0  0  0  0  0  0  0  0  0  0
   -3.9940   23.2620  -30.7610 C   0  0  0  0  0  0  0  0  0  0  0  0
   -4.7540   22.1240  -31.1000 C   0  0  0  0  0  0  0  0  0  0  0  0
   -6.1020   22.2520  -31.4810 C   0  0  0  0  0  0  0  0  0  0  0  0
   -6.9010   21.0560  -31.8440 C   0  0  0  0  0  0  0  0  0  0  0  0
   -8.1180   20.8060  -31.1870 C   0  0  0  0  0  0  0  0  0  0  0  0
   -8.8900   19.6910  -31.5220 C   0  0  0  0  0  0  0  0  0  0  0  0
   -8.4540   18.8120  -32.5150 C   0  0  0  0  0  0  0  0  0  0  0  0
   -7.2440   19.0430  -33.1710 C   0  0  0  0  0  0  0  0  0  0  0  0
   -6.4590   20.1560  -32.8390 C   0  0  0  0  0  0  0  0  0  0  0  0
   -5.2360   20.3570  -33.4800 O   0  0  0  0  0  0  0  0  0  0  0  0
   -6.6810   23.5310  -31.5350 C   0  0  0  0  0  0  0  0  0  0  0  0
   -5.9300   24.6590  -31.2000 C   0  0  0  0  0  0  0  0  0  0  0  0
   -4.5940   24.5270  -30.8130 C   0  0  0  0  0  0  0  0  0  0  0  0
   -3.8610   25.6600  -30.4820 O   0  0  0  0  0  0  0  0  0  0  0  0
   -2.9889   23.0608  -28.3355 H   0  0  0  0  0  0  0  0  0  0  0  0
   -1.3194   22.6686  -28.8697 H   0  0  0  0  0  0  0  0  0  0  0  0
   -1.8852   24.3735  -28.8697 H   0  0  0  0  0  0  0  0  0  0  0  0
   -4.2890   21.1277  -31.0663 H   0  0  0  0  0  0  0  0  0  0  0  0
   -8.4656   21.4941  -30.4024 H   0  0  0  0  0  0  0  0  0  0  0  0
   -9.8420   19.5055  -31.0030 H   0  0  0  0  0  0  0  0  0  0  0  0
   -9.0647   17.9365  -32.7807 H   0  0  0  0  0  0  0  0  0  0  0  0
   -6.9044   18.3478  -33.9529 H   0  0  0  0  0  0  0  0  0  0  0  0
   -5.0700   21.1670  -34.0660 H   0  0  0  0  0  0  0  0  0  0  0  0
   -7.7310   23.6440  -31.8427 H   0  0  0  0  0  0  0  0  0  0  0  0
   -6.3922   25.6564  -31.2409 H   0  0  0  0  0  0  0  0  0  0  0  0
  1  2  1  0
  2  3  1  0
  3  4  2  0
  4  5  1  0
  5  6  1  0
  6  7  2  0
  7  8  1  0
  8  9  2  0
  9 10  1  0
 10 11  2  0
 11 12  1  0
  5 13  2  0
 13 14  1  0
 14 15  2  0
 15 16  1  0
 15  3  1  0
 11  6  1  0
  1 17  1  0
  1 18  1  0
  1 19  1  0
  4 20  1  0
  7 21  1  0
  8 22  1  0
  9 23  1  0
 10 24  1  0
 12 25  1  0
 13 26  1  0
 14 27  1  0
M  CHG  1  16  -1
M  END
>  <UniqueID>  (47) 
45

>  <SMILES>  (47) 
COc1cc(-c2ccccc2O)ccc1[O-]

>  <Energy>  (47) 
33.4868039448917

>  <Genealogy>  (47) 
COc1cc(-c2ccccc2O)ccc1[O-] (protonated)
COc1cc(-c2ccccc2O)ccc1[O-] (3D coordinates assigned)
COc1cc(-c2ccccc2O)ccc1[O-] (optimized conformer: 33.4868039448917 kcal/mol)

>  <smiles>  (47) 
COc1cc(-c2ccccc2O)ccc1O

>  <score_type>  (47) 
oracle

>  <origin>  (47) 
adgpu

>  <m_score__min__energy>  (47) 
-9.4600000000000009

>  <m_primary>  (47) 
energy

$$$$
47:0
     RDKit          3D

 45 47  0  0  0  0  0  0  0  0999 V2000
   -0.0460   23.1810  -24.3100 C   0  0  0  0  0  0  0  0  0  0  0  0
   -0.3970   24.4130  -25.0900 C   0  0  0  0  0  0  0  0  0  0  0  0
   -0.3300   25.6770  -24.4830 C   0  0  0  0  0  0  0  0  0  0  0  0
   -0.7090   26.8180  -25.1920 C   0  0  0  0  0  0  0  0  0  0  0  0
   -1.1590   26.7080  -26.5100 C   0  0  0  0  0  0  0  0  0  0  0  0
   -1.2230   25.4560  -27.1340 C   0  0  0  0  0  0  0  0  0  0  0  0
   -1.7200   25.3770  -28.4770 N   0  0  0  0  0  0  0  0  0  0  0  0
   -2.9080   24.6920  -28.8920 C   0  0  0  0  0  0  0  0  0  0  0  0
   -3.5710   24.0500  -28.0350 O   0  0  0  0  0  0  0  0  0  0  0  0
   -3.3960   24.8150  -30.2380 N   0  0  0  0  0  0  0  0  0  0  0  0
   -4.3280   23.9030  -30.8420 C   0  0  0  0  0  0  0  0  0  0  0  0
   -3.8390   22.7260  -31.4600 C   0  0  0  0  0  0  0  0  0  0  0  0
   -4.7200   21.7940  -32.0400 C   0  0  0  0  0  0  0  0  0  0  0  0
   -6.0900   22.0590  -31.9760 C   0  0  0  0  0  0  0  0  0  0  0  0
   -6.5680   23.1870  -31.3600 C   0  0  0  0  0  0  0  0  0  0  0  0
   -7.9440   23.1500  -31.4280 C   0  0  0  0  0  0  0  0  0  0  0  0
   -8.2460   21.9710  -32.1000 C   0  0  0  0  0  0  0  0  0  0  0  0
   -7.1130   21.3090  -32.4380 N   0  0  0  0  0  0  0  0  0  0  0  0
   -7.0550   20.0100  -33.1110 C   0  0  0  0  0  0  0  0  0  0  0  0
   -7.0750   18.8580  -32.0990 C   0  0  0  0  0  0  0  0  0  0  0  0
   -8.4640   18.2250  -31.9650 C   0  0  0  0  0  0  0  0  0  0  0  0
   -9.4500   19.0230  -32.6870 N   0  0  0  0  0  0  0  0  0  0  0  0
   -5.7230   24.1280  -30.7770 C   0  0  0  0  0  0  0  0  0  0  0  0
   -0.8670   24.3050  -26.4080 C   0  0  0  0  0  0  0  0  0  0  0  0
   -0.1080   23.3985  -23.2335 H   0  0  0  0  0  0  0  0  0  0  0  0
   -0.7501   22.3744  -24.5622 H   0  0  0  0  0  0  0  0  0  0  0  0
    0.9775   22.8665  -24.5622 H   0  0  0  0  0  0  0  0  0  0  0  0
    0.0224   25.7686  -23.4450 H   0  0  0  0  0  0  0  0  0  0  0  0
   -0.6532   27.8061  -24.7119 H   0  0  0  0  0  0  0  0  0  0  0  0
   -1.4647   27.6098  -27.0606 H   0  0  0  0  0  0  0  0  0  0  0  0
   -3.1110   25.6610  -30.7810 H   0  0  0  0  0  0  0  0  0  0  0  0
   -2.7556   22.5377  -31.4870 H   0  0  0  0  0  0  0  0  0  0  0  0
   -4.3411   20.8844  -32.5289 H   0  0  0  0  0  0  0  0  0  0  0  0
   -8.6520   23.8943  -31.0346 H   0  0  0  0  0  0  0  0  0  0  0  0
   -9.2648   21.6233  -32.3262 H   0  0  0  0  0  0  0  0  0  0  0  0
   -7.9224   19.9141  -33.7806 H   0  0  0  0  0  0  0  0  0  0  0  0
   -6.1159   19.9555  -33.6813 H   0  0  0  0  0  0  0  0  0  0  0  0
   -6.3646   18.0855  -32.4285 H   0  0  0  0  0  0  0  0  0  0  0  0
   -6.7962   19.2681  -31.1171 H   0  0  0  0  0  0  0  0  0  0  0  0
   -8.4423   17.2078  -32.3832 H   0  0  0  0  0  0  0  0  0  0  0  0
   -8.7411   18.1861  -30.9012 H   0  0  0  0  0  0  0  0  0  0  0  0
  -10.3460   18.4850  -32.7200 H   0  0  0  0  0  0  0  0  0  0  0  0
   -9.1220   19.1130  -33.6770 H   0  0  0  0  0  0  0  0  0  0  0  0
   -6.1290   25.0213  -30.2798 H   0  0  0  0  0  0  0  0  0  0  0  0
   -0.9576   23.3138  -26.8763 H   0  0  0  0  0  0  0  0  0  0  0  0
  1  2  1  0
  2  3  2  0
  3  4  1  0
  4  5  2  0
  5  6  1  0
  6  7  1  0
  7  8  1  0
  8  9  2  0
  8 10  1  0
 10 11  1  0
 11 12  2  0
 12 13  1  0
 13 14  2  0
 14 15  1  0
 15 16  1  0
 16 17  2  0
 17 18  1  0
 18 19  1  0
 19 20  1  0
 20 21  1  0
 21 22  1  0
 15 23  2  0
  6 24  2  0
 24  2  1  0
 23 11  1  0
 18 14  1  0
  1 25  1  0
  1 26  1  0
  1 27  1  0
  3 28  1  0
  4 29  1  0
  5 30  1  0
 10 31  1  0
 12 32  1  0
 13 33  1  0
 16 34  1  0
 17 35  1  0
 19 36  1  0
 19 37  1  0
 20 38  1  0
 20 39  1  0
 21 40  1  0
 21 41  1  0
 22 42  1  0
 22 43  1  0
 23 44  1  0
 24 45  1  0
M  CHG  1   7  -1
M  END
>  <UniqueID>  (48) 
46

>  <SMILES>  (48) 
Cc1cccc([N-]C(=O)Nc2ccc3c(ccn3CCCN)c2)c1

>  <Energy>  (48) 
79.6853138292435

>  <Genealogy>  (48) 
Cc1cccc([N-]C(=O)Nc2ccc3c(ccn3CCCN)c2)c1 (protonated)
Cc1cccc([N-]C(=O)Nc2ccc3c(ccn3CCCN)c2)c1 (3D coordinates assigned)
Cc1cccc([N-]C(=O)Nc2ccc3c(ccn3CCCN)c2)c1 (optimized conformer: 79.6853138292435 kcal/mol)

>  <smiles>  (48) 
Cc1cccc(NC(=O)Nc2ccc3c(ccn3CCCN)c2)c1

>  <score_type>  (48) 
oracle

>  <origin>  (48) 
adgpu

>  <m_score__min__energy>  (48) 
-9.9299999999999997

>  <m_primary>  (48) 
energy

$$$$
