0:0
     RDKit          3D

 37 38  0  0  0  0  0  0  0  0999 V2000
   -1.2050   24.8350  -28.9600 C   0  0  0  0  0  0  0  0  0  0  0  0
   -2.5350   25.2980  -29.3370 N   0  0  0  0  0  0  0  0  0  0  0  0
   -3.4200   23.9930  -30.0660 S   0  0  0  0  0  0  0  0  0  0  0  0
   -4.2640   24.5230  -31.1900 O   0  0  0  0  0  0  0  0  0  0  0  0
   -4.3220   23.3690  -29.0380 O   0  0  0  0  0  0  0  0  0  0  0  0
   -2.3320   22.7840  -30.6780 N   0  0  0  0  0  0  0  0  0  0  0  0
   -2.6840   21.8260  -31.6970 C   0  0  0  0  0  0  0  0  0  0  0  0
   -4.0290   21.5890  -32.0380 C   0  0  0  0  0  0  0  0  0  0  0  0
   -4.3750   20.6440  -33.0200 C   0  0  0  0  0  0  0  0  0  0  0  0
   -5.7970   20.3920  -33.3700 C   0  0  0  0  0  0  0  0  0  0  0  0
   -6.0740   19.6490  -34.3510 O   0  0  0  0  0  0  0  0  0  0  0  0
   -6.9100   21.0190  -32.6270 C   0  0  0  0  0  0  0  0  0  0  0  0
   -6.9640   22.4190  -32.5440 C   0  0  0  0  0  0  0  0  0  0  0  0
   -7.9880   23.0470  -31.8290 C   0  0  0  0  0  0  0  0  0  0  0  0
   -8.9710   22.2840  -31.1990 C   0  0  0  0  0  0  0  0  0  0  0  0
   -8.9400   20.8900  -31.2910 C   0  0  0  0  0  0  0  0  0  0  0  0
   -7.9210   20.2500  -32.0060 C   0  0  0  0  0  0  0  0  0  0  0  0
   -7.9930   18.3380  -32.1580 Br  0  0  0  0  0  0  0  0  0  0  0  0
   -3.3520   19.9530  -33.6850 C   0  0  0  0  0  0  0  0  0  0  0  0
   -2.0140   20.1880  -33.3670 C   0  0  0  0  0  0  0  0  0  0  0  0
   -1.6670   21.1210  -32.3710 C   0  0  0  0  0  0  0  0  0  0  0  0
   -0.3270   21.3660  -32.0300 O   0  0  0  0  0  0  0  0  0  0  0  0
    0.6260   20.3570  -31.7110 C   0  0  0  0  0  0  0  0  0  0  0  0
   -1.1238   24.8067  -27.8634 H   0  0  0  0  0  0  0  0  0  0  0  0
   -1.0391   23.8262  -29.3661 H   0  0  0  0  0  0  0  0  0  0  0  0
   -0.4486   25.5227  -29.3661 H   0  0  0  0  0  0  0  0  0  0  0  0
   -1.3910   22.7410  -30.2310 H   0  0  0  0  0  0  0  0  0  0  0  0
   -4.8234   22.1530  -31.5272 H   0  0  0  0  0  0  0  0  0  0  0  0
   -6.1955   23.0261  -33.0449 H   0  0  0  0  0  0  0  0  0  0  0  0
   -8.0186   24.1446  -31.7631 H   0  0  0  0  0  0  0  0  0  0  0  0
   -9.7709   22.7798  -30.6295 H   0  0  0  0  0  0  0  0  0  0  0  0
   -9.7210   20.2921  -30.7986 H   0  0  0  0  0  0  0  0  0  0  0  0
   -3.6066   19.2194  -34.4641 H   0  0  0  0  0  0  0  0  0  0  0  0
   -1.2229   19.6394  -33.8992 H   0  0  0  0  0  0  0  0  0  0  0  0
    0.7119   20.2661  -30.6181 H   0  0  0  0  0  0  0  0  0  0  0  0
    0.2982   19.3961  -32.1342 H   0  0  0  0  0  0  0  0  0  0  0  0
    1.6041   20.6295  -32.1342 H   0  0  0  0  0  0  0  0  0  0  0  0
  1  2  1  0
  2  3  1  0
  3  4  2  0
  3  5  2  0
  3  6  1  0
  6  7  1  0
  7  8  2  0
  8  9  1  0
  9 10  1  0
 10 11  2  0
 10 12  1  0
 12 13  2  0
 13 14  1  0
 14 15  2  0
 15 16  1  0
 16 17  2  0
 17 18  1  0
  9 19  2  0
 19 20  1  0
 20 21  2  0
 21 22  1  0
 22 23  1  0
 21  7  1  0
 17 12  1  0
  1 24  1  0
  1 25  1  0
  1 26  1  0
  6 27  1  0
  8 28  1  0
 13 29  1  0
 14 30  1  0
 15 31  1  0
 16 32  1  0
 19 33  1  0
 20 34  1  0
 23 35  1  0
 23 36  1  0
 23 37  1  0
M  CHG  1   2  -1
M  END
>  <UniqueID>  (1) 
1

>  <SMILES>  (1) 
C[N-]S(=O)(=O)Nc1cc(C(=O)c2ccccc2Br)ccc1OC

>  <Energy>  (1) 
44.32520520076875

>  <Genealogy>  (1) 
C[N-]S(=O)(=O)Nc1cc(C(=O)c2ccccc2Br)ccc1OC (protonated)
C[N-]S(=O)(=O)Nc1cc(C(=O)c2ccccc2Br)ccc1OC (3D coordinates assigned)
C[N-]S(=O)(=O)Nc1cc(C(=O)c2ccccc2Br)ccc1OC (optimized conformer: 44.32520520076875 kcal/mol)

>  <smiles>  (1) 
CNS(=O)(=O)Nc1cc(C(=O)c2ccccc2Br)ccc1OC

>  <score_type>  (1) 
oracle

>  <origin>  (1) 
adgpu

>  <m_score__min__energy>  (1) 
-9.6400000000000006

>  <m_primary>  (1) 
energy

$$$$
1:0
     RDKit          3D

 38 39  0  0  0  0  0  0  0  0999 V2000
   -2.3610   19.5990  -27.0370 N   0  0  0  0  0  0  0  0  0  0  0  0
   -2.6190   20.5690  -27.6120 C   0  0  0  0  0  0  0  0  0  0  0  0
   -2.9400   21.7770  -28.3270 C   0  0  0  0  0  0  0  0  0  0  0  0
   -3.1890   21.7330  -29.7040 C   0  0  0  0  0  0  0  0  0  0  0  0
   -3.5020   22.9060  -30.3980 C   0  0  0  0  0  0  0  0  0  0  0  0
   -3.5680   24.1330  -29.7270 C   0  0  0  0  0  0  0  0  0  0  0  0
   -3.8850   25.2800  -30.4680 O   0  0  0  0  0  0  0  0  0  0  0  0
   -5.2090   25.6750  -30.8200 C   0  0  0  0  0  0  0  0  0  0  0  0
   -6.1910   25.2110  -29.7450 C   0  0  0  0  0  0  0  0  0  0  0  0
   -6.8670   23.8890  -30.1310 C   0  0  0  0  0  0  0  0  0  0  0  0
   -7.0490   23.8060  -31.5890 N   0  0  0  0  0  0  0  0  0  0  0  0
   -8.2680   23.0740  -31.9750 C   0  0  0  0  0  0  0  0  0  0  0  0
   -8.0340   21.5840  -32.0800 C   0  0  0  0  0  0  0  0  0  0  0  0
   -6.7520   21.0830  -32.3610 C   0  0  0  0  0  0  0  0  0  0  0  0
   -6.5430   19.7050  -32.4710 C   0  0  0  0  0  0  0  0  0  0  0  0
   -7.6100   18.8180  -32.3000 C   0  0  0  0  0  0  0  0  0  0  0  0
   -8.8880   19.3090  -32.0180 C   0  0  0  0  0  0  0  0  0  0  0  0
   -9.1010   20.6870  -31.9090 C   0  0  0  0  0  0  0  0  0  0  0  0
   -3.3170   24.1730  -28.3410 C   0  0  0  0  0  0  0  0  0  0  0  0
   -3.0050   23.0000  -27.6480 C   0  0  0  0  0  0  0  0  0  0  0  0
   -3.1384   20.7742  -30.2408 H   0  0  0  0  0  0  0  0  0  0  0  0
   -3.6979   22.8643  -31.4796 H   0  0  0  0  0  0  0  0  0  0  0  0
   -5.2525   26.7708  -30.9058 H   0  0  0  0  0  0  0  0  0  0  0  0
   -5.4809   25.2167  -31.7823 H   0  0  0  0  0  0  0  0  0  0  0  0
   -5.6458   25.0707  -28.8000 H   0  0  0  0  0  0  0  0  0  0  0  0
   -6.9718   25.9784  -29.6376 H   0  0  0  0  0  0  0  0  0  0  0  0
   -6.2382   23.0505  -29.7970 H   0  0  0  0  0  0  0  0  0  0  0  0
   -7.8538   23.8412  -29.6474 H   0  0  0  0  0  0  0  0  0  0  0  0
   -6.2170   23.3280  -32.0070 H   0  0  0  0  0  0  0  0  0  0  0  0
   -9.0452   23.2575  -31.2185 H   0  0  0  0  0  0  0  0  0  0  0  0
   -8.5783   23.4364  -32.9661 H   0  0  0  0  0  0  0  0  0  0  0  0
   -5.9095   21.7774  -32.4950 H   0  0  0  0  0  0  0  0  0  0  0  0
   -5.5374   19.3181  -32.6925 H   0  0  0  0  0  0  0  0  0  0  0  0
   -7.4439   17.7341  -32.3873 H   0  0  0  0  0  0  0  0  0  0  0  0
   -9.7271   18.6109  -31.8817 H   0  0  0  0  0  0  0  0  0  0  0  0
  -10.1084   21.0698  -31.6884 H   0  0  0  0  0  0  0  0  0  0  0  0
   -3.3668   25.1309  -27.8025 H   0  0  0  0  0  0  0  0  0  0  0  0
   -2.8099   23.0376  -26.5661 H   0  0  0  0  0  0  0  0  0  0  0  0
  1  2  3  0
  2  3  1  0
  3  4  2  0
  4  5  1  0
  5  6  2  0
  6  7  1  0
  7  8  1  0
  8  9  1  0
  9 10  1  0
 10 11  1  0
 11 12  1  0
 12 13  1  0
 13 14  2  0
 14 15  1  0
 15 16  2  0
 16 17  1  0
 17 18  2  0
  6 19  1  0
 19 20  2  0
 20  3  1  0
 18 13  1  0
  4 21  1  0
  5 22  1  0
  8 23  1  0
  8 24  1  0
  9 25  1  0
  9 26  1  0
 10 27  1  0
 10 28  1  0
 11 29  1  0
 12 30  1  0
 12 31  1  0
 14 32  1  0
 15 33  1  0
 16 34  1  0
 17 35  1  0
 18 36  1  0
 19 37  1  0
 20 38  1  0
M  END
>  <UniqueID>  (2) 
2

>  <SMILES>  (2) 
N#Cc1ccc(OCCCNCc2ccccc2)cc1

>  <Energy>  (2) 
33.551373354304374

>  <Genealogy>  (2) 
N#Cc1ccc(OCCCNCc2ccccc2)cc1 (3D coordinates assigned)
N#Cc1ccc(OCCCNCc2ccccc2)cc1 (optimized conformer: 33.551373354304374 kcal/mol)

>  <smiles>  (2) 
N#Cc1ccc(OCCCNCc2ccccc2)cc1

>  <score_type>  (2) 
oracle

>  <origin>  (2) 
adgpu

>  <m_score__min__energy>  (2) 
-8.3100000000000005

>  <m_primary>  (2) 
energy

$$$$
2:0
     RDKit          3D

 47 48  0  0  0  0  0  0  0  0999 V2000
   -7.2460   17.4370  -32.6490 C   0  0  0  0  0  0  0  0  0  0  0  0
   -6.8830   16.4770  -33.7790 C   0  0  0  0  0  0  0  0  0  0  0  0
   -5.9540   17.1100  -34.8280 C   0  0  0  0  0  0  0  0  0  0  0  0
   -4.6370   17.4630  -34.2510 N   0  0  0  0  0  0  0  0  0  0  0  0
   -4.3740   18.7200  -33.7370 C   0  0  0  0  0  0  0  0  0  0  0  0
   -5.3790   19.7500  -33.7200 N   0  0  0  0  0  0  0  0  0  0  0  0
   -3.1060   19.0000  -33.1900 C   0  0  0  0  0  0  0  0  0  0  0  0
   -2.7680   20.3100  -32.6970 N   0  0  0  0  0  0  0  0  0  0  0  0
   -1.8840   21.1800  -33.4920 C   0  0  0  0  0  0  0  0  0  0  0  0
   -0.4570   21.1840  -32.9420 C   0  0  0  0  0  0  0  0  0  0  0  0
    0.4330   21.5630  -33.9710 O   0  0  0  0  0  0  0  0  0  0  0  0
    0.2480   20.7150  -35.0820 C   0  0  0  0  0  0  0  0  0  0  0  0
   -3.5060   20.8300  -31.5740 C   0  0  0  0  0  0  0  0  0  0  0  0
   -4.5030   20.1900  -31.1390 O   0  0  0  0  0  0  0  0  0  0  0  0
   -3.1160   22.0910  -30.9030 C   0  0  0  0  0  0  0  0  0  0  0  0
   -1.9970   22.1230  -30.0540 C   0  0  0  0  0  0  0  0  0  0  0  0
   -1.6200   23.3130  -29.4260 C   0  0  0  0  0  0  0  0  0  0  0  0
   -2.3490   24.4850  -29.6460 C   0  0  0  0  0  0  0  0  0  0  0  0
   -1.9680   25.6640  -29.0150 O   0  0  0  0  0  0  0  0  0  0  0  0
   -3.4550   24.4710  -30.5030 C   0  0  0  0  0  0  0  0  0  0  0  0
   -4.1720   25.6450  -30.7260 O   0  0  0  0  0  0  0  0  0  0  0  0
   -3.8330   23.2770  -31.1330 C   0  0  0  0  0  0  0  0  0  0  0  0
   -2.1480   17.9870  -33.1640 C   0  0  0  0  0  0  0  0  0  0  0  0
   -1.0060   18.1970  -32.6750 O   0  0  0  0  0  0  0  0  0  0  0  0
   -2.4420   16.7710  -33.6750 N   0  0  0  0  0  0  0  0  0  0  0  0
   -3.6550   16.5010  -34.2150 C   0  0  0  0  0  0  0  0  0  0  0  0
   -3.8640   15.3460  -34.6760 O   0  0  0  0  0  0  0  0  0  0  0  0
   -7.0617   16.9495  -31.6803 H   0  0  0  0  0  0  0  0  0  0  0  0
   -6.6289   18.3443  -32.7262 H   0  0  0  0  0  0  0  0  0  0  0  0
   -8.3090   17.7090  -32.7262 H   0  0  0  0  0  0  0  0  0  0  0  0
   -6.3780   15.6008  -33.3463 H   0  0  0  0  0  0  0  0  0  0  0  0
   -7.8172   16.2008  -34.2898 H   0  0  0  0  0  0  0  0  0  0  0  0
   -5.8031   16.3938  -35.6491 H   0  0  0  0  0  0  0  0  0  0  0  0
   -6.4274   18.0336  -35.1927 H   0  0  0  0  0  0  0  0  0  0  0  0
   -6.2110   19.7390  -34.3450 H   0  0  0  0  0  0  0  0  0  0  0  0
   -5.2660   20.5980  -33.1230 H   0  0  0  0  0  0  0  0  0  0  0  0
   -1.8656   20.8173  -34.5303 H   0  0  0  0  0  0  0  0  0  0  0  0
   -2.2754   22.2068  -33.4420 H   0  0  0  0  0  0  0  0  0  0  0  0
   -0.3847   21.9000  -32.1100 H   0  0  0  0  0  0  0  0  0  0  0  0
   -0.1969   20.1790  -32.5781 H   0  0  0  0  0  0  0  0  0  0  0  0
    0.0257   19.6960  -34.7325 H   0  0  0  0  0  0  0  0  0  0  0  0
   -0.5905   21.0851  -35.6902 H   0  0  0  0  0  0  0  0  0  0  0  0
    1.1645   20.7023  -35.6902 H   0  0  0  0  0  0  0  0  0  0  0  0
   -1.4143   21.2059  -29.8827 H   0  0  0  0  0  0  0  0  0  0  0  0
   -0.7472   23.3274  -28.7567 H   0  0  0  0  0  0  0  0  0  0  0  0
   -3.8710   26.5330  -30.3400 H   0  0  0  0  0  0  0  0  0  0  0  0
   -4.6978   23.2687  -31.8127 H   0  0  0  0  0  0  0  0  0  0  0  0
  1  2  1  0
  2  3  1  0
  3  4  1  0
  4  5  1  0
  5  6  1  0
  5  7  2  0
  7  8  1  0
  8  9  1  0
  9 10  1  0
 10 11  1  0
 11 12  1  0
  8 13  1  0
 13 14  2  0
 13 15  1  0
 15 16  2  0
 16 17  1  0
 17 18  2  0
 18 19  1  0
 18 20  1  0
 20 21  1  0
 20 22  2  0
  7 23  1  0
 23 24  2  0
 23 25  1  0
 25 26  1  0
 26 27  2  0
 26  4  1  0
 22 15  1  0
  1 28  1  0
  1 29  1  0
  1 30  1  0
  2 31  1  0
  2 32  1  0
  3 33  1  0
  3 34  1  0
  6 35  1  0
  6 36  1  0
  9 37  1  0
  9 38  1  0
 10 39  1  0
 10 40  1  0
 12 41  1  0
 12 42  1  0
 12 43  1  0
 16 44  1  0
 17 45  1  0
 21 46  1  0
 22 47  1  0
M  CHG  2  19  -1  25  -1
M  END
>  <UniqueID>  (3) 
3

>  <SMILES>  (3) 
CCCn1c(N)c(N(CCOC)C(=O)c2ccc([O-])c(O)c2)c(=O)[n-]c1=O

>  <Energy>  (3) 
61.065449547180414

>  <Genealogy>  (3) 
CCCn1c(N)c(N(CCOC)C(=O)c2ccc([O-])c(O)c2)c(=O)[n-]c1=O (protonated)
CCCn1c(N)c(N(CCOC)C(=O)c2ccc([O-])c(O)c2)c(=O)[n-]c1=O (3D coordinates assigned)
CCCn1c(N)c(N(CCOC)C(=O)c2ccc([O-])c(O)c2)c(=O)[n-]c1=O (optimized conformer: 61.065449547180414 kcal/mol)

>  <smiles>  (3) 
CCCn1c(N)c(N(CCOC)C(=O)c2ccc(O)c(O)c2)c(=O)[nH]c1=O

>  <score_type>  (3) 
oracle

>  <origin>  (3) 
adgpu

>  <m_score__min__energy>  (3) 
-9.4000000000000004

>  <m_primary>  (3) 
energy

$$$$
3:0
     RDKit          3D

 57 60  0  0  0  0  0  0  0  0999 V2000
   -3.0740   14.5150  -36.1570 C   0  0  0  0  0  0  0  0  0  0  0  0
   -2.4390   15.7770  -35.6370 C   0  0  0  0  0  0  0  0  0  0  0  0
   -1.0780   16.0140  -35.8830 C   0  0  0  0  0  0  0  0  0  0  0  0
   -0.4610   17.1700  -35.4020 C   0  0  0  0  0  0  0  0  0  0  0  0
   -1.1960   18.1190  -34.6730 C   0  0  0  0  0  0  0  0  0  0  0  0
   -0.5610   19.3570  -34.1560 C   0  0  0  0  0  0  0  0  0  0  0  0
    0.4410   19.2460  -33.3950 O   0  0  0  0  0  0  0  0  0  0  0  0
   -1.1280   20.6660  -34.4240 N   0  0  2  0  0  0  0  0  0  0  0  0
   -0.0790   21.6940  -34.5370 C   0  0  0  0  0  0  0  0  0  0  0  0
   -2.1640   21.0190  -33.4260 C   0  0  0  0  0  0  0  0  0  0  0  0
   -1.7030   20.8480  -31.9620 C   0  0  0  0  0  0  0  0  0  0  0  0
   -2.0870   21.9600  -30.9960 C   0  0  0  0  0  0  0  0  0  0  0  0
   -2.8430   20.6420  -30.9730 C   0  0  0  0  0  0  0  0  0  0  0  0
   -2.5560   17.8800  -34.4210 C   0  0  0  0  0  0  0  0  0  0  0  0
   -3.1880   16.7350  -34.9210 C   0  0  0  0  0  0  0  0  0  0  0  0
   -4.5540   16.5600  -34.6720 O   0  0  0  0  0  0  0  0  0  0  0  0
   -5.3120   17.3900  -33.8330 C   0  0  0  0  0  0  0  0  0  0  0  0
   -6.3430   16.8880  -33.0270 C   0  0  0  0  0  0  0  0  0  0  0  0
   -7.0510   17.7780  -32.2210 C   0  0  0  0  0  0  0  0  0  0  0  0
   -6.7400   19.0980  -32.2340 N   0  0  0  0  0  0  0  0  0  0  0  0
   -5.7500   19.5810  -33.0350 C   0  0  0  0  0  0  0  0  0  0  0  0
   -5.4340   20.8430  -33.0350 N   0  0  0  0  0  0  0  0  0  0  0  0
   -6.0890   21.8980  -32.3110 C   0  0  0  0  0  0  0  0  0  0  0  0
   -7.4890   21.9120  -32.2670 C   0  0  0  0  0  0  0  0  0  0  0  0
   -8.1640   22.9040  -31.5500 C   0  0  0  0  0  0  0  0  0  0  0  0
   -7.4460   23.8780  -30.8540 C   0  0  0  0  0  0  0  0  0  0  0  0
   -6.0450   23.8540  -30.8570 C   0  0  0  0  0  0  0  0  0  0  0  0
   -5.1360   25.0720  -29.9670 S   0  0  0  0  0  0  0  0  0  0  0  0
   -3.5410   25.1900  -30.6210 N   0  0  0  0  0  0  0  0  0  0  0  0
   -5.8200   26.4050  -30.0800 O   0  0  0  0  0  0  0  0  0  0  0  0
   -5.0620   24.6900  -28.5150 O   0  0  0  0  0  0  0  0  0  0  0  0
   -5.3670   22.8620  -31.5800 C   0  0  0  0  0  0  0  0  0  0  0  0
   -5.0450   18.7230  -33.8180 N   0  0  0  0  0  0  0  0  0  0  0  0
   -3.3897   13.8876  -35.3104 H   0  0  0  0  0  0  0  0  0  0  0  0
   -3.9505   14.7713  -36.7703 H   0  0  0  0  0  0  0  0  0  0  0  0
   -2.3459   13.9639  -36.7703 H   0  0  0  0  0  0  0  0  0  0  0  0
   -0.4925   15.2828  -36.4596 H   0  0  0  0  0  0  0  0  0  0  0  0
    0.6086   17.3389  -35.5953 H   0  0  0  0  0  0  0  0  0  0  0  0
   -1.6110   20.6480  -35.3490 H   0  0  0  0  0  0  0  0  0  0  0  0
    0.2389   22.0056  -33.5311 H   0  0  0  0  0  0  0  0  0  0  0  0
    0.7823   21.2806  -35.0821 H   0  0  0  0  0  0  0  0  0  0  0  0
   -0.4749   22.5635  -35.0821 H   0  0  0  0  0  0  0  0  0  0  0  0
   -2.4493   22.0703  -33.5792 H   0  0  0  0  0  0  0  0  0  0  0  0
   -3.0057   20.3277  -33.5797 H   0  0  0  0  0  0  0  0  0  0  0  0
   -0.7605   20.3358  -32.2057 H   0  0  0  0  0  0  0  0  0  0  0  0
   -1.4153   22.2230  -30.1655 H   0  0  0  0  0  0  0  0  0  0  0  0
   -2.3713   23.0174  -31.1015 H   0  0  0  0  0  0  0  0  0  0  0  0
   -2.7182   19.9512  -30.1261 H   0  0  0  0  0  0  0  0  0  0  0  0
   -3.9005   20.3506  -31.0550 H   0  0  0  0  0  0  0  0  0  0  0  0
   -3.1325   18.6013  -33.8232 H   0  0  0  0  0  0  0  0  0  0  0  0
   -6.5879   15.8156  -33.0304 H   0  0  0  0  0  0  0  0  0  0  0  0
   -7.8615   17.4099  -31.5748 H   0  0  0  0  0  0  0  0  0  0  0  0
   -8.0606   21.1378  -32.7998 H   0  0  0  0  0  0  0  0  0  0  0  0
   -9.2638   22.9172  -31.5342 H   0  0  0  0  0  0  0  0  0  0  0  0
   -7.9807   24.6654  -30.3025 H   0  0  0  0  0  0  0  0  0  0  0  0
   -3.5140   26.0510  -31.2140 H   0  0  0  0  0  0  0  0  0  0  0  0
   -4.2673   22.8364  -31.5764 H   0  0  0  0  0  0  0  0  0  0  0  0
  1  2  1  0
  2  3  2  0
  3  4  1  0
  4  5  2  0
  5  6  1  0
  6  7  2  0
  6  8  1  0
  8  9  1  0
  8 10  1  0
 10 11  1  0
 11 12  1  0
 12 13  1  0
  5 14  1  0
 14 15  2  0
 15 16  1  0
 16 17  1  0
 17 18  1  0
 18 19  2  0
 19 20  1  0
 20 21  1  0
 21 22  2  3
 22 23  1  0
 23 24  2  0
 24 25  1  0
 25 26  2  0
 26 27  1  0
 27 28  1  0
 28 29  1  0
 28 30  2  0
 28 31  2  0
 27 32  2  0
 21 33  1  0
 15  2  1  0
 33 17  2  0
 13 11  1  0
 32 23  1  0
  1 34  1  0
  1 35  1  0
  1 36  1  0
  3 37  1  0
  4 38  1  0
  8 39  1  6
  9 40  1  0
  9 41  1  0
  9 42  1  0
 10 43  1  0
 10 44  1  0
 11 45  1  0
 12 46  1  0
 12 47  1  0
 13 48  1  0
 13 49  1  0
 14 50  1  0
 18 51  1  0
 19 52  1  0
 24 53  1  0
 25 54  1  0
 26 55  1  0
 29 56  1  0
 32 57  1  0
M  CHG  3   8   1  20  -1  29  -1
M  END
>  <UniqueID>  (4) 
4

>  <SMILES>  (4) 
Cc1ccc(C(=O)[N@H+](C)CC2CC2)cc1Oc1cc[n-]c(=Nc2cccc(S([NH-])(=O)=O)c2)n1

>  <Energy>  (4) 
346.94228312047426

>  <Genealogy>  (4) 
Cc1ccc(C(=O)[NH+](C)CC2CC2)cc1Oc1cc[n-]c(=Nc2cccc(S([NH-])(=O)=O)c2)n1 (protonated)
Cc1ccc(C(=O)[N@H+](C)CC2CC2)cc1Oc1cc[n-]c(=Nc2cccc(S([NH-])(=O)=O)c2)n1 (chirality)
Cc1ccc(C(=O)[N@H+](C)CC2CC2)cc1Oc1cc[n-]c(=Nc2cccc(S([NH-])(=O)=O)c2)n1 (3D coordinates assigned)
Cc1ccc(C(=O)[N@H+](C)CC2CC2)cc1Oc1cc[n-]c(=Nc2cccc(S([NH-])(=O)=O)c2)n1 (nonaromatic ring conformer: 346.94228312047426 kcal/mol)

>  <smiles>  (4) 
Cc1ccc(C(=O)N(C)CC2CC2)cc1Oc1cc[nH]c(=Nc2cccc(S(N)(=O)=O)c2)n1

>  <score_type>  (4) 
oracle

>  <origin>  (4) 
adgpu

>  <m_score__min__energy>  (4) 
-11.93

>  <m_primary>  (4) 
energy

$$$$
4:0
     RDKit          3D

 35 38  0  0  0  0  0  0  0  0999 V2000
   -0.8867   17.3465  -26.7493 H   0  0  0  0  0  0  0  0  0  0  0  0
   -0.3310   17.9690  -27.4660 C   0  0  0  0  0  0  0  0  0  0  0  0
   -0.8620   19.1920  -27.8870 C   0  0  0  0  0  0  0  0  0  0  0  0
   -1.8236   19.5414  -27.4829 H   0  0  0  0  0  0  0  0  0  0  0  0
   -0.1690   19.9760  -28.8260 C   0  0  0  0  0  0  0  0  0  0  0  0
   -0.6680   21.2600  -29.2280 N   0  0  0  0  0  0  0  0  0  0  0  0
   -1.5410   21.5870  -30.1470 C   0  0  0  0  0  0  0  0  0  0  0  0
   -1.9850   20.6820  -31.1620 C   0  0  0  0  0  0  0  0  0  0  0  0
   -1.2500   19.5460  -31.5770 C   0  0  0  0  0  0  0  0  0  0  0  0
   -0.2605   19.3498  -31.1384 H   0  0  0  0  0  0  0  0  0  0  0  0
   -1.7650   18.6700  -32.5370 C   0  0  0  0  0  0  0  0  0  0  0  0
   -1.1975   17.7705  -32.8178 H   0  0  0  0  0  0  0  0  0  0  0  0
   -2.9940   18.9310  -33.1400 C   0  0  0  0  0  0  0  0  0  0  0  0
   -3.6340   17.8300  -34.3450 Cl  0  0  0  0  0  0  0  0  0  0  0  0
   -3.6880   20.0990  -32.8200 C   0  0  0  0  0  0  0  0  0  0  0  0
   -4.6441   20.3217  -33.3163 H   0  0  0  0  0  0  0  0  0  0  0  0
   -3.1720   20.9880  -31.8700 C   0  0  0  0  0  0  0  0  0  0  0  0
   -3.7970   22.1710  -31.6740 N   0  0  0  0  0  0  0  0  0  0  0  0
   -3.3110   23.1210  -30.8370 C   0  0  0  0  0  0  0  0  0  0  0  0
   -3.9820   24.3410  -30.7230 C   0  0  0  0  0  0  0  0  0  0  0  0
   -5.0330   24.5620  -31.3810 O   0  0  0  0  0  0  0  0  0  0  0  0
   -3.4960   25.2970  -29.8990 N   0  0  0  0  0  0  0  0  0  0  0  0
   -2.3840   25.1080  -29.1940 N   0  0  0  0  0  0  0  0  0  0  0  0
   -1.6740   23.9480  -29.2470 C   0  0  0  0  0  0  0  0  0  0  0  0
   -0.4100   23.8940  -28.4330 C   0  0  0  0  0  0  0  0  0  0  0  0
   -0.6626   23.9048  -27.3624 H   0  0  0  0  0  0  0  0  0  0  0  0
    0.1401   22.9715  -28.6707 H   0  0  0  0  0  0  0  0  0  0  0  0
    0.2167   24.7662  -28.6707 H   0  0  0  0  0  0  0  0  0  0  0  0
   -2.1390   22.8830  -30.0770 C   0  0  0  0  0  0  0  0  0  0  0  0
    1.0860   19.5560  -29.2820 C   0  0  0  0  0  0  0  0  0  0  0  0
    1.6568   20.1902  -29.9762 H   0  0  0  0  0  0  0  0  0  0  0  0
    1.6170   18.3340  -28.8590 C   0  0  0  0  0  0  0  0  0  0  0  0
    2.5943   17.9992  -29.2368 H   0  0  0  0  0  0  0  0  0  0  0  0
    0.9060   17.5360  -27.9550 C   0  0  0  0  0  0  0  0  0  0  0  0
    1.6320   15.8670  -27.3770 Br  0  0  0  0  0  0  0  0  0  0  0  0
  1  2  1  0
  2  3  2  0
  3  4  1  0
  3  5  1  0
  5  6  1  0
  6  7  2  0
  7  8  1  0
  8  9  2  0
  9 10  1  0
  9 11  1  0
 11 12  1  0
 11 13  2  0
 13 14  1  0
 13 15  1  0
 15 16  1  0
 15 17  2  0
 17 18  1  0
 18 19  1  0
 19 20  1  0
 20 21  2  0
 20 22  1  0
 22 23  1  0
 23 24  2  0
 24 25  1  0
 25 26  1  0
 25 27  1  0
 25 28  1  0
 24 29  1  0
  5 30  2  0
 30 31  1  0
 30 32  1  0
 32 33  1  0
 32 34  2  0
 34 35  1  0
 34  2  1  0
 29  7  1  0
 17  8  1  0
 29 19  2  0
M  CHG  2  18  -1  22  -1
M  END
>  <UniqueID>  (5) 
5

>  <SMILES>  (5) 
Cc1n[n-]c(=O)c2[n-]c3cc(Cl)ccc3/c(=N\c3ccc(Br)cc3)c12

>  <Energy>  (5) 
73.93312138557843

>  <Genealogy>  (5) 
Cc1n[n-]c(=O)c2[n-]c3cc(Cl)ccc3c(=Nc3ccc(Br)cc3)c12 (protonated)
Cc1n[n-]c(=O)c2[n-]c3cc(Cl)ccc3/c(=N\c3ccc(Br)cc3)c12 (cis-trans isomerization)
Cc1n[n-]c(=O)c2[n-]c3cc(Cl)ccc3/c(=N\c3ccc(Br)cc3)c12 (3D coordinates assigned)
Cc1n[n-]c(=O)c2[n-]c3cc(Cl)ccc3/c(=N\c3ccc(Br)cc3)c12 (optimized conformer: 73.93312138557843 kcal/mol)

>  <smiles>  (5) 
Cc1n[nH]c(=O)c2[nH]c3cc(Cl)ccc3c(=Nc3ccc(Br)cc3)c12

>  <score_type>  (5) 
oracle

>  <origin>  (5) 
adgpu

>  <m_score__min__energy>  (5) 
-9.7599999999999998

>  <m_primary>  (5) 
energy

$$$$
5:0
     RDKit          3D

 32 33  0  0  0  0  0  0  0  0999 V2000
   -1.0526   21.1295  -30.4124 H   0  0  0  0  0  0  0  0  0  0  0  0
   -1.6830   21.8210  -29.8340 C   0  0  0  0  0  0  0  0  0  0  0  0
   -1.9730   21.5460  -28.4980 C   0  0  0  0  0  0  0  0  0  0  0  0
   -1.5611   20.6448  -28.0204 H   0  0  0  0  0  0  0  0  0  0  0  0
   -2.7860   22.4140  -27.7660 C   0  0  0  0  0  0  0  0  0  0  0  0
   -3.0295   22.1816  -26.7188 H   0  0  0  0  0  0  0  0  0  0  0  0
   -3.2950   23.5820  -28.3580 C   0  0  0  0  0  0  0  0  0  0  0  0
   -4.2150   24.4750  -27.5710 C   0  0  0  0  0  0  0  0  0  0  0  0
   -4.0499   24.3148  -26.4953 H   0  0  0  0  0  0  0  0  0  0  0  0
   -4.0083   25.5261  -27.8211 H   0  0  0  0  0  0  0  0  0  0  0  0
   -5.2594   24.2371  -27.8211 H   0  0  0  0  0  0  0  0  0  0  0  0
   -2.9780   23.8770  -29.7030 C   0  0  0  0  0  0  0  0  0  0  0  0
   -3.5360   25.0490  -30.3180 N   0  0  0  0  0  0  0  0  0  0  0  0
   -4.9060   25.2860  -30.6720 C   0  0  0  0  0  0  0  0  0  0  0  0
   -5.3870   26.4340  -30.4750 O   0  0  0  0  0  0  0  0  0  0  0  0
   -5.7800   24.2190  -31.2760 C   0  0  0  0  0  0  0  0  0  0  0  0
   -6.3455   23.7204  -30.4750 H   0  0  0  0  0  0  0  0  0  0  0  0
   -6.4666   24.6915  -31.9938 H   0  0  0  0  0  0  0  0  0  0  0  0
   -4.9750   23.2250  -31.9840 N   0  0  0  0  0  0  0  0  0  0  0  0
   -5.3170   22.0190  -32.3410 C   0  0  0  0  0  0  0  0  0  0  0  0
   -4.2890   20.9540  -33.0950 S   0  0  0  0  0  0  0  0  0  0  0  0
   -5.2930   19.6420  -33.2640 N   0  0  0  0  0  0  0  0  0  0  0  0
   -6.4810   20.0230  -32.7220 C   0  0  0  0  0  0  0  0  0  0  0  0
   -7.6520   19.0880  -32.7130 C   0  0  0  0  0  0  0  0  0  0  0  0
   -7.9337   18.8631  -31.6737 H   0  0  0  0  0  0  0  0  0  0  0  0
   -8.5014   19.5591  -33.2293 H   0  0  0  0  0  0  0  0  0  0  0  0
   -7.3806   18.1554  -33.2293 H   0  0  0  0  0  0  0  0  0  0  0  0
   -6.5370   21.3430  -32.1990 C   0  0  0  0  0  0  0  0  0  0  0  0
   -7.7500   21.8980  -31.6510 C   0  0  0  0  0  0  0  0  0  0  0  0
   -8.7310   22.3340  -31.2210 N   0  0  0  0  0  0  0  0  0  0  0  0
   -2.1910   22.9720  -30.4390 C   0  0  0  0  0  0  0  0  0  0  0  0
   -1.9745   23.1729  -31.4986 H   0  0  0  0  0  0  0  0  0  0  0  0
  1  2  1  0
  2  3  2  0
  3  4  1  0
  3  5  1  0
  5  6  1  0
  5  7  2  0
  7  8  1  0
  8  9  1  0
  8 10  1  0
  8 11  1  0
  7 12  1  0
 12 13  1  0
 13 14  1  0
 14 15  2  0
 14 16  1  0
 16 17  1  0
 16 18  1  0
 16 19  1  0
 19 20  2  0
 20 21  1  0
 21 22  1  0
 22 23  1  0
 23 24  1  0
 24 25  1  0
 24 26  1  0
 24 27  1  0
 23 28  2  0
 28 29  1  0
 29 30  3  0
 12 31  2  0
 31 32  1  0
 31  2  1  0
 28 20  1  0
M  CHG  2  13  -1  22  -1
M  END
>  <UniqueID>  (6) 
6

>  <SMILES>  (6) 
Cc1ccccc1[N-]C(=O)C/N=c1/s[n-]c(C)c1C#N

>  <Energy>  (6) 
71.57899241909905

>  <Genealogy>  (6) 
Cc1ccccc1[N-]C(=O)CN=c1s[n-]c(C)c1C#N (protonated)
Cc1ccccc1[N-]C(=O)C/N=c1/s[n-]c(C)c1C#N (cis-trans isomerization)
Cc1ccccc1[N-]C(=O)C/N=c1/s[n-]c(C)c1C#N (3D coordinates assigned)
Cc1ccccc1[N-]C(=O)C/N=c1/s[n-]c(C)c1C#N (optimized conformer: 71.57899241909905 kcal/mol)

>  <smiles>  (6) 
Cc1ccccc1NC(=O)CN=c1s[nH]c(C)c1C#N

>  <score_type>  (6) 
oracle

>  <origin>  (6) 
adgpu

>  <m_score__min__energy>  (6) 
-8.6400000000000006

>  <m_primary>  (6) 
energy

$$$$
6:0
     RDKit          3D

 47 49  0  0  0  0  0  0  0  0999 V2000
  -10.5007   22.3799  -31.7287 H   0  0  0  0  0  0  0  0  0  0  0  0
   -9.4490   22.0940  -31.8780 C   0  0  0  0  0  0  0  0  0  0  0  0
   -8.4610   23.0810  -31.9430 C   0  0  0  0  0  0  0  0  0  0  0  0
   -8.7395   24.1409  -31.8475 H   0  0  0  0  0  0  0  0  0  0  0  0
   -7.1120   22.7260  -32.1300 C   0  0  0  0  0  0  0  0  0  0  0  0
   -6.0640   23.7120  -32.1840 N   0  0  0  0  0  0  0  0  0  0  0  0
   -5.7020   24.0180  -33.1150 H   0  0  0  0  0  0  0  0  0  0  0  0
   -5.2700   24.3600  -30.7830 S   0  0  0  0  0  0  0  0  0  0  0  0
   -6.2950   25.0120  -29.8950 O   0  0  0  0  0  0  0  0  0  0  0  0
   -4.2670   25.3930  -31.2160 O   0  0  0  0  0  0  0  0  0  0  0  0
   -4.4240   23.0790  -29.9190 C   0  0  0  0  0  0  0  0  0  0  0  0
   -3.9180   21.9710  -30.6100 C   0  0  0  0  0  0  0  0  0  0  0  0
   -4.0556   21.8947  -31.6987 H   0  0  0  0  0  0  0  0  0  0  0  0
   -3.2390   20.9620  -29.9220 C   0  0  0  0  0  0  0  0  0  0  0  0
   -2.8458   20.0950  -30.4732 H   0  0  0  0  0  0  0  0  0  0  0  0
   -3.0550   21.0460  -28.5350 C   0  0  0  0  0  0  0  0  0  0  0  0
   -2.3580   20.0130  -27.8890 O   0  0  0  0  0  0  0  0  0  0  0  0
   -2.8450   19.3060  -26.7530 C   0  0  0  0  0  0  0  0  0  0  0  0
   -2.5010   19.8053  -25.8352 H   0  0  0  0  0  0  0  0  0  0  0  0
   -3.9447   19.2927  -26.7731 H   0  0  0  0  0  0  0  0  0  0  0  0
   -2.4654   18.2738  -26.7731 H   0  0  0  0  0  0  0  0  0  0  0  0
   -3.5700   22.1570  -27.8420 C   0  0  0  0  0  0  0  0  0  0  0  0
   -3.4353   22.2335  -26.7530 H   0  0  0  0  0  0  0  0  0  0  0  0
   -4.2520   23.1640  -28.5310 C   0  0  0  0  0  0  0  0  0  0  0  0
   -4.6555   24.0270  -27.9811 H   0  0  0  0  0  0  0  0  0  0  0  0
   -6.7790   21.3690  -32.2680 C   0  0  0  0  0  0  0  0  0  0  0  0
   -5.7305   21.0803  -32.4329 H   0  0  0  0  0  0  0  0  0  0  0  0
   -7.7670   20.3790  -32.1980 C   0  0  0  0  0  0  0  0  0  0  0  0
   -7.3090   18.6870  -32.3540 S   0  0  0  0  0  0  0  0  0  0  0  0
   -8.5140   17.7920  -32.2500 O   0  0  0  0  0  0  0  0  0  0  0  0
   -6.3640   18.3430  -31.2380 O   0  0  0  0  0  0  0  0  0  0  0  0
   -6.5200   18.4230  -33.8780 N   0  0  0  0  0  0  0  0  0  0  0  0
   -6.8670   18.9700  -34.6990 H   0  0  0  0  0  0  0  0  0  0  0  0
   -5.5320   17.5910  -34.0420 C   0  0  0  0  0  0  0  0  0  0  0  0
   -4.9080   17.4000  -35.2950 N   0  0  0  0  0  0  0  0  0  0  0  0
   -5.1610   17.9040  -36.1740 H   0  0  0  0  0  0  0  0  0  0  0  0
   -3.8420   16.4270  -35.1860 C   0  0  0  0  0  0  0  0  0  0  0  0
   -2.8837   16.8757  -35.4867 H   0  0  0  0  0  0  0  0  0  0  0  0
   -4.0195   15.5622  -35.8422 H   0  0  0  0  0  0  0  0  0  0  0  0
   -3.7940   16.0080  -33.7060 C   0  0  0  0  0  0  0  0  0  0  0  0
   -2.8273   16.2937  -33.2658 H   0  0  0  0  0  0  0  0  0  0  0  0
   -3.9068   14.9182  -33.6077 H   0  0  0  0  0  0  0  0  0  0  0  0
   -4.9360   16.7380  -32.9830 C   0  0  0  0  0  0  0  0  0  0  0  0
   -4.5485   17.3517  -32.1564 H   0  0  0  0  0  0  0  0  0  0  0  0
   -5.6638   16.0490  -32.5296 H   0  0  0  0  0  0  0  0  0  0  0  0
   -9.1050   20.7470  -32.0020 C   0  0  0  0  0  0  0  0  0  0  0  0
   -9.8850   19.9734  -31.9458 H   0  0  0  0  0  0  0  0  0  0  0  0
  1  2  1  0
  2  3  2  0
  3  4  1  0
  3  5  1  0
  5  6  1  0
  6  7  1  0
  6  8  1  0
  8  9  2  0
  8 10  2  0
  8 11  1  0
 11 12  2  0
 12 13  1  0
 12 14  1  0
 14 15  1  0
 14 16  2  0
 16 17  1  0
 17 18  1  0
 18 19  1  0
 18 20  1  0
 18 21  1  0
 16 22  1  0
 22 23  1  0
 22 24  2  0
 24 25  1  0
  5 26  2  0
 26 27  1  0
 26 28  1  0
 28 29  1  0
 29 30  2  0
 29 31  2  0
 29 32  1  0
 32 33  1  0
 32 34  2  0
 34 35  1  0
 35 36  1  0
 35 37  1  0
 37 38  1  0
 37 39  1  0
 37 40  1  0
 40 41  1  0
 40 42  1  0
 40 43  1  0
 43 44  1  0
 43 45  1  0
 28 46  2  0
 46 47  1  0
 46  2  1  0
 24 11  1  0
 43 34  1  0
M  CHG  1  32   1
M  END
>  <UniqueID>  (7) 
7

>  <SMILES>  (7) 
COc1ccc(S(=O)(=O)Nc2cccc(S(=O)(=O)/[NH+]=C3\CCCN3)c2)cc1

>  <Energy>  (7) 
57.519351835535836

>  <Genealogy>  (7) 
COc1ccc(S(=O)(=O)Nc2cccc(S(=O)(=O)[NH+]=C3CCCN3)c2)cc1 (protonated)
COc1ccc(S(=O)(=O)Nc2cccc(S(=O)(=O)/[NH+]=C3\CCCN3)c2)cc1 (cis-trans isomerization)
COc1ccc(S(=O)(=O)Nc2cccc(S(=O)(=O)/[NH+]=C3\CCCN3)c2)cc1 (3D coordinates assigned)
COc1ccc(S(=O)(=O)Nc2cccc(S(=O)(=O)/[NH+]=C3\CCCN3)c2)cc1 (nonaromatic ring conformer: 57.519351835535836 kcal/mol)

>  <smiles>  (7) 
COc1ccc(S(=O)(=O)Nc2cccc(S(=O)(=O)N=C3CCCN3)c2)cc1

>  <score_type>  (7) 
oracle

>  <origin>  (7) 
adgpu

>  <m_score__min__energy>  (7) 
-10.23

>  <m_primary>  (7) 
energy

$$$$
7:0
     RDKit          3D

 28 30  0  0  0  0  0  0  0  0999 V2000
    0.3680   21.3590  -27.3400 O   0  0  0  0  0  0  0  0  0  0  0  0
   -0.1370   22.5870  -27.7500 C   0  0  0  0  0  0  0  0  0  0  0  0
    0.5290   23.7630  -27.4090 C   0  0  0  0  0  0  0  0  0  0  0  0
    0.0240   24.9950  -27.8210 C   0  0  0  0  0  0  0  0  0  0  0  0
   -1.1530   25.0640  -28.5770 C   0  0  0  0  0  0  0  0  0  0  0  0
   -1.6080   26.3200  -28.9570 O   0  0  0  0  0  0  0  0  0  0  0  0
   -1.8440   23.8780  -28.9320 C   0  0  0  0  0  0  0  0  0  0  0  0
   -3.1030   23.8680  -29.7350 C   0  0  0  0  0  0  0  0  0  0  0  0
   -4.0310   22.8460  -29.8790 C   0  0  0  0  0  0  0  0  0  0  0  0
   -4.9930   23.3660  -30.7260 C   0  0  0  0  0  0  0  0  0  0  0  0
   -6.2210   22.6900  -31.2140 C   0  0  0  0  0  0  0  0  0  0  0  0
   -6.1890   21.3620  -31.6840 C   0  0  0  0  0  0  0  0  0  0  0  0
   -7.3590   20.7440  -32.1400 C   0  0  0  0  0  0  0  0  0  0  0  0
   -8.5700   21.4410  -32.1320 C   0  0  0  0  0  0  0  0  0  0  0  0
   -8.6140   22.7560  -31.6680 C   0  0  0  0  0  0  0  0  0  0  0  0
   -7.4480   23.3800  -31.2120 C   0  0  0  0  0  0  0  0  0  0  0  0
   -4.6520   24.6240  -31.0640 N   0  0  0  0  0  0  0  0  0  0  0  0
   -3.5110   24.9260  -30.4660 N   0  0  0  0  0  0  0  0  0  0  0  0
   -1.3120   22.6430  -28.5040 C   0  0  0  0  0  0  0  0  0  0  0  0
    1.4535   23.7187  -26.8145 H   0  0  0  0  0  0  0  0  0  0  0  0
    0.5539   25.9202  -27.5503 H   0  0  0  0  0  0  0  0  0  0  0  0
   -4.0068   21.8459  -29.4217 H   0  0  0  0  0  0  0  0  0  0  0  0
   -5.2389   20.8078  -31.6926 H   0  0  0  0  0  0  0  0  0  0  0  0
   -7.3251   19.7071  -32.5056 H   0  0  0  0  0  0  0  0  0  0  0  0
   -9.4881   20.9532  -32.4913 H   0  0  0  0  0  0  0  0  0  0  0  0
   -9.5680   23.3035  -31.6607 H   0  0  0  0  0  0  0  0  0  0  0  0
   -7.4902   24.4176  -30.8492 H   0  0  0  0  0  0  0  0  0  0  0  0
   -1.8306   21.7096  -28.7682 H   0  0  0  0  0  0  0  0  0  0  0  0
  1  2  1  0
  2  3  2  0
  3  4  1  0
  4  5  2  0
  5  6  1  0
  5  7  1  0
  7  8  1  0
  8  9  1  0
  9 10  2  0
 10 11  1  0
 11 12  2  0
 12 13  1  0
 13 14  2  0
 14 15  1  0
 15 16  2  0
 10 17  1  0
 17 18  1  0
  7 19  2  0
 19  2  1  0
 18  8  2  0
 16 11  1  0
  3 20  1  0
  4 21  1  0
  9 22  1  0
 12 23  1  0
 13 24  1  0
 14 25  1  0
 15 26  1  0
 16 27  1  0
 19 28  1  0
M  CHG  3   1  -1   6  -1  17  -1
M  END
>  <UniqueID>  (8) 
8

>  <SMILES>  (8) 
[O-]c1ccc([O-])c(-c2cc(-c3ccccc3)[n-]n2)c1

>  <Energy>  (8) 
66.73564518528147

>  <Genealogy>  (8) 
[O-]c1ccc([O-])c(-c2cc(-c3ccccc3)[n-]n2)c1 (protonated)
[O-]c1ccc([O-])c(-c2cc(-c3ccccc3)[n-]n2)c1 (3D coordinates assigned)
[O-]c1ccc([O-])c(-c2cc(-c3ccccc3)[n-]n2)c1 (optimized conformer: 66.73564518528147 kcal/mol)

>  <smiles>  (8) 
Oc1ccc(O)c(-c2cc(-c3ccccc3)[nH]n2)c1

>  <score_type>  (8) 
oracle

>  <origin>  (8) 
adgpu

>  <m_score__min__energy>  (8) 
-12.039999999999999

>  <m_primary>  (8) 
energy

$$$$
8:0
     RDKit          3D

 42 44  0  0  0  0  0  0  0  0999 V2000
   -2.7520   18.7940  -26.4150 N   0  0  0  0  0  0  0  0  0  0  0  0
   -2.3940   19.7830  -26.8970 C   0  0  0  0  0  0  0  0  0  0  0  0
   -1.9470   21.0140  -27.4960 C   0  0  0  0  0  0  0  0  0  0  0  0
   -1.2470   21.9540  -26.7290 C   0  0  0  0  0  0  0  0  0  0  0  0
   -0.8020   23.1410  -27.3150 C   0  0  0  0  0  0  0  0  0  0  0  0
   -1.0660   23.3990  -28.6640 C   0  0  0  0  0  0  0  0  0  0  0  0
   -1.7880   22.4790  -29.4330 C   0  0  0  0  0  0  0  0  0  0  0  0
   -2.0400   22.7780  -30.8140 N   0  0  0  0  0  0  0  0  0  0  0  0
   -3.2260   22.4470  -31.5520 C   0  0  0  0  0  0  0  0  0  0  0  0
   -3.1290   21.6500  -32.5220 O   0  0  0  0  0  0  0  0  0  0  0  0
   -4.5260   23.0990  -31.2710 C   0  0  0  0  0  0  0  0  0  0  0  0
   -5.7090   22.3870  -31.5290 C   0  0  0  0  0  0  0  0  0  0  0  0
   -6.9600   22.9500  -31.2460 C   0  0  0  0  0  0  0  0  0  0  0  0
   -8.4360   22.0380  -31.5720 S   0  0  0  0  0  0  0  0  0  0  0  0
   -9.4770   22.9690  -32.1290 O   0  0  0  0  0  0  0  0  0  0  0  0
   -8.9640   21.4760  -30.2810 O   0  0  0  0  0  0  0  0  0  0  0  0
   -8.1630   20.7270  -32.7010 N   0  0  0  0  0  0  0  0  0  0  0  0
   -7.0350   19.8890  -32.2820 C   0  0  0  0  0  0  0  0  0  0  0  0
   -7.5870   18.6590  -31.5750 C   0  0  0  0  0  0  0  0  0  0  0  0
   -9.0730   18.6410  -31.8700 C   0  0  0  0  0  0  0  0  0  0  0  0
   -9.3290   19.8390  -32.7720 C   0  0  0  0  0  0  0  0  0  0  0  0
   -7.0310   24.2350  -30.7000 C   0  0  0  0  0  0  0  0  0  0  0  0
   -5.8630   24.9540  -30.4410 C   0  0  0  0  0  0  0  0  0  0  0  0
   -4.6100   24.4050  -30.7330 C   0  0  0  0  0  0  0  0  0  0  0  0
   -3.4790   25.1940  -30.5060 O   0  0  0  0  0  0  0  0  0  0  0  0
   -2.2070   21.2700  -28.8490 C   0  0  0  0  0  0  0  0  0  0  0  0
   -1.0478   21.7573  -25.6652 H   0  0  0  0  0  0  0  0  0  0  0  0
   -0.2431   23.8740  -26.7147 H   0  0  0  0  0  0  0  0  0  0  0  0
   -0.7040   24.3306  -29.1234 H   0  0  0  0  0  0  0  0  0  0  0  0
   -5.6524   21.3758  -31.9582 H   0  0  0  0  0  0  0  0  0  0  0  0
   -6.4533   19.5812  -33.1634 H   0  0  0  0  0  0  0  0  0  0  0  0
   -6.3775   20.4520  -31.6032 H   0  0  0  0  0  0  0  0  0  0  0  0
   -7.1089   17.7477  -31.9636 H   0  0  0  0  0  0  0  0  0  0  0  0
   -7.3909   18.6935  -30.4932 H   0  0  0  0  0  0  0  0  0  0  0  0
   -9.3507   17.7085  -32.3831 H   0  0  0  0  0  0  0  0  0  0  0  0
   -9.6703   18.6926  -30.9477 H   0  0  0  0  0  0  0  0  0  0  0  0
   -9.4756   19.4998  -33.8081 H   0  0  0  0  0  0  0  0  0  0  0  0
  -10.2329   20.3736  -32.4445 H   0  0  0  0  0  0  0  0  0  0  0  0
   -8.0107   24.6810  -30.4737 H   0  0  0  0  0  0  0  0  0  0  0  0
   -5.9284   25.9611  -30.0035 H   0  0  0  0  0  0  0  0  0  0  0  0
   -2.5460   24.9180  -30.7830 H   0  0  0  0  0  0  0  0  0  0  0  0
   -2.7402   20.5234  -29.4559 H   0  0  0  0  0  0  0  0  0  0  0  0
  1  2  3  0
  2  3  1  0
  3  4  2  0
  4  5  1  0
  5  6  2  0
  6  7  1  0
  7  8  1  0
  8  9  1  0
  9 10  2  0
  9 11  1  0
 11 12  2  0
 12 13  1  0
 13 14  1  0
 14 15  2  0
 14 16  2  0
 14 17  1  0
 17 18  1  0
 18 19  1  0
 19 20  1  0
 20 21  1  0
 13 22  2  0
 22 23  1  0
 23 24  2  0
 24 25  1  0
  7 26  2  0
 26  3  1  0
 24 11  1  0
 21 17  1  0
  4 27  1  0
  5 28  1  0
  6 29  1  0
 12 30  1  0
 18 31  1  0
 18 32  1  0
 19 33  1  0
 19 34  1  0
 20 35  1  0
 20 36  1  0
 21 37  1  0
 21 38  1  0
 22 39  1  0
 23 40  1  0
 25 41  1  0
 26 42  1  0
M  CHG  1   8  -1
M  END
>  <UniqueID>  (9) 
9

>  <SMILES>  (9) 
N#Cc1cccc([N-]C(=O)c2cc(S(=O)(=O)N3CCCC3)ccc2O)c1

>  <Energy>  (9) 
51.204478639235745

>  <Genealogy>  (9) 
N#Cc1cccc([N-]C(=O)c2cc(S(=O)(=O)N3CCCC3)ccc2O)c1 (protonated)
N#Cc1cccc([N-]C(=O)c2cc(S(=O)(=O)N3CCCC3)ccc2O)c1 (3D coordinates assigned)
N#Cc1cccc([N-]C(=O)c2cc(S(=O)(=O)N3CCCC3)ccc2O)c1 (nonaromatic ring conformer: 51.204478639235745 kcal/mol)

>  <smiles>  (9) 
N#Cc1cccc(NC(=O)c2cc(S(=O)(=O)N3CCCC3)ccc2O)c1

>  <score_type>  (9) 
oracle

>  <origin>  (9) 
adgpu

>  <m_score__min__energy>  (9) 
-10.84

>  <m_primary>  (9) 
energy

$$$$
9:0
     RDKit          3D

 31 32  0  0  0  0  0  0  0  0999 V2000
   -0.8530   26.6930  -28.1020 C   0  0  0  0  0  0  0  0  0  0  0  0
   -1.3700   25.6830  -28.9620 O   0  0  0  0  0  0  0  0  0  0  0  0
   -1.3760   24.3100  -28.6680 C   0  0  0  0  0  0  0  0  0  0  0  0
   -0.1950   23.6250  -28.3180 C   0  0  0  0  0  0  0  0  0  0  0  0
   -0.2360   22.2700  -27.9830 C   0  0  0  0  0  0  0  0  0  0  0  0
   -1.4520   21.5850  -27.9830 C   0  0  0  0  0  0  0  0  0  0  0  0
   -2.6280   22.2510  -28.3310 C   0  0  0  0  0  0  0  0  0  0  0  0
   -2.5980   23.6010  -28.7020 C   0  0  0  0  0  0  0  0  0  0  0  0
   -3.8340   24.2370  -29.0610 N   0  0  0  0  0  0  0  0  0  0  0  0
   -4.2860   24.5130  -30.3940 C   0  0  0  0  0  0  0  0  0  0  0  0
   -4.0670   25.6540  -30.8800 O   0  0  0  0  0  0  0  0  0  0  0  0
   -5.0770   23.5220  -31.1600 C   0  0  0  0  0  0  0  0  0  0  0  0
   -6.4250   23.6880  -31.2390 N   0  0  0  0  0  0  0  0  0  0  0  0
   -7.2120   22.8090  -31.9080 C   0  0  0  0  0  0  0  0  0  0  0  0
   -8.9810   23.0660  -31.9740 S   0  0  0  0  0  0  0  0  0  0  0  0
   -9.3610   21.3200  -31.6340 C   0  0  0  0  0  0  0  0  0  0  0  0
   -6.6590   21.7350  -32.5240 N   0  0  0  0  0  0  0  0  0  0  0  0
   -5.3200   21.5200  -32.4780 C   0  0  0  0  0  0  0  0  0  0  0  0
   -4.4890   22.4080  -31.7920 C   0  0  0  0  0  0  0  0  0  0  0  0
   -2.7680   22.0490  -31.6960 Cl  0  0  0  0  0  0  0  0  0  0  0  0
   -1.0053   26.3955  -27.0540 H   0  0  0  0  0  0  0  0  0  0  0  0
    0.2224   26.8227  -28.2938 H   0  0  0  0  0  0  0  0  0  0  0  0
   -1.3766   27.6412  -28.2938 H   0  0  0  0  0  0  0  0  0  0  0  0
    0.7654   24.1613  -28.3087 H   0  0  0  0  0  0  0  0  0  0  0  0
    0.6918   21.7415  -27.7186 H   0  0  0  0  0  0  0  0  0  0  0  0
   -1.4835   20.5202  -27.7087 H   0  0  0  0  0  0  0  0  0  0  0  0
   -3.5863   21.7111  -28.3137 H   0  0  0  0  0  0  0  0  0  0  0  0
   -9.3964   21.1575  -30.5467 H   0  0  0  0  0  0  0  0  0  0  0  0
  -10.3358   21.0643  -32.0749 H   0  0  0  0  0  0  0  0  0  0  0  0
   -8.5806   20.6823  -32.0749 H   0  0  0  0  0  0  0  0  0  0  0  0
   -4.8878   20.6434  -32.9827 H   0  0  0  0  0  0  0  0  0  0  0  0
  1  2  1  0
  2  3  1  0
  3  4  2  0
  4  5  1  0
  5  6  2  0
  6  7  1  0
  7  8  2  0
  8  9  1  0
  9 10  1  0
 10 11  2  0
 10 12  1  0
 12 13  2  0
 13 14  1  0
 14 15  1  0
 15 16  1  0
 14 17  2  0
 17 18  1  0
 18 19  2  0
 19 20  1  0
  8  3  1  0
 19 12  1  0
  1 21  1  0
  1 22  1  0
  1 23  1  0
  4 24  1  0
  5 25  1  0
  6 26  1  0
  7 27  1  0
 16 28  1  0
 16 29  1  0
 16 30  1  0
 18 31  1  0
M  CHG  1   9  -1
M  END
>  <UniqueID>  (10) 
10

>  <SMILES>  (10) 
COc1ccccc1[N-]C(=O)c1nc(SC)ncc1Cl

>  <Energy>  (10) 
35.03534268511209

>  <Genealogy>  (10) 
COc1ccccc1[N-]C(=O)c1nc(SC)ncc1Cl (protonated)
COc1ccccc1[N-]C(=O)c1nc(SC)ncc1Cl (3D coordinates assigned)
COc1ccccc1[N-]C(=O)c1nc(SC)ncc1Cl (optimized conformer: 35.03534268511209 kcal/mol)

>  <smiles>  (10) 
COc1ccccc1NC(=O)c1nc(SC)ncc1Cl

>  <score_type>  (10) 
oracle

>  <origin>  (10) 
adgpu

>  <m_score__min__energy>  (10) 
-8.5999999999999996

>  <m_primary>  (10) 
energy

$$$$
10:0
     RDKit          3D

 47 50  0  0  0  0  0  0  0  0999 V2000
   -0.4260   26.5690  -23.3430 C   0  0  0  0  0  0  0  0  0  0  0  0
   -0.5030   26.9660  -24.7090 O   0  0  0  0  0  0  0  0  0  0  0  0
   -1.2450   26.2910  -25.6890 C   0  0  0  0  0  0  0  0  0  0  0  0
   -2.3200   25.4410  -25.3710 C   0  0  0  0  0  0  0  0  0  0  0  0
   -3.0280   24.7890  -26.3840 C   0  0  0  0  0  0  0  0  0  0  0  0
   -2.6690   24.9650  -27.7290 C   0  0  0  0  0  0  0  0  0  0  0  0
   -3.4310   24.2870  -28.7950 C   0  0  0  0  0  0  0  0  0  0  0  0
   -4.7770   24.3950  -28.9310 N   0  0  0  0  0  0  0  0  0  0  0  0
   -5.0450   23.6630  -30.0330 C   0  0  0  0  0  0  0  0  0  0  0  0
   -6.3110   23.4530  -30.5790 C   0  0  0  0  0  0  0  0  0  0  0  0
   -6.4030   22.6480  -31.7250 C   0  0  0  0  0  0  0  0  0  0  0  0
   -5.2470   22.0740  -32.2850 C   0  0  0  0  0  0  0  0  0  0  0  0
   -3.9980   22.3180  -31.6960 C   0  0  0  0  0  0  0  0  0  0  0  0
   -3.9510   23.1190  -30.5980 N   0  0  0  0  0  0  0  0  0  0  0  0
   -2.9210   23.5140  -29.8300 C   0  0  0  0  0  0  0  0  0  0  0  0
   -1.5320   23.2810  -30.1170 N   0  0  0  0  0  0  0  0  0  0  0  0
   -0.9560   21.9660  -30.2100 C   0  0  0  0  0  0  0  0  0  0  0  0
   -0.6620   21.4100  -31.4680 C   0  0  0  0  0  0  0  0  0  0  0  0
   -0.0780   20.1480  -31.5700 C   0  0  0  0  0  0  0  0  0  0  0  0
    0.2480   19.4250  -30.4150 C   0  0  0  0  0  0  0  0  0  0  0  0
    0.8450   18.0540  -30.5260 C   0  0  0  0  0  0  0  0  0  0  0  0
   -0.0460   19.9670  -29.1560 C   0  0  0  0  0  0  0  0  0  0  0  0
   -0.6450   21.2320  -29.0410 C   0  0  0  0  0  0  0  0  0  0  0  0
   -0.9430   21.7890  -27.6750 C   0  0  0  0  0  0  0  0  0  0  0  0
   -1.6050   25.8270  -28.0490 C   0  0  0  0  0  0  0  0  0  0  0  0
   -1.2310   26.0310  -29.3730 O   0  0  0  0  0  0  0  0  0  0  0  0
   -0.8990   26.4780  -27.0320 C   0  0  0  0  0  0  0  0  0  0  0  0
   -0.5955   27.4431  -22.6970 H   0  0  0  0  0  0  0  0  0  0  0  0
   -1.1932   25.8077  -23.1386 H   0  0  0  0  0  0  0  0  0  0  0  0
    0.5702   26.1497  -23.1386 H   0  0  0  0  0  0  0  0  0  0  0  0
   -2.6047   25.2889  -24.3194 H   0  0  0  0  0  0  0  0  0  0  0  0
   -3.8725   24.1333  -26.1253 H   0  0  0  0  0  0  0  0  0  0  0  0
   -7.2071   23.9030  -30.1268 H   0  0  0  0  0  0  0  0  0  0  0  0
   -7.3840   22.4649  -32.1877 H   0  0  0  0  0  0  0  0  0  0  0  0
   -5.3224   21.4378  -33.1792 H   0  0  0  0  0  0  0  0  0  0  0  0
   -3.0812   21.8736  -32.1108 H   0  0  0  0  0  0  0  0  0  0  0  0
   -0.9350   24.0990  -30.3660 H   0  0  0  0  0  0  0  0  0  0  0  0
   -0.8953   21.9769  -32.3813 H   0  0  0  0  0  0  0  0  0  0  0  0
    0.1277   19.7182  -32.5615 H   0  0  0  0  0  0  0  0  0  0  0  0
    1.0216   17.6484  -29.5189 H   0  0  0  0  0  0  0  0  0  0  0  0
    0.1522   17.3954  -31.0703 H   0  0  0  0  0  0  0  0  0  0  0  0
    1.7991   18.1125  -31.0703 H   0  0  0  0  0  0  0  0  0  0  0  0
    0.1952   19.3950  -28.2479 H   0  0  0  0  0  0  0  0  0  0  0  0
   -0.5715   21.0947  -26.9069 H   0  0  0  0  0  0  0  0  0  0  0  0
   -0.4457   22.7634  -27.5598 H   0  0  0  0  0  0  0  0  0  0  0  0
   -2.0296   21.9160  -27.5598 H   0  0  0  0  0  0  0  0  0  0  0  0
   -0.0628   27.1442  -27.2907 H   0  0  0  0  0  0  0  0  0  0  0  0
  1  2  1  0
  2  3  1  0
  3  4  2  0
  4  5  1  0
  5  6  2  0
  6  7  1  0
  7  8  1  0
  8  9  2  0
  9 10  1  0
 10 11  2  0
 11 12  1  0
 12 13  2  0
 13 14  1  0
 14 15  1  0
 15 16  1  0
 16 17  1  0
 17 18  2  0
 18 19  1  0
 19 20  2  0
 20 21  1  0
 20 22  1  0
 22 23  2  0
 23 24  1  0
  6 25  1  0
 25 26  1  0
 25 27  2  0
 27  3  1  0
 15  7  2  0
 23 17  1  0
 14  9  1  0
  1 28  1  0
  1 29  1  0
  1 30  1  0
  4 31  1  0
  5 32  1  0
 10 33  1  0
 11 34  1  0
 12 35  1  0
 13 36  1  0
 16 37  1  0
 18 38  1  0
 19 39  1  0
 21 40  1  0
 21 41  1  0
 21 42  1  0
 22 43  1  0
 24 44  1  0
 24 45  1  0
 24 46  1  0
 27 47  1  0
M  CHG  1  26  -1
M  END
>  <UniqueID>  (11) 
11

>  <SMILES>  (11) 
COc1ccc(-c2nc3ccccn3c2Nc2ccc(C)cc2C)c([O-])c1

>  <Energy>  (11) 
98.13450899146231

>  <Genealogy>  (11) 
COc1ccc(-c2nc3ccccn3c2Nc2ccc(C)cc2C)c([O-])c1 (protonated)
COc1ccc(-c2nc3ccccn3c2Nc2ccc(C)cc2C)c([O-])c1 (3D coordinates assigned)
COc1ccc(-c2nc3ccccn3c2Nc2ccc(C)cc2C)c([O-])c1 (optimized conformer: 98.13450899146231 kcal/mol)

>  <smiles>  (11) 
COc1ccc(-c2nc3ccccn3c2Nc2ccc(C)cc2C)c(O)c1

>  <score_type>  (11) 
oracle

>  <origin>  (11) 
adgpu

>  <m_score__min__energy>  (11) 
-10.800000000000001

>  <m_primary>  (11) 
energy

$$$$
11:0
     RDKit          3D

 42 44  0  0  0  0  0  0  0  0999 V2000
    0.8349   26.7910  -23.1925 H   0  0  0  0  0  0  0  0  0  0  0  0
    0.5040   26.0480  -23.9330 C   0  0  0  0  0  0  0  0  0  0  0  0
   -0.8580   25.9000  -24.2150 C   0  0  0  0  0  0  0  0  0  0  0  0
   -1.5977   26.5303  -23.6996 H   0  0  0  0  0  0  0  0  0  0  0  0
   -1.2800   24.9510  -25.1520 C   0  0  0  0  0  0  0  0  0  0  0  0
   -2.3513   24.8435  -25.3772 H   0  0  0  0  0  0  0  0  0  0  0  0
   -0.3460   24.1370  -25.8050 C   0  0  0  0  0  0  0  0  0  0  0  0
   -0.8070   23.2040  -26.7450 O   0  0  0  0  0  0  0  0  0  0  0  0
   -1.6700   23.4990  -27.8110 C   0  0  0  0  0  0  0  0  0  0  0  0
   -1.5290   24.6710  -28.5730 C   0  0  0  0  0  0  0  0  0  0  0  0
   -0.4860   25.5620  -28.3000 O   0  0  0  0  0  0  0  0  0  0  0  0
   -0.6930   26.8270  -27.6850 C   0  0  0  0  0  0  0  0  0  0  0  0
   -0.6739   26.7105  -26.5914 H   0  0  0  0  0  0  0  0  0  0  0  0
    0.1037   27.5197  -27.9939 H   0  0  0  0  0  0  0  0  0  0  0  0
   -1.6690   27.2296  -27.9939 H   0  0  0  0  0  0  0  0  0  0  0  0
   -2.4020   24.9220  -29.5860 N   0  0  0  0  0  0  0  0  0  0  0  0
   -3.4060   24.0590  -29.8860 C   0  0  0  0  0  0  0  0  0  0  0  0
   -4.2190   24.3400  -30.8590 N   0  0  0  0  0  0  0  0  0  0  0  0
   -5.3380   23.5290  -31.2490 C   0  0  0  0  0  0  0  0  0  0  0  0
   -5.1670   22.3870  -32.0610 C   0  0  0  0  0  0  0  0  0  0  0  0
   -3.5720   21.8620  -32.5930 Cl  0  0  0  0  0  0  0  0  0  0  0  0
   -6.2770   21.6120  -32.4190 C   0  0  0  0  0  0  0  0  0  0  0  0
   -6.1448   20.7304  -33.0635 H   0  0  0  0  0  0  0  0  0  0  0  0
   -7.5510   21.9540  -31.9610 C   0  0  0  0  0  0  0  0  0  0  0  0
   -8.4210   21.3477  -32.2534 H   0  0  0  0  0  0  0  0  0  0  0  0
   -7.7220   23.0650  -31.1320 C   0  0  0  0  0  0  0  0  0  0  0  0
   -8.7252   23.3253  -30.7635 H   0  0  0  0  0  0  0  0  0  0  0  0
   -6.6200   23.8480  -30.7690 C   0  0  0  0  0  0  0  0  0  0  0  0
   -6.8700   25.2430  -29.7280 Cl  0  0  0  0  0  0  0  0  0  0  0  0
   -3.5320   22.9020  -29.1800 N   0  0  0  0  0  0  0  0  0  0  0  0
   -2.6840   22.5940  -28.1640 C   0  0  0  0  0  0  0  0  0  0  0  0
   -2.9100   21.3310  -27.3840 C   0  0  0  0  0  0  0  0  0  0  0  0
   -3.8688   20.8855  -27.6878 H   0  0  0  0  0  0  0  0  0  0  0  0
   -2.9258   21.5753  -26.3116 H   0  0  0  0  0  0  0  0  0  0  0  0
   -1.7880   20.3300  -27.6430 C   0  0  0  0  0  0  0  0  0  0  0  0
   -1.3870   19.9722  -26.6832 H   0  0  0  0  0  0  0  0  0  0  0  0
   -2.1820   19.4778  -28.2163 H   0  0  0  0  0  0  0  0  0  0  0  0
   -0.9861   20.8182  -28.2163 H   0  0  0  0  0  0  0  0  0  0  0  0
    1.0260   24.3020  -25.5290 C   0  0  0  0  0  0  0  0  0  0  0  0
    1.7695   23.6823  -26.0516 H   0  0  0  0  0  0  0  0  0  0  0  0
    1.4440   25.2520  -24.5920 C   0  0  0  0  0  0  0  0  0  0  0  0
    2.5153   25.3728  -24.3733 H   0  0  0  0  0  0  0  0  0  0  0  0
  1  2  1  0
  2  3  2  0
  3  4  1  0
  3  5  1  0
  5  6  1  0
  5  7  2  0
  7  8  1  0
  8  9  1  0
  9 10  1  0
 10 11  1  0
 11 12  1  0
 12 13  1  0
 12 14  1  0
 12 15  1  0
 10 16  2  0
 16 17  1  0
 17 18  2  0
 18 19  1  0
 19 20  2  0
 20 21  1  0
 20 22  1  0
 22 23  1  0
 22 24  2  0
 24 25  1  0
 24 26  1  0
 26 27  1  0
 26 28  2  0
 28 29  1  0
 17 30  1  0
 30 31  1  0
 31 32  1  0
 32 33  1  0
 32 34  1  0
 32 35  1  0
 35 36  1  0
 35 37  1  0
 35 38  1  0
  7 39  1  0
 39 40  1  0
 39 41  2  0
 41 42  1  0
 41  2  1  0
 31  9  2  0
 28 19  1  0
M  CHG  1  30  -1
M  END
>  <UniqueID>  (12) 
12

>  <SMILES>  (12) 
CCc1[n-]/c(=N\c2c(Cl)cccc2Cl)nc(OC)c1Oc1ccccc1

>  <Energy>  (12) 
55.23822697360727

>  <Genealogy>  (12) 
CCc1[n-]c(=Nc2c(Cl)cccc2Cl)nc(OC)c1Oc1ccccc1 (protonated)
CCc1[n-]/c(=N\c2c(Cl)cccc2Cl)nc(OC)c1Oc1ccccc1 (cis-trans isomerization)
CCc1[n-]/c(=N\c2c(Cl)cccc2Cl)nc(OC)c1Oc1ccccc1 (3D coordinates assigned)
CCc1[n-]/c(=N\c2c(Cl)cccc2Cl)nc(OC)c1Oc1ccccc1 (optimized conformer: 55.23822697360727 kcal/mol)

>  <smiles>  (12) 
CCc1[nH]c(=Nc2c(Cl)cccc2Cl)nc(OC)c1Oc1ccccc1

>  <score_type>  (12) 
oracle

>  <origin>  (12) 
adgpu

>  <m_score__min__energy>  (12) 
-9.1999999999999993

>  <m_primary>  (12) 
energy

$$$$
12:0
     RDKit          3D

 38 40  0  0  0  0  0  0  0  0999 V2000
   -6.8090   14.6010  -34.7140 H   0  0  0  0  0  0  0  0  0  0  0  0
   -7.2410   15.4290  -34.2450 N   0  0  0  0  0  0  0  0  0  0  0  0
   -6.5670   16.5090  -34.0260 C   0  0  0  0  0  0  0  0  0  0  0  0
   -5.2660   16.5940  -34.4040 N   0  0  0  0  0  0  0  0  0  0  0  0
   -4.5590   17.7260  -34.1620 C   0  0  0  0  0  0  0  0  0  0  0  0
   -3.1420   17.8360  -34.6130 C   0  0  0  0  0  0  0  0  0  0  0  0
   -2.4808   17.8873  -33.7354 H   0  0  0  0  0  0  0  0  0  0  0  0
   -2.8804   16.9555  -35.2182 H   0  0  0  0  0  0  0  0  0  0  0  0
   -3.0194   18.7464  -35.2182 H   0  0  0  0  0  0  0  0  0  0  0  0
   -5.1650   18.7830  -33.5610 N   0  0  0  0  0  0  0  0  0  0  0  0
   -6.4690   18.7110  -33.1810 C   0  0  0  0  0  0  0  0  0  0  0  0
   -7.1350   19.8630  -32.5050 C   0  0  0  0  0  0  0  0  0  0  0  0
   -8.5330   19.9940  -32.6020 C   0  0  0  0  0  0  0  0  0  0  0  0
   -9.1106   19.2545  -33.1760 H   0  0  0  0  0  0  0  0  0  0  0  0
   -9.1910   21.0480  -31.9800 C   0  0  0  0  0  0  0  0  0  0  0  0
  -10.2848   21.1391  -32.0521 H   0  0  0  0  0  0  0  0  0  0  0  0
   -8.4550   21.9860  -31.2660 C   0  0  0  0  0  0  0  0  0  0  0  0
   -8.9687   22.8252  -30.7743 H   0  0  0  0  0  0  0  0  0  0  0  0
   -7.1040   21.8720  -31.1720 N   0  0  0  0  0  0  0  0  0  0  0  0
   -6.6040   22.6370  -30.6700 H   0  0  0  0  0  0  0  0  0  0  0  0
   -6.4210   20.8340  -31.7540 C   0  0  0  0  0  0  0  0  0  0  0  0
   -5.1190   20.7550  -31.6720 N   0  0  0  0  0  0  0  0  0  0  0  0
   -4.2370   21.5690  -30.8860 C   0  0  0  0  0  0  0  0  0  0  0  0
   -4.2130   22.9530  -31.1030 C   0  0  0  0  0  0  0  0  0  0  0  0
   -4.9003   23.4046  -31.8335 H   0  0  0  0  0  0  0  0  0  0  0  0
   -3.3190   23.7630  -30.3950 C   0  0  0  0  0  0  0  0  0  0  0  0
   -3.3166   24.8507  -30.5589 H   0  0  0  0  0  0  0  0  0  0  0  0
   -2.4270   23.1930  -29.4780 C   0  0  0  0  0  0  0  0  0  0  0  0
   -1.2890   24.2090  -28.5980 S   0  0  0  0  0  0  0  0  0  0  0  0
    0.1180   23.8620  -28.9980 O   0  0  0  0  0  0  0  0  0  0  0  0
   -1.4400   23.9820  -27.1210 O   0  0  0  0  0  0  0  0  0  0  0  0
   -1.6000   25.8700  -28.9590 N   0  0  0  0  0  0  0  0  0  0  0  0
   -1.2370   26.0450  -29.9240 H   0  0  0  0  0  0  0  0  0  0  0  0
   -2.4190   21.8030  -29.2910 C   0  0  0  0  0  0  0  0  0  0  0  0
   -1.7080   21.3487  -28.5852 H   0  0  0  0  0  0  0  0  0  0  0  0
   -3.3120   20.9930  -29.9990 C   0  0  0  0  0  0  0  0  0  0  0  0
   -3.2903   19.9019  -29.8612 H   0  0  0  0  0  0  0  0  0  0  0  0
   -7.1620   17.5630  -33.4150 N   0  0  0  0  0  0  0  0  0  0  0  0
  1  2  1  0
  2  3  2  3
  3  4  1  0
  4  5  2  0
  5  6  1  0
  6  7  1  0
  6  8  1  0
  6  9  1  0
  5 10  1  0
 10 11  2  0
 11 12  1  0
 12 13  2  0
 13 14  1  0
 13 15  1  0
 15 16  1  0
 15 17  2  0
 17 18  1  0
 17 19  1  0
 19 20  1  0
 19 21  1  0
 21 22  2  0
 22 23  1  0
 23 24  2  0
 24 25  1  0
 24 26  1  0
 26 27  1  0
 26 28  2  0
 28 29  1  0
 29 30  2  0
 29 31  2  0
 29 32  1  0
 32 33  1  0
 28 34  1  0
 34 35  1  0
 34 36  2  0
 36 37  1  0
 11 38  1  0
 38  3  1  0
 21 12  1  0
 36 23  1  0
M  CHG  2  32  -1  38  -1
M  END
>  <UniqueID>  (13) 
13

>  <SMILES>  (13) 
Cc1nc(-c2ccc[nH]/c2=N\c2ccc(S([NH-])(=O)=O)cc2)[n-]c(=N)n1

>  <Energy>  (13) 
52.7595000330924

>  <Genealogy>  (13) 
Cc1nc(-c2ccc[nH]c2=Nc2ccc(S([NH-])(=O)=O)cc2)[n-]c(=N)n1 (protonated)
Cc1nc(-c2ccc[nH]/c2=N\c2ccc(S([NH-])(=O)=O)cc2)[n-]c(=N)n1 (cis-trans isomerization)
Cc1nc(-c2ccc[nH]/c2=N\c2ccc(S([NH-])(=O)=O)cc2)[n-]c(=N)n1 (3D coordinates assigned)
Cc1nc(-c2ccc[nH]/c2=N\c2ccc(S([NH-])(=O)=O)cc2)[n-]c(=N)n1 (optimized conformer: 52.7595000330924 kcal/mol)

>  <smiles>  (13) 
Cc1nc(-c2ccc[nH]c2=Nc2ccc(S(N)(=O)=O)cc2)[nH]c(=N)n1

>  <score_type>  (13) 
oracle

>  <origin>  (13) 
adgpu

>  <m_score__min__energy>  (13) 
-10.23

>  <m_primary>  (13) 
energy

$$$$
13:0
     RDKit          3D

 39 41  0  0  0  0  0  0  0  0999 V2000
   -3.8670   26.4530  -30.8400 H   0  0  0  0  0  0  0  0  0  0  0  0
   -4.3700   25.5380  -30.7880 N   0  0  0  0  0  0  0  0  0  0  0  0
   -3.8340   24.4990  -30.2330 C   0  0  0  0  0  0  0  0  0  0  0  0
   -2.5910   24.5940  -29.6870 N   0  0  0  0  0  0  0  0  0  0  0  0
   -1.9920   23.5460  -29.0650 C   0  0  0  0  0  0  0  0  0  0  0  0
   -0.9804   23.6626  -28.6489 H   0  0  0  0  0  0  0  0  0  0  0  0
   -2.6560   22.3150  -28.9500 C   0  0  0  0  0  0  0  0  0  0  0  0
   -2.0160   21.1650  -28.2610 C   0  0  0  0  0  0  0  0  0  0  0  0
   -2.7440   20.3780  -27.3510 C   0  0  0  0  0  0  0  0  0  0  0  0
   -3.7989   20.6089  -27.1418 H   0  0  0  0  0  0  0  0  0  0  0  0
   -2.1220   19.3020  -26.7140 C   0  0  0  0  0  0  0  0  0  0  0  0
   -2.6882   18.6852  -26.0005 H   0  0  0  0  0  0  0  0  0  0  0  0
   -0.8200   19.0150  -26.9730 N   0  0  0  0  0  0  0  0  0  0  0  0
   -0.0880   19.7550  -27.8470 C   0  0  0  0  0  0  0  0  0  0  0  0
    0.9648   19.4986  -28.0366 H   0  0  0  0  0  0  0  0  0  0  0  0
   -0.6710   20.8410  -28.5050 C   0  0  0  0  0  0  0  0  0  0  0  0
   -0.0786   21.4405  -29.2119 H   0  0  0  0  0  0  0  0  0  0  0  0
   -3.9420   22.1970  -29.5040 C   0  0  0  0  0  0  0  0  0  0  0  0
   -4.4882   21.2462  -29.4167 H   0  0  0  0  0  0  0  0  0  0  0  0
   -4.5340   23.2790  -30.1660 C   0  0  0  0  0  0  0  0  0  0  0  0
   -5.8840   23.1190  -30.7420 C   0  0  0  0  0  0  0  0  0  0  0  0
   -6.8590   24.0280  -30.5610 N   0  0  0  0  0  0  0  0  0  0  0  0
   -7.9450   23.5530  -31.1480 N   0  0  0  0  0  0  0  0  0  0  0  0
   -7.6220   22.3600  -31.6810 C   0  0  0  0  0  0  0  0  0  0  0  0
   -8.6450   21.4840  -32.3320 C   0  0  0  0  0  0  0  0  0  0  0  0
   -9.2386   20.9757  -31.5578 H   0  0  0  0  0  0  0  0  0  0  0  0
   -9.3085   22.0983  -32.9584 H   0  0  0  0  0  0  0  0  0  0  0  0
   -8.1402   20.7339  -32.9584 H   0  0  0  0  0  0  0  0  0  0  0  0
   -6.3250   22.0400  -31.4340 N   0  0  0  0  0  0  0  0  0  0  0  0
   -5.5700   20.8040  -31.7270 C   0  0  0  0  0  0  0  0  0  0  0  0
   -4.8033   20.6988  -30.9452 H   0  0  0  0  0  0  0  0  0  0  0  0
   -6.4620   19.5600  -31.6480 C   0  0  0  0  0  0  0  0  0  0  0  0
   -6.6442   19.3059  -30.5934 H   0  0  0  0  0  0  0  0  0  0  0  0
   -7.4209   19.7641  -32.1470 H   0  0  0  0  0  0  0  0  0  0  0  0
   -5.9611   18.7173  -32.1470 H   0  0  0  0  0  0  0  0  0  0  0  0
   -4.8360   20.8950  -33.0690 C   0  0  0  0  0  0  0  0  0  0  0  0
   -3.7590   21.0285  -32.8895 H   0  0  0  0  0  0  0  0  0  0  0  0
   -5.0005   19.9696  -33.6404 H   0  0  0  0  0  0  0  0  0  0  0  0
   -5.2216   21.7522  -33.6404 H   0  0  0  0  0  0  0  0  0  0  0  0
  1  2  1  0
  2  3  2  0
  3  4  1  0
  4  5  1  0
  5  6  1  0
  5  7  2  0
  7  8  1  0
  8  9  2  0
  9 10  1  0
  9 11  1  0
 11 12  1  0
 11 13  2  0
 13 14  1  0
 14 15  1  0
 14 16  2  0
 16 17  1  0
  7 18  1  0
 18 19  1  0
 18 20  2  0
 20 21  1  0
 21 22  2  0
 22 23  1  0
 23 24  2  0
 24 25  1  0
 25 26  1  0
 25 27  1  0
 25 28  1  0
 24 29  1  0
 29 30  1  0
 30 31  1  0
 30 32  1  0
 32 33  1  0
 32 34  1  0
 32 35  1  0
 30 36  1  0
 36 37  1  0
 36 38  1  0
 36 39  1  0
 20  3  1  0
 29 21  1  0
 16  8  1  0
M  CHG  1   4  -1
M  END
>  <UniqueID>  (14) 
14

>  <SMILES>  (14) 
[H]/N=c1\[n-]cc(-c2ccncc2)cc1-c1nnc(C)n1C(C)C

>  <Energy>  (14) 
87.57367018927536

>  <Genealogy>  (14) 
Cc1nnc(-c2cc(-c3ccncc3)c[n-]c2=N)n1C(C)C (protonated)
[H]/N=c1\[n-]cc(-c2ccncc2)cc1-c1nnc(C)n1C(C)C (cis-trans isomerization)
[H]/N=c1\[n-]cc(-c2ccncc2)cc1-c1nnc(C)n1C(C)C (3D coordinates assigned)
[H]/N=c1\[n-]cc(-c2ccncc2)cc1-c1nnc(C)n1C(C)C (optimized conformer: 87.57367018927536 kcal/mol)

>  <smiles>  (14) 
Cc1nnc(-c2cc(-c3ccncc3)c[nH]c2=N)n1C(C)C

>  <score_type>  (14) 
oracle

>  <origin>  (14) 
adgpu

>  <m_score__min__energy>  (14) 
-9.5800000000000001

>  <m_primary>  (14) 
energy

$$$$
14:0
     RDKit          3D

 47 49  0  0  0  0  0  0  0  0999 V2000
   -1.2700   27.2630  -25.6040 C   0  0  0  0  0  0  0  0  0  0  0  0
   -1.7410   26.4290  -26.6590 O   0  0  0  0  0  0  0  0  0  0  0  0
   -1.1950   25.1770  -26.9840 C   0  0  0  0  0  0  0  0  0  0  0  0
   -0.7210   24.2870  -26.0010 C   0  0  0  0  0  0  0  0  0  0  0  0
   -0.1870   23.0490  -26.3690 C   0  0  0  0  0  0  0  0  0  0  0  0
   -0.1170   22.6800  -27.7220 C   0  0  0  0  0  0  0  0  0  0  0  0
    0.4790   21.3570  -28.1090 C   0  0  0  0  0  0  0  0  0  0  0  0
   -0.5420   20.3230  -28.0330 N   0  0  0  0  0  0  0  0  0  0  0  0
   -1.8740   20.5770  -27.5750 C   0  0  0  0  0  0  0  0  0  0  0  0
   -2.3020   19.9890  -26.5450 O   0  0  0  0  0  0  0  0  0  0  0  0
   -2.7480   21.5230  -28.3080 C   0  0  0  0  0  0  0  0  0  0  0  0
   -2.8890   21.4260  -29.7060 C   0  0  0  0  0  0  0  0  0  0  0  0
   -3.7070   22.3210  -30.4000 C   0  0  0  0  0  0  0  0  0  0  0  0
   -4.3990   23.3240  -29.7110 C   0  0  0  0  0  0  0  0  0  0  0  0
   -5.4290   24.4510  -30.5860 S   0  0  0  0  0  0  0  0  0  0  0  0
   -4.6920   25.7330  -30.8610 O   0  0  0  0  0  0  0  0  0  0  0  0
   -6.6420   24.7530  -29.7510 O   0  0  0  0  0  0  0  0  0  0  0  0
   -5.9400   23.7600  -32.0930 N   0  0  0  0  0  0  0  0  0  0  0  0
   -6.7100   22.5590  -32.2340 C   0  0  0  0  0  0  0  0  0  0  0  0
   -6.1510   21.3630  -32.7180 C   0  0  0  0  0  0  0  0  0  0  0  0
   -6.9380   20.2110  -32.8280 C   0  0  0  0  0  0  0  0  0  0  0  0
   -8.2860   20.2410  -32.4540 C   0  0  0  0  0  0  0  0  0  0  0  0
   -9.0540   19.0840  -32.5620 O   0  0  0  0  0  0  0  0  0  0  0  0
   -8.8460   21.4310  -31.9750 C   0  0  0  0  0  0  0  0  0  0  0  0
   -8.0610   22.5820  -31.8680 C   0  0  0  0  0  0  0  0  0  0  0  0
   -4.2630   23.4290  -28.3210 C   0  0  0  0  0  0  0  0  0  0  0  0
   -3.4450   22.5340  -27.6240 C   0  0  0  0  0  0  0  0  0  0  0  0
   -0.5790   23.5730  -28.7010 C   0  0  0  0  0  0  0  0  0  0  0  0
   -1.1210   24.8090  -28.3350 C   0  0  0  0  0  0  0  0  0  0  0  0
   -1.5850   25.6750  -29.3160 O   0  0  0  0  0  0  0  0  0  0  0  0
   -1.5264   26.8090  -24.6354 H   0  0  0  0  0  0  0  0  0  0  0  0
   -0.1780   27.3702  -25.6811 H   0  0  0  0  0  0  0  0  0  0  0  0
   -1.7421   28.2536  -25.6811 H   0  0  0  0  0  0  0  0  0  0  0  0
   -0.7713   24.5675  -24.9386 H   0  0  0  0  0  0  0  0  0  0  0  0
    0.1805   22.3598  -25.5944 H   0  0  0  0  0  0  0  0  0  0  0  0
    0.8652   21.4158  -29.1373 H   0  0  0  0  0  0  0  0  0  0  0  0
    1.3015   21.1107  -27.4214 H   0  0  0  0  0  0  0  0  0  0  0  0
   -2.3510   20.6396  -30.2556 H   0  0  0  0  0  0  0  0  0  0  0  0
   -3.8077   22.2372  -31.4922 H   0  0  0  0  0  0  0  0  0  0  0  0
   -5.0912   21.3327  -33.0112 H   0  0  0  0  0  0  0  0  0  0  0  0
   -6.4955   19.2791  -33.2097 H   0  0  0  0  0  0  0  0  0  0  0  0
   -9.2300   18.6490  -33.4600 H   0  0  0  0  0  0  0  0  0  0  0  0
   -9.9059   21.4602  -31.6823 H   0  0  0  0  0  0  0  0  0  0  0  0
   -8.5085   23.5142  -31.4929 H   0  0  0  0  0  0  0  0  0  0  0  0
   -4.8014   24.2181  -27.7756 H   0  0  0  0  0  0  0  0  0  0  0  0
   -3.3463   22.6219  -26.5320 H   0  0  0  0  0  0  0  0  0  0  0  0
   -0.5143   23.2986  -29.7643 H   0  0  0  0  0  0  0  0  0  0  0  0
  1  2  1  0
  2  3  1  0
  3  4  2  0
  4  5  1  0
  5  6  2  0
  6  7  1  0
  7  8  1  0
  8  9  1  0
  9 10  2  0
  9 11  1  0
 11 12  2  0
 12 13  1  0
 13 14  2  0
 14 15  1  0
 15 16  2  0
 15 17  2  0
 15 18  1  0
 18 19  1  0
 19 20  2  0
 20 21  1  0
 21 22  2  0
 22 23  1  0
 22 24  1  0
 24 25  2  0
 14 26  1  0
 26 27  2  0
  6 28  1  0
 28 29  2  0
 29 30  1  0
 29  3  1  0
 27 11  1  0
 25 19  1  0
  1 31  1  0
  1 32  1  0
  1 33  1  0
  4 34  1  0
  5 35  1  0
  7 36  1  0
  7 37  1  0
 12 38  1  0
 13 39  1  0
 20 40  1  0
 21 41  1  0
 23 42  1  0
 24 43  1  0
 25 44  1  0
 26 45  1  0
 27 46  1  0
 28 47  1  0
M  CHG  3   8  -1  18  -1  30  -1
M  END
>  <UniqueID>  (15) 
15

>  <SMILES>  (15) 
COc1ccc(C[N-]C(=O)c2ccc(S(=O)(=O)[N-]c3ccc(O)cc3)cc2)cc1[O-]

>  <Energy>  (15) 
50.16044785962894

>  <Genealogy>  (15) 
COc1ccc(C[N-]C(=O)c2ccc(S(=O)(=O)[N-]c3ccc(O)cc3)cc2)cc1[O-] (protonated)
COc1ccc(C[N-]C(=O)c2ccc(S(=O)(=O)[N-]c3ccc(O)cc3)cc2)cc1[O-] (3D coordinates assigned)
COc1ccc(C[N-]C(=O)c2ccc(S(=O)(=O)[N-]c3ccc(O)cc3)cc2)cc1[O-] (optimized conformer: 50.16044785962894 kcal/mol)

>  <smiles>  (15) 
COc1ccc(CNC(=O)c2ccc(S(=O)(=O)Nc3ccc(O)cc3)cc2)cc1O

>  <score_type>  (15) 
oracle

>  <origin>  (15) 
adgpu

>  <m_score__min__energy>  (15) 
-12.34

>  <m_primary>  (15) 
energy

$$$$
15:0
     RDKit          3D

 32 34  0  0  0  0  0  0  0  0999 V2000
   -8.7670   21.4380  -30.3650 O   0  0  0  0  0  0  0  0  0  0  0  0
   -7.9230   22.0120  -31.1040 C   0  0  0  0  0  0  0  0  0  0  0  0
   -7.2320   21.2300  -32.1830 C   0  0  0  0  0  0  0  0  0  0  0  0
   -6.8250   19.8950  -31.7000 N   0  0  0  0  0  0  0  0  0  0  0  0
   -7.3820   18.8660  -32.5450 C   0  0  0  0  0  0  0  0  0  0  0  0
   -8.6190   18.6410  -32.6410 O   0  0  0  0  0  0  0  0  0  0  0  0
   -6.3580   18.0960  -33.2330 C   0  0  0  0  0  0  0  0  0  0  0  0
   -6.4580   17.0330  -34.1310 C   0  0  0  0  0  0  0  0  0  0  0  0
   -5.2650   16.4740  -34.6260 C   0  0  0  0  0  0  0  0  0  0  0  0
   -4.0140   16.9820  -34.2100 C   0  0  0  0  0  0  0  0  0  0  0  0
   -3.9480   18.0510  -33.2990 C   0  0  0  0  0  0  0  0  0  0  0  0
   -5.1480   18.5860  -32.8320 C   0  0  0  0  0  0  0  0  0  0  0  0
   -5.4110   19.6640  -31.8920 C   0  0  0  0  0  0  0  0  0  0  0  0
   -4.5140   20.2950  -31.2710 O   0  0  0  0  0  0  0  0  0  0  0  0
   -7.5460   23.3790  -30.8760 N   0  0  0  0  0  0  0  0  0  0  0  0
   -6.3490   23.8870  -30.7570 C   0  0  0  0  0  0  0  0  0  0  0  0
   -6.2290   25.2770  -30.6320 C   0  0  0  0  0  0  0  0  0  0  0  0
   -4.9670   25.8600  -30.4960 C   0  0  0  0  0  0  0  0  0  0  0  0
   -3.8560   25.0790  -30.4690 N   0  0  0  0  0  0  0  0  0  0  0  0
   -3.9350   23.7260  -30.5690 C   0  0  0  0  0  0  0  0  0  0  0  0
   -5.1770   23.1020  -30.7080 C   0  0  0  0  0  0  0  0  0  0  0  0
   -7.9185   21.1094  -33.0340 H   0  0  0  0  0  0  0  0  0  0  0  0
   -6.3291   21.7799  -32.4869 H   0  0  0  0  0  0  0  0  0  0  0  0
   -7.0990   19.7260  -30.7040 H   0  0  0  0  0  0  0  0  0  0  0  0
   -7.4386   16.6439  -34.4424 H   0  0  0  0  0  0  0  0  0  0  0  0
   -5.3067   15.6381  -35.3398 H   0  0  0  0  0  0  0  0  0  0  0  0
   -3.0863   16.5387  -34.6010 H   0  0  0  0  0  0  0  0  0  0  0  0
   -2.9799   18.4527  -32.9651 H   0  0  0  0  0  0  0  0  0  0  0  0
   -7.1289   25.9096  -30.6409 H   0  0  0  0  0  0  0  0  0  0  0  0
   -4.8728   26.9526  -30.4107 H   0  0  0  0  0  0  0  0  0  0  0  0
   -3.0175   23.1200  -30.5404 H   0  0  0  0  0  0  0  0  0  0  0  0
   -5.2412   22.0062  -30.7788 H   0  0  0  0  0  0  0  0  0  0  0  0
  1  2  2  0
  2  3  1  0
  3  4  1  0
  4  5  1  0
  5  6  2  0
  5  7  1  0
  7  8  2  0
  8  9  1  0
  9 10  2  0
 10 11  1  0
 11 12  2  0
 12 13  1  0
 13 14  2  0
  2 15  1  0
 15 16  2  3
 16 17  1  0
 17 18  2  0
 18 19  1  0
 19 20  1  0
 20 21  2  0
 13  4  1  0
 21 16  1  0
 12  7  1  0
  3 22  1  0
  3 23  1  0
  4 24  1  0
  8 25  1  0
  9 26  1  0
 10 27  1  0
 11 28  1  0
 17 29  1  0
 18 30  1  0
 20 31  1  0
 21 32  1  0
M  CHG  2   4   1  19  -1
M  END
>  <UniqueID>  (16) 
16

>  <SMILES>  (16) 
O=C(C[NH+]1C(=O)c2ccccc2C1=O)N=c1cc[n-]cc1

>  <Energy>  (16) 
67.84724444836836

>  <Genealogy>  (16) 
O=C(C[NH+]1C(=O)c2ccccc2C1=O)N=c1cc[n-]cc1 (protonated)
O=C(C[NH+]1C(=O)c2ccccc2C1=O)N=c1cc[n-]cc1 (3D coordinates assigned)
O=C(C[NH+]1C(=O)c2ccccc2C1=O)N=c1cc[n-]cc1 (nonaromatic ring conformer: 67.84724444836836 kcal/mol)

>  <smiles>  (16) 
O=C(CN1C(=O)c2ccccc2C1=O)N=c1cc[nH]cc1

>  <score_type>  (16) 
oracle

>  <origin>  (16) 
adgpu

>  <m_score__min__energy>  (16) 
-9.1699999999999999

>  <m_primary>  (16) 
energy

$$$$
16:0
     RDKit          3D

 53 55  0  0  0  0  0  0  0  0999 V2000
   -0.5360   25.8580  -36.8070 C   0  0  0  0  0  0  0  0  0  0  0  0
    0.9630   25.6680  -36.6010 C   0  0  0  0  0  0  0  0  0  0  0  0
    1.2610   24.2800  -36.0990 C   0  0  0  0  0  0  0  0  0  0  0  0
    2.5890   23.8630  -35.9180 C   0  0  0  0  0  0  0  0  0  0  0  0
    2.8660   22.5600  -35.4990 C   0  0  0  0  0  0  0  0  0  0  0  0
    1.8220   21.6640  -35.2580 C   0  0  0  0  0  0  0  0  0  0  0  0
    0.4880   22.0640  -35.4250 C   0  0  0  0  0  0  0  0  0  0  0  0
   -0.5680   21.1140  -35.1990 N   0  0  0  0  0  0  0  0  0  0  0  0
   -0.6950   20.3340  -33.9980 C   0  0  0  0  0  0  0  0  0  0  0  0
    0.3170   20.1360  -33.2710 O   0  0  0  0  0  0  0  0  0  0  0  0
   -1.9920   19.7170  -33.6250 C   0  0  0  0  0  0  0  0  0  0  0  0
   -2.3920   18.5020  -34.2090 C   0  0  0  0  0  0  0  0  0  0  0  0
   -3.6090   17.9110  -33.8580 C   0  0  0  0  0  0  0  0  0  0  0  0
   -4.4450   18.5230  -32.9170 C   0  0  0  0  0  0  0  0  0  0  0  0
   -5.9620   17.7530  -32.4590 S   0  0  0  0  0  0  0  0  0  0  0  0
   -5.9960   16.3420  -32.9790 O   0  0  0  0  0  0  0  0  0  0  0  0
   -6.0490   17.7140  -30.9590 O   0  0  0  0  0  0  0  0  0  0  0  0
   -7.3100   18.6590  -33.1030 N   0  0  0  0  0  0  0  0  0  0  0  0
   -8.4650   18.5660  -32.1800 C   0  0  0  0  0  0  0  0  0  0  0  0
   -9.4910   19.6730  -32.4490 C   0  0  0  0  0  0  0  0  0  0  0  0
   -8.8770   21.0760  -32.2190 C   0  0  0  0  0  0  0  0  0  0  0  0
   -9.2600   21.6350  -30.8440 C   0  0  0  0  0  0  0  0  0  0  0  0
   -7.3390   21.0730  -32.3890 C   0  0  0  0  0  0  0  0  0  0  0  0
   -6.9050   20.0460  -33.4440 C   0  0  0  0  0  0  0  0  0  0  0  0
   -4.0460   19.7260  -32.3170 C   0  0  0  0  0  0  0  0  0  0  0  0
   -2.8300   20.3180  -32.6680 C   0  0  0  0  0  0  0  0  0  0  0  0
    0.2150   23.3710  -35.8680 C   0  0  0  0  0  0  0  0  0  0  0  0
   -1.0354   25.9213  -35.8289 H   0  0  0  0  0  0  0  0  0  0  0  0
   -0.7140   26.7859  -37.3703 H   0  0  0  0  0  0  0  0  0  0  0  0
   -0.9399   25.0039  -37.3703 H   0  0  0  0  0  0  0  0  0  0  0  0
    1.4815   25.8245  -37.5584 H   0  0  0  0  0  0  0  0  0  0  0  0
    1.3118   26.3961  -35.8538 H   0  0  0  0  0  0  0  0  0  0  0  0
    3.4145   24.5651  -36.1069 H   0  0  0  0  0  0  0  0  0  0  0  0
    3.9086   22.2386  -35.3585 H   0  0  0  0  0  0  0  0  0  0  0  0
    2.0476   20.6370  -34.9348 H   0  0  0  0  0  0  0  0  0  0  0  0
   -1.2080   20.8970  -35.9950 H   0  0  0  0  0  0  0  0  0  0  0  0
   -1.7414   18.0124  -34.9486 H   0  0  0  0  0  0  0  0  0  0  0  0
   -3.9110   16.9611  -34.3232 H   0  0  0  0  0  0  0  0  0  0  0  0
   -8.9511   17.5883  -32.3134 H   0  0  0  0  0  0  0  0  0  0  0  0
   -8.0942   18.6824  -31.1510 H   0  0  0  0  0  0  0  0  0  0  0  0
   -9.8340   19.5983  -33.4915 H   0  0  0  0  0  0  0  0  0  0  0  0
  -10.3326   19.5435  -31.7527 H   0  0  0  0  0  0  0  0  0  0  0  0
   -9.2983   21.7344  -32.9930 H   0  0  0  0  0  0  0  0  0  0  0  0
   -8.8258   21.0013  -30.0567 H   0  0  0  0  0  0  0  0  0  0  0  0
   -8.8736   22.6601  -30.7443 H   0  0  0  0  0  0  0  0  0  0  0  0
  -10.3554   21.6448  -30.7443 H   0  0  0  0  0  0  0  0  0  0  0  0
   -7.0099   22.0741  -32.7045 H   0  0  0  0  0  0  0  0  0  0  0  0
   -6.8802   20.8025  -31.4265 H   0  0  0  0  0  0  0  0  0  0  0  0
   -7.3618   20.3180  -34.4070 H   0  0  0  0  0  0  0  0  0  0  0  0
   -5.8062   20.0662  -33.4910 H   0  0  0  0  0  0  0  0  0  0  0  0
   -4.6927   20.2054  -31.5673 H   0  0  0  0  0  0  0  0  0  0  0  0
   -2.5254   21.2618  -32.1921 H   0  0  0  0  0  0  0  0  0  0  0  0
   -0.8263   23.6839  -36.0349 H   0  0  0  0  0  0  0  0  0  0  0  0
  1  2  1  0
  2  3  1  0
  3  4  2  0
  4  5  1  0
  5  6  2  0
  6  7  1  0
  7  8  1  0
  8  9  1  0
  9 10  2  0
  9 11  1  0
 11 12  2  0
 12 13  1  0
 13 14  2  0
 14 15  1  0
 15 16  2  0
 15 17  2  0
 15 18  1  0
 18 19  1  0
 19 20  1  0
 20 21  1  0
 21 22  1  0
 21 23  1  0
 23 24  1  0
 14 25  1  0
 25 26  2  0
  7 27  2  0
 27  3  1  0
 26 11  1  0
 24 18  1  0
  1 28  1  0
  1 29  1  0
  1 30  1  0
  2 31  1  0
  2 32  1  0
  4 33  1  0
  5 34  1  0
  6 35  1  0
  8 36  1  0
 12 37  1  0
 13 38  1  0
 19 39  1  0
 19 40  1  0
 20 41  1  0
 20 42  1  0
 21 43  1  0
 22 44  1  0
 22 45  1  0
 22 46  1  0
 23 47  1  0
 23 48  1  0
 24 49  1  0
 24 50  1  0
 25 51  1  0
 26 52  1  0
 27 53  1  0
M  END
>  <UniqueID>  (17) 
17

>  <SMILES>  (17) 
CCc1cccc(NC(=O)c2ccc(S(=O)(=O)N3CCC(C)CC3)cc2)c1

>  <Energy>  (17) 
60.02564543826283

>  <Genealogy>  (17) 
CCc1cccc(NC(=O)c2ccc(S(=O)(=O)N3CCC(C)CC3)cc2)c1 (3D coordinates assigned)
CCc1cccc(NC(=O)c2ccc(S(=O)(=O)N3CCC(C)CC3)cc2)c1 (nonaromatic ring conformer: 60.02564543826283 kcal/mol)

>  <smiles>  (17) 
CCc1cccc(NC(=O)c2ccc(S(=O)(=O)N3CCC(C)CC3)cc2)c1

>  <score_type>  (17) 
oracle

>  <origin>  (17) 
adgpu

>  <m_score__min__energy>  (17) 
-10.4

>  <m_primary>  (17) 
energy

$$$$
17:0
     RDKit          3D

 40 41  0  0  1  0  0  0  0  0999 V2000
   -6.2670   17.7260  -31.5440 C   0  0  0  0  0  0  0  0  0  0  0  0
   -7.0770   18.1150  -32.7360 C   0  0  0  0  0  0  0  0  0  0  0  0
   -8.2280   19.0000  -32.3870 C   0  0  0  0  0  0  0  0  0  0  0  0
   -9.1100   18.5270  -31.6470 O   0  0  0  0  0  0  0  0  0  0  0  0
   -8.2300   20.2710  -32.9090 O   0  0  0  0  0  0  0  0  0  0  0  0
   -7.5090   21.3320  -32.3750 C   0  0  0  0  0  0  0  0  0  0  0  0
   -8.0820   22.3280  -31.6110 C   0  0  0  0  0  0  0  0  0  0  0  0
   -7.2580   23.3280  -31.1380 C   0  0  0  0  0  0  0  0  0  0  0  0
   -5.8990   23.3440  -31.4150 C   0  0  0  0  0  0  0  0  0  0  0  0
   -5.0650   24.3960  -30.9110 N   0  0  0  0  0  0  0  0  0  0  0  0
   -4.0550   24.0820  -30.1870 C   0  0  0  0  0  0  0  0  0  0  0  0
   -3.7710   22.8050  -29.9010 N   0  0  0  0  0  0  0  0  0  0  0  0
   -2.7080   22.4720  -29.1390 C   0  0  0  0  0  0  0  0  0  0  0  0
   -1.8790   23.4480  -28.6340 C   0  0  0  0  0  0  0  0  0  0  0  0
   -0.4960   23.0810  -27.6490 Cl  0  0  0  0  0  0  0  0  0  0  0  0
   -2.1850   24.7530  -28.9380 C   0  0  0  0  0  0  0  0  0  0  0  0
   -1.4450   25.6800  -28.4900 N   0  0  0  0  0  0  0  0  0  0  0  0
   -0.2860   25.5510  -27.6770 C   0  0  0  0  0  0  0  0  0  0  0  0
   -3.2510   25.0500  -29.6990 N   0  0  0  0  0  0  0  0  0  0  0  0
   -5.3140   22.3370  -32.1900 C   0  0  0  0  0  0  0  0  0  0  0  0
   -3.9510   22.3670  -32.4580 O   0  0  0  0  0  0  0  0  0  0  0  0
   -3.3770   21.2030  -33.0280 C   0  0  0  0  0  0  0  0  0  0  0  0
   -6.1450   21.3400  -32.6590 C   0  0  0  0  0  0  0  0  0  0  0  0
   -6.8146   17.9890  -30.6269 H   0  0  0  0  0  0  0  0  0  0  0  0
   -6.0836   16.6416  -31.5633 H   0  0  0  0  0  0  0  0  0  0  0  0
   -5.3060   18.2608  -31.5633 H   0  0  0  0  0  0  0  0  0  0  0  0
   -6.4261   18.6474  -33.4452 H   0  0  0  0  0  0  0  0  0  0  0  0
   -7.4876   17.1932  -33.1738 H   0  0  0  0  0  0  0  0  0  0  0  0
   -9.1589   22.3246  -31.3868 H   0  0  0  0  0  0  0  0  0  0  0  0
   -7.6897   24.1333  -30.5255 H   0  0  0  0  0  0  0  0  0  0  0  0
   -4.3550   22.0140  -30.2490 H   0  0  0  0  0  0  0  0  0  0  0  0
   -2.5027   21.4137  -28.9201 H   0  0  0  0  0  0  0  0  0  0  0  0
   -0.5765   25.5833  -26.6166 H   0  0  0  0  0  0  0  0  0  0  0  0
    0.2083   24.5923  -27.8927 H   0  0  0  0  0  0  0  0  0  0  0  0
    0.4070   26.3776  -27.8927 H   0  0  0  0  0  0  0  0  0  0  0  0
   -3.4910   26.0490  -29.9350 H   0  0  0  0  0  0  0  0  0  0  0  0
   -3.0441   20.5279  -32.2259 H   0  0  0  0  0  0  0  0  0  0  0  0
   -4.1263   20.6917  -33.6502 H   0  0  0  0  0  0  0  0  0  0  0  0
   -2.5152   21.4861  -33.6502 H   0  0  0  0  0  0  0  0  0  0  0  0
   -5.7200   20.5317  -33.2722 H   0  0  0  0  0  0  0  0  0  0  0  0
  1  2  1  0
  2  3  1  0
  3  4  2  0
  3  5  1  0
  5  6  1  0
  6  7  2  0
  7  8  1  0
  8  9  2  0
  9 10  1  0
 10 11  2  0
 11 12  1  0
 12 13  1  0
 13 14  2  0
 14 15  1  0
 14 16  1  0
 16 17  2  0
 17 18  1  0
 16 19  1  0
  9 20  1  0
 20 21  1  0
 21 22  1  0
 20 23  2  0
 23  6  1  0
 19 11  1  0
  1 24  1  0
  1 25  1  0
  1 26  1  0
  2 27  1  0
  2 28  1  0
  7 29  1  0
  8 30  1  0
 12 31  1  0
 13 32  1  0
 18 33  1  0
 18 34  1  0
 18 35  1  0
 19 36  1  0
 22 37  1  0
 22 38  1  0
 22 39  1  0
 23 40  1  0
M  END
>  <smiles>  (18) 
CCC(=O)Oc1ccc(N=c2[nH]cc(Cl)c(=NC)[nH]2)c(OC)c1

>  <score_type>  (18) 
oracle

>  <origin>  (18) 
adgpu

>  <m_score__min__energy>  (18) 
-8.2699999999999996

>  <m_primary>  (18) 
energy

$$$$
18:0
     RDKit          3D

 48 51  0  0  0  0  0  0  0  0999 V2000
   -1.8190   25.2630  -29.3270 O   0  0  0  0  0  0  0  0  0  0  0  0
   -2.7910   24.5480  -29.6860 C   0  0  0  0  0  0  0  0  0  0  0  0
   -3.8350   25.1530  -30.4610 N   0  0  0  0  0  0  0  0  0  0  0  0
   -5.2410   25.2170  -30.0770 C   0  0  0  0  0  0  0  0  0  0  0  0
   -6.1210   24.7530  -31.2400 C   0  0  1  0  0  0  0  0  0  0  0  0
   -5.4880   23.5850  -32.0530 C   0  0  0  0  0  0  0  0  0  0  0  0
   -6.4330   22.4780  -31.9430 N   0  0  0  0  0  0  0  0  0  0  0  0
   -6.2420   21.1560  -32.4820 C   0  0  0  0  0  0  0  0  0  0  0  0
   -4.9830   20.7430  -32.9520 C   0  0  0  0  0  0  0  0  0  0  0  0
   -4.8060   19.4590  -33.4750 C   0  0  0  0  0  0  0  0  0  0  0  0
   -5.8860   18.5650  -33.5460 C   0  0  0  0  0  0  0  0  0  0  0  0
   -5.6950   17.2330  -34.0590 N   0  0  0  0  0  0  0  0  0  0  0  0
   -6.7360   16.2170  -33.8690 C   0  0  0  0  0  0  0  0  0  0  0  0
   -6.1700   14.8100  -34.1140 C   0  0  0  0  0  0  0  0  0  0  0  0
   -4.8080   14.7060  -33.5750 N   0  0  0  0  0  0  0  0  0  0  0  0
   -3.8570   15.5860  -34.2830 C   0  0  0  0  0  0  0  0  0  0  0  0
   -4.4920   16.8860  -34.8230 C   0  0  0  0  0  0  0  0  0  0  0  0
   -7.1460   18.9760  -33.0850 C   0  0  0  0  0  0  0  0  0  0  0  0
   -7.3240   20.2640  -32.5680 C   0  0  0  0  0  0  0  0  0  0  0  0
   -7.5190   22.9400  -31.1600 C   0  0  0  0  0  0  0  0  0  0  0  0
   -8.5570   22.2670  -30.9230 O   0  0  0  0  0  0  0  0  0  0  0  0
   -7.3500   24.2390  -30.7370 O   0  0  0  0  0  0  0  0  0  0  0  0
   -2.7840   23.1150  -29.3380 C   0  0  0  0  0  0  0  0  0  0  0  0
   -3.0190   22.0450  -30.1970 C   0  0  0  0  0  0  0  0  0  0  0  0
   -3.0060   20.8030  -29.5500 C   0  0  0  0  0  0  0  0  0  0  0  0
   -2.7760   20.9000  -28.1870 C   0  0  0  0  0  0  0  0  0  0  0  0
   -2.7250   19.5630  -27.0600 Cl  0  0  0  0  0  0  0  0  0  0  0  0
   -2.5970   22.5180  -27.7750 S   0  0  0  0  0  0  0  0  0  0  0  0
   -5.4116   24.5647  -29.2079 H   0  0  0  0  0  0  0  0  0  0  0  0
   -5.4990   26.2549  -29.8197 H   0  0  0  0  0  0  0  0  0  0  0  0
   -6.2501   25.6345  -31.8852 H   0  0  0  0  0  0  0  0  0  0  0  0
   -5.3570   23.8758  -33.1058 H   0  0  0  0  0  0  0  0  0  0  0  0
   -4.4933   23.3127  -31.6703 H   0  0  0  0  0  0  0  0  0  0  0  0
   -4.1301   21.4362  -32.9078 H   0  0  0  0  0  0  0  0  0  0  0  0
   -3.8139   19.1469  -33.8333 H   0  0  0  0  0  0  0  0  0  0  0  0
   -7.1177   16.2788  -32.8392 H   0  0  0  0  0  0  0  0  0  0  0  0
   -7.5478   16.4026  -34.5877 H   0  0  0  0  0  0  0  0  0  0  0  0
   -6.8138   14.0687  -33.6180 H   0  0  0  0  0  0  0  0  0  0  0  0
   -6.1409   14.6203  -35.1971 H   0  0  0  0  0  0  0  0  0  0  0  0
   -4.8280   14.9750  -32.5640 H   0  0  0  0  0  0  0  0  0  0  0  0
   -3.0511   15.8578  -33.5854 H   0  0  0  0  0  0  0  0  0  0  0  0
   -3.4891   15.0240  -35.1541 H   0  0  0  0  0  0  0  0  0  0  0  0
   -3.7628   17.7054  -34.7398 H   0  0  0  0  0  0  0  0  0  0  0  0
   -4.7742   16.7307  -35.8748 H   0  0  0  0  0  0  0  0  0  0  0  0
   -7.9983   18.2820  -33.1303 H   0  0  0  0  0  0  0  0  0  0  0  0
   -8.3202   20.5810  -32.2258 H   0  0  0  0  0  0  0  0  0  0  0  0
   -3.1971   22.1632  -31.2760 H   0  0  0  0  0  0  0  0  0  0  0  0
   -3.1626   19.8470  -30.0712 H   0  0  0  0  0  0  0  0  0  0  0  0
  1  2  2  0
  2  3  1  0
  3  4  1  0
  4  5  1  0
  5  6  1  0
  6  7  1  0
  7  8  1  0
  8  9  2  0
  9 10  1  0
 10 11  2  0
 11 12  1  0
 12 13  1  0
 13 14  1  0
 14 15  1  0
 15 16  1  0
 16 17  1  0
 11 18  1  0
 18 19  2  0
  7 20  1  0
 20 21  2  0
 20 22  1  0
  2 23  1  0
 23 24  2  0
 24 25  1  0
 25 26  2  0
 26 27  1  0
 26 28  1  0
 22  5  1  0
 28 23  1  0
 19  8  1  0
 17 12  1  0
  4 29  1  0
  4 30  1  0
  5 31  1  6
  6 32  1  0
  6 33  1  0
  9 34  1  0
 10 35  1  0
 13 36  1  0
 13 37  1  0
 14 38  1  0
 14 39  1  0
 15 40  1  0
 16 41  1  0
 16 42  1  0
 17 43  1  0
 17 44  1  0
 18 45  1  0
 19 46  1  0
 24 47  1  0
 25 48  1  0
M  CHG  1   3  -1
M  END
>  <UniqueID>  (19) 
18

>  <SMILES>  (19) 
O=C([N-]C[C@H]1CN(c2ccc(N3CCNCC3)cc2)C(=O)O1)c1ccc(Cl)s1

>  <Energy>  (19) 
104.9150807809816

>  <Genealogy>  (19) 
O=C([N-]CC1CN(c2ccc(N3CCNCC3)cc2)C(=O)O1)c1ccc(Cl)s1 (protonated)
O=C([N-]C[C@H]1CN(c2ccc(N3CCNCC3)cc2)C(=O)O1)c1ccc(Cl)s1 (chirality)
O=C([N-]C[C@H]1CN(c2ccc(N3CCNCC3)cc2)C(=O)O1)c1ccc(Cl)s1 (3D coordinates assigned)
O=C([N-]C[C@H]1CN(c2ccc(N3CCNCC3)cc2)C(=O)O1)c1ccc(Cl)s1 (nonaromatic ring conformer: 104.9150807809816 kcal/mol)

>  <smiles>  (19) 
O=C(NCC1CN(c2ccc(N3CCNCC3)cc2)C(=O)O1)c1ccc(Cl)s1

>  <score_type>  (19) 
oracle

>  <origin>  (19) 
adgpu

>  <m_score__min__energy>  (19) 
-10.640000000000001

>  <m_primary>  (19) 
energy

$$$$
19:0
     RDKit          3D

 56 60  0  0  0  0  0  0  0  0999 V2000
   -1.2060   22.9100  -29.5690 O   0  0  0  0  0  0  0  0  0  0  0  0
   -2.1770   23.6820  -29.7970 C   0  0  0  0  0  0  0  0  0  0  0  0
   -2.1460   25.0410  -29.3400 N   0  0  0  0  0  0  0  0  0  0  0  0
   -1.5910   25.5090  -28.1050 C   0  0  0  0  0  0  0  0  0  0  0  0
   -1.9620   24.8680  -26.9160 C   0  0  0  0  0  0  0  0  0  0  0  0
   -1.5070   25.3430  -25.6820 C   0  0  0  0  0  0  0  0  0  0  0  0
   -0.6840   26.4750  -25.6220 C   0  0  0  0  0  0  0  0  0  0  0  0
   -0.2100   27.1290  -24.0530 S   0  0  0  0  0  0  0  0  0  0  0  0
   -0.0910   28.6230  -24.1690 O   0  0  0  0  0  0  0  0  0  0  0  0
   -1.2630   26.8080  -23.0250 O   0  0  0  0  0  0  0  0  0  0  0  0
    1.3320   26.4540  -23.5650 N   0  0  0  0  0  0  0  0  0  0  0  0
    1.6580   25.2570  -24.3550 C   0  0  0  0  0  0  0  0  0  0  0  0
    2.5440   25.6920  -25.5150 C   0  0  0  0  0  0  0  0  0  0  0  0
    3.0150   27.0960  -25.1690 C   0  0  0  0  0  0  0  0  0  0  0  0
    2.4310   27.4010  -23.7990 C   0  0  0  0  0  0  0  0  0  0  0  0
   -0.3120   27.1230  -26.8080 C   0  0  0  0  0  0  0  0  0  0  0  0
   -0.7670   26.6480  -28.0430 C   0  0  0  0  0  0  0  0  0  0  0  0
   -3.3500   23.1980  -30.5600 C   0  0  0  0  0  0  0  0  0  0  0  0
   -3.1750   22.0770  -31.3860 C   0  0  0  0  0  0  0  0  0  0  0  0
   -4.2650   21.5170  -32.0690 C   0  0  0  0  0  0  0  0  0  0  0  0
   -4.1100   20.3200  -32.9350 C   0  0  0  0  0  0  0  0  0  0  0  0
   -2.8220   19.8540  -33.2590 C   0  0  0  0  0  0  0  0  0  0  0  0
   -2.6590   18.7280  -34.0730 C   0  0  0  0  0  0  0  0  0  0  0  0
   -3.7770   18.0630  -34.5800 C   0  0  0  0  0  0  0  0  0  0  0  0
   -5.0620   18.5200  -34.2730 C   0  0  0  0  0  0  0  0  0  0  0  0
   -5.2300   19.6450  -33.4600 C   0  0  0  0  0  0  0  0  0  0  0  0
   -5.4920   22.0860  -31.9370 N   0  0  0  0  0  0  0  0  0  0  0  0
   -5.7100   23.1810  -31.1660 C   0  0  0  0  0  0  0  0  0  0  0  0
   -7.0040   23.7090  -31.0760 C   0  0  0  0  0  0  0  0  0  0  0  0
   -7.2440   24.8480  -30.3070 C   0  0  0  0  0  0  0  0  0  0  0  0
   -6.1910   25.4760  -29.6390 C   0  0  0  0  0  0  0  0  0  0  0  0
   -4.8940   24.9570  -29.7170 C   0  0  0  0  0  0  0  0  0  0  0  0
   -4.6390   23.7840  -30.4600 C   0  0  0  0  0  0  0  0  0  0  0  0
   -2.6161   23.9844  -26.9533 H   0  0  0  0  0  0  0  0  0  0  0  0
   -1.7963   24.8260  -24.7552 H   0  0  0  0  0  0  0  0  0  0  0  0
    1.2740   26.2090  -22.5480 H   0  0  0  0  0  0  0  0  0  0  0  0
    2.1933   24.5290  -23.7277 H   0  0  0  0  0  0  0  0  0  0  0  0
    0.7394   24.7822  -24.7301 H   0  0  0  0  0  0  0  0  0  0  0  0
    3.4036   25.0132  -25.6166 H   0  0  0  0  0  0  0  0  0  0  0  0
    2.0008   25.6701  -26.4712 H   0  0  0  0  0  0  0  0  0  0  0  0
    4.1138   27.1341  -25.1345 H   0  0  0  0  0  0  0  0  0  0  0  0
    2.6896   27.8298  -25.9211 H   0  0  0  0  0  0  0  0  0  0  0  0
    3.2036   27.2778  -23.0258 H   0  0  0  0  0  0  0  0  0  0  0  0
    2.0643   28.4372  -23.7567 H   0  0  0  0  0  0  0  0  0  0  0  0
    0.3399   28.0081  -26.7677 H   0  0  0  0  0  0  0  0  0  0  0  0
   -0.4794   27.1671  -28.9692 H   0  0  0  0  0  0  0  0  0  0  0  0
   -2.1746   21.6336  -31.4989 H   0  0  0  0  0  0  0  0  0  0  0  0
   -1.9373   20.3789  -32.8694 H   0  0  0  0  0  0  0  0  0  0  0  0
   -1.6486   18.3661  -34.3139 H   0  0  0  0  0  0  0  0  0  0  0  0
   -3.6467   17.1789  -35.2214 H   0  0  0  0  0  0  0  0  0  0  0  0
   -5.9420   17.9939  -34.6715 H   0  0  0  0  0  0  0  0  0  0  0  0
   -6.2432   20.0056  -33.2287 H   0  0  0  0  0  0  0  0  0  0  0  0
   -7.8330   23.2246  -31.6128 H   0  0  0  0  0  0  0  0  0  0  0  0
   -8.2641   25.2518  -30.2268 H   0  0  0  0  0  0  0  0  0  0  0  0
   -6.3822   26.3839  -29.0481 H   0  0  0  0  0  0  0  0  0  0  0  0
   -4.0689   25.4655  -29.1968 H   0  0  0  0  0  0  0  0  0  0  0  0
  1  2  2  0
  2  3  1  0
  3  4  1  0
  4  5  2  0
  5  6  1  0
  6  7  2  0
  7  8  1  0
  8  9  2  0
  8 10  2  0
  8 11  1  0
 11 12  1  0
 12 13  1  0
 13 14  1  0
 14 15  1  0
  7 16  1  0
 16 17  2  0
  2 18  1  0
 18 19  2  0
 19 20  1  0
 20 21  1  0
 21 22  2  0
 22 23  1  0
 23 24  2  0
 24 25  1  0
 25 26  2  0
 20 27  2  0
 27 28  1  0
 28 29  2  0
 29 30  1  0
 30 31  2  0
 31 32  1  0
 32 33  2  0
 17  4  1  0
 33 18  1  0
 15 11  1  0
 26 21  1  0
 33 28  1  0
  5 34  1  0
  6 35  1  0
 11 36  1  0
 12 37  1  0
 12 38  1  0
 13 39  1  0
 13 40  1  0
 14 41  1  0
 14 42  1  0
 15 43  1  0
 15 44  1  0
 16 45  1  0
 17 46  1  0
 19 47  1  0
 22 48  1  0
 23 49  1  0
 24 50  1  0
 25 51  1  0
 26 52  1  0
 29 53  1  0
 30 54  1  0
 31 55  1  0
 32 56  1  0
M  CHG  2   3  -1  11   1
M  END
>  <UniqueID>  (20) 
19

>  <SMILES>  (20) 
O=C([N-]c1ccc(S(=O)(=O)[NH+]2CCCC2)cc1)c1cc(-c2ccccc2)nc2ccccc12

>  <Energy>  (20) 
80.98813792734137

>  <Genealogy>  (20) 
O=C([N-]c1ccc(S(=O)(=O)[NH+]2CCCC2)cc1)c1cc(-c2ccccc2)nc2ccccc12 (protonated)
O=C([N-]c1ccc(S(=O)(=O)[NH+]2CCCC2)cc1)c1cc(-c2ccccc2)nc2ccccc12 (3D coordinates assigned)
O=C([N-]c1ccc(S(=O)(=O)[NH+]2CCCC2)cc1)c1cc(-c2ccccc2)nc2ccccc12 (nonaromatic ring conformer: 80.98813792734137 kcal/mol)

>  <smiles>  (20) 
O=C(Nc1ccc(S(=O)(=O)N2CCCC2)cc1)c1cc(-c2ccccc2)nc2ccccc12

>  <score_type>  (20) 
oracle

>  <origin>  (20) 
adgpu

>  <m_score__min__energy>  (20) 
-12.56

>  <m_primary>  (20) 
energy

$$$$
20:0
     RDKit          3D

 41 43  0  0  0  0  0  0  0  0999 V2000
   -4.1210   24.6310  -30.7480 O   0  0  0  0  0  0  0  0  0  0  0  0
   -4.6290   23.7570  -29.9920 C   0  0  0  0  0  0  0  0  0  0  0  0
   -4.4210   23.8370  -28.5720 N   0  0  0  0  0  0  0  0  0  0  0  0
   -3.3300   24.5500  -27.9630 C   0  0  0  0  0  0  0  0  0  0  0  0
   -3.4220   24.9340  -26.6160 C   0  0  0  0  0  0  0  0  0  0  0  0
   -2.3650   25.6080  -25.9970 C   0  0  0  0  0  0  0  0  0  0  0  0
   -1.2010   25.8930  -26.7150 C   0  0  0  0  0  0  0  0  0  0  0  0
   -1.0890   25.4970  -28.0500 C   0  0  0  0  0  0  0  0  0  0  0  0
   -2.1450   24.8230  -28.6730 C   0  0  0  0  0  0  0  0  0  0  0  0
   -5.4760   22.6890  -30.5770 C   0  0  0  0  0  0  0  0  0  0  0  0
   -4.9070   21.4930  -31.0510 C   0  0  0  0  0  0  0  0  0  0  0  0
   -5.7140   20.4950  -31.6040 C   0  0  0  0  0  0  0  0  0  0  0  0
   -7.1010   20.6710  -31.6910 C   0  0  0  0  0  0  0  0  0  0  0  0
   -8.1190   19.4100  -32.3980 S   0  0  0  0  0  0  0  0  0  0  0  0
   -8.7560   18.6180  -31.2910 O   0  0  0  0  0  0  0  0  0  0  0  0
   -9.2150   20.0570  -33.1970 O   0  0  0  0  0  0  0  0  0  0  0  0
   -7.2270   18.3220  -33.4350 N   0  0  0  0  0  0  0  0  0  0  0  0
   -6.5100   17.3010  -32.6740 C   0  0  0  0  0  0  0  0  0  0  0  0
   -5.3420   16.8600  -33.5430 C   0  0  0  0  0  0  0  0  0  0  0  0
   -5.1440   17.9820  -34.5500 C   0  0  0  0  0  0  0  0  0  0  0  0
   -6.2060   19.0170  -34.2150 C   0  0  0  0  0  0  0  0  0  0  0  0
   -7.6720   21.8690  -31.2400 C   0  0  0  0  0  0  0  0  0  0  0  0
   -6.8670   22.8700  -30.6870 C   0  0  0  0  0  0  0  0  0  0  0  0
   -5.1630   23.4540  -27.9450 H   0  0  0  0  0  0  0  0  0  0  0  0
   -4.3323   24.7030  -26.0433 H   0  0  0  0  0  0  0  0  0  0  0  0
   -2.4500   25.9141  -24.9439 H   0  0  0  0  0  0  0  0  0  0  0  0
   -0.3726   26.4293  -26.2291 H   0  0  0  0  0  0  0  0  0  0  0  0
   -0.1691   25.7154  -28.6123 H   0  0  0  0  0  0  0  0  0  0  0  0
   -2.0492   24.5051  -29.7217 H   0  0  0  0  0  0  0  0  0  0  0  0
   -3.8193   21.3423  -30.9859 H   0  0  0  0  0  0  0  0  0  0  0  0
   -5.2570   19.5651  -31.9734 H   0  0  0  0  0  0  0  0  0  0  0  0
   -6.1420   17.7211  -31.7263 H   0  0  0  0  0  0  0  0  0  0  0  0
   -7.1660   16.4533  -32.4269 H   0  0  0  0  0  0  0  0  0  0  0  0
   -4.4368   16.7261  -32.9326 H   0  0  0  0  0  0  0  0  0  0  0  0
   -5.5390   15.8967  -34.0362 H   0  0  0  0  0  0  0  0  0  0  0  0
   -4.1383   18.4161  -34.4497 H   0  0  0  0  0  0  0  0  0  0  0  0
   -5.2350   17.6229  -35.5858 H   0  0  0  0  0  0  0  0  0  0  0  0
   -5.7673   19.8350  -33.6246 H   0  0  0  0  0  0  0  0  0  0  0  0
   -6.6332   19.4598  -35.1268 H   0  0  0  0  0  0  0  0  0  0  0  0
   -8.7582   22.0225  -31.3214 H   0  0  0  0  0  0  0  0  0  0  0  0
   -7.3249   23.8063  -30.3352 H   0  0  0  0  0  0  0  0  0  0  0  0
  1  2  2  0
  2  3  1  0
  3  4  1  0
  4  5  2  0
  5  6  1  0
  6  7  2  0
  7  8  1  0
  8  9  2  0
  2 10  1  0
 10 11  2  0
 11 12  1  0
 12 13  2  0
 13 14  1  0
 14 15  2  0
 14 16  2  0
 14 17  1  0
 17 18  1  0
 18 19  1  0
 19 20  1  0
 20 21  1  0
 13 22  1  0
 22 23  2  0
  9  4  1  0
 23 10  1  0
 21 17  1  0
  3 24  1  0
  5 25  1  0
  6 26  1  0
  7 27  1  0
  8 28  1  0
  9 29  1  0
 11 30  1  0
 12 31  1  0
 18 32  1  0
 18 33  1  0
 19 34  1  0
 19 35  1  0
 20 36  1  0
 20 37  1  0
 21 38  1  0
 21 39  1  0
 22 40  1  0
 23 41  1  0
M  END
>  <UniqueID>  (21) 
20

>  <SMILES>  (21) 
O=C(Nc1ccccc1)c1ccc(S(=O)(=O)N2CCCC2)cc1

>  <Energy>  (21) 
48.986144438689614

>  <Genealogy>  (21) 
O=C(Nc1ccccc1)c1ccc(S(=O)(=O)N2CCCC2)cc1 (3D coordinates assigned)
O=C(Nc1ccccc1)c1ccc(S(=O)(=O)N2CCCC2)cc1 (nonaromatic ring conformer: 48.986144438689614 kcal/mol)

>  <smiles>  (21) 
O=C(Nc1ccccc1)c1ccc(S(=O)(=O)N2CCCC2)cc1

>  <score_type>  (21) 
oracle

>  <origin>  (21) 
adgpu

>  <m_score__min__energy>  (21) 
-9.1699999999999999

>  <m_primary>  (21) 
energy

$$$$
21:0
     RDKit          3D

 26 27  0  0  0  0  0  0  0  0999 V2000
   -4.2420   25.6590  -30.4880 O   0  0  0  0  0  0  0  0  0  0  0  0
   -4.5530   24.3470  -29.8250 S   0  0  0  0  0  0  0  0  0  0  0  0
   -4.8670   24.6040  -28.3780 O   0  0  0  0  0  0  0  0  0  0  0  0
   -5.9340   23.6190  -30.6410 C   0  0  0  0  0  0  0  0  0  0  0  0
   -6.1350   23.8110  -32.0160 C   0  0  0  0  0  0  0  0  0  0  0  0
   -7.2430   23.2390  -32.6500 C   0  0  0  0  0  0  0  0  0  0  0  0
   -8.1500   22.4690  -31.9140 C   0  0  0  0  0  0  0  0  0  0  0  0
   -7.9510   22.2730  -30.5460 C   0  0  0  0  0  0  0  0  0  0  0  0
   -6.8440   22.8430  -29.9090 C   0  0  0  0  0  0  0  0  0  0  0  0
   -3.1630   23.2560  -29.9220 C   0  0  0  0  0  0  0  0  0  0  0  0
   -3.3190   21.9980  -30.5260 C   0  0  0  0  0  0  0  0  0  0  0  0
   -2.2420   21.1110  -30.6040 C   0  0  0  0  0  0  0  0  0  0  0  0
   -0.9990   21.4700  -30.0810 C   0  0  0  0  0  0  0  0  0  0  0  0
   -0.8310   22.7170  -29.4750 C   0  0  0  0  0  0  0  0  0  0  0  0
   -1.9040   23.6150  -29.3890 C   0  0  0  0  0  0  0  0  0  0  0  0
   -1.6210   25.1990  -28.5920 S   0  0  0  0  0  0  0  0  0  0  0  0
   -5.4201   24.4124  -32.5967 H   0  0  0  0  0  0  0  0  0  0  0  0
   -7.4012   23.3947  -33.7274 H   0  0  0  0  0  0  0  0  0  0  0  0
   -9.0202   22.0178  -32.4132 H   0  0  0  0  0  0  0  0  0  0  0  0
   -8.6662   21.6692  -29.9682 H   0  0  0  0  0  0  0  0  0  0  0  0
   -6.6870   22.6823  -28.8322 H   0  0  0  0  0  0  0  0  0  0  0  0
   -4.2959   21.7087  -30.9407 H   0  0  0  0  0  0  0  0  0  0  0  0
   -2.3743   20.1276  -31.0787 H   0  0  0  0  0  0  0  0  0  0  0  0
   -0.1520   20.7712  -30.1460 H   0  0  0  0  0  0  0  0  0  0  0  0
    0.1497   22.9964  -29.0625 H   0  0  0  0  0  0  0  0  0  0  0  0
   -2.9770   25.5590  -28.7030 H   0  0  0  0  0  0  0  0  0  0  0  0
  1  2  2  0
  2  3  2  0
  2  4  1  0
  4  5  2  0
  5  6  1  0
  6  7  2  0
  7  8  1  0
  8  9  2  0
  2 10  1  0
 10 11  2  0
 11 12  1  0
 12 13  2  0
 13 14  1  0
 14 15  2  0
 15 16  1  0
  9  4  1  0
 15 10  1  0
  5 17  1  0
  6 18  1  0
  7 19  1  0
  8 20  1  0
  9 21  1  0
 11 22  1  0
 12 23  1  0
 13 24  1  0
 14 25  1  0
 16 26  1  0
M  END
>  <UniqueID>  (22) 
21

>  <SMILES>  (22) 
O=S(=O)(c1ccccc1)c1ccccc1S

>  <Energy>  (22) 
28.71374617941195

>  <Genealogy>  (22) 
O=S(=O)(c1ccccc1)c1ccccc1S (3D coordinates assigned)
O=S(=O)(c1ccccc1)c1ccccc1S (optimized conformer: 28.71374617941195 kcal/mol)

>  <smiles>  (22) 
O=S(=O)(c1ccccc1)c1ccccc1S

>  <score_type>  (22) 
oracle

>  <origin>  (22) 
adgpu

>  <m_score__min__energy>  (22) 
-6.5300000000000002

>  <m_primary>  (22) 
energy

$$$$
22:0
     RDKit          3D

 40 42  0  0  0  0  0  0  0  0999 V2000
   -6.4760   17.4920  -30.9230 C   0  0  0  0  0  0  0  0  0  0  0  0
   -6.0370   17.7020  -32.3490 C   0  0  0  0  0  0  0  0  0  0  0  0
   -5.1250   16.7940  -32.9140 C   0  0  0  0  0  0  0  0  0  0  0  0
   -4.7200   16.9260  -34.2430 C   0  0  0  0  0  0  0  0  0  0  0  0
   -5.2180   17.9670  -35.0250 C   0  0  0  0  0  0  0  0  0  0  0  0
   -6.1090   18.8910  -34.4760 C   0  0  0  0  0  0  0  0  0  0  0  0
   -6.5100   18.7870  -33.1330 C   0  0  0  0  0  0  0  0  0  0  0  0
   -7.4340   19.8120  -32.6000 C   0  0  0  0  0  0  0  0  0  0  0  0
   -8.6870   19.4680  -32.0820 C   0  0  0  0  0  0  0  0  0  0  0  0
   -9.4810   20.4480  -31.5780 N   0  0  0  0  0  0  0  0  0  0  0  0
   -9.0780   21.7190  -31.5610 N   0  0  0  0  0  0  0  0  0  0  0  0
   -7.8580   22.0660  -32.0430 C   0  0  0  0  0  0  0  0  0  0  0  0
   -7.3260   23.7730  -31.9990 S   0  0  0  0  0  0  0  0  0  0  0  0
   -6.2800   23.5290  -30.5290 C   0  0  0  0  0  0  0  0  0  0  0  0
   -4.9000   23.1540  -30.9590 C   0  0  0  0  0  0  0  0  0  0  0  0
   -3.9670   23.9940  -30.8450 O   0  0  0  0  0  0  0  0  0  0  0  0
   -4.6300   21.8170  -31.4100 N   0  0  0  0  0  0  0  0  0  0  0  0
   -3.3880   21.4010  -32.0070 C   0  0  0  0  0  0  0  0  0  0  0  0
   -2.1550   21.6210  -31.3660 C   0  0  0  0  0  0  0  0  0  0  0  0
   -0.9620   21.2280  -31.9800 C   0  0  0  0  0  0  0  0  0  0  0  0
   -0.9860   20.6260  -33.2410 C   0  0  0  0  0  0  0  0  0  0  0  0
   -2.2060   20.4250  -33.8940 C   0  0  0  0  0  0  0  0  0  0  0  0
   -3.4000   20.8180  -33.2830 C   0  0  0  0  0  0  0  0  0  0  0  0
   -7.0410   21.1120  -32.5550 N   0  0  0  0  0  0  0  0  0  0  0  0
   -5.6974   17.8644  -30.2410 H   0  0  0  0  0  0  0  0  0  0  0  0
   -7.4131   18.0393  -30.7435 H   0  0  0  0  0  0  0  0  0  0  0  0
   -6.6380   16.4189  -30.7435 H   0  0  0  0  0  0  0  0  0  0  0  0
   -4.7264   15.9710  -32.3025 H   0  0  0  0  0  0  0  0  0  0  0  0
   -4.0070   16.2077  -34.6739 H   0  0  0  0  0  0  0  0  0  0  0  0
   -4.9084   18.0606  -36.0764 H   0  0  0  0  0  0  0  0  0  0  0  0
   -6.5007   19.7077  -35.1001 H   0  0  0  0  0  0  0  0  0  0  0  0
   -9.0238   18.4208  -32.0828 H   0  0  0  0  0  0  0  0  0  0  0  0
   -6.2423   24.4614  -29.9465 H   0  0  0  0  0  0  0  0  0  0  0  0
   -6.7020   22.7259  -29.9069 H   0  0  0  0  0  0  0  0  0  0  0  0
   -5.3490   21.0840  -31.2130 H   0  0  0  0  0  0  0  0  0  0  0  0
   -2.1295   22.1040  -30.3781 H   0  0  0  0  0  0  0  0  0  0  0  0
   -0.0019   21.3931  -31.4692 H   0  0  0  0  0  0  0  0  0  0  0  0
   -0.0468   20.3108  -33.7190 H   0  0  0  0  0  0  0  0  0  0  0  0
   -2.2260   19.9572  -34.8894 H   0  0  0  0  0  0  0  0  0  0  0  0
   -4.3560   20.6691  -33.8064 H   0  0  0  0  0  0  0  0  0  0  0  0
  1  2  1  0
  2  3  2  0
  3  4  1  0
  4  5  2  0
  5  6  1  0
  6  7  2  0
  7  8  1  0
  8  9  2  0
  9 10  1  0
 10 11  2  0
 11 12  1  0
 12 13  1  0
 13 14  1  0
 14 15  1  0
 15 16  2  0
 15 17  1  0
 17 18  1  0
 18 19  2  0
 19 20  1  0
 20 21  2  0
 21 22  1  0
 22 23  2  0
 12 24  2  0
  7  2  1  0
 24  8  1  0
 23 18  1  0
  1 25  1  0
  1 26  1  0
  1 27  1  0
  3 28  1  0
  4 29  1  0
  5 30  1  0
  6 31  1  0
  9 32  1  0
 14 33  1  0
 14 34  1  0
 17 35  1  0
 19 36  1  0
 20 37  1  0
 21 38  1  0
 22 39  1  0
 23 40  1  0
M  END
>  <UniqueID>  (23) 
22

>  <SMILES>  (23) 
Cc1ccccc1-c1cnnc(SCC(=O)Nc2ccccc2)n1

>  <Energy>  (23) 
49.493817239991195

>  <Genealogy>  (23) 
Cc1ccccc1-c1cnnc(SCC(=O)Nc2ccccc2)n1 (3D coordinates assigned)
Cc1ccccc1-c1cnnc(SCC(=O)Nc2ccccc2)n1 (optimized conformer: 49.493817239991195 kcal/mol)

>  <smiles>  (23) 
Cc1ccccc1-c1cnnc(SCC(=O)Nc2ccccc2)n1

>  <score_type>  (23) 
oracle

>  <origin>  (23) 
adgpu

>  <m_score__min__energy>  (23) 
-9.1999999999999993

>  <m_primary>  (23) 
energy

$$$$
23:0
     RDKit          3D

 56 59  0  0  0  0  0  0  0  0999 V2000
    5.8082   18.2438  -29.8342 H   0  0  0  0  0  0  0  0  0  0  0  0
    4.7630   18.5770  -29.9150 C   0  0  0  0  0  0  0  0  0  0  0  0
    4.1700   18.6850  -31.1320 N   0  0  0  0  0  0  0  0  0  0  0  0
    2.8820   19.1040  -31.2700 C   0  0  0  0  0  0  0  0  0  0  0  0
    2.3700   19.1660  -32.4670 N   0  0  0  0  0  0  0  0  0  0  0  0
    1.0740   19.6630  -32.8300 C   0  0  0  0  0  0  0  0  0  0  0  0
    1.0000   20.6440  -33.6160 O   0  0  0  0  0  0  0  0  0  0  0  0
   -0.1150   19.0870  -32.2630 N   0  0  0  0  0  0  0  0  0  0  0  0
   -0.0200   18.2250  -31.6790 H   0  0  0  0  0  0  0  0  0  0  0  0
   -1.4400   19.5920  -32.4910 C   0  0  0  0  0  0  0  0  0  0  0  0
   -2.5020   18.7350  -32.8250 C   0  0  0  0  0  0  0  0  0  0  0  0
   -2.3307   17.6502  -32.8879 H   0  0  0  0  0  0  0  0  0  0  0  0
   -3.7760   19.2540  -33.0780 C   0  0  0  0  0  0  0  0  0  0  0  0
   -4.6010   18.5758  -33.3416 H   0  0  0  0  0  0  0  0  0  0  0  0
   -4.0070   20.6380  -32.9970 C   0  0  0  0  0  0  0  0  0  0  0  0
   -5.2660   21.1970  -33.2580 O   0  0  0  0  0  0  0  0  0  0  0  0
   -5.9400   22.1090  -32.4310 C   0  0  0  0  0  0  0  0  0  0  0  0
   -7.2850   21.9290  -32.0680 C   0  0  0  0  0  0  0  0  0  0  0  0
   -7.8396   21.0532  -32.4358 H   0  0  0  0  0  0  0  0  0  0  0  0
   -7.9200   22.8580  -31.2420 C   0  0  0  0  0  0  0  0  0  0  0  0
   -8.9781   22.7209  -30.9744 H   0  0  0  0  0  0  0  0  0  0  0  0
   -7.2150   23.9620  -30.7540 C   0  0  0  0  0  0  0  0  0  0  0  0
   -7.7260   24.7006  -30.1189 H   0  0  0  0  0  0  0  0  0  0  0  0
   -5.8560   24.1330  -31.0710 C   0  0  0  0  0  0  0  0  0  0  0  0
   -5.0920   25.2880  -30.5400 C   0  0  0  0  0  0  0  0  0  0  0  0
   -5.7160   26.2890  -30.0950 O   0  0  0  0  0  0  0  0  0  0  0  0
   -3.6600   25.2890  -30.4750 N   0  0  0  0  0  0  0  0  0  0  0  0
   -2.8460   24.4080  -29.6890 C   0  0  0  0  0  0  0  0  0  0  0  0
   -1.8350   24.9520  -28.8960 C   0  0  0  0  0  0  0  0  0  0  0  0
   -1.6701   26.0396  -28.8905 H   0  0  0  0  0  0  0  0  0  0  0  0
   -1.0330   24.1260  -28.1110 C   0  0  0  0  0  0  0  0  0  0  0  0
   -0.2436   24.5698  -27.4866 H   0  0  0  0  0  0  0  0  0  0  0  0
   -1.2200   22.7330  -28.1070 C   0  0  0  0  0  0  0  0  0  0  0  0
   -0.3220   21.8920  -27.2330 C   0  0  0  0  0  0  0  0  0  0  0  0
   -0.5422   22.0982  -26.1752 H   0  0  0  0  0  0  0  0  0  0  0  0
   -0.4986   20.8268  -27.4434 H   0  0  0  0  0  0  0  0  0  0  0  0
    0.7293   22.1379  -27.4434 H   0  0  0  0  0  0  0  0  0  0  0  0
   -2.2010   22.1600  -28.9590 C   0  0  0  0  0  0  0  0  0  0  0  0
   -2.4320   20.6590  -29.0100 C   0  0  0  0  0  0  0  0  0  0  0  0
   -3.4420   20.3560  -29.9060 F   0  0  0  0  0  0  0  0  0  0  0  0
   -2.8000   20.1560  -27.7730 F   0  0  0  0  0  0  0  0  0  0  0  0
   -1.2650   20.0270  -29.4040 F   0  0  0  0  0  0  0  0  0  0  0  0
   -3.0120   23.0140  -29.7340 C   0  0  0  0  0  0  0  0  0  0  0  0
   -3.7869   22.5818  -30.3841 H   0  0  0  0  0  0  0  0  0  0  0  0
   -5.2280   23.2020  -31.9170 C   0  0  0  0  0  0  0  0  0  0  0  0
   -4.1675   23.3325  -32.1782 H   0  0  0  0  0  0  0  0  0  0  0  0
   -2.9400   21.4930  -32.7020 C   0  0  0  0  0  0  0  0  0  0  0  0
   -3.1054   22.5798  -32.6641 H   0  0  0  0  0  0  0  0  0  0  0  0
   -1.6650   20.9760  -32.4550 C   0  0  0  0  0  0  0  0  0  0  0  0
   -0.8325   21.6592  -32.2309 H   0  0  0  0  0  0  0  0  0  0  0  0
    2.1440   19.4020  -30.1050 C   0  0  0  0  0  0  0  0  0  0  0  0
    1.0942   19.7218  -30.1808 H   0  0  0  0  0  0  0  0  0  0  0  0
    2.7400   19.2910  -28.8880 N   0  0  0  0  0  0  0  0  0  0  0  0
    4.0330   18.8930  -28.7670 C   0  0  0  0  0  0  0  0  0  0  0  0
    4.6330   18.7930  -27.4650 C   0  0  0  0  0  0  0  0  0  0  0  0
    5.1170   18.7130  -26.4160 N   0  0  0  0  0  0  0  0  0  0  0  0
  1  2  1  0
  2  3  1  0
  3  4  1  0
  4  5  2  0
  5  6  1  0
  6  7  2  0
  6  8  1  0
  8  9  1  0
  8 10  1  0
 10 11  2  0
 11 12  1  0
 11 13  1  0
 13 14  1  0
 13 15  2  0
 15 16  1  0
 16 17  1  0
 17 18  2  0
 18 19  1  0
 18 20  1  0
 20 21  1  0
 20 22  2  0
 22 23  1  0
 22 24  1  0
 24 25  1  0
 25 26  2  0
 25 27  1  0
 27 28  1  0
 28 29  2  0
 29 30  1  0
 29 31  1  0
 31 32  1  0
 31 33  2  0
 33 34  1  0
 34 35  1  0
 34 36  1  0
 34 37  1  0
 33 38  1  0
 38 39  1  0
 39 40  1  0
 39 41  1  0
 39 42  1  0
 38 43  2  0
 43 44  1  0
 24 45  2  0
 45 46  1  0
 15 47  1  0
 47 48  1  0
 47 49  2  0
 49 50  1  0
  4 51  1  0
 51 52  1  0
 51 53  2  0
 53 54  1  0
 54 55  1  0
 55 56  3  0
 54  2  2  0
 49 10  1  0
 45 17  1  0
 43 28  1  0
M  CHG  2   3  -1  27  -1
M  END
>  <UniqueID>  (24) 
23

>  <SMILES>  (24) 
Cc1ccc([N-]C(=O)c2cccc(Oc3ccc(NC(=O)/N=c4\cnc(C#N)c[n-]4)cc3)c2)cc1C(F)(F)F

>  <Energy>  (24) 
89.9825211601318

>  <Genealogy>  (24) 
Cc1ccc([N-]C(=O)c2cccc(Oc3ccc(NC(=O)N=c4cnc(C#N)c[n-]4)cc3)c2)cc1C(F)(F)F (protonated)
Cc1ccc([N-]C(=O)c2cccc(Oc3ccc(NC(=O)/N=c4\cnc(C#N)c[n-]4)cc3)c2)cc1C(F)(F)F (cis-trans isomerization)
Cc1ccc([N-]C(=O)c2cccc(Oc3ccc(NC(=O)/N=c4\cnc(C#N)c[n-]4)cc3)c2)cc1C(F)(F)F (3D coordinates assigned)
Cc1ccc([N-]C(=O)c2cccc(Oc3ccc(NC(=O)/N=c4\cnc(C#N)c[n-]4)cc3)c2)cc1C(F)(F)F (optimized conformer: 89.9825211601318 kcal/mol)

>  <smiles>  (24) 
Cc1ccc(NC(=O)c2cccc(Oc3ccc(NC(=O)N=c4cnc(C#N)c[nH]4)cc3)c2)cc1C(F)(F)F

>  <score_type>  (24) 
oracle

>  <origin>  (24) 
adgpu

>  <m_score__min__energy>  (24) 
-11.5

>  <m_primary>  (24) 
energy

$$$$
24:0
     RDKit          3D

 25 27  0  0  0  0  0  0  0  0999 V2000
   -3.7230   25.2740  -30.0980 N   0  0  0  0  0  0  0  0  0  0  0  0
   -4.9240   24.6040  -30.4900 C   0  0  0  0  0  0  0  0  0  0  0  0
   -6.1740   25.1630  -30.1990 C   0  0  0  0  0  0  0  0  0  0  0  0
   -7.3110   24.5160  -30.5660 N   0  0  0  0  0  0  0  0  0  0  0  0
   -7.2790   23.3250  -31.2200 C   0  0  0  0  0  0  0  0  0  0  0  0
   -6.0520   22.7250  -31.5440 C   0  0  0  0  0  0  0  0  0  0  0  0
   -6.0140   21.4610  -32.2340 N   0  0  0  0  0  0  0  0  0  0  0  0
   -5.0550   21.0120  -33.0900 C   0  0  0  0  0  0  0  0  0  0  0  0
   -5.2990   19.7620  -33.5710 N   0  0  0  0  0  0  0  0  0  0  0  0
   -6.4590   19.4360  -32.9750 C   0  0  0  0  0  0  0  0  0  0  0  0
   -7.1870   18.2570  -33.0540 C   0  0  0  0  0  0  0  0  0  0  0  0
   -6.8090   17.3040  -33.7870 O   0  0  0  0  0  0  0  0  0  0  0  0
   -8.3290   18.1590  -32.3080 N   0  0  0  0  0  0  0  0  0  0  0  0
   -8.7360   19.1890  -31.4970 C   0  0  0  0  0  0  0  0  0  0  0  0
   -8.0070   20.3450  -31.4230 N   0  0  0  0  0  0  0  0  0  0  0  0
   -6.8870   20.4440  -32.1810 C   0  0  0  0  0  0  0  0  0  0  0  0
   -4.8680   23.3790  -31.1640 C   0  0  0  0  0  0  0  0  0  0  0  0
   -3.4710   25.3730  -29.0890 H   0  0  0  0  0  0  0  0  0  0  0  0
   -3.0770   25.6740  -30.8130 H   0  0  0  0  0  0  0  0  0  0  0  0
   -6.2358   26.1270  -29.6727 H   0  0  0  0  0  0  0  0  0  0  0  0
   -8.2205   22.8282  -31.4971 H   0  0  0  0  0  0  0  0  0  0  0  0
   -4.1688   21.6022  -33.3662 H   0  0  0  0  0  0  0  0  0  0  0  0
   -8.9010   17.2850  -32.3460 H   0  0  0  0  0  0  0  0  0  0  0  0
   -9.6552   19.0845  -30.9019 H   0  0  0  0  0  0  0  0  0  0  0  0
   -3.8930   22.9262  -31.3973 H   0  0  0  0  0  0  0  0  0  0  0  0
  1  2  1  0
  2  3  2  0
  3  4  1  0
  4  5  2  0
  5  6  1  0
  6  7  1  0
  7  8  1  0
  8  9  2  0
  9 10  1  0
 10 11  1  0
 11 12  2  0
 11 13  1  0
 13 14  1  0
 14 15  2  0
 15 16  1  0
  6 17  2  0
 17  2  1  0
 16  7  1  0
 16 10  2  0
  1 18  1  0
  1 19  1  0
  3 20  1  0
  5 21  1  0
  8 22  1  0
 13 23  1  0
 14 24  1  0
 17 25  1  0
M  END
>  <UniqueID>  (25) 
24

>  <SMILES>  (25) 
Nc1cncc(-n2cnc3c(=O)[nH]cnc32)c1

>  <Energy>  (25) 
72.85353981370537

>  <Genealogy>  (25) 
Nc1cncc(-n2cnc3c(=O)[nH]cnc32)c1 (3D coordinates assigned)
Nc1cncc(-n2cnc3c(=O)[nH]cnc32)c1 (optimized conformer: 72.85353981370537 kcal/mol)

>  <smiles>  (25) 
Nc1cncc(-n2cnc3c(=O)[nH]cnc32)c1

>  <score_type>  (25) 
oracle

>  <origin>  (25) 
adgpu

>  <m_score__min__energy>  (25) 
-6.5700000000000003

>  <m_primary>  (25) 
energy

$$$$
25:0
     RDKit          3D

 65 68  0  0  0  0  0  0  0  0999 V2000
    1.8350   19.4620  -29.3980 O   0  0  0  0  0  0  0  0  0  0  0  0
    1.0600   19.2570  -30.3680 C   0  0  0  0  0  0  0  0  0  0  0  0
    0.0330   20.3050  -30.7120 C   0  0  0  0  0  0  0  0  0  0  0  0
   -0.6910   20.8140  -29.4900 C   0  0  0  0  0  0  0  0  0  0  0  0
   -0.9030   19.9680  -28.3900 C   0  0  0  0  0  0  0  0  0  0  0  0
   -1.6630   20.4010  -27.3020 C   0  0  0  0  0  0  0  0  0  0  0  0
   -2.2630   21.6630  -27.3240 C   0  0  0  0  0  0  0  0  0  0  0  0
   -2.1050   22.5020  -28.4330 C   0  0  0  0  0  0  0  0  0  0  0  0
   -2.8150   23.7480  -28.4590 N   0  0  0  0  0  0  0  0  0  0  0  0
   -2.6090   24.8630  -29.3450 C   0  0  0  0  0  0  0  0  0  0  0  0
   -1.6240   25.6160  -29.1450 O   0  0  0  0  0  0  0  0  0  0  0  0
   -3.4830   25.1530  -30.4470 N   0  0  0  0  0  0  0  0  0  0  0  0
   -4.7850   24.5950  -30.6660 C   0  0  0  0  0  0  0  0  0  0  0  0
   -5.9020   25.0330  -29.9400 C   0  0  0  0  0  0  0  0  0  0  0  0
   -7.1240   24.3650  -30.0670 C   0  0  0  0  0  0  0  0  0  0  0  0
   -7.2330   23.2520  -30.9060 C   0  0  0  0  0  0  0  0  0  0  0  0
   -6.1270   22.8280  -31.6670 C   0  0  0  0  0  0  0  0  0  0  0  0
   -6.1460   21.6700  -32.4600 O   0  0  0  0  0  0  0  0  0  0  0  0
   -6.9540   20.5430  -32.2720 C   0  0  0  0  0  0  0  0  0  0  0  0
   -8.3500   20.5880  -32.4330 C   0  0  0  0  0  0  0  0  0  0  0  0
   -9.1170   19.4330  -32.2420 C   0  0  0  0  0  0  0  0  0  0  0  0
   -8.4930   18.2260  -31.9080 C   0  0  0  0  0  0  0  0  0  0  0  0
   -7.1010   18.1720  -31.7730 C   0  0  0  0  0  0  0  0  0  0  0  0
   -6.3360   19.3250  -31.9630 C   0  0  0  0  0  0  0  0  0  0  0  0
   -4.9190   23.5270  -31.5600 C   0  0  0  0  0  0  0  0  0  0  0  0
   -1.2630   22.0990  -29.4840 C   0  0  0  0  0  0  0  0  0  0  0  0
    1.1560   18.0000  -31.0580 N   0  0  0  0  0  0  0  0  0  0  0  0
    0.0580   17.2120  -31.6030 C   0  0  0  0  0  0  0  0  0  0  0  0
   -0.4890   17.8620  -32.8760 C   0  0  0  0  0  0  0  0  0  0  0  0
   -1.8610   18.5000  -32.6360 C   0  0  0  0  0  0  0  0  0  0  0  0
   -2.3300   19.1850  -33.8650 N   0  0  0  0  0  0  0  0  0  0  0  0
   -1.2540   19.9420  -34.5280 C   0  0  0  0  0  0  0  0  0  0  0  0
   -0.8530   21.1960  -33.7110 C   0  0  0  0  0  0  0  0  0  0  0  0
   -1.8010   21.5340  -32.7140 O   0  0  0  0  0  0  0  0  0  0  0  0
   -3.1040   21.4970  -33.2550 C   0  0  0  0  0  0  0  0  0  0  0  0
   -3.5050   20.0510  -33.6120 C   0  0  0  0  0  0  0  0  0  0  0  0
    0.5390   21.1499  -31.2019 H   0  0  0  0  0  0  0  0  0  0  0  0
   -0.7108   19.8439  -31.3784 H   0  0  0  0  0  0  0  0  0  0  0  0
   -0.4677   18.9578  -28.3853 H   0  0  0  0  0  0  0  0  0  0  0  0
   -1.7898   19.7479  -26.4260 H   0  0  0  0  0  0  0  0  0  0  0  0
   -2.8626   21.9987  -26.4651 H   0  0  0  0  0  0  0  0  0  0  0  0
   -5.8170   25.9018  -29.2708 H   0  0  0  0  0  0  0  0  0  0  0  0
   -8.0020   24.7163  -29.5051 H   0  0  0  0  0  0  0  0  0  0  0  0
   -8.1857   22.7060  -30.9717 H   0  0  0  0  0  0  0  0  0  0  0  0
   -8.8404   21.5330  -32.7097 H   0  0  0  0  0  0  0  0  0  0  0  0
  -10.2105   19.4741  -32.3545 H   0  0  0  0  0  0  0  0  0  0  0  0
   -9.0964   17.3197  -31.7515 H   0  0  0  0  0  0  0  0  0  0  0  0
   -6.6096   17.2217  -31.5173 H   0  0  0  0  0  0  0  0  0  0  0  0
   -5.2411   19.2760  -31.8693 H   0  0  0  0  0  0  0  0  0  0  0  0
   -4.0642   23.2330  -32.1867 H   0  0  0  0  0  0  0  0  0  0  0  0
   -1.0496   22.7946  -30.3089 H   0  0  0  0  0  0  0  0  0  0  0  0
    0.4210   16.2011  -31.8401 H   0  0  0  0  0  0  0  0  0  0  0  0
   -0.7476   17.1605  -30.8558 H   0  0  0  0  0  0  0  0  0  0  0  0
    0.2133   18.6398  -33.2103 H   0  0  0  0  0  0  0  0  0  0  0  0
   -0.6012   17.0803  -33.6417 H   0  0  0  0  0  0  0  0  0  0  0  0
   -2.5822   17.7170  -32.3588 H   0  0  0  0  0  0  0  0  0  0  0  0
   -1.7765   19.2376  -31.8243 H   0  0  0  0  0  0  0  0  0  0  0  0
   -0.3743   19.2907  -34.6375 H   0  0  0  0  0  0  0  0  0  0  0  0
   -1.6212   20.2739  -35.5103 H   0  0  0  0  0  0  0  0  0  0  0  0
    0.1140   21.0024  -33.2238 H   0  0  0  0  0  0  0  0  0  0  0  0
   -0.7977   22.0416  -34.4124 H   0  0  0  0  0  0  0  0  0  0  0  0
   -3.8136   21.8964  -32.5154 H   0  0  0  0  0  0  0  0  0  0  0  0
   -3.1242   22.1060  -34.1708 H   0  0  0  0  0  0  0  0  0  0  0  0
   -4.0822   19.6280  -32.7766 H   0  0  0  0  0  0  0  0  0  0  0  0
   -4.1005   20.0866  -34.5362 H   0  0  0  0  0  0  0  0  0  0  0  0
  1  2  2  0
  2  3  1  0
  3  4  1  0
  4  5  2  0
  5  6  1  0
  6  7  2  0
  7  8  1  0
  8  9  1  0
  9 10  1  0
 10 11  2  0
 10 12  1  0
 12 13  1  0
 13 14  2  0
 14 15  1  0
 15 16  2  0
 16 17  1  0
 17 18  1  0
 18 19  1  0
 19 20  2  0
 20 21  1  0
 21 22  2  0
 22 23  1  0
 23 24  2  0
 17 25  2  0
  8 26  2  0
  2 27  1  0
 27 28  1  0
 28 29  1  0
 29 30  1  0
 30 31  1  0
 31 32  1  0
 32 33  1  0
 33 34  1  0
 34 35  1  0
 35 36  1  0
 26  4  1  0
 36 31  1  0
 25 13  1  0
 24 19  1  0
  3 37  1  0
  3 38  1  0
  5 39  1  0
  6 40  1  0
  7 41  1  0
 14 42  1  0
 15 43  1  0
 16 44  1  0
 20 45  1  0
 21 46  1  0
 22 47  1  0
 23 48  1  0
 24 49  1  0
 25 50  1  0
 26 51  1  0
 28 52  1  0
 28 53  1  0
 29 54  1  0
 29 55  1  0
 30 56  1  0
 30 57  1  0
 32 58  1  0
 32 59  1  0
 33 60  1  0
 33 61  1  0
 35 62  1  0
 35 63  1  0
 36 64  1  0
 36 65  1  0
M  CHG  3   9  -1  12  -1  27  -1
M  END
>  <UniqueID>  (26) 
25

>  <SMILES>  (26) 
O=C(Cc1cccc([N-]C(=O)[N-]c2cccc(Oc3ccccc3)c2)c1)[N-]CCCN1CCOCC1

>  <Energy>  (26) 
87.4897819013696

>  <Genealogy>  (26) 
O=C(Cc1cccc([N-]C(=O)[N-]c2cccc(Oc3ccccc3)c2)c1)[N-]CCCN1CCOCC1 (protonated)
O=C(Cc1cccc([N-]C(=O)[N-]c2cccc(Oc3ccccc3)c2)c1)[N-]CCCN1CCOCC1 (3D coordinates assigned)
O=C(Cc1cccc([N-]C(=O)[N-]c2cccc(Oc3ccccc3)c2)c1)[N-]CCCN1CCOCC1 (nonaromatic ring conformer: 87.4897819013696 kcal/mol)

>  <smiles>  (26) 
O=C(Cc1cccc(NC(=O)Nc2cccc(Oc3ccccc3)c2)c1)NCCCN1CCOCC1

>  <score_type>  (26) 
oracle

>  <origin>  (26) 
adgpu

>  <m_score__min__energy>  (26) 
-13.359999999999999

>  <m_primary>  (26) 
energy

$$$$
26:0
     RDKit          3D

 34 36  0  0  0  0  0  0  0  0999 V2000
   -8.1630   21.8660  -31.9610 C   0  0  0  0  0  0  0  0  0  0  0  0
   -6.9560   22.6770  -31.5950 C   0  0  0  0  0  0  0  0  0  0  0  0
   -5.6830   22.2920  -32.0360 C   0  0  0  0  0  0  0  0  0  0  0  0
   -4.5560   23.0270  -31.6650 C   0  0  0  0  0  0  0  0  0  0  0  0
   -4.6790   24.1550  -30.8340 C   0  0  0  0  0  0  0  0  0  0  0  0
   -3.5340   24.9250  -30.4360 N   0  0  0  0  0  0  0  0  0  0  0  0
   -2.5690   24.6360  -29.0250 S   0  0  0  0  0  0  0  0  0  0  0  0
   -3.4320   24.7720  -27.8030 O   0  0  0  0  0  0  0  0  0  0  0  0
   -1.4680   25.6600  -28.9650 O   0  0  0  0  0  0  0  0  0  0  0  0
   -1.9000   23.0090  -29.0720 C   0  0  0  0  0  0  0  0  0  0  0  0
   -1.2770   22.5280  -30.2510 C   0  0  0  0  0  0  0  0  0  0  0  0
   -0.7460   21.2240  -30.2980 C   0  0  0  0  0  0  0  0  0  0  0  0
   -0.8560   20.4390  -29.1540 C   0  0  0  0  0  0  0  0  0  0  0  0
   -0.4230   19.1790  -28.9730 N   0  0  0  0  0  0  0  0  0  0  0  0
   -0.7970   18.9480  -27.6890 C   0  0  0  0  0  0  0  0  0  0  0  0
   -0.5790   17.8560  -27.1010 O   0  0  0  0  0  0  0  0  0  0  0  0
   -1.4110   19.9660  -27.1100 O   0  0  0  0  0  0  0  0  0  0  0  0
   -1.4500   20.9030  -28.0190 C   0  0  0  0  0  0  0  0  0  0  0  0
   -1.9860   22.1840  -27.9300 C   0  0  0  0  0  0  0  0  0  0  0  0
   -5.9580   24.5380  -30.3750 C   0  0  0  0  0  0  0  0  0  0  0  0
   -6.1180   25.7320  -29.4740 C   0  0  0  0  0  0  0  0  0  0  0  0
   -7.0860   23.7910  -30.7550 C   0  0  0  0  0  0  0  0  0  0  0  0
   -8.6682   21.5265  -31.0448 H   0  0  0  0  0  0  0  0  0  0  0  0
   -8.8540   22.4838  -32.5534 H   0  0  0  0  0  0  0  0  0  0  0  0
   -7.8522   20.9928  -32.5534 H   0  0  0  0  0  0  0  0  0  0  0  0
   -5.5712   21.4058  -32.6780 H   0  0  0  0  0  0  0  0  0  0  0  0
   -3.5628   22.7213  -32.0257 H   0  0  0  0  0  0  0  0  0  0  0  0
   -1.2077   23.1778  -31.1358 H   0  0  0  0  0  0  0  0  0  0  0  0
   -0.2612   20.8395  -31.2075 H   0  0  0  0  0  0  0  0  0  0  0  0
   -2.4595   22.5407  -27.0034 H   0  0  0  0  0  0  0  0  0  0  0  0
   -6.0745   25.4074  -28.4239 H   0  0  0  0  0  0  0  0  0  0  0  0
   -5.3081   26.4501  -29.6696 H   0  0  0  0  0  0  0  0  0  0  0  0
   -7.0884   26.2116  -29.6696 H   0  0  0  0  0  0  0  0  0  0  0  0
   -8.0812   24.0838  -30.3893 H   0  0  0  0  0  0  0  0  0  0  0  0
  1  2  1  0
  2  3  2  0
  3  4  1  0
  4  5  2  0
  5  6  1  0
  6  7  1  0
  7  8  2  0
  7  9  2  0
  7 10  1  0
 10 11  2  0
 11 12  1  0
 12 13  2  0
 13 14  1  0
 14 15  1  0
 15 16  2  0
 15 17  1  0
 17 18  1  0
 18 19  2  0
  5 20  1  0
 20 21  1  0
 20 22  2  0
 22  2  1  0
 19 10  1  0
 18 13  1  0
  1 23  1  0
  1 24  1  0
  1 25  1  0
  3 26  1  0
  4 27  1  0
 11 28  1  0
 12 29  1  0
 19 30  1  0
 21 31  1  0
 21 32  1  0
 21 33  1  0
 22 34  1  0
M  CHG  2   6  -1  14  -1
M  END
>  <UniqueID>  (27) 
26

>  <SMILES>  (27) 
Cc1ccc([N-]S(=O)(=O)c2ccc3[n-]c(=O)oc3c2)c(C)c1

>  <Energy>  (27) 
76.74604511915791

>  <Genealogy>  (27) 
Cc1ccc([N-]S(=O)(=O)c2ccc3[n-]c(=O)oc3c2)c(C)c1 (protonated)
Cc1ccc([N-]S(=O)(=O)c2ccc3[n-]c(=O)oc3c2)c(C)c1 (3D coordinates assigned)
Cc1ccc([N-]S(=O)(=O)c2ccc3[n-]c(=O)oc3c2)c(C)c1 (optimized conformer: 76.74604511915791 kcal/mol)

>  <smiles>  (27) 
Cc1ccc(NS(=O)(=O)c2ccc3[nH]c(=O)oc3c2)c(C)c1

>  <score_type>  (27) 
oracle

>  <origin>  (27) 
adgpu

>  <m_score__min__energy>  (27) 
-9.2699999999999996

>  <m_primary>  (27) 
energy

$$$$
27:0
     RDKit          3D

 42 43  0  0  0  0  0  0  0  0999 V2000
   -8.6200   19.5580  -31.9160 C   0  0  0  0  0  0  0  0  0  0  0  0
   -9.0120   20.9780  -32.3080 C   0  0  0  0  0  0  0  0  0  0  0  0
   -8.0640   21.9810  -31.7080 C   0  0  0  0  0  0  0  0  0  0  0  0
   -7.3330   22.8470  -32.5390 C   0  0  0  0  0  0  0  0  0  0  0  0
   -6.4530   23.7800  -31.9840 C   0  0  0  0  0  0  0  0  0  0  0  0
   -6.2920   23.8590  -30.5940 C   0  0  0  0  0  0  0  0  0  0  0  0
   -5.1760   25.0280  -29.8980 S   0  0  0  0  0  0  0  0  0  0  0  0
   -5.6080   26.4200  -30.2630 O   0  0  0  0  0  0  0  0  0  0  0  0
   -5.1630   24.9090  -28.4000 O   0  0  0  0  0  0  0  0  0  0  0  0
   -3.5910   24.7420  -30.5260 N   0  0  0  0  0  0  0  0  0  0  0  0
   -2.5620   24.2110  -29.6890 C   0  0  0  0  0  0  0  0  0  0  0  0
   -2.2540   24.8630  -28.4860 C   0  0  0  0  0  0  0  0  0  0  0  0
   -1.2670   24.3550  -27.6390 C   0  0  0  0  0  0  0  0  0  0  0  0
   -0.5770   23.1930  -27.9900 C   0  0  0  0  0  0  0  0  0  0  0  0
   -0.8800   22.5300  -29.1830 C   0  0  0  0  0  0  0  0  0  0  0  0
   -1.8800   23.0230  -30.0430 C   0  0  0  0  0  0  0  0  0  0  0  0
   -2.2060   22.2820  -31.2860 C   0  0  0  0  0  0  0  0  0  0  0  0
   -1.3250   21.5710  -31.8430 O   0  0  0  0  0  0  0  0  0  0  0  0
   -3.5130   22.3860  -31.8710 N   0  0  0  0  0  0  0  0  0  0  0  0
   -3.9370   21.5880  -33.0220 C   0  0  0  0  0  0  0  0  0  0  0  0
   -4.7960   20.3980  -32.5870 C   0  0  0  0  0  0  0  0  0  0  0  0
   -5.8800   20.2800  -33.4400 F   0  0  0  0  0  0  0  0  0  0  0  0
   -5.2620   20.5960  -31.2990 F   0  0  0  0  0  0  0  0  0  0  0  0
   -4.0610   19.2250  -32.6320 F   0  0  0  0  0  0  0  0  0  0  0  0
   -6.9920   22.9710  -29.7640 C   0  0  0  0  0  0  0  0  0  0  0  0
   -7.8720   22.0360  -30.3180 C   0  0  0  0  0  0  0  0  0  0  0  0
   -8.5967   19.4735  -30.8195 H   0  0  0  0  0  0  0  0  0  0  0  0
   -9.3560   18.8489  -32.3228 H   0  0  0  0  0  0  0  0  0  0  0  0
   -7.6245   19.3269  -32.3228 H   0  0  0  0  0  0  0  0  0  0  0  0
   -8.9868   21.0692  -33.4039 H   0  0  0  0  0  0  0  0  0  0  0  0
  -10.0246   21.1807  -31.9292 H   0  0  0  0  0  0  0  0  0  0  0  0
   -7.4540   22.7902  -33.6309 H   0  0  0  0  0  0  0  0  0  0  0  0
   -5.8845   24.4550  -32.6406 H   0  0  0  0  0  0  0  0  0  0  0  0
   -2.7935   25.7804  -28.2080 H   0  0  0  0  0  0  0  0  0  0  0  0
   -1.0331   24.8700  -26.6956 H   0  0  0  0  0  0  0  0  0  0  0  0
    0.2066   22.7984  -27.3265 H   0  0  0  0  0  0  0  0  0  0  0  0
   -0.3322   21.6149  -29.4523 H   0  0  0  0  0  0  0  0  0  0  0  0
   -4.1610   23.1350  -31.5370 H   0  0  0  0  0  0  0  0  0  0  0  0
   -4.5230   22.2234  -33.7023 H   0  0  0  0  0  0  0  0  0  0  0  0
   -3.0391   21.2022  -33.5269 H   0  0  0  0  0  0  0  0  0  0  0  0
   -6.8483   23.0102  -28.6741 H   0  0  0  0  0  0  0  0  0  0  0  0
   -8.4162   21.3406  -29.6621 H   0  0  0  0  0  0  0  0  0  0  0  0
  1  2  1  0
  2  3  1  0
  3  4  2  0
  4  5  1  0
  5  6  2  0
  6  7  1  0
  7  8  2  0
  7  9  2  0
  7 10  1  0
 10 11  1  0
 11 12  2  0
 12 13  1  0
 13 14  2  0
 14 15  1  0
 15 16  2  0
 16 17  1  0
 17 18  2  0
 17 19  1  0
 19 20  1  0
 20 21  1  0
 21 22  1  0
 21 23  1  0
 21 24  1  0
  6 25  1  0
 25 26  2  0
 26  3  1  0
 16 11  1  0
  1 27  1  0
  1 28  1  0
  1 29  1  0
  2 30  1  0
  2 31  1  0
  4 32  1  0
  5 33  1  0
 12 34  1  0
 13 35  1  0
 14 36  1  0
 15 37  1  0
 19 38  1  0
 20 39  1  0
 20 40  1  0
 25 41  1  0
 26 42  1  0
M  CHG  1  10  -1
M  END
>  <UniqueID>  (28) 
27

>  <SMILES>  (28) 
CCc1ccc(S(=O)(=O)[N-]c2ccccc2C(=O)NCC(F)(F)F)cc1

>  <Energy>  (28) 
44.643618226931174

>  <Genealogy>  (28) 
CCc1ccc(S(=O)(=O)[N-]c2ccccc2C(=O)NCC(F)(F)F)cc1 (protonated)
CCc1ccc(S(=O)(=O)[N-]c2ccccc2C(=O)NCC(F)(F)F)cc1 (3D coordinates assigned)
CCc1ccc(S(=O)(=O)[N-]c2ccccc2C(=O)NCC(F)(F)F)cc1 (optimized conformer: 44.643618226931174 kcal/mol)

>  <smiles>  (28) 
CCc1ccc(S(=O)(=O)Nc2ccccc2C(=O)NCC(F)(F)F)cc1

>  <score_type>  (28) 
oracle

>  <origin>  (28) 
adgpu

>  <m_score__min__energy>  (28) 
-9.0999999999999996

>  <m_primary>  (28) 
energy

$$$$
28:0
     RDKit          3D

 64 67  0  0  0  0  0  0  0  0999 V2000
    0.9470   15.9690  -34.3850 C   0  0  0  0  0  0  0  0  0  0  0  0
   -0.1130   16.8230  -34.9230 N   0  0  0  0  0  0  0  0  0  0  0  0
   -1.3330   16.2050  -35.4630 C   0  0  0  0  0  0  0  0  0  0  0  0
   -2.5260   16.4290  -34.5750 C   0  0  0  0  0  0  0  0  0  0  0  0
   -2.3920   16.4650  -33.3200 O   0  0  0  0  0  0  0  0  0  0  0  0
   -3.8220   16.6030  -35.1690 N   0  0  0  0  0  0  0  0  0  0  0  0
   -4.9390   17.2150  -34.5020 C   0  0  0  0  0  0  0  0  0  0  0  0
   -5.9480   16.4420  -33.8990 C   0  0  0  0  0  0  0  0  0  0  0  0
   -6.9970   17.0630  -33.2140 C   0  0  0  0  0  0  0  0  0  0  0  0
   -7.0480   18.4570  -33.1110 C   0  0  0  0  0  0  0  0  0  0  0  0
   -8.3870   19.2140  -32.2490 S   0  0  0  0  0  0  0  0  0  0  0  0
   -8.5160   18.6280  -30.8680 O   0  0  0  0  0  0  0  0  0  0  0  0
   -9.6600   18.9450  -33.0060 O   0  0  0  0  0  0  0  0  0  0  0  0
   -8.1070   20.9340  -32.1470 N   0  0  0  0  0  0  0  0  0  0  0  0
   -7.3660   21.2500  -30.9140 C   0  0  0  0  0  0  0  0  0  0  0  0
   -7.2740   22.7750  -30.7090 C   0  0  0  0  0  0  0  0  0  0  0  0
   -7.7860   23.4770  -31.8250 O   0  0  0  0  0  0  0  0  0  0  0  0
   -9.1580   23.1690  -31.9880 C   0  0  0  0  0  0  0  0  0  0  0  0
   -9.3890   21.6530  -32.1690 C   0  0  0  0  0  0  0  0  0  0  0  0
   -6.0460   19.2310  -33.7070 C   0  0  0  0  0  0  0  0  0  0  0  0
   -4.9920   18.6130  -34.3890 C   0  0  0  0  0  0  0  0  0  0  0  0
    0.0450   18.2560  -34.9070 C   0  0  0  0  0  0  0  0  0  0  0  0
   -0.1900   19.0080  -33.7360 C   0  0  0  0  0  0  0  0  0  0  0  0
   -0.7330   18.3480  -32.5800 N   0  0  0  0  0  0  0  0  0  0  0  0
    0.0380   20.3700  -33.7370 N   0  0  0  0  0  0  0  0  0  0  0  0
   -0.1640   21.1790  -32.5110 C   0  0  0  0  0  0  0  0  0  0  0  0
   -1.6200   21.5290  -32.3160 C   0  0  0  0  0  0  0  0  0  0  0  0
   -2.5500   21.2880  -33.3430 C   0  0  0  0  0  0  0  0  0  0  0  0
   -3.9020   21.5900  -33.1570 C   0  0  0  0  0  0  0  0  0  0  0  0
   -4.3410   22.1220  -31.9410 C   0  0  0  0  0  0  0  0  0  0  0  0
   -3.4280   22.3450  -30.9080 C   0  0  0  0  0  0  0  0  0  0  0  0
   -2.0730   22.0460  -31.0910 C   0  0  0  0  0  0  0  0  0  0  0  0
    0.4250   20.9910  -34.9030 C   0  0  0  0  0  0  0  0  0  0  0  0
    0.5930   22.2410  -34.9500 O   0  0  0  0  0  0  0  0  0  0  0  0
    0.6130   20.2710  -36.0370 N   0  0  0  0  0  0  0  0  0  0  0  0
    0.4370   18.9310  -36.0660 C   0  0  0  0  0  0  0  0  0  0  0  0
    0.6270   18.3060  -37.1430 O   0  0  0  0  0  0  0  0  0  0  0  0
    0.9157   15.9942  -33.2857 H   0  0  0  0  0  0  0  0  0  0  0  0
    0.7975   14.9361  -34.7325 H   0  0  0  0  0  0  0  0  0  0  0  0
    1.9244   16.3349  -34.7325 H   0  0  0  0  0  0  0  0  0  0  0  0
   -1.5415   16.6388  -36.4521 H   0  0  0  0  0  0  0  0  0  0  0  0
   -1.1607   15.1206  -35.5288 H   0  0  0  0  0  0  0  0  0  0  0  0
   -3.9730   16.2230  -36.1320 H   0  0  0  0  0  0  0  0  0  0  0  0
   -5.9116   15.3447  -33.9667 H   0  0  0  0  0  0  0  0  0  0  0  0
   -7.7869   16.4515  -32.7534 H   0  0  0  0  0  0  0  0  0  0  0  0
   -7.8862   20.8010  -30.0550 H   0  0  0  0  0  0  0  0  0  0  0  0
   -6.3478   20.8427  -30.9992 H   0  0  0  0  0  0  0  0  0  0  0  0
   -7.8530   23.0517  -29.8156 H   0  0  0  0  0  0  0  0  0  0  0  0
   -6.2147   23.0448  -30.5862 H   0  0  0  0  0  0  0  0  0  0  0  0
   -9.7072   23.5088  -31.0976 H   0  0  0  0  0  0  0  0  0  0  0  0
   -9.5173   23.6796  -32.8936 H   0  0  0  0  0  0  0  0  0  0  0  0
  -10.0262   21.2832  -31.3522 H   0  0  0  0  0  0  0  0  0  0  0  0
   -9.8792   21.4796  -33.1383 H   0  0  0  0  0  0  0  0  0  0  0  0
   -6.0871   20.3281  -33.6392 H   0  0  0  0  0  0  0  0  0  0  0  0
   -4.1989   19.2275  -34.8400 H   0  0  0  0  0  0  0  0  0  0  0  0
   -1.7560   18.2660  -32.4040 H   0  0  0  0  0  0  0  0  0  0  0  0
   -0.1080   17.9360  -31.8510 H   0  0  0  0  0  0  0  0  0  0  0  0
    0.1855   20.6038  -31.6409 H   0  0  0  0  0  0  0  0  0  0  0  0
    0.4061   22.1140  -32.6152 H   0  0  0  0  0  0  0  0  0  0  0  0
   -2.2116   20.8595  -34.2979 H   0  0  0  0  0  0  0  0  0  0  0  0
   -4.6218   21.4088  -33.9688 H   0  0  0  0  0  0  0  0  0  0  0  0
   -5.4043   22.3647  -31.7980 H   0  0  0  0  0  0  0  0  0  0  0  0
   -3.7745   22.7565  -29.9485 H   0  0  0  0  0  0  0  0  0  0  0  0
   -1.3593   22.2167  -30.2715 H   0  0  0  0  0  0  0  0  0  0  0  0
  1  2  1  0
  2  3  1  0
  3  4  1  0
  4  5  2  0
  4  6  1  0
  6  7  1  0
  7  8  2  0
  8  9  1  0
  9 10  2  0
 10 11  1  0
 11 12  2  0
 11 13  2  0
 11 14  1  0
 14 15  1  0
 15 16  1  0
 16 17  1  0
 17 18  1  0
 18 19  1  0
 10 20  1  0
 20 21  2  0
  2 22  1  0
 22 23  2  0
 23 24  1  0
 23 25  1  0
 25 26  1  0
 26 27  1  0
 27 28  2  0
 28 29  1  0
 29 30  2  0
 30 31  1  0
 31 32  2  0
 25 33  1  0
 33 34  2  0
 33 35  1  0
 35 36  1  0
 36 37  2  0
 21  7  1  0
 36 22  1  0
 19 14  1  0
 32 27  1  0
  1 38  1  0
  1 39  1  0
  1 40  1  0
  3 41  1  0
  3 42  1  0
  6 43  1  0
  8 44  1  0
  9 45  1  0
 15 46  1  0
 15 47  1  0
 16 48  1  0
 16 49  1  0
 18 50  1  0
 18 51  1  0
 19 52  1  0
 19 53  1  0
 20 54  1  0
 21 55  1  0
 24 56  1  0
 24 57  1  0
 26 58  1  0
 26 59  1  0
 28 60  1  0
 29 61  1  0
 30 62  1  0
 31 63  1  0
 32 64  1  0
M  CHG  1  35  -1
M  END
>  <UniqueID>  (29) 
28

>  <SMILES>  (29) 
CN(CC(=O)Nc1ccc(S(=O)(=O)N2CCOCC2)cc1)c1c(N)n(Cc2ccccc2)c(=O)[n-]c1=O

>  <Energy>  (29) 
90.32169831916104

>  <Genealogy>  (29) 
CN(CC(=O)Nc1ccc(S(=O)(=O)N2CCOCC2)cc1)c1c(N)n(Cc2ccccc2)c(=O)[n-]c1=O (protonated)
CN(CC(=O)Nc1ccc(S(=O)(=O)N2CCOCC2)cc1)c1c(N)n(Cc2ccccc2)c(=O)[n-]c1=O (3D coordinates assigned)
CN(CC(=O)Nc1ccc(S(=O)(=O)N2CCOCC2)cc1)c1c(N)n(Cc2ccccc2)c(=O)[n-]c1=O (nonaromatic ring conformer: 90.32169831916104 kcal/mol)

>  <smiles>  (29) 
CN(CC(=O)Nc1ccc(S(=O)(=O)N2CCOCC2)cc1)c1c(N)n(Cc2ccccc2)c(=O)[nH]c1=O

>  <score_type>  (29) 
oracle

>  <origin>  (29) 
adgpu

>  <m_score__min__energy>  (29) 
-9.7599999999999998

>  <m_primary>  (29) 
energy

$$$$
29:0
     RDKit          3D

 29 30  0  0  0  0  0  0  0  0999 V2000
   -1.4800   21.5570  -31.2930 C   0  0  0  0  0  0  0  0  0  0  0  0
   -1.8160   22.5480  -30.1840 C   0  0  0  0  0  0  0  0  0  0  0  0
   -3.1970   23.1210  -30.3810 C   0  0  0  0  0  0  0  0  0  0  0  0
   -4.2330   22.2940  -30.8480 C   0  0  0  0  0  0  0  0  0  0  0  0
   -5.5350   22.7960  -31.0120 C   0  0  0  0  0  0  0  0  0  0  0  0
   -6.6060   21.9090  -31.5220 C   0  0  0  0  0  0  0  0  0  0  0  0
   -7.8800   21.9260  -30.9280 C   0  0  0  0  0  0  0  0  0  0  0  0
   -8.8990   21.1020  -31.4110 C   0  0  0  0  0  0  0  0  0  0  0  0
   -8.6610   20.2510  -32.4950 C   0  0  0  0  0  0  0  0  0  0  0  0
   -9.6860   19.4340  -32.9660 O   0  0  0  0  0  0  0  0  0  0  0  0
   -7.3960   20.2280  -33.0950 C   0  0  0  0  0  0  0  0  0  0  0  0
   -6.3720   21.0510  -32.6150 C   0  0  0  0  0  0  0  0  0  0  0  0
   -5.1480   20.9930  -33.1990 F   0  0  0  0  0  0  0  0  0  0  0  0
   -5.7990   24.1410  -30.6920 C   0  0  0  0  0  0  0  0  0  0  0  0
   -7.0810   24.6650  -30.8210 O   0  0  0  0  0  0  0  0  0  0  0  0
   -4.7730   24.9630  -30.2180 C   0  0  0  0  0  0  0  0  0  0  0  0
   -3.4790   24.4600  -30.0550 C   0  0  0  0  0  0  0  0  0  0  0  0
   -2.4820   25.2970  -29.5660 O   0  0  0  0  0  0  0  0  0  0  0  0
   -1.1570   20.6043  -30.8479 H   0  0  0  0  0  0  0  0  0  0  0  0
   -2.3709   21.3875  -31.9156 H   0  0  0  0  0  0  0  0  0  0  0  0
   -0.6697   21.9643  -31.9156 H   0  0  0  0  0  0  0  0  0  0  0  0
   -1.7744   22.0316  -29.2136 H   0  0  0  0  0  0  0  0  0  0  0  0
   -1.0852   23.3697  -30.2109 H   0  0  0  0  0  0  0  0  0  0  0  0
   -4.0220   21.2414  -31.0879 H   0  0  0  0  0  0  0  0  0  0  0  0
   -8.0759   22.5936  -30.0760 H   0  0  0  0  0  0  0  0  0  0  0  0
   -9.8916   21.1224  -30.9374 H   0  0  0  0  0  0  0  0  0  0  0  0
   -9.7980   19.2420  -33.9540 H   0  0  0  0  0  0  0  0  0  0  0  0
   -7.2067   19.5595  -33.9478 H   0  0  0  0  0  0  0  0  0  0  0  0
   -4.9853   26.0138  -29.9713 H   0  0  0  0  0  0  0  0  0  0  0  0
  1  2  1  0
  2  3  1  0
  3  4  2  0
  4  5  1  0
  5  6  1  0
  6  7  2  0
  7  8  1  0
  8  9  2  0
  9 10  1  0
  9 11  1  0
 11 12  2  0
 12 13  1  0
  5 14  2  0
 14 15  1  0
 14 16  1  0
 16 17  2  0
 17 18  1  0
 17  3  1  0
 12  6  1  0
  1 19  1  0
  1 20  1  0
  1 21  1  0
  2 22  1  0
  2 23  1  0
  4 24  1  0
  7 25  1  0
  8 26  1  0
 10 27  1  0
 11 28  1  0
 16 29  1  0
M  CHG  2  15  -1  18  -1
M  END
>  <UniqueID>  (30) 
29

>  <SMILES>  (30) 
CCc1cc(-c2ccc(O)cc2F)c([O-])cc1[O-]

>  <Energy>  (30) 
33.97042453026582

>  <Genealogy>  (30) 
CCc1cc(-c2ccc(O)cc2F)c([O-])cc1[O-] (protonated)
CCc1cc(-c2ccc(O)cc2F)c([O-])cc1[O-] (3D coordinates assigned)
CCc1cc(-c2ccc(O)cc2F)c([O-])cc1[O-] (optimized conformer: 33.97042453026582 kcal/mol)

>  <smiles>  (30) 
CCc1cc(-c2ccc(O)cc2F)c(O)cc1O

>  <score_type>  (30) 
oracle

>  <origin>  (30) 
adgpu

>  <m_score__min__energy>  (30) 
-9.3499999999999996

>  <m_primary>  (30) 
energy

$$$$
30:0
     RDKit          3D

 43 44  0  0  0  0  0  0  0  0999 V2000
   -8.7250   22.9840  -31.9740 C   0  0  0  0  0  0  0  0  0  0  0  0
   -7.7710   21.8390  -32.0470 C   0  0  0  0  0  0  0  0  0  0  0  0
   -8.2150   20.6760  -32.2380 O   0  0  0  0  0  0  0  0  0  0  0  0
   -6.3700   22.0550  -31.8360 N   0  0  0  0  0  0  0  0  0  0  0  0
   -5.4060   20.9550  -31.8150 C   0  0  0  0  0  0  0  0  0  0  0  0
   -4.0240   21.4680  -31.3950 C   0  0  0  0  0  0  0  0  0  0  0  0
   -3.8810   22.9040  -31.6540 N   0  0  0  0  0  0  0  0  0  0  0  0
   -4.0190   23.8600  -30.2050 S   0  0  0  0  0  0  0  0  0  0  0  0
   -3.9080   25.3100  -30.5810 O   0  0  0  0  0  0  0  0  0  0  0  0
   -5.3780   23.6440  -29.5990 O   0  0  0  0  0  0  0  0  0  0  0  0
   -2.7340   23.5000  -29.0380 C   0  0  0  0  0  0  0  0  0  0  0  0
   -2.7420   22.2520  -28.4010 C   0  0  0  0  0  0  0  0  0  0  0  0
   -1.7490   21.9170  -27.4750 C   0  0  0  0  0  0  0  0  0  0  0  0
   -1.7470   20.3180  -26.7410 S   0  0  0  0  0  0  0  0  0  0  0  0
   -1.6410   20.4150  -25.2450 O   0  0  0  0  0  0  0  0  0  0  0  0
   -3.0250   19.6160  -27.1020 O   0  0  0  0  0  0  0  0  0  0  0  0
   -0.4000   19.4060  -27.3490 N   0  0  0  0  0  0  0  0  0  0  0  0
   -0.1770   19.1100  -28.7330 C   0  0  0  0  0  0  0  0  0  0  0  0
   -0.5840   19.9940  -29.7490 C   0  0  0  0  0  0  0  0  0  0  0  0
   -0.3600   19.6760  -31.0920 C   0  0  0  0  0  0  0  0  0  0  0  0
    0.2650   18.4770  -31.4350 C   0  0  0  0  0  0  0  0  0  0  0  0
    0.6770   17.5940  -30.4350 C   0  0  0  0  0  0  0  0  0  0  0  0
    0.4650   17.9090  -29.0860 C   0  0  0  0  0  0  0  0  0  0  0  0
    0.9770   16.7680  -27.8560 Cl  0  0  0  0  0  0  0  0  0  0  0  0
   -0.7480   22.8450  -27.1680 C   0  0  0  0  0  0  0  0  0  0  0  0
   -0.7380   24.0950  -27.7930 C   0  0  0  0  0  0  0  0  0  0  0  0
   -1.7220   24.4260  -28.7280 C   0  0  0  0  0  0  0  0  0  0  0  0
   -1.6810   25.6750  -29.3350 O   0  0  0  0  0  0  0  0  0  0  0  0
   -8.9269   23.2264  -30.9202 H   0  0  0  0  0  0  0  0  0  0  0  0
   -8.2856   23.8598  -32.4740 H   0  0  0  0  0  0  0  0  0  0  0  0
   -9.6657   22.7099  -32.4740 H   0  0  0  0  0  0  0  0  0  0  0  0
   -6.0390   23.0080  -31.5660 H   0  0  0  0  0  0  0  0  0  0  0  0
   -5.7426   20.1909  -31.0989 H   0  0  0  0  0  0  0  0  0  0  0  0
   -5.3358   20.5210  -32.8233 H   0  0  0  0  0  0  0  0  0  0  0  0
   -3.8863   21.2836  -30.3193 H   0  0  0  0  0  0  0  0  0  0  0  0
   -3.2644   20.9342  -31.9849 H   0  0  0  0  0  0  0  0  0  0  0  0
   -3.5376   21.5283  -28.6317 H   0  0  0  0  0  0  0  0  0  0  0  0
   -1.0806   20.9395  -29.4856 H   0  0  0  0  0  0  0  0  0  0  0  0
   -0.6777   20.3737  -31.8808 H   0  0  0  0  0  0  0  0  0  0  0  0
    0.4332   18.2273  -32.4930 H   0  0  0  0  0  0  0  0  0  0  0  0
    1.1693   16.6486  -30.7067 H   0  0  0  0  0  0  0  0  0  0  0  0
    0.0313   22.5907  -26.4345 H   0  0  0  0  0  0  0  0  0  0  0  0
    0.0494   24.8227  -27.5473 H   0  0  0  0  0  0  0  0  0  0  0  0
  1  2  1  0
  2  3  2  0
  2  4  1  0
  4  5  1  0
  5  6  1  0
  6  7  1  0
  7  8  1  0
  8  9  2  0
  8 10  2  0
  8 11  1  0
 11 12  2  0
 12 13  1  0
 13 14  1  0
 14 15  2  0
 14 16  2  0
 14 17  1  0
 17 18  1  0
 18 19  2  0
 19 20  1  0
 20 21  2  0
 21 22  1  0
 22 23  2  0
 23 24  1  0
 13 25  2  0
 25 26  1  0
 26 27  2  0
 27 28  1  0
 27 11  1  0
 23 18  1  0
  1 29  1  0
  1 30  1  0
  1 31  1  0
  4 32  1  0
  5 33  1  0
  5 34  1  0
  6 35  1  0
  6 36  1  0
 12 37  1  0
 19 38  1  0
 20 39  1  0
 21 40  1  0
 22 41  1  0
 25 42  1  0
 26 43  1  0
M  CHG  3   7  -1  17  -1  28  -1
M  END
>  <UniqueID>  (31) 
30

>  <SMILES>  (31) 
CC(=O)NCC[N-]S(=O)(=O)c1cc(S(=O)(=O)[N-]c2ccccc2Cl)ccc1[O-]

>  <Energy>  (31) 
41.748793931091555

>  <Genealogy>  (31) 
CC(=O)NCC[N-]S(=O)(=O)c1cc(S(=O)(=O)[N-]c2ccccc2Cl)ccc1[O-] (protonated)
CC(=O)NCC[N-]S(=O)(=O)c1cc(S(=O)(=O)[N-]c2ccccc2Cl)ccc1[O-] (3D coordinates assigned)
CC(=O)NCC[N-]S(=O)(=O)c1cc(S(=O)(=O)[N-]c2ccccc2Cl)ccc1[O-] (optimized conformer: 41.748793931091555 kcal/mol)

>  <smiles>  (31) 
CC(=O)NCCNS(=O)(=O)c1cc(S(=O)(=O)Nc2ccccc2Cl)ccc1O

>  <score_type>  (31) 
oracle

>  <origin>  (31) 
adgpu

>  <m_score__min__energy>  (31) 
-11.56

>  <m_primary>  (31) 
energy

$$$$
31:0
     RDKit          3D

 57 61  0  0  0  0  0  0  0  0999 V2000
   -3.8920   25.0410  -30.8360 O   0  0  0  0  0  0  0  0  0  0  0  0
   -3.7270   23.8060  -30.6640 C   0  0  0  0  0  0  0  0  0  0  0  0
   -2.6340   23.3640  -29.8470 N   0  0  0  0  0  0  0  0  0  0  0  0
   -1.7560   22.2640  -30.1350 C   0  0  0  0  0  0  0  0  0  0  0  0
   -1.3160   21.3860  -29.1270 C   0  0  0  0  0  0  0  0  0  0  0  0
   -0.4780   20.3140  -29.4480 C   0  0  0  0  0  0  0  0  0  0  0  0
   -0.0890   20.1000  -30.7730 C   0  0  0  0  0  0  0  0  0  0  0  0
   -0.5410   20.9540  -31.7870 C   0  0  0  0  0  0  0  0  0  0  0  0
   -0.0800   20.6600  -33.4660 S   0  0  0  0  0  0  0  0  0  0  0  0
    1.3490   20.1940  -33.5160 O   0  0  0  0  0  0  0  0  0  0  0  0
   -0.1730   21.9490  -34.2380 O   0  0  0  0  0  0  0  0  0  0  0  0
   -1.1080   19.4610  -34.2260 N   0  0  0  0  0  0  0  0  0  0  0  0
   -2.5130   19.6490  -33.8470 C   0  0  0  0  0  0  0  0  0  0  0  0
   -2.8380   18.6790  -32.7200 C   0  0  0  0  0  0  0  0  0  0  0  0
   -1.7120   17.6610  -32.7150 C   0  0  0  0  0  0  0  0  0  0  0  0
   -0.7450   18.1020  -33.8080 C   0  0  0  0  0  0  0  0  0  0  0  0
   -1.3750   22.0340  -31.4620 C   0  0  0  0  0  0  0  0  0  0  0  0
   -4.6940   22.8550  -31.2580 C   0  0  0  0  0  0  0  0  0  0  0  0
   -6.0230   22.8280  -30.8080 C   0  0  0  0  0  0  0  0  0  0  0  0
   -6.9420   21.9390  -31.3720 C   0  0  0  0  0  0  0  0  0  0  0  0
   -6.5430   21.0500  -32.3820 C   0  0  0  0  0  0  0  0  0  0  0  0
   -7.5280   20.0730  -32.9640 C   0  0  0  0  0  0  0  0  0  0  0  0
   -6.9000   18.7670  -33.1450 N   0  0  0  0  0  0  0  0  0  0  0  0
   -6.1220   18.3530  -34.2720 C   0  0  0  0  0  0  0  0  0  0  0  0
   -6.0900   18.9620  -35.3750 O   0  0  0  0  0  0  0  0  0  0  0  0
   -5.3600   17.1530  -33.9400 C   0  0  0  0  0  0  0  0  0  0  0  0
   -4.4780   16.3910  -34.7060 C   0  0  0  0  0  0  0  0  0  0  0  0
   -3.8760   15.2730  -34.1000 C   0  0  0  0  0  0  0  0  0  0  0  0
   -4.1630   14.9440  -32.7570 C   0  0  0  0  0  0  0  0  0  0  0  0
   -5.0520   15.7330  -32.0050 C   0  0  0  0  0  0  0  0  0  0  0  0
   -5.6370   16.8340  -32.6280 C   0  0  0  0  0  0  0  0  0  0  0  0
   -6.5740   17.8280  -32.1180 C   0  0  0  0  0  0  0  0  0  0  0  0
   -7.0340   17.8710  -30.9470 O   0  0  0  0  0  0  0  0  0  0  0  0
   -5.2060   21.0540  -32.8100 C   0  0  0  0  0  0  0  0  0  0  0  0
   -4.2890   21.9480  -32.2530 C   0  0  0  0  0  0  0  0  0  0  0  0
   -1.6319   21.5434  -28.0852 H   0  0  0  0  0  0  0  0  0  0  0  0
   -0.1241   19.6376  -28.6560 H   0  0  0  0  0  0  0  0  0  0  0  0
    0.5743   19.2581  -31.0205 H   0  0  0  0  0  0  0  0  0  0  0  0
   -2.6709   20.6826  -33.5053 H   0  0  0  0  0  0  0  0  0  0  0  0
   -3.1671   19.4592  -34.7108 H   0  0  0  0  0  0  0  0  0  0  0  0
   -2.8792   19.2097  -31.7574 H   0  0  0  0  0  0  0  0  0  0  0  0
   -3.8172   18.1999  -32.8672 H   0  0  0  0  0  0  0  0  0  0  0  0
   -1.2072   17.6537  -31.7377 H   0  0  0  0  0  0  0  0  0  0  0  0
   -2.0874   16.6428  -32.8947 H   0  0  0  0  0  0  0  0  0  0  0  0
    0.2838   18.0952  -33.4188 H   0  0  0  0  0  0  0  0  0  0  0  0
   -0.8035   17.4145  -34.6647 H   0  0  0  0  0  0  0  0  0  0  0  0
   -1.7325   22.7056  -32.2565 H   0  0  0  0  0  0  0  0  0  0  0  0
   -6.3431   23.5104  -30.0069 H   0  0  0  0  0  0  0  0  0  0  0  0
   -7.9848   21.9360  -31.0220 H   0  0  0  0  0  0  0  0  0  0  0  0
   -8.3851   19.9721  -32.2820 H   0  0  0  0  0  0  0  0  0  0  0  0
   -7.8664   20.4459  -33.9420 H   0  0  0  0  0  0  0  0  0  0  0  0
   -4.2599   16.6558  -35.7511 H   0  0  0  0  0  0  0  0  0  0  0  0
   -3.1763   14.6503  -34.6768 H   0  0  0  0  0  0  0  0  0  0  0  0
   -3.6883   14.0652  -32.2961 H   0  0  0  0  0  0  0  0  0  0  0  0
   -5.2787   15.4885  -30.9568 H   0  0  0  0  0  0  0  0  0  0  0  0
   -4.8788   20.3490  -33.5884 H   0  0  0  0  0  0  0  0  0  0  0  0
   -3.2435   21.9425  -32.5948 H   0  0  0  0  0  0  0  0  0  0  0  0
  1  2  2  0
  2  3  1  0
  3  4  1  0
  4  5  2  0
  5  6  1  0
  6  7  2  0
  7  8  1  0
  8  9  1  0
  9 10  2  0
  9 11  2  0
  9 12  1  0
 12 13  1  0
 13 14  1  0
 14 15  1  0
 15 16  1  0
  8 17  2  0
  2 18  1  0
 18 19  2  0
 19 20  1  0
 20 21  2  0
 21 22  1  0
 22 23  1  0
 23 24  1  0
 24 25  2  0
 24 26  1  0
 26 27  2  0
 27 28  1  0
 28 29  2  0
 29 30  1  0
 30 31  2  0
 31 32  1  0
 32 33  2  0
 21 34  1  0
 34 35  2  0
 17  4  1  0
 35 18  1  0
 16 12  1  0
 32 23  1  0
 31 26  1  0
  5 36  1  0
  6 37  1  0
  7 38  1  0
 13 39  1  0
 13 40  1  0
 14 41  1  0
 14 42  1  0
 15 43  1  0
 15 44  1  0
 16 45  1  0
 16 46  1  0
 17 47  1  0
 19 48  1  0
 20 49  1  0
 22 50  1  0
 22 51  1  0
 27 52  1  0
 28 53  1  0
 29 54  1  0
 30 55  1  0
 34 56  1  0
 35 57  1  0
M  CHG  1   3  -1
M  END
>  <UniqueID>  (32) 
31

>  <SMILES>  (32) 
O=C([N-]c1cccc(S(=O)(=O)N2CCCC2)c1)c1ccc(CN2C(=O)c3ccccc3C2=O)cc1

>  <Energy>  (32) 
99.67733680977294

>  <Genealogy>  (32) 
O=C([N-]c1cccc(S(=O)(=O)N2CCCC2)c1)c1ccc(CN2C(=O)c3ccccc3C2=O)cc1 (protonated)
O=C([N-]c1cccc(S(=O)(=O)N2CCCC2)c1)c1ccc(CN2C(=O)c3ccccc3C2=O)cc1 (3D coordinates assigned)
O=C([N-]c1cccc(S(=O)(=O)N2CCCC2)c1)c1ccc(CN2C(=O)c3ccccc3C2=O)cc1 (nonaromatic ring conformer: 99.67733680977294 kcal/mol)

>  <smiles>  (32) 
O=C(Nc1cccc(S(=O)(=O)N2CCCC2)c1)c1ccc(CN2C(=O)c3ccccc3C2=O)cc1

>  <score_type>  (32) 
oracle

>  <origin>  (32) 
adgpu

>  <m_score__min__energy>  (32) 
-13.07

>  <m_primary>  (32) 
energy

$$$$
32:0
     RDKit          3D

 24 25  0  0  0  0  0  0  0  0999 V2000
   -3.6950   23.4310  -27.9430 O   0  0  0  0  0  0  0  0  0  0  0  0
   -4.3630   23.7130  -28.9730 C   0  0  0  0  0  0  0  0  0  0  0  0
   -5.5560   23.1080  -29.1960 N   0  0  0  0  0  0  0  0  0  0  0  0
   -6.2850   23.4060  -30.3020 C   0  0  0  0  0  0  0  0  0  0  0  0
   -7.8600   22.5980  -30.5760 S   0  0  0  0  0  0  0  0  0  0  0  0
   -7.4740   22.1790  -32.3070 C   0  0  0  0  0  0  0  0  0  0  0  0
   -7.4660   20.6830  -32.4740 C   0  0  0  0  0  0  0  0  0  0  0  0
   -8.6450   19.9570  -32.2260 C   0  0  0  0  0  0  0  0  0  0  0  0
   -8.6580   18.5640  -32.3480 C   0  0  0  0  0  0  0  0  0  0  0  0
   -7.4950   17.8830  -32.7090 C   0  0  0  0  0  0  0  0  0  0  0  0
   -6.3130   18.5900  -32.9430 C   0  0  0  0  0  0  0  0  0  0  0  0
   -6.2880   19.9850  -32.8230 C   0  0  0  0  0  0  0  0  0  0  0  0
   -4.7640   20.8190  -33.1080 Cl  0  0  0  0  0  0  0  0  0  0  0  0
   -5.8100   24.3160  -31.1960 N   0  0  0  0  0  0  0  0  0  0  0  0
   -4.6390   24.9200  -30.9930 N   0  0  0  0  0  0  0  0  0  0  0  0
   -3.8880   24.6460  -29.8960 C   0  0  0  0  0  0  0  0  0  0  0  0
   -2.6710   25.2880  -29.7060 O   0  0  0  0  0  0  0  0  0  0  0  0
   -8.2358   22.6173  -32.9685 H   0  0  0  0  0  0  0  0  0  0  0  0
   -6.4842   22.5814  -32.5686 H   0  0  0  0  0  0  0  0  0  0  0  0
   -9.5628   20.4885  -31.9342 H   0  0  0  0  0  0  0  0  0  0  0  0
   -9.5861   18.0046  -32.1592 H   0  0  0  0  0  0  0  0  0  0  0  0
   -7.5088   16.7877  -32.8095 H   0  0  0  0  0  0  0  0  0  0  0  0
   -5.3975   18.0482  -33.2229 H   0  0  0  0  0  0  0  0  0  0  0  0
   -6.3650   24.5490  -32.0490 H   0  0  0  0  0  0  0  0  0  0  0  0
  1  2  2  0
  2  3  1  0
  3  4  2  0
  4  5  1  0
  5  6  1  0
  6  7  1  0
  7  8  2  0
  8  9  1  0
  9 10  2  0
 10 11  1  0
 11 12  2  0
 12 13  1  0
  4 14  1  0
 14 15  1  0
 15 16  2  0
 16 17  1  0
 16  2  1  0
 12  7  1  0
  6 18  1  0
  6 19  1  0
  8 20  1  0
  9 21  1  0
 10 22  1  0
 11 23  1  0
 14 24  1  0
M  CHG  1  17  -1
M  END
>  <UniqueID>  (33) 
32

>  <SMILES>  (33) 
O=c1nc(SCc2ccccc2Cl)[nH]nc1[O-]

>  <Energy>  (33) 
23.07997030750214

>  <Genealogy>  (33) 
O=c1nc(SCc2ccccc2Cl)[nH]nc1[O-] (protonated)
O=c1nc(SCc2ccccc2Cl)[nH]nc1[O-] (3D coordinates assigned)
O=c1nc(SCc2ccccc2Cl)[nH]nc1[O-] (optimized conformer: 23.07997030750214 kcal/mol)

>  <smiles>  (33) 
O=c1nc(SCc2ccccc2Cl)[nH]nc1O

>  <score_type>  (33) 
oracle

>  <origin>  (33) 
adgpu

>  <m_score__min__energy>  (33) 
-10.76

>  <m_primary>  (33) 
energy

$$$$
33:0
     RDKit          3D

 42 45  0  0  0  0  0  0  0  0999 V2000
   -1.2640   26.6400  -28.9800 O   0  0  0  0  0  0  0  0  0  0  0  0
   -0.9550   26.5070  -27.6300 C   0  0  0  0  0  0  0  0  0  0  0  0
   -0.4640   27.6190  -26.9360 C   0  0  0  0  0  0  0  0  0  0  0  0
   -0.1280   27.5140  -25.5860 C   0  0  0  0  0  0  0  0  0  0  0  0
   -0.2850   26.2980  -24.9190 C   0  0  0  0  0  0  0  0  0  0  0  0
   -0.7770   25.1830  -25.6030 C   0  0  0  0  0  0  0  0  0  0  0  0
   -1.1160   25.2710  -26.9670 C   0  0  0  0  0  0  0  0  0  0  0  0
   -1.6560   24.0860  -27.6820 C   0  0  0  0  0  0  0  0  0  0  0  0
   -1.0390   22.8290  -27.5790 C   0  0  0  0  0  0  0  0  0  0  0  0
   -1.5830   21.7240  -28.2530 C   0  0  0  0  0  0  0  0  0  0  0  0
   -0.9490   20.3840  -28.1430 C   0  0  0  0  0  0  0  0  0  0  0  0
   -1.4290   19.4400  -27.2160 C   0  0  0  0  0  0  0  0  0  0  0  0
   -0.8310   18.1800  -27.1140 C   0  0  0  0  0  0  0  0  0  0  0  0
    0.2510   17.8490  -27.9350 C   0  0  0  0  0  0  0  0  0  0  0  0
    0.9990   16.2680  -27.8040 Cl  0  0  0  0  0  0  0  0  0  0  0  0
    0.7360   18.7780  -28.8580 C   0  0  0  0  0  0  0  0  0  0  0  0
    0.1400   20.0390  -28.9650 C   0  0  0  0  0  0  0  0  0  0  0  0
   -2.7370   21.9040  -29.0330 C   0  0  0  0  0  0  0  0  0  0  0  0
   -3.3160   23.1770  -29.1390 C   0  0  0  0  0  0  0  0  0  0  0  0
   -4.5410   23.4050  -29.9420 C   0  0  0  0  0  0  0  0  0  0  0  0
   -5.5070   22.3870  -30.0170 C   0  0  0  0  0  0  0  0  0  0  0  0
   -6.6710   22.5660  -30.7690 C   0  0  0  0  0  0  0  0  0  0  0  0
   -6.8860   23.7670  -31.4490 C   0  0  0  0  0  0  0  0  0  0  0  0
   -5.9450   24.7940  -31.3690 C   0  0  0  0  0  0  0  0  0  0  0  0
   -4.7750   24.6270  -30.6110 C   0  0  0  0  0  0  0  0  0  0  0  0
   -3.8690   25.6810  -30.5030 O   0  0  0  0  0  0  0  0  0  0  0  0
   -2.7690   24.2180  -28.4550 N   0  0  0  0  0  0  0  0  0  0  0  0
   -0.3425   28.5800  -27.4573 H   0  0  0  0  0  0  0  0  0  0  0  0
    0.2610   28.3903  -25.0468 H   0  0  0  0  0  0  0  0  0  0  0  0
   -0.0213   26.2172  -23.8541 H   0  0  0  0  0  0  0  0  0  0  0  0
   -0.9006   24.2281  -25.0712 H   0  0  0  0  0  0  0  0  0  0  0  0
   -0.1302   22.7100  -26.9708 H   0  0  0  0  0  0  0  0  0  0  0  0
   -2.2801   19.6950  -26.5675 H   0  0  0  0  0  0  0  0  0  0  0  0
   -1.2126   17.4483  -26.3867 H   0  0  0  0  0  0  0  0  0  0  0  0
    1.5886   18.5176  -29.5024 H   0  0  0  0  0  0  0  0  0  0  0  0
    0.5248   20.7653  -29.6960 H   0  0  0  0  0  0  0  0  0  0  0  0
   -3.1856   21.0487  -29.5595 H   0  0  0  0  0  0  0  0  0  0  0  0
   -5.3454   21.4412  -29.4791 H   0  0  0  0  0  0  0  0  0  0  0  0
   -7.4183   21.7608  -30.8255 H   0  0  0  0  0  0  0  0  0  0  0  0
   -7.7983   23.9033  -32.0483 H   0  0  0  0  0  0  0  0  0  0  0  0
   -6.1207   25.7397  -31.9027 H   0  0  0  0  0  0  0  0  0  0  0  0
   -3.1140   25.6670  -29.8270 H   0  0  0  0  0  0  0  0  0  0  0  0
  1  2  1  0
  2  3  2  0
  3  4  1  0
  4  5  2  0
  5  6  1  0
  6  7  2  0
  7  8  1  0
  8  9  2  0
  9 10  1  0
 10 11  1  0
 11 12  2  0
 12 13  1  0
 13 14  2  0
 14 15  1  0
 14 16  1  0
 16 17  2  0
 10 18  2  0
 18 19  1  0
 19 20  1  0
 20 21  2  0
 21 22  1  0
 22 23  2  0
 23 24  1  0
 24 25  2  0
 25 26  1  0
 19 27  2  0
  7  2  1  0
 27  8  1  0
 17 11  1  0
 25 20  1  0
  3 28  1  0
  4 29  1  0
  5 30  1  0
  6 31  1  0
  9 32  1  0
 12 33  1  0
 13 34  1  0
 16 35  1  0
 17 36  1  0
 18 37  1  0
 21 38  1  0
 22 39  1  0
 23 40  1  0
 24 41  1  0
 26 42  1  0
M  CHG  1   1  -1
M  END
>  <UniqueID>  (34) 
33

>  <SMILES>  (34) 
[O-]c1ccccc1-c1cc(-c2ccc(Cl)cc2)cc(-c2ccccc2O)n1

>  <Energy>  (34) 
63.23157885461666

>  <Genealogy>  (34) 
[O-]c1ccccc1-c1cc(-c2ccc(Cl)cc2)cc(-c2ccccc2O)n1 (protonated)
[O-]c1ccccc1-c1cc(-c2ccc(Cl)cc2)cc(-c2ccccc2O)n1 (3D coordinates assigned)
[O-]c1ccccc1-c1cc(-c2ccc(Cl)cc2)cc(-c2ccccc2O)n1 (optimized conformer: 63.23157885461666 kcal/mol)

>  <smiles>  (34) 
Oc1ccccc1-c1cc(-c2ccc(Cl)cc2)cc(-c2ccccc2O)n1

>  <score_type>  (34) 
oracle

>  <origin>  (34) 
adgpu

>  <m_score__min__energy>  (34) 
-12.710000000000001

>  <m_primary>  (34) 
energy

$$$$
34:0
     RDKit          3D

 38 40  0  0  0  0  0  0  0  0999 V2000
   -4.2100   23.2040  -28.3410 O   0  0  0  0  0  0  0  0  0  0  0  0
   -4.2220   24.3080  -28.9510 C   0  0  0  0  0  0  0  0  0  0  0  0
   -5.5250   24.9830  -29.2410 C   0  0  0  0  0  0  0  0  0  0  0  0
   -5.6670   25.4200  -31.0090 S   0  0  0  0  0  0  0  0  0  0  0  0
   -5.9430   23.7380  -31.5640 C   0  0  0  0  0  0  0  0  0  0  0  0
   -7.1960   23.1400  -31.4400 C   0  0  0  0  0  0  0  0  0  0  0  0
   -7.3680   21.8250  -31.8680 C   0  0  0  0  0  0  0  0  0  0  0  0
   -6.2750   21.1270  -32.4120 C   0  0  0  0  0  0  0  0  0  0  0  0
   -6.3870   19.7210  -32.8780 C   0  0  0  0  0  0  0  0  0  0  0  0
   -5.7250   19.3210  -34.0540 C   0  0  0  0  0  0  0  0  0  0  0  0
   -5.8070   17.9980  -34.5030 C   0  0  0  0  0  0  0  0  0  0  0  0
   -6.5430   17.0550  -33.7820 C   0  0  0  0  0  0  0  0  0  0  0  0
   -6.6160   15.7430  -34.2410 O   0  0  0  0  0  0  0  0  0  0  0  0
   -7.1960   17.4380  -32.6040 C   0  0  0  0  0  0  0  0  0  0  0  0
   -7.1170   18.7580  -32.1520 C   0  0  0  0  0  0  0  0  0  0  0  0
   -5.0840   21.7760  -32.5250 N   0  0  0  0  0  0  0  0  0  0  0  0
   -4.9230   23.0350  -32.1150 N   0  0  0  0  0  0  0  0  0  0  0  0
   -2.9950   24.9170  -29.3710 N   0  0  0  0  0  0  0  0  0  0  0  0
   -1.7030   24.2430  -29.3060 C   0  0  0  0  0  0  0  0  0  0  0  0
   -1.7970   22.8840  -29.9250 C   0  0  0  0  0  0  0  0  0  0  0  0
   -1.5280   21.6870  -29.2900 C   0  0  0  0  0  0  0  0  0  0  0  0
   -1.7140   20.7130  -30.2470 C   0  0  0  0  0  0  0  0  0  0  0  0
   -2.0780   21.3740  -31.4030 C   0  0  0  0  0  0  0  0  0  0  0  0
   -2.1170   22.6670  -31.1800 O   0  0  0  0  0  0  0  0  0  0  0  0
   -6.3478   24.3041  -28.9725 H   0  0  0  0  0  0  0  0  0  0  0  0
   -5.5756   25.9089  -28.6493 H   0  0  0  0  0  0  0  0  0  0  0  0
   -8.0393   23.6997  -31.0093 H   0  0  0  0  0  0  0  0  0  0  0  0
   -8.3501   21.3372  -31.7811 H   0  0  0  0  0  0  0  0  0  0  0  0
   -5.1378   20.0550  -34.6254 H   0  0  0  0  0  0  0  0  0  0  0  0
   -5.2900   17.6998  -35.4270 H   0  0  0  0  0  0  0  0  0  0  0  0
   -6.1470   14.9850  -33.7590 H   0  0  0  0  0  0  0  0  0  0  0  0
   -7.7735   16.6968  -32.0321 H   0  0  0  0  0  0  0  0  0  0  0  0
   -7.6285   19.0479  -31.2223 H   0  0  0  0  0  0  0  0  0  0  0  0
   -0.9547   24.8387  -29.8494 H   0  0  0  0  0  0  0  0  0  0  0  0
   -1.4060   24.1374  -28.2521 H   0  0  0  0  0  0  0  0  0  0  0  0
   -1.2285   21.5419  -28.2416 H   0  0  0  0  0  0  0  0  0  0  0  0
   -1.5961   19.6272  -30.1161 H   0  0  0  0  0  0  0  0  0  0  0  0
   -2.3015   20.8904  -32.3654 H   0  0  0  0  0  0  0  0  0  0  0  0
  1  2  2  0
  2  3  1  0
  3  4  1  0
  4  5  1  0
  5  6  2  0
  6  7  1  0
  7  8  2  0
  8  9  1  0
  9 10  2  0
 10 11  1  0
 11 12  2  0
 12 13  1  0
 12 14  1  0
 14 15  2  0
  8 16  1  0
 16 17  2  0
  2 18  1  0
 18 19  1  0
 19 20  1  0
 20 21  2  0
 21 22  1  0
 22 23  2  0
 23 24  1  0
 17  5  1  0
 24 20  1  0
 15  9  1  0
  3 25  1  0
  3 26  1  0
  6 27  1  0
  7 28  1  0
 10 29  1  0
 11 30  1  0
 13 31  1  0
 14 32  1  0
 15 33  1  0
 19 34  1  0
 19 35  1  0
 21 36  1  0
 22 37  1  0
 23 38  1  0
M  CHG  1  18  -1
M  END
>  <UniqueID>  (35) 
34

>  <SMILES>  (35) 
O=C(CSc1ccc(-c2ccc(O)cc2)nn1)[N-]Cc1ccco1

>  <Energy>  (35) 
61.07527577488753

>  <Genealogy>  (35) 
O=C(CSc1ccc(-c2ccc(O)cc2)nn1)[N-]Cc1ccco1 (protonated)
O=C(CSc1ccc(-c2ccc(O)cc2)nn1)[N-]Cc1ccco1 (3D coordinates assigned)
O=C(CSc1ccc(-c2ccc(O)cc2)nn1)[N-]Cc1ccco1 (optimized conformer: 61.07527577488753 kcal/mol)

>  <smiles>  (35) 
O=C(CSc1ccc(-c2ccc(O)cc2)nn1)NCc1ccco1

>  <score_type>  (35) 
oracle

>  <origin>  (35) 
adgpu

>  <m_score__min__energy>  (35) 
-10.220000000000001

>  <m_primary>  (35) 
energy

$$$$
35:0
     RDKit          3D

 23 23  0  0  0  0  0  0  0  0999 V2000
   -1.1930   25.9330  -28.1870 C   0  0  0  0  0  0  0  0  0  0  0  0
   -1.9770   25.2470  -29.2090 N   0  0  0  0  0  0  0  0  0  0  0  0
   -3.0010   24.0500  -28.4720 S   0  0  0  0  0  0  0  0  0  0  0  0
   -3.3420   24.4720  -27.0690 O   0  0  0  0  0  0  0  0  0  0  0  0
   -2.2530   22.7470  -28.4280 O   0  0  0  0  0  0  0  0  0  0  0  0
   -4.4870   23.8240  -29.4060 C   0  0  0  0  0  0  0  0  0  0  0  0
   -5.4040   22.8360  -29.0120 C   0  0  0  0  0  0  0  0  0  0  0  0
   -6.5770   22.6230  -29.7380 C   0  0  0  0  0  0  0  0  0  0  0  0
   -6.8660   23.4080  -30.8610 C   0  0  0  0  0  0  0  0  0  0  0  0
   -8.1060   23.1490  -31.6650 C   0  0  0  0  0  0  0  0  0  0  0  0
   -5.9560   24.3940  -31.2620 C   0  0  0  0  0  0  0  0  0  0  0  0
   -4.7790   24.6210  -30.5380 C   0  0  0  0  0  0  0  0  0  0  0  0
   -3.9340   25.6460  -30.9690 O   0  0  0  0  0  0  0  0  0  0  0  0
   -1.5426   25.6271  -27.1899 H   0  0  0  0  0  0  0  0  0  0  0  0
   -0.1313   25.6686  -28.3004 H   0  0  0  0  0  0  0  0  0  0  0  0
   -1.3142   27.0204  -28.3004 H   0  0  0  0  0  0  0  0  0  0  0  0
   -5.1957   22.2237  -28.1222 H   0  0  0  0  0  0  0  0  0  0  0  0
   -7.2779   21.8345  -29.4264 H   0  0  0  0  0  0  0  0  0  0  0  0
   -8.9530   22.9721  -30.9859 H   0  0  0  0  0  0  0  0  0  0  0  0
   -8.3207   24.0217  -32.2993 H   0  0  0  0  0  0  0  0  0  0  0  0
   -7.9534   22.2633  -32.2993 H   0  0  0  0  0  0  0  0  0  0  0  0
   -6.1684   24.9976  -32.1567 H   0  0  0  0  0  0  0  0  0  0  0  0
   -2.9430   25.6720  -30.7720 H   0  0  0  0  0  0  0  0  0  0  0  0
  1  2  1  0
  2  3  1  0
  3  4  2  0
  3  5  2  0
  3  6  1  0
  6  7  2  0
  7  8  1  0
  8  9  2  0
  9 10  1  0
  9 11  1  0
 11 12  2  0
 12 13  1  0
 12  6  1  0
  1 14  1  0
  1 15  1  0
  1 16  1  0
  7 17  1  0
  8 18  1  0
 10 19  1  0
 10 20  1  0
 10 21  1  0
 11 22  1  0
 13 23  1  0
M  CHG  1   2  -1
M  END
>  <UniqueID>  (36) 
35

>  <SMILES>  (36) 
C[N-]S(=O)(=O)c1ccc(C)cc1O

>  <Energy>  (36) 
21.09919505604247

>  <Genealogy>  (36) 
C[N-]S(=O)(=O)c1ccc(C)cc1O (protonated)
C[N-]S(=O)(=O)c1ccc(C)cc1O (3D coordinates assigned)
C[N-]S(=O)(=O)c1ccc(C)cc1O (optimized conformer: 21.09919505604247 kcal/mol)

>  <smiles>  (36) 
CNS(=O)(=O)c1ccc(C)cc1O

>  <score_type>  (36) 
oracle

>  <origin>  (36) 
adgpu

>  <m_score__min__energy>  (36) 
-7.7300000000000004

>  <m_primary>  (36) 
energy

$$$$
36:0
     RDKit          3D

 40 42  0  0  0  0  0  0  0  0999 V2000
   -0.9380   18.6910  -27.4830 C   0  0  0  0  0  0  0  0  0  0  0  0
   -1.2060   20.1600  -27.6300 C   0  0  0  0  0  0  0  0  0  0  0  0
   -0.1490   21.0700  -27.6640 C   0  0  0  0  0  0  0  0  0  0  0  0
   -0.3850   22.4490  -27.7670 C   0  0  0  0  0  0  0  0  0  0  0  0
    0.8160   23.3610  -27.7920 C   0  0  0  0  0  0  0  0  0  0  0  0
   -1.7180   22.9330  -27.8780 C   0  0  0  0  0  0  0  0  0  0  0  0
   -2.0130   24.6760  -28.1620 S   0  0  0  0  0  0  0  0  0  0  0  0
   -2.9020   25.2980  -27.1240 O   0  0  0  0  0  0  0  0  0  0  0  0
   -0.6940   25.3940  -28.1500 O   0  0  0  0  0  0  0  0  0  0  0  0
   -2.7730   24.9140  -29.7030 N   0  0  0  0  0  0  0  0  0  0  0  0
   -4.0540   24.3850  -30.0760 C   0  0  0  0  0  0  0  0  0  0  0  0
   -5.2060   25.0640  -29.6570 C   0  0  0  0  0  0  0  0  0  0  0  0
   -6.4760   24.6000  -30.0110 C   0  0  0  0  0  0  0  0  0  0  0  0
   -6.6080   23.4510  -30.7940 C   0  0  0  0  0  0  0  0  0  0  0  0
   -7.8180   23.0120  -31.1350 O   0  0  0  0  0  0  0  0  0  0  0  0
   -8.0020   21.9240  -31.8800 C   0  0  0  0  0  0  0  0  0  0  0  0
   -9.1710   21.5580  -32.1690 O   0  0  0  0  0  0  0  0  0  0  0  0
   -6.9040   21.1890  -32.3410 C   0  0  0  0  0  0  0  0  0  0  0  0
   -5.6190   21.6120  -32.0070 C   0  0  0  0  0  0  0  0  0  0  0  0
   -5.4550   22.7580  -31.2220 C   0  0  0  0  0  0  0  0  0  0  0  0
   -4.1830   23.2230  -30.8600 C   0  0  0  0  0  0  0  0  0  0  0  0
   -2.7930   22.0070  -27.7530 C   0  0  0  0  0  0  0  0  0  0  0  0
   -4.2370   22.4360  -27.7380 C   0  0  0  0  0  0  0  0  0  0  0  0
   -2.5190   20.6340  -27.6450 C   0  0  0  0  0  0  0  0  0  0  0  0
   -0.8907   18.4320  -26.4150 H   0  0  0  0  0  0  0  0  0  0  0  0
   -1.7470   18.1208  -27.9631 H   0  0  0  0  0  0  0  0  0  0  0  0
    0.0202   18.4432  -27.9631 H   0  0  0  0  0  0  0  0  0  0  0  0
    0.8856   20.7004  -27.6092 H   0  0  0  0  0  0  0  0  0  0  0  0
    1.1217   23.5931  -26.7611 H   0  0  0  0  0  0  0  0  0  0  0  0
    1.6443   22.8622  -28.3166 H   0  0  0  0  0  0  0  0  0  0  0  0
    0.5580   24.2928  -28.3166 H   0  0  0  0  0  0  0  0  0  0  0  0
   -5.1098   25.9717  -29.0431 H   0  0  0  0  0  0  0  0  0  0  0  0
   -7.3724   25.1403  -29.6726 H   0  0  0  0  0  0  0  0  0  0  0  0
   -7.0531   20.2906  -32.9579 H   0  0  0  0  0  0  0  0  0  0  0  0
   -4.7411   21.0495  -32.3577 H   0  0  0  0  0  0  0  0  0  0  0  0
   -3.2850   22.6794  -31.1889 H   0  0  0  0  0  0  0  0  0  0  0  0
   -4.5786   22.5375  -26.6973 H   0  0  0  0  0  0  0  0  0  0  0  0
   -4.3376   23.4028  -28.2529 H   0  0  0  0  0  0  0  0  0  0  0  0
   -4.8492   21.6809  -28.2529 H   0  0  0  0  0  0  0  0  0  0  0  0
   -3.3527   19.9202  -27.5710 H   0  0  0  0  0  0  0  0  0  0  0  0
  1  2  1  0
  2  3  2  0
  3  4  1  0
  4  5  1  0
  4  6  2  0
  6  7  1  0
  7  8  2  0
  7  9  2  0
  7 10  1  0
 10 11  1  0
 11 12  2  0
 12 13  1  0
 13 14  2  0
 14 15  1  0
 15 16  1  0
 16 17  2  0
 16 18  1  0
 18 19  2  0
 19 20  1  0
 20 21  2  0
  6 22  1  0
 22 23  1  0
 22 24  2  0
 24  2  1  0
 21 11  1  0
 20 14  1  0
  1 25  1  0
  1 26  1  0
  1 27  1  0
  3 28  1  0
  5 29  1  0
  5 30  1  0
  5 31  1  0
 12 32  1  0
 13 33  1  0
 18 34  1  0
 19 35  1  0
 21 36  1  0
 23 37  1  0
 23 38  1  0
 23 39  1  0
 24 40  1  0
M  CHG  1  10  -1
M  END
>  <UniqueID>  (37) 
36

>  <SMILES>  (37) 
Cc1cc(C)c(S(=O)(=O)[N-]c2ccc3oc(=O)ccc3c2)c(C)c1

>  <Energy>  (37) 
53.758005206972534

>  <Genealogy>  (37) 
Cc1cc(C)c(S(=O)(=O)[N-]c2ccc3oc(=O)ccc3c2)c(C)c1 (protonated)
Cc1cc(C)c(S(=O)(=O)[N-]c2ccc3oc(=O)ccc3c2)c(C)c1 (3D coordinates assigned)
Cc1cc(C)c(S(=O)(=O)[N-]c2ccc3oc(=O)ccc3c2)c(C)c1 (optimized conformer: 53.758005206972534 kcal/mol)

>  <smiles>  (37) 
Cc1cc(C)c(S(=O)(=O)Nc2ccc3oc(=O)ccc3c2)c(C)c1

>  <score_type>  (37) 
oracle

>  <origin>  (37) 
adgpu

>  <m_score__min__energy>  (37) 
-9.7699999999999996

>  <m_primary>  (37) 
energy

$$$$
37:0
     RDKit          3D

 28 30  0  0  0  0  0  0  0  0999 V2000
   -2.9610   23.1310  -28.6510 C   0  0  0  0  0  0  0  0  0  0  0  0
   -4.0020   23.4930  -29.6540 C   0  0  0  0  0  0  0  0  0  0  0  0
   -3.9120   24.5630  -30.4740 N   0  0  0  0  0  0  0  0  0  0  0  0
   -4.9890   24.7320  -31.2400 N   0  0  0  0  0  0  0  0  0  0  0  0
   -5.9450   23.8040  -31.0200 C   0  0  0  0  0  0  0  0  0  0  0  0
   -7.5110   23.7710  -31.8800 S   0  0  0  0  0  0  0  0  0  0  0  0
   -7.5050   21.9820  -31.9910 C   0  0  0  0  0  0  0  0  0  0  0  0
   -6.5980   21.2280  -32.7020 C   0  0  0  0  0  0  0  0  0  0  0  0
   -6.9860   19.9200  -32.4570 C   0  0  0  0  0  0  0  0  0  0  0  0
   -6.3300   18.7130  -32.9760 C   0  0  0  0  0  0  0  0  0  0  0  0
   -5.7540   18.5790  -34.2330 C   0  0  0  0  0  0  0  0  0  0  0  0
   -5.2030   17.3110  -34.4550 C   0  0  0  0  0  0  0  0  0  0  0  0
   -5.3410   16.4460  -33.3770 C   0  0  0  0  0  0  0  0  0  0  0  0
   -6.1510   17.2590  -32.1490 S   0  0  0  0  0  0  0  0  0  0  0  0
   -8.0650   19.9020  -31.6470 N   0  0  0  0  0  0  0  0  0  0  0  0
   -8.3780   21.1590  -31.3780 N   0  0  0  0  0  0  0  0  0  0  0  0
   -9.4670   21.5490  -30.4910 C   0  0  0  0  0  0  0  0  0  0  0  0
   -5.4820   22.7060  -29.8320 S   0  0  0  0  0  0  0  0  0  0  0  0
   -3.3642   23.2712  -27.6372 H   0  0  0  0  0  0  0  0  0  0  0  0
   -2.6702   22.0790  -28.7877 H   0  0  0  0  0  0  0  0  0  0  0  0
   -2.0802   23.7756  -28.7877 H   0  0  0  0  0  0  0  0  0  0  0  0
   -5.7601   21.5817  -33.3207 H   0  0  0  0  0  0  0  0  0  0  0  0
   -5.7329   19.3874  -34.9787 H   0  0  0  0  0  0  0  0  0  0  0  0
   -4.7074   17.0266  -35.3949 H   0  0  0  0  0  0  0  0  0  0  0  0
   -4.9818   15.4072  -33.3343 H   0  0  0  0  0  0  0  0  0  0  0  0
   -9.1468   21.4343  -29.4449 H   0  0  0  0  0  0  0  0  0  0  0  0
   -9.7352   22.5990  -30.6794 H   0  0  0  0  0  0  0  0  0  0  0  0
  -10.3408   20.9079  -30.6794 H   0  0  0  0  0  0  0  0  0  0  0  0
  1  2  1  0
  2  3  2  0
  3  4  1  0
  4  5  2  0
  5  6  1  0
  6  7  1  0
  7  8  2  0
  8  9  1  0
  9 10  1  0
 10 11  2  0
 11 12  1  0
 12 13  2  0
 13 14  1  0
  9 15  2  0
 15 16  1  0
 16 17  1  0
  5 18  1  0
 18  2  1  0
 16  7  1  0
 14 10  1  0
  1 19  1  0
  1 20  1  0
  1 21  1  0
  8 22  1  0
 11 23  1  0
 12 24  1  0
 13 25  1  0
 17 26  1  0
 17 27  1  0
 17 28  1  0
M  END
>  <UniqueID>  (38) 
37

>  <SMILES>  (38) 
Cc1nnc(Sc2cc(-c3cccs3)nn2C)s1

>  <Energy>  (38) 
112.72780396439231

>  <Genealogy>  (38) 
Cc1nnc(Sc2cc(-c3cccs3)nn2C)s1 (3D coordinates assigned)
Cc1nnc(Sc2cc(-c3cccs3)nn2C)s1 (optimized conformer: 112.72780396439231 kcal/mol)

>  <smiles>  (38) 
Cc1nnc(Sc2cc(-c3cccs3)nn2C)s1

>  <score_type>  (38) 
oracle

>  <origin>  (38) 
adgpu

>  <m_score__min__energy>  (38) 
-7.8200000000000003

>  <m_primary>  (38) 
energy

$$$$
38:0
     RDKit          3D

 32 34  0  0  0  0  0  0  0  0999 V2000
   -8.9850   22.2180  -31.6300 C   0  0  0  0  0  0  0  0  0  0  0  0
   -8.1520   21.0370  -32.0340 C   0  0  0  0  0  0  0  0  0  0  0  0
   -8.6840   19.7410  -31.9670 C   0  0  0  0  0  0  0  0  0  0  0  0
   -7.8980   18.6400  -32.3150 C   0  0  0  0  0  0  0  0  0  0  0  0
   -6.5710   18.8220  -32.7120 C   0  0  0  0  0  0  0  0  0  0  0  0
   -6.0110   20.1110  -32.7510 C   0  0  0  0  0  0  0  0  0  0  0  0
   -4.5990   20.2940  -33.1620 C   0  0  0  0  0  0  0  0  0  0  0  0
   -4.0860   19.4950  -33.9890 O   0  0  0  0  0  0  0  0  0  0  0  0
   -3.8040   21.3890  -32.6830 N   0  0  0  0  0  0  0  0  0  0  0  0
   -2.9660   21.3840  -31.5160 C   0  0  0  0  0  0  0  0  0  0  0  0
   -2.1050   20.2970  -31.2670 C   0  0  0  0  0  0  0  0  0  0  0  0
   -1.2770   20.2900  -30.1450 C   0  0  0  0  0  0  0  0  0  0  0  0
   -1.2810   21.3720  -29.2670 C   0  0  0  0  0  0  0  0  0  0  0  0
   -2.1100   22.4670  -29.5100 C   0  0  0  0  0  0  0  0  0  0  0  0
   -2.9580   22.4950  -30.6350 C   0  0  0  0  0  0  0  0  0  0  0  0
   -3.8290   23.6810  -30.8480 C   0  0  0  0  0  0  0  0  0  0  0  0
   -3.5190   24.9280  -30.4470 N   0  0  0  0  0  0  0  0  0  0  0  0
   -4.5460   25.6730  -30.8200 N   0  0  0  0  0  0  0  0  0  0  0  0
   -5.4500   24.9160  -31.4220 N   0  0  0  0  0  0  0  0  0  0  0  0
   -5.0300   23.6620  -31.4560 N   0  0  0  0  0  0  0  0  0  0  0  0
   -6.8150   21.2170  -32.4180 C   0  0  0  0  0  0  0  0  0  0  0  0
   -9.0276   22.2784  -30.5325 H   0  0  0  0  0  0  0  0  0  0  0  0
   -8.5351   23.1383  -32.0307 H   0  0  0  0  0  0  0  0  0  0  0  0
  -10.0029   22.1030  -32.0307 H   0  0  0  0  0  0  0  0  0  0  0  0
   -9.7233   19.5912  -31.6394 H   0  0  0  0  0  0  0  0  0  0  0  0
   -8.3250   17.6270  -32.2764 H   0  0  0  0  0  0  0  0  0  0  0  0
   -5.9608   17.9518  -32.9957 H   0  0  0  0  0  0  0  0  0  0  0  0
   -2.0857   19.4462  -31.9639 H   0  0  0  0  0  0  0  0  0  0  0  0
   -0.6198   19.4291  -29.9528 H   0  0  0  0  0  0  0  0  0  0  0  0
   -0.6293   21.3625  -28.3809 H   0  0  0  0  0  0  0  0  0  0  0  0
   -2.1017   23.3194  -28.8147 H   0  0  0  0  0  0  0  0  0  0  0  0
   -6.3913   22.2313  -32.4592 H   0  0  0  0  0  0  0  0  0  0  0  0
  1  2  1  0
  2  3  2  0
  3  4  1  0
  4  5  2  0
  5  6  1  0
  6  7  1  0
  7  8  2  0
  7  9  1  0
  9 10  1  0
 10 11  2  0
 11 12  1  0
 12 13  2  0
 13 14  1  0
 14 15  2  0
 15 16  1  0
 16 17  1  0
 17 18  2  0
 18 19  1  0
 19 20  1  0
  6 21  2  0
 21  2  1  0
 15 10  1  0
 20 16  2  0
  1 22  1  0
  1 23  1  0
  1 24  1  0
  3 25  1  0
  4 26  1  0
  5 27  1  0
 11 28  1  0
 12 29  1  0
 13 30  1  0
 14 31  1  0
 21 32  1  0
M  CHG  2   9  -1  19  -1
M  END
>  <UniqueID>  (39) 
38

>  <SMILES>  (39) 
Cc1cccc(C(=O)[N-]c2ccccc2-c2nn[n-]n2)c1

>  <Energy>  (39) 
81.30272151845776

>  <Genealogy>  (39) 
Cc1cccc(C(=O)[N-]c2ccccc2-c2nn[n-]n2)c1 (protonated)
Cc1cccc(C(=O)[N-]c2ccccc2-c2nn[n-]n2)c1 (3D coordinates assigned)
Cc1cccc(C(=O)[N-]c2ccccc2-c2nn[n-]n2)c1 (optimized conformer: 81.30272151845776 kcal/mol)

>  <smiles>  (39) 
Cc1cccc(C(=O)Nc2ccccc2-c2nn[nH]n2)c1

>  <score_type>  (39) 
oracle

>  <origin>  (39) 
adgpu

>  <m_score__min__energy>  (39) 
-10.33

>  <m_primary>  (39) 
energy

$$$$
39:0
     RDKit          3D

 42 44  0  0  0  0  0  0  0  0999 V2000
   -1.3296   23.5285  -27.8622 H   0  0  0  0  0  0  0  0  0  0  0  0
   -2.1460   23.6090  -28.5950 C   0  0  0  0  0  0  0  0  0  0  0  0
   -2.4000   24.8180  -29.2450 C   0  0  0  0  0  0  0  0  0  0  0  0
   -1.5990   25.9300  -28.9690 O   0  0  0  0  0  0  0  0  0  0  0  0
   -0.8900   26.0830  -27.7450 C   0  0  0  0  0  0  0  0  0  0  0  0
   -1.5794   25.9342  -26.9009 H   0  0  0  0  0  0  0  0  0  0  0  0
   -0.0818   25.3386  -27.6939 H   0  0  0  0  0  0  0  0  0  0  0  0
   -0.4607   27.0945  -27.6939 H   0  0  0  0  0  0  0  0  0  0  0  0
   -3.4250   24.9000  -30.1380 N   0  0  0  0  0  0  0  0  0  0  0  0
   -4.2140   23.8270  -30.4030 C   0  0  0  0  0  0  0  0  0  0  0  0
   -5.1700   23.9400  -31.2780 N   0  0  0  0  0  0  0  0  0  0  0  0
   -6.1170   22.9210  -31.6490 C   0  0  0  0  0  0  0  0  0  0  0  0
   -7.4460   23.0600  -31.2410 C   0  0  0  0  0  0  0  0  0  0  0  0
   -7.7448   23.9345  -30.6444 H   0  0  0  0  0  0  0  0  0  0  0  0
   -8.3970   22.0990  -31.5840 C   0  0  0  0  0  0  0  0  0  0  0  0
   -9.4413   22.2274  -31.2632 H   0  0  0  0  0  0  0  0  0  0  0  0
   -8.0340   20.9690  -32.3350 C   0  0  0  0  0  0  0  0  0  0  0  0
   -9.0850   19.9520  -32.6930 C   0  0  0  0  0  0  0  0  0  0  0  0
   -9.5181   19.5329  -31.7728 H   0  0  0  0  0  0  0  0  0  0  0  0
   -9.8769   20.4355  -33.2839 H   0  0  0  0  0  0  0  0  0  0  0  0
   -8.6278   19.1446  -33.2839 H   0  0  0  0  0  0  0  0  0  0  0  0
   -6.6800   20.7910  -32.7080 C   0  0  0  0  0  0  0  0  0  0  0  0
   -6.2390   19.5870  -33.4990 C   0  0  0  0  0  0  0  0  0  0  0  0
   -5.9444   18.7827  -32.8089 H   0  0  0  0  0  0  0  0  0  0  0  0
   -7.0687   19.2407  -34.1328 H   0  0  0  0  0  0  0  0  0  0  0  0
   -5.3820   19.8585  -34.1328 H   0  0  0  0  0  0  0  0  0  0  0  0
   -5.7330   21.7660  -32.3530 C   0  0  0  0  0  0  0  0  0  0  0  0
   -4.6778   21.6241  -32.6293 H   0  0  0  0  0  0  0  0  0  0  0  0
   -3.9630   22.6430  -29.7810 N   0  0  0  0  0  0  0  0  0  0  0  0
   -2.9460   22.5040  -28.8910 C   0  0  0  0  0  0  0  0  0  0  0  0
   -2.7270   21.2710  -28.1890 N   0  0  0  0  0  0  0  0  0  0  0  0
   -1.6880   20.4850  -28.2320 C   0  0  0  0  0  0  0  0  0  0  0  0
   -1.6090   19.2820  -27.5680 C   0  0  0  0  0  0  0  0  0  0  0  0
   -2.3706   18.8037  -26.9346 H   0  0  0  0  0  0  0  0  0  0  0  0
   -0.3470   18.8170  -27.8850 C   0  0  0  0  0  0  0  0  0  0  0  0
    0.2280   17.5050  -27.4680 C   0  0  0  0  0  0  0  0  0  0  0  0
    0.2530   17.4480  -26.3698 H   0  0  0  0  0  0  0  0  0  0  0  0
   -0.3951   16.6893  -27.8634 H   0  0  0  0  0  0  0  0  0  0  0  0
    1.2501   17.4103  -27.8634 H   0  0  0  0  0  0  0  0  0  0  0  0
    0.2820   19.6940  -28.6940 N   0  0  0  0  0  0  0  0  0  0  0  0
   -0.5340   20.7140  -28.8970 N   0  0  0  0  0  0  0  0  0  0  0  0
   -0.2620   21.5470  -29.4580 H   0  0  0  0  0  0  0  0  0  0  0  0
  1  2  1  0
  2  3  1  0
  3  4  1  0
  4  5  1  0
  5  6  1  0
  5  7  1  0
  5  8  1  0
  3  9  2  0
  9 10  1  0
 10 11  2  0
 11 12  1  0
 12 13  2  0
 13 14  1  0
 13 15  1  0
 15 16  1  0
 15 17  2  0
 17 18  1  0
 18 19  1  0
 18 20  1  0
 18 21  1  0
 17 22  1  0
 22 23  1  0
 23 24  1  0
 23 25  1  0
 23 26  1  0
 22 27  2  0
 27 28  1  0
 10 29  1  0
 29 30  1  0
 30 31  1  0
 31 32  2  0
 32 33  1  0
 33 34  1  0
 33 35  2  0
 35 36  1  0
 36 37  1  0
 36 38  1  0
 36 39  1  0
 35 40  1  0
 40 41  1  0
 41 42  1  0
 30  2  2  0
 41 32  1  0
 27 12  1  0
M  CHG  2  29  -1  40  -1
M  END
>  <UniqueID>  (40) 
39

>  <SMILES>  (40) 
COc1cc(/N=c2/cc(C)[n-][nH]2)[n-]/c(=N\c2ccc(C)c(C)c2)n1

>  <Energy>  (40) 
81.88696058695025

>  <Genealogy>  (40) 
COc1cc(N=c2cc(C)[n-][nH]2)[n-]c(=Nc2ccc(C)c(C)c2)n1 (protonated)
COc1cc(/N=c2/cc(C)[n-][nH]2)[n-]/c(=N\c2ccc(C)c(C)c2)n1 (cis-trans isomerization)
COc1cc(/N=c2/cc(C)[n-][nH]2)[n-]/c(=N\c2ccc(C)c(C)c2)n1 (3D coordinates assigned)
COc1cc(/N=c2/cc(C)[n-][nH]2)[n-]/c(=N\c2ccc(C)c(C)c2)n1 (optimized conformer: 81.88696058695025 kcal/mol)

>  <smiles>  (40) 
COc1cc(N=c2cc(C)[nH][nH]2)[nH]c(=Nc2ccc(C)c(C)c2)n1

>  <score_type>  (40) 
oracle

>  <origin>  (40) 
adgpu

>  <m_score__min__energy>  (40) 
-9.6300000000000008

>  <m_primary>  (40) 
energy

$$$$
40:0
     RDKit          3D

 40 41  0  0  0  0  0  0  0  0999 V2000
    0.2720   24.2490  -28.1030 C   0  0  0  0  0  0  0  0  0  0  0  0
   -1.0870   24.4990  -28.6740 C   0  0  0  0  0  0  0  0  0  0  0  0
   -1.4140   25.6770  -28.9830 O   0  0  0  0  0  0  0  0  0  0  0  0
   -2.0370   23.4180  -28.7660 N   0  0  0  0  0  0  0  0  0  0  0  0
   -3.3390   23.5200  -29.3700 C   0  0  0  0  0  0  0  0  0  0  0  0
   -3.5530   22.9510  -30.6360 C   0  0  0  0  0  0  0  0  0  0  0  0
   -4.8040   23.0440  -31.2540 C   0  0  0  0  0  0  0  0  0  0  0  0
   -5.8700   23.7040  -30.6050 C   0  0  0  0  0  0  0  0  0  0  0  0
   -7.1660   23.7900  -31.1390 O   0  0  0  0  0  0  0  0  0  0  0  0
   -7.6170   23.2450  -32.3800 C   0  0  0  0  0  0  0  0  0  0  0  0
   -7.4990   21.7490  -32.3190 C   0  0  0  0  0  0  0  0  0  0  0  0
   -6.5370   21.1320  -33.0580 N   0  0  0  0  0  0  0  0  0  0  0  0
   -6.4030   19.7790  -33.0930 C   0  0  0  0  0  0  0  0  0  0  0  0
   -5.3150   19.1720  -33.9290 C   0  0  0  0  0  0  0  0  0  0  0  0
   -7.2990   18.9880  -32.3470 C   0  0  0  0  0  0  0  0  0  0  0  0
   -7.2140   17.4910  -32.3320 C   0  0  0  0  0  0  0  0  0  0  0  0
   -8.2630   19.6040  -31.6110 N   0  0  0  0  0  0  0  0  0  0  0  0
   -8.3980   20.9570  -31.5760 C   0  0  0  0  0  0  0  0  0  0  0  0
   -9.5060   21.5520  -30.7560 C   0  0  0  0  0  0  0  0  0  0  0  0
   -5.6410   24.3100  -29.3670 C   0  0  0  0  0  0  0  0  0  0  0  0
   -4.3890   24.2230  -28.7530 C   0  0  0  0  0  0  0  0  0  0  0  0
    0.2157   24.2593  -27.0045 H   0  0  0  0  0  0  0  0  0  0  0  0
    0.6376   23.2685  -28.4422 H   0  0  0  0  0  0  0  0  0  0  0  0
    0.9625   25.0352  -28.4422 H   0  0  0  0  0  0  0  0  0  0  0  0
   -1.8020   22.5290  -28.2680 H   0  0  0  0  0  0  0  0  0  0  0  0
   -2.7302   22.4281  -31.1454 H   0  0  0  0  0  0  0  0  0  0  0  0
   -4.9580   22.6014  -32.2492 H   0  0  0  0  0  0  0  0  0  0  0  0
   -8.6667   23.5271  -32.5487 H   0  0  0  0  0  0  0  0  0  0  0  0
   -7.0051   23.6363  -33.2061 H   0  0  0  0  0  0  0  0  0  0  0  0
   -4.5445   18.7421  -33.2721 H   0  0  0  0  0  0  0  0  0  0  0  0
   -5.7390   18.3801  -34.5639 H   0  0  0  0  0  0  0  0  0  0  0  0
   -4.8638   19.9488  -34.5639 H   0  0  0  0  0  0  0  0  0  0  0  0
   -7.1938   17.1353  -31.2913 H   0  0  0  0  0  0  0  0  0  0  0  0
   -8.0896   17.0688  -32.8469 H   0  0  0  0  0  0  0  0  0  0  0  0
   -6.2962   17.1707  -32.8469 H   0  0  0  0  0  0  0  0  0  0  0  0
   -9.2776   21.4293  -29.6870 H   0  0  0  0  0  0  0  0  0  0  0  0
   -9.6012   22.6226  -30.9901 H   0  0  0  0  0  0  0  0  0  0  0  0
  -10.4510   21.0400  -30.9901 H   0  0  0  0  0  0  0  0  0  0  0  0
   -6.4540   24.8607  -28.8712 H   0  0  0  0  0  0  0  0  0  0  0  0
   -4.2234   24.7080  -27.7797 H   0  0  0  0  0  0  0  0  0  0  0  0
  1  2  1  0
  2  3  2  0
  2  4  1  0
  4  5  1  0
  5  6  2  0
  6  7  1  0
  7  8  2  0
  8  9  1  0
  9 10  1  0
 10 11  1  0
 11 12  2  0
 12 13  1  0
 13 14  1  0
 13 15  2  0
 15 16  1  0
 15 17  1  0
 17 18  2  0
 18 19  1  0
  8 20  1  0
 20 21  2  0
 21  5  1  0
 18 11  1  0
  1 22  1  0
  1 23  1  0
  1 24  1  0
  4 25  1  0
  6 26  1  0
  7 27  1  0
 10 28  1  0
 10 29  1  0
 14 30  1  0
 14 31  1  0
 14 32  1  0
 16 33  1  0
 16 34  1  0
 16 35  1  0
 19 36  1  0
 19 37  1  0
 19 38  1  0
 20 39  1  0
 21 40  1  0
M  END
>  <UniqueID>  (41) 
40

>  <SMILES>  (41) 
CC(=O)Nc1ccc(OCc2nc(C)c(C)nc2C)cc1

>  <Energy>  (41) 
44.93612890489218

>  <Genealogy>  (41) 
CC(=O)Nc1ccc(OCc2nc(C)c(C)nc2C)cc1 (3D coordinates assigned)
CC(=O)Nc1ccc(OCc2nc(C)c(C)nc2C)cc1 (optimized conformer: 44.93612890489218 kcal/mol)

>  <smiles>  (41) 
CC(=O)Nc1ccc(OCc2nc(C)c(C)nc2C)cc1

>  <score_type>  (41) 
oracle

>  <origin>  (41) 
adgpu

>  <m_score__min__energy>  (41) 
-7.5199999999999996

>  <m_primary>  (41) 
energy

$$$$
41:0
     RDKit          3D

 45 47  0  0  0  0  0  0  0  0999 V2000
   -2.4760   21.4000  -32.8700 C   0  0  0  0  0  0  0  0  0  0  0  0
   -3.7740   21.9130  -32.3340 C   0  0  0  0  0  0  0  0  0  0  0  0
   -4.9670   21.2260  -32.5840 C   0  0  0  0  0  0  0  0  0  0  0  0
   -6.1740   21.7520  -32.0870 C   0  0  0  0  0  0  0  0  0  0  0  0
   -7.4470   21.0900  -32.2890 N   0  0  0  0  0  0  0  0  0  0  0  0
   -8.5490   21.3970  -31.3670 C   0  0  0  0  0  0  0  0  0  0  0  0
   -7.6530   20.0870  -33.3470 C   0  0  0  0  0  0  0  0  0  0  0  0
   -6.8610   18.8420  -33.0530 C   0  0  0  0  0  0  0  0  0  0  0  0
   -6.8510   18.2840  -31.7650 C   0  0  0  0  0  0  0  0  0  0  0  0
   -6.1140   17.1250  -31.5060 C   0  0  0  0  0  0  0  0  0  0  0  0
   -5.3780   16.5180  -32.5270 C   0  0  0  0  0  0  0  0  0  0  0  0
   -5.3760   17.0710  -33.8080 C   0  0  0  0  0  0  0  0  0  0  0  0
   -6.1190   18.2260  -34.0750 C   0  0  0  0  0  0  0  0  0  0  0  0
   -6.1350   22.9220  -31.3930 N   0  0  0  0  0  0  0  0  0  0  0  0
   -4.9690   23.5770  -31.1580 C   0  0  0  0  0  0  0  0  0  0  0  0
   -4.9700   25.0800  -30.1860 S   0  0  0  0  0  0  0  0  0  0  0  0
   -4.6230   24.2240  -28.6080 C   0  0  0  0  0  0  0  0  0  0  0  0
   -3.3680   23.3960  -28.7090 C   0  0  0  0  0  0  0  0  0  0  0  0
   -3.4250   22.0160  -28.4440 C   0  0  0  0  0  0  0  0  0  0  0  0
   -2.2760   21.2280  -28.5550 C   0  0  0  0  0  0  0  0  0  0  0  0
   -1.0620   21.8090  -28.9310 C   0  0  0  0  0  0  0  0  0  0  0  0
   -0.9980   23.1780  -29.2000 C   0  0  0  0  0  0  0  0  0  0  0  0
   -2.1420   23.9730  -29.0940 C   0  0  0  0  0  0  0  0  0  0  0  0
   -2.0540   25.2990  -29.3770 F   0  0  0  0  0  0  0  0  0  0  0  0
   -3.8000   23.0730  -31.6290 N   0  0  0  0  0  0  0  0  0  0  0  0
   -1.8119   21.1375  -32.0333 H   0  0  0  0  0  0  0  0  0  0  0  0
   -2.6607   20.5072  -33.4855 H   0  0  0  0  0  0  0  0  0  0  0  0
   -2.0004   22.1778  -33.4855 H   0  0  0  0  0  0  0  0  0  0  0  0
   -4.9616   20.2890  -33.1602 H   0  0  0  0  0  0  0  0  0  0  0  0
   -8.1971   21.2990  -30.3294 H   0  0  0  0  0  0  0  0  0  0  0  0
   -8.8964   22.4261  -31.5406 H   0  0  0  0  0  0  0  0  0  0  0  0
   -9.3785   20.6957  -31.5406 H   0  0  0  0  0  0  0  0  0  0  0  0
   -8.7217   19.8320  -33.4012 H   0  0  0  0  0  0  0  0  0  0  0  0
   -7.3145   20.5063  -34.3060 H   0  0  0  0  0  0  0  0  0  0  0  0
   -7.4252   18.7605  -30.9567 H   0  0  0  0  0  0  0  0  0  0  0  0
   -6.1134   16.6896  -30.4959 H   0  0  0  0  0  0  0  0  0  0  0  0
   -4.8005   15.6047  -32.3209 H   0  0  0  0  0  0  0  0  0  0  0  0
   -4.7893   16.5981  -34.6093 H   0  0  0  0  0  0  0  0  0  0  0  0
   -6.1223   18.6534  -35.0886 H   0  0  0  0  0  0  0  0  0  0  0  0
   -4.4970   24.9730  -27.8123 H   0  0  0  0  0  0  0  0  0  0  0  0
   -5.4664   23.5564  -28.3779 H   0  0  0  0  0  0  0  0  0  0  0  0
   -4.3786   21.5545  -28.1479 H   0  0  0  0  0  0  0  0  0  0  0  0
   -2.3274   20.1492  -28.3461 H   0  0  0  0  0  0  0  0  0  0  0  0
   -0.1575   21.1886  -29.0150 H   0  0  0  0  0  0  0  0  0  0  0  0
   -0.0415   23.6329  -29.4970 H   0  0  0  0  0  0  0  0  0  0  0  0
  1  2  1  0
  2  3  2  0
  3  4  1  0
  4  5  1  0
  5  6  1  0
  5  7  1  0
  7  8  1  0
  8  9  2  0
  9 10  1  0
 10 11  2  0
 11 12  1  0
 12 13  2  0
  4 14  2  0
 14 15  1  0
 15 16  1  0
 16 17  1  0
 17 18  1  0
 18 19  2  0
 19 20  1  0
 20 21  2  0
 21 22  1  0
 22 23  2  0
 23 24  1  0
 15 25  2  0
 25  2  1  0
 13  8  1  0
 23 18  1  0
  1 26  1  0
  1 27  1  0
  1 28  1  0
  3 29  1  0
  6 30  1  0
  6 31  1  0
  6 32  1  0
  7 33  1  0
  7 34  1  0
  9 35  1  0
 10 36  1  0
 11 37  1  0
 12 38  1  0
 13 39  1  0
 17 40  1  0
 17 41  1  0
 19 42  1  0
 20 43  1  0
 21 44  1  0
 22 45  1  0
M  END
>  <UniqueID>  (42) 
41

>  <SMILES>  (42) 
Cc1cc(N(C)Cc2ccccc2)nc(SCc2ccccc2F)n1

>  <Energy>  (42) 
39.159877562686304

>  <Genealogy>  (42) 
Cc1cc(N(C)Cc2ccccc2)nc(SCc2ccccc2F)n1 (3D coordinates assigned)
Cc1cc(N(C)Cc2ccccc2)nc(SCc2ccccc2F)n1 (optimized conformer: 39.159877562686304 kcal/mol)

>  <smiles>  (42) 
Cc1cc(N(C)Cc2ccccc2)nc(SCc2ccccc2F)n1

>  <score_type>  (42) 
oracle

>  <origin>  (42) 
adgpu

>  <m_score__min__energy>  (42) 
-8.5399999999999991

>  <m_primary>  (42) 
energy

$$$$
42:0
     RDKit          3D

 27 28  0  0  0  0  0  0  0  0999 V2000
   -6.4890   24.6050  -30.6180 H   0  0  0  0  0  0  0  0  0  0  0  0
   -7.3850   24.2160  -30.8870 O   0  0  0  0  0  0  0  0  0  0  0  0
   -7.5110   22.8880  -31.2950 C   0  0  0  0  0  0  0  0  0  0  0  0
   -8.7500   22.4030  -31.7340 C   0  0  0  0  0  0  0  0  0  0  0  0
   -9.6227   23.0721  -31.7590 H   0  0  0  0  0  0  0  0  0  0  0  0
   -8.8810   21.0730  -32.1400 C   0  0  0  0  0  0  0  0  0  0  0  0
   -9.8575   20.6978  -32.4800 H   0  0  0  0  0  0  0  0  0  0  0  0
   -7.7740   20.2150  -32.1160 C   0  0  0  0  0  0  0  0  0  0  0  0
   -7.9300   18.7730  -32.4990 C   0  0  0  0  0  0  0  0  0  0  0  0
   -7.9966   18.1573  -31.5899 H   0  0  0  0  0  0  0  0  0  0  0  0
   -8.8468   18.6488  -33.0940 H   0  0  0  0  0  0  0  0  0  0  0  0
   -7.0610   18.4556  -33.0940 H   0  0  0  0  0  0  0  0  0  0  0  0
   -6.5360   20.6940  -31.6590 C   0  0  0  0  0  0  0  0  0  0  0  0
   -5.6728   20.0142  -31.6075 H   0  0  0  0  0  0  0  0  0  0  0  0
   -6.3910   22.0420  -31.2650 C   0  0  0  0  0  0  0  0  0  0  0  0
   -5.1430   22.5750  -30.7890 N   0  0  0  0  0  0  0  0  0  0  0  0
   -4.9120   23.0680  -29.6080 C   0  0  0  0  0  0  0  0  0  0  0  0
   -5.7225   23.0895  -28.8646 H   0  0  0  0  0  0  0  0  0  0  0  0
   -3.5740   23.6030  -29.2430 C   0  0  0  0  0  0  0  0  0  0  0  0
   -3.1040   24.8550  -29.6990 C   0  0  0  0  0  0  0  0  0  0  0  0
   -3.8780   25.6620  -30.5240 O   0  0  0  0  0  0  0  0  0  0  0  0
   -1.8720   25.2910  -29.3310 N   0  0  0  0  0  0  0  0  0  0  0  0
   -1.0720   24.5490  -28.5270 C   0  0  0  0  0  0  0  0  0  0  0  0
    0.0650   24.9780  -28.2020 O   0  0  0  0  0  0  0  0  0  0  0  0
   -1.4980   23.3450  -28.0720 N   0  0  0  0  0  0  0  0  0  0  0  0
   -2.7190   22.8570  -28.4070 C   0  0  0  0  0  0  0  0  0  0  0  0
   -3.0730   21.7320  -27.9610 O   0  0  0  0  0  0  0  0  0  0  0  0
  1  2  1  0
  2  3  1  0
  3  4  2  0
  4  5  1  0
  4  6  1  0
  6  7  1  0
  6  8  2  0
  8  9  1  0
  9 10  1  0
  9 11  1  0
  9 12  1  0
  8 13  1  0
 13 14  1  0
 13 15  2  0
 15 16  1  0
 16 17  2  0
 17 18  1  0
 17 19  1  0
 19 20  2  0
 20 21  1  0
 20 22  1  0
 22 23  1  0
 23 24  2  0
 23 25  1  0
 25 26  1  0
 26 27  2  0
 15  3  1  0
 26 19  1  0
M  CHG  3  21  -1  22  -1  25  -1
M  END
>  <UniqueID>  (43) 
42

>  <SMILES>  (43) 
Cc1ccc(O)c(/N=C\c2c([O-])[n-]c(=O)[n-]c2=O)c1

>  <Energy>  (43) 
33.795583578619414

>  <Genealogy>  (43) 
Cc1ccc(O)c(N=Cc2c([O-])[n-]c(=O)[n-]c2=O)c1 (protonated)
Cc1ccc(O)c(/N=C\c2c([O-])[n-]c(=O)[n-]c2=O)c1 (cis-trans isomerization)
Cc1ccc(O)c(/N=C\c2c([O-])[n-]c(=O)[n-]c2=O)c1 (3D coordinates assigned)
Cc1ccc(O)c(/N=C\c2c([O-])[n-]c(=O)[n-]c2=O)c1 (optimized conformer: 33.795583578619414 kcal/mol)

>  <smiles>  (43) 
Cc1ccc(O)c(N=Cc2c(O)[nH]c(=O)[nH]c2=O)c1

>  <score_type>  (43) 
oracle

>  <origin>  (43) 
adgpu

>  <m_score__min__energy>  (43) 
-12.08

>  <m_primary>  (43) 
energy

$$$$
43:0
     RDKit          3D

 36 39  0  0  0  0  0  0  0  0999 V2000
   -6.4880   17.9750  -34.6180 O   0  0  0  0  0  0  0  0  0  0  0  0
   -5.3420   18.3170  -34.2540 C   0  0  0  0  0  0  0  0  0  0  0  0
   -4.9080   19.2320  -33.3280 C   0  0  0  0  0  0  0  0  0  0  0  0
   -3.5150   19.2240  -33.3110 C   0  0  0  0  0  0  0  0  0  0  0  0
   -2.6600   20.0580  -32.4600 C   0  0  0  0  0  0  0  0  0  0  0  0
   -1.3200   19.7520  -32.3170 C   0  0  0  0  0  0  0  0  0  0  0  0
   -0.5480   20.5470  -31.5170 C   0  0  0  0  0  0  0  0  0  0  0  0
   -1.1380   21.6250  -30.8810 C   0  0  0  0  0  0  0  0  0  0  0  0
   -0.3970   22.4150  -30.0880 N   0  0  0  0  0  0  0  0  0  0  0  0
   -0.9340   23.4670  -29.4500 C   0  0  0  0  0  0  0  0  0  0  0  0
   -0.2570   24.2220  -28.6980 O   0  0  0  0  0  0  0  0  0  0  0  0
   -2.2490   23.8000  -29.5670 N   0  0  0  0  0  0  0  0  0  0  0  0
   -3.0330   23.0190  -30.3690 C   0  0  0  0  0  0  0  0  0  0  0  0
   -4.4440   23.3700  -30.4980 C   0  0  0  0  0  0  0  0  0  0  0  0
   -5.4450   22.4140  -30.3980 C   0  0  0  0  0  0  0  0  0  0  0  0
   -6.7850   22.7190  -30.5300 C   0  0  0  0  0  0  0  0  0  0  0  0
   -7.1720   24.0230  -30.7710 C   0  0  0  0  0  0  0  0  0  0  0  0
   -6.1960   24.9970  -30.8750 C   0  0  0  0  0  0  0  0  0  0  0  0
   -4.8630   24.6750  -30.7420 C   0  0  0  0  0  0  0  0  0  0  0  0
   -3.9380   25.6900  -30.8560 O   0  0  0  0  0  0  0  0  0  0  0  0
   -2.4740   21.9390  -31.0180 C   0  0  0  0  0  0  0  0  0  0  0  0
   -3.2460   21.1360  -31.8240 C   0  0  0  0  0  0  0  0  0  0  0  0
   -3.1500   18.3040  -34.2280 N   0  0  0  0  0  0  0  0  0  0  0  0
   -4.2150   17.7620  -34.7890 N   0  0  0  0  0  0  0  0  0  0  0  0
   -5.5531   19.8667  -32.7027 H   0  0  0  0  0  0  0  0  0  0  0  0
   -0.8836   18.8862  -32.8365 H   0  0  0  0  0  0  0  0  0  0  0  0
    0.5226   20.3338  -31.3812 H   0  0  0  0  0  0  0  0  0  0  0  0
    0.6310   22.2430  -29.9330 H   0  0  0  0  0  0  0  0  0  0  0  0
   -5.1588   21.3695  -30.2055 H   0  0  0  0  0  0  0  0  0  0  0  0
   -7.5423   21.9259  -30.4435 H   0  0  0  0  0  0  0  0  0  0  0  0
   -8.2358   24.2815  -30.8781 H   0  0  0  0  0  0  0  0  0  0  0  0
   -6.4871   26.0404  -31.0660 H   0  0  0  0  0  0  0  0  0  0  0  0
   -3.0290   25.6720  -30.3880 H   0  0  0  0  0  0  0  0  0  0  0  0
   -4.3165   21.3489  -31.9609 H   0  0  0  0  0  0  0  0  0  0  0  0
   -2.1430   18.0570  -34.4560 H   0  0  0  0  0  0  0  0  0  0  0  0
   -4.1460   17.0270  -35.5210 H   0  0  0  0  0  0  0  0  0  0  0  0
  1  2  2  0
  2  3  1  0
  3  4  2  0
  4  5  1  0
  5  6  2  0
  6  7  1  0
  7  8  2  0
  8  9  1  0
  9 10  1  0
 10 11  2  0
 10 12  1  0
 12 13  2  0
 13 14  1  0
 14 15  2  0
 15 16  1  0
 16 17  2  0
 17 18  1  0
 18 19  2  0
 19 20  1  0
 13 21  1  0
 21 22  2  0
  4 23  1  0
 23 24  1  0
 24  2  1  0
 22  5  1  0
 21  8  1  0
 19 14  1  0
  3 25  1  0
  6 26  1  0
  7 27  1  0
  9 28  1  0
 15 29  1  0
 16 30  1  0
 17 31  1  0
 18 32  1  0
 20 33  1  0
 22 34  1  0
 23 35  1  0
 24 36  1  0
M  END
>  <smiles>  (44) 
O=c1cc(-c2ccc3[nH]c(=O)nc(-c4ccccc4O)c3c2)[nH][nH]1

>  <score_type>  (44) 
oracle

>  <origin>  (44) 
adgpu

>  <m_score__min__energy>  (44) 
-9.5099999999999998

>  <m_primary>  (44) 
energy

$$$$
44:0
     RDKit          3D

 47 49  0  0  0  0  0  0  0  0999 V2000
    0.4790   18.5700  -28.6720 C   0  0  0  0  0  0  0  0  0  0  0  0
   -0.7870   19.1930  -28.1770 C   0  0  0  0  0  0  0  0  0  0  0  0
   -1.5250   18.5850  -27.1580 C   0  0  0  0  0  0  0  0  0  0  0  0
   -2.7000   19.2030  -26.7220 C   0  0  0  0  0  0  0  0  0  0  0  0
   -3.5270   18.5830  -25.6430 C   0  0  0  0  0  0  0  0  0  0  0  0
   -3.0990   20.3670  -27.3000 N   0  0  0  0  0  0  0  0  0  0  0  0
   -2.3760   20.9530  -28.2950 C   0  0  0  0  0  0  0  0  0  0  0  0
   -2.8200   22.1960  -28.8780 N   0  0  0  0  0  0  0  0  0  0  0  0
   -2.1600   22.7280  -30.0840 C   0  0  0  0  0  0  0  0  0  0  0  0
   -2.9210   22.3580  -31.3710 C   0  0  0  0  0  0  0  0  0  0  0  0
   -4.3870   22.8300  -31.4170 C   0  0  0  0  0  0  0  0  0  0  0  0
   -5.2110   22.3110  -30.3010 N   0  0  2  0  0  0  0  0  0  0  0  0
   -6.8580   22.0980  -30.8570 S   0  0  0  0  0  0  0  0  0  0  0  0
   -7.8050   22.1280  -29.6890 O   0  0  0  0  0  0  0  0  0  0  0  0
   -7.2290   23.2100  -31.7990 O   0  0  0  0  0  0  0  0  0  0  0  0
   -7.0160   20.5700  -31.7230 C   0  0  0  0  0  0  0  0  0  0  0  0
   -7.9140   19.5990  -31.2570 C   0  0  0  0  0  0  0  0  0  0  0  0
   -8.0590   18.3890  -31.9420 C   0  0  0  0  0  0  0  0  0  0  0  0
   -7.3080   18.1440  -33.0960 C   0  0  0  0  0  0  0  0  0  0  0  0
   -6.4130   19.1100  -33.5660 C   0  0  0  0  0  0  0  0  0  0  0  0
   -6.2670   20.3220  -32.8830 C   0  0  0  0  0  0  0  0  0  0  0  0
   -5.1750   23.1160  -29.0490 C   0  0  0  0  0  0  0  0  0  0  0  0
   -3.8920   22.9520  -28.2020 C   0  0  0  0  0  0  0  0  0  0  0  0
   -1.2260   20.3590  -28.7190 N   0  0  0  0  0  0  0  0  0  0  0  0
    1.0975   18.2656  -27.8148 H   0  0  0  0  0  0  0  0  0  0  0  0
    0.2389   17.6872  -29.2827 H   0  0  0  0  0  0  0  0  0  0  0  0
    1.0320   19.2989  -29.2827 H   0  0  0  0  0  0  0  0  0  0  0  0
   -1.1879   17.6394  -26.7083 H   0  0  0  0  0  0  0  0  0  0  0  0
   -3.1307   18.8801  -24.6608 H   0  0  0  0  0  0  0  0  0  0  0  0
   -4.5683   18.9249  -25.7369 H   0  0  0  0  0  0  0  0  0  0  0  0
   -3.4908   17.4876  -25.7369 H   0  0  0  0  0  0  0  0  0  0  0  0
   -2.1074   23.8239  -30.0055 H   0  0  0  0  0  0  0  0  0  0  0  0
   -1.1554   22.2839  -30.1446 H   0  0  0  0  0  0  0  0  0  0  0  0
   -2.3904   22.8081  -32.2230 H   0  0  0  0  0  0  0  0  0  0  0  0
   -2.9498   21.2590  -31.4069 H   0  0  0  0  0  0  0  0  0  0  0  0
   -4.4001   23.9292  -31.3773 H   0  0  0  0  0  0  0  0  0  0  0  0
   -4.8228   22.4404  -32.3488 H   0  0  0  0  0  0  0  0  0  0  0  0
   -4.8600   21.3520  -30.0690 H   0  0  0  0  0  0  0  0  0  0  0  0
   -8.5061   19.7900  -30.3498 H   0  0  0  0  0  0  0  0  0  0  0  0
   -8.7640   17.6294  -31.5732 H   0  0  0  0  0  0  0  0  0  0  0  0
   -7.4214   17.1913  -33.6340 H   0  0  0  0  0  0  0  0  0  0  0  0
   -5.8230   18.9166  -34.4740 H   0  0  0  0  0  0  0  0  0  0  0  0
   -5.5641   21.0815  -33.2559 H   0  0  0  0  0  0  0  0  0  0  0  0
   -5.2694   24.1771  -29.3230 H   0  0  0  0  0  0  0  0  0  0  0  0
   -6.0036   22.7500  -28.4249 H   0  0  0  0  0  0  0  0  0  0  0  0
   -3.5081   23.9535  -27.9579 H   0  0  0  0  0  0  0  0  0  0  0  0
   -4.1722   22.3766  -27.3074 H   0  0  0  0  0  0  0  0  0  0  0  0
  1  2  1  0
  2  3  2  0
  3  4  1  0
  4  5  1  0
  4  6  2  0
  6  7  1  0
  7  8  1  0
  8  9  1  0
  9 10  1  0
 10 11  1  0
 11 12  1  0
 12 13  1  0
 13 14  2  0
 13 15  2  0
 13 16  1  0
 16 17  2  0
 17 18  1  0
 18 19  2  0
 19 20  1  0
 20 21  2  0
 12 22  1  0
 22 23  1  0
  7 24  2  0
 24  2  1  0
 23  8  1  0
 21 16  1  0
  1 25  1  0
  1 26  1  0
  1 27  1  0
  3 28  1  0
  5 29  1  0
  5 30  1  0
  5 31  1  0
  9 32  1  0
  9 33  1  0
 10 34  1  0
 10 35  1  0
 11 36  1  0
 11 37  1  0
 12 38  1  1
 17 39  1  0
 18 40  1  0
 19 41  1  0
 20 42  1  0
 21 43  1  0
 22 44  1  0
 22 45  1  0
 23 46  1  0
 23 47  1  0
M  CHG  1  12   1
M  END
>  <UniqueID>  (45) 
43

>  <SMILES>  (45) 
Cc1cc(C)nc(N2CCC[N@H+](S(=O)(=O)c3ccccc3)CC2)n1

>  <Energy>  (45) 
57.08048920064359

>  <Genealogy>  (45) 
Cc1cc(C)nc(N2CCC[NH+](S(=O)(=O)c3ccccc3)CC2)n1 (protonated)
Cc1cc(C)nc(N2CCC[N@H+](S(=O)(=O)c3ccccc3)CC2)n1 (chirality)
Cc1cc(C)nc(N2CCC[N@H+](S(=O)(=O)c3ccccc3)CC2)n1 (3D coordinates assigned)
Cc1cc(C)nc(N2CCC[N@H+](S(=O)(=O)c3ccccc3)CC2)n1 (nonaromatic ring conformer: 57.08048920064359 kcal/mol)

>  <smiles>  (45) 
Cc1cc(C)nc(N2CCCN(S(=O)(=O)c3ccccc3)CC2)n1

>  <score_type>  (45) 
oracle

>  <origin>  (45) 
adgpu

>  <m_score__min__energy>  (45) 
-5.46

>  <m_primary>  (45) 
energy

$$$$
45:0
     RDKit          3D

 35 37  0  0  0  0  0  0  0  0999 V2000
   -5.0640   18.6790  -34.5650 N   0  0  0  0  0  0  0  0  0  0  0  0
   -5.8920   19.0540  -33.8490 C   0  0  0  0  0  0  0  0  0  0  0  0
   -6.9230   19.5210  -32.9590 C   0  0  0  0  0  0  0  0  0  0  0  0
   -8.0520   18.7280  -32.7180 C   0  0  0  0  0  0  0  0  0  0  0  0
   -9.0500   19.1790  -31.8490 C   0  0  0  0  0  0  0  0  0  0  0  0
   -8.9260   20.4210  -31.2220 C   0  0  0  0  0  0  0  0  0  0  0  0
   -7.8000   21.2260  -31.4610 C   0  0  0  0  0  0  0  0  0  0  0  0
   -7.6470   22.5500  -30.7640 C   0  0  0  0  0  0  0  0  0  0  0  0
   -6.9340   23.8010  -31.8890 S   0  0  0  0  0  0  0  0  0  0  0  0
   -5.3080   23.7690  -31.1320 C   0  0  0  0  0  0  0  0  0  0  0  0
   -4.2480   23.1330  -31.6650 N   0  0  0  0  0  0  0  0  0  0  0  0
   -3.2210   23.3430  -30.8500 N   0  0  0  0  0  0  0  0  0  0  0  0
   -3.6690   24.1030  -29.8280 C   0  0  0  0  0  0  0  0  0  0  0  0
   -2.8170   24.5260  -28.6990 C   0  0  0  0  0  0  0  0  0  0  0  0
   -1.4700   24.8530  -28.9260 C   0  0  0  0  0  0  0  0  0  0  0  0
   -0.6460   25.2310  -27.8600 C   0  0  0  0  0  0  0  0  0  0  0  0
   -1.1560   25.2690  -26.5600 C   0  0  0  0  0  0  0  0  0  0  0  0
   -2.4890   24.9210  -26.3220 C   0  0  0  0  0  0  0  0  0  0  0  0
   -3.3160   24.5450  -27.3850 C   0  0  0  0  0  0  0  0  0  0  0  0
   -4.9770   24.3850  -29.9840 N   0  0  0  0  0  0  0  0  0  0  0  0
   -5.7790   25.2590  -29.2320 N   0  0  0  0  0  0  0  0  0  0  0  0
   -6.7960   20.7660  -32.3300 C   0  0  0  0  0  0  0  0  0  0  0  0
   -8.1535   17.7506  -33.2123 H   0  0  0  0  0  0  0  0  0  0  0  0
   -9.9351   18.5542  -31.6586 H   0  0  0  0  0  0  0  0  0  0  0  0
   -9.7136   20.7702  -30.5381 H   0  0  0  0  0  0  0  0  0  0  0  0
   -8.6347   22.8937  -30.4230 H   0  0  0  0  0  0  0  0  0  0  0  0
   -6.9686   22.4200  -29.9079 H   0  0  0  0  0  0  0  0  0  0  0  0
   -1.0610   24.8118  -29.9463 H   0  0  0  0  0  0  0  0  0  0  0  0
    0.4046   25.4986  -28.0459 H   0  0  0  0  0  0  0  0  0  0  0  0
   -0.5090   25.5726  -25.7238 H   0  0  0  0  0  0  0  0  0  0  0  0
   -2.8878   24.9430  -25.2971 H   0  0  0  0  0  0  0  0  0  0  0  0
   -4.3616   24.2629  -27.1921 H   0  0  0  0  0  0  0  0  0  0  0  0
   -5.7040   26.2930  -29.3480 H   0  0  0  0  0  0  0  0  0  0  0  0
   -6.5220   24.8870  -28.6010 H   0  0  0  0  0  0  0  0  0  0  0  0
   -5.9069   21.3861  -32.5170 H   0  0  0  0  0  0  0  0  0  0  0  0
  1  2  3  0
  2  3  1  0
  3  4  2  0
  4  5  1  0
  5  6  2  0
  6  7  1  0
  7  8  1  0
  8  9  1  0
  9 10  1  0
 10 11  2  0
 11 12  1  0
 12 13  2  0
 13 14  1  0
 14 15  2  0
 15 16  1  0
 16 17  2  0
 17 18  1  0
 18 19  2  0
 13 20  1  0
 20 21  1  0
  7 22  2  0
 22  3  1  0
 20 10  1  0
 19 14  1  0
  4 23  1  0
  5 24  1  0
  6 25  1  0
  8 26  1  0
  8 27  1  0
 15 28  1  0
 16 29  1  0
 17 30  1  0
 18 31  1  0
 19 32  1  0
 21 33  1  0
 21 34  1  0
 22 35  1  0
M  END
>  <UniqueID>  (46) 
44

>  <SMILES>  (46) 
N#Cc1cccc(CSc2nnc(-c3ccccc3)n2N)c1

>  <Energy>  (46) 
72.7785706544921

>  <Genealogy>  (46) 
N#Cc1cccc(CSc2nnc(-c3ccccc3)n2N)c1 (3D coordinates assigned)
N#Cc1cccc(CSc2nnc(-c3ccccc3)n2N)c1 (optimized conformer: 72.7785706544921 kcal/mol)

>  <smiles>  (46) 
N#Cc1cccc(CSc2nnc(-c3ccccc3)n2N)c1

>  <score_type>  (46) 
oracle

>  <origin>  (46) 
adgpu

>  <m_score__min__energy>  (46) 
-9.2300000000000004

>  <m_primary>  (46) 
energy

$$$$
46:0
     RDKit          3D

 41 43  0  0  0  0  0  0  0  0999 V2000
   -3.3650   15.6940  -33.0090 C   0  0  0  0  0  0  0  0  0  0  0  0
   -2.3480   16.0710  -34.0870 C   0  0  0  0  0  0  0  0  0  0  0  0
   -2.8290   17.2340  -34.9630 C   0  0  0  0  0  0  0  0  0  0  0  0
   -3.7360   18.1570  -34.2070 C   0  0  0  0  0  0  0  0  0  0  0  0
   -5.0300   17.8730  -33.9500 N   0  0  0  0  0  0  0  0  0  0  0  0
   -5.4570   18.9130  -33.2030 C   0  0  0  0  0  0  0  0  0  0  0  0
   -6.8590   19.0500  -32.7530 C   0  0  0  0  0  0  0  0  0  0  0  0
   -7.4440   18.0400  -31.9750 C   0  0  0  0  0  0  0  0  0  0  0  0
   -8.7740   18.1660  -31.5660 C   0  0  0  0  0  0  0  0  0  0  0  0
   -9.5000   19.2540  -31.9340 N   0  0  0  0  0  0  0  0  0  0  0  0
   -8.9660   20.2400  -32.7040 C   0  0  0  0  0  0  0  0  0  0  0  0
   -7.6410   20.1530  -33.1340 C   0  0  0  0  0  0  0  0  0  0  0  0
   -4.4020   19.7960  -33.0050 C   0  0  0  0  0  0  0  0  0  0  0  0
   -4.3630   21.0030  -32.1520 C   0  0  0  0  0  0  0  0  0  0  0  0
   -5.3180   22.0170  -32.3310 C   0  0  0  0  0  0  0  0  0  0  0  0
   -5.2830   23.1690  -31.5390 C   0  0  0  0  0  0  0  0  0  0  0  0
   -4.2800   23.3350  -30.5730 C   0  0  0  0  0  0  0  0  0  0  0  0
   -4.2660   24.5530  -29.6980 C   0  0  0  0  0  0  0  0  0  0  0  0
   -3.8810   25.6640  -30.4570 O   0  0  0  0  0  0  0  0  0  0  0  0
   -3.3230   22.3230  -30.3950 C   0  0  0  0  0  0  0  0  0  0  0  0
   -3.3570   21.1720  -31.1860 C   0  0  0  0  0  0  0  0  0  0  0  0
   -3.3270   19.3120  -33.6490 N   0  0  0  0  0  0  0  0  0  0  0  0
   -2.9233   15.8577  -32.0149 H   0  0  0  0  0  0  0  0  0  0  0  0
   -4.2638   16.3187  -33.1183 H   0  0  0  0  0  0  0  0  0  0  0  0
   -3.6394   14.6344  -33.1183 H   0  0  0  0  0  0  0  0  0  0  0  0
   -1.4067   16.3627  -33.5982 H   0  0  0  0  0  0  0  0  0  0  0  0
   -2.2094   15.1954  -34.7383 H   0  0  0  0  0  0  0  0  0  0  0  0
   -1.9546   17.8015  -35.3142 H   0  0  0  0  0  0  0  0  0  0  0  0
   -3.3927   16.8159  -35.8100 H   0  0  0  0  0  0  0  0  0  0  0  0
   -6.8589   17.1537  -31.6885 H   0  0  0  0  0  0  0  0  0  0  0  0
   -9.2341   17.3832  -30.9451 H   0  0  0  0  0  0  0  0  0  0  0  0
   -9.5796   21.1076  -32.9883 H   0  0  0  0  0  0  0  0  0  0  0  0
   -7.2117   20.9433  -33.7674 H   0  0  0  0  0  0  0  0  0  0  0  0
   -6.0979   21.9044  -33.0985 H   0  0  0  0  0  0  0  0  0  0  0  0
   -6.0464   23.9493  -31.6745 H   0  0  0  0  0  0  0  0  0  0  0  0
   -5.2719   24.7206  -29.2856 H   0  0  0  0  0  0  0  0  0  0  0  0
   -3.5533   24.4057  -28.8731 H   0  0  0  0  0  0  0  0  0  0  0  0
   -3.8590   26.4330  -29.8290 H   0  0  0  0  0  0  0  0  0  0  0  0
   -2.5423   22.4371  -29.6286 H   0  0  0  0  0  0  0  0  0  0  0  0
   -2.5916   20.3935  -31.0517 H   0  0  0  0  0  0  0  0  0  0  0  0
   -2.3620   19.7130  -33.6670 H   0  0  0  0  0  0  0  0  0  0  0  0
  1  2  1  0
  2  3  1  0
  3  4  1  0
  4  5  2  0
  5  6  1  0
  6  7  1  0
  7  8  2  0
  8  9  1  0
  9 10  2  0
 10 11  1  0
 11 12  2  0
  6 13  2  0
 13 14  1  0
 14 15  2  0
 15 16  1  0
 16 17  2  0
 17 18  1  0
 18 19  1  0
 17 20  1  0
 20 21  2  0
 13 22  1  0
 22  4  1  0
 12  7  1  0
 21 14  1  0
  1 23  1  0
  1 24  1  0
  1 25  1  0
  2 26  1  0
  2 27  1  0
  3 28  1  0
  3 29  1  0
  8 30  1  0
  9 31  1  0
 11 32  1  0
 12 33  1  0
 15 34  1  0
 16 35  1  0
 18 36  1  0
 18 37  1  0
 19 38  1  0
 20 39  1  0
 21 40  1  0
 22 41  1  0
M  END
>  <UniqueID>  (47) 
45

>  <SMILES>  (47) 
CCCc1nc(-c2ccncc2)c(-c2ccc(CO)cc2)[nH]1

>  <Energy>  (47) 
73.67097253710351

>  <Genealogy>  (47) 
CCCc1nc(-c2ccncc2)c(-c2ccc(CO)cc2)[nH]1 (3D coordinates assigned)
CCCc1nc(-c2ccncc2)c(-c2ccc(CO)cc2)[nH]1 (optimized conformer: 73.67097253710351 kcal/mol)

>  <smiles>  (47) 
CCCc1nc(-c2ccncc2)c(-c2ccc(CO)cc2)[nH]1

>  <score_type>  (47) 
oracle

>  <origin>  (47) 
adgpu

>  <m_score__min__energy>  (47) 
-7.7999999999999998

>  <m_primary>  (47) 
energy

$$$$
47:0
     RDKit          3D

 49 51  0  0  0  0  0  0  0  0999 V2000
   -9.2251   22.8139  -30.3180 H   0  0  0  0  0  0  0  0  0  0  0  0
   -8.4730   22.2910  -30.9270 C   0  0  0  0  0  0  0  0  0  0  0  0
   -8.7160   20.9950  -31.3680 C   0  0  0  0  0  0  0  0  0  0  0  0
   -9.6688   20.5042  -31.1203 H   0  0  0  0  0  0  0  0  0  0  0  0
   -7.7590   20.3100  -32.1240 C   0  0  0  0  0  0  0  0  0  0  0  0
   -8.1800   18.6540  -32.6960 S   0  0  0  0  0  0  0  0  0  0  0  0
   -6.9820   17.8390  -31.5960 C   0  0  0  0  0  0  0  0  0  0  0  0
   -7.2590   18.0275  -30.5483 H   0  0  0  0  0  0  0  0  0  0  0  0
   -6.9865   16.7558  -31.7873 H   0  0  0  0  0  0  0  0  0  0  0  0
   -5.9761   18.2410  -31.7873 H   0  0  0  0  0  0  0  0  0  0  0  0
   -6.5150   20.9250  -32.4240 C   0  0  0  0  0  0  0  0  0  0  0  0
   -5.4710   20.1790  -33.2210 C   0  0  0  0  0  0  0  0  0  0  0  0
   -4.7724   19.6798  -32.5335 H   0  0  0  0  0  0  0  0  0  0  0  0
   -5.9624   19.4262  -33.8550 H   0  0  0  0  0  0  0  0  0  0  0  0
   -4.9180   20.8877  -33.8550 H   0  0  0  0  0  0  0  0  0  0  0  0
   -6.2970   22.2710  -32.0180 C   0  0  0  0  0  0  0  0  0  0  0  0
   -5.0450   23.0470  -32.3950 C   0  0  0  0  0  0  0  0  0  0  0  0
   -5.3408   24.0297  -32.7909 H   0  0  0  0  0  0  0  0  0  0  0  0
   -4.4965   22.4655  -33.1507 H   0  0  0  0  0  0  0  0  0  0  0  0
   -4.1520   23.2480  -31.2310 N   0  0  0  0  0  0  0  0  0  0  0  0
   -3.3010   22.2570  -30.8130 C   0  0  0  0  0  0  0  0  0  0  0  0
   -3.2630   21.1410  -31.3990 O   0  0  0  0  0  0  0  0  0  0  0  0
   -2.4810   22.4630  -29.7530 N   0  0  0  0  0  0  0  0  0  0  0  0
   -2.4930   23.6360  -29.0800 C   0  0  0  0  0  0  0  0  0  0  0  0
   -1.6790   23.7830  -28.0720 N   0  0  0  0  0  0  0  0  0  0  0  0
   -1.4620   24.9740  -27.2980 C   0  0  0  0  0  0  0  0  0  0  0  0
   -0.6600   25.9910  -27.8240 C   0  0  0  0  0  0  0  0  0  0  0  0
   -0.1709   25.8538  -28.7997 H   0  0  0  0  0  0  0  0  0  0  0  0
   -0.4770   27.1830  -27.1140 C   0  0  0  0  0  0  0  0  0  0  0  0
    0.1704   27.9700  -27.5281 H   0  0  0  0  0  0  0  0  0  0  0  0
   -1.1100   27.3830  -25.8820 C   0  0  0  0  0  0  0  0  0  0  0  0
   -0.8870   28.5980  -25.2130 O   0  0  0  0  0  0  0  0  0  0  0  0
    0.2940   28.9440  -24.4890 C   0  0  0  0  0  0  0  0  0  0  0  0
    0.0925   29.8335  -23.8741 H   0  0  0  0  0  0  0  0  0  0  0  0
    1.1007   29.1504  -25.2078 H   0  0  0  0  0  0  0  0  0  0  0  0
    0.7280   27.7980  -23.5830 C   0  0  0  0  0  0  0  0  0  0  0  0
    0.6141   28.0989  -22.5311 H   0  0  0  0  0  0  0  0  0  0  0  0
    0.1017   26.9159  -23.7820 H   0  0  0  0  0  0  0  0  0  0  0  0
    1.7815   27.5521  -23.7820 H   0  0  0  0  0  0  0  0  0  0  0  0
   -1.9500   26.3730  -25.3710 C   0  0  0  0  0  0  0  0  0  0  0  0
   -2.4645   26.5215  -24.4102 H   0  0  0  0  0  0  0  0  0  0  0  0
   -2.1310   25.1830  -26.0820 C   0  0  0  0  0  0  0  0  0  0  0  0
   -2.8016   24.4060  -25.6862 H   0  0  0  0  0  0  0  0  0  0  0  0
   -3.3810   24.6030  -29.4440 N   0  0  0  0  0  0  0  0  0  0  0  0
   -3.4780   25.4870  -28.8970 H   0  0  0  0  0  0  0  0  0  0  0  0
   -4.2110   24.4100  -30.5030 C   0  0  0  0  0  0  0  0  0  0  0  0
   -5.0430   25.3120  -30.8000 O   0  0  0  0  0  0  0  0  0  0  0  0
   -7.2790   22.9280  -31.2550 C   0  0  0  0  0  0  0  0  0  0  0  0
   -7.1015   23.9583  -30.9130 H   0  0  0  0  0  0  0  0  0  0  0  0
  1  2  1  0
  2  3  2  0
  3  4  1  0
  3  5  1  0
  5  6  1  0
  6  7  1  0
  7  8  1  0
  7  9  1  0
  7 10  1  0
  5 11  2  0
 11 12  1  0
 12 13  1  0
 12 14  1  0
 12 15  1  0
 11 16  1  0
 16 17  1  0
 17 18  1  0
 17 19  1  0
 17 20  1  0
 20 21  1  0
 21 22  2  0
 21 23  1  0
 23 24  1  0
 24 25  2  0
 25 26  1  0
 26 27  2  0
 27 28  1  0
 27 29  1  0
 29 30  1  0
 29 31  2  0
 31 32  1  0
 32 33  1  0
 33 34  1  0
 33 35  1  0
 33 36  1  0
 36 37  1  0
 36 38  1  0
 36 39  1  0
 31 40  1  0
 40 41  1  0
 40 42  2  0
 42 43  1  0
 24 44  1  0
 44 45  1  0
 44 46  1  0
 46 47  2  0
 16 48  2  0
 48 49  1  0
 48  2  1  0
 46 20  1  0
 42 26  1  0
M  CHG  1  23  -1
M  END
>  <UniqueID>  (48) 
46

>  <SMILES>  (48) 
CCOc1ccc(/N=c2/[n-]c(=O)n(Cc3cccc(SC)c3C)c(=O)[nH]2)cc1

>  <Energy>  (48) 
61.68625787143385

>  <Genealogy>  (48) 
CCOc1ccc(N=c2[n-]c(=O)n(Cc3cccc(SC)c3C)c(=O)[nH]2)cc1 (protonated)
CCOc1ccc(/N=c2/[n-]c(=O)n(Cc3cccc(SC)c3C)c(=O)[nH]2)cc1 (cis-trans isomerization)
CCOc1ccc(/N=c2/[n-]c(=O)n(Cc3cccc(SC)c3C)c(=O)[nH]2)cc1 (3D coordinates assigned)
CCOc1ccc(/N=c2/[n-]c(=O)n(Cc3cccc(SC)c3C)c(=O)[nH]2)cc1 (optimized conformer: 61.68625787143385 kcal/mol)

>  <smiles>  (48) 
CCOc1ccc(N=c2[nH]c(=O)n(Cc3cccc(SC)c3C)c(=O)[nH]2)cc1

>  <score_type>  (48) 
oracle

>  <origin>  (48) 
adgpu

>  <m_score__min__energy>  (48) 
-9.5899999999999999

>  <m_primary>  (48) 
energy

$$$$
48:0
     RDKit          3D

 32 33  0  0  0  0  0  0  0  0999 V2000
   -2.1550   19.9480  -30.8520 O   0  0  0  0  0  0  0  0  0  0  0  0
   -3.0460   20.8180  -30.6500 C   0  0  0  0  0  0  0  0  0  0  0  0
   -4.4210   20.4880  -30.8590 N   0  0  0  0  0  0  0  0  0  0  0  0
   -4.9420   20.0120  -32.1350 C   0  0  0  0  0  0  0  0  0  0  0  0
   -6.2840   20.6810  -32.4390 C   0  0  0  0  0  0  0  0  0  0  0  0
   -6.4040   22.0110  -31.7410 C   0  0  0  0  0  0  0  0  0  0  0  0
   -6.0170   23.1930  -32.3940 C   0  0  0  0  0  0  0  0  0  0  0  0
   -6.0930   24.4220  -31.7310 C   0  0  0  0  0  0  0  0  0  0  0  0
   -6.5510   24.4810  -30.4080 C   0  0  0  0  0  0  0  0  0  0  0  0
   -6.6310   25.6990  -29.7380 O   0  0  0  0  0  0  0  0  0  0  0  0
   -6.9270   23.3050  -29.7510 C   0  0  0  0  0  0  0  0  0  0  0  0
   -6.8520   22.0750  -30.4110 C   0  0  0  0  0  0  0  0  0  0  0  0
   -2.6690   22.1780  -30.1960 C   0  0  0  0  0  0  0  0  0  0  0  0
   -1.5040   22.3800  -29.4330 C   0  0  0  0  0  0  0  0  0  0  0  0
   -1.1500   23.6640  -29.0080 C   0  0  0  0  0  0  0  0  0  0  0  0
   -1.9510   24.7590  -29.3390 C   0  0  0  0  0  0  0  0  0  0  0  0
   -1.5920   26.0330  -28.9120 O   0  0  0  0  0  0  0  0  0  0  0  0
   -3.1110   24.5720  -30.0970 C   0  0  0  0  0  0  0  0  0  0  0  0
   -3.9130   25.6590  -30.4280 O   0  0  0  0  0  0  0  0  0  0  0  0
   -3.4700   23.2880  -30.5240 C   0  0  0  0  0  0  0  0  0  0  0  0
   -4.2255   20.2548  -32.9336 H   0  0  0  0  0  0  0  0  0  0  0  0
   -5.0875   18.9230  -32.0801 H   0  0  0  0  0  0  0  0  0  0  0  0
   -6.3686   20.8373  -33.5246 H   0  0  0  0  0  0  0  0  0  0  0  0
   -7.0888   20.0249  -32.0761 H   0  0  0  0  0  0  0  0  0  0  0  0
   -5.6527   23.1517  -33.4311 H   0  0  0  0  0  0  0  0  0  0  0  0
   -5.7925   25.3446  -32.2493 H   0  0  0  0  0  0  0  0  0  0  0  0
   -5.8000   26.1820  -29.4170 H   0  0  0  0  0  0  0  0  0  0  0  0
   -7.2830   23.3481  -28.7111 H   0  0  0  0  0  0  0  0  0  0  0  0
   -7.1450   21.1534  -29.8868 H   0  0  0  0  0  0  0  0  0  0  0  0
   -0.8678   21.5222  -29.1693 H   0  0  0  0  0  0  0  0  0  0  0  0
   -0.2379   23.8122  -28.4112 H   0  0  0  0  0  0  0  0  0  0  0  0
   -4.3838   23.1457  -31.1196 H   0  0  0  0  0  0  0  0  0  0  0  0
  1  2  2  0
  2  3  1  0
  3  4  1  0
  4  5  1  0
  5  6  1  0
  6  7  2  0
  7  8  1  0
  8  9  2  0
  9 10  1  0
  9 11  1  0
 11 12  2  0
  2 13  1  0
 13 14  2  0
 14 15  1  0
 15 16  2  0
 16 17  1  0
 16 18  1  0
 18 19  1  0
 18 20  2  0
 12  6  1  0
 20 13  1  0
  4 21  1  0
  4 22  1  0
  5 23  1  0
  5 24  1  0
  7 25  1  0
  8 26  1  0
 10 27  1  0
 11 28  1  0
 12 29  1  0
 14 30  1  0
 15 31  1  0
 20 32  1  0
M  CHG  3   3  -1  17  -1  19  -1
M  END
>  <UniqueID>  (49) 
47

>  <SMILES>  (49) 
O=C([N-]CCc1ccc(O)cc1)c1ccc([O-])c([O-])c1

>  <Energy>  (49) 
28.09885067023111

>  <Genealogy>  (49) 
O=C([N-]CCc1ccc(O)cc1)c1ccc([O-])c([O-])c1 (protonated)
O=C([N-]CCc1ccc(O)cc1)c1ccc([O-])c([O-])c1 (3D coordinates assigned)
O=C([N-]CCc1ccc(O)cc1)c1ccc([O-])c([O-])c1 (optimized conformer: 28.09885067023111 kcal/mol)

>  <smiles>  (49) 
O=C(NCCc1ccc(O)cc1)c1ccc(O)c(O)c1

>  <score_type>  (49) 
oracle

>  <origin>  (49) 
adgpu

>  <m_score__min__energy>  (49) 
-11.75

>  <m_primary>  (49) 
energy

$$$$
49:0
     RDKit          3D

 53 55  0  0  0  0  0  0  0  0999 V2000
   -8.0300   18.6570  -33.0850 O   0  0  0  0  0  0  0  0  0  0  0  0
   -6.7750   18.6620  -33.2090 C   0  0  0  0  0  0  0  0  0  0  0  0
   -6.1210   17.6190  -34.0620 C   0  0  0  0  0  0  0  0  0  0  0  0
   -4.8610   18.0860  -34.5340 O   0  0  0  0  0  0  0  0  0  0  0  0
   -3.6830   18.0100  -33.7800 C   0  0  0  0  0  0  0  0  0  0  0  0
   -3.1930   16.8930  -33.4620 O   0  0  0  0  0  0  0  0  0  0  0  0
   -3.0130   19.2420  -33.3520 C   0  0  0  0  0  0  0  0  0  0  0  0
   -2.1690   20.0180  -34.1290 C   0  0  0  0  0  0  0  0  0  0  0  0
   -1.7770   21.0680  -33.3260 C   0  0  0  0  0  0  0  0  0  0  0  0
   -2.4090   20.8590  -32.1150 C   0  0  0  0  0  0  0  0  0  0  0  0
   -2.3000   21.6980  -30.9620 N   0  0  0  0  0  0  0  0  0  0  0  0
   -1.3780   22.5340  -30.8690 O   0  0  0  0  0  0  0  0  0  0  0  0
   -3.2230   21.5910  -29.9480 O   0  0  0  0  0  0  0  0  0  0  0  0
   -3.1370   19.7700  -32.1540 O   0  0  0  0  0  0  0  0  0  0  0  0
   -5.9780   19.6300  -32.5090 N   0  0  0  0  0  0  0  0  0  0  0  0
   -6.4990   20.8590  -31.9760 C   0  0  0  0  0  0  0  0  0  0  0  0
   -7.8770   20.9790  -31.7430 C   0  0  0  0  0  0  0  0  0  0  0  0
   -8.4030   22.1540  -31.2010 C   0  0  0  0  0  0  0  0  0  0  0  0
   -7.5560   23.2160  -30.8750 C   0  0  0  0  0  0  0  0  0  0  0  0
   -6.1760   23.1060  -31.0870 C   0  0  0  0  0  0  0  0  0  0  0  0
   -5.1100   24.4290  -30.6270 S   0  0  0  0  0  0  0  0  0  0  0  0
   -3.7220   24.1680  -31.1470 O   0  0  0  0  0  0  0  0  0  0  0  0
   -5.6320   25.7050  -31.2270 O   0  0  0  0  0  0  0  0  0  0  0  0
   -5.0800   24.5490  -28.8960 N   0  0  0  0  0  0  0  0  0  0  0  0
   -4.0030   24.3750  -28.1800 C   0  0  0  0  0  0  0  0  0  0  0  0
   -4.0490   24.5580  -26.6910 C   0  0  0  0  0  0  0  0  0  0  0  0
   -2.8020   25.2770  -26.1530 C   0  0  0  0  0  0  0  0  0  0  0  0
   -1.4960   24.4680  -26.2400 C   0  0  0  0  0  0  0  0  0  0  0  0
   -0.6860   24.7170  -27.5260 C   0  0  0  0  0  0  0  0  0  0  0  0
   -1.5850   24.9170  -28.7590 C   0  0  0  0  0  0  0  0  0  0  0  0
   -2.7490   24.0280  -28.7870 N   0  0  0  0  0  0  0  0  0  0  0  0
   -5.6480   21.9230  -31.6250 C   0  0  0  0  0  0  0  0  0  0  0  0
   -5.9701   16.7060  -33.4673 H   0  0  0  0  0  0  0  0  0  0  0  0
   -6.7690   17.4038  -34.9244 H   0  0  0  0  0  0  0  0  0  0  0  0
   -1.8724   19.8344  -35.1722 H   0  0  0  0  0  0  0  0  0  0  0  0
   -1.1040   21.8962  -33.5927 H   0  0  0  0  0  0  0  0  0  0  0  0
   -4.9730   19.4030  -32.3330 H   0  0  0  0  0  0  0  0  0  0  0  0
   -8.5477   20.1424  -31.9887 H   0  0  0  0  0  0  0  0  0  0  0  0
   -9.4860   22.2432  -31.0306 H   0  0  0  0  0  0  0  0  0  0  0  0
   -7.9739   24.1409  -30.4508 H   0  0  0  0  0  0  0  0  0  0  0  0
   -5.9760   24.8090  -28.4270 H   0  0  0  0  0  0  0  0  0  0  0  0
   -4.9383   25.1527  -26.4350 H   0  0  0  0  0  0  0  0  0  0  0  0
   -4.0870   23.5599  -26.2303 H   0  0  0  0  0  0  0  0  0  0  0  0
   -2.6678   26.2044  -26.7291 H   0  0  0  0  0  0  0  0  0  0  0  0
   -2.9853   25.4502  -25.0823 H   0  0  0  0  0  0  0  0  0  0  0  0
   -0.8665   24.7347  -25.3783 H   0  0  0  0  0  0  0  0  0  0  0  0
   -1.7810   23.4056  -26.2456 H   0  0  0  0  0  0  0  0  0  0  0  0
   -0.0719   25.6190  -27.3871 H   0  0  0  0  0  0  0  0  0  0  0  0
   -0.0637   23.8281  -27.7066 H   0  0  0  0  0  0  0  0  0  0  0  0
   -1.9420   25.9575  -28.7639 H   0  0  0  0  0  0  0  0  0  0  0  0
   -0.9763   24.6791  -29.6438 H   0  0  0  0  0  0  0  0  0  0  0  0
   -2.7480   23.2810  -29.5160 H   0  0  0  0  0  0  0  0  0  0  0  0
   -4.5623   21.8266  -31.7733 H   0  0  0  0  0  0  0  0  0  0  0  0
  1  2  2  0
  2  3  1  0
  3  4  1  0
  4  5  1  0
  5  6  2  0
  5  7  1  0
  7  8  2  0
  8  9  1  0
  9 10  2  0
 10 11  1  0
 11 12  2  0
 11 13  1  0
 10 14  1  0
  2 15  1  0
 15 16  1  0
 16 17  2  0
 17 18  1  0
 18 19  2  0
 19 20  1  0
 20 21  1  0
 21 22  2  0
 21 23  2  0
 21 24  1  0
 24 25  2  3
 25 26  1  0
 26 27  1  0
 27 28  1  0
 28 29  1  0
 29 30  1  0
 30 31  1  0
 20 32  2  0
 14  7  1  0
 32 16  1  0
 31 25  1  0
  3 33  1  0
  3 34  1  0
  8 35  1  0
  9 36  1  0
 15 37  1  0
 17 38  1  0
 18 39  1  0
 19 40  1  0
 24 41  1  0
 26 42  1  0
 26 43  1  0
 27 44  1  0
 27 45  1  0
 28 46  1  0
 28 47  1  0
 29 48  1  0
 29 49  1  0
 30 50  1  0
 30 51  1  0
 31 52  1  0
 32 53  1  0
M  CHG  3  11   1  13  -1  24   1
M  END
>  <UniqueID>  (50) 
48

>  <SMILES>  (50) 
O=C(COC(=O)c1ccc([N+](=O)[O-])o1)Nc1cccc(S(=O)(=O)[NH+]=C2CCCCCN2)c1

>  <Energy>  (50) 
88.10139580161211

>  <Genealogy>  (50) 
O=C(COC(=O)c1ccc([N+](=O)[O-])o1)Nc1cccc(S(=O)(=O)[NH+]=C2CCCCCN2)c1 (protonated)
O=C(COC(=O)c1ccc([N+](=O)[O-])o1)Nc1cccc(S(=O)(=O)[NH+]=C2CCCCCN2)c1 (3D coordinates assigned)
O=C(COC(=O)c1ccc([N+](=O)[O-])o1)Nc1cccc(S(=O)(=O)[NH+]=C2CCCCCN2)c1 (nonaromatic ring conformer: 88.10139580161211 kcal/mol)

>  <smiles>  (50) 
O=C(COC(=O)c1ccc([N+](=O)[O-])o1)Nc1cccc(S(=O)(=O)N=C2CCCCCN2)c1

>  <score_type>  (50) 
oracle

>  <origin>  (50) 
adgpu

>  <m_score__min__energy>  (50) 
-7.0700000000000003

>  <m_primary>  (50) 
energy

$$$$
