0:0
     RDKit          3D

 44 46  0  0  0  0  0  0  0  0999 V2000
   -1.1393   20.0274  -33.0641 H   0  0  0  0  0  0  0  0  0  0  0  0
   -1.7060   19.1060  -33.2640 C   0  0  0  0  0  0  0  0  0  0  0  0
   -1.0290   17.9080  -33.4920 C   0  0  0  0  0  0  0  0  0  0  0  0
    0.0707   17.8871  -33.4790 H   0  0  0  0  0  0  0  0  0  0  0  0
   -1.7470   16.7340  -33.7370 C   0  0  0  0  0  0  0  0  0  0  0  0
   -1.2109   15.7886  -33.9067 H   0  0  0  0  0  0  0  0  0  0  0  0
   -3.1470   16.7580  -33.7670 C   0  0  0  0  0  0  0  0  0  0  0  0
   -4.0410   15.2280  -34.0700 S   0  0  0  0  0  0  0  0  0  0  0  0
   -4.6140   15.0850  -32.3500 C   0  0  0  0  0  0  0  0  0  0  0  0
   -3.7778   15.2937  -31.6664 H   0  0  0  0  0  0  0  0  0  0  0  0
   -5.4229   15.8088  -32.1716 H   0  0  0  0  0  0  0  0  0  0  0  0
   -4.9879   14.0660  -32.1716 H   0  0  0  0  0  0  0  0  0  0  0  0
   -3.8360   17.9670  -33.5610 C   0  0  0  0  0  0  0  0  0  0  0  0
   -5.2730   17.9660  -33.5650 N   0  0  0  0  0  0  0  0  0  0  0  0
   -6.1250   19.1170  -33.5380 C   0  0  0  0  0  0  0  0  0  0  0  0
   -6.4580   19.6930  -34.6090 O   0  0  0  0  0  0  0  0  0  0  0  0
   -6.6390   19.5760  -32.2840 N   0  0  0  0  0  0  0  0  0  0  0  0
   -6.5560   18.9500  -31.4510 H   0  0  0  0  0  0  0  0  0  0  0  0
   -7.3910   20.7880  -32.1580 C   0  0  0  0  0  0  0  0  0  0  0  0
   -8.7900   20.7180  -32.2180 C   0  0  0  0  0  0  0  0  0  0  0  0
   -9.2833   19.7429  -32.3440 H   0  0  0  0  0  0  0  0  0  0  0  0
   -9.5610   21.8770  -32.1190 C   0  0  0  0  0  0  0  0  0  0  0  0
  -10.6577   21.8132  -32.1745 H   0  0  0  0  0  0  0  0  0  0  0  0
   -8.9440   23.1150  -31.9500 C   0  0  0  0  0  0  0  0  0  0  0  0
   -9.5530   24.0290  -31.8898 H   0  0  0  0  0  0  0  0  0  0  0  0
   -7.5520   23.1960  -31.8570 C   0  0  0  0  0  0  0  0  0  0  0  0
   -7.0709   24.1755  -31.7183 H   0  0  0  0  0  0  0  0  0  0  0  0
   -6.7620   22.0380  -31.9390 C   0  0  0  0  0  0  0  0  0  0  0  0
   -5.0120   22.1960  -31.7070 S   0  0  0  0  0  0  0  0  0  0  0  0
   -4.5550   21.0850  -30.8040 O   0  0  0  0  0  0  0  0  0  0  0  0
   -4.2890   22.0630  -33.0200 O   0  0  0  0  0  0  0  0  0  0  0  0
   -4.5780   23.7090  -30.9780 N   0  0  0  0  0  0  0  0  0  0  0  0
   -3.4810   24.0160  -30.3500 C   0  0  0  0  0  0  0  0  0  0  0  0
   -3.2740   25.2170  -29.8620 O   0  0  0  0  0  0  0  0  0  0  0  0
   -2.1110   25.2980  -29.2860 N   0  0  0  0  0  0  0  0  0  0  0  0
   -1.5250   24.0920  -29.4060 C   0  0  0  0  0  0  0  0  0  0  0  0
   -0.1880   23.7570  -28.8350 C   0  0  0  0  0  0  0  0  0  0  0  0
   -0.2444   23.7711  -27.7365 H   0  0  0  0  0  0  0  0  0  0  0  0
    0.1148   22.7552  -29.1737 H   0  0  0  0  0  0  0  0  0  0  0  0
    0.5514   24.4976  -29.1737 H   0  0  0  0  0  0  0  0  0  0  0  0
   -2.3700   23.2260  -30.0780 C   0  0  0  0  0  0  0  0  0  0  0  0
   -2.0300   21.5340  -30.4130 Cl  0  0  0  0  0  0  0  0  0  0  0  0
   -3.1040   19.1380  -33.2890 C   0  0  0  0  0  0  0  0  0  0  0  0
   -3.6337   20.0824  -33.0953 H   0  0  0  0  0  0  0  0  0  0  0  0
  1  2  1  0
  2  3  2  0
  3  4  1  0
  3  5  1  0
  5  6  1  0
  5  7  2  0
  7  8  1  0
  8  9  1  0
  9 10  1  0
  9 11  1  0
  9 12  1  0
  7 13  1  0
 13 14  1  0
 14 15  1  0
 15 16  2  0
 15 17  1  0
 17 18  1  0
 17 19  1  0
 19 20  2  0
 20 21  1  0
 20 22  1  0
 22 23  1  0
 22 24  2  0
 24 25  1  0
 24 26  1  0
 26 27  1  0
 26 28  2  0
 28 29  1  0
 29 30  2  0
 29 31  2  0
 29 32  1  0
 32 33  2  0
 33 34  1  0
 34 35  1  0
 35 36  1  0
 36 37  1  0
 37 38  1  0
 37 39  1  0
 37 40  1  0
 36 41  2  0
 41 42  1  0
 13 43  2  0
 43 44  1  0
 43  2  1  0
 28 19  1  0
 41 33  1  0
M  CHG  2  14  -1  35  -1
M  END
>  <UniqueID>  (1) 
1

>  <SMILES>  (1) 
CSc1ccccc1[N-]C(=O)Nc1ccccc1S(=O)(=O)/N=c1/o[n-]c(C)c1Cl

>  <Energy>  (1) 
90.34972419830443

>  <Genealogy>  (1) 
CSc1ccccc1[N-]C(=O)Nc1ccccc1S(=O)(=O)N=c1o[n-]c(C)c1Cl (protonated)
CSc1ccccc1[N-]C(=O)Nc1ccccc1S(=O)(=O)/N=c1/o[n-]c(C)c1Cl (cis-trans isomerization)
CSc1ccccc1[N-]C(=O)Nc1ccccc1S(=O)(=O)/N=c1/o[n-]c(C)c1Cl (3D coordinates assigned)
CSc1ccccc1[N-]C(=O)Nc1ccccc1S(=O)(=O)/N=c1/o[n-]c(C)c1Cl (optimized conformer: 90.34972419830443 kcal/mol)

>  <smiles>  (1) 
CSc1ccccc1NC(=O)Nc1ccccc1S(=O)(=O)N=c1o[nH]c(C)c1Cl

>  <score_type>  (1) 
oracle

>  <origin>  (1) 
adgpu

>  <m_score__min__energy>  (1) 
-11.51

>  <m_primary>  (1) 
energy

$$$$
1:0
     RDKit          3D

 53 56  0  0  0  0  0  0  0  0999 V2000
   -6.7060   25.9350  -29.4130 O   0  0  0  0  0  0  0  0  0  0  0  0
   -5.5780   25.0500  -29.8580 S   0  0  0  0  0  0  0  0  0  0  0  0
   -4.6310   25.8640  -30.6950 O   0  0  0  0  0  0  0  0  0  0  0  0
   -4.7630   24.4110  -28.4690 N   0  0  0  0  0  0  0  0  0  0  0  0
   -3.7240   23.4330  -28.5630 C   0  0  0  0  0  0  0  0  0  0  0  0
   -3.8890   22.1500  -28.0200 C   0  0  0  0  0  0  0  0  0  0  0  0
   -2.8320   21.2370  -28.0120 C   0  0  0  0  0  0  0  0  0  0  0  0
   -1.5970   21.6050  -28.5880 C   0  0  0  0  0  0  0  0  0  0  0  0
   -1.4530   22.8600  -29.1780 C   0  0  0  0  0  0  0  0  0  0  0  0
   -2.5060   23.7800  -29.1520 C   0  0  0  0  0  0  0  0  0  0  0  0
   -2.3240   25.0570  -29.6760 O   0  0  0  0  0  0  0  0  0  0  0  0
   -0.4350   20.6660  -28.5020 C   0  0  0  0  0  0  0  0  0  0  0  0
   -0.4810   19.9420  -27.1600 C   0  0  0  0  0  0  0  0  0  0  0  0
   -1.7520   19.1000  -27.0390 C   0  0  0  0  0  0  0  0  0  0  0  0
   -3.0470   19.8650  -27.4140 C   0  0  0  0  0  0  0  0  0  0  0  0
   -6.2330   23.6970  -30.7760 C   0  0  0  0  0  0  0  0  0  0  0  0
   -7.5960   23.6390  -31.0930 C   0  0  0  0  0  0  0  0  0  0  0  0
   -8.0720   22.6310  -31.9350 C   0  0  0  0  0  0  0  0  0  0  0  0
   -7.1950   21.6770  -32.4630 C   0  0  0  0  0  0  0  0  0  0  0  0
   -7.6910   20.7380  -33.3110 F   0  0  0  0  0  0  0  0  0  0  0  0
   -5.8220   21.7140  -32.1280 C   0  0  0  0  0  0  0  0  0  0  0  0
   -4.6830   20.4940  -32.7200 S   0  0  0  0  0  0  0  0  0  0  0  0
   -3.7770   20.0690  -31.6100 O   0  0  0  0  0  0  0  0  0  0  0  0
   -3.8390   21.1270  -33.7790 O   0  0  0  0  0  0  0  0  0  0  0  0
   -5.4740   19.0750  -33.3660 N   0  0  0  0  0  0  0  0  0  0  0  0
   -6.2460   18.3860  -32.3200 C   0  0  0  0  0  0  0  0  0  0  0  0
   -6.8920   17.1240  -32.8960 C   0  0  0  0  0  0  0  0  0  0  0  0
   -5.9050   16.2660  -33.4340 O   0  0  0  0  0  0  0  0  0  0  0  0
   -5.2180   16.9110  -34.4820 C   0  0  0  0  0  0  0  0  0  0  0  0
   -4.4990   18.1570  -33.9740 C   0  0  0  0  0  0  0  0  0  0  0  0
   -5.3510   22.7300  -31.2860 C   0  0  0  0  0  0  0  0  0  0  0  0
   -4.8616   21.8598  -27.5959 H   0  0  0  0  0  0  0  0  0  0  0  0
   -0.5050   23.1283  -29.6671 H   0  0  0  0  0  0  0  0  0  0  0  0
   -3.1020   25.6770  -29.8350 H   0  0  0  0  0  0  0  0  0  0  0  0
   -0.4924   19.9321  -29.3193 H   0  0  0  0  0  0  0  0  0  0  0  0
    0.5058   21.2294  -28.5887 H   0  0  0  0  0  0  0  0  0  0  0  0
    0.3965   19.2842  -27.0751 H   0  0  0  0  0  0  0  0  0  0  0  0
   -0.4775   20.6918  -26.3552 H   0  0  0  0  0  0  0  0  0  0  0  0
   -1.6571   18.2308  -27.7064 H   0  0  0  0  0  0  0  0  0  0  0  0
   -1.8454   18.8108  -25.9818 H   0  0  0  0  0  0  0  0  0  0  0  0
   -3.6017   19.2580  -28.1447 H   0  0  0  0  0  0  0  0  0  0  0  0
   -3.5922   20.0238  -26.4719 H   0  0  0  0  0  0  0  0  0  0  0  0
   -8.2902   24.3856  -30.6798 H   0  0  0  0  0  0  0  0  0  0  0  0
   -9.1425   22.5870  -32.1844 H   0  0  0  0  0  0  0  0  0  0  0  0
   -5.5744   18.1078  -31.4944 H   0  0  0  0  0  0  0  0  0  0  0  0
   -7.0331   19.0585  -31.9482 H   0  0  0  0  0  0  0  0  0  0  0  0
   -7.4336   16.5970  -32.0966 H   0  0  0  0  0  0  0  0  0  0  0  0
   -7.5880   17.4135  -33.6971 H   0  0  0  0  0  0  0  0  0  0  0  0
   -4.4788   16.2173  -34.9091 H   0  0  0  0  0  0  0  0  0  0  0  0
   -5.9476   17.2131  -35.2478 H   0  0  0  0  0  0  0  0  0  0  0  0
   -3.7507   17.8669  -33.2218 H   0  0  0  0  0  0  0  0  0  0  0  0
   -3.9993   18.6593  -34.8154 H   0  0  0  0  0  0  0  0  0  0  0  0
   -4.2838   22.7707  -31.0227 H   0  0  0  0  0  0  0  0  0  0  0  0
  1  2  2  0
  2  3  2  0
  2  4  1  0
  4  5  1  0
  5  6  2  0
  6  7  1  0
  7  8  2  0
  8  9  1  0
  9 10  2  0
 10 11  1  0
  8 12  1  0
 12 13  1  0
 13 14  1  0
 14 15  1  0
  2 16  1  0
 16 17  2  0
 17 18  1  0
 18 19  2  0
 19 20  1  0
 19 21  1  0
 21 22  1  0
 22 23  2  0
 22 24  2  0
 22 25  1  0
 25 26  1  0
 26 27  1  0
 27 28  1  0
 28 29  1  0
 29 30  1  0
 21 31  2  0
 10  5  1  0
 31 16  1  0
 15  7  1  0
 30 25  1  0
  6 32  1  0
  9 33  1  0
 11 34  1  0
 12 35  1  0
 12 36  1  0
 13 37  1  0
 13 38  1  0
 14 39  1  0
 14 40  1  0
 15 41  1  0
 15 42  1  0
 17 43  1  0
 18 44  1  0
 26 45  1  0
 26 46  1  0
 27 47  1  0
 27 48  1  0
 29 49  1  0
 29 50  1  0
 30 51  1  0
 30 52  1  0
 31 53  1  0
M  CHG  1   4  -1
M  END
>  <UniqueID>  (2) 
2

>  <SMILES>  (2) 
O=S(=O)([N-]c1cc2c(cc1O)CCCC2)c1ccc(F)c(S(=O)(=O)N2CCOCC2)c1

>  <Energy>  (2) 
66.15738685930492

>  <Genealogy>  (2) 
O=S(=O)([N-]c1cc2c(cc1O)CCCC2)c1ccc(F)c(S(=O)(=O)N2CCOCC2)c1 (protonated)
O=S(=O)([N-]c1cc2c(cc1O)CCCC2)c1ccc(F)c(S(=O)(=O)N2CCOCC2)c1 (3D coordinates assigned)
O=S(=O)([N-]c1cc2c(cc1O)CCCC2)c1ccc(F)c(S(=O)(=O)N2CCOCC2)c1 (nonaromatic ring conformer: 66.15738685930492 kcal/mol)

>  <smiles>  (2) 
O=S(=O)(Nc1cc2c(cc1O)CCCC2)c1ccc(F)c(S(=O)(=O)N2CCOCC2)c1

>  <score_type>  (2) 
oracle

>  <origin>  (2) 
adgpu

>  <m_score__min__energy>  (2) 
-12.24

>  <m_primary>  (2) 
energy

$$$$
2:0
     RDKit          3D

 59 62  0  0  0  0  0  0  0  0999 V2000
    3.0160   13.3610  -27.4870 C   0  0  0  0  0  0  0  0  0  0  0  0
    1.7120   13.8330  -27.9870 N   0  0  0  0  0  0  0  0  0  0  0  0
    1.6790   14.1530  -29.4280 C   0  0  0  0  0  0  0  0  0  0  0  0
    2.4000   15.4610  -29.8420 C   0  0  0  0  0  0  0  0  0  0  0  0
    1.7950   16.7850  -29.3970 C   0  0  0  0  0  0  0  0  0  0  0  0
    1.4630   17.7140  -30.4010 C   0  0  0  0  0  0  0  0  0  0  0  0
    0.8700   18.9350  -30.0870 C   0  0  0  0  0  0  0  0  0  0  0  0
    0.5790   19.2470  -28.7590 C   0  0  0  0  0  0  0  0  0  0  0  0
   -0.0370   20.4590  -28.4360 O   0  0  0  0  0  0  0  0  0  0  0  0
   -0.9220   21.1310  -29.2940 C   0  0  0  0  0  0  0  0  0  0  0  0
   -1.3360   22.4180  -28.9490 C   0  0  0  0  0  0  0  0  0  0  0  0
   -2.2090   23.1460  -29.7730 C   0  0  0  0  0  0  0  0  0  0  0  0
   -2.5200   24.5460  -29.4010 C   0  0  0  0  0  0  0  0  0  0  0  0
   -3.4720   25.2940  -30.1510 N   0  0  0  0  0  0  0  0  0  0  0  0
   -1.9810   25.0730  -28.3930 O   0  0  0  0  0  0  0  0  0  0  0  0
   -2.7250   22.5380  -30.9460 C   0  0  0  0  0  0  0  0  0  0  0  0
   -3.6690   23.1900  -31.7450 O   0  0  0  0  0  0  0  0  0  0  0  0
   -2.2930   21.2430  -31.3070 C   0  0  0  0  0  0  0  0  0  0  0  0
   -2.7990   20.4640  -32.8120 S   0  0  0  0  0  0  0  0  0  0  0  0
   -2.5400   18.9840  -32.7910 O   0  0  0  0  0  0  0  0  0  0  0  0
   -2.0120   21.0610  -33.9400 O   0  0  0  0  0  0  0  0  0  0  0  0
   -4.4900   20.7630  -33.0970 N   0  0  0  0  0  0  0  0  0  0  0  0
   -5.2500   20.7750  -31.8430 C   0  0  0  0  0  0  0  0  0  0  0  0
   -6.6110   20.1530  -32.0220 C   0  0  0  0  0  0  0  0  0  0  0  0
   -6.7560   18.7540  -32.0600 C   0  0  0  0  0  0  0  0  0  0  0  0
   -8.0250   18.1810  -32.1910 C   0  0  0  0  0  0  0  0  0  0  0  0
   -9.1530   18.9970  -32.3100 C   0  0  0  0  0  0  0  0  0  0  0  0
   -9.0130   20.3860  -32.3160 C   0  0  0  0  0  0  0  0  0  0  0  0
   -7.7470   20.9670  -32.1710 C   0  0  0  0  0  0  0  0  0  0  0  0
   -1.4020   20.5510  -30.4800 C   0  0  0  0  0  0  0  0  0  0  0  0
    0.8970   18.3410  -27.7440 C   0  0  0  0  0  0  0  0  0  0  0  0
    1.4850   17.0990  -28.0500 C   0  0  0  0  0  0  0  0  0  0  0  0
    1.7910   16.1460  -26.9320 C   0  0  0  0  0  0  0  0  0  0  0  0
    1.0410   14.8130  -27.1020 C   0  0  0  0  0  0  0  0  0  0  0  0
    3.0096   13.3633  -26.3870 H   0  0  0  0  0  0  0  0  0  0  0  0
    3.2000   12.3392  -27.8504 H   0  0  0  0  0  0  0  0  0  0  0  0
    3.8114   14.0283  -27.8504 H   0  0  0  0  0  0  0  0  0  0  0  0
    2.1513   13.3205  -29.9701 H   0  0  0  0  0  0  0  0  0  0  0  0
    0.6183   14.3030  -29.6779 H   0  0  0  0  0  0  0  0  0  0  0  0
    3.4205   15.4147  -29.4339 H   0  0  0  0  0  0  0  0  0  0  0  0
    2.3233   15.4802  -30.9392 H   0  0  0  0  0  0  0  0  0  0  0  0
    1.6756   17.4716  -31.4527 H   0  0  0  0  0  0  0  0  0  0  0  0
    0.6314   19.6525  -30.8859 H   0  0  0  0  0  0  0  0  0  0  0  0
   -0.9719   22.8703  -28.0147 H   0  0  0  0  0  0  0  0  0  0  0  0
   -3.4020   25.3600  -31.1910 H   0  0  0  0  0  0  0  0  0  0  0  0
   -4.0860   22.7750  -32.5640 H   0  0  0  0  0  0  0  0  0  0  0  0
   -4.6942   20.2081  -31.0816 H   0  0  0  0  0  0  0  0  0  0  0  0
   -5.3845   21.8204  -31.5284 H   0  0  0  0  0  0  0  0  0  0  0  0
   -5.8682   18.1087  -31.9864 H   0  0  0  0  0  0  0  0  0  0  0  0
   -8.1353   17.0866  -32.2004 H   0  0  0  0  0  0  0  0  0  0  0  0
  -10.1518   18.5447  -32.3990 H   0  0  0  0  0  0  0  0  0  0  0  0
   -9.8997   21.0260  -32.4350 H   0  0  0  0  0  0  0  0  0  0  0  0
   -7.6416   22.0619  -32.1737 H   0  0  0  0  0  0  0  0  0  0  0  0
   -1.0730   19.5399  -30.7619 H   0  0  0  0  0  0  0  0  0  0  0  0
    0.6860   18.6006  -26.6961 H   0  0  0  0  0  0  0  0  0  0  0  0
    2.8729   15.9476  -26.9182 H   0  0  0  0  0  0  0  0  0  0  0  0
    1.4638   16.6067  -25.9882 H   0  0  0  0  0  0  0  0  0  0  0  0
    0.9268   14.3551  -26.1084 H   0  0  0  0  0  0  0  0  0  0  0  0
    0.0805   15.0561  -27.5799 H   0  0  0  0  0  0  0  0  0  0  0  0
  1  2  1  0
  2  3  1  0
  3  4  1  0
  4  5  1  0
  5  6  2  0
  6  7  1  0
  7  8  2  0
  8  9  1  0
  9 10  1  0
 10 11  2  0
 11 12  1  0
 12 13  1  0
 13 14  1  0
 13 15  2  0
 12 16  2  0
 16 17  1  0
 16 18  1  0
 18 19  1  0
 19 20  2  0
 19 21  2  0
 19 22  1  0
 22 23  1  0
 23 24  1  0
 24 25  2  0
 25 26  1  0
 26 27  2  0
 27 28  1  0
 28 29  2  0
 18 30  2  0
  8 31  1  0
 31 32  2  0
 32 33  1  0
 33 34  1  0
 34  2  1  0
 32  5  1  0
 30 10  1  0
 29 24  1  0
  1 35  1  0
  1 36  1  0
  1 37  1  0
  3 38  1  0
  3 39  1  0
  4 40  1  0
  4 41  1  0
  6 42  1  0
  7 43  1  0
 11 44  1  0
 14 45  1  0
 17 46  1  0
 23 47  1  0
 23 48  1  0
 25 49  1  0
 26 50  1  0
 27 51  1  0
 28 52  1  0
 29 53  1  0
 30 54  1  0
 31 55  1  0
 33 56  1  0
 33 57  1  0
 34 58  1  0
 34 59  1  0
M  CHG  2  14  -1  22  -1
M  END
>  <UniqueID>  (3) 
3

>  <SMILES>  (3) 
CN1CCc2ccc(Oc3cc(C([NH-])=O)c(O)c(S(=O)(=O)[N-]Cc4ccccc4)c3)cc2CC1

>  <Energy>  (3) 
89.68366059395557

>  <Genealogy>  (3) 
CN1CCc2ccc(Oc3cc(C([NH-])=O)c(O)c(S(=O)(=O)[N-]Cc4ccccc4)c3)cc2CC1 (protonated)
CN1CCc2ccc(Oc3cc(C([NH-])=O)c(O)c(S(=O)(=O)[N-]Cc4ccccc4)c3)cc2CC1 (3D coordinates assigned)
CN1CCc2ccc(Oc3cc(C([NH-])=O)c(O)c(S(=O)(=O)[N-]Cc4ccccc4)c3)cc2CC1 (nonaromatic ring conformer: 89.68366059395557 kcal/mol)

>  <smiles>  (3) 
CN1CCc2ccc(Oc3cc(C(N)=O)c(O)c(S(=O)(=O)NCc4ccccc4)c3)cc2CC1

>  <score_type>  (3) 
oracle

>  <origin>  (3) 
adgpu

>  <m_score__min__energy>  (3) 
-9.1699999999999999

>  <m_primary>  (3) 
energy

$$$$
3:0
     RDKit          3D

 46 49  0  0  0  0  0  0  0  0999 V2000
   -5.3510   26.3390  -30.4270 O   0  0  0  0  0  0  0  0  0  0  0  0
   -4.6090   25.3230  -30.4710 C   0  0  0  0  0  0  0  0  0  0  0  0
   -3.4640   25.2280  -29.7480 N   0  0  0  0  0  0  0  0  0  0  0  0
   -3.0120   24.0160  -30.1000 C   0  0  0  0  0  0  0  0  0  0  0  0
   -1.8670   23.3700  -29.6460 C   0  0  0  0  0  0  0  0  0  0  0  0
   -1.6010   22.0810  -30.1440 C   0  0  0  0  0  0  0  0  0  0  0  0
   -2.4730   21.4700  -31.0780 C   0  0  0  0  0  0  0  0  0  0  0  0
   -2.1490   20.1580  -31.5560 N   0  0  0  0  0  0  0  0  0  0  0  0
   -2.2560   19.6400  -33.2080 S   0  0  0  0  0  0  0  0  0  0  0  0
   -1.0560   18.7980  -33.5390 O   0  0  0  0  0  0  0  0  0  0  0  0
   -2.2650   20.8480  -34.1030 O   0  0  0  0  0  0  0  0  0  0  0  0
   -3.7100   18.6760  -33.4390 C   0  0  0  0  0  0  0  0  0  0  0  0
   -3.7070   17.5820  -34.3140 C   0  0  0  0  0  0  0  0  0  0  0  0
   -4.8770   16.8490  -34.5210 C   0  0  0  0  0  0  0  0  0  0  0  0
   -6.0580   17.2030  -33.8610 C   0  0  0  0  0  0  0  0  0  0  0  0
   -7.2050   16.4530  -34.0890 O   0  0  0  0  0  0  0  0  0  0  0  0
   -6.0710   18.3060  -32.9810 C   0  0  0  0  0  0  0  0  0  0  0  0
   -7.5490   18.8110  -32.1470 S   0  0  0  0  0  0  0  0  0  0  0  0
   -7.8020   17.8780  -30.9950 O   0  0  0  0  0  0  0  0  0  0  0  0
   -8.7220   18.7140  -33.0810 O   0  0  0  0  0  0  0  0  0  0  0  0
   -7.4270   20.4540  -31.5550 N   0  0  0  0  0  0  0  0  0  0  0  0
   -8.6760   20.8900  -30.8820 C   0  0  0  0  0  0  0  0  0  0  0  0
   -9.5200   21.8380  -31.7470 C   0  0  0  0  0  0  0  0  0  0  0  0
   -8.7230   23.1020  -32.1090 C   0  0  0  0  0  0  0  0  0  0  0  0
   -7.2170   22.8270  -32.2730 C   0  0  0  0  0  0  0  0  0  0  0  0
   -6.9560   21.3590  -32.6290 C   0  0  0  0  0  0  0  0  0  0  0  0
   -4.8860   19.0260  -32.7680 C   0  0  0  0  0  0  0  0  0  0  0  0
   -3.6290   22.1620  -31.5110 C   0  0  0  0  0  0  0  0  0  0  0  0
   -3.8620   23.4320  -30.9910 C   0  0  0  0  0  0  0  0  0  0  0  0
   -4.8970   24.2470  -31.2470 N   0  0  0  0  0  0  0  0  0  0  0  0
   -1.1922   23.8504  -28.9222 H   0  0  0  0  0  0  0  0  0  0  0  0
   -0.7049   21.5414  -29.8037 H   0  0  0  0  0  0  0  0  0  0  0  0
   -2.7820   17.3003  -34.8384 H   0  0  0  0  0  0  0  0  0  0  0  0
   -4.8699   15.9888  -35.2066 H   0  0  0  0  0  0  0  0  0  0  0  0
   -9.2777   19.9996  -30.6472 H   0  0  0  0  0  0  0  0  0  0  0  0
   -8.3877   21.4396  -29.9738 H   0  0  0  0  0  0  0  0  0  0  0  0
   -9.8120   21.3186  -32.6717 H   0  0  0  0  0  0  0  0  0  0  0  0
  -10.4124   22.1352  -31.1766 H   0  0  0  0  0  0  0  0  0  0  0  0
   -9.1125   23.5048  -33.0556 H   0  0  0  0  0  0  0  0  0  0  0  0
   -8.8423   23.8185  -31.2829 H   0  0  0  0  0  0  0  0  0  0  0  0
   -6.8210   23.4665  -33.0756 H   0  0  0  0  0  0  0  0  0  0  0  0
   -6.7171   23.0476  -31.3183 H   0  0  0  0  0  0  0  0  0  0  0  0
   -7.4872   21.1162  -33.5611 H   0  0  0  0  0  0  0  0  0  0  0  0
   -5.8719   21.2184  -32.7517 H   0  0  0  0  0  0  0  0  0  0  0  0
   -4.8818   19.8736  -32.0668 H   0  0  0  0  0  0  0  0  0  0  0  0
   -4.3220   21.7103  -32.2361 H   0  0  0  0  0  0  0  0  0  0  0  0
  1  2  2  0
  2  3  1  0
  3  4  1  0
  4  5  2  0
  5  6  1  0
  6  7  2  0
  7  8  1  0
  8  9  1  0
  9 10  2  0
  9 11  2  0
  9 12  1  0
 12 13  2  0
 13 14  1  0
 14 15  2  0
 15 16  1  0
 15 17  1  0
 17 18  1  0
 18 19  2  0
 18 20  2  0
 18 21  1  0
 21 22  1  0
 22 23  1  0
 23 24  1  0
 24 25  1  0
 25 26  1  0
 17 27  2  0
  7 28  1  0
 28 29  2  0
 29 30  1  0
 30  2  1  0
 29  4  1  0
 27 12  1  0
 26 21  1  0
  5 31  1  0
  6 32  1  0
 13 33  1  0
 14 34  1  0
 22 35  1  0
 22 36  1  0
 23 37  1  0
 23 38  1  0
 24 39  1  0
 24 40  1  0
 25 41  1  0
 25 42  1  0
 26 43  1  0
 26 44  1  0
 27 45  1  0
 28 46  1  0
M  CHG  4   3  -1   8  -1  16  -1  30  -1
M  END
>  <UniqueID>  (4) 
4

>  <SMILES>  (4) 
O=c1[n-]c2ccc([N-]S(=O)(=O)c3ccc([O-])c(S(=O)(=O)N4CCCCC4)c3)cc2[n-]1

>  <Energy>  (4) 
89.85441245604152

>  <Genealogy>  (4) 
O=c1[n-]c2ccc([N-]S(=O)(=O)c3ccc([O-])c(S(=O)(=O)N4CCCCC4)c3)cc2[n-]1 (protonated)
O=c1[n-]c2ccc([N-]S(=O)(=O)c3ccc([O-])c(S(=O)(=O)N4CCCCC4)c3)cc2[n-]1 (3D coordinates assigned)
O=c1[n-]c2ccc([N-]S(=O)(=O)c3ccc([O-])c(S(=O)(=O)N4CCCCC4)c3)cc2[n-]1 (nonaromatic ring conformer: 89.85441245604152 kcal/mol)

>  <smiles>  (4) 
O=c1[nH]c2ccc(NS(=O)(=O)c3ccc(O)c(S(=O)(=O)N4CCCCC4)c3)cc2[nH]1

>  <score_type>  (4) 
oracle

>  <origin>  (4) 
adgpu

>  <m_score__min__energy>  (4) 
-13.44

>  <m_primary>  (4) 
energy

$$$$
4:0
     RDKit          3D

 53 56  0  0  0  0  0  0  0  0999 V2000
   -5.3455   19.5737  -35.2026 H   0  0  0  0  0  0  0  0  0  0  0  0
   -5.7910   18.8650  -34.4890 C   0  0  0  0  0  0  0  0  0  0  0  0
   -6.5010   19.3260  -33.4290 N   0  0  0  0  0  0  0  0  0  0  0  0
   -7.0670   18.4660  -32.5360 C   0  0  0  0  0  0  0  0  0  0  0  0
   -7.7590   18.9070  -31.5270 N   0  0  0  0  0  0  0  0  0  0  0  0
   -8.0240   20.3180  -31.2450 C   0  0  0  0  0  0  0  0  0  0  0  0
   -7.0706   20.8658  -31.2137 H   0  0  0  0  0  0  0  0  0  0  0  0
   -8.5391   20.3957  -30.2762 H   0  0  0  0  0  0  0  0  0  0  0  0
   -8.9180   20.9250  -32.3300 C   0  0  0  0  0  0  0  0  0  0  0  0
   -9.7529   20.2380  -32.5325 H   0  0  0  0  0  0  0  0  0  0  0  0
   -8.3117   21.0771  -33.2352 H   0  0  0  0  0  0  0  0  0  0  0  0
   -9.4820   22.2810  -31.8910 C   0  0  0  0  0  0  0  0  0  0  0  0
   -9.7934   22.2076  -30.8386 H   0  0  0  0  0  0  0  0  0  0  0  0
  -10.3286   22.5165  -32.5527 H   0  0  0  0  0  0  0  0  0  0  0  0
   -8.4640   23.4210  -32.0220 C   0  0  0  0  0  0  0  0  0  0  0  0
   -8.6981   24.1979  -31.2793 H   0  0  0  0  0  0  0  0  0  0  0  0
   -8.5264   23.8276  -33.0422 H   0  0  0  0  0  0  0  0  0  0  0  0
   -7.0970   22.9410  -31.7970 N   0  0  0  0  0  0  0  0  0  0  0  0
   -6.0540   23.6010  -31.3640 C   0  0  0  0  0  0  0  0  0  0  0  0
   -6.1240   24.9620  -30.9930 C   0  0  0  0  0  0  0  0  0  0  0  0
   -7.0810   25.5006  -31.0559 H   0  0  0  0  0  0  0  0  0  0  0  0
   -4.9800   25.6230  -30.5470 C   0  0  0  0  0  0  0  0  0  0  0  0
   -5.0380   26.6841  -30.2630 H   0  0  0  0  0  0  0  0  0  0  0  0
   -3.7970   24.9670  -30.4610 N   0  0  0  0  0  0  0  0  0  0  0  0
   -3.6790   23.6570  -30.8000 C   0  0  0  0  0  0  0  0  0  0  0  0
   -2.4350   23.0250  -30.6940 C   0  0  0  0  0  0  0  0  0  0  0  0
   -1.5622   23.5903  -30.3352 H   0  0  0  0  0  0  0  0  0  0  0  0
   -2.2970   21.6790  -31.0420 C   0  0  0  0  0  0  0  0  0  0  0  0
   -0.7350   20.8930  -30.9090 Cl  0  0  0  0  0  0  0  0  0  0  0  0
   -3.4050   20.9580  -31.4980 C   0  0  0  0  0  0  0  0  0  0  0  0
   -3.2941   19.8981  -31.7706 H   0  0  0  0  0  0  0  0  0  0  0  0
   -4.6530   21.5780  -31.6090 C   0  0  0  0  0  0  0  0  0  0  0  0
   -5.5188   21.0038  -31.9704 H   0  0  0  0  0  0  0  0  0  0  0  0
   -4.8080   22.9360  -31.2600 C   0  0  0  0  0  0  0  0  0  0  0  0
   -6.9100   17.1270  -32.7020 N   0  0  0  0  0  0  0  0  0  0  0  0
   -6.1930   16.6150  -33.7400 C   0  0  0  0  0  0  0  0  0  0  0  0
   -6.0740   15.1870  -33.8890 N   0  0  0  0  0  0  0  0  0  0  0  0
   -4.9990   14.4330  -33.2300 C   0  0  0  0  0  0  0  0  0  0  0  0
   -4.2046   15.1295  -32.9237 H   0  0  0  0  0  0  0  0  0  0  0  0
   -5.4148   13.9186  -32.3511 H   0  0  0  0  0  0  0  0  0  0  0  0
   -4.4070   13.3790  -34.1880 C   0  0  0  0  0  0  0  0  0  0  0  0
   -3.5409   13.8244  -34.6993 H   0  0  0  0  0  0  0  0  0  0  0  0
   -4.1351   12.5081  -33.5734 H   0  0  0  0  0  0  0  0  0  0  0  0
   -5.3550   12.8980  -35.2140 N   0  0  0  0  0  0  0  0  0  0  0  0
   -5.2460   13.4820  -36.0760 H   0  0  0  0  0  0  0  0  0  0  0  0
   -6.7530   12.9810  -34.7710 C   0  0  0  0  0  0  0  0  0  0  0  0
   -7.4039   12.5416  -35.5412 H   0  0  0  0  0  0  0  0  0  0  0  0
   -6.8609   12.4297  -33.8253 H   0  0  0  0  0  0  0  0  0  0  0  0
   -7.1560   14.4440  -34.5430 C   0  0  0  0  0  0  0  0  0  0  0  0
   -7.3794   14.9118  -35.5132 H   0  0  0  0  0  0  0  0  0  0  0  0
   -8.0429   14.4679  -33.8927 H   0  0  0  0  0  0  0  0  0  0  0  0
   -5.6260   17.4940  -34.6740 C   0  0  0  0  0  0  0  0  0  0  0  0
   -5.0619   17.1085  -35.5361 H   0  0  0  0  0  0  0  0  0  0  0  0
  1  2  1  0
  2  3  1  0
  3  4  1  0
  4  5  2  0
  5  6  1  0
  6  7  1  0
  6  8  1  0
  6  9  1  0
  9 10  1  0
  9 11  1  0
  9 12  1  0
 12 13  1  0
 12 14  1  0
 12 15  1  0
 15 16  1  0
 15 17  1  0
 15 18  1  0
 18 19  2  0
 19 20  1  0
 20 21  1  0
 20 22  2  0
 22 23  1  0
 22 24  1  0
 24 25  1  0
 25 26  2  0
 26 27  1  0
 26 28  1  0
 28 29  1  0
 28 30  2  0
 30 31  1  0
 30 32  1  0
 32 33  1  0
 32 34  2  0
  4 35  1  0
 35 36  2  0
 36 37  1  0
 37 38  1  0
 38 39  1  0
 38 40  1  0
 38 41  1  0
 41 42  1  0
 41 43  1  0
 41 44  1  0
 44 45  1  0
 44 46  1  0
 46 47  1  0
 46 48  1  0
 46 49  1  0
 49 50  1  0
 49 51  1  0
 36 52  1  0
 52 53  1  0
 52  2  2  0
 34 19  1  0
 49 37  1  0
 34 25  1  0
M  CHG  2   3  -1  24  -1
M  END
>  <UniqueID>  (5) 
5

>  <SMILES>  (5) 
Clc1ccc2/c(=N/CCCC/N=c3/nc(N4CCNCC4)cc[n-]3)cc[n-]c2c1

>  <Energy>  (5) 
66.77773866370802

>  <Genealogy>  (5) 
Clc1ccc2c(=NCCCCN=c3nc(N4CCNCC4)cc[n-]3)cc[n-]c2c1 (protonated)
Clc1ccc2/c(=N/CCCC/N=c3/nc(N4CCNCC4)cc[n-]3)cc[n-]c2c1 (cis-trans isomerization)
Clc1ccc2/c(=N/CCCC/N=c3/nc(N4CCNCC4)cc[n-]3)cc[n-]c2c1 (3D coordinates assigned)
Clc1ccc2/c(=N/CCCC/N=c3/nc(N4CCNCC4)cc[n-]3)cc[n-]c2c1 (nonaromatic ring conformer: 66.77773866370802 kcal/mol)

>  <smiles>  (5) 
Clc1ccc2c(=NCCCCN=c3nc(N4CCNCC4)cc[nH]3)cc[nH]c2c1

>  <score_type>  (5) 
oracle

>  <origin>  (5) 
adgpu

>  <m_score__min__energy>  (5) 
-10.74

>  <m_primary>  (5) 
energy

$$$$
5:0
     RDKit          3D

 40 41  0  0  0  0  0  0  0  0999 V2000
   -0.4670   23.6320  -29.3280 C   0  0  0  0  0  0  0  0  0  0  0  0
   -1.7000   22.9930  -29.8790 C   0  0  0  0  0  0  0  0  0  0  0  0
   -2.8220   23.3020  -29.3950 O   0  0  0  0  0  0  0  0  0  0  0  0
   -1.6030   22.1130  -31.0100 N   0  0  0  0  0  0  0  0  0  0  0  0
   -2.7110   21.3850  -31.5670 C   0  0  0  0  0  0  0  0  0  0  0  0
   -2.9450   21.3480  -32.9530 C   0  0  0  0  0  0  0  0  0  0  0  0
   -4.0280   20.6310  -33.4670 C   0  0  0  0  0  0  0  0  0  0  0  0
   -4.9000   19.9540  -32.6040 C   0  0  0  0  0  0  0  0  0  0  0  0
   -6.2070   18.9870  -33.2810 S   0  0  0  0  0  0  0  0  0  0  0  0
   -6.4610   19.3730  -34.7130 O   0  0  0  0  0  0  0  0  0  0  0  0
   -5.8090   17.5390  -33.2360 O   0  0  0  0  0  0  0  0  0  0  0  0
   -7.6480   19.2130  -32.3290 N   0  0  0  0  0  0  0  0  0  0  0  0
   -8.2690   20.5150  -32.5910 C   0  0  0  0  0  0  0  0  0  0  0  0
   -7.5110   21.6330  -31.9220 C   0  0  0  0  0  0  0  0  0  0  0  0
   -7.5610   21.7920  -30.5280 C   0  0  0  0  0  0  0  0  0  0  0  0
   -6.8790   22.8450  -29.9130 C   0  0  0  0  0  0  0  0  0  0  0  0
   -6.1390   23.7510  -30.6810 C   0  0  0  0  0  0  0  0  0  0  0  0
   -5.2650   25.0590  -29.8890 S   0  0  0  0  0  0  0  0  0  0  0  0
   -3.8950   25.5070  -30.8420 N   0  0  0  0  0  0  0  0  0  0  0  0
   -4.7900   24.6210  -28.5330 O   0  0  0  0  0  0  0  0  0  0  0  0
   -6.1760   26.2430  -29.7340 O   0  0  0  0  0  0  0  0  0  0  0  0
   -6.0770   23.5900  -32.0730 C   0  0  0  0  0  0  0  0  0  0  0  0
   -6.7550   22.5340  -32.6890 C   0  0  0  0  0  0  0  0  0  0  0  0
   -4.6950   20.0230  -31.2200 C   0  0  0  0  0  0  0  0  0  0  0  0
   -3.6100   20.7360  -30.7060 C   0  0  0  0  0  0  0  0  0  0  0  0
   -0.5040   23.6128  -28.2288 H   0  0  0  0  0  0  0  0  0  0  0  0
    0.4187   23.0794  -29.6748 H   0  0  0  0  0  0  0  0  0  0  0  0
   -0.4079   24.6742  -29.6748 H   0  0  0  0  0  0  0  0  0  0  0  0
   -0.6930   22.0870  -31.5240 H   0  0  0  0  0  0  0  0  0  0  0  0
   -2.2717   21.8865  -33.6361 H   0  0  0  0  0  0  0  0  0  0  0  0
   -4.1970   20.5977  -34.5534 H   0  0  0  0  0  0  0  0  0  0  0  0
   -8.2833   20.6923  -33.6765 H   0  0  0  0  0  0  0  0  0  0  0  0
   -9.2906   20.4984  -32.1836 H   0  0  0  0  0  0  0  0  0  0  0  0
   -8.1400   21.0840  -29.9169 H   0  0  0  0  0  0  0  0  0  0  0  0
   -6.9240   22.9624  -28.8202 H   0  0  0  0  0  0  0  0  0  0  0  0
   -3.0440   25.2870  -30.2780 H   0  0  0  0  0  0  0  0  0  0  0  0
   -5.4934   24.2965  -32.6815 H   0  0  0  0  0  0  0  0  0  0  0  0
   -6.6959   22.4083  -33.7802 H   0  0  0  0  0  0  0  0  0  0  0  0
   -5.3905   19.5142  -30.5364 H   0  0  0  0  0  0  0  0  0  0  0  0
   -3.4585   20.7896  -29.6178 H   0  0  0  0  0  0  0  0  0  0  0  0
  1  2  1  0
  2  3  2  0
  2  4  1  0
  4  5  1  0
  5  6  2  0
  6  7  1  0
  7  8  2  0
  8  9  1  0
  9 10  2  0
  9 11  2  0
  9 12  1  0
 12 13  1  0
 13 14  1  0
 14 15  2  0
 15 16  1  0
 16 17  2  0
 17 18  1  0
 18 19  1  0
 18 20  2  0
 18 21  2  0
 17 22  1  0
 22 23  2  0
  8 24  1  0
 24 25  2  0
 25  5  1  0
 23 14  1  0
  1 26  1  0
  1 27  1  0
  1 28  1  0
  4 29  1  0
  6 30  1  0
  7 31  1  0
 13 32  1  0
 13 33  1  0
 15 34  1  0
 16 35  1  0
 19 36  1  0
 22 37  1  0
 23 38  1  0
 24 39  1  0
 25 40  1  0
M  CHG  2  12  -1  19  -1
M  END
>  <UniqueID>  (6) 
6

>  <SMILES>  (6) 
CC(=O)Nc1ccc(S(=O)(=O)[N-]Cc2ccc(S([NH-])(=O)=O)cc2)cc1

>  <Energy>  (6) 
35.00416122745007

>  <Genealogy>  (6) 
CC(=O)Nc1ccc(S(=O)(=O)[N-]Cc2ccc(S([NH-])(=O)=O)cc2)cc1 (protonated)
CC(=O)Nc1ccc(S(=O)(=O)[N-]Cc2ccc(S([NH-])(=O)=O)cc2)cc1 (3D coordinates assigned)
CC(=O)Nc1ccc(S(=O)(=O)[N-]Cc2ccc(S([NH-])(=O)=O)cc2)cc1 (optimized conformer: 35.00416122745007 kcal/mol)

>  <smiles>  (6) 
CC(=O)Nc1ccc(S(=O)(=O)NCc2ccc(S(N)(=O)=O)cc2)cc1

>  <score_type>  (6) 
oracle

>  <origin>  (6) 
adgpu

>  <m_score__min__energy>  (6) 
-10.68

>  <m_primary>  (6) 
energy

$$$$
6:0
     RDKit          3D

 55 58  0  0  0  0  0  0  0  0999 V2000
   -1.1440   21.8790  -30.5030 O   0  0  0  0  0  0  0  0  0  0  0  0
   -1.8940   22.6550  -29.8450 C   0  0  0  0  0  0  0  0  0  0  0  0
   -3.2490   22.9450  -30.3700 C   0  0  0  0  0  0  0  0  0  0  0  0
   -4.0140   21.8930  -30.8990 C   0  0  0  0  0  0  0  0  0  0  0  0
   -5.3030   22.1250  -31.3970 C   0  0  0  0  0  0  0  0  0  0  0  0
   -6.2570   20.7900  -32.0430 S   0  0  0  0  0  0  0  0  0  0  0  0
   -5.3840   19.5680  -32.1280 O   0  0  0  0  0  0  0  0  0  0  0  0
   -6.7040   21.1310  -33.4380 O   0  0  0  0  0  0  0  0  0  0  0  0
   -7.6620   20.4270  -31.0590 N   0  0  0  0  0  0  0  0  0  0  0  0
   -8.6650   21.5120  -31.0700 C   0  0  0  0  0  0  0  0  0  0  0  0
   -9.8630   21.2120  -31.9880 C   0  0  0  0  0  0  0  0  0  0  0  0
   -9.4650   20.3920  -33.0610 O   0  0  0  0  0  0  0  0  0  0  0  0
   -9.1620   19.0950  -32.5850 C   0  0  0  0  0  0  0  0  0  0  0  0
   -8.2290   19.0980  -31.3520 C   0  0  0  0  0  0  0  0  0  0  0  0
   -5.8290   23.4230  -31.3740 C   0  0  0  0  0  0  0  0  0  0  0  0
   -5.0830   24.4730  -30.8370 C   0  0  0  0  0  0  0  0  0  0  0  0
   -3.8030   24.2410  -30.3230 C   0  0  0  0  0  0  0  0  0  0  0  0
   -3.1080   25.2980  -29.7460 O   0  0  0  0  0  0  0  0  0  0  0  0
   -1.4010   23.2800  -28.6360 N   0  0  0  0  0  0  0  0  0  0  0  0
   -0.1040   23.9560  -28.8970 C   0  0  0  0  0  0  0  0  0  0  0  0
    0.7170   24.2060  -27.6140 C   0  0  0  0  0  0  0  0  0  0  0  0
   -0.1390   24.1560  -26.4210 N   0  0  0  0  0  0  0  0  0  0  0  0
   -0.0820   25.1950  -25.4240 C   0  0  0  0  0  0  0  0  0  0  0  0
   -1.2640   25.8020  -24.9620 C   0  0  0  0  0  0  0  0  0  0  0  0
   -1.2100   26.8000  -23.9850 C   0  0  0  0  0  0  0  0  0  0  0  0
    0.0210   27.1970  -23.4560 C   0  0  0  0  0  0  0  0  0  0  0  0
    1.1990   26.5940  -23.9020 C   0  0  0  0  0  0  0  0  0  0  0  0
    1.1500   25.5940  -24.8780 C   0  0  0  0  0  0  0  0  0  0  0  0
   -1.0000   22.9840  -26.2180 C   0  0  0  0  0  0  0  0  0  0  0  0
   -1.2860   22.2810  -27.5540 C   0  0  0  0  0  0  0  0  0  0  0  0
   -3.5967   20.8755  -30.9227 H   0  0  0  0  0  0  0  0  0  0  0  0
   -9.0363   21.6569  -30.0448 H   0  0  0  0  0  0  0  0  0  0  0  0
   -8.1702   22.4145  -31.4581 H   0  0  0  0  0  0  0  0  0  0  0  0
  -10.6438   20.6975  -31.4087 H   0  0  0  0  0  0  0  0  0  0  0  0
  -10.2524   22.1598  -32.3882 H   0  0  0  0  0  0  0  0  0  0  0  0
  -10.1027   18.5956  -32.3097 H   0  0  0  0  0  0  0  0  0  0  0  0
   -8.6331   18.5672  -33.3923 H   0  0  0  0  0  0  0  0  0  0  0  0
   -8.8045   18.7622  -30.4767 H   0  0  0  0  0  0  0  0  0  0  0  0
   -7.3883   18.4247  -31.5752 H   0  0  0  0  0  0  0  0  0  0  0  0
   -6.8329   23.6152  -31.7804 H   0  0  0  0  0  0  0  0  0  0  0  0
   -5.5041   25.4890  -30.8178 H   0  0  0  0  0  0  0  0  0  0  0  0
   -2.0790   24.0190  -28.3330 H   0  0  0  0  0  0  0  0  0  0  0  0
    0.4895   23.3251  -29.5751 H   0  0  0  0  0  0  0  0  0  0  0  0
   -0.3288   24.9378  -29.3393 H   0  0  0  0  0  0  0  0  0  0  0  0
    1.4962   23.4342  -27.5298 H   0  0  0  0  0  0  0  0  0  0  0  0
    1.1697   25.2065  -27.6779 H   0  0  0  0  0  0  0  0  0  0  0  0
   -2.2358   25.4895  -25.3718 H   0  0  0  0  0  0  0  0  0  0  0  0
   -2.1379   27.2737  -23.6319 H   0  0  0  0  0  0  0  0  0  0  0  0
    0.0621   27.9841  -22.6887 H   0  0  0  0  0  0  0  0  0  0  0  0
    2.1676   26.9064  -23.4846 H   0  0  0  0  0  0  0  0  0  0  0  0
    2.0804   25.1172  -25.2202 H   0  0  0  0  0  0  0  0  0  0  0  0
   -0.4964   22.2793  -25.5399 H   0  0  0  0  0  0  0  0  0  0  0  0
   -1.9537   23.3174  -25.7830 H   0  0  0  0  0  0  0  0  0  0  0  0
   -0.4636   21.5877  -27.7842 H   0  0  0  0  0  0  0  0  0  0  0  0
   -2.2316   21.7247  -27.4742 H   0  0  0  0  0  0  0  0  0  0  0  0
  1  2  2  0
  2  3  1  0
  3  4  2  0
  4  5  1  0
  5  6  1  0
  6  7  2  0
  6  8  2  0
  6  9  1  0
  9 10  1  0
 10 11  1  0
 11 12  1  0
 12 13  1  0
 13 14  1  0
  5 15  2  0
 15 16  1  0
 16 17  2  0
 17 18  1  0
  2 19  1  0
 19 20  1  0
 20 21  1  0
 21 22  1  0
 22 23  1  0
 23 24  2  0
 24 25  1  0
 25 26  2  0
 26 27  1  0
 27 28  2  0
 22 29  1  0
 29 30  1  0
 17  3  1  0
 30 19  1  0
 14  9  1  0
 28 23  1  0
  4 31  1  0
 10 32  1  0
 10 33  1  0
 11 34  1  0
 11 35  1  0
 13 36  1  0
 13 37  1  0
 14 38  1  0
 14 39  1  0
 15 40  1  0
 16 41  1  0
 19 42  1  0
 20 43  1  0
 20 44  1  0
 21 45  1  0
 21 46  1  0
 24 47  1  0
 25 48  1  0
 26 49  1  0
 27 50  1  0
 28 51  1  0
 29 52  1  0
 29 53  1  0
 30 54  1  0
 30 55  1  0
M  CHG  2  18  -1  19   1
M  END
>  <UniqueID>  (7) 
7

>  <SMILES>  (7) 
O=C(c1cc(S(=O)(=O)N2CCOCC2)ccc1[O-])[NH+]1CCN(c2ccccc2)CC1

>  <Energy>  (7) 
84.99071194501738

>  <Genealogy>  (7) 
O=C(c1cc(S(=O)(=O)N2CCOCC2)ccc1[O-])[NH+]1CCN(c2ccccc2)CC1 (protonated)
O=C(c1cc(S(=O)(=O)N2CCOCC2)ccc1[O-])[NH+]1CCN(c2ccccc2)CC1 (3D coordinates assigned)
O=C(c1cc(S(=O)(=O)N2CCOCC2)ccc1[O-])[NH+]1CCN(c2ccccc2)CC1 (nonaromatic ring conformer: 84.99071194501738 kcal/mol)

>  <smiles>  (7) 
O=C(c1cc(S(=O)(=O)N2CCOCC2)ccc1O)N1CCN(c2ccccc2)CC1

>  <score_type>  (7) 
oracle

>  <origin>  (7) 
adgpu

>  <m_score__min__energy>  (7) 
-12.109999999999999

>  <m_primary>  (7) 
energy

$$$$
7:0
     RDKit          3D

 45 47  0  0  0  0  0  0  0  0999 V2000
   -5.2520   25.4040  -30.4740 C   0  0  0  0  0  0  0  0  0  0  0  0
   -5.0180   24.2730  -31.3070 O   0  0  0  0  0  0  0  0  0  0  0  0
   -5.9200   23.2400  -31.4390 C   0  0  0  0  0  0  0  0  0  0  0  0
   -7.0970   23.2080  -30.7240 C   0  0  0  0  0  0  0  0  0  0  0  0
   -7.9930   22.1700  -30.8630 C   0  0  0  0  0  0  0  0  0  0  0  0
   -7.6730   21.1600  -31.7450 C   0  0  0  0  0  0  0  0  0  0  0  0
   -6.4900   21.2030  -32.4560 C   0  0  0  0  0  0  0  0  0  0  0  0
   -5.5730   22.2240  -32.3410 C   0  0  0  0  0  0  0  0  0  0  0  0
   -4.3580   22.2870  -33.0690 N   0  0  0  0  0  0  0  0  0  0  0  0
   -3.0090   21.2780  -32.8280 S   0  0  0  0  0  0  0  0  0  0  0  0
   -1.9630   21.5360  -33.8750 O   0  0  0  0  0  0  0  0  0  0  0  0
   -3.4570   19.8320  -32.9820 O   0  0  0  0  0  0  0  0  0  0  0  0
   -2.2990   21.4050  -31.2380 C   0  0  0  0  0  0  0  0  0  0  0  0
   -2.2960   22.5580  -30.4880 C   0  0  0  0  0  0  0  0  0  0  0  0
   -1.7350   22.6100  -29.2780 N   0  0  0  0  0  0  0  0  0  0  0  0
   -1.1450   21.5320  -28.7330 C   0  0  0  0  0  0  0  0  0  0  0  0
   -1.1160   20.3300  -29.4470 C   0  0  0  0  0  0  0  0  0  0  0  0
   -0.4620   19.2140  -28.7970 C   0  0  0  0  0  0  0  0  0  0  0  0
   -1.1330   18.6540  -27.7060 C   0  0  0  0  0  0  0  0  0  0  0  0
   -2.4520   19.2100  -27.2650 C   0  0  0  0  0  0  0  0  0  0  0  0
   -0.5490   17.6160  -27.0860 N   0  0  0  0  0  0  0  0  0  0  0  0
    0.6370   17.1180  -27.4820 C   0  0  0  0  0  0  0  0  0  0  0  0
    1.2000   16.1220  -26.8890 N   0  0  0  0  0  0  0  0  0  0  0  0
    1.2840   17.6640  -28.5430 N   0  0  0  0  0  0  0  0  0  0  0  0
    0.7630   18.7060  -29.2160 C   0  0  0  0  0  0  0  0  0  0  0  0
    1.3600   19.2520  -30.2370 N   0  0  0  0  0  0  0  0  0  0  0  0
   -1.6930   20.2740  -30.6940 C   0  0  0  0  0  0  0  0  0  0  0  0
   -5.1893   25.1011  -29.4184 H   0  0  0  0  0  0  0  0  0  0  0  0
   -4.4942   26.1742  -30.6801 H   0  0  0  0  0  0  0  0  0  0  0  0
   -6.2532   25.8103  -30.6801 H   0  0  0  0  0  0  0  0  0  0  0  0
   -7.3265   24.0280  -30.0276 H   0  0  0  0  0  0  0  0  0  0  0  0
   -8.9315   22.1482  -30.2897 H   0  0  0  0  0  0  0  0  0  0  0  0
   -8.3638   20.3152  -31.8832 H   0  0  0  0  0  0  0  0  0  0  0  0
   -6.2686   20.3790  -33.1502 H   0  0  0  0  0  0  0  0  0  0  0  0
   -4.3020   23.0190  -33.8150 H   0  0  0  0  0  0  0  0  0  0  0  0
   -2.7693   23.4628  -30.8970 H   0  0  0  0  0  0  0  0  0  0  0  0
   -0.6890   21.5949  -27.7340 H   0  0  0  0  0  0  0  0  0  0  0  0
   -2.4935   19.2275  -26.1659 H   0  0  0  0  0  0  0  0  0  0  0  0
   -2.5667   20.2330  -27.6526 H   0  0  0  0  0  0  0  0  0  0  0  0
   -3.2645   18.5778  -27.6526 H   0  0  0  0  0  0  0  0  0  0  0  0
   -1.0200   17.1590  -26.2520 H   0  0  0  0  0  0  0  0  0  0  0  0
    0.7620   15.6510  -26.0680 H   0  0  0  0  0  0  0  0  0  0  0  0
    2.2090   17.2590  -28.8360 H   0  0  0  0  0  0  0  0  0  0  0  0
    2.2750   18.8370  -30.5130 H   0  0  0  0  0  0  0  0  0  0  0  0
   -1.6762   19.3334  -31.2640 H   0  0  0  0  0  0  0  0  0  0  0  0
  1  2  1  0
  2  3  1  0
  3  4  2  0
  4  5  1  0
  5  6  2  0
  6  7  1  0
  7  8  2  0
  8  9  1  0
  9 10  1  0
 10 11  2  0
 10 12  2  0
 10 13  1  0
 13 14  2  0
 14 15  1  0
 15 16  2  0
 16 17  1  0
 17 18  1  0
 18 19  2  0
 19 20  1  0
 19 21  1  0
 21 22  1  0
 22 23  2  3
 22 24  1  0
 24 25  1  0
 25 26  2  3
 17 27  2  0
  8  3  1  0
 27 13  1  0
 25 18  1  0
  1 28  1  0
  1 29  1  0
  1 30  1  0
  4 31  1  0
  5 32  1  0
  6 33  1  0
  7 34  1  0
  9 35  1  0
 14 36  1  0
 16 37  1  0
 20 38  1  0
 20 39  1  0
 20 40  1  0
 21 41  1  0
 23 42  1  0
 24 43  1  0
 26 44  1  0
 27 45  1  0
M  END
>  <smiles>  (8) 
COc1ccccc1NS(=O)(=O)c1cncc(-c2c(C)[nH]c(=N)[nH]c2=N)c1

>  <score_type>  (8) 
oracle

>  <origin>  (8) 
adgpu

>  <m_score__min__energy>  (8) 
-9.3800000000000008

>  <m_primary>  (8) 
energy

$$$$
8:0
     RDKit          3D

 41 43  0  0  0  0  0  0  0  0999 V2000
   -7.6170   17.4060  -32.7380 C   0  0  0  0  0  0  0  0  0  0  0  0
   -6.5860   18.4910  -32.8280 C   0  0  0  0  0  0  0  0  0  0  0  0
   -5.3540   18.2430  -33.4520 C   0  0  0  0  0  0  0  0  0  0  0  0
   -4.4110   19.2720  -33.5950 C   0  0  0  0  0  0  0  0  0  0  0  0
   -3.0810   18.9960  -34.2310 C   0  0  0  0  0  0  0  0  0  0  0  0
   -4.6960   20.5450  -33.0830 C   0  0  0  0  0  0  0  0  0  0  0  0
   -5.9230   20.8060  -32.4550 C   0  0  0  0  0  0  0  0  0  0  0  0
   -6.2070   22.1330  -31.9800 N   0  0  0  0  0  0  0  0  0  0  0  0
   -5.2540   22.9830  -31.6340 N   0  0  0  0  0  0  0  0  0  0  0  0
   -5.8440   24.1070  -31.1850 C   0  0  0  0  0  0  0  0  0  0  0  0
   -5.1090   25.2880  -30.6920 C   0  0  0  0  0  0  0  0  0  0  0  0
   -5.7290   26.3690  -30.5080 O   0  0  0  0  0  0  0  0  0  0  0  0
   -3.6930   25.2550  -30.4700 N   0  0  0  0  0  0  0  0  0  0  0  0
   -3.0290   24.5750  -29.3960 C   0  0  0  0  0  0  0  0  0  0  0  0
   -3.5650   23.3710  -28.9220 C   0  0  0  0  0  0  0  0  0  0  0  0
   -2.9530   22.6930  -27.8630 C   0  0  0  0  0  0  0  0  0  0  0  0
   -1.7900   23.2050  -27.2830 C   0  0  0  0  0  0  0  0  0  0  0  0
   -1.2260   24.3850  -27.7730 C   0  0  0  0  0  0  0  0  0  0  0  0
   -1.8310   25.0670  -28.8350 C   0  0  0  0  0  0  0  0  0  0  0  0
   -1.2290   26.2160  -29.3370 O   0  0  0  0  0  0  0  0  0  0  0  0
   -7.2200   23.9750  -31.2520 C   0  0  0  0  0  0  0  0  0  0  0  0
   -7.4150   22.7000  -31.7450 C   0  0  0  0  0  0  0  0  0  0  0  0
   -8.7500   22.0480  -31.9370 C   0  0  0  0  0  0  0  0  0  0  0  0
   -6.8750   19.7790  -32.3550 C   0  0  0  0  0  0  0  0  0  0  0  0
   -7.8262   17.1858  -31.6808 H   0  0  0  0  0  0  0  0  0  0  0  0
   -8.5416   17.7368  -33.2336 H   0  0  0  0  0  0  0  0  0  0  0  0
   -7.2395   16.4994  -33.2336 H   0  0  0  0  0  0  0  0  0  0  0  0
   -5.1261   17.2359  -33.8313 H   0  0  0  0  0  0  0  0  0  0  0  0
   -2.3253   18.8392  -33.4472 H   0  0  0  0  0  0  0  0  0  0  0  0
   -3.1536   18.0938  -34.8561 H   0  0  0  0  0  0  0  0  0  0  0  0
   -2.7887   19.8526  -34.8561 H   0  0  0  0  0  0  0  0  0  0  0  0
   -3.9498   21.3480  -33.1745 H   0  0  0  0  0  0  0  0  0  0  0  0
   -4.4724   22.9564  -29.3853 H   0  0  0  0  0  0  0  0  0  0  0  0
   -3.3880   21.7555  -27.4864 H   0  0  0  0  0  0  0  0  0  0  0  0
   -1.3182   22.6787  -26.4401 H   0  0  0  0  0  0  0  0  0  0  0  0
   -0.3032   24.7797  -27.3228 H   0  0  0  0  0  0  0  0  0  0  0  0
   -7.9840   24.7166  -30.9756 H   0  0  0  0  0  0  0  0  0  0  0  0
   -9.1962   21.8301  -30.9555 H   0  0  0  0  0  0  0  0  0  0  0  0
   -9.4112   22.7246  -32.4983 H   0  0  0  0  0  0  0  0  0  0  0  0
   -8.6229   21.1105  -32.4983 H   0  0  0  0  0  0  0  0  0  0  0  0
   -7.8556   19.9864  -31.9019 H   0  0  0  0  0  0  0  0  0  0  0  0
  1  2  1  0
  2  3  2  0
  3  4  1  0
  4  5  1  0
  4  6  2  0
  6  7  1  0
  7  8  1  0
  8  9  1  0
  9 10  2  0
 10 11  1  0
 11 12  2  0
 11 13  1  0
 13 14  1  0
 14 15  2  0
 15 16  1  0
 16 17  2  0
 17 18  1  0
 18 19  2  0
 19 20  1  0
 10 21  1  0
 21 22  2  0
 22 23  1  0
  7 24  2  0
 24  2  1  0
 22  8  1  0
 19 14  1  0
  1 25  1  0
  1 26  1  0
  1 27  1  0
  3 28  1  0
  5 29  1  0
  5 30  1  0
  5 31  1  0
  6 32  1  0
 15 33  1  0
 16 34  1  0
 17 35  1  0
 18 36  1  0
 21 37  1  0
 23 38  1  0
 23 39  1  0
 23 40  1  0
 24 41  1  0
M  CHG  2  13  -1  20  -1
M  END
>  <UniqueID>  (9) 
8

>  <SMILES>  (9) 
Cc1cc(C)cc(-n2nc(C(=O)[N-]c3ccccc3[O-])cc2C)c1

>  <Energy>  (9) 
80.72295755313479

>  <Genealogy>  (9) 
Cc1cc(C)cc(-n2nc(C(=O)[N-]c3ccccc3[O-])cc2C)c1 (protonated)
Cc1cc(C)cc(-n2nc(C(=O)[N-]c3ccccc3[O-])cc2C)c1 (3D coordinates assigned)
Cc1cc(C)cc(-n2nc(C(=O)[N-]c3ccccc3[O-])cc2C)c1 (optimized conformer: 80.72295755313479 kcal/mol)

>  <smiles>  (9) 
Cc1cc(C)cc(-n2nc(C(=O)Nc3ccccc3O)cc2C)c1

>  <score_type>  (9) 
oracle

>  <origin>  (9) 
adgpu

>  <m_score__min__energy>  (9) 
-14.32

>  <m_primary>  (9) 
energy

$$$$
9:0
     RDKit          3D

 45 47  0  0  0  0  0  0  0  0999 V2000
   -5.1110   18.9350  -33.5160 C   0  0  0  0  0  0  0  0  0  0  0  0
   -5.9830   18.6630  -32.3290 C   0  0  0  0  0  0  0  0  0  0  0  0
   -5.7200   17.6730  -31.5940 O   0  0  0  0  0  0  0  0  0  0  0  0
   -7.1370   19.4780  -32.0460 N   0  0  0  0  0  0  0  0  0  0  0  0
   -8.4580   18.8430  -31.9620 C   0  0  0  0  0  0  0  0  0  0  0  0
   -9.4840   19.6890  -32.7210 C   0  0  0  0  0  0  0  0  0  0  0  0
   -9.4320   21.0480  -32.2860 O   0  0  0  0  0  0  0  0  0  0  0  0
   -8.2260   21.6710  -31.9470 C   0  0  0  0  0  0  0  0  0  0  0  0
   -8.1960   23.0470  -31.7050 C   0  0  0  0  0  0  0  0  0  0  0  0
   -7.0030   23.6660  -31.3270 C   0  0  0  0  0  0  0  0  0  0  0  0
   -5.8340   22.9090  -31.1670 C   0  0  0  0  0  0  0  0  0  0  0  0
   -4.3430   23.6830  -30.6210 S   0  0  0  0  0  0  0  0  0  0  0  0
   -4.4420   25.1660  -30.8520 O   0  0  0  0  0  0  0  0  0  0  0  0
   -3.1900   23.1620  -31.4330 O   0  0  0  0  0  0  0  0  0  0  0  0
   -4.0490   23.3820  -28.9240 N   0  0  0  0  0  0  0  0  0  0  0  0
   -4.4770   24.5450  -28.1140 C   0  0  0  0  0  0  0  0  0  0  0  0
   -3.8520   24.5140  -26.7150 C   0  0  0  0  0  0  0  0  0  0  0  0
   -2.3080   24.6010  -26.7890 C   0  0  0  0  0  0  0  0  0  0  0  0
   -1.8170   26.0360  -26.5560 C   0  0  0  0  0  0  0  0  0  0  0  0
   -1.7590   24.0570  -28.1300 C   0  0  0  0  0  0  0  0  0  0  0  0
   -2.6530   22.9380  -28.6820 C   0  0  0  0  0  0  0  0  0  0  0  0
   -5.8620   21.5290  -31.4150 C   0  0  0  0  0  0  0  0  0  0  0  0
   -7.0540   20.9030  -31.8230 C   0  0  0  0  0  0  0  0  0  0  0  0
   -4.1129   19.2463  -33.1741 H   0  0  0  0  0  0  0  0  0  0  0  0
   -5.0224   18.0218  -34.1228 H   0  0  0  0  0  0  0  0  0  0  0  0
   -5.5573   19.7366  -34.1228 H   0  0  0  0  0  0  0  0  0  0  0  0
   -8.4103   17.8385  -32.4077 H   0  0  0  0  0  0  0  0  0  0  0  0
   -8.7588   18.7639  -30.9069 H   0  0  0  0  0  0  0  0  0  0  0  0
   -9.2638   19.6450  -33.7978 H   0  0  0  0  0  0  0  0  0  0  0  0
  -10.4899   19.2904  -32.5229 H   0  0  0  0  0  0  0  0  0  0  0  0
   -9.1140   23.6435  -31.8125 H   0  0  0  0  0  0  0  0  0  0  0  0
   -6.9803   24.7521  -31.1540 H   0  0  0  0  0  0  0  0  0  0  0  0
   -4.1673   25.4693  -28.6237 H   0  0  0  0  0  0  0  0  0  0  0  0
   -5.5709   24.5065  -28.0048 H   0  0  0  0  0  0  0  0  0  0  0  0
   -4.2319   25.3669  -26.1334 H   0  0  0  0  0  0  0  0  0  0  0  0
   -4.1244   23.5635  -26.2330 H   0  0  0  0  0  0  0  0  0  0  0  0
   -1.9178   23.9629  -25.9824 H   0  0  0  0  0  0  0  0  0  0  0  0
   -1.7507   26.2299  -25.4753 H   0  0  0  0  0  0  0  0  0  0  0  0
   -0.8244   26.1626  -27.0129 H   0  0  0  0  0  0  0  0  0  0  0  0
   -2.5240   26.7442  -27.0129 H   0  0  0  0  0  0  0  0  0  0  0  0
   -1.7191   24.8780  -28.8610 H   0  0  0  0  0  0  0  0  0  0  0  0
   -0.7541   23.6456  -27.9540 H   0  0  0  0  0  0  0  0  0  0  0  0
   -2.2270   22.5848  -29.6326 H   0  0  0  0  0  0  0  0  0  0  0  0
   -2.6864   22.1386  -27.9271 H   0  0  0  0  0  0  0  0  0  0  0  0
   -4.9464   20.9324  -31.2898 H   0  0  0  0  0  0  0  0  0  0  0  0
  1  2  1  0
  2  3  2  0
  2  4  1  0
  4  5  1  0
  5  6  1  0
  6  7  1  0
  7  8  1  0
  8  9  2  0
  9 10  1  0
 10 11  2  0
 11 12  1  0
 12 13  2  0
 12 14  2  0
 12 15  1  0
 15 16  1  0
 16 17  1  0
 17 18  1  0
 18 19  1  0
 18 20  1  0
 20 21  1  0
 11 22  1  0
 22 23  2  0
 23  4  1  0
 23  8  1  0
 21 15  1  0
  1 24  1  0
  1 25  1  0
  1 26  1  0
  5 27  1  0
  5 28  1  0
  6 29  1  0
  6 30  1  0
  9 31  1  0
 10 32  1  0
 16 33  1  0
 16 34  1  0
 17 35  1  0
 17 36  1  0
 18 37  1  0
 19 38  1  0
 19 39  1  0
 19 40  1  0
 20 41  1  0
 20 42  1  0
 21 43  1  0
 21 44  1  0
 22 45  1  0
M  END
>  <UniqueID>  (10) 
9

>  <SMILES>  (10) 
CC(=O)N1CCOc2ccc(S(=O)(=O)N3CCC(C)CC3)cc21

>  <Energy>  (10) 
53.42208164380032

>  <Genealogy>  (10) 
CC(=O)N1CCOc2ccc(S(=O)(=O)N3CCC(C)CC3)cc21 (3D coordinates assigned)
CC(=O)N1CCOc2ccc(S(=O)(=O)N3CCC(C)CC3)cc21 (nonaromatic ring conformer: 53.42208164380032 kcal/mol)

>  <smiles>  (10) 
CC(=O)N1CCOc2ccc(S(=O)(=O)N3CCC(C)CC3)cc21

>  <score_type>  (10) 
oracle

>  <origin>  (10) 
adgpu

>  <m_score__min__energy>  (10) 
-8.8800000000000008

>  <m_primary>  (10) 
energy

$$$$
10:0
     RDKit          3D

 31 33  0  0  0  0  0  0  0  0999 V2000
    0.9245   25.2378  -25.5200 H   0  0  0  0  0  0  0  0  0  0  0  0
    0.2390   24.7670  -26.2400 C   0  0  0  0  0  0  0  0  0  0  0  0
   -0.1650   23.4450  -26.0570 C   0  0  0  0  0  0  0  0  0  0  0  0
    0.2041   22.8736  -25.1926 H   0  0  0  0  0  0  0  0  0  0  0  0
   -1.0370   22.8440  -26.9680 C   0  0  0  0  0  0  0  0  0  0  0  0
   -1.3492   21.8004  -26.8148 H   0  0  0  0  0  0  0  0  0  0  0  0
   -1.5210   23.5600  -28.0810 C   0  0  0  0  0  0  0  0  0  0  0  0
   -2.4460   22.8960  -29.0390 C   0  0  0  0  0  0  0  0  0  0  0  0
   -3.4400   22.2500  -28.6120 O   0  0  0  0  0  0  0  0  0  0  0  0
   -2.1740   22.9560  -30.4520 N   0  0  0  0  0  0  0  0  0  0  0  0
   -3.0380   23.1270  -31.3790 N   0  0  0  0  0  0  0  0  0  0  0  0
   -4.4350   23.3870  -31.1690 C   0  0  0  0  0  0  0  0  0  0  0  0
   -4.8290   24.6490  -30.7050 C   0  0  0  0  0  0  0  0  0  0  0  0
   -3.8750   25.6330  -30.4620 O   0  0  0  0  0  0  0  0  0  0  0  0
   -6.1850   24.9200  -30.4980 C   0  0  0  0  0  0  0  0  0  0  0  0
   -6.5510   26.0560  -30.0940 O   0  0  0  0  0  0  0  0  0  0  0  0
   -7.1160   23.9600  -30.7330 N   0  0  0  0  0  0  0  0  0  0  0  0
   -6.7740   22.7160  -31.1610 C   0  0  0  0  0  0  0  0  0  0  0  0
   -7.7710   21.7570  -31.3740 C   0  0  0  0  0  0  0  0  0  0  0  0
   -8.8274   22.0175  -31.2122 H   0  0  0  0  0  0  0  0  0  0  0  0
   -7.4260   20.4690  -31.7920 C   0  0  0  0  0  0  0  0  0  0  0  0
   -8.2120   19.7187  -31.9631 H   0  0  0  0  0  0  0  0  0  0  0  0
   -6.0860   20.1320  -31.9930 C   0  0  0  0  0  0  0  0  0  0  0  0
   -5.8199   19.1151  -32.3173 H   0  0  0  0  0  0  0  0  0  0  0  0
   -5.0810   21.0810  -31.7840 C   0  0  0  0  0  0  0  0  0  0  0  0
   -4.0269   20.8058  -31.9362 H   0  0  0  0  0  0  0  0  0  0  0  0
   -5.4140   22.3890  -31.3790 C   0  0  0  0  0  0  0  0  0  0  0  0
   -1.1010   24.9020  -28.2580 C   0  0  0  0  0  0  0  0  0  0  0  0
   -1.5370   25.6590  -29.3400 O   0  0  0  0  0  0  0  0  0  0  0  0
   -0.2270   25.4920  -27.3370 C   0  0  0  0  0  0  0  0  0  0  0  0
    0.0944   26.5343  -27.4793 H   0  0  0  0  0  0  0  0  0  0  0  0
  1  2  1  0
  2  3  2  0
  3  4  1  0
  3  5  1  0
  5  6  1  0
  5  7  2  0
  7  8  1  0
  8  9  2  0
  8 10  1  0
 10 11  2  0
 11 12  1  0
 12 13  2  0
 13 14  1  0
 13 15  1  0
 15 16  2  0
 15 17  1  0
 17 18  1  0
 18 19  2  0
 19 20  1  0
 19 21  1  0
 21 22  1  0
 21 23  2  0
 23 24  1  0
 23 25  1  0
 25 26  1  0
 25 27  2  0
  7 28  1  0
 28 29  1  0
 28 30  2  0
 30 31  1  0
 30  2  1  0
 27 12  1  0
 27 18  1  0
M  CHG  3  14  -1  17  -1  29  -1
M  END
>  <UniqueID>  (11) 
10

>  <SMILES>  (11) 
O=C(/N=N\c1c([O-])c(=O)[n-]c2ccccc12)c1ccccc1[O-]

>  <Energy>  (11) 
53.98076066903993

>  <Genealogy>  (11) 
O=C(N=Nc1c([O-])c(=O)[n-]c2ccccc12)c1ccccc1[O-] (protonated)
O=C(/N=N\c1c([O-])c(=O)[n-]c2ccccc12)c1ccccc1[O-] (cis-trans isomerization)
O=C(/N=N\c1c([O-])c(=O)[n-]c2ccccc12)c1ccccc1[O-] (3D coordinates assigned)
O=C(/N=N\c1c([O-])c(=O)[n-]c2ccccc12)c1ccccc1[O-] (optimized conformer: 53.98076066903993 kcal/mol)

>  <smiles>  (11) 
O=C(N=Nc1c(O)c(=O)[nH]c2ccccc12)c1ccccc1O

>  <score_type>  (11) 
oracle

>  <origin>  (11) 
adgpu

>  <m_score__min__energy>  (11) 
-13.789999999999999

>  <m_primary>  (11) 
energy

$$$$
11:0
     RDKit          3D

 49 52  0  0  0  0  0  0  0  0999 V2000
    0.0410   20.9480  -33.0910 C   0  0  0  0  0  0  0  0  0  0  0  0
   -1.1780   20.1090  -33.2630 C   0  0  0  0  0  0  0  0  0  0  0  0
   -2.1250   20.3470  -34.1990 N   0  0  0  0  0  0  0  0  0  0  0  0
   -3.0960   19.4360  -34.2010 N   0  0  0  0  0  0  0  0  0  0  0  0
   -2.9190   18.4620  -33.2760 C   0  0  0  0  0  0  0  0  0  0  0  0
   -3.7270   17.4630  -33.0810 N   0  0  0  0  0  0  0  0  0  0  0  0
   -5.1910   17.1920  -33.9700 S   0  0  0  0  0  0  0  0  0  0  0  0
   -5.6150   15.7560  -33.8480 O   0  0  0  0  0  0  0  0  0  0  0  0
   -4.9630   17.5290  -35.4180 O   0  0  0  0  0  0  0  0  0  0  0  0
   -6.4550   18.2200  -33.3040 C   0  0  0  0  0  0  0  0  0  0  0  0
   -7.3800   17.7160  -32.3800 C   0  0  0  0  0  0  0  0  0  0  0  0
   -8.3780   18.5450  -31.8610 C   0  0  0  0  0  0  0  0  0  0  0  0
   -8.4750   19.8840  -32.2790 C   0  0  0  0  0  0  0  0  0  0  0  0
   -9.4700   20.7700  -31.7380 N   0  0  0  0  0  0  0  0  0  0  0  0
   -9.2930   21.9880  -31.3080 C   0  0  0  0  0  0  0  0  0  0  0  0
   -7.9710   22.6280  -31.1380 C   0  0  0  0  0  0  0  0  0  0  0  0
   -7.2690   22.5440  -29.9230 C   0  0  0  0  0  0  0  0  0  0  0  0
   -6.0290   23.1750  -29.7800 C   0  0  0  0  0  0  0  0  0  0  0  0
   -5.4750   23.8970  -30.8420 C   0  0  0  0  0  0  0  0  0  0  0  0
   -4.2310   24.5180  -30.6570 O   0  0  0  0  0  0  0  0  0  0  0  0
   -3.1050   23.9250  -30.0670 C   0  0  0  0  0  0  0  0  0  0  0  0
   -2.4320   24.5170  -28.9810 C   0  0  0  0  0  0  0  0  0  0  0  0
   -1.3020   23.9020  -28.4340 C   0  0  0  0  0  0  0  0  0  0  0  0
   -0.8280   22.7030  -28.9720 C   0  0  0  0  0  0  0  0  0  0  0  0
   -1.4810   22.1210  -30.0630 C   0  0  0  0  0  0  0  0  0  0  0  0
   -2.6120   22.7330  -30.6110 C   0  0  0  0  0  0  0  0  0  0  0  0
   -6.2000   24.0240  -32.0400 C   0  0  0  0  0  0  0  0  0  0  0  0
   -7.4410   23.3960  -32.1830 C   0  0  0  0  0  0  0  0  0  0  0  0
   -7.5270   20.3930  -33.1730 C   0  0  0  0  0  0  0  0  0  0  0  0
   -6.5280   19.5640  -33.6920 C   0  0  0  0  0  0  0  0  0  0  0  0
   -1.5080   18.7010  -32.3930 S   0  0  0  0  0  0  0  0  0  0  0  0
    0.2424   21.0866  -32.0185 H   0  0  0  0  0  0  0  0  0  0  0  0
    0.8995   20.4486  -33.5637 H   0  0  0  0  0  0  0  0  0  0  0  0
   -0.1189   21.9283  -33.5637 H   0  0  0  0  0  0  0  0  0  0  0  0
   -3.8990   19.4960  -34.8640 H   0  0  0  0  0  0  0  0  0  0  0  0
   -7.3203   16.6646  -32.0622 H   0  0  0  0  0  0  0  0  0  0  0  0
   -9.0905   18.1485  -31.1226 H   0  0  0  0  0  0  0  0  0  0  0  0
  -10.1860   22.5784  -31.0550 H   0  0  0  0  0  0  0  0  0  0  0  0
   -7.6967   21.9797  -29.0812 H   0  0  0  0  0  0  0  0  0  0  0  0
   -5.4860   23.1029  -28.8261 H   0  0  0  0  0  0  0  0  0  0  0  0
   -2.7966   25.4664  -28.5617 H   0  0  0  0  0  0  0  0  0  0  0  0
   -0.7855   24.3627  -27.5790 H   0  0  0  0  0  0  0  0  0  0  0  0
    0.0582   22.2171  -28.5377 H   0  0  0  0  0  0  0  0  0  0  0  0
   -1.1041   21.1802  -30.4906 H   0  0  0  0  0  0  0  0  0  0  0  0
   -3.1174   22.2755  -31.4743 H   0  0  0  0  0  0  0  0  0  0  0  0
   -5.7891   24.6200  -32.8683 H   0  0  0  0  0  0  0  0  0  0  0  0
   -8.0044   23.5056  -33.1214 H   0  0  0  0  0  0  0  0  0  0  0  0
   -7.5678   21.4516  -33.4693 H   0  0  0  0  0  0  0  0  0  0  0  0
   -5.7969   19.9685  -34.4074 H   0  0  0  0  0  0  0  0  0  0  0  0
  1  2  1  0
  2  3  2  0
  3  4  1  0
  4  5  1  0
  5  6  2  3
  6  7  1  0
  7  8  2  0
  7  9  2  0
  7 10  1  0
 10 11  2  0
 11 12  1  0
 12 13  2  0
 13 14  1  0
 14 15  2  3
 15 16  1  0
 16 17  2  0
 17 18  1  0
 18 19  2  0
 19 20  1  0
 20 21  1  0
 21 22  2  0
 22 23  1  0
 23 24  2  0
 24 25  1  0
 25 26  2  0
 19 27  1  0
 27 28  2  0
 13 29  1  0
 29 30  2  0
  5 31  1  0
 31  2  1  0
 30 10  1  0
 28 16  1  0
 26 21  1  0
  1 32  1  0
  1 33  1  0
  1 34  1  0
  4 35  1  0
 11 36  1  0
 12 37  1  0
 15 38  1  0
 17 39  1  0
 18 40  1  0
 22 41  1  0
 23 42  1  0
 24 43  1  0
 25 44  1  0
 26 45  1  0
 27 46  1  0
 28 47  1  0
 29 48  1  0
 30 49  1  0
M  END
>  <UniqueID>  (12) 
11

>  <SMILES>  (12) 
Cc1n[nH]c(=NS(=O)(=O)c2ccc(N=Cc3ccc(Oc4ccccc4)cc3)cc2)s1

>  <Energy>  (12) 
107.76031008611125

>  <Genealogy>  (12) 
Cc1n[nH]c(=NS(=O)(=O)c2ccc(N=Cc3ccc(Oc4ccccc4)cc3)cc2)s1 (3D coordinates assigned)
Cc1n[nH]c(=NS(=O)(=O)c2ccc(N=Cc3ccc(Oc4ccccc4)cc3)cc2)s1 (optimized conformer: 107.76031008611125 kcal/mol)

>  <smiles>  (12) 
Cc1n[nH]c(=NS(=O)(=O)c2ccc(N=Cc3ccc(Oc4ccccc4)cc3)cc2)s1

>  <score_type>  (12) 
oracle

>  <origin>  (12) 
adgpu

>  <m_score__min__energy>  (12) 
-11.140000000000001

>  <m_primary>  (12) 
energy

$$$$
12:0
     RDKit          3D

 46 48  0  0  0  0  0  0  0  0999 V2000
   -4.9160   15.5820  -34.4310 C   0  0  0  0  0  0  0  0  0  0  0  0
   -5.8430   16.3710  -33.6290 N   0  0  0  0  0  0  0  0  0  0  0  0
   -6.1290   17.7430  -33.9400 C   0  0  0  0  0  0  0  0  0  0  0  0
   -5.5670   18.2890  -34.9300 O   0  0  0  0  0  0  0  0  0  0  0  0
   -7.0750   18.5210  -33.1100 C   0  0  0  0  0  0  0  0  0  0  0  0
   -7.0140   19.9250  -33.0650 C   0  0  0  0  0  0  0  0  0  0  0  0
   -7.9330   20.6370  -32.2740 C   0  0  0  0  0  0  0  0  0  0  0  0
   -7.9080   22.0350  -32.1810 O   0  0  0  0  0  0  0  0  0  0  0  0
   -6.8290   22.8010  -31.7130 C   0  0  0  0  0  0  0  0  0  0  0  0
   -7.0930   24.0160  -31.0750 C   0  0  0  0  0  0  0  0  0  0  0  0
   -6.0460   24.8170  -30.6090 C   0  0  0  0  0  0  0  0  0  0  0  0
   -4.7110   24.4210  -30.8070 C   0  0  0  0  0  0  0  0  0  0  0  0
   -3.6080   25.2020  -30.3240 N   0  0  0  0  0  0  0  0  0  0  0  0
   -2.6340   24.7850  -29.3610 C   0  0  0  0  0  0  0  0  0  0  0  0
   -2.7160   23.6260  -28.8760 O   0  0  0  0  0  0  0  0  0  0  0  0
   -1.5810   25.6710  -28.9600 N   0  0  0  0  0  0  0  0  0  0  0  0
   -1.2640   26.0810  -27.6210 C   0  0  0  0  0  0  0  0  0  0  0  0
   -1.7150   25.2920  -26.5560 C   0  0  0  0  0  0  0  0  0  0  0  0
   -1.4330   25.6570  -25.2380 C   0  0  0  0  0  0  0  0  0  0  0  0
   -0.7200   26.8290  -24.9710 C   0  0  0  0  0  0  0  0  0  0  0  0
   -0.3060   27.6630  -26.0230 C   0  0  0  0  0  0  0  0  0  0  0  0
    0.4870   28.9150  -25.7410 C   0  0  0  0  0  0  0  0  0  0  0  0
   -0.3420   29.8590  -25.1660 F   0  0  0  0  0  0  0  0  0  0  0  0
    1.0200   29.4340  -26.9090 F   0  0  0  0  0  0  0  0  0  0  0  0
    1.5310   28.6440  -24.8740 F   0  0  0  0  0  0  0  0  0  0  0  0
   -0.5690   27.2750  -27.3500 C   0  0  0  0  0  0  0  0  0  0  0  0
   -4.4470   23.2010  -31.4400 C   0  0  0  0  0  0  0  0  0  0  0  0
   -5.4940   22.4010  -31.9050 C   0  0  0  0  0  0  0  0  0  0  0  0
   -8.8730   19.9300  -31.5190 C   0  0  0  0  0  0  0  0  0  0  0  0
   -8.9050   18.5370  -31.5870 C   0  0  0  0  0  0  0  0  0  0  0  0
   -8.0180   17.8720  -32.3730 N   0  0  0  0  0  0  0  0  0  0  0  0
   -4.2483   15.0137  -33.7667 H   0  0  0  0  0  0  0  0  0  0  0  0
   -5.4822   14.8845  -35.0657 H   0  0  0  0  0  0  0  0  0  0  0  0
   -4.3179   16.2524  -35.0657 H   0  0  0  0  0  0  0  0  0  0  0  0
   -6.3040   15.9120  -32.8120 H   0  0  0  0  0  0  0  0  0  0  0  0
   -6.2510   20.4639  -33.6458 H   0  0  0  0  0  0  0  0  0  0  0  0
   -8.1337   24.3451  -30.9382 H   0  0  0  0  0  0  0  0  0  0  0  0
   -6.2669   25.7593  -30.0862 H   0  0  0  0  0  0  0  0  0  0  0  0
   -2.2948   24.3794  -26.7586 H   0  0  0  0  0  0  0  0  0  0  0  0
   -1.7729   25.0205  -24.4078 H   0  0  0  0  0  0  0  0  0  0  0  0
   -0.4818   27.0998  -23.9318 H   0  0  0  0  0  0  0  0  0  0  0  0
   -0.2290   27.9095  -28.1818 H   0  0  0  0  0  0  0  0  0  0  0  0
   -3.4067   22.8692  -31.5725 H   0  0  0  0  0  0  0  0  0  0  0  0
   -5.2737   21.4557  -32.4227 H   0  0  0  0  0  0  0  0  0  0  0  0
   -9.5835   20.4689  -30.8749 H   0  0  0  0  0  0  0  0  0  0  0  0
   -9.6496   17.9758  -31.0033 H   0  0  0  0  0  0  0  0  0  0  0  0
  1  2  1  0
  2  3  1  0
  3  4  2  0
  3  5  1  0
  5  6  2  0
  6  7  1  0
  7  8  1  0
  8  9  1  0
  9 10  2  0
 10 11  1  0
 11 12  2  0
 12 13  1  0
 13 14  1  0
 14 15  2  0
 14 16  1  0
 16 17  1  0
 17 18  2  0
 18 19  1  0
 19 20  2  0
 20 21  1  0
 21 22  1  0
 22 23  1  0
 22 24  1  0
 22 25  1  0
 21 26  2  0
 12 27  1  0
 27 28  2  0
  7 29  2  0
 29 30  1  0
 30 31  2  0
 31  5  1  0
 28  9  1  0
 26 17  1  0
  1 32  1  0
  1 33  1  0
  1 34  1  0
  2 35  1  0
  6 36  1  0
 10 37  1  0
 11 38  1  0
 18 39  1  0
 19 40  1  0
 20 41  1  0
 26 42  1  0
 27 43  1  0
 28 44  1  0
 29 45  1  0
 30 46  1  0
M  CHG  2  13  -1  16  -1
M  END
>  <UniqueID>  (13) 
12

>  <SMILES>  (13) 
CNC(=O)c1cc(Oc2ccc([N-]C(=O)[N-]c3cccc(C(F)(F)F)c3)cc2)ccn1

>  <Energy>  (13) 
60.52286643591006

>  <Genealogy>  (13) 
CNC(=O)c1cc(Oc2ccc([N-]C(=O)[N-]c3cccc(C(F)(F)F)c3)cc2)ccn1 (protonated)
CNC(=O)c1cc(Oc2ccc([N-]C(=O)[N-]c3cccc(C(F)(F)F)c3)cc2)ccn1 (3D coordinates assigned)
CNC(=O)c1cc(Oc2ccc([N-]C(=O)[N-]c3cccc(C(F)(F)F)c3)cc2)ccn1 (optimized conformer: 60.52286643591006 kcal/mol)

>  <smiles>  (13) 
CNC(=O)c1cc(Oc2ccc(NC(=O)Nc3cccc(C(F)(F)F)c3)cc2)ccn1

>  <score_type>  (13) 
oracle

>  <origin>  (13) 
adgpu

>  <m_score__min__energy>  (13) 
-11.9

>  <m_primary>  (13) 
energy

$$$$
13:0
     RDKit          3D

 44 46  0  0  0  0  0  0  0  0999 V2000
    0.2960   21.5560  -27.6310 N   0  0  0  0  0  0  0  0  0  0  0  0
   -0.7320   22.2400  -28.3520 C   0  0  0  0  0  0  0  0  0  0  0  0
   -1.7930   21.5220  -28.9190 C   0  0  0  0  0  0  0  0  0  0  0  0
   -2.7990   22.1890  -29.6240 C   0  0  0  0  0  0  0  0  0  0  0  0
   -2.7640   23.5890  -29.7620 C   0  0  0  0  0  0  0  0  0  0  0  0
   -3.7720   24.2820  -30.5190 N   0  0  0  0  0  0  0  0  0  0  0  0
   -5.1810   24.1280  -30.2920 C   0  0  0  0  0  0  0  0  0  0  0  0
   -5.6080   23.7120  -29.1800 O   0  0  0  0  0  0  0  0  0  0  0  0
   -6.1500   24.4360  -31.3890 C   0  0  0  0  0  0  0  0  0  0  0  0
   -7.1070   23.2960  -31.5320 C   0  0  0  0  0  0  0  0  0  0  0  0
   -8.4460   23.4060  -31.8940 C   0  0  0  0  0  0  0  0  0  0  0  0
   -9.0590   22.1680  -32.1160 C   0  0  0  0  0  0  0  0  0  0  0  0
   -8.1930   21.0970  -31.9480 C   0  0  0  0  0  0  0  0  0  0  0  0
   -8.5910   19.4080  -32.2230 S   0  0  0  0  0  0  0  0  0  0  0  0
   -8.8280   18.7420  -30.8950 O   0  0  0  0  0  0  0  0  0  0  0  0
   -9.8600   19.3300  -33.0240 O   0  0  0  0  0  0  0  0  0  0  0  0
   -7.3130   18.5710  -33.0730 N   0  0  0  0  0  0  0  0  0  0  0  0
   -6.4640   17.8300  -32.1260 C   0  0  0  0  0  0  0  0  0  0  0  0
   -5.2620   17.1980  -32.8590 C   0  0  0  0  0  0  0  0  0  0  0  0
   -5.3420   17.3990  -34.2570 O   0  0  0  0  0  0  0  0  0  0  0  0
   -5.3380   18.7860  -34.5460 C   0  0  0  0  0  0  0  0  0  0  0  0
   -6.4960   19.5240  -33.8400 C   0  0  0  0  0  0  0  0  0  0  0  0
   -6.6730   21.6710  -31.5220 S   0  0  0  0  0  0  0  0  0  0  0  0
   -1.6870   24.3050  -29.2080 C   0  0  0  0  0  0  0  0  0  0  0  0
   -1.6220   25.6900  -29.3400 O   0  0  0  0  0  0  0  0  0  0  0  0
   -0.6820   23.6330  -28.5060 C   0  0  0  0  0  0  0  0  0  0  0  0
    0.6160   21.9040  -26.6990 H   0  0  0  0  0  0  0  0  0  0  0  0
    0.7540   20.7050  -28.0290 H   0  0  0  0  0  0  0  0  0  0  0  0
   -1.8346   20.4283  -28.8089 H   0  0  0  0  0  0  0  0  0  0  0  0
   -3.6232   21.6159  -30.0737 H   0  0  0  0  0  0  0  0  0  0  0  0
   -3.4680   24.9310  -31.2790 H   0  0  0  0  0  0  0  0  0  0  0  0
   -6.7046   25.3537  -31.1435 H   0  0  0  0  0  0  0  0  0  0  0  0
   -5.6056   24.5830  -32.3334 H   0  0  0  0  0  0  0  0  0  0  0  0
   -8.9693   24.3682  -31.9953 H   0  0  0  0  0  0  0  0  0  0  0  0
  -10.1172   22.0555  -32.3947 H   0  0  0  0  0  0  0  0  0  0  0  0
   -6.0947   18.5208  -31.3537 H   0  0  0  0  0  0  0  0  0  0  0  0
   -7.0605   17.0294  -31.6643 H   0  0  0  0  0  0  0  0  0  0  0  0
   -4.3344   17.6558  -32.4848 H   0  0  0  0  0  0  0  0  0  0  0  0
   -5.2707   16.1152  -32.6654 H   0  0  0  0  0  0  0  0  0  0  0  0
   -4.3836   19.2168  -34.2090 H   0  0  0  0  0  0  0  0  0  0  0  0
   -5.4668   18.9087  -35.6315 H   0  0  0  0  0  0  0  0  0  0  0  0
   -6.0820   20.2800  -33.1566 H   0  0  0  0  0  0  0  0  0  0  0  0
   -7.1278   20.0093  -34.5985 H   0  0  0  0  0  0  0  0  0  0  0  0
    0.1538   24.2009  -28.0714 H   0  0  0  0  0  0  0  0  0  0  0  0
  1  2  1  0
  2  3  2  0
  3  4  1  0
  4  5  2  0
  5  6  1  0
  6  7  1  0
  7  8  2  0
  7  9  1  0
  9 10  1  0
 10 11  2  0
 11 12  1  0
 12 13  2  0
 13 14  1  0
 14 15  2  0
 14 16  2  0
 14 17  1  0
 17 18  1  0
 18 19  1  0
 19 20  1  0
 20 21  1  0
 21 22  1  0
 13 23  1  0
  5 24  1  0
 24 25  1  0
 24 26  2  0
 26  2  1  0
 23 10  1  0
 22 17  1  0
  1 27  1  0
  1 28  1  0
  3 29  1  0
  4 30  1  0
  6 31  1  0
  9 32  1  0
  9 33  1  0
 11 34  1  0
 12 35  1  0
 18 36  1  0
 18 37  1  0
 19 38  1  0
 19 39  1  0
 21 40  1  0
 21 41  1  0
 22 42  1  0
 22 43  1  0
 26 44  1  0
M  CHG  1  25  -1
M  END
>  <UniqueID>  (14) 
13

>  <SMILES>  (14) 
Nc1ccc(NC(=O)Cc2ccc(S(=O)(=O)N3CCOCC3)s2)c([O-])c1

>  <Energy>  (14) 
77.78087983314002

>  <Genealogy>  (14) 
Nc1ccc(NC(=O)Cc2ccc(S(=O)(=O)N3CCOCC3)s2)c([O-])c1 (protonated)
Nc1ccc(NC(=O)Cc2ccc(S(=O)(=O)N3CCOCC3)s2)c([O-])c1 (3D coordinates assigned)
Nc1ccc(NC(=O)Cc2ccc(S(=O)(=O)N3CCOCC3)s2)c([O-])c1 (nonaromatic ring conformer: 77.78087983314002 kcal/mol)

>  <smiles>  (14) 
Nc1ccc(NC(=O)Cc2ccc(S(=O)(=O)N3CCOCC3)s2)c(O)c1

>  <score_type>  (14) 
oracle

>  <origin>  (14) 
adgpu

>  <m_score__min__energy>  (14) 
-11.99

>  <m_primary>  (14) 
energy

$$$$
14:0
     RDKit          3D

 46 49  0  0  0  0  0  0  0  0999 V2000
   -4.1930   25.1250  -30.8360 O   0  0  0  0  0  0  0  0  0  0  0  0
   -4.8870   24.8160  -29.8290 C   0  0  0  0  0  0  0  0  0  0  0  0
   -6.3780   24.7810  -29.9440 C   0  0  0  0  0  0  0  0  0  0  0  0
   -6.7760   23.7080  -30.9060 C   0  0  0  0  0  0  0  0  0  0  0  0
   -6.8960   23.8460  -32.2700 C   0  0  0  0  0  0  0  0  0  0  0  0
   -7.1100   22.6540  -32.7660 O   0  0  0  0  0  0  0  0  0  0  0  0
   -7.1090   21.8060  -31.7600 C   0  0  0  0  0  0  0  0  0  0  0  0
   -7.2760   20.3460  -31.9180 C   0  0  0  0  0  0  0  0  0  0  0  0
   -8.5200   19.7460  -31.6600 C   0  0  0  0  0  0  0  0  0  0  0  0
   -8.6900   18.3700  -31.8400 C   0  0  0  0  0  0  0  0  0  0  0  0
   -7.6220   17.5830  -32.2790 C   0  0  0  0  0  0  0  0  0  0  0  0
   -6.3810   18.1700  -32.5360 C   0  0  0  0  0  0  0  0  0  0  0  0
   -6.2060   19.5460  -32.3540 C   0  0  0  0  0  0  0  0  0  0  0  0
   -6.9010   22.4110  -30.5710 N   0  0  0  0  0  0  0  0  0  0  0  0
   -4.2490   24.4480  -28.5970 N   0  0  0  0  0  0  0  0  0  0  0  0
   -2.8410   24.1960  -28.5090 C   0  0  0  0  0  0  0  0  0  0  0  0
   -1.9790   25.2480  -28.1730 C   0  0  0  0  0  0  0  0  0  0  0  0
   -0.5990   25.0370  -28.1070 C   0  0  0  0  0  0  0  0  0  0  0  0
   -0.0710   23.7710  -28.3690 C   0  0  0  0  0  0  0  0  0  0  0  0
   -0.9240   22.7070  -28.6780 C   0  0  0  0  0  0  0  0  0  0  0  0
   -2.3100   22.9060  -28.7300 C   0  0  0  0  0  0  0  0  0  0  0  0
   -3.3820   21.4880  -29.0060 S   0  0  0  0  0  0  0  0  0  0  0  0
   -2.9610   21.3740  -30.7450 C   0  0  0  0  0  0  0  0  0  0  0  0
   -1.7780   20.7420  -31.1500 C   0  0  0  0  0  0  0  0  0  0  0  0
   -1.4640   20.6440  -32.5090 C   0  0  0  0  0  0  0  0  0  0  0  0
   -2.3320   21.1750  -33.4670 C   0  0  0  0  0  0  0  0  0  0  0  0
   -3.5120   21.8110  -33.0670 C   0  0  0  0  0  0  0  0  0  0  0  0
   -3.8250   21.9110  -31.7070 C   0  0  0  0  0  0  0  0  0  0  0  0
   -6.8175   24.5713  -28.9577 H   0  0  0  0  0  0  0  0  0  0  0  0
   -6.7418   25.7536  -30.3068 H   0  0  0  0  0  0  0  0  0  0  0  0
   -6.8251   24.7850  -32.8385 H   0  0  0  0  0  0  0  0  0  0  0  0
   -9.3638   20.3615  -31.3149 H   0  0  0  0  0  0  0  0  0  0  0  0
   -9.6662   17.9061  -31.6357 H   0  0  0  0  0  0  0  0  0  0  0  0
   -7.7587   16.5010  -32.4222 H   0  0  0  0  0  0  0  0  0  0  0  0
   -5.5407   17.5500  -32.8817 H   0  0  0  0  0  0  0  0  0  0  0  0
   -5.2259   20.0041  -32.5532 H   0  0  0  0  0  0  0  0  0  0  0  0
   -4.8050   24.4860  -27.7130 H   0  0  0  0  0  0  0  0  0  0  0  0
   -2.3906   26.2456  -27.9599 H   0  0  0  0  0  0  0  0  0  0  0  0
    0.0721   25.8693  -27.8483 H   0  0  0  0  0  0  0  0  0  0  0  0
    1.0166   23.6107  -28.3323 H   0  0  0  0  0  0  0  0  0  0  0  0
   -0.5055   21.7102  -28.8810 H   0  0  0  0  0  0  0  0  0  0  0  0
   -1.0947   20.3220  -30.3972 H   0  0  0  0  0  0  0  0  0  0  0  0
   -0.5337   20.1489  -32.8241 H   0  0  0  0  0  0  0  0  0  0  0  0
   -2.0872   21.0928  -34.5362 H   0  0  0  0  0  0  0  0  0  0  0  0
   -4.1932   22.2321  -33.8211 H   0  0  0  0  0  0  0  0  0  0  0  0
   -4.7521   22.4127  -31.3928 H   0  0  0  0  0  0  0  0  0  0  0  0
  1  2  2  0
  2  3  1  0
  3  4  1  0
  4  5  2  0
  5  6  1  0
  6  7  1  0
  7  8  1  0
  8  9  2  0
  9 10  1  0
 10 11  2  0
 11 12  1  0
 12 13  2  0
  7 14  2  0
  2 15  1  0
 15 16  1  0
 16 17  2  0
 17 18  1  0
 18 19  2  0
 19 20  1  0
 20 21  2  0
 21 22  1  0
 22 23  1  0
 23 24  2  0
 24 25  1  0
 25 26  2  0
 26 27  1  0
 27 28  2  0
 14  4  1  0
 21 16  1  0
 28 23  1  0
 13  8  1  0
  3 29  1  0
  3 30  1  0
  5 31  1  0
  9 32  1  0
 10 33  1  0
 11 34  1  0
 12 35  1  0
 13 36  1  0
 15 37  1  0
 17 38  1  0
 18 39  1  0
 19 40  1  0
 20 41  1  0
 24 42  1  0
 25 43  1  0
 26 44  1  0
 27 45  1  0
 28 46  1  0
M  END
>  <UniqueID>  (15) 
14

>  <SMILES>  (15) 
O=C(Cc1coc(-c2ccccc2)n1)Nc1ccccc1Sc1ccccc1

>  <Energy>  (15) 
74.94884838256647

>  <Genealogy>  (15) 
O=C(Cc1coc(-c2ccccc2)n1)Nc1ccccc1Sc1ccccc1 (3D coordinates assigned)
O=C(Cc1coc(-c2ccccc2)n1)Nc1ccccc1Sc1ccccc1 (optimized conformer: 74.94884838256647 kcal/mol)

>  <smiles>  (15) 
O=C(Cc1coc(-c2ccccc2)n1)Nc1ccccc1Sc1ccccc1

>  <score_type>  (15) 
oracle

>  <origin>  (15) 
adgpu

>  <m_score__min__energy>  (15) 
-9.9700000000000006

>  <m_primary>  (15) 
energy

$$$$
15:0
     RDKit          3D

 40 44  0  0  0  0  0  0  0  0999 V2000
   -3.0590   24.7580  -26.8050 C   0  0  0  0  0  0  0  0  0  0  0  0
   -1.9630   25.2040  -27.5430 C   0  0  0  0  0  0  0  0  0  0  0  0
   -1.9640   25.0880  -28.8960 N   0  0  0  0  0  0  0  0  0  0  0  0
   -3.0130   24.5440  -29.5680 C   0  0  0  0  0  0  0  0  0  0  0  0
   -4.1430   24.0790  -28.8700 C   0  0  0  0  0  0  0  0  0  0  0  0
   -5.2840   23.4860  -29.6130 C   0  0  0  0  0  0  0  0  0  0  0  0
   -5.1460   22.4420  -30.4570 N   0  0  0  0  0  0  0  0  0  0  0  0
   -6.3900   22.2050  -30.9230 C   0  0  0  0  0  0  0  0  0  0  0  0
   -6.6740   21.1200  -31.8920 C   0  0  0  0  0  0  0  0  0  0  0  0
   -7.9610   20.6630  -32.1730 C   0  0  0  0  0  0  0  0  0  0  0  0
   -7.9320   19.6730  -33.0880 N   0  0  0  0  0  0  0  0  0  0  0  0
   -6.6390   19.4910  -33.3970 C   0  0  0  0  0  0  0  0  0  0  0  0
   -6.1280   18.5680  -34.3020 C   0  0  0  0  0  0  0  0  0  0  0  0
   -4.7400   18.5240  -34.4930 C   0  0  0  0  0  0  0  0  0  0  0  0
   -3.8750   19.3990  -33.7800 C   0  0  0  0  0  0  0  0  0  0  0  0
   -2.3970   19.3450  -33.9910 C   0  0  0  0  0  0  0  0  0  0  0  0
   -1.5850   18.2320  -33.8140 C   0  0  0  0  0  0  0  0  0  0  0  0
   -0.2990   18.6260  -34.1180 C   0  0  0  0  0  0  0  0  0  0  0  0
   -0.3680   19.9560  -34.4690 C   0  0  0  0  0  0  0  0  0  0  0  0
   -1.6380   20.3900  -34.3920 N   0  0  0  0  0  0  0  0  0  0  0  0
   -4.4400   20.3250  -32.8660 C   0  0  0  0  0  0  0  0  0  0  0  0
   -5.8290   20.3500  -32.6940 C   0  0  0  0  0  0  0  0  0  0  0  0
   -7.2620   23.1150  -30.3510 C   0  0  0  0  0  0  0  0  0  0  0  0
   -6.5610   23.9130  -29.5310 N   0  0  0  0  0  0  0  0  0  0  0  0
   -4.1500   24.1950  -27.4690 C   0  0  0  0  0  0  0  0  0  0  0  0
   -3.0636   24.8491  -25.7088 H   0  0  0  0  0  0  0  0  0  0  0  0
   -1.0982   25.6495  -27.0295 H   0  0  0  0  0  0  0  0  0  0  0  0
   -2.9783   24.4668  -30.6647 H   0  0  0  0  0  0  0  0  0  0  0  0
   -8.8776   21.0574  -31.7101 H   0  0  0  0  0  0  0  0  0  0  0  0
   -8.7520   19.1570  -33.4760 H   0  0  0  0  0  0  0  0  0  0  0  0
   -6.7954   17.8898  -34.8539 H   0  0  0  0  0  0  0  0  0  0  0  0
   -4.3136   17.8020  -35.2049 H   0  0  0  0  0  0  0  0  0  0  0  0
   -1.9058   17.2299  -33.4933 H   0  0  0  0  0  0  0  0  0  0  0  0
    0.6052   18.0004  -34.0864 H   0  0  0  0  0  0  0  0  0  0  0  0
    0.4915   20.5736  -34.7689 H   0  0  0  0  0  0  0  0  0  0  0  0
   -1.9440   21.3620  -34.6090 H   0  0  0  0  0  0  0  0  0  0  0  0
   -3.7956   21.0139  -32.3002 H   0  0  0  0  0  0  0  0  0  0  0  0
   -8.3446   23.1740  -30.5368 H   0  0  0  0  0  0  0  0  0  0  0  0
   -6.9520   24.6950  -28.9620 H   0  0  0  0  0  0  0  0  0  0  0  0
   -5.0183   23.8408  -26.8941 H   0  0  0  0  0  0  0  0  0  0  0  0
  1  2  2  0
  2  3  1  0
  3  4  2  0
  4  5  1  0
  5  6  1  0
  6  7  2  0
  7  8  1  0
  8  9  1  0
  9 10  2  0
 10 11  1  0
 11 12  1  0
 12 13  2  0
 13 14  1  0
 14 15  2  0
 15 16  1  0
 16 17  2  0
 17 18  1  0
 18 19  2  0
 19 20  1  0
 15 21  1  0
 21 22  2  0
  8 23  2  0
 23 24  1  0
  5 25  2  0
 25  1  1  0
 24  6  1  0
 22  9  1  0
 22 12  1  0
 20 16  1  0
  1 26  1  0
  2 27  1  0
  4 28  1  0
 10 29  1  0
 11 30  1  0
 13 31  1  0
 14 32  1  0
 17 33  1  0
 18 34  1  0
 19 35  1  0
 20 36  1  0
 21 37  1  0
 23 38  1  0
 24 39  1  0
 25 40  1  0
M  END
>  <UniqueID>  (16) 
15

>  <SMILES>  (16) 
c1cncc(-c2nc(-c3c[nH]c4ccc(-c5ccc[nH]5)cc34)c[nH]2)c1

>  <Energy>  (16) 
142.1850869938993

>  <Genealogy>  (16) 
c1cncc(-c2nc(-c3c[nH]c4ccc(-c5ccc[nH]5)cc34)c[nH]2)c1 (3D coordinates assigned)
c1cncc(-c2nc(-c3c[nH]c4ccc(-c5ccc[nH]5)cc34)c[nH]2)c1 (optimized conformer: 142.1850869938993 kcal/mol)

>  <smiles>  (16) 
c1cncc(-c2nc(-c3c[nH]c4ccc(-c5ccc[nH]5)cc34)c[nH]2)c1

>  <score_type>  (16) 
oracle

>  <origin>  (16) 
adgpu

>  <m_score__min__energy>  (16) 
-9.0399999999999991

>  <m_primary>  (16) 
energy

$$$$
16:0
     RDKit          3D

 55 59  0  0  0  0  0  0  0  0999 V2000
   -9.5840   19.8560  -32.7450 C   0  0  0  0  0  0  0  0  0  0  0  0
   -8.5990   20.7300  -32.0260 C   0  0  0  0  0  0  0  0  0  0  0  0
   -7.3960   21.0980  -32.6480 C   0  0  0  0  0  0  0  0  0  0  0  0
   -6.4920   21.9430  -31.9920 C   0  0  0  0  0  0  0  0  0  0  0  0
   -6.7770   22.4130  -30.7090 C   0  0  0  0  0  0  0  0  0  0  0  0
   -5.6150   23.4790  -29.8550 S   0  0  0  0  0  0  0  0  0  0  0  0
   -4.4590   23.6090  -31.2650 C   0  0  0  0  0  0  0  0  0  0  0  0
   -3.1250   22.9330  -30.9310 C   0  0  1  0  0  0  0  0  0  0  0  0
   -2.6560   23.3160  -29.5650 C   0  0  0  0  0  0  0  0  0  0  0  0
   -2.6550   22.2470  -28.7740 C   0  0  0  0  0  0  0  0  0  0  0  0
   -2.2000   22.6010  -27.5340 C   0  0  0  0  0  0  0  0  0  0  0  0
   -2.0200   21.7330  -26.4560 O   0  0  0  0  0  0  0  0  0  0  0  0
   -1.9040   23.9310  -27.5540 N   0  0  0  0  0  0  0  0  0  0  0  0
   -1.3630   24.7170  -26.4820 C   0  0  0  0  0  0  0  0  0  0  0  0
   -2.0890   25.8010  -25.9650 C   0  0  0  0  0  0  0  0  0  0  0  0
   -1.5650   26.5680  -24.9220 C   0  0  0  0  0  0  0  0  0  0  0  0
   -0.3070   26.2590  -24.3810 C   0  0  0  0  0  0  0  0  0  0  0  0
    0.2270   27.0680  -23.2360 C   0  0  0  0  0  0  0  0  0  0  0  0
    0.4120   25.1580  -24.8810 C   0  0  0  0  0  0  0  0  0  0  0  0
   -0.1140   24.3950  -25.9260 C   0  0  0  0  0  0  0  0  0  0  0  0
   -2.1740   24.3680  -28.8160 C   0  0  0  0  0  0  0  0  0  0  0  0
   -1.9820   25.6700  -29.2620 O   0  0  0  0  0  0  0  0  0  0  0  0
   -3.0480   21.1110  -29.4340 O   0  0  0  0  0  0  0  0  0  0  0  0
   -3.3160   21.4720  -30.7450 N   0  0  0  0  0  0  0  0  0  0  0  0
   -3.5840   20.5060  -31.7780 C   0  0  0  0  0  0  0  0  0  0  0  0
   -4.6410   19.5920  -31.6210 C   0  0  0  0  0  0  0  0  0  0  0  0
   -4.9080   18.6400  -32.6120 C   0  0  0  0  0  0  0  0  0  0  0  0
   -4.1160   18.5840  -33.7620 C   0  0  0  0  0  0  0  0  0  0  0  0
   -3.0570   19.4800  -33.9240 C   0  0  0  0  0  0  0  0  0  0  0  0
   -2.7920   20.4400  -32.9420 C   0  0  0  0  0  0  0  0  0  0  0  0
   -7.9830   22.0580  -30.0890 C   0  0  0  0  0  0  0  0  0  0  0  0
   -8.8960   21.2300  -30.7490 C   0  0  0  0  0  0  0  0  0  0  0  0
  -10.1965   19.3126  -32.0105 H   0  0  0  0  0  0  0  0  0  0  0  0
  -10.2349   20.4791  -33.3758 H   0  0  0  0  0  0  0  0  0  0  0  0
   -9.0427   19.1355  -33.3758 H   0  0  0  0  0  0  0  0  0  0  0  0
   -7.1622   20.7213  -33.6547 H   0  0  0  0  0  0  0  0  0  0  0  0
   -5.5556   22.2368  -32.4888 H   0  0  0  0  0  0  0  0  0  0  0  0
   -4.9033   23.1182  -32.1435 H   0  0  0  0  0  0  0  0  0  0  0  0
   -4.2750   24.6727  -31.4766 H   0  0  0  0  0  0  0  0  0  0  0  0
   -2.4443   23.2174  -31.7470 H   0  0  0  0  0  0  0  0  0  0  0  0
   -2.3600   20.7800  -26.4760 H   0  0  0  0  0  0  0  0  0  0  0  0
   -3.0759   26.0479  -26.3834 H   0  0  0  0  0  0  0  0  0  0  0  0
   -2.1398   27.4168  -24.5232 H   0  0  0  0  0  0  0  0  0  0  0  0
   -0.0785   26.6051  -22.2861 H   0  0  0  0  0  0  0  0  0  0  0  0
    1.3251   27.1013  -23.2912 H   0  0  0  0  0  0  0  0  0  0  0  0
   -0.1740   28.0908  -23.2912 H   0  0  0  0  0  0  0  0  0  0  0  0
    1.3894   24.8978  -24.4485 H   0  0  0  0  0  0  0  0  0  0  0  0
    0.4532   23.5369  -26.3158 H   0  0  0  0  0  0  0  0  0  0  0  0
   -5.2620   19.6253  -30.7137 H   0  0  0  0  0  0  0  0  0  0  0  0
   -5.7427   17.9348  -32.4853 H   0  0  0  0  0  0  0  0  0  0  0  0
   -4.3266   17.8346  -34.5392 H   0  0  0  0  0  0  0  0  0  0  0  0
   -2.4297   19.4305  -34.8263 H   0  0  0  0  0  0  0  0  0  0  0  0
   -1.9609   21.1474  -33.0789 H   0  0  0  0  0  0  0  0  0  0  0  0
   -8.2118   22.4320  -29.0801 H   0  0  0  0  0  0  0  0  0  0  0  0
   -9.8495   20.9699  -30.2660 H   0  0  0  0  0  0  0  0  0  0  0  0
  1  2  1  0
  2  3  2  0
  3  4  1  0
  4  5  2  0
  5  6  1  0
  6  7  1  0
  7  8  1  0
  8  9  1  0
  9 10  1  0
 10 11  2  0
 11 12  1  0
 11 13  1  0
 13 14  1  0
 14 15  2  0
 15 16  1  0
 16 17  2  0
 17 18  1  0
 17 19  1  0
 19 20  2  0
 13 21  1  0
 21 22  1  0
 10 23  1  0
 23 24  1  0
 24 25  1  0
 25 26  2  0
 26 27  1  0
 27 28  2  0
 28 29  1  0
 29 30  2  0
  5 31  1  0
 31 32  2  0
 32  2  1  0
 24  8  1  0
 30 25  1  0
 21  9  2  0
 20 14  1  0
  1 33  1  0
  1 34  1  0
  1 35  1  0
  3 36  1  0
  4 37  1  0
  7 38  1  0
  7 39  1  0
  8 40  1  6
 12 41  1  0
 15 42  1  0
 16 43  1  0
 18 44  1  0
 18 45  1  0
 18 46  1  0
 19 47  1  0
 20 48  1  0
 26 49  1  0
 27 50  1  0
 28 51  1  0
 29 52  1  0
 30 53  1  0
 31 54  1  0
 32 55  1  0
M  CHG  1  22  -1
M  END
>  <UniqueID>  (17) 
16

>  <SMILES>  (17) 
Cc1ccc(SC[C@H]2c3c(c(O)n(-c4ccc(C)cc4)c3[O-])ON2c2ccccc2)cc1

>  <Energy>  (17) 
135.3365983807549

>  <Genealogy>  (17) 
Cc1ccc(SCC2c3c(c(O)n(-c4ccc(C)cc4)c3[O-])ON2c2ccccc2)cc1 (protonated)
Cc1ccc(SC[C@H]2c3c(c(O)n(-c4ccc(C)cc4)c3[O-])ON2c2ccccc2)cc1 (chirality)
Cc1ccc(SC[C@H]2c3c(c(O)n(-c4ccc(C)cc4)c3[O-])ON2c2ccccc2)cc1 (3D coordinates assigned)
Cc1ccc(SC[C@H]2c3c(c(O)n(-c4ccc(C)cc4)c3[O-])ON2c2ccccc2)cc1 (nonaromatic ring conformer: 135.3365983807549 kcal/mol)

>  <smiles>  (17) 
Cc1ccc(SCC2c3c(c(O)n(-c4ccc(C)cc4)c3O)ON2c2ccccc2)cc1

>  <score_type>  (17) 
oracle

>  <origin>  (17) 
adgpu

>  <m_score__min__energy>  (17) 
-11.57

>  <m_primary>  (17) 
energy

$$$$
17:0
     RDKit          3D

 55 58  0  0  1  0  0  0  0  0999 V2000
   -3.4970   15.4000  -35.4900 C   0  0  0  0  0  0  0  0  0  0  0  0
   -3.4100   16.6300  -34.6620 C   0  0  0  0  0  0  0  0  0  0  0  0
   -2.2770   17.1060  -34.3370 O   0  0  0  0  0  0  0  0  0  0  0  0
   -4.6050   17.2830  -34.2290 N   0  0  0  0  0  0  0  0  0  0  0  0
   -5.9140   16.7940  -34.5640 C   0  0  0  0  0  0  0  0  0  0  0  0
   -6.9150   17.0130  -33.4500 C   0  0  0  0  0  0  0  0  0  0  0  0
   -6.8830   18.4070  -33.0730 N   0  0  0  0  0  0  0  0  0  0  0  0
   -7.9500   18.9470  -32.3000 C   0  0  0  0  0  0  0  0  0  0  0  0
   -8.8740   18.1500  -31.9870 O   0  0  0  0  0  0  0  0  0  0  0  0
   -8.0110   20.3350  -31.8700 C   0  0  0  0  0  0  0  0  0  0  0  0
   -9.1060   21.0690  -32.3460 C   0  0  0  0  0  0  0  0  0  0  0  0
   -9.2720   22.3840  -32.0070 C   0  0  0  0  0  0  0  0  0  0  0  0
   -8.3300   22.9620  -31.1820 C   0  0  0  0  0  0  0  0  0  0  0  0
   -7.2310   22.2380  -30.6980 C   0  0  0  0  0  0  0  0  0  0  0  0
   -6.3310   22.9400  -29.8610 N   0  0  0  0  0  0  0  0  0  0  0  0
   -5.0590   22.9240  -30.1400 C   0  0  0  0  0  0  0  0  0  0  0  0
   -4.5610   22.2410  -31.2320 C   0  0  0  0  0  0  0  0  0  0  0  0
   -3.2120   22.2350  -31.4850 C   0  0  0  0  0  0  0  0  0  0  0  0
   -2.7100   21.4880  -32.6850 C   0  0  0  0  0  0  0  0  0  0  0  0
   -2.3570   22.8880  -30.6770 N   0  0  0  0  0  0  0  0  0  0  0  0
   -2.8190   23.5530  -29.6160 C   0  0  0  0  0  0  0  0  0  0  0  0
   -1.9110   24.2580  -28.7170 C   0  0  0  0  0  0  0  0  0  0  0  0
   -2.3370   24.9490  -27.6110 C   0  0  0  0  0  0  0  0  0  0  0  0
   -1.4480   25.6040  -26.7480 C   0  0  0  0  0  0  0  0  0  0  0  0
   -0.1220   25.5160  -27.0730 C   0  0  0  0  0  0  0  0  0  0  0  0
    0.3460   24.8440  -28.1530 N   0  0  0  0  0  0  0  0  0  0  0  0
   -0.5330   24.2200  -28.9720 C   0  0  0  0  0  0  0  0  0  0  0  0
   -4.1540   23.5660  -29.3600 N   0  0  0  0  0  0  0  0  0  0  0  0
   -7.0720   20.9150  -31.0450 C   0  0  0  0  0  0  0  0  0  0  0  0
   -5.7800   19.2940  -33.4600 C   0  0  0  0  0  0  0  0  0  0  0  0
   -4.5100   18.4780  -33.4220 C   0  0  0  0  0  0  0  0  0  0  0  0
   -3.5593   14.5196  -34.8334 H   0  0  0  0  0  0  0  0  0  0  0  0
   -4.3940   15.4481  -36.1249 H   0  0  0  0  0  0  0  0  0  0  0  0
   -2.6022   15.3213  -36.1249 H   0  0  0  0  0  0  0  0  0  0  0  0
   -6.2671   17.3183  -35.4642 H   0  0  0  0  0  0  0  0  0  0  0  0
   -5.8335   15.7102  -34.7339 H   0  0  0  0  0  0  0  0  0  0  0  0
   -7.9233   16.7461  -33.7993 H   0  0  0  0  0  0  0  0  0  0  0  0
   -6.6606   16.3826  -32.5852 H   0  0  0  0  0  0  0  0  0  0  0  0
   -9.8423   20.5809  -33.0014 H   0  0  0  0  0  0  0  0  0  0  0  0
  -10.1299   22.9622  -32.3807 H   0  0  0  0  0  0  0  0  0  0  0  0
   -8.4437   24.0181  -30.8963 H   0  0  0  0  0  0  0  0  0  0  0  0
   -5.2471   21.7005  -31.9007 H   0  0  0  0  0  0  0  0  0  0  0  0
   -2.1245   20.6168  -32.3561 H   0  0  0  0  0  0  0  0  0  0  0  0
   -3.5641   21.1487  -33.2895 H   0  0  0  0  0  0  0  0  0  0  0  0
   -2.0732   22.1507  -33.2895 H   0  0  0  0  0  0  0  0  0  0  0  0
   -1.3480   22.8380  -30.9390 H   0  0  0  0  0  0  0  0  0  0  0  0
   -3.4146   24.9904  -27.3939 H   0  0  0  0  0  0  0  0  0  0  0  0
   -1.7956   26.1559  -25.8622 H   0  0  0  0  0  0  0  0  0  0  0  0
    0.6062   26.0196  -26.4203 H   0  0  0  0  0  0  0  0  0  0  0  0
   -0.1601   23.6745  -29.8514 H   0  0  0  0  0  0  0  0  0  0  0  0
   -6.2152   20.3345  -30.6722 H   0  0  0  0  0  0  0  0  0  0  0  0
   -5.9477   19.6815  -34.4757 H   0  0  0  0  0  0  0  0  0  0  0  0
   -5.7117   20.1511  -32.7739 H   0  0  0  0  0  0  0  0  0  0  0  0
   -3.6810   19.0950  -33.7988 H   0  0  0  0  0  0  0  0  0  0  0  0
   -4.3378   18.1694  -32.3803 H   0  0  0  0  0  0  0  0  0  0  0  0
  1  2  1  0
  2  3  2  0
  2  4  1  0
  4  5  1  0
  5  6  1  0
  6  7  1  0
  7  8  1  0
  8  9  2  0
  8 10  1  0
 10 11  2  0
 11 12  1  0
 12 13  2  0
 13 14  1  0
 14 15  1  0
 15 16  2  0
 16 17  1  0
 17 18  2  0
 18 19  1  0
 18 20  1  0
 20 21  1  0
 21 22  1  0
 22 23  2  0
 23 24  1  0
 24 25  2  0
 25 26  1  0
 26 27  2  0
 21 28  2  0
 14 29  2  0
  7 30  1  0
 30 31  1  0
 31  4  1  0
 29 10  1  0
 28 16  1  0
 27 22  1  0
  1 32  1  0
  1 33  1  0
  1 34  1  0
  5 35  1  0
  5 36  1  0
  6 37  1  0
  6 38  1  0
 11 39  1  0
 12 40  1  0
 13 41  1  0
 17 42  1  0
 19 43  1  0
 19 44  1  0
 19 45  1  0
 20 46  1  0
 23 47  1  0
 24 48  1  0
 25 49  1  0
 27 50  1  0
 29 51  1  0
 30 52  1  0
 30 53  1  0
 31 54  1  0
 31 55  1  0
M  END
>  <smiles>  (18) 
CC(=O)N1CCN(C(=O)c2cccc(N=c3cc(C)[nH]c(-c4cccnc4)n3)c2)CC1

>  <score_type>  (18) 
oracle

>  <origin>  (18) 
adgpu

>  <m_score__min__energy>  (18) 
-9.9299999999999997

>  <m_primary>  (18) 
energy

$$$$
18:0
     RDKit          3D

 33 34  0  0  0  0  0  0  0  0999 V2000
    1.0360   26.1390  -23.3430 N   0  0  0  0  0  0  0  0  0  0  0  0
   -0.1830   26.4160  -24.0410 C   0  0  0  0  0  0  0  0  0  0  0  0
   -0.8370   27.5100  -23.7800 N   0  0  0  0  0  0  0  0  0  0  0  0
   -0.6850   25.4600  -25.0600 C   0  0  0  0  0  0  0  0  0  0  0  0
   -0.3560   24.0960  -24.9740 C   0  0  0  0  0  0  0  0  0  0  0  0
   -0.8310   23.1900  -25.9260 C   0  0  0  0  0  0  0  0  0  0  0  0
   -1.6470   23.6310  -26.9740 C   0  0  0  0  0  0  0  0  0  0  0  0
   -2.2570   22.4770  -28.1570 S   0  0  0  0  0  0  0  0  0  0  0  0
   -3.4980   21.8350  -27.6070 O   0  0  0  0  0  0  0  0  0  0  0  0
   -1.2350   21.4100  -28.4350 O   0  0  0  0  0  0  0  0  0  0  0  0
   -2.6410   23.2930  -29.6390 N   0  0  0  0  0  0  0  0  0  0  0  0
   -3.9430   23.2650  -30.2570 C   0  0  0  0  0  0  0  0  0  0  0  0
   -4.6580   22.0590  -30.4110 C   0  0  0  0  0  0  0  0  0  0  0  0
   -5.9170   22.0540  -31.0160 C   0  0  0  0  0  0  0  0  0  0  0  0
   -6.4820   23.2450  -31.4710 C   0  0  0  0  0  0  0  0  0  0  0  0
   -5.7900   24.4480  -31.3190 C   0  0  0  0  0  0  0  0  0  0  0  0
   -4.5270   24.4630  -30.7140 C   0  0  0  0  0  0  0  0  0  0  0  0
   -3.8560   25.6730  -30.5790 O   0  0  0  0  0  0  0  0  0  0  0  0
   -1.9790   24.9880  -27.0680 C   0  0  0  0  0  0  0  0  0  0  0  0
   -1.5030   25.8970  -26.1180 C   0  0  0  0  0  0  0  0  0  0  0  0
    1.5340   25.2300  -23.4670 H   0  0  0  0  0  0  0  0  0  0  0  0
    1.4260   26.8230  -22.6560 H   0  0  0  0  0  0  0  0  0  0  0  0
   -0.4870   28.1810  -23.0610 H   0  0  0  0  0  0  0  0  0  0  0  0
   -1.7100   27.7650  -24.2920 H   0  0  0  0  0  0  0  0  0  0  0  0
    0.2804   23.7390  -24.1508 H   0  0  0  0  0  0  0  0  0  0  0  0
   -0.5625   22.1259  -25.8514 H   0  0  0  0  0  0  0  0  0  0  0  0
   -1.8480   23.7560  -30.1360 H   0  0  0  0  0  0  0  0  0  0  0  0
   -4.2210   21.1155  -30.0520 H   0  0  0  0  0  0  0  0  0  0  0  0
   -6.4647   21.1074  -31.1339 H   0  0  0  0  0  0  0  0  0  0  0  0
   -7.4725   23.2366  -31.9495 H   0  0  0  0  0  0  0  0  0  0  0  0
   -6.2382   25.3871  -31.6756 H   0  0  0  0  0  0  0  0  0  0  0  0
   -2.6166   25.3403  -27.8922 H   0  0  0  0  0  0  0  0  0  0  0  0
   -1.7699   26.9611  -26.1984 H   0  0  0  0  0  0  0  0  0  0  0  0
  1  2  1  0
  2  3  2  0
  2  4  1  0
  4  5  2  0
  5  6  1  0
  6  7  2  0
  7  8  1  0
  8  9  2  0
  8 10  2  0
  8 11  1  0
 11 12  1  0
 12 13  2  0
 13 14  1  0
 14 15  2  0
 15 16  1  0
 16 17  2  0
 17 18  1  0
  7 19  1  0
 19 20  2  0
 20  4  1  0
 17 12  1  0
  1 21  1  0
  1 22  1  0
  3 23  1  0
  3 24  1  0
  5 25  1  0
  6 26  1  0
 11 27  1  0
 13 28  1  0
 14 29  1  0
 15 30  1  0
 16 31  1  0
 19 32  1  0
 20 33  1  0
M  CHG  2   3   1  18  -1
M  END
>  <UniqueID>  (19) 
17

>  <SMILES>  (19) 
NC(=[NH2+])c1ccc(S(=O)(=O)Nc2ccccc2[O-])cc1

>  <Energy>  (19) 
39.164576344172836

>  <Genealogy>  (19) 
NC(=[NH2+])c1ccc(S(=O)(=O)Nc2ccccc2[O-])cc1 (protonated)
NC(=[NH2+])c1ccc(S(=O)(=O)Nc2ccccc2[O-])cc1 (3D coordinates assigned)
NC(=[NH2+])c1ccc(S(=O)(=O)Nc2ccccc2[O-])cc1 (optimized conformer: 39.164576344172836 kcal/mol)

>  <smiles>  (19) 
N=C(N)c1ccc(S(=O)(=O)Nc2ccccc2O)cc1

>  <score_type>  (19) 
oracle

>  <origin>  (19) 
adgpu

>  <m_score__min__energy>  (19) 
-11.119999999999999

>  <m_primary>  (19) 
energy

$$$$
19:0
     RDKit          3D

 44 47  0  0  0  0  0  0  0  0999 V2000
   -4.1490   24.9610  -26.3660 C   0  0  0  0  0  0  0  0  0  0  0  0
   -2.8630   24.9840  -25.7570 O   0  0  0  0  0  0  0  0  0  0  0  0
   -1.8380   25.8860  -26.0950 C   0  0  0  0  0  0  0  0  0  0  0  0
   -1.1490   26.6320  -25.1190 C   0  0  0  0  0  0  0  0  0  0  0  0
   -0.1420   27.5240  -25.4960 C   0  0  0  0  0  0  0  0  0  0  0  0
    0.1810   27.6860  -26.8440 C   0  0  0  0  0  0  0  0  0  0  0  0
   -0.4960   26.9530  -27.8190 C   0  0  0  0  0  0  0  0  0  0  0  0
   -1.4970   26.0340  -27.4510 C   0  0  0  0  0  0  0  0  0  0  0  0
   -2.2260   25.2810  -28.4330 N   0  0  0  0  0  0  0  0  0  0  0  0
   -1.9010   23.9770  -28.9280 C   0  0  0  0  0  0  0  0  0  0  0  0
   -0.7270   23.6960  -29.2910 O   0  0  0  0  0  0  0  0  0  0  0  0
   -2.9450   22.9070  -28.9210 C   0  0  0  0  0  0  0  0  0  0  0  0
   -3.5380   22.7690  -30.2510 N   0  0  0  0  0  0  0  0  0  0  0  0
   -4.0870   23.8190  -31.0330 C   0  0  0  0  0  0  0  0  0  0  0  0
   -3.8540   25.0380  -30.8200 O   0  0  0  0  0  0  0  0  0  0  0  0
   -4.9460   23.3700  -32.0770 N   0  0  0  0  0  0  0  0  0  0  0  0
   -5.0100   21.9110  -31.9740 C   0  0  2  0  0  0  0  0  0  0  0  0
   -4.5450   21.2230  -33.2810 C   0  0  0  0  0  0  0  0  0  0  0  0
   -5.6900   20.2920  -33.7300 C   0  0  0  0  0  0  0  0  0  0  0  0
   -6.7790   20.5530  -32.7580 C   0  0  0  0  0  0  0  0  0  0  0  0
   -8.0550   19.9810  -32.7640 C   0  0  0  0  0  0  0  0  0  0  0  0
   -8.9620   20.3410  -31.7560 C   0  0  0  0  0  0  0  0  0  0  0  0
   -8.5830   21.2580  -30.7590 C   0  0  0  0  0  0  0  0  0  0  0  0
   -7.2980   21.8190  -30.7690 C   0  0  0  0  0  0  0  0  0  0  0  0
   -6.4090   21.4470  -31.7840 C   0  0  0  0  0  0  0  0  0  0  0  0
   -4.1370   21.5980  -30.7930 C   0  0  0  0  0  0  0  0  0  0  0  0
   -3.9740   20.4460  -30.3070 O   0  0  0  0  0  0  0  0  0  0  0  0
   -4.9241   24.9471  -25.5856 H   0  0  0  0  0  0  0  0  0  0  0  0
   -4.2745   25.8570  -26.9916 H   0  0  0  0  0  0  0  0  0  0  0  0
   -4.2424   24.0610  -26.9916 H   0  0  0  0  0  0  0  0  0  0  0  0
   -1.4047   26.5118  -24.0559 H   0  0  0  0  0  0  0  0  0  0  0  0
    0.3971   28.0995  -24.7291 H   0  0  0  0  0  0  0  0  0  0  0  0
    0.9708   28.3929  -27.1382 H   0  0  0  0  0  0  0  0  0  0  0  0
   -0.2463   27.0938  -28.8810 H   0  0  0  0  0  0  0  0  0  0  0  0
   -2.4842   21.9521  -28.6281 H   0  0  0  0  0  0  0  0  0  0  0  0
   -3.7332   23.1802  -28.2039 H   0  0  0  0  0  0  0  0  0  0  0  0
   -4.3458   21.9781  -34.0556 H   0  0  0  0  0  0  0  0  0  0  0  0
   -3.6171   20.6551  -33.1181 H   0  0  0  0  0  0  0  0  0  0  0  0
   -6.0134   20.5376  -34.7523 H   0  0  0  0  0  0  0  0  0  0  0  0
   -5.3883   19.2343  -33.7481 H   0  0  0  0  0  0  0  0  0  0  0  0
   -8.3425   19.2617  -33.5450 H   0  0  0  0  0  0  0  0  0  0  0  0
   -9.9719   19.9051  -31.7453 H   0  0  0  0  0  0  0  0  0  0  0  0
   -9.2966   21.5358  -29.9693 H   0  0  0  0  0  0  0  0  0  0  0  0
   -6.9943   22.5379  -29.9938 H   0  0  0  0  0  0  0  0  0  0  0  0
  1  2  1  0
  2  3  1  0
  3  4  2  0
  4  5  1  0
  5  6  2  0
  6  7  1  0
  7  8  2  0
  8  9  1  0
  9 10  1  0
 10 11  2  0
 10 12  1  0
 12 13  1  0
 13 14  1  0
 14 15  2  0
 14 16  1  0
 17 16  1  6
 17 18  1  0
 18 19  1  0
 19 20  1  0
 20 21  2  0
 21 22  1  0
 22 23  2  0
 23 24  1  0
 24 25  2  0
 17 26  1  0
 26 27  2  0
  8  3  1  0
 26 13  1  0
 25 17  1  0
 25 20  1  0
  1 28  1  0
  1 29  1  0
  1 30  1  0
  4 31  1  0
  5 32  1  0
  6 33  1  0
  7 34  1  0
 12 35  1  0
 12 36  1  0
 18 37  1  0
 18 38  1  0
 19 39  1  0
 19 40  1  0
 21 41  1  0
 22 42  1  0
 23 43  1  0
 24 44  1  0
M  CHG  2   9  -1  16  -1
M  END
>  <UniqueID>  (20) 
18

>  <SMILES>  (20) 
COc1ccccc1[N-]C(=O)CN1C(=O)[N-][C@@]2(CCc3ccccc32)C1=O

>  <Energy>  (20) 
77.95370692960906

>  <Genealogy>  (20) 
COc1ccccc1[N-]C(=O)CN1C(=O)[N-]C2(CCc3ccccc32)C1=O (protonated)
COc1ccccc1[N-]C(=O)CN1C(=O)[N-][C@@]2(CCc3ccccc32)C1=O (chirality)
COc1ccccc1[N-]C(=O)CN1C(=O)[N-][C@@]2(CCc3ccccc32)C1=O (3D coordinates assigned)
COc1ccccc1[N-]C(=O)CN1C(=O)[N-][C@@]2(CCc3ccccc32)C1=O (nonaromatic ring conformer: 77.95370692960906 kcal/mol)

>  <smiles>  (20) 
COc1ccccc1NC(=O)CN1C(=O)NC2(CCc3ccccc32)C1=O

>  <score_type>  (20) 
oracle

>  <origin>  (20) 
adgpu

>  <m_score__min__energy>  (20) 
-10.65

>  <m_primary>  (20) 
energy

$$$$
20:0
     RDKit          3D

 42 44  0  0  0  0  0  0  0  0999 V2000
   -4.7600   19.3160  -32.0600 O   0  0  0  0  0  0  0  0  0  0  0  0
   -4.8580   20.3930  -32.7080 C   0  0  0  0  0  0  0  0  0  0  0  0
   -4.0920   20.5490  -33.8580 O   0  0  0  0  0  0  0  0  0  0  0  0
   -5.7720   21.4670  -32.2430 C   0  0  0  0  0  0  0  0  0  0  0  0
   -5.2380   22.6090  -31.6150 C   0  0  0  0  0  0  0  0  0  0  0  0
   -6.0720   23.6480  -31.1850 C   0  0  0  0  0  0  0  0  0  0  0  0
   -5.3800   25.0770  -30.4170 S   0  0  0  0  0  0  0  0  0  0  0  0
   -5.6980   26.3110  -31.2130 O   0  0  0  0  0  0  0  0  0  0  0  0
   -5.9730   25.2100  -29.0430 O   0  0  0  0  0  0  0  0  0  0  0  0
   -3.6560   24.9200  -30.2770 N   0  0  0  0  0  0  0  0  0  0  0  0
   -2.9510   24.3970  -29.1410 C   0  0  0  0  0  0  0  0  0  0  0  0
   -3.4940   23.2940  -28.4600 C   0  0  0  0  0  0  0  0  0  0  0  0
   -4.7100   22.7280  -28.8490 O   0  0  0  0  0  0  0  0  0  0  0  0
   -2.8090   22.7280  -27.3870 C   0  0  0  0  0  0  0  0  0  0  0  0
   -1.5820   23.2440  -26.9700 C   0  0  0  0  0  0  0  0  0  0  0  0
   -0.7590   22.4250  -25.6450 Cl  0  0  0  0  0  0  0  0  0  0  0  0
   -1.0380   24.3770  -27.6080 C   0  0  0  0  0  0  0  0  0  0  0  0
    0.5290   25.0300  -27.0800 S   0  0  0  0  0  0  0  0  0  0  0  0
    1.0910   24.2680  -25.9140 O   0  0  0  0  0  0  0  0  0  0  0  0
    1.5090   24.9280  -28.2170 O   0  0  0  0  0  0  0  0  0  0  0  0
    0.3050   26.7070  -26.6000 C   0  0  0  0  0  0  0  0  0  0  0  0
    1.2940   27.6680  -26.8580 C   0  0  0  0  0  0  0  0  0  0  0  0
    1.0950   29.0000  -26.4770 C   0  0  0  0  0  0  0  0  0  0  0  0
   -0.0890   29.3750  -25.8370 C   0  0  0  0  0  0  0  0  0  0  0  0
   -1.0770   28.4210  -25.5780 C   0  0  0  0  0  0  0  0  0  0  0  0
   -0.8810   27.0900  -25.9580 C   0  0  0  0  0  0  0  0  0  0  0  0
   -1.7360   24.9580  -28.6900 C   0  0  0  0  0  0  0  0  0  0  0  0
   -1.2370   26.1020  -29.2990 O   0  0  0  0  0  0  0  0  0  0  0  0
   -7.4550   23.5480  -31.3710 C   0  0  0  0  0  0  0  0  0  0  0  0
   -7.9990   22.4190  -31.9830 C   0  0  0  0  0  0  0  0  0  0  0  0
   -7.1710   21.3790  -32.4150 C   0  0  0  0  0  0  0  0  0  0  0  0
   -7.7560   20.2670  -33.0090 O   0  0  0  0  0  0  0  0  0  0  0  0
   -4.1516   22.6855  -31.4604 H   0  0  0  0  0  0  0  0  0  0  0  0
   -5.5890   23.2280  -28.7860 H   0  0  0  0  0  0  0  0  0  0  0  0
   -3.2412   21.8633  -26.8621 H   0  0  0  0  0  0  0  0  0  0  0  0
    2.2273   27.3742  -27.3605 H   0  0  0  0  0  0  0  0  0  0  0  0
    1.8712   29.7521  -26.6816 H   0  0  0  0  0  0  0  0  0  0  0  0
   -0.2437   30.4219  -25.5367 H   0  0  0  0  0  0  0  0  0  0  0  0
   -2.0092   28.7176  -25.0750 H   0  0  0  0  0  0  0  0  0  0  0  0
   -1.6598   26.3408  -25.7526 H   0  0  0  0  0  0  0  0  0  0  0  0
   -8.1145   24.3613  -31.0339 H   0  0  0  0  0  0  0  0  0  0  0  0
   -9.0872   22.3465  -32.1267 H   0  0  0  0  0  0  0  0  0  0  0  0
  1  2  2  0
  2  3  1  0
  2  4  1  0
  4  5  2  0
  5  6  1  0
  6  7  1  0
  7  8  2  0
  7  9  2  0
  7 10  1  0
 10 11  1  0
 11 12  2  0
 12 13  1  0
 12 14  1  0
 14 15  2  0
 15 16  1  0
 15 17  1  0
 17 18  1  0
 18 19  2  0
 18 20  2  0
 18 21  1  0
 21 22  2  0
 22 23  1  0
 23 24  2  0
 24 25  1  0
 25 26  2  0
 17 27  2  0
 27 28  1  0
  6 29  2  0
 29 30  1  0
 30 31  2  0
 31 32  1  0
 31  4  1  0
 27 11  1  0
 26 21  1  0
  5 33  1  0
 13 34  1  0
 14 35  1  0
 22 36  1  0
 23 37  1  0
 24 38  1  0
 25 39  1  0
 26 40  1  0
 29 41  1  0
 30 42  1  0
M  CHG  4   3  -1  10  -1  28  -1  32  -1
M  END
>  <UniqueID>  (21) 
19

>  <SMILES>  (21) 
O=C([O-])c1cc(S(=O)(=O)[N-]c2c(O)cc(Cl)c(S(=O)(=O)c3ccccc3)c2[O-])ccc1[O-]

>  <Energy>  (21) 
57.06449409873457

>  <Genealogy>  (21) 
O=C([O-])c1cc(S(=O)(=O)[N-]c2c(O)cc(Cl)c(S(=O)(=O)c3ccccc3)c2[O-])ccc1[O-] (protonated)
O=C([O-])c1cc(S(=O)(=O)[N-]c2c(O)cc(Cl)c(S(=O)(=O)c3ccccc3)c2[O-])ccc1[O-] (3D coordinates assigned)
O=C([O-])c1cc(S(=O)(=O)[N-]c2c(O)cc(Cl)c(S(=O)(=O)c3ccccc3)c2[O-])ccc1[O-] (optimized conformer: 57.06449409873457 kcal/mol)

>  <smiles>  (21) 
O=C(O)c1cc(S(=O)(=O)Nc2c(O)cc(Cl)c(S(=O)(=O)c3ccccc3)c2O)ccc1O

>  <score_type>  (21) 
oracle

>  <origin>  (21) 
adgpu

>  <m_score__min__energy>  (21) 
-13

>  <m_primary>  (21) 
energy

$$$$
21:0
     RDKit          3D

 58 62  0  0  0  0  0  0  0  0999 V2000
   -1.3480   26.1070  -28.5300 O   0  0  0  0  0  0  0  0  0  0  0  0
   -1.7550   24.9850  -28.9340 C   0  0  0  0  0  0  0  0  0  0  0  0
   -2.8520   24.9340  -29.7300 N   0  0  0  0  0  0  0  0  0  0  0  0
   -3.3550   23.7660  -30.2020 C   0  0  0  0  0  0  0  0  0  0  0  0
   -4.4900   23.7870  -31.0200 C   0  0  0  0  0  0  0  0  0  0  0  0
   -5.0360   22.5890  -31.5120 C   0  0  0  0  0  0  0  0  0  0  0  0
   -6.1920   22.5890  -32.3680 N   0  0  0  0  0  0  0  0  0  0  0  0
   -7.2920   21.6750  -32.2390 C   0  0  0  0  0  0  0  0  0  0  0  0
   -8.4250   22.0670  -31.5110 C   0  0  0  0  0  0  0  0  0  0  0  0
   -9.5150   21.2020  -31.3770 C   0  0  0  0  0  0  0  0  0  0  0  0
   -9.4880   19.9440  -31.9820 C   0  0  0  0  0  0  0  0  0  0  0  0
   -8.3760   19.5530  -32.7330 C   0  0  0  0  0  0  0  0  0  0  0  0
   -7.2810   20.4170  -32.8770 C   0  0  0  0  0  0  0  0  0  0  0  0
   -6.1960   20.0380  -33.6680 O   0  0  0  0  0  0  0  0  0  0  0  0
   -4.4080   21.3750  -31.2040 C   0  0  0  0  0  0  0  0  0  0  0  0
   -3.2750   21.3460  -30.3880 C   0  0  0  0  0  0  0  0  0  0  0  0
   -2.7350   22.5410  -29.8690 C   0  0  0  0  0  0  0  0  0  0  0  0
   -1.5900   22.5590  -29.0380 C   0  0  0  0  0  0  0  0  0  0  0  0
   -0.9330   21.2940  -28.6360 C   0  0  0  0  0  0  0  0  0  0  0  0
    0.1170   20.7750  -29.4050 C   0  0  0  0  0  0  0  0  0  0  0  0
    0.7080   19.5570  -29.0580 C   0  0  0  0  0  0  0  0  0  0  0  0
    0.2630   18.8430  -27.9310 C   0  0  0  0  0  0  0  0  0  0  0  0
    0.8690   17.5870  -27.5800 N   0  0  0  0  0  0  0  0  0  0  0  0
    0.2320   16.5190  -27.6900 O   0  0  0  0  0  0  0  0  0  0  0  0
    2.1650   17.5400  -27.1180 O   0  0  0  0  0  0  0  0  0  0  0  0
   -0.7860   19.3760  -27.1590 C   0  0  0  0  0  0  0  0  0  0  0  0
   -1.3770   20.5930  -27.5090 C   0  0  0  0  0  0  0  0  0  0  0  0
   -1.0880   23.7990  -28.5640 C   0  0  0  0  0  0  0  0  0  0  0  0
    0.1310   23.8520  -27.6580 C   0  0  0  0  0  0  0  0  0  0  0  0
   -0.2830   23.8760  -26.2410 N   0  0  0  0  0  0  0  0  0  0  0  0
    0.1200   25.1300  -25.5800 C   0  0  0  0  0  0  0  0  0  0  0  0
   -0.3760   25.1340  -24.1180 C   0  0  0  0  0  0  0  0  0  0  0  0
   -0.9160   23.8840  -23.7270 O   0  0  0  0  0  0  0  0  0  0  0  0
    0.0180   22.8560  -23.9970 C   0  0  0  0  0  0  0  0  0  0  0  0
    0.2640   22.7160  -25.5120 C   0  0  0  0  0  0  0  0  0  0  0  0
   -4.9582   24.7479  -31.2798 H   0  0  0  0  0  0  0  0  0  0  0  0
   -6.2710   23.3450  -33.0870 H   0  0  0  0  0  0  0  0  0  0  0  0
   -8.4561   23.0617  -31.0424 H   0  0  0  0  0  0  0  0  0  0  0  0
  -10.3948   21.5128  -30.7944 H   0  0  0  0  0  0  0  0  0  0  0  0
  -10.3422   19.2604  -31.8676 H   0  0  0  0  0  0  0  0  0  0  0  0
   -8.3597   18.5634  -33.2131 H   0  0  0  0  0  0  0  0  0  0  0  0
   -5.5520   20.7200  -34.0480 H   0  0  0  0  0  0  0  0  0  0  0  0
   -4.8114   20.4352  -31.6090 H   0  0  0  0  0  0  0  0  0  0  0  0
   -2.7999   20.3833  -30.1481 H   0  0  0  0  0  0  0  0  0  0  0  0
    0.4774   21.3281  -30.2849 H   0  0  0  0  0  0  0  0  0  0  0  0
    1.5275   19.1537  -29.6710 H   0  0  0  0  0  0  0  0  0  0  0  0
   -1.1435   18.8304  -26.2732 H   0  0  0  0  0  0  0  0  0  0  0  0
   -2.1942   21.0015  -26.8964 H   0  0  0  0  0  0  0  0  0  0  0  0
    0.7557   22.9648  -27.8383 H   0  0  0  0  0  0  0  0  0  0  0  0
    0.7012   24.7663  -27.8792 H   0  0  0  0  0  0  0  0  0  0  0  0
    1.2167   25.2138  -25.5937 H   0  0  0  0  0  0  0  0  0  0  0  0
   -0.3238   25.9818  -26.1162 H   0  0  0  0  0  0  0  0  0  0  0  0
    0.4708   25.3748  -23.4584 H   0  0  0  0  0  0  0  0  0  0  0  0
   -1.1760   25.8846  -24.0375 H   0  0  0  0  0  0  0  0  0  0  0  0
    0.9693   23.0945  -23.4988 H   0  0  0  0  0  0  0  0  0  0  0  0
   -0.3879   21.9061  -23.6190 H   0  0  0  0  0  0  0  0  0  0  0  0
    1.3464   22.6514  -25.6971 H   0  0  0  0  0  0  0  0  0  0  0  0
   -0.2404   21.8058  -25.8684 H   0  0  0  0  0  0  0  0  0  0  0  0
  1  2  2  0
  2  3  1  0
  3  4  1  0
  4  5  2  0
  5  6  1  0
  6  7  1  0
  7  8  1  0
  8  9  2  0
  9 10  1  0
 10 11  2  0
 11 12  1  0
 12 13  2  0
 13 14  1  0
  6 15  2  0
 15 16  1  0
 16 17  2  0
 17 18  1  0
 18 19  1  0
 19 20  2  0
 20 21  1  0
 21 22  2  0
 22 23  1  0
 23 24  2  0
 23 25  1  0
 22 26  1  0
 26 27  2  0
 18 28  2  0
 28 29  1  0
 29 30  1  0
 30 31  1  0
 31 32  1  0
 32 33  1  0
 33 34  1  0
 34 35  1  0
 28  2  1  0
 35 30  1  0
 17  4  1  0
 27 19  1  0
 13  8  1  0
  5 36  1  0
  7 37  1  0
  9 38  1  0
 10 39  1  0
 11 40  1  0
 12 41  1  0
 14 42  1  0
 15 43  1  0
 16 44  1  0
 20 45  1  0
 21 46  1  0
 26 47  1  0
 27 48  1  0
 29 49  1  0
 29 50  1  0
 31 51  1  0
 31 52  1  0
 32 53  1  0
 32 54  1  0
 34 55  1  0
 34 56  1  0
 35 57  1  0
 35 58  1  0
M  CHG  3   3  -1  23   1  25  -1
M  END
>  <UniqueID>  (22) 
20

>  <SMILES>  (22) 
O=c1[n-]c2cc(Nc3ccccc3O)ccc2c(-c2ccc([N+](=O)[O-])cc2)c1CN1CCOCC1

>  <Energy>  (22) 
92.68605343273983

>  <Genealogy>  (22) 
O=c1[n-]c2cc(Nc3ccccc3O)ccc2c(-c2ccc([N+](=O)[O-])cc2)c1CN1CCOCC1 (protonated)
O=c1[n-]c2cc(Nc3ccccc3O)ccc2c(-c2ccc([N+](=O)[O-])cc2)c1CN1CCOCC1 (3D coordinates assigned)
O=c1[n-]c2cc(Nc3ccccc3O)ccc2c(-c2ccc([N+](=O)[O-])cc2)c1CN1CCOCC1 (nonaromatic ring conformer: 92.68605343273983 kcal/mol)

>  <smiles>  (22) 
O=c1[nH]c2cc(Nc3ccccc3O)ccc2c(-c2ccc([N+](=O)[O-])cc2)c1CN1CCOCC1

>  <score_type>  (22) 
oracle

>  <origin>  (22) 
adgpu

>  <m_score__min__energy>  (22) 
-11.130000000000001

>  <m_primary>  (22) 
energy

$$$$
22:0
     RDKit          3D

 50 53  0  0  0  0  0  0  0  0999 V2000
   -2.2430   23.0670  -29.7220 O   0  0  0  0  0  0  0  0  0  0  0  0
   -2.3710   24.2660  -29.3540 C   0  0  0  0  0  0  0  0  0  0  0  0
   -3.5560   25.0040  -29.6950 N   0  0  0  0  0  0  0  0  0  0  0  0
   -4.7880   24.3910  -30.1130 C   0  0  0  0  0  0  0  0  0  0  0  0
   -5.4320   24.7780  -31.3020 C   0  0  0  0  0  0  0  0  0  0  0  0
   -6.6150   24.1480  -31.7020 C   0  0  0  0  0  0  0  0  0  0  0  0
   -7.1610   23.1130  -30.9300 C   0  0  0  0  0  0  0  0  0  0  0  0
   -8.6410   22.3020  -31.4490 S   0  0  0  0  0  0  0  0  0  0  0  0
   -9.4640   23.2530  -32.2720 O   0  0  0  0  0  0  0  0  0  0  0  0
   -9.4450   21.9180  -30.2380 O   0  0  0  0  0  0  0  0  0  0  0  0
   -8.2920   20.8720  -32.3950 N   0  0  0  0  0  0  0  0  0  0  0  0
   -8.8280   19.6690  -31.7230 C   0  0  0  0  0  0  0  0  0  0  0  0
   -8.1980   18.3890  -32.2840 C   0  0  0  0  0  0  0  0  0  0  0  0
   -6.6780   18.3680  -32.0410 C   0  0  0  0  0  0  0  0  0  0  0  0
   -6.0770   19.7780  -31.9100 C   0  0  0  0  0  0  0  0  0  0  0  0
   -6.8560   20.7950  -32.7590 C   0  0  0  0  0  0  0  0  0  0  0  0
   -6.5140   22.7180  -29.7520 C   0  0  0  0  0  0  0  0  0  0  0  0
   -5.3310   23.3460  -29.3520 C   0  0  0  0  0  0  0  0  0  0  0  0
   -1.2700   24.9040  -28.6120 C   0  0  0  0  0  0  0  0  0  0  0  0
   -0.2920   24.2680  -27.8750 C   0  0  0  0  0  0  0  0  0  0  0  0
    0.4930   25.3020  -27.3930 C   0  0  0  0  0  0  0  0  0  0  0  0
    1.6760   25.1950  -26.5060 C   0  0  0  0  0  0  0  0  0  0  0  0
    1.4980   25.3120  -25.1150 C   0  0  0  0  0  0  0  0  0  0  0  0
    2.5860   25.2050  -24.2460 C   0  0  0  0  0  0  0  0  0  0  0  0
    3.8670   24.9870  -24.7520 C   0  0  0  0  0  0  0  0  0  0  0  0
    4.0640   24.8840  -26.1300 C   0  0  0  0  0  0  0  0  0  0  0  0
    2.9820   24.9940  -27.0100 C   0  0  0  0  0  0  0  0  0  0  0  0
    3.2250   24.9310  -28.3770 O   0  0  0  0  0  0  0  0  0  0  0  0
   -0.0110   26.4780  -27.8210 N   0  0  0  0  0  0  0  0  0  0  0  0
   -1.0780   26.2360  -28.5670 N   0  0  0  0  0  0  0  0  0  0  0  0
   -3.4940   26.0460  -29.7380 H   0  0  0  0  0  0  0  0  0  0  0  0
   -5.0031   25.5802  -31.9205 H   0  0  0  0  0  0  0  0  0  0  0  0
   -7.1192   24.4661  -32.6265 H   0  0  0  0  0  0  0  0  0  0  0  0
   -8.6105   19.7332  -30.6466 H   0  0  0  0  0  0  0  0  0  0  0  0
   -9.9129   19.6276  -31.8996 H   0  0  0  0  0  0  0  0  0  0  0  0
   -8.6531   17.5180  -31.7898 H   0  0  0  0  0  0  0  0  0  0  0  0
   -8.3793   18.3561  -33.3685 H   0  0  0  0  0  0  0  0  0  0  0  0
   -6.4779   17.8128  -31.1127 H   0  0  0  0  0  0  0  0  0  0  0  0
   -6.2094   17.8873  -32.9124 H   0  0  0  0  0  0  0  0  0  0  0  0
   -6.1146   20.0875  -30.8551 H   0  0  0  0  0  0  0  0  0  0  0  0
   -5.0375   19.7484  -32.2686 H   0  0  0  0  0  0  0  0  0  0  0  0
   -6.4047   21.7883  -32.6185 H   0  0  0  0  0  0  0  0  0  0  0  0
   -6.7985   20.4633  -33.8062 H   0  0  0  0  0  0  0  0  0  0  0  0
   -6.9390   21.9097  -29.1388 H   0  0  0  0  0  0  0  0  0  0  0  0
   -4.8223   23.0180  -28.4335 H   0  0  0  0  0  0  0  0  0  0  0  0
   -0.1651   23.1881  -27.7086 H   0  0  0  0  0  0  0  0  0  0  0  0
    0.4916   25.4896  -24.7080 H   0  0  0  0  0  0  0  0  0  0  0  0
    2.4322   25.2929  -23.1604 H   0  0  0  0  0  0  0  0  0  0  0  0
    4.7218   24.8963  -24.0656 H   0  0  0  0  0  0  0  0  0  0  0  0
    5.0761   24.7153  -26.5264 H   0  0  0  0  0  0  0  0  0  0  0  0
  1  2  2  0
  2  3  1  0
  3  4  1  0
  4  5  2  0
  5  6  1  0
  6  7  2  0
  7  8  1  0
  8  9  2  0
  8 10  2  0
  8 11  1  0
 11 12  1  0
 12 13  1  0
 13 14  1  0
 14 15  1  0
 15 16  1  0
  7 17  1  0
 17 18  2  0
  2 19  1  0
 19 20  1  0
 20 21  2  0
 21 22  1  0
 22 23  2  0
 23 24  1  0
 24 25  2  0
 25 26  1  0
 26 27  2  0
 27 28  1  0
 21 29  1  0
 29 30  1  0
 18  4  1  0
 30 19  2  0
 16 11  1  0
 27 22  1  0
  3 31  1  0
  5 32  1  0
  6 33  1  0
 12 34  1  0
 12 35  1  0
 13 36  1  0
 13 37  1  0
 14 38  1  0
 14 39  1  0
 15 40  1  0
 15 41  1  0
 16 42  1  0
 16 43  1  0
 17 44  1  0
 18 45  1  0
 20 46  1  0
 23 47  1  0
 24 48  1  0
 25 49  1  0
 26 50  1  0
M  CHG  2  28  -1  29  -1
M  END
>  <UniqueID>  (23) 
21

>  <SMILES>  (23) 
O=C(Nc1ccc(S(=O)(=O)N2CCCCC2)cc1)c1cc(-c2ccccc2[O-])[n-]n1

>  <Energy>  (23) 
94.50960542260907

>  <Genealogy>  (23) 
O=C(Nc1ccc(S(=O)(=O)N2CCCCC2)cc1)c1cc(-c2ccccc2[O-])[n-]n1 (protonated)
O=C(Nc1ccc(S(=O)(=O)N2CCCCC2)cc1)c1cc(-c2ccccc2[O-])[n-]n1 (3D coordinates assigned)
O=C(Nc1ccc(S(=O)(=O)N2CCCCC2)cc1)c1cc(-c2ccccc2[O-])[n-]n1 (nonaromatic ring conformer: 94.50960542260907 kcal/mol)

>  <smiles>  (23) 
O=C(Nc1ccc(S(=O)(=O)N2CCCCC2)cc1)c1cc(-c2ccccc2O)[nH]n1

>  <score_type>  (23) 
oracle

>  <origin>  (23) 
adgpu

>  <m_score__min__energy>  (23) 
-12.57

>  <m_primary>  (23) 
energy

$$$$
23:0
     RDKit          3D

 50 52  0  0  0  0  0  0  0  0999 V2000
   -5.9850   25.7310  -29.7910 O   0  0  0  0  0  0  0  0  0  0  0  0
   -5.2060   25.1380  -30.5830 C   0  0  0  0  0  0  0  0  0  0  0  0
   -5.7690   24.1750  -31.5830 C   0  0  0  0  0  0  0  0  0  0  0  0
   -6.0330   22.8650  -30.9800 N   0  0  0  0  0  0  0  0  0  0  0  0
   -7.6300   22.2800  -31.3640 S   0  0  0  0  0  0  0  0  0  0  0  0
   -8.4500   22.2410  -30.1060 O   0  0  0  0  0  0  0  0  0  0  0  0
   -8.3060   23.1940  -32.3490 O   0  0  0  0  0  0  0  0  0  0  0  0
   -7.5220   20.6470  -32.0160 C   0  0  0  0  0  0  0  0  0  0  0  0
   -8.3870   19.6360  -31.5700 C   0  0  0  0  0  0  0  0  0  0  0  0
   -8.2920   18.3450  -32.1020 C   0  0  0  0  0  0  0  0  0  0  0  0
   -7.3380   18.0600  -33.0840 C   0  0  0  0  0  0  0  0  0  0  0  0
   -6.4720   19.0630  -33.5280 C   0  0  0  0  0  0  0  0  0  0  0  0
   -6.5610   20.3530  -32.9930 C   0  0  0  0  0  0  0  0  0  0  0  0
   -3.7850   25.2880  -30.4680 N   0  0  0  0  0  0  0  0  0  0  0  0
   -2.8900   24.5490  -29.6210 C   0  0  0  0  0  0  0  0  0  0  0  0
   -1.9890   25.1780  -28.7410 C   0  0  0  0  0  0  0  0  0  0  0  0
   -1.0920   24.4150  -27.9890 C   0  0  0  0  0  0  0  0  0  0  0  0
   -1.0740   23.0250  -28.1170 C   0  0  0  0  0  0  0  0  0  0  0  0
   -1.9560   22.3870  -28.9980 C   0  0  0  0  0  0  0  0  0  0  0  0
   -1.9230   20.6320  -29.1740 S   0  0  0  0  0  0  0  0  0  0  0  0
   -3.0880   20.0370  -28.4330 O   0  0  0  0  0  0  0  0  0  0  0  0
   -0.6600   20.0960  -28.5580 O   0  0  0  0  0  0  0  0  0  0  0  0
   -2.0040   20.1540  -30.8540 N   0  0  0  0  0  0  0  0  0  0  0  0
   -0.9660   20.8590  -31.6390 C   0  0  0  0  0  0  0  0  0  0  0  0
   -1.2620   20.7950  -33.1400 C   0  0  0  0  0  0  0  0  0  0  0  0
   -2.5910   21.4980  -33.4720 C   0  0  0  0  0  0  0  0  0  0  0  0
   -3.5670   21.5180  -32.2820 C   0  0  0  0  0  0  0  0  0  0  0  0
   -3.3820   20.2790  -31.3910 C   0  0  0  0  0  0  0  0  0  0  0  0
   -2.8580   23.1560  -29.7490 C   0  0  0  0  0  0  0  0  0  0  0  0
   -6.7108   24.5819  -31.9797 H   0  0  0  0  0  0  0  0  0  0  0  0
   -5.0299   24.0416  -32.3867 H   0  0  0  0  0  0  0  0  0  0  0  0
   -9.1412   19.8586  -30.8008 H   0  0  0  0  0  0  0  0  0  0  0  0
   -8.9686   17.5535  -31.7473 H   0  0  0  0  0  0  0  0  0  0  0  0
   -7.2693   17.0468  -33.5068 H   0  0  0  0  0  0  0  0  0  0  0  0
   -5.7199   18.8383  -34.2986 H   0  0  0  0  0  0  0  0  0  0  0  0
   -5.8744   21.1390  -33.3404 H   0  0  0  0  0  0  0  0  0  0  0  0
   -1.9912   26.2738  -28.6451 H   0  0  0  0  0  0  0  0  0  0  0  0
   -0.3982   24.9109  -27.2943 H   0  0  0  0  0  0  0  0  0  0  0  0
   -0.3648   22.4290  -27.5240 H   0  0  0  0  0  0  0  0  0  0  0  0
   -0.9338   21.9128  -31.3251 H   0  0  0  0  0  0  0  0  0  0  0  0
    0.0008   20.3676  -31.4552 H   0  0  0  0  0  0  0  0  0  0  0  0
   -0.4469   21.2896  -33.6886 H   0  0  0  0  0  0  0  0  0  0  0  0
   -1.3413   19.7386  -33.4363 H   0  0  0  0  0  0  0  0  0  0  0  0
   -2.3758   22.5354  -33.7679 H   0  0  0  0  0  0  0  0  0  0  0  0
   -3.0708   20.9337  -34.2852 H   0  0  0  0  0  0  0  0  0  0  0  0
   -3.3835   22.4218  -31.6825 H   0  0  0  0  0  0  0  0  0  0  0  0
   -4.5947   21.5150  -32.6741 H   0  0  0  0  0  0  0  0  0  0  0  0
   -4.0831   20.3465  -30.5461 H   0  0  0  0  0  0  0  0  0  0  0  0
   -3.5751   19.3930  -32.0136 H   0  0  0  0  0  0  0  0  0  0  0  0
   -3.5478   22.6581  -30.4463 H   0  0  0  0  0  0  0  0  0  0  0  0
  1  2  2  0
  2  3  1  0
  3  4  1  0
  4  5  1  0
  5  6  2  0
  5  7  2  0
  5  8  1  0
  8  9  2  0
  9 10  1  0
 10 11  2  0
 11 12  1  0
 12 13  2  0
  2 14  1  0
 14 15  1  0
 15 16  2  0
 16 17  1  0
 17 18  2  0
 18 19  1  0
 19 20  1  0
 20 21  2  0
 20 22  2  0
 20 23  1  0
 23 24  1  0
 24 25  1  0
 25 26  1  0
 26 27  1  0
 27 28  1  0
 19 29  2  0
 13  8  1  0
 29 15  1  0
 28 23  1  0
  3 30  1  0
  3 31  1  0
  9 32  1  0
 10 33  1  0
 11 34  1  0
 12 35  1  0
 13 36  1  0
 16 37  1  0
 17 38  1  0
 18 39  1  0
 24 40  1  0
 24 41  1  0
 25 42  1  0
 25 43  1  0
 26 44  1  0
 26 45  1  0
 27 46  1  0
 27 47  1  0
 28 48  1  0
 28 49  1  0
 29 50  1  0
M  CHG  2   4  -1  14  -1
M  END
>  <UniqueID>  (24) 
22

>  <SMILES>  (24) 
O=C(C[N-]S(=O)(=O)c1ccccc1)[N-]c1cccc(S(=O)(=O)N2CCCCC2)c1

>  <Energy>  (24) 
53.61980164339276

>  <Genealogy>  (24) 
O=C(C[N-]S(=O)(=O)c1ccccc1)[N-]c1cccc(S(=O)(=O)N2CCCCC2)c1 (protonated)
O=C(C[N-]S(=O)(=O)c1ccccc1)[N-]c1cccc(S(=O)(=O)N2CCCCC2)c1 (3D coordinates assigned)
O=C(C[N-]S(=O)(=O)c1ccccc1)[N-]c1cccc(S(=O)(=O)N2CCCCC2)c1 (nonaromatic ring conformer: 53.61980164339276 kcal/mol)

>  <smiles>  (24) 
O=C(CNS(=O)(=O)c1ccccc1)Nc1cccc(S(=O)(=O)N2CCCCC2)c1

>  <score_type>  (24) 
oracle

>  <origin>  (24) 
adgpu

>  <m_score__min__energy>  (24) 
-13.130000000000001

>  <m_primary>  (24) 
energy

$$$$
24:0
     RDKit          3D

 62 66  0  0  0  0  0  0  0  0999 V2000
   -3.0790   18.9430  -26.2790 C   0  0  0  0  0  0  0  0  0  0  0  0
   -2.4360   19.3640  -27.5370 N   0  0  0  0  0  0  0  0  0  0  0  0
   -0.9530   19.4040  -27.4050 C   0  0  0  0  0  0  0  0  0  0  0  0
   -0.3230   20.7480  -27.8020 C   0  0  0  0  0  0  0  0  0  0  0  0
   -1.0880   21.8530  -27.2150 N   0  0  0  0  0  0  0  0  0  0  0  0
   -0.4170   22.9050  -26.4960 C   0  0  0  0  0  0  0  0  0  0  0  0
   -0.0460   22.6920  -25.1550 C   0  0  0  0  0  0  0  0  0  0  0  0
    0.6970   23.6510  -24.4630 C   0  0  0  0  0  0  0  0  0  0  0  0
    1.0940   24.8240  -25.1030 C   0  0  0  0  0  0  0  0  0  0  0  0
    0.7350   25.0510  -26.4320 C   0  0  0  0  0  0  0  0  0  0  0  0
   -0.0410   24.1160  -27.1310 C   0  0  0  0  0  0  0  0  0  0  0  0
   -0.4120   24.4200  -28.4820 N   0  0  0  0  0  0  0  0  0  0  0  0
   -1.4300   25.3570  -28.8550 C   0  0  0  0  0  0  0  0  0  0  0  0
   -1.1570   26.5830  -28.9420 O   0  0  0  0  0  0  0  0  0  0  0  0
   -2.7380   24.9140  -29.2310 N   0  0  0  0  0  0  0  0  0  0  0  0
   -3.0750   23.7610  -30.0170 C   0  0  0  0  0  0  0  0  0  0  0  0
   -2.0400   22.9060  -30.4220 C   0  0  0  0  0  0  0  0  0  0  0  0
   -2.3140   21.7810  -31.2030 C   0  0  0  0  0  0  0  0  0  0  0  0
   -3.6290   21.5020  -31.6040 C   0  0  0  0  0  0  0  0  0  0  0  0
   -3.9840   20.0770  -32.5780 S   0  0  0  0  0  0  0  0  0  0  0  0
   -3.9540   20.4350  -34.0380 O   0  0  0  0  0  0  0  0  0  0  0  0
   -2.9410   19.0230  -32.3240 O   0  0  0  0  0  0  0  0  0  0  0  0
   -5.5350   19.4220  -32.1520 N   0  0  0  0  0  0  0  0  0  0  0  0
   -5.7340   18.0520  -31.6830 C   0  0  0  0  0  0  0  0  0  0  0  0
   -7.2450   17.9300  -31.3600 C   0  0  0  0  0  0  0  0  0  0  0  0
   -7.7740   19.2900  -31.6630 C   0  0  0  0  0  0  0  0  0  0  0  0
   -9.0840   19.7510  -31.5240 C   0  0  0  0  0  0  0  0  0  0  0  0
   -9.3600   21.0880  -31.8520 C   0  0  0  0  0  0  0  0  0  0  0  0
   -8.3310   21.9360  -32.3040 C   0  0  0  0  0  0  0  0  0  0  0  0
   -7.0200   21.4500  -32.4340 C   0  0  0  0  0  0  0  0  0  0  0  0
   -6.7730   20.1110  -32.1080 C   0  0  0  0  0  0  0  0  0  0  0  0
   -4.6620   22.3660  -31.2220 C   0  0  0  0  0  0  0  0  0  0  0  0
   -4.3890   23.4950  -30.4420 C   0  0  0  0  0  0  0  0  0  0  0  0
   -2.5520   21.8490  -27.3170 C   0  0  0  0  0  0  0  0  0  0  0  0
   -3.0430   20.6040  -28.0690 C   0  0  0  0  0  0  0  0  0  0  0  0
   -2.4985   19.3231  -25.4254 H   0  0  0  0  0  0  0  0  0  0  0  0
   -4.1011   19.3473  -26.2364 H   0  0  0  0  0  0  0  0  0  0  0  0
   -3.1172   17.8445  -26.2364 H   0  0  0  0  0  0  0  0  0  0  0  0
   -0.6940   19.1977  -26.3560 H   0  0  0  0  0  0  0  0  0  0  0  0
   -0.5528   18.6495  -28.0982 H   0  0  0  0  0  0  0  0  0  0  0  0
    0.7133   20.7871  -27.4353 H   0  0  0  0  0  0  0  0  0  0  0  0
   -0.3346   20.8427  -28.8979 H   0  0  0  0  0  0  0  0  0  0  0  0
   -0.3438   21.7624  -24.6478 H   0  0  0  0  0  0  0  0  0  0  0  0
    0.9694   23.4804  -23.4110 H   0  0  0  0  0  0  0  0  0  0  0  0
    1.6909   25.5714  -24.5597 H   0  0  0  0  0  0  0  0  0  0  0  0
    1.0638   25.9719  -26.9358 H   0  0  0  0  0  0  0  0  0  0  0  0
   -1.0041   23.1230  -30.1222 H   0  0  0  0  0  0  0  0  0  0  0  0
   -1.4954   21.1111  -31.5049 H   0  0  0  0  0  0  0  0  0  0  0  0
   -5.4509   17.3341  -32.4669 H   0  0  0  0  0  0  0  0  0  0  0  0
   -5.1132   17.8321  -30.8020 H   0  0  0  0  0  0  0  0  0  0  0  0
   -7.7234   17.1708  -31.9962 H   0  0  0  0  0  0  0  0  0  0  0  0
   -7.4386   17.6150  -30.3240 H   0  0  0  0  0  0  0  0  0  0  0  0
   -9.8811   19.0829  -31.1660 H   0  0  0  0  0  0  0  0  0  0  0  0
  -10.3852   21.4748  -31.7554 H   0  0  0  0  0  0  0  0  0  0  0  0
   -8.5548   22.9830  -32.5562 H   0  0  0  0  0  0  0  0  0  0  0  0
   -6.2078   22.1046  -32.7831 H   0  0  0  0  0  0  0  0  0  0  0  0
   -5.6948   22.1560  -31.5370 H   0  0  0  0  0  0  0  0  0  0  0  0
   -5.2049   24.1769  -30.1602 H   0  0  0  0  0  0  0  0  0  0  0  0
   -2.9839   21.8529  -26.3054 H   0  0  0  0  0  0  0  0  0  0  0  0
   -2.8690   22.7440  -27.8723 H   0  0  0  0  0  0  0  0  0  0  0  0
   -4.1364   20.5362  -27.9691 H   0  0  0  0  0  0  0  0  0  0  0  0
   -2.7470   20.7036  -29.1237 H   0  0  0  0  0  0  0  0  0  0  0  0
  1  2  1  0
  2  3  1  0
  3  4  1  0
  4  5  1  0
  5  6  1  0
  6  7  2  0
  7  8  1  0
  8  9  2  0
  9 10  1  0
 10 11  2  0
 11 12  1  0
 12 13  1  0
 13 14  2  0
 13 15  1  0
 15 16  1  0
 16 17  2  0
 17 18  1  0
 18 19  2  0
 19 20  1  0
 20 21  2  0
 20 22  2  0
 20 23  1  0
 23 24  1  0
 24 25  1  0
 25 26  1  0
 26 27  2  0
 27 28  1  0
 28 29  2  0
 29 30  1  0
 30 31  2  0
 19 32  1  0
 32 33  2  0
  5 34  1  0
 34 35  1  0
 35  2  1  0
 11  6  1  0
 33 16  1  0
 31 23  1  0
 31 26  1  0
  1 36  1  0
  1 37  1  0
  1 38  1  0
  3 39  1  0
  3 40  1  0
  4 41  1  0
  4 42  1  0
  7 43  1  0
  8 44  1  0
  9 45  1  0
 10 46  1  0
 17 47  1  0
 18 48  1  0
 24 49  1  0
 24 50  1  0
 25 51  1  0
 25 52  1  0
 27 53  1  0
 28 54  1  0
 29 55  1  0
 30 56  1  0
 32 57  1  0
 33 58  1  0
 34 59  1  0
 34 60  1  0
 35 61  1  0
 35 62  1  0
M  CHG  2  12  -1  15  -1
M  END
>  <UniqueID>  (25) 
23

>  <SMILES>  (25) 
CN1CCN(c2ccccc2[N-]C(=O)[N-]c2ccc(S(=O)(=O)N3CCc4ccccc43)cc2)CC1

>  <Energy>  (25) 
103.72354480869329

>  <Genealogy>  (25) 
CN1CCN(c2ccccc2[N-]C(=O)[N-]c2ccc(S(=O)(=O)N3CCc4ccccc43)cc2)CC1 (protonated)
CN1CCN(c2ccccc2[N-]C(=O)[N-]c2ccc(S(=O)(=O)N3CCc4ccccc43)cc2)CC1 (3D coordinates assigned)
CN1CCN(c2ccccc2[N-]C(=O)[N-]c2ccc(S(=O)(=O)N3CCc4ccccc43)cc2)CC1 (nonaromatic ring conformer: 103.72354480869329 kcal/mol)

>  <smiles>  (25) 
CN1CCN(c2ccccc2NC(=O)Nc2ccc(S(=O)(=O)N3CCc4ccccc43)cc2)CC1

>  <score_type>  (25) 
oracle

>  <origin>  (25) 
adgpu

>  <m_score__min__energy>  (25) 
-13.09

>  <m_primary>  (25) 
energy

$$$$
25:0
     RDKit          3D

 44 46  0  0  0  0  0  0  0  0999 V2000
    0.4290   25.0245  -27.9595 H   0  0  0  0  0  0  0  0  0  0  0  0
   -0.4740   24.6850  -28.4880 C   0  0  0  0  0  0  0  0  0  0  0  0
   -0.4120   23.6340  -29.3440 N   0  0  0  0  0  0  0  0  0  0  0  0
   -1.5020   23.1790  -30.0170 C   0  0  0  0  0  0  0  0  0  0  0  0
   -1.3470   22.1370  -30.7910 N   0  0  0  0  0  0  0  0  0  0  0  0
   -2.3530   21.3800  -31.4780 C   0  0  0  0  0  0  0  0  0  0  0  0
   -2.5070   21.4940  -32.8690 C   0  0  0  0  0  0  0  0  0  0  0  0
   -1.8454   22.1610  -33.4412 H   0  0  0  0  0  0  0  0  0  0  0  0
   -3.4990   20.7620  -33.5290 C   0  0  0  0  0  0  0  0  0  0  0  0
   -3.5985   20.8336  -34.6221 H   0  0  0  0  0  0  0  0  0  0  0  0
   -4.3670   19.9370  -32.8000 C   0  0  0  0  0  0  0  0  0  0  0  0
   -5.5920   18.9910  -33.6370 S   0  0  0  0  0  0  0  0  0  0  0  0
   -4.9720   18.2620  -34.7970 O   0  0  0  0  0  0  0  0  0  0  0  0
   -6.1830   17.9800  -32.6950 O   0  0  0  0  0  0  0  0  0  0  0  0
   -6.8390   20.0390  -34.2150 N   0  0  0  0  0  0  0  0  0  0  0  0
   -7.7190   19.7620  -33.7260 H   0  0  0  0  0  0  0  0  0  0  0  0
   -6.9760   19.8200  -35.2280 H   0  0  0  0  0  0  0  0  0  0  0  0
   -4.2330   19.8510  -31.4070 C   0  0  0  0  0  0  0  0  0  0  0  0
   -4.9127   19.2066  -30.8301 H   0  0  0  0  0  0  0  0  0  0  0  0
   -3.2390   20.5810  -30.7480 C   0  0  0  0  0  0  0  0  0  0  0  0
   -3.1536   20.5268  -29.6527 H   0  0  0  0  0  0  0  0  0  0  0  0
   -2.7340   23.8720  -29.8460 C   0  0  0  0  0  0  0  0  0  0  0  0
   -3.7890   23.5600  -30.5390 N   0  0  0  0  0  0  0  0  0  0  0  0
   -5.3260   24.3460  -30.3910 S   0  0  0  0  0  0  0  0  0  0  0  0
   -5.3260   25.5980  -31.2210 O   0  0  0  0  0  0  0  0  0  0  0  0
   -5.5600   24.7180  -28.9530 O   0  0  0  0  0  0  0  0  0  0  0  0
   -6.5860   23.2670  -30.9790 C   0  0  0  0  0  0  0  0  0  0  0  0
   -7.7140   23.8040  -31.6120 C   0  0  0  0  0  0  0  0  0  0  0  0
   -7.8111   24.8938  -31.7261 H   0  0  0  0  0  0  0  0  0  0  0  0
   -8.7160   22.9620  -32.0990 C   0  0  0  0  0  0  0  0  0  0  0  0
   -9.5998   23.3915  -32.5934 H   0  0  0  0  0  0  0  0  0  0  0  0
   -8.6000   21.5660  -31.9600 C   0  0  0  0  0  0  0  0  0  0  0  0
   -9.5770   20.6780  -32.4320 O   0  0  0  0  0  0  0  0  0  0  0  0
   -9.4720   19.2590  -32.3660 C   0  0  0  0  0  0  0  0  0  0  0  0
   -9.4485   18.9417  -31.3130 H   0  0  0  0  0  0  0  0  0  0  0  0
  -10.3389   18.8035  -32.8670 H   0  0  0  0  0  0  0  0  0  0  0  0
   -8.5475   18.9360  -32.8670 H   0  0  0  0  0  0  0  0  0  0  0  0
   -7.4690   21.0360  -31.3260 C   0  0  0  0  0  0  0  0  0  0  0  0
   -7.3689   19.9467  -31.2106 H   0  0  0  0  0  0  0  0  0  0  0  0
   -6.4670   21.8790  -30.8390 C   0  0  0  0  0  0  0  0  0  0  0  0
   -5.5825   21.4512  -30.3444 H   0  0  0  0  0  0  0  0  0  0  0  0
   -2.7840   24.9160  -28.9720 N   0  0  0  0  0  0  0  0  0  0  0  0
   -1.6900   25.3290  -28.2850 C   0  0  0  0  0  0  0  0  0  0  0  0
   -1.7637   26.1652  -27.5741 H   0  0  0  0  0  0  0  0  0  0  0  0
  1  2  1  0
  2  3  1  0
  3  4  1  0
  4  5  2  0
  5  6  1  0
  6  7  2  0
  7  8  1  0
  7  9  1  0
  9 10  1  0
  9 11  2  0
 11 12  1  0
 12 13  2  0
 12 14  2  0
 12 15  1  0
 15 16  1  0
 15 17  1  0
 11 18  1  0
 18 19  1  0
 18 20  2  0
 20 21  1  0
  4 22  1  0
 22 23  2  0
 23 24  1  0
 24 25  2  0
 24 26  2  0
 24 27  1  0
 27 28  2  0
 28 29  1  0
 28 30  1  0
 30 31  1  0
 30 32  2  0
 32 33  1  0
 33 34  1  0
 34 35  1  0
 34 36  1  0
 34 37  1  0
 32 38  1  0
 38 39  1  0
 38 40  2  0
 40 41  1  0
 22 42  1  0
 42 43  1  0
 43 44  1  0
 43  2  2  0
 20  6  1  0
 40 27  1  0
M  CHG  2   3  -1  42  -1
M  END
>  <UniqueID>  (26) 
24

>  <SMILES>  (26) 
COc1ccc(S(=O)(=O)/N=c2\[n-]cc[n-]c2=Nc2ccc(S(N)(=O)=O)cc2)cc1

>  <Energy>  (26) 
61.98322642245357

>  <Genealogy>  (26) 
COc1ccc(S(=O)(=O)N=c2[n-]cc[n-]c2=Nc2ccc(S(N)(=O)=O)cc2)cc1 (protonated)
COc1ccc(S(=O)(=O)/N=c2\[n-]cc[n-]c2=Nc2ccc(S(N)(=O)=O)cc2)cc1 (cis-trans isomerization)
COc1ccc(S(=O)(=O)/N=c2\[n-]cc[n-]c2=Nc2ccc(S(N)(=O)=O)cc2)cc1 (3D coordinates assigned)
COc1ccc(S(=O)(=O)/N=c2\[n-]cc[n-]c2=Nc2ccc(S(N)(=O)=O)cc2)cc1 (optimized conformer: 61.98322642245357 kcal/mol)

>  <smiles>  (26) 
COc1ccc(S(=O)(=O)N=c2[nH]cc[nH]c2=Nc2ccc(S(N)(=O)=O)cc2)cc1

>  <score_type>  (26) 
oracle

>  <origin>  (26) 
adgpu

>  <m_score__min__energy>  (26) 
-10.73

>  <m_primary>  (26) 
energy

$$$$
26:0
     RDKit          3D

 53 56  0  0  0  0  0  0  0  0999 V2000
   -0.5520   23.8730  -25.4300 C   0  0  0  0  0  0  0  0  0  0  0  0
   -1.5950   23.8690  -26.5080 C   0  0  0  0  0  0  0  0  0  0  0  0
   -2.7880   24.5910  -26.3410 C   0  0  0  0  0  0  0  0  0  0  0  0
   -3.7760   24.5570  -27.3290 C   0  0  0  0  0  0  0  0  0  0  0  0
   -3.5970   23.7840  -28.4870 C   0  0  0  0  0  0  0  0  0  0  0  0
   -4.6010   23.7620  -29.5140 N   0  0  0  0  0  0  0  0  0  0  0  0
   -5.6210   22.8830  -29.5910 C   0  0  0  0  0  0  0  0  0  0  0  0
   -6.3800   23.1480  -30.7210 C   0  0  0  0  0  0  0  0  0  0  0  0
   -7.5930   22.3960  -31.2040 C   0  0  1  0  0  0  0  0  0  0  0  0
   -8.6390   23.2620  -31.5640 O   0  0  0  0  0  0  0  0  0  0  0  0
   -7.2420   21.5420  -32.3440 N   0  0  0  0  0  0  0  0  0  0  0  0
   -7.1060   20.1020  -32.3070 C   0  0  0  0  0  0  0  0  0  0  0  0
   -8.2320   19.2530  -32.3450 C   0  0  0  0  0  0  0  0  0  0  0  0
   -8.0800   17.8650  -32.3450 C   0  0  0  0  0  0  0  0  0  0  0  0
   -6.8080   17.2980  -32.3050 C   0  0  0  0  0  0  0  0  0  0  0  0
   -5.6810   18.1190  -32.2620 C   0  0  0  0  0  0  0  0  0  0  0  0
   -5.8190   19.5160  -32.2580 C   0  0  0  0  0  0  0  0  0  0  0  0
   -4.6420   20.3360  -32.2000 N   0  0  0  0  0  0  0  0  0  0  0  0
   -3.9830   20.5650  -30.9130 C   0  0  0  0  0  0  0  0  0  0  0  0
   -2.5120   20.9180  -31.1500 C   0  0  0  0  0  0  0  0  0  0  0  0
   -2.3950   21.9860  -32.0730 O   0  0  0  0  0  0  0  0  0  0  0  0
   -2.8720   21.5790  -33.3420 C   0  0  0  0  0  0  0  0  0  0  0  0
   -4.3710   21.2740  -33.2900 C   0  0  0  0  0  0  0  0  0  0  0  0
   -5.7950   24.2260  -31.3600 C   0  0  0  0  0  0  0  0  0  0  0  0
   -4.7150   24.5830  -30.5830 C   0  0  0  0  0  0  0  0  0  0  0  0
   -3.8880   25.6720  -30.8490 O   0  0  0  0  0  0  0  0  0  0  0  0
   -2.4040   23.0630  -28.6530 C   0  0  0  0  0  0  0  0  0  0  0  0
   -1.4160   23.0950  -27.6640 C   0  0  0  0  0  0  0  0  0  0  0  0
   -1.0424   23.8711  -24.4454 H   0  0  0  0  0  0  0  0  0  0  0  0
    0.0791   22.9773  -25.5271 H   0  0  0  0  0  0  0  0  0  0  0  0
    0.0722   24.7735  -25.5271 H   0  0  0  0  0  0  0  0  0  0  0  0
   -2.9454   25.1856  -25.4290 H   0  0  0  0  0  0  0  0  0  0  0  0
   -4.6998   25.1397  -27.1983 H   0  0  0  0  0  0  0  0  0  0  0  0
   -5.8205   22.0785  -28.8678 H   0  0  0  0  0  0  0  0  0  0  0  0
   -7.9440   21.7714  -30.3693 H   0  0  0  0  0  0  0  0  0  0  0  0
   -8.3760   24.1720  -31.2640 H   0  0  0  0  0  0  0  0  0  0  0  0
   -7.1240   22.0360  -33.2570 H   0  0  0  0  0  0  0  0  0  0  0  0
   -9.2413   19.6894  -32.3750 H   0  0  0  0  0  0  0  0  0  0  0  0
   -8.9680   17.2166  -32.3767 H   0  0  0  0  0  0  0  0  0  0  0  0
   -6.6925   16.2041  -32.3073 H   0  0  0  0  0  0  0  0  0  0  0  0
   -4.6778   17.6688  -32.2310 H   0  0  0  0  0  0  0  0  0  0  0  0
   -4.4797   21.3949  -30.3890 H   0  0  0  0  0  0  0  0  0  0  0  0
   -4.0479   19.6540  -30.3000 H   0  0  0  0  0  0  0  0  0  0  0  0
   -2.0536   21.2144  -30.1950 H   0  0  0  0  0  0  0  0  0  0  0  0
   -1.9993   20.0366  -31.5627 H   0  0  0  0  0  0  0  0  0  0  0  0
   -2.6934   22.3848  -34.0692 H   0  0  0  0  0  0  0  0  0  0  0  0
   -2.3377   20.6654  -33.6418 H   0  0  0  0  0  0  0  0  0  0  0  0
   -4.9288   22.2064  -33.1182 H   0  0  0  0  0  0  0  0  0  0  0  0
   -4.6869   20.8273  -34.2443 H   0  0  0  0  0  0  0  0  0  0  0  0
   -6.1243   24.7007  -32.2961 H   0  0  0  0  0  0  0  0  0  0  0  0
   -3.2030   25.6560  -31.5920 H   0  0  0  0  0  0  0  0  0  0  0  0
   -2.2456   22.4698  -29.5657 H   0  0  0  0  0  0  0  0  0  0  0  0
   -0.4934   22.5100  -27.7933 H   0  0  0  0  0  0  0  0  0  0  0  0
  1  2  1  0
  2  3  2  0
  3  4  1  0
  4  5  2  0
  5  6  1  0
  6  7  1  0
  7  8  2  0
  8  9  1  0
  9 10  1  0
  9 11  1  0
 11 12  1  0
 12 13  2  0
 13 14  1  0
 14 15  2  0
 15 16  1  0
 16 17  2  0
 17 18  1  0
 18 19  1  0
 19 20  1  0
 20 21  1  0
 21 22  1  0
 22 23  1  0
  8 24  1  0
 24 25  2  0
 25 26  1  0
  5 27  1  0
 27 28  2  0
 28  2  1  0
 25  6  1  0
 17 12  1  0
 23 18  1  0
  1 29  1  0
  1 30  1  0
  1 31  1  0
  3 32  1  0
  4 33  1  0
  7 34  1  0
  9 35  1  1
 10 36  1  0
 11 37  1  0
 13 38  1  0
 14 39  1  0
 15 40  1  0
 16 41  1  0
 19 42  1  0
 19 43  1  0
 20 44  1  0
 20 45  1  0
 22 46  1  0
 22 47  1  0
 23 48  1  0
 23 49  1  0
 24 50  1  0
 26 51  1  0
 27 52  1  0
 28 53  1  0
M  END
>  <UniqueID>  (27) 
25

>  <SMILES>  (27) 
Cc1ccc(-n2cc([C@@H](O)Nc3ccccc3N3CCOCC3)cc2O)cc1

>  <Energy>  (27) 
94.68460819398976

>  <Genealogy>  (27) 
Cc1ccc(-n2cc([C@@H](O)Nc3ccccc3N3CCOCC3)cc2O)cc1 (chirality)
Cc1ccc(-n2cc([C@@H](O)Nc3ccccc3N3CCOCC3)cc2O)cc1 (3D coordinates assigned)
Cc1ccc(-n2cc([C@@H](O)Nc3ccccc3N3CCOCC3)cc2O)cc1 (nonaromatic ring conformer: 94.68460819398976 kcal/mol)

>  <smiles>  (27) 
Cc1ccc(-n2cc(C(O)Nc3ccccc3N3CCOCC3)cc2O)cc1

>  <score_type>  (27) 
oracle

>  <origin>  (27) 
adgpu

>  <m_score__min__energy>  (27) 
-9.1600000000000001

>  <m_primary>  (27) 
energy

$$$$
27:0
     RDKit          3D

 39 41  0  0  0  0  0  0  0  0999 V2000
   -4.5390   13.2710  -31.6140 C   0  0  0  0  0  0  0  0  0  0  0  0
   -4.5630   13.5740  -33.1080 C   0  0  0  0  0  0  0  0  0  0  0  0
   -5.3720   14.8000  -33.3810 C   0  0  0  0  0  0  0  0  0  0  0  0
   -5.2080   15.9710  -32.7340 N   0  0  0  0  0  0  0  0  0  0  0  0
   -6.1690   16.7290  -33.3070 C   0  0  0  0  0  0  0  0  0  0  0  0
   -6.4250   18.1420  -32.9510 C   0  0  0  0  0  0  0  0  0  0  0  0
   -7.7220   18.5760  -32.6580 C   0  0  0  0  0  0  0  0  0  0  0  0
   -7.9830   19.9110  -32.3180 C   0  0  0  0  0  0  0  0  0  0  0  0
   -9.2900   20.2500  -31.9710 O   0  0  0  0  0  0  0  0  0  0  0  0
   -6.9270   20.8700  -32.3000 C   0  0  0  0  0  0  0  0  0  0  0  0
   -7.1230   22.2660  -32.0290 C   0  0  0  0  0  0  0  0  0  0  0  0
   -8.5170   22.8540  -31.9250 C   0  0  0  0  0  0  0  0  0  0  0  0
   -5.9840   23.1110  -31.8740 C   0  0  0  0  0  0  0  0  0  0  0  0
   -6.0810   24.5710  -31.4760 C   0  0  0  0  0  0  0  0  0  0  0  0
   -5.0530   24.9210  -30.4440 C   0  0  0  0  0  0  0  0  0  0  0  0
   -3.8700   25.6200  -30.8220 N   0  0  0  0  0  0  0  0  0  0  0  0
   -5.2460   24.6270  -29.2330 O   0  0  0  0  0  0  0  0  0  0  0  0
   -4.7040   22.6000  -32.1200 C   0  0  0  0  0  0  0  0  0  0  0  0
   -4.5200   21.2750  -32.4750 C   0  0  0  0  0  0  0  0  0  0  0  0
   -5.6070   20.4020  -32.5560 C   0  0  0  0  0  0  0  0  0  0  0  0
   -5.3720   19.0590  -32.8870 C   0  0  0  0  0  0  0  0  0  0  0  0
   -6.8710   16.0480  -34.2370 N   0  0  0  0  0  0  0  0  0  0  0  0
   -6.3480   14.8600  -34.2510 O   0  0  0  0  0  0  0  0  0  0  0  0
   -4.6135   14.2112  -31.0479 H   0  0  0  0  0  0  0  0  0  0  0  0
   -5.3884   12.6207  -31.3581 H   0  0  0  0  0  0  0  0  0  0  0  0
   -3.5978   12.7625  -31.3581 H   0  0  0  0  0  0  0  0  0  0  0  0
   -3.5336   13.7336  -33.4615 H   0  0  0  0  0  0  0  0  0  0  0  0
   -5.0180   12.7230  -33.6360 H   0  0  0  0  0  0  0  0  0  0  0  0
   -8.5530   17.8563  -32.6950 H   0  0  0  0  0  0  0  0  0  0  0  0
   -9.5270   20.6140  -31.0540 H   0  0  0  0  0  0  0  0  0  0  0  0
   -8.7885   22.9685  -30.8652 H   0  0  0  0  0  0  0  0  0  0  0  0
   -8.5378   23.8375  -32.4172 H   0  0  0  0  0  0  0  0  0  0  0  0
   -9.2359   22.1825  -32.4172 H   0  0  0  0  0  0  0  0  0  0  0  0
   -5.9228   25.1969  -32.3666 H   0  0  0  0  0  0  0  0  0  0  0  0
   -7.0786   24.7498  -31.0483 H   0  0  0  0  0  0  0  0  0  0  0  0
   -2.9310   25.2960  -30.5020 H   0  0  0  0  0  0  0  0  0  0  0  0
   -3.8304   23.2623  -32.0297 H   0  0  0  0  0  0  0  0  0  0  0  0
   -3.5075   20.9059  -32.6955 H   0  0  0  0  0  0  0  0  0  0  0  0
   -4.3461   18.7234  -33.0988 H   0  0  0  0  0  0  0  0  0  0  0  0
  1  2  1  0
  2  3  1  0
  3  4  2  0
  4  5  1  0
  5  6  1  0
  6  7  2  0
  7  8  1  0
  8  9  1  0
  8 10  2  0
 10 11  1  0
 11 12  1  0
 11 13  2  0
 13 14  1  0
 14 15  1  0
 15 16  1  0
 15 17  2  0
 13 18  1  0
 18 19  2  0
 19 20  1  0
 20 21  2  0
  5 22  2  0
 22 23  1  0
 23  3  1  0
 21  6  1  0
 20 10  1  0
  1 24  1  0
  1 25  1  0
  1 26  1  0
  2 27  1  0
  2 28  1  0
  7 29  1  0
  9 30  1  0
 12 31  1  0
 12 32  1  0
 12 33  1  0
 14 34  1  0
 14 35  1  0
 16 36  1  0
 18 37  1  0
 19 38  1  0
 21 39  1  0
M  CHG  1  16  -1
M  END
>  <UniqueID>  (28) 
26

>  <SMILES>  (28) 
CCc1nc(-c2cc(O)c3c(C)c(CC([NH-])=O)ccc3c2)no1

>  <Energy>  (28) 
81.96665203831887

>  <Genealogy>  (28) 
CCc1nc(-c2cc(O)c3c(C)c(CC([NH-])=O)ccc3c2)no1 (protonated)
CCc1nc(-c2cc(O)c3c(C)c(CC([NH-])=O)ccc3c2)no1 (3D coordinates assigned)
CCc1nc(-c2cc(O)c3c(C)c(CC([NH-])=O)ccc3c2)no1 (optimized conformer: 81.96665203831887 kcal/mol)

>  <smiles>  (28) 
CCc1nc(-c2cc(O)c3c(C)c(CC(N)=O)ccc3c2)no1

>  <score_type>  (28) 
oracle

>  <origin>  (28) 
adgpu

>  <m_score__min__energy>  (28) 
-10.619999999999999

>  <m_primary>  (28) 
energy

$$$$
28:0
     RDKit          3D

 36 38  0  0  0  0  0  0  0  0999 V2000
   -6.8520   16.2290  -33.9270 C   0  0  0  0  0  0  0  0  0  0  0  0
   -6.7950   17.6420  -33.4120 C   0  0  0  0  0  0  0  0  0  0  0  0
   -7.8540   18.1520  -32.7210 N   0  0  0  0  0  0  0  0  0  0  0  0
   -7.8550   19.4220  -32.2200 C   0  0  0  0  0  0  0  0  0  0  0  0
   -9.0540   19.8900  -31.4340 C   0  0  0  0  0  0  0  0  0  0  0  0
   -6.7430   20.2670  -32.4490 C   0  0  0  0  0  0  0  0  0  0  0  0
   -6.7170   21.6670  -31.9650 C   0  0  0  0  0  0  0  0  0  0  0  0
   -7.6260   22.6630  -32.2830 C   0  0  0  0  0  0  0  0  0  0  0  0
   -7.2060   23.7990  -31.6170 C   0  0  0  0  0  0  0  0  0  0  0  0
   -6.0980   23.5210  -30.9080 N   0  0  0  0  0  0  0  0  0  0  0  0
   -5.1840   24.6440  -29.9590 S   0  0  0  0  0  0  0  0  0  0  0  0
   -4.4970   25.6210  -30.8710 O   0  0  0  0  0  0  0  0  0  0  0  0
   -6.1080   25.3910  -29.0390 O   0  0  0  0  0  0  0  0  0  0  0  0
   -3.9840   23.7770  -29.0210 C   0  0  0  0  0  0  0  0  0  0  0  0
   -4.2350   22.6990  -28.1870 C   0  0  0  0  0  0  0  0  0  0  0  0
   -3.0770   22.2050  -27.5740 C   0  0  0  0  0  0  0  0  0  0  0  0
   -1.9210   22.8920  -27.9280 C   0  0  0  0  0  0  0  0  0  0  0  0
   -2.3370   24.1160  -29.0040 S   0  0  0  0  0  0  0  0  0  0  0  0
   -5.7890   22.2290  -31.1060 C   0  0  0  0  0  0  0  0  0  0  0  0
   -5.6380   19.7510  -33.1520 C   0  0  0  0  0  0  0  0  0  0  0  0
   -4.6280   20.4760  -33.3690 O   0  0  0  0  0  0  0  0  0  0  0  0
   -5.6570   18.4370  -33.6330 C   0  0  0  0  0  0  0  0  0  0  0  0
   -4.1340   17.7580  -34.5940 Br  0  0  0  0  0  0  0  0  0  0  0  0
   -6.8802   15.5302  -33.0780 H   0  0  0  0  0  0  0  0  0  0  0  0
   -7.7562   16.0982  -34.5397 H   0  0  0  0  0  0  0  0  0  0  0  0
   -5.9613   16.0258  -34.5397 H   0  0  0  0  0  0  0  0  0  0  0  0
   -8.6910   17.5470  -32.5620 H   0  0  0  0  0  0  0  0  0  0  0  0
   -8.8420   19.8072  -30.3578 H   0  0  0  0  0  0  0  0  0  0  0  0
   -9.2707   20.9387  -31.6855 H   0  0  0  0  0  0  0  0  0  0  0  0
   -9.9238   19.2654  -31.6855 H   0  0  0  0  0  0  0  0  0  0  0  0
   -8.5065   22.5685  -32.9355 H   0  0  0  0  0  0  0  0  0  0  0  0
   -7.7021   24.7798  -31.6604 H   0  0  0  0  0  0  0  0  0  0  0  0
   -5.2374   22.2763  -28.0239 H   0  0  0  0  0  0  0  0  0  0  0  0
   -3.0814   21.3534  -26.8778 H   0  0  0  0  0  0  0  0  0  0  0  0
   -0.9060   22.6721  -27.5656 H   0  0  0  0  0  0  0  0  0  0  0  0
   -4.9345   21.7017  -30.6569 H   0  0  0  0  0  0  0  0  0  0  0  0
  1  2  1  0
  2  3  1  0
  3  4  1  0
  4  5  1  0
  4  6  2  0
  6  7  1  0
  7  8  1  0
  8  9  2  0
  9 10  1  0
 10 11  1  0
 11 12  2  0
 11 13  2  0
 11 14  1  0
 14 15  2  0
 15 16  1  0
 16 17  2  0
 17 18  1  0
 10 19  1  0
  6 20  1  0
 20 21  2  0
 20 22  1  0
 22 23  1  0
 22  2  2  0
 19  7  2  0
 18 14  1  0
  1 24  1  0
  1 25  1  0
  1 26  1  0
  3 27  1  0
  5 28  1  0
  5 29  1  0
  5 30  1  0
  8 31  1  0
  9 32  1  0
 15 33  1  0
 16 34  1  0
 17 35  1  0
 19 36  1  0
M  END
>  <UniqueID>  (29) 
27

>  <SMILES>  (29) 
Cc1[nH]c(C)c(-c2ccn(S(=O)(=O)c3cccs3)c2)c(=O)c1Br

>  <Energy>  (29) 
100.267923200398

>  <Genealogy>  (29) 
Cc1[nH]c(C)c(-c2ccn(S(=O)(=O)c3cccs3)c2)c(=O)c1Br (3D coordinates assigned)
Cc1[nH]c(C)c(-c2ccn(S(=O)(=O)c3cccs3)c2)c(=O)c1Br (optimized conformer: 100.267923200398 kcal/mol)

>  <smiles>  (29) 
Cc1[nH]c(C)c(-c2ccn(S(=O)(=O)c3cccs3)c2)c(=O)c1Br

>  <score_type>  (29) 
oracle

>  <origin>  (29) 
adgpu

>  <m_score__min__energy>  (29) 
-9.3000000000000007

>  <m_primary>  (29) 
energy

$$$$
29:0
     RDKit          3D

 47 50  0  0  0  0  0  0  0  0999 V2000
   -5.3840   22.4720  -32.7820 O   0  0  0  0  0  0  0  0  0  0  0  0
   -5.5510   22.5780  -31.5360 C   0  0  0  0  0  0  0  0  0  0  0  0
   -6.6280   21.8800  -30.8900 N   0  0  0  0  0  0  0  0  0  0  0  0
   -7.3360   20.7770  -31.4830 C   0  0  0  0  0  0  0  0  0  0  0  0
   -8.7320   20.8110  -31.6580 C   0  0  0  0  0  0  0  0  0  0  0  0
   -9.3920   19.7380  -32.2610 C   0  0  0  0  0  0  0  0  0  0  0  0
   -8.6700   18.6270  -32.7020 C   0  0  0  0  0  0  0  0  0  0  0  0
   -7.2780   18.5830  -32.5450 C   0  0  0  0  0  0  0  0  0  0  0  0
   -6.3610   17.1850  -33.1190 S   0  0  0  0  0  0  0  0  0  0  0  0
   -5.8190   16.4350  -31.9350 O   0  0  0  0  0  0  0  0  0  0  0  0
   -7.2880   16.2660  -33.8660 O   0  0  0  0  0  0  0  0  0  0  0  0
   -5.0350   17.6270  -34.1670 N   0  0  0  0  0  0  0  0  0  0  0  0
   -4.2280   16.4710  -34.5510 C   0  0  0  0  0  0  0  0  0  0  0  0
   -2.8430   17.0040  -34.8830 C   0  0  0  0  0  0  0  0  0  0  0  0
   -2.7650   18.3680  -34.2120 C   0  0  0  0  0  0  0  0  0  0  0  0
   -4.1080   18.5530  -33.5210 C   0  0  0  0  0  0  0  0  0  0  0  0
   -6.6150   19.6670  -31.9500 C   0  0  0  0  0  0  0  0  0  0  0  0
   -4.6560   23.4610  -30.7700 C   0  0  0  0  0  0  0  0  0  0  0  0
   -3.8030   23.0900  -29.7490 C   0  0  0  0  0  0  0  0  0  0  0  0
   -3.1910   24.2740  -29.3760 C   0  0  0  0  0  0  0  0  0  0  0  0
   -2.1980   24.4690  -28.2910 C   0  0  0  0  0  0  0  0  0  0  0  0
   -2.2090   23.5880  -27.1920 C   0  0  0  0  0  0  0  0  0  0  0  0
   -1.2830   23.7320  -26.1560 C   0  0  0  0  0  0  0  0  0  0  0  0
   -0.3400   24.7590  -26.1970 C   0  0  0  0  0  0  0  0  0  0  0  0
   -0.3260   25.6500  -27.2720 C   0  0  0  0  0  0  0  0  0  0  0  0
   -1.2520   25.5190  -28.3130 C   0  0  0  0  0  0  0  0  0  0  0  0
   -1.2340   26.4530  -29.3420 O   0  0  0  0  0  0  0  0  0  0  0  0
   -3.6700   25.2810  -30.1350 N   0  0  0  0  0  0  0  0  0  0  0  0
   -4.5550   24.7870  -30.9850 N   0  0  0  0  0  0  0  0  0  0  0  0
   -6.9870   22.2550  -29.9840 H   0  0  0  0  0  0  0  0  0  0  0  0
   -9.3055   21.6861  -31.3185 H   0  0  0  0  0  0  0  0  0  0  0  0
  -10.4841   19.7681  -32.3890 H   0  0  0  0  0  0  0  0  0  0  0  0
   -9.1954   17.7838  -33.1741 H   0  0  0  0  0  0  0  0  0  0  0  0
   -4.1701   15.7543  -33.7186 H   0  0  0  0  0  0  0  0  0  0  0  0
   -4.6691   15.9452  -35.4107 H   0  0  0  0  0  0  0  0  0  0  0  0
   -2.0668   16.3339  -34.4848 H   0  0  0  0  0  0  0  0  0  0  0  0
   -2.6794   17.0715  -35.9687 H   0  0  0  0  0  0  0  0  0  0  0  0
   -1.9472   18.3894  -33.4767 H   0  0  0  0  0  0  0  0  0  0  0  0
   -2.5627   19.1705  -34.9366 H   0  0  0  0  0  0  0  0  0  0  0  0
   -4.0203   18.3183  -32.4499 H   0  0  0  0  0  0  0  0  0  0  0  0
   -4.4595   19.5920  -33.6040 H   0  0  0  0  0  0  0  0  0  0  0  0
   -5.5199   19.6467  -31.8486 H   0  0  0  0  0  0  0  0  0  0  0  0
   -3.6462   22.0854  -29.3292 H   0  0  0  0  0  0  0  0  0  0  0  0
   -2.9535   22.7793  -27.1491 H   0  0  0  0  0  0  0  0  0  0  0  0
   -1.2975   23.0339  -25.3060 H   0  0  0  0  0  0  0  0  0  0  0  0
    0.3921   24.8669  -25.3831 H   0  0  0  0  0  0  0  0  0  0  0  0
    0.4176   26.4600  -27.3008 H   0  0  0  0  0  0  0  0  0  0  0  0
  1  2  2  0
  2  3  1  0
  3  4  1  0
  4  5  2  0
  5  6  1  0
  6  7  2  0
  7  8  1  0
  8  9  1  0
  9 10  2  0
  9 11  2  0
  9 12  1  0
 12 13  1  0
 13 14  1  0
 14 15  1  0
 15 16  1  0
  8 17  2  0
  2 18  1  0
 18 19  1  0
 19 20  2  0
 20 21  1  0
 21 22  2  0
 22 23  1  0
 23 24  2  0
 24 25  1  0
 25 26  2  0
 26 27  1  0
 20 28  1  0
 28 29  1  0
 17  4  1  0
 29 18  2  0
 16 12  1  0
 26 21  1  0
  3 30  1  0
  5 31  1  0
  6 32  1  0
  7 33  1  0
 13 34  1  0
 13 35  1  0
 14 36  1  0
 14 37  1  0
 15 38  1  0
 15 39  1  0
 16 40  1  0
 16 41  1  0
 17 42  1  0
 19 43  1  0
 22 44  1  0
 23 45  1  0
 24 46  1  0
 25 47  1  0
M  CHG  2  27  -1  28  -1
M  END
>  <UniqueID>  (30) 
28

>  <SMILES>  (30) 
O=C(Nc1cccc(S(=O)(=O)N2CCCC2)c1)c1cc(-c2ccccc2[O-])[n-]n1

>  <Energy>  (30) 
88.02578179558533

>  <Genealogy>  (30) 
O=C(Nc1cccc(S(=O)(=O)N2CCCC2)c1)c1cc(-c2ccccc2[O-])[n-]n1 (protonated)
O=C(Nc1cccc(S(=O)(=O)N2CCCC2)c1)c1cc(-c2ccccc2[O-])[n-]n1 (3D coordinates assigned)
O=C(Nc1cccc(S(=O)(=O)N2CCCC2)c1)c1cc(-c2ccccc2[O-])[n-]n1 (nonaromatic ring conformer: 88.02578179558533 kcal/mol)

>  <smiles>  (30) 
O=C(Nc1cccc(S(=O)(=O)N2CCCC2)c1)c1cc(-c2ccccc2O)[nH]n1

>  <score_type>  (30) 
oracle

>  <origin>  (30) 
adgpu

>  <m_score__min__energy>  (30) 
-14.9

>  <m_primary>  (30) 
energy

$$$$
30:0
     RDKit          3D

 38 40  0  0  0  0  0  0  0  0999 V2000
   -1.2270   26.0950  -29.7370 H   0  0  0  0  0  0  0  0  0  0  0  0
   -1.2280   26.3470  -28.7230 N   0  0  0  0  0  0  0  0  0  0  0  0
   -0.6020   24.9850  -27.8640 S   0  0  0  0  0  0  0  0  0  0  0  0
   -1.3880   24.8110  -26.5950 O   0  0  0  0  0  0  0  0  0  0  0  0
    0.8430   25.2210  -27.5270 O   0  0  0  0  0  0  0  0  0  0  0  0
   -0.7430   23.5390  -28.8590 C   0  0  0  0  0  0  0  0  0  0  0  0
   -1.6060   23.5280  -29.9620 C   0  0  0  0  0  0  0  0  0  0  0  0
   -2.2012   24.4217  -30.2009 H   0  0  0  0  0  0  0  0  0  0  0  0
   -1.7140   22.3850  -30.7610 C   0  0  0  0  0  0  0  0  0  0  0  0
   -2.3853   22.3868  -31.6324 H   0  0  0  0  0  0  0  0  0  0  0  0
   -0.9670   21.2330  -30.4540 C   0  0  0  0  0  0  0  0  0  0  0  0
   -1.0210   20.0500  -31.2710 N   0  0  0  0  0  0  0  0  0  0  0  0
   -2.0670   19.5600  -31.8700 C   0  0  0  0  0  0  0  0  0  0  0  0
   -3.3020   20.1090  -31.6980 N   0  0  0  0  0  0  0  0  0  0  0  0
   -4.4090   19.5970  -32.2970 C   0  0  0  0  0  0  0  0  0  0  0  0
   -5.3876   20.0728  -32.1359 H   0  0  0  0  0  0  0  0  0  0  0  0
   -4.3110   18.4660  -33.1190 C   0  0  0  0  0  0  0  0  0  0  0  0
   -5.7630   17.8030  -33.8780 S   0  0  0  0  0  0  0  0  0  0  0  0
   -5.7800   16.3140  -33.6720 O   0  0  0  0  0  0  0  0  0  0  0  0
   -5.7610   18.0820  -35.3540 O   0  0  0  0  0  0  0  0  0  0  0  0
   -7.1930   18.5430  -33.1660 C   0  0  0  0  0  0  0  0  0  0  0  0
   -7.5290   19.8750  -33.4410 C   0  0  0  0  0  0  0  0  0  0  0  0
   -6.8930   20.4754  -34.1081 H   0  0  0  0  0  0  0  0  0  0  0  0
   -8.6410   20.4270  -32.8840 N   0  0  0  0  0  0  0  0  0  0  0  0
   -9.4500   19.7180  -32.0530 C   0  0  0  0  0  0  0  0  0  0  0  0
  -10.3424   20.1924  -31.6187 H   0  0  0  0  0  0  0  0  0  0  0  0
   -9.1500   18.3890  -31.7500 C   0  0  0  0  0  0  0  0  0  0  0  0
   -9.8021   17.8112  -31.0785 H   0  0  0  0  0  0  0  0  0  0  0  0
   -8.0140   17.8010  -32.3080 C   0  0  0  0  0  0  0  0  0  0  0  0
   -7.7638   16.7557  -32.0740 H   0  0  0  0  0  0  0  0  0  0  0  0
   -3.0470   17.8720  -33.3000 C   0  0  0  0  0  0  0  0  0  0  0  0
   -2.8240   16.4380  -34.2960 Cl  0  0  0  0  0  0  0  0  0  0  0  0
   -1.9270   18.4220  -32.6700 C   0  0  0  0  0  0  0  0  0  0  0  0
   -0.9375   17.9604  -32.8034 H   0  0  0  0  0  0  0  0  0  0  0  0
   -0.0750   21.2640  -29.3740 C   0  0  0  0  0  0  0  0  0  0  0  0
    0.5468   20.3838  -29.1534 H   0  0  0  0  0  0  0  0  0  0  0  0
    0.0300   22.4060  -28.5750 C   0  0  0  0  0  0  0  0  0  0  0  0
    0.7222   22.4150  -27.7201 H   0  0  0  0  0  0  0  0  0  0  0  0
  1  2  1  0
  2  3  1  0
  3  4  2  0
  3  5  2  0
  3  6  1  0
  6  7  2  0
  7  8  1  0
  7  9  1  0
  9 10  1  0
  9 11  2  0
 11 12  1  0
 12 13  2  0
 13 14  1  0
 14 15  1  0
 15 16  1  0
 15 17  2  0
 17 18  1  0
 18 19  2  0
 18 20  2  0
 18 21  1  0
 21 22  2  0
 22 23  1  0
 22 24  1  0
 24 25  2  0
 25 26  1  0
 25 27  1  0
 27 28  1  0
 27 29  2  0
 29 30  1  0
 17 31  1  0
 31 32  1  0
 31 33  2  0
 33 34  1  0
 11 35  1  0
 35 36  1  0
 35 37  2  0
 37 38  1  0
 37  6  1  0
 33 13  1  0
 29 21  1  0
M  CHG  2   2  -1  14  -1
M  END
>  <UniqueID>  (31) 
29

>  <SMILES>  (31) 
[NH-]S(=O)(=O)c1ccc(/N=c2/cc(Cl)c(S(=O)(=O)c3cccnc3)c[n-]2)cc1

>  <Energy>  (31) 
52.102243525908264

>  <Genealogy>  (31) 
[NH-]S(=O)(=O)c1ccc(N=c2cc(Cl)c(S(=O)(=O)c3cccnc3)c[n-]2)cc1 (protonated)
[NH-]S(=O)(=O)c1ccc(/N=c2/cc(Cl)c(S(=O)(=O)c3cccnc3)c[n-]2)cc1 (cis-trans isomerization)
[NH-]S(=O)(=O)c1ccc(/N=c2/cc(Cl)c(S(=O)(=O)c3cccnc3)c[n-]2)cc1 (3D coordinates assigned)
[NH-]S(=O)(=O)c1ccc(/N=c2/cc(Cl)c(S(=O)(=O)c3cccnc3)c[n-]2)cc1 (optimized conformer: 52.102243525908264 kcal/mol)

>  <smiles>  (31) 
NS(=O)(=O)c1ccc(N=c2cc(Cl)c(S(=O)(=O)c3cccnc3)c[nH]2)cc1

>  <score_type>  (31) 
oracle

>  <origin>  (31) 
adgpu

>  <m_score__min__energy>  (31) 
-10.17

>  <m_primary>  (31) 
energy

$$$$
31:0
     RDKit          3D

 31 32  0  0  0  0  0  0  0  0999 V2000
   -9.3700   19.2690  -32.7650 N   0  0  0  0  0  0  0  0  0  0  0  0
   -8.7100   20.1370  -32.3080 C   0  0  0  0  0  0  0  0  0  0  0  0
   -7.8980   21.1690  -31.7430 C   0  0  0  0  0  0  0  0  0  0  0  0
   -8.3700   21.8430  -30.6150 C   0  0  0  0  0  0  0  0  0  0  0  0
   -7.6060   22.8470  -30.0460 C   0  0  0  0  0  0  0  0  0  0  0  0
   -6.3800   23.1580  -30.6200 C   0  0  0  0  0  0  0  0  0  0  0  0
   -5.3080   24.3780  -29.9860 S   0  0  0  0  0  0  0  0  0  0  0  0
   -4.7250   25.1280  -31.1590 O   0  0  0  0  0  0  0  0  0  0  0  0
   -6.0050   25.3650  -29.1010 O   0  0  0  0  0  0  0  0  0  0  0  0
   -3.9780   23.6090  -29.0430 C   0  0  0  0  0  0  0  0  0  0  0  0
   -4.3190   22.3650  -28.5460 C   0  0  0  0  0  0  0  0  0  0  0  0
   -3.2310   21.8370  -27.8200 C   0  0  0  0  0  0  0  0  0  0  0  0
   -2.1750   22.6310  -27.7840 C   0  0  0  0  0  0  0  0  0  0  0  0
   -1.0790   21.8940  -26.9540 O   0  0  0  0  0  0  0  0  0  0  0  0
   -1.5350   23.6950  -28.0580 C   0  0  0  0  0  0  0  0  0  0  0  0
   -0.8370   24.8560  -28.3590 C   0  0  0  0  0  0  0  0  0  0  0  0
   -0.9370   26.1620  -28.7490 N   0  0  0  0  0  0  0  0  0  0  0  0
    0.5060   24.5590  -28.1830 O   0  0  0  0  0  0  0  0  0  0  0  0
   -2.8650   24.2810  -28.9210 C   0  0  0  0  0  0  0  0  0  0  0  0
   -5.9190   22.4780  -31.7460 C   0  0  0  0  0  0  0  0  0  0  0  0
   -6.6750   21.4720  -32.3230 C   0  0  0  0  0  0  0  0  0  0  0  0
   -6.1930   20.7550  -33.4790 N   0  0  0  0  0  0  0  0  0  0  0  0
   -9.3449   21.5772  -30.1804 H   0  0  0  0  0  0  0  0  0  0  0  0
   -7.9626   23.3878  -29.1570 H   0  0  0  0  0  0  0  0  0  0  0  0
   -5.2876   21.8649  -28.6936 H   0  0  0  0  0  0  0  0  0  0  0  0
   -3.2589   20.8534  -27.3283 H   0  0  0  0  0  0  0  0  0  0  0  0
   -1.2340   26.4480  -29.7360 H   0  0  0  0  0  0  0  0  0  0  0  0
   -2.7899   25.2687  -29.3994 H   0  0  0  0  0  0  0  0  0  0  0  0
   -4.9441   22.7435  -32.1808 H   0  0  0  0  0  0  0  0  0  0  0  0
   -6.6880   19.8640  -33.7650 H   0  0  0  0  0  0  0  0  0  0  0  0
   -5.3750   21.1520  -33.9900 H   0  0  0  0  0  0  0  0  0  0  0  0
  1  2  3  0
  2  3  1  0
  3  4  2  0
  4  5  1  0
  5  6  2  0
  6  7  1  0
  7  8  2  0
  7  9  2  0
  7 10  1  0
 10 11  2  0
 11 12  1  0
 12 13  2  0
 13 14  1  0
 13 15  1  0
 15 16  1  0
 16 17  1  0
 16 18  2  0
 15 19  2  0
  6 20  1  0
 20 21  2  0
 21 22  1  0
 21  3  1  0
 19 10  1  0
  4 23  1  0
  5 24  1  0
 11 25  1  0
 12 26  1  0
 17 27  1  0
 19 28  1  0
 20 29  1  0
 22 30  1  0
 22 31  1  0
M  CHG  2  14  -1  17  -1
M  END
>  <UniqueID>  (32) 
30

>  <SMILES>  (32) 
N#Cc1ccc(S(=O)(=O)c2ccc([O-])c(C([NH-])=O)c2)cc1N

>  <Energy>  (32) 
380.6827626256831

>  <Genealogy>  (32) 
N#Cc1ccc(S(=O)(=O)c2ccc([O-])c(C([NH-])=O)c2)cc1N (protonated)
N#Cc1ccc(S(=O)(=O)c2ccc([O-])c(C([NH-])=O)c2)cc1N (3D coordinates assigned)
N#Cc1ccc(S(=O)(=O)c2ccc([O-])c(C([NH-])=O)c2)cc1N (optimized conformer: 380.6827626256831 kcal/mol)

>  <smiles>  (32) 
N#Cc1ccc(S(=O)(=O)c2ccc(O)c(C(N)=O)c2)cc1N

>  <score_type>  (32) 
oracle

>  <origin>  (32) 
adgpu

>  <m_score__min__energy>  (32) 
-11.42

>  <m_primary>  (32) 
energy

$$$$
32:0
     RDKit          3D

 40 43  0  0  0  0  0  0  0  0999 V2000
   -5.0710   17.7590  -32.6120 C   0  0  0  0  0  0  0  0  0  0  0  0
   -6.3440   18.4940  -32.3160 C   0  0  0  0  0  0  0  0  0  0  0  0
   -7.4250   17.8810  -31.6630 C   0  0  0  0  0  0  0  0  0  0  0  0
   -8.5310   18.7070  -31.5100 C   0  0  0  0  0  0  0  0  0  0  0  0
   -8.1710   20.1940  -32.2010 S   0  0  0  0  0  0  0  0  0  0  0  0
   -6.6090   19.8140  -32.6980 C   0  0  0  0  0  0  0  0  0  0  0  0
   -5.7120   20.7490  -33.4600 C   0  0  0  0  0  0  0  0  0  0  0  0
   -4.7430   21.3880  -32.5580 N   0  0  0  0  0  0  0  0  0  0  0  0
   -5.1370   22.5630  -31.8250 C   0  0  0  0  0  0  0  0  0  0  0  0
   -4.2540   23.4390  -31.2960 N   0  0  0  0  0  0  0  0  0  0  0  0
   -4.8820   24.4880  -30.7020 C   0  0  0  0  0  0  0  0  0  0  0  0
   -4.1660   25.5100  -30.0880 O   0  0  0  0  0  0  0  0  0  0  0  0
   -6.2730   24.4660  -30.7580 C   0  0  0  0  0  0  0  0  0  0  0  0
   -6.7270   23.0750  -31.5870 S   0  0  0  0  0  0  0  0  0  0  0  0
   -3.4150   20.8410  -32.3940 C   0  0  0  0  0  0  0  0  0  0  0  0
   -2.8870   20.5160  -31.1940 N   0  0  0  0  0  0  0  0  0  0  0  0
   -1.6080   20.0550  -31.2870 C   0  0  0  0  0  0  0  0  0  0  0  0
   -0.8530   19.6260  -30.0810 C   0  0  0  0  0  0  0  0  0  0  0  0
    0.2360   18.7430  -30.2140 C   0  0  0  0  0  0  0  0  0  0  0  0
    0.9580   18.3280  -29.0910 C   0  0  0  0  0  0  0  0  0  0  0  0
    0.6010   18.7840  -27.8220 C   0  0  0  0  0  0  0  0  0  0  0  0
   -0.4790   19.6560  -27.6710 C   0  0  0  0  0  0  0  0  0  0  0  0
   -1.2050   20.0760  -28.7910 C   0  0  0  0  0  0  0  0  0  0  0  0
   -1.1030   20.0190  -32.5920 C   0  0  0  0  0  0  0  0  0  0  0  0
   -2.2990   20.5860  -33.6290 S   0  0  0  0  0  0  0  0  0  0  0  0
   -4.5824   17.4769  -31.6677 H   0  0  0  0  0  0  0  0  0  0  0  0
   -5.2974   16.8526  -33.1927 H   0  0  0  0  0  0  0  0  0  0  0  0
   -4.3993   18.4083  -33.1927 H   0  0  0  0  0  0  0  0  0  0  0  0
   -7.3985   16.8412  -31.3051 H   0  0  0  0  0  0  0  0  0  0  0  0
   -9.4779   18.4343  -31.0212 H   0  0  0  0  0  0  0  0  0  0  0  0
   -5.1690   20.1814  -34.2300 H   0  0  0  0  0  0  0  0  0  0  0  0
   -6.3297   21.5302  -33.9271 H   0  0  0  0  0  0  0  0  0  0  0  0
   -4.2390   25.6740  -29.0910 H   0  0  0  0  0  0  0  0  0  0  0  0
   -6.9521   25.2217  -30.3363 H   0  0  0  0  0  0  0  0  0  0  0  0
    0.5213   18.3763  -31.2111 H   0  0  0  0  0  0  0  0  0  0  0  0
    1.8089   17.6408  -29.2083 H   0  0  0  0  0  0  0  0  0  0  0  0
    1.1706   18.4565  -26.9398 H   0  0  0  0  0  0  0  0  0  0  0  0
   -0.7597   20.0136  -26.6693 H   0  0  0  0  0  0  0  0  0  0  0  0
   -2.0559   20.7616  -28.6649 H   0  0  0  0  0  0  0  0  0  0  0  0
   -0.0994   19.6792  -32.8874 H   0  0  0  0  0  0  0  0  0  0  0  0
  1  2  1  0
  2  3  1  0
  3  4  2  0
  4  5  1  0
  5  6  1  0
  6  7  1  0
  7  8  1  0
  8  9  1  0
  9 10  2  0
 10 11  1  0
 11 12  1  0
 11 13  2  0
 13 14  1  0
  8 15  1  0
 15 16  2  0
 16 17  1  0
 17 18  1  0
 18 19  2  0
 19 20  1  0
 20 21  2  0
 21 22  1  0
 22 23  2  0
 17 24  2  0
 24 25  1  0
  6  2  2  0
 14  9  1  0
 25 15  1  0
 23 18  1  0
  1 26  1  0
  1 27  1  0
  1 28  1  0
  3 29  1  0
  4 30  1  0
  7 31  1  0
  7 32  1  0
 12 33  1  0
 13 34  1  0
 19 35  1  0
 20 36  1  0
 21 37  1  0
 22 38  1  0
 23 39  1  0
 24 40  1  0
M  END
>  <UniqueID>  (33) 
31

>  <SMILES>  (33) 
Cc1ccsc1CN(c1nc(O)cs1)c1nc(-c2ccccc2)cs1

>  <Energy>  (33) 
132.34987552296843

>  <Genealogy>  (33) 
Cc1ccsc1CN(c1nc(O)cs1)c1nc(-c2ccccc2)cs1 (3D coordinates assigned)
Cc1ccsc1CN(c1nc(O)cs1)c1nc(-c2ccccc2)cs1 (optimized conformer: 132.34987552296843 kcal/mol)

>  <smiles>  (33) 
Cc1ccsc1CN(c1nc(O)cs1)c1nc(-c2ccccc2)cs1

>  <score_type>  (33) 
oracle

>  <origin>  (33) 
adgpu

>  <m_score__min__energy>  (33) 
-8.9700000000000006

>  <m_primary>  (33) 
energy

$$$$
33:0
     RDKit          3D

 33 35  0  0  0  0  0  0  0  0999 V2000
   -3.8610   25.2870  -30.6340 O   0  0  0  0  0  0  0  0  0  0  0  0
   -3.9890   24.1120  -30.1930 C   0  0  0  0  0  0  0  0  0  0  0  0
   -2.9390   23.5660  -29.3050 C   0  0  0  0  0  0  0  0  0  0  0  0
   -3.0660   22.2590  -28.8080 C   0  0  0  0  0  0  0  0  0  0  0  0
   -2.0810   21.7190  -27.9730 C   0  0  0  0  0  0  0  0  0  0  0  0
   -2.2560   20.0750  -27.3800 Cl  0  0  0  0  0  0  0  0  0  0  0  0
   -0.9660   22.4900  -27.6200 C   0  0  0  0  0  0  0  0  0  0  0  0
    0.0200   21.9630  -26.7930 O   0  0  0  0  0  0  0  0  0  0  0  0
   -0.8440   23.7990  -28.0930 C   0  0  0  0  0  0  0  0  0  0  0  0
   -1.8290   24.3440  -28.9240 C   0  0  0  0  0  0  0  0  0  0  0  0
   -1.7080   25.6660  -29.3420 O   0  0  0  0  0  0  0  0  0  0  0  0
   -5.1530   23.3410  -30.5510 N   0  0  0  0  0  0  0  0  0  0  0  0
   -6.4660   23.6700  -29.9740 C   0  0  0  0  0  0  0  0  0  0  0  0
   -7.5640   23.5110  -31.0210 C   0  0  0  0  0  0  0  0  0  0  0  0
   -7.5170   22.1280  -31.6010 C   0  0  0  0  0  0  0  0  0  0  0  0
   -8.7010   21.4790  -31.9850 C   0  0  0  0  0  0  0  0  0  0  0  0
   -8.6520   20.2010  -32.5480 C   0  0  0  0  0  0  0  0  0  0  0  0
   -7.4210   19.5700  -32.7420 C   0  0  0  0  0  0  0  0  0  0  0  0
   -6.2370   20.2140  -32.3770 C   0  0  0  0  0  0  0  0  0  0  0  0
   -6.2750   21.4940  -31.7990 C   0  0  0  0  0  0  0  0  0  0  0  0
   -4.9800   22.1970  -31.4660 C   0  0  0  0  0  0  0  0  0  0  0  0
   -3.9455   21.6554  -29.0767 H   0  0  0  0  0  0  0  0  0  0  0  0
    0.0304   24.4039  -27.8108 H   0  0  0  0  0  0  0  0  0  0  0  0
   -6.6700   22.9948  -29.1299 H   0  0  0  0  0  0  0  0  0  0  0  0
   -6.4516   24.7144  -29.6289 H   0  0  0  0  0  0  0  0  0  0  0  0
   -8.5443   23.6764  -30.5501 H   0  0  0  0  0  0  0  0  0  0  0  0
   -7.4095   24.2469  -31.8239 H   0  0  0  0  0  0  0  0  0  0  0  0
   -9.6707   21.9782  -31.8422 H   0  0  0  0  0  0  0  0  0  0  0  0
   -9.5828   19.6919  -32.8384 H   0  0  0  0  0  0  0  0  0  0  0  0
   -7.3842   18.5631  -33.1835 H   0  0  0  0  0  0  0  0  0  0  0  0
   -5.2699   19.7168  -32.5428 H   0  0  0  0  0  0  0  0  0  0  0  0
   -4.3012   21.4719  -30.9933 H   0  0  0  0  0  0  0  0  0  0  0  0
   -4.5740   22.5934  -32.4084 H   0  0  0  0  0  0  0  0  0  0  0  0
  1  2  2  0
  2  3  1  0
  3  4  2  0
  4  5  1  0
  5  6  1  0
  5  7  2  0
  7  8  1  0
  7  9  1  0
  9 10  2  0
 10 11  1  0
  2 12  1  0
 12 13  1  0
 13 14  1  0
 14 15  1  0
 15 16  2  0
 16 17  1  0
 17 18  2  0
 18 19  1  0
 19 20  2  0
 20 21  1  0
 10  3  1  0
 21 12  1  0
 20 15  1  0
  4 22  1  0
  9 23  1  0
 13 24  1  0
 13 25  1  0
 14 26  1  0
 14 27  1  0
 16 28  1  0
 17 29  1  0
 18 30  1  0
 19 31  1  0
 21 32  1  0
 21 33  1  0
M  CHG  2   8  -1  11  -1
M  END
>  <UniqueID>  (34) 
32

>  <SMILES>  (34) 
O=C(c1cc(Cl)c([O-])cc1[O-])N1CCc2ccccc2C1

>  <Energy>  (34) 
44.114713793998106

>  <Genealogy>  (34) 
O=C(c1cc(Cl)c([O-])cc1[O-])N1CCc2ccccc2C1 (protonated)
O=C(c1cc(Cl)c([O-])cc1[O-])N1CCc2ccccc2C1 (3D coordinates assigned)
O=C(c1cc(Cl)c([O-])cc1[O-])N1CCc2ccccc2C1 (nonaromatic ring conformer: 44.114713793998106 kcal/mol)

>  <smiles>  (34) 
O=C(c1cc(Cl)c(O)cc1O)N1CCc2ccccc2C1

>  <score_type>  (34) 
oracle

>  <origin>  (34) 
adgpu

>  <m_score__min__energy>  (34) 
-12.15

>  <m_primary>  (34) 
energy

$$$$
34:0
     RDKit          3D

 49 52  0  0  0  0  0  0  0  0999 V2000
   -0.3360   25.9930  -27.1680 C   0  0  0  0  0  0  0  0  0  0  0  0
   -0.2560   24.5940  -27.6760 C   0  0  0  0  0  0  0  0  0  0  0  0
   -0.5150   24.2520  -28.9550 N   0  0  0  0  0  0  0  0  0  0  0  0
   -0.4750   22.9050  -29.1440 C   0  0  0  0  0  0  0  0  0  0  0  0
   -0.7350   22.3050  -30.4910 C   0  0  0  0  0  0  0  0  0  0  0  0
   -0.1870   22.1630  -27.9930 C   0  0  0  0  0  0  0  0  0  0  0  0
   -0.1090   20.6920  -27.8810 C   0  0  0  0  0  0  0  0  0  0  0  0
    1.1030   20.0490  -28.1790 C   0  0  0  0  0  0  0  0  0  0  0  0
    1.2410   18.6600  -28.0250 C   0  0  0  0  0  0  0  0  0  0  0  0
    2.5640   17.9910  -28.3020 C   0  0  0  0  0  0  0  0  0  0  0  0
    2.4590   16.6180  -28.1550 F   0  0  0  0  0  0  0  0  0  0  0  0
    3.5110   18.4690  -27.4160 F   0  0  0  0  0  0  0  0  0  0  0  0
    2.9820   18.2560  -29.5960 F   0  0  0  0  0  0  0  0  0  0  0  0
    0.1650   17.9230  -27.5080 C   0  0  0  0  0  0  0  0  0  0  0  0
   -1.0450   18.5510  -27.2100 C   0  0  0  0  0  0  0  0  0  0  0  0
   -1.2060   19.9230  -27.4190 C   0  0  0  0  0  0  0  0  0  0  0  0
   -2.4580   20.4910  -27.1370 O   0  0  0  0  0  0  0  0  0  0  0  0
   -3.1760   21.3180  -28.0130 C   0  0  0  0  0  0  0  0  0  0  0  0
   -3.4780   20.9220  -29.3290 C   0  0  0  0  0  0  0  0  0  0  0  0
   -4.1370   21.8000  -30.1940 C   0  0  0  0  0  0  0  0  0  0  0  0
   -4.5240   23.0720  -29.7480 C   0  0  0  0  0  0  0  0  0  0  0  0
   -5.2960   24.2040  -30.8530 S   0  0  0  0  0  0  0  0  0  0  0  0
   -6.5070   24.8310  -30.2200 O   0  0  0  0  0  0  0  0  0  0  0  0
   -4.3260   25.2960  -31.2070 O   0  0  0  0  0  0  0  0  0  0  0  0
   -5.7680   23.3610  -32.2910 N   0  0  0  0  0  0  0  0  0  0  0  0
   -6.7680   22.3390  -32.2690 C   0  0  0  0  0  0  0  0  0  0  0  0
   -8.0570   22.5690  -31.8040 C   0  0  0  0  0  0  0  0  0  0  0  0
   -8.9040   21.1230  -31.9350 S   0  0  0  0  0  0  0  0  0  0  0  0
   -7.6020   20.2730  -32.5720 C   0  0  0  0  0  0  0  0  0  0  0  0
   -6.5190   21.0700  -32.6960 N   0  0  0  0  0  0  0  0  0  0  0  0
   -4.2560   23.4520  -28.4250 C   0  0  0  0  0  0  0  0  0  0  0  0
   -4.6130   24.6810  -27.9740 F   0  0  0  0  0  0  0  0  0  0  0  0
   -3.5980   22.5720  -27.5610 C   0  0  0  0  0  0  0  0  0  0  0  0
    0.0150   23.2410  -26.7150 S   0  0  0  0  0  0  0  0  0  0  0  0
   -0.3355   25.9843  -26.0680 H   0  0  0  0  0  0  0  0  0  0  0  0
    0.5309   26.5649  -27.5305 H   0  0  0  0  0  0  0  0  0  0  0  0
   -1.2624   26.4623  -27.5305 H   0  0  0  0  0  0  0  0  0  0  0  0
   -1.1696   21.3020  -30.3679 H   0  0  0  0  0  0  0  0  0  0  0  0
   -1.4373   22.9432  -31.0473 H   0  0  0  0  0  0  0  0  0  0  0  0
    0.2109   22.2290  -31.0473 H   0  0  0  0  0  0  0  0  0  0  0  0
    1.9570   20.6419  -28.5384 H   0  0  0  0  0  0  0  0  0  0  0  0
    0.2760   16.8422  -27.3363 H   0  0  0  0  0  0  0  0  0  0  0  0
   -1.8804   17.9599  -26.8065 H   0  0  0  0  0  0  0  0  0  0  0  0
   -3.1945   19.9181  -29.6781 H   0  0  0  0  0  0  0  0  0  0  0  0
   -4.3528   21.4923  -31.2278 H   0  0  0  0  0  0  0  0  0  0  0  0
   -5.2680   23.5780  -33.1830 H   0  0  0  0  0  0  0  0  0  0  0  0
   -8.4507   23.5219  -31.4207 H   0  0  0  0  0  0  0  0  0  0  0  0
   -7.6284   19.2092  -32.8508 H   0  0  0  0  0  0  0  0  0  0  0  0
   -3.4109   22.8681  -26.5183 H   0  0  0  0  0  0  0  0  0  0  0  0
  1  2  1  0
  2  3  2  0
  3  4  1  0
  4  5  1  0
  4  6  2  0
  6  7  1  0
  7  8  2  0
  8  9  1  0
  9 10  1  0
 10 11  1  0
 10 12  1  0
 10 13  1  0
  9 14  2  0
 14 15  1  0
 15 16  2  0
 16 17  1  0
 17 18  1  0
 18 19  2  0
 19 20  1  0
 20 21  2  0
 21 22  1  0
 22 23  2  0
 22 24  2  0
 22 25  1  0
 25 26  1  0
 26 27  2  0
 27 28  1  0
 28 29  1  0
 29 30  2  0
 21 31  1  0
 31 32  1  0
 31 33  2  0
  6 34  1  0
 34  2  1  0
 16  7  1  0
 33 18  1  0
 30 26  1  0
  1 35  1  0
  1 36  1  0
  1 37  1  0
  5 38  1  0
  5 39  1  0
  5 40  1  0
  8 41  1  0
 14 42  1  0
 15 43  1  0
 19 44  1  0
 20 45  1  0
 25 46  1  0
 27 47  1  0
 29 48  1  0
 33 49  1  0
M  END
>  <UniqueID>  (35) 
33

>  <SMILES>  (35) 
Cc1nc(C)c(-c2cc(C(F)(F)F)ccc2Oc2ccc(S(=O)(=O)Nc3cscn3)c(F)c2)s1

>  <Energy>  (35) 
119.3475757733747

>  <Genealogy>  (35) 
Cc1nc(C)c(-c2cc(C(F)(F)F)ccc2Oc2ccc(S(=O)(=O)Nc3cscn3)c(F)c2)s1 (3D coordinates assigned)
Cc1nc(C)c(-c2cc(C(F)(F)F)ccc2Oc2ccc(S(=O)(=O)Nc3cscn3)c(F)c2)s1 (optimized conformer: 119.3475757733747 kcal/mol)

>  <smiles>  (35) 
Cc1nc(C)c(-c2cc(C(F)(F)F)ccc2Oc2ccc(S(=O)(=O)Nc3cscn3)c(F)c2)s1

>  <score_type>  (35) 
oracle

>  <origin>  (35) 
adgpu

>  <m_score__min__energy>  (35) 
-9.0800000000000001

>  <m_primary>  (35) 
energy

$$$$
35:0
     RDKit          3D

 45 47  0  0  0  0  0  0  0  0999 V2000
   -5.3130   26.4250  -30.5130 O   0  0  0  0  0  0  0  0  0  0  0  0
   -4.9000   25.2730  -30.2100 C   0  0  0  0  0  0  0  0  0  0  0  0
   -5.8790   24.2320  -29.7560 C   0  0  0  0  0  0  0  0  0  0  0  0
   -6.9700   23.9600  -30.8080 C   0  0  0  0  0  0  0  0  0  0  0  0
   -6.4720   23.1540  -32.0190 C   0  0  0  0  0  0  0  0  0  0  0  0
   -7.1540   21.8160  -32.1580 C   0  0  0  0  0  0  0  0  0  0  0  0
   -8.4900   21.6560  -31.7560 C   0  0  0  0  0  0  0  0  0  0  0  0
   -9.1190   20.4130  -31.8730 C   0  0  0  0  0  0  0  0  0  0  0  0
   -8.4150   19.3180  -32.3830 C   0  0  0  0  0  0  0  0  0  0  0  0
   -7.0840   19.4690  -32.7840 C   0  0  0  0  0  0  0  0  0  0  0  0
   -6.4550   20.7130  -32.6730 C   0  0  0  0  0  0  0  0  0  0  0  0
   -3.5210   24.9230  -30.3790 N   0  0  0  0  0  0  0  0  0  0  0  0
   -2.6350   24.4340  -29.3610 C   0  0  0  0  0  0  0  0  0  0  0  0
   -1.7200   25.2850  -28.7110 C   0  0  0  0  0  0  0  0  0  0  0  0
   -0.9030   24.7960  -27.6890 C   0  0  0  0  0  0  0  0  0  0  0  0
   -0.9890   23.4590  -27.3020 C   0  0  0  0  0  0  0  0  0  0  0  0
   -1.8970   22.6070  -27.9320 C   0  0  0  0  0  0  0  0  0  0  0  0
   -2.7290   23.0890  -28.9520 C   0  0  0  0  0  0  0  0  0  0  0  0
   -3.8710   21.9540  -29.7510 S   0  0  0  0  0  0  0  0  0  0  0  0
   -2.7410   21.5880  -31.0940 C   0  0  0  0  0  0  0  0  0  0  0  0
   -1.3650   21.4910  -30.8490 C   0  0  0  0  0  0  0  0  0  0  0  0
   -0.4850   21.2090  -31.8990 C   0  0  0  0  0  0  0  0  0  0  0  0
   -0.9770   21.0360  -33.1970 C   0  0  0  0  0  0  0  0  0  0  0  0
   -2.3490   21.1480  -33.4450 C   0  0  0  0  0  0  0  0  0  0  0  0
   -3.2300   21.4230  -32.3950 C   0  0  0  0  0  0  0  0  0  0  0  0
   -5.3352   23.2962  -29.5598 H   0  0  0  0  0  0  0  0  0  0  0  0
   -6.3727   24.6068  -28.8473 H   0  0  0  0  0  0  0  0  0  0  0  0
   -7.7839   23.3976  -30.3271 H   0  0  0  0  0  0  0  0  0  0  0  0
   -7.3030   24.9376  -31.1868 H   0  0  0  0  0  0  0  0  0  0  0  0
   -6.6601   23.7396  -32.9310 H   0  0  0  0  0  0  0  0  0  0  0  0
   -5.3995   22.9622  -31.8677 H   0  0  0  0  0  0  0  0  0  0  0  0
   -9.0446   22.5134  -31.3468 H   0  0  0  0  0  0  0  0  0  0  0  0
  -10.1682   20.2964  -31.5637 H   0  0  0  0  0  0  0  0  0  0  0  0
   -8.9079   18.3383  -32.4687 H   0  0  0  0  0  0  0  0  0  0  0  0
   -6.5309   18.6080  -33.1874 H   0  0  0  0  0  0  0  0  0  0  0  0
   -5.4081   20.8277  -32.9906 H   0  0  0  0  0  0  0  0  0  0  0  0
   -1.6484   26.3411  -29.0100 H   0  0  0  0  0  0  0  0  0  0  0  0
   -0.1899   25.4673  -27.1881 H   0  0  0  0  0  0  0  0  0  0  0  0
   -0.3409   23.0759  -26.5000 H   0  0  0  0  0  0  0  0  0  0  0  0
   -1.9602   21.5521  -27.6267 H   0  0  0  0  0  0  0  0  0  0  0  0
   -0.9765   21.6367  -29.8303 H   0  0  0  0  0  0  0  0  0  0  0  0
    0.5942   21.1232  -31.7040 H   0  0  0  0  0  0  0  0  0  0  0  0
   -0.2852   20.8120  -34.0223 H   0  0  0  0  0  0  0  0  0  0  0  0
   -2.7350   21.0196  -34.4670 H   0  0  0  0  0  0  0  0  0  0  0  0
   -4.3088   21.5098  -32.5915 H   0  0  0  0  0  0  0  0  0  0  0  0
  1  2  2  0
  2  3  1  0
  3  4  1  0
  4  5  1  0
  5  6  1  0
  6  7  2  0
  7  8  1  0
  8  9  2  0
  9 10  1  0
 10 11  2  0
  2 12  1  0
 12 13  1  0
 13 14  2  0
 14 15  1  0
 15 16  2  0
 16 17  1  0
 17 18  2  0
 18 19  1  0
 19 20  1  0
 20 21  2  0
 21 22  1  0
 22 23  2  0
 23 24  1  0
 24 25  2  0
 11  6  1  0
 18 13  1  0
 25 20  1  0
  3 26  1  0
  3 27  1  0
  4 28  1  0
  4 29  1  0
  5 30  1  0
  5 31  1  0
  7 32  1  0
  8 33  1  0
  9 34  1  0
 10 35  1  0
 11 36  1  0
 14 37  1  0
 15 38  1  0
 16 39  1  0
 17 40  1  0
 21 41  1  0
 22 42  1  0
 23 43  1  0
 24 44  1  0
 25 45  1  0
M  CHG  1  12  -1
M  END
>  <UniqueID>  (36) 
34

>  <SMILES>  (36) 
O=C(CCCc1ccccc1)[N-]c1ccccc1Sc1ccccc1

>  <Energy>  (36) 
36.96839866794063

>  <Genealogy>  (36) 
O=C(CCCc1ccccc1)[N-]c1ccccc1Sc1ccccc1 (protonated)
O=C(CCCc1ccccc1)[N-]c1ccccc1Sc1ccccc1 (3D coordinates assigned)
O=C(CCCc1ccccc1)[N-]c1ccccc1Sc1ccccc1 (optimized conformer: 36.96839866794063 kcal/mol)

>  <smiles>  (36) 
O=C(CCCc1ccccc1)Nc1ccccc1Sc1ccccc1

>  <score_type>  (36) 
oracle

>  <origin>  (36) 
adgpu

>  <m_score__min__energy>  (36) 
-10.869999999999999

>  <m_primary>  (36) 
energy

$$$$
36:0
     RDKit          3D

 30 32  0  0  0  0  0  0  0  0999 V2000
   -2.4310   21.5650  -31.8730 O   0  0  0  0  0  0  0  0  0  0  0  0
   -3.6550   21.8490  -31.7660 C   0  0  0  0  0  0  0  0  0  0  0  0
   -4.5820   21.5020  -32.8960 C   0  0  0  0  0  0  0  0  0  0  0  0
   -6.0330   21.3990  -32.4240 C   0  0  0  0  0  0  0  0  0  0  0  0
   -6.4160   22.6190  -31.5860 C   0  0  0  0  0  0  0  0  0  0  0  0
   -5.5660   22.6770  -30.3150 C   0  0  0  0  0  0  0  0  0  0  0  0
   -4.1320   22.5770  -30.6150 N   0  0  0  0  0  0  0  0  0  0  0  0
   -3.1960   23.0450  -29.6310 C   0  0  0  0  0  0  0  0  0  0  0  0
   -2.8930   24.4130  -29.5730 C   0  0  0  0  0  0  0  0  0  0  0  0
   -3.4910   25.3000  -30.4620 O   0  0  0  0  0  0  0  0  0  0  0  0
   -1.9890   24.8960  -28.6250 C   0  0  0  0  0  0  0  0  0  0  0  0
   -1.3780   24.0230  -27.7240 C   0  0  0  0  0  0  0  0  0  0  0  0
   -1.6660   22.6480  -27.7620 C   0  0  0  0  0  0  0  0  0  0  0  0
   -1.0680   21.7450  -26.8670 C   0  0  0  0  0  0  0  0  0  0  0  0
   -0.2460   22.1380  -25.9960 O   0  0  0  0  0  0  0  0  0  0  0  0
   -1.3800   20.4250  -26.9380 N   0  0  0  0  0  0  0  0  0  0  0  0
   -2.2440   19.9580  -27.8390 N   0  0  0  0  0  0  0  0  0  0  0  0
   -2.8550   20.7760  -28.7330 C   0  0  0  0  0  0  0  0  0  0  0  0
   -2.5830   22.1520  -28.7190 C   0  0  0  0  0  0  0  0  0  0  0  0
   -4.5123   22.2832  -33.6673 H   0  0  0  0  0  0  0  0  0  0  0  0
   -4.2815   20.5235  -33.2988 H   0  0  0  0  0  0  0  0  0  0  0  0
   -6.6948   21.3409  -33.3008 H   0  0  0  0  0  0  0  0  0  0  0  0
   -6.1404   20.4963  -31.8046 H   0  0  0  0  0  0  0  0  0  0  0  0
   -6.2490   23.5320  -32.1764 H   0  0  0  0  0  0  0  0  0  0  0  0
   -7.4766   22.5416  -31.3045 H   0  0  0  0  0  0  0  0  0  0  0  0
   -5.7570   23.6310  -29.8017 H   0  0  0  0  0  0  0  0  0  0  0  0
   -5.8432   21.8240  -29.6782 H   0  0  0  0  0  0  0  0  0  0  0  0
   -1.7571   25.9706  -28.5881 H   0  0  0  0  0  0  0  0  0  0  0  0
   -0.6674   24.4130  -26.9804 H   0  0  0  0  0  0  0  0  0  0  0  0
   -3.5617   20.3610  -29.4667 H   0  0  0  0  0  0  0  0  0  0  0  0
  1  2  2  0
  2  3  1  0
  3  4  1  0
  4  5  1  0
  5  6  1  0
  6  7  1  0
  7  8  1  0
  8  9  2  0
  9 10  1  0
  9 11  1  0
 11 12  2  0
 12 13  1  0
 13 14  1  0
 14 15  2  0
 14 16  1  0
 16 17  1  0
 17 18  2  0
 18 19  1  0
  7  2  1  0
 19  8  1  0
 19 13  2  0
  3 20  1  0
  3 21  1  0
  4 22  1  0
  4 23  1  0
  5 24  1  0
  5 25  1  0
  6 26  1  0
  6 27  1  0
 11 28  1  0
 12 29  1  0
 18 30  1  0
M  CHG  2  10  -1  16  -1
M  END
>  <UniqueID>  (37) 
35

>  <SMILES>  (37) 
O=C1CCCCN1c1c([O-])ccc2c(=O)[n-]ncc12

>  <Energy>  (37) 
42.515537656104065

>  <Genealogy>  (37) 
O=C1CCCCN1c1c([O-])ccc2c(=O)[n-]ncc12 (protonated)
O=C1CCCCN1c1c([O-])ccc2c(=O)[n-]ncc12 (3D coordinates assigned)
O=C1CCCCN1c1c([O-])ccc2c(=O)[n-]ncc12 (nonaromatic ring conformer: 42.515537656104065 kcal/mol)

>  <smiles>  (37) 
O=C1CCCCN1c1c(O)ccc2c(=O)[nH]ncc12

>  <score_type>  (37) 
oracle

>  <origin>  (37) 
adgpu

>  <m_score__min__energy>  (37) 
-9.3900000000000006

>  <m_primary>  (37) 
energy

$$$$
37:0
     RDKit          3D

 54 56  0  0  0  0  0  0  0  0999 V2000
   -0.7970   26.9360  -27.7740 C   0  0  0  0  0  0  0  0  0  0  0  0
   -1.4700   26.1200  -28.7270 O   0  0  0  0  0  0  0  0  0  0  0  0
   -1.8740   24.7930  -28.4970 C   0  0  0  0  0  0  0  0  0  0  0  0
   -1.3470   24.0320  -27.4320 C   0  0  0  0  0  0  0  0  0  0  0  0
   -1.7170   22.6950  -27.2660 C   0  0  0  0  0  0  0  0  0  0  0  0
   -2.6040   22.0980  -28.1620 C   0  0  0  0  0  0  0  0  0  0  0  0
   -3.1390   22.8420  -29.2150 C   0  0  0  0  0  0  0  0  0  0  0  0
   -2.8090   24.1940  -29.3710 C   0  0  0  0  0  0  0  0  0  0  0  0
   -3.3880   24.9130  -30.4710 N   0  0  0  0  0  0  0  0  0  0  0  0
   -4.7840   25.1950  -30.6440 C   0  0  0  0  0  0  0  0  0  0  0  0
   -5.2020   26.3720  -30.4790 O   0  0  0  0  0  0  0  0  0  0  0  0
   -5.7470   24.1040  -30.9560 C   0  0  0  0  0  0  0  0  0  0  0  0
   -5.2950   22.9600  -31.6470 C   0  0  0  0  0  0  0  0  0  0  0  0
   -6.1740   21.9160  -31.9630 C   0  0  0  0  0  0  0  0  0  0  0  0
   -5.6030   20.4810  -32.8080 S   0  0  0  0  0  0  0  0  0  0  0  0
   -6.5750   20.1360  -33.8990 O   0  0  0  0  0  0  0  0  0  0  0  0
   -5.4980   19.3180  -31.8590 O   0  0  0  0  0  0  0  0  0  0  0  0
   -4.0450   20.8090  -33.5110 N   0  0  0  0  0  0  0  0  0  0  0  0
   -3.0120   19.9320  -32.9440 C   0  0  0  0  0  0  0  0  0  0  0  0
   -1.9820   20.7940  -32.1980 C   0  0  0  0  0  0  0  0  0  0  0  0
   -1.0820   21.5640  -33.1730 C   0  0  0  0  0  0  0  0  0  0  0  0
   -0.5010   20.6820  -34.2010 N   0  0  0  0  0  0  0  0  0  0  0  0
    0.4980   21.2290  -35.0920 C   0  0  0  0  0  0  0  0  0  0  0  0
    1.2790   20.3670  -36.0390 C   0  0  0  0  0  0  0  0  0  0  0  0
    0.7280   22.4710  -35.0840 O   0  0  0  0  0  0  0  0  0  0  0  0
   -0.8550   19.2510  -34.2080 C   0  0  0  0  0  0  0  0  0  0  0  0
   -2.3740   19.0730  -34.0690 C   0  0  0  0  0  0  0  0  0  0  0  0
   -7.5170   22.0050  -31.5890 C   0  0  0  0  0  0  0  0  0  0  0  0
   -7.9790   23.1230  -30.8980 C   0  0  0  0  0  0  0  0  0  0  0  0
   -7.1090   24.1720  -30.5720 C   0  0  0  0  0  0  0  0  0  0  0  0
   -7.6030   25.2700  -29.8680 O   0  0  0  0  0  0  0  0  0  0  0  0
   -1.0654   26.6106  -26.7581 H   0  0  0  0  0  0  0  0  0  0  0  0
    0.2901   26.8425  -27.9138 H   0  0  0  0  0  0  0  0  0  0  0  0
   -1.0957   27.9854  -27.9138 H   0  0  0  0  0  0  0  0  0  0  0  0
   -0.6400   24.4946  -26.7276 H   0  0  0  0  0  0  0  0  0  0  0  0
   -1.3082   22.1122  -26.4274 H   0  0  0  0  0  0  0  0  0  0  0  0
   -2.8819   21.0408  -28.0387 H   0  0  0  0  0  0  0  0  0  0  0  0
   -3.8255   22.3623  -29.9282 H   0  0  0  0  0  0  0  0  0  0  0  0
   -4.2377   22.8868  -31.9417 H   0  0  0  0  0  0  0  0  0  0  0  0
   -3.4505   19.2305  -32.2190 H   0  0  0  0  0  0  0  0  0  0  0  0
   -2.5142   21.5136  -31.5585 H   0  0  0  0  0  0  0  0  0  0  0  0
   -1.3473   20.1286  -31.5944 H   0  0  0  0  0  0  0  0  0  0  0  0
   -1.6802   22.3423  -33.6695 H   0  0  0  0  0  0  0  0  0  0  0  0
   -0.2554   22.0050  -32.5967 H   0  0  0  0  0  0  0  0  0  0  0  0
    1.9096   19.6710  -35.4662 H   0  0  0  0  0  0  0  0  0  0  0  0
    0.5845   19.7959  -36.6726 H   0  0  0  0  0  0  0  0  0  0  0  0
    1.9157   21.0019  -36.6726 H   0  0  0  0  0  0  0  0  0  0  0  0
   -0.5227   18.8003  -35.1548 H   0  0  0  0  0  0  0  0  0  0  0  0
   -0.3594   18.7573  -33.3591 H   0  0  0  0  0  0  0  0  0  0  0  0
   -2.8433   19.3509  -35.0242 H   0  0  0  0  0  0  0  0  0  0  0  0
   -2.5471   18.0202  -33.8014 H   0  0  0  0  0  0  0  0  0  0  0  0
   -8.2116   21.1901  -31.8408 H   0  0  0  0  0  0  0  0  0  0  0  0
   -9.0376   23.1829  -30.6053 H   0  0  0  0  0  0  0  0  0  0  0  0
   -6.9880   25.9470  -29.4310 H   0  0  0  0  0  0  0  0  0  0  0  0
  1  2  1  0
  2  3  1  0
  3  4  2  0
  4  5  1  0
  5  6  2  0
  6  7  1  0
  7  8  2  0
  8  9  1  0
  9 10  1  0
 10 11  2  0
 10 12  1  0
 12 13  2  0
 13 14  1  0
 14 15  1  0
 15 16  2  0
 15 17  2  0
 15 18  1  0
 18 19  1  0
 19 20  1  0
 20 21  1  0
 21 22  1  0
 22 23  1  0
 23 24  1  0
 23 25  2  0
 22 26  1  0
 26 27  1  0
 14 28  2  0
 28 29  1  0
 29 30  2  0
 30 31  1  0
  8  3  1  0
 30 12  1  0
 27 19  1  0
  1 32  1  0
  1 33  1  0
  1 34  1  0
  4 35  1  0
  5 36  1  0
  6 37  1  0
  7 38  1  0
 13 39  1  0
 19 40  1  0
 20 41  1  0
 20 42  1  0
 21 43  1  0
 21 44  1  0
 24 45  1  0
 24 46  1  0
 24 47  1  0
 26 48  1  0
 26 49  1  0
 27 50  1  0
 27 51  1  0
 28 52  1  0
 29 53  1  0
 31 54  1  0
M  CHG  2   9  -1  18  -1
M  END
>  <UniqueID>  (38) 
36

>  <SMILES>  (38) 
COc1ccccc1[N-]C(=O)c1cc(S(=O)(=O)[N-]C2CCN(C(C)=O)CC2)ccc1O

>  <Energy>  (38) 
63.82965348024293

>  <Genealogy>  (38) 
COc1ccccc1[N-]C(=O)c1cc(S(=O)(=O)[N-]C2CCN(C(C)=O)CC2)ccc1O (protonated)
COc1ccccc1[N-]C(=O)c1cc(S(=O)(=O)[N-]C2CCN(C(C)=O)CC2)ccc1O (3D coordinates assigned)
COc1ccccc1[N-]C(=O)c1cc(S(=O)(=O)[N-]C2CCN(C(C)=O)CC2)ccc1O (nonaromatic ring conformer: 63.82965348024293 kcal/mol)

>  <smiles>  (38) 
COc1ccccc1NC(=O)c1cc(S(=O)(=O)NC2CCN(C(C)=O)CC2)ccc1O

>  <score_type>  (38) 
oracle

>  <origin>  (38) 
adgpu

>  <m_score__min__energy>  (38) 
-10.789999999999999

>  <m_primary>  (38) 
energy

$$$$
38:0
     RDKit          3D

 47 49  0  0  0  0  0  0  0  0999 V2000
   -4.1800   23.3760  -27.4560 C   0  0  0  0  0  0  0  0  0  0  0  0
   -2.9110   22.7380  -27.9590 C   0  0  0  0  0  0  0  0  0  0  0  0
   -2.6030   21.4330  -27.5310 C   0  0  0  0  0  0  0  0  0  0  0  0
   -1.4620   20.7810  -27.9990 C   0  0  0  0  0  0  0  0  0  0  0  0
   -0.6110   21.4200  -28.8980 C   0  0  0  0  0  0  0  0  0  0  0  0
   -0.8900   22.7200  -29.3220 C   0  0  0  0  0  0  0  0  0  0  0  0
   -2.0260   23.4040  -28.8510 C   0  0  0  0  0  0  0  0  0  0  0  0
   -2.2510   24.7970  -29.3120 C   0  0  0  0  0  0  0  0  0  0  0  0
   -1.3720   25.6730  -29.0920 O   0  0  0  0  0  0  0  0  0  0  0  0
   -3.4970   25.1680  -29.9170 N   0  0  0  0  0  0  0  0  0  0  0  0
   -4.3770   24.3110  -30.6580 C   0  0  0  0  0  0  0  0  0  0  0  0
   -5.7080   24.6710  -30.9390 C   0  0  0  0  0  0  0  0  0  0  0  0
   -6.5220   23.8210  -31.6920 C   0  0  0  0  0  0  0  0  0  0  0  0
   -6.0150   22.6150  -32.1800 C   0  0  0  0  0  0  0  0  0  0  0  0
   -4.6870   22.2540  -31.9220 C   0  0  0  0  0  0  0  0  0  0  0  0
   -4.0460   20.7500  -32.5810 S   0  0  0  0  0  0  0  0  0  0  0  0
   -3.2980   21.0270  -33.8570 O   0  0  0  0  0  0  0  0  0  0  0  0
   -3.0900   20.1550  -31.5860 O   0  0  0  0  0  0  0  0  0  0  0  0
   -5.3570   19.6360  -32.8850 N   0  0  0  0  0  0  0  0  0  0  0  0
   -5.8640   19.0950  -31.6020 C   0  0  0  0  0  0  0  0  0  0  0  0
   -6.6970   17.8040  -31.7730 C   0  0  0  0  0  0  0  0  0  0  0  0
   -7.2320   17.6580  -33.1980 C   0  0  0  0  0  0  0  0  0  0  0  0
   -6.0870   17.6660  -34.2230 C   0  0  0  0  0  0  0  0  0  0  0  0
   -4.9070   18.5620  -33.7890 C   0  0  0  0  0  0  0  0  0  0  0  0
   -3.8690   23.1100  -31.1710 C   0  0  0  0  0  0  0  0  0  0  0  0
   -4.1795   23.3757  -26.3560 H   0  0  0  0  0  0  0  0  0  0  0  0
   -4.2400   24.4114  -27.8224 H   0  0  0  0  0  0  0  0  0  0  0  0
   -5.0469   22.8066  -27.8224 H   0  0  0  0  0  0  0  0  0  0  0  0
   -3.2689   20.9219  -26.8201 H   0  0  0  0  0  0  0  0  0  0  0  0
   -1.2338   19.7605  -27.6576 H   0  0  0  0  0  0  0  0  0  0  0  0
    0.2820   20.8993  -29.2741 H   0  0  0  0  0  0  0  0  0  0  0  0
   -0.2134   23.2162  -30.0333 H   0  0  0  0  0  0  0  0  0  0  0  0
   -6.1088   25.6245  -30.5647 H   0  0  0  0  0  0  0  0  0  0  0  0
   -7.5647   24.1025  -31.9009 H   0  0  0  0  0  0  0  0  0  0  0  0
   -6.6606   21.9467  -32.7687 H   0  0  0  0  0  0  0  0  0  0  0  0
   -6.1170   20.1830  -33.3540 H   0  0  0  0  0  0  0  0  0  0  0  0
   -5.0047   18.8733  -30.9520 H   0  0  0  0  0  0  0  0  0  0  0  0
   -6.5267   19.8565  -31.1649 H   0  0  0  0  0  0  0  0  0  0  0  0
   -6.0614   16.9368  -31.5407 H   0  0  0  0  0  0  0  0  0  0  0  0
   -7.5567   17.8587  -31.0889 H   0  0  0  0  0  0  0  0  0  0  0  0
   -7.7808   16.7082  -33.2800 H   0  0  0  0  0  0  0  0  0  0  0  0
   -7.8966   18.5085  -33.4103 H   0  0  0  0  0  0  0  0  0  0  0  0
   -5.7199   16.6367  -34.3490 H   0  0  0  0  0  0  0  0  0  0  0  0
   -6.4855   18.0730  -35.1640 H   0  0  0  0  0  0  0  0  0  0  0  0
   -4.1602   17.9445  -33.2686 H   0  0  0  0  0  0  0  0  0  0  0  0
   -4.4711   19.0231  -34.6876 H   0  0  0  0  0  0  0  0  0  0  0  0
   -2.8202   22.8366  -30.9830 H   0  0  0  0  0  0  0  0  0  0  0  0
  1  2  1  0
  2  3  2  0
  3  4  1  0
  4  5  2  0
  5  6  1  0
  6  7  2  0
  7  8  1  0
  8  9  2  0
  8 10  1  0
 10 11  1  0
 11 12  2  0
 12 13  1  0
 13 14  2  0
 14 15  1  0
 15 16  1  0
 16 17  2  0
 16 18  2  0
 16 19  1  0
 19 20  1  0
 20 21  1  0
 21 22  1  0
 22 23  1  0
 23 24  1  0
 15 25  2  0
  7  2  1  0
 25 11  1  0
 24 19  1  0
  1 26  1  0
  1 27  1  0
  1 28  1  0
  3 29  1  0
  4 30  1  0
  5 31  1  0
  6 32  1  0
 12 33  1  0
 13 34  1  0
 14 35  1  0
 19 36  1  0
 20 37  1  0
 20 38  1  0
 21 39  1  0
 21 40  1  0
 22 41  1  0
 22 42  1  0
 23 43  1  0
 23 44  1  0
 24 45  1  0
 24 46  1  0
 25 47  1  0
M  CHG  2  10  -1  19   1
M  END
>  <UniqueID>  (39) 
37

>  <SMILES>  (39) 
Cc1ccccc1C(=O)[N-]c1cccc(S(=O)(=O)[NH+]2CCCCC2)c1

>  <Energy>  (39) 
59.0823543570228

>  <Genealogy>  (39) 
Cc1ccccc1C(=O)[N-]c1cccc(S(=O)(=O)[NH+]2CCCCC2)c1 (protonated)
Cc1ccccc1C(=O)[N-]c1cccc(S(=O)(=O)[NH+]2CCCCC2)c1 (3D coordinates assigned)
Cc1ccccc1C(=O)[N-]c1cccc(S(=O)(=O)[NH+]2CCCCC2)c1 (nonaromatic ring conformer: 59.0823543570228 kcal/mol)

>  <smiles>  (39) 
Cc1ccccc1C(=O)Nc1cccc(S(=O)(=O)N2CCCCC2)c1

>  <score_type>  (39) 
oracle

>  <origin>  (39) 
adgpu

>  <m_score__min__energy>  (39) 
-10.42

>  <m_primary>  (39) 
energy

$$$$
39:0
     RDKit          3D

 44 46  0  0  0  0  0  0  0  0999 V2000
   -5.9360   24.2220  -31.6470 C   0  0  0  0  0  0  0  0  0  0  0  0
   -4.6930   24.3590  -30.8270 C   0  0  0  0  0  0  0  0  0  0  0  0
   -4.1740   25.5460  -30.4650 N   0  0  0  0  0  0  0  0  0  0  0  0
   -3.1200   25.2980  -29.7450 O   0  0  0  0  0  0  0  0  0  0  0  0
   -2.9190   24.0080  -29.6140 C   0  0  0  0  0  0  0  0  0  0  0  0
   -1.9160   23.5460  -28.9240 N   0  0  0  0  0  0  0  0  0  0  0  0
   -1.4250   21.9040  -28.6390 S   0  0  0  0  0  0  0  0  0  0  0  0
   -0.2840   21.9190  -27.6600 O   0  0  0  0  0  0  0  0  0  0  0  0
   -2.5590   21.1270  -28.0320 O   0  0  0  0  0  0  0  0  0  0  0  0
   -0.8550   21.1470  -30.1240 C   0  0  0  0  0  0  0  0  0  0  0  0
   -1.0650   21.7690  -31.3600 C   0  0  0  0  0  0  0  0  0  0  0  0
   -0.6210   21.1620  -32.5390 C   0  0  0  0  0  0  0  0  0  0  0  0
    0.0470   19.9220  -32.4940 C   0  0  0  0  0  0  0  0  0  0  0  0
    0.5150   19.2690  -33.6890 N   0  0  0  0  0  0  0  0  0  0  0  0
    0.2880   19.7980  -35.0350 C   0  0  0  0  0  0  0  0  0  0  0  0
    1.2910   20.8780  -35.3580 C   0  0  0  0  0  0  0  0  0  0  0  0
    0.9010   21.9860  -36.1290 C   0  0  0  0  0  0  0  0  0  0  0  0
    1.8280   22.9780  -36.4610 C   0  0  0  0  0  0  0  0  0  0  0  0
    1.4320   24.0740  -37.2170 O   0  0  0  0  0  0  0  0  0  0  0  0
    3.1540   22.8660  -36.0350 C   0  0  0  0  0  0  0  0  0  0  0  0
    3.5570   21.7610  -35.2820 C   0  0  0  0  0  0  0  0  0  0  0  0
    2.6320   20.7610  -34.9460 C   0  0  0  0  0  0  0  0  0  0  0  0
    3.0450   19.6510  -34.2080 O   0  0  0  0  0  0  0  0  0  0  0  0
    0.2610   19.3100  -31.2480 C   0  0  0  0  0  0  0  0  0  0  0  0
   -0.1840   19.9190  -30.0720 C   0  0  0  0  0  0  0  0  0  0  0  0
   -3.9200   23.3280  -30.3130 C   0  0  0  0  0  0  0  0  0  0  0  0
   -4.2290   21.8640  -30.4240 C   0  0  0  0  0  0  0  0  0  0  0  0
   -6.8060   24.1261  -30.9808 H   0  0  0  0  0  0  0  0  0  0  0  0
   -6.0565   25.1123  -32.2817 H   0  0  0  0  0  0  0  0  0  0  0  0
   -5.8598   23.3268  -32.2817 H   0  0  0  0  0  0  0  0  0  0  0  0
   -1.5814   22.7393  -31.4043 H   0  0  0  0  0  0  0  0  0  0  0  0
   -0.7941   21.6552  -33.5069 H   0  0  0  0  0  0  0  0  0  0  0  0
    1.0410   18.3700  -33.5830 H   0  0  0  0  0  0  0  0  0  0  0  0
    0.3879   18.9818  -35.7657 H   0  0  0  0  0  0  0  0  0  0  0  0
   -0.7233   20.2284  -35.0807 H   0  0  0  0  0  0  0  0  0  0  0  0
   -0.1401   22.0733  -36.4734 H   0  0  0  0  0  0  0  0  0  0  0  0
    3.8817   23.6495  -36.2931 H   0  0  0  0  0  0  0  0  0  0  0  0
    4.6026   21.6744  -34.9514 H   0  0  0  0  0  0  0  0  0  0  0  0
    3.6810   19.7400  -33.4250 H   0  0  0  0  0  0  0  0  0  0  0  0
    0.7833   18.3432  -31.1977 H   0  0  0  0  0  0  0  0  0  0  0  0
   -0.0066   19.4321  -29.1017 H   0  0  0  0  0  0  0  0  0  0  0  0
   -4.3204   21.4312  -29.4169 H   0  0  0  0  0  0  0  0  0  0  0  0
   -5.1754   21.7292  -30.9683 H   0  0  0  0  0  0  0  0  0  0  0  0
   -3.4178   21.3583  -30.9683 H   0  0  0  0  0  0  0  0  0  0  0  0
  1  2  1  0
  2  3  1  0
  3  4  1  0
  4  5  1  0
  5  6  2  3
  6  7  1  0
  7  8  2  0
  7  9  2  0
  7 10  1  0
 10 11  2  0
 11 12  1  0
 12 13  2  0
 13 14  1  0
 14 15  1  0
 15 16  1  0
 16 17  2  0
 17 18  1  0
 18 19  1  0
 18 20  2  0
 20 21  1  0
 21 22  2  0
 22 23  1  0
 13 24  1  0
 24 25  2  0
  5 26  1  0
 26 27  1  0
 26  2  2  0
 25 10  1  0
 22 16  1  0
  1 28  1  0
  1 29  1  0
  1 30  1  0
 11 31  1  0
 12 32  1  0
 14 33  1  0
 15 34  1  0
 15 35  1  0
 17 36  1  0
 20 37  1  0
 21 38  1  0
 23 39  1  0
 24 40  1  0
 25 41  1  0
 27 42  1  0
 27 43  1  0
 27 44  1  0
M  CHG  2   3  -1  19  -1
M  END
>  <UniqueID>  (40) 
38

>  <SMILES>  (40) 
Cc1[n-]oc(=NS(=O)(=O)c2ccc(NCc3cc([O-])ccc3O)cc2)c1C

>  <Energy>  (40) 
85.36920105572025

>  <Genealogy>  (40) 
Cc1[n-]oc(=NS(=O)(=O)c2ccc(NCc3cc([O-])ccc3O)cc2)c1C (protonated)
Cc1[n-]oc(=NS(=O)(=O)c2ccc(NCc3cc([O-])ccc3O)cc2)c1C (3D coordinates assigned)
Cc1[n-]oc(=NS(=O)(=O)c2ccc(NCc3cc([O-])ccc3O)cc2)c1C (optimized conformer: 85.36920105572025 kcal/mol)

>  <smiles>  (40) 
Cc1[nH]oc(=NS(=O)(=O)c2ccc(NCc3cc(O)ccc3O)cc2)c1C

>  <score_type>  (40) 
oracle

>  <origin>  (40) 
adgpu

>  <m_score__min__energy>  (40) 
-11.48

>  <m_primary>  (40) 
energy

$$$$
40:0
     RDKit          3D

 51 53  0  0  0  0  0  0  0  0999 V2000
   -2.4260   13.8600  -32.4020 C   0  0  0  0  0  0  0  0  0  0  0  0
   -4.1980   13.9580  -32.2900 S   0  0  0  0  0  0  0  0  0  0  0  0
   -4.8160   12.8140  -33.0420 O   0  0  0  0  0  0  0  0  0  0  0  0
   -4.6150   13.8700  -30.8480 O   0  0  0  0  0  0  0  0  0  0  0  0
   -4.7410   15.4840  -32.9800 C   0  0  0  0  0  0  0  0  0  0  0  0
   -5.9960   15.5750  -33.5970 C   0  0  0  0  0  0  0  0  0  0  0  0
   -6.4340   16.7940  -34.1230 C   0  0  0  0  0  0  0  0  0  0  0  0
   -5.6290   17.9410  -34.0220 C   0  0  0  0  0  0  0  0  0  0  0  0
   -6.1050   19.2550  -34.5860 C   0  0  0  0  0  0  0  0  0  0  0  0
   -6.8640   20.0100  -33.5870 N   0  0  0  0  0  0  0  0  0  0  0  0
   -6.3060   21.0340  -32.7400 C   0  0  0  0  0  0  0  0  0  0  0  0
   -7.1570   21.9910  -32.1740 C   0  0  0  0  0  0  0  0  0  0  0  0
   -6.6520   22.9890  -31.3390 C   0  0  0  0  0  0  0  0  0  0  0  0
   -5.2800   23.0540  -31.0540 C   0  0  0  0  0  0  0  0  0  0  0  0
   -4.6760   24.3470  -30.0100 S   0  0  0  0  0  0  0  0  0  0  0  0
   -6.0120   25.1800  -29.2950 N   0  0  0  0  0  0  0  0  0  0  0  0
   -3.8560   25.3210  -30.8100 O   0  0  0  0  0  0  0  0  0  0  0  0
   -3.8090   23.7620  -28.9310 O   0  0  0  0  0  0  0  0  0  0  0  0
   -4.4070   22.0990  -31.6190 C   0  0  0  0  0  0  0  0  0  0  0  0
   -3.0060   22.0990  -31.2910 N   0  0  0  0  0  0  0  0  0  0  0  0
   -2.0400   21.2210  -31.8970 C   0  0  0  0  0  0  0  0  0  0  0  0
   -1.8610   21.2450  -33.2890 C   0  0  0  0  0  0  0  0  0  0  0  0
   -0.9330   20.3940  -33.8980 C   0  0  0  0  0  0  0  0  0  0  0  0
   -0.1830   19.5020  -33.1220 C   0  0  0  0  0  0  0  0  0  0  0  0
    0.7720   18.6270  -33.7500 C   0  0  0  0  0  0  0  0  0  0  0  0
    1.5410   17.9240  -34.2540 N   0  0  0  0  0  0  0  0  0  0  0  0
   -0.3710   19.4580  -31.7350 C   0  0  0  0  0  0  0  0  0  0  0  0
   -1.2990   20.3080  -31.1260 C   0  0  0  0  0  0  0  0  0  0  0  0
   -4.9300   21.0960  -32.4550 C   0  0  0  0  0  0  0  0  0  0  0  0
   -4.3660   17.8420  -33.4150 C   0  0  0  0  0  0  0  0  0  0  0  0
   -3.9300   16.6230  -32.8900 C   0  0  0  0  0  0  0  0  0  0  0  0
   -1.9954   13.8362  -31.3901 H   0  0  0  0  0  0  0  0  0  0  0  0
   -2.1428   12.9448  -32.9426 H   0  0  0  0  0  0  0  0  0  0  0  0
   -2.0436   14.7384  -32.9426 H   0  0  0  0  0  0  0  0  0  0  0  0
   -6.6383   14.6848  -33.6676 H   0  0  0  0  0  0  0  0  0  0  0  0
   -7.4141   16.8554  -34.6186 H   0  0  0  0  0  0  0  0  0  0  0  0
   -5.2337   19.8485  -34.9000 H   0  0  0  0  0  0  0  0  0  0  0  0
   -6.7616   19.0509  -35.4446 H   0  0  0  0  0  0  0  0  0  0  0  0
   -7.8810   19.7860  -33.4930 H   0  0  0  0  0  0  0  0  0  0  0  0
   -8.2351   21.9560  -32.3897 H   0  0  0  0  0  0  0  0  0  0  0  0
   -7.3357   23.7309  -30.9007 H   0  0  0  0  0  0  0  0  0  0  0  0
   -6.3500   24.5910  -28.5000 H   0  0  0  0  0  0  0  0  0  0  0  0
   -5.6350   26.0610  -28.8780 H   0  0  0  0  0  0  0  0  0  0  0  0
   -2.6800   22.7200  -30.5160 H   0  0  0  0  0  0  0  0  0  0  0  0
   -2.4541   21.9373  -33.9046 H   0  0  0  0  0  0  0  0  0  0  0  0
   -0.7922   20.4256  -34.9885 H   0  0  0  0  0  0  0  0  0  0  0  0
    0.2123   18.7536  -31.1238 H   0  0  0  0  0  0  0  0  0  0  0  0
   -1.4503   20.2623  -30.0374 H   0  0  0  0  0  0  0  0  0  0  0  0
   -4.2523   20.3483  -32.8928 H   0  0  0  0  0  0  0  0  0  0  0  0
   -3.7174   18.7283  -33.3528 H   0  0  0  0  0  0  0  0  0  0  0  0
   -2.9455   16.5571  -32.4037 H   0  0  0  0  0  0  0  0  0  0  0  0
  1  2  1  0
  2  3  2  0
  2  4  2  0
  2  5  1  0
  5  6  2  0
  6  7  1  0
  7  8  2  0
  8  9  1  0
  9 10  1  0
 10 11  1  0
 11 12  2  0
 12 13  1  0
 13 14  2  0
 14 15  1  0
 15 16  1  0
 15 17  2  0
 15 18  2  0
 14 19  1  0
 19 20  1  0
 20 21  1  0
 21 22  2  0
 22 23  1  0
 23 24  2  0
 24 25  1  0
 25 26  3  0
 24 27  1  0
 27 28  2  0
 19 29  2  0
  8 30  1  0
 30 31  2  0
 31  5  1  0
 29 11  1  0
 28 21  1  0
  1 32  1  0
  1 33  1  0
  1 34  1  0
  6 35  1  0
  7 36  1  0
  9 37  1  0
  9 38  1  0
 10 39  1  0
 12 40  1  0
 13 41  1  0
 16 42  1  0
 16 43  1  0
 20 44  1  0
 22 45  1  0
 23 46  1  0
 27 47  1  0
 28 48  1  0
 29 49  1  0
 30 50  1  0
 31 51  1  0
M  END
>  <UniqueID>  (41) 
39

>  <SMILES>  (41) 
CS(=O)(=O)c1ccc(CNc2ccc(S(N)(=O)=O)c(Nc3ccc(C#N)cc3)c2)cc1

>  <Energy>  (41) 
53.46025476971472

>  <Genealogy>  (41) 
CS(=O)(=O)c1ccc(CNc2ccc(S(N)(=O)=O)c(Nc3ccc(C#N)cc3)c2)cc1 (3D coordinates assigned)
CS(=O)(=O)c1ccc(CNc2ccc(S(N)(=O)=O)c(Nc3ccc(C#N)cc3)c2)cc1 (optimized conformer: 53.46025476971472 kcal/mol)

>  <smiles>  (41) 
CS(=O)(=O)c1ccc(CNc2ccc(S(N)(=O)=O)c(Nc3ccc(C#N)cc3)c2)cc1

>  <score_type>  (41) 
oracle

>  <origin>  (41) 
adgpu

>  <m_score__min__energy>  (41) 
-10.24

>  <m_primary>  (41) 
energy

$$$$
41:0
     RDKit          3D

 44 47  0  0  0  0  0  0  0  0999 V2000
   -6.4433   15.1591  -34.7297 H   0  0  0  0  0  0  0  0  0  0  0  0
   -5.8720   16.0090  -34.3280 C   0  0  0  0  0  0  0  0  0  0  0  0
   -4.6090   15.8200  -33.8760 N   0  0  0  0  0  0  0  0  0  0  0  0
   -3.8500   16.8480  -33.4180 C   0  0  0  0  0  0  0  0  0  0  0  0
   -2.5300   16.5960  -33.0270 C   0  0  0  0  0  0  0  0  0  0  0  0
   -2.1536   15.5626  -33.0058 H   0  0  0  0  0  0  0  0  0  0  0  0
   -1.6890   17.6480  -32.6640 C   0  0  0  0  0  0  0  0  0  0  0  0
   -0.0320   17.3260  -32.1910 Cl  0  0  0  0  0  0  0  0  0  0  0  0
   -2.1550   18.9620  -32.7290 C   0  0  0  0  0  0  0  0  0  0  0  0
   -1.4803   19.7945  -32.4805 H   0  0  0  0  0  0  0  0  0  0  0  0
   -3.4740   19.2260  -33.1080 C   0  0  0  0  0  0  0  0  0  0  0  0
   -3.8165   20.2679  -33.1919 H   0  0  0  0  0  0  0  0  0  0  0  0
   -4.3740   18.1710  -33.3850 C   0  0  0  0  0  0  0  0  0  0  0  0
   -5.7480   18.3590  -33.7410 C   0  0  0  0  0  0  0  0  0  0  0  0
   -6.4330   19.4590  -33.5610 N   0  0  0  0  0  0  0  0  0  0  0  0
   -6.1350   20.6110  -32.7620 C   0  0  0  0  0  0  0  0  0  0  0  0
   -6.8650   20.8420  -31.5910 C   0  0  0  0  0  0  0  0  0  0  0  0
   -7.6867   20.1645  -31.3156 H   0  0  0  0  0  0  0  0  0  0  0  0
   -6.5550   21.9300  -30.7690 C   0  0  0  0  0  0  0  0  0  0  0  0
   -7.1482   22.1192  -29.8622 H   0  0  0  0  0  0  0  0  0  0  0  0
   -5.4900   22.7800  -31.0980 C   0  0  0  0  0  0  0  0  0  0  0  0
   -5.1020   24.1460  -30.0570 S   0  0  0  0  0  0  0  0  0  0  0  0
   -6.3590   24.6180  -29.3810 O   0  0  0  0  0  0  0  0  0  0  0  0
   -4.5210   25.2750  -30.8620 O   0  0  0  0  0  0  0  0  0  0  0  0
   -3.9530   23.6640  -28.8540 N   0  0  0  0  0  0  0  0  0  0  0  0
   -2.8190   24.2710  -28.6940 C   0  0  0  0  0  0  0  0  0  0  0  0
   -2.4120   25.2970  -29.4040 O   0  0  0  0  0  0  0  0  0  0  0  0
   -1.2220   25.6730  -29.0290 N   0  0  0  0  0  0  0  0  0  0  0  0
   -0.8430   24.8470  -28.0310 C   0  0  0  0  0  0  0  0  0  0  0  0
    0.4750   24.9310  -27.3340 C   0  0  0  0  0  0  0  0  0  0  0  0
    0.3155   24.9208  -26.2457 H   0  0  0  0  0  0  0  0  0  0  0  0
    1.0973   24.0707  -27.6215 H   0  0  0  0  0  0  0  0  0  0  0  0
    0.9830   25.8633  -27.6215 H   0  0  0  0  0  0  0  0  0  0  0  0
   -1.8550   23.9390  -27.7710 C   0  0  0  0  0  0  0  0  0  0  0  0
   -1.8420   22.7840  -26.8200 C   0  0  0  0  0  0  0  0  0  0  0  0
   -1.8462   23.1601  -25.7863 H   0  0  0  0  0  0  0  0  0  0  0  0
   -2.7332   22.1613  -26.9873 H   0  0  0  0  0  0  0  0  0  0  0  0
   -0.9370   22.1815  -26.9873 H   0  0  0  0  0  0  0  0  0  0  0  0
   -4.7360   22.5310  -32.2540 C   0  0  0  0  0  0  0  0  0  0  0  0
   -3.8984   23.1939  -32.5166 H   0  0  0  0  0  0  0  0  0  0  0  0
   -5.0470   21.4420  -33.0730 C   0  0  0  0  0  0  0  0  0  0  0  0
   -4.4370   21.2352  -33.9647 H   0  0  0  0  0  0  0  0  0  0  0  0
   -6.4490   17.2740  -34.2860 C   0  0  0  0  0  0  0  0  0  0  0  0
   -7.4635   17.4243  -34.6836 H   0  0  0  0  0  0  0  0  0  0  0  0
  1  2  1  0
  2  3  1  0
  3  4  1  0
  4  5  2  0
  5  6  1  0
  5  7  1  0
  7  8  1  0
  7  9  2  0
  9 10  1  0
  9 11  1  0
 11 12  1  0
 11 13  2  0
 13 14  1  0
 14 15  2  3
 15 16  1  0
 16 17  2  0
 17 18  1  0
 17 19  1  0
 19 20  1  0
 19 21  2  0
 21 22  1  0
 22 23  2  0
 22 24  2  0
 22 25  1  0
 25 26  2  0
 26 27  1  0
 27 28  1  0
 28 29  1  0
 29 30  1  0
 30 31  1  0
 30 32  1  0
 30 33  1  0
 29 34  2  0
 34 35  1  0
 35 36  1  0
 35 37  1  0
 35 38  1  0
 21 39  1  0
 39 40  1  0
 39 41  2  0
 41 42  1  0
 14 43  1  0
 43 44  1  0
 43  2  2  0
 13  4  1  0
 41 16  1  0
 34 26  1  0
M  CHG  2   3  -1  28  -1
M  END
>  <UniqueID>  (42) 
40

>  <SMILES>  (42) 
Cc1[n-]o/c(=N\S(=O)(=O)c2ccc(N=c3cc[n-]c4cc(Cl)ccc34)cc2)c1C

>  <Energy>  (42) 
104.0370507511405

>  <Genealogy>  (42) 
Cc1[n-]oc(=NS(=O)(=O)c2ccc(N=c3cc[n-]c4cc(Cl)ccc34)cc2)c1C (protonated)
Cc1[n-]o/c(=N\S(=O)(=O)c2ccc(N=c3cc[n-]c4cc(Cl)ccc34)cc2)c1C (cis-trans isomerization)
Cc1[n-]o/c(=N\S(=O)(=O)c2ccc(N=c3cc[n-]c4cc(Cl)ccc34)cc2)c1C (3D coordinates assigned)
Cc1[n-]o/c(=N\S(=O)(=O)c2ccc(N=c3cc[n-]c4cc(Cl)ccc34)cc2)c1C (optimized conformer: 104.0370507511405 kcal/mol)

>  <smiles>  (42) 
Cc1[nH]oc(=NS(=O)(=O)c2ccc(N=c3cc[nH]c4cc(Cl)ccc34)cc2)c1C

>  <score_type>  (42) 
oracle

>  <origin>  (42) 
adgpu

>  <m_score__min__energy>  (42) 
-12.24

>  <m_primary>  (42) 
energy

$$$$
42:0
     RDKit          3D

 55 57  0  0  0  0  0  0  0  0999 V2000
   -2.2930   21.4410  -32.6190 C   0  0  0  0  0  0  0  0  0  0  0  0
   -3.6560   20.9950  -33.1500 C   0  0  0  0  0  0  0  0  0  0  0  0
   -4.8110   21.4360  -32.2300 C   0  0  1  0  0  0  0  0  0  0  0  0
   -5.2050   22.8120  -32.5450 N   0  0  0  0  0  0  0  0  0  0  0  0
   -5.5720   23.7410  -31.5230 C   0  0  0  0  0  0  0  0  0  0  0  0
   -4.9220   24.5810  -30.6250 C   0  0  0  0  0  0  0  0  0  0  0  0
   -3.5720   24.8790  -30.2490 N   0  0  0  0  0  0  0  0  0  0  0  0
   -2.7930   24.0890  -29.3410 C   0  0  0  0  0  0  0  0  0  0  0  0
   -3.2090   22.7780  -29.0750 C   0  0  0  0  0  0  0  0  0  0  0  0
   -2.4890   21.9700  -28.1960 C   0  0  0  0  0  0  0  0  0  0  0  0
   -1.3390   22.4550  -27.5820 C   0  0  0  0  0  0  0  0  0  0  0  0
   -0.8860   23.7550  -27.8490 C   0  0  0  0  0  0  0  0  0  0  0  0
    0.3270   24.2550  -27.1660 C   0  0  0  0  0  0  0  0  0  0  0  0
    1.2520   24.7620  -27.8580 O   0  0  0  0  0  0  0  0  0  0  0  0
    0.4590   24.1920  -25.7320 N   0  0  0  0  0  0  0  0  0  0  0  0
    1.3270   25.1570  -25.0520 C   0  0  0  0  0  0  0  0  0  0  0  0
   -0.1340   23.0790  -24.9840 C   0  0  0  0  0  0  0  0  0  0  0  0
   -1.6010   24.5740  -28.7480 C   0  0  0  0  0  0  0  0  0  0  0  0
   -1.0830   25.8290  -29.0730 O   0  0  0  0  0  0  0  0  0  0  0  0
   -6.1450   25.0410  -30.1820 C   0  0  0  0  0  0  0  0  0  0  0  0
   -6.5180   25.8940  -29.3350 O   0  0  0  0  0  0  0  0  0  0  0  0
   -6.7880   24.1660  -31.0280 C   0  0  0  0  0  0  0  0  0  0  0  0
   -7.9890   23.8840  -31.2700 O   0  0  0  0  0  0  0  0  0  0  0  0
   -6.0080   20.5090  -32.3480 C   0  0  0  0  0  0  0  0  0  0  0  0
   -7.2970   20.9380  -31.9770 C   0  0  0  0  0  0  0  0  0  0  0  0
   -8.3850   20.0660  -32.0690 C   0  0  0  0  0  0  0  0  0  0  0  0
   -8.2060   18.7630  -32.5400 C   0  0  0  0  0  0  0  0  0  0  0  0
   -6.9370   18.3310  -32.9530 C   0  0  0  0  0  0  0  0  0  0  0  0
   -6.7420   16.9190  -33.4250 C   0  0  0  0  0  0  0  0  0  0  0  0
   -5.8440   19.2050  -32.8520 C   0  0  0  0  0  0  0  0  0  0  0  0
   -2.3085   21.4359  -31.5191 H   0  0  0  0  0  0  0  0  0  0  0  0
   -1.5158   20.7503  -32.9780 H   0  0  0  0  0  0  0  0  0  0  0  0
   -2.0744   22.4575  -32.9780 H   0  0  0  0  0  0  0  0  0  0  0  0
   -3.8092   21.4346  -34.1466 H   0  0  0  0  0  0  0  0  0  0  0  0
   -3.6589   19.8958  -33.1929 H   0  0  0  0  0  0  0  0  0  0  0  0
   -4.4519   21.3866  -31.1914 H   0  0  0  0  0  0  0  0  0  0  0  0
   -4.8450   23.2380  -33.4290 H   0  0  0  0  0  0  0  0  0  0  0  0
   -3.1030   25.6730  -30.7420 H   0  0  0  0  0  0  0  0  0  0  0  0
   -4.1116   22.3826  -29.5639 H   0  0  0  0  0  0  0  0  0  0  0  0
   -2.8315   20.9457  -27.9874 H   0  0  0  0  0  0  0  0  0  0  0  0
   -0.7814   21.8148  -26.8826 H   0  0  0  0  0  0  0  0  0  0  0  0
    1.2223   25.0406  -23.9632 H   0  0  0  0  0  0  0  0  0  0  0  0
    2.3729   24.9768  -25.3412 H   0  0  0  0  0  0  0  0  0  0  0  0
    1.0374   26.1780  -25.3412 H   0  0  0  0  0  0  0  0  0  0  0  0
   -0.0335   23.2676  -23.9050 H   0  0  0  0  0  0  0  0  0  0  0  0
   -1.1993   22.9895  -25.2429 H   0  0  0  0  0  0  0  0  0  0  0  0
    0.3860   22.1449  -25.2429 H   0  0  0  0  0  0  0  0  0  0  0  0
   -0.1060   26.0680  -28.9690 H   0  0  0  0  0  0  0  0  0  0  0  0
   -7.4482   21.9649  -31.6129 H   0  0  0  0  0  0  0  0  0  0  0  0
   -9.3869   20.4070  -31.7692 H   0  0  0  0  0  0  0  0  0  0  0  0
   -9.0623   18.0741  -32.5871 H   0  0  0  0  0  0  0  0  0  0  0  0
   -6.6498   16.2513  -32.5557 H   0  0  0  0  0  0  0  0  0  0  0  0
   -7.6064   16.6128  -34.0325 H   0  0  0  0  0  0  0  0  0  0  0  0
   -5.8270   16.8585  -34.0325 H   0  0  0  0  0  0  0  0  0  0  0  0
   -4.8468   18.8670  -33.1706 H   0  0  0  0  0  0  0  0  0  0  0  0
  1  2  1  0
  2  3  1  0
  3  4  1  0
  4  5  1  0
  5  6  2  0
  6  7  1  0
  7  8  1  0
  8  9  2  0
  9 10  1  0
 10 11  2  0
 11 12  1  0
 12 13  1  0
 13 14  2  0
 13 15  1  0
 15 16  1  0
 15 17  1  0
 12 18  2  0
 18 19  1  0
  6 20  1  0
 20 21  2  0
 20 22  1  0
 22 23  2  0
  3 24  1  0
 24 25  2  0
 25 26  1  0
 26 27  2  0
 27 28  1  0
 28 29  1  0
 28 30  2  0
 22  5  1  0
 30 24  1  0
 18  8  1  0
  1 31  1  0
  1 32  1  0
  1 33  1  0
  2 34  1  0
  2 35  1  0
  3 36  1  1
  4 37  1  0
  7 38  1  0
  9 39  1  0
 10 40  1  0
 11 41  1  0
 16 42  1  0
 16 43  1  0
 16 44  1  0
 17 45  1  0
 17 46  1  0
 17 47  1  0
 19 48  1  0
 25 49  1  0
 26 50  1  0
 27 51  1  0
 29 52  1  0
 29 53  1  0
 29 54  1  0
 30 55  1  0
M  END
>  <UniqueID>  (43) 
41

>  <SMILES>  (43) 
CC[C@@H](Nc1c(Nc2cccc(C(=O)N(C)C)c2O)c(=O)c1=O)c1cccc(C)c1

>  <Energy>  (43) 
50.515018235297134

>  <Genealogy>  (43) 
CC[C@@H](Nc1c(Nc2cccc(C(=O)N(C)C)c2O)c(=O)c1=O)c1cccc(C)c1 (chirality)
CC[C@@H](Nc1c(Nc2cccc(C(=O)N(C)C)c2O)c(=O)c1=O)c1cccc(C)c1 (3D coordinates assigned)
CC[C@@H](Nc1c(Nc2cccc(C(=O)N(C)C)c2O)c(=O)c1=O)c1cccc(C)c1 (optimized conformer: 50.515018235297134 kcal/mol)

>  <smiles>  (43) 
CCC(Nc1c(Nc2cccc(C(=O)N(C)C)c2O)c(=O)c1=O)c1cccc(C)c1

>  <score_type>  (43) 
oracle

>  <origin>  (43) 
adgpu

>  <m_score__min__energy>  (43) 
-11.050000000000001

>  <m_primary>  (43) 
energy

$$$$
43:0
     RDKit          3D

 60 63  0  0  0  0  0  0  0  0999 V2000
   -5.5350   24.1980  -29.0190 O   0  0  0  0  0  0  0  0  0  0  0  0
   -5.0680   24.4880  -30.4160 S   0  0  0  0  0  0  0  0  0  0  0  0
   -5.8710   25.6340  -30.9630 O   0  0  0  0  0  0  0  0  0  0  0  0
   -3.3990   24.9440  -30.3730 N   0  0  0  0  0  0  0  0  0  0  0  0
   -2.4870   24.3490  -29.4510 C   0  0  0  0  0  0  0  0  0  0  0  0
   -2.6650   23.0200  -29.0350 C   0  0  0  0  0  0  0  0  0  0  0  0
   -1.7590   22.4360  -28.1390 C   0  0  0  0  0  0  0  0  0  0  0  0
   -1.9710   20.7620  -27.6140 S   0  0  0  0  0  0  0  0  0  0  0  0
   -3.3160   20.2610  -28.0680 O   0  0  0  0  0  0  0  0  0  0  0  0
   -1.9410   20.7110  -26.1100 O   0  0  0  0  0  0  0  0  0  0  0  0
   -0.7150   19.7250  -28.2440 N   0  0  0  0  0  0  0  0  0  0  0  0
    0.5880   20.4260  -28.2210 C   0  0  0  0  0  0  0  0  0  0  0  0
    1.7670   19.4780  -28.5420 C   0  0  0  0  0  0  0  0  0  0  0  0
    1.2870   18.1360  -29.1050 C   0  0  0  0  0  0  0  0  0  0  0  0
    0.2800   17.4600  -28.1580 C   0  0  0  0  0  0  0  0  0  0  0  0
   -0.6460   18.4770  -27.4620 C   0  0  0  0  0  0  0  0  0  0  0  0
   -0.6750   23.1890  -27.6590 C   0  0  0  0  0  0  0  0  0  0  0  0
   -0.5050   24.5180  -28.0620 C   0  0  0  0  0  0  0  0  0  0  0  0
   -1.4120   25.1000  -28.9510 C   0  0  0  0  0  0  0  0  0  0  0  0
   -1.2360   26.4230  -29.3440 O   0  0  0  0  0  0  0  0  0  0  0  0
   -5.2950   23.0490  -31.4040 C   0  0  0  0  0  0  0  0  0  0  0  0
   -6.5830   22.5960  -31.7180 C   0  0  0  0  0  0  0  0  0  0  0  0
   -6.7520   21.4460  -32.4960 C   0  0  0  0  0  0  0  0  0  0  0  0
   -5.6390   20.7470  -32.9640 C   0  0  0  0  0  0  0  0  0  0  0  0
   -4.3470   21.1890  -32.6460 C   0  0  0  0  0  0  0  0  0  0  0  0
   -2.9280   20.3020  -33.1980 S   0  0  0  0  0  0  0  0  0  0  0  0
   -2.0790   21.1920  -34.0670 O   0  0  0  0  0  0  0  0  0  0  0  0
   -3.3970   19.1300  -34.0180 O   0  0  0  0  0  0  0  0  0  0  0  0
   -2.0130   19.7410  -31.8090 N   0  0  0  0  0  0  0  0  0  0  0  0
   -1.3140   20.8490  -31.1190 C   0  0  0  0  0  0  0  0  0  0  0  0
    0.1680   20.9670  -31.5250 C   0  0  0  0  0  0  0  0  0  0  0  0
    0.3460   20.5450  -32.8600 O   0  0  0  0  0  0  0  0  0  0  0  0
    0.1340   19.1450  -32.9640 C   0  0  0  0  0  0  0  0  0  0  0  0
   -1.0970   18.6450  -32.1700 C   0  0  0  0  0  0  0  0  0  0  0  0
   -4.1800   22.3420  -31.8690 C   0  0  0  0  0  0  0  0  0  0  0  0
   -3.5171   22.4359  -29.4129 H   0  0  0  0  0  0  0  0  0  0  0  0
    0.5691   21.2334  -28.9678 H   0  0  0  0  0  0  0  0  0  0  0  0
    0.7402   20.8227  -27.2064 H   0  0  0  0  0  0  0  0  0  0  0  0
    2.4197   19.9614  -29.2838 H   0  0  0  0  0  0  0  0  0  0  0  0
    2.3085   19.2796  -27.6053 H   0  0  0  0  0  0  0  0  0  0  0  0
    0.8038   18.3080  -30.0781 H   0  0  0  0  0  0  0  0  0  0  0  0
    2.1586   17.4740  -29.2146 H   0  0  0  0  0  0  0  0  0  0  0  0
   -0.3378   16.7605  -28.7402 H   0  0  0  0  0  0  0  0  0  0  0  0
    0.8523   16.9381  -27.3769 H   0  0  0  0  0  0  0  0  0  0  0  0
   -1.6550   18.0479  -27.3737 H   0  0  0  0  0  0  0  0  0  0  0  0
   -0.2436   18.7023  -26.4634 H   0  0  0  0  0  0  0  0  0  0  0  0
    0.0437   22.7318  -26.9630 H   0  0  0  0  0  0  0  0  0  0  0  0
    0.3429   25.1047  -27.6788 H   0  0  0  0  0  0  0  0  0  0  0  0
   -7.4628   23.1456  -31.3521 H   0  0  0  0  0  0  0  0  0  0  0  0
   -7.7646   21.0920  -32.7394 H   0  0  0  0  0  0  0  0  0  0  0  0
   -5.7753   19.8481  -33.5832 H   0  0  0  0  0  0  0  0  0  0  0  0
   -1.8221   21.7928  -31.3663 H   0  0  0  0  0  0  0  0  0  0  0  0
   -1.3453   20.6384  -30.0398 H   0  0  0  0  0  0  0  0  0  0  0  0
    0.4877   22.0152  -31.4302 H   0  0  0  0  0  0  0  0  0  0  0  0
    0.7717   20.3273  -30.8644 H   0  0  0  0  0  0  0  0  0  0  0  0
   -0.0104   18.8928  -34.0249 H   0  0  0  0  0  0  0  0  0  0  0  0
    1.0180   18.6516  -32.5338 H   0  0  0  0  0  0  0  0  0  0  0  0
   -1.6433   17.9161  -32.7866 H   0  0  0  0  0  0  0  0  0  0  0  0
   -0.7332   18.1897  -31.2371 H   0  0  0  0  0  0  0  0  0  0  0  0
   -3.1673   22.6939  -31.6228 H   0  0  0  0  0  0  0  0  0  0  0  0
  1  2  2  0
  2  3  2  0
  2  4  1  0
  4  5  1  0
  5  6  2  0
  6  7  1  0
  7  8  1  0
  8  9  2  0
  8 10  2  0
  8 11  1  0
 11 12  1  0
 12 13  1  0
 13 14  1  0
 14 15  1  0
 15 16  1  0
  7 17  2  0
 17 18  1  0
 18 19  2  0
 19 20  1  0
  2 21  1  0
 21 22  2  0
 22 23  1  0
 23 24  2  0
 24 25  1  0
 25 26  1  0
 26 27  2  0
 26 28  2  0
 26 29  1  0
 29 30  1  0
 30 31  1  0
 31 32  1  0
 32 33  1  0
 33 34  1  0
 25 35  2  0
 19  5  1  0
 35 21  1  0
 16 11  1  0
 34 29  1  0
  6 36  1  0
 12 37  1  0
 12 38  1  0
 13 39  1  0
 13 40  1  0
 14 41  1  0
 14 42  1  0
 15 43  1  0
 15 44  1  0
 16 45  1  0
 16 46  1  0
 17 47  1  0
 18 48  1  0
 22 49  1  0
 23 50  1  0
 24 51  1  0
 30 52  1  0
 30 53  1  0
 31 54  1  0
 31 55  1  0
 33 56  1  0
 33 57  1  0
 34 58  1  0
 34 59  1  0
 35 60  1  0
M  CHG  2   4  -1  20  -1
M  END
>  <UniqueID>  (44) 
42

>  <SMILES>  (44) 
O=S(=O)([N-]c1cc(S(=O)(=O)N2CCCCC2)ccc1[O-])c1cccc(S(=O)(=O)N2CCOCC2)c1

>  <Energy>  (44) 
79.74213485162213

>  <Genealogy>  (44) 
O=S(=O)([N-]c1cc(S(=O)(=O)N2CCCCC2)ccc1[O-])c1cccc(S(=O)(=O)N2CCOCC2)c1 (protonated)
O=S(=O)([N-]c1cc(S(=O)(=O)N2CCCCC2)ccc1[O-])c1cccc(S(=O)(=O)N2CCOCC2)c1 (3D coordinates assigned)
O=S(=O)([N-]c1cc(S(=O)(=O)N2CCCCC2)ccc1[O-])c1cccc(S(=O)(=O)N2CCOCC2)c1 (nonaromatic ring conformer: 79.74213485162213 kcal/mol)

>  <smiles>  (44) 
O=S(=O)(Nc1cc(S(=O)(=O)N2CCCCC2)ccc1O)c1cccc(S(=O)(=O)N2CCOCC2)c1

>  <score_type>  (44) 
oracle

>  <origin>  (44) 
adgpu

>  <m_score__min__energy>  (44) 
-15.25

>  <m_primary>  (44) 
energy

$$$$
44:0
     RDKit          3D

 66 69  0  0  0  0  0  0  0  0999 V2000
    0.1850   21.7710  -34.9360 C   0  0  0  0  0  0  0  0  0  0  0  0
    0.0470   20.9130  -33.8070 O   0  0  0  0  0  0  0  0  0  0  0  0
   -0.8910   19.8740  -33.7100 C   0  0  0  0  0  0  0  0  0  0  0  0
   -0.6700   18.6100  -34.2910 C   0  0  0  0  0  0  0  0  0  0  0  0
   -1.6300   17.6020  -34.1780 C   0  0  0  0  0  0  0  0  0  0  0  0
   -2.8220   17.8400  -33.4840 C   0  0  0  0  0  0  0  0  0  0  0  0
   -4.0330   16.5730  -33.3220 S   0  0  0  0  0  0  0  0  0  0  0  0
   -3.3480   15.2390  -33.4390 O   0  0  0  0  0  0  0  0  0  0  0  0
   -4.6790   16.6580  -31.9660 O   0  0  0  0  0  0  0  0  0  0  0  0
   -5.2240   16.7720  -34.5930 N   0  0  0  0  0  0  0  0  0  0  0  0
   -5.2960   18.1730  -35.0700 C   0  0  0  0  0  0  0  0  0  0  0  0
   -6.4530   18.9720  -34.4410 C   0  0  0  0  0  0  0  0  0  0  0  0
   -6.7280   18.4690  -33.0900 N   0  0  0  0  0  0  0  0  0  0  0  0
   -7.8490   19.5160  -32.2560 S   0  0  0  0  0  0  0  0  0  0  0  0
   -8.5230   18.7410  -31.1580 O   0  0  0  0  0  0  0  0  0  0  0  0
   -8.9090   19.9820  -33.2150 O   0  0  0  0  0  0  0  0  0  0  0  0
   -7.0340   20.9190  -31.5590 C   0  0  0  0  0  0  0  0  0  0  0  0
   -7.7440   21.8280  -30.7640 C   0  0  0  0  0  0  0  0  0  0  0  0
   -7.0970   22.9450  -30.2240 C   0  0  0  0  0  0  0  0  0  0  0  0
   -5.7330   23.1550  -30.4650 C   0  0  0  0  0  0  0  0  0  0  0  0
   -4.9260   24.5750  -29.8060 S   0  0  0  0  0  0  0  0  0  0  0  0
   -5.9400   25.4650  -29.1380 O   0  0  0  0  0  0  0  0  0  0  0  0
   -4.2900   25.3420  -30.9330 O   0  0  0  0  0  0  0  0  0  0  0  0
   -3.6990   24.0880  -28.6630 N   0  0  0  0  0  0  0  0  0  0  0  0
   -2.3600   24.4080  -29.1930 C   0  0  0  0  0  0  0  0  0  0  0  0
   -1.2590   23.7230  -28.3600 C   0  0  0  0  0  0  0  0  0  0  0  0
   -1.7770   23.2340  -27.1390 O   0  0  0  0  0  0  0  0  0  0  0  0
   -2.7190   22.2070  -27.3960 C   0  0  0  0  0  0  0  0  0  0  0  0
   -3.8110   22.6470  -28.3960 C   0  0  0  0  0  0  0  0  0  0  0  0
   -5.0240   22.2460  -31.2620 C   0  0  0  0  0  0  0  0  0  0  0  0
   -5.6720   21.1340  -31.8060 C   0  0  0  0  0  0  0  0  0  0  0  0
   -7.2410   17.0880  -33.1290 C   0  0  0  0  0  0  0  0  0  0  0  0
   -6.5400   16.2330  -34.2080 C   0  0  0  0  0  0  0  0  0  0  0  0
   -3.0430   19.0910  -32.8950 C   0  0  0  0  0  0  0  0  0  0  0  0
   -2.0820   20.1150  -33.0060 C   0  0  0  0  0  0  0  0  0  0  0  0
   -2.2730   21.3810  -32.4300 O   0  0  0  0  0  0  0  0  0  0  0  0
   -1.6350   21.8310  -31.2390 C   0  0  0  0  0  0  0  0  0  0  0  0
    0.3510   22.8032  -34.5940 H   0  0  0  0  0  0  0  0  0  0  0  0
    1.0420   21.4435  -35.5429 H   0  0  0  0  0  0  0  0  0  0  0  0
   -0.7315   21.7287  -35.5429 H   0  0  0  0  0  0  0  0  0  0  0  0
    0.2648   18.4156  -34.8373 H   0  0  0  0  0  0  0  0  0  0  0  0
   -1.4489   16.6183  -34.6357 H   0  0  0  0  0  0  0  0  0  0  0  0
   -4.3494   18.6754  -34.8220 H   0  0  0  0  0  0  0  0  0  0  0  0
   -5.4754   18.1391  -36.1547 H   0  0  0  0  0  0  0  0  0  0  0  0
   -6.1749   20.0348  -34.3853 H   0  0  0  0  0  0  0  0  0  0  0  0
   -7.3537   18.8565  -35.0618 H   0  0  0  0  0  0  0  0  0  0  0  0
   -8.8130   21.6632  -30.5637 H   0  0  0  0  0  0  0  0  0  0  0  0
   -7.6613   23.6607  -29.6081 H   0  0  0  0  0  0  0  0  0  0  0  0
   -2.2925   24.0599  -30.2343 H   0  0  0  0  0  0  0  0  0  0  0  0
   -2.2131   25.4969  -29.1408 H   0  0  0  0  0  0  0  0  0  0  0  0
   -0.8423   22.8834  -28.9358 H   0  0  0  0  0  0  0  0  0  0  0  0
   -0.4768   24.4636  -28.1370 H   0  0  0  0  0  0  0  0  0  0  0  0
   -2.1890   21.3373  -27.8116 H   0  0  0  0  0  0  0  0  0  0  0  0
   -3.2143   21.9603  -26.4453 H   0  0  0  0  0  0  0  0  0  0  0  0
   -3.6875   22.0917  -29.3375 H   0  0  0  0  0  0  0  0  0  0  0  0
   -4.8007   22.4362  -27.9647 H   0  0  0  0  0  0  0  0  0  0  0  0
   -3.9542   22.4084  -31.4599 H   0  0  0  0  0  0  0  0  0  0  0  0
   -5.1101   20.4243  -32.4310 H   0  0  0  0  0  0  0  0  0  0  0  0
   -7.0770   16.6217  -32.1463 H   0  0  0  0  0  0  0  0  0  0  0  0
   -8.3114   17.1333  -33.3782 H   0  0  0  0  0  0  0  0  0  0  0  0
   -6.4023   15.2146  -33.8156 H   0  0  0  0  0  0  0  0  0  0  0  0
   -7.1776   16.2404  -35.1043 H   0  0  0  0  0  0  0  0  0  0  0  0
   -3.9751   19.2757  -32.3408 H   0  0  0  0  0  0  0  0  0  0  0  0
   -2.1795   21.4469  -30.3638 H   0  0  0  0  0  0  0  0  0  0  0  0
   -0.5987   21.4629  -31.2166 H   0  0  0  0  0  0  0  0  0  0  0  0
   -1.6340   22.9308  -31.2166 H   0  0  0  0  0  0  0  0  0  0  0  0
  1  2  1  0
  2  3  1  0
  3  4  2  0
  4  5  1  0
  5  6  2  0
  6  7  1  0
  7  8  2  0
  7  9  2  0
  7 10  1  0
 10 11  1  0
 11 12  1  0
 12 13  1  0
 13 14  1  0
 14 15  2  0
 14 16  2  0
 14 17  1  0
 17 18  2  0
 18 19  1  0
 19 20  2  0
 20 21  1  0
 21 22  2  0
 21 23  2  0
 21 24  1  0
 24 25  1  0
 25 26  1  0
 26 27  1  0
 27 28  1  0
 28 29  1  0
 20 30  1  0
 30 31  2  0
 13 32  1  0
 32 33  1  0
  6 34  1  0
 34 35  2  0
 35 36  1  0
 36 37  1  0
 35  3  1  0
 33 10  1  0
 31 17  1  0
 29 24  1  0
  1 38  1  0
  1 39  1  0
  1 40  1  0
  4 41  1  0
  5 42  1  0
 11 43  1  0
 11 44  1  0
 12 45  1  0
 12 46  1  0
 18 47  1  0
 19 48  1  0
 25 49  1  0
 25 50  1  0
 26 51  1  0
 26 52  1  0
 28 53  1  0
 28 54  1  0
 29 55  1  0
 29 56  1  0
 30 57  1  0
 31 58  1  0
 32 59  1  0
 32 60  1  0
 33 61  1  0
 33 62  1  0
 34 63  1  0
 37 64  1  0
 37 65  1  0
 37 66  1  0
M  END
>  <UniqueID>  (45) 
43

>  <SMILES>  (45) 
COc1ccc(S(=O)(=O)N2CCN(S(=O)(=O)c3ccc(S(=O)(=O)N4CCOCC4)cc3)CC2)cc1OC

>  <Energy>  (45) 
82.17194420522387

>  <Genealogy>  (45) 
COc1ccc(S(=O)(=O)N2CCN(S(=O)(=O)c3ccc(S(=O)(=O)N4CCOCC4)cc3)CC2)cc1OC (3D coordinates assigned)
COc1ccc(S(=O)(=O)N2CCN(S(=O)(=O)c3ccc(S(=O)(=O)N4CCOCC4)cc3)CC2)cc1OC (nonaromatic ring conformer: 82.17194420522387 kcal/mol)

>  <smiles>  (45) 
COc1ccc(S(=O)(=O)N2CCN(S(=O)(=O)c3ccc(S(=O)(=O)N4CCOCC4)cc3)CC2)cc1OC

>  <score_type>  (45) 
oracle

>  <origin>  (45) 
adgpu

>  <m_score__min__energy>  (45) 
-10.69

>  <m_primary>  (45) 
energy

$$$$
45:0
     RDKit          3D

 52 57  0  0  0  0  0  0  0  0999 V2000
   -4.2290   24.5470  -26.8870 C   0  0  0  0  0  0  0  0  0  0  0  0
   -2.8890   24.1640  -27.5110 C   0  0  0  0  0  0  0  0  0  0  0  0
   -3.0900   23.2910  -28.7350 C   0  0  0  0  0  0  0  0  0  0  0  0
   -2.9200   21.8960  -28.6660 C   0  0  0  0  0  0  0  0  0  0  0  0
   -3.0870   21.1050  -29.8060 C   0  0  0  0  0  0  0  0  0  0  0  0
   -3.4040   21.6960  -31.0360 C   0  0  0  0  0  0  0  0  0  0  0  0
   -3.6340   20.7170  -32.4840 S   0  0  0  0  0  0  0  0  0  0  0  0
   -2.7220   19.5230  -32.4270 O   0  0  0  0  0  0  0  0  0  0  0  0
   -3.2800   21.5330  -33.6970 O   0  0  0  0  0  0  0  0  0  0  0  0
   -5.2840   20.1730  -32.6300 N   0  0  0  0  0  0  0  0  0  0  0  0
   -5.5870   18.8850  -33.2080 C   0  0  0  0  0  0  0  0  0  0  0  0
   -4.8820   18.4040  -34.3250 C   0  0  0  0  0  0  0  0  0  0  0  0
   -5.3060   17.2440  -34.9820 C   0  0  0  0  0  0  0  0  0  0  0  0
   -6.4390   16.5600  -34.5360 C   0  0  0  0  0  0  0  0  0  0  0  0
   -7.1400   17.0190  -33.4180 C   0  0  0  0  0  0  0  0  0  0  0  0
   -6.7060   18.1670  -32.7450 C   0  0  0  0  0  0  0  0  0  0  0  0
   -7.5070   18.6620  -31.2180 S   0  0  0  0  0  0  0  0  0  0  0  0
   -7.5370   20.4000  -31.6600 C   0  0  0  0  0  0  0  0  0  0  0  0
   -8.6770   21.1660  -31.3970 C   0  0  0  0  0  0  0  0  0  0  0  0
   -8.6620   22.5440  -31.6290 C   0  0  0  0  0  0  0  0  0  0  0  0
   -7.5070   23.1580  -32.1200 C   0  0  0  0  0  0  0  0  0  0  0  0
   -6.3710   22.3950  -32.4050 C   0  0  0  0  0  0  0  0  0  0  0  0
   -6.3780   21.0050  -32.1870 C   0  0  0  0  0  0  0  0  0  0  0  0
   -3.5370   23.0860  -31.1170 C   0  0  0  0  0  0  0  0  0  0  0  0
   -3.3760   23.8790  -29.9790 C   0  0  0  0  0  0  0  0  0  0  0  0
   -2.0730   23.4850  -26.5390 O   0  0  0  0  0  0  0  0  0  0  0  0
   -0.9300   24.2340  -26.3300 C   0  0  0  0  0  0  0  0  0  0  0  0
    0.1420   23.9680  -25.4810 C   0  0  0  0  0  0  0  0  0  0  0  0
    1.1940   24.9030  -25.4410 C   0  0  0  0  0  0  0  0  0  0  0  0
    1.1460   26.0640  -26.2450 C   0  0  0  0  0  0  0  0  0  0  0  0
    0.0450   26.2970  -27.0920 C   0  0  0  0  0  0  0  0  0  0  0  0
   -0.9750   25.3490  -27.1030 C   0  0  0  0  0  0  0  0  0  0  0  0
   -2.1450   25.3520  -27.8370 O   0  0  0  0  0  0  0  0  0  0  0  0
   -4.1433   24.5225  -25.7906 H   0  0  0  0  0  0  0  0  0  0  0  0
   -4.5077   25.5608  -27.2104 H   0  0  0  0  0  0  0  0  0  0  0  0
   -5.0013   23.8336  -27.2104 H   0  0  0  0  0  0  0  0  0  0  0  0
   -2.6539   21.4248  -27.7083 H   0  0  0  0  0  0  0  0  0  0  0  0
   -2.9690   20.0135  -29.7372 H   0  0  0  0  0  0  0  0  0  0  0  0
   -3.9926   18.9424  -34.6842 H   0  0  0  0  0  0  0  0  0  0  0  0
   -4.7459   16.8699  -35.8516 H   0  0  0  0  0  0  0  0  0  0  0  0
   -6.7801   15.6584  -35.0658 H   0  0  0  0  0  0  0  0  0  0  0  0
   -8.0318   16.4789  -33.0672 H   0  0  0  0  0  0  0  0  0  0  0  0
   -9.5857   20.6838  -31.0074 H   0  0  0  0  0  0  0  0  0  0  0  0
   -9.5600   23.1456  -31.4249 H   0  0  0  0  0  0  0  0  0  0  0  0
   -7.4916   24.2458  -32.2829 H   0  0  0  0  0  0  0  0  0  0  0  0
   -5.4683   22.8830  -32.8011 H   0  0  0  0  0  0  0  0  0  0  0  0
   -3.7699   23.5574  -32.0832 H   0  0  0  0  0  0  0  0  0  0  0  0
   -3.4737   24.9719  -30.0568 H   0  0  0  0  0  0  0  0  0  0  0  0
    0.1658   23.0584  -24.8629 H   0  0  0  0  0  0  0  0  0  0  0  0
    2.0567   24.7289  -24.7812 H   0  0  0  0  0  0  0  0  0  0  0  0
    1.9723   26.7892  -26.2092 H   0  0  0  0  0  0  0  0  0  0  0  0
   -0.0073   27.1966  -27.7229 H   0  0  0  0  0  0  0  0  0  0  0  0
  1  2  1  0
  2  3  1  0
  3  4  2  0
  4  5  1  0
  5  6  2  0
  6  7  1  0
  7  8  2  0
  7  9  2  0
  7 10  1  0
 10 11  1  0
 11 12  2  0
 12 13  1  0
 13 14  2  0
 14 15  1  0
 15 16  2  0
 16 17  1  0
 17 18  1  0
 18 19  2  0
 19 20  1  0
 20 21  2  0
 21 22  1  0
 22 23  2  0
  6 24  1  0
 24 25  2  0
  2 26  1  0
 26 27  1  0
 27 28  2  0
 28 29  1  0
 29 30  2  0
 30 31  1  0
 31 32  2  0
 32 33  1  0
 33  2  1  0
 25  3  1  0
 32 27  1  0
 23 10  1  0
 16 11  1  0
 23 18  1  0
  1 34  1  0
  1 35  1  0
  1 36  1  0
  4 37  1  0
  5 38  1  0
 12 39  1  0
 13 40  1  0
 14 41  1  0
 15 42  1  0
 19 43  1  0
 20 44  1  0
 21 45  1  0
 22 46  1  0
 24 47  1  0
 25 48  1  0
 28 49  1  0
 29 50  1  0
 30 51  1  0
 31 52  1  0
M  END
>  <UniqueID>  (46) 
44

>  <SMILES>  (46) 
CC1(c2ccc(S(=O)(=O)N3c4ccccc4Sc4ccccc43)cc2)Oc2ccccc2O1

>  <Energy>  (46) 
105.55797790961734

>  <Genealogy>  (46) 
CC1(c2ccc(S(=O)(=O)N3c4ccccc4Sc4ccccc43)cc2)Oc2ccccc2O1 (3D coordinates assigned)
CC1(c2ccc(S(=O)(=O)N3c4ccccc4Sc4ccccc43)cc2)Oc2ccccc2O1 (nonaromatic ring conformer: 105.55797790961734 kcal/mol)

>  <smiles>  (46) 
CC1(c2ccc(S(=O)(=O)N3c4ccccc4Sc4ccccc43)cc2)Oc2ccccc2O1

>  <score_type>  (46) 
oracle

>  <origin>  (46) 
adgpu

>  <m_score__min__energy>  (46) 
-10.65

>  <m_primary>  (46) 
energy

$$$$
46:0
     RDKit          3D

 55 57  0  0  0  0  0  0  0  0999 V2000
   -1.3590   18.4870  -34.2770 C   0  0  0  0  0  0  0  0  0  0  0  0
   -0.8690   19.7220  -33.7660 O   0  0  0  0  0  0  0  0  0  0  0  0
   -1.1240   20.2050  -32.4740 C   0  0  0  0  0  0  0  0  0  0  0  0
   -1.7170   21.4620  -32.3430 C   0  0  0  0  0  0  0  0  0  0  0  0
   -1.9920   21.9890  -31.0820 C   0  0  0  0  0  0  0  0  0  0  0  0
   -1.6840   21.2640  -29.9200 C   0  0  0  0  0  0  0  0  0  0  0  0
   -2.0030   21.8660  -28.5700 C   0  0  0  0  0  0  0  0  0  0  0  0
   -1.4630   23.2280  -28.4660 N   0  0  0  0  0  0  0  0  0  0  0  0
   -2.0830   24.3940  -28.7520 C   0  0  0  0  0  0  0  0  0  0  0  0
   -3.4940   24.5490  -29.1620 C   0  0  0  0  0  0  0  0  0  0  0  0
   -4.4020   24.0690  -28.4360 O   0  0  0  0  0  0  0  0  0  0  0  0
   -3.8660   25.2260  -30.3680 N   0  0  0  0  0  0  0  0  0  0  0  0
   -5.2300   25.3460  -30.8700 C   0  0  0  0  0  0  0  0  0  0  0  0
   -5.7400   23.9860  -31.2460 C   0  0  0  0  0  0  0  0  0  0  0  0
   -7.1050   23.6830  -31.1290 C   0  0  0  0  0  0  0  0  0  0  0  0
   -7.5860   22.4280  -31.5130 C   0  0  0  0  0  0  0  0  0  0  0  0
   -6.7080   21.4630  -32.0260 C   0  0  0  0  0  0  0  0  0  0  0  0
   -7.3200   19.8910  -32.5270 S   0  0  0  0  0  0  0  0  0  0  0  0
   -9.0980   19.9190  -32.5170 C   0  0  0  0  0  0  0  0  0  0  0  0
   -6.8310   19.5700  -33.9120 O   0  0  0  0  0  0  0  0  0  0  0  0
   -6.8260   18.8300  -31.5830 O   0  0  0  0  0  0  0  0  0  0  0  0
   -5.3480   21.7700  -32.1670 C   0  0  0  0  0  0  0  0  0  0  0  0
   -4.8660   23.0260  -31.7820 C   0  0  0  0  0  0  0  0  0  0  0  0
   -1.1860   25.4230  -28.5520 C   0  0  0  0  0  0  0  0  0  0  0  0
   -0.0010   24.9160  -28.1600 N   0  0  0  0  0  0  0  0  0  0  0  0
   -0.1990   23.5810  -28.1300 C   0  0  0  0  0  0  0  0  0  0  0  0
    0.8740   22.6180  -27.7310 C   0  0  0  0  0  0  0  0  0  0  0  0
   -1.0790   19.9920  -30.0350 C   0  0  0  0  0  0  0  0  0  0  0  0
   -0.7690   19.2740  -28.8680 O   0  0  0  0  0  0  0  0  0  0  0  0
    0.5420   19.1120  -28.3380 C   0  0  0  0  0  0  0  0  0  0  0  0
   -0.8050   19.4710  -31.3160 C   0  0  0  0  0  0  0  0  0  0  0  0
   -1.6225   17.8229  -33.4407 H   0  0  0  0  0  0  0  0  0  0  0  0
   -2.2514   18.6731  -34.8926 H   0  0  0  0  0  0  0  0  0  0  0  0
   -0.5817   18.0107  -34.8926 H   0  0  0  0  0  0  0  0  0  0  0  0
   -1.9696   22.0419  -33.2430 H   0  0  0  0  0  0  0  0  0  0  0  0
   -2.4551   22.9831  -30.9966 H   0  0  0  0  0  0  0  0  0  0  0  0
   -3.0946   21.8998  -28.4390 H   0  0  0  0  0  0  0  0  0  0  0  0
   -1.5429   21.2435  -27.7885 H   0  0  0  0  0  0  0  0  0  0  0  0
   -5.8730   25.7766  -30.0882 H   0  0  0  0  0  0  0  0  0  0  0  0
   -5.2419   26.0018  -31.7531 H   0  0  0  0  0  0  0  0  0  0  0  0
   -7.8006   24.4374  -30.7328 H   0  0  0  0  0  0  0  0  0  0  0  0
   -8.6567   22.1969  -31.4124 H   0  0  0  0  0  0  0  0  0  0  0  0
   -9.4588   19.9247  -31.4779 H   0  0  0  0  0  0  0  0  0  0  0  0
   -9.4534   20.8229  -33.0335 H   0  0  0  0  0  0  0  0  0  0  0  0
   -9.4817   19.0268  -33.0335 H   0  0  0  0  0  0  0  0  0  0  0  0
   -4.6571   21.0212  -32.5817 H   0  0  0  0  0  0  0  0  0  0  0  0
   -3.7982   23.2625  -31.8996 H   0  0  0  0  0  0  0  0  0  0  0  0
   -1.4046   26.4921  -28.6911 H   0  0  0  0  0  0  0  0  0  0  0  0
    0.9311   22.5667  -26.6337 H   0  0  0  0  0  0  0  0  0  0  0  0
    0.6400   21.6212  -28.1330 H   0  0  0  0  0  0  0  0  0  0  0  0
    1.8398   22.9580  -28.1330 H   0  0  0  0  0  0  0  0  0  0  0  0
    0.4965   19.1176  -27.2390 H   0  0  0  0  0  0  0  0  0  0  0  0
    0.9612   18.1552  -28.6827 H   0  0  0  0  0  0  0  0  0  0  0  0
    1.1815   19.9380  -28.6827 H   0  0  0  0  0  0  0  0  0  0  0  0
   -0.3369   18.4802  -31.4116 H   0  0  0  0  0  0  0  0  0  0  0  0
  1  2  1  0
  2  3  1  0
  3  4  2  0
  4  5  1  0
  5  6  2  0
  6  7  1  0
  7  8  1  0
  8  9  1  0
  9 10  1  0
 10 11  2  0
 10 12  1  0
 12 13  1  0
 13 14  1  0
 14 15  2  0
 15 16  1  0
 16 17  2  0
 17 18  1  0
 18 19  1  0
 18 20  2  0
 18 21  2  0
 17 22  1  0
 22 23  2  0
  9 24  2  0
 24 25  1  0
 25 26  2  0
 26 27  1  0
  6 28  1  0
 28 29  1  0
 29 30  1  0
 28 31  2  0
 31  3  1  0
 26  8  1  0
 23 14  1  0
  1 32  1  0
  1 33  1  0
  1 34  1  0
  4 35  1  0
  5 36  1  0
  7 37  1  0
  7 38  1  0
 13 39  1  0
 13 40  1  0
 15 41  1  0
 16 42  1  0
 19 43  1  0
 19 44  1  0
 19 45  1  0
 22 46  1  0
 23 47  1  0
 24 48  1  0
 27 49  1  0
 27 50  1  0
 27 51  1  0
 30 52  1  0
 30 53  1  0
 30 54  1  0
 31 55  1  0
M  CHG  1  12  -1
M  END
>  <UniqueID>  (47) 
45

>  <SMILES>  (47) 
COc1ccc(Cn2c(C(=O)[N-]Cc3ccc(S(C)(=O)=O)cc3)cnc2C)c(OC)c1

>  <Energy>  (47) 
84.22657845940918

>  <Genealogy>  (47) 
COc1ccc(Cn2c(C(=O)[N-]Cc3ccc(S(C)(=O)=O)cc3)cnc2C)c(OC)c1 (protonated)
COc1ccc(Cn2c(C(=O)[N-]Cc3ccc(S(C)(=O)=O)cc3)cnc2C)c(OC)c1 (3D coordinates assigned)
COc1ccc(Cn2c(C(=O)[N-]Cc3ccc(S(C)(=O)=O)cc3)cnc2C)c(OC)c1 (optimized conformer: 84.22657845940918 kcal/mol)

>  <smiles>  (47) 
COc1ccc(Cn2c(C(=O)NCc3ccc(S(C)(=O)=O)cc3)cnc2C)c(OC)c1

>  <score_type>  (47) 
oracle

>  <origin>  (47) 
adgpu

>  <m_score__min__energy>  (47) 
-10.18

>  <m_primary>  (47) 
energy

$$$$
47:0
     RDKit          3D

 36 38  0  0  0  0  0  0  0  0999 V2000
   -4.2020   24.5250  -30.5170 O   0  0  0  0  0  0  0  0  0  0  0  0
   -3.2610   24.2690  -29.7210 C   0  0  0  0  0  0  0  0  0  0  0  0
   -2.3370   25.2970  -29.3420 N   0  0  0  0  0  0  0  0  0  0  0  0
   -1.2130   25.1340  -28.4670 C   0  0  0  0  0  0  0  0  0  0  0  0
   -0.2000   24.1910  -28.7240 C   0  0  0  0  0  0  0  0  0  0  0  0
    0.8650   24.0400  -27.8290 C   0  0  0  0  0  0  0  0  0  0  0  0
    0.9200   24.8150  -26.6680 C   0  0  0  0  0  0  0  0  0  0  0  0
    1.9510   24.6660  -25.8010 F   0  0  0  0  0  0  0  0  0  0  0  0
   -0.0950   25.7370  -26.3950 C   0  0  0  0  0  0  0  0  0  0  0  0
   -1.1610   25.8900  -27.2870 C   0  0  0  0  0  0  0  0  0  0  0  0
   -3.1390   22.9320  -29.1180 C   0  0  0  0  0  0  0  0  0  0  0  0
   -2.7470   22.6600  -27.5050 S   0  0  0  0  0  0  0  0  0  0  0  0
   -2.7890   20.9820  -27.5690 C   0  0  0  0  0  0  0  0  0  0  0  0
   -3.0990   20.6060  -28.8690 C   0  0  0  0  0  0  0  0  0  0  0  0
   -3.2910   21.6870  -29.7410 C   0  0  0  0  0  0  0  0  0  0  0  0
   -3.5760   21.4510  -31.4670 S   0  0  0  0  0  0  0  0  0  0  0  0
   -3.5080   22.7640  -32.1940 O   0  0  0  0  0  0  0  0  0  0  0  0
   -2.5130   20.5390  -32.0120 O   0  0  0  0  0  0  0  0  0  0  0  0
   -5.1350   20.7330  -31.7370 N   0  0  0  0  0  0  0  0  0  0  0  0
   -6.2740   21.3600  -31.8140 C   0  0  0  0  0  0  0  0  0  0  0  0
   -7.4410   20.6040  -31.9860 C   0  0  0  0  0  0  0  0  0  0  0  0
   -8.6780   21.2460  -32.0450 C   0  0  0  0  0  0  0  0  0  0  0  0
   -8.7440   22.6340  -31.9390 C   0  0  0  0  0  0  0  0  0  0  0  0
   -7.5650   23.3630  -31.7780 C   0  0  0  0  0  0  0  0  0  0  0  0
   -6.3630   22.7240  -31.7200 N   0  0  0  0  0  0  0  0  0  0  0  0
   -0.2457   23.5708  -29.6313 H   0  0  0  0  0  0  0  0  0  0  0  0
    1.6602   23.3098  -28.0400 H   0  0  0  0  0  0  0  0  0  0  0  0
   -0.0550   26.3426  -25.4776 H   0  0  0  0  0  0  0  0  0  0  0  0
   -1.9636   26.6077  -27.0617 H   0  0  0  0  0  0  0  0  0  0  0  0
   -2.6031   20.2993  -26.7268 H   0  0  0  0  0  0  0  0  0  0  0  0
   -3.1860   19.5562  -29.1858 H   0  0  0  0  0  0  0  0  0  0  0  0
   -7.3820   19.5091  -32.0741 H   0  0  0  0  0  0  0  0  0  0  0  0
   -9.5988   20.6583  -32.1748 H   0  0  0  0  0  0  0  0  0  0  0  0
   -9.7149   23.1493  -31.9818 H   0  0  0  0  0  0  0  0  0  0  0  0
   -7.6063   24.4593  -31.6975 H   0  0  0  0  0  0  0  0  0  0  0  0
   -5.5160   23.3200  -31.6110 H   0  0  0  0  0  0  0  0  0  0  0  0
  1  2  2  0
  2  3  1  0
  3  4  1  0
  4  5  2  0
  5  6  1  0
  6  7  2  0
  7  8  1  0
  7  9  1  0
  9 10  2  0
  2 11  1  0
 11 12  1  0
 12 13  1  0
 13 14  2  0
 14 15  1  0
 15 16  1  0
 16 17  2  0
 16 18  2  0
 16 19  1  0
 19 20  2  3
 20 21  1  0
 21 22  2  0
 22 23  1  0
 23 24  2  0
 24 25  1  0
 10  4  1  0
 15 11  2  0
 25 20  1  0
  5 26  1  0
  6 27  1  0
  9 28  1  0
 10 29  1  0
 13 30  1  0
 14 31  1  0
 21 32  1  0
 22 33  1  0
 23 34  1  0
 24 35  1  0
 25 36  1  0
M  CHG  1   3  -1
M  END
>  <UniqueID>  (48) 
46

>  <SMILES>  (48) 
O=C([N-]c1ccc(F)cc1)c1sccc1S(=O)(=O)N=c1cccc[nH]1

>  <Energy>  (48) 
73.54746154103437

>  <Genealogy>  (48) 
O=C([N-]c1ccc(F)cc1)c1sccc1S(=O)(=O)N=c1cccc[nH]1 (protonated)
O=C([N-]c1ccc(F)cc1)c1sccc1S(=O)(=O)N=c1cccc[nH]1 (3D coordinates assigned)
O=C([N-]c1ccc(F)cc1)c1sccc1S(=O)(=O)N=c1cccc[nH]1 (optimized conformer: 73.54746154103437 kcal/mol)

>  <smiles>  (48) 
O=C(Nc1ccc(F)cc1)c1sccc1S(=O)(=O)N=c1cccc[nH]1

>  <score_type>  (48) 
oracle

>  <origin>  (48) 
adgpu

>  <m_score__min__energy>  (48) 
-9.8900000000000006

>  <m_primary>  (48) 
energy

$$$$
48:0
     RDKit          3D

 52 55  0  0  0  0  0  0  0  0999 V2000
   -5.8310   25.2210  -29.0100 O   0  0  0  0  0  0  0  0  0  0  0  0
   -5.2840   25.1150  -30.4060 S   0  0  0  0  0  0  0  0  0  0  0  0
   -5.7630   26.2940  -31.2090 O   0  0  0  0  0  0  0  0  0  0  0  0
   -3.5530   25.1370  -30.3390 N   0  0  0  0  0  0  0  0  0  0  0  0
   -2.7480   24.3210  -29.4760 C   0  0  0  0  0  0  0  0  0  0  0  0
   -3.1080   23.0090  -29.1350 C   0  0  0  0  0  0  0  0  0  0  0  0
   -2.3040   22.2360  -28.2850 C   0  0  0  0  0  0  0  0  0  0  0  0
   -1.0820   22.7700  -27.8090 C   0  0  0  0  0  0  0  0  0  0  0  0
   -0.7350   24.0830  -28.1440 C   0  0  0  0  0  0  0  0  0  0  0  0
   -1.5560   24.8520  -28.9700 C   0  0  0  0  0  0  0  0  0  0  0  0
   -1.1800   26.1520  -29.2900 O   0  0  0  0  0  0  0  0  0  0  0  0
   -0.1740   21.9850  -26.8900 C   0  0  0  0  0  0  0  0  0  0  0  0
   -0.5070   20.4840  -26.8560 C   0  0  0  0  0  0  0  0  0  0  0  0
   -2.0110   20.2660  -26.7350 C   0  0  0  0  0  0  0  0  0  0  0  0
   -2.7130   20.8130  -27.9760 C   0  0  0  0  0  0  0  0  0  0  0  0
   -5.8320   23.6040  -31.1230 C   0  0  0  0  0  0  0  0  0  0  0  0
   -7.1930   23.2730  -31.1330 C   0  0  0  0  0  0  0  0  0  0  0  0
   -7.6210   22.0830  -31.7300 C   0  0  0  0  0  0  0  0  0  0  0  0
   -6.6950   21.2150  -32.3170 C   0  0  0  0  0  0  0  0  0  0  0  0
   -7.2400   19.7440  -33.1180 S   0  0  0  0  0  0  0  0  0  0  0  0
   -8.7420   19.6750  -33.0430 O   0  0  0  0  0  0  0  0  0  0  0  0
   -6.8560   19.8060  -34.5720 O   0  0  0  0  0  0  0  0  0  0  0  0
   -6.5600   18.2940  -32.4060 N   0  0  0  0  0  0  0  0  0  0  0  0
   -5.0920   18.2410  -32.5310 C   0  0  0  0  0  0  0  0  0  0  0  0
   -4.6220   17.7510  -33.9210 C   0  0  0  0  0  0  0  0  0  0  0  0
   -5.6610   17.2030  -34.7050 O   0  0  0  0  0  0  0  0  0  0  0  0
   -6.4160   16.3030  -33.9330 C   0  0  0  0  0  0  0  0  0  0  0  0
   -7.2300   17.0620  -32.8640 C   0  0  0  0  0  0  0  0  0  0  0  0
   -5.3300   21.5330  -32.2780 C   0  0  0  0  0  0  0  0  0  0  0  0
   -4.9010   22.7250  -31.6970 C   0  0  0  0  0  0  0  0  0  0  0  0
   -4.0358   22.5795  -29.5408 H   0  0  0  0  0  0  0  0  0  0  0  0
    0.1972   24.5151  -27.7512 H   0  0  0  0  0  0  0  0  0  0  0  0
    0.8635   22.1063  -27.2347 H   0  0  0  0  0  0  0  0  0  0  0  0
   -0.3167   22.3772  -25.8722 H   0  0  0  0  0  0  0  0  0  0  0  0
   -0.1478   20.0138  -27.7833 H   0  0  0  0  0  0  0  0  0  0  0  0
   -0.0138   20.0330  -25.9823 H   0  0  0  0  0  0  0  0  0  0  0  0
   -2.2180   19.1896  -26.6427 H   0  0  0  0  0  0  0  0  0  0  0  0
   -2.3844   20.7923  -25.8441 H   0  0  0  0  0  0  0  0  0  0  0  0
   -2.4580   20.1767  -28.8363 H   0  0  0  0  0  0  0  0  0  0  0  0
   -3.7955   20.8083  -27.7805 H   0  0  0  0  0  0  0  0  0  0  0  0
   -7.9263   23.9501  -30.6706 H   0  0  0  0  0  0  0  0  0  0  0  0
   -8.6911   21.8286  -31.7379 H   0  0  0  0  0  0  0  0  0  0  0  0
   -4.6888   19.2501  -32.3601 H   0  0  0  0  0  0  0  0  0  0  0  0
   -4.7237   17.5205  -31.7858 H   0  0  0  0  0  0  0  0  0  0  0  0
   -4.1894   18.6047  -34.4634 H   0  0  0  0  0  0  0  0  0  0  0  0
   -3.8875   16.9500  -33.7509 H   0  0  0  0  0  0  0  0  0  0  0  0
   -7.1053   15.7519  -34.5897 H   0  0  0  0  0  0  0  0  0  0  0  0
   -5.7320   15.6034  -33.4303 H   0  0  0  0  0  0  0  0  0  0  0  0
   -8.2073   17.3310  -33.2913 H   0  0  0  0  0  0  0  0  0  0  0  0
   -7.3353   16.3980  -31.9934 H   0  0  0  0  0  0  0  0  0  0  0  0
   -4.5938   20.8380  -32.7082 H   0  0  0  0  0  0  0  0  0  0  0  0
   -3.8303   22.9772  -31.6884 H   0  0  0  0  0  0  0  0  0  0  0  0
  1  2  2  0
  2  3  2  0
  2  4  1  0
  4  5  1  0
  5  6  2  0
  6  7  1  0
  7  8  2  0
  8  9  1  0
  9 10  2  0
 10 11  1  0
  8 12  1  0
 12 13  1  0
 13 14  1  0
 14 15  1  0
  2 16  1  0
 16 17  2  0
 17 18  1  0
 18 19  2  0
 19 20  1  0
 20 21  2  0
 20 22  2  0
 20 23  1  0
 23 24  1  0
 24 25  1  0
 25 26  1  0
 26 27  1  0
 27 28  1  0
 19 29  1  0
 29 30  2  0
 10  5  1  0
 30 16  1  0
 15  7  1  0
 28 23  1  0
  6 31  1  0
  9 32  1  0
 12 33  1  0
 12 34  1  0
 13 35  1  0
 13 36  1  0
 14 37  1  0
 14 38  1  0
 15 39  1  0
 15 40  1  0
 17 41  1  0
 18 42  1  0
 24 43  1  0
 24 44  1  0
 25 45  1  0
 25 46  1  0
 27 47  1  0
 27 48  1  0
 28 49  1  0
 28 50  1  0
 29 51  1  0
 30 52  1  0
M  CHG  2   4  -1  11  -1
M  END
>  <UniqueID>  (49) 
47

>  <SMILES>  (49) 
O=S(=O)([N-]c1cc2c(cc1[O-])CCCC2)c1ccc(S(=O)(=O)N2CCOCC2)cc1

>  <Energy>  (49) 
65.32402486470802

>  <Genealogy>  (49) 
O=S(=O)([N-]c1cc2c(cc1[O-])CCCC2)c1ccc(S(=O)(=O)N2CCOCC2)cc1 (protonated)
O=S(=O)([N-]c1cc2c(cc1[O-])CCCC2)c1ccc(S(=O)(=O)N2CCOCC2)cc1 (3D coordinates assigned)
O=S(=O)([N-]c1cc2c(cc1[O-])CCCC2)c1ccc(S(=O)(=O)N2CCOCC2)cc1 (nonaromatic ring conformer: 65.32402486470802 kcal/mol)

>  <smiles>  (49) 
O=S(=O)(Nc1cc2c(cc1O)CCCC2)c1ccc(S(=O)(=O)N2CCOCC2)cc1

>  <score_type>  (49) 
oracle

>  <origin>  (49) 
adgpu

>  <m_score__min__energy>  (49) 
-15.359999999999999

>  <m_primary>  (49) 
energy

$$$$
