0:0
     RDKit          3D

 53 55  0  0  0  0  0  0  0  0999 V2000
   -0.4160   24.5140  -24.7150 C   0  0  0  0  0  0  0  0  0  0  0  0
   -0.8140   25.8590  -25.3470 C   0  0  0  0  0  0  0  0  0  0  0  0
   -2.3440   26.0270  -25.3930 C   0  0  0  0  0  0  0  0  0  0  0  0
   -3.0180   25.0960  -26.4260 C   0  0  0  0  0  0  0  0  0  0  0  0
   -2.0650   24.5640  -27.4220 N   0  0  0  0  0  0  0  0  0  0  0  0
   -2.9270   23.8470  -28.7640 S   0  0  0  0  0  0  0  0  0  0  0  0
   -4.2990   23.4300  -28.3140 O   0  0  0  0  0  0  0  0  0  0  0  0
   -3.1040   24.8870  -29.8360 O   0  0  0  0  0  0  0  0  0  0  0  0
   -2.0550   22.4590  -29.4530 C   0  0  0  0  0  0  0  0  0  0  0  0
   -1.9280   22.3800  -30.8500 C   0  0  0  0  0  0  0  0  0  0  0  0
   -1.2420   21.3150  -31.4590 C   0  0  0  0  0  0  0  0  0  0  0  0
   -1.1160   21.2440  -32.9350 C   0  0  0  0  0  0  0  0  0  0  0  0
   -0.0220   21.5380  -33.4870 O   0  0  0  0  0  0  0  0  0  0  0  0
   -2.2230   20.7930  -33.7280 N   0  0  0  0  0  0  0  0  0  0  0  0
   -3.6060   20.7850  -33.3430 C   0  0  0  0  0  0  0  0  0  0  0  0
   -4.2180   21.9220  -32.7830 C   0  0  0  0  0  0  0  0  0  0  0  0
   -5.5600   21.8830  -32.3830 C   0  0  0  0  0  0  0  0  0  0  0  0
   -6.3210   23.3140  -31.6950 S   0  0  0  0  0  0  0  0  0  0  0  0
   -6.9950   22.9160  -30.0980 C   0  0  0  0  0  0  0  0  0  0  0  0
   -7.4230   23.7920  -32.6000 O   0  0  0  0  0  0  0  0  0  0  0  0
   -5.3050   24.4130  -31.5520 O   0  0  0  0  0  0  0  0  0  0  0  0
   -6.2970   20.7050  -32.5420 C   0  0  0  0  0  0  0  0  0  0  0  0
   -5.6910   19.5650  -33.0740 C   0  0  0  0  0  0  0  0  0  0  0  0
   -4.3490   19.5950  -33.4680 C   0  0  0  0  0  0  0  0  0  0  0  0
   -3.7770   18.4330  -33.9880 O   0  0  0  0  0  0  0  0  0  0  0  0
   -0.6830   20.3150  -30.6470 C   0  0  0  0  0  0  0  0  0  0  0  0
   -0.8070   20.3800  -29.2590 C   0  0  0  0  0  0  0  0  0  0  0  0
   -1.4890   21.4410  -28.6530 C   0  0  0  0  0  0  0  0  0  0  0  0
   -1.6040   21.4280  -26.8980 Cl  0  0  0  0  0  0  0  0  0  0  0  0
   -1.1430   25.6070  -27.8930 C   0  0  0  0  0  0  0  0  0  0  0  0
   -0.1970   26.0390  -26.7550 C   0  0  0  0  0  0  0  0  0  0  0  0
   -0.4420   24.6020  -23.6188 H   0  0  0  0  0  0  0  0  0  0  0  0
   -1.1219   23.7343  -25.0371 H   0  0  0  0  0  0  0  0  0  0  0  0
    0.6005   24.2440  -25.0371 H   0  0  0  0  0  0  0  0  0  0  0  0
   -0.4040   26.6503  -24.7022 H   0  0  0  0  0  0  0  0  0  0  0  0
   -2.7525   25.8009  -24.3970 H   0  0  0  0  0  0  0  0  0  0  0  0
   -2.5544   27.0637  -25.6947 H   0  0  0  0  0  0  0  0  0  0  0  0
   -3.4766   24.2510  -25.8915 H   0  0  0  0  0  0  0  0  0  0  0  0
   -3.7683   25.6899  -26.9685 H   0  0  0  0  0  0  0  0  0  0  0  0
   -2.3733   23.1655  -31.4783 H   0  0  0  0  0  0  0  0  0  0  0  0
   -3.6381   22.8484  -32.6585 H   0  0  0  0  0  0  0  0  0  0  0  0
   -6.3321   23.3075  -29.3123 H   0  0  0  0  0  0  0  0  0  0  0  0
   -7.9916   23.3706  -29.9970 H   0  0  0  0  0  0  0  0  0  0  0  0
   -7.0782   21.8238  -29.9970 H   0  0  0  0  0  0  0  0  0  0  0  0
   -7.3564   20.6765  -32.2473 H   0  0  0  0  0  0  0  0  0  0  0  0
   -6.2724   18.6377  -33.1840 H   0  0  0  0  0  0  0  0  0  0  0  0
   -2.8030   18.3830  -34.2640 H   0  0  0  0  0  0  0  0  0  0  0  0
   -0.1437   19.4747  -31.1085 H   0  0  0  0  0  0  0  0  0  0  0  0
   -0.3644   19.5896  -28.6350 H   0  0  0  0  0  0  0  0  0  0  0  0
   -0.5476   25.2138  -28.7302 H   0  0  0  0  0  0  0  0  0  0  0  0
   -1.7274   26.4787  -28.2226 H   0  0  0  0  0  0  0  0  0  0  0  0
    0.7202   25.4346  -26.8145 H   0  0  0  0  0  0  0  0  0  0  0  0
    0.0055   27.1120  -26.8882 H   0  0  0  0  0  0  0  0  0  0  0  0
  1  2  1  0
  2  3  1  0
  3  4  1  0
  4  5  1  0
  5  6  1  0
  6  7  2  0
  6  8  2  0
  6  9  1  0
  9 10  2  0
 10 11  1  0
 11 12  1  0
 12 13  2  0
 12 14  1  0
 14 15  1  0
 15 16  2  0
 16 17  1  0
 17 18  1  0
 18 19  1  0
 18 20  2  0
 18 21  2  0
 17 22  2  0
 22 23  1  0
 23 24  2  0
 24 25  1  0
 11 26  2  0
 26 27  1  0
 27 28  2  0
 28 29  1  0
  5 30  1  0
 30 31  1  0
 31  2  1  0
 28  9  1  0
 24 15  1  0
  1 32  1  0
  1 33  1  0
  1 34  1  0
  2 35  1  0
  3 36  1  0
  3 37  1  0
  4 38  1  0
  4 39  1  0
 10 40  1  0
 16 41  1  0
 19 42  1  0
 19 43  1  0
 19 44  1  0
 22 45  1  0
 23 46  1  0
 25 47  1  0
 26 48  1  0
 27 49  1  0
 30 50  1  0
 30 51  1  0
 31 52  1  0
 31 53  1  0
M  CHG  1  14  -1
M  END
>  <UniqueID>  (1) 
1

>  <SMILES>  (1) 
CC1CCN(S(=O)(=O)c2cc(C(=O)[N-]c3cc(S(C)(=O)=O)ccc3O)ccc2Cl)CC1

>  <Energy>  (1) 
61.325289106309725

>  <Genealogy>  (1) 
CC1CCN(S(=O)(=O)c2cc(C(=O)[N-]c3cc(S(C)(=O)=O)ccc3O)ccc2Cl)CC1 (protonated)
CC1CCN(S(=O)(=O)c2cc(C(=O)[N-]c3cc(S(C)(=O)=O)ccc3O)ccc2Cl)CC1 (3D coordinates assigned)
CC1CCN(S(=O)(=O)c2cc(C(=O)[N-]c3cc(S(C)(=O)=O)ccc3O)ccc2Cl)CC1 (nonaromatic ring conformer: 61.325289106309725 kcal/mol)

>  <smiles>  (1) 
CC1CCN(S(=O)(=O)c2cc(C(=O)Nc3cc(S(C)(=O)=O)ccc3O)ccc2Cl)CC1

>  <score_type>  (1) 
oracle

>  <origin>  (1) 
adgpu

>  <m_score__min__energy>  (1) 
-12.220000000000001

>  <m_primary>  (1) 
energy

$$$$
1:0
     RDKit          3D

 51 54  0  0  0  0  0  0  0  0999 V2000
   -6.7620   23.8343  -32.3272 H   0  0  0  0  0  0  0  0  0  0  0  0
   -6.0890   23.0730  -31.9060 C   0  0  0  0  0  0  0  0  0  0  0  0
   -6.4080   21.6570  -32.1860 C   0  0  0  0  0  0  0  0  0  0  0  0
   -5.4160   20.7630  -32.4440 N   0  0  0  0  0  0  0  0  0  0  0  0
   -5.6650   19.4440  -32.6520 C   0  0  0  0  0  0  0  0  0  0  0  0
   -4.6020   18.5780  -32.9320 C   0  0  0  0  0  0  0  0  0  0  0  0
   -3.5748   18.9683  -32.9812 H   0  0  0  0  0  0  0  0  0  0  0  0
   -4.8420   17.2200  -33.1490 C   0  0  0  0  0  0  0  0  0  0  0  0
   -4.0040   16.5428  -33.3708 H   0  0  0  0  0  0  0  0  0  0  0  0
   -6.1440   16.7200  -33.0850 C   0  0  0  0  0  0  0  0  0  0  0  0
   -6.3285   15.6492  -33.2563 H   0  0  0  0  0  0  0  0  0  0  0  0
   -7.2150   17.5750  -32.8040 C   0  0  0  0  0  0  0  0  0  0  0  0
   -8.2378   17.1732  -32.7553 H   0  0  0  0  0  0  0  0  0  0  0  0
   -6.9900   18.9490  -32.5830 C   0  0  0  0  0  0  0  0  0  0  0  0
   -8.0380   19.8550  -32.2870 C   0  0  0  0  0  0  0  0  0  0  0  0
   -9.4720   19.4050  -32.1830 C   0  0  0  0  0  0  0  0  0  0  0  0
   -9.7527   19.3169  -31.1231 H   0  0  0  0  0  0  0  0  0  0  0  0
  -10.1241   20.1417  -32.6750 H   0  0  0  0  0  0  0  0  0  0  0  0
   -9.5863   18.4278  -32.6750 H   0  0  0  0  0  0  0  0  0  0  0  0
   -7.7310   21.2100  -32.0800 C   0  0  0  0  0  0  0  0  0  0  0  0
   -8.5323   21.9223  -31.8339 H   0  0  0  0  0  0  0  0  0  0  0  0
   -5.0370   23.5110  -31.1740 C   0  0  0  0  0  0  0  0  0  0  0  0
   -4.9160   24.8790  -30.8500 C   0  0  0  0  0  0  0  0  0  0  0  0
   -5.7740   25.7240  -31.2280 O   0  0  0  0  0  0  0  0  0  0  0  0
   -3.8650   25.3010  -30.1060 N   0  0  0  0  0  0  0  0  0  0  0  0
   -2.9000   24.4600  -29.6510 C   0  0  0  0  0  0  0  0  0  0  0  0
   -1.9090   24.9960  -28.9080 C   0  0  0  0  0  0  0  0  0  0  0  0
   -1.8870   26.0920  -28.8165 H   0  0  0  0  0  0  0  0  0  0  0  0
   -0.8530   24.2410  -28.2080 C   0  0  0  0  0  0  0  0  0  0  0  0
   -0.1170   23.2890  -28.8090 N   0  0  0  0  0  0  0  0  0  0  0  0
    0.6320   22.7730  -27.8170 C   0  0  0  0  0  0  0  0  0  0  0  0
    1.3671   21.9696  -27.9723 H   0  0  0  0  0  0  0  0  0  0  0  0
    0.3950   23.3350  -26.6150 N   0  0  0  0  0  0  0  0  0  0  0  0
   -0.5460   24.2710  -26.8520 C   0  0  0  0  0  0  0  0  0  0  0  0
   -1.1510   25.1420  -25.7520 C   0  0  0  0  0  0  0  0  0  0  0  0
   -2.6790   25.2130  -25.9310 C   0  0  0  0  0  0  0  0  0  0  0  0
   -3.1632   25.2355  -24.9436 H   0  0  0  0  0  0  0  0  0  0  0  0
   -2.9409   26.1243  -26.4886 H   0  0  0  0  0  0  0  0  0  0  0  0
   -3.0243   24.3299  -26.4886 H   0  0  0  0  0  0  0  0  0  0  0  0
   -0.8480   24.5210  -24.3690 C   0  0  0  0  0  0  0  0  0  0  0  0
   -1.1830   25.2075  -23.5775 H   0  0  0  0  0  0  0  0  0  0  0  0
   -1.3799   23.5630  -24.2728 H   0  0  0  0  0  0  0  0  0  0  0  0
    0.2345   24.3507  -24.2728 H   0  0  0  0  0  0  0  0  0  0  0  0
   -0.5500   26.5640  -25.7770 C   0  0  0  0  0  0  0  0  0  0  0  0
   -0.4007   26.9172  -24.7460 H   0  0  0  0  0  0  0  0  0  0  0  0
    0.4167   26.5443  -26.3014 H   0  0  0  0  0  0  0  0  0  0  0  0
   -1.2378   27.2436  -26.3014 H   0  0  0  0  0  0  0  0  0  0  0  0
   -2.9830   23.0950  -30.0220 C   0  0  0  0  0  0  0  0  0  0  0  0
   -2.0770   22.2720  -29.7200 O   0  0  0  0  0  0  0  0  0  0  0  0
   -4.0430   22.6630  -30.7610 N   0  0  0  0  0  0  0  0  0  0  0  0
   -4.0350   21.6600  -31.0520 H   0  0  0  0  0  0  0  0  0  0  0  0
  1  2  1  0
  2  3  1  0
  3  4  2  0
  4  5  1  0
  5  6  2  0
  6  7  1  0
  6  8  1  0
  8  9  1  0
  8 10  2  0
 10 11  1  0
 10 12  1  0
 12 13  1  0
 12 14  2  0
 14 15  1  0
 15 16  1  0
 16 17  1  0
 16 18  1  0
 16 19  1  0
 15 20  2  0
 20 21  1  0
  2 22  2  0
 22 23  1  0
 23 24  2  0
 23 25  1  0
 25 26  1  0
 26 27  2  0
 27 28  1  0
 27 29  1  0
 29 30  1  0
 30 31  1  0
 31 32  1  0
 31 33  2  0
 33 34  1  0
 34 35  1  0
 35 36  1  0
 36 37  1  0
 36 38  1  0
 36 39  1  0
 35 40  1  0
 40 41  1  0
 40 42  1  0
 40 43  1  0
 35 44  1  0
 44 45  1  0
 44 46  1  0
 44 47  1  0
 26 48  1  0
 48 49  2  0
 48 50  1  0
 50 51  1  0
 20  3  1  0
 50 22  1  0
 14  5  1  0
 34 29  2  0
M  CHG  2  25  -1  30  -1
M  END
>  <UniqueID>  (2) 
2

>  <SMILES>  (2) 
Cc1cc(/C=c2\[nH]c(=O)/c(=C\c3[n-]cnc3C(C)(C)C)[n-]c2=O)nc2ccccc12

>  <Energy>  (2) 
107.29216315853095

>  <Genealogy>  (2) 
Cc1cc(C=c2[nH]c(=O)c(=Cc3[n-]cnc3C(C)(C)C)[n-]c2=O)nc2ccccc12 (protonated)
Cc1cc(/C=c2\[nH]c(=O)/c(=C\c3[n-]cnc3C(C)(C)C)[n-]c2=O)nc2ccccc12 (cis-trans isomerization)
Cc1cc(/C=c2\[nH]c(=O)/c(=C\c3[n-]cnc3C(C)(C)C)[n-]c2=O)nc2ccccc12 (3D coordinates assigned)
Cc1cc(/C=c2\[nH]c(=O)/c(=C\c3[n-]cnc3C(C)(C)C)[n-]c2=O)nc2ccccc12 (optimized conformer: 107.29216315853095 kcal/mol)

>  <smiles>  (2) 
Cc1cc(C=c2[nH]c(=O)c(=Cc3[nH]cnc3C(C)(C)C)[nH]c2=O)nc2ccccc12

>  <score_type>  (2) 
oracle

>  <origin>  (2) 
adgpu

>  <m_score__min__energy>  (2) 
-12.01

>  <m_primary>  (2) 
energy

$$$$
2:0
     RDKit          3D

 60 63  0  0  0  0  0  0  0  0999 V2000
   -5.7240   26.4010  -30.8690 O   0  0  0  0  0  0  0  0  0  0  0  0
   -5.2830   25.0860  -30.2940 S   0  0  0  0  0  0  0  0  0  0  0  0
   -5.6080   25.0710  -28.8290 O   0  0  0  0  0  0  0  0  0  0  0  0
   -3.5610   24.9340  -30.4710 N   0  0  0  0  0  0  0  0  0  0  0  0
   -2.6740   24.0630  -29.7600 C   0  0  0  0  0  0  0  0  0  0  0  0
   -2.6350   22.7110  -30.1250 C   0  0  0  0  0  0  0  0  0  0  0  0
   -1.7550   21.8250  -29.4930 C   0  0  0  0  0  0  0  0  0  0  0  0
   -0.8970   22.2910  -28.4960 C   0  0  0  0  0  0  0  0  0  0  0  0
   -0.9390   23.6390  -28.1030 C   0  0  0  0  0  0  0  0  0  0  0  0
    0.1790   24.2410  -26.8760 S   0  0  0  0  0  0  0  0  0  0  0  0
    1.0540   23.1090  -26.4140 O   0  0  0  0  0  0  0  0  0  0  0  0
    1.0640   25.2850  -27.4950 O   0  0  0  0  0  0  0  0  0  0  0  0
   -0.6560   24.9060  -25.4910 N   0  0  0  0  0  0  0  0  0  0  0  0
    0.3080   25.3650  -24.4700 C   0  0  0  0  0  0  0  0  0  0  0  0
   -0.3560   26.3010  -23.4620 C   0  0  0  0  0  0  0  0  0  0  0  0
   -0.8820   27.5740  -24.1490 C   0  0  0  0  0  0  0  0  0  0  0  0
   -1.2160   27.3530  -25.6310 C   0  0  0  0  0  0  0  0  0  0  0  0
   -1.6660   25.9110  -25.8920 C   0  0  0  0  0  0  0  0  0  0  0  0
   -1.8520   24.5120  -28.7140 C   0  0  0  0  0  0  0  0  0  0  0  0
   -6.1750   23.7660  -31.0530 C   0  0  0  0  0  0  0  0  0  0  0  0
   -7.5720   23.7910  -31.0840 C   0  0  0  0  0  0  0  0  0  0  0  0
   -8.2800   22.7440  -31.6790 C   0  0  0  0  0  0  0  0  0  0  0  0
   -7.5940   21.6550  -32.2260 C   0  0  0  0  0  0  0  0  0  0  0  0
   -6.1940   21.6130  -32.1870 C   0  0  0  0  0  0  0  0  0  0  0  0
   -5.3390   20.2080  -32.8180 S   0  0  0  0  0  0  0  0  0  0  0  0
   -4.1500   20.6560  -33.6200 O   0  0  0  0  0  0  0  0  0  0  0  0
   -4.8570   19.3930  -31.6500 O   0  0  0  0  0  0  0  0  0  0  0  0
   -6.4200   19.2470  -33.8050 N   0  0  0  0  0  0  0  0  0  0  0  0
   -5.7080   18.4790  -34.8480 C   0  0  0  0  0  0  0  0  0  0  0  0
   -5.1310   17.1500  -34.3210 C   0  0  0  0  0  0  0  0  0  0  0  0
   -6.1200   16.3850  -33.6670 O   0  0  0  0  0  0  0  0  0  0  0  0
   -6.6050   17.1010  -32.5500 C   0  0  0  0  0  0  0  0  0  0  0  0
   -7.3070   18.3900  -32.9970 C   0  0  0  0  0  0  0  0  0  0  0  0
   -5.4900   22.6780  -31.6160 C   0  0  0  0  0  0  0  0  0  0  0  0
   -3.3033   22.3418  -30.9169 H   0  0  0  0  0  0  0  0  0  0  0  0
   -1.7397   20.7636  -29.7816 H   0  0  0  0  0  0  0  0  0  0  0  0
   -0.1864   21.6014  -28.0169 H   0  0  0  0  0  0  0  0  0  0  0  0
    0.7091   24.4904  -23.9369 H   0  0  0  0  0  0  0  0  0  0  0  0
    1.1147   25.9154  -24.9763 H   0  0  0  0  0  0  0  0  0  0  0  0
   -1.1972   25.7766  -22.9852 H   0  0  0  0  0  0  0  0  0  0  0  0
    0.3932   26.5937  -22.7117 H   0  0  0  0  0  0  0  0  0  0  0  0
   -1.7931   27.9039  -23.6284 H   0  0  0  0  0  0  0  0  0  0  0  0
   -0.0866   28.3321  -24.0973 H   0  0  0  0  0  0  0  0  0  0  0  0
   -2.0251   28.0390  -25.9220 H   0  0  0  0  0  0  0  0  0  0  0  0
   -0.3096   27.5463  -26.2235 H   0  0  0  0  0  0  0  0  0  0  0  0
   -2.5899   25.7245  -25.3248 H   0  0  0  0  0  0  0  0  0  0  0  0
   -1.8201   25.8066  -26.9761 H   0  0  0  0  0  0  0  0  0  0  0  0
   -1.9242   25.5548  -28.3713 H   0  0  0  0  0  0  0  0  0  0  0  0
   -8.1155   24.6374  -30.6387 H   0  0  0  0  0  0  0  0  0  0  0  0
   -9.3789   22.7762  -31.7173 H   0  0  0  0  0  0  0  0  0  0  0  0
   -8.1549   20.8293  -32.6881 H   0  0  0  0  0  0  0  0  0  0  0  0
   -6.4119   18.2578  -35.6639 H   0  0  0  0  0  0  0  0  0  0  0  0
   -4.8634   19.0932  -35.1936 H   0  0  0  0  0  0  0  0  0  0  0  0
   -4.7324   16.5717  -35.1676 H   0  0  0  0  0  0  0  0  0  0  0  0
   -4.3350   17.3798  -33.5974 H   0  0  0  0  0  0  0  0  0  0  0  0
   -7.3205   16.4718  -32.0004 H   0  0  0  0  0  0  0  0  0  0  0  0
   -5.7557   17.3662  -31.9032 H   0  0  0  0  0  0  0  0  0  0  0  0
   -8.1892   18.1245  -33.5980 H   0  0  0  0  0  0  0  0  0  0  0  0
   -7.5955   18.9513  -32.0960 H   0  0  0  0  0  0  0  0  0  0  0  0
   -4.3901   22.6628  -31.6081 H   0  0  0  0  0  0  0  0  0  0  0  0
  1  2  2  0
  2  3  2  0
  2  4  1  0
  4  5  1  0
  5  6  2  0
  6  7  1  0
  7  8  2  0
  8  9  1  0
  9 10  1  0
 10 11  2  0
 10 12  2  0
 10 13  1  0
 13 14  1  0
 14 15  1  0
 15 16  1  0
 16 17  1  0
 17 18  1  0
  9 19  2  0
  2 20  1  0
 20 21  2  0
 21 22  1  0
 22 23  2  0
 23 24  1  0
 24 25  1  0
 25 26  2  0
 25 27  2  0
 25 28  1  0
 28 29  1  0
 29 30  1  0
 30 31  1  0
 31 32  1  0
 32 33  1  0
 24 34  2  0
 19  5  1  0
 34 20  1  0
 18 13  1  0
 33 28  1  0
  6 35  1  0
  7 36  1  0
  8 37  1  0
 14 38  1  0
 14 39  1  0
 15 40  1  0
 15 41  1  0
 16 42  1  0
 16 43  1  0
 17 44  1  0
 17 45  1  0
 18 46  1  0
 18 47  1  0
 19 48  1  0
 21 49  1  0
 22 50  1  0
 23 51  1  0
 29 52  1  0
 29 53  1  0
 30 54  1  0
 30 55  1  0
 32 56  1  0
 32 57  1  0
 33 58  1  0
 33 59  1  0
 34 60  1  0
M  CHG  1   4  -1
M  END
>  <UniqueID>  (3) 
3

>  <SMILES>  (3) 
O=S(=O)([N-]c1cccc(S(=O)(=O)N2CCCCC2)c1)c1cccc(S(=O)(=O)N2CCOCC2)c1

>  <Energy>  (3) 
75.48412955106798

>  <Genealogy>  (3) 
O=S(=O)([N-]c1cccc(S(=O)(=O)N2CCCCC2)c1)c1cccc(S(=O)(=O)N2CCOCC2)c1 (protonated)
O=S(=O)([N-]c1cccc(S(=O)(=O)N2CCCCC2)c1)c1cccc(S(=O)(=O)N2CCOCC2)c1 (3D coordinates assigned)
O=S(=O)([N-]c1cccc(S(=O)(=O)N2CCCCC2)c1)c1cccc(S(=O)(=O)N2CCOCC2)c1 (nonaromatic ring conformer: 75.48412955106798 kcal/mol)

>  <smiles>  (3) 
O=S(=O)(Nc1cccc(S(=O)(=O)N2CCCCC2)c1)c1cccc(S(=O)(=O)N2CCOCC2)c1

>  <score_type>  (3) 
oracle

>  <origin>  (3) 
adgpu

>  <m_score__min__energy>  (3) 
-12.710000000000001

>  <m_primary>  (3) 
energy

$$$$
3:0
     RDKit          3D

 63 66  0  0  0  0  0  0  0  0999 V2000
   -1.4470   20.8910  -30.1880 O   0  0  0  0  0  0  0  0  0  0  0  0
   -2.2440   21.7350  -30.6820 C   0  0  0  0  0  0  0  0  0  0  0  0
   -3.1000   22.5050  -29.8300 N   0  0  0  0  0  0  0  0  0  0  0  0
   -4.2880   23.1920  -30.2510 C   0  0  0  0  0  0  0  0  0  0  0  0
   -5.4510   22.4910  -30.6210 C   0  0  0  0  0  0  0  0  0  0  0  0
   -6.5700   23.1750  -31.1100 C   0  0  0  0  0  0  0  0  0  0  0  0
   -8.0230   22.2820  -31.5590 S   0  0  0  0  0  0  0  0  0  0  0  0
   -8.9970   23.2340  -32.1970 O   0  0  0  0  0  0  0  0  0  0  0  0
   -8.6650   21.7480  -30.3080 O   0  0  0  0  0  0  0  0  0  0  0  0
   -7.7230   20.9550  -32.6630 N   0  0  0  0  0  0  0  0  0  0  0  0
   -8.7450   19.8890  -32.6350 C   0  0  0  0  0  0  0  0  0  0  0  0
   -8.4520   18.7830  -31.6100 C   0  0  0  0  0  0  0  0  0  0  0  0
   -7.0320   18.2530  -31.7680 C   0  0  0  0  0  0  0  0  0  0  0  0
   -6.0330   19.3960  -31.6420 C   0  0  0  0  0  0  0  0  0  0  0  0
   -6.3220   20.4880  -32.6800 C   0  0  0  0  0  0  0  0  0  0  0  0
   -6.5410   24.5730  -31.2000 C   0  0  0  0  0  0  0  0  0  0  0  0
   -5.3860   25.2760  -30.8440 C   0  0  0  0  0  0  0  0  0  0  0  0
   -4.2590   24.5890  -30.3810 C   0  0  0  0  0  0  0  0  0  0  0  0
   -3.1110   25.3000  -30.0510 O   0  0  0  0  0  0  0  0  0  0  0  0
   -2.3170   21.9220  -32.1010 N   0  0  0  0  0  0  0  0  0  0  0  0
   -1.7560   20.9740  -33.0190 C   0  0  0  0  0  0  0  0  0  0  0  0
   -0.5870   21.2670  -33.7380 C   0  0  0  0  0  0  0  0  0  0  0  0
   -0.0220   20.3060  -34.5800 C   0  0  0  0  0  0  0  0  0  0  0  0
   -0.6090   19.0430  -34.6970 C   0  0  0  0  0  0  0  0  0  0  0  0
   -1.7800   18.7410  -33.9850 C   0  0  0  0  0  0  0  0  0  0  0  0
   -2.4750   17.1210  -34.0570 S   0  0  0  0  0  0  0  0  0  0  0  0
   -1.7150   16.2120  -33.1310 O   0  0  0  0  0  0  0  0  0  0  0  0
   -2.3370   16.5840  -35.4540 O   0  0  0  0  0  0  0  0  0  0  0  0
   -4.1650   17.1340  -33.6030 N   0  0  0  0  0  0  0  0  0  0  0  0
   -5.0140   17.3920  -34.7870 C   0  0  0  0  0  0  0  0  0  0  0  0
   -6.4720   16.9970  -34.5290 C   0  0  0  0  0  0  0  0  0  0  0  0
   -6.5930   15.4870  -34.2470 C   0  0  0  0  0  0  0  0  0  0  0  0
   -5.3020   14.8850  -33.6650 C   0  0  0  0  0  0  0  0  0  0  0  0
   -4.5350   15.9210  -32.8290 C   0  0  0  0  0  0  0  0  0  0  0  0
   -2.3650   19.7210  -33.1720 C   0  0  0  0  0  0  0  0  0  0  0  0
   -5.4808   21.3956  -30.5250 H   0  0  0  0  0  0  0  0  0  0  0  0
   -9.7155   20.3440  -32.3878 H   0  0  0  0  0  0  0  0  0  0  0  0
   -8.7455   19.4164  -33.6283 H   0  0  0  0  0  0  0  0  0  0  0  0
   -8.5725   19.1916  -30.5958 H   0  0  0  0  0  0  0  0  0  0  0  0
   -9.1557   17.9544  -31.7783 H   0  0  0  0  0  0  0  0  0  0  0  0
   -6.8324   17.5066  -30.9850 H   0  0  0  0  0  0  0  0  0  0  0  0
   -6.9276   17.7895  -32.7601 H   0  0  0  0  0  0  0  0  0  0  0  0
   -6.1053   19.8288  -30.6333 H   0  0  0  0  0  0  0  0  0  0  0  0
   -5.0213   19.0014  -31.8173 H   0  0  0  0  0  0  0  0  0  0  0  0
   -5.6654   21.3465  -32.4754 H   0  0  0  0  0  0  0  0  0  0  0  0
   -6.1366   20.0511  -33.6723 H   0  0  0  0  0  0  0  0  0  0  0  0
   -7.4290   25.1187  -31.5516 H   0  0  0  0  0  0  0  0  0  0  0  0
   -5.3636   26.3725  -30.9283 H   0  0  0  0  0  0  0  0  0  0  0  0
   -3.0400   22.5850  -32.4610 H   0  0  0  0  0  0  0  0  0  0  0  0
   -0.1146   22.2554  -33.6384 H   0  0  0  0  0  0  0  0  0  0  0  0
    0.8869   20.5439  -35.1522 H   0  0  0  0  0  0  0  0  0  0  0  0
   -0.1520   18.2838  -35.3488 H   0  0  0  0  0  0  0  0  0  0  0  0
   -4.9717   18.4639  -35.0305 H   0  0  0  0  0  0  0  0  0  0  0  0
   -4.6347   16.7855  -35.6226 H   0  0  0  0  0  0  0  0  0  0  0  0
   -6.8479   17.5566  -33.6598 H   0  0  0  0  0  0  0  0  0  0  0  0
   -7.0636   17.2348  -35.4254 H   0  0  0  0  0  0  0  0  0  0  0  0
   -7.4104   15.3279  -33.5283 H   0  0  0  0  0  0  0  0  0  0  0  0
   -6.7901   14.9852  -35.2058 H   0  0  0  0  0  0  0  0  0  0  0  0
   -5.5618   14.0287  -33.0253 H   0  0  0  0  0  0  0  0  0  0  0  0
   -4.6597   14.5649  -34.4986 H   0  0  0  0  0  0  0  0  0  0  0  0
   -5.1674   16.2253  -31.9820 H   0  0  0  0  0  0  0  0  0  0  0  0
   -3.6005   15.4467  -32.4948 H   0  0  0  0  0  0  0  0  0  0  0  0
   -3.3090   19.5053  -32.6501 H   0  0  0  0  0  0  0  0  0  0  0  0
  1  2  2  0
  2  3  1  0
  3  4  1  0
  4  5  2  0
  5  6  1  0
  6  7  1  0
  7  8  2  0
  7  9  2  0
  7 10  1  0
 10 11  1  0
 11 12  1  0
 12 13  1  0
 13 14  1  0
 14 15  1  0
  6 16  2  0
 16 17  1  0
 17 18  2  0
 18 19  1  0
  2 20  1  0
 20 21  1  0
 21 22  2  0
 22 23  1  0
 23 24  2  0
 24 25  1  0
 25 26  1  0
 26 27  2  0
 26 28  2  0
 26 29  1  0
 29 30  1  0
 30 31  1  0
 31 32  1  0
 32 33  1  0
 33 34  1  0
 25 35  2  0
 18  4  1  0
 35 21  1  0
 15 10  1  0
 34 29  1  0
  5 36  1  0
 11 37  1  0
 11 38  1  0
 12 39  1  0
 12 40  1  0
 13 41  1  0
 13 42  1  0
 14 43  1  0
 14 44  1  0
 15 45  1  0
 15 46  1  0
 16 47  1  0
 17 48  1  0
 20 49  1  0
 22 50  1  0
 23 51  1  0
 24 52  1  0
 30 53  1  0
 30 54  1  0
 31 55  1  0
 31 56  1  0
 32 57  1  0
 32 58  1  0
 33 59  1  0
 33 60  1  0
 34 61  1  0
 34 62  1  0
 35 63  1  0
M  CHG  2   3  -1  19  -1
M  END
>  <UniqueID>  (4) 
4

>  <SMILES>  (4) 
O=C([N-]c1cc(S(=O)(=O)N2CCCCC2)ccc1[O-])Nc1cccc(S(=O)(=O)N2CCCCC2)c1

>  <Energy>  (4) 
77.23612269654626

>  <Genealogy>  (4) 
O=C([N-]c1cc(S(=O)(=O)N2CCCCC2)ccc1[O-])Nc1cccc(S(=O)(=O)N2CCCCC2)c1 (protonated)
O=C([N-]c1cc(S(=O)(=O)N2CCCCC2)ccc1[O-])Nc1cccc(S(=O)(=O)N2CCCCC2)c1 (3D coordinates assigned)
O=C([N-]c1cc(S(=O)(=O)N2CCCCC2)ccc1[O-])Nc1cccc(S(=O)(=O)N2CCCCC2)c1 (nonaromatic ring conformer: 77.23612269654626 kcal/mol)

>  <smiles>  (4) 
O=C(Nc1cccc(S(=O)(=O)N2CCCCC2)c1)Nc1cc(S(=O)(=O)N2CCCCC2)ccc1O

>  <score_type>  (4) 
oracle

>  <origin>  (4) 
adgpu

>  <m_score__min__energy>  (4) 
-15.25

>  <m_primary>  (4) 
energy

$$$$
4:0
     RDKit          3D

 51 53  0  0  0  0  0  0  0  0999 V2000
   -8.0010   18.8830  -31.5970 C   0  0  0  0  0  0  0  0  0  0  0  0
   -8.1590   20.0920  -32.5220 C   0  0  2  0  0  0  0  0  0  0  0  0
   -7.3860   19.8830  -33.7490 N   0  0  0  0  0  0  0  0  0  0  0  0
   -6.0970   19.2650  -33.7320 C   0  0  0  0  0  0  0  0  0  0  0  0
   -4.7800   19.6950  -33.6560 C   0  0  0  0  0  0  0  0  0  0  0  0
   -4.0980   20.9460  -33.5220 N   0  0  0  0  0  0  0  0  0  0  0  0
   -3.2020   21.2760  -32.4460 C   0  0  0  0  0  0  0  0  0  0  0  0
   -2.1460   20.3980  -32.1640 C   0  0  0  0  0  0  0  0  0  0  0  0
   -1.2780   20.6430  -31.1020 C   0  0  0  0  0  0  0  0  0  0  0  0
   -1.4570   21.7720  -30.3000 C   0  0  0  0  0  0  0  0  0  0  0  0
   -2.5130   22.6620  -30.5500 C   0  0  0  0  0  0  0  0  0  0  0  0
   -2.6370   23.8690  -29.7100 C   0  0  0  0  0  0  0  0  0  0  0  0
   -3.1220   24.9150  -30.2210 O   0  0  0  0  0  0  0  0  0  0  0  0
   -2.2030   23.8750  -28.3380 N   0  0  0  0  0  0  0  0  0  0  0  0
   -2.0510   22.6150  -27.6010 C   0  0  0  0  0  0  0  0  0  0  0  0
   -1.9740   25.1590  -27.6630 C   0  0  0  0  0  0  0  0  0  0  0  0
   -3.4070   22.4050  -31.6160 C   0  0  0  0  0  0  0  0  0  0  0  0
   -4.5180   23.2250  -31.8320 O   0  0  0  0  0  0  0  0  0  0  0  0
   -4.3530   18.3850  -33.7740 C   0  0  0  0  0  0  0  0  0  0  0  0
   -3.2310   17.8170  -33.8240 O   0  0  0  0  0  0  0  0  0  0  0  0
   -5.6620   17.9550  -33.7660 C   0  0  0  0  0  0  0  0  0  0  0  0
   -6.2280   16.8330  -33.8060 O   0  0  0  0  0  0  0  0  0  0  0  0
   -7.7230   21.3630  -31.8210 C   0  0  0  0  0  0  0  0  0  0  0  0
   -8.3780   22.5730  -32.0900 C   0  0  0  0  0  0  0  0  0  0  0  0
   -7.9650   23.7480  -31.4620 C   0  0  0  0  0  0  0  0  0  0  0  0
   -6.9170   23.7100  -30.5370 C   0  0  0  0  0  0  0  0  0  0  0  0
   -6.4080   24.9700  -29.9000 C   0  0  0  0  0  0  0  0  0  0  0  0
   -5.7780   25.7660  -30.8410 F   0  0  0  0  0  0  0  0  0  0  0  0
   -7.4530   25.6840  -29.3450 F   0  0  0  0  0  0  0  0  0  0  0  0
   -5.5060   24.6460  -28.9040 F   0  0  0  0  0  0  0  0  0  0  0  0
   -6.3140   22.5210  -30.2620 N   0  0  0  0  0  0  0  0  0  0  0  0
   -6.6940   21.3600  -30.8610 C   0  0  0  0  0  0  0  0  0  0  0  0
   -8.0444   19.2149  -30.5492 H   0  0  0  0  0  0  0  0  0  0  0  0
   -8.8131   18.1662  -31.7885 H   0  0  0  0  0  0  0  0  0  0  0  0
   -7.0320   18.3990  -31.7885 H   0  0  0  0  0  0  0  0  0  0  0  0
   -9.2210   20.2007  -32.7873 H   0  0  0  0  0  0  0  0  0  0  0  0
   -7.6210   20.4490  -34.5950 H   0  0  0  0  0  0  0  0  0  0  0  0
   -4.2520   21.6560  -34.2730 H   0  0  0  0  0  0  0  0  0  0  0  0
   -2.0009   19.5045  -32.7890 H   0  0  0  0  0  0  0  0  0  0  0  0
   -0.4516   19.9470  -30.8953 H   0  0  0  0  0  0  0  0  0  0  0  0
   -0.7656   21.9651  -29.4665 H   0  0  0  0  0  0  0  0  0  0  0  0
   -2.0754   22.8173  -26.5200 H   0  0  0  0  0  0  0  0  0  0  0  0
   -2.8735   21.9341  -27.8653 H   0  0  0  0  0  0  0  0  0  0  0  0
   -1.0902   22.1492  -27.8653 H   0  0  0  0  0  0  0  0  0  0  0  0
   -2.0005   25.0103  -26.5734 H   0  0  0  0  0  0  0  0  0  0  0  0
   -0.9908   25.5565  -27.9550 H   0  0  0  0  0  0  0  0  0  0  0  0
   -2.7592   25.8719  -27.9550 H   0  0  0  0  0  0  0  0  0  0  0  0
   -4.8430   23.9080  -31.1560 H   0  0  0  0  0  0  0  0  0  0  0  0
   -9.2196   22.5958  -32.7980 H   0  0  0  0  0  0  0  0  0  0  0  0
   -8.4621   24.7015  -31.6937 H   0  0  0  0  0  0  0  0  0  0  0  0
   -6.1955   20.4164  -30.5942 H   0  0  0  0  0  0  0  0  0  0  0  0
  1  2  1  0
  2  3  1  0
  3  4  1  0
  4  5  2  0
  5  6  1  0
  6  7  1  0
  7  8  2  0
  8  9  1  0
  9 10  2  0
 10 11  1  0
 11 12  1  0
 12 13  2  0
 12 14  1  0
 14 15  1  0
 14 16  1  0
 11 17  2  0
 17 18  1  0
  5 19  1  0
 19 20  2  0
 19 21  1  0
 21 22  2  0
  2 23  1  0
 23 24  2  0
 24 25  1  0
 25 26  2  0
 26 27  1  0
 27 28  1  0
 27 29  1  0
 27 30  1  0
 26 31  1  0
 31 32  2  0
 21  4  1  0
 32 23  1  0
 17  7  1  0
  1 33  1  0
  1 34  1  0
  1 35  1  0
  2 36  1  6
  3 37  1  0
  6 38  1  0
  8 39  1  0
  9 40  1  0
 10 41  1  0
 15 42  1  0
 15 43  1  0
 15 44  1  0
 16 45  1  0
 16 46  1  0
 16 47  1  0
 18 48  1  0
 24 49  1  0
 25 50  1  0
 32 51  1  0
M  END
>  <UniqueID>  (5) 
5

>  <SMILES>  (5) 
C[C@H](Nc1c(Nc2cccc(C(=O)N(C)C)c2O)c(=O)c1=O)c1ccc(C(F)(F)F)nc1

>  <Energy>  (5) 
48.34882606753613

>  <Genealogy>  (5) 
C[C@H](Nc1c(Nc2cccc(C(=O)N(C)C)c2O)c(=O)c1=O)c1ccc(C(F)(F)F)nc1 (chirality)
C[C@H](Nc1c(Nc2cccc(C(=O)N(C)C)c2O)c(=O)c1=O)c1ccc(C(F)(F)F)nc1 (3D coordinates assigned)
C[C@H](Nc1c(Nc2cccc(C(=O)N(C)C)c2O)c(=O)c1=O)c1ccc(C(F)(F)F)nc1 (optimized conformer: 48.34882606753613 kcal/mol)

>  <smiles>  (5) 
CC(Nc1c(Nc2cccc(C(=O)N(C)C)c2O)c(=O)c1=O)c1ccc(C(F)(F)F)nc1

>  <score_type>  (5) 
oracle

>  <origin>  (5) 
adgpu

>  <m_score__min__energy>  (5) 
-9.3399999999999999

>  <m_primary>  (5) 
energy

$$$$
5:0
     RDKit          3D

 45 47  0  0  0  0  0  0  0  0999 V2000
   -7.8660   18.8300  -32.5930 C   0  0  0  0  0  0  0  0  0  0  0  0
   -7.7190   20.1430  -33.1250 O   0  0  0  0  0  0  0  0  0  0  0  0
   -7.1740   21.2290  -32.4220 C   0  0  0  0  0  0  0  0  0  0  0  0
   -7.9810   22.1570  -31.7370 C   0  0  0  0  0  0  0  0  0  0  0  0
   -7.4020   23.2230  -31.0480 C   0  0  0  0  0  0  0  0  0  0  0  0
   -6.0140   23.3840  -31.0350 C   0  0  0  0  0  0  0  0  0  0  0  0
   -5.3040   24.7240  -30.1390 S   0  0  0  0  0  0  0  0  0  0  0  0
   -4.1730   25.3500  -30.9060 O   0  0  0  0  0  0  0  0  0  0  0  0
   -6.3600   25.7660  -29.9050 O   0  0  0  0  0  0  0  0  0  0  0  0
   -4.7150   24.1590  -28.6090 N   0  0  0  0  0  0  0  0  0  0  0  0
   -3.5030   23.4170  -28.4080 C   0  0  0  0  0  0  0  0  0  0  0  0
   -3.5050   22.1280  -27.8420 C   0  0  0  0  0  0  0  0  0  0  0  0
   -2.3030   21.4310  -27.6640 C   0  0  0  0  0  0  0  0  0  0  0  0
   -1.0870   22.0140  -28.0520 C   0  0  0  0  0  0  0  0  0  0  0  0
   -1.0830   23.3000  -28.6080 C   0  0  0  0  0  0  0  0  0  0  0  0
   -2.2840   23.9990  -28.7890 C   0  0  0  0  0  0  0  0  0  0  0  0
   -2.2730   25.2820  -29.3380 O   0  0  0  0  0  0  0  0  0  0  0  0
    0.2060   21.2940  -27.7630 C   0  0  0  0  0  0  0  0  0  0  0  0
    0.1100   19.7580  -27.9210 C   0  0  0  0  0  0  0  0  0  0  0  0
   -1.3180   19.1680  -27.8280 C   0  0  0  0  0  0  0  0  0  0  0  0
   -2.2810   20.0620  -27.0420 C   0  0  0  0  0  0  0  0  0  0  0  0
   -5.2040   22.4680  -31.7170 C   0  0  0  0  0  0  0  0  0  0  0  0
   -5.7790   21.3830  -32.4080 C   0  0  0  0  0  0  0  0  0  0  0  0
   -4.9970   20.4350  -33.0880 O   0  0  0  0  0  0  0  0  0  0  0  0
   -3.5740   20.4330  -33.1140 C   0  0  0  0  0  0  0  0  0  0  0  0
   -7.8607   18.8770  -31.4940 H   0  0  0  0  0  0  0  0  0  0  0  0
   -8.8180   18.3994  -32.9371 H   0  0  0  0  0  0  0  0  0  0  0  0
   -7.0328   18.1996  -32.9371 H   0  0  0  0  0  0  0  0  0  0  0  0
   -9.0748   22.0409  -31.7450 H   0  0  0  0  0  0  0  0  0  0  0  0
   -8.0412   23.9403  -30.5124 H   0  0  0  0  0  0  0  0  0  0  0  0
   -4.4556   21.6656  -27.5379 H   0  0  0  0  0  0  0  0  0  0  0  0
   -0.1308   23.7641  -28.9044 H   0  0  0  0  0  0  0  0  0  0  0  0
   -3.1100   25.7020  -29.7230 H   0  0  0  0  0  0  0  0  0  0  0  0
    0.9741   21.6673  -28.4563 H   0  0  0  0  0  0  0  0  0  0  0  0
    0.4579   21.4943  -26.7111 H   0  0  0  0  0  0  0  0  0  0  0  0
    0.5236   19.4917  -28.9049 H   0  0  0  0  0  0  0  0  0  0  0  0
    0.6695   19.3312  -27.0755 H   0  0  0  0  0  0  0  0  0  0  0  0
   -1.7115   19.0386  -28.8470 H   0  0  0  0  0  0  0  0  0  0  0  0
   -1.2455   18.2096  -27.2929 H   0  0  0  0  0  0  0  0  0  0  0  0
   -3.2916   19.6286  -27.0704 H   0  0  0  0  0  0  0  0  0  0  0  0
   -1.9469   20.1361  -25.9966 H   0  0  0  0  0  0  0  0  0  0  0  0
   -4.1115   22.5962  -31.7133 H   0  0  0  0  0  0  0  0  0  0  0  0
   -3.1885   20.4325  -32.0838 H   0  0  0  0  0  0  0  0  0  0  0  0
   -3.2181   19.5344  -33.6392 H   0  0  0  0  0  0  0  0  0  0  0  0
   -3.2156   21.3306  -33.6392 H   0  0  0  0  0  0  0  0  0  0  0  0
  1  2  1  0
  2  3  1  0
  3  4  2  0
  4  5  1  0
  5  6  2  0
  6  7  1  0
  7  8  2  0
  7  9  2  0
  7 10  1  0
 10 11  1  0
 11 12  2  0
 12 13  1  0
 13 14  2  0
 14 15  1  0
 15 16  2  0
 16 17  1  0
 14 18  1  0
 18 19  1  0
 19 20  1  0
 20 21  1  0
  6 22  1  0
 22 23  2  0
 23 24  1  0
 24 25  1  0
 23  3  1  0
 16 11  1  0
 21 13  1  0
  1 26  1  0
  1 27  1  0
  1 28  1  0
  4 29  1  0
  5 30  1  0
 12 31  1  0
 15 32  1  0
 17 33  1  0
 18 34  1  0
 18 35  1  0
 19 36  1  0
 19 37  1  0
 20 38  1  0
 20 39  1  0
 21 40  1  0
 21 41  1  0
 22 42  1  0
 25 43  1  0
 25 44  1  0
 25 45  1  0
M  CHG  1  10  -1
M  END
>  <UniqueID>  (6) 
6

>  <SMILES>  (6) 
COc1ccc(S(=O)(=O)[N-]c2cc3c(cc2O)CCCC3)cc1OC

>  <Energy>  (6) 
52.176594178089985

>  <Genealogy>  (6) 
COc1ccc(S(=O)(=O)[N-]c2cc3c(cc2O)CCCC3)cc1OC (protonated)
COc1ccc(S(=O)(=O)[N-]c2cc3c(cc2O)CCCC3)cc1OC (3D coordinates assigned)
COc1ccc(S(=O)(=O)[N-]c2cc3c(cc2O)CCCC3)cc1OC (nonaromatic ring conformer: 52.176594178089985 kcal/mol)

>  <smiles>  (6) 
COc1ccc(S(=O)(=O)Nc2cc3c(cc2O)CCCC3)cc1OC

>  <score_type>  (6) 
oracle

>  <origin>  (6) 
adgpu

>  <m_score__min__energy>  (6) 
-10.02

>  <m_primary>  (6) 
energy

$$$$
6:0
     RDKit          3D

 48 50  0  0  0  0  0  0  0  0999 V2000
   -3.1150   26.0520  -29.3560 H   0  0  0  0  0  0  0  0  0  0  0  0
   -3.0970   25.1330  -29.7800 O   0  0  0  0  0  0  0  0  0  0  0  0
   -4.2390   24.5300  -30.3090 C   0  0  0  0  0  0  0  0  0  0  0  0
   -5.3830   25.3030  -30.5670 C   0  0  0  0  0  0  0  0  0  0  0  0
   -5.3930   26.6650  -30.2850 O   0  0  0  0  0  0  0  0  0  0  0  0
   -6.5220   24.7120  -31.1090 C   0  0  0  0  0  0  0  0  0  0  0  0
   -7.4185   25.3207  -31.2982 H   0  0  0  0  0  0  0  0  0  0  0  0
   -6.5290   23.3530  -31.4120 C   0  0  0  0  0  0  0  0  0  0  0  0
   -7.4305   22.8968  -31.8469 H   0  0  0  0  0  0  0  0  0  0  0  0
   -5.3970   22.5590  -31.1680 C   0  0  0  0  0  0  0  0  0  0  0  0
   -5.4360   21.1290  -31.5380 C   0  0  0  0  0  0  0  0  0  0  0  0
   -5.2101   20.3687  -30.7759 H   0  0  0  0  0  0  0  0  0  0  0  0
   -5.7410   20.7400  -32.7830 C   0  0  0  0  0  0  0  0  0  0  0  0
   -5.8477   21.5119  -33.5594 H   0  0  0  0  0  0  0  0  0  0  0  0
   -5.9420   19.3240  -33.1680 C   0  0  0  0  0  0  0  0  0  0  0  0
   -6.7130   18.5020  -32.3320 C   0  0  0  0  0  0  0  0  0  0  0  0
   -7.1615   18.9206  -31.4190 H   0  0  0  0  0  0  0  0  0  0  0  0
   -6.9160   17.1570  -32.6490 C   0  0  0  0  0  0  0  0  0  0  0  0
   -7.5159   16.5238  -31.9788 H   0  0  0  0  0  0  0  0  0  0  0  0
   -6.3620   16.6060  -33.8140 C   0  0  0  0  0  0  0  0  0  0  0  0
   -6.5890   15.2160  -34.1130 N   0  0  0  0  0  0  0  0  0  0  0  0
   -7.5090   14.9310  -34.5200 H   0  0  0  0  0  0  0  0  0  0  0  0
   -5.5990   14.1700  -33.8840 C   0  0  0  0  0  0  0  0  0  0  0  0
   -5.4620   14.0253  -32.8022 H   0  0  0  0  0  0  0  0  0  0  0  0
   -5.9464   13.2305  -34.3385 H   0  0  0  0  0  0  0  0  0  0  0  0
   -4.6418   14.4652  -34.3385 H   0  0  0  0  0  0  0  0  0  0  0  0
   -5.6010   17.4310  -34.6620 C   0  0  0  0  0  0  0  0  0  0  0  0
   -5.1647   17.0142  -35.5817 H   0  0  0  0  0  0  0  0  0  0  0  0
   -5.3950   18.7780  -34.3440 C   0  0  0  0  0  0  0  0  0  0  0  0
   -4.8018   19.4141  -35.0175 H   0  0  0  0  0  0  0  0  0  0  0  0
   -4.2420   23.1440  -30.5850 C   0  0  0  0  0  0  0  0  0  0  0  0
   -2.8020   22.1730  -30.1860 S   0  0  0  0  0  0  0  0  0  0  0  0
   -2.5170   21.1420  -31.2420 O   0  0  0  0  0  0  0  0  0  0  0  0
   -3.0910   21.4560  -28.8990 O   0  0  0  0  0  0  0  0  0  0  0  0
   -1.3690   23.1290  -29.9540 N   0  0  0  0  0  0  0  0  0  0  0  0
   -0.9830   23.8380  -28.9310 C   0  0  0  0  0  0  0  0  0  0  0  0
    0.1640   24.4750  -28.9400 O   0  0  0  0  0  0  0  0  0  0  0  0
    0.3800   25.0830  -27.8100 N   0  0  0  0  0  0  0  0  0  0  0  0
   -0.6790   24.8320  -27.0190 C   0  0  0  0  0  0  0  0  0  0  0  0
   -0.7990   25.3440  -25.6210 C   0  0  0  0  0  0  0  0  0  0  0  0
   -0.6070   24.5246  -24.9127 H   0  0  0  0  0  0  0  0  0  0  0  0
   -0.0648   26.1472  -25.4604 H   0  0  0  0  0  0  0  0  0  0  0  0
   -1.8137   25.7373  -25.4604 H   0  0  0  0  0  0  0  0  0  0  0  0
   -1.6040   24.0510  -27.6990 C   0  0  0  0  0  0  0  0  0  0  0  0
   -2.8870   23.5280  -27.1260 C   0  0  0  0  0  0  0  0  0  0  0  0
   -2.8337   23.5497  -26.0275 H   0  0  0  0  0  0  0  0  0  0  0  0
   -3.7233   24.1570  -27.4651 H   0  0  0  0  0  0  0  0  0  0  0  0
   -3.0452   22.4936  -27.4651 H   0  0  0  0  0  0  0  0  0  0  0  0
  1  2  1  0
  2  3  1  0
  3  4  2  0
  4  5  1  0
  4  6  1  0
  6  7  1  0
  6  8  2  0
  8  9  1  0
  8 10  1  0
 10 11  1  0
 11 12  1  0
 11 13  2  3
 13 14  1  0
 13 15  1  0
 15 16  2  0
 16 17  1  0
 16 18  1  0
 18 19  1  0
 18 20  2  0
 20 21  1  0
 21 22  1  0
 21 23  1  0
 23 24  1  0
 23 25  1  0
 23 26  1  0
 20 27  1  0
 27 28  1  0
 27 29  2  0
 29 30  1  0
 10 31  2  0
 31 32  1  0
 32 33  2  0
 32 34  2  0
 32 35  1  0
 35 36  2  0
 36 37  1  0
 37 38  1  0
 38 39  1  0
 39 40  1  0
 40 41  1  0
 40 42  1  0
 40 43  1  0
 39 44  2  0
 44 45  1  0
 45 46  1  0
 45 47  1  0
 45 48  1  0
 31  3  1  0
 44 36  1  0
 29 15  1  0
M  CHG  2   5  -1  38  -1
M  END
>  <UniqueID>  (7) 
7

>  <SMILES>  (7) 
CNc1ccc(C=Cc2ccc([O-])c(O)c2S(=O)(=O)/N=c2/o[n-]c(C)c2C)cc1

>  <Energy>  (7) 
95.55168146960513

>  <Genealogy>  (7) 
CNc1ccc(C=Cc2ccc([O-])c(O)c2S(=O)(=O)N=c2o[n-]c(C)c2C)cc1 (protonated)
CNc1ccc(C=Cc2ccc([O-])c(O)c2S(=O)(=O)/N=c2/o[n-]c(C)c2C)cc1 (cis-trans isomerization)
CNc1ccc(C=Cc2ccc([O-])c(O)c2S(=O)(=O)/N=c2/o[n-]c(C)c2C)cc1 (3D coordinates assigned)
CNc1ccc(C=Cc2ccc([O-])c(O)c2S(=O)(=O)/N=c2/o[n-]c(C)c2C)cc1 (optimized conformer: 95.55168146960513 kcal/mol)

>  <smiles>  (7) 
CNc1ccc(C=Cc2ccc(O)c(O)c2S(=O)(=O)N=c2o[nH]c(C)c2C)cc1

>  <score_type>  (7) 
oracle

>  <origin>  (7) 
adgpu

>  <m_score__min__energy>  (7) 
-11.359999999999999

>  <m_primary>  (7) 
energy

$$$$
7:0
     RDKit          3D

 40 41  0  0  0  0  0  0  0  0999 V2000
   -4.1140   23.0760  -27.2390 O   0  0  0  0  0  0  0  0  0  0  0  0
   -3.8190   22.8820  -28.4490 C   0  0  0  0  0  0  0  0  0  0  0  0
   -2.6600   22.0990  -28.7580 N   0  0  0  0  0  0  0  0  0  0  0  0
   -2.1940   21.8050  -30.1090 C   0  0  0  0  0  0  0  0  0  0  0  0
   -0.9060   22.5740  -30.3940 C   0  0  0  0  0  0  0  0  0  0  0  0
   -0.8930   23.7910  -29.6980 O   0  0  0  0  0  0  0  0  0  0  0  0
   -4.6910   23.4440  -29.5010 C   0  0  0  0  0  0  0  0  0  0  0  0
   -5.8730   22.7780  -29.8640 C   0  0  0  0  0  0  0  0  0  0  0  0
   -6.6970   23.2920  -30.8750 C   0  0  0  0  0  0  0  0  0  0  0  0
   -8.1730   22.4390  -31.3360 S   0  0  0  0  0  0  0  0  0  0  0  0
   -8.8670   21.9440  -30.0970 O   0  0  0  0  0  0  0  0  0  0  0  0
   -9.0990   23.3940  -32.0370 O   0  0  0  0  0  0  0  0  0  0  0  0
   -7.8300   21.0890  -32.3930 N   0  0  0  0  0  0  0  0  0  0  0  0
   -6.3740   20.9470  -32.6460 C   0  0  0  0  0  0  0  0  0  0  0  0
   -5.7360   19.8010  -31.8460 C   0  0  0  0  0  0  0  0  0  0  0  0
   -6.4080   18.4550  -32.1700 C   0  0  0  0  0  0  0  0  0  0  0  0
   -7.8970   18.6060  -32.5320 C   0  0  0  0  0  0  0  0  0  0  0  0
   -8.4940   19.8640  -31.8940 C   0  0  0  0  0  0  0  0  0  0  0  0
   -6.3360   24.4790  -31.5250 C   0  0  0  0  0  0  0  0  0  0  0  0
   -5.1530   25.1370  -31.1810 C   0  0  0  0  0  0  0  0  0  0  0  0
   -4.3270   24.6230  -30.1770 C   0  0  0  0  0  0  0  0  0  0  0  0
   -3.1550   25.2950  -29.8490 O   0  0  0  0  0  0  0  0  0  0  0  0
   -2.0025   20.7258  -30.2019 H   0  0  0  0  0  0  0  0  0  0  0  0
   -2.9649   22.1097  -30.8321 H   0  0  0  0  0  0  0  0  0  0  0  0
   -0.0451   21.9671  -30.0770 H   0  0  0  0  0  0  0  0  0  0  0  0
   -0.8487   22.7820  -31.4726 H   0  0  0  0  0  0  0  0  0  0  0  0
   -1.8320   23.9790  -29.4350 H   0  0  0  0  0  0  0  0  0  0  0  0
   -6.1543   21.8463  -29.3513 H   0  0  0  0  0  0  0  0  0  0  0  0
   -6.2215   20.7538  -33.7181 H   0  0  0  0  0  0  0  0  0  0  0  0
   -5.8910   21.8818  -32.3251 H   0  0  0  0  0  0  0  0  0  0  0  0
   -4.6672   19.7385  -32.0987 H   0  0  0  0  0  0  0  0  0  0  0  0
   -5.8695   20.0080  -30.7739 H   0  0  0  0  0  0  0  0  0  0  0  0
   -5.8838   17.9958  -33.0211 H   0  0  0  0  0  0  0  0  0  0  0  0
   -6.3473   17.8278  -31.2684 H   0  0  0  0  0  0  0  0  0  0  0  0
   -7.9957   18.6760  -33.6253 H   0  0  0  0  0  0  0  0  0  0  0  0
   -8.4403   17.7289  -32.1505 H   0  0  0  0  0  0  0  0  0  0  0  0
   -9.5659   19.9139  -32.1360 H   0  0  0  0  0  0  0  0  0  0  0  0
   -8.3420   19.8062  -30.8061 H   0  0  0  0  0  0  0  0  0  0  0  0
   -6.9863   24.8944  -32.3090 H   0  0  0  0  0  0  0  0  0  0  0  0
   -4.8701   26.0634  -31.7022 H   0  0  0  0  0  0  0  0  0  0  0  0
  1  2  2  0
  2  3  1  0
  3  4  1  0
  4  5  1  0
  5  6  1  0
  2  7  1  0
  7  8  2  0
  8  9  1  0
  9 10  1  0
 10 11  2  0
 10 12  2  0
 10 13  1  0
 13 14  1  0
 14 15  1  0
 15 16  1  0
 16 17  1  0
 17 18  1  0
  9 19  2  0
 19 20  1  0
 20 21  2  0
 21 22  1  0
 21  7  1  0
 18 13  1  0
  4 23  1  0
  4 24  1  0
  5 25  1  0
  5 26  1  0
  6 27  1  0
  8 28  1  0
 14 29  1  0
 14 30  1  0
 15 31  1  0
 15 32  1  0
 16 33  1  0
 16 34  1  0
 17 35  1  0
 17 36  1  0
 18 37  1  0
 18 38  1  0
 19 39  1  0
 20 40  1  0
M  CHG  2   3  -1  22  -1
M  END
>  <UniqueID>  (8) 
8

>  <SMILES>  (8) 
O=C([N-]CCO)c1cc(S(=O)(=O)N2CCCCC2)ccc1[O-]

>  <Energy>  (8) 
45.18390586742176

>  <Genealogy>  (8) 
O=C([N-]CCO)c1cc(S(=O)(=O)N2CCCCC2)ccc1[O-] (protonated)
O=C([N-]CCO)c1cc(S(=O)(=O)N2CCCCC2)ccc1[O-] (3D coordinates assigned)
O=C([N-]CCO)c1cc(S(=O)(=O)N2CCCCC2)ccc1[O-] (nonaromatic ring conformer: 45.18390586742176 kcal/mol)

>  <smiles>  (8) 
O=C(NCCO)c1cc(S(=O)(=O)N2CCCCC2)ccc1O

>  <score_type>  (8) 
oracle

>  <origin>  (8) 
adgpu

>  <m_score__min__energy>  (8) 
-12.140000000000001

>  <m_primary>  (8) 
energy

$$$$
8:0
     RDKit          3D

 45 48  0  0  0  0  0  0  0  0999 V2000
   -7.2040   15.4090  -34.2320 C   0  0  0  0  0  0  0  0  0  0  0  0
   -6.3850   16.6200  -33.7760 C   0  0  2  0  0  0  0  0  0  0  0  0
   -7.1800   17.4840  -32.7790 C   0  0  0  0  0  0  0  0  0  0  0  0
   -6.5400   18.7960  -32.5280 N   0  0  0  0  0  0  0  0  0  0  0  0
   -7.4400   19.9660  -32.6130 C   0  0  0  0  0  0  0  0  0  0  0  0
   -6.8440   21.2230  -32.0460 C   0  0  0  0  0  0  0  0  0  0  0  0
   -7.4080   22.4940  -32.0880 C   0  0  0  0  0  0  0  0  0  0  0  0
   -6.6290   23.4680  -31.4550 C   0  0  0  0  0  0  0  0  0  0  0  0
   -5.4580   22.9600  -30.9030 C   0  0  0  0  0  0  0  0  0  0  0  0
   -4.4410   23.7340  -30.1830 C   0  0  0  0  0  0  0  0  0  0  0  0
   -4.0380   24.9660  -30.5500 N   0  0  0  0  0  0  0  0  0  0  0  0
   -3.1370   25.2940  -29.6760 O   0  0  0  0  0  0  0  0  0  0  0  0
   -2.9820   24.3200  -28.8110 C   0  0  0  0  0  0  0  0  0  0  0  0
   -2.0310   24.3550  -27.6820 C   0  0  0  0  0  0  0  0  0  0  0  0
   -1.1040   23.3160  -27.5100 C   0  0  0  0  0  0  0  0  0  0  0  0
   -0.2060   23.3410  -26.4390 C   0  0  0  0  0  0  0  0  0  0  0  0
   -0.2200   24.4010  -25.5270 C   0  0  0  0  0  0  0  0  0  0  0  0
    0.6910   24.3870  -24.4700 O   0  0  0  0  0  0  0  0  0  0  0  0
   -1.1460   25.4480  -25.6940 C   0  0  0  0  0  0  0  0  0  0  0  0
   -1.2130   26.8050  -24.5750 Cl  0  0  0  0  0  0  0  0  0  0  0  0
   -2.0450   25.4210  -26.7670 C   0  0  0  0  0  0  0  0  0  0  0  0
   -3.7990   23.2830  -29.0850 N   0  0  0  0  0  0  0  0  0  0  0  0
   -5.3920   21.3050  -31.1960 S   0  0  0  0  0  0  0  0  0  0  0  0
   -5.1920   18.9890  -33.1060 C   0  0  0  0  0  0  0  0  0  0  0  0
   -5.0700   18.5100  -34.5730 C   0  0  0  0  0  0  0  0  0  0  0  0
   -5.9980   17.4270  -34.9370 N   0  0  0  0  0  0  0  0  0  0  0  0
   -7.5731   14.8633  -33.3511 H   0  0  0  0  0  0  0  0  0  0  0  0
   -8.0576   15.7501  -34.8362 H   0  0  0  0  0  0  0  0  0  0  0  0
   -6.5696   14.7438  -34.8362 H   0  0  0  0  0  0  0  0  0  0  0  0
   -5.4815   16.2518  -33.2680 H   0  0  0  0  0  0  0  0  0  0  0  0
   -8.1875   17.6553  -33.1860 H   0  0  0  0  0  0  0  0  0  0  0  0
   -7.2165   16.9419  -31.8225 H   0  0  0  0  0  0  0  0  0  0  0  0
   -7.6827   20.1424  -33.6713 H   0  0  0  0  0  0  0  0  0  0  0  0
   -8.3322   19.7321  -32.0137 H   0  0  0  0  0  0  0  0  0  0  0  0
   -8.3718   22.7116  -32.5715 H   0  0  0  0  0  0  0  0  0  0  0  0
   -6.9139   24.5290  -31.3994 H   0  0  0  0  0  0  0  0  0  0  0  0
   -1.0837   22.4774  -28.2216 H   0  0  0  0  0  0  0  0  0  0  0  0
    0.5166   22.5213  -26.3128 H   0  0  0  0  0  0  0  0  0  0  0  0
    0.4210   24.1800  -23.5170 H   0  0  0  0  0  0  0  0  0  0  0  0
   -2.7676   26.2405  -26.8945 H   0  0  0  0  0  0  0  0  0  0  0  0
   -4.9485   20.0611  -33.0693 H   0  0  0  0  0  0  0  0  0  0  0  0
   -4.4963   18.3802  -32.5099 H   0  0  0  0  0  0  0  0  0  0  0  0
   -5.2665   19.3680  -35.2328 H   0  0  0  0  0  0  0  0  0  0  0  0
   -4.0537   18.1052  -34.6881 H   0  0  0  0  0  0  0  0  0  0  0  0
   -6.8550   17.8460  -35.3660 H   0  0  0  0  0  0  0  0  0  0  0  0
  1  2  1  0
  2  3  1  0
  3  4  1  0
  4  5  1  0
  5  6  1  0
  6  7  2  0
  7  8  1  0
  8  9  2  0
  9 10  1  0
 10 11  2  0
 11 12  1  0
 12 13  1  0
 13 14  1  0
 14 15  2  0
 15 16  1  0
 16 17  2  0
 17 18  1  0
 17 19  1  0
 19 20  1  0
 19 21  2  0
 13 22  2  0
  9 23  1  0
  4 24  1  0
 24 25  1  0
 25 26  1  0
 26  2  1  0
 23  6  1  0
 22 10  1  0
 21 14  1  0
  1 27  1  0
  1 28  1  0
  1 29  1  0
  2 30  1  1
  3 31  1  0
  3 32  1  0
  5 33  1  0
  5 34  1  0
  7 35  1  0
  8 36  1  0
 15 37  1  0
 16 38  1  0
 18 39  1  0
 21 40  1  0
 24 41  1  0
 24 42  1  0
 25 43  1  0
 25 44  1  0
 26 45  1  0
M  END
>  <UniqueID>  (9) 
9

>  <SMILES>  (9) 
C[C@@H]1CN(Cc2ccc(-c3noc(-c4ccc(O)c(Cl)c4)n3)s2)CCN1

>  <Energy>  (9) 
118.74338485204161

>  <Genealogy>  (9) 
C[C@@H]1CN(Cc2ccc(-c3noc(-c4ccc(O)c(Cl)c4)n3)s2)CCN1 (chirality)
C[C@@H]1CN(Cc2ccc(-c3noc(-c4ccc(O)c(Cl)c4)n3)s2)CCN1 (3D coordinates assigned)
C[C@@H]1CN(Cc2ccc(-c3noc(-c4ccc(O)c(Cl)c4)n3)s2)CCN1 (nonaromatic ring conformer: 118.74338485204161 kcal/mol)

>  <smiles>  (9) 
CC1CN(Cc2ccc(-c3noc(-c4ccc(O)c(Cl)c4)n3)s2)CCN1

>  <score_type>  (9) 
oracle

>  <origin>  (9) 
adgpu

>  <m_score__min__energy>  (9) 
-10.23

>  <m_primary>  (9) 
energy

$$$$
9:0
     RDKit          3D

 53 56  0  0  0  0  0  0  0  0999 V2000
   -4.4350   24.5370  -27.8640 O   0  0  0  0  0  0  0  0  0  0  0  0
   -4.0760   24.4050  -29.0660 C   0  0  0  0  0  0  0  0  0  0  0  0
   -2.8110   24.9060  -29.5100 N   0  0  0  0  0  0  0  0  0  0  0  0
   -1.6090   25.0220  -28.7340 C   0  0  0  0  0  0  0  0  0  0  0  0
   -1.2030   26.2460  -28.1720 C   0  0  0  0  0  0  0  0  0  0  0  0
   -0.0140   26.3230  -27.4400 C   0  0  0  0  0  0  0  0  0  0  0  0
    0.7830   25.1880  -27.2730 C   0  0  0  0  0  0  0  0  0  0  0  0
    0.3970   23.9740  -27.8450 C   0  0  0  0  0  0  0  0  0  0  0  0
   -0.7920   23.8900  -28.5810 C   0  0  0  0  0  0  0  0  0  0  0  0
   -1.1870   22.6420  -29.1620 N   0  0  0  0  0  0  0  0  0  0  0  0
   -1.9540   21.6850  -28.3660 C   0  0  0  0  0  0  0  0  0  0  0  0
   -2.7970   20.8090  -29.2970 C   0  0  0  0  0  0  0  0  0  0  0  0
   -1.9940   20.2370  -30.3130 O   0  0  0  0  0  0  0  0  0  0  0  0
   -1.4810   21.2560  -31.1520 C   0  0  0  0  0  0  0  0  0  0  0  0
   -0.5260   22.1700  -30.3780 C   0  0  0  0  0  0  0  0  0  0  0  0
   -4.9160   23.6010  -30.0210 C   0  0  0  0  0  0  0  0  0  0  0  0
   -4.0940   23.1020  -31.2140 C   0  0  0  0  0  0  0  0  0  0  0  0
   -4.9650   22.2220  -32.1290 C   0  0  0  0  0  0  0  0  0  0  0  0
   -6.3210   22.7730  -32.3860 N   0  0  0  0  0  0  0  0  0  0  0  0
   -7.5860   21.7290  -31.7750 S   0  0  0  0  0  0  0  0  0  0  0  0
   -7.5940   21.7320  -30.2720 O   0  0  0  0  0  0  0  0  0  0  0  0
   -8.9290   22.1900  -32.2690 O   0  0  0  0  0  0  0  0  0  0  0  0
   -7.3130   20.0940  -32.3460 C   0  0  0  0  0  0  0  0  0  0  0  0
   -6.4930   19.7380  -33.4050 C   0  0  0  0  0  0  0  0  0  0  0  0
   -6.4540   18.3560  -33.6230 C   0  0  0  0  0  0  0  0  0  0  0  0
   -7.2400   17.6290  -32.7360 C   0  0  0  0  0  0  0  0  0  0  0  0
   -7.9830   18.7060  -31.6770 S   0  0  0  0  0  0  0  0  0  0  0  0
   -6.5100   24.1730  -31.9620 C   0  0  0  0  0  0  0  0  0  0  0  0
   -6.1510   24.4100  -30.4820 C   0  0  0  0  0  0  0  0  0  0  0  0
   -1.8223   27.1447  -28.3087 H   0  0  0  0  0  0  0  0  0  0  0  0
    0.2946   27.2802  -26.9944 H   0  0  0  0  0  0  0  0  0  0  0  0
    1.7144   25.2505  -26.6911 H   0  0  0  0  0  0  0  0  0  0  0  0
    1.0278   23.0819  -27.7174 H   0  0  0  0  0  0  0  0  0  0  0  0
   -1.2642   21.0506  -27.7900 H   0  0  0  0  0  0  0  0  0  0  0  0
   -2.6149   22.2284  -27.6747 H   0  0  0  0  0  0  0  0  0  0  0  0
   -3.2637   20.0041  -28.7102 H   0  0  0  0  0  0  0  0  0  0  0  0
   -3.5683   21.4359  -29.7683 H   0  0  0  0  0  0  0  0  0  0  0  0
   -0.9380   20.7939  -31.9896 H   0  0  0  0  0  0  0  0  0  0  0  0
   -2.3207   21.8601  -31.5261 H   0  0  0  0  0  0  0  0  0  0  0  0
    0.3815   21.6096  -30.1089 H   0  0  0  0  0  0  0  0  0  0  0  0
   -0.2508   23.0307  -31.0053 H   0  0  0  0  0  0  0  0  0  0  0  0
   -5.2762   22.7113  -29.4837 H   0  0  0  0  0  0  0  0  0  0  0  0
   -3.7229   23.9652  -31.7860 H   0  0  0  0  0  0  0  0  0  0  0  0
   -3.2476   22.5058  -30.8424 H   0  0  0  0  0  0  0  0  0  0  0  0
   -4.4489   22.1095  -33.0939 H   0  0  0  0  0  0  0  0  0  0  0  0
   -5.1048   21.2630  -31.6087 H   0  0  0  0  0  0  0  0  0  0  0  0
   -5.9319   20.4650  -34.0105 H   0  0  0  0  0  0  0  0  0  0  0  0
   -5.8578   17.8891  -34.4208 H   0  0  0  0  0  0  0  0  0  0  0  0
   -7.3566   16.5352  -32.7277 H   0  0  0  0  0  0  0  0  0  0  0  0
   -5.8712   24.8167  -32.5846 H   0  0  0  0  0  0  0  0  0  0  0  0
   -7.5771   24.4112  -32.0830 H   0  0  0  0  0  0  0  0  0  0  0  0
   -5.9416   25.4804  -30.3395 H   0  0  0  0  0  0  0  0  0  0  0  0
   -7.0073   24.0743  -29.8786 H   0  0  0  0  0  0  0  0  0  0  0  0
  1  2  2  0
  2  3  1  0
  3  4  1  0
  4  5  2  0
  5  6  1  0
  6  7  2  0
  7  8  1  0
  8  9  2  0
  9 10  1  0
 10 11  1  0
 11 12  1  0
 12 13  1  0
 13 14  1  0
 14 15  1  0
  2 16  1  0
 16 17  1  0
 17 18  1  0
 18 19  1  0
 19 20  1  0
 20 21  2  0
 20 22  2  0
 20 23  1  0
 23 24  2  0
 24 25  1  0
 25 26  2  0
 26 27  1  0
 19 28  1  0
 28 29  1  0
  9  4  1  0
 15 10  1  0
 29 16  1  0
 27 23  1  0
  5 30  1  0
  6 31  1  0
  7 32  1  0
  8 33  1  0
 11 34  1  0
 11 35  1  0
 12 36  1  0
 12 37  1  0
 14 38  1  0
 14 39  1  0
 15 40  1  0
 15 41  1  0
 16 42  1  0
 17 43  1  0
 17 44  1  0
 18 45  1  0
 18 46  1  0
 24 47  1  0
 25 48  1  0
 26 49  1  0
 28 50  1  0
 28 51  1  0
 29 52  1  0
 29 53  1  0
M  CHG  1   3  -1
M  END
>  <UniqueID>  (10) 
10

>  <SMILES>  (10) 
O=C([N-]c1ccccc1N1CCOCC1)C1CCN(S(=O)(=O)c2cccs2)CC1

>  <Energy>  (10) 
98.2704239926632

>  <Genealogy>  (10) 
O=C([N-]c1ccccc1N1CCOCC1)C1CCN(S(=O)(=O)c2cccs2)CC1 (protonated)
O=C([N-]c1ccccc1N1CCOCC1)C1CCN(S(=O)(=O)c2cccs2)CC1 (3D coordinates assigned)
O=C([N-]c1ccccc1N1CCOCC1)C1CCN(S(=O)(=O)c2cccs2)CC1 (nonaromatic ring conformer: 98.2704239926632 kcal/mol)

>  <smiles>  (10) 
O=C(Nc1ccccc1N1CCOCC1)C1CCN(S(=O)(=O)c2cccs2)CC1

>  <score_type>  (10) 
oracle

>  <origin>  (10) 
adgpu

>  <m_score__min__energy>  (10) 
-10.289999999999999

>  <m_primary>  (10) 
energy

$$$$
10:0
     RDKit          3D

 52 55  0  0  0  0  0  0  0  0999 V2000
   -4.2160   23.0400  -27.9420 C   0  0  0  0  0  0  0  0  0  0  0  0
   -4.6100   23.0500  -29.3890 C   0  0  0  0  0  0  0  0  0  0  0  0
   -5.3210   24.1350  -29.9230 C   0  0  0  0  0  0  0  0  0  0  0  0
   -5.6550   24.1590  -31.2800 C   0  0  0  0  0  0  0  0  0  0  0  0
   -5.2620   23.1110  -32.1170 C   0  0  0  0  0  0  0  0  0  0  0  0
   -4.5240   22.0330  -31.6040 C   0  0  0  0  0  0  0  0  0  0  0  0
   -4.0800   20.9380  -32.5020 C   0  0  0  0  0  0  0  0  0  0  0  0
   -2.7460   20.9230  -32.9390 C   0  0  0  0  0  0  0  0  0  0  0  0
   -2.3080   19.9290  -33.8370 C   0  0  0  0  0  0  0  0  0  0  0  0
   -1.0810   19.8570  -34.2710 N   0  0  0  0  0  0  0  0  0  0  0  0
   -0.0060   20.7860  -34.0640 C   0  0  0  0  0  0  0  0  0  0  0  0
   -0.2210   21.9250  -33.5670 O   0  0  0  0  0  0  0  0  0  0  0  0
    1.3710   20.4380  -34.5370 C   0  0  0  0  0  0  0  0  0  0  0  0
    1.9910   21.6070  -35.2640 C   0  0  0  0  0  0  0  0  0  0  0  0
    3.3620   21.8660  -35.1010 C   0  0  0  0  0  0  0  0  0  0  0  0
    3.9640   22.9290  -35.7740 C   0  0  0  0  0  0  0  0  0  0  0  0
    3.1920   23.7270  -36.6170 C   0  0  0  0  0  0  0  0  0  0  0  0
    3.7170   24.6930  -37.2300 O   0  0  0  0  0  0  0  0  0  0  0  0
    1.8700   23.4620  -36.7800 N   0  0  0  0  0  0  0  0  0  0  0  0
    1.2500   22.4330  -36.1410 C   0  0  0  0  0  0  0  0  0  0  0  0
   -0.1100   22.2310  -36.3840 O   0  0  0  0  0  0  0  0  0  0  0  0
   -3.1890   18.9770  -34.2430 N   0  0  0  0  0  0  0  0  0  0  0  0
   -4.4830   18.9560  -33.8360 C   0  0  0  0  0  0  0  0  0  0  0  0
   -4.9660   19.9280  -32.9500 C   0  0  0  0  0  0  0  0  0  0  0  0
   -6.3690   19.8340  -32.4760 C   0  0  0  0  0  0  0  0  0  0  0  0
   -6.8900   18.6020  -32.0500 C   0  0  0  0  0  0  0  0  0  0  0  0
   -8.2170   18.5270  -31.6240 C   0  0  0  0  0  0  0  0  0  0  0  0
   -8.9980   19.6400  -31.6180 N   0  0  0  0  0  0  0  0  0  0  0  0
   -8.5210   20.8510  -32.0150 C   0  0  0  0  0  0  0  0  0  0  0  0
   -9.4140   22.0500  -31.9910 C   0  0  0  0  0  0  0  0  0  0  0  0
   -7.1920   20.9700  -32.4420 C   0  0  0  0  0  0  0  0  0  0  0  0
   -4.2070   22.0050  -30.2350 C   0  0  0  0  0  0  0  0  0  0  0  0
   -5.1200   23.0629  -27.3157 H   0  0  0  0  0  0  0  0  0  0  0  0
   -3.6423   22.1270  -27.7245 H   0  0  0  0  0  0  0  0  0  0  0  0
   -3.5967   23.9227  -27.7245 H   0  0  0  0  0  0  0  0  0  0  0  0
   -5.6168   24.9702  -29.2712 H   0  0  0  0  0  0  0  0  0  0  0  0
   -6.2280   25.0039  -31.6898 H   0  0  0  0  0  0  0  0  0  0  0  0
   -5.5324   23.1311  -33.1831 H   0  0  0  0  0  0  0  0  0  0  0  0
   -2.0417   21.6880  -32.5801 H   0  0  0  0  0  0  0  0  0  0  0  0
    1.9965   20.1775  -33.6704 H   0  0  0  0  0  0  0  0  0  0  0  0
    1.3051   19.5840  -35.2272 H   0  0  0  0  0  0  0  0  0  0  0  0
    3.9643   21.2267  -34.4387 H   0  0  0  0  0  0  0  0  0  0  0  0
    5.0362   23.1355  -35.6410 H   0  0  0  0  0  0  0  0  0  0  0  0
   -0.7600   21.9080  -35.6800 H   0  0  0  0  0  0  0  0  0  0  0  0
   -5.1583   18.1697  -34.2045 H   0  0  0  0  0  0  0  0  0  0  0  0
   -6.2570   17.7024  -32.0519 H   0  0  0  0  0  0  0  0  0  0  0  0
   -8.6325   17.5641  -31.2920 H   0  0  0  0  0  0  0  0  0  0  0  0
   -9.6230   22.3307  -30.9482 H   0  0  0  0  0  0  0  0  0  0  0  0
   -8.9176   22.8872  -32.5036 H   0  0  0  0  0  0  0  0  0  0  0  0
  -10.3583   21.8142  -32.5036 H   0  0  0  0  0  0  0  0  0  0  0  0
   -6.7957   21.9491  -32.7491 H   0  0  0  0  0  0  0  0  0  0  0  0
   -3.6388   21.1578  -29.8235 H   0  0  0  0  0  0  0  0  0  0  0  0
  1  2  1  0
  2  3  2  0
  3  4  1  0
  4  5  2  0
  5  6  1  0
  6  7  1  0
  7  8  2  0
  8  9  1  0
  9 10  2  3
 10 11  1  0
 11 12  2  0
 11 13  1  0
 13 14  1  0
 14 15  1  0
 15 16  2  0
 16 17  1  0
 17 18  2  0
 17 19  1  0
 19 20  1  0
 20 21  1  0
  9 22  1  0
 22 23  1  0
 23 24  2  0
 24 25  1  0
 25 26  2  0
 26 27  1  0
 27 28  2  0
 28 29  1  0
 29 30  1  0
 29 31  2  0
  6 32  2  0
 32  2  1  0
 24  7  1  0
 31 25  1  0
 20 14  2  0
  1 33  1  0
  1 34  1  0
  1 35  1  0
  3 36  1  0
  4 37  1  0
  5 38  1  0
  8 39  1  0
 13 40  1  0
 13 41  1  0
 15 42  1  0
 16 43  1  0
 21 44  1  0
 23 45  1  0
 26 46  1  0
 27 47  1  0
 30 48  1  0
 30 49  1  0
 30 50  1  0
 31 51  1  0
 32 52  1  0
M  CHG  2  19  -1  22  -1
M  END
>  <UniqueID>  (11) 
11

>  <SMILES>  (11) 
Cc1cccc(-c2cc(=NC(=O)Cc3ccc(=O)[n-]c3O)[n-]cc2-c2ccnc(C)c2)c1

>  <Energy>  (11) 
76.05783810558725

>  <Genealogy>  (11) 
Cc1cccc(-c2cc(=NC(=O)Cc3ccc(=O)[n-]c3O)[n-]cc2-c2ccnc(C)c2)c1 (protonated)
Cc1cccc(-c2cc(=NC(=O)Cc3ccc(=O)[n-]c3O)[n-]cc2-c2ccnc(C)c2)c1 (3D coordinates assigned)
Cc1cccc(-c2cc(=NC(=O)Cc3ccc(=O)[n-]c3O)[n-]cc2-c2ccnc(C)c2)c1 (optimized conformer: 76.05783810558725 kcal/mol)

>  <smiles>  (11) 
Cc1cccc(-c2cc(=NC(=O)Cc3ccc(=O)[nH]c3O)[nH]cc2-c2ccnc(C)c2)c1

>  <score_type>  (11) 
oracle

>  <origin>  (11) 
adgpu

>  <m_score__min__energy>  (11) 
-13.23

>  <m_primary>  (11) 
energy

$$$$
11:0
     RDKit          3D

 43 45  0  0  0  0  0  0  0  0999 V2000
   -9.4110   20.3370  -32.3000 C   0  0  0  0  0  0  0  0  0  0  0  0
   -9.3340   21.9210  -31.4090 S   0  0  0  0  0  0  0  0  0  0  0  0
   -7.5600   22.0560  -31.5780 C   0  0  0  0  0  0  0  0  0  0  0  0
   -6.8390   21.0060  -32.0470 N   0  0  0  0  0  0  0  0  0  0  0  0
   -5.4920   21.0900  -32.1830 C   0  0  0  0  0  0  0  0  0  0  0  0
   -4.8250   22.2700  -31.8480 C   0  0  0  0  0  0  0  0  0  0  0  0
   -3.0670   22.3080  -31.9420 Cl  0  0  0  0  0  0  0  0  0  0  0  0
   -5.5880   23.3590  -31.3810 C   0  0  0  0  0  0  0  0  0  0  0  0
   -4.9820   24.6550  -31.0250 C   0  0  0  0  0  0  0  0  0  0  0  0
   -5.6450   25.7090  -31.2110 O   0  0  0  0  0  0  0  0  0  0  0  0
   -3.6640   24.7570  -30.4700 N   0  0  0  0  0  0  0  0  0  0  0  0
   -3.1720   24.0520  -29.3190 C   0  0  0  0  0  0  0  0  0  0  0  0
   -3.9120   23.0260  -28.7060 C   0  0  0  0  0  0  0  0  0  0  0  0
   -3.4000   22.3610  -27.5900 C   0  0  0  0  0  0  0  0  0  0  0  0
   -2.1410   22.6990  -27.0880 C   0  0  0  0  0  0  0  0  0  0  0  0
   -1.3780   23.6960  -27.7110 C   0  0  0  0  0  0  0  0  0  0  0  0
    0.2170   24.1230  -27.0810 S   0  0  0  0  0  0  0  0  0  0  0  0
    0.8210   22.9140  -26.4220 O   0  0  0  0  0  0  0  0  0  0  0  0
    1.1050   24.5200  -28.2260 O   0  0  0  0  0  0  0  0  0  0  0  0
    0.1550   25.4320  -25.9250 N   0  0  0  0  0  0  0  0  0  0  0  0
   -1.0620   26.2350  -26.0540 C   0  0  0  0  0  0  0  0  0  0  0  0
   -1.3070   26.8710  -24.6920 C   0  0  0  0  0  0  0  0  0  0  0  0
   -0.5010   26.0380  -23.7050 C   0  0  0  0  0  0  0  0  0  0  0  0
    0.1720   24.9580  -24.5400 C   0  0  0  0  0  0  0  0  0  0  0  0
   -1.9000   24.3690  -28.8260 C   0  0  0  0  0  0  0  0  0  0  0  0
   -6.9340   23.2140  -31.2450 N   0  0  0  0  0  0  0  0  0  0  0  0
   -9.4512   19.5103  -31.5754 H   0  0  0  0  0  0  0  0  0  0  0  0
  -10.3113   20.3150  -32.9317 H   0  0  0  0  0  0  0  0  0  0  0  0
   -8.5171   20.2278  -32.9317 H   0  0  0  0  0  0  0  0  0  0  0  0
   -4.9236   20.2262  -32.5582 H   0  0  0  0  0  0  0  0  0  0  0  0
   -4.8975   22.7461  -29.1067 H   0  0  0  0  0  0  0  0  0  0  0  0
   -3.9895   21.5690  -27.1050 H   0  0  0  0  0  0  0  0  0  0  0  0
   -1.7472   22.1811  -26.2010 H   0  0  0  0  0  0  0  0  0  0  0  0
    0.9880   26.0470  -26.0840 H   0  0  0  0  0  0  0  0  0  0  0  0
   -0.9239   27.0143  -26.8180 H   0  0  0  0  0  0  0  0  0  0  0  0
   -1.9166   25.6152  -26.3630 H   0  0  0  0  0  0  0  0  0  0  0  0
   -0.9607   27.9151  -24.6870 H   0  0  0  0  0  0  0  0  0  0  0  0
   -2.3764   26.8876  -24.4351 H   0  0  0  0  0  0  0  0  0  0  0  0
    0.2532   26.6610  -23.2019 H   0  0  0  0  0  0  0  0  0  0  0  0
   -1.1378   25.6081  -22.9178 H   0  0  0  0  0  0  0  0  0  0  0  0
    1.2081   24.8074  -24.2027 H   0  0  0  0  0  0  0  0  0  0  0  0
   -0.3520   23.9957  -24.4426 H   0  0  0  0  0  0  0  0  0  0  0  0
   -1.3048   25.1527  -29.3174 H   0  0  0  0  0  0  0  0  0  0  0  0
  1  2  1  0
  2  3  1  0
  3  4  2  0
  4  5  1  0
  5  6  2  0
  6  7  1  0
  6  8  1  0
  8  9  1  0
  9 10  2  0
  9 11  1  0
 11 12  1  0
 12 13  2  0
 13 14  1  0
 14 15  2  0
 15 16  1  0
 16 17  1  0
 17 18  2  0
 17 19  2  0
 17 20  1  0
 20 21  1  0
 21 22  1  0
 22 23  1  0
 23 24  1  0
 16 25  2  0
  8 26  2  0
 26  3  1  0
 25 12  1  0
 24 20  1  0
  1 27  1  0
  1 28  1  0
  1 29  1  0
  5 30  1  0
 13 31  1  0
 14 32  1  0
 15 33  1  0
 20 34  1  0
 21 35  1  0
 21 36  1  0
 22 37  1  0
 22 38  1  0
 23 39  1  0
 23 40  1  0
 24 41  1  0
 24 42  1  0
 25 43  1  0
M  CHG  2  11  -1  20   1
M  END
>  <UniqueID>  (12) 
12

>  <SMILES>  (12) 
CSc1ncc(Cl)c(C(=O)[N-]c2cccc(S(=O)(=O)[NH+]3CCCC3)c2)n1

>  <Energy>  (12) 
50.87197393947819

>  <Genealogy>  (12) 
CSc1ncc(Cl)c(C(=O)[N-]c2cccc(S(=O)(=O)[NH+]3CCCC3)c2)n1 (protonated)
CSc1ncc(Cl)c(C(=O)[N-]c2cccc(S(=O)(=O)[NH+]3CCCC3)c2)n1 (3D coordinates assigned)
CSc1ncc(Cl)c(C(=O)[N-]c2cccc(S(=O)(=O)[NH+]3CCCC3)c2)n1 (nonaromatic ring conformer: 50.87197393947819 kcal/mol)

>  <smiles>  (12) 
CSc1ncc(Cl)c(C(=O)Nc2cccc(S(=O)(=O)N3CCCC3)c2)n1

>  <score_type>  (12) 
oracle

>  <origin>  (12) 
adgpu

>  <m_score__min__energy>  (12) 
-9.8599999999999994

>  <m_primary>  (12) 
energy

$$$$
12:0
     RDKit          3D

 60 63  0  0  0  0  0  0  0  0999 V2000
   -5.7250   26.2620  -31.1970 O   0  0  0  0  0  0  0  0  0  0  0  0
   -5.3100   25.1080  -30.3210 S   0  0  0  0  0  0  0  0  0  0  0  0
   -5.7720   25.3910  -28.9170 O   0  0  0  0  0  0  0  0  0  0  0  0
   -3.5850   24.9230  -30.3180 N   0  0  0  0  0  0  0  0  0  0  0  0
   -2.8840   23.8300  -29.7120 C   0  0  0  0  0  0  0  0  0  0  0  0
   -2.1370   22.9180  -30.4780 C   0  0  0  0  0  0  0  0  0  0  0  0
   -1.4640   21.8560  -29.8590 C   0  0  0  0  0  0  0  0  0  0  0  0
   -0.4760   20.7450  -30.8070 S   0  0  0  0  0  0  0  0  0  0  0  0
    0.2560   21.5320  -31.8650 O   0  0  0  0  0  0  0  0  0  0  0  0
    0.5350   20.0650  -29.9200 O   0  0  0  0  0  0  0  0  0  0  0  0
   -1.4890   19.5380  -31.5710 N   0  0  0  0  0  0  0  0  0  0  0  0
   -0.7530   18.8980  -32.6850 C   0  0  0  0  0  0  0  0  0  0  0  0
   -1.6960   18.0710  -33.5680 C   0  0  0  0  0  0  0  0  0  0  0  0
   -2.8030   18.9400  -34.1960 C   0  0  0  0  0  0  0  0  0  0  0  0
   -2.9860   20.2840  -33.4710 C   0  0  0  0  0  0  0  0  0  0  0  0
   -2.8060   20.1170  -31.9540 C   0  0  0  0  0  0  0  0  0  0  0  0
   -1.5600   21.6910  -28.4720 C   0  0  0  0  0  0  0  0  0  0  0  0
   -2.2870   22.6050  -27.7040 C   0  0  0  0  0  0  0  0  0  0  0  0
   -2.9410   23.6790  -28.3190 C   0  0  0  0  0  0  0  0  0  0  0  0
   -3.6650   24.5920  -27.5510 O   0  0  0  0  0  0  0  0  0  0  0  0
   -6.0470   23.6060  -30.8770 C   0  0  0  0  0  0  0  0  0  0  0  0
   -5.2560   22.4610  -31.0430 C   0  0  0  0  0  0  0  0  0  0  0  0
   -5.8270   21.2700  -31.5010 C   0  0  0  0  0  0  0  0  0  0  0  0
   -7.1950   21.2140  -31.8030 C   0  0  0  0  0  0  0  0  0  0  0  0
   -7.9250   19.7010  -32.3390 S   0  0  0  0  0  0  0  0  0  0  0  0
   -8.6400   19.0610  -31.1800 O   0  0  0  0  0  0  0  0  0  0  0  0
   -8.9260   19.9750  -33.4320 O   0  0  0  0  0  0  0  0  0  0  0  0
   -6.6730   18.6290  -32.9150 N   0  0  0  0  0  0  0  0  0  0  0  0
   -6.2180   19.0260  -34.2460 C   0  0  0  0  0  0  0  0  0  0  0  0
   -5.6530   17.7750  -34.8850 C   0  0  0  0  0  0  0  0  0  0  0  0
   -6.4270   16.6340  -34.2440 C   0  0  0  0  0  0  0  0  0  0  0  0
   -7.1580   17.2530  -33.0550 C   0  0  0  0  0  0  0  0  0  0  0  0
   -7.9880   22.3600  -31.6390 C   0  0  0  0  0  0  0  0  0  0  0  0
   -7.4160   23.5530  -31.1820 C   0  0  0  0  0  0  0  0  0  0  0  0
   -2.0804   23.0388  -31.5699 H   0  0  0  0  0  0  0  0  0  0  0  0
   -0.2796   19.6790  -33.2982 H   0  0  0  0  0  0  0  0  0  0  0  0
    0.0069   18.2255  -32.2605 H   0  0  0  0  0  0  0  0  0  0  0  0
   -1.1106   17.6036  -34.3735 H   0  0  0  0  0  0  0  0  0  0  0  0
   -2.1768   17.3104  -32.9353 H   0  0  0  0  0  0  0  0  0  0  0  0
   -2.5410   19.1392  -35.2456 H   0  0  0  0  0  0  0  0  0  0  0  0
   -3.7491   18.3853  -34.1109 H   0  0  0  0  0  0  0  0  0  0  0  0
   -2.2397   21.0000  -33.8457 H   0  0  0  0  0  0  0  0  0  0  0  0
   -4.0038   20.6530  -33.6659 H   0  0  0  0  0  0  0  0  0  0  0  0
   -2.9021   21.1056  -31.4813 H   0  0  0  0  0  0  0  0  0  0  0  0
   -3.5796   19.4135  -31.6125 H   0  0  0  0  0  0  0  0  0  0  0  0
   -1.0618   20.8396  -27.9852 H   0  0  0  0  0  0  0  0  0  0  0  0
   -2.3454   22.4799  -26.6127 H   0  0  0  0  0  0  0  0  0  0  0  0
   -4.2480   25.3050  -27.9820 H   0  0  0  0  0  0  0  0  0  0  0  0
   -4.1812   22.4997  -30.8119 H   0  0  0  0  0  0  0  0  0  0  0  0
   -5.2011   20.3740  -31.6248 H   0  0  0  0  0  0  0  0  0  0  0  0
   -7.0609   19.4107  -34.8390 H   0  0  0  0  0  0  0  0  0  0  0  0
   -5.4649   19.8259  -34.1921 H   0  0  0  0  0  0  0  0  0  0  0  0
   -5.8121   17.7890  -35.9733 H   0  0  0  0  0  0  0  0  0  0  0  0
   -4.5679   17.6814  -34.7309 H   0  0  0  0  0  0  0  0  0  0  0  0
   -7.1470   16.2088  -34.9587 H   0  0  0  0  0  0  0  0  0  0  0  0
   -5.7623   15.8148  -33.9324 H   0  0  0  0  0  0  0  0  0  0  0  0
   -8.2427   17.2527  -33.2381 H   0  0  0  0  0  0  0  0  0  0  0  0
   -6.9675   16.6771  -32.1373 H   0  0  0  0  0  0  0  0  0  0  0  0
   -9.0627   22.3207  -31.8703 H   0  0  0  0  0  0  0  0  0  0  0  0
   -8.0405   24.4505  -31.0617 H   0  0  0  0  0  0  0  0  0  0  0  0
  1  2  2  0
  2  3  2  0
  2  4  1  0
  4  5  1  0
  5  6  2  0
  6  7  1  0
  7  8  1  0
  8  9  2  0
  8 10  2  0
  8 11  1  0
 11 12  1  0
 12 13  1  0
 13 14  1  0
 14 15  1  0
 15 16  1  0
  7 17  2  0
 17 18  1  0
 18 19  2  0
 19 20  1  0
  2 21  1  0
 21 22  2  0
 22 23  1  0
 23 24  2  0
 24 25  1  0
 25 26  2  0
 25 27  2  0
 25 28  1  0
 28 29  1  0
 29 30  1  0
 30 31  1  0
 31 32  1  0
 24 33  1  0
 33 34  2  0
 19  5  1  0
 34 21  1  0
 16 11  1  0
 32 28  1  0
  6 35  1  0
 12 36  1  0
 12 37  1  0
 13 38  1  0
 13 39  1  0
 14 40  1  0
 14 41  1  0
 15 42  1  0
 15 43  1  0
 16 44  1  0
 16 45  1  0
 17 46  1  0
 18 47  1  0
 20 48  1  0
 22 49  1  0
 23 50  1  0
 29 51  1  0
 29 52  1  0
 30 53  1  0
 30 54  1  0
 31 55  1  0
 31 56  1  0
 32 57  1  0
 32 58  1  0
 33 59  1  0
 34 60  1  0
M  CHG  1   4  -1
M  END
>  <UniqueID>  (13) 
13

>  <SMILES>  (13) 
O=S(=O)([N-]c1cc(S(=O)(=O)N2CCCCC2)ccc1O)c1ccc(S(=O)(=O)N2CCCC2)cc1

>  <Energy>  (13) 
72.66130716912664

>  <Genealogy>  (13) 
O=S(=O)([N-]c1cc(S(=O)(=O)N2CCCCC2)ccc1O)c1ccc(S(=O)(=O)N2CCCC2)cc1 (protonated)
O=S(=O)([N-]c1cc(S(=O)(=O)N2CCCCC2)ccc1O)c1ccc(S(=O)(=O)N2CCCC2)cc1 (3D coordinates assigned)
O=S(=O)([N-]c1cc(S(=O)(=O)N2CCCCC2)ccc1O)c1ccc(S(=O)(=O)N2CCCC2)cc1 (nonaromatic ring conformer: 72.66130716912664 kcal/mol)

>  <smiles>  (13) 
O=S(=O)(Nc1cc(S(=O)(=O)N2CCCCC2)ccc1O)c1ccc(S(=O)(=O)N2CCCC2)cc1

>  <score_type>  (13) 
oracle

>  <origin>  (13) 
adgpu

>  <m_score__min__energy>  (13) 
-11.699999999999999

>  <m_primary>  (13) 
energy

$$$$
13:0
     RDKit          3D

 40 42  0  0  0  0  0  0  0  0999 V2000
   -3.9160   25.6730  -30.8720 O   0  0  0  0  0  0  0  0  0  0  0  0
   -4.4500   24.7750  -30.1690 C   0  0  0  0  0  0  0  0  0  0  0  0
   -5.8510   24.5160  -30.3320 N   0  0  0  0  0  0  0  0  0  0  0  0
   -6.4370   23.2910  -30.8010 C   0  0  0  0  0  0  0  0  0  0  0  0
   -7.5730   22.7330  -30.1890 C   0  0  0  0  0  0  0  0  0  0  0  0
   -8.1190   21.5420  -30.6730 C   0  0  0  0  0  0  0  0  0  0  0  0
   -7.5260   20.8840  -31.7600 C   0  0  0  0  0  0  0  0  0  0  0  0
   -8.2380   19.4070  -32.4020 S   0  0  0  0  0  0  0  0  0  0  0  0
   -9.2540   19.7500  -33.4560 O   0  0  0  0  0  0  0  0  0  0  0  0
   -8.9310   18.6700  -31.2900 O   0  0  0  0  0  0  0  0  0  0  0  0
   -6.9760   18.4020  -33.0680 N   0  0  0  0  0  0  0  0  0  0  0  0
   -5.9210   18.1530  -32.0850 C   0  0  0  0  0  0  0  0  0  0  0  0
   -4.6470   17.9010  -32.8750 C   0  0  0  0  0  0  0  0  0  0  0  0
   -4.8990   18.5000  -34.2500 C   0  0  0  0  0  0  0  0  0  0  0  0
   -6.3130   19.0580  -34.1940 C   0  0  0  0  0  0  0  0  0  0  0  0
   -6.3810   21.4290  -32.3570 C   0  0  0  0  0  0  0  0  0  0  0  0
   -5.8340   22.6200  -31.8710 C   0  0  0  0  0  0  0  0  0  0  0  0
   -3.6230   24.0430  -29.1810 C   0  0  0  0  0  0  0  0  0  0  0  0
   -4.1040   22.8380  -28.6380 C   0  0  0  0  0  0  0  0  0  0  0  0
   -3.3520   22.1400  -27.6890 C   0  0  0  0  0  0  0  0  0  0  0  0
   -2.1100   22.6310  -27.2800 C   0  0  0  0  0  0  0  0  0  0  0  0
   -1.6120   23.8150  -27.8270 C   0  0  0  0  0  0  0  0  0  0  0  0
   -2.3560   24.5180  -28.7830 C   0  0  0  0  0  0  0  0  0  0  0  0
   -1.8150   25.6700  -29.3430 O   0  0  0  0  0  0  0  0  0  0  0  0
   -8.0335   23.2361  -29.3260 H   0  0  0  0  0  0  0  0  0  0  0  0
   -9.0173   21.1187  -30.1998 H   0  0  0  0  0  0  0  0  0  0  0  0
   -5.7960   19.0288  -31.4313 H   0  0  0  0  0  0  0  0  0  0  0  0
   -6.1686   17.2939  -31.4442 H   0  0  0  0  0  0  0  0  0  0  0  0
   -3.7906   18.3939  -32.3916 H   0  0  0  0  0  0  0  0  0  0  0  0
   -4.4074   16.8290  -32.9336 H   0  0  0  0  0  0  0  0  0  0  0  0
   -4.1764   19.3027  -34.4585 H   0  0  0  0  0  0  0  0  0  0  0  0
   -4.7853   17.7527  -35.0491 H   0  0  0  0  0  0  0  0  0  0  0  0
   -6.2857   20.1464  -34.0368 H   0  0  0  0  0  0  0  0  0  0  0  0
   -6.8510   18.8712  -35.1351 H   0  0  0  0  0  0  0  0  0  0  0  0
   -5.9115   20.9180  -33.2105 H   0  0  0  0  0  0  0  0  0  0  0  0
   -4.9244   23.0322  -32.3322 H   0  0  0  0  0  0  0  0  0  0  0  0
   -5.0779   22.4426  -28.9622 H   0  0  0  0  0  0  0  0  0  0  0  0
   -3.7389   21.2023  -27.2635 H   0  0  0  0  0  0  0  0  0  0  0  0
   -1.5239   22.0845  -26.5265 H   0  0  0  0  0  0  0  0  0  0  0  0
   -0.6317   24.1972  -27.5060 H   0  0  0  0  0  0  0  0  0  0  0  0
  1  2  2  0
  2  3  1  0
  3  4  1  0
  4  5  2  0
  5  6  1  0
  6  7  2  0
  7  8  1  0
  8  9  2  0
  8 10  2  0
  8 11  1  0
 11 12  1  0
 12 13  1  0
 13 14  1  0
 14 15  1  0
  7 16  1  0
 16 17  2  0
  2 18  1  0
 18 19  2  0
 19 20  1  0
 20 21  2  0
 21 22  1  0
 22 23  2  0
 23 24  1  0
 17  4  1  0
 23 18  1  0
 15 11  1  0
  5 25  1  0
  6 26  1  0
 12 27  1  0
 12 28  1  0
 13 29  1  0
 13 30  1  0
 14 31  1  0
 14 32  1  0
 15 33  1  0
 15 34  1  0
 16 35  1  0
 17 36  1  0
 19 37  1  0
 20 38  1  0
 21 39  1  0
 22 40  1  0
M  CHG  2   3  -1  24  -1
M  END
>  <UniqueID>  (14) 
14

>  <SMILES>  (14) 
O=C([N-]c1ccc(S(=O)(=O)N2CCCC2)cc1)c1ccccc1[O-]

>  <Energy>  (14) 
50.25436707934629

>  <Genealogy>  (14) 
O=C([N-]c1ccc(S(=O)(=O)N2CCCC2)cc1)c1ccccc1[O-] (protonated)
O=C([N-]c1ccc(S(=O)(=O)N2CCCC2)cc1)c1ccccc1[O-] (3D coordinates assigned)
O=C([N-]c1ccc(S(=O)(=O)N2CCCC2)cc1)c1ccccc1[O-] (nonaromatic ring conformer: 50.25436707934629 kcal/mol)

>  <smiles>  (14) 
O=C(Nc1ccc(S(=O)(=O)N2CCCC2)cc1)c1ccccc1O

>  <score_type>  (14) 
oracle

>  <origin>  (14) 
adgpu

>  <m_score__min__energy>  (14) 
-13.199999999999999

>  <m_primary>  (14) 
energy

$$$$
14:0
     RDKit          3D

 62 65  0  0  0  0  0  0  0  0999 V2000
   -4.4740   23.8020  -31.3150 O   0  0  0  0  0  0  0  0  0  0  0  0
   -4.6620   23.4110  -30.1280 C   0  0  0  0  0  0  0  0  0  0  0  0
   -6.0090   23.1730  -29.6800 N   0  0  0  0  0  0  0  0  0  0  0  0
   -7.0810   22.8100  -30.5670 C   0  0  0  0  0  0  0  0  0  0  0  0
   -7.8650   23.7870  -31.2070 C   0  0  0  0  0  0  0  0  0  0  0  0
   -8.8790   23.4090  -32.0910 C   0  0  0  0  0  0  0  0  0  0  0  0
   -9.1170   22.0580  -32.3500 C   0  0  0  0  0  0  0  0  0  0  0  0
   -8.3380   21.0760  -31.7250 C   0  0  0  0  0  0  0  0  0  0  0  0
   -8.6250   19.3670  -32.0410 S   0  0  0  0  0  0  0  0  0  0  0  0
   -9.8590   19.2350  -32.8900 O   0  0  0  0  0  0  0  0  0  0  0  0
   -8.8330   18.6280  -30.7470 O   0  0  0  0  0  0  0  0  0  0  0  0
   -7.2470   18.6970  -32.8790 N   0  0  0  0  0  0  0  0  0  0  0  0
   -6.5400   19.7390  -33.6680 C   0  0  0  0  0  0  0  0  0  0  0  0
   -5.1970   20.1610  -33.0530 C   0  0  0  0  0  0  0  0  0  0  0  0
   -4.2630   18.9540  -32.8750 C   0  0  0  0  0  0  0  0  0  0  0  0
   -5.0200   17.6560  -32.5380 C   0  0  0  0  0  0  0  0  0  0  0  0
   -6.3930   17.9550  -31.9280 C   0  0  0  0  0  0  0  0  0  0  0  0
   -7.3150   21.4550  -30.8470 C   0  0  0  0  0  0  0  0  0  0  0  0
   -3.5290   23.2360  -29.2410 N   0  0  0  0  0  0  0  0  0  0  0  0
   -2.1640   23.5300  -29.7160 C   0  0  0  0  0  0  0  0  0  0  0  0
   -1.6270   22.3900  -30.5410 C   0  0  0  0  0  0  0  0  0  0  0  0
   -2.2930   21.9810  -31.7100 C   0  0  0  0  0  0  0  0  0  0  0  0
   -1.8260   20.8830  -32.4390 C   0  0  0  0  0  0  0  0  0  0  0  0
   -0.6950   20.1860  -32.0080 C   0  0  0  0  0  0  0  0  0  0  0  0
   -0.0240   20.5890  -30.8510 C   0  0  0  0  0  0  0  0  0  0  0  0
   -0.4840   21.6900  -30.1220 C   0  0  0  0  0  0  0  0  0  0  0  0
   -3.6930   22.7330  -27.8640 C   0  0  0  0  0  0  0  0  0  0  0  0
   -2.6900   21.6440  -27.5510 C   0  0  0  0  0  0  0  0  0  0  0  0
   -1.4170   21.9590  -27.0400 C   0  0  0  0  0  0  0  0  0  0  0  0
   -0.4900   20.9450  -26.7790 C   0  0  0  0  0  0  0  0  0  0  0  0
   -0.8270   19.6100  -27.0140 C   0  0  0  0  0  0  0  0  0  0  0  0
   -2.0930   19.2850  -27.5070 C   0  0  0  0  0  0  0  0  0  0  0  0
   -3.0240   20.2950  -27.7700 C   0  0  0  0  0  0  0  0  0  0  0  0
   -6.2560   23.3820  -28.6870 H   0  0  0  0  0  0  0  0  0  0  0  0
   -7.6790   24.8532  -31.0107 H   0  0  0  0  0  0  0  0  0  0  0  0
   -9.4915   24.1782  -32.5842 H   0  0  0  0  0  0  0  0  0  0  0  0
   -9.9170   21.7644  -33.0455 H   0  0  0  0  0  0  0  0  0  0  0  0
   -6.3530   19.3451  -34.6779 H   0  0  0  0  0  0  0  0  0  0  0  0
   -7.1853   20.6297  -33.6830 H   0  0  0  0  0  0  0  0  0  0  0  0
   -4.7136   20.8940  -33.7156 H   0  0  0  0  0  0  0  0  0  0  0  0
   -5.3902   20.6006  -32.0633 H   0  0  0  0  0  0  0  0  0  0  0  0
   -3.7039   18.8018  -33.8100 H   0  0  0  0  0  0  0  0  0  0  0  0
   -3.5943   19.1754  -32.0301 H   0  0  0  0  0  0  0  0  0  0  0  0
   -5.1570   17.0714  -33.4597 H   0  0  0  0  0  0  0  0  0  0  0  0
   -4.4290   17.0903  -31.8027 H   0  0  0  0  0  0  0  0  0  0  0  0
   -6.8850   17.0062  -31.6680 H   0  0  0  0  0  0  0  0  0  0  0  0
   -6.2494   18.5744  -31.0304 H   0  0  0  0  0  0  0  0  0  0  0  0
   -6.6897   20.6842  -30.3729 H   0  0  0  0  0  0  0  0  0  0  0  0
   -2.1849   24.4417  -30.3312 H   0  0  0  0  0  0  0  0  0  0  0  0
   -1.5100   23.6717  -28.8429 H   0  0  0  0  0  0  0  0  0  0  0  0
   -3.1846   22.5268  -32.0522 H   0  0  0  0  0  0  0  0  0  0  0  0
   -2.3501   20.5677  -33.3533 H   0  0  0  0  0  0  0  0  0  0  0  0
   -0.3324   19.3192  -32.5800 H   0  0  0  0  0  0  0  0  0  0  0  0
    0.8671   20.0397  -30.5131 H   0  0  0  0  0  0  0  0  0  0  0  0
    0.0520   22.0093  -29.2160 H   0  0  0  0  0  0  0  0  0  0  0  0
   -3.5491   23.5654  -27.1594 H   0  0  0  0  0  0  0  0  0  0  0  0
   -4.7041   22.3105  -27.7678 H   0  0  0  0  0  0  0  0  0  0  0  0
   -1.1499   23.0081  -26.8449 H   0  0  0  0  0  0  0  0  0  0  0  0
    0.5062   21.1992  -26.3880 H   0  0  0  0  0  0  0  0  0  0  0  0
   -0.0952   18.8143  -26.8108 H   0  0  0  0  0  0  0  0  0  0  0  0
   -2.3581   18.2330  -27.6887 H   0  0  0  0  0  0  0  0  0  0  0  0
   -4.0225   20.0333  -28.1500 H   0  0  0  0  0  0  0  0  0  0  0  0
  1  2  2  0
  2  3  1  0
  3  4  1  0
  4  5  2  0
  5  6  1  0
  6  7  2  0
  7  8  1  0
  8  9  1  0
  9 10  2  0
  9 11  2  0
  9 12  1  0
 12 13  1  0
 13 14  1  0
 14 15  1  0
 15 16  1  0
 16 17  1  0
  8 18  2  0
  2 19  1  0
 19 20  1  0
 20 21  1  0
 21 22  2  0
 22 23  1  0
 23 24  2  0
 24 25  1  0
 25 26  2  0
 19 27  1  0
 27 28  1  0
 28 29  2  0
 29 30  1  0
 30 31  2  0
 31 32  1  0
 32 33  2  0
 18  4  1  0
 26 21  1  0
 33 28  1  0
 17 12  1  0
  3 34  1  0
  5 35  1  0
  6 36  1  0
  7 37  1  0
 13 38  1  0
 13 39  1  0
 14 40  1  0
 14 41  1  0
 15 42  1  0
 15 43  1  0
 16 44  1  0
 16 45  1  0
 17 46  1  0
 17 47  1  0
 18 48  1  0
 20 49  1  0
 20 50  1  0
 22 51  1  0
 23 52  1  0
 24 53  1  0
 25 54  1  0
 26 55  1  0
 27 56  1  0
 27 57  1  0
 29 58  1  0
 30 59  1  0
 31 60  1  0
 32 61  1  0
 33 62  1  0
M  END
>  <UniqueID>  (15) 
15

>  <SMILES>  (15) 
O=C(Nc1cccc(S(=O)(=O)N2CCCCC2)c1)N(Cc1ccccc1)Cc1ccccc1

>  <Energy>  (15) 
72.1017036075566

>  <Genealogy>  (15) 
O=C(Nc1cccc(S(=O)(=O)N2CCCCC2)c1)N(Cc1ccccc1)Cc1ccccc1 (3D coordinates assigned)
O=C(Nc1cccc(S(=O)(=O)N2CCCCC2)c1)N(Cc1ccccc1)Cc1ccccc1 (nonaromatic ring conformer: 72.1017036075566 kcal/mol)

>  <smiles>  (15) 
O=C(Nc1cccc(S(=O)(=O)N2CCCCC2)c1)N(Cc1ccccc1)Cc1ccccc1

>  <score_type>  (15) 
oracle

>  <origin>  (15) 
adgpu

>  <m_score__min__energy>  (15) 
-10.609999999999999

>  <m_primary>  (15) 
energy

$$$$
15:0
     RDKit          3D

 45 47  0  0  0  0  0  0  0  0999 V2000
   -5.6230   24.5400  -31.9710 O   0  0  0  0  0  0  0  0  0  0  0  0
   -4.9990   23.8920  -31.0910 C   0  0  0  0  0  0  0  0  0  0  0  0
   -3.8070   24.4610  -30.5350 N   0  0  0  0  0  0  0  0  0  0  0  0
   -2.7970   23.7470  -29.8090 C   0  0  0  0  0  0  0  0  0  0  0  0
   -2.6700   22.3570  -29.9230 C   0  0  0  0  0  0  0  0  0  0  0  0
   -1.6620   21.6860  -29.2340 C   0  0  0  0  0  0  0  0  0  0  0  0
   -0.7540   22.3880  -28.4350 C   0  0  0  0  0  0  0  0  0  0  0  0
    0.4810   21.4390  -27.6190 Cl  0  0  0  0  0  0  0  0  0  0  0  0
   -0.8530   23.7970  -28.3220 C   0  0  0  0  0  0  0  0  0  0  0  0
    0.2720   24.7400  -27.3070 S   0  0  0  0  0  0  0  0  0  0  0  0
    1.6400   24.1200  -27.3270 O   0  0  0  0  0  0  0  0  0  0  0  0
    0.4080   26.1260  -27.8730 O   0  0  0  0  0  0  0  0  0  0  0  0
   -0.2930   24.8850  -25.6000 C   0  0  0  0  0  0  0  0  0  0  0  0
   -1.7790   25.3050  -25.5040 C   0  0  0  0  0  0  0  0  0  0  0  0
   -1.9220   26.8050  -25.2100 C   0  0  0  0  0  0  0  0  0  0  0  0
   -1.2800   27.1930  -23.9370 N   0  0  0  0  0  0  0  0  0  0  0  0
   -0.1110   26.3720  -23.5610 C   0  0  0  0  0  0  0  0  0  0  0  0
    0.6270   25.8210  -24.7870 C   0  0  0  0  0  0  0  0  0  0  0  0
   -1.8750   24.4650  -29.0340 C   0  0  0  0  0  0  0  0  0  0  0  0
   -1.9960   25.8500  -28.9660 O   0  0  0  0  0  0  0  0  0  0  0  0
   -5.4910   22.6190  -30.6320 N   0  0  0  0  0  0  0  0  0  0  0  0
   -6.6650   21.9750  -31.1530 C   0  0  0  0  0  0  0  0  0  0  0  0
   -7.9280   22.5180  -30.8680 C   0  0  0  0  0  0  0  0  0  0  0  0
   -9.0860   21.9250  -31.3820 C   0  0  0  0  0  0  0  0  0  0  0  0
   -8.9910   20.7940  -32.1970 C   0  0  0  0  0  0  0  0  0  0  0  0
  -10.1150   20.2230  -32.6960 F   0  0  0  0  0  0  0  0  0  0  0  0
   -7.7370   20.2610  -32.5070 C   0  0  0  0  0  0  0  0  0  0  0  0
   -6.5770   20.8510  -31.9950 C   0  0  0  0  0  0  0  0  0  0  0  0
   -3.3685   21.7931  -30.5587 H   0  0  0  0  0  0  0  0  0  0  0  0
   -1.5795   20.5924  -29.3194 H   0  0  0  0  0  0  0  0  0  0  0  0
   -0.2285   23.8831  -25.1506 H   0  0  0  0  0  0  0  0  0  0  0  0
   -2.2767   25.0788  -26.4585 H   0  0  0  0  0  0  0  0  0  0  0  0
   -2.2430   24.7457  -24.6782 H   0  0  0  0  0  0  0  0  0  0  0  0
   -1.4543   27.3716  -26.0286 H   0  0  0  0  0  0  0  0  0  0  0  0
   -2.9956   27.0296  -25.1264 H   0  0  0  0  0  0  0  0  0  0  0  0
   -1.9880   27.1160  -23.1710 H   0  0  0  0  0  0  0  0  0  0  0  0
    0.5851   26.9926  -22.9776 H   0  0  0  0  0  0  0  0  0  0  0  0
   -0.4738   25.5167  -22.9721 H   0  0  0  0  0  0  0  0  0  0  0  0
    0.9444   26.6592  -25.4247 H   0  0  0  0  0  0  0  0  0  0  0  0
    1.5027   25.2491  -24.4463 H   0  0  0  0  0  0  0  0  0  0  0  0
   -4.9300   22.0920  -29.9250 H   0  0  0  0  0  0  0  0  0  0  0  0
   -8.0074   23.4153  -30.2366 H   0  0  0  0  0  0  0  0  0  0  0  0
  -10.0725   22.3496  -31.1443 H   0  0  0  0  0  0  0  0  0  0  0  0
   -7.6621   19.3754  -33.1552 H   0  0  0  0  0  0  0  0  0  0  0  0
   -5.5917   20.4347  -32.2516 H   0  0  0  0  0  0  0  0  0  0  0  0
  1  2  2  0
  2  3  1  0
  3  4  1  0
  4  5  2  0
  5  6  1  0
  6  7  2  0
  7  8  1  0
  7  9  1  0
  9 10  1  0
 10 11  2  0
 10 12  2  0
 10 13  1  0
 13 14  1  0
 14 15  1  0
 15 16  1  0
 16 17  1  0
 17 18  1  0
  9 19  2  0
 19 20  1  0
  2 21  1  0
 21 22  1  0
 22 23  2  0
 23 24  1  0
 24 25  2  0
 25 26  1  0
 25 27  1  0
 27 28  2  0
 19  4  1  0
 28 22  1  0
 18 13  1  0
  5 29  1  0
  6 30  1  0
 13 31  1  0
 14 32  1  0
 14 33  1  0
 15 34  1  0
 15 35  1  0
 16 36  1  0
 17 37  1  0
 17 38  1  0
 18 39  1  0
 18 40  1  0
 21 41  1  0
 23 42  1  0
 24 43  1  0
 27 44  1  0
 28 45  1  0
M  CHG  2   3  -1  20  -1
M  END
>  <UniqueID>  (16) 
16

>  <SMILES>  (16) 
O=C([N-]c1ccc(Cl)c(S(=O)(=O)C2CCNCC2)c1[O-])Nc1ccc(F)cc1

>  <Energy>  (16) 
62.45471981962635

>  <Genealogy>  (16) 
O=C([N-]c1ccc(Cl)c(S(=O)(=O)C2CCNCC2)c1[O-])Nc1ccc(F)cc1 (protonated)
O=C([N-]c1ccc(Cl)c(S(=O)(=O)C2CCNCC2)c1[O-])Nc1ccc(F)cc1 (3D coordinates assigned)
O=C([N-]c1ccc(Cl)c(S(=O)(=O)C2CCNCC2)c1[O-])Nc1ccc(F)cc1 (nonaromatic ring conformer: 62.45471981962635 kcal/mol)

>  <smiles>  (16) 
O=C(Nc1ccc(F)cc1)Nc1ccc(Cl)c(S(=O)(=O)C2CCNCC2)c1O

>  <score_type>  (16) 
oracle

>  <origin>  (16) 
adgpu

>  <m_score__min__energy>  (16) 
-13.41

>  <m_primary>  (16) 
energy

$$$$
16:0
     RDKit          3D

 76 80  0  0  0  0  0  0  0  0999 V2000
    1.0050   19.2560  -30.2310 C   0  0  0  0  0  0  0  0  0  0  0  0
    0.0740   18.5030  -31.1470 C   0  0  0  0  0  0  0  0  0  0  0  0
    0.1350   17.0900  -31.1470 C   0  0  0  0  0  0  0  0  0  0  0  0
   -0.7300   16.3920  -31.9790 C   0  0  0  0  0  0  0  0  0  0  0  0
   -0.8330   15.0550  -32.1250 N   0  0  0  0  0  0  0  0  0  0  0  0
   -1.8200   14.9230  -33.0500 C   0  0  0  0  0  0  0  0  0  0  0  0
   -2.3160   16.1130  -33.4650 N   0  0  0  0  0  0  0  0  0  0  0  0
   -3.5660   16.3760  -34.6360 S   0  0  0  0  0  0  0  0  0  0  0  0
   -3.0670   17.2900  -35.7200 O   0  0  0  0  0  0  0  0  0  0  0  0
   -3.9510   15.0610  -35.2550 O   0  0  0  0  0  0  0  0  0  0  0  0
   -4.9460   17.1250  -33.8450 C   0  0  0  0  0  0  0  0  0  0  0  0
   -6.1740   16.4570  -33.7530 C   0  0  0  0  0  0  0  0  0  0  0  0
   -7.2470   17.0540  -33.0860 C   0  0  0  0  0  0  0  0  0  0  0  0
   -7.1020   18.3200  -32.5120 C   0  0  0  0  0  0  0  0  0  0  0  0
   -5.8760   19.0040  -32.6010 C   0  0  0  0  0  0  0  0  0  0  0  0
   -5.7120   20.3480  -31.9960 C   0  0  0  0  0  0  0  0  0  0  0  0
   -4.6090   20.6340  -31.1730 C   0  0  0  0  0  0  0  0  0  0  0  0
   -4.4250   21.9190  -30.6540 C   0  0  0  0  0  0  0  0  0  0  0  0
   -5.3460   22.9330  -30.9420 C   0  0  0  0  0  0  0  0  0  0  0  0
   -5.0720   24.5810  -30.3820 S   0  0  0  0  0  0  0  0  0  0  0  0
   -6.1030   25.5070  -30.9670 O   0  0  0  0  0  0  0  0  0  0  0  0
   -3.7130   25.0340  -30.8390 O   0  0  0  0  0  0  0  0  0  0  0  0
   -5.1420   24.6280  -28.6460 N   0  0  0  0  0  0  0  0  0  0  0  0
   -4.1950   23.6600  -28.0830 C   0  0  0  0  0  0  0  0  0  0  0  0
   -3.0850   24.3640  -27.2780 C   0  0  0  0  0  0  0  0  0  0  0  0
   -1.7170   23.8640  -27.5420 N   0  0  0  0  0  0  0  0  0  0  0  0
   -1.1270   24.2640  -28.8380 C   0  0  0  0  0  0  0  0  0  0  0  0
   -0.8630   23.0650  -29.7580 C   0  0  0  0  0  0  0  0  0  0  0  0
   -1.8150   22.0540  -29.5200 O   0  0  0  0  0  0  0  0  0  0  0  0
   -1.5640   21.4500  -28.2680 C   0  0  0  0  0  0  0  0  0  0  0  0
   -1.4510   22.4740  -27.1140 C   0  0  0  0  0  0  0  0  0  0  0  0
   -6.4630   22.6460  -31.7330 C   0  0  0  0  0  0  0  0  0  0  0  0
   -6.6430   21.3650  -32.2610 C   0  0  0  0  0  0  0  0  0  0  0  0
   -4.8000   18.3910  -33.2660 C   0  0  0  0  0  0  0  0  0  0  0  0
   -1.6170   17.0310  -32.7830 C   0  0  0  0  0  0  0  0  0  0  0  0
   -1.7100   18.4190  -32.8340 C   0  0  0  0  0  0  0  0  0  0  0  0
   -0.8560   19.1900  -32.0030 C   0  0  0  0  0  0  0  0  0  0  0  0
   -0.8870   20.6420  -32.0210 N   0  0  0  0  0  0  0  0  0  0  0  0
   -1.2110   21.5370  -33.1470 C   0  0  0  0  0  0  0  0  0  0  0  0
   -2.7060   21.5340  -33.4930 C   0  0  0  0  0  0  0  0  0  0  0  0
   -0.2990   21.2950  -34.3570 C   0  0  0  0  0  0  0  0  0  0  0  0
    0.7415   19.0429  -29.1845 H   0  0  0  0  0  0  0  0  0  0  0  0
    2.0412   18.9390  -30.4201 H   0  0  0  0  0  0  0  0  0  0  0  0
    0.9116   20.3356  -30.4201 H   0  0  0  0  0  0  0  0  0  0  0  0
    0.8504   16.5570  -30.5035 H   0  0  0  0  0  0  0  0  0  0  0  0
   -2.1783   13.9519  -33.4224 H   0  0  0  0  0  0  0  0  0  0  0  0
   -6.2936   15.4618  -34.2061 H   0  0  0  0  0  0  0  0  0  0  0  0
   -8.2090   16.5257  -33.0125 H   0  0  0  0  0  0  0  0  0  0  0  0
   -7.9507   18.7838  -31.9881 H   0  0  0  0  0  0  0  0  0  0  0  0
   -3.8850   19.8406  -30.9355 H   0  0  0  0  0  0  0  0  0  0  0  0
   -3.5540   22.1339  -30.0175 H   0  0  0  0  0  0  0  0  0  0  0  0
   -6.1060   24.3320  -28.3750 H   0  0  0  0  0  0  0  0  0  0  0  0
   -4.7384   22.9725  -27.4181 H   0  0  0  0  0  0  0  0  0  0  0  0
   -3.7263   23.1106  -28.9128 H   0  0  0  0  0  0  0  0  0  0  0  0
   -3.1112   25.4360  -27.5234 H   0  0  0  0  0  0  0  0  0  0  0  0
   -3.2918   24.1574  -26.2176 H   0  0  0  0  0  0  0  0  0  0  0  0
   -1.8207   24.9512  -29.3444 H   0  0  0  0  0  0  0  0  0  0  0  0
   -0.1601   24.7457  -28.6307 H   0  0  0  0  0  0  0  0  0  0  0  0
   -0.9309   23.3892  -30.8069 H   0  0  0  0  0  0  0  0  0  0  0  0
    0.1425   22.6685  -29.5535 H   0  0  0  0  0  0  0  0  0  0  0  0
   -2.3876   20.7568  -28.0420 H   0  0  0  0  0  0  0  0  0  0  0  0
   -0.5976   20.9298  -28.3418 H   0  0  0  0  0  0  0  0  0  0  0  0
   -2.1774   22.2032  -26.3336 H   0  0  0  0  0  0  0  0  0  0  0  0
   -0.4156   22.4377  -26.7444 H   0  0  0  0  0  0  0  0  0  0  0  0
   -7.2035   23.4326  -31.9405 H   0  0  0  0  0  0  0  0  0  0  0  0
   -7.5206   21.1517  -32.8889 H   0  0  0  0  0  0  0  0  0  0  0  0
   -3.8332   18.9116  -33.3321 H   0  0  0  0  0  0  0  0  0  0  0  0
   -2.4311   18.9086  -33.5051 H   0  0  0  0  0  0  0  0  0  0  0  0
   -0.6920   21.1470  -31.1270 H   0  0  0  0  0  0  0  0  0  0  0  0
   -0.9968   22.5626  -32.8121 H   0  0  0  0  0  0  0  0  0  0  0  0
   -3.2971   21.5328  -32.5653 H   0  0  0  0  0  0  0  0  0  0  0  0
   -2.9481   22.4317  -34.0809 H   0  0  0  0  0  0  0  0  0  0  0  0
   -2.9445   20.6354  -34.0809 H   0  0  0  0  0  0  0  0  0  0  0  0
    0.7094   21.0274  -34.0084 H   0  0  0  0  0  0  0  0  0  0  0  0
   -0.7067   20.4739  -34.9650 H   0  0  0  0  0  0  0  0  0  0  0  0
   -0.2459   22.2101  -34.9650 H   0  0  0  0  0  0  0  0  0  0  0  0
  1  2  1  0
  2  3  2  0
  3  4  1  0
  4  5  1  0
  5  6  2  0
  6  7  1  0
  7  8  1  0
  8  9  2  0
  8 10  2  0
  8 11  1  0
 11 12  2  0
 12 13  1  0
 13 14  2  0
 14 15  1  0
 15 16  1  0
 16 17  2  0
 17 18  1  0
 18 19  2  0
 19 20  1  0
 20 21  2  0
 20 22  2  0
 20 23  1  0
 23 24  1  0
 24 25  1  0
 25 26  1  0
 26 27  1  0
 27 28  1  0
 28 29  1  0
 29 30  1  0
 30 31  1  0
 19 32  1  0
 32 33  2  0
 15 34  2  0
  7 35  1  0
 35 36  1  0
 36 37  2  0
 37 38  1  0
 38 39  1  0
 39 40  1  0
 39 41  1  0
 37  2  1  0
 35  4  2  0
 34 11  1  0
 33 16  1  0
 31 26  1  0
  1 42  1  0
  1 43  1  0
  1 44  1  0
  3 45  1  0
  6 46  1  0
 12 47  1  0
 13 48  1  0
 14 49  1  0
 17 50  1  0
 18 51  1  0
 23 52  1  0
 24 53  1  0
 24 54  1  0
 25 55  1  0
 25 56  1  0
 27 57  1  0
 27 58  1  0
 28 59  1  0
 28 60  1  0
 30 61  1  0
 30 62  1  0
 31 63  1  0
 31 64  1  0
 32 65  1  0
 33 66  1  0
 34 67  1  0
 36 68  1  0
 38 69  1  0
 39 70  1  0
 40 71  1  0
 40 72  1  0
 40 73  1  0
 41 74  1  0
 41 75  1  0
 41 76  1  0
M  END
>  <UniqueID>  (17) 
17

>  <SMILES>  (17) 
Cc1cc2ncn(S(=O)(=O)c3cccc(-c4ccc(S(=O)(=O)NCCN5CCOCC5)cc4)c3)c2cc1NC(C)C

>  <Energy>  (17) 
135.46065307622592

>  <Genealogy>  (17) 
Cc1cc2ncn(S(=O)(=O)c3cccc(-c4ccc(S(=O)(=O)NCCN5CCOCC5)cc4)c3)c2cc1NC(C)C (3D coordinates assigned)
Cc1cc2ncn(S(=O)(=O)c3cccc(-c4ccc(S(=O)(=O)NCCN5CCOCC5)cc4)c3)c2cc1NC(C)C (nonaromatic ring conformer: 135.46065307622592 kcal/mol)

>  <smiles>  (17) 
Cc1cc2ncn(S(=O)(=O)c3cccc(-c4ccc(S(=O)(=O)NCCN5CCOCC5)cc4)c3)c2cc1NC(C)C

>  <score_type>  (17) 
oracle

>  <origin>  (17) 
adgpu

>  <m_score__min__energy>  (17) 
-11.140000000000001

>  <m_primary>  (17) 
energy

$$$$
17:0
     RDKit          3D

 51 53  0  0  0  0  0  0  0  0999 V2000
   -1.2320   26.7320  -24.5040 C   0  0  0  0  0  0  0  0  0  0  0  0
   -1.4880   26.1280  -25.8530 C   0  0  0  0  0  0  0  0  0  0  0  0
   -2.5880   25.2790  -26.0490 C   0  0  0  0  0  0  0  0  0  0  0  0
   -2.8490   24.7450  -27.3150 C   0  0  0  0  0  0  0  0  0  0  0  0
   -2.0100   25.0530  -28.4010 C   0  0  0  0  0  0  0  0  0  0  0  0
   -2.2570   24.5430  -29.7190 N   0  0  0  0  0  0  0  0  0  0  0  0
   -3.5130   24.5610  -30.4070 C   0  0  0  0  0  0  0  0  0  0  0  0
   -4.0950   25.6630  -30.5820 O   0  0  0  0  0  0  0  0  0  0  0  0
   -4.0410   23.3600  -30.9850 N   0  0  0  0  0  0  0  0  0  0  0  0
   -5.4220   23.0740  -31.2650 C   0  0  0  0  0  0  0  0  0  0  0  0
   -6.3970   24.0740  -31.1940 C   0  0  0  0  0  0  0  0  0  0  0  0
   -7.7330   23.7760  -31.4400 C   0  0  0  0  0  0  0  0  0  0  0  0
   -8.1330   22.4710  -31.7660 C   0  0  0  0  0  0  0  0  0  0  0  0
   -9.6050   22.2240  -31.9810 C   0  0  0  0  0  0  0  0  0  0  0  0
   -7.1600   21.4340  -31.8170 C   0  0  0  0  0  0  0  0  0  0  0  0
   -7.5820   19.7400  -32.2130 S   0  0  0  0  0  0  0  0  0  0  0  0
   -8.6200   19.6810  -33.2970 O   0  0  0  0  0  0  0  0  0  0  0  0
   -8.1850   19.0900  -30.9990 O   0  0  0  0  0  0  0  0  0  0  0  0
   -6.1850   18.8150  -32.7200 N   0  0  0  0  0  0  0  0  0  0  0  0
   -6.2410   17.4470  -32.1660 C   0  0  0  0  0  0  0  0  0  0  0  0
   -5.1390   16.5330  -32.7490 C   0  0  0  0  0  0  0  0  0  0  0  0
   -4.0810   17.3310  -33.5160 C   0  0  0  0  0  0  0  0  0  0  0  0
   -4.7280   18.1840  -34.6190 C   0  0  0  0  0  0  0  0  0  0  0  0
   -6.0820   18.7790  -34.1870 C   0  0  0  0  0  0  0  0  0  0  0  0
   -5.8060   21.7490  -31.5480 C   0  0  0  0  0  0  0  0  0  0  0  0
   -4.8450   20.7360  -31.5670 O   0  0  0  0  0  0  0  0  0  0  0  0
   -0.9410   25.9370  -28.2110 C   0  0  0  0  0  0  0  0  0  0  0  0
   -0.6790   26.4700  -26.9460 C   0  0  0  0  0  0  0  0  0  0  0  0
   -1.5334   26.0209  -23.7207 H   0  0  0  0  0  0  0  0  0  0  0  0
   -0.1605   26.9585  -24.4010 H   0  0  0  0  0  0  0  0  0  0  0  0
   -1.8144   27.6595  -24.4010 H   0  0  0  0  0  0  0  0  0  0  0  0
   -3.2474   25.0326  -25.2038 H   0  0  0  0  0  0  0  0  0  0  0  0
   -3.7139   24.0815  -27.4620 H   0  0  0  0  0  0  0  0  0  0  0  0
   -6.1050   25.1041  -30.9417 H   0  0  0  0  0  0  0  0  0  0  0  0
   -8.4869   24.5746  -31.3782 H   0  0  0  0  0  0  0  0  0  0  0  0
  -10.1087   22.1395  -31.0068 H   0  0  0  0  0  0  0  0  0  0  0  0
  -10.0386   23.0619  -32.5465 H   0  0  0  0  0  0  0  0  0  0  0  0
   -9.7414   21.2904  -32.5465 H   0  0  0  0  0  0  0  0  0  0  0  0
   -6.1146   17.5018  -31.0747 H   0  0  0  0  0  0  0  0  0  0  0  0
   -7.2154   17.0139  -32.4360 H   0  0  0  0  0  0  0  0  0  0  0  0
   -4.6495   15.9954  -31.9235 H   0  0  0  0  0  0  0  0  0  0  0  0
   -5.6138   15.8330  -33.4523 H   0  0  0  0  0  0  0  0  0  0  0  0
   -3.5502   17.9918  -32.8148 H   0  0  0  0  0  0  0  0  0  0  0  0
   -3.3801   16.6245  -33.9846 H   0  0  0  0  0  0  0  0  0  0  0  0
   -4.0455   19.0083  -34.8734 H   0  0  0  0  0  0  0  0  0  0  0  0
   -4.9113   17.5292  -35.4836 H   0  0  0  0  0  0  0  0  0  0  0  0
   -6.1699   19.8022  -34.5812 H   0  0  0  0  0  0  0  0  0  0  0  0
   -6.8907   18.1483  -34.5848 H   0  0  0  0  0  0  0  0  0  0  0  0
   -5.0780   19.7590  -31.6950 H   0  0  0  0  0  0  0  0  0  0  0  0
   -0.3030   26.2139  -29.0633 H   0  0  0  0  0  0  0  0  0  0  0  0
    0.1656   27.1609  -26.8071 H   0  0  0  0  0  0  0  0  0  0  0  0
  1  2  1  0
  2  3  2  0
  3  4  1  0
  4  5  2  0
  5  6  1  0
  6  7  1  0
  7  8  2  0
  7  9  1  0
  9 10  1  0
 10 11  2  0
 11 12  1  0
 12 13  2  0
 13 14  1  0
 13 15  1  0
 15 16  1  0
 16 17  2  0
 16 18  2  0
 16 19  1  0
 19 20  1  0
 20 21  1  0
 21 22  1  0
 22 23  1  0
 23 24  1  0
 15 25  2  0
 25 26  1  0
  5 27  1  0
 27 28  2  0
 28  2  1  0
 25 10  1  0
 24 19  1  0
  1 29  1  0
  1 30  1  0
  1 31  1  0
  3 32  1  0
  4 33  1  0
 11 34  1  0
 12 35  1  0
 14 36  1  0
 14 37  1  0
 14 38  1  0
 20 39  1  0
 20 40  1  0
 21 41  1  0
 21 42  1  0
 22 43  1  0
 22 44  1  0
 23 45  1  0
 23 46  1  0
 24 47  1  0
 24 48  1  0
 26 49  1  0
 27 50  1  0
 28 51  1  0
M  CHG  2   6  -1   9  -1
M  END
>  <UniqueID>  (18) 
18

>  <SMILES>  (18) 
Cc1ccc([N-]C(=O)[N-]c2ccc(C)c(S(=O)(=O)N3CCCCC3)c2O)cc1

>  <Energy>  (18) 
65.61139927505546

>  <Genealogy>  (18) 
Cc1ccc([N-]C(=O)[N-]c2ccc(C)c(S(=O)(=O)N3CCCCC3)c2O)cc1 (protonated)
Cc1ccc([N-]C(=O)[N-]c2ccc(C)c(S(=O)(=O)N3CCCCC3)c2O)cc1 (3D coordinates assigned)
Cc1ccc([N-]C(=O)[N-]c2ccc(C)c(S(=O)(=O)N3CCCCC3)c2O)cc1 (nonaromatic ring conformer: 65.61139927505546 kcal/mol)

>  <smiles>  (18) 
Cc1ccc(NC(=O)Nc2ccc(C)c(S(=O)(=O)N3CCCCC3)c2O)cc1

>  <score_type>  (18) 
oracle

>  <origin>  (18) 
adgpu

>  <m_score__min__energy>  (18) 
-13.4

>  <m_primary>  (18) 
energy

$$$$
18:0
     RDKit          3D

 60 63  0  0  0  0  0  0  0  0999 V2000
   -8.6970   19.6250  -31.4580 C   0  0  0  0  0  0  0  0  0  0  0  0
   -7.8210   20.8370  -31.6310 C   0  0  0  0  0  0  0  0  0  0  0  0
   -8.2330   22.0360  -31.0270 C   0  0  0  0  0  0  0  0  0  0  0  0
   -7.4670   23.1930  -31.1410 C   0  0  0  0  0  0  0  0  0  0  0  0
   -6.2880   23.1900  -31.8850 C   0  0  0  0  0  0  0  0  0  0  0  0
   -5.5290   24.4060  -31.9660 N   0  0  0  0  0  0  0  0  0  0  0  0
   -5.1990   25.2580  -30.8630 C   0  0  0  0  0  0  0  0  0  0  0  0
   -6.1040   25.9530  -30.3350 O   0  0  0  0  0  0  0  0  0  0  0  0
   -3.8660   25.3340  -30.3380 N   0  0  0  0  0  0  0  0  0  0  0  0
   -3.2590   24.4070  -29.4240 C   0  0  0  0  0  0  0  0  0  0  0  0
   -3.7680   23.1140  -29.2540 C   0  0  0  0  0  0  0  0  0  0  0  0
   -3.1380   22.2170  -28.3970 C   0  0  0  0  0  0  0  0  0  0  0  0
   -1.9570   22.5710  -27.7260 C   0  0  0  0  0  0  0  0  0  0  0  0
   -1.3280   21.5540  -26.8080 C   0  0  0  0  0  0  0  0  0  0  0  0
   -1.4150   23.8720  -27.9030 C   0  0  0  0  0  0  0  0  0  0  0  0
    0.1120   24.3370  -27.1100 S   0  0  0  0  0  0  0  0  0  0  0  0
    0.7250   23.1150  -26.4820 O   0  0  0  0  0  0  0  0  0  0  0  0
    1.0950   24.8910  -28.1050 O   0  0  0  0  0  0  0  0  0  0  0  0
   -0.2090   25.6130  -25.8920 C   0  0  0  0  0  0  0  0  0  0  0  0
   -0.7030   25.0780  -24.5570 C   0  0  0  0  0  0  0  0  0  0  0  0
   -1.6630   25.8020  -25.4870 C   0  0  0  0  0  0  0  0  0  0  0  0
   -2.0830   24.7810  -28.7570 C   0  0  0  0  0  0  0  0  0  0  0  0
   -1.5880   26.0640  -28.9610 O   0  0  0  0  0  0  0  0  0  0  0  0
   -5.8390   21.9920  -32.4730 C   0  0  0  0  0  0  0  0  0  0  0  0
   -4.6330   21.9790  -33.1690 O   0  0  0  0  0  0  0  0  0  0  0  0
   -6.5870   20.8010  -32.3370 C   0  0  0  0  0  0  0  0  0  0  0  0
   -5.9180   19.3080  -33.0460 S   0  0  0  0  0  0  0  0  0  0  0  0
   -6.6710   18.1360  -32.4800 O   0  0  0  0  0  0  0  0  0  0  0  0
   -6.0880   19.2680  -34.5390 O   0  0  0  0  0  0  0  0  0  0  0  0
   -4.1780   19.1660  -32.6160 C   0  0  0  0  0  0  0  0  0  0  0  0
   -3.8230   20.0510  -31.4000 C   0  0  0  0  0  0  0  0  0  0  0  0
   -2.3360   20.4560  -31.3780 C   0  0  0  0  0  0  0  0  0  0  0  0
   -1.4910   19.4500  -32.0330 N   0  0  0  0  0  0  0  0  0  0  0  0
   -1.7880   19.3410  -33.4740 C   0  0  0  0  0  0  0  0  0  0  0  0
   -3.2860   19.5170  -33.8150 C   0  0  0  0  0  0  0  0  0  0  0  0
   -8.8405   19.4264  -30.3856 H   0  0  0  0  0  0  0  0  0  0  0  0
   -9.6732   19.8076  -31.9310 H   0  0  0  0  0  0  0  0  0  0  0  0
   -8.2174   18.7554  -31.9310 H   0  0  0  0  0  0  0  0  0  0  0  0
   -9.1731   22.0614  -30.4564 H   0  0  0  0  0  0  0  0  0  0  0  0
   -7.7944   24.1162  -30.6404 H   0  0  0  0  0  0  0  0  0  0  0  0
   -4.6711   22.8054  -29.8010 H   0  0  0  0  0  0  0  0  0  0  0  0
   -3.5710   21.2176  -28.2433 H   0  0  0  0  0  0  0  0  0  0  0  0
   -1.5072   21.8437  -25.7621 H   0  0  0  0  0  0  0  0  0  0  0  0
   -1.7728   20.5657  -26.9960 H   0  0  0  0  0  0  0  0  0  0  0  0
   -0.2451   21.5105  -26.9960 H   0  0  0  0  0  0  0  0  0  0  0  0
    0.5880   26.2925  -26.2283 H   0  0  0  0  0  0  0  0  0  0  0  0
   -0.8009   23.9935  -24.4014 H   0  0  0  0  0  0  0  0  0  0  0  0
   -0.3952   25.2008  -23.5081 H   0  0  0  0  0  0  0  0  0  0  0  0
   -2.4554   25.2414  -26.0045 H   0  0  0  0  0  0  0  0  0  0  0  0
   -2.3374   26.6656  -25.3899 H   0  0  0  0  0  0  0  0  0  0  0  0
   -3.9912   18.1182  -32.3383 H   0  0  0  0  0  0  0  0  0  0  0  0
   -4.4365   20.9633  -31.4367 H   0  0  0  0  0  0  0  0  0  0  0  0
   -4.0230   19.4651  -30.4908 H   0  0  0  0  0  0  0  0  0  0  0  0
   -2.2199   21.4158  -31.9027 H   0  0  0  0  0  0  0  0  0  0  0  0
   -2.0185   20.5405  -30.3282 H   0  0  0  0  0  0  0  0  0  0  0  0
   -1.6580   18.5220  -31.5780 H   0  0  0  0  0  0  0  0  0  0  0  0
   -1.2173   20.1166  -34.0058 H   0  0  0  0  0  0  0  0  0  0  0  0
   -1.5049   18.3244  -33.7846 H   0  0  0  0  0  0  0  0  0  0  0  0
   -3.4673   20.5634  -34.1018 H   0  0  0  0  0  0  0  0  0  0  0  0
   -3.5350   18.8368  -34.6428 H   0  0  0  0  0  0  0  0  0  0  0  0
  1  2  1  0
  2  3  2  0
  3  4  1  0
  4  5  2  0
  5  6  1  0
  6  7  1  0
  7  8  2  0
  7  9  1  0
  9 10  1  0
 10 11  2  0
 11 12  1  0
 12 13  2  0
 13 14  1  0
 13 15  1  0
 15 16  1  0
 16 17  2  0
 16 18  2  0
 16 19  1  0
 19 20  1  0
 20 21  1  0
 15 22  2  0
 22 23  1  0
  5 24  1  0
 24 25  1  0
 24 26  2  0
 26 27  1  0
 27 28  2  0
 27 29  2  0
 27 30  1  0
 30 31  1  0
 31 32  1  0
 32 33  1  0
 33 34  1  0
 34 35  1  0
 26  2  1  0
 35 30  1  0
 22 10  1  0
 21 19  1  0
  1 36  1  0
  1 37  1  0
  1 38  1  0
  3 39  1  0
  4 40  1  0
 11 41  1  0
 12 42  1  0
 14 43  1  0
 14 44  1  0
 14 45  1  0
 19 46  1  0
 20 47  1  0
 20 48  1  0
 21 49  1  0
 21 50  1  0
 30 51  1  0
 31 52  1  0
 31 53  1  0
 32 54  1  0
 32 55  1  0
 33 56  1  0
 34 57  1  0
 34 58  1  0
 35 59  1  0
 35 60  1  0
M  CHG  4   6  -1   9  -1  23  -1  25  -1
M  END
>  <UniqueID>  (19) 
19

>  <SMILES>  (19) 
Cc1ccc([N-]C(=O)[N-]c2ccc(C)c(S(=O)(=O)C3CC3)c2[O-])c([O-])c1S(=O)(=O)C1CCNCC1

>  <Energy>  (19) 
340.2776655197656

>  <Genealogy>  (19) 
Cc1ccc([N-]C(=O)[N-]c2ccc(C)c(S(=O)(=O)C3CC3)c2[O-])c([O-])c1S(=O)(=O)C1CCNCC1 (protonated)
Cc1ccc([N-]C(=O)[N-]c2ccc(C)c(S(=O)(=O)C3CC3)c2[O-])c([O-])c1S(=O)(=O)C1CCNCC1 (3D coordinates assigned)
Cc1ccc([N-]C(=O)[N-]c2ccc(C)c(S(=O)(=O)C3CC3)c2[O-])c([O-])c1S(=O)(=O)C1CCNCC1 (nonaromatic ring conformer: 340.2776655197656 kcal/mol)

>  <smiles>  (19) 
Cc1ccc(NC(=O)Nc2ccc(C)c(S(=O)(=O)C3CC3)c2O)c(O)c1S(=O)(=O)C1CCNCC1

>  <score_type>  (19) 
oracle

>  <origin>  (19) 
adgpu

>  <m_score__min__energy>  (19) 
-17.710000000000001

>  <m_primary>  (19) 
energy

$$$$
19:0
     RDKit          3D

 55 58  0  0  0  0  0  0  0  0999 V2000
   -5.7320   25.3020  -28.7340 O   0  0  0  0  0  0  0  0  0  0  0  0
   -5.2200   25.1840  -30.1420 S   0  0  0  0  0  0  0  0  0  0  0  0
   -5.5750   26.4480  -30.8730 O   0  0  0  0  0  0  0  0  0  0  0  0
   -3.4980   24.9590  -30.0730 N   0  0  0  0  0  0  0  0  0  0  0  0
   -2.8080   23.8720  -29.4370 C   0  0  0  0  0  0  0  0  0  0  0  0
   -2.0160   22.9660  -30.1640 C   0  0  0  0  0  0  0  0  0  0  0  0
   -1.3620   21.9130  -29.5100 C   0  0  0  0  0  0  0  0  0  0  0  0
   -1.4770   21.7730  -28.1210 C   0  0  0  0  0  0  0  0  0  0  0  0
   -2.2340   22.6930  -27.3880 C   0  0  0  0  0  0  0  0  0  0  0  0
   -2.9030   23.7380  -28.0430 C   0  0  0  0  0  0  0  0  0  0  0  0
   -3.6710   24.6430  -27.3130 O   0  0  0  0  0  0  0  0  0  0  0  0
   -0.7140   20.6680  -27.4430 C   0  0  0  0  0  0  0  0  0  0  0  0
   -0.8190   19.3540  -28.2390 C   0  0  0  0  0  0  0  0  0  0  0  0
   -0.6930   19.5130  -29.7790 C   0  0  0  0  0  0  0  0  0  0  0  0
   -0.4730   20.9580  -30.2590 C   0  0  0  0  0  0  0  0  0  0  0  0
   -5.9630   23.7880  -30.9220 C   0  0  0  0  0  0  0  0  0  0  0  0
   -7.3520   23.6020  -30.8790 C   0  0  0  0  0  0  0  0  0  0  0  0
   -7.9260   22.4620  -31.4470 C   0  0  0  0  0  0  0  0  0  0  0  0
   -7.1170   21.4920  -32.0440 C   0  0  0  0  0  0  0  0  0  0  0  0
   -5.7270   21.6650  -32.0860 C   0  0  0  0  0  0  0  0  0  0  0  0
   -4.6900   20.4040  -32.7600 S   0  0  0  0  0  0  0  0  0  0  0  0
   -4.0270   19.6540  -31.6370 O   0  0  0  0  0  0  0  0  0  0  0  0
   -3.6140   21.0420  -33.5940 O   0  0  0  0  0  0  0  0  0  0  0  0
   -5.6020   19.2950  -33.7600 N   0  0  0  0  0  0  0  0  0  0  0  0
   -6.7290   18.6830  -33.0130 C   0  0  0  0  0  0  0  0  0  0  0  0
   -6.4380   17.2420  -32.5660 C   0  0  0  0  0  0  0  0  0  0  0  0
   -6.1230   16.3390  -33.7710 C   0  0  0  0  0  0  0  0  0  0  0  0
   -5.4690   17.1050  -34.9340 C   0  0  0  0  0  0  0  0  0  0  0  0
   -4.6990   18.3260  -34.4200 C   0  0  0  0  0  0  0  0  0  0  0  0
   -5.1590   22.8250  -31.5450 C   0  0  0  0  0  0  0  0  0  0  0  0
   -1.9090   23.0843  -31.2524 H   0  0  0  0  0  0  0  0  0  0  0  0
   -2.3050   22.5969  -26.2945 H   0  0  0  0  0  0  0  0  0  0  0  0
   -4.2250   25.3590  -27.7690 H   0  0  0  0  0  0  0  0  0  0  0  0
    0.3444   20.9574  -27.3649 H   0  0  0  0  0  0  0  0  0  0  0  0
   -1.1450   20.5072  -26.4438 H   0  0  0  0  0  0  0  0  0  0  0  0
   -0.0176   18.6823  -27.8977 H   0  0  0  0  0  0  0  0  0  0  0  0
   -1.8276   18.9576  -28.0503 H   0  0  0  0  0  0  0  0  0  0  0  0
    0.1593   18.9057  -30.1178 H   0  0  0  0  0  0  0  0  0  0  0  0
   -1.6530   19.1863  -30.2052 H   0  0  0  0  0  0  0  0  0  0  0  0
    0.5777   21.2372  -30.0916 H   0  0  0  0  0  0  0  0  0  0  0  0
   -0.7192   21.0143  -31.3296 H   0  0  0  0  0  0  0  0  0  0  0  0
   -7.9916   24.3558  -30.3967 H   0  0  0  0  0  0  0  0  0  0  0  0
   -9.0175   22.3278  -31.4241 H   0  0  0  0  0  0  0  0  0  0  0  0
   -7.5718   20.5911  -32.4817 H   0  0  0  0  0  0  0  0  0  0  0  0
   -6.9309   19.2933  -32.1204 H   0  0  0  0  0  0  0  0  0  0  0  0
   -7.5947   18.6498  -33.6908 H   0  0  0  0  0  0  0  0  0  0  0  0
   -5.5746   17.2451  -31.8845 H   0  0  0  0  0  0  0  0  0  0  0  0
   -7.3308   16.8474  -32.0588 H   0  0  0  0  0  0  0  0  0  0  0  0
   -5.4374   15.5433  -33.4444 H   0  0  0  0  0  0  0  0  0  0  0  0
   -7.0763   15.9305  -34.1375 H   0  0  0  0  0  0  0  0  0  0  0  0
   -4.7727   16.4353  -35.4600 H   0  0  0  0  0  0  0  0  0  0  0  0
   -6.2597   17.4499  -35.6165 H   0  0  0  0  0  0  0  0  0  0  0  0
   -3.9411   17.9924  -33.6959 H   0  0  0  0  0  0  0  0  0  0  0  0
   -4.2255   18.8236  -35.2792 H   0  0  0  0  0  0  0  0  0  0  0  0
   -4.0721   22.9813  -31.6098 H   0  0  0  0  0  0  0  0  0  0  0  0
  1  2  2  0
  2  3  2  0
  2  4  1  0
  4  5  1  0
  5  6  2  0
  6  7  1  0
  7  8  2  0
  8  9  1  0
  9 10  2  0
 10 11  1  0
  8 12  1  0
 12 13  1  0
 13 14  1  0
 14 15  1  0
  2 16  1  0
 16 17  2  0
 17 18  1  0
 18 19  2  0
 19 20  1  0
 20 21  1  0
 21 22  2  0
 21 23  2  0
 21 24  1  0
 24 25  1  0
 25 26  1  0
 26 27  1  0
 27 28  1  0
 28 29  1  0
 20 30  2  0
 10  5  1  0
 30 16  1  0
 15  7  1  0
 29 24  1  0
  6 31  1  0
  9 32  1  0
 11 33  1  0
 12 34  1  0
 12 35  1  0
 13 36  1  0
 13 37  1  0
 14 38  1  0
 14 39  1  0
 15 40  1  0
 15 41  1  0
 17 42  1  0
 18 43  1  0
 19 44  1  0
 25 45  1  0
 25 46  1  0
 26 47  1  0
 26 48  1  0
 27 49  1  0
 27 50  1  0
 28 51  1  0
 28 52  1  0
 29 53  1  0
 29 54  1  0
 30 55  1  0
M  CHG  1   4  -1
M  END
>  <UniqueID>  (20) 
20

>  <SMILES>  (20) 
O=S(=O)([N-]c1cc2c(cc1O)CCCC2)c1cccc(S(=O)(=O)N2CCCCC2)c1

>  <Energy>  (20) 
65.29088062612881

>  <Genealogy>  (20) 
O=S(=O)([N-]c1cc2c(cc1O)CCCC2)c1cccc(S(=O)(=O)N2CCCCC2)c1 (protonated)
O=S(=O)([N-]c1cc2c(cc1O)CCCC2)c1cccc(S(=O)(=O)N2CCCCC2)c1 (3D coordinates assigned)
O=S(=O)([N-]c1cc2c(cc1O)CCCC2)c1cccc(S(=O)(=O)N2CCCCC2)c1 (nonaromatic ring conformer: 65.29088062612881 kcal/mol)

>  <smiles>  (20) 
O=S(=O)(Nc1cc2c(cc1O)CCCC2)c1cccc(S(=O)(=O)N2CCCCC2)c1

>  <score_type>  (20) 
oracle

>  <origin>  (20) 
adgpu

>  <m_score__min__energy>  (20) 
-12.69

>  <m_primary>  (20) 
energy

$$$$
20:0
     RDKit          3D

 47 49  0  0  0  0  0  0  0  0999 V2000
   -2.4110   20.6410  -28.8150 C   0  0  0  0  0  0  0  0  0  0  0  0
   -3.0760   21.9090  -29.2590 C   0  0  0  0  0  0  0  0  0  0  0  0
   -3.9760   22.5120  -28.4370 N   0  0  0  0  0  0  0  0  0  0  0  0
   -4.6000   23.6340  -28.7940 N   0  0  0  0  0  0  0  0  0  0  0  0
   -4.3580   24.2080  -29.9980 C   0  0  0  0  0  0  0  0  0  0  0  0
   -5.2100   25.7110  -30.4710 S   0  0  0  0  0  0  0  0  0  0  0  0
   -6.8800   25.0790  -30.0840 C   0  0  0  0  0  0  0  0  0  0  0  0
   -7.1740   23.8260  -30.8510 C   0  0  0  0  0  0  0  0  0  0  0  0
   -7.9040   23.8900  -31.8770 O   0  0  0  0  0  0  0  0  0  0  0  0
   -6.5610   22.5860  -30.4650 N   0  0  0  0  0  0  0  0  0  0  0  0
   -6.8750   21.3150  -31.0570 C   0  0  0  0  0  0  0  0  0  0  0  0
   -8.1410   20.7850  -31.2600 C   0  0  0  0  0  0  0  0  0  0  0  0
   -9.4440   21.4110  -30.8620 C   0  0  0  0  0  0  0  0  0  0  0  0
   -8.0180   19.6290  -31.9600 N   0  0  0  0  0  0  0  0  0  0  0  0
   -9.1230   18.7750  -32.4080 C   0  0  0  0  0  0  0  0  0  0  0  0
   -6.7260   19.4010  -32.1910 N   0  0  0  0  0  0  0  0  0  0  0  0
   -6.1820   18.2710  -32.8960 C   0  0  0  0  0  0  0  0  0  0  0  0
   -6.0440   17.0320  -32.2520 C   0  0  0  0  0  0  0  0  0  0  0  0
   -5.5040   15.9380  -32.9350 C   0  0  0  0  0  0  0  0  0  0  0  0
   -5.0900   16.0770  -34.2640 C   0  0  0  0  0  0  0  0  0  0  0  0
   -5.2150   17.3100  -34.9090 C   0  0  0  0  0  0  0  0  0  0  0  0
   -5.7560   18.4060  -34.2280 C   0  0  0  0  0  0  0  0  0  0  0  0
   -6.0160   20.4250  -31.6730 C   0  0  0  0  0  0  0  0  0  0  0  0
   -4.7660   20.5450  -31.7780 O   0  0  0  0  0  0  0  0  0  0  0  0
   -3.4620   23.6410  -30.8440 N   0  0  0  0  0  0  0  0  0  0  0  0
   -2.8090   22.4990  -30.5070 C   0  0  0  0  0  0  0  0  0  0  0  0
   -1.8270   21.9080  -31.4750 C   0  0  0  0  0  0  0  0  0  0  0  0
   -2.3910   20.6029  -27.7158 H   0  0  0  0  0  0  0  0  0  0  0  0
   -2.9724   19.7777  -29.2017 H   0  0  0  0  0  0  0  0  0  0  0  0
   -1.3816   20.6120  -29.2017 H   0  0  0  0  0  0  0  0  0  0  0  0
   -6.9420   24.8638  -29.0070 H   0  0  0  0  0  0  0  0  0  0  0  0
   -7.6175   25.8439  -30.3686 H   0  0  0  0  0  0  0  0  0  0  0  0
   -5.7890   22.6210  -29.7640 H   0  0  0  0  0  0  0  0  0  0  0  0
   -9.5145   21.4449  -29.7648 H   0  0  0  0  0  0  0  0  0  0  0  0
   -9.4978   22.4333  -31.2646 H   0  0  0  0  0  0  0  0  0  0  0  0
  -10.2757   20.8141  -31.2646 H   0  0  0  0  0  0  0  0  0  0  0  0
   -9.6499   18.3678  -31.5325 H   0  0  0  0  0  0  0  0  0  0  0  0
   -9.8232   19.3690  -33.0138 H   0  0  0  0  0  0  0  0  0  0  0  0
   -8.7247   17.9477  -33.0138 H   0  0  0  0  0  0  0  0  0  0  0  0
   -6.3621   16.9209  -31.2049 H   0  0  0  0  0  0  0  0  0  0  0  0
   -5.4046   14.9674  -32.4270 H   0  0  0  0  0  0  0  0  0  0  0  0
   -4.6661   15.2157  -34.8011 H   0  0  0  0  0  0  0  0  0  0  0  0
   -4.8877   17.4193  -35.9535 H   0  0  0  0  0  0  0  0  0  0  0  0
   -5.8481   19.3767  -34.7372 H   0  0  0  0  0  0  0  0  0  0  0  0
   -1.0136   21.4185  -30.9193 H   0  0  0  0  0  0  0  0  0  0  0  0
   -2.3368   21.1666  -32.1077 H   0  0  0  0  0  0  0  0  0  0  0  0
   -1.4105   22.7056  -32.1077 H   0  0  0  0  0  0  0  0  0  0  0  0
  1  2  1  0
  2  3  2  0
  3  4  1  0
  4  5  2  0
  5  6  1  0
  6  7  1  0
  7  8  1  0
  8  9  2  0
  8 10  1  0
 10 11  1  0
 11 12  2  0
 12 13  1  0
 12 14  1  0
 14 15  1  0
 14 16  1  0
 16 17  1  0
 17 18  2  0
 18 19  1  0
 19 20  2  0
 20 21  1  0
 21 22  2  0
 16 23  1  0
 23 24  2  0
  5 25  1  0
 25 26  2  0
 26 27  1  0
 26  2  1  0
 23 11  1  0
 22 17  1  0
  1 28  1  0
  1 29  1  0
  1 30  1  0
  7 31  1  0
  7 32  1  0
 10 33  1  0
 13 34  1  0
 13 35  1  0
 13 36  1  0
 15 37  1  0
 15 38  1  0
 15 39  1  0
 18 40  1  0
 19 41  1  0
 20 42  1  0
 21 43  1  0
 22 44  1  0
 27 45  1  0
 27 46  1  0
 27 47  1  0
M  END
>  <UniqueID>  (21) 
21

>  <SMILES>  (21) 
Cc1nnc(SCC(=O)Nc2c(C)n(C)n(-c3ccccc3)c2=O)nc1C

>  <Energy>  (21) 
85.73929102674239

>  <Genealogy>  (21) 
Cc1nnc(SCC(=O)Nc2c(C)n(C)n(-c3ccccc3)c2=O)nc1C (3D coordinates assigned)
Cc1nnc(SCC(=O)Nc2c(C)n(C)n(-c3ccccc3)c2=O)nc1C (optimized conformer: 85.73929102674239 kcal/mol)

>  <smiles>  (21) 
Cc1nnc(SCC(=O)Nc2c(C)n(C)n(-c3ccccc3)c2=O)nc1C

>  <score_type>  (21) 
oracle

>  <origin>  (21) 
adgpu

>  <m_score__min__energy>  (21) 
-9.0600000000000005

>  <m_primary>  (21) 
energy

$$$$
21:0
     RDKit          3D

 20 21  0  0  0  0  0  0  0  0999 V2000
   -3.8680   26.2100  -30.2860 H   0  0  0  0  0  0  0  0  0  0  0  0
   -3.8860   25.2970  -30.7910 N   0  0  0  0  0  0  0  0  0  0  0  0
   -4.9600   24.5800  -30.8400 C   0  0  0  0  0  0  0  0  0  0  0  0
   -5.0210   23.3950  -31.4790 N   0  0  0  0  0  0  0  0  0  0  0  0
   -6.2620   22.8400  -31.3880 C   0  0  0  0  0  0  0  0  0  0  0  0
   -6.5600   21.5190  -31.9900 C   0  0  0  0  0  0  0  0  0  0  0  0
   -7.6680   20.7900  -31.5200 C   0  0  0  0  0  0  0  0  0  0  0  0
   -8.2892   21.2040  -30.7121 H   0  0  0  0  0  0  0  0  0  0  0  0
   -7.9870   19.5460  -32.0690 C   0  0  0  0  0  0  0  0  0  0  0  0
   -8.8596   18.9894  -31.6966 H   0  0  0  0  0  0  0  0  0  0  0  0
   -7.2020   19.0080  -33.0880 C   0  0  0  0  0  0  0  0  0  0  0  0
   -7.4601   18.0316  -33.5240 H   0  0  0  0  0  0  0  0  0  0  0  0
   -6.0880   19.7090  -33.5550 C   0  0  0  0  0  0  0  0  0  0  0  0
   -5.4693   19.2804  -34.3572 H   0  0  0  0  0  0  0  0  0  0  0  0
   -5.7530   20.9570  -33.0070 C   0  0  0  0  0  0  0  0  0  0  0  0
   -4.6100   21.6180  -33.4530 O   0  0  0  0  0  0  0  0  0  0  0  0
   -4.5570   22.6290  -33.4880 H   0  0  0  0  0  0  0  0  0  0  0  0
   -7.1840   23.5930  -30.6530 C   0  0  0  0  0  0  0  0  0  0  0  0
   -8.2301   23.3157  -30.4561 H   0  0  0  0  0  0  0  0  0  0  0  0
   -6.4200   24.9960  -30.1210 S   0  0  0  0  0  0  0  0  0  0  0  0
  1  2  1  0
  2  3  2  0
  3  4  1  0
  4  5  1  0
  5  6  1  0
  6  7  2  0
  7  8  1  0
  7  9  1  0
  9 10  1  0
  9 11  2  0
 11 12  1  0
 11 13  1  0
 13 14  1  0
 13 15  2  0
 15 16  1  0
 16 17  1  0
  5 18  2  0
 18 19  1  0
 18 20  1  0
 20  3  1  0
 15  6  1  0
M  CHG  1   4  -1
M  END
>  <UniqueID>  (22) 
22

>  <SMILES>  (22) 
[H]/N=c1/[n-]c(-c2ccccc2O)cs1

>  <Energy>  (22) 
54.92737472336424

>  <Genealogy>  (22) 
N=c1[n-]c(-c2ccccc2O)cs1 (protonated)
[H]/N=c1/[n-]c(-c2ccccc2O)cs1 (cis-trans isomerization)
[H]/N=c1/[n-]c(-c2ccccc2O)cs1 (3D coordinates assigned)
[H]/N=c1/[n-]c(-c2ccccc2O)cs1 (optimized conformer: 54.92737472336424 kcal/mol)

>  <smiles>  (22) 
N=c1[nH]c(-c2ccccc2O)cs1

>  <score_type>  (22) 
oracle

>  <origin>  (22) 
adgpu

>  <m_score__min__energy>  (22) 
-7.8899999999999997

>  <m_primary>  (22) 
energy

$$$$
22:0
     RDKit          3D

 51 54  0  0  0  0  0  0  0  0999 V2000
   -7.9200   21.6700  -30.8610 C   0  0  0  0  0  0  0  0  0  0  0  0
   -6.8580   22.7210  -30.7260 C   0  0  0  0  0  0  0  0  0  0  0  0
   -7.0160   23.9620  -31.3530 C   0  0  0  0  0  0  0  0  0  0  0  0
   -6.0140   24.9280  -31.2590 C   0  0  0  0  0  0  0  0  0  0  0  0
   -4.8390   24.6660  -30.5470 C   0  0  0  0  0  0  0  0  0  0  0  0
   -3.8620   25.6540  -30.5010 O   0  0  0  0  0  0  0  0  0  0  0  0
   -4.6570   23.4160  -29.9120 C   0  0  0  0  0  0  0  0  0  0  0  0
   -3.4310   23.0830  -29.1380 C   0  0  0  0  0  0  0  0  0  0  0  0
   -3.0120   21.8130  -28.9310 N   0  0  0  0  0  0  0  0  0  0  0  0
   -1.8850   21.7470  -28.1700 C   0  0  0  0  0  0  0  0  0  0  0  0
   -1.2510   20.4600  -27.8280 C   0  0  0  0  0  0  0  0  0  0  0  0
   -1.7830   19.7190  -26.9580 O   0  0  0  0  0  0  0  0  0  0  0  0
   -0.0590   20.0360  -28.5110 N   0  0  0  0  0  0  0  0  0  0  0  0
    0.7650   18.9380  -28.0820 C   0  0  0  0  0  0  0  0  0  0  0  0
    0.1870   17.6720  -27.9070 C   0  0  0  0  0  0  0  0  0  0  0  0
    0.9690   16.5850  -27.5100 C   0  0  0  0  0  0  0  0  0  0  0  0
    2.3430   16.7440  -27.2890 C   0  0  0  0  0  0  0  0  0  0  0  0
    3.3270   15.3750  -26.7660 S   0  0  0  0  0  0  0  0  0  0  0  0
    2.4890   14.4550  -25.9220 O   0  0  0  0  0  0  0  0  0  0  0  0
    4.4640   15.8760  -25.9190 O   0  0  0  0  0  0  0  0  0  0  0  0
    3.9670   14.4850  -28.1290 N   0  0  0  0  0  0  0  0  0  0  0  0
    2.9340   13.6330  -28.7590 C   0  0  0  0  0  0  0  0  0  0  0  0
    2.4480   14.2110  -30.1000 C   0  0  0  0  0  0  0  0  0  0  0  0
    3.4940   14.3780  -31.0470 O   0  0  0  0  0  0  0  0  0  0  0  0
    4.7390   14.7490  -30.4680 C   0  0  0  0  0  0  0  0  0  0  0  0
    4.6210   15.4020  -29.0810 C   0  0  0  0  0  0  0  0  0  0  0  0
    2.9310   18.0000  -27.4950 C   0  0  0  0  0  0  0  0  0  0  0  0
    2.1500   19.0880  -27.8920 C   0  0  0  0  0  0  0  0  0  0  0  0
   -1.3860   22.9790  -27.7520 C   0  0  0  0  0  0  0  0  0  0  0  0
   -2.4020   24.1690  -28.3610 S   0  0  0  0  0  0  0  0  0  0  0  0
   -5.6740   22.4480  -30.0250 C   0  0  0  0  0  0  0  0  0  0  0  0
   -8.2459   21.3475  -29.8611 H   0  0  0  0  0  0  0  0  0  0  0  0
   -8.7782   22.0843  -31.4104 H   0  0  0  0  0  0  0  0  0  0  0  0
   -7.5146   20.8076  -31.4104 H   0  0  0  0  0  0  0  0  0  0  0  0
   -7.9329   24.1764  -31.9216 H   0  0  0  0  0  0  0  0  0  0  0  0
   -6.1491   25.9036  -31.7488 H   0  0  0  0  0  0  0  0  0  0  0  0
    0.1790   20.4960  -29.4180 H   0  0  0  0  0  0  0  0  0  0  0  0
   -0.8899   17.5343  -28.0837 H   0  0  0  0  0  0  0  0  0  0  0  0
    0.5032   15.5984  -27.3701 H   0  0  0  0  0  0  0  0  0  0  0  0
    3.3578   12.6335  -28.9360 H   0  0  0  0  0  0  0  0  0  0  0  0
    2.0718   13.5851  -28.0776 H   0  0  0  0  0  0  0  0  0  0  0  0
    1.6975   13.5278  -30.5242 H   0  0  0  0  0  0  0  0  0  0  0  0
    2.0291   15.2072  -29.8951 H   0  0  0  0  0  0  0  0  0  0  0  0
    5.3575   13.8445  -30.3716 H   0  0  0  0  0  0  0  0  0  0  0  0
    5.1849   15.5021  -31.1343 H   0  0  0  0  0  0  0  0  0  0  0  0
    5.6270   15.6496  -28.7113 H   0  0  0  0  0  0  0  0  0  0  0  0
    4.0126   16.3142  -29.1693 H   0  0  0  0  0  0  0  0  0  0  0  0
    4.0128   18.1293  -27.3432 H   0  0  0  0  0  0  0  0  0  0  0  0
    2.6214   20.0681  -28.0570 H   0  0  0  0  0  0  0  0  0  0  0  0
   -0.4898   23.1422  -27.1354 H   0  0  0  0  0  0  0  0  0  0  0  0
   -5.5376   21.4623  -29.5561 H   0  0  0  0  0  0  0  0  0  0  0  0
  1  2  1  0
  2  3  2  0
  3  4  1  0
  4  5  2  0
  5  6  1  0
  5  7  1  0
  7  8  1  0
  8  9  2  0
  9 10  1  0
 10 11  1  0
 11 12  2  0
 11 13  1  0
 13 14  1  0
 14 15  2  0
 15 16  1  0
 16 17  2  0
 17 18  1  0
 18 19  2  0
 18 20  2  0
 18 21  1  0
 21 22  1  0
 22 23  1  0
 23 24  1  0
 24 25  1  0
 25 26  1  0
 17 27  1  0
 27 28  2  0
 10 29  2  0
 29 30  1  0
  7 31  2  0
 31  2  1  0
 30  8  1  0
 28 14  1  0
 26 21  1  0
  1 32  1  0
  1 33  1  0
  1 34  1  0
  3 35  1  0
  4 36  1  0
 13 37  1  0
 15 38  1  0
 16 39  1  0
 22 40  1  0
 22 41  1  0
 23 42  1  0
 23 43  1  0
 25 44  1  0
 25 45  1  0
 26 46  1  0
 26 47  1  0
 27 48  1  0
 28 49  1  0
 29 50  1  0
 31 51  1  0
M  CHG  1   6  -1
M  END
>  <UniqueID>  (23) 
23

>  <SMILES>  (23) 
Cc1ccc([O-])c(-c2nc(C(=O)Nc3ccc(S(=O)(=O)N4CCOCC4)cc3)cs2)c1

>  <Energy>  (23) 
101.37387443619036

>  <Genealogy>  (23) 
Cc1ccc([O-])c(-c2nc(C(=O)Nc3ccc(S(=O)(=O)N4CCOCC4)cc3)cs2)c1 (protonated)
Cc1ccc([O-])c(-c2nc(C(=O)Nc3ccc(S(=O)(=O)N4CCOCC4)cc3)cs2)c1 (3D coordinates assigned)
Cc1ccc([O-])c(-c2nc(C(=O)Nc3ccc(S(=O)(=O)N4CCOCC4)cc3)cs2)c1 (nonaromatic ring conformer: 101.37387443619036 kcal/mol)

>  <smiles>  (23) 
Cc1ccc(O)c(-c2nc(C(=O)Nc3ccc(S(=O)(=O)N4CCOCC4)cc3)cs2)c1

>  <score_type>  (23) 
oracle

>  <origin>  (23) 
adgpu

>  <m_score__min__energy>  (23) 
-10.69

>  <m_primary>  (23) 
energy

$$$$
23:0
     RDKit          3D

 68 71  0  0  0  0  0  0  0  0999 V2000
   -0.1600   17.6210  -31.0610 C   0  0  0  0  0  0  0  0  0  0  0  0
    0.7560   18.4050  -30.2170 N   0  0  0  0  0  0  0  0  0  0  0  0
    0.5970   19.8590  -30.4280 C   0  0  0  0  0  0  0  0  0  0  0  0
   -0.7220   20.4080  -29.8440 C   0  0  0  0  0  0  0  0  0  0  0  0
   -1.1430   19.7020  -28.5350 C   0  0  0  0  0  0  0  0  0  0  0  0
   -1.9550   20.8470  -27.4180 S   0  0  0  0  0  0  0  0  0  0  0  0
   -1.4030   20.6780  -26.0300 O   0  0  0  0  0  0  0  0  0  0  0  0
   -3.4250   20.5400  -27.3680 O   0  0  0  0  0  0  0  0  0  0  0  0
   -1.6760   22.5140  -27.9730 C   0  0  0  0  0  0  0  0  0  0  0  0
   -0.4080   23.1220  -27.8120 C   0  0  0  0  0  0  0  0  0  0  0  0
    0.9540   22.2860  -27.0720 Cl  0  0  0  0  0  0  0  0  0  0  0  0
   -0.1880   24.4210  -28.2800 C   0  0  0  0  0  0  0  0  0  0  0  0
   -1.2070   25.1240  -28.9150 C   0  0  0  0  0  0  0  0  0  0  0  0
   -2.4660   24.5430  -29.0870 C   0  0  0  0  0  0  0  0  0  0  0  0
   -3.4820   25.2960  -29.7570 N   0  0  0  0  0  0  0  0  0  0  0  0
   -4.2940   24.7540  -30.8000 C   0  0  0  0  0  0  0  0  0  0  0  0
   -5.3710   25.3330  -31.1020 O   0  0  0  0  0  0  0  0  0  0  0  0
   -3.8720   23.5800  -31.5080 N   0  0  0  0  0  0  0  0  0  0  0  0
   -4.6620   22.4080  -31.7580 C   0  0  0  0  0  0  0  0  0  0  0  0
   -4.1450   21.1570  -31.4010 C   0  0  0  0  0  0  0  0  0  0  0  0
   -4.9030   19.9960  -31.5830 C   0  0  0  0  0  0  0  0  0  0  0  0
   -6.2000   20.0770  -32.1060 C   0  0  0  0  0  0  0  0  0  0  0  0
   -7.1660   18.6160  -32.3020 S   0  0  0  0  0  0  0  0  0  0  0  0
   -6.8290   17.6750  -31.1800 O   0  0  0  0  0  0  0  0  0  0  0  0
   -8.6240   18.9650  -32.1990 O   0  0  0  0  0  0  0  0  0  0  0  0
   -6.7990   17.8600  -33.8390 N   0  0  0  0  0  0  0  0  0  0  0  0
   -6.4820   16.4250  -33.7160 C   0  0  0  0  0  0  0  0  0  0  0  0
   -5.0420   16.1620  -33.2350 C   0  0  0  0  0  0  0  0  0  0  0  0
   -4.0320   16.9050  -34.0110 N   0  0  0  0  0  0  0  0  0  0  0  0
   -3.7810   16.3000  -35.3310 C   0  0  0  0  0  0  0  0  0  0  0  0
   -4.3530   18.3430  -34.0990 C   0  0  0  0  0  0  0  0  0  0  0  0
   -5.7820   18.5980  -34.6060 C   0  0  0  0  0  0  0  0  0  0  0  0
   -6.7270   21.3280  -32.4550 C   0  0  0  0  0  0  0  0  0  0  0  0
   -5.9680   22.4880  -32.2770 C   0  0  0  0  0  0  0  0  0  0  0  0
   -2.7010   23.2260  -28.6370 C   0  0  0  0  0  0  0  0  0  0  0  0
   -3.9330   22.6090  -28.8740 O   0  0  0  0  0  0  0  0  0  0  0  0
    0.0580   19.0400  -27.8550 C   0  0  0  0  0  0  0  0  0  0  0  0
    0.7080   17.9970  -28.7870 C   0  0  0  0  0  0  0  0  0  0  0  0
   -0.8400   17.0390  -30.4217 H   0  0  0  0  0  0  0  0  0  0  0  0
   -0.7463   18.3014  -31.6961 H   0  0  0  0  0  0  0  0  0  0  0  0
    0.4217   16.9367  -31.6961 H   0  0  0  0  0  0  0  0  0  0  0  0
    1.4380   20.3781  -29.9451 H   0  0  0  0  0  0  0  0  0  0  0  0
    0.5771   20.0356  -31.5135 H   0  0  0  0  0  0  0  0  0  0  0  0
   -0.5944   21.4810  -29.6382 H   0  0  0  0  0  0  0  0  0  0  0  0
   -1.5125   20.2234  -30.5863 H   0  0  0  0  0  0  0  0  0  0  0  0
   -1.8629   18.9127  -28.7971 H   0  0  0  0  0  0  0  0  0  0  0  0
    0.7976   24.8905  -28.1452 H   0  0  0  0  0  0  0  0  0  0  0  0
   -1.0203   26.1434  -29.2839 H   0  0  0  0  0  0  0  0  0  0  0  0
   -3.1338   21.0866  -30.9737 H   0  0  0  0  0  0  0  0  0  0  0  0
   -4.4797   19.0168  -31.3148 H   0  0  0  0  0  0  0  0  0  0  0  0
   -7.1796   15.9731  -32.9955 H   0  0  0  0  0  0  0  0  0  0  0  0
   -6.5789   15.9812  -34.7178 H   0  0  0  0  0  0  0  0  0  0  0  0
   -4.9643   16.4624  -32.1797 H   0  0  0  0  0  0  0  0  0  0  0  0
   -4.8394   15.0895  -33.3719 H   0  0  0  0  0  0  0  0  0  0  0  0
   -3.3625   15.2914  -35.1985 H   0  0  0  0  0  0  0  0  0  0  0  0
   -4.7261   16.2343  -35.8899 H   0  0  0  0  0  0  0  0  0  0  0  0
   -3.0670   16.9227  -35.8899 H   0  0  0  0  0  0  0  0  0  0  0  0
   -4.2487   18.7894  -33.0991 H   0  0  0  0  0  0  0  0  0  0  0  0
   -3.6570   18.7971  -34.8197 H   0  0  0  0  0  0  0  0  0  0  0  0
   -5.9957   19.6743  -34.5286 H   0  0  0  0  0  0  0  0  0  0  0  0
   -5.8321   18.2462  -35.6470 H   0  0  0  0  0  0  0  0  0  0  0  0
   -7.7429   21.3972  -32.8710 H   0  0  0  0  0  0  0  0  0  0  0  0
   -6.3928   23.4671  -32.5435 H   0  0  0  0  0  0  0  0  0  0  0  0
   -4.5980   22.9560  -29.5500 H   0  0  0  0  0  0  0  0  0  0  0  0
    0.8006   19.8115  -27.6035 H   0  0  0  0  0  0  0  0  0  0  0  0
   -0.2888   18.5312  -26.9435 H   0  0  0  0  0  0  0  0  0  0  0  0
    1.7381   17.8213  -28.4433 H   0  0  0  0  0  0  0  0  0  0  0  0
    0.0827   17.0935  -28.7362 H   0  0  0  0  0  0  0  0  0  0  0  0
  1  2  1  0
  2  3  1  0
  3  4  1  0
  4  5  1  0
  5  6  1  0
  6  7  2  0
  6  8  2  0
  6  9  1  0
  9 10  2  0
 10 11  1  0
 10 12  1  0
 12 13  2  0
 13 14  1  0
 14 15  1  0
 15 16  1  0
 16 17  2  0
 16 18  1  0
 18 19  1  0
 19 20  2  0
 20 21  1  0
 21 22  2  0
 22 23  1  0
 23 24  2  0
 23 25  2  0
 23 26  1  0
 26 27  1  0
 27 28  1  0
 28 29  1  0
 29 30  1  0
 29 31  1  0
 31 32  1  0
 22 33  1  0
 33 34  2  0
 14 35  2  0
 35 36  1  0
  5 37  1  0
 37 38  1  0
 38  2  1  0
 35  9  1  0
 34 19  1  0
 32 26  1  0
  1 39  1  0
  1 40  1  0
  1 41  1  0
  3 42  1  0
  3 43  1  0
  4 44  1  0
  4 45  1  0
  5 46  1  0
 12 47  1  0
 13 48  1  0
 20 49  1  0
 21 50  1  0
 27 51  1  0
 27 52  1  0
 28 53  1  0
 28 54  1  0
 30 55  1  0
 30 56  1  0
 30 57  1  0
 31 58  1  0
 31 59  1  0
 32 60  1  0
 32 61  1  0
 33 62  1  0
 34 63  1  0
 36 64  1  0
 37 65  1  0
 37 66  1  0
 38 67  1  0
 38 68  1  0
M  CHG  2  15  -1  18  -1
M  END
>  <UniqueID>  (24) 
24

>  <SMILES>  (24) 
CN1CCC(S(=O)(=O)c2c(Cl)ccc([N-]C(=O)[N-]c3ccc(S(=O)(=O)N4CCN(C)CC4)cc3)c2O)CC1

>  <Energy>  (24) 
95.4953100471959

>  <Genealogy>  (24) 
CN1CCC(S(=O)(=O)c2c(Cl)ccc([N-]C(=O)[N-]c3ccc(S(=O)(=O)N4CCN(C)CC4)cc3)c2O)CC1 (protonated)
CN1CCC(S(=O)(=O)c2c(Cl)ccc([N-]C(=O)[N-]c3ccc(S(=O)(=O)N4CCN(C)CC4)cc3)c2O)CC1 (3D coordinates assigned)
CN1CCC(S(=O)(=O)c2c(Cl)ccc([N-]C(=O)[N-]c3ccc(S(=O)(=O)N4CCN(C)CC4)cc3)c2O)CC1 (nonaromatic ring conformer: 95.4953100471959 kcal/mol)

>  <smiles>  (24) 
CN1CCC(S(=O)(=O)c2c(Cl)ccc(NC(=O)Nc3ccc(S(=O)(=O)N4CCN(C)CC4)cc3)c2O)CC1

>  <score_type>  (24) 
oracle

>  <origin>  (24) 
adgpu

>  <m_score__min__energy>  (24) 
-15.4

>  <m_primary>  (24) 
energy

$$$$
24:0
     RDKit          3D

 55 58  0  0  0  0  0  0  0  0999 V2000
   -0.7710   18.2760  -35.1550 C   0  0  0  0  0  0  0  0  0  0  0  0
   -1.4100   19.1870  -34.1490 C   0  0  0  0  0  0  0  0  0  0  0  0
   -1.1500   20.5650  -34.1840 C   0  0  0  0  0  0  0  0  0  0  0  0
   -1.7560   21.4210  -33.2620 C   0  0  0  0  0  0  0  0  0  0  0  0
   -2.6540   20.9130  -32.3120 C   0  0  0  0  0  0  0  0  0  0  0  0
   -3.3950   21.9800  -31.1200 S   0  0  0  0  0  0  0  0  0  0  0  0
   -2.7420   23.3260  -31.2450 O   0  0  0  0  0  0  0  0  0  0  0  0
   -3.1220   21.4260  -29.7490 O   0  0  0  0  0  0  0  0  0  0  0  0
   -5.1520   22.1100  -31.3660 C   0  0  0  0  0  0  0  0  0  0  0  0
   -5.8150   21.0440  -32.0010 C   0  0  0  0  0  0  0  0  0  0  0  0
   -7.2060   21.0560  -32.1800 C   0  0  0  0  0  0  0  0  0  0  0  0
   -7.9010   19.9780  -32.8250 N   0  0  0  0  0  0  0  0  0  0  0  0
   -7.7510   18.5720  -32.5770 C   0  0  0  0  0  0  0  0  0  0  0  0
   -8.6270   17.9900  -31.8860 O   0  0  0  0  0  0  0  0  0  0  0  0
   -6.5920   17.7920  -33.0740 C   0  0  0  0  0  0  0  0  0  0  0  0
   -6.1520   16.6760  -32.3390 C   0  0  0  0  0  0  0  0  0  0  0  0
   -5.0680   15.9170  -32.7830 C   0  0  0  0  0  0  0  0  0  0  0  0
   -4.4140   16.2550  -33.9680 C   0  0  0  0  0  0  0  0  0  0  0  0
   -4.8280   17.3710  -34.6990 C   0  0  0  0  0  0  0  0  0  0  0  0
   -5.9040   18.1530  -34.2530 C   0  0  0  0  0  0  0  0  0  0  0  0
   -6.2700   19.2960  -34.9650 O   0  0  0  0  0  0  0  0  0  0  0  0
   -7.9350   22.1690  -31.7660 C   0  0  0  0  0  0  0  0  0  0  0  0
   -7.2970   23.2420  -31.1480 C   0  0  0  0  0  0  0  0  0  0  0  0
   -5.9100   23.2300  -30.9270 C   0  0  0  0  0  0  0  0  0  0  0  0
   -5.1880   24.6610  -30.1620 S   0  0  0  0  0  0  0  0  0  0  0  0
   -4.5170   25.5150  -31.2020 O   0  0  0  0  0  0  0  0  0  0  0  0
   -6.2620   25.4830  -29.5080 O   0  0  0  0  0  0  0  0  0  0  0  0
   -3.9720   24.1870  -28.9780 C   0  0  0  0  0  0  0  0  0  0  0  0
   -4.2570   23.1860  -28.0380 C   0  0  0  0  0  0  0  0  0  0  0  0
   -3.2920   22.8090  -27.0990 C   0  0  0  0  0  0  0  0  0  0  0  0
   -2.0400   23.4310  -27.0920 C   0  0  0  0  0  0  0  0  0  0  0  0
   -0.8300   22.9550  -25.9130 Cl  0  0  0  0  0  0  0  0  0  0  0  0
   -1.7540   24.4350  -28.0220 C   0  0  0  0  0  0  0  0  0  0  0  0
   -2.7180   24.8150  -28.9610 C   0  0  0  0  0  0  0  0  0  0  0  0
   -2.9320   19.5390  -32.2910 C   0  0  0  0  0  0  0  0  0  0  0  0
   -2.3180   18.6800  -33.2070 C   0  0  0  0  0  0  0  0  0  0  0  0
   -0.2154   17.4839  -34.6316 H   0  0  0  0  0  0  0  0  0  0  0  0
   -1.5498   17.8223  -35.7856 H   0  0  0  0  0  0  0  0  0  0  0  0
   -0.0792   18.8538  -35.7856 H   0  0  0  0  0  0  0  0  0  0  0  0
   -0.4651   20.9735  -34.9417 H   0  0  0  0  0  0  0  0  0  0  0  0
   -1.5283   22.4970  -33.2809 H   0  0  0  0  0  0  0  0  0  0  0  0
   -5.2315   20.1850  -32.3639 H   0  0  0  0  0  0  0  0  0  0  0  0
   -6.6664   16.3993  -31.4069 H   0  0  0  0  0  0  0  0  0  0  0  0
   -4.7285   15.0501  -32.1971 H   0  0  0  0  0  0  0  0  0  0  0  0
   -3.5730   15.6432  -34.3264 H   0  0  0  0  0  0  0  0  0  0  0  0
   -4.3071   17.6384  -35.6302 H   0  0  0  0  0  0  0  0  0  0  0  0
   -7.1760   19.7330  -34.8420 H   0  0  0  0  0  0  0  0  0  0  0  0
   -9.0225   22.2005  -31.9284 H   0  0  0  0  0  0  0  0  0  0  0  0
   -7.8887   24.1124  -30.8280 H   0  0  0  0  0  0  0  0  0  0  0  0
   -5.2420   22.6963  -28.0394 H   0  0  0  0  0  0  0  0  0  0  0  0
   -3.5183   22.0218  -26.3647 H   0  0  0  0  0  0  0  0  0  0  0  0
   -0.7699   24.9264  -28.0150 H   0  0  0  0  0  0  0  0  0  0  0  0
   -2.4922   25.6087  -29.6884 H   0  0  0  0  0  0  0  0  0  0  0  0
   -3.6371   19.1348  -31.5497 H   0  0  0  0  0  0  0  0  0  0  0  0
   -2.5471   17.6043  -33.1893 H   0  0  0  0  0  0  0  0  0  0  0  0
  1  2  1  0
  2  3  2  0
  3  4  1  0
  4  5  2  0
  5  6  1  0
  6  7  2  0
  6  8  2  0
  6  9  1  0
  9 10  2  0
 10 11  1  0
 11 12  1  0
 12 13  1  0
 13 14  2  0
 13 15  1  0
 15 16  2  0
 16 17  1  0
 17 18  2  0
 18 19  1  0
 19 20  2  0
 20 21  1  0
 11 22  2  0
 22 23  1  0
 23 24  2  0
 24 25  1  0
 25 26  2  0
 25 27  2  0
 25 28  1  0
 28 29  2  0
 29 30  1  0
 30 31  2  0
 31 32  1  0
 31 33  1  0
 33 34  2  0
  5 35  1  0
 35 36  2  0
 36  2  1  0
 24  9  1  0
 34 28  1  0
 20 15  1  0
  1 37  1  0
  1 38  1  0
  1 39  1  0
  3 40  1  0
  4 41  1  0
 10 42  1  0
 16 43  1  0
 17 44  1  0
 18 45  1  0
 19 46  1  0
 21 47  1  0
 22 48  1  0
 23 49  1  0
 29 50  1  0
 30 51  1  0
 33 52  1  0
 34 53  1  0
 35 54  1  0
 36 55  1  0
M  CHG  1  12  -1
M  END
>  <UniqueID>  (25) 
25

>  <SMILES>  (25) 
Cc1ccc(S(=O)(=O)c2cc([N-]C(=O)c3ccccc3O)ccc2S(=O)(=O)c2ccc(Cl)cc2)cc1

>  <Energy>  (25) 
71.13754215624823

>  <Genealogy>  (25) 
Cc1ccc(S(=O)(=O)c2cc([N-]C(=O)c3ccccc3O)ccc2S(=O)(=O)c2ccc(Cl)cc2)cc1 (protonated)
Cc1ccc(S(=O)(=O)c2cc([N-]C(=O)c3ccccc3O)ccc2S(=O)(=O)c2ccc(Cl)cc2)cc1 (3D coordinates assigned)
Cc1ccc(S(=O)(=O)c2cc([N-]C(=O)c3ccccc3O)ccc2S(=O)(=O)c2ccc(Cl)cc2)cc1 (optimized conformer: 71.13754215624823 kcal/mol)

>  <smiles>  (25) 
Cc1ccc(S(=O)(=O)c2cc(NC(=O)c3ccccc3O)ccc2S(=O)(=O)c2ccc(Cl)cc2)cc1

>  <score_type>  (25) 
oracle

>  <origin>  (25) 
adgpu

>  <m_score__min__energy>  (25) 
-11.380000000000001

>  <m_primary>  (25) 
energy

$$$$
25:0
     RDKit          3D

 52 55  0  0  0  0  0  0  0  0999 V2000
   -2.8450   19.5430  -26.5220 O   0  0  0  0  0  0  0  0  0  0  0  0
   -1.6600   20.4640  -26.5600 S   0  0  0  0  0  0  0  0  0  0  0  0
   -1.2700   20.8070  -25.1500 O   0  0  0  0  0  0  0  0  0  0  0  0
   -0.3340   19.6650  -27.3410 N   0  0  0  0  0  0  0  0  0  0  0  0
   -0.2000   19.4860  -28.7590 C   0  0  0  0  0  0  0  0  0  0  0  0
   -0.4250   20.5370  -29.6650 C   0  0  0  0  0  0  0  0  0  0  0  0
   -0.3310   20.3270  -31.0480 C   0  0  0  0  0  0  0  0  0  0  0  0
    0.0550   19.0550  -31.5340 C   0  0  0  0  0  0  0  0  0  0  0  0
    0.2870   18.0120  -30.6270 C   0  0  0  0  0  0  0  0  0  0  0  0
    0.1590   18.2220  -29.2480 C   0  0  0  0  0  0  0  0  0  0  0  0
    0.3780   17.1730  -28.3560 O   0  0  0  0  0  0  0  0  0  0  0  0
    0.1160   18.7610  -33.0160 C   0  0  0  0  0  0  0  0  0  0  0  0
    0.2380   20.0310  -33.8630 C   0  0  0  0  0  0  0  0  0  0  0  0
   -0.8020   21.0630  -33.4260 C   0  0  0  0  0  0  0  0  0  0  0  0
   -0.5490   21.4970  -31.9800 C   0  0  0  0  0  0  0  0  0  0  0  0
   -2.0930   21.9110  -27.4670 C   0  0  0  0  0  0  0  0  0  0  0  0
   -3.1010   21.8470  -28.4340 C   0  0  0  0  0  0  0  0  0  0  0  0
   -3.4210   22.9790  -29.1840 C   0  0  0  0  0  0  0  0  0  0  0  0
   -2.7330   24.1790  -28.9820 C   0  0  0  0  0  0  0  0  0  0  0  0
   -3.0700   25.2900  -29.7470 O   0  0  0  0  0  0  0  0  0  0  0  0
   -1.7120   24.2570  -28.0150 C   0  0  0  0  0  0  0  0  0  0  0  0
   -0.8440   25.7950  -27.7940 S   0  0  0  0  0  0  0  0  0  0  0  0
    0.6320   25.5010  -27.7970 O   0  0  0  0  0  0  0  0  0  0  0  0
   -1.1620   26.6800  -28.9680 O   0  0  0  0  0  0  0  0  0  0  0  0
   -1.2110   26.6800  -26.3280 N   0  0  0  0  0  0  0  0  0  0  0  0
   -0.1330   27.5860  -25.9180 C   0  0  0  0  0  0  0  0  0  0  0  0
    0.0660   27.4300  -24.4130 C   0  0  0  0  0  0  0  0  0  0  0  0
   -1.0110   26.4680  -23.9460 C   0  0  0  0  0  0  0  0  0  0  0  0
   -1.5370   25.8010  -25.2040 C   0  0  0  0  0  0  0  0  0  0  0  0
   -1.4070   23.1140  -27.2570 C   0  0  0  0  0  0  0  0  0  0  0  0
   -0.6781   21.5373  -29.2839 H   0  0  0  0  0  0  0  0  0  0  0  0
    0.5726   17.0181  -31.0020 H   0  0  0  0  0  0  0  0  0  0  0  0
    0.2130   17.2790  -27.3620 H   0  0  0  0  0  0  0  0  0  0  0  0
    0.9887   18.1210  -33.2127 H   0  0  0  0  0  0  0  0  0  0  0  0
   -0.8236   18.2624  -33.2960 H   0  0  0  0  0  0  0  0  0  0  0  0
    1.2451   20.4553  -33.7376 H   0  0  0  0  0  0  0  0  0  0  0  0
    0.0656   19.7746  -34.9187 H   0  0  0  0  0  0  0  0  0  0  0  0
   -0.7392   21.9420  -34.0844 H   0  0  0  0  0  0  0  0  0  0  0  0
   -1.8027   20.6111  -33.4928 H   0  0  0  0  0  0  0  0  0  0  0  0
    0.3454   22.1369  -31.9563 H   0  0  0  0  0  0  0  0  0  0  0  0
   -1.4440   22.0346  -31.6337 H   0  0  0  0  0  0  0  0  0  0  0  0
   -3.6416   20.9041  -28.6034 H   0  0  0  0  0  0  0  0  0  0  0  0
   -4.2195   22.9270  -29.9388 H   0  0  0  0  0  0  0  0  0  0  0  0
    0.7957   27.3248  -26.4466 H   0  0  0  0  0  0  0  0  0  0  0  0
   -0.3933   28.6261  -26.1637 H   0  0  0  0  0  0  0  0  0  0  0  0
    1.0639   27.0192  -24.2000 H   0  0  0  0  0  0  0  0  0  0  0  0
   -0.0058   28.3976  -23.8947 H   0  0  0  0  0  0  0  0  0  0  0  0
   -0.5858   25.7179  -23.2630 H   0  0  0  0  0  0  0  0  0  0  0  0
   -1.8099   26.9875  -23.3966 H   0  0  0  0  0  0  0  0  0  0  0  0
   -1.0564   24.8209  -25.3402 H   0  0  0  0  0  0  0  0  0  0  0  0
   -2.6231   25.6402  -25.1360 H   0  0  0  0  0  0  0  0  0  0  0  0
   -0.6204   23.1645  -26.4898 H   0  0  0  0  0  0  0  0  0  0  0  0
  1  2  2  0
  2  3  2  0
  2  4  1  0
  4  5  1  0
  5  6  2  0
  6  7  1  0
  7  8  2  0
  8  9  1  0
  9 10  2  0
 10 11  1  0
  8 12  1  0
 12 13  1  0
 13 14  1  0
 14 15  1  0
  2 16  1  0
 16 17  2  0
 17 18  1  0
 18 19  2  0
 19 20  1  0
 19 21  1  0
 21 22  1  0
 22 23  2  0
 22 24  2  0
 22 25  1  0
 25 26  1  0
 26 27  1  0
 27 28  1  0
 28 29  1  0
 21 30  2  0
 10  5  1  0
 30 16  1  0
 15  7  1  0
 29 25  1  0
  6 31  1  0
  9 32  1  0
 11 33  1  0
 12 34  1  0
 12 35  1  0
 13 36  1  0
 13 37  1  0
 14 38  1  0
 14 39  1  0
 15 40  1  0
 15 41  1  0
 17 42  1  0
 18 43  1  0
 26 44  1  0
 26 45  1  0
 27 46  1  0
 27 47  1  0
 28 48  1  0
 28 49  1  0
 29 50  1  0
 29 51  1  0
 30 52  1  0
M  CHG  2   4  -1  20  -1
M  END
>  <UniqueID>  (26) 
26

>  <SMILES>  (26) 
O=S(=O)([N-]c1cc2c(cc1O)CCCC2)c1ccc([O-])c(S(=O)(=O)N2CCCC2)c1

>  <Energy>  (26) 
59.49616115442976

>  <Genealogy>  (26) 
O=S(=O)([N-]c1cc2c(cc1O)CCCC2)c1ccc([O-])c(S(=O)(=O)N2CCCC2)c1 (protonated)
O=S(=O)([N-]c1cc2c(cc1O)CCCC2)c1ccc([O-])c(S(=O)(=O)N2CCCC2)c1 (3D coordinates assigned)
O=S(=O)([N-]c1cc2c(cc1O)CCCC2)c1ccc([O-])c(S(=O)(=O)N2CCCC2)c1 (nonaromatic ring conformer: 59.49616115442976 kcal/mol)

>  <smiles>  (26) 
O=S(=O)(Nc1cc2c(cc1O)CCCC2)c1ccc(O)c(S(=O)(=O)N2CCCC2)c1

>  <score_type>  (26) 
oracle

>  <origin>  (26) 
adgpu

>  <m_score__min__energy>  (26) 
-12.43

>  <m_primary>  (26) 
energy

$$$$
26:0
     RDKit          3D

 36 38  0  0  0  0  0  0  0  0999 V2000
   -5.0250   17.8890  -34.9640 Cl  0  0  0  0  0  0  0  0  0  0  0  0
   -6.1170   18.4140  -33.6970 C   0  0  0  0  0  0  0  0  0  0  0  0
   -6.8800   17.4730  -32.9980 C   0  0  0  0  0  0  0  0  0  0  0  0
   -7.7500   17.8910  -31.9880 C   0  0  0  0  0  0  0  0  0  0  0  0
   -7.8600   19.2480  -31.6730 C   0  0  0  0  0  0  0  0  0  0  0  0
   -7.0970   20.2030  -32.3690 C   0  0  0  0  0  0  0  0  0  0  0  0
   -7.2070   21.6380  -32.0410 C   0  0  0  0  0  0  0  0  0  0  0  0
   -6.1830   22.3810  -31.5670 N   0  0  0  0  0  0  0  0  0  0  0  0
   -6.7300   23.6030  -31.4280 C   0  0  0  0  0  0  0  0  0  0  0  0
   -5.9960   24.8010  -30.9010 C   0  0  0  0  0  0  0  0  0  0  0  0
   -4.5490   24.7610  -31.1920 N   0  0  0  0  0  0  0  0  0  0  0  0
   -3.6320   24.3690  -30.0950 C   0  0  0  0  0  0  0  0  0  0  0  0
   -4.3240   24.1860  -28.7370 C   0  0  0  0  0  0  0  0  0  0  0  0
   -4.1810   22.7160  -28.3510 C   0  0  0  0  0  0  0  0  0  0  0  0
   -3.4950   22.0020  -29.5090 C   0  0  0  0  0  0  0  0  0  0  0  0
   -2.8520   23.0810  -30.3670 C   0  0  0  0  0  0  0  0  0  0  0  0
   -8.0530   23.5610  -31.8010 C   0  0  0  0  0  0  0  0  0  0  0  0
   -8.3150   22.3350  -32.1780 O   0  0  0  0  0  0  0  0  0  0  0  0
   -6.2240   19.7740  -33.3840 C   0  0  0  0  0  0  0  0  0  0  0  0
   -6.7951   16.4041  -33.2434 H   0  0  0  0  0  0  0  0  0  0  0  0
   -8.3500   17.1501  -31.4393 H   0  0  0  0  0  0  0  0  0  0  0  0
   -8.5467   19.5710  -30.8767 H   0  0  0  0  0  0  0  0  0  0  0  0
   -6.4220   25.7045  -31.3617 H   0  0  0  0  0  0  0  0  0  0  0  0
   -6.1132   24.8056  -29.8073 H   0  0  0  0  0  0  0  0  0  0  0  0
   -4.2350   25.6700  -31.6050 H   0  0  0  0  0  0  0  0  0  0  0  0
   -2.9436   25.2260  -30.0543 H   0  0  0  0  0  0  0  0  0  0  0  0
   -3.8427   24.8228  -27.9801 H   0  0  0  0  0  0  0  0  0  0  0  0
   -5.3844   24.4720  -28.7978 H   0  0  0  0  0  0  0  0  0  0  0  0
   -3.5716   22.6247  -27.4398 H   0  0  0  0  0  0  0  0  0  0  0  0
   -5.1668   22.2707  -28.1512 H   0  0  0  0  0  0  0  0  0  0  0  0
   -2.7271   21.3126  -29.1281 H   0  0  0  0  0  0  0  0  0  0  0  0
   -4.2157   21.4096  -30.0918 H   0  0  0  0  0  0  0  0  0  0  0  0
   -1.7956   23.2096  -30.0885 H   0  0  0  0  0  0  0  0  0  0  0  0
   -2.8819   22.8137  -31.4336 H   0  0  0  0  0  0  0  0  0  0  0  0
   -8.7609   24.4028  -31.7854 H   0  0  0  0  0  0  0  0  0  0  0  0
   -5.6217   20.5112  -33.9352 H   0  0  0  0  0  0  0  0  0  0  0  0
  1  2  1  0
  2  3  2  0
  3  4  1  0
  4  5  2  0
  5  6  1  0
  6  7  1  0
  7  8  2  0
  8  9  1  0
  9 10  1  0
 10 11  1  0
 11 12  1  0
 12 13  1  0
 13 14  1  0
 14 15  1  0
 15 16  1  0
  9 17  2  0
 17 18  1  0
  6 19  2  0
 19  2  1  0
 18  7  1  0
 16 12  1  0
  3 20  1  0
  4 21  1  0
  5 22  1  0
 10 23  1  0
 10 24  1  0
 11 25  1  0
 12 26  1  0
 13 27  1  0
 13 28  1  0
 14 29  1  0
 14 30  1  0
 15 31  1  0
 15 32  1  0
 16 33  1  0
 16 34  1  0
 17 35  1  0
 19 36  1  0
M  END
>  <UniqueID>  (27) 
27

>  <SMILES>  (27) 
Clc1cccc(-c2nc(CNC3CCCC3)co2)c1

>  <Energy>  (27) 
73.20792242551532

>  <Genealogy>  (27) 
Clc1cccc(-c2nc(CNC3CCCC3)co2)c1 (3D coordinates assigned)
Clc1cccc(-c2nc(CNC3CCCC3)co2)c1 (nonaromatic ring conformer: 73.20792242551532 kcal/mol)

>  <smiles>  (27) 
Clc1cccc(-c2nc(CNC3CCCC3)co2)c1

>  <score_type>  (27) 
oracle

>  <origin>  (27) 
adgpu

>  <m_score__min__energy>  (27) 
-8.0299999999999994

>  <m_primary>  (27) 
energy

$$$$
27:0
     RDKit          3D

 48 50  0  0  0  0  0  0  0  0999 V2000
   -9.1170   19.8920  -31.9640 C   0  0  0  0  0  0  0  0  0  0  0  0
   -8.1070   21.0010  -31.9700 C   0  0  0  0  0  0  0  0  0  0  0  0
   -6.7660   20.7440  -32.2950 C   0  0  0  0  0  0  0  0  0  0  0  0
   -5.8270   21.7780  -32.2790 C   0  0  0  0  0  0  0  0  0  0  0  0
   -6.2170   23.0840  -31.9360 C   0  0  0  0  0  0  0  0  0  0  0  0
   -5.2800   24.1700  -31.9360 N   0  0  0  0  0  0  0  0  0  0  0  0
   -5.0440   25.0610  -30.8360 C   0  0  0  0  0  0  0  0  0  0  0  0
   -6.0210   25.6490  -30.3040 O   0  0  0  0  0  0  0  0  0  0  0  0
   -3.7240   25.2990  -30.3290 N   0  0  0  0  0  0  0  0  0  0  0  0
   -3.0570   24.4760  -29.3600 C   0  0  0  0  0  0  0  0  0  0  0  0
   -3.6360   23.2840  -28.9100 C   0  0  0  0  0  0  0  0  0  0  0  0
   -2.9980   22.5150  -27.9440 C   0  0  0  0  0  0  0  0  0  0  0  0
   -1.7620   22.9120  -27.4100 C   0  0  0  0  0  0  0  0  0  0  0  0
   -1.1410   22.0540  -26.3370 C   0  0  0  0  0  0  0  0  0  0  0  0
   -1.1680   24.1240  -27.8520 C   0  0  0  0  0  0  0  0  0  0  0  0
    0.3480   24.7090  -27.1210 S   0  0  0  0  0  0  0  0  0  0  0  0
    1.4650   24.7180  -28.1270 O   0  0  0  0  0  0  0  0  0  0  0  0
    0.7270   23.7800  -26.0000 O   0  0  0  0  0  0  0  0  0  0  0  0
    0.1060   26.3290  -26.5040 N   0  0  0  0  0  0  0  0  0  0  0  0
    0.8080   26.5430  -25.2190 C   0  0  0  0  0  0  0  0  0  0  0  0
   -0.1290   26.4490  -24.0040 C   0  0  0  0  0  0  0  0  0  0  0  0
   -1.1550   25.5150  -24.2500 O   0  0  0  0  0  0  0  0  0  0  0  0
   -2.0410   26.0100  -25.2390 C   0  0  0  0  0  0  0  0  0  0  0  0
   -1.3230   26.6820  -26.4350 C   0  0  0  0  0  0  0  0  0  0  0  0
   -1.8160   24.8820  -28.8540 C   0  0  0  0  0  0  0  0  0  0  0  0
   -1.2500   26.0550  -29.3410 O   0  0  0  0  0  0  0  0  0  0  0  0
   -7.5430   23.3290  -31.5650 C   0  0  0  0  0  0  0  0  0  0  0  0
   -8.4860   22.2960  -31.5860 C   0  0  0  0  0  0  0  0  0  0  0  0
   -9.3611   19.6240  -30.9255 H   0  0  0  0  0  0  0  0  0  0  0  0
  -10.0293   20.2241  -32.4811 H   0  0  0  0  0  0  0  0  0  0  0  0
   -8.7013   19.0146  -32.4811 H   0  0  0  0  0  0  0  0  0  0  0  0
   -6.4532   19.7241  -32.5634 H   0  0  0  0  0  0  0  0  0  0  0  0
   -4.7780   21.5693  -32.5359 H   0  0  0  0  0  0  0  0  0  0  0  0
   -4.6007   22.9541  -29.3229 H   0  0  0  0  0  0  0  0  0  0  0  0
   -3.4673   21.5839  -27.5936 H   0  0  0  0  0  0  0  0  0  0  0  0
   -1.4227   22.4432  -25.3475 H   0  0  0  0  0  0  0  0  0  0  0  0
   -1.5012   21.0198  -26.4403 H   0  0  0  0  0  0  0  0  0  0  0  0
   -0.0460   22.0730  -26.4403 H   0  0  0  0  0  0  0  0  0  0  0  0
    1.5935   25.7798  -25.1166 H   0  0  0  0  0  0  0  0  0  0  0  0
    1.2262   27.5603  -25.2361 H   0  0  0  0  0  0  0  0  0  0  0  0
    0.4487   26.1303  -23.1238 H   0  0  0  0  0  0  0  0  0  0  0  0
   -0.5792   27.4359  -23.8215 H   0  0  0  0  0  0  0  0  0  0  0  0
   -2.6403   25.1702  -25.6206 H   0  0  0  0  0  0  0  0  0  0  0  0
   -2.6602   26.7824  -24.7595 H   0  0  0  0  0  0  0  0  0  0  0  0
   -1.8116   26.3599  -27.3664 H   0  0  0  0  0  0  0  0  0  0  0  0
   -1.3927   27.7713  -26.2985 H   0  0  0  0  0  0  0  0  0  0  0  0
   -7.8462   24.3399  -31.2549 H   0  0  0  0  0  0  0  0  0  0  0  0
   -9.5285   22.4998  -31.3004 H   0  0  0  0  0  0  0  0  0  0  0  0
  1  2  1  0
  2  3  2  0
  3  4  1  0
  4  5  2  0
  5  6  1  0
  6  7  1  0
  7  8  2  0
  7  9  1  0
  9 10  1  0
 10 11  2  0
 11 12  1  0
 12 13  2  0
 13 14  1  0
 13 15  1  0
 15 16  1  0
 16 17  2  0
 16 18  2  0
 16 19  1  0
 19 20  1  0
 20 21  1  0
 21 22  1  0
 22 23  1  0
 23 24  1  0
 15 25  2  0
 25 26  1  0
  5 27  1  0
 27 28  2  0
 28  2  1  0
 25 10  1  0
 24 19  1  0
  1 29  1  0
  1 30  1  0
  1 31  1  0
  3 32  1  0
  4 33  1  0
 11 34  1  0
 12 35  1  0
 14 36  1  0
 14 37  1  0
 14 38  1  0
 20 39  1  0
 20 40  1  0
 21 41  1  0
 21 42  1  0
 23 43  1  0
 23 44  1  0
 24 45  1  0
 24 46  1  0
 27 47  1  0
 28 48  1  0
M  CHG  3   6  -1   9  -1  26  -1
M  END
>  <UniqueID>  (28) 
28

>  <SMILES>  (28) 
Cc1ccc([N-]C(=O)[N-]c2ccc(C)c(S(=O)(=O)N3CCOCC3)c2[O-])cc1

>  <Energy>  (28) 
67.46545711261348

>  <Genealogy>  (28) 
Cc1ccc([N-]C(=O)[N-]c2ccc(C)c(S(=O)(=O)N3CCOCC3)c2[O-])cc1 (protonated)
Cc1ccc([N-]C(=O)[N-]c2ccc(C)c(S(=O)(=O)N3CCOCC3)c2[O-])cc1 (3D coordinates assigned)
Cc1ccc([N-]C(=O)[N-]c2ccc(C)c(S(=O)(=O)N3CCOCC3)c2[O-])cc1 (nonaromatic ring conformer: 67.46545711261348 kcal/mol)

>  <smiles>  (28) 
Cc1ccc(NC(=O)Nc2ccc(C)c(S(=O)(=O)N3CCOCC3)c2O)cc1

>  <score_type>  (28) 
oracle

>  <origin>  (28) 
adgpu

>  <m_score__min__energy>  (28) 
-15.210000000000001

>  <m_primary>  (28) 
energy

$$$$
28:0
     RDKit          3D

 54 57  0  0  0  0  0  0  0  0999 V2000
   -5.5120   25.2710  -28.7320 O   0  0  0  0  0  0  0  0  0  0  0  0
   -5.2790   25.1510  -30.2100 S   0  0  0  0  0  0  0  0  0  0  0  0
   -5.7260   26.4120  -30.8890 O   0  0  0  0  0  0  0  0  0  0  0  0
   -3.5860   24.9130  -30.5120 N   0  0  0  0  0  0  0  0  0  0  0  0
   -2.7420   24.0900  -29.7020 C   0  0  0  0  0  0  0  0  0  0  0  0
   -2.9210   22.6970  -29.6420 C   0  0  0  0  0  0  0  0  0  0  0  0
   -2.1960   21.9310  -28.7230 C   0  0  0  0  0  0  0  0  0  0  0  0
   -1.2490   22.5450  -27.8920 C   0  0  0  0  0  0  0  0  0  0  0  0
   -1.0110   23.9230  -28.0080 C   0  0  0  0  0  0  0  0  0  0  0  0
   -1.7600   24.6940  -28.9030 C   0  0  0  0  0  0  0  0  0  0  0  0
   -1.5440   26.0700  -28.9740 O   0  0  0  0  0  0  0  0  0  0  0  0
   -0.4800   21.6900  -26.9230 C   0  0  0  0  0  0  0  0  0  0  0  0
   -1.3950   20.6690  -26.2160 C   0  0  0  0  0  0  0  0  0  0  0  0
   -2.5290   20.0810  -27.0970 C   0  0  0  0  0  0  0  0  0  0  0  0
   -2.4200   20.4510  -28.5830 C   0  0  0  0  0  0  0  0  0  0  0  0
   -6.1810   23.7610  -30.8200 C   0  0  0  0  0  0  0  0  0  0  0  0
   -7.1820   23.1870  -30.0230 C   0  0  0  0  0  0  0  0  0  0  0  0
   -7.7770   21.9810  -30.4020 C   0  0  0  0  0  0  0  0  0  0  0  0
   -7.3810   21.3400  -31.5850 C   0  0  0  0  0  0  0  0  0  0  0  0
   -8.0590   19.7790  -32.0350 S   0  0  0  0  0  0  0  0  0  0  0  0
   -9.1300   19.4240  -31.0420 O   0  0  0  0  0  0  0  0  0  0  0  0
   -8.6800   19.8670  -33.4030 O   0  0  0  0  0  0  0  0  0  0  0  0
   -6.8020   18.5620  -32.0130 N   0  0  0  0  0  0  0  0  0  0  0  0
   -5.5210   19.0800  -31.4670 C   0  0  0  0  0  0  0  0  0  0  0  0
   -4.3630   19.0840  -32.4830 C   0  0  0  0  0  0  0  0  0  0  0  0
   -4.8410   19.5790  -33.8470 C   0  0  0  0  0  0  0  0  0  0  0  0
   -5.9990   18.7240  -34.3910 C   0  0  0  0  0  0  0  0  0  0  0  0
   -6.6850   17.8650  -33.3090 C   0  0  0  0  0  0  0  0  0  0  0  0
   -6.4150   21.9390  -32.4060 C   0  0  0  0  0  0  0  0  0  0  0  0
   -5.8170   23.1440  -32.0260 C   0  0  0  0  0  0  0  0  0  0  0  0
   -3.6345   22.2070  -30.3209 H   0  0  0  0  0  0  0  0  0  0  0  0
   -0.2328   24.3985  -27.3930 H   0  0  0  0  0  0  0  0  0  0  0  0
    0.3044   21.1471  -27.4707 H   0  0  0  0  0  0  0  0  0  0  0  0
   -0.0418   22.3470  -26.1573 H   0  0  0  0  0  0  0  0  0  0  0  0
   -0.7686   19.8354  -25.8656 H   0  0  0  0  0  0  0  0  0  0  0  0
   -1.8922   21.2158  -25.4013 H   0  0  0  0  0  0  0  0  0  0  0  0
   -2.5013   18.9848  -27.0104 H   0  0  0  0  0  0  0  0  0  0  0  0
   -3.4727   20.5108  -26.7301 H   0  0  0  0  0  0  0  0  0  0  0  0
   -1.5751   19.9094  -29.0334 H   0  0  0  0  0  0  0  0  0  0  0  0
   -3.3528   20.1742  -29.0961 H   0  0  0  0  0  0  0  0  0  0  0  0
   -7.4997   23.6878  -29.0966 H   0  0  0  0  0  0  0  0  0  0  0  0
   -8.5584   21.5329  -29.7707 H   0  0  0  0  0  0  0  0  0  0  0  0
   -5.6836   20.1123  -31.1237 H   0  0  0  0  0  0  0  0  0  0  0  0
   -5.2262   18.4038  -30.6510 H   0  0  0  0  0  0  0  0  0  0  0  0
   -3.5649   19.7472  -32.1179 H   0  0  0  0  0  0  0  0  0  0  0  0
   -3.9861   18.0564  -32.5926 H   0  0  0  0  0  0  0  0  0  0  0  0
   -5.1826   20.6199  -33.7484 H   0  0  0  0  0  0  0  0  0  0  0  0
   -4.0000   19.5042  -34.5520 H   0  0  0  0  0  0  0  0  0  0  0  0
   -6.7507   19.3949  -34.8324 H   0  0  0  0  0  0  0  0  0  0  0  0
   -5.5726   18.0330  -35.1331 H   0  0  0  0  0  0  0  0  0  0  0  0
   -7.6941   17.6005  -33.6580 H   0  0  0  0  0  0  0  0  0  0  0  0
   -6.0610   16.9732  -33.1498 H   0  0  0  0  0  0  0  0  0  0  0  0
   -6.1266   21.4589  -33.3527 H   0  0  0  0  0  0  0  0  0  0  0  0
   -5.0596   23.6093  -32.6739 H   0  0  0  0  0  0  0  0  0  0  0  0
  1  2  2  0
  2  3  2  0
  2  4  1  0
  4  5  1  0
  5  6  2  0
  6  7  1  0
  7  8  2  0
  8  9  1  0
  9 10  2  0
 10 11  1  0
  8 12  1  0
 12 13  1  0
 13 14  1  0
 14 15  1  0
  2 16  1  0
 16 17  2  0
 17 18  1  0
 18 19  2  0
 19 20  1  0
 20 21  2  0
 20 22  2  0
 20 23  1  0
 23 24  1  0
 24 25  1  0
 25 26  1  0
 26 27  1  0
 27 28  1  0
 19 29  1  0
 29 30  2  0
 10  5  1  0
 30 16  1  0
 15  7  1  0
 28 23  1  0
  6 31  1  0
  9 32  1  0
 12 33  1  0
 12 34  1  0
 13 35  1  0
 13 36  1  0
 14 37  1  0
 14 38  1  0
 15 39  1  0
 15 40  1  0
 17 41  1  0
 18 42  1  0
 24 43  1  0
 24 44  1  0
 25 45  1  0
 25 46  1  0
 26 47  1  0
 26 48  1  0
 27 49  1  0
 27 50  1  0
 28 51  1  0
 28 52  1  0
 29 53  1  0
 30 54  1  0
M  CHG  2   4  -1  11  -1
M  END
>  <UniqueID>  (29) 
29

>  <SMILES>  (29) 
O=S(=O)([N-]c1cc2c(cc1[O-])CCCC2)c1ccc(S(=O)(=O)N2CCCCC2)cc1

>  <Energy>  (29) 
71.57862127546733

>  <Genealogy>  (29) 
O=S(=O)([N-]c1cc2c(cc1[O-])CCCC2)c1ccc(S(=O)(=O)N2CCCCC2)cc1 (protonated)
O=S(=O)([N-]c1cc2c(cc1[O-])CCCC2)c1ccc(S(=O)(=O)N2CCCCC2)cc1 (3D coordinates assigned)
O=S(=O)([N-]c1cc2c(cc1[O-])CCCC2)c1ccc(S(=O)(=O)N2CCCCC2)cc1 (nonaromatic ring conformer: 71.57862127546733 kcal/mol)

>  <smiles>  (29) 
O=S(=O)(Nc1cc2c(cc1O)CCCC2)c1ccc(S(=O)(=O)N2CCCCC2)cc1

>  <score_type>  (29) 
oracle

>  <origin>  (29) 
adgpu

>  <m_score__min__energy>  (29) 
-15.66

>  <m_primary>  (29) 
energy

$$$$
29:0
     RDKit          3D

 50 53  0  0  0  0  0  0  0  0999 V2000
   -0.4150   24.5400  -28.6000 O   0  0  0  0  0  0  0  0  0  0  0  0
   -1.4080   23.7680  -28.5100 C   0  0  0  0  0  0  0  0  0  0  0  0
   -1.8750   23.3700  -27.1430 C   0  0  0  0  0  0  0  0  0  0  0  0
   -1.2190   21.7700  -26.7170 Cl  0  0  0  0  0  0  0  0  0  0  0  0
   -2.0800   23.3160  -29.7500 C   0  0  0  0  0  0  0  0  0  0  0  0
   -3.0350   24.0350  -30.4620 C   0  0  0  0  0  0  0  0  0  0  0  0
   -3.4980   25.2980  -30.1110 O   0  0  0  0  0  0  0  0  0  0  0  0
   -3.4890   23.3680  -31.5450 N   0  0  0  0  0  0  0  0  0  0  0  0
   -2.8070   22.2070  -31.5260 C   0  0  0  0  0  0  0  0  0  0  0  0
   -2.9160   21.1770  -32.4570 C   0  0  0  0  0  0  0  0  0  0  0  0
   -2.1070   20.0330  -32.3000 C   0  0  0  0  0  0  0  0  0  0  0  0
   -2.2280   18.9570  -33.2480 N   0  0  0  0  0  0  0  0  0  0  0  0
   -3.6820   18.0390  -33.4840 S   0  0  0  0  0  0  0  0  0  0  0  0
   -3.8390   17.7230  -34.9450 O   0  0  0  0  0  0  0  0  0  0  0  0
   -3.5790   16.7500  -32.7150 O   0  0  0  0  0  0  0  0  0  0  0  0
   -5.0760   18.9740  -32.9550 C   0  0  0  0  0  0  0  0  0  0  0  0
   -5.5120   20.0650  -33.7190 C   0  0  0  0  0  0  0  0  0  0  0  0
   -6.6020   20.8310  -33.2940 C   0  0  0  0  0  0  0  0  0  0  0  0
   -7.2600   20.5160  -32.0970 C   0  0  0  0  0  0  0  0  0  0  0  0
   -8.6390   21.4750  -31.5670 S   0  0  0  0  0  0  0  0  0  0  0  0
   -9.6040   21.6430  -32.7080 O   0  0  0  0  0  0  0  0  0  0  0  0
   -9.3420   20.7530  -30.4510 O   0  0  0  0  0  0  0  0  0  0  0  0
   -8.0810   23.0270  -30.9960 N   0  0  0  0  0  0  0  0  0  0  0  0
   -7.2610   22.8890  -29.7920 C   0  0  0  0  0  0  0  0  0  0  0  0
   -6.3180   24.0800  -29.7740 C   0  0  0  0  0  0  0  0  0  0  0  0
   -6.2760   24.5840  -31.2080 C   0  0  0  0  0  0  0  0  0  0  0  0
   -7.2170   23.6730  -31.9840 C   0  0  0  0  0  0  0  0  0  0  0  0
   -6.8320   19.4170  -31.3410 C   0  0  0  0  0  0  0  0  0  0  0  0
   -5.7440   18.6490  -31.7670 C   0  0  0  0  0  0  0  0  0  0  0  0
   -1.1840   19.9780  -31.2220 C   0  0  0  0  0  0  0  0  0  0  0  0
   -1.0960   21.0310  -30.2960 C   0  0  0  0  0  0  0  0  0  0  0  0
   -1.9390   22.1330  -30.4620 C   0  0  0  0  0  0  0  0  0  0  0  0
   -1.5288   24.1128  -26.4092 H   0  0  0  0  0  0  0  0  0  0  0  0
   -2.9740   23.3231  -27.1363 H   0  0  0  0  0  0  0  0  0  0  0  0
   -3.6198   21.2545  -33.2988 H   0  0  0  0  0  0  0  0  0  0  0  0
   -1.4380   18.7720  -33.9070 H   0  0  0  0  0  0  0  0  0  0  0  0
   -4.9951   20.3196  -34.6560 H   0  0  0  0  0  0  0  0  0  0  0  0
   -6.9439   21.6827  -33.9004 H   0  0  0  0  0  0  0  0  0  0  0  0
   -7.8982   22.8952  -28.8954 H   0  0  0  0  0  0  0  0  0  0  0  0
   -6.7040   21.9404  -29.7964 H   0  0  0  0  0  0  0  0  0  0  0  0
   -6.6996   24.8628  -29.1020 H   0  0  0  0  0  0  0  0  0  0  0  0
   -5.3180   23.8043  -29.4080 H   0  0  0  0  0  0  0  0  0  0  0  0
   -6.6208   25.6273  -31.2596 H   0  0  0  0  0  0  0  0  0  0  0  0
   -5.2559   24.5642  -31.6190 H   0  0  0  0  0  0  0  0  0  0  0  0
   -7.8212   24.2630  -32.6888 H   0  0  0  0  0  0  0  0  0  0  0  0
   -6.6566   22.9286  -32.5686 H   0  0  0  0  0  0  0  0  0  0  0  0
   -7.3541   19.1572  -30.4083 H   0  0  0  0  0  0  0  0  0  0  0  0
   -5.4119   17.7880  -31.1683 H   0  0  0  0  0  0  0  0  0  0  0  0
   -0.5302   19.1004  -31.1107 H   0  0  0  0  0  0  0  0  0  0  0  0
   -0.3812   20.9890  -29.4610 H   0  0  0  0  0  0  0  0  0  0  0  0
  1  2  2  0
  2  3  1  0
  3  4  1  0
  2  5  1  0
  5  6  2  0
  6  7  1  0
  6  8  1  0
  8  9  1  0
  9 10  2  0
 10 11  1  0
 11 12  1  0
 12 13  1  0
 13 14  2  0
 13 15  2  0
 13 16  1  0
 16 17  2  0
 17 18  1  0
 18 19  2  0
 19 20  1  0
 20 21  2  0
 20 22  2  0
 20 23  1  0
 23 24  1  0
 24 25  1  0
 25 26  1  0
 26 27  1  0
 19 28  1  0
 28 29  2  0
 11 30  2  0
 30 31  1  0
 31 32  2  0
 32  5  1  0
 32  9  1  0
 29 16  1  0
 27 23  1  0
  3 33  1  0
  3 34  1  0
 10 35  1  0
 12 36  1  0
 17 37  1  0
 18 38  1  0
 24 39  1  0
 24 40  1  0
 25 41  1  0
 25 42  1  0
 26 43  1  0
 26 44  1  0
 27 45  1  0
 27 46  1  0
 28 47  1  0
 29 48  1  0
 30 49  1  0
 31 50  1  0
M  CHG  2   7  -1   8  -1
M  END
>  <UniqueID>  (30) 
30

>  <SMILES>  (30) 
O=C(CCl)c1c([O-])[n-]c2cc(NS(=O)(=O)c3ccc(S(=O)(=O)N4CCCC4)cc3)ccc12

>  <Energy>  (30) 
90.8501822999719

>  <Genealogy>  (30) 
O=C(CCl)c1c([O-])[n-]c2cc(NS(=O)(=O)c3ccc(S(=O)(=O)N4CCCC4)cc3)ccc12 (protonated)
O=C(CCl)c1c([O-])[n-]c2cc(NS(=O)(=O)c3ccc(S(=O)(=O)N4CCCC4)cc3)ccc12 (3D coordinates assigned)
O=C(CCl)c1c([O-])[n-]c2cc(NS(=O)(=O)c3ccc(S(=O)(=O)N4CCCC4)cc3)ccc12 (nonaromatic ring conformer: 90.8501822999719 kcal/mol)

>  <smiles>  (30) 
O=C(CCl)c1c(O)[nH]c2cc(NS(=O)(=O)c3ccc(S(=O)(=O)N4CCCC4)cc3)ccc12

>  <score_type>  (30) 
oracle

>  <origin>  (30) 
adgpu

>  <m_score__min__energy>  (30) 
-14.970000000000001

>  <m_primary>  (30) 
energy

$$$$
30:0
     RDKit          3D

 57 60  0  0  0  0  0  0  0  0999 V2000
   -7.7580   18.0710  -31.5980 C   0  0  0  0  0  0  0  0  0  0  0  0
   -8.8060   18.9240  -32.3080 C   0  0  0  0  0  0  0  0  0  0  0  0
   -8.1590   20.0990  -33.0480 C   0  0  0  0  0  0  0  0  0  0  0  0
   -6.6660   20.1510  -32.7530 C   0  0  0  0  0  0  0  0  0  0  0  0
   -5.7160   19.4150  -33.5090 C   0  0  0  0  0  0  0  0  0  0  0  0
   -6.0970   18.9240  -34.8900 C   0  0  0  0  0  0  0  0  0  0  0  0
   -4.3880   19.2830  -33.0010 C   0  0  0  0  0  0  0  0  0  0  0  0
   -3.4210   18.3400  -33.4610 C   0  0  0  0  0  0  0  0  0  0  0  0
   -3.7520   17.1150  -34.2790 C   0  0  0  0  0  0  0  0  0  0  0  0
   -2.0950   18.4640  -33.0310 C   0  0  0  0  0  0  0  0  0  0  0  0
   -1.7480   19.4130  -32.0760 C   0  0  0  0  0  0  0  0  0  0  0  0
   -0.5400   19.5100  -31.7230 O   0  0  0  0  0  0  0  0  0  0  0  0
   -2.7060   20.2130  -31.5170 N   0  0  0  0  0  0  0  0  0  0  0  0
   -2.3420   21.1420  -30.4750 C   0  0  0  0  0  0  0  0  0  0  0  0
   -2.1470   20.6910  -29.1610 C   0  0  0  0  0  0  0  0  0  0  0  0
   -1.8020   21.5920  -28.1500 C   0  0  0  0  0  0  0  0  0  0  0  0
   -1.6460   22.9610  -28.4350 C   0  0  0  0  0  0  0  0  0  0  0  0
   -1.2810   23.9190  -27.3610 C   0  0  0  0  0  0  0  0  0  0  0  0
   -1.6410   25.2750  -27.4590 C   0  0  0  0  0  0  0  0  0  0  0  0
   -1.2980   26.1750  -26.4460 C   0  0  0  0  0  0  0  0  0  0  0  0
   -0.5860   25.7370  -25.3230 C   0  0  0  0  0  0  0  0  0  0  0  0
   -0.1720   26.8710  -24.0410 S   0  0  0  0  0  0  0  0  0  0  0  0
    1.3610   26.4470  -23.3640 N   0  0  0  0  0  0  0  0  0  0  0  0
   -1.2230   26.8280  -22.9680 O   0  0  0  0  0  0  0  0  0  0  0  0
   -0.1050   28.2660  -24.5960 O   0  0  0  0  0  0  0  0  0  0  0  0
   -0.2320   24.3870  -25.2140 C   0  0  0  0  0  0  0  0  0  0  0  0
   -0.5730   23.4840  -26.2260 C   0  0  0  0  0  0  0  0  0  0  0  0
   -1.8430   23.4070  -29.7550 C   0  0  0  0  0  0  0  0  0  0  0  0
   -2.1890   22.5050  -30.7640 C   0  0  0  0  0  0  0  0  0  0  0  0
   -4.0100   20.1420  -31.9350 C   0  0  0  0  0  0  0  0  0  0  0  0
   -4.9270   20.8750  -31.3140 O   0  0  0  0  0  0  0  0  0  0  0  0
   -6.2090   20.8740  -31.6380 C   0  0  0  0  0  0  0  0  0  0  0  0
   -7.0100   21.5460  -30.9330 O   0  0  0  0  0  0  0  0  0  0  0  0
   -7.8804   18.1706  -30.5094 H   0  0  0  0  0  0  0  0  0  0  0  0
   -7.8862   17.0173  -31.8865 H   0  0  0  0  0  0  0  0  0  0  0  0
   -6.7522   18.4104  -31.8865 H   0  0  0  0  0  0  0  0  0  0  0  0
   -9.3464   18.2977  -33.0331 H   0  0  0  0  0  0  0  0  0  0  0  0
   -9.4957   19.3273  -31.5519 H   0  0  0  0  0  0  0  0  0  0  0  0
   -8.3110   19.9743  -34.1303 H   0  0  0  0  0  0  0  0  0  0  0  0
   -8.6240   21.0361  -32.7079 H   0  0  0  0  0  0  0  0  0  0  0  0
   -6.7690   18.0579  -34.7988 H   0  0  0  0  0  0  0  0  0  0  0  0
   -6.6089   19.7293  -35.4372 H   0  0  0  0  0  0  0  0  0  0  0  0
   -5.1898   18.6281  -35.4372 H   0  0  0  0  0  0  0  0  0  0  0  0
   -3.9790   16.2750  -33.6060 H   0  0  0  0  0  0  0  0  0  0  0  0
   -4.6262   17.3230  -34.9135 H   0  0  0  0  0  0  0  0  0  0  0  0
   -2.8921   16.8544  -34.9135 H   0  0  0  0  0  0  0  0  0  0  0  0
   -1.3211   17.8053  -33.4520 H   0  0  0  0  0  0  0  0  0  0  0  0
   -2.2662   19.6232  -28.9254 H   0  0  0  0  0  0  0  0  0  0  0  0
   -1.6512   21.2280  -27.1230 H   0  0  0  0  0  0  0  0  0  0  0  0
   -2.1967   25.6300  -28.3395 H   0  0  0  0  0  0  0  0  0  0  0  0
   -1.5889   27.2324  -26.5316 H   0  0  0  0  0  0  0  0  0  0  0  0
    1.4520   26.9710  -22.4650 H   0  0  0  0  0  0  0  0  0  0  0  0
    1.3180   25.4330  -23.1190 H   0  0  0  0  0  0  0  0  0  0  0  0
    0.3169   24.0348  -24.3282 H   0  0  0  0  0  0  0  0  0  0  0  0
   -0.2856   22.4262  -26.1338 H   0  0  0  0  0  0  0  0  0  0  0  0
   -1.7236   24.4740  -29.9941 H   0  0  0  0  0  0  0  0  0  0  0  0
   -2.3423   22.8665  -31.7915 H   0  0  0  0  0  0  0  0  0  0  0  0
  1  2  1  0
  2  3  1  0
  3  4  1  0
  4  5  2  0
  5  6  1  0
  5  7  1  0
  7  8  1  0
  8  9  1  0
  8 10  2  0
 10 11  1  0
 11 12  2  0
 11 13  1  0
 13 14  1  0
 14 15  2  0
 15 16  1  0
 16 17  2  0
 17 18  1  0
 18 19  2  0
 19 20  1  0
 20 21  2  0
 21 22  1  0
 22 23  1  0
 22 24  2  0
 22 25  2  0
 21 26  1  0
 26 27  2  0
 17 28  1  0
 28 29  2  0
 13 30  1  0
 30 31  1  0
 31 32  1  0
 32 33  2  0
 32  4  1  0
 30  7  2  0
 29 14  1  0
 27 18  1  0
  1 34  1  0
  1 35  1  0
  1 36  1  0
  2 37  1  0
  2 38  1  0
  3 39  1  0
  3 40  1  0
  6 41  1  0
  6 42  1  0
  6 43  1  0
  9 44  1  0
  9 45  1  0
  9 46  1  0
 10 47  1  0
 15 48  1  0
 16 49  1  0
 19 50  1  0
 20 51  1  0
 23 52  1  0
 23 53  1  0
 26 54  1  0
 27 55  1  0
 28 56  1  0
 29 57  1  0
M  END
>  <UniqueID>  (31) 
31

>  <SMILES>  (31) 
CCCc1c(C)c2c(C)cc(=O)n(-c3ccc(-c4ccc(S(N)(=O)=O)cc4)cc3)c2oc1=O

>  <Energy>  (31) 
91.889334620058

>  <Genealogy>  (31) 
CCCc1c(C)c2c(C)cc(=O)n(-c3ccc(-c4ccc(S(N)(=O)=O)cc4)cc3)c2oc1=O (3D coordinates assigned)
CCCc1c(C)c2c(C)cc(=O)n(-c3ccc(-c4ccc(S(N)(=O)=O)cc4)cc3)c2oc1=O (optimized conformer: 91.889334620058 kcal/mol)

>  <smiles>  (31) 
CCCc1c(C)c2c(C)cc(=O)n(-c3ccc(-c4ccc(S(N)(=O)=O)cc4)cc3)c2oc1=O

>  <score_type>  (31) 
oracle

>  <origin>  (31) 
adgpu

>  <m_score__min__energy>  (31) 
-9.2400000000000002

>  <m_primary>  (31) 
energy

$$$$
31:0
     RDKit          3D

 51 54  0  0  0  0  0  0  0  0999 V2000
   -0.8510   26.9280  -27.9540 C   0  0  0  0  0  0  0  0  0  0  0  0
   -1.3270   26.0710  -28.9860 O   0  0  0  0  0  0  0  0  0  0  0  0
   -1.5530   24.6900  -28.8360 C   0  0  0  0  0  0  0  0  0  0  0  0
   -0.7540   23.8850  -28.0060 C   0  0  0  0  0  0  0  0  0  0  0  0
   -1.0230   22.5100  -27.8540 C   0  0  0  0  0  0  0  0  0  0  0  0
   -2.0550   21.9100  -28.6150 C   0  0  0  0  0  0  0  0  0  0  0  0
   -2.8460   22.7260  -29.4430 C   0  0  0  0  0  0  0  0  0  0  0  0
   -2.6290   24.1100  -29.5190 C   0  0  0  0  0  0  0  0  0  0  0  0
   -3.5160   24.9470  -30.2670 N   0  0  0  0  0  0  0  0  0  0  0  0
   -5.1760   24.5370  -30.5610 S   0  0  0  0  0  0  0  0  0  0  0  0
   -5.8550   25.6730  -31.2780 O   0  0  0  0  0  0  0  0  0  0  0  0
   -5.8610   24.3310  -29.2380 O   0  0  0  0  0  0  0  0  0  0  0  0
   -5.2970   23.0280  -31.4850 C   0  0  0  0  0  0  0  0  0  0  0  0
   -4.1770   22.6040  -32.2140 C   0  0  0  0  0  0  0  0  0  0  0  0
   -4.2340   21.4560  -33.0090 C   0  0  0  0  0  0  0  0  0  0  0  0
   -5.4150   20.7160  -33.0960 C   0  0  0  0  0  0  0  0  0  0  0  0
   -6.5500   21.1260  -32.3850 C   0  0  0  0  0  0  0  0  0  0  0  0
   -7.7500   20.4090  -32.4730 C   0  0  0  0  0  0  0  0  0  0  0  0
   -8.8700   20.8430  -31.7650 C   0  0  0  0  0  0  0  0  0  0  0  0
   -8.7820   21.9930  -30.9780 C   0  0  0  0  0  0  0  0  0  0  0  0
   -7.6110   22.6800  -30.9000 N   0  0  0  0  0  0  0  0  0  0  0  0
   -6.4960   22.2850  -31.5720 C   0  0  0  0  0  0  0  0  0  0  0  0
   -2.4300   20.4360  -28.5360 C   0  0  0  0  0  0  0  0  0  0  0  0
   -1.3340   19.4140  -28.1350 C   0  0  0  0  0  0  0  0  0  0  0  0
    0.0600   19.7580  -28.5170 N   0  0  1  0  0  0  0  0  0  0  0  0
    0.2040   20.1140  -29.9430 C   0  0  0  0  0  0  0  0  0  0  0  0
    0.7390   20.7270  -27.6090 C   0  0  0  0  0  0  0  0  0  0  0  0
   -0.1940   21.7150  -26.8850 C   0  0  0  0  0  0  0  0  0  0  0  0
   -1.0935   26.4914  -26.9739 H   0  0  0  0  0  0  0  0  0  0  0  0
    0.2393   27.0413  -28.0453 H   0  0  0  0  0  0  0  0  0  0  0  0
   -1.3310   27.9135  -28.0453 H   0  0  0  0  0  0  0  0  0  0  0  0
    0.0933   24.3345  -27.4674 H   0  0  0  0  0  0  0  0  0  0  0  0
   -3.6490   22.2713  -30.0417 H   0  0  0  0  0  0  0  0  0  0  0  0
   -3.2425   23.1817  -32.1596 H   0  0  0  0  0  0  0  0  0  0  0  0
   -3.3439   21.1337  -33.5691 H   0  0  0  0  0  0  0  0  0  0  0  0
   -5.4539   19.8124  -33.7220 H   0  0  0  0  0  0  0  0  0  0  0  0
   -7.8086   19.5062  -33.0988 H   0  0  0  0  0  0  0  0  0  0  0  0
   -9.8154   20.2839  -31.8259 H   0  0  0  0  0  0  0  0  0  0  0  0
   -9.6622   22.3442  -30.4196 H   0  0  0  0  0  0  0  0  0  0  0  0
   -3.2424   20.3466  -27.7998 H   0  0  0  0  0  0  0  0  0  0  0  0
   -2.6833   20.1666  -29.5720 H   0  0  0  0  0  0  0  0  0  0  0  0
   -1.3638   19.3030  -27.0410 H   0  0  0  0  0  0  0  0  0  0  0  0
   -1.5721   18.4958  -28.6920 H   0  0  0  0  0  0  0  0  0  0  0  0
    0.5950   18.8620  -28.4140 H   0  0  0  0  0  0  0  0  0  0  0  0
    0.6153   21.1307  -30.0274 H   0  0  0  0  0  0  0  0  0  0  0  0
    0.8846   19.4014  -30.4319 H   0  0  0  0  0  0  0  0  0  0  0  0
   -0.7806   20.0750  -30.4319 H   0  0  0  0  0  0  0  0  0  0  0  0
    1.2841   20.1527  -26.8455 H   0  0  0  0  0  0  0  0  0  0  0  0
    1.3914   21.3385  -28.2497 H   0  0  0  0  0  0  0  0  0  0  0  0
   -0.8654   21.1501  -26.2216 H   0  0  0  0  0  0  0  0  0  0  0  0
    0.4292   22.4168  -26.3113 H   0  0  0  0  0  0  0  0  0  0  0  0
  1  2  1  0
  2  3  1  0
  3  4  2  0
  4  5  1  0
  5  6  2  0
  6  7  1  0
  7  8  2  0
  8  9  1  0
  9 10  1  0
 10 11  2  0
 10 12  2  0
 10 13  1  0
 13 14  2  0
 14 15  1  0
 15 16  2  0
 16 17  1  0
 17 18  2  0
 18 19  1  0
 19 20  2  0
 20 21  1  0
 21 22  2  0
  6 23  1  0
 23 24  1  0
 24 25  1  0
 25 26  1  0
 25 27  1  0
 27 28  1  0
  8  3  1  0
 22 13  1  0
 28  5  1  0
 22 17  1  0
  1 29  1  0
  1 30  1  0
  1 31  1  0
  4 32  1  0
  7 33  1  0
 14 34  1  0
 15 35  1  0
 16 36  1  0
 18 37  1  0
 19 38  1  0
 20 39  1  0
 23 40  1  0
 23 41  1  0
 24 42  1  0
 24 43  1  0
 25 44  1  6
 26 45  1  0
 26 46  1  0
 26 47  1  0
 27 48  1  0
 27 49  1  0
 28 50  1  0
 28 51  1  0
M  CHG  2   9  -1  25   1
M  END
>  <UniqueID>  (32) 
32

>  <SMILES>  (32) 
COc1cc2c(cc1[N-]S(=O)(=O)c1cccc3cccnc13)CC[N@@H+](C)CC2

>  <Energy>  (32) 
83.64593162434292

>  <Genealogy>  (32) 
COc1cc2c(cc1[N-]S(=O)(=O)c1cccc3cccnc13)CC[NH+](C)CC2 (protonated)
COc1cc2c(cc1[N-]S(=O)(=O)c1cccc3cccnc13)CC[N@@H+](C)CC2 (chirality)
COc1cc2c(cc1[N-]S(=O)(=O)c1cccc3cccnc13)CC[N@@H+](C)CC2 (3D coordinates assigned)
COc1cc2c(cc1[N-]S(=O)(=O)c1cccc3cccnc13)CC[N@@H+](C)CC2 (nonaromatic ring conformer: 83.64593162434292 kcal/mol)

>  <smiles>  (32) 
COc1cc2c(cc1NS(=O)(=O)c1cccc3cccnc13)CCN(C)CC2

>  <score_type>  (32) 
oracle

>  <origin>  (32) 
adgpu

>  <m_score__min__energy>  (32) 
-9.0199999999999996

>  <m_primary>  (32) 
energy

$$$$
32:0
     RDKit          3D

 56 59  0  0  0  0  0  0  0  0999 V2000
   -6.8610   16.5520  -33.5020 C   0  0  0  0  0  0  0  0  0  0  0  0
   -7.6640   17.4930  -32.7950 O   0  0  0  0  0  0  0  0  0  0  0  0
   -7.3220   18.8390  -32.6050 C   0  0  0  0  0  0  0  0  0  0  0  0
   -7.7470   19.5750  -31.4830 C   0  0  0  0  0  0  0  0  0  0  0  0
   -7.3700   20.9120  -31.3340 C   0  0  0  0  0  0  0  0  0  0  0  0
   -6.5480   21.5320  -32.2900 C   0  0  0  0  0  0  0  0  0  0  0  0
   -6.1030   22.9330  -32.1140 C   0  0  0  0  0  0  0  0  0  0  0  0
   -6.7750   23.8610  -32.6370 O   0  0  0  0  0  0  0  0  0  0  0  0
   -4.8710   23.2700  -31.3650 C   0  0  0  0  0  0  0  0  0  0  0  0
   -4.6550   24.3980  -30.5890 C   0  0  0  0  0  0  0  0  0  0  0  0
   -5.5590   25.4180  -30.3040 O   0  0  0  0  0  0  0  0  0  0  0  0
   -3.3610   24.3320  -30.1320 C   0  0  0  0  0  0  0  0  0  0  0  0
   -2.7420   25.2940  -29.3430 O   0  0  0  0  0  0  0  0  0  0  0  0
   -2.7580   23.2100  -30.5750 N   0  0  0  0  0  0  0  0  0  0  0  0
   -1.3370   22.8850  -30.4140 C   0  0  0  0  0  0  0  0  0  0  0  0
   -1.1230   22.0920  -29.1150 C   0  0  0  0  0  0  0  0  0  0  0  0
   -1.6540   20.7120  -29.1640 N   0  0  0  0  0  0  0  0  0  0  0  0
   -2.7780   20.4450  -28.2420 C   0  0  0  0  0  0  0  0  0  0  0  0
   -2.3260   19.8540  -26.8850 C   0  0  0  0  0  0  0  0  0  0  0  0
   -0.9450   19.5530  -26.8390 O   0  0  0  0  0  0  0  0  0  0  0  0
   -0.5940   18.7820  -27.9640 C   0  0  0  0  0  0  0  0  0  0  0  0
   -0.6270   19.6480  -29.2310 C   0  0  0  0  0  0  0  0  0  0  0  0
   -3.6690   22.5580  -31.3410 C   0  0  0  0  0  0  0  0  0  0  0  0
   -3.3740   21.3450  -32.1330 C   0  0  0  0  0  0  0  0  0  0  0  0
   -2.7020   21.4460  -33.3610 C   0  0  0  0  0  0  0  0  0  0  0  0
   -2.3930   20.2940  -34.0900 C   0  0  0  0  0  0  0  0  0  0  0  0
   -2.7490   19.0360  -33.5960 C   0  0  0  0  0  0  0  0  0  0  0  0
   -3.4150   18.9290  -32.3720 C   0  0  0  0  0  0  0  0  0  0  0  0
   -3.7280   20.0790  -31.6420 C   0  0  0  0  0  0  0  0  0  0  0  0
   -6.1460   20.8020  -33.4200 C   0  0  0  0  0  0  0  0  0  0  0  0
   -6.5270   19.4660  -33.5710 C   0  0  0  0  0  0  0  0  0  0  0  0
   -6.3203   15.9184  -32.7835 H   0  0  0  0  0  0  0  0  0  0  0  0
   -7.5046   15.9226  -34.1341 H   0  0  0  0  0  0  0  0  0  0  0  0
   -6.1382   17.0886  -34.1341 H   0  0  0  0  0  0  0  0  0  0  0  0
   -8.3785   19.0956  -30.7205 H   0  0  0  0  0  0  0  0  0  0  0  0
   -7.7194   21.4836  -30.4616 H   0  0  0  0  0  0  0  0  0  0  0  0
   -5.3980   26.0780  -29.5540 H   0  0  0  0  0  0  0  0  0  0  0  0
   -1.0025   22.2798  -31.2695 H   0  0  0  0  0  0  0  0  0  0  0  0
   -0.7563   23.8180  -30.3673 H   0  0  0  0  0  0  0  0  0  0  0  0
   -0.0428   22.0411  -28.9136 H   0  0  0  0  0  0  0  0  0  0  0  0
   -1.6743   22.6197  -28.3228 H   0  0  0  0  0  0  0  0  0  0  0  0
   -3.3071   21.3906  -28.0527 H   0  0  0  0  0  0  0  0  0  0  0  0
   -3.4261   19.6984  -28.7242 H   0  0  0  0  0  0  0  0  0  0  0  0
   -2.5509   20.5843  -26.0937 H   0  0  0  0  0  0  0  0  0  0  0  0
   -2.8707   18.9089  -26.7432 H   0  0  0  0  0  0  0  0  0  0  0  0
    0.4199   18.3784  -27.8260 H   0  0  0  0  0  0  0  0  0  0  0  0
   -1.3144   17.9579  -28.0735 H   0  0  0  0  0  0  0  0  0  0  0  0
    0.3590   20.1173  -29.3632 H   0  0  0  0  0  0  0  0  0  0  0  0
   -0.8798   18.9924  -30.0774 H   0  0  0  0  0  0  0  0  0  0  0  0
   -2.4177   22.4345  -33.7509 H   0  0  0  0  0  0  0  0  0  0  0  0
   -1.8690   20.3777  -35.0536 H   0  0  0  0  0  0  0  0  0  0  0  0
   -2.5050   18.1302  -34.1705 H   0  0  0  0  0  0  0  0  0  0  0  0
   -3.6932   17.9385  -31.9827 H   0  0  0  0  0  0  0  0  0  0  0  0
   -4.2535   19.9914  -30.6796 H   0  0  0  0  0  0  0  0  0  0  0  0
   -5.5275   21.2846  -34.1910 H   0  0  0  0  0  0  0  0  0  0  0  0
   -6.1991   18.9023  -34.4569 H   0  0  0  0  0  0  0  0  0  0  0  0
  1  2  1  0
  2  3  1  0
  3  4  2  0
  4  5  1  0
  5  6  2  0
  6  7  1  0
  7  8  2  0
  7  9  1  0
  9 10  1  0
 10 11  1  0
 10 12  2  0
 12 13  1  0
 12 14  1  0
 14 15  1  0
 15 16  1  0
 16 17  1  0
 17 18  1  0
 18 19  1  0
 19 20  1  0
 20 21  1  0
 21 22  1  0
 14 23  1  0
 23 24  1  0
 24 25  2  0
 25 26  1  0
 26 27  2  0
 27 28  1  0
 28 29  2  0
  6 30  1  0
 30 31  2  0
 31  3  1  0
 23  9  2  0
 29 24  1  0
 22 17  1  0
  1 32  1  0
  1 33  1  0
  1 34  1  0
  4 35  1  0
  5 36  1  0
 11 37  1  0
 15 38  1  0
 15 39  1  0
 16 40  1  0
 16 41  1  0
 18 42  1  0
 18 43  1  0
 19 44  1  0
 19 45  1  0
 21 46  1  0
 21 47  1  0
 22 48  1  0
 22 49  1  0
 25 50  1  0
 26 51  1  0
 27 52  1  0
 28 53  1  0
 29 54  1  0
 30 55  1  0
 31 56  1  0
M  CHG  1  13  -1
M  END
>  <UniqueID>  (33) 
33

>  <SMILES>  (33) 
COc1ccc(C(=O)c2c(O)c([O-])n(CCN3CCOCC3)c2-c2ccccc2)cc1

>  <Energy>  (33) 
109.56823430861262

>  <Genealogy>  (33) 
COc1ccc(C(=O)c2c(O)c([O-])n(CCN3CCOCC3)c2-c2ccccc2)cc1 (protonated)
COc1ccc(C(=O)c2c(O)c([O-])n(CCN3CCOCC3)c2-c2ccccc2)cc1 (3D coordinates assigned)
COc1ccc(C(=O)c2c(O)c([O-])n(CCN3CCOCC3)c2-c2ccccc2)cc1 (nonaromatic ring conformer: 109.56823430861262 kcal/mol)

>  <smiles>  (33) 
COc1ccc(C(=O)c2c(O)c(O)n(CCN3CCOCC3)c2-c2ccccc2)cc1

>  <score_type>  (33) 
oracle

>  <origin>  (33) 
adgpu

>  <m_score__min__energy>  (33) 
-11.82

>  <m_primary>  (33) 
energy

$$$$
33:0
     RDKit          3D

 33 34  0  0  0  0  0  0  0  0999 V2000
   -8.7370   19.9250  -32.0580 C   0  0  0  0  0  0  0  0  0  0  0  0
   -7.1790   19.7580  -32.9810 S   0  0  0  0  0  0  0  0  0  0  0  0
   -6.5120   21.2940  -32.3530 C   0  0  0  0  0  0  0  0  0  0  0  0
   -5.1710   21.5080  -32.3650 N   0  0  0  0  0  0  0  0  0  0  0  0
   -4.6420   22.6650  -31.8930 C   0  0  0  0  0  0  0  0  0  0  0  0
   -5.4820   23.6680  -31.3820 C   0  0  0  0  0  0  0  0  0  0  0  0
   -4.9300   24.9360  -30.8560 C   0  0  0  0  0  0  0  0  0  0  0  0
   -5.5140   26.0270  -31.1000 O   0  0  0  0  0  0  0  0  0  0  0  0
   -3.7330   24.9290  -30.0710 N   0  0  0  0  0  0  0  0  0  0  0  0
   -3.6570   24.4180  -28.7070 C   0  0  0  0  0  0  0  0  0  0  0  0
   -2.7370   23.2290  -28.6380 C   0  0  0  0  0  0  0  0  0  0  0  0
   -3.2620   22.0040  -28.9160 N   0  0  0  0  0  0  0  0  0  0  0  0
   -2.5130   20.8720  -28.9120 C   0  0  0  0  0  0  0  0  0  0  0  0
   -1.1540   20.9380  -28.6230 C   0  0  0  0  0  0  0  0  0  0  0  0
   -0.5750   22.1740  -28.3390 C   0  0  0  0  0  0  0  0  0  0  0  0
   -1.3540   23.3420  -28.3430 C   0  0  0  0  0  0  0  0  0  0  0  0
   -0.5800   24.8910  -27.9690 S   0  0  0  0  0  0  0  0  0  0  0  0
   -1.2040   26.1360  -28.9930 N   0  0  0  0  0  0  0  0  0  0  0  0
    0.9040   24.7940  -28.1900 O   0  0  0  0  0  0  0  0  0  0  0  0
   -0.8240   25.2490  -26.5300 O   0  0  0  0  0  0  0  0  0  0  0  0
   -6.8630   23.4220  -31.3850 C   0  0  0  0  0  0  0  0  0  0  0  0
   -7.3470   22.2480  -31.8670 N   0  0  0  0  0  0  0  0  0  0  0  0
   -8.5278   19.9026  -30.9783 H   0  0  0  0  0  0  0  0  0  0  0  0
   -9.2171   20.8797  -32.3187 H   0  0  0  0  0  0  0  0  0  0  0  0
   -9.4085   19.0937  -32.3187 H   0  0  0  0  0  0  0  0  0  0  0  0
   -3.5528   22.8177  -31.9106 H   0  0  0  0  0  0  0  0  0  0  0  0
   -3.2754   25.2094  -28.0451 H   0  0  0  0  0  0  0  0  0  0  0  0
   -4.6628   24.1075  -28.3878 H   0  0  0  0  0  0  0  0  0  0  0  0
   -2.9808   19.9023  -29.1373 H   0  0  0  0  0  0  0  0  0  0  0  0
   -0.5421   20.0239  -28.6186 H   0  0  0  0  0  0  0  0  0  0  0  0
    0.4993   22.2345  -28.1103 H   0  0  0  0  0  0  0  0  0  0  0  0
   -1.6240   25.6650  -29.8240 H   0  0  0  0  0  0  0  0  0  0  0  0
   -7.5562   24.1823  -30.9958 H   0  0  0  0  0  0  0  0  0  0  0  0
  1  2  1  0
  2  3  1  0
  3  4  2  0
  4  5  1  0
  5  6  2  0
  6  7  1  0
  7  8  2  0
  7  9  1  0
  9 10  1  0
 10 11  1  0
 11 12  2  0
 12 13  1  0
 13 14  2  0
 14 15  1  0
 15 16  2  0
 16 17  1  0
 17 18  1  0
 17 19  2  0
 17 20  2  0
  6 21  1  0
 21 22  2  0
 22  3  1  0
 16 11  1  0
  1 23  1  0
  1 24  1  0
  1 25  1  0
  5 26  1  0
 10 27  1  0
 10 28  1  0
 13 29  1  0
 14 30  1  0
 15 31  1  0
 18 32  1  0
 21 33  1  0
M  CHG  2   9  -1  18  -1
M  END
>  <UniqueID>  (34) 
34

>  <SMILES>  (34) 
CSc1ncc(C(=O)[N-]Cc2ncccc2S([NH-])(=O)=O)cn1

>  <Energy>  (34) 
30.828112952102682

>  <Genealogy>  (34) 
CSc1ncc(C(=O)[N-]Cc2ncccc2S([NH-])(=O)=O)cn1 (protonated)
CSc1ncc(C(=O)[N-]Cc2ncccc2S([NH-])(=O)=O)cn1 (3D coordinates assigned)
CSc1ncc(C(=O)[N-]Cc2ncccc2S([NH-])(=O)=O)cn1 (optimized conformer: 30.828112952102682 kcal/mol)

>  <smiles>  (34) 
CSc1ncc(C(=O)NCc2ncccc2S(N)(=O)=O)cn1

>  <score_type>  (34) 
oracle

>  <origin>  (34) 
adgpu

>  <m_score__min__energy>  (34) 
-10.91

>  <m_primary>  (34) 
energy

$$$$
34:0
     RDKit          3D

 51 53  0  0  0  0  0  0  0  0999 V2000
   -4.4790   21.3160  -32.6490 C   0  0  0  0  0  0  0  0  0  0  0  0
   -5.8750   20.7890  -32.5630 C   0  0  0  0  0  0  0  0  0  0  0  0
   -6.1540   19.4720  -32.4970 N   0  0  0  0  0  0  0  0  0  0  0  0
   -7.4590   19.3450  -32.3250 N   0  0  0  0  0  0  0  0  0  0  0  0
   -8.1250   18.0540  -32.1880 C   0  0  0  0  0  0  0  0  0  0  0  0
   -8.0380   20.5650  -32.2730 C   0  0  0  0  0  0  0  0  0  0  0  0
   -9.4840   20.8080  -31.9540 C   0  0  0  0  0  0  0  0  0  0  0  0
   -7.0460   21.5250  -32.4180 C   0  0  0  0  0  0  0  0  0  0  0  0
   -7.1880   23.2660  -32.1360 S   0  0  0  0  0  0  0  0  0  0  0  0
   -6.1050   23.9700  -32.9050 O   0  0  0  0  0  0  0  0  0  0  0  0
   -8.5030   23.7370  -32.6910 O   0  0  0  0  0  0  0  0  0  0  0  0
   -7.0850   23.7420  -30.4530 N   0  0  0  0  0  0  0  0  0  0  0  0
   -6.5170   25.0860  -30.2250 C   0  0  0  0  0  0  0  0  0  0  0  0
   -5.0060   25.0570  -29.9400 C   0  0  0  0  0  0  0  0  0  0  0  0
   -4.7270   24.1070  -28.8530 N   0  0  0  0  0  0  0  0  0  0  0  0
   -3.0990   24.2320  -28.1950 S   0  0  0  0  0  0  0  0  0  0  0  0
   -3.2180   24.6960  -26.7700 O   0  0  0  0  0  0  0  0  0  0  0  0
   -2.3670   25.3020  -28.9570 O   0  0  0  0  0  0  0  0  0  0  0  0
   -2.0930   22.7930  -28.2000 N   0  0  0  0  0  0  0  0  0  0  0  0
   -1.6760   22.3520  -29.5290 C   0  0  0  0  0  0  0  0  0  0  0  0
   -2.3140   21.0040  -29.7800 C   0  0  0  0  0  0  0  0  0  0  0  0
   -2.6000   20.4410  -28.4060 C   0  0  0  0  0  0  0  0  0  0  0  0
   -2.6700   21.6500  -27.4860 C   0  0  0  0  0  0  0  0  0  0  0  0
   -5.0930   22.7500  -29.2780 C   0  0  0  0  0  0  0  0  0  0  0  0
   -6.6070   22.6790  -29.5450 C   0  0  0  0  0  0  0  0  0  0  0  0
   -4.0807   21.4664  -31.6347 H   0  0  0  0  0  0  0  0  0  0  0  0
   -3.8472   20.5945  -33.1878 H   0  0  0  0  0  0  0  0  0  0  0  0
   -4.4816   22.2750  -33.1878 H   0  0  0  0  0  0  0  0  0  0  0  0
   -8.2477   17.8161  -31.1211 H   0  0  0  0  0  0  0  0  0  0  0  0
   -9.1129   18.0981  -32.6698 H   0  0  0  0  0  0  0  0  0  0  0  0
   -7.5165   17.2745  -32.6698 H   0  0  0  0  0  0  0  0  0  0  0  0
   -9.6199   20.8308  -30.8627 H   0  0  0  0  0  0  0  0  0  0  0  0
   -9.7972   21.7714  -32.3827 H   0  0  0  0  0  0  0  0  0  0  0  0
  -10.0949   19.9999  -32.3827 H   0  0  0  0  0  0  0  0  0  0  0  0
   -6.6933   25.6982  -31.1217 H   0  0  0  0  0  0  0  0  0  0  0  0
   -7.0121   25.5073  -29.3377 H   0  0  0  0  0  0  0  0  0  0  0  0
   -4.4684   24.7436  -30.8470 H   0  0  0  0  0  0  0  0  0  0  0  0
   -4.6712   26.0615  -29.6420 H   0  0  0  0  0  0  0  0  0  0  0  0
   -5.3420   24.3640  -28.0430 H   0  0  0  0  0  0  0  0  0  0  0  0
   -2.0126   23.0742  -30.2874 H   0  0  0  0  0  0  0  0  0  0  0  0
   -0.5800   22.2795  -29.5876 H   0  0  0  0  0  0  0  0  0  0  0  0
   -3.2465   21.1187  -30.3520 H   0  0  0  0  0  0  0  0  0  0  0  0
   -1.6613   20.3425  -30.3686 H   0  0  0  0  0  0  0  0  0  0  0  0
   -3.5568   19.8982  -28.4031 H   0  0  0  0  0  0  0  0  0  0  0  0
   -1.8282   19.7254  -28.0863 H   0  0  0  0  0  0  0  0  0  0  0  0
   -3.7177   21.8618  -27.2261 H   0  0  0  0  0  0  0  0  0  0  0  0
   -2.1133   21.4576  -26.5570 H   0  0  0  0  0  0  0  0  0  0  0  0
   -4.5473   22.4958  -30.1987 H   0  0  0  0  0  0  0  0  0  0  0  0
   -4.8301   22.0366  -28.4830 H   0  0  0  0  0  0  0  0  0  0  0  0
   -6.8376   21.7028  -29.9965 H   0  0  0  0  0  0  0  0  0  0  0  0
   -7.1174   22.8170  -28.5804 H   0  0  0  0  0  0  0  0  0  0  0  0
  1  2  1  0
  2  3  2  0
  3  4  1  0
  4  5  1  0
  4  6  1  0
  6  7  1  0
  6  8  2  0
  8  9  1  0
  9 10  2  0
  9 11  2  0
  9 12  1  0
 12 13  1  0
 13 14  1  0
 14 15  1  0
 15 16  1  0
 16 17  2  0
 16 18  2  0
 16 19  1  0
 19 20  1  0
 20 21  1  0
 21 22  1  0
 22 23  1  0
 15 24  1  0
 24 25  1  0
  8  2  1  0
 25 12  1  0
 23 19  1  0
  1 26  1  0
  1 27  1  0
  1 28  1  0
  5 29  1  0
  5 30  1  0
  5 31  1  0
  7 32  1  0
  7 33  1  0
  7 34  1  0
 13 35  1  0
 13 36  1  0
 14 37  1  0
 14 38  1  0
 15 39  1  0
 20 40  1  0
 20 41  1  0
 21 42  1  0
 21 43  1  0
 22 44  1  0
 22 45  1  0
 23 46  1  0
 23 47  1  0
 24 48  1  0
 24 49  1  0
 25 50  1  0
 25 51  1  0
M  CHG  1  15   1
M  END
>  <UniqueID>  (35) 
35

>  <SMILES>  (35) 
Cc1nn(C)c(C)c1S(=O)(=O)N1CC[NH+](S(=O)(=O)N2CCCC2)CC1

>  <Energy>  (35) 
88.37484110542962

>  <Genealogy>  (35) 
Cc1nn(C)c(C)c1S(=O)(=O)N1CC[NH+](S(=O)(=O)N2CCCC2)CC1 (protonated)
Cc1nn(C)c(C)c1S(=O)(=O)N1CC[NH+](S(=O)(=O)N2CCCC2)CC1 (3D coordinates assigned)
Cc1nn(C)c(C)c1S(=O)(=O)N1CC[NH+](S(=O)(=O)N2CCCC2)CC1 (nonaromatic ring conformer: 88.37484110542962 kcal/mol)

>  <smiles>  (35) 
Cc1nn(C)c(C)c1S(=O)(=O)N1CCN(S(=O)(=O)N2CCCC2)CC1

>  <score_type>  (35) 
oracle

>  <origin>  (35) 
adgpu

>  <m_score__min__energy>  (35) 
-8.3900000000000006

>  <m_primary>  (35) 
energy

$$$$
35:0
     RDKit          3D

 55 58  0  0  0  0  0  0  0  0999 V2000
   -9.2170   19.2690  -32.5880 C   0  0  0  0  0  0  0  0  0  0  0  0
   -7.7560   19.5300  -32.2340 C   0  0  0  0  0  0  0  0  0  0  0  0
   -6.9360   19.8790  -33.4810 C   0  0  0  0  0  0  0  0  0  0  0  0
   -5.6370   19.1720  -33.4530 N   0  0  0  0  0  0  0  0  0  0  0  0
   -4.4780   19.8850  -33.2610 C   0  0  0  0  0  0  0  0  0  0  0  0
   -4.5280   21.1350  -33.0840 O   0  0  0  0  0  0  0  0  0  0  0  0
   -3.2240   19.2400  -33.2450 C   0  0  0  0  0  0  0  0  0  0  0  0
   -2.0020   20.0230  -32.9610 C   0  0  0  0  0  0  0  0  0  0  0  0
   -1.2750   20.4100  -33.9150 O   0  0  0  0  0  0  0  0  0  0  0  0
   -1.6500   20.3310  -31.6060 N   0  0  0  0  0  0  0  0  0  0  0  0
   -1.8140   21.5930  -30.9430 C   0  0  0  0  0  0  0  0  0  0  0  0
   -0.7420   22.2530  -30.3200 C   0  0  0  0  0  0  0  0  0  0  0  0
   -0.9420   23.4910  -29.7070 C   0  0  0  0  0  0  0  0  0  0  0  0
   -2.2040   24.0900  -29.7150 C   0  0  0  0  0  0  0  0  0  0  0  0
   -2.3720   25.3220  -29.0930 O   0  0  0  0  0  0  0  0  0  0  0  0
   -3.2850   23.4460  -30.3480 C   0  0  0  0  0  0  0  0  0  0  0  0
   -4.8980   24.1770  -30.3940 S   0  0  0  0  0  0  0  0  0  0  0  0
   -5.3210   24.5530  -29.0000 O   0  0  0  0  0  0  0  0  0  0  0  0
   -4.8350   25.4400  -31.2080 O   0  0  0  0  0  0  0  0  0  0  0  0
   -6.1060   23.1200  -31.0880 N   0  0  0  0  0  0  0  0  0  0  0  0
   -7.0820   22.6770  -30.0950 C   0  0  0  0  0  0  0  0  0  0  0  0
   -8.3540   22.3440  -30.8620 C   0  0  0  0  0  0  0  0  0  0  0  0
   -8.2040   23.0310  -32.2120 C   0  0  0  0  0  0  0  0  0  0  0  0
   -6.8850   23.7800  -32.1320 C   0  0  0  0  0  0  0  0  0  0  0  0
   -3.0720   22.2070  -30.9730 C   0  0  0  0  0  0  0  0  0  0  0  0
   -3.1630   17.8500  -33.4740 C   0  0  0  0  0  0  0  0  0  0  0  0
   -1.9420   17.1720  -33.5480 O   0  0  0  0  0  0  0  0  0  0  0  0
   -4.3520   17.1330  -33.6680 C   0  0  0  0  0  0  0  0  0  0  0  0
   -4.3430   15.7440  -33.8920 C   0  0  0  0  0  0  0  0  0  0  0  0
   -5.5390   15.0610  -34.1030 C   0  0  0  0  0  0  0  0  0  0  0  0
   -6.7410   15.7680  -34.0940 C   0  0  0  0  0  0  0  0  0  0  0  0
   -6.7390   17.1080  -33.8780 N   0  0  0  0  0  0  0  0  0  0  0  0
   -5.5910   17.8150  -33.6620 C   0  0  0  0  0  0  0  0  0  0  0  0
   -9.8050   19.1640  -31.6643 H   0  0  0  0  0  0  0  0  0  0  0  0
   -9.6076   20.1116  -33.1775 H   0  0  0  0  0  0  0  0  0  0  0  0
   -9.2917   18.3433  -33.1775 H   0  0  0  0  0  0  0  0  0  0  0  0
   -7.7034   20.3685  -31.5240 H   0  0  0  0  0  0  0  0  0  0  0  0
   -7.3377   18.6159  -31.7874 H   0  0  0  0  0  0  0  0  0  0  0  0
   -7.4946   19.5772  -34.3793 H   0  0  0  0  0  0  0  0  0  0  0  0
   -6.7538   20.9637  -33.4986 H   0  0  0  0  0  0  0  0  0  0  0  0
    0.2573   21.7933  -30.3152 H   0  0  0  0  0  0  0  0  0  0  0  0
   -0.0998   23.9986  -29.2141 H   0  0  0  0  0  0  0  0  0  0  0  0
   -6.7110   21.7855  -29.5681 H   0  0  0  0  0  0  0  0  0  0  0  0
   -7.2640   23.4555  -29.3395 H   0  0  0  0  0  0  0  0  0  0  0  0
   -8.4510   21.2561  -30.9925 H   0  0  0  0  0  0  0  0  0  0  0  0
   -9.2540   22.6833  -30.3283 H   0  0  0  0  0  0  0  0  0  0  0  0
   -8.1772   22.2877  -33.0224 H   0  0  0  0  0  0  0  0  0  0  0  0
   -9.0471   23.7040  -32.4273 H   0  0  0  0  0  0  0  0  0  0  0  0
   -6.3561   23.7253  -33.0950 H   0  0  0  0  0  0  0  0  0  0  0  0
   -7.0412   24.8447  -31.9039 H   0  0  0  0  0  0  0  0  0  0  0  0
   -3.9050   21.7118  -31.4935 H   0  0  0  0  0  0  0  0  0  0  0  0
   -1.0690   17.6170  -33.7950 H   0  0  0  0  0  0  0  0  0  0  0  0
   -3.3893   15.1959  -33.9006 H   0  0  0  0  0  0  0  0  0  0  0  0
   -5.5351   13.9745  -34.2750 H   0  0  0  0  0  0  0  0  0  0  0  0
   -7.6910   15.2396  -34.2620 H   0  0  0  0  0  0  0  0  0  0  0  0
  1  2  1  0
  2  3  1  0
  3  4  1  0
  4  5  1  0
  5  6  2  0
  5  7  1  0
  7  8  1  0
  8  9  2  0
  8 10  1  0
 10 11  1  0
 11 12  2  0
 12 13  1  0
 13 14  2  0
 14 15  1  0
 14 16  1  0
 16 17  1  0
 17 18  2  0
 17 19  2  0
 17 20  1  0
 20 21  1  0
 21 22  1  0
 22 23  1  0
 23 24  1  0
 16 25  2  0
  7 26  2  0
 26 27  1  0
 26 28  1  0
 28 29  2  0
 29 30  1  0
 30 31  2  0
 31 32  1  0
 32 33  2  0
 33  4  1  0
 25 11  1  0
 33 28  1  0
 24 20  1  0
  1 34  1  0
  1 35  1  0
  1 36  1  0
  2 37  1  0
  2 38  1  0
  3 39  1  0
  3 40  1  0
 12 41  1  0
 13 42  1  0
 21 43  1  0
 21 44  1  0
 22 45  1  0
 22 46  1  0
 23 47  1  0
 23 48  1  0
 24 49  1  0
 24 50  1  0
 25 51  1  0
 27 52  1  0
 29 53  1  0
 30 54  1  0
 31 55  1  0
M  CHG  2  10  -1  15  -1
M  END
>  <UniqueID>  (36) 
36

>  <SMILES>  (36) 
CCCn1c(=O)c(C(=O)[N-]c2ccc([O-])c(S(=O)(=O)N3CCCC3)c2)c(O)c2cccnc21

>  <Energy>  (36) 
75.05399003359739

>  <Genealogy>  (36) 
CCCn1c(=O)c(C(=O)[N-]c2ccc([O-])c(S(=O)(=O)N3CCCC3)c2)c(O)c2cccnc21 (protonated)
CCCn1c(=O)c(C(=O)[N-]c2ccc([O-])c(S(=O)(=O)N3CCCC3)c2)c(O)c2cccnc21 (3D coordinates assigned)
CCCn1c(=O)c(C(=O)[N-]c2ccc([O-])c(S(=O)(=O)N3CCCC3)c2)c(O)c2cccnc21 (nonaromatic ring conformer: 75.05399003359739 kcal/mol)

>  <smiles>  (36) 
CCCn1c(=O)c(C(=O)Nc2ccc(O)c(S(=O)(=O)N3CCCC3)c2)c(O)c2cccnc21

>  <score_type>  (36) 
oracle

>  <origin>  (36) 
adgpu

>  <m_score__min__energy>  (36) 
-12.16

>  <m_primary>  (36) 
energy

$$$$
36:0
     RDKit          3D

 27 28  0  0  0  0  0  0  0  0999 V2000
   -2.2260   21.0210  -32.1480 C   0  0  0  0  0  0  0  0  0  0  0  0
   -3.3820   20.5990  -31.2480 C   0  0  0  0  0  0  0  0  0  0  0  0
   -4.6220   21.2750  -31.6450 N   0  0  0  0  0  0  0  0  0  0  0  0
   -5.4470   20.6810  -32.6630 C   0  0  0  0  0  0  0  0  0  0  0  0
   -5.0080   20.5830  -33.8400 O   0  0  0  0  0  0  0  0  0  0  0  0
   -6.7830   20.1450  -32.3460 C   0  0  0  0  0  0  0  0  0  0  0  0
   -7.9740   20.8630  -32.3090 C   0  0  0  0  0  0  0  0  0  0  0  0
   -9.0780   20.0820  -31.9490 C   0  0  0  0  0  0  0  0  0  0  0  0
   -8.7640   18.7530  -31.6930 C   0  0  0  0  0  0  0  0  0  0  0  0
   -7.1090   18.5520  -31.9140 S   0  0  0  0  0  0  0  0  0  0  0  0
   -4.9190   22.5890  -31.1300 C   0  0  0  0  0  0  0  0  0  0  0  0
   -4.1550   23.6760  -31.3820 N   0  0  0  0  0  0  0  0  0  0  0  0
   -4.6310   24.7920  -30.8320 N   0  0  0  0  0  0  0  0  0  0  0  0
   -5.7870   24.6060  -30.1560 C   0  0  0  0  0  0  0  0  0  0  0  0
   -6.4830   25.6840  -29.3990 C   0  0  0  0  0  0  0  0  0  0  0  0
   -6.2660   22.9930  -30.1930 S   0  0  0  0  0  0  0  0  0  0  0  0
   -1.3729   21.3324  -31.5273 H   0  0  0  0  0  0  0  0  0  0  0  0
   -1.9275   20.1738  -32.7830 H   0  0  0  0  0  0  0  0  0  0  0  0
   -2.5435   21.8612  -32.7830 H   0  0  0  0  0  0  0  0  0  0  0  0
   -3.5227   19.5109  -31.3272 H   0  0  0  0  0  0  0  0  0  0  0  0
   -3.1432   20.8786  -30.2113 H   0  0  0  0  0  0  0  0  0  0  0  0
   -8.0412   21.9365  -32.5395 H   0  0  0  0  0  0  0  0  0  0  0  0
  -10.0996   20.4831  -31.8755 H   0  0  0  0  0  0  0  0  0  0  0  0
   -9.4752   17.9678  -31.3969 H   0  0  0  0  0  0  0  0  0  0  0  0
   -6.3685   25.5066  -28.3195 H   0  0  0  0  0  0  0  0  0  0  0  0
   -6.0427   26.6578  -29.6593 H   0  0  0  0  0  0  0  0  0  0  0  0
   -7.5518   25.6835  -29.6593 H   0  0  0  0  0  0  0  0  0  0  0  0
  1  2  1  0
  2  3  1  0
  3  4  1  0
  4  5  2  0
  4  6  1  0
  6  7  2  0
  7  8  1  0
  8  9  2  0
  9 10  1  0
  3 11  1  0
 11 12  2  0
 12 13  1  0
 13 14  2  0
 14 15  1  0
 14 16  1  0
 10  6  1  0
 16 11  1  0
  1 17  1  0
  1 18  1  0
  1 19  1  0
  2 20  1  0
  2 21  1  0
  7 22  1  0
  8 23  1  0
  9 24  1  0
 15 25  1  0
 15 26  1  0
 15 27  1  0
M  END
>  <UniqueID>  (37) 
37

>  <SMILES>  (37) 
CCN(C(=O)c1cccs1)c1nnc(C)s1

>  <Energy>  (37) 
86.76552577756013

>  <Genealogy>  (37) 
CCN(C(=O)c1cccs1)c1nnc(C)s1 (3D coordinates assigned)
CCN(C(=O)c1cccs1)c1nnc(C)s1 (optimized conformer: 86.76552577756013 kcal/mol)

>  <smiles>  (37) 
CCN(C(=O)c1cccs1)c1nnc(C)s1

>  <score_type>  (37) 
oracle

>  <origin>  (37) 
adgpu

>  <m_score__min__energy>  (37) 
-6.75

>  <m_primary>  (37) 
energy

$$$$
37:0
     RDKit          3D

 54 57  0  0  0  0  0  0  0  0999 V2000
   -3.1520   21.8450  -32.2180 C   0  0  0  0  0  0  0  0  0  0  0  0
   -3.1710   22.4590  -30.8210 C   0  0  0  0  0  0  0  0  0  0  0  0
   -4.4350   23.2550  -30.5990 C   0  0  0  0  0  0  0  0  0  0  0  0
   -5.5250   23.0470  -31.4630 C   0  0  0  0  0  0  0  0  0  0  0  0
   -6.7130   23.7600  -31.2920 C   0  0  0  0  0  0  0  0  0  0  0  0
   -6.8250   24.6970  -30.2670 C   0  0  0  0  0  0  0  0  0  0  0  0
   -5.7480   24.9270  -29.4090 C   0  0  0  0  0  0  0  0  0  0  0  0
   -4.5460   24.2110  -29.5580 C   0  0  0  0  0  0  0  0  0  0  0  0
   -3.4350   24.4890  -28.6860 N   0  0  0  0  0  0  0  0  0  0  0  0
   -3.5620   24.5560  -27.2580 C   0  0  0  0  0  0  0  0  0  0  0  0
   -4.6030   24.1190  -26.7000 O   0  0  0  0  0  0  0  0  0  0  0  0
   -2.4730   25.1340  -26.4410 C   0  0  0  0  0  0  0  0  0  0  0  0
   -2.6920   25.7540  -25.2550 N   0  0  0  0  0  0  0  0  0  0  0  0
   -1.4800   26.0720  -24.7800 C   0  0  0  0  0  0  0  0  0  0  0  0
   -1.2260   26.6780  -23.5930 N   0  0  0  0  0  0  0  0  0  0  0  0
    0.0700   26.9110  -23.2280 C   0  0  0  0  0  0  0  0  0  0  0  0
    1.1320   26.5160  -24.0700 C   0  0  0  0  0  0  0  0  0  0  0  0
    0.8580   25.8820  -25.2930 C   0  0  0  0  0  0  0  0  0  0  0  0
   -0.4810   25.6770  -25.6270 C   0  0  0  0  0  0  0  0  0  0  0  0
   -1.0960   25.0790  -26.7140 C   0  0  0  0  0  0  0  0  0  0  0  0
   -0.3060   24.3900  -28.1350 S   0  0  0  0  0  0  0  0  0  0  0  0
   -0.8280   25.0780  -29.3660 O   0  0  0  0  0  0  0  0  0  0  0  0
    1.1800   24.6040  -28.0770 O   0  0  0  0  0  0  0  0  0  0  0  0
   -0.6360   22.6620  -28.1970 C   0  0  0  0  0  0  0  0  0  0  0  0
   -1.1650   21.9940  -27.0820 C   0  0  0  0  0  0  0  0  0  0  0  0
   -1.3930   20.6110  -27.1300 C   0  0  0  0  0  0  0  0  0  0  0  0
   -1.9750   19.9060  -25.9400 C   0  0  0  0  0  0  0  0  0  0  0  0
   -1.1310   19.9050  -28.3140 C   0  0  0  0  0  0  0  0  0  0  0  0
   -0.6230   20.5710  -29.4400 C   0  0  0  0  0  0  0  0  0  0  0  0
   -0.2980   19.8050  -30.6890 C   0  0  0  0  0  0  0  0  0  0  0  0
   -0.3610   21.9470  -29.3690 C   0  0  0  0  0  0  0  0  0  0  0  0
   -3.1181   20.7486  -32.1362 H   0  0  0  0  0  0  0  0  0  0  0  0
   -4.0598   22.1442  -32.7624 H   0  0  0  0  0  0  0  0  0  0  0  0
   -2.2644   22.1997  -32.7624 H   0  0  0  0  0  0  0  0  0  0  0  0
   -3.1163   21.6542  -30.0732 H   0  0  0  0  0  0  0  0  0  0  0  0
   -2.3085   23.1346  -30.7224 H   0  0  0  0  0  0  0  0  0  0  0  0
   -5.4407   22.3161  -32.2807 H   0  0  0  0  0  0  0  0  0  0  0  0
   -7.5623   23.5817  -31.9679 H   0  0  0  0  0  0  0  0  0  0  0  0
   -7.7629   25.2561  -30.1337 H   0  0  0  0  0  0  0  0  0  0  0  0
   -5.8401   25.6756  -28.6083 H   0  0  0  0  0  0  0  0  0  0  0  0
   -2.4830   24.5810  -29.1030 H   0  0  0  0  0  0  0  0  0  0  0  0
   -3.6060   25.9140  -24.7780 H   0  0  0  0  0  0  0  0  0  0  0  0
    0.2872   27.4096  -22.2718 H   0  0  0  0  0  0  0  0  0  0  0  0
    2.1730   26.7045  -23.7686 H   0  0  0  0  0  0  0  0  0  0  0  0
    1.6689   25.5591  -25.9625 H   0  0  0  0  0  0  0  0  0  0  0  0
   -1.4017   22.5571  -26.1672 H   0  0  0  0  0  0  0  0  0  0  0  0
   -1.5936   20.3680  -25.0174 H   0  0  0  0  0  0  0  0  0  0  0  0
   -3.0716   19.9884  -25.9651 H   0  0  0  0  0  0  0  0  0  0  0  0
   -1.6864   18.8448  -25.9651 H   0  0  0  0  0  0  0  0  0  0  0  0
   -1.3249   18.8232  -28.3599 H   0  0  0  0  0  0  0  0  0  0  0  0
    0.1185   18.8233  -30.4191 H   0  0  0  0  0  0  0  0  0  0  0  0
   -1.2140   19.6643  -31.2817 H   0  0  0  0  0  0  0  0  0  0  0  0
    0.4397   20.3659  -31.2817 H   0  0  0  0  0  0  0  0  0  0  0  0
    0.0634   22.4680  -30.2399 H   0  0  0  0  0  0  0  0  0  0  0  0
  1  2  1  0
  2  3  1  0
  3  4  2  0
  4  5  1  0
  5  6  2  0
  6  7  1  0
  7  8  2  0
  8  9  1  0
  9 10  1  0
 10 11  2  0
 10 12  1  0
 12 13  1  0
 13 14  1  0
 14 15  2  0
 15 16  1  0
 16 17  2  0
 17 18  1  0
 18 19  2  0
 19 20  1  0
 20 21  1  0
 21 22  2  0
 21 23  2  0
 21 24  1  0
 24 25  2  0
 25 26  1  0
 26 27  1  0
 26 28  2  0
 28 29  1  0
 29 30  1  0
 29 31  2  0
  8  3  1  0
 20 12  2  0
 31 24  1  0
 19 14  1  0
  1 32  1  0
  1 33  1  0
  1 34  1  0
  2 35  1  0
  2 36  1  0
  4 37  1  0
  5 38  1  0
  6 39  1  0
  7 40  1  0
  9 41  1  0
 13 42  1  0
 16 43  1  0
 17 44  1  0
 18 45  1  0
 25 46  1  0
 27 47  1  0
 27 48  1  0
 27 49  1  0
 28 50  1  0
 30 51  1  0
 30 52  1  0
 30 53  1  0
 31 54  1  0
M  END
>  <UniqueID>  (38) 
38

>  <SMILES>  (38) 
CCc1ccccc1NC(=O)c1[nH]c2ncccc2c1S(=O)(=O)c1cc(C)cc(C)c1

>  <Energy>  (38) 
97.1845156603358

>  <Genealogy>  (38) 
CCc1ccccc1NC(=O)c1[nH]c2ncccc2c1S(=O)(=O)c1cc(C)cc(C)c1 (3D coordinates assigned)
CCc1ccccc1NC(=O)c1[nH]c2ncccc2c1S(=O)(=O)c1cc(C)cc(C)c1 (optimized conformer: 97.1845156603358 kcal/mol)

>  <smiles>  (38) 
CCc1ccccc1NC(=O)c1[nH]c2ncccc2c1S(=O)(=O)c1cc(C)cc(C)c1

>  <score_type>  (38) 
oracle

>  <origin>  (38) 
adgpu

>  <m_score__min__energy>  (38) 
-9.6099999999999994

>  <m_primary>  (38) 
energy

$$$$
38:0
     RDKit          3D

 69 73  0  0  0  0  0  0  0  0999 V2000
   -0.5140   19.3400  -28.4940 C   0  0  0  0  0  0  0  0  0  0  0  0
   -0.2620   19.2010  -29.9660 C   0  0  0  0  0  0  0  0  0  0  0  0
    0.4890   18.1950  -30.5360 C   0  0  0  0  0  0  0  0  0  0  0  0
    0.3890   18.3620  -31.9060 C   0  0  0  0  0  0  0  0  0  0  0  0
    0.8980   17.4180  -32.9230 C   0  0  0  0  0  0  0  0  0  0  0  0
    2.1170   17.4310  -33.2300 O   0  0  0  0  0  0  0  0  0  0  0  0
    0.0370   16.4480  -33.5390 N   0  0  0  0  0  0  0  0  0  0  0  0
   -1.3760   16.6110  -33.7200 C   0  0  0  0  0  0  0  0  0  0  0  0
   -1.8970   17.2420  -34.8640 C   0  0  0  0  0  0  0  0  0  0  0  0
   -3.2650   17.4970  -34.9650 C   0  0  0  0  0  0  0  0  0  0  0  0
   -4.1320   17.1040  -33.9370 C   0  0  0  0  0  0  0  0  0  0  0  0
   -5.8300   17.5680  -33.9680 S   0  0  0  0  0  0  0  0  0  0  0  0
   -6.1330   18.3370  -35.2260 O   0  0  0  0  0  0  0  0  0  0  0  0
   -6.6710   16.3210  -33.9480 O   0  0  0  0  0  0  0  0  0  0  0  0
   -6.1890   18.5450  -32.5590 N   0  0  0  0  0  0  0  0  0  0  0  0
   -6.7160   19.8560  -32.9550 C   0  0  0  0  0  0  0  0  0  0  0  0
   -8.2320   19.7630  -32.9890 C   0  0  0  0  0  0  0  0  0  0  0  0
   -8.5790   18.5360  -32.1660 C   0  0  0  0  0  0  0  0  0  0  0  0
   -7.2460   17.9210  -31.7580 C   0  0  0  0  0  0  0  0  0  0  0  0
   -3.6230   16.4130  -32.8280 C   0  0  0  0  0  0  0  0  0  0  0  0
   -2.2510   16.1570  -32.7270 C   0  0  0  0  0  0  0  0  0  0  0  0
   -0.4070   19.4810  -32.1180 C   0  0  0  0  0  0  0  0  0  0  0  0
   -0.9280   19.9280  -33.4550 C   0  0  0  0  0  0  0  0  0  0  0  0
   -0.8240   19.9700  -30.9260 N   0  0  0  0  0  0  0  0  0  0  0  0
   -1.7600   21.0360  -30.7110 C   0  0  0  0  0  0  0  0  0  0  0  0
   -1.3640   22.1910  -30.0200 C   0  0  0  0  0  0  0  0  0  0  0  0
   -2.2710   23.2350  -29.8190 C   0  0  0  0  0  0  0  0  0  0  0  0
   -3.5780   23.1410  -30.3170 C   0  0  0  0  0  0  0  0  0  0  0  0
   -4.7260   24.4610  -30.0560 S   0  0  0  0  0  0  0  0  0  0  0  0
   -4.7550   24.8000  -28.5910 O   0  0  0  0  0  0  0  0  0  0  0  0
   -4.2530   25.6760  -30.8040 O   0  0  0  0  0  0  0  0  0  0  0  0
   -6.3450   24.0690  -30.5800 N   0  0  0  0  0  0  0  0  0  0  0  0
   -6.8580   22.8650  -29.9280 C   0  0  0  0  0  0  0  0  0  0  0  0
   -7.9170   22.2930  -30.8580 C   0  0  0  0  0  0  0  0  0  0  0  0
   -7.6340   22.9120  -32.2190 C   0  0  0  0  0  0  0  0  0  0  0  0
   -6.4090   23.7900  -32.0130 C   0  0  0  0  0  0  0  0  0  0  0  0
   -3.9740   21.9840  -31.0030 C   0  0  0  0  0  0  0  0  0  0  0  0
   -3.0690   20.9370  -31.2010 C   0  0  0  0  0  0  0  0  0  0  0  0
    0.3156   18.8824  -27.9352 H   0  0  0  0  0  0  0  0  0  0  0  0
   -0.5874   20.4062  -28.2336 H   0  0  0  0  0  0  0  0  0  0  0  0
   -1.4550   18.8333  -28.2336 H   0  0  0  0  0  0  0  0  0  0  0  0
    1.0553   17.4145  -30.0067 H   0  0  0  0  0  0  0  0  0  0  0  0
   -1.2232   17.5356  -35.6824 H   0  0  0  0  0  0  0  0  0  0  0  0
   -3.6638   18.0078  -35.8538 H   0  0  0  0  0  0  0  0  0  0  0  0
   -6.4052   20.6188  -32.2259 H   0  0  0  0  0  0  0  0  0  0  0  0
   -6.3287   20.1400  -33.9446 H   0  0  0  0  0  0  0  0  0  0  0  0
   -8.6829   20.6634  -32.5463 H   0  0  0  0  0  0  0  0  0  0  0  0
   -8.6143   19.6871  -34.0177 H   0  0  0  0  0  0  0  0  0  0  0  0
   -9.1574   18.8229  -31.2754 H   0  0  0  0  0  0  0  0  0  0  0  0
   -9.1953   17.8259  -32.7369 H   0  0  0  0  0  0  0  0  0  0  0  0
   -7.0620   18.1064  -30.6895 H   0  0  0  0  0  0  0  0  0  0  0  0
   -7.2608   16.8345  -31.9291 H   0  0  0  0  0  0  0  0  0  0  0  0
   -4.3044   16.0711  -32.0350 H   0  0  0  0  0  0  0  0  0  0  0  0
   -1.8594   15.5974  -31.8647 H   0  0  0  0  0  0  0  0  0  0  0  0
   -1.7553   20.6378  -33.3075 H   0  0  0  0  0  0  0  0  0  0  0  0
   -0.1202   20.4183  -34.0180 H   0  0  0  0  0  0  0  0  0  0  0  0
   -1.2898   19.0550  -34.0180 H   0  0  0  0  0  0  0  0  0  0  0  0
   -0.3369   22.2750  -29.6354 H   0  0  0  0  0  0  0  0  0  0  0  0
   -1.9581   24.1341  -29.2678 H   0  0  0  0  0  0  0  0  0  0  0  0
   -6.0469   22.1367  -29.7810 H   0  0  0  0  0  0  0  0  0  0  0  0
   -7.2782   23.0952  -28.9378 H   0  0  0  0  0  0  0  0  0  0  0  0
   -7.8341   21.1973  -30.9085 H   0  0  0  0  0  0  0  0  0  0  0  0
   -8.9350   22.5197  -30.5084 H   0  0  0  0  0  0  0  0  0  0  0  0
   -7.4261   22.1288  -32.9629 H   0  0  0  0  0  0  0  0  0  0  0  0
   -8.4929   23.4875  -32.5947 H   0  0  0  0  0  0  0  0  0  0  0  0
   -5.5014   23.2613  -32.3396 H   0  0  0  0  0  0  0  0  0  0  0  0
   -6.4771   24.7179  -32.5998 H   0  0  0  0  0  0  0  0  0  0  0  0
   -5.0013   21.8998  -31.3871 H   0  0  0  0  0  0  0  0  0  0  0  0
   -3.3853   20.0334  -31.7427 H   0  0  0  0  0  0  0  0  0  0  0  0
  1  2  1  0
  2  3  2  0
  3  4  1  0
  4  5  1  0
  5  6  2  0
  5  7  1  0
  7  8  1  0
  8  9  2  0
  9 10  1  0
 10 11  2  0
 11 12  1  0
 12 13  2  0
 12 14  2  0
 12 15  1  0
 15 16  1  0
 16 17  1  0
 17 18  1  0
 18 19  1  0
 11 20  1  0
 20 21  2  0
  4 22  2  0
 22 23  1  0
 22 24  1  0
 24 25  1  0
 25 26  2  0
 26 27  1  0
 27 28  2  0
 28 29  1  0
 29 30  2  0
 29 31  2  0
 29 32  1  0
 32 33  1  0
 33 34  1  0
 34 35  1  0
 35 36  1  0
 28 37  1  0
 37 38  2  0
 24  2  1  0
 38 25  1  0
 21  8  1  0
 36 32  1  0
 19 15  1  0
  1 39  1  0
  1 40  1  0
  1 41  1  0
  3 42  1  0
  9 43  1  0
 10 44  1  0
 16 45  1  0
 16 46  1  0
 17 47  1  0
 17 48  1  0
 18 49  1  0
 18 50  1  0
 19 51  1  0
 19 52  1  0
 20 53  1  0
 21 54  1  0
 23 55  1  0
 23 56  1  0
 23 57  1  0
 26 58  1  0
 27 59  1  0
 33 60  1  0
 33 61  1  0
 34 62  1  0
 34 63  1  0
 35 64  1  0
 35 65  1  0
 36 66  1  0
 36 67  1  0
 37 68  1  0
 38 69  1  0
M  CHG  1   7  -1
M  END
>  <UniqueID>  (39) 
39

>  <SMILES>  (39) 
Cc1cc(C(=O)[N-]c2ccc(S(=O)(=O)N3CCCC3)cc2)c(C)n1-c1ccc(S(=O)(=O)N2CCCC2)cc1

>  <Energy>  (39) 
112.37557998080274

>  <Genealogy>  (39) 
Cc1cc(C(=O)[N-]c2ccc(S(=O)(=O)N3CCCC3)cc2)c(C)n1-c1ccc(S(=O)(=O)N2CCCC2)cc1 (protonated)
Cc1cc(C(=O)[N-]c2ccc(S(=O)(=O)N3CCCC3)cc2)c(C)n1-c1ccc(S(=O)(=O)N2CCCC2)cc1 (3D coordinates assigned)
Cc1cc(C(=O)[N-]c2ccc(S(=O)(=O)N3CCCC3)cc2)c(C)n1-c1ccc(S(=O)(=O)N2CCCC2)cc1 (nonaromatic ring conformer: 112.37557998080274 kcal/mol)

>  <smiles>  (39) 
Cc1cc(C(=O)Nc2ccc(S(=O)(=O)N3CCCC3)cc2)c(C)n1-c1ccc(S(=O)(=O)N2CCCC2)cc1

>  <score_type>  (39) 
oracle

>  <origin>  (39) 
adgpu

>  <m_score__min__energy>  (39) 
-12.82

>  <m_primary>  (39) 
energy

$$$$
39:0
     RDKit          3D

 31 33  0  0  1  0  0  0  0  0999 V2000
   -6.3900   16.9960  -32.2380 F   0  0  0  0  0  0  0  0  0  0  0  0
   -7.0290   18.1680  -32.2960 C   0  0  0  0  0  0  0  0  0  0  0  0
   -8.3670   18.1870  -31.9340 C   0  0  0  0  0  0  0  0  0  0  0  0
   -9.0940   19.3460  -31.9710 C   0  0  0  0  0  0  0  0  0  0  0  0
   -8.4480   20.4920  -32.3800 C   0  0  0  0  0  0  0  0  0  0  0  0
   -7.1180   20.4720  -32.7390 C   0  0  0  0  0  0  0  0  0  0  0  0
   -6.3550   19.3060  -32.7090 C   0  0  0  0  0  0  0  0  0  0  0  0
   -4.9420   19.3400  -33.0890 C   0  0  0  0  0  0  0  0  0  0  0  0
   -4.3800   20.6710  -33.4290 C   0  0  0  0  0  0  0  0  0  0  0  0
   -3.8070   21.4210  -32.3630 N   0  0  0  0  0  0  0  0  0  0  0  0
   -4.2790   22.5220  -31.8610 C   0  0  0  0  0  0  0  0  0  0  0  0
   -5.4140   23.0330  -32.3680 N   0  0  0  0  0  0  0  0  0  0  0  0
   -5.8720   24.1730  -31.8270 C   0  0  0  0  0  0  0  0  0  0  0  0
   -5.2080   24.7680  -30.8160 N   0  0  0  0  0  0  0  0  0  0  0  0
   -4.0710   24.2640  -30.3010 C   0  0  0  0  0  0  0  0  0  0  0  0
   -3.2170   24.6250  -29.3250 N   0  0  0  0  0  0  0  0  0  0  0  0
   -2.2060   23.7240  -29.2300 C   0  0  0  0  0  0  0  0  0  0  0  0
   -2.4280   22.7720  -30.1690 N   0  0  0  0  0  0  0  0  0  0  0  0
   -3.5660   23.0850  -30.8370 C   0  0  0  0  0  0  0  0  0  0  0  0
   -8.8529   17.2543  -31.6114 H   0  0  0  0  0  0  0  0  0  0  0  0
  -10.1559   19.3619  -31.6845 H   0  0  0  0  0  0  0  0  0  0  0  0
   -9.0041   21.4402  -32.4207 H   0  0  0  0  0  0  0  0  0  0  0  0
   -6.6413   21.4097  -33.0608 H   0  0  0  0  0  0  0  0  0  0  0  0
   -4.3597   18.9363  -32.2476 H   0  0  0  0  0  0  0  0  0  0  0  0
   -4.8751   18.7503  -34.0152 H   0  0  0  0  0  0  0  0  0  0  0  0
   -3.5964   20.5172  -34.1855 H   0  0  0  0  0  0  0  0  0  0  0  0
   -5.2403   21.2668  -33.7680 H   0  0  0  0  0  0  0  0  0  0  0  0
   -5.8660   22.5270  -33.1400 H   0  0  0  0  0  0  0  0  0  0  0  0
   -6.7976   24.6257  -32.2122 H   0  0  0  0  0  0  0  0  0  0  0  0
   -3.3110   25.4880  -28.7130 H   0  0  0  0  0  0  0  0  0  0  0  0
   -1.3640   23.7598  -28.5231 H   0  0  0  0  0  0  0  0  0  0  0  0
  1  2  1  0
  2  3  2  0
  3  4  1  0
  4  5  2  0
  5  6  1  0
  6  7  2  0
  7  8  1  0
  8  9  1  0
  9 10  1  0
 10 11  2  0
 11 12  1  0
 12 13  1  0
 13 14  2  0
 14 15  1  0
 15 16  1  0
 16 17  1  0
 17 18  2  0
 18 19  1  0
  7  2  1  0
 19 11  1  0
 19 15  2  0
  3 20  1  0
  4 21  1  0
  5 22  1  0
  6 23  1  0
  8 24  1  0
  8 25  1  0
  9 26  1  0
  9 27  1  0
 12 28  1  0
 13 29  1  0
 16 30  1  0
 17 31  1  0
M  END
>  <smiles>  (40) 
Fc1ccccc1CCN=c1[nH]cnc2[nH]cnc12

>  <score_type>  (40) 
oracle

>  <origin>  (40) 
adgpu

>  <m_score__min__energy>  (40) 
-6.9800000000000004

>  <m_primary>  (40) 
energy

$$$$
40:0
     RDKit          3D

 64 67  0  0  0  0  0  0  0  0999 V2000
   -6.5100   23.9870  -31.7300 C   0  0  0  0  0  0  0  0  0  0  0  0
   -5.1880   23.8330  -31.0350 C   0  0  0  0  0  0  0  0  0  0  0  0
   -4.7230   24.8320  -30.1680 C   0  0  0  0  0  0  0  0  0  0  0  0
   -3.4830   24.6960  -29.5400 C   0  0  0  0  0  0  0  0  0  0  0  0
   -2.6900   23.5740  -29.7890 C   0  0  0  0  0  0  0  0  0  0  0  0
   -3.1270   22.5810  -30.6810 C   0  0  0  0  0  0  0  0  0  0  0  0
   -2.3020   21.4390  -30.9560 N   0  0  0  0  0  0  0  0  0  0  0  0
   -2.6560   20.5410  -32.0160 C   0  0  0  0  0  0  0  0  0  0  0  0
   -3.8260   19.7740  -31.9180 C   0  0  0  0  0  0  0  0  0  0  0  0
   -4.2340   18.9600  -32.9840 C   0  0  0  0  0  0  0  0  0  0  0  0
   -5.7780   18.1010  -32.9190 S   0  0  0  0  0  0  0  0  0  0  0  0
   -5.8980   17.4180  -31.5850 O   0  0  0  0  0  0  0  0  0  0  0  0
   -5.7920   17.0370  -33.9830 O   0  0  0  0  0  0  0  0  0  0  0  0
   -7.1440   19.1720  -33.1370 N   0  0  0  0  0  0  0  0  0  0  0  0
   -6.8380   20.5080  -32.5740 C   0  0  0  0  0  0  0  0  0  0  0  0
   -8.1130   21.3260  -32.3370 C   0  0  0  0  0  0  0  0  0  0  0  0
   -9.0420   20.6330  -31.3230 C   0  0  0  0  0  0  0  0  0  0  0  0
   -8.8150   19.1130  -31.2520 C   0  0  0  0  0  0  0  0  0  0  0  0
   -8.3990   18.5580  -32.6210 C   0  0  0  0  0  0  0  0  0  0  0  0
   -3.4390   18.8850  -34.1360 C   0  0  0  0  0  0  0  0  0  0  0  0
   -2.2560   19.6210  -34.2270 C   0  0  0  0  0  0  0  0  0  0  0  0
   -1.8550   20.4570  -33.1730 C   0  0  0  0  0  0  0  0  0  0  0  0
   -0.6110   21.2890  -33.3100 C   0  0  0  0  0  0  0  0  0  0  0  0
   -0.9290   21.0780  -29.9540 S   0  0  0  0  0  0  0  0  0  0  0  0
   -0.2780   22.3450  -29.4760 O   0  0  0  0  0  0  0  0  0  0  0  0
    0.0880   20.3110  -30.7540 O   0  0  0  0  0  0  0  0  0  0  0  0
   -1.4480   20.1220  -28.5670 C   0  0  0  0  0  0  0  0  0  0  0  0
   -2.4900   20.3780  -27.6980 C   0  0  0  0  0  0  0  0  0  0  0  0
   -3.4750   21.4970  -27.7810 C   0  0  0  0  0  0  0  0  0  0  0  0
   -2.5510   19.3950  -26.7780 N   0  0  0  0  0  0  0  0  0  0  0  0
   -1.5830   18.5640  -27.0410 O   0  0  0  0  0  0  0  0  0  0  0  0
   -0.9000   18.9470  -28.0940 C   0  0  0  0  0  0  0  0  0  0  0  0
    0.2670   18.1990  -28.6510 C   0  0  0  0  0  0  0  0  0  0  0  0
   -4.3820   22.7150  -31.2990 C   0  0  0  0  0  0  0  0  0  0  0  0
   -7.3097   24.0802  -30.9804 H   0  0  0  0  0  0  0  0  0  0  0  0
   -6.4905   24.8889  -32.3594 H   0  0  0  0  0  0  0  0  0  0  0  0
   -6.6984   23.1047  -32.3594 H   0  0  0  0  0  0  0  0  0  0  0  0
   -5.3368   25.7257  -29.9819 H   0  0  0  0  0  0  0  0  0  0  0  0
   -3.1302   25.4746  -28.8476 H   0  0  0  0  0  0  0  0  0  0  0  0
   -1.7185   23.4673  -29.2842 H   0  0  0  0  0  0  0  0  0  0  0  0
   -4.4279   19.8114  -30.9981 H   0  0  0  0  0  0  0  0  0  0  0  0
   -7.2550   19.2890  -34.1720 H   0  0  0  0  0  0  0  0  0  0  0  0
   -6.3128   20.3799  -31.6160 H   0  0  0  0  0  0  0  0  0  0  0  0
   -6.2105   21.0504  -33.2965 H   0  0  0  0  0  0  0  0  0  0  0  0
   -7.8358   22.3175  -31.9496 H   0  0  0  0  0  0  0  0  0  0  0  0
   -8.6494   21.4177  -33.2930 H   0  0  0  0  0  0  0  0  0  0  0  0
   -8.8591   21.0630  -30.3272 H   0  0  0  0  0  0  0  0  0  0  0  0
  -10.0778   20.7991  -31.6539 H   0  0  0  0  0  0  0  0  0  0  0  0
   -8.0210   18.9010  -30.5208 H   0  0  0  0  0  0  0  0  0  0  0  0
   -9.7556   18.6305  -30.9477 H   0  0  0  0  0  0  0  0  0  0  0  0
   -8.2467   17.4725  -32.5284 H   0  0  0  0  0  0  0  0  0  0  0  0
   -9.2020   18.7987  -33.3332 H   0  0  0  0  0  0  0  0  0  0  0  0
   -3.7490   18.2425  -34.9733 H   0  0  0  0  0  0  0  0  0  0  0  0
   -1.6338   19.5452  -35.1310 H   0  0  0  0  0  0  0  0  0  0  0  0
   -0.2289   21.5445  -32.3107 H   0  0  0  0  0  0  0  0  0  0  0  0
    0.1525   20.7192  -33.8598 H   0  0  0  0  0  0  0  0  0  0  0  0
   -0.8461   22.2123  -33.8598 H   0  0  0  0  0  0  0  0  0  0  0  0
   -3.7550   21.8151  -26.7659 H   0  0  0  0  0  0  0  0  0  0  0  0
   -3.0237   22.3436  -28.3191 H   0  0  0  0  0  0  0  0  0  0  0  0
   -4.3720   21.1567  -28.3191 H   0  0  0  0  0  0  0  0  0  0  0  0
    0.8790   17.8067  -27.8254 H   0  0  0  0  0  0  0  0  0  0  0  0
   -0.0940   17.3636  -29.2689 H   0  0  0  0  0  0  0  0  0  0  0  0
    0.8753   18.8759  -29.2689 H   0  0  0  0  0  0  0  0  0  0  0  0
   -4.7347   21.9387  -31.9940 H   0  0  0  0  0  0  0  0  0  0  0  0
  1  2  1  0
  2  3  2  0
  3  4  1  0
  4  5  2  0
  5  6  1  0
  6  7  1  0
  7  8  1  0
  8  9  2  0
  9 10  1  0
 10 11  1  0
 11 12  2  0
 11 13  2  0
 11 14  1  0
 14 15  1  0
 15 16  1  0
 16 17  1  0
 17 18  1  0
 18 19  1  0
 10 20  2  0
 20 21  1  0
 21 22  2  0
 22 23  1  0
  7 24  1  0
 24 25  2  0
 24 26  2  0
 24 27  1  0
 27 28  1  0
 28 29  1  0
 28 30  2  0
 30 31  1  0
 31 32  1  0
 32 33  1  0
  6 34  2  0
 34  2  1  0
 22  8  1  0
 32 27  2  0
 19 14  1  0
  1 35  1  0
  1 36  1  0
  1 37  1  0
  3 38  1  0
  4 39  1  0
  5 40  1  0
  9 41  1  0
 14 42  1  0
 15 43  1  0
 15 44  1  0
 16 45  1  0
 16 46  1  0
 17 47  1  0
 17 48  1  0
 18 49  1  0
 18 50  1  0
 19 51  1  0
 19 52  1  0
 20 53  1  0
 21 54  1  0
 23 55  1  0
 23 56  1  0
 23 57  1  0
 29 58  1  0
 29 59  1  0
 29 60  1  0
 33 61  1  0
 33 62  1  0
 33 63  1  0
 34 64  1  0
M  CHG  1  14   1
M  END
>  <UniqueID>  (41) 
40

>  <SMILES>  (41) 
Cc1cccc(N(c2cc(S(=O)(=O)[NH+]3CCCCC3)ccc2C)S(=O)(=O)c2c(C)noc2C)c1

>  <Energy>  (41) 
107.95333275869794

>  <Genealogy>  (41) 
Cc1cccc(N(c2cc(S(=O)(=O)[NH+]3CCCCC3)ccc2C)S(=O)(=O)c2c(C)noc2C)c1 (protonated)
Cc1cccc(N(c2cc(S(=O)(=O)[NH+]3CCCCC3)ccc2C)S(=O)(=O)c2c(C)noc2C)c1 (3D coordinates assigned)
Cc1cccc(N(c2cc(S(=O)(=O)[NH+]3CCCCC3)ccc2C)S(=O)(=O)c2c(C)noc2C)c1 (nonaromatic ring conformer: 107.95333275869794 kcal/mol)

>  <smiles>  (41) 
Cc1cccc(N(c2cc(S(=O)(=O)N3CCCCC3)ccc2C)S(=O)(=O)c2c(C)noc2C)c1

>  <score_type>  (41) 
oracle

>  <origin>  (41) 
adgpu

>  <m_score__min__energy>  (41) 
-10.470000000000001

>  <m_primary>  (41) 
energy

$$$$
41:0
     RDKit          3D

 36 38  0  0  0  0  0  0  0  0999 V2000
   -8.6490   22.3050  -31.6260 C   0  0  0  0  0  0  0  0  0  0  0  0
   -7.3650   23.0540  -31.5100 C   0  0  0  0  0  0  0  0  0  0  0  0
   -6.3480   22.9280  -32.3830 N   0  0  0  0  0  0  0  0  0  0  0  0
   -5.4550   23.7770  -31.9760 O   0  0  0  0  0  0  0  0  0  0  0  0
   -5.8980   24.4050  -30.9140 C   0  0  0  0  0  0  0  0  0  0  0  0
   -5.1310   25.4600  -30.1820 C   0  0  0  0  0  0  0  0  0  0  0  0
   -3.7060   25.1300  -30.1570 N   0  0  0  0  0  0  0  0  0  0  0  0
   -3.1110   24.1450  -29.2830 C   0  0  0  0  0  0  0  0  0  0  0  0
   -3.8030   22.9750  -28.9340 C   0  0  0  0  0  0  0  0  0  0  0  0
   -3.2360   22.0500  -28.0640 C   0  0  0  0  0  0  0  0  0  0  0  0
   -1.9530   22.2470  -27.5500 C   0  0  0  0  0  0  0  0  0  0  0  0
   -1.3740   21.0420  -26.4050 Cl  0  0  0  0  0  0  0  0  0  0  0  0
   -1.2060   23.3910  -27.9260 C   0  0  0  0  0  0  0  0  0  0  0  0
    0.4760   23.6250  -27.3740 S   0  0  0  0  0  0  0  0  0  0  0  0
    1.1750   24.5310  -28.3490 O   0  0  0  0  0  0  0  0  0  0  0  0
    1.2420   22.3330  -27.3550 O   0  0  0  0  0  0  0  0  0  0  0  0
    0.5510   24.3720  -25.7430 C   0  0  0  0  0  0  0  0  0  0  0  0
   -0.7730   24.8120  -25.1360 C   0  0  0  0  0  0  0  0  0  0  0  0
   -0.1010   23.5410  -24.6480 C   0  0  0  0  0  0  0  0  0  0  0  0
   -1.8200   24.3660  -28.7570 C   0  0  0  0  0  0  0  0  0  0  0  0
   -1.1890   25.5770  -29.0570 O   0  0  0  0  0  0  0  0  0  0  0  0
   -7.1300   23.9880  -30.5650 N   0  0  0  0  0  0  0  0  0  0  0  0
   -9.0344   22.0802  -30.6206 H   0  0  0  0  0  0  0  0  0  0  0  0
   -9.3825   22.9169  -32.1715 H   0  0  0  0  0  0  0  0  0  0  0  0
   -8.4774   21.3653  -32.1715 H   0  0  0  0  0  0  0  0  0  0  0  0
   -5.2703   26.4265  -30.6884 H   0  0  0  0  0  0  0  0  0  0  0  0
   -5.5019   25.5180  -29.1480 H   0  0  0  0  0  0  0  0  0  0  0  0
   -3.0920   25.6730  -30.8050 H   0  0  0  0  0  0  0  0  0  0  0  0
   -4.8030   22.7879  -29.3524 H   0  0  0  0  0  0  0  0  0  0  0  0
   -3.8048   21.1531  -27.7776 H   0  0  0  0  0  0  0  0  0  0  0  0
    1.5245   24.8608  -25.8957 H   0  0  0  0  0  0  0  0  0  0  0  0
   -0.8121   25.6980  -24.4852 H   0  0  0  0  0  0  0  0  0  0  0  0
   -1.7668   25.0617  -25.5360 H   0  0  0  0  0  0  0  0  0  0  0  0
    0.3466   23.5065  -23.6438 H   0  0  0  0  0  0  0  0  0  0  0  0
   -0.4067   22.4890  -24.5482 H   0  0  0  0  0  0  0  0  0  0  0  0
   -0.1870   25.7080  -29.0540 H   0  0  0  0  0  0  0  0  0  0  0  0
  1  2  1  0
  2  3  2  0
  3  4  1  0
  4  5  1  0
  5  6  1  0
  6  7  1  0
  7  8  1  0
  8  9  2  0
  9 10  1  0
 10 11  2  0
 11 12  1  0
 11 13  1  0
 13 14  1  0
 14 15  2  0
 14 16  2  0
 14 17  1  0
 17 18  1  0
 18 19  1  0
 13 20  2  0
 20 21  1  0
  5 22  2  0
 22  2  1  0
 20  8  1  0
 19 17  1  0
  1 23  1  0
  1 24  1  0
  1 25  1  0
  6 26  1  0
  6 27  1  0
  7 28  1  0
  9 29  1  0
 10 30  1  0
 17 31  1  0
 18 32  1  0
 18 33  1  0
 19 34  1  0
 19 35  1  0
 21 36  1  0
M  END
>  <UniqueID>  (42) 
41

>  <SMILES>  (42) 
Cc1noc(CNc2ccc(Cl)c(S(=O)(=O)C3CC3)c2O)n1

>  <Energy>  (42) 
337.6272954195168

>  <Genealogy>  (42) 
Cc1noc(CNc2ccc(Cl)c(S(=O)(=O)C3CC3)c2O)n1 (3D coordinates assigned)
Cc1noc(CNc2ccc(Cl)c(S(=O)(=O)C3CC3)c2O)n1 (nonaromatic ring conformer: 337.6272954195168 kcal/mol)

>  <smiles>  (42) 
Cc1noc(CNc2ccc(Cl)c(S(=O)(=O)C3CC3)c2O)n1

>  <score_type>  (42) 
oracle

>  <origin>  (42) 
adgpu

>  <m_score__min__energy>  (42) 
-9.0999999999999996

>  <m_primary>  (42) 
energy

$$$$
42:0
     RDKit          3D

 37 39  0  0  0  0  0  0  0  0999 V2000
   -1.0730   23.5080  -29.3890 O   0  0  0  0  0  0  0  0  0  0  0  0
   -1.9810   24.3440  -29.1440 C   0  0  0  0  0  0  0  0  0  0  0  0
   -1.6060   25.6350  -28.6440 N   0  0  0  0  0  0  0  0  0  0  0  0
   -0.9310   25.9040  -27.4060 C   0  0  0  0  0  0  0  0  0  0  0  0
   -1.5530   26.6270  -26.3710 C   0  0  0  0  0  0  0  0  0  0  0  0
   -0.8760   26.8650  -25.1720 C   0  0  0  0  0  0  0  0  0  0  0  0
    0.4170   26.3710  -24.9880 C   0  0  0  0  0  0  0  0  0  0  0  0
    1.0320   25.6300  -25.9990 C   0  0  0  0  0  0  0  0  0  0  0  0
    0.3610   25.3900  -27.2070 C   0  0  0  0  0  0  0  0  0  0  0  0
    0.9740   24.6480  -28.2150 O   0  0  0  0  0  0  0  0  0  0  0  0
   -3.3930   24.0000  -29.4460 C   0  0  0  0  0  0  0  0  0  0  0  0
   -4.0460   22.9990  -28.7070 C   0  0  0  0  0  0  0  0  0  0  0  0
   -5.3750   22.6650  -28.9790 C   0  0  0  0  0  0  0  0  0  0  0  0
   -6.0810   23.3390  -29.9900 C   0  0  0  0  0  0  0  0  0  0  0  0
   -7.4490   23.0340  -30.2970 N   0  0  0  0  0  0  0  0  0  0  0  0
   -8.0540   22.6260  -31.8700 S   0  0  0  0  0  0  0  0  0  0  0  0
   -7.3260   23.4360  -32.9060 O   0  0  0  0  0  0  0  0  0  0  0  0
   -9.5190   22.9470  -31.9320 O   0  0  0  0  0  0  0  0  0  0  0  0
   -7.8310   20.9120  -32.1700 C   0  0  0  0  0  0  0  0  0  0  0  0
   -6.9370   20.3600  -33.0730 C   0  0  0  0  0  0  0  0  0  0  0  0
   -6.9930   18.9620  -33.1070 C   0  0  0  0  0  0  0  0  0  0  0  0
   -7.9280   18.4190  -32.2340 C   0  0  0  0  0  0  0  0  0  0  0  0
   -8.6880   19.6790  -31.4180 S   0  0  0  0  0  0  0  0  0  0  0  0
   -5.4380   24.3430  -30.7200 C   0  0  0  0  0  0  0  0  0  0  0  0
   -4.1060   24.6780  -30.4550 C   0  0  0  0  0  0  0  0  0  0  0  0
   -3.4970   25.6740  -31.2130 O   0  0  0  0  0  0  0  0  0  0  0  0
   -2.5766   27.0064  -26.5065 H   0  0  0  0  0  0  0  0  0  0  0  0
   -1.3624   27.4424  -24.3719 H   0  0  0  0  0  0  0  0  0  0  0  0
    0.9512   26.5657  -24.0463 H   0  0  0  0  0  0  0  0  0  0  0  0
    2.0466   25.2329  -25.8475 H   0  0  0  0  0  0  0  0  0  0  0  0
    0.4500   24.3000  -29.0100 H   0  0  0  0  0  0  0  0  0  0  0  0
   -3.5053   22.4731  -27.9063 H   0  0  0  0  0  0  0  0  0  0  0  0
   -5.8704   21.8718  -28.3999 H   0  0  0  0  0  0  0  0  0  0  0  0
   -6.2556   20.9570  -33.6969 H   0  0  0  0  0  0  0  0  0  0  0  0
   -6.3565   18.3503  -33.7633 H   0  0  0  0  0  0  0  0  0  0  0  0
   -8.1360   17.3473  -32.0993 H   0  0  0  0  0  0  0  0  0  0  0  0
   -5.9856   24.8755  -31.5116 H   0  0  0  0  0  0  0  0  0  0  0  0
  1  2  2  0
  2  3  1  0
  3  4  1  0
  4  5  2  0
  5  6  1  0
  6  7  2  0
  7  8  1  0
  8  9  2  0
  9 10  1  0
  2 11  1  0
 11 12  2  0
 12 13  1  0
 13 14  2  0
 14 15  1  0
 15 16  1  0
 16 17  2  0
 16 18  2  0
 16 19  1  0
 19 20  2  0
 20 21  1  0
 21 22  2  0
 22 23  1  0
 14 24  1  0
 24 25  2  0
 25 26  1  0
  9  4  1  0
 25 11  1  0
 23 19  1  0
  5 27  1  0
  6 28  1  0
  7 29  1  0
  8 30  1  0
 10 31  1  0
 12 32  1  0
 13 33  1  0
 20 34  1  0
 21 35  1  0
 22 36  1  0
 24 37  1  0
M  CHG  3   3  -1  15  -1  26  -1
M  END
>  <UniqueID>  (43) 
42

>  <SMILES>  (43) 
O=C([N-]c1ccccc1O)c1ccc([N-]S(=O)(=O)c2cccs2)cc1[O-]

>  <Energy>  (43) 
76.68975119895053

>  <Genealogy>  (43) 
O=C([N-]c1ccccc1O)c1ccc([N-]S(=O)(=O)c2cccs2)cc1[O-] (protonated)
O=C([N-]c1ccccc1O)c1ccc([N-]S(=O)(=O)c2cccs2)cc1[O-] (3D coordinates assigned)
O=C([N-]c1ccccc1O)c1ccc([N-]S(=O)(=O)c2cccs2)cc1[O-] (optimized conformer: 76.68975119895053 kcal/mol)

>  <smiles>  (43) 
O=C(Nc1ccccc1O)c1ccc(NS(=O)(=O)c2cccs2)cc1O

>  <score_type>  (43) 
oracle

>  <origin>  (43) 
adgpu

>  <m_score__min__energy>  (43) 
-13.27

>  <m_primary>  (43) 
energy

$$$$
43:0
     RDKit          3D

 28 29  0  0  0  0  0  0  0  0999 V2000
   -6.0254   19.9877  -33.2360 H   0  0  0  0  0  0  0  0  0  0  0  0
   -6.2770   20.7500  -32.4840 C   0  0  0  0  0  0  0  0  0  0  0  0
   -5.2560   21.4360  -31.8180 C   0  0  0  0  0  0  0  0  0  0  0  0
   -4.2040   21.2087  -32.0454 H   0  0  0  0  0  0  0  0  0  0  0  0
   -5.5690   22.4130  -30.8610 C   0  0  0  0  0  0  0  0  0  0  0  0
   -4.2880   23.2690  -30.0120 S   0  0  0  0  0  0  0  0  0  0  0  0
   -3.1390   22.3230  -29.8010 O   0  0  0  0  0  0  0  0  0  0  0  0
   -3.8530   24.4490  -30.8360 O   0  0  0  0  0  0  0  0  0  0  0  0
   -4.9000   23.8230  -28.4880 N   0  0  0  0  0  0  0  0  0  0  0  0
   -4.2460   24.3930  -27.5170 C   0  0  0  0  0  0  0  0  0  0  0  0
   -4.8430   24.7620  -26.4060 O   0  0  0  0  0  0  0  0  0  0  0  0
   -3.9920   25.3050  -25.5890 N   0  0  0  0  0  0  0  0  0  0  0  0
   -4.2290   25.6820  -24.6450 H   0  0  0  0  0  0  0  0  0  0  0  0
   -2.7820   25.2950  -26.1770 C   0  0  0  0  0  0  0  0  0  0  0  0
   -1.5410   25.8570  -25.5620 C   0  0  0  0  0  0  0  0  0  0  0  0
   -1.6253   25.8188  -24.4659 H   0  0  0  0  0  0  0  0  0  0  0  0
   -0.6717   25.2647  -25.8838 H   0  0  0  0  0  0  0  0  0  0  0  0
   -1.4127   26.9010  -25.8838 H   0  0  0  0  0  0  0  0  0  0  0  0
   -2.8890   24.7170  -27.4310 C   0  0  0  0  0  0  0  0  0  0  0  0
   -1.4300   24.5010  -28.6570 Br  0  0  0  0  0  0  0  0  0  0  0  0
   -6.9120   22.6870  -30.5680 C   0  0  0  0  0  0  0  0  0  0  0  0
   -7.1639   23.4442  -29.8109 H   0  0  0  0  0  0  0  0  0  0  0  0
   -7.9330   22.0020  -31.2340 C   0  0  0  0  0  0  0  0  0  0  0  0
   -8.9849   22.2255  -31.0026 H   0  0  0  0  0  0  0  0  0  0  0  0
   -7.6200   21.0310  -32.1960 C   0  0  0  0  0  0  0  0  0  0  0  0
   -8.6640   20.3300  -32.8780 N   0  0  0  0  0  0  0  0  0  0  0  0
   -8.5300   19.9920  -33.8570 H   0  0  0  0  0  0  0  0  0  0  0  0
   -9.5780   20.1450  -32.4080 H   0  0  0  0  0  0  0  0  0  0  0  0
  1  2  1  0
  2  3  2  0
  3  4  1  0
  3  5  1  0
  5  6  1  0
  6  7  2  0
  6  8  2  0
  6  9  1  0
  9 10  2  0
 10 11  1  0
 11 12  1  0
 12 13  1  0
 12 14  1  0
 14 15  1  0
 15 16  1  0
 15 17  1  0
 15 18  1  0
 14 19  2  0
 19 20  1  0
  5 21  2  0
 21 22  1  0
 21 23  1  0
 23 24  1  0
 23 25  2  0
 25 26  1  0
 26 27  1  0
 26 28  1  0
 25  2  1  0
 19 10  1  0
M  END
>  <UniqueID>  (44) 
43

>  <SMILES>  (44) 
Cc1[nH]o/c(=N/S(=O)(=O)c2ccc(N)cc2)c1Br

>  <Energy>  (44) 
67.99945319511315

>  <Genealogy>  (44) 
Cc1[nH]o/c(=N/S(=O)(=O)c2ccc(N)cc2)c1Br (cis-trans isomerization)
Cc1[nH]o/c(=N/S(=O)(=O)c2ccc(N)cc2)c1Br (3D coordinates assigned)
Cc1[nH]o/c(=N/S(=O)(=O)c2ccc(N)cc2)c1Br (optimized conformer: 67.99945319511315 kcal/mol)

>  <smiles>  (44) 
Cc1[nH]oc(=NS(=O)(=O)c2ccc(N)cc2)c1Br

>  <score_type>  (44) 
oracle

>  <origin>  (44) 
adgpu

>  <m_score__min__energy>  (44) 
-7.0599999999999996

>  <m_primary>  (44) 
energy

$$$$
44:0
     RDKit          3D

 42 44  0  0  0  0  0  0  0  0999 V2000
   -3.5030   18.9300  -26.3770 C   0  0  0  0  0  0  0  0  0  0  0  0
   -2.1030   19.8470  -26.9760 S   0  0  0  0  0  0  0  0  0  0  0  0
   -1.6080   20.7830  -25.9100 O   0  0  0  0  0  0  0  0  0  0  0  0
   -1.0020   18.8910  -27.3390 O   0  0  0  0  0  0  0  0  0  0  0  0
   -2.5650   20.7660  -28.3930 C   0  0  0  0  0  0  0  0  0  0  0  0
   -3.3820   21.8410  -28.3500 N   0  0  0  0  0  0  0  0  0  0  0  0
   -3.5700   22.3800  -29.5840 C   0  0  0  0  0  0  0  0  0  0  0  0
   -4.5780   23.8010  -29.8130 S   0  0  0  0  0  0  0  0  0  0  0  0
   -4.7790   24.4710  -28.4820 O   0  0  0  0  0  0  0  0  0  0  0  0
   -3.8930   24.7620  -30.7440 O   0  0  0  0  0  0  0  0  0  0  0  0
   -6.1230   23.3290  -30.5130 C   0  0  0  0  0  0  0  0  0  0  0  0
   -6.9930   22.4760  -29.8170 C   0  0  0  0  0  0  0  0  0  0  0  0
   -8.2120   22.1000  -30.3870 C   0  0  0  0  0  0  0  0  0  0  0  0
   -8.5710   22.5760  -31.6520 C   0  0  0  0  0  0  0  0  0  0  0  0
   -7.7110   23.4290  -32.3470 C   0  0  0  0  0  0  0  0  0  0  0  0
   -6.4890   23.8070  -31.7810 C   0  0  0  0  0  0  0  0  0  0  0  0
   -2.8920   21.7270  -30.6130 C   0  0  0  0  0  0  0  0  0  0  0  0
   -2.9100   22.0960  -32.0010 N   0  0  0  0  0  0  0  0  0  0  0  0
   -2.8100   21.1170  -33.0790 C   0  0  0  0  0  0  0  0  0  0  0  0
   -4.0980   20.3510  -33.2130 C   0  0  0  0  0  0  0  0  0  0  0  0
   -5.3050   20.8900  -32.7370 C   0  0  0  0  0  0  0  0  0  0  0  0
   -6.4980   20.1750  -32.8750 C   0  0  0  0  0  0  0  0  0  0  0  0
   -6.4950   18.9170  -33.4850 C   0  0  0  0  0  0  0  0  0  0  0  0
   -5.2980   18.3720  -33.9570 C   0  0  0  0  0  0  0  0  0  0  0  0
   -4.1030   19.0840  -33.8220 C   0  0  0  0  0  0  0  0  0  0  0  0
   -2.0320   20.4360  -29.9530 S   0  0  0  0  0  0  0  0  0  0  0  0
   -3.4994   18.9323  -25.2770 H   0  0  0  0  0  0  0  0  0  0  0  0
   -4.4301   19.3964  -26.7417 H   0  0  0  0  0  0  0  0  0  0  0  0
   -3.4458   17.8938  -26.7417 H   0  0  0  0  0  0  0  0  0  0  0  0
   -6.7147   22.1025  -28.8205 H   0  0  0  0  0  0  0  0  0  0  0  0
   -8.8902   21.4286  -29.8400 H   0  0  0  0  0  0  0  0  0  0  0  0
   -9.5308   22.2785  -32.0996 H   0  0  0  0  0  0  0  0  0  0  0  0
   -7.9951   23.8043  -33.3412 H   0  0  0  0  0  0  0  0  0  0  0  0
   -5.8139   24.4797  -32.3303 H   0  0  0  0  0  0  0  0  0  0  0  0
   -3.0130   23.1010  -32.2640 H   0  0  0  0  0  0  0  0  0  0  0  0
   -2.5986   21.6388  -34.0240 H   0  0  0  0  0  0  0  0  0  0  0  0
   -1.9981   20.4121  -32.8466 H   0  0  0  0  0  0  0  0  0  0  0  0
   -5.3111   21.8783  -32.2540 H   0  0  0  0  0  0  0  0  0  0  0  0
   -7.4407   20.6027  -32.5031 H   0  0  0  0  0  0  0  0  0  0  0  0
   -7.4351   18.3562  -33.5934 H   0  0  0  0  0  0  0  0  0  0  0  0
   -5.2963   17.3815  -34.4354 H   0  0  0  0  0  0  0  0  0  0  0  0
   -3.1625   18.6512  -34.1938 H   0  0  0  0  0  0  0  0  0  0  0  0
  1  2  1  0
  2  3  2  0
  2  4  2  0
  2  5  1  0
  5  6  2  0
  6  7  1  0
  7  8  1  0
  8  9  2  0
  8 10  2  0
  8 11  1  0
 11 12  2  0
 12 13  1  0
 13 14  2  0
 14 15  1  0
 15 16  2  0
  7 17  2  0
 17 18  1  0
 18 19  1  0
 19 20  1  0
 20 21  2  0
 21 22  1  0
 22 23  2  0
 23 24  1  0
 24 25  2  0
 17 26  1  0
 26  5  1  0
 16 11  1  0
 25 20  1  0
  1 27  1  0
  1 28  1  0
  1 29  1  0
 12 30  1  0
 13 31  1  0
 14 32  1  0
 15 33  1  0
 16 34  1  0
 18 35  1  0
 19 36  1  0
 19 37  1  0
 21 38  1  0
 22 39  1  0
 23 40  1  0
 24 41  1  0
 25 42  1  0
M  END
>  <UniqueID>  (45) 
44

>  <SMILES>  (45) 
CS(=O)(=O)c1nc(S(=O)(=O)c2ccccc2)c(NCc2ccccc2)s1

>  <Energy>  (45) 
70.49391395636721

>  <Genealogy>  (45) 
CS(=O)(=O)c1nc(S(=O)(=O)c2ccccc2)c(NCc2ccccc2)s1 (3D coordinates assigned)
CS(=O)(=O)c1nc(S(=O)(=O)c2ccccc2)c(NCc2ccccc2)s1 (optimized conformer: 70.49391395636721 kcal/mol)

>  <smiles>  (45) 
CS(=O)(=O)c1nc(S(=O)(=O)c2ccccc2)c(NCc2ccccc2)s1

>  <score_type>  (45) 
oracle

>  <origin>  (45) 
adgpu

>  <m_score__min__energy>  (45) 
-8.8699999999999992

>  <m_primary>  (45) 
energy

$$$$
45:0
     RDKit          3D

 57 59  0  0  0  0  0  0  0  0999 V2000
   -0.4600   21.1450  -31.7320 C   0  0  0  0  0  0  0  0  0  0  0  0
   -1.9430   21.3950  -31.7710 C   0  0  0  0  0  0  0  0  0  0  0  0
   -2.5720   21.6720  -32.9950 C   0  0  0  0  0  0  0  0  0  0  0  0
   -3.9540   21.8700  -33.0540 C   0  0  0  0  0  0  0  0  0  0  0  0
   -4.7250   21.7970  -31.8880 C   0  0  0  0  0  0  0  0  0  0  0  0
   -6.4780   21.9380  -31.9480 S   0  0  0  0  0  0  0  0  0  0  0  0
   -7.0160   21.8860  -30.5460 O   0  0  0  0  0  0  0  0  0  0  0  0
   -6.8730   23.2450  -32.5790 O   0  0  0  0  0  0  0  0  0  0  0  0
   -7.1240   20.6120  -32.8860 N   0  0  0  0  0  0  0  0  0  0  0  0
   -8.4980   20.2600  -32.4430 C   0  0  0  0  0  0  0  0  0  0  0  0
   -8.5390   19.0050  -31.5590 C   0  0  0  0  0  0  0  0  0  0  0  0
   -7.9490   17.7880  -32.2900 C   0  0  0  0  0  0  0  0  0  0  0  0
   -6.8480   18.1730  -33.2940 C   0  0  0  0  0  0  0  0  0  0  0  0
   -6.1670   19.4830  -32.8900 C   0  0  0  0  0  0  0  0  0  0  0  0
   -4.1030   21.5360  -30.6620 C   0  0  0  0  0  0  0  0  0  0  0  0
   -2.7250   21.3010  -30.6000 C   0  0  0  0  0  0  0  0  0  0  0  0
   -2.1380   20.9410  -29.3460 N   0  0  0  0  0  0  0  0  0  0  0  0
   -2.2540   21.7520  -28.1620 C   0  0  0  0  0  0  0  0  0  0  0  0
   -1.7240   21.1040  -26.7420 S   0  0  0  0  0  0  0  0  0  0  0  0
   -2.7180   23.1340  -28.2480 N   0  0  2  0  0  0  0  0  0  0  0  0
   -1.9810   24.0210  -27.3070 C   0  0  0  0  0  0  0  0  0  0  0  0
   -1.2120   25.1910  -27.9580 C   0  0  0  0  0  0  0  0  0  0  0  0
   -1.5550   25.3410  -29.3090 O   0  0  0  0  0  0  0  0  0  0  0  0
   -4.1950   23.2540  -28.1690 C   0  0  0  0  0  0  0  0  0  0  0  0
   -4.7360   24.2010  -29.2050 C   0  0  0  0  0  0  0  0  0  0  0  0
   -6.0720   24.4460  -29.4530 C   0  0  0  0  0  0  0  0  0  0  0  0
   -6.0940   25.3520  -30.4910 C   0  0  0  0  0  0  0  0  0  0  0  0
   -4.7730   25.6020  -30.8110 C   0  0  0  0  0  0  0  0  0  0  0  0
   -3.9880   24.8990  -30.0270 O   0  0  0  0  0  0  0  0  0  0  0  0
   -0.1251   21.0885  -30.6858 H   0  0  0  0  0  0  0  0  0  0  0  0
   -0.2346   20.1962  -32.2409 H   0  0  0  0  0  0  0  0  0  0  0  0
    0.0640   21.9675  -32.2409 H   0  0  0  0  0  0  0  0  0  0  0  0
   -1.9722   21.7337  -33.9150 H   0  0  0  0  0  0  0  0  0  0  0  0
   -4.4371   22.0837  -34.0189 H   0  0  0  0  0  0  0  0  0  0  0  0
   -8.9096   21.1051  -31.8717 H   0  0  0  0  0  0  0  0  0  0  0  0
   -9.0908   20.0474  -33.3449 H   0  0  0  0  0  0  0  0  0  0  0  0
   -7.9562   19.1913  -30.6449 H   0  0  0  0  0  0  0  0  0  0  0  0
   -9.5889   18.7873  -31.3132 H   0  0  0  0  0  0  0  0  0  0  0  0
   -7.5204   17.1031  -31.5435 H   0  0  0  0  0  0  0  0  0  0  0  0
   -8.7640   17.3144  -32.8569 H   0  0  0  0  0  0  0  0  0  0  0  0
   -6.0950   17.3718  -33.3261 H   0  0  0  0  0  0  0  0  0  0  0  0
   -7.3096   18.3099  -34.2830 H   0  0  0  0  0  0  0  0  0  0  0  0
   -5.7435   19.3696  -31.8811 H   0  0  0  0  0  0  0  0  0  0  0  0
   -5.3770   19.7023  -33.6234 H   0  0  0  0  0  0  0  0  0  0  0  0
   -4.7021   21.5154  -29.7397 H   0  0  0  0  0  0  0  0  0  0  0  0
   -1.5850   20.0550  -29.3060 H   0  0  0  0  0  0  0  0  0  0  0  0
   -2.4680   23.4690  -29.2060 H   0  0  0  0  0  0  0  0  0  0  0  0
   -2.7099   24.4460  -26.6012 H   0  0  0  0  0  0  0  0  0  0  0  0
   -1.2184   23.3874  -26.8305 H   0  0  0  0  0  0  0  0  0  0  0  0
   -1.4544   26.1205  -27.4221 H   0  0  0  0  0  0  0  0  0  0  0  0
   -0.1354   24.9738  -27.8967 H   0  0  0  0  0  0  0  0  0  0  0  0
   -2.2460   26.0510  -29.3470 H   0  0  0  0  0  0  0  0  0  0  0  0
   -4.6416   22.2612  -28.3267 H   0  0  0  0  0  0  0  0  0  0  0  0
   -4.4526   23.6509  -27.1760 H   0  0  0  0  0  0  0  0  0  0  0  0
   -6.9368   24.0097  -28.9317 H   0  0  0  0  0  0  0  0  0  0  0  0
   -6.9837   25.7883  -30.9686 H   0  0  0  0  0  0  0  0  0  0  0  0
   -4.4310   26.2857  -31.6019 H   0  0  0  0  0  0  0  0  0  0  0  0
  1  2  1  0
  2  3  2  0
  3  4  1  0
  4  5  2  0
  5  6  1  0
  6  7  2  0
  6  8  2  0
  6  9  1  0
  9 10  1  0
 10 11  1  0
 11 12  1  0
 12 13  1  0
 13 14  1  0
  5 15  1  0
 15 16  2  0
 16 17  1  0
 17 18  1  0
 18 19  2  0
 18 20  1  0
 20 21  1  0
 21 22  1  0
 22 23  1  0
 20 24  1  0
 24 25  1  0
 25 26  2  0
 26 27  1  0
 27 28  2  0
 28 29  1  0
 16  2  1  0
 29 25  1  0
 14  9  1  0
  1 30  1  0
  1 31  1  0
  1 32  1  0
  3 33  1  0
  4 34  1  0
 10 35  1  0
 10 36  1  0
 11 37  1  0
 11 38  1  0
 12 39  1  0
 12 40  1  0
 13 41  1  0
 13 42  1  0
 14 43  1  0
 14 44  1  0
 15 45  1  0
 17 46  1  0
 20 47  1  6
 21 48  1  0
 21 49  1  0
 22 50  1  0
 22 51  1  0
 23 52  1  0
 24 53  1  0
 24 54  1  0
 26 55  1  0
 27 56  1  0
 28 57  1  0
M  CHG  1  20   1
M  END
>  <UniqueID>  (46) 
45

>  <SMILES>  (46) 
Cc1ccc(S(=O)(=O)N2CCCCC2)cc1NC(=S)[N@H+](CCO)Cc1ccco1

>  <Energy>  (46) 
100.18358156932308

>  <Genealogy>  (46) 
Cc1ccc(S(=O)(=O)N2CCCCC2)cc1NC(=S)[NH+](CCO)Cc1ccco1 (protonated)
Cc1ccc(S(=O)(=O)N2CCCCC2)cc1NC(=S)[N@H+](CCO)Cc1ccco1 (chirality)
Cc1ccc(S(=O)(=O)N2CCCCC2)cc1NC(=S)[N@H+](CCO)Cc1ccco1 (3D coordinates assigned)
Cc1ccc(S(=O)(=O)N2CCCCC2)cc1NC(=S)[N@H+](CCO)Cc1ccco1 (nonaromatic ring conformer: 100.18358156932308 kcal/mol)

>  <smiles>  (46) 
Cc1ccc(S(=O)(=O)N2CCCCC2)cc1NC(=S)N(CCO)Cc1ccco1

>  <score_type>  (46) 
oracle

>  <origin>  (46) 
adgpu

>  <m_score__min__energy>  (46) 
-8.4600000000000009

>  <m_primary>  (46) 
energy

$$$$
46:0
     RDKit          3D

 59 62  0  0  0  0  0  0  0  0999 V2000
   -1.6980   25.3310  -29.2010 O   0  0  0  0  0  0  0  0  0  0  0  0
   -2.5960   24.5210  -29.5440 C   0  0  0  0  0  0  0  0  0  0  0  0
   -3.6060   24.9480  -30.4650 N   0  0  0  0  0  0  0  0  0  0  0  0
   -5.2660   25.2060  -30.0360 S   0  0  0  0  0  0  0  0  0  0  0  0
   -5.3800   25.2870  -28.5400 O   0  0  0  0  0  0  0  0  0  0  0  0
   -5.7550   26.5020  -30.6240 O   0  0  0  0  0  0  0  0  0  0  0  0
   -6.2380   23.8530  -30.6040 C   0  0  0  0  0  0  0  0  0  0  0  0
   -6.8570   23.0100  -29.6740 C   0  0  0  0  0  0  0  0  0  0  0  0
   -7.5830   21.8960  -30.1060 C   0  0  0  0  0  0  0  0  0  0  0  0
   -7.6860   21.6100  -31.4750 C   0  0  0  0  0  0  0  0  0  0  0  0
   -8.5940   20.2080  -32.0360 S   0  0  0  0  0  0  0  0  0  0  0  0
   -8.9810   19.3740  -30.8460 O   0  0  0  0  0  0  0  0  0  0  0  0
   -9.8470   20.6560  -32.7380 O   0  0  0  0  0  0  0  0  0  0  0  0
   -7.6110   19.2600  -33.1240 N   0  0  0  0  0  0  0  0  0  0  0  0
   -7.6340   17.8400  -32.7270 C   0  0  0  0  0  0  0  0  0  0  0  0
   -6.6470   17.0110  -33.5800 C   0  0  0  0  0  0  0  0  0  0  0  0
   -6.0250   17.7990  -34.5810 O   0  0  0  0  0  0  0  0  0  0  0  0
   -5.3050   18.8570  -33.9760 C   0  0  0  0  0  0  0  0  0  0  0  0
   -6.2260   19.7700  -33.1330 C   0  0  0  0  0  0  0  0  0  0  0  0
   -7.0740   22.4600  -32.4080 C   0  0  0  0  0  0  0  0  0  0  0  0
   -6.3590   23.5810  -31.9750 C   0  0  0  0  0  0  0  0  0  0  0  0
   -2.5860   23.1590  -28.9820 C   0  0  0  0  0  0  0  0  0  0  0  0
   -2.1240   22.9620  -27.6700 C   0  0  0  0  0  0  0  0  0  0  0  0
   -2.1350   21.6840  -27.1020 C   0  0  0  0  0  0  0  0  0  0  0  0
   -2.5950   20.5930  -27.8440 C   0  0  0  0  0  0  0  0  0  0  0  0
   -3.0310   20.7720  -29.1610 C   0  0  0  0  0  0  0  0  0  0  0  0
   -3.0120   22.0490  -29.7430 C   0  0  0  0  0  0  0  0  0  0  0  0
   -3.5100   22.2240  -31.4690 S   0  0  0  0  0  0  0  0  0  0  0  0
   -3.0610   20.5150  -31.9410 C   0  0  0  0  0  0  0  0  0  0  0  0
   -1.7840   20.4970  -32.7420 C   0  0  0  0  0  0  0  0  0  0  0  0
   -1.8260   20.4350  -34.1460 C   0  0  0  0  0  0  0  0  0  0  0  0
   -0.6400   20.4160  -34.8880 C   0  0  0  0  0  0  0  0  0  0  0  0
    0.5950   20.4620  -34.2370 C   0  0  0  0  0  0  0  0  0  0  0  0
    0.6470   20.5340  -32.8420 C   0  0  0  0  0  0  0  0  0  0  0  0
   -0.5350   20.5560  -32.0930 C   0  0  0  0  0  0  0  0  0  0  0  0
   -0.4660   20.6280  -30.7390 F   0  0  0  0  0  0  0  0  0  0  0  0
   -6.7719   23.2248  -28.5985 H   0  0  0  0  0  0  0  0  0  0  0  0
   -8.0745   21.2424  -29.3704 H   0  0  0  0  0  0  0  0  0  0  0  0
   -8.0200   19.3590  -34.0850 H   0  0  0  0  0  0  0  0  0  0  0  0
   -7.3506   17.7580  -31.6673 H   0  0  0  0  0  0  0  0  0  0  0  0
   -8.6495   17.4479  -32.8854 H   0  0  0  0  0  0  0  0  0  0  0  0
   -5.8706   16.5942  -32.9216 H   0  0  0  0  0  0  0  0  0  0  0  0
   -7.2144   16.2111  -34.0783 H   0  0  0  0  0  0  0  0  0  0  0  0
   -4.5297   18.4317  -33.3217 H   0  0  0  0  0  0  0  0  0  0  0  0
   -4.8574   19.4667  -34.7747 H   0  0  0  0  0  0  0  0  0  0  0  0
   -5.8492   19.8061  -32.1002 H   0  0  0  0  0  0  0  0  0  0  0  0
   -6.2256   20.7757  -33.5785 H   0  0  0  0  0  0  0  0  0  0  0  0
   -7.1568   22.2441  -33.4834 H   0  0  0  0  0  0  0  0  0  0  0  0
   -5.8904   24.2510  -32.7109 H   0  0  0  0  0  0  0  0  0  0  0  0
   -1.7518   23.8171  -27.0866 H   0  0  0  0  0  0  0  0  0  0  0  0
   -1.7814   21.5377  -26.0707 H   0  0  0  0  0  0  0  0  0  0  0  0
   -2.6143   19.5907  -27.3912 H   0  0  0  0  0  0  0  0  0  0  0  0
   -3.3897   19.9096  -29.7421 H   0  0  0  0  0  0  0  0  0  0  0  0
   -2.9234   19.9139  -31.0301 H   0  0  0  0  0  0  0  0  0  0  0  0
   -3.8695   20.0966  -32.5584 H   0  0  0  0  0  0  0  0  0  0  0  0
   -2.7960   20.4013  -34.6636 H   0  0  0  0  0  0  0  0  0  0  0  0
   -0.6802   20.3647  -35.9861 H   0  0  0  0  0  0  0  0  0  0  0  0
    1.5264   20.4416  -34.8219 H   0  0  0  0  0  0  0  0  0  0  0  0
    1.6204   20.5735  -32.3311 H   0  0  0  0  0  0  0  0  0  0  0  0
  1  2  2  0
  2  3  1  0
  3  4  1  0
  4  5  2  0
  4  6  2  0
  4  7  1  0
  7  8  2  0
  8  9  1  0
  9 10  2  0
 10 11  1  0
 11 12  2  0
 11 13  2  0
 11 14  1  0
 14 15  1  0
 15 16  1  0
 16 17  1  0
 17 18  1  0
 18 19  1  0
 10 20  1  0
 20 21  2  0
  2 22  1  0
 22 23  2  0
 23 24  1  0
 24 25  2  0
 25 26  1  0
 26 27  2  0
 27 28  1  0
 28 29  1  0
 29 30  1  0
 30 31  2  0
 31 32  1  0
 32 33  2  0
 33 34  1  0
 34 35  2  0
 35 36  1  0
 21  7  1  0
 27 22  1  0
 35 30  1  0
 19 14  1  0
  8 37  1  0
  9 38  1  0
 14 39  1  0
 15 40  1  0
 15 41  1  0
 16 42  1  0
 16 43  1  0
 18 44  1  0
 18 45  1  0
 19 46  1  0
 19 47  1  0
 20 48  1  0
 21 49  1  0
 23 50  1  0
 24 51  1  0
 25 52  1  0
 26 53  1  0
 29 54  1  0
 29 55  1  0
 31 56  1  0
 32 57  1  0
 33 58  1  0
 34 59  1  0
M  CHG  2   3  -1  14   1
M  END
>  <UniqueID>  (47) 
46

>  <SMILES>  (47) 
O=C([N-]S(=O)(=O)c1ccc(S(=O)(=O)[NH+]2CCOCC2)cc1)c1ccccc1SCc1ccccc1F

>  <Energy>  (47) 
72.5983019715982

>  <Genealogy>  (47) 
O=C([N-]S(=O)(=O)c1ccc(S(=O)(=O)[NH+]2CCOCC2)cc1)c1ccccc1SCc1ccccc1F (protonated)
O=C([N-]S(=O)(=O)c1ccc(S(=O)(=O)[NH+]2CCOCC2)cc1)c1ccccc1SCc1ccccc1F (3D coordinates assigned)
O=C([N-]S(=O)(=O)c1ccc(S(=O)(=O)[NH+]2CCOCC2)cc1)c1ccccc1SCc1ccccc1F (nonaromatic ring conformer: 72.5983019715982 kcal/mol)

>  <smiles>  (47) 
O=C(NS(=O)(=O)c1ccc(S(=O)(=O)N2CCOCC2)cc1)c1ccccc1SCc1ccccc1F

>  <score_type>  (47) 
oracle

>  <origin>  (47) 
adgpu

>  <m_score__min__energy>  (47) 
-12.81

>  <m_primary>  (47) 
energy

$$$$
47:0
     RDKit          3D

 65 69  0  0  0  0  0  0  0  0999 V2000
   -7.9170   18.8900  -31.6020 C   0  0  0  0  0  0  0  0  0  0  0  0
   -6.6830   19.1450  -32.3410 N   0  0  0  0  0  0  0  0  0  0  0  0
   -5.9900   20.3060  -32.3600 C   0  0  0  0  0  0  0  0  0  0  0  0
   -4.8520   20.1780  -33.1510 C   0  0  0  0  0  0  0  0  0  0  0  0
   -3.8860   21.2920  -33.4480 C   0  0  0  0  0  0  0  0  0  0  0  0
   -2.9670   21.6290  -32.2940 C   0  0  0  0  0  0  0  0  0  0  0  0
   -1.6920   21.0390  -32.2470 C   0  0  0  0  0  0  0  0  0  0  0  0
   -0.7970   21.3530  -31.2240 C   0  0  0  0  0  0  0  0  0  0  0  0
   -1.1430   22.2860  -30.2360 C   0  0  0  0  0  0  0  0  0  0  0  0
   -0.2060   22.5540  -29.1230 C   0  0  0  0  0  0  0  0  0  0  0  0
    0.4120   21.5850  -28.6060 O   0  0  0  0  0  0  0  0  0  0  0  0
    0.0390   23.8650  -28.6030 N   0  0  0  0  0  0  0  0  0  0  0  0
   -1.1490   24.9860  -28.0070 S   0  0  0  0  0  0  0  0  0  0  0  0
   -1.2170   26.1530  -28.9500 O   0  0  0  0  0  0  0  0  0  0  0  0
   -2.4980   24.3250  -27.9570 O   0  0  0  0  0  0  0  0  0  0  0  0
   -0.7050   25.5700  -26.4070 C   0  0  0  0  0  0  0  0  0  0  0  0
    0.5150   25.1990  -25.8190 C   0  0  0  0  0  0  0  0  0  0  0  0
    0.8520   25.6650  -24.5450 C   0  0  0  0  0  0  0  0  0  0  0  0
   -0.0190   26.5160  -23.8570 C   0  0  0  0  0  0  0  0  0  0  0  0
   -1.2280   26.9000  -24.4440 C   0  0  0  0  0  0  0  0  0  0  0  0
   -1.5690   26.4330  -25.7170 C   0  0  0  0  0  0  0  0  0  0  0  0
   -2.4140   22.8760  -30.2730 C   0  0  0  0  0  0  0  0  0  0  0  0
   -3.3250   22.5690  -31.2990 C   0  0  0  0  0  0  0  0  0  0  0  0
   -4.6290   23.1710  -31.2930 N   0  0  0  0  0  0  0  0  0  0  0  0
   -4.8610   24.5190  -30.8690 C   0  0  0  0  0  0  0  0  0  0  0  0
   -3.8930   25.2980  -30.6730 O   0  0  0  0  0  0  0  0  0  0  0  0
   -6.2610   25.0250  -30.6980 C   0  0  0  0  0  0  0  0  0  0  0  0
   -7.2520   23.9110  -30.9090 C   0  0  0  0  0  0  0  0  0  0  0  0
   -7.9410   23.7990  -32.1300 C   0  0  0  0  0  0  0  0  0  0  0  0
   -8.8420   22.7500  -32.3350 C   0  0  0  0  0  0  0  0  0  0  0  0
   -9.0620   21.8070  -31.3280 C   0  0  0  0  0  0  0  0  0  0  0  0
   -8.3780   21.9090  -30.1140 C   0  0  0  0  0  0  0  0  0  0  0  0
   -7.4680   22.9510  -29.9060 C   0  0  0  0  0  0  0  0  0  0  0  0
   -4.8800   18.8780  -33.6410 C   0  0  0  0  0  0  0  0  0  0  0  0
   -4.0130   18.1820  -34.4890 C   0  0  0  0  0  0  0  0  0  0  0  0
   -4.3060   16.8370  -34.7760 C   0  0  0  0  0  0  0  0  0  0  0  0
   -5.4520   16.2220  -34.2270 C   0  0  0  0  0  0  0  0  0  0  0  0
   -6.3170   16.9450  -33.3890 C   0  0  0  0  0  0  0  0  0  0  0  0
   -6.0020   18.2790  -33.1140 C   0  0  0  0  0  0  0  0  0  0  0  0
   -7.7129   18.9322  -30.5219 H   0  0  0  0  0  0  0  0  0  0  0  0
   -8.6654   19.6525  -31.8638 H   0  0  0  0  0  0  0  0  0  0  0  0
   -8.3019   17.8933  -31.8638 H   0  0  0  0  0  0  0  0  0  0  0  0
   -6.2840   21.2217  -31.8261 H   0  0  0  0  0  0  0  0  0  0  0  0
   -3.2678   20.9946  -34.3079 H   0  0  0  0  0  0  0  0  0  0  0  0
   -4.4869   22.1907  -33.6513 H   0  0  0  0  0  0  0  0  0  0  0  0
   -1.3964   20.3211  -33.0262 H   0  0  0  0  0  0  0  0  0  0  0  0
    0.1882   20.8647  -31.1921 H   0  0  0  0  0  0  0  0  0  0  0  0
    1.2076   24.5396  -26.3626 H   0  0  0  0  0  0  0  0  0  0  0  0
    1.8032   25.3621  -24.0830 H   0  0  0  0  0  0  0  0  0  0  0  0
    0.2472   26.8828  -22.8547 H   0  0  0  0  0  0  0  0  0  0  0  0
   -1.9122   27.5707  -23.9036 H   0  0  0  0  0  0  0  0  0  0  0  0
   -2.5179   26.7434  -26.1789 H   0  0  0  0  0  0  0  0  0  0  0  0
   -2.7030   23.5899  -29.4876 H   0  0  0  0  0  0  0  0  0  0  0  0
   -5.4540   22.5900  -31.5590 H   0  0  0  0  0  0  0  0  0  0  0  0
   -6.3792   25.4273  -29.6810 H   0  0  0  0  0  0  0  0  0  0  0  0
   -6.4481   25.8141  -31.4411 H   0  0  0  0  0  0  0  0  0  0  0  0
   -7.7704   24.5389  -32.9259 H   0  0  0  0  0  0  0  0  0  0  0  0
   -9.3790   22.6669  -33.2914 H   0  0  0  0  0  0  0  0  0  0  0  0
   -9.7737   20.9842  -31.4909 H   0  0  0  0  0  0  0  0  0  0  0  0
   -8.5554   21.1685  -29.3202 H   0  0  0  0  0  0  0  0  0  0  0  0
   -6.9201   23.0189  -28.9546 H   0  0  0  0  0  0  0  0  0  0  0  0
   -3.1273   18.6725  -34.9192 H   0  0  0  0  0  0  0  0  0  0  0  0
   -3.6379   16.2603  -35.4326 H   0  0  0  0  0  0  0  0  0  0  0  0
   -5.6693   15.1685  -34.4572 H   0  0  0  0  0  0  0  0  0  0  0  0
   -7.2154   16.4755  -32.9619 H   0  0  0  0  0  0  0  0  0  0  0  0
  1  2  1  0
  2  3  1  0
  3  4  2  0
  4  5  1  0
  5  6  1  0
  6  7  2  0
  7  8  1  0
  8  9  2  0
  9 10  1  0
 10 11  2  0
 10 12  1  0
 12 13  1  0
 13 14  2  0
 13 15  2  0
 13 16  1  0
 16 17  2  0
 17 18  1  0
 18 19  2  0
 19 20  1  0
 20 21  2  0
  9 22  1  0
 22 23  2  0
 23 24  1  0
 24 25  1  0
 25 26  2  0
 25 27  1  0
 27 28  1  0
 28 29  2  0
 29 30  1  0
 30 31  2  0
 31 32  1  0
 32 33  2  0
  4 34  1  0
 34 35  2  0
 35 36  1  0
 36 37  2  0
 37 38  1  0
 38 39  2  0
 39  2  1  0
 23  6  1  0
 33 28  1  0
 39 34  1  0
 21 16  1  0
  1 40  1  0
  1 41  1  0
  1 42  1  0
  3 43  1  0
  5 44  1  0
  5 45  1  0
  7 46  1  0
  8 47  1  0
 17 48  1  0
 18 49  1  0
 19 50  1  0
 20 51  1  0
 21 52  1  0
 22 53  1  0
 24 54  1  0
 27 55  1  0
 27 56  1  0
 29 57  1  0
 30 58  1  0
 31 59  1  0
 32 60  1  0
 33 61  1  0
 35 62  1  0
 36 63  1  0
 37 64  1  0
 38 65  1  0
M  CHG  1  12  -1
M  END
>  <UniqueID>  (48) 
47

>  <SMILES>  (48) 
Cn1cc(Cc2ccc(C(=O)[N-]S(=O)(=O)c3ccccc3)cc2NC(=O)Cc2ccccc2)c2ccccc21

>  <Energy>  (48) 
111.0821939717166

>  <Genealogy>  (48) 
Cn1cc(Cc2ccc(C(=O)[N-]S(=O)(=O)c3ccccc3)cc2NC(=O)Cc2ccccc2)c2ccccc21 (protonated)
Cn1cc(Cc2ccc(C(=O)[N-]S(=O)(=O)c3ccccc3)cc2NC(=O)Cc2ccccc2)c2ccccc21 (3D coordinates assigned)
Cn1cc(Cc2ccc(C(=O)[N-]S(=O)(=O)c3ccccc3)cc2NC(=O)Cc2ccccc2)c2ccccc21 (optimized conformer: 111.0821939717166 kcal/mol)

>  <smiles>  (48) 
Cn1cc(Cc2ccc(C(=O)NS(=O)(=O)c3ccccc3)cc2NC(=O)Cc2ccccc2)c2ccccc21

>  <score_type>  (48) 
oracle

>  <origin>  (48) 
adgpu

>  <m_score__min__energy>  (48) 
-12.98

>  <m_primary>  (48) 
energy

$$$$
48:0
     RDKit          3D

 75 79  0  0  0  0  0  0  0  0999 V2000
   -0.7450   24.1820  -27.1380 C   0  0  0  0  0  0  0  0  0  0  0  0
   -1.6520   23.8400  -28.2900 C   0  0  0  0  0  0  0  0  0  0  0  0
   -2.3760   24.8740  -28.9040 C   0  0  0  0  0  0  0  0  0  0  0  0
   -3.2330   24.6140  -29.9800 C   0  0  0  0  0  0  0  0  0  0  0  0
   -3.8800   25.6720  -30.6200 O   0  0  0  0  0  0  0  0  0  0  0  0
   -3.4090   23.2880  -30.4230 C   0  0  0  0  0  0  0  0  0  0  0  0
   -4.2770   22.9500  -31.5140 N   0  0  0  0  0  0  0  0  0  0  0  0
   -4.8820   21.6760  -31.7750 C   0  0  0  0  0  0  0  0  0  0  0  0
   -5.9710   21.3630  -31.2180 O   0  0  0  0  0  0  0  0  0  0  0  0
   -4.1780   20.6980  -32.6410 C   0  0  0  0  0  0  0  0  0  0  0  0
   -2.8390   20.9390  -33.0020 C   0  0  0  0  0  0  0  0  0  0  0  0
   -2.1410   20.0380  -33.8160 C   0  0  0  0  0  0  0  0  0  0  0  0
   -0.4650   20.3570  -34.2610 S   0  0  0  0  0  0  0  0  0  0  0  0
   -0.1120   19.5610  -35.4870 O   0  0  0  0  0  0  0  0  0  0  0  0
   -0.3210   21.8170  -34.5850 O   0  0  0  0  0  0  0  0  0  0  0  0
    0.6070   19.9440  -32.9460 N   0  0  0  0  0  0  0  0  0  0  0  0
   -0.1580   19.3050  -31.8510 C   0  0  0  0  0  0  0  0  0  0  0  0
    0.7420   18.5280  -30.8630 C   0  0  0  0  0  0  0  0  0  0  0  0
    2.1940   19.0090  -30.9380 C   0  0  0  0  0  0  0  0  0  0  0  0
    2.7550   18.8630  -32.3620 C   0  0  0  0  0  0  0  0  0  0  0  0
    1.6740   19.0590  -33.4400 C   0  0  0  0  0  0  0  0  0  0  0  0
   -2.7810   18.8860  -34.2790 C   0  0  0  0  0  0  0  0  0  0  0  0
   -4.1050   18.6330  -33.9330 C   0  0  0  0  0  0  0  0  0  0  0  0
   -4.8140   19.5270  -33.1170 C   0  0  0  0  0  0  0  0  0  0  0  0
   -6.2040   19.2740  -32.8640 N   0  0  0  0  0  0  0  0  0  0  0  0
   -7.1860   20.2110  -33.4270 C   0  0  0  0  0  0  0  0  0  0  0  0
   -8.6240   19.8170  -33.0710 C   0  0  0  0  0  0  0  0  0  0  0  0
   -8.7120   19.3910  -31.7270 O   0  0  0  0  0  0  0  0  0  0  0  0
   -8.0370   18.1590  -31.5980 C   0  0  0  0  0  0  0  0  0  0  0  0
   -6.5270   18.3460  -31.7720 C   0  0  0  0  0  0  0  0  0  0  0  0
   -2.6530   22.2650  -29.8450 C   0  0  0  0  0  0  0  0  0  0  0  0
   -1.7540   22.5240  -28.8000 C   0  0  0  0  0  0  0  0  0  0  0  0
   -0.8140   21.1760  -28.1310 S   0  0  0  0  0  0  0  0  0  0  0  0
   -0.2950   21.5760  -26.7790 O   0  0  0  0  0  0  0  0  0  0  0  0
    0.3460   20.8540  -29.0330 O   0  0  0  0  0  0  0  0  0  0  0  0
   -1.8180   19.7520  -27.9620 N   0  0  0  0  0  0  0  0  0  0  0  0
   -1.2620   18.8010  -26.9860 C   0  0  0  0  0  0  0  0  0  0  0  0
   -2.3890   18.3660  -26.0540 C   0  0  0  0  0  0  0  0  0  0  0  0
   -3.6490   18.9510  -26.6550 C   0  0  0  0  0  0  0  0  0  0  0  0
   -3.1550   20.1130  -27.4860 C   0  0  0  0  0  0  0  0  0  0  0  0
   -1.2666   23.9853  -26.1897 H   0  0  0  0  0  0  0  0  0  0  0  0
    0.1640   23.5649  -27.1913 H   0  0  0  0  0  0  0  0  0  0  0  0
   -0.4697   25.2457  -27.1913 H   0  0  0  0  0  0  0  0  0  0  0  0
   -2.2683   25.9043  -28.5340 H   0  0  0  0  0  0  0  0  0  0  0  0
   -4.0790   25.6560  -31.6150 H   0  0  0  0  0  0  0  0  0  0  0  0
   -2.3342   21.8468  -32.6401 H   0  0  0  0  0  0  0  0  0  0  0  0
   -0.6957   20.0874  -31.2953 H   0  0  0  0  0  0  0  0  0  0  0  0
   -0.8480   18.5809  -32.3088 H   0  0  0  0  0  0  0  0  0  0  0  0
    0.3664   18.6800  -29.8404 H   0  0  0  0  0  0  0  0  0  0  0  0
    0.7147   17.4619  -31.1327 H   0  0  0  0  0  0  0  0  0  0  0  0
    2.2371   20.0676  -30.6421 H   0  0  0  0  0  0  0  0  0  0  0  0
    2.8010   18.3917  -30.2594 H   0  0  0  0  0  0  0  0  0  0  0  0
    3.5429   19.6161  -32.5105 H   0  0  0  0  0  0  0  0  0  0  0  0
    3.1502   17.8416  -32.4643 H   0  0  0  0  0  0  0  0  0  0  0  0
    2.1316   19.5079  -34.3339 H   0  0  0  0  0  0  0  0  0  0  0  0
    1.2376   18.0802  -33.6879 H   0  0  0  0  0  0  0  0  0  0  0  0
   -2.2366   18.1763  -34.9193 H   0  0  0  0  0  0  0  0  0  0  0  0
   -4.6003   17.7232  -34.3030 H   0  0  0  0  0  0  0  0  0  0  0  0
   -6.9848   21.2172  -33.0306 H   0  0  0  0  0  0  0  0  0  0  0  0
   -7.0884   20.1885  -34.5224 H   0  0  0  0  0  0  0  0  0  0  0  0
   -9.2822   20.6861  -33.2171 H   0  0  0  0  0  0  0  0  0  0  0  0
   -8.9328   18.9871  -33.7236 H   0  0  0  0  0  0  0  0  0  0  0  0
   -8.2361   17.7413  -30.6001 H   0  0  0  0  0  0  0  0  0  0  0  0
   -8.4000   17.4744  -32.3787 H   0  0  0  0  0  0  0  0  0  0  0  0
   -6.1091   18.7427  -30.8350 H   0  0  0  0  0  0  0  0  0  0  0  0
   -6.0925   17.3668  -32.0219 H   0  0  0  0  0  0  0  0  0  0  0  0
   -2.7651   21.2359  -30.2169 H   0  0  0  0  0  0  0  0  0  0  0  0
   -0.8526   17.9250  -27.5104 H   0  0  0  0  0  0  0  0  0  0  0  0
   -0.4527   19.2744  -26.4107 H   0  0  0  0  0  0  0  0  0  0  0  0
   -2.4543   17.2687  -26.0137 H   0  0  0  0  0  0  0  0  0  0  0  0
   -2.2263   18.7122  -25.0226 H   0  0  0  0  0  0  0  0  0  0  0  0
   -4.1616   18.2097  -27.2857 H   0  0  0  0  0  0  0  0  0  0  0  0
   -4.3785   19.2579  -25.8910 H   0  0  0  0  0  0  0  0  0  0  0  0
   -3.8283   20.2821  -28.3393 H   0  0  0  0  0  0  0  0  0  0  0  0
   -3.1272   21.0394  -26.8935 H   0  0  0  0  0  0  0  0  0  0  0  0
  1  2  1  0
  2  3  2  0
  3  4  1  0
  4  5  1  0
  4  6  2  0
  6  7  1  0
  7  8  1  0
  8  9  2  0
  8 10  1  0
 10 11  2  0
 11 12  1  0
 12 13  1  0
 13 14  2  0
 13 15  2  0
 13 16  1  0
 16 17  1  0
 17 18  1  0
 18 19  1  0
 19 20  1  0
 20 21  1  0
 12 22  2  0
 22 23  1  0
 23 24  2  0
 24 25  1  0
 25 26  1  0
 26 27  1  0
 27 28  1  0
 28 29  1  0
 29 30  1  0
  6 31  1  0
 31 32  2  0
 32 33  1  0
 33 34  2  0
 33 35  2  0
 33 36  1  0
 36 37  1  0
 37 38  1  0
 38 39  1  0
 39 40  1  0
 32  2  1  0
 40 36  1  0
 24 10  1  0
 30 25  1  0
 21 16  1  0
  1 41  1  0
  1 42  1  0
  1 43  1  0
  3 44  1  0
  5 45  1  0
 11 46  1  0
 17 47  1  0
 17 48  1  0
 18 49  1  0
 18 50  1  0
 19 51  1  0
 19 52  1  0
 20 53  1  0
 20 54  1  0
 21 55  1  0
 21 56  1  0
 22 57  1  0
 23 58  1  0
 26 59  1  0
 26 60  1  0
 27 61  1  0
 27 62  1  0
 29 63  1  0
 29 64  1  0
 30 65  1  0
 30 66  1  0
 31 67  1  0
 37 68  1  0
 37 69  1  0
 38 70  1  0
 38 71  1  0
 39 72  1  0
 39 73  1  0
 40 74  1  0
 40 75  1  0
M  CHG  1   7  -1
M  END
>  <UniqueID>  (49) 
48

>  <SMILES>  (49) 
Cc1cc(O)c([N-]C(=O)c2cc(S(=O)(=O)N3CCCCC3)ccc2N2CCOCC2)cc1S(=O)(=O)N1CCCC1

>  <Energy>  (49) 
98.28701002890726

>  <Genealogy>  (49) 
Cc1cc(O)c([N-]C(=O)c2cc(S(=O)(=O)N3CCCCC3)ccc2N2CCOCC2)cc1S(=O)(=O)N1CCCC1 (protonated)
Cc1cc(O)c([N-]C(=O)c2cc(S(=O)(=O)N3CCCCC3)ccc2N2CCOCC2)cc1S(=O)(=O)N1CCCC1 (3D coordinates assigned)
Cc1cc(O)c([N-]C(=O)c2cc(S(=O)(=O)N3CCCCC3)ccc2N2CCOCC2)cc1S(=O)(=O)N1CCCC1 (nonaromatic ring conformer: 98.28701002890726 kcal/mol)

>  <smiles>  (49) 
Cc1cc(O)c(NC(=O)c2cc(S(=O)(=O)N3CCCCC3)ccc2N2CCOCC2)cc1S(=O)(=O)N1CCCC1

>  <score_type>  (49) 
oracle

>  <origin>  (49) 
adgpu

>  <m_score__min__energy>  (49) 
-12.77

>  <m_primary>  (49) 
energy

$$$$
49:0
     RDKit          3D

 43 45  0  0  0  0  0  0  0  0999 V2000
   -9.3150   21.5090  -31.7270 C   0  0  0  0  0  0  0  0  0  0  0  0
   -8.2390   20.5020  -31.7510 N   0  0  0  0  0  0  0  0  0  0  0  0
   -8.7200   19.2200  -31.2230 C   0  0  0  0  0  0  0  0  0  0  0  0
   -7.6110   20.3500  -33.0870 C   0  0  0  0  0  0  0  0  0  0  0  0
   -6.4350   19.3780  -33.1380 C   0  0  0  0  0  0  0  0  0  0  0  0
   -6.7210   18.0110  -33.3280 C   0  0  0  0  0  0  0  0  0  0  0  0
   -5.7010   17.0850  -33.5260 C   0  0  0  0  0  0  0  0  0  0  0  0
   -4.3790   17.5100  -33.5900 C   0  0  0  0  0  0  0  0  0  0  0  0
   -4.0710   18.8610  -33.4390 C   0  0  0  0  0  0  0  0  0  0  0  0
   -5.0760   19.8100  -33.1630 C   0  0  0  0  0  0  0  0  0  0  0  0
   -4.6410   21.5730  -33.0250 S   0  0  0  0  0  0  0  0  0  0  0  0
   -3.8390   21.5480  -31.4040 C   0  0  0  0  0  0  0  0  0  0  0  0
   -2.7490   20.6840  -31.2220 C   0  0  0  0  0  0  0  0  0  0  0  0
   -2.1090   20.5970  -29.9830 C   0  0  0  0  0  0  0  0  0  0  0  0
   -2.5370   21.3910  -28.9200 C   0  0  0  0  0  0  0  0  0  0  0  0
   -3.5900   22.2900  -29.1000 C   0  0  0  0  0  0  0  0  0  0  0  0
   -4.2380   22.3900  -30.3440 C   0  0  0  0  0  0  0  0  0  0  0  0
   -5.2290   23.4060  -30.5410 N   0  0  0  0  0  0  0  0  0  0  0  0
   -4.9520   24.8020  -30.5080 C   0  0  0  0  0  0  0  0  0  0  0  0
   -3.8270   25.3020  -30.7760 O   0  0  0  0  0  0  0  0  0  0  0  0
   -6.1220   25.5660  -30.0850 C   0  0  0  0  0  0  0  0  0  0  0  0
   -7.0900   24.7000  -29.8100 C   0  0  0  0  0  0  0  0  0  0  0  0
   -6.5660   23.3590  -30.0510 C   0  0  0  0  0  0  0  0  0  0  0  0
   -7.2030   22.2910  -29.8490 O   0  0  0  0  0  0  0  0  0  0  0  0
   -9.5703   21.7480  -30.6841 H   0  0  0  0  0  0  0  0  0  0  0  0
   -8.9751   22.4210  -32.2395 H   0  0  0  0  0  0  0  0  0  0  0  0
  -10.2026   21.1095  -32.2395 H   0  0  0  0  0  0  0  0  0  0  0  0
   -7.4920   20.8410  -31.1000 H   0  0  0  0  0  0  0  0  0  0  0  0
   -8.7091   19.2490  -30.1234 H   0  0  0  0  0  0  0  0  0  0  0  0
   -9.7466   19.0405  -31.5749 H   0  0  0  0  0  0  0  0  0  0  0  0
   -8.0648   18.4095  -31.5749 H   0  0  0  0  0  0  0  0  0  0  0  0
   -8.3802   19.9926  -33.7874 H   0  0  0  0  0  0  0  0  0  0  0  0
   -7.2061   21.3380  -33.3516 H   0  0  0  0  0  0  0  0  0  0  0  0
   -7.7670   17.6706  -33.3197 H   0  0  0  0  0  0  0  0  0  0  0  0
   -5.9410   16.0167  -33.6319 H   0  0  0  0  0  0  0  0  0  0  0  0
   -3.5748   16.7791  -33.7601 H   0  0  0  0  0  0  0  0  0  0  0  0
   -3.0265   19.1920  -33.5368 H   0  0  0  0  0  0  0  0  0  0  0  0
   -2.3948   20.0692  -32.0626 H   0  0  0  0  0  0  0  0  0  0  0  0
   -1.2674   19.9020  -29.8463 H   0  0  0  0  0  0  0  0  0  0  0  0
   -2.0451   21.3092  -27.9395 H   0  0  0  0  0  0  0  0  0  0  0  0
   -3.9151   22.9247  -28.2625 H   0  0  0  0  0  0  0  0  0  0  0  0
   -6.1893   26.6612  -30.0080 H   0  0  0  0  0  0  0  0  0  0  0  0
   -8.1039   24.9482  -29.4631 H   0  0  0  0  0  0  0  0  0  0  0  0
  1  2  1  0
  2  3  1  0
  2  4  1  0
  4  5  1  0
  5  6  2  0
  6  7  1  0
  7  8  2  0
  8  9  1  0
  9 10  2  0
 10 11  1  0
 11 12  1  0
 12 13  2  0
 13 14  1  0
 14 15  2  0
 15 16  1  0
 16 17  2  0
 17 18  1  0
 18 19  1  0
 19 20  2  0
 19 21  1  0
 21 22  2  0
 22 23  1  0
 23 24  2  0
 10  5  1  0
 17 12  1  0
 23 18  1  0
  1 25  1  0
  1 26  1  0
  1 27  1  0
  2 28  1  0
  3 29  1  0
  3 30  1  0
  3 31  1  0
  4 32  1  0
  4 33  1  0
  6 34  1  0
  7 35  1  0
  8 36  1  0
  9 37  1  0
 13 38  1  0
 14 39  1  0
 15 40  1  0
 16 41  1  0
 21 42  1  0
 22 43  1  0
M  CHG  1   2   1
M  END
>  <UniqueID>  (50) 
49

>  <SMILES>  (50) 
C[NH+](C)Cc1ccccc1Sc1ccccc1N1C(=O)C=CC1=O

>  <Energy>  (50) 
86.7705991916656

>  <Genealogy>  (50) 
C[NH+](C)Cc1ccccc1Sc1ccccc1N1C(=O)C=CC1=O (protonated)
C[NH+](C)Cc1ccccc1Sc1ccccc1N1C(=O)C=CC1=O (3D coordinates assigned)
C[NH+](C)Cc1ccccc1Sc1ccccc1N1C(=O)C=CC1=O (nonaromatic ring conformer: 86.7705991916656 kcal/mol)

>  <smiles>  (50) 
CN(C)Cc1ccccc1Sc1ccccc1N1C(=O)C=CC1=O

>  <score_type>  (50) 
oracle

>  <origin>  (50) 
adgpu

>  <m_score__min__energy>  (50) 
-7.9000000000000004

>  <m_primary>  (50) 
energy

$$$$
