0:0
     RDKit          3D

 30 32  0  0  0  0  0  0  0  0999 V2000
   -5.0190   25.5600  -31.1380 O   0  0  0  0  0  0  0  0  0  0  0  0
   -4.8300   24.3260  -31.1400 N   0  0  0  0  0  0  0  0  0  0  0  0
   -3.5740   23.8480  -30.8440 O   0  0  0  0  0  0  0  0  0  0  0  0
   -5.9040   23.4180  -31.4490 C   0  0  0  0  0  0  0  0  0  0  0  0
   -7.2390   23.7940  -31.2220 C   0  0  0  0  0  0  0  0  0  0  0  0
   -8.2820   22.9160  -31.5200 C   0  0  0  0  0  0  0  0  0  0  0  0
   -8.0090   21.6540  -32.0500 C   0  0  0  0  0  0  0  0  0  0  0  0
   -6.6840   21.2520  -32.2870 C   0  0  0  0  0  0  0  0  0  0  0  0
   -6.4050   19.9100  -32.8490 C   0  0  0  0  0  0  0  0  0  0  0  0
   -6.2070   19.6800  -34.1670 N   0  0  0  0  0  0  0  0  0  0  0  0
   -5.9690   18.3680  -34.4390 C   0  0  0  0  0  0  0  0  0  0  0  0
   -5.9730   17.5180  -33.3290 C   0  0  0  0  0  0  0  0  0  0  0  0
   -5.7450   16.0490  -33.3150 C   0  0  0  0  0  0  0  0  0  0  0  0
   -4.8480   15.4770  -32.3920 C   0  0  0  0  0  0  0  0  0  0  0  0
   -4.6280   14.0970  -32.3730 C   0  0  0  0  0  0  0  0  0  0  0  0
   -5.2990   13.2680  -33.2720 C   0  0  0  0  0  0  0  0  0  0  0  0
   -6.1920   13.8180  -34.1930 C   0  0  0  0  0  0  0  0  0  0  0  0
   -6.4170   15.1970  -34.2170 C   0  0  0  0  0  0  0  0  0  0  0  0
   -6.2890   18.4760  -31.9750 S   0  0  0  0  0  0  0  0  0  0  0  0
   -5.6370   22.1420  -31.9830 C   0  0  0  0  0  0  0  0  0  0  0  0
   -7.4634   24.7875  -30.8065 H   0  0  0  0  0  0  0  0  0  0  0  0
   -9.3232   23.2197  -31.3365 H   0  0  0  0  0  0  0  0  0  0  0  0
   -8.8374   20.9692  -32.2838 H   0  0  0  0  0  0  0  0  0  0  0  0
   -5.7864   18.0021  -35.4602 H   0  0  0  0  0  0  0  0  0  0  0  0
   -4.3151   16.1231  -31.6788 H   0  0  0  0  0  0  0  0  0  0  0  0
   -3.9240   13.6635  -31.6474 H   0  0  0  0  0  0  0  0  0  0  0  0
   -5.1246   12.1820  -33.2551 H   0  0  0  0  0  0  0  0  0  0  0  0
   -6.7203   13.1639  -34.9022 H   0  0  0  0  0  0  0  0  0  0  0  0
   -7.1238   15.6218  -34.9450 H   0  0  0  0  0  0  0  0  0  0  0  0
   -4.5959   21.8371  -32.1649 H   0  0  0  0  0  0  0  0  0  0  0  0
  1  2  2  0
  2  3  1  0
  2  4  1  0
  4  5  2  0
  5  6  1  0
  6  7  2  0
  7  8  1  0
  8  9  1  0
  9 10  2  0
 10 11  1  0
 11 12  2  0
 12 13  1  0
 13 14  2  0
 14 15  1  0
 15 16  2  0
 16 17  1  0
 17 18  2  0
 12 19  1  0
  8 20  2  0
 20  4  1  0
 19  9  1  0
 18 13  1  0
  5 21  1  0
  6 22  1  0
  7 23  1  0
 11 24  1  0
 14 25  1  0
 15 26  1  0
 16 27  1  0
 17 28  1  0
 18 29  1  0
 20 30  1  0
M  CHG  2   2   1   3  -1
M  END
>  <UniqueID>  (1) 
1

>  <SMILES>  (1) 
O=[N+]([O-])c1cccc(-c2ncc(-c3ccccc3)s2)c1

>  <Energy>  (1) 
67.5201731355071

>  <Genealogy>  (1) 
O=[N+]([O-])c1cccc(-c2ncc(-c3ccccc3)s2)c1 (3D coordinates assigned)
O=[N+]([O-])c1cccc(-c2ncc(-c3ccccc3)s2)c1 (optimized conformer: 67.5201731355071 kcal/mol)

>  <smiles>  (1) 
O=[N+]([O-])c1cccc(-c2ncc(-c3ccccc3)s2)c1

>  <score_type>  (1) 
oracle

>  <origin>  (1) 
adgpu

>  <m_score__min__energy>  (1) 
-8.1600000000000001

>  <m_primary>  (1) 
energy

$$$$
1:0
     RDKit          3D

 38 40  0  0  0  0  0  0  0  0999 V2000
   -8.3974   19.3325  -31.2215 H   0  0  0  0  0  0  0  0  0  0  0  0
   -7.6480   19.0460  -31.9740 C   0  0  0  0  0  0  0  0  0  0  0  0
   -7.6000   17.7710  -32.4390 N   0  0  0  0  0  0  0  0  0  0  0  0
   -6.6870   17.3810  -33.3680 C   0  0  0  0  0  0  0  0  0  0  0  0
   -6.6890   15.9560  -33.8370 C   0  0  0  0  0  0  0  0  0  0  0  0
   -6.6899   15.2835  -32.9665 H   0  0  0  0  0  0  0  0  0  0  0  0
   -7.5874   15.7711  -34.4442 H   0  0  0  0  0  0  0  0  0  0  0  0
   -5.7911   15.7686  -34.4442 H   0  0  0  0  0  0  0  0  0  0  0  0
   -5.7770   18.3320  -33.8690 C   0  0  0  0  0  0  0  0  0  0  0  0
   -4.7490   17.9810  -34.9040 C   0  0  0  0  0  0  0  0  0  0  0  0
   -3.8208   17.6641  -34.4061 H   0  0  0  0  0  0  0  0  0  0  0  0
   -5.1265   17.1608  -35.5324 H   0  0  0  0  0  0  0  0  0  0  0  0
   -4.5461   18.8608  -35.5324 H   0  0  0  0  0  0  0  0  0  0  0  0
   -5.8320   19.6070  -33.4000 N   0  0  0  0  0  0  0  0  0  0  0  0
   -6.7360   19.9960  -32.4590 C   0  0  0  0  0  0  0  0  0  0  0  0
   -6.7490   21.4050  -31.9950 C   0  0  0  0  0  0  0  0  0  0  0  0
   -7.9610   22.1180  -31.9520 C   0  0  0  0  0  0  0  0  0  0  0  0
   -8.8939   21.6280  -32.2677 H   0  0  0  0  0  0  0  0  0  0  0  0
   -7.9890   23.4420  -31.5120 C   0  0  0  0  0  0  0  0  0  0  0  0
   -8.9424   23.9899  -31.4842 H   0  0  0  0  0  0  0  0  0  0  0  0
   -6.8120   24.0740  -31.1070 C   0  0  0  0  0  0  0  0  0  0  0  0
   -6.8423   25.1180  -30.7618 H   0  0  0  0  0  0  0  0  0  0  0  0
   -5.5900   23.3840  -31.1380 C   0  0  0  0  0  0  0  0  0  0  0  0
   -4.3400   24.0640  -30.7170 C   0  0  0  0  0  0  0  0  0  0  0  0
   -4.2430   25.3130  -30.8530 O   0  0  0  0  0  0  0  0  0  0  0  0
   -3.2050   23.3420  -30.2120 N   0  0  0  0  0  0  0  0  0  0  0  0
   -2.2580   23.8260  -29.4600 C   0  0  0  0  0  0  0  0  0  0  0  0
   -2.2180   25.1520  -29.1390 N   0  0  0  0  0  0  0  0  0  0  0  0
   -1.2360   25.6760  -28.3590 C   0  0  0  0  0  0  0  0  0  0  0  0
   -1.2392   26.7489  -28.1163 H   0  0  0  0  0  0  0  0  0  0  0  0
   -0.2230   24.8510  -27.8660 C   0  0  0  0  0  0  0  0  0  0  0  0
    1.0480   25.5150  -26.8550 Cl  0  0  0  0  0  0  0  0  0  0  0  0
   -0.2300   23.4920  -28.1900 C   0  0  0  0  0  0  0  0  0  0  0  0
    0.5643   22.8310  -27.8128 H   0  0  0  0  0  0  0  0  0  0  0  0
   -1.2480   22.9750  -28.9940 C   0  0  0  0  0  0  0  0  0  0  0  0
   -1.2566   21.9075  -29.2593 H   0  0  0  0  0  0  0  0  0  0  0  0
   -5.5630   22.0590  -31.6080 C   0  0  0  0  0  0  0  0  0  0  0  0
   -4.6030   21.5261  -31.6743 H   0  0  0  0  0  0  0  0  0  0  0  0
  1  2  1  0
  2  3  2  0
  3  4  1  0
  4  5  1  0
  5  6  1  0
  5  7  1  0
  5  8  1  0
  4  9  2  0
  9 10  1  0
 10 11  1  0
 10 12  1  0
 10 13  1  0
  9 14  1  0
 14 15  2  0
 15 16  1  0
 16 17  2  0
 17 18  1  0
 17 19  1  0
 19 20  1  0
 19 21  2  0
 21 22  1  0
 21 23  1  0
 23 24  1  0
 24 25  2  0
 24 26  1  0
 26 27  2  0
 27 28  1  0
 28 29  1  0
 29 30  1  0
 29 31  2  0
 31 32  1  0
 31 33  1  0
 33 34  1  0
 33 35  2  0
 35 36  1  0
 23 37  2  0
 37 38  1  0
 15  2  1  0
 37 16  1  0
 35 27  1  0
M  CHG  1  28  -1
M  END
>  <UniqueID>  (2) 
2

>  <SMILES>  (2) 
Cc1ncc(-c2cccc(C(=O)/N=c3/ccc(Cl)c[n-]3)c2)nc1C

>  <Energy>  (2) 
52.8349931170504

>  <Genealogy>  (2) 
Cc1ncc(-c2cccc(C(=O)N=c3ccc(Cl)c[n-]3)c2)nc1C (protonated)
Cc1ncc(-c2cccc(C(=O)/N=c3/ccc(Cl)c[n-]3)c2)nc1C (cis-trans isomerization)
Cc1ncc(-c2cccc(C(=O)/N=c3/ccc(Cl)c[n-]3)c2)nc1C (3D coordinates assigned)
Cc1ncc(-c2cccc(C(=O)/N=c3/ccc(Cl)c[n-]3)c2)nc1C (optimized conformer: 52.8349931170504 kcal/mol)

>  <smiles>  (2) 
Cc1ncc(-c2cccc(C(=O)N=c3ccc(Cl)c[nH]3)c2)nc1C

>  <score_type>  (2) 
oracle

>  <origin>  (2) 
adgpu

>  <m_score__min__energy>  (2) 
-10.82

>  <m_primary>  (2) 
energy

$$$$
2:0
     RDKit          3D

 35 37  0  0  0  0  0  0  0  0999 V2000
   -3.4790   25.0930  -30.1220 N   0  0  0  0  0  0  0  0  0  0  0  0
   -4.6830   24.3700  -30.3900 C   0  0  0  0  0  0  0  0  0  0  0  0
   -5.9280   24.9970  -30.2500 C   0  0  0  0  0  0  0  0  0  0  0  0
   -7.1060   24.2890  -30.5120 C   0  0  0  0  0  0  0  0  0  0  0  0
   -7.0470   22.9470  -30.9110 C   0  0  0  0  0  0  0  0  0  0  0  0
   -8.5220   22.0550  -31.2650 S   0  0  0  0  0  0  0  0  0  0  0  0
   -9.3540   22.7910  -32.2790 O   0  0  0  0  0  0  0  0  0  0  0  0
   -9.3220   21.9070  -30.0020 O   0  0  0  0  0  0  0  0  0  0  0  0
   -8.1050   20.4750  -31.8960 C   0  0  0  0  0  0  0  0  0  0  0  0
   -8.6610   19.2690  -31.4850 C   0  0  0  0  0  0  0  0  0  0  0  0
   -8.1730   18.1810  -32.1360 N   0  0  0  0  0  0  0  0  0  0  0  0
   -7.2380   18.5100  -33.0560 C   0  0  0  0  0  0  0  0  0  0  0  0
   -6.6420   17.6210  -33.7940 N   0  0  0  0  0  0  0  0  0  0  0  0
   -5.6210   17.9140  -34.7990 C   0  0  0  0  0  0  0  0  0  0  0  0
   -4.3830   18.4530  -34.1510 C   0  0  0  0  0  0  0  0  0  0  0  0
   -3.2940   17.7080  -33.7460 C   0  0  0  0  0  0  0  0  0  0  0  0
   -2.4090   18.6140  -33.2020 C   0  0  0  0  0  0  0  0  0  0  0  0
   -3.0120   19.8510  -33.3090 C   0  0  0  0  0  0  0  0  0  0  0  0
   -4.1880   19.7220  -33.8790 O   0  0  0  0  0  0  0  0  0  0  0  0
   -6.9730   20.1800  -33.1070 S   0  0  0  0  0  0  0  0  0  0  0  0
   -5.8010   22.3230  -31.0580 C   0  0  0  0  0  0  0  0  0  0  0  0
   -4.6250   23.0300  -30.7960 C   0  0  0  0  0  0  0  0  0  0  0  0
   -3.5120   26.0520  -29.7090 H   0  0  0  0  0  0  0  0  0  0  0  0
   -2.5460   24.6780  -30.3370 H   0  0  0  0  0  0  0  0  0  0  0  0
   -5.9795   26.0491  -29.9331 H   0  0  0  0  0  0  0  0  0  0  0  0
   -8.0809   24.7871  -30.4045 H   0  0  0  0  0  0  0  0  0  0  0  0
   -9.4294   19.2015  -30.7008 H   0  0  0  0  0  0  0  0  0  0  0  0
   -8.4890   17.2040  -31.9450 H   0  0  0  0  0  0  0  0  0  0  0  0
   -5.3721   16.9900  -35.3415 H   0  0  0  0  0  0  0  0  0  0  0  0
   -6.0148   18.6695  -35.4948 H   0  0  0  0  0  0  0  0  0  0  0  0
   -3.1604   16.6200  -33.8380 H   0  0  0  0  0  0  0  0  0  0  0  0
   -1.4214   18.3953  -32.7698 H   0  0  0  0  0  0  0  0  0  0  0  0
   -2.5739   20.8008  -32.9685 H   0  0  0  0  0  0  0  0  0  0  0  0
   -5.7487   21.2727  -31.3808 H   0  0  0  0  0  0  0  0  0  0  0  0
   -3.6501   22.5332  -30.9088 H   0  0  0  0  0  0  0  0  0  0  0  0
  1  2  1  0
  2  3  2  0
  3  4  1  0
  4  5  2  0
  5  6  1  0
  6  7  2  0
  6  8  2  0
  6  9  1  0
  9 10  2  0
 10 11  1  0
 11 12  1  0
 12 13  2  3
 13 14  1  0
 14 15  1  0
 15 16  2  0
 16 17  1  0
 17 18  2  0
 18 19  1  0
 12 20  1  0
  5 21  1  0
 21 22  2  0
 22  2  1  0
 20  9  1  0
 19 15  1  0
  1 23  1  0
  1 24  1  0
  3 25  1  0
  4 26  1  0
 10 27  1  0
 11 28  1  0
 14 29  1  0
 14 30  1  0
 16 31  1  0
 17 32  1  0
 18 33  1  0
 21 34  1  0
 22 35  1  0
M  END
>  <UniqueID>  (3) 
3

>  <SMILES>  (3) 
Nc1ccc(S(=O)(=O)c2c[nH]c(=NCc3ccco3)s2)cc1

>  <Energy>  (3) 
93.12253025134581

>  <Genealogy>  (3) 
Nc1ccc(S(=O)(=O)c2c[nH]c(=NCc3ccco3)s2)cc1 (3D coordinates assigned)
Nc1ccc(S(=O)(=O)c2c[nH]c(=NCc3ccco3)s2)cc1 (optimized conformer: 93.12253025134581 kcal/mol)

>  <smiles>  (3) 
Nc1ccc(S(=O)(=O)c2c[nH]c(=NCc3ccco3)s2)cc1

>  <score_type>  (3) 
oracle

>  <origin>  (3) 
adgpu

>  <m_score__min__energy>  (3) 
-8.3000000000000007

>  <m_primary>  (3) 
energy

$$$$
3:0
     RDKit          3D

 43 45  0  0  0  0  0  0  0  0999 V2000
   -0.3490   25.9640  -36.4620 C   0  0  0  0  0  0  0  0  0  0  0  0
    0.7380   24.8950  -36.4800 C   0  0  0  0  0  0  0  0  0  0  0  0
    0.2140   23.6190  -35.9970 N   0  0  0  0  0  0  0  0  0  0  0  0
    1.0440   22.6420  -35.3460 C   0  0  0  0  0  0  0  0  0  0  0  0
    2.2480   22.9190  -35.0890 O   0  0  0  0  0  0  0  0  0  0  0  0
    0.5090   21.3150  -34.9560 C   0  0  0  0  0  0  0  0  0  0  0  0
    1.3310   20.1770  -34.9120 C   0  0  0  0  0  0  0  0  0  0  0  0
    0.8170   18.9750  -34.5410 N   0  0  0  0  0  0  0  0  0  0  0  0
   -0.4890   18.8250  -34.1990 C   0  0  0  0  0  0  0  0  0  0  0  0
   -1.3570   19.9270  -34.2140 C   0  0  0  0  0  0  0  0  0  0  0  0
   -2.7870   19.7740  -33.8390 C   0  0  0  0  0  0  0  0  0  0  0  0
   -3.4960   18.6070  -34.1620 C   0  0  0  0  0  0  0  0  0  0  0  0
   -4.8390   18.4750  -33.8040 C   0  0  0  0  0  0  0  0  0  0  0  0
   -5.4790   19.5180  -33.1120 C   0  0  0  0  0  0  0  0  0  0  0  0
   -6.8670   19.4230  -32.7210 N   0  0  0  0  0  0  0  0  0  0  0  0
   -7.5500   18.1240  -32.6600 C   0  0  0  0  0  0  0  0  0  0  0  0
   -8.7150   18.1810  -31.6660 C   0  0  0  0  0  0  0  0  0  0  0  0
   -9.5540   19.2860  -31.9350 O   0  0  0  0  0  0  0  0  0  0  0  0
   -8.8420   20.4850  -31.7030 C   0  0  0  0  0  0  0  0  0  0  0  0
   -7.6940   20.6380  -32.7040 C   0  0  0  0  0  0  0  0  0  0  0  0
   -4.7730   20.6430  -32.8160 N   0  0  0  0  0  0  0  0  0  0  0  0
   -3.4650   20.7950  -33.1530 C   0  0  0  0  0  0  0  0  0  0  0  0
   -0.8410   21.1770  -34.5930 C   0  0  0  0  0  0  0  0  0  0  0  0
   -0.6017   26.2125  -35.4207 H   0  0  0  0  0  0  0  0  0  0  0  0
    0.0150   26.8657  -36.9762 H   0  0  0  0  0  0  0  0  0  0  0  0
   -1.2445   25.5850  -36.9762 H   0  0  0  0  0  0  0  0  0  0  0  0
    1.1037   24.7689  -37.5097 H   0  0  0  0  0  0  0  0  0  0  0  0
    1.5588   25.2133  -35.8204 H   0  0  0  0  0  0  0  0  0  0  0  0
   -0.8050   23.4360  -36.1270 H   0  0  0  0  0  0  0  0  0  0  0  0
    2.3950   20.2590  -35.1789 H   0  0  0  0  0  0  0  0  0  0  0  0
   -0.8681   17.8340  -33.9087 H   0  0  0  0  0  0  0  0  0  0  0  0
   -2.9908   17.7915  -34.7003 H   0  0  0  0  0  0  0  0  0  0  0  0
   -5.3930   17.5604  -34.0619 H   0  0  0  0  0  0  0  0  0  0  0  0
   -7.9368   17.8703  -33.6580 H   0  0  0  0  0  0  0  0  0  0  0  0
   -6.8334   17.3586  -32.3274 H   0  0  0  0  0  0  0  0  0  0  0  0
   -9.3027   17.2546  -31.7464 H   0  0  0  0  0  0  0  0  0  0  0  0
   -8.3057   18.2895  -30.6508 H   0  0  0  0  0  0  0  0  0  0  0  0
   -9.5284   21.3381  -31.8083 H   0  0  0  0  0  0  0  0  0  0  0  0
   -8.4220   20.4546  -30.6868 H   0  0  0  0  0  0  0  0  0  0  0  0
   -8.1087   20.8089  -33.7084 H   0  0  0  0  0  0  0  0  0  0  0  0
   -7.0691   21.4921  -32.4041 H   0  0  0  0  0  0  0  0  0  0  0  0
   -2.9352   21.7217  -32.8873 H   0  0  0  0  0  0  0  0  0  0  0  0
   -1.5008   22.0571  -34.6057 H   0  0  0  0  0  0  0  0  0  0  0  0
  1  2  1  0
  2  3  1  0
  3  4  1  0
  4  5  2  0
  4  6  1  0
  6  7  2  0
  7  8  1  0
  8  9  2  0
  9 10  1  0
 10 11  1  0
 11 12  2  0
 12 13  1  0
 13 14  2  0
 14 15  1  0
 15 16  1  0
 16 17  1  0
 17 18  1  0
 18 19  1  0
 19 20  1  0
 14 21  1  0
 21 22  2  0
 10 23  2  0
 23  6  1  0
 22 11  1  0
 20 15  1  0
  1 24  1  0
  1 25  1  0
  1 26  1  0
  2 27  1  0
  2 28  1  0
  3 29  1  0
  7 30  1  0
  9 31  1  0
 12 32  1  0
 13 33  1  0
 16 34  1  0
 16 35  1  0
 17 36  1  0
 17 37  1  0
 19 38  1  0
 19 39  1  0
 20 40  1  0
 20 41  1  0
 22 42  1  0
 23 43  1  0
M  END
>  <UniqueID>  (4) 
4

>  <SMILES>  (4) 
CCNC(=O)c1cncc(-c2ccc(N3CCOCC3)nc2)c1

>  <Energy>  (4) 
52.99590574598763

>  <Genealogy>  (4) 
CCNC(=O)c1cncc(-c2ccc(N3CCOCC3)nc2)c1 (3D coordinates assigned)
CCNC(=O)c1cncc(-c2ccc(N3CCOCC3)nc2)c1 (nonaromatic ring conformer: 52.99590574598763 kcal/mol)

>  <smiles>  (4) 
CCNC(=O)c1cncc(-c2ccc(N3CCOCC3)nc2)c1

>  <score_type>  (4) 
oracle

>  <origin>  (4) 
adgpu

>  <m_score__min__energy>  (4) 
-7.4800000000000004

>  <m_primary>  (4) 
energy

$$$$
4:0
     RDKit          3D

 70 74  0  0  1  0  0  0  0  0999 V2000
   -1.1850   28.2870  -33.6970 C   0  0  0  0  0  0  0  0  0  0  0  0
   -0.2730   27.8880  -34.6720 O   0  0  0  0  0  0  0  0  0  0  0  0
   -0.3710   28.0520  -36.0240 C   0  0  0  0  0  0  0  0  0  0  0  0
   -0.3730   29.2950  -36.5920 C   0  0  0  0  0  0  0  0  0  0  0  0
   -0.4710   29.4680  -37.9410 C   0  0  0  0  0  0  0  0  0  0  0  0
   -0.5700   28.3330  -38.7410 C   0  0  0  0  0  0  0  0  0  0  0  0
   -0.5710   27.0690  -38.1960 C   0  0  0  0  0  0  0  0  0  0  0  0
   -0.4700   26.9040  -36.8120 C   0  0  0  0  0  0  0  0  0  0  0  0
   -0.4700   25.6040  -36.2330 N   0  0  0  0  0  0  0  0  0  0  0  0
    0.6530   24.9660  -36.1040 C   0  0  0  0  0  0  0  0  0  0  0  0
    0.6560   23.7380  -35.5560 N   0  0  0  0  0  0  0  0  0  0  0  0
    1.8380   23.1030  -35.4360 C   0  0  0  0  0  0  0  0  0  0  0  0
    1.9550   21.9230  -34.9260 N   0  0  0  0  0  0  0  0  0  0  0  0
    0.7700   21.2790  -34.4750 C   0  0  0  0  0  0  0  0  0  0  0  0
    0.4300   21.2020  -33.1340 C   0  0  0  0  0  0  0  0  0  0  0  0
   -0.7350   20.5670  -32.7110 C   0  0  0  0  0  0  0  0  0  0  0  0
   -1.5820   19.9970  -33.6260 C   0  0  0  0  0  0  0  0  0  0  0  0
   -2.8190   19.3150  -33.2670 C   0  0  0  0  0  0  0  0  0  0  0  0
   -3.0760   19.0060  -32.0550 O   0  0  0  0  0  0  0  0  0  0  0  0
   -3.7800   18.9690  -34.2320 N   0  0  0  0  0  0  0  0  0  0  0  0
   -4.9680   18.2960  -33.7670 C   0  0  0  0  0  0  0  0  0  0  0  0
   -5.9350   19.0210  -33.0990 C   0  0  0  0  0  0  0  0  0  0  0  0
   -7.1080   18.4220  -32.6240 C   0  0  0  0  0  0  0  0  0  0  0  0
   -8.1210   19.2060  -31.9180 C   0  0  0  0  0  0  0  0  0  0  0  0
   -8.1770   20.5920  -32.2120 N   0  0  0  0  0  0  0  0  0  0  0  0
   -9.4450   21.2240  -32.1530 C   0  0  0  0  0  0  0  0  0  0  0  0
   -9.2170   22.6990  -31.9180 C   0  0  0  0  0  0  0  0  0  0  0  0
   -7.7660   22.8160  -31.5030 C   0  0  0  0  0  0  0  0  0  0  0  0
   -7.1920   21.4270  -31.6280 C   0  0  0  0  0  0  0  0  0  0  0  0
   -7.2220   17.0700  -32.8710 C   0  0  0  0  0  0  0  0  0  0  0  0
   -6.2620   16.3360  -33.5370 C   0  0  0  0  0  0  0  0  0  0  0  0
   -5.1130   16.9440  -33.9970 C   0  0  0  0  0  0  0  0  0  0  0  0
   -4.0900   16.1540  -34.7100 C   0  0  0  0  0  0  0  0  0  0  0  0
   -1.2370   20.0780  -34.9650 C   0  0  0  0  0  0  0  0  0  0  0  0
   -0.0820   20.7070  -35.3980 C   0  0  0  0  0  0  0  0  0  0  0  0
    2.9950   23.6810  -35.8540 N   0  0  0  0  0  0  0  0  0  0  0  0
    3.0370   24.8980  -36.4030 C   0  0  0  0  0  0  0  0  0  0  0  0
    1.8220   25.5630  -36.5310 C   0  0  0  0  0  0  0  0  0  0  0  0
    1.8680   26.7960  -37.0880 F   0  0  0  0  0  0  0  0  0  0  0  0
   -0.7601   28.1011  -32.6995 H   0  0  0  0  0  0  0  0  0  0  0  0
   -1.3974   29.3603  -33.8109 H   0  0  0  0  0  0  0  0  0  0  0  0
   -2.1174   27.7146  -33.8109 H   0  0  0  0  0  0  0  0  0  0  0  0
   -0.2934   30.1799  -35.9434 H   0  0  0  0  0  0  0  0  0  0  0  0
   -0.4718   30.4748  -38.3841 H   0  0  0  0  0  0  0  0  0  0  0  0
   -0.6491   28.4488  -39.8320 H   0  0  0  0  0  0  0  0  0  0  0  0
   -0.6513   26.1883  -38.8502 H   0  0  0  0  0  0  0  0  0  0  0  0
   -0.1950   23.2710  -35.2310 H   0  0  0  0  0  0  0  0  0  0  0  0
    1.0969   21.6537  -32.3848 H   0  0  0  0  0  0  0  0  0  0  0  0
   -0.9765   20.5226  -31.6388 H   0  0  0  0  0  0  0  0  0  0  0  0
   -3.6590   19.1800  -35.2450 H   0  0  0  0  0  0  0  0  0  0  0  0
   -5.7796   20.0977  -32.9357 H   0  0  0  0  0  0  0  0  0  0  0  0
   -9.1036   18.7747  -32.1597 H   0  0  0  0  0  0  0  0  0  0  0  0
   -7.8406   19.1484  -30.8559 H   0  0  0  0  0  0  0  0  0  0  0  0
   -9.9816   21.0750  -33.1016 H   0  0  0  0  0  0  0  0  0  0  0  0
  -10.0500   20.7951  -31.3406 H   0  0  0  0  0  0  0  0  0  0  0  0
   -9.4015   23.2694  -32.8403 H   0  0  0  0  0  0  0  0  0  0  0  0
   -9.8968   23.1030  -31.1534 H   0  0  0  0  0  0  0  0  0  0  0  0
   -7.2324   23.5125  -32.1664 H   0  0  0  0  0  0  0  0  0  0  0  0
   -7.6669   23.2054  -30.4790 H   0  0  0  0  0  0  0  0  0  0  0  0
   -6.2969   21.4500  -32.2669 H   0  0  0  0  0  0  0  0  0  0  0  0
   -6.9069   21.0430  -30.6374 H   0  0  0  0  0  0  0  0  0  0  0  0
   -8.1250   16.5498  -32.5188 H   0  0  0  0  0  0  0  0  0  0  0  0
   -6.4142   15.2592  -33.7020 H   0  0  0  0  0  0  0  0  0  0  0  0
   -3.4394   15.6516  -33.9790 H   0  0  0  0  0  0  0  0  0  0  0  0
   -4.5831   15.4000  -35.3412 H   0  0  0  0  0  0  0  0  0  0  0  0
   -3.4852   16.8217  -35.3412 H   0  0  0  0  0  0  0  0  0  0  0  0
   -1.9056   19.6257  -35.7123 H   0  0  0  0  0  0  0  0  0  0  0  0
    0.1552   20.7506  -36.4712 H   0  0  0  0  0  0  0  0  0  0  0  0
    3.9140   23.1780  -35.7570 H   0  0  0  0  0  0  0  0  0  0  0  0
    3.9826   25.3505  -36.7363 H   0  0  0  0  0  0  0  0  0  0  0  0
  1  2  1  0
  2  3  1  0
  3  4  2  0
  4  5  1  0
  5  6  2  0
  6  7  1  0
  7  8  2  0
  8  9  1  0
  9 10  2  0
 10 11  1  0
 11 12  1  0
 12 13  2  0
 13 14  1  0
 14 15  2  0
 15 16  1  0
 16 17  2  0
 17 18  1  0
 18 19  2  0
 18 20  1  0
 20 21  1  0
 21 22  2  0
 22 23  1  0
 23 24  1  0
 24 25  1  0
 25 26  1  0
 26 27  1  0
 27 28  1  0
 28 29  1  0
 23 30  2  0
 30 31  1  0
 31 32  2  0
 32 33  1  0
 17 34  1  0
 34 35  2  0
 12 36  1  0
 36 37  1  0
 37 38  2  0
 38 39  1  0
  8  3  1  0
 38 10  1  0
 35 14  1  0
 32 21  1  0
 29 25  1  0
  1 40  1  0
  1 41  1  0
  1 42  1  0
  4 43  1  0
  5 44  1  0
  6 45  1  0
  7 46  1  0
 11 47  1  0
 15 48  1  0
 16 49  1  0
 20 50  1  0
 22 51  1  0
 24 52  1  0
 24 53  1  0
 26 54  1  0
 26 55  1  0
 27 56  1  0
 27 57  1  0
 28 58  1  0
 28 59  1  0
 29 60  1  0
 29 61  1  0
 30 62  1  0
 31 63  1  0
 33 64  1  0
 33 65  1  0
 33 66  1  0
 34 67  1  0
 35 68  1  0
 36 69  1  0
 37 70  1  0
M  END
>  <smiles>  (5) 
COc1ccccc1N=c1[nH]c(=Nc2ccc(C(=O)Nc3cc(CN4CCCC4)ccc3C)cc2)[nH]cc1F

>  <score_type>  (5) 
oracle

>  <origin>  (5) 
adgpu

>  <m_score__min__energy>  (5) 
-11.130000000000001

>  <m_primary>  (5) 
energy

$$$$
5:0
     RDKit          3D

 46 48  0  0  0  0  0  0  0  0999 V2000
   -4.9120   13.9540  -32.3610 C   0  0  0  0  0  0  0  0  0  0  0  0
   -5.5030   14.8460  -33.7820 S   0  0  0  0  0  0  0  0  0  0  0  0
   -6.8530   14.3190  -34.1820 O   0  0  0  0  0  0  0  0  0  0  0  0
   -4.5510   14.6510  -34.9280 O   0  0  0  0  0  0  0  0  0  0  0  0
   -5.6240   16.5570  -33.3890 C   0  0  0  0  0  0  0  0  0  0  0  0
   -4.4690   17.3460  -33.3220 C   0  0  0  0  0  0  0  0  0  0  0  0
   -4.5640   18.7090  -33.0240 C   0  0  0  0  0  0  0  0  0  0  0  0
   -5.8170   19.3000  -32.7900 C   0  0  0  0  0  0  0  0  0  0  0  0
   -5.9160   20.7080  -32.4980 N   0  0  0  0  0  0  0  0  0  0  0  0
   -6.9210   21.2080  -31.5540 C   0  0  0  0  0  0  0  0  0  0  0  0
   -6.2340   22.0370  -30.4660 C   0  0  0  0  0  0  0  0  0  0  0  0
   -5.2630   22.9870  -31.0370 N   0  0  0  0  0  0  0  0  0  0  0  0
   -4.5430   23.8980  -30.1740 C   0  0  0  0  0  0  0  0  0  0  0  0
   -3.8620   24.8320  -30.6820 O   0  0  0  0  0  0  0  0  0  0  0  0
   -4.6130   23.7750  -28.7410 N   0  0  0  0  0  0  0  0  0  0  0  0
   -3.6710   24.3870  -27.8430 C   0  0  0  0  0  0  0  0  0  0  0  0
   -2.3010   24.4640  -28.1540 C   0  0  0  0  0  0  0  0  0  0  0  0
   -1.4030   25.0430  -27.2520 C   0  0  0  0  0  0  0  0  0  0  0  0
   -1.8610   25.5380  -26.0280 C   0  0  0  0  0  0  0  0  0  0  0  0
   -3.2160   25.4470  -25.7010 C   0  0  0  0  0  0  0  0  0  0  0  0
   -4.1170   24.8680  -26.6010 C   0  0  0  0  0  0  0  0  0  0  0  0
   -5.0870   23.0540  -32.4990 C   0  0  0  0  0  0  0  0  0  0  0  0
   -4.9450   21.6430  -33.0860 C   0  0  0  0  0  0  0  0  0  0  0  0
   -6.9730   18.5080  -32.8730 C   0  0  0  0  0  0  0  0  0  0  0  0
   -6.8760   17.1450  -33.1700 C   0  0  0  0  0  0  0  0  0  0  0  0
   -5.2478   14.4608  -31.4442 H   0  0  0  0  0  0  0  0  0  0  0  0
   -5.3101   12.9287  -32.3800 H   0  0  0  0  0  0  0  0  0  0  0  0
   -3.8127   13.9209  -32.3800 H   0  0  0  0  0  0  0  0  0  0  0  0
   -3.4837   16.8921  -33.5044 H   0  0  0  0  0  0  0  0  0  0  0  0
   -3.6522   19.3222  -32.9725 H   0  0  0  0  0  0  0  0  0  0  0  0
   -7.6466   21.8370  -32.0905 H   0  0  0  0  0  0  0  0  0  0  0  0
   -7.4432   20.3577  -31.0911 H   0  0  0  0  0  0  0  0  0  0  0  0
   -6.9986   22.5995  -29.9101 H   0  0  0  0  0  0  0  0  0  0  0  0
   -5.6908   21.3487  -29.8018 H   0  0  0  0  0  0  0  0  0  0  0  0
   -5.4340   23.2930  -28.3140 H   0  0  0  0  0  0  0  0  0  0  0  0
   -1.9343   24.0666  -29.1119 H   0  0  0  0  0  0  0  0  0  0  0  0
   -0.3348   25.1089  -27.5062 H   0  0  0  0  0  0  0  0  0  0  0  0
   -1.1546   25.9992  -25.3222 H   0  0  0  0  0  0  0  0  0  0  0  0
   -3.5750   25.8310  -24.7347 H   0  0  0  0  0  0  0  0  0  0  0  0
   -5.1813   24.7889  -26.3344 H   0  0  0  0  0  0  0  0  0  0  0  0
   -5.9624   23.5466  -32.9473 H   0  0  0  0  0  0  0  0  0  0  0  0
   -4.1751   23.6270  -32.7227 H   0  0  0  0  0  0  0  0  0  0  0  0
   -5.1095   21.6909  -34.1726 H   0  0  0  0  0  0  0  0  0  0  0  0
   -3.9338   21.2764  -32.8557 H   0  0  0  0  0  0  0  0  0  0  0  0
   -7.9605   18.9620  -32.7035 H   0  0  0  0  0  0  0  0  0  0  0  0
   -7.7872   16.5319  -33.2319 H   0  0  0  0  0  0  0  0  0  0  0  0
  1  2  1  0
  2  3  2  0
  2  4  2  0
  2  5  1  0
  5  6  2  0
  6  7  1  0
  7  8  2  0
  8  9  1  0
  9 10  1  0
 10 11  1  0
 11 12  1  0
 12 13  1  0
 13 14  2  0
 13 15  1  0
 15 16  1  0
 16 17  2  0
 17 18  1  0
 18 19  2  0
 19 20  1  0
 20 21  2  0
 12 22  1  0
 22 23  1  0
  8 24  1  0
 24 25  2  0
 25  5  1  0
 23  9  1  0
 21 16  1  0
  1 26  1  0
  1 27  1  0
  1 28  1  0
  6 29  1  0
  7 30  1  0
 10 31  1  0
 10 32  1  0
 11 33  1  0
 11 34  1  0
 15 35  1  0
 17 36  1  0
 18 37  1  0
 19 38  1  0
 20 39  1  0
 21 40  1  0
 22 41  1  0
 22 42  1  0
 23 43  1  0
 23 44  1  0
 24 45  1  0
 25 46  1  0
M  END
>  <UniqueID>  (6) 
5

>  <SMILES>  (6) 
CS(=O)(=O)c1ccc(N2CCN(C(=O)Nc3ccccc3)CC2)cc1

>  <Energy>  (6) 
53.549274825197024

>  <Genealogy>  (6) 
CS(=O)(=O)c1ccc(N2CCN(C(=O)Nc3ccccc3)CC2)cc1 (3D coordinates assigned)
CS(=O)(=O)c1ccc(N2CCN(C(=O)Nc3ccccc3)CC2)cc1 (nonaromatic ring conformer: 53.549274825197024 kcal/mol)

>  <smiles>  (6) 
CS(=O)(=O)c1ccc(N2CCN(C(=O)Nc3ccccc3)CC2)cc1

>  <score_type>  (6) 
oracle

>  <origin>  (6) 
adgpu

>  <m_score__min__energy>  (6) 
-8.0399999999999991

>  <m_primary>  (6) 
energy

$$$$
6:0
     RDKit          3D

 49 50  0  0  0  0  0  0  0  0999 V2000
   -0.6570   27.0250  -23.9810 C   0  0  0  0  0  0  0  0  0  0  0  0
   -0.9900   26.5550  -25.3670 C   0  0  0  0  0  0  0  0  0  0  0  0
   -0.3000   27.0850  -26.4670 C   0  0  0  0  0  0  0  0  0  0  0  0
   -0.6080   26.6680  -27.7680 C   0  0  0  0  0  0  0  0  0  0  0  0
   -1.6190   25.7100  -27.9840 C   0  0  0  0  0  0  0  0  0  0  0  0
   -1.9980   25.2430  -29.2900 N   0  0  0  0  0  0  0  0  0  0  0  0
   -2.3060   23.9140  -29.7400 C   0  0  0  0  0  0  0  0  0  0  0  0
   -1.6190   22.9220  -29.3850 O   0  0  0  0  0  0  0  0  0  0  0  0
   -3.4800   23.7080  -30.6490 C   0  0  0  0  0  0  0  0  0  0  0  0
   -4.5740   24.6550  -30.3430 N   0  0  0  0  0  0  0  0  0  0  0  0
   -4.9560   24.5630  -28.9250 C   0  0  0  0  0  0  0  0  0  0  0  0
   -5.7500   24.5270  -31.2390 C   0  0  0  0  0  0  0  0  0  0  0  0
   -6.4130   23.1730  -31.1880 C   0  0  0  0  0  0  0  0  0  0  0  0
   -6.7070   22.6700  -30.0710 O   0  0  0  0  0  0  0  0  0  0  0  0
   -6.6890   22.4540  -32.3990 N   0  0  0  0  0  0  0  0  0  0  0  0
   -7.2230   21.1210  -32.3910 C   0  0  0  0  0  0  0  0  0  0  0  0
   -8.5650   20.9090  -31.9980 C   0  0  0  0  0  0  0  0  0  0  0  0
   -9.4380   22.0680  -31.5970 C   0  0  0  0  0  0  0  0  0  0  0  0
   -9.0820   19.6050  -31.9700 C   0  0  0  0  0  0  0  0  0  0  0  0
   -8.2860   18.5230  -32.3380 C   0  0  0  0  0  0  0  0  0  0  0  0
   -6.9610   18.7240  -32.7270 C   0  0  0  0  0  0  0  0  0  0  0  0
   -6.4090   20.0150  -32.7340 C   0  0  0  0  0  0  0  0  0  0  0  0
   -4.9610   20.1870  -33.1100 C   0  0  0  0  0  0  0  0  0  0  0  0
   -2.3180   25.1990  -26.8790 C   0  0  0  0  0  0  0  0  0  0  0  0
   -2.0100   25.6180  -25.5810 C   0  0  0  0  0  0  0  0  0  0  0  0
   -1.1293   26.3584  -23.2444 H   0  0  0  0  0  0  0  0  0  0  0  0
    0.4340   27.0113  -23.8414 H   0  0  0  0  0  0  0  0  0  0  0  0
   -1.0317   28.0498  -23.8414 H   0  0  0  0  0  0  0  0  0  0  0  0
    0.4893   27.8341  -26.3066 H   0  0  0  0  0  0  0  0  0  0  0  0
   -0.0595   27.0892  -28.6234 H   0  0  0  0  0  0  0  0  0  0  0  0
   -3.1572   23.8587  -31.6897 H   0  0  0  0  0  0  0  0  0  0  0  0
   -3.8567   22.6852  -30.5005 H   0  0  0  0  0  0  0  0  0  0  0  0
   -4.0795   24.7741  -28.2947 H   0  0  0  0  0  0  0  0  0  0  0  0
   -5.7473   25.2962  -28.7101 H   0  0  0  0  0  0  0  0  0  0  0  0
   -5.3267   23.5499  -28.7101 H   0  0  0  0  0  0  0  0  0  0  0  0
   -6.4909   25.2865  -30.9487 H   0  0  0  0  0  0  0  0  0  0  0  0
   -5.3844   24.6649  -32.2673 H   0  0  0  0  0  0  0  0  0  0  0  0
   -6.3040   22.8260  -33.2970 H   0  0  0  0  0  0  0  0  0  0  0  0
   -9.4844   22.1296  -30.4997 H   0  0  0  0  0  0  0  0  0  0  0  0
   -9.0163   23.0010  -31.9991 H   0  0  0  0  0  0  0  0  0  0  0  0
  -10.4511   21.9203  -31.9991 H   0  0  0  0  0  0  0  0  0  0  0  0
  -10.1225   19.4362  -31.6555 H   0  0  0  0  0  0  0  0  0  0  0  0
   -8.7036   17.5055  -32.3219 H   0  0  0  0  0  0  0  0  0  0  0  0
   -6.3446   17.8649  -33.0303 H   0  0  0  0  0  0  0  0  0  0  0  0
   -4.3513   20.2594  -32.1973 H   0  0  0  0  0  0  0  0  0  0  0  0
   -4.6311   19.3217  -33.7037 H   0  0  0  0  0  0  0  0  0  0  0  0
   -4.8429   21.1055  -33.7037 H   0  0  0  0  0  0  0  0  0  0  0  0
   -3.1176   24.4601  -27.0361 H   0  0  0  0  0  0  0  0  0  0  0  0
   -2.5696   25.2112  -24.7258 H   0  0  0  0  0  0  0  0  0  0  0  0
  1  2  1  0
  2  3  2  0
  3  4  1  0
  4  5  2  0
  5  6  1  0
  6  7  1  0
  7  8  2  0
  7  9  1  0
  9 10  1  0
 10 11  1  0
 10 12  1  0
 12 13  1  0
 13 14  2  0
 13 15  1  0
 15 16  1  0
 16 17  2  0
 17 18  1  0
 17 19  1  0
 19 20  2  0
 20 21  1  0
 21 22  2  0
 22 23  1  0
  5 24  1  0
 24 25  2  0
 25  2  1  0
 22 16  1  0
  1 26  1  0
  1 27  1  0
  1 28  1  0
  3 29  1  0
  4 30  1  0
  9 31  1  0
  9 32  1  0
 11 33  1  0
 11 34  1  0
 11 35  1  0
 12 36  1  0
 12 37  1  0
 15 38  1  0
 18 39  1  0
 18 40  1  0
 18 41  1  0
 19 42  1  0
 20 43  1  0
 21 44  1  0
 23 45  1  0
 23 46  1  0
 23 47  1  0
 24 48  1  0
 25 49  1  0
M  CHG  1   6  -1
M  END
>  <UniqueID>  (7) 
6

>  <SMILES>  (7) 
Cc1ccc([N-]C(=O)CN(C)CC(=O)Nc2c(C)cccc2C)cc1

>  <Energy>  (7) 
58.79747308189324

>  <Genealogy>  (7) 
Cc1ccc([N-]C(=O)CN(C)CC(=O)Nc2c(C)cccc2C)cc1 (protonated)
Cc1ccc([N-]C(=O)CN(C)CC(=O)Nc2c(C)cccc2C)cc1 (3D coordinates assigned)
Cc1ccc([N-]C(=O)CN(C)CC(=O)Nc2c(C)cccc2C)cc1 (optimized conformer: 58.79747308189324 kcal/mol)

>  <smiles>  (7) 
Cc1ccc(NC(=O)CN(C)CC(=O)Nc2c(C)cccc2C)cc1

>  <score_type>  (7) 
oracle

>  <origin>  (7) 
adgpu

>  <m_score__min__energy>  (7) 
-10.82

>  <m_primary>  (7) 
energy

$$$$
7:0
     RDKit          3D

 24 25  0  0  0  0  0  0  0  0999 V2000
   -5.6200   26.3700  -30.4630 O   0  0  0  0  0  0  0  0  0  0  0  0
   -4.9760   25.3030  -30.6350 C   0  0  0  0  0  0  0  0  0  0  0  0
   -3.5700   25.2940  -30.3520 N   0  0  0  0  0  0  0  0  0  0  0  0
   -2.9180   24.5430  -29.3180 C   0  0  0  0  0  0  0  0  0  0  0  0
   -3.4800   23.3240  -28.9150 C   0  0  0  0  0  0  0  0  0  0  0  0
   -2.8770   22.5640  -27.9090 C   0  0  0  0  0  0  0  0  0  0  0  0
   -1.7150   23.0250  -27.2860 C   0  0  0  0  0  0  0  0  0  0  0  0
   -1.1610   24.2520  -27.6600 C   0  0  0  0  0  0  0  0  0  0  0  0
   -1.7600   25.0180  -28.6670 C   0  0  0  0  0  0  0  0  0  0  0  0
   -1.2360   26.2310  -28.9680 F   0  0  0  0  0  0  0  0  0  0  0  0
   -5.7010   24.0930  -31.0800 C   0  0  0  0  0  0  0  0  0  0  0  0
   -7.0370   23.8560  -30.7090 C   0  0  0  0  0  0  0  0  0  0  0  0
   -7.6810   22.7030  -31.1620 C   0  0  0  0  0  0  0  0  0  0  0  0
   -7.0010   21.8050  -31.9860 C   0  0  0  0  0  0  0  0  0  0  0  0
   -5.6830   22.0790  -32.3510 C   0  0  0  0  0  0  0  0  0  0  0  0
   -5.0700   23.2050  -31.8990 N   0  0  0  0  0  0  0  0  0  0  0  0
   -4.4021   22.9629  -29.3938 H   0  0  0  0  0  0  0  0  0  0  0  0
   -3.3178   21.6023  -27.6077 H   0  0  0  0  0  0  0  0  0  0  0  0
   -1.2359   22.4219  -26.5007 H   0  0  0  0  0  0  0  0  0  0  0  0
   -0.2511   24.6173  -27.1614 H   0  0  0  0  0  0  0  0  0  0  0  0
   -7.5699   24.5731  -30.0673 H   0  0  0  0  0  0  0  0  0  0  0  0
   -8.7225   22.5027  -30.8700 H   0  0  0  0  0  0  0  0  0  0  0  0
   -7.4988   20.8916  -32.3435 H   0  0  0  0  0  0  0  0  0  0  0  0
   -5.1386   21.3827  -33.0058 H   0  0  0  0  0  0  0  0  0  0  0  0
  1  2  2  0
  2  3  1  0
  3  4  1  0
  4  5  2  0
  5  6  1  0
  6  7  2  0
  7  8  1  0
  8  9  2  0
  9 10  1  0
  2 11  1  0
 11 12  2  0
 12 13  1  0
 13 14  2  0
 14 15  1  0
 15 16  2  0
  9  4  1  0
 16 11  1  0
  5 17  1  0
  6 18  1  0
  7 19  1  0
  8 20  1  0
 12 21  1  0
 13 22  1  0
 14 23  1  0
 15 24  1  0
M  CHG  1   3  -1
M  END
>  <UniqueID>  (8) 
7

>  <SMILES>  (8) 
O=C([N-]c1ccccc1F)c1ccccn1

>  <Energy>  (8) 
33.18893549777746

>  <Genealogy>  (8) 
O=C([N-]c1ccccc1F)c1ccccn1 (protonated)
O=C([N-]c1ccccc1F)c1ccccn1 (3D coordinates assigned)
O=C([N-]c1ccccc1F)c1ccccn1 (optimized conformer: 33.18893549777746 kcal/mol)

>  <smiles>  (8) 
O=C(Nc1ccccc1F)c1ccccn1

>  <score_type>  (8) 
oracle

>  <origin>  (8) 
adgpu

>  <m_score__min__energy>  (8) 
-8.0899999999999999

>  <m_primary>  (8) 
energy

$$$$
8:0
     RDKit          3D

 42 45  0  0  0  0  0  0  0  0999 V2000
    0.5830   20.3870  -27.4680 N   0  0  0  0  0  0  0  0  0  0  0  0
    0.1230   20.1310  -28.4940 C   0  0  0  0  0  0  0  0  0  0  0  0
   -0.4240   19.8070  -29.7750 C   0  0  0  0  0  0  0  0  0  0  0  0
   -1.1000   20.7230  -30.5550 C   0  0  0  0  0  0  0  0  0  0  0  0
   -1.2760   22.0900  -30.0710 C   0  0  0  0  0  0  0  0  0  0  0  0
   -0.2320   22.6870  -29.3940 C   0  0  0  0  0  0  0  0  0  0  0  0
   -0.3910   23.9860  -28.9310 C   0  0  0  0  0  0  0  0  0  0  0  0
    0.6640   24.6060  -28.2410 O   0  0  0  0  0  0  0  0  0  0  0  0
   -1.5350   24.7100  -29.1130 C   0  0  0  0  0  0  0  0  0  0  0  0
   -1.6930   26.0150  -28.6470 O   0  0  0  0  0  0  0  0  0  0  0  0
   -2.5800   24.1150  -29.7900 C   0  0  0  0  0  0  0  0  0  0  0  0
   -3.7700   24.8330  -29.9930 O   0  0  0  0  0  0  0  0  0  0  0  0
   -2.4370   22.8110  -30.2610 C   0  0  0  0  0  0  0  0  0  0  0  0
   -1.6000   20.3850  -31.7510 N   0  0  0  0  0  0  0  0  0  0  0  0
   -1.4740   19.1380  -32.2590 C   0  0  0  0  0  0  0  0  0  0  0  0
   -2.1880   18.8490  -33.8490 S   0  0  0  0  0  0  0  0  0  0  0  0
   -3.9390   18.6360  -33.8440 C   0  0  0  0  0  0  0  0  0  0  0  0
   -4.6040   17.4630  -34.4490 N   0  0  0  0  0  0  0  0  0  0  0  0
   -6.3130   17.7410  -34.1750 S   0  0  0  0  0  0  0  0  0  0  0  0
   -5.9830   19.3770  -33.2890 C   0  0  0  0  0  0  0  0  0  0  0  0
   -7.1150   20.1400  -32.7850 C   0  0  0  0  0  0  0  0  0  0  0  0
   -8.3760   19.5860  -32.7130 C   0  0  0  0  0  0  0  0  0  0  0  0
   -9.3800   20.3930  -32.2200 C   0  0  0  0  0  0  0  0  0  0  0  0
   -9.1750   21.6950  -31.8110 C   0  0  0  0  0  0  0  0  0  0  0  0
   -7.9060   22.2230  -31.8940 C   0  0  0  0  0  0  0  0  0  0  0  0
   -6.9000   21.4180  -32.3860 C   0  0  0  0  0  0  0  0  0  0  0  0
   -4.8270   19.4180  -33.3480 N   0  0  0  0  0  0  0  0  0  0  0  0
   -0.8230   18.2480  -31.5120 N   0  0  0  0  0  0  0  0  0  0  0  0
   -0.2950   18.5350  -30.2920 C   0  0  0  0  0  0  0  0  0  0  0  0
    0.3310   17.6060  -29.6180 N   0  0  0  0  0  0  0  0  0  0  0  0
    0.7091   22.1433  -29.2244 H   0  0  0  0  0  0  0  0  0  0  0  0
    0.6540   25.6310  -28.1800 H   0  0  0  0  0  0  0  0  0  0  0  0
   -2.5460   26.4840  -28.9680 H   0  0  0  0  0  0  0  0  0  0  0  0
   -4.2660   25.2920  -29.2360 H   0  0  0  0  0  0  0  0  0  0  0  0
   -3.2741   22.3431  -30.7999 H   0  0  0  0  0  0  0  0  0  0  0  0
   -8.5713   18.5518  -33.0329 H   0  0  0  0  0  0  0  0  0  0  0  0
  -10.3961   19.9776  -32.1492 H   0  0  0  0  0  0  0  0  0  0  0  0
  -10.0095   22.2995  -31.4260 H   0  0  0  0  0  0  0  0  0  0  0  0
   -7.7007   23.2562  -31.5773 H   0  0  0  0  0  0  0  0  0  0  0  0
   -5.8823   21.8292  -32.4576 H   0  0  0  0  0  0  0  0  0  0  0  0
   -0.6910   17.2820  -31.8380 H   0  0  0  0  0  0  0  0  0  0  0  0
    0.4170   16.6520  -30.0290 H   0  0  0  0  0  0  0  0  0  0  0  0
  1  2  3  0
  2  3  1  0
  3  4  2  0
  4  5  1  0
  5  6  2  0
  6  7  1  0
  7  8  1  0
  7  9  2  0
  9 10  1  0
  9 11  1  0
 11 12  1  0
 11 13  2  0
  4 14  1  0
 14 15  2  0
 15 16  1  0
 16 17  1  0
 17 18  2  0
 18 19  1  0
 19 20  1  0
 20 21  1  0
 21 22  2  0
 22 23  1  0
 23 24  2  0
 24 25  1  0
 25 26  2  0
 20 27  2  0
 15 28  1  0
 28 29  1  0
 29 30  2  3
 29  3  1  0
 13  5  1  0
 27 17  1  0
 26 21  1  0
  6 31  1  0
  8 32  1  0
 10 33  1  0
 12 34  1  0
 13 35  1  0
 22 36  1  0
 23 37  1  0
 24 38  1  0
 25 39  1  0
 26 40  1  0
 28 41  1  0
 30 42  1  0
M  END
>  <smiles>  (9) 
N#Cc1c(-c2cc(O)c(O)c(O)c2)nc(Sc2nsc(-c3ccccc3)n2)[nH]c1=N

>  <score_type>  (9) 
oracle

>  <origin>  (9) 
adgpu

>  <m_score__min__energy>  (9) 
-9.3300000000000001

>  <m_primary>  (9) 
energy

$$$$
9:0
     RDKit          3D

 30 31  0  0  0  0  0  0  0  0999 V2000
   -4.8920   23.8850  -28.7930 C   0  0  0  0  0  0  0  0  0  0  0  0
   -5.0990   24.5550  -30.4300 S   0  0  0  0  0  0  0  0  0  0  0  0
   -3.8620   25.3120  -30.8240 O   0  0  0  0  0  0  0  0  0  0  0  0
   -6.2630   25.5060  -30.4300 O   0  0  0  0  0  0  0  0  0  0  0  0
   -5.3870   23.2740  -31.5750 N   0  0  0  0  0  0  0  0  0  0  0  0
   -6.6370   23.2670  -32.3410 C   0  0  0  0  0  0  0  0  0  0  0  0
   -7.4050   22.0100  -32.0740 C   0  0  0  0  0  0  0  0  0  0  0  0
   -8.5310   21.8940  -31.2700 C   0  0  0  0  0  0  0  0  0  0  0  0
   -9.0460   20.5940  -31.2260 C   0  0  0  0  0  0  0  0  0  0  0  0
   -8.3360   19.6860  -32.0020 C   0  0  0  0  0  0  0  0  0  0  0  0
   -7.0650   20.5040  -32.7420 S   0  0  0  0  0  0  0  0  0  0  0  0
   -4.3570   22.3060  -31.8460 C   0  0  0  0  0  0  0  0  0  0  0  0
   -3.6150   21.7430  -30.7930 C   0  0  0  0  0  0  0  0  0  0  0  0
   -2.6090   20.8090  -31.0610 C   0  0  0  0  0  0  0  0  0  0  0  0
   -2.3400   20.4270  -32.3770 C   0  0  0  0  0  0  0  0  0  0  0  0
   -3.0760   20.9780  -33.4290 C   0  0  0  0  0  0  0  0  0  0  0  0
   -4.0800   21.9140  -33.1660 C   0  0  0  0  0  0  0  0  0  0  0  0
   -5.1308   24.6579  -28.0476 H   0  0  0  0  0  0  0  0  0  0  0  0
   -5.5668   23.0265  -28.6601 H   0  0  0  0  0  0  0  0  0  0  0  0
   -3.8506   23.5568  -28.6601 H   0  0  0  0  0  0  0  0  0  0  0  0
   -7.2471   24.1339  -32.0473 H   0  0  0  0  0  0  0  0  0  0  0  0
   -6.3987   23.3188  -33.4136 H   0  0  0  0  0  0  0  0  0  0  0  0
   -8.9736   22.7393  -30.7227 H   0  0  0  0  0  0  0  0  0  0  0  0
   -9.9299   20.3167  -30.6329 H   0  0  0  0  0  0  0  0  0  0  0  0
   -8.5654   18.6160  -32.1135 H   0  0  0  0  0  0  0  0  0  0  0  0
   -3.8264   22.0381  -29.7546 H   0  0  0  0  0  0  0  0  0  0  0  0
   -2.0287   20.3746  -30.2337 H   0  0  0  0  0  0  0  0  0  0  0  0
   -1.5485   19.6921  -32.5854 H   0  0  0  0  0  0  0  0  0  0  0  0
   -2.8651   20.6749  -34.4652 H   0  0  0  0  0  0  0  0  0  0  0  0
   -4.6564   22.3460  -33.9973 H   0  0  0  0  0  0  0  0  0  0  0  0
  1  2  1  0
  2  3  2  0
  2  4  2  0
  2  5  1  0
  5  6  1  0
  6  7  1  0
  7  8  2  0
  8  9  1  0
  9 10  2  0
 10 11  1  0
  5 12  1  0
 12 13  2  0
 13 14  1  0
 14 15  2  0
 15 16  1  0
 16 17  2  0
 11  7  1  0
 17 12  1  0
  1 18  1  0
  1 19  1  0
  1 20  1  0
  6 21  1  0
  6 22  1  0
  8 23  1  0
  9 24  1  0
 10 25  1  0
 13 26  1  0
 14 27  1  0
 15 28  1  0
 16 29  1  0
 17 30  1  0
M  END
>  <UniqueID>  (10) 
8

>  <SMILES>  (10) 
CS(=O)(=O)N(Cc1cccs1)c1ccccc1

>  <Energy>  (10) 
55.04610764028023

>  <Genealogy>  (10) 
CS(=O)(=O)N(Cc1cccs1)c1ccccc1 (3D coordinates assigned)
CS(=O)(=O)N(Cc1cccs1)c1ccccc1 (optimized conformer: 55.04610764028023 kcal/mol)

>  <smiles>  (10) 
CS(=O)(=O)N(Cc1cccs1)c1ccccc1

>  <score_type>  (10) 
oracle

>  <origin>  (10) 
adgpu

>  <m_score__min__energy>  (10) 
-7.1399999999999997

>  <m_primary>  (10) 
energy

$$$$
10:0
     RDKit          3D

 35 37  0  0  0  0  0  0  0  0999 V2000
   -3.1130   25.2920  -30.1010 O   0  0  0  0  0  0  0  0  0  0  0  0
   -3.0810   24.0390  -29.4940 C   0  0  0  0  0  0  0  0  0  0  0  0
   -3.6080   22.9200  -30.1690 C   0  0  0  0  0  0  0  0  0  0  0  0
   -4.2210   23.0560  -31.5400 C   0  0  0  0  0  0  0  0  0  0  0  0
   -5.6340   22.5370  -31.5370 C   0  0  0  0  0  0  0  0  0  0  0  0
   -5.9910   21.4240  -32.3150 C   0  0  0  0  0  0  0  0  0  0  0  0
   -7.3120   20.9750  -32.3260 C   0  0  0  0  0  0  0  0  0  0  0  0
   -8.2700   21.6470  -31.5630 C   0  0  0  0  0  0  0  0  0  0  0  0
   -7.9120   22.7280  -30.8210 N   0  0  0  0  0  0  0  0  0  0  0  0
   -6.6310   23.1850  -30.7930 C   0  0  0  0  0  0  0  0  0  0  0  0
   -3.6160   21.6700  -29.5290 C   0  0  0  0  0  0  0  0  0  0  0  0
   -3.0930   21.5280  -28.2400 C   0  0  0  0  0  0  0  0  0  0  0  0
   -3.0980   20.2880  -27.6040 O   0  0  0  0  0  0  0  0  0  0  0  0
   -2.5590   22.6360  -27.5800 C   0  0  0  0  0  0  0  0  0  0  0  0
   -2.5400   23.8970  -28.1990 C   0  0  0  0  0  0  0  0  0  0  0  0
   -1.9620   25.0570  -27.4770 C   0  0  0  0  0  0  0  0  0  0  0  0
   -2.3520   25.3360  -26.1550 C   0  0  0  0  0  0  0  0  0  0  0  0
   -1.8010   26.4230  -25.4700 C   0  0  0  0  0  0  0  0  0  0  0  0
   -0.8540   27.2380  -26.0940 C   0  0  0  0  0  0  0  0  0  0  0  0
   -0.3210   28.2930  -25.4280 F   0  0  0  0  0  0  0  0  0  0  0  0
   -0.4530   26.9650  -27.4050 C   0  0  0  0  0  0  0  0  0  0  0  0
   -1.0020   25.8790  -28.0940 C   0  0  0  0  0  0  0  0  0  0  0  0
   -4.2251   24.1166  -31.8316 H   0  0  0  0  0  0  0  0  0  0  0  0
   -3.6270   22.4693  -32.2562 H   0  0  0  0  0  0  0  0  0  0  0  0
   -5.2291   20.9059  -32.9159 H   0  0  0  0  0  0  0  0  0  0  0  0
   -7.5963   20.1004  -32.9296 H   0  0  0  0  0  0  0  0  0  0  0  0
   -9.3142   21.3012  -31.5627 H   0  0  0  0  0  0  0  0  0  0  0  0
   -6.3762   24.0655  -30.1849 H   0  0  0  0  0  0  0  0  0  0  0  0
   -4.0372   20.7952  -30.0461 H   0  0  0  0  0  0  0  0  0  0  0  0
   -3.7790   20.0640  -26.8870 H   0  0  0  0  0  0  0  0  0  0  0  0
   -2.1492   22.5207  -26.5657 H   0  0  0  0  0  0  0  0  0  0  0  0
   -3.0948   24.6954  -25.6571 H   0  0  0  0  0  0  0  0  0  0  0  0
   -2.1140   26.6368  -24.4374 H   0  0  0  0  0  0  0  0  0  0  0  0
    0.2953   27.6052  -27.8952 H   0  0  0  0  0  0  0  0  0  0  0  0
   -0.6812   25.6664  -29.1245 H   0  0  0  0  0  0  0  0  0  0  0  0
  1  2  1  0
  2  3  2  0
  3  4  1  0
  4  5  1  0
  5  6  2  0
  6  7  1  0
  7  8  2  0
  8  9  1  0
  9 10  2  0
  3 11  1  0
 11 12  2  0
 12 13  1  0
 12 14  1  0
 14 15  2  0
 15 16  1  0
 16 17  2  0
 17 18  1  0
 18 19  2  0
 19 20  1  0
 19 21  1  0
 21 22  2  0
 15  2  1  0
 22 16  1  0
 10  5  1  0
  4 23  1  0
  4 24  1  0
  6 25  1  0
  7 26  1  0
  8 27  1  0
 10 28  1  0
 11 29  1  0
 13 30  1  0
 14 31  1  0
 17 32  1  0
 18 33  1  0
 21 34  1  0
 22 35  1  0
M  CHG  1   1  -1
M  END
>  <UniqueID>  (11) 
9

>  <SMILES>  (11) 
[O-]c1c(Cc2cccnc2)cc(O)cc1-c1ccc(F)cc1

>  <Energy>  (11) 
44.47672729793696

>  <Genealogy>  (11) 
[O-]c1c(Cc2cccnc2)cc(O)cc1-c1ccc(F)cc1 (protonated)
[O-]c1c(Cc2cccnc2)cc(O)cc1-c1ccc(F)cc1 (3D coordinates assigned)
[O-]c1c(Cc2cccnc2)cc(O)cc1-c1ccc(F)cc1 (optimized conformer: 44.47672729793696 kcal/mol)

>  <smiles>  (11) 
Oc1cc(Cc2cccnc2)c(O)c(-c2ccc(F)cc2)c1

>  <score_type>  (11) 
oracle

>  <origin>  (11) 
adgpu

>  <m_score__min__energy>  (11) 
-9.1899999999999995

>  <m_primary>  (11) 
energy

$$$$
11:0
     RDKit          3D

 26 27  0  0  0  0  0  0  0  0999 V2000
   -2.3280   24.1340  -27.9490 N   0  0  0  0  0  0  0  0  0  0  0  0
   -4.8380   24.6480  -30.3900 C   0  0  0  0  0  0  0  0  0  0  0  0
   -4.1890   22.8300  -28.5310 C   0  0  0  0  0  0  0  0  0  0  0  0
   -5.3110   22.6720  -29.3390 C   0  0  0  0  0  0  0  0  0  0  0  0
   -5.6560   23.5860  -30.2880 N   0  0  0  0  0  0  0  0  0  0  0  0
   -6.7920   23.3430  -31.1360 C   0  0  0  0  0  0  0  0  0  0  0  0
   -6.7960   22.0360  -31.7990 C   0  0  0  0  0  0  0  0  0  0  0  0
   -5.7450   21.4610  -32.4680 C   0  0  0  0  0  0  0  0  0  0  0  0
   -4.1970   22.2540  -32.6130 Cl  0  0  0  0  0  0  0  0  0  0  0  0
   -5.8390   20.2110  -33.0970 C   0  0  0  0  0  0  0  0  0  0  0  0
   -7.0090   19.4940  -33.0730 C   0  0  0  0  0  0  0  0  0  0  0  0
   -8.0710   20.0510  -32.4110 C   0  0  0  0  0  0  0  0  0  0  0  0
   -7.9820   21.2790  -31.7920 C   0  0  0  0  0  0  0  0  0  0  0  0
   -9.4550   21.8750  -31.0430 Cl  0  0  0  0  0  0  0  0  0  0  0  0
   -3.3790   23.9350  -28.6700 C   0  0  0  0  0  0  0  0  0  0  0  0
   -5.0370   25.5660  -31.2240 O   0  0  0  0  0  0  0  0  0  0  0  0
   -3.7380   24.8210  -29.6110 N   0  0  0  0  0  0  0  0  0  0  0  0
   -1.9990   23.4970  -27.2120 H   0  0  0  0  0  0  0  0  0  0  0  0
   -3.9475   22.0671  -27.7762 H   0  0  0  0  0  0  0  0  0  0  0  0
   -5.9401   21.7794  -29.2068 H   0  0  0  0  0  0  0  0  0  0  0  0
   -7.7006   23.4171  -30.5204 H   0  0  0  0  0  0  0  0  0  0  0  0
   -6.7473   24.0960  -31.9366 H   0  0  0  0  0  0  0  0  0  0  0  0
   -4.9618   19.7991  -33.6174 H   0  0  0  0  0  0  0  0  0  0  0  0
   -7.0905   18.5134  -33.5647 H   0  0  0  0  0  0  0  0  0  0  0  0
   -9.0233   19.5017  -32.3723 H   0  0  0  0  0  0  0  0  0  0  0  0
   -3.1170   25.6660  -29.7170 H   0  0  0  0  0  0  0  0  0  0  0  0
  1  2  2  3
  2  3  1  0
  3  4  2  0
  4  5  1  0
  5  6  1  0
  6  7  1  0
  7  8  2  0
  8  9  1  0
  8 10  1  0
 10 11  2  0
 11 12  1  0
 12 13  2  0
 13 14  1  0
  5 15  1  0
 15 16  2  0
 15 17  1  0
 17  2  1  0
 13  7  1  0
  1 18  1  0
  3 19  1  0
  4 20  1  0
  6 21  1  0
  6 22  1  0
 10 23  1  0
 11 24  1  0
 12 25  1  0
 17 26  1  0
M  END
>  <smiles>  (12) 
N=c1ccn(Cc2c(Cl)cccc2Cl)c(=O)[nH]1

>  <score_type>  (12) 
oracle

>  <origin>  (12) 
adgpu

>  <m_score__min__energy>  (12) 
-7.3600000000000003

>  <m_primary>  (12) 
energy

$$$$
12:0
     RDKit          3D

 29 29  0  0  0  0  0  0  0  0999 V2000
   -3.7740   24.1170  -27.9410 C   0  0  0  0  0  0  0  0  0  0  0  0
   -2.7990   24.5620  -29.3560 S   0  0  0  0  0  0  0  0  0  0  0  0
   -1.7310   25.5440  -28.9600 O   0  0  0  0  0  0  0  0  0  0  0  0
   -2.1050   23.3540  -29.9600 O   0  0  0  0  0  0  0  0  0  0  0  0
   -3.8590   25.2530  -30.5240 N   0  0  0  0  0  0  0  0  0  0  0  0
   -5.2190   25.2980  -30.0830 C   0  0  0  0  0  0  0  0  0  0  0  0
   -6.1170   24.6950  -31.0910 C   0  0  0  0  0  0  0  0  0  0  0  0
   -5.6290   23.3920  -31.6680 C   0  0  0  0  0  0  0  0  0  0  0  0
   -6.4400   22.3870  -31.8430 O   0  0  0  0  0  0  0  0  0  0  0  0
   -7.2350   21.4010  -32.0150 C   0  0  0  0  0  0  0  0  0  0  0  0
   -8.6240   21.4860  -31.9070 C   0  0  0  0  0  0  0  0  0  0  0  0
   -9.4560   20.4060  -32.0990 C   0  0  0  0  0  0  0  0  0  0  0  0
   -8.8860   19.2010  -32.4080 C   0  0  0  0  0  0  0  0  0  0  0  0
   -7.5300   19.0410  -32.5310 C   0  0  0  0  0  0  0  0  0  0  0  0
   -6.8490   17.4690  -32.9270 Cl  0  0  0  0  0  0  0  0  0  0  0  0
   -6.7380   20.1270  -32.3340 C   0  0  0  0  0  0  0  0  0  0  0  0
   -3.2233   24.3683  -27.0225 H   0  0  0  0  0  0  0  0  0  0  0  0
   -4.7244   24.6705  -27.9618 H   0  0  0  0  0  0  0  0  0  0  0  0
   -3.9785   23.0364  -27.9618 H   0  0  0  0  0  0  0  0  0  0  0  0
   -5.3108   24.7411  -29.1388 H   0  0  0  0  0  0  0  0  0  0  0  0
   -5.5080   26.3492  -29.9366 H   0  0  0  0  0  0  0  0  0  0  0  0
   -7.0933   24.5157  -30.6169 H   0  0  0  0  0  0  0  0  0  0  0  0
   -6.1673   25.4066  -31.9283 H   0  0  0  0  0  0  0  0  0  0  0  0
   -5.2057   23.6271  -32.6557 H   0  0  0  0  0  0  0  0  0  0  0  0
   -4.9516   23.0209  -30.8848 H   0  0  0  0  0  0  0  0  0  0  0  0
   -9.0736   22.4584  -31.6576 H   0  0  0  0  0  0  0  0  0  0  0  0
  -10.5473   20.5088  -32.0067 H   0  0  0  0  0  0  0  0  0  0  0  0
   -9.5391   18.3296  -32.5633 H   0  0  0  0  0  0  0  0  0  0  0  0
   -5.6493   20.0017  -32.4295 H   0  0  0  0  0  0  0  0  0  0  0  0
  1  2  1  0
  2  3  2  0
  2  4  2  0
  2  5  1  0
  5  6  1  0
  6  7  1  0
  7  8  1  0
  8  9  1  0
  9 10  1  0
 10 11  2  0
 11 12  1  0
 12 13  2  0
 13 14  1  0
 14 15  1  0
 14 16  2  0
 16 10  1  0
  1 17  1  0
  1 18  1  0
  1 19  1  0
  6 20  1  0
  6 21  1  0
  7 22  1  0
  7 23  1  0
  8 24  1  0
  8 25  1  0
 11 26  1  0
 12 27  1  0
 13 28  1  0
 16 29  1  0
M  CHG  1   5  -1
M  END
>  <UniqueID>  (13) 
10

>  <SMILES>  (13) 
CS(=O)(=O)[N-]CCCOc1cccc(Cl)c1

>  <Energy>  (13) 
104.94446081206576

>  <Genealogy>  (13) 
CS(=O)(=O)[N-]CCCOc1cccc(Cl)c1 (protonated)
CS(=O)(=O)[N-]CCCOc1cccc(Cl)c1 (3D coordinates assigned)
CS(=O)(=O)[N-]CCCOc1cccc(Cl)c1 (optimized conformer: 104.94446081206576 kcal/mol)

>  <smiles>  (13) 
CS(=O)(=O)NCCCOc1cccc(Cl)c1

>  <score_type>  (13) 
oracle

>  <origin>  (13) 
adgpu

>  <m_score__min__energy>  (13) 
-8.5299999999999994

>  <m_primary>  (13) 
energy

$$$$
13:0
     RDKit          3D

 38 40  0  0  0  0  0  0  0  0999 V2000
   -1.2606   27.2697  -28.3550 H   0  0  0  0  0  0  0  0  0  0  0  0
   -0.4890   27.1730  -27.5770 C   0  0  0  0  0  0  0  0  0  0  0  0
   -0.2580   28.2290  -26.6900 C   0  0  0  0  0  0  0  0  0  0  0  0
   -0.8303   29.1631  -26.7902 H   0  0  0  0  0  0  0  0  0  0  0  0
    0.7000   28.1030  -25.6730 C   0  0  0  0  0  0  0  0  0  0  0  0
    0.9740   29.2490  -24.7460 C   0  0  0  0  0  0  0  0  0  0  0  0
    0.8919   28.9056  -23.7042 H   0  0  0  0  0  0  0  0  0  0  0  0
    1.9891   29.6323  -24.9268 H   0  0  0  0  0  0  0  0  0  0  0  0
    0.2420   30.0500  -24.9268 H   0  0  0  0  0  0  0  0  0  0  0  0
    1.4380   26.9150  -25.5660 C   0  0  0  0  0  0  0  0  0  0  0  0
    2.2015   26.8133  -24.7807 H   0  0  0  0  0  0  0  0  0  0  0  0
    1.2070   25.8590  -26.4540 C   0  0  0  0  0  0  0  0  0  0  0  0
    1.7722   24.9215  -26.3465 H   0  0  0  0  0  0  0  0  0  0  0  0
    0.2620   25.9870  -27.4780 C   0  0  0  0  0  0  0  0  0  0  0  0
    0.0320   24.8640  -28.3470 N   0  0  0  0  0  0  0  0  0  0  0  0
   -1.0990   24.5090  -28.8850 C   0  0  0  0  0  0  0  0  0  0  0  0
   -2.2230   25.2630  -28.7400 N   0  0  0  0  0  0  0  0  0  0  0  0
   -3.3790   24.9160  -29.3090 N   0  0  0  0  0  0  0  0  0  0  0  0
   -3.4990   23.7910  -30.0680 C   0  0  0  0  0  0  0  0  0  0  0  0
   -4.8110   23.4570  -30.6790 C   0  0  0  0  0  0  0  0  0  0  0  0
   -4.9260   22.4810  -31.6870 C   0  0  0  0  0  0  0  0  0  0  0  0
   -4.0276   21.9526  -32.0388 H   0  0  0  0  0  0  0  0  0  0  0  0
   -6.1710   22.1770  -32.2450 C   0  0  0  0  0  0  0  0  0  0  0  0
   -6.2450   21.4163  -33.0361 H   0  0  0  0  0  0  0  0  0  0  0  0
   -7.3300   22.8390  -31.8000 C   0  0  0  0  0  0  0  0  0  0  0  0
   -8.6010   22.5680  -32.3280 O   0  0  0  0  0  0  0  0  0  0  0  0
   -9.4550   21.5230  -31.8750 C   0  0  0  0  0  0  0  0  0  0  0  0
   -9.4661   21.5094  -30.7751 H   0  0  0  0  0  0  0  0  0  0  0  0
  -10.4748   21.6944  -32.2499 H   0  0  0  0  0  0  0  0  0  0  0  0
   -9.0839   20.5577  -32.2499 H   0  0  0  0  0  0  0  0  0  0  0  0
   -7.2200   23.8000  -30.7910 C   0  0  0  0  0  0  0  0  0  0  0  0
   -8.1209   24.3206  -30.4341 H   0  0  0  0  0  0  0  0  0  0  0  0
   -5.9760   24.1060  -30.2310 C   0  0  0  0  0  0  0  0  0  0  0  0
   -5.9076   24.8605  -29.4335 H   0  0  0  0  0  0  0  0  0  0  0  0
   -2.3620   22.9920  -30.2650 C   0  0  0  0  0  0  0  0  0  0  0  0
   -2.4221   22.0855  -30.8852 H   0  0  0  0  0  0  0  0  0  0  0  0
   -1.1570   23.3560  -29.6690 C   0  0  0  0  0  0  0  0  0  0  0  0
   -0.2579   22.7394  -29.8151 H   0  0  0  0  0  0  0  0  0  0  0  0
  1  2  1  0
  2  3  2  0
  3  4  1  0
  3  5  1  0
  5  6  1  0
  6  7  1  0
  6  8  1  0
  6  9  1  0
  5 10  2  0
 10 11  1  0
 10 12  1  0
 12 13  1  0
 12 14  2  0
 14 15  1  0
 15 16  2  0
 16 17  1  0
 17 18  1  0
 18 19  2  0
 19 20  1  0
 20 21  2  0
 21 22  1  0
 21 23  1  0
 23 24  1  0
 23 25  2  0
 25 26  1  0
 26 27  1  0
 27 28  1  0
 27 29  1  0
 27 30  1  0
 25 31  1  0
 31 32  1  0
 31 33  2  0
 33 34  1  0
 19 35  1  0
 35 36  1  0
 35 37  2  0
 37 38  1  0
 14  2  1  0
 37 16  1  0
 33 20  1  0
M  CHG  1  17  -1
M  END
>  <UniqueID>  (14) 
11

>  <SMILES>  (14) 
COc1ccc(-c2cc/c(=N/c3ccc(C)cc3)[n-]n2)cc1

>  <Energy>  (14) 
50.859427220431336

>  <Genealogy>  (14) 
COc1ccc(-c2ccc(=Nc3ccc(C)cc3)[n-]n2)cc1 (protonated)
COc1ccc(-c2cc/c(=N/c3ccc(C)cc3)[n-]n2)cc1 (cis-trans isomerization)
COc1ccc(-c2cc/c(=N/c3ccc(C)cc3)[n-]n2)cc1 (3D coordinates assigned)
COc1ccc(-c2cc/c(=N/c3ccc(C)cc3)[n-]n2)cc1 (optimized conformer: 50.859427220431336 kcal/mol)

>  <smiles>  (14) 
COc1ccc(-c2ccc(=Nc3ccc(C)cc3)[nH]n2)cc1

>  <score_type>  (14) 
oracle

>  <origin>  (14) 
adgpu

>  <m_score__min__energy>  (14) 
-7.8200000000000003

>  <m_primary>  (14) 
energy

$$$$
14:0
     RDKit          3D

 30 32  0  0  0  0  0  0  0  0999 V2000
   -9.4860   20.7620  -32.3110 C   0  0  0  0  0  0  0  0  0  0  0  0
   -8.1840   21.3280  -31.8270 C   0  0  0  0  0  0  0  0  0  0  0  0
   -6.9710   20.8470  -32.3370 C   0  0  0  0  0  0  0  0  0  0  0  0
   -5.7560   21.3480  -31.8610 C   0  0  0  0  0  0  0  0  0  0  0  0
   -5.7320   22.3320  -30.8550 C   0  0  0  0  0  0  0  0  0  0  0  0
   -4.4530   22.8780  -30.3350 C   0  0  0  0  0  0  0  0  0  0  0  0
   -3.2420   22.1950  -30.2210 C   0  0  0  0  0  0  0  0  0  0  0  0
   -2.3580   23.0650  -29.7080 N   0  0  0  0  0  0  0  0  0  0  0  0
   -3.0180   24.2120  -29.5280 C   0  0  0  0  0  0  0  0  0  0  0  0
   -4.3110   24.1570  -29.8970 N   0  0  0  0  0  0  0  0  0  0  0  0
   -2.3990   25.3000  -29.0190 N   0  0  0  0  0  0  0  0  0  0  0  0
   -1.0800   25.2030  -28.6910 C   0  0  0  0  0  0  0  0  0  0  0  0
   -0.4830   26.2040  -28.2160 O   0  0  0  0  0  0  0  0  0  0  0  0
   -0.3900   23.9850  -28.8860 C   0  0  0  0  0  0  0  0  0  0  0  0
    0.8320   23.9020  -28.5800 O   0  0  0  0  0  0  0  0  0  0  0  0
   -1.0630   22.9040  -29.4060 N   0  0  0  0  0  0  0  0  0  0  0  0
   -0.4060   21.6090  -29.6350 C   0  0  0  0  0  0  0  0  0  0  0  0
   -6.9550   22.7980  -30.3350 C   0  0  0  0  0  0  0  0  0  0  0  0
   -8.1680   22.2950  -30.8130 C   0  0  0  0  0  0  0  0  0  0  0  0
  -10.1112   20.4902  -31.4477 H   0  0  0  0  0  0  0  0  0  0  0  0
  -10.0089   21.5140  -32.9201 H   0  0  0  0  0  0  0  0  0  0  0  0
   -9.2928   19.8667  -32.9201 H   0  0  0  0  0  0  0  0  0  0  0  0
   -6.9748   20.0707  -33.1164 H   0  0  0  0  0  0  0  0  0  0  0  0
   -4.8102   20.9699  -32.2763 H   0  0  0  0  0  0  0  0  0  0  0  0
   -3.0492   21.1479  -30.4975 H   0  0  0  0  0  0  0  0  0  0  0  0
   -0.1690   21.1419  -28.6677 H   0  0  0  0  0  0  0  0  0  0  0  0
   -1.0796   20.9517  -30.2043 H   0  0  0  0  0  0  0  0  0  0  0  0
    0.5223   21.7644  -30.2043 H   0  0  0  0  0  0  0  0  0  0  0  0
   -6.9555   23.5644  -29.5459 H   0  0  0  0  0  0  0  0  0  0  0  0
   -9.1158   22.6603  -30.3908 H   0  0  0  0  0  0  0  0  0  0  0  0
  1  2  1  0
  2  3  2  0
  3  4  1  0
  4  5  2  0
  5  6  1  0
  6  7  2  0
  7  8  1  0
  8  9  1  0
  9 10  2  0
  9 11  1  0
 11 12  1  0
 12 13  2  0
 12 14  1  0
 14 15  2  0
 14 16  1  0
 16 17  1  0
  5 18  1  0
 18 19  2  0
 19  2  1  0
 10  6  1  0
 16  8  1  0
  1 20  1  0
  1 21  1  0
  1 22  1  0
  3 23  1  0
  4 24  1  0
  7 25  1  0
 17 26  1  0
 17 27  1  0
 17 28  1  0
 18 29  1  0
 19 30  1  0
M  CHG  1  11  -1
M  END
>  <UniqueID>  (15) 
12

>  <SMILES>  (15) 
Cc1ccc(-c2cn3c(n2)[n-]c(=O)c(=O)n3C)cc1

>  <Energy>  (15) 
74.11073592239879

>  <Genealogy>  (15) 
Cc1ccc(-c2cn3c(n2)[n-]c(=O)c(=O)n3C)cc1 (protonated)
Cc1ccc(-c2cn3c(n2)[n-]c(=O)c(=O)n3C)cc1 (3D coordinates assigned)
Cc1ccc(-c2cn3c(n2)[n-]c(=O)c(=O)n3C)cc1 (optimized conformer: 74.11073592239879 kcal/mol)

>  <smiles>  (15) 
Cc1ccc(-c2cn3c(n2)[nH]c(=O)c(=O)n3C)cc1

>  <score_type>  (15) 
oracle

>  <origin>  (15) 
adgpu

>  <m_score__min__energy>  (15) 
-7.6500000000000004

>  <m_primary>  (15) 
energy

$$$$
15:0
     RDKit          3D

 41 43  0  0  0  0  0  0  0  0999 V2000
   -4.3130   16.5820  -35.3460 N   0  0  0  0  0  0  0  0  0  0  0  0
   -4.6500   17.5210  -34.7600 C   0  0  0  0  0  0  0  0  0  0  0  0
   -5.0700   18.6880  -34.0300 C   0  0  0  0  0  0  0  0  0  0  0  0
   -6.4330   18.9480  -33.8450 C   0  0  0  0  0  0  0  0  0  0  0  0
   -6.8400   20.0830  -33.1380 C   0  0  0  0  0  0  0  0  0  0  0  0
   -5.8890   20.9660  -32.6010 C   0  0  0  0  0  0  0  0  0  0  0  0
   -6.3130   22.1380  -31.8810 N   0  0  0  0  0  0  0  0  0  0  0  0
   -7.5860   22.1560  -31.1580 C   0  0  0  0  0  0  0  0  0  0  0  0
   -7.3980   22.6960  -29.7230 C   0  0  0  0  0  0  0  0  0  0  0  0
   -6.2010   23.5690  -29.5500 N   0  0  0  0  0  0  0  0  0  0  0  0
   -5.0460   22.8000  -29.0150 C   0  0  0  0  0  0  0  0  0  0  0  0
   -3.9920   23.6930  -28.4010 C   0  0  0  0  0  0  0  0  0  0  0  0
   -4.0990   24.1080  -27.0630 C   0  0  0  0  0  0  0  0  0  0  0  0
   -3.1130   24.9230  -26.4960 C   0  0  0  0  0  0  0  0  0  0  0  0
   -2.0160   25.3300  -27.2590 C   0  0  0  0  0  0  0  0  0  0  0  0
   -1.0630   26.1200  -26.7050 F   0  0  0  0  0  0  0  0  0  0  0  0
   -1.9030   24.9250  -28.5930 C   0  0  0  0  0  0  0  0  0  0  0  0
   -0.8410   25.3210  -29.3360 F   0  0  0  0  0  0  0  0  0  0  0  0
   -2.8870   24.1110  -29.1630 C   0  0  0  0  0  0  0  0  0  0  0  0
   -5.8820   24.3140  -30.7940 C   0  0  0  0  0  0  0  0  0  0  0  0
   -5.5280   23.3730  -31.9570 C   0  0  0  0  0  0  0  0  0  0  0  0
   -4.5200   20.7050  -32.7990 C   0  0  0  0  0  0  0  0  0  0  0  0
   -3.5790   21.5670  -32.3360 F   0  0  0  0  0  0  0  0  0  0  0  0
   -4.1160   19.5690  -33.5080 C   0  0  0  0  0  0  0  0  0  0  0  0
   -7.1846   18.2583  -34.2565 H   0  0  0  0  0  0  0  0  0  0  0  0
   -7.9124   20.2860  -33.0013 H   0  0  0  0  0  0  0  0  0  0  0  0
   -8.2962   22.8016  -31.6955 H   0  0  0  0  0  0  0  0  0  0  0  0
   -7.9707   21.1272  -31.0985 H   0  0  0  0  0  0  0  0  0  0  0  0
   -8.2915   23.2784  -29.4538 H   0  0  0  0  0  0  0  0  0  0  0  0
   -7.2477   21.8212  -29.0733 H   0  0  0  0  0  0  0  0  0  0  0  0
   -6.4550   24.2840  -28.8270 H   0  0  0  0  0  0  0  0  0  0  0  0
   -5.4113   22.1043  -28.2452 H   0  0  0  0  0  0  0  0  0  0  0  0
   -4.5821   22.2641  -29.8562 H   0  0  0  0  0  0  0  0  0  0  0  0
   -4.9616   23.7909  -26.4586 H   0  0  0  0  0  0  0  0  0  0  0  0
   -3.2019   25.2438  -25.4476 H   0  0  0  0  0  0  0  0  0  0  0  0
   -2.7959   23.7962  -30.2130 H   0  0  0  0  0  0  0  0  0  0  0  0
   -6.7559   24.9179  -31.0798 H   0  0  0  0  0  0  0  0  0  0  0  0
   -5.0064   24.9489  -30.5935 H   0  0  0  0  0  0  0  0  0  0  0  0
   -5.7429   23.8794  -32.9095 H   0  0  0  0  0  0  0  0  0  0  0  0
   -4.4599   23.1178  -31.8930 H   0  0  0  0  0  0  0  0  0  0  0  0
   -3.0448   19.3673  -33.6558 H   0  0  0  0  0  0  0  0  0  0  0  0
  1  2  3  0
  2  3  1  0
  3  4  2  0
  4  5  1  0
  5  6  2  0
  6  7  1  0
  7  8  1  0
  8  9  1  0
  9 10  1  0
 10 11  1  0
 11 12  1  0
 12 13  2  0
 13 14  1  0
 14 15  2  0
 15 16  1  0
 15 17  1  0
 17 18  1  0
 17 19  2  0
 10 20  1  0
 20 21  1  0
  6 22  1  0
 22 23  1  0
 22 24  2  0
 24  3  1  0
 21  7  1  0
 19 12  1  0
  4 25  1  0
  5 26  1  0
  8 27  1  0
  8 28  1  0
  9 29  1  0
  9 30  1  0
 10 31  1  0
 11 32  1  0
 11 33  1  0
 13 34  1  0
 14 35  1  0
 19 36  1  0
 20 37  1  0
 20 38  1  0
 21 39  1  0
 21 40  1  0
 24 41  1  0
M  CHG  1  10   1
M  END
>  <UniqueID>  (16) 
13

>  <SMILES>  (16) 
N#Cc1ccc(N2CC[NH+](Cc3ccc(F)c(F)c3)CC2)c(F)c1

>  <Energy>  (16) 
55.74160446338882

>  <Genealogy>  (16) 
N#Cc1ccc(N2CC[NH+](Cc3ccc(F)c(F)c3)CC2)c(F)c1 (protonated)
N#Cc1ccc(N2CC[NH+](Cc3ccc(F)c(F)c3)CC2)c(F)c1 (3D coordinates assigned)
N#Cc1ccc(N2CC[NH+](Cc3ccc(F)c(F)c3)CC2)c(F)c1 (nonaromatic ring conformer: 55.74160446338882 kcal/mol)

>  <smiles>  (16) 
N#Cc1ccc(N2CCN(Cc3ccc(F)c(F)c3)CC2)c(F)c1

>  <score_type>  (16) 
oracle

>  <origin>  (16) 
adgpu

>  <m_score__min__energy>  (16) 
-6.8399999999999999

>  <m_primary>  (16) 
energy

$$$$
16:0
     RDKit          3D

 21 22  0  0  0  0  0  0  0  0999 V2000
   -0.2748   25.1126  -27.8841 H   0  0  0  0  0  0  0  0  0  0  0  0
   -1.3260   24.9140  -28.1400 C   0  0  0  0  0  0  0  0  0  0  0  0
   -1.8610   25.2590  -29.3410 N   0  0  0  0  0  0  0  0  0  0  0  0
   -3.1640   24.9180  -29.4280 C   0  0  0  0  0  0  0  0  0  0  0  0
   -3.8670   25.1590  -30.4960 N   0  0  0  0  0  0  0  0  0  0  0  0
   -5.2530   24.8510  -30.7220 C   0  0  0  0  0  0  0  0  0  0  0  0
   -6.1620   25.6770  -30.4360 O   0  0  0  0  0  0  0  0  0  0  0  0
   -5.6150   23.5500  -31.2990 C   0  0  0  0  0  0  0  0  0  0  0  0
   -7.1600   22.8790  -31.2930 S   0  0  0  0  0  0  0  0  0  0  0  0
   -6.7340   21.4640  -32.0980 C   0  0  0  0  0  0  0  0  0  0  0  0
   -7.6860   20.3950  -32.5160 C   0  0  0  0  0  0  0  0  0  0  0  0
   -8.1134   19.9151  -31.6233 H   0  0  0  0  0  0  0  0  0  0  0  0
   -8.4941   20.8380  -33.1165 H   0  0  0  0  0  0  0  0  0  0  0  0
   -7.1527   19.6434  -33.1165 H   0  0  0  0  0  0  0  0  0  0  0  0
   -5.3800   21.5100  -32.4050 C   0  0  0  0  0  0  0  0  0  0  0  0
   -4.8560   20.7124  -32.9521 H   0  0  0  0  0  0  0  0  0  0  0  0
   -4.7490   22.6740  -31.9480 C   0  0  0  0  0  0  0  0  0  0  0  0
   -3.6768   22.8758  -32.0878 H   0  0  0  0  0  0  0  0  0  0  0  0
   -3.7010   24.1720  -28.0120 S   0  0  0  0  0  0  0  0  0  0  0  0
   -2.2030   24.2920  -27.2580 C   0  0  0  0  0  0  0  0  0  0  0  0
   -1.9594   23.9402  -26.2447 H   0  0  0  0  0  0  0  0  0  0  0  0
  1  2  1  0
  2  3  1  0
  3  4  1  0
  4  5  2  0
  5  6  1  0
  6  7  2  0
  6  8  1  0
  8  9  1  0
  9 10  1  0
 10 11  1  0
 11 12  1  0
 11 13  1  0
 11 14  1  0
 10 15  2  0
 15 16  1  0
 15 17  1  0
 17 18  1  0
  4 19  1  0
 19 20  1  0
 20 21  1  0
 20  2  2  0
 17  8  2  0
M  CHG  1   3  -1
M  END
>  <UniqueID>  (17) 
14

>  <SMILES>  (17) 
Cc1ccc(C(=O)/N=c2/[n-]ccs2)s1

>  <Energy>  (17) 
78.67065635418216

>  <Genealogy>  (17) 
Cc1ccc(C(=O)N=c2[n-]ccs2)s1 (protonated)
Cc1ccc(C(=O)/N=c2/[n-]ccs2)s1 (cis-trans isomerization)
Cc1ccc(C(=O)/N=c2/[n-]ccs2)s1 (3D coordinates assigned)
Cc1ccc(C(=O)/N=c2/[n-]ccs2)s1 (optimized conformer: 78.67065635418216 kcal/mol)

>  <smiles>  (17) 
Cc1ccc(C(=O)N=c2[nH]ccs2)s1

>  <score_type>  (17) 
oracle

>  <origin>  (17) 
adgpu

>  <m_score__min__energy>  (17) 
-7.7999999999999998

>  <m_primary>  (17) 
energy

$$$$
17:0
     RDKit          3D

 38 40  0  0  0  0  0  0  0  0999 V2000
   -7.9260   20.0480  -33.4570 C   0  0  0  0  0  0  0  0  0  0  0  0
   -8.2820   20.4830  -32.0190 C   0  0  0  0  0  0  0  0  0  0  0  0
   -8.5650   19.2310  -31.1600 C   0  0  0  0  0  0  0  0  0  0  0  0
   -9.5880   21.3100  -32.0880 C   0  0  0  0  0  0  0  0  0  0  0  0
   -7.1010   21.2670  -31.4110 C   0  0  0  0  0  0  0  0  0  0  0  0
   -7.3550   22.4160  -30.6280 C   0  0  0  0  0  0  0  0  0  0  0  0
   -6.3110   23.1500  -30.0620 C   0  0  0  0  0  0  0  0  0  0  0  0
   -4.9810   22.7610  -30.2590 C   0  0  0  0  0  0  0  0  0  0  0  0
   -3.8760   23.5430  -29.6680 C   0  0  0  0  0  0  0  0  0  0  0  0
   -3.5470   24.8770  -29.9100 C   0  0  0  0  0  0  0  0  0  0  0  0
   -4.2490   25.7480  -30.7380 O   0  0  0  0  0  0  0  0  0  0  0  0
   -2.4550   25.2670  -29.2110 N   0  0  0  0  0  0  0  0  0  0  0  0
   -2.0940   24.1700  -28.5180 C   0  0  0  0  0  0  0  0  0  0  0  0
   -1.0090   24.0590  -27.6520 C   0  0  0  0  0  0  0  0  0  0  0  0
   -0.7790   22.8160  -27.0350 C   0  0  0  0  0  0  0  0  0  0  0  0
   -1.6290   21.7180  -27.2980 C   0  0  0  0  0  0  0  0  0  0  0  0
   -1.3210   20.1720  -26.5310 Cl  0  0  0  0  0  0  0  0  0  0  0  0
   -2.7180   21.8570  -28.1780 C   0  0  0  0  0  0  0  0  0  0  0  0
   -2.9280   23.1070  -28.7650 C   0  0  0  0  0  0  0  0  0  0  0  0
   -4.7090   21.6270  -31.0350 C   0  0  0  0  0  0  0  0  0  0  0  0
   -5.7500   20.8890  -31.6020 C   0  0  0  0  0  0  0  0  0  0  0  0
   -7.2297   19.1972  -33.4209 H   0  0  0  0  0  0  0  0  0  0  0  0
   -8.8424   19.7496  -33.9873 H   0  0  0  0  0  0  0  0  0  0  0  0
   -7.4523   20.8873  -33.9873 H   0  0  0  0  0  0  0  0  0  0  0  0
   -8.5050   19.4964  -30.0942 H   0  0  0  0  0  0  0  0  0  0  0  0
   -9.5718   18.8505  -31.3870 H   0  0  0  0  0  0  0  0  0  0  0  0
   -7.8197   18.4545  -31.3870 H   0  0  0  0  0  0  0  0  0  0  0  0
   -9.9365   21.5307  -31.0683 H   0  0  0  0  0  0  0  0  0  0  0  0
   -9.3974   22.2524  -32.6224 H   0  0  0  0  0  0  0  0  0  0  0  0
  -10.3584   20.7348  -32.6224 H   0  0  0  0  0  0  0  0  0  0  0  0
   -8.3937   22.7376  -30.4616 H   0  0  0  0  0  0  0  0  0  0  0  0
   -6.5353   24.0407  -29.4567 H   0  0  0  0  0  0  0  0  0  0  0  0
   -4.2230   25.6650  -31.7460 H   0  0  0  0  0  0  0  0  0  0  0  0
   -0.3510   24.9184  -27.4562 H   0  0  0  0  0  0  0  0  0  0  0  0
    0.0680   22.6978  -26.3432 H   0  0  0  0  0  0  0  0  0  0  0  0
   -3.3828   21.0084  -28.3968 H   0  0  0  0  0  0  0  0  0  0  0  0
   -3.6669   21.3153  -31.1991 H   0  0  0  0  0  0  0  0  0  0  0  0
   -5.5168   20.0001  -32.2065 H   0  0  0  0  0  0  0  0  0  0  0  0
  1  2  1  0
  2  3  1  0
  2  4  1  0
  2  5  1  0
  5  6  2  0
  6  7  1  0
  7  8  2  0
  8  9  1  0
  9 10  2  0
 10 11  1  0
 10 12  1  0
 12 13  1  0
 13 14  2  0
 14 15  1  0
 15 16  2  0
 16 17  1  0
 16 18  1  0
 18 19  2  0
  8 20  1  0
 20 21  2  0
 21  5  1  0
 19  9  1  0
 19 13  1  0
  1 22  1  0
  1 23  1  0
  1 24  1  0
  3 25  1  0
  3 26  1  0
  3 27  1  0
  4 28  1  0
  4 29  1  0
  4 30  1  0
  6 31  1  0
  7 32  1  0
 11 33  1  0
 14 34  1  0
 15 35  1  0
 18 36  1  0
 20 37  1  0
 21 38  1  0
M  CHG  1  12  -1
M  END
>  <UniqueID>  (18) 
15

>  <SMILES>  (18) 
CC(C)(C)c1ccc(-c2c(O)[n-]c3ccc(Cl)cc23)cc1

>  <Energy>  (18) 
79.03549134451598

>  <Genealogy>  (18) 
CC(C)(C)c1ccc(-c2c(O)[n-]c3ccc(Cl)cc23)cc1 (protonated)
CC(C)(C)c1ccc(-c2c(O)[n-]c3ccc(Cl)cc23)cc1 (3D coordinates assigned)
CC(C)(C)c1ccc(-c2c(O)[n-]c3ccc(Cl)cc23)cc1 (optimized conformer: 79.03549134451598 kcal/mol)

>  <smiles>  (18) 
CC(C)(C)c1ccc(-c2c(O)[nH]c3ccc(Cl)cc23)cc1

>  <score_type>  (18) 
oracle

>  <origin>  (18) 
adgpu

>  <m_score__min__energy>  (18) 
-11.029999999999999

>  <m_primary>  (18) 
energy

$$$$
18:0
     RDKit          3D

 35 36  0  0  0  0  0  0  0  0999 V2000
   -5.5980   17.6430  -34.9130 C   0  0  0  0  0  0  0  0  0  0  0  0
   -5.4130   18.8820  -33.6470 S   0  0  0  0  0  0  0  0  0  0  0  0
   -5.5100   18.2430  -32.2920 O   0  0  0  0  0  0  0  0  0  0  0  0
   -4.0580   19.5150  -33.7990 O   0  0  0  0  0  0  0  0  0  0  0  0
   -6.6290   20.1110  -33.8060 N   0  0  0  0  0  0  0  0  0  0  0  0
   -7.0750   20.8680  -32.6740 C   0  0  0  0  0  0  0  0  0  0  0  0
   -6.2070   21.8080  -32.1000 C   0  0  0  0  0  0  0  0  0  0  0  0
   -6.6070   22.5810  -31.0000 C   0  0  0  0  0  0  0  0  0  0  0  0
   -5.6930   23.5480  -30.4480 N   0  0  0  0  0  0  0  0  0  0  0  0
   -5.3660   23.6230  -29.0230 C   0  0  0  0  0  0  0  0  0  0  0  0
   -3.8750   23.5390  -28.8140 C   0  0  0  0  0  0  0  0  0  0  0  0
   -3.3450   22.5760  -27.9380 C   0  0  0  0  0  0  0  0  0  0  0  0
   -1.9610   22.4660  -27.7610 C   0  0  0  0  0  0  0  0  0  0  0  0
   -1.3100   21.2680  -26.6590 Cl  0  0  0  0  0  0  0  0  0  0  0  0
   -1.0970   23.3100  -28.4660 C   0  0  0  0  0  0  0  0  0  0  0  0
   -1.6150   24.2580  -29.3520 C   0  0  0  0  0  0  0  0  0  0  0  0
   -2.9980   24.3730  -29.5350 C   0  0  0  0  0  0  0  0  0  0  0  0
   -3.4900   25.3120  -30.4340 O   0  0  0  0  0  0  0  0  0  0  0  0
   -7.8950   22.3900  -30.4660 C   0  0  0  0  0  0  0  0  0  0  0  0
   -8.7540   21.4380  -31.0190 C   0  0  0  0  0  0  0  0  0  0  0  0
   -8.3510   20.6710  -32.1160 C   0  0  0  0  0  0  0  0  0  0  0  0
   -9.4420   19.4310  -32.7190 Cl  0  0  0  0  0  0  0  0  0  0  0  0
   -5.7450   16.6588  -34.4442 H   0  0  0  0  0  0  0  0  0  0  0  0
   -6.4700   17.8851  -35.5384 H   0  0  0  0  0  0  0  0  0  0  0  0
   -4.6934   17.6198  -35.5384 H   0  0  0  0  0  0  0  0  0  0  0  0
   -7.2700   20.0280  -34.6250 H   0  0  0  0  0  0  0  0  0  0  0  0
   -5.1983   21.9410  -32.5182 H   0  0  0  0  0  0  0  0  0  0  0  0
   -5.2430   24.2280  -31.1030 H   0  0  0  0  0  0  0  0  0  0  0  0
   -5.7344   24.5769  -28.6175 H   0  0  0  0  0  0  0  0  0  0  0  0
   -5.8442   22.7785  -28.5051 H   0  0  0  0  0  0  0  0  0  0  0  0
   -4.0217   21.9051  -27.3885 H   0  0  0  0  0  0  0  0  0  0  0  0
   -0.0095   23.2275  -28.3229 H   0  0  0  0  0  0  0  0  0  0  0  0
   -0.9326   24.9173  -29.9085 H   0  0  0  0  0  0  0  0  0  0  0  0
   -8.2268   22.9938  -29.6085 H   0  0  0  0  0  0  0  0  0  0  0  0
   -9.7553   21.2905  -30.5881 H   0  0  0  0  0  0  0  0  0  0  0  0
  1  2  1  0
  2  3  2  0
  2  4  2  0
  2  5  1  0
  5  6  1  0
  6  7  2  0
  7  8  1  0
  8  9  1  0
  9 10  1  0
 10 11  1  0
 11 12  2  0
 12 13  1  0
 13 14  1  0
 13 15  2  0
 15 16  1  0
 16 17  2  0
 17 18  1  0
  8 19  2  0
 19 20  1  0
 20 21  2  0
 21 22  1  0
 21  6  1  0
 17 11  1  0
  1 23  1  0
  1 24  1  0
  1 25  1  0
  5 26  1  0
  7 27  1  0
  9 28  1  0
 10 29  1  0
 10 30  1  0
 12 31  1  0
 15 32  1  0
 16 33  1  0
 19 34  1  0
 20 35  1  0
M  CHG  1  18  -1
M  END
>  <UniqueID>  (19) 
16

>  <SMILES>  (19) 
CS(=O)(=O)Nc1cc(NCc2cc(Cl)ccc2[O-])ccc1Cl

>  <Energy>  (19) 
38.58064606015623

>  <Genealogy>  (19) 
CS(=O)(=O)Nc1cc(NCc2cc(Cl)ccc2[O-])ccc1Cl (protonated)
CS(=O)(=O)Nc1cc(NCc2cc(Cl)ccc2[O-])ccc1Cl (3D coordinates assigned)
CS(=O)(=O)Nc1cc(NCc2cc(Cl)ccc2[O-])ccc1Cl (optimized conformer: 38.58064606015623 kcal/mol)

>  <smiles>  (19) 
CS(=O)(=O)Nc1cc(NCc2cc(Cl)ccc2O)ccc1Cl

>  <score_type>  (19) 
oracle

>  <origin>  (19) 
adgpu

>  <m_score__min__energy>  (19) 
-11.359999999999999

>  <m_primary>  (19) 
energy

$$$$
19:0
     RDKit          3D

 45 48  0  0  0  0  0  0  0  0999 V2000
   -0.5020   26.4020  -23.7630 C   0  0  0  0  0  0  0  0  0  0  0  0
   -0.2570   26.7050  -25.1330 O   0  0  0  0  0  0  0  0  0  0  0  0
   -0.9490   26.1250  -26.2070 C   0  0  0  0  0  0  0  0  0  0  0  0
   -0.4620   26.1620  -27.5270 C   0  0  0  0  0  0  0  0  0  0  0  0
   -1.1890   25.5690  -28.5640 C   0  0  0  0  0  0  0  0  0  0  0  0
   -2.4140   24.9320  -28.3020 C   0  0  0  0  0  0  0  0  0  0  0  0
   -3.1820   24.3050  -29.3990 C   0  0  0  0  0  0  0  0  0  0  0  0
   -3.4530   22.9860  -29.4690 N   0  0  0  0  0  0  0  0  0  0  0  0
   -4.1530   22.9050  -30.6170 C   0  0  0  0  0  0  0  0  0  0  0  0
   -4.7340   21.6240  -31.1470 C   0  0  0  0  0  0  0  0  0  0  0  0
   -6.1690   21.8510  -31.6880 C   0  0  0  0  0  0  0  0  0  0  0  0
   -6.5170   20.9370  -32.8750 C   0  0  0  0  0  0  0  0  0  0  0  0
   -5.8260   19.6450  -32.7540 N   0  0  0  0  0  0  0  0  0  0  0  0
   -6.5840   18.4480  -32.4890 C   0  0  0  0  0  0  0  0  0  0  0  0
   -7.6480   18.5250  -31.8180 O   0  0  0  0  0  0  0  0  0  0  0  0
   -6.1500   17.1240  -32.9800 C   0  0  0  0  0  0  0  0  0  0  0  0
   -6.8840   16.3020  -33.8290 C   0  0  0  0  0  0  0  0  0  0  0  0
   -6.2120   15.1250  -34.1830 C   0  0  0  0  0  0  0  0  0  0  0  0
   -4.9430   15.0180  -33.6290 C   0  0  0  0  0  0  0  0  0  0  0  0
   -4.6600   16.3910  -32.7010 S   0  0  0  0  0  0  0  0  0  0  0  0
   -4.3560   19.6360  -32.6550 C   0  0  0  0  0  0  0  0  0  0  0  0
   -3.8110   21.0040  -32.2120 C   0  0  0  0  0  0  0  0  0  0  0  0
   -4.3120   24.1050  -31.2080 N   0  0  0  0  0  0  0  0  0  0  0  0
   -3.6950   24.9870  -30.4410 N   0  0  0  0  0  0  0  0  0  0  0  0
   -2.8960   24.8970  -26.9830 C   0  0  0  0  0  0  0  0  0  0  0  0
   -2.1680   25.4890  -25.9480 C   0  0  0  0  0  0  0  0  0  0  0  0
    0.0621   27.0997  -23.1266 H   0  0  0  0  0  0  0  0  0  0  0  0
   -1.5771   26.5009  -23.5522 H   0  0  0  0  0  0  0  0  0  0  0  0
   -0.1803   25.3714  -23.5522 H   0  0  0  0  0  0  0  0  0  0  0  0
    0.4947   26.6596  -27.7439 H   0  0  0  0  0  0  0  0  0  0  0  0
   -0.7993   25.6014  -29.5921 H   0  0  0  0  0  0  0  0  0  0  0  0
   -4.8068   20.9054  -30.3173 H   0  0  0  0  0  0  0  0  0  0  0  0
   -6.8844   21.6572  -30.8752 H   0  0  0  0  0  0  0  0  0  0  0  0
   -6.2245   22.8896  -32.0460 H   0  0  0  0  0  0  0  0  0  0  0  0
   -7.6034   20.7655  -32.8927 H   0  0  0  0  0  0  0  0  0  0  0  0
   -6.1934   21.4261  -33.8056 H   0  0  0  0  0  0  0  0  0  0  0  0
   -7.8935   16.5519  -34.1873 H   0  0  0  0  0  0  0  0  0  0  0  0
   -6.6487   14.3572  -34.8386 H   0  0  0  0  0  0  0  0  0  0  0  0
   -4.2445   14.1805  -33.7725 H   0  0  0  0  0  0  0  0  0  0  0  0
   -4.0522   18.8756  -31.9205 H   0  0  0  0  0  0  0  0  0  0  0  0
   -3.9452   19.4072  -33.6494 H   0  0  0  0  0  0  0  0  0  0  0  0
   -2.8039   20.8743  -31.7891 H   0  0  0  0  0  0  0  0  0  0  0  0
   -3.7686   21.6732  -33.0840 H   0  0  0  0  0  0  0  0  0  0  0  0
   -3.8527   24.4003  -26.7637 H   0  0  0  0  0  0  0  0  0  0  0  0
   -2.5569   25.4548  -24.9196 H   0  0  0  0  0  0  0  0  0  0  0  0
  1  2  1  0
  2  3  1  0
  3  4  2  0
  4  5  1  0
  5  6  2  0
  6  7  1  0
  7  8  2  0
  8  9  1  0
  9 10  1  0
 10 11  1  0
 11 12  1  0
 12 13  1  0
 13 14  1  0
 14 15  2  0
 14 16  1  0
 16 17  2  0
 17 18  1  0
 18 19  2  0
 19 20  1  0
 13 21  1  0
 21 22  1  0
  9 23  2  0
 23 24  1  0
  6 25  1  0
 25 26  2  0
 26  3  1  0
 24  7  1  0
 22 10  1  0
 20 16  1  0
  1 27  1  0
  1 28  1  0
  1 29  1  0
  4 30  1  0
  5 31  1  0
 10 32  1  0
 11 33  1  0
 11 34  1  0
 12 35  1  0
 12 36  1  0
 17 37  1  0
 18 38  1  0
 19 39  1  0
 21 40  1  0
 21 41  1  0
 22 42  1  0
 22 43  1  0
 25 44  1  0
 26 45  1  0
M  CHG  1  24  -1
M  END
>  <UniqueID>  (20) 
17

>  <SMILES>  (20) 
COc1ccc(-c2nc(C3CCN(C(=O)c4cccs4)CC3)n[n-]2)cc1

>  <Energy>  (20) 
111.2233046266528

>  <Genealogy>  (20) 
COc1ccc(-c2nc(C3CCN(C(=O)c4cccs4)CC3)n[n-]2)cc1 (protonated)
COc1ccc(-c2nc(C3CCN(C(=O)c4cccs4)CC3)n[n-]2)cc1 (3D coordinates assigned)
COc1ccc(-c2nc(C3CCN(C(=O)c4cccs4)CC3)n[n-]2)cc1 (nonaromatic ring conformer: 111.2233046266528 kcal/mol)

>  <smiles>  (20) 
COc1ccc(-c2nc(C3CCN(C(=O)c4cccs4)CC3)n[nH]2)cc1

>  <score_type>  (20) 
oracle

>  <origin>  (20) 
adgpu

>  <m_score__min__energy>  (20) 
-9.5700000000000003

>  <m_primary>  (20) 
energy

$$$$
20:0
     RDKit          3D

 44 46  0  0  0  0  0  0  0  0999 V2000
   -3.4990   20.9620  -33.3520 C   0  0  0  0  0  0  0  0  0  0  0  0
   -4.9710   20.8400  -33.0470 C   0  0  0  0  0  0  0  0  0  0  0  0
   -5.6570   19.6920  -33.4620 C   0  0  0  0  0  0  0  0  0  0  0  0
   -6.9800   19.5470  -33.2070 N   0  0  0  0  0  0  0  0  0  0  0  0
   -7.7050   20.4860  -32.5460 C   0  0  0  0  0  0  0  0  0  0  0  0
   -9.1660   20.2180  -32.3200 C   0  0  0  0  0  0  0  0  0  0  0  0
   -7.0730   21.6710  -32.1010 C   0  0  0  0  0  0  0  0  0  0  0  0
   -7.7810   22.6730  -31.4090 C   0  0  0  0  0  0  0  0  0  0  0  0
   -7.1380   23.8330  -30.9810 C   0  0  0  0  0  0  0  0  0  0  0  0
   -5.7760   24.0310  -31.2410 C   0  0  0  0  0  0  0  0  0  0  0  0
   -5.0920   25.2650  -30.7900 C   0  0  0  0  0  0  0  0  0  0  0  0
   -5.7370   26.3460  -30.7350 O   0  0  0  0  0  0  0  0  0  0  0  0
   -3.6950   25.2840  -30.4600 N   0  0  0  0  0  0  0  0  0  0  0  0
   -3.0600   24.5200  -29.4240 C   0  0  0  0  0  0  0  0  0  0  0  0
   -1.8010   24.9160  -28.9680 C   0  0  0  0  0  0  0  0  0  0  0  0
   -1.1560   24.2020  -27.9540 C   0  0  0  0  0  0  0  0  0  0  0  0
   -1.7690   23.0780  -27.3590 C   0  0  0  0  0  0  0  0  0  0  0  0
   -1.0990   22.3330  -26.3090 N   0  0  0  0  0  0  0  0  0  0  0  0
   -0.2570   23.0240  -25.3230 C   0  0  0  0  0  0  0  0  0  0  0  0
   -1.2500   20.8760  -26.2140 C   0  0  0  0  0  0  0  0  0  0  0  0
   -3.0510   22.7040  -27.8100 C   0  0  0  0  0  0  0  0  0  0  0  0
   -3.6930   23.4200  -28.8240 C   0  0  0  0  0  0  0  0  0  0  0  0
   -5.0550   23.0320  -31.9140 C   0  0  0  0  0  0  0  0  0  0  0  0
   -5.6860   21.8490  -32.3550 C   0  0  0  0  0  0  0  0  0  0  0  0
   -2.9321   21.0090  -32.4105 H   0  0  0  0  0  0  0  0  0  0  0  0
   -3.1715   20.0879  -33.9340 H   0  0  0  0  0  0  0  0  0  0  0  0
   -3.3198   21.8781  -33.9340 H   0  0  0  0  0  0  0  0  0  0  0  0
   -5.1164   18.8997  -34.0006 H   0  0  0  0  0  0  0  0  0  0  0  0
   -9.3691   20.1807  -31.2396 H   0  0  0  0  0  0  0  0  0  0  0  0
   -9.7613   21.0219  -32.7775 H   0  0  0  0  0  0  0  0  0  0  0  0
   -9.4372   19.2551  -32.7775 H   0  0  0  0  0  0  0  0  0  0  0  0
   -8.8533   22.5384  -31.2041 H   0  0  0  0  0  0  0  0  0  0  0  0
   -7.7054   24.6003  -30.4339 H   0  0  0  0  0  0  0  0  0  0  0  0
   -1.3128   25.7969  -29.4103 H   0  0  0  0  0  0  0  0  0  0  0  0
   -0.1588   24.5197  -27.6156 H   0  0  0  0  0  0  0  0  0  0  0  0
   -0.5849   22.7549  -24.3081 H   0  0  0  0  0  0  0  0  0  0  0  0
    0.7919   22.7229  -25.4614 H   0  0  0  0  0  0  0  0  0  0  0  0
   -0.3476   24.1115  -25.4614 H   0  0  0  0  0  0  0  0  0  0  0  0
   -1.2808   20.5788  -25.1554 H   0  0  0  0  0  0  0  0  0  0  0  0
   -2.1845   20.5713  -26.7077 H   0  0  0  0  0  0  0  0  0  0  0  0
   -0.3978   20.3861  -26.7077 H   0  0  0  0  0  0  0  0  0  0  0  0
   -3.5532   21.8363  -27.3574 H   0  0  0  0  0  0  0  0  0  0  0  0
   -4.6988   23.1203  -29.1535 H   0  0  0  0  0  0  0  0  0  0  0  0
   -3.9803   23.1736  -32.1008 H   0  0  0  0  0  0  0  0  0  0  0  0
  1  2  1  0
  2  3  2  0
  3  4  1  0
  4  5  2  0
  5  6  1  0
  5  7  1  0
  7  8  2  0
  8  9  1  0
  9 10  2  0
 10 11  1  0
 11 12  2  0
 11 13  1  0
 13 14  1  0
 14 15  2  0
 15 16  1  0
 16 17  2  0
 17 18  1  0
 18 19  1  0
 18 20  1  0
 17 21  1  0
 21 22  2  0
 10 23  1  0
 23 24  2  0
 24  2  1  0
 24  7  1  0
 22 14  1  0
  1 25  1  0
  1 26  1  0
  1 27  1  0
  3 28  1  0
  6 29  1  0
  6 30  1  0
  6 31  1  0
  8 32  1  0
  9 33  1  0
 15 34  1  0
 16 35  1  0
 19 36  1  0
 19 37  1  0
 19 38  1  0
 20 39  1  0
 20 40  1  0
 20 41  1  0
 21 42  1  0
 22 43  1  0
 23 44  1  0
M  CHG  1  13  -1
M  END
>  <UniqueID>  (21) 
18

>  <SMILES>  (21) 
Cc1cnc(C)c2ccc(C(=O)[N-]c3ccc(N(C)C)cc3)cc12

>  <Energy>  (21) 
60.69783808463153

>  <Genealogy>  (21) 
Cc1cnc(C)c2ccc(C(=O)[N-]c3ccc(N(C)C)cc3)cc12 (protonated)
Cc1cnc(C)c2ccc(C(=O)[N-]c3ccc(N(C)C)cc3)cc12 (3D coordinates assigned)
Cc1cnc(C)c2ccc(C(=O)[N-]c3ccc(N(C)C)cc3)cc12 (optimized conformer: 60.69783808463153 kcal/mol)

>  <smiles>  (21) 
Cc1cnc(C)c2ccc(C(=O)Nc3ccc(N(C)C)cc3)cc12

>  <score_type>  (21) 
oracle

>  <origin>  (21) 
adgpu

>  <m_score__min__energy>  (21) 
-10.779999999999999

>  <m_primary>  (21) 
energy

$$$$
21:0
     RDKit          3D

 50 51  0  0  0  0  0  0  0  0999 V2000
   -6.4620   17.8980  -35.6870 H   0  0  0  0  0  0  0  0  0  0  0  0
   -5.8270   17.7790  -34.9330 O   0  0  0  0  0  0  0  0  0  0  0  0
   -6.1440   18.7590  -33.9790 C   0  0  1  0  0  0  0  0  0  0  0  0
   -6.4941   19.6726  -34.4818 H   0  0  0  0  0  0  0  0  0  0  0  0
   -7.2540   18.2260  -33.0690 C   0  0  0  0  0  0  0  0  0  0  0  0
   -8.1960   18.1931  -33.6361 H   0  0  0  0  0  0  0  0  0  0  0  0
   -6.9668   17.2206  -32.7274 H   0  0  0  0  0  0  0  0  0  0  0  0
   -7.4420   19.0970  -31.8620 C   0  0  0  0  0  0  0  0  0  0  0  0
   -8.5370   19.0710  -31.2420 O   0  0  0  0  0  0  0  0  0  0  0  0
   -6.3820   19.8540  -31.3470 O   0  0  0  0  0  0  0  0  0  0  0  0
   -5.2030   20.1770  -32.0880 C   0  0  2  0  0  0  0  0  0  0  0  0
   -4.3424   20.1982  -31.4033 H   0  0  0  0  0  0  0  0  0  0  0  0
   -5.3820   21.5400  -32.7190 C   0  0  0  0  0  0  0  0  0  0  0  0
   -6.0882   21.6226  -33.5583 H   0  0  0  0  0  0  0  0  0  0  0  0
   -4.7450   22.6560  -32.3330 C   0  0  0  0  0  0  0  0  0  0  0  0
   -5.0049   23.5952  -32.8433 H   0  0  0  0  0  0  0  0  0  0  0  0
   -3.7200   22.7130  -31.2720 C   0  0  0  0  0  0  0  0  0  0  0  0
   -2.8950   21.6010  -31.0370 C   0  0  0  0  0  0  0  0  0  0  0  0
   -3.0653   20.6674  -31.5933 H   0  0  0  0  0  0  0  0  0  0  0  0
   -1.8610   21.6720  -30.1030 C   0  0  0  0  0  0  0  0  0  0  0  0
   -0.8460   20.2720  -29.8130 Cl  0  0  0  0  0  0  0  0  0  0  0  0
   -1.6210   22.8630  -29.4150 C   0  0  0  0  0  0  0  0  0  0  0  0
   -0.8004   22.9168  -28.6844 H   0  0  0  0  0  0  0  0  0  0  0  0
   -2.4230   23.9950  -29.6510 C   0  0  0  0  0  0  0  0  0  0  0  0
   -2.2080   25.2130  -28.9870 O   0  0  0  0  0  0  0  0  0  0  0  0
   -1.7320   25.3310  -27.6510 C   0  0  0  0  0  0  0  0  0  0  0  0
   -2.5543   25.1271  -26.9494 H   0  0  0  0  0  0  0  0  0  0  0  0
   -0.9208   24.6068  -27.4855 H   0  0  0  0  0  0  0  0  0  0  0  0
   -1.3530   26.3503  -27.4855 H   0  0  0  0  0  0  0  0  0  0  0  0
   -3.4800   23.9140  -30.5720 C   0  0  0  0  0  0  0  0  0  0  0  0
   -4.2790   25.0470  -30.7760 O   0  0  0  0  0  0  0  0  0  0  0  0
   -5.4610   25.3120  -30.0190 C   0  0  0  0  0  0  0  0  0  0  0  0
   -5.6773   26.3899  -30.0561 H   0  0  0  0  0  0  0  0  0  0  0  0
   -5.2919   24.9872  -28.9817 H   0  0  0  0  0  0  0  0  0  0  0  0
   -6.6620   24.5400  -30.5820 C   0  0  0  0  0  0  0  0  0  0  0  0
   -6.4940   24.3617  -31.6544 H   0  0  0  0  0  0  0  0  0  0  0  0
   -7.5603   25.1500  -30.4060 H   0  0  0  0  0  0  0  0  0  0  0  0
   -6.8790   23.1790  -29.8830 C   0  0  0  0  0  0  0  0  0  0  0  0
   -7.1657   23.3661  -28.8376 H   0  0  0  0  0  0  0  0  0  0  0  0
   -5.9351   22.6198  -29.9625 H   0  0  0  0  0  0  0  0  0  0  0  0
   -7.9710   22.3200  -30.5410 C   0  0  0  0  0  0  0  0  0  0  0  0
   -8.8452   22.2926  -29.8738 H   0  0  0  0  0  0  0  0  0  0  0  0
   -7.5480   21.3178  -30.7042 H   0  0  0  0  0  0  0  0  0  0  0  0
   -8.4130   22.8570  -31.9010 C   0  0  0  0  0  0  0  0  0  0  0  0
   -9.1059   23.6988  -31.7552 H   0  0  0  0  0  0  0  0  0  0  0  0
   -7.5322   23.2002  -32.4636 H   0  0  0  0  0  0  0  0  0  0  0  0
   -8.9192   22.0587  -32.4636 H   0  0  0  0  0  0  0  0  0  0  0  0
   -4.8940   19.1080  -33.1550 C   0  0  0  0  0  0  0  0  0  0  0  0
   -4.1156   19.4917  -33.8309 H   0  0  0  0  0  0  0  0  0  0  0  0
   -4.5520   18.1967  -32.6426 H   0  0  0  0  0  0  0  0  0  0  0  0
  1  2  1  0
  2  3  1  0
  3  4  1  6
  3  5  1  0
  5  6  1  0
  5  7  1  0
  5  8  1  0
  8  9  2  0
  8 10  1  0
 10 11  1  0
 11 12  1  1
 11 13  1  0
 13 14  1  0
 13 15  2  0
 15 16  1  0
 15 17  1  0
 17 18  2  0
 18 19  1  0
 18 20  1  0
 20 21  1  0
 20 22  2  0
 22 23  1  0
 22 24  1  0
 24 25  1  0
 25 26  1  0
 26 27  1  0
 26 28  1  0
 26 29  1  0
 24 30  2  0
 30 31  1  0
 31 32  1  0
 32 33  1  0
 32 34  1  0
 32 35  1  0
 35 36  1  0
 35 37  1  0
 35 38  1  0
 38 39  1  0
 38 40  1  0
 38 41  1  0
 41 42  1  0
 41 43  1  0
 41 44  1  0
 44 45  1  0
 44 46  1  0
 44 47  1  0
 11 48  1  0
 48 49  1  0
 48 50  1  0
 48  3  1  0
 30 17  1  0
M  END
>  <UniqueID>  (22) 
19

>  <SMILES>  (22) 
CCCCCOc1c(/C=C\[C@@H]2C[C@@H](O)CC(=O)O2)cc(Cl)cc1OC

>  <Energy>  (22) 
53.3195984595661

>  <Genealogy>  (22) 
CCCCCOc1c(C=C[C@@H]2C[C@@H](O)CC(=O)O2)cc(Cl)cc1OC (chirality)
CCCCCOc1c(/C=C\[C@@H]2C[C@@H](O)CC(=O)O2)cc(Cl)cc1OC (cis-trans isomerization)
CCCCCOc1c(/C=C\[C@@H]2C[C@@H](O)CC(=O)O2)cc(Cl)cc1OC (3D coordinates assigned)
CCCCCOc1c(/C=C\[C@@H]2C[C@@H](O)CC(=O)O2)cc(Cl)cc1OC (nonaromatic ring conformer: 53.3195984595661 kcal/mol)

>  <smiles>  (22) 
CCCCCOc1c(C=CC2CC(O)CC(=O)O2)cc(Cl)cc1OC

>  <score_type>  (22) 
oracle

>  <origin>  (22) 
adgpu

>  <m_score__min__energy>  (22) 
-8.7699999999999996

>  <m_primary>  (22) 
energy

$$$$
22:0
     RDKit          3D

 32 34  0  0  0  0  0  0  0  0999 V2000
   -7.4051   24.0264  -32.2470 H   0  0  0  0  0  0  0  0  0  0  0  0
   -6.4440   24.0720  -31.7140 C   0  0  0  0  0  0  0  0  0  0  0  0
   -5.8520   25.3980  -30.8590 S   0  0  0  0  0  0  0  0  0  0  0  0
   -4.4460   24.6070  -30.4130 C   0  0  0  0  0  0  0  0  0  0  0  0
   -3.4970   25.1630  -29.7170 N   0  0  0  0  0  0  0  0  0  0  0  0
   -2.2840   24.5340  -29.2710 C   0  0  0  0  0  0  0  0  0  0  0  0
   -1.4520   25.2340  -28.3880 C   0  0  0  0  0  0  0  0  0  0  0  0
   -1.7322   26.2459  -28.0602 H   0  0  0  0  0  0  0  0  0  0  0  0
   -0.2700   24.6570  -27.9210 C   0  0  0  0  0  0  0  0  0  0  0  0
    0.3854   25.2221  -27.2419 H   0  0  0  0  0  0  0  0  0  0  0  0
    0.0830   23.3630  -28.3140 C   0  0  0  0  0  0  0  0  0  0  0  0
    1.0261   22.9204  -27.9610 H   0  0  0  0  0  0  0  0  0  0  0  0
   -0.7630   22.6270  -29.1580 C   0  0  0  0  0  0  0  0  0  0  0  0
   -0.3800   21.2440  -29.5940 C   0  0  0  0  0  0  0  0  0  0  0  0
   -0.2059   20.6154  -28.7083 H   0  0  0  0  0  0  0  0  0  0  0  0
   -1.1922   20.8115  -30.1967 H   0  0  0  0  0  0  0  0  0  0  0  0
    0.5390   21.2909  -30.1967 H   0  0  0  0  0  0  0  0  0  0  0  0
   -1.9430   23.2170  -29.6390 C   0  0  0  0  0  0  0  0  0  0  0  0
   -2.6055   22.6475  -30.3074 H   0  0  0  0  0  0  0  0  0  0  0  0
   -4.3930   23.3510  -30.9060 N   0  0  0  0  0  0  0  0  0  0  0  0
   -5.5040   23.0390  -31.6300 C   0  0  0  0  0  0  0  0  0  0  0  0
   -5.6660   21.6990  -32.2520 C   0  0  0  0  0  0  0  0  0  0  0  0
   -4.5310   20.9920  -32.6950 C   0  0  0  0  0  0  0  0  0  0  0  0
   -3.5318   21.4365  -32.5763 H   0  0  0  0  0  0  0  0  0  0  0  0
   -4.6620   19.7310  -33.2840 C   0  0  0  0  0  0  0  0  0  0  0  0
   -3.7676   19.1881  -33.6237 H   0  0  0  0  0  0  0  0  0  0  0  0
   -5.9270   19.1590  -33.4420 C   0  0  0  0  0  0  0  0  0  0  0  0
   -6.1040   17.4360  -34.2470 Br  0  0  0  0  0  0  0  0  0  0  0  0
   -7.0620   19.8510  -33.0130 C   0  0  0  0  0  0  0  0  0  0  0  0
   -8.0581   19.4019  -33.1400 H   0  0  0  0  0  0  0  0  0  0  0  0
   -6.9370   21.1120  -32.4230 C   0  0  0  0  0  0  0  0  0  0  0  0
   -7.8364   21.6504  -32.0896 H   0  0  0  0  0  0  0  0  0  0  0  0
  1  2  1  0
  2  3  1  0
  3  4  1  0
  4  5  2  0
  5  6  1  0
  6  7  2  0
  7  8  1  0
  7  9  1  0
  9 10  1  0
  9 11  2  0
 11 12  1  0
 11 13  1  0
 13 14  1  0
 14 15  1  0
 14 16  1  0
 14 17  1  0
 13 18  2  0
 18 19  1  0
  4 20  1  0
 20 21  1  0
 21 22  1  0
 22 23  2  0
 23 24  1  0
 23 25  1  0
 25 26  1  0
 25 27  2  0
 27 28  1  0
 27 29  1  0
 29 30  1  0
 29 31  2  0
 31 32  1  0
 21  2  2  0
 31 22  1  0
 18  6  1  0
M  CHG  1  20  -1
M  END
>  <UniqueID>  (23) 
20

>  <SMILES>  (23) 
Cc1cccc(/N=c2\[n-]c(-c3ccc(Br)cc3)cs2)c1

>  <Energy>  (23) 
71.27307505662229

>  <Genealogy>  (23) 
Cc1cccc(N=c2[n-]c(-c3ccc(Br)cc3)cs2)c1 (protonated)
Cc1cccc(/N=c2\[n-]c(-c3ccc(Br)cc3)cs2)c1 (cis-trans isomerization)
Cc1cccc(/N=c2\[n-]c(-c3ccc(Br)cc3)cs2)c1 (3D coordinates assigned)
Cc1cccc(/N=c2\[n-]c(-c3ccc(Br)cc3)cs2)c1 (optimized conformer: 71.27307505662229 kcal/mol)

>  <smiles>  (23) 
Cc1cccc(N=c2[nH]c(-c3ccc(Br)cc3)cs2)c1

>  <score_type>  (23) 
oracle

>  <origin>  (23) 
adgpu

>  <m_score__min__energy>  (23) 
-9.1500000000000004

>  <m_primary>  (23) 
energy

$$$$
23:0
     RDKit          3D

 40 43  0  0  0  0  0  0  0  0999 V2000
   -9.0260   21.5930  -30.1680 O   0  0  0  0  0  0  0  0  0  0  0  0
   -8.8700   21.5730  -31.6640 S   0  0  0  0  0  0  0  0  0  0  0  0
  -10.2290   21.4760  -32.2970 O   0  0  0  0  0  0  0  0  0  0  0  0
   -8.1100   23.0470  -32.1710 N   0  0  0  0  0  0  0  0  0  0  0  0
   -6.9670   23.6420  -31.5440 C   0  0  0  0  0  0  0  0  0  0  0  0
   -7.0510   24.3350  -30.3260 C   0  0  0  0  0  0  0  0  0  0  0  0
   -5.9030   24.8830  -29.7530 C   0  0  0  0  0  0  0  0  0  0  0  0
   -4.6650   24.7270  -30.3990 C   0  0  0  0  0  0  0  0  0  0  0  0
   -3.4840   25.2690  -29.8740 O   0  0  0  0  0  0  0  0  0  0  0  0
   -2.4680   24.5380  -29.2390 C   0  0  0  0  0  0  0  0  0  0  0  0
   -2.7460   23.2150  -28.8240 C   0  0  0  0  0  0  0  0  0  0  0  0
   -1.7670   22.4450  -28.1720 C   0  0  0  0  0  0  0  0  0  0  0  0
   -0.5270   23.0320  -27.9400 C   0  0  0  0  0  0  0  0  0  0  0  0
    0.5970   22.5330  -27.3290 C   0  0  0  0  0  0  0  0  0  0  0  0
    1.5060   23.5800  -27.3820 C   0  0  0  0  0  0  0  0  0  0  0  0
    2.7980   23.5160  -26.8710 O   0  0  0  0  0  0  0  0  0  0  0  0
    1.0020   24.6820  -27.9860 N   0  0  0  0  0  0  0  0  0  0  0  0
   -0.2500   24.3190  -28.3210 C   0  0  0  0  0  0  0  0  0  0  0  0
   -1.2000   25.1060  -28.9700 C   0  0  0  0  0  0  0  0  0  0  0  0
   -4.6130   24.0740  -31.5900 N   0  0  0  0  0  0  0  0  0  0  0  0
   -5.7200   23.5340  -32.1670 C   0  0  0  0  0  0  0  0  0  0  0  0
   -7.9060   20.1900  -32.1700 C   0  0  0  0  0  0  0  0  0  0  0  0
   -8.2490   18.9000  -31.7390 C   0  0  0  0  0  0  0  0  0  0  0  0
   -7.4930   17.7990  -32.1510 C   0  0  0  0  0  0  0  0  0  0  0  0
   -6.3910   17.9780  -32.9910 C   0  0  0  0  0  0  0  0  0  0  0  0
   -5.6610   16.9070  -33.3890 F   0  0  0  0  0  0  0  0  0  0  0  0
   -6.0420   19.2640  -33.4200 C   0  0  0  0  0  0  0  0  0  0  0  0
   -4.9710   19.4420  -34.2340 F   0  0  0  0  0  0  0  0  0  0  0  0
   -6.7960   20.3680  -33.0090 C   0  0  0  0  0  0  0  0  0  0  0  0
   -8.0229   24.4461  -29.8229 H   0  0  0  0  0  0  0  0  0  0  0  0
   -5.9666   25.4331  -28.8026 H   0  0  0  0  0  0  0  0  0  0  0  0
   -3.7399   22.7833  -29.0136 H   0  0  0  0  0  0  0  0  0  0  0  0
   -1.9745   21.4121  -27.8556 H   0  0  0  0  0  0  0  0  0  0  0  0
    0.7433   21.5322  -26.8965 H   0  0  0  0  0  0  0  0  0  0  0  0
    3.5980   23.6620  -27.4730 H   0  0  0  0  0  0  0  0  0  0  0  0
   -0.9703   26.1405  -29.2651 H   0  0  0  0  0  0  0  0  0  0  0  0
   -5.6337   23.0090  -33.1298 H   0  0  0  0  0  0  0  0  0  0  0  0
   -9.1144   18.7546  -31.0757 H   0  0  0  0  0  0  0  0  0  0  0  0
   -7.7664   16.7886  -31.8129 H   0  0  0  0  0  0  0  0  0  0  0  0
   -6.5180   21.3780  -33.3444 H   0  0  0  0  0  0  0  0  0  0  0  0
  1  2  2  0
  2  3  2  0
  2  4  1  0
  4  5  1  0
  5  6  2  0
  6  7  1  0
  7  8  2  0
  8  9  1  0
  9 10  1  0
 10 11  2  0
 11 12  1  0
 12 13  2  0
 13 14  1  0
 14 15  2  0
 15 16  1  0
 15 17  1  0
 17 18  1  0
 18 19  2  0
  8 20  1  0
 20 21  2  0
  2 22  1  0
 22 23  2  0
 23 24  1  0
 24 25  2  0
 25 26  1  0
 25 27  1  0
 27 28  1  0
 27 29  2  0
 21  5  1  0
 29 22  1  0
 19 10  1  0
 18 13  1  0
  6 30  1  0
  7 31  1  0
 11 32  1  0
 12 33  1  0
 14 34  1  0
 16 35  1  0
 19 36  1  0
 21 37  1  0
 23 38  1  0
 24 39  1  0
 29 40  1  0
M  CHG  2   4  -1  17  -1
M  END
>  <UniqueID>  (24) 
21

>  <SMILES>  (24) 
O=S(=O)([N-]c1ccc(Oc2ccc3cc(O)[n-]c3c2)nc1)c1ccc(F)c(F)c1

>  <Energy>  (24) 
86.54504670455873

>  <Genealogy>  (24) 
O=S(=O)([N-]c1ccc(Oc2ccc3cc(O)[n-]c3c2)nc1)c1ccc(F)c(F)c1 (protonated)
O=S(=O)([N-]c1ccc(Oc2ccc3cc(O)[n-]c3c2)nc1)c1ccc(F)c(F)c1 (3D coordinates assigned)
O=S(=O)([N-]c1ccc(Oc2ccc3cc(O)[n-]c3c2)nc1)c1ccc(F)c(F)c1 (optimized conformer: 86.54504670455873 kcal/mol)

>  <smiles>  (24) 
O=S(=O)(Nc1ccc(Oc2ccc3cc(O)[nH]c3c2)nc1)c1ccc(F)c(F)c1

>  <score_type>  (24) 
oracle

>  <origin>  (24) 
adgpu

>  <m_score__min__energy>  (24) 
-10.34

>  <m_primary>  (24) 
energy

$$$$
24:0
     RDKit          3D

 29 29  0  0  0  0  0  0  0  0999 V2000
   -6.8090   17.8720  -32.4490 C   0  0  0  0  0  0  0  0  0  0  0  0
   -7.9860   18.8490  -32.5660 C   0  0  0  0  0  0  0  0  0  0  0  0
   -9.1130   18.4740  -31.5950 C   0  0  0  0  0  0  0  0  0  0  0  0
   -7.5320   20.2810  -32.3490 C   0  0  0  0  0  0  0  0  0  0  0  0
   -8.4550   21.2550  -31.9360 C   0  0  0  0  0  0  0  0  0  0  0  0
   -8.0510   22.5780  -31.7330 C   0  0  0  0  0  0  0  0  0  0  0  0
   -6.7120   22.9580  -31.9440 C   0  0  0  0  0  0  0  0  0  0  0  0
   -6.2670   24.3120  -31.7380 N   0  0  0  0  0  0  0  0  0  0  0  0
   -5.3210   24.8370  -30.3800 S   0  0  0  0  0  0  0  0  0  0  0  0
   -5.1470   23.5150  -29.2010 C   0  0  0  0  0  0  0  0  0  0  0  0
   -6.0300   25.9810  -29.7090 O   0  0  0  0  0  0  0  0  0  0  0  0
   -3.9720   25.3110  -30.8420 O   0  0  0  0  0  0  0  0  0  0  0  0
   -5.7860   21.9800  -32.3490 C   0  0  0  0  0  0  0  0  0  0  0  0
   -4.4870   22.3070  -32.5580 F   0  0  0  0  0  0  0  0  0  0  0  0
   -6.1930   20.6580  -32.5520 C   0  0  0  0  0  0  0  0  0  0  0  0
   -6.5886   17.6890  -31.3870 H   0  0  0  0  0  0  0  0  0  0  0  0
   -7.0709   16.9222  -32.9381 H   0  0  0  0  0  0  0  0  0  0  0  0
   -5.9236   18.3043  -32.9381 H   0  0  0  0  0  0  0  0  0  0  0  0
   -8.3841   18.7744  -33.5887 H   0  0  0  0  0  0  0  0  0  0  0  0
   -8.7595   18.5916  -30.5600 H   0  0  0  0  0  0  0  0  0  0  0  0
   -9.9773   19.1330  -31.7644 H   0  0  0  0  0  0  0  0  0  0  0  0
   -9.4102   17.4285  -31.7644 H   0  0  0  0  0  0  0  0  0  0  0  0
   -9.5057   20.9746  -31.7706 H   0  0  0  0  0  0  0  0  0  0  0  0
   -8.7857   23.3284  -31.4056 H   0  0  0  0  0  0  0  0  0  0  0  0
   -6.5880   25.0580  -32.3940 H   0  0  0  0  0  0  0  0  0  0  0  0
   -5.2008   23.9238  -28.1812 H   0  0  0  0  0  0  0  0  0  0  0  0
   -5.9568   22.7849  -29.3466 H   0  0  0  0  0  0  0  0  0  0  0  0
   -4.1759   23.0193  -29.3466 H   0  0  0  0  0  0  0  0  0  0  0  0
   -5.4582   19.9053  -32.8738 H   0  0  0  0  0  0  0  0  0  0  0  0
  1  2  1  0
  2  3  1  0
  2  4  1  0
  4  5  2  0
  5  6  1  0
  6  7  2  0
  7  8  1  0
  8  9  1  0
  9 10  1  0
  9 11  2  0
  9 12  2  0
  7 13  1  0
 13 14  1  0
 13 15  2  0
 15  4  1  0
  1 16  1  0
  1 17  1  0
  1 18  1  0
  2 19  1  0
  3 20  1  0
  3 21  1  0
  3 22  1  0
  5 23  1  0
  6 24  1  0
  8 25  1  0
 10 26  1  0
 10 27  1  0
 10 28  1  0
 15 29  1  0
M  END
>  <UniqueID>  (25) 
22

>  <SMILES>  (25) 
CC(C)c1ccc(NS(C)(=O)=O)c(F)c1

>  <Energy>  (25) 
22.65586355986569

>  <Genealogy>  (25) 
CC(C)c1ccc(NS(C)(=O)=O)c(F)c1 (3D coordinates assigned)
CC(C)c1ccc(NS(C)(=O)=O)c(F)c1 (optimized conformer: 22.65586355986569 kcal/mol)

>  <smiles>  (25) 
CC(C)c1ccc(NS(C)(=O)=O)c(F)c1

>  <score_type>  (25) 
oracle

>  <origin>  (25) 
adgpu

>  <m_score__min__energy>  (25) 
-7.2000000000000002

>  <m_primary>  (25) 
energy

$$$$
25:0
     RDKit          3D

 62 66  0  0  0  0  0  0  0  0999 V2000
    0.5310   19.3680  -31.4790 C   0  0  0  0  0  0  0  0  0  0  0  0
    0.4170   20.5470  -30.6910 O   0  0  0  0  0  0  0  0  0  0  0  0
   -0.7540   20.9770  -30.0470 C   0  0  0  0  0  0  0  0  0  0  0  0
   -1.3510   22.2100  -30.3740 C   0  0  0  0  0  0  0  0  0  0  0  0
   -2.5370   22.6290  -29.7560 C   0  0  0  0  0  0  0  0  0  0  0  0
   -3.1240   23.9500  -30.1090 C   0  0  0  0  0  0  0  0  0  0  0  0
   -2.7970   24.9630  -29.4350 O   0  0  0  0  0  0  0  0  0  0  0  0
   -4.0720   24.1210  -31.1730 N   0  0  0  0  0  0  0  0  0  0  0  0
   -5.1380   23.2260  -31.5110 C   0  0  0  0  0  0  0  0  0  0  0  0
   -6.3950   23.4820  -31.2010 O   0  0  0  0  0  0  0  0  0  0  0  0
   -7.1060   22.4390  -31.5510 C   0  0  0  0  0  0  0  0  0  0  0  0
   -8.4770   22.2590  -31.3890 C   0  0  0  0  0  0  0  0  0  0  0  0
   -9.0370   21.0440  -31.8220 C   0  0  0  0  0  0  0  0  0  0  0  0
   -8.2230   20.0490  -32.4070 C   0  0  0  0  0  0  0  0  0  0  0  0
   -6.8410   20.2610  -32.5650 C   0  0  0  0  0  0  0  0  0  0  0  0
   -6.3110   21.4740  -32.1180 C   0  0  0  0  0  0  0  0  0  0  0  0
   -5.0220   21.9750  -32.1250 C   0  0  0  0  0  0  0  0  0  0  0  0
   -3.8260   21.3250  -32.6850 C   0  0  0  0  0  0  0  0  0  0  0  0
   -2.6640   21.9480  -32.9600 N   0  0  0  0  0  0  0  0  0  0  0  0
   -1.8430   21.0170  -33.4240 N   0  0  0  0  0  0  0  0  0  0  0  0
   -2.5440   19.8660  -33.4230 C   0  0  0  0  0  0  0  0  0  0  0  0
   -1.9970   18.5370  -33.8370 C   0  0  0  0  0  0  0  0  0  0  0  0
   -2.8790   17.8980  -34.7590 O   0  0  0  0  0  0  0  0  0  0  0  0
   -4.0690   17.2290  -34.4230 C   0  0  0  0  0  0  0  0  0  0  0  0
   -5.2640   17.9560  -34.4560 C   0  0  0  0  0  0  0  0  0  0  0  0
   -6.4820   17.3310  -34.1720 C   0  0  0  0  0  0  0  0  0  0  0  0
   -6.5180   15.9700  -33.8680 C   0  0  0  0  0  0  0  0  0  0  0  0
   -5.3280   15.2320  -33.7970 C   0  0  0  0  0  0  0  0  0  0  0  0
   -5.3600   13.7580  -33.5140 C   0  0  0  0  0  0  0  0  0  0  0  0
   -4.1050   15.8670  -34.0610 C   0  0  0  0  0  0  0  0  0  0  0  0
   -3.7580   20.0530  -32.9760 O   0  0  0  0  0  0  0  0  0  0  0  0
   -3.1340   21.7950  -28.8010 C   0  0  0  0  0  0  0  0  0  0  0  0
   -2.5760   20.5460  -28.4850 C   0  0  0  0  0  0  0  0  0  0  0  0
   -3.1960   19.6630  -27.5850 O   0  0  0  0  0  0  0  0  0  0  0  0
   -2.6620   19.3000  -26.3160 C   0  0  0  0  0  0  0  0  0  0  0  0
   -1.3610   20.1540  -29.0670 C   0  0  0  0  0  0  0  0  0  0  0  0
   -0.8080   18.9370  -28.6260 O   0  0  0  0  0  0  0  0  0  0  0  0
    0.3910   18.7850  -27.8720 C   0  0  0  0  0  0  0  0  0  0  0  0
    0.6157   18.4924  -30.8186 H   0  0  0  0  0  0  0  0  0  0  0  0
   -0.3612   19.2636  -32.1138 H   0  0  0  0  0  0  0  0  0  0  0  0
    1.4267   19.4365  -32.1138 H   0  0  0  0  0  0  0  0  0  0  0  0
   -0.8778   22.8559  -31.1282 H   0  0  0  0  0  0  0  0  0  0  0  0
   -9.1025   23.0426  -30.9365 H   0  0  0  0  0  0  0  0  0  0  0  0
  -10.1163   20.8673  -31.7043 H   0  0  0  0  0  0  0  0  0  0  0  0
   -8.6723   19.1022  -32.7413 H   0  0  0  0  0  0  0  0  0  0  0  0
   -6.1984   19.4962  -33.0257 H   0  0  0  0  0  0  0  0  0  0  0  0
   -1.0170   18.6821  -34.3150 H   0  0  0  0  0  0  0  0  0  0  0  0
   -1.8939   17.9016  -32.9450 H   0  0  0  0  0  0  0  0  0  0  0  0
   -5.2451   19.0268  -34.7071 H   0  0  0  0  0  0  0  0  0  0  0  0
   -7.4146   17.9141  -34.1883 H   0  0  0  0  0  0  0  0  0  0  0  0
   -7.4826   15.4745  -33.6835 H   0  0  0  0  0  0  0  0  0  0  0  0
   -5.3636   13.5935  -32.4264 H   0  0  0  0  0  0  0  0  0  0  0  0
   -6.2679   13.3198  -33.9541 H   0  0  0  0  0  0  0  0  0  0  0  0
   -4.4720   13.2808  -33.9541 H   0  0  0  0  0  0  0  0  0  0  0  0
   -3.1669   15.2976  -33.9849 H   0  0  0  0  0  0  0  0  0  0  0  0
   -4.0522   22.1234  -28.2921 H   0  0  0  0  0  0  0  0  0  0  0  0
   -3.2889   19.7262  -25.5189 H   0  0  0  0  0  0  0  0  0  0  0  0
   -2.6472   18.2039  -26.2244 H   0  0  0  0  0  0  0  0  0  0  0  0
   -1.6373   19.6895  -26.2244 H   0  0  0  0  0  0  0  0  0  0  0  0
    0.1550   18.8149  -26.7980 H   0  0  0  0  0  0  0  0  0  0  0  0
    0.8590   17.8203  -28.1179 H   0  0  0  0  0  0  0  0  0  0  0  0
    1.0849   19.6024  -28.1179 H   0  0  0  0  0  0  0  0  0  0  0  0
  1  2  1  0
  2  3  1  0
  3  4  2  0
  4  5  1  0
  5  6  1  0
  6  7  2  0
  6  8  1  0
  8  9  1  0
  9 10  1  0
 10 11  1  0
 11 12  2  0
 12 13  1  0
 13 14  2  0
 14 15  1  0
 15 16  2  0
 16 17  1  0
 17 18  1  0
 18 19  2  0
 19 20  1  0
 20 21  2  0
 21 22  1  0
 22 23  1  0
 23 24  1  0
 24 25  2  0
 25 26  1  0
 26 27  2  0
 27 28  1  0
 28 29  1  0
 28 30  2  0
 21 31  1  0
  5 32  2  0
 32 33  1  0
 33 34  1  0
 34 35  1  0
 33 36  2  0
 36 37  1  0
 37 38  1  0
 36  3  1  0
 17  9  2  0
 31 18  1  0
 16 11  1  0
 30 24  1  0
  1 39  1  0
  1 40  1  0
  1 41  1  0
  4 42  1  0
 12 43  1  0
 13 44  1  0
 14 45  1  0
 15 46  1  0
 22 47  1  0
 22 48  1  0
 25 49  1  0
 26 50  1  0
 27 51  1  0
 29 52  1  0
 29 53  1  0
 29 54  1  0
 30 55  1  0
 32 56  1  0
 35 57  1  0
 35 58  1  0
 35 59  1  0
 38 60  1  0
 38 61  1  0
 38 62  1  0
M  CHG  1   8  -1
M  END
>  <UniqueID>  (26) 
23

>  <SMILES>  (26) 
COc1cc(C(=O)[N-]c2oc3ccccc3c2-c2nnc(COc3cccc(C)c3)o2)cc(OC)c1OC

>  <Energy>  (26) 
139.30247505022407

>  <Genealogy>  (26) 
COc1cc(C(=O)[N-]c2oc3ccccc3c2-c2nnc(COc3cccc(C)c3)o2)cc(OC)c1OC (protonated)
COc1cc(C(=O)[N-]c2oc3ccccc3c2-c2nnc(COc3cccc(C)c3)o2)cc(OC)c1OC (3D coordinates assigned)
COc1cc(C(=O)[N-]c2oc3ccccc3c2-c2nnc(COc3cccc(C)c3)o2)cc(OC)c1OC (optimized conformer: 139.30247505022407 kcal/mol)

>  <smiles>  (26) 
COc1cc(C(=O)Nc2oc3ccccc3c2-c2nnc(COc3cccc(C)c3)o2)cc(OC)c1OC

>  <score_type>  (26) 
oracle

>  <origin>  (26) 
adgpu

>  <m_score__min__energy>  (26) 
-10.52

>  <m_primary>  (26) 
energy

$$$$
26:0
     RDKit          3D

 41 43  0  0  0  0  0  0  0  0999 V2000
   -2.5740   19.2640  -26.1200 N   0  0  0  0  0  0  0  0  0  0  0  0
   -2.1650   19.8320  -27.0420 C   0  0  0  0  0  0  0  0  0  0  0  0
   -1.6540   20.5380  -28.1870 C   0  0  0  0  0  0  0  0  0  0  0  0
   -0.7690   19.9020  -29.0640 C   0  0  0  0  0  0  0  0  0  0  0  0
   -0.2560   20.5950  -30.1630 C   0  0  0  0  0  0  0  0  0  0  0  0
   -0.6310   21.9210  -30.3950 C   0  0  0  0  0  0  0  0  0  0  0  0
   -1.5340   22.5680  -29.5290 C   0  0  0  0  0  0  0  0  0  0  0  0
   -1.9000   23.9470  -29.7140 N   0  0  0  0  0  0  0  0  0  0  0  0
   -3.2230   24.4530  -29.4950 C   0  0  0  0  0  0  0  0  0  0  0  0
   -3.8330   24.1800  -28.4280 O   0  0  0  0  0  0  0  0  0  0  0  0
   -3.8650   25.2690  -30.4800 N   0  0  0  0  0  0  0  0  0  0  0  0
   -5.3150   25.3610  -30.6420 C   0  0  0  0  0  0  0  0  0  0  0  0
   -5.8620   24.0720  -31.1980 C   0  0  0  0  0  0  0  0  0  0  0  0
   -4.9950   23.0910  -31.6970 C   0  0  0  0  0  0  0  0  0  0  0  0
   -5.5130   21.9480  -32.3090 C   0  0  0  0  0  0  0  0  0  0  0  0
   -6.8970   21.8020  -32.4340 C   0  0  0  0  0  0  0  0  0  0  0  0
   -7.4130   20.6700  -33.0780 O   0  0  0  0  0  0  0  0  0  0  0  0
   -6.8140   19.4020  -33.0720 C   0  0  0  0  0  0  0  0  0  0  0  0
   -6.9330   18.6080  -31.9250 C   0  0  0  0  0  0  0  0  0  0  0  0
   -6.3360   17.3450  -31.8720 C   0  0  0  0  0  0  0  0  0  0  0  0
   -5.6040   16.8690  -32.9650 C   0  0  0  0  0  0  0  0  0  0  0  0
   -4.8500   15.2870  -32.8970 Cl  0  0  0  0  0  0  0  0  0  0  0  0
   -5.4620   17.6630  -34.1080 C   0  0  0  0  0  0  0  0  0  0  0  0
   -6.0610   18.9250  -34.1620 C   0  0  0  0  0  0  0  0  0  0  0  0
   -7.7230   22.7480  -31.9110 N   0  0  0  0  0  0  0  0  0  0  0  0
   -7.2450   23.8630  -31.2980 C   0  0  0  0  0  0  0  0  0  0  0  0
   -2.0320   21.8680  -28.4180 C   0  0  0  0  0  0  0  0  0  0  0  0
   -0.4771   18.8561  -28.8882 H   0  0  0  0  0  0  0  0  0  0  0  0
    0.4452   20.0955  -30.8478 H   0  0  0  0  0  0  0  0  0  0  0  0
   -0.2186   22.4627  -31.2590 H   0  0  0  0  0  0  0  0  0  0  0  0
   -1.1870   24.6050  -30.1020 H   0  0  0  0  0  0  0  0  0  0  0  0
   -5.7775   25.5595  -29.6639 H   0  0  0  0  0  0  0  0  0  0  0  0
   -5.5457   26.1785  -31.3409 H   0  0  0  0  0  0  0  0  0  0  0  0
   -3.9065   23.2213  -31.6066 H   0  0  0  0  0  0  0  0  0  0  0  0
   -4.8368   21.1684  -32.6898 H   0  0  0  0  0  0  0  0  0  0  0  0
   -7.5003   18.9806  -31.0594 H   0  0  0  0  0  0  0  0  0  0  0  0
   -6.4420   16.7247  -30.9698 H   0  0  0  0  0  0  0  0  0  0  0  0
   -4.8788   17.2942  -34.9646 H   0  0  0  0  0  0  0  0  0  0  0  0
   -5.9435   19.5485  -35.0606 H   0  0  0  0  0  0  0  0  0  0  0  0
   -7.9439   24.6023  -30.8798 H   0  0  0  0  0  0  0  0  0  0  0  0
   -2.7240   22.3672  -27.7237 H   0  0  0  0  0  0  0  0  0  0  0  0
  1  2  3  0
  2  3  1  0
  3  4  2  0
  4  5  1  0
  5  6  2  0
  6  7  1  0
  7  8  1  0
  8  9  1  0
  9 10  2  0
  9 11  1  0
 11 12  1  0
 12 13  1  0
 13 14  2  0
 14 15  1  0
 15 16  2  0
 16 17  1  0
 17 18  1  0
 18 19  2  0
 19 20  1  0
 20 21  2  0
 21 22  1  0
 21 23  1  0
 23 24  2  0
 16 25  1  0
 25 26  2  0
  7 27  2  0
 27  3  1  0
 26 13  1  0
 24 18  1  0
  4 28  1  0
  5 29  1  0
  6 30  1  0
  8 31  1  0
 12 32  1  0
 12 33  1  0
 14 34  1  0
 15 35  1  0
 19 36  1  0
 20 37  1  0
 23 38  1  0
 24 39  1  0
 26 40  1  0
 27 41  1  0
M  CHG  1  11  -1
M  END
>  <UniqueID>  (27) 
24

>  <SMILES>  (27) 
N#Cc1cccc(NC(=O)[N-]Cc2ccc(Oc3ccc(Cl)cc3)nc2)c1

>  <Energy>  (27) 
47.225316974559384

>  <Genealogy>  (27) 
N#Cc1cccc(NC(=O)[N-]Cc2ccc(Oc3ccc(Cl)cc3)nc2)c1 (protonated)
N#Cc1cccc(NC(=O)[N-]Cc2ccc(Oc3ccc(Cl)cc3)nc2)c1 (3D coordinates assigned)
N#Cc1cccc(NC(=O)[N-]Cc2ccc(Oc3ccc(Cl)cc3)nc2)c1 (optimized conformer: 47.225316974559384 kcal/mol)

>  <smiles>  (27) 
N#Cc1cccc(NC(=O)NCc2ccc(Oc3ccc(Cl)cc3)nc2)c1

>  <score_type>  (27) 
oracle

>  <origin>  (27) 
adgpu

>  <m_score__min__energy>  (27) 
-10.720000000000001

>  <m_primary>  (27) 
energy

$$$$
27:0
     RDKit          3D

 38 40  0  0  0  0  0  0  0  0999 V2000
   -4.9318   16.3542  -32.7884 H   0  0  0  0  0  0  0  0  0  0  0  0
   -5.4540   17.2570  -33.1380 C   0  0  0  0  0  0  0  0  0  0  0  0
   -6.4120   18.2730  -32.1940 S   0  0  0  0  0  0  0  0  0  0  0  0
   -6.7630   19.3060  -33.4810 C   0  0  0  0  0  0  0  0  0  0  0  0
   -7.5060   20.3690  -33.4270 N   0  0  0  0  0  0  0  0  0  0  0  0
   -8.2930   20.9360  -31.9910 S   0  0  0  0  0  0  0  0  0  0  0  0
   -9.5090   21.7410  -32.3560 O   0  0  0  0  0  0  0  0  0  0  0  0
   -8.7100   19.7690  -31.1390 O   0  0  0  0  0  0  0  0  0  0  0  0
   -7.1700   21.9480  -31.0890 C   0  0  0  0  0  0  0  0  0  0  0  0
   -5.8160   21.5980  -31.0060 C   0  0  0  0  0  0  0  0  0  0  0  0
   -5.4554   20.6824  -31.4975 H   0  0  0  0  0  0  0  0  0  0  0  0
   -4.9220   22.4080  -30.3010 C   0  0  0  0  0  0  0  0  0  0  0  0
   -3.8606   22.1252  -30.2417 H   0  0  0  0  0  0  0  0  0  0  0  0
   -5.3660   23.5790  -29.6680 C   0  0  0  0  0  0  0  0  0  0  0  0
   -4.4190   24.3890  -28.9430 N   0  0  0  0  0  0  0  0  0  0  0  0
   -4.1160   25.2960  -29.3650 H   0  0  0  0  0  0  0  0  0  0  0  0
   -3.7800   23.9920  -27.6880 C   0  0  0  0  0  0  0  0  0  0  0  0
   -4.5242   24.0229  -26.8785 H   0  0  0  0  0  0  0  0  0  0  0  0
   -3.3810   22.9732  -27.8016 H   0  0  0  0  0  0  0  0  0  0  0  0
   -2.6420   24.9230  -27.3500 C   0  0  0  0  0  0  0  0  0  0  0  0
   -2.3360   25.2070  -26.0070 C   0  0  0  0  0  0  0  0  0  0  0  0
   -2.9340   24.7539  -25.2025 H   0  0  0  0  0  0  0  0  0  0  0  0
   -1.2760   26.0620  -25.6880 C   0  0  0  0  0  0  0  0  0  0  0  0
   -0.8960   26.3990  -24.0090 Cl  0  0  0  0  0  0  0  0  0  0  0  0
   -0.5180   26.6470  -26.7070 C   0  0  0  0  0  0  0  0  0  0  0  0
    0.3180   27.3162  -26.4554 H   0  0  0  0  0  0  0  0  0  0  0  0
   -0.8220   26.3820  -28.0440 C   0  0  0  0  0  0  0  0  0  0  0  0
   -0.2270   26.8475  -28.8435 H   0  0  0  0  0  0  0  0  0  0  0  0
   -1.8800   25.5270  -28.3710 C   0  0  0  0  0  0  0  0  0  0  0  0
   -2.1690   25.2840  -29.7100 O   0  0  0  0  0  0  0  0  0  0  0  0
   -6.7240   23.9360  -29.7700 C   0  0  0  0  0  0  0  0  0  0  0  0
   -7.0847   24.8583  -29.2912 H   0  0  0  0  0  0  0  0  0  0  0  0
   -7.6170   23.1240  -30.4770 C   0  0  0  0  0  0  0  0  0  0  0  0
   -8.6761   23.4115  -30.5522 H   0  0  0  0  0  0  0  0  0  0  0  0
   -6.1650   18.8930  -34.6180 N   0  0  0  0  0  0  0  0  0  0  0  0
   -6.2480   19.3840  -35.5360 H   0  0  0  0  0  0  0  0  0  0  0  0
   -5.4380   17.7580  -34.4360 C   0  0  0  0  0  0  0  0  0  0  0  0
   -4.8807   17.2738  -35.2515 H   0  0  0  0  0  0  0  0  0  0  0  0
  1  2  1  0
  2  3  1  0
  3  4  1  0
  4  5  2  0
  5  6  1  0
  6  7  2  0
  6  8  2  0
  6  9  1  0
  9 10  2  0
 10 11  1  0
 10 12  1  0
 12 13  1  0
 12 14  2  0
 14 15  1  0
 15 16  1  0
 15 17  1  0
 17 18  1  0
 17 19  1  0
 17 20  1  0
 20 21  2  0
 21 22  1  0
 21 23  1  0
 23 24  1  0
 23 25  2  0
 25 26  1  0
 25 27  1  0
 27 28  1  0
 27 29  2  0
 29 30  1  0
 14 31  1  0
 31 32  1  0
 31 33  2  0
 33 34  1  0
  4 35  1  0
 35 36  1  0
 35 37  1  0
 37 38  1  0
 37  2  2  0
 33  9  1  0
 29 20  1  0
M  CHG  1  30  -1
M  END
>  <UniqueID>  (28) 
25

>  <SMILES>  (28) 
O=S(=O)(/N=c1/[nH]ccs1)c1ccc(NCc2cc(Cl)ccc2[O-])cc1

>  <Energy>  (28) 
74.49790296563098

>  <Genealogy>  (28) 
O=S(=O)(N=c1[nH]ccs1)c1ccc(NCc2cc(Cl)ccc2[O-])cc1 (protonated)
O=S(=O)(/N=c1/[nH]ccs1)c1ccc(NCc2cc(Cl)ccc2[O-])cc1 (cis-trans isomerization)
O=S(=O)(/N=c1/[nH]ccs1)c1ccc(NCc2cc(Cl)ccc2[O-])cc1 (3D coordinates assigned)
O=S(=O)(/N=c1/[nH]ccs1)c1ccc(NCc2cc(Cl)ccc2[O-])cc1 (optimized conformer: 74.49790296563098 kcal/mol)

>  <smiles>  (28) 
O=S(=O)(N=c1[nH]ccs1)c1ccc(NCc2cc(Cl)ccc2O)cc1

>  <score_type>  (28) 
oracle

>  <origin>  (28) 
adgpu

>  <m_score__min__energy>  (28) 
-11.880000000000001

>  <m_primary>  (28) 
energy

$$$$
28:0
     RDKit          3D

 33 34  0  0  0  0  0  0  0  0999 V2000
   -0.2120   22.6310  -28.6150 C   0  0  0  0  0  0  0  0  0  0  0  0
   -0.5570   24.0770  -28.4580 C   0  0  0  0  0  0  0  0  0  0  0  0
    0.1880   24.9570  -27.7680 N   0  0  0  0  0  0  0  0  0  0  0  0
   -0.4900   26.1180  -27.8860 C   0  0  0  0  0  0  0  0  0  0  0  0
   -1.6270   26.0150  -28.6080 N   0  0  0  0  0  0  0  0  0  0  0  0
   -1.6700   24.7170  -28.9560 C   0  0  0  0  0  0  0  0  0  0  0  0
   -2.7460   24.1160  -29.8070 C   0  0  0  0  0  0  0  0  0  0  0  0
   -3.5900   25.1630  -30.3710 N   0  0  0  0  0  0  0  0  0  0  0  0
   -5.0180   25.0810  -30.4250 C   0  0  0  0  0  0  0  0  0  0  0  0
   -5.6980   26.0550  -30.8510 O   0  0  0  0  0  0  0  0  0  0  0  0
   -5.7090   23.8580  -29.9110 C   0  0  0  0  0  0  0  0  0  0  0  0
   -6.5860   23.2920  -30.9310 N   0  0  0  0  0  0  0  0  0  0  0  0
   -6.1890   22.3250  -31.9130 C   0  0  0  0  0  0  0  0  0  0  0  0
   -5.2260   22.5940  -32.6770 O   0  0  0  0  0  0  0  0  0  0  0  0
   -6.8620   21.0190  -32.0370 C   0  0  0  0  0  0  0  0  0  0  0  0
   -6.0830   19.8660  -32.2130 C   0  0  0  0  0  0  0  0  0  0  0  0
   -6.6940   18.6180  -32.3640 C   0  0  0  0  0  0  0  0  0  0  0  0
   -8.0850   18.5120  -32.3360 C   0  0  0  0  0  0  0  0  0  0  0  0
   -8.8700   19.6550  -32.1770 C   0  0  0  0  0  0  0  0  0  0  0  0
   -8.2690   20.9130  -32.0420 C   0  0  0  0  0  0  0  0  0  0  0  0
   -9.3040   22.3350  -31.9520 Cl  0  0  0  0  0  0  0  0  0  0  0  0
   -0.1021   22.1704  -27.6222 H   0  0  0  0  0  0  0  0  0  0  0  0
   -1.0136   22.1209  -29.1692 H   0  0  0  0  0  0  0  0  0  0  0  0
    0.7336   22.5377  -29.1692 H   0  0  0  0  0  0  0  0  0  0  0  0
   -0.1481   27.0615  -27.4356 H   0  0  0  0  0  0  0  0  0  0  0  0
   -2.2843   23.5426  -30.6243 H   0  0  0  0  0  0  0  0  0  0  0  0
   -3.3657   23.4535  -29.1849 H   0  0  0  0  0  0  0  0  0  0  0  0
   -4.9544   23.1093  -29.6281 H   0  0  0  0  0  0  0  0  0  0  0  0
   -6.3172   24.1369  -29.0379 H   0  0  0  0  0  0  0  0  0  0  0  0
   -4.9860   19.9443  -32.2323 H   0  0  0  0  0  0  0  0  0  0  0  0
   -6.0774   17.7181  -32.5051 H   0  0  0  0  0  0  0  0  0  0  0  0
   -8.5633   17.5268  -32.4393 H   0  0  0  0  0  0  0  0  0  0  0  0
   -9.9663   19.5675  -32.1576 H   0  0  0  0  0  0  0  0  0  0  0  0
  1  2  1  0
  2  3  1  0
  3  4  1  0
  4  5  2  0
  5  6  1  0
  6  7  1  0
  7  8  1  0
  8  9  1  0
  9 10  2  0
  9 11  1  0
 11 12  1  0
 12 13  1  0
 13 14  2  0
 13 15  1  0
 15 16  2  0
 16 17  1  0
 17 18  2  0
 18 19  1  0
 19 20  2  0
 20 21  1  0
  6  2  2  0
 20 15  1  0
  1 22  1  0
  1 23  1  0
  1 24  1  0
  4 25  1  0
  7 26  1  0
  7 27  1  0
 11 28  1  0
 11 29  1  0
 16 30  1  0
 17 31  1  0
 18 32  1  0
 19 33  1  0
M  CHG  3   3  -1   8  -1  12  -1
M  END
>  <UniqueID>  (29) 
26

>  <SMILES>  (29) 
Cc1[n-]cnc1C[N-]C(=O)C[N-]C(=O)c1ccccc1Cl

>  <Energy>  (29) 
58.11428491839746

>  <Genealogy>  (29) 
Cc1[n-]cnc1C[N-]C(=O)C[N-]C(=O)c1ccccc1Cl (protonated)
Cc1[n-]cnc1C[N-]C(=O)C[N-]C(=O)c1ccccc1Cl (3D coordinates assigned)
Cc1[n-]cnc1C[N-]C(=O)C[N-]C(=O)c1ccccc1Cl (optimized conformer: 58.11428491839746 kcal/mol)

>  <smiles>  (29) 
Cc1[nH]cnc1CNC(=O)CNC(=O)c1ccccc1Cl

>  <score_type>  (29) 
oracle

>  <origin>  (29) 
adgpu

>  <m_score__min__energy>  (29) 
-11.32

>  <m_primary>  (29) 
energy

$$$$
29:0
     RDKit          3D

 39 42  0  0  0  0  0  0  0  0999 V2000
   -2.1529   21.7926  -30.3450 H   0  0  0  0  0  0  0  0  0  0  0  0
   -1.9720   22.7720  -29.8780 C   0  0  0  0  0  0  0  0  0  0  0  0
   -0.7960   23.0310  -29.2530 N   0  0  0  0  0  0  0  0  0  0  0  0
   -0.5640   24.2140  -28.6830 N   0  0  0  0  0  0  0  0  0  0  0  0
   -1.5030   25.1980  -28.7110 C   0  0  0  0  0  0  0  0  0  0  0  0
   -1.2830   26.3520  -28.1570 N   0  0  0  0  0  0  0  0  0  0  0  0
   -0.0450   26.7060  -27.4680 C   0  0  0  0  0  0  0  0  0  0  0  0
    0.7753   26.0738  -27.8386 H   0  0  0  0  0  0  0  0  0  0  0  0
    0.1937   27.7626  -27.6592 H   0  0  0  0  0  0  0  0  0  0  0  0
   -0.2180   26.4890  -25.9930 C   0  0  0  0  0  0  0  0  0  0  0  0
   -0.4180   27.5800  -25.1340 C   0  0  0  0  0  0  0  0  0  0  0  0
   -0.4213   28.6055  -25.5320 H   0  0  0  0  0  0  0  0  0  0  0  0
   -0.6130   27.3540  -23.7690 C   0  0  0  0  0  0  0  0  0  0  0  0
   -0.7628   28.2045  -23.0876 H   0  0  0  0  0  0  0  0  0  0  0  0
   -0.6180   26.0840  -23.2810 N   0  0  0  0  0  0  0  0  0  0  0  0
   -0.4400   25.0080  -24.0940 C   0  0  0  0  0  0  0  0  0  0  0  0
   -0.4513   23.9926  -23.6711 H   0  0  0  0  0  0  0  0  0  0  0  0
   -0.2430   25.1900  -25.4640 C   0  0  0  0  0  0  0  0  0  0  0  0
   -0.1083   24.3206  -26.1243 H   0  0  0  0  0  0  0  0  0  0  0  0
   -2.6890   24.9680  -29.3290 N   0  0  0  0  0  0  0  0  0  0  0  0
   -2.9520   23.7720  -29.9190 C   0  0  0  0  0  0  0  0  0  0  0  0
   -4.2140   23.5490  -30.5680 N   0  0  0  0  0  0  0  0  0  0  0  0
   -4.9110   24.4920  -31.1830 N   0  0  0  0  0  0  0  0  0  0  0  0
   -6.0300   23.9250  -31.6740 C   0  0  0  0  0  0  0  0  0  0  0  0
   -6.8139   24.4503  -32.2392 H   0  0  0  0  0  0  0  0  0  0  0  0
   -6.0390   22.5740  -31.3550 C   0  0  0  0  0  0  0  0  0  0  0  0
   -7.0770   21.5670  -31.6960 C   0  0  0  0  0  0  0  0  0  0  0  0
   -8.4410   21.9170  -31.7050 C   0  0  0  0  0  0  0  0  0  0  0  0
   -8.7418   22.9457  -31.4574 H   0  0  0  0  0  0  0  0  0  0  0  0
   -9.4160   20.9680  -32.0260 C   0  0  0  0  0  0  0  0  0  0  0  0
  -10.4784   21.2530  -32.0303 H   0  0  0  0  0  0  0  0  0  0  0  0
   -9.0450   19.6600  -32.3410 C   0  0  0  0  0  0  0  0  0  0  0  0
   -9.8143   18.9153  -32.5931 H   0  0  0  0  0  0  0  0  0  0  0  0
   -7.6960   19.2970  -32.3360 C   0  0  0  0  0  0  0  0  0  0  0  0
   -7.2310   17.6510  -32.7280 Cl  0  0  0  0  0  0  0  0  0  0  0  0
   -6.7160   20.2440  -32.0160 C   0  0  0  0  0  0  0  0  0  0  0  0
   -5.6554   19.9523  -32.0145 H   0  0  0  0  0  0  0  0  0  0  0  0
   -4.8650   22.3740  -30.6500 C   0  0  0  0  0  0  0  0  0  0  0  0
   -4.5223   21.4175  -30.2285 H   0  0  0  0  0  0  0  0  0  0  0  0
  1  2  1  0
  2  3  2  0
  3  4  1  0
  4  5  1  0
  5  6  2  0
  6  7  1  0
  7  8  1  0
  7  9  1  0
  7 10  1  0
 10 11  2  0
 11 12  1  0
 11 13  1  0
 13 14  1  0
 13 15  2  0
 15 16  1  0
 16 17  1  0
 16 18  2  0
 18 19  1  0
  5 20  1  0
 20 21  2  0
 21 22  1  0
 22 23  1  0
 23 24  2  0
 24 25  1  0
 24 26  1  0
 26 27  1  0
 27 28  2  0
 28 29  1  0
 28 30  1  0
 30 31  1  0
 30 32  2  0
 32 33  1  0
 32 34  1  0
 34 35  1  0
 34 36  2  0
 36 37  1  0
 26 38  2  0
 38 39  1  0
 21  2  1  0
 38 22  1  0
 18 10  1  0
 36 27  1  0
M  CHG  1   4  -1
M  END
>  <UniqueID>  (30) 
27

>  <SMILES>  (30) 
Clc1cccc(-c2cnn(-c3cn[n-]/c(=N\Cc4ccncc4)n3)c2)c1

>  <Energy>  (30) 
78.23242374052599

>  <Genealogy>  (30) 
Clc1cccc(-c2cnn(-c3cn[n-]c(=NCc4ccncc4)n3)c2)c1 (protonated)
Clc1cccc(-c2cnn(-c3cn[n-]/c(=N\Cc4ccncc4)n3)c2)c1 (cis-trans isomerization)
Clc1cccc(-c2cnn(-c3cn[n-]/c(=N\Cc4ccncc4)n3)c2)c1 (3D coordinates assigned)
Clc1cccc(-c2cnn(-c3cn[n-]/c(=N\Cc4ccncc4)n3)c2)c1 (optimized conformer: 78.23242374052599 kcal/mol)

>  <smiles>  (30) 
Clc1cccc(-c2cnn(-c3cn[nH]c(=NCc4ccncc4)n3)c2)c1

>  <score_type>  (30) 
oracle

>  <origin>  (30) 
adgpu

>  <m_score__min__energy>  (30) 
-10.68

>  <m_primary>  (30) 
energy

$$$$
30:0
     RDKit          3D

 55 57  0  0  0  0  0  0  0  0999 V2000
   -0.8340   21.1620  -32.2000 C   0  0  0  0  0  0  0  0  0  0  0  0
   -1.7560   21.0640  -33.4090 C   0  0  0  0  0  0  0  0  0  0  0  0
   -3.0900   21.4230  -33.0550 O   0  0  0  0  0  0  0  0  0  0  0  0
   -3.8070   20.8100  -32.0190 C   0  0  0  0  0  0  0  0  0  0  0  0
   -3.4590   20.9900  -30.8190 O   0  0  0  0  0  0  0  0  0  0  0  0
   -4.9360   19.9690  -32.3210 N   0  0  0  0  0  0  0  0  0  0  0  0
   -5.3460   19.7260  -33.7080 C   0  0  0  0  0  0  0  0  0  0  0  0
   -6.8780   19.8080  -33.8420 C   0  0  0  0  0  0  0  0  0  0  0  0
   -7.6250   19.2380  -32.6930 N   0  0  0  0  0  0  0  0  0  0  0  0
   -8.5400   20.4700  -31.8480 S   0  0  0  0  0  0  0  0  0  0  0  0
   -9.1000   19.9160  -30.5660 O   0  0  0  0  0  0  0  0  0  0  0  0
   -9.6780   20.9580  -32.7010 O   0  0  0  0  0  0  0  0  0  0  0  0
   -7.4760   21.8280  -31.4980 C   0  0  0  0  0  0  0  0  0  0  0  0
   -6.7470   22.4470  -32.5210 C   0  0  0  0  0  0  0  0  0  0  0  0
   -5.9290   23.5440  -32.2390 C   0  0  0  0  0  0  0  0  0  0  0  0
   -5.8400   24.0470  -30.9280 C   0  0  0  0  0  0  0  0  0  0  0  0
   -4.9870   25.2190  -30.6220 C   0  0  0  0  0  0  0  0  0  0  0  0
   -5.5230   26.3480  -30.4630 O   0  0  0  0  0  0  0  0  0  0  0  0
   -3.5680   25.1030  -30.4490 N   0  0  0  0  0  0  0  0  0  0  0  0
   -2.8990   24.4180  -29.3800 C   0  0  0  0  0  0  0  0  0  0  0  0
   -3.4200   23.2400  -28.8170 C   0  0  0  0  0  0  0  0  0  0  0  0
   -2.7380   22.5940  -27.7820 C   0  0  0  0  0  0  0  0  0  0  0  0
   -1.5220   23.0980  -27.3070 C   0  0  0  0  0  0  0  0  0  0  0  0
   -0.8780   22.4120  -26.2670 O   0  0  0  0  0  0  0  0  0  0  0  0
   -0.1690   23.0440  -25.2060 C   0  0  0  0  0  0  0  0  0  0  0  0
   -0.9890   24.2650  -27.8880 C   0  0  0  0  0  0  0  0  0  0  0  0
   -1.6730   24.9120  -28.9210 C   0  0  0  0  0  0  0  0  0  0  0  0
   -6.5600   23.4110  -29.9040 C   0  0  0  0  0  0  0  0  0  0  0  0
   -7.3770   22.3140  -30.1890 C   0  0  0  0  0  0  0  0  0  0  0  0
   -6.8010   18.4370  -31.7670 C   0  0  0  0  0  0  0  0  0  0  0  0
   -5.5950   19.2260  -31.2410 C   0  0  0  0  0  0  0  0  0  0  0  0
   -1.4305   21.0986  -31.2779 H   0  0  0  0  0  0  0  0  0  0  0  0
   -0.1080   20.3360  -32.2246 H   0  0  0  0  0  0  0  0  0  0  0  0
   -0.2979   22.1222  -32.2246 H   0  0  0  0  0  0  0  0  0  0  0  0
   -1.3952   21.7443  -34.1945 H   0  0  0  0  0  0  0  0  0  0  0  0
   -1.7535   20.0259  -33.7729 H   0  0  0  0  0  0  0  0  0  0  0  0
   -4.8850   20.4832  -34.3593 H   0  0  0  0  0  0  0  0  0  0  0  0
   -5.0173   18.7189  -34.0040 H   0  0  0  0  0  0  0  0  0  0  0  0
   -7.1584   20.8668  -33.9435 H   0  0  0  0  0  0  0  0  0  0  0  0
   -7.1489   19.2066  -34.7223 H   0  0  0  0  0  0  0  0  0  0  0  0
   -6.8187   22.0679  -33.5511 H   0  0  0  0  0  0  0  0  0  0  0  0
   -5.3512   24.0172  -33.0466 H   0  0  0  0  0  0  0  0  0  0  0  0
   -4.3673   22.8253  -29.1921 H   0  0  0  0  0  0  0  0  0  0  0  0
   -3.1609   21.6813  -27.3369 H   0  0  0  0  0  0  0  0  0  0  0  0
   -0.5633   22.6926  -24.2411 H   0  0  0  0  0  0  0  0  0  0  0  0
    0.8996   22.7934  -25.2787 H   0  0  0  0  0  0  0  0  0  0  0  0
   -0.2957   24.1343  -25.2787 H   0  0  0  0  0  0  0  0  0  0  0  0
   -0.0313   24.6686  -27.5276 H   0  0  0  0  0  0  0  0  0  0  0  0
   -1.2441   25.8167  -29.3767 H   0  0  0  0  0  0  0  0  0  0  0  0
   -6.4803   23.7789  -28.8704 H   0  0  0  0  0  0  0  0  0  0  0  0
   -7.9451   21.8300  -29.3809 H   0  0  0  0  0  0  0  0  0  0  0  0
   -7.4233   18.1290  -30.9138 H   0  0  0  0  0  0  0  0  0  0  0  0
   -6.4214   17.5642  -32.3185 H   0  0  0  0  0  0  0  0  0  0  0  0
   -5.9375   19.9361  -30.4739 H   0  0  0  0  0  0  0  0  0  0  0  0
   -4.8718   18.5148  -30.8154 H   0  0  0  0  0  0  0  0  0  0  0  0
  1  2  1  0
  2  3  1  0
  3  4  1  0
  4  5  2  0
  4  6  1  0
  6  7  1  0
  7  8  1  0
  8  9  1  0
  9 10  1  0
 10 11  2  0
 10 12  2  0
 10 13  1  0
 13 14  2  0
 14 15  1  0
 15 16  2  0
 16 17  1  0
 17 18  2  0
 17 19  1  0
 19 20  1  0
 20 21  2  0
 21 22  1  0
 22 23  2  0
 23 24  1  0
 24 25  1  0
 23 26  1  0
 26 27  2  0
 16 28  1  0
 28 29  2  0
  9 30  1  0
 30 31  1  0
 31  6  1  0
 29 13  1  0
 27 20  1  0
  1 32  1  0
  1 33  1  0
  1 34  1  0
  2 35  1  0
  2 36  1  0
  7 37  1  0
  7 38  1  0
  8 39  1  0
  8 40  1  0
 14 41  1  0
 15 42  1  0
 21 43  1  0
 22 44  1  0
 25 45  1  0
 25 46  1  0
 25 47  1  0
 26 48  1  0
 27 49  1  0
 28 50  1  0
 29 51  1  0
 30 52  1  0
 30 53  1  0
 31 54  1  0
 31 55  1  0
M  CHG  1  19  -1
M  END
>  <UniqueID>  (31) 
28

>  <SMILES>  (31) 
CCOC(=O)N1CCN(S(=O)(=O)c2ccc(C(=O)[N-]c3ccc(OC)cc3)cc2)CC1

>  <Energy>  (31) 
64.1896589411704

>  <Genealogy>  (31) 
CCOC(=O)N1CCN(S(=O)(=O)c2ccc(C(=O)[N-]c3ccc(OC)cc3)cc2)CC1 (protonated)
CCOC(=O)N1CCN(S(=O)(=O)c2ccc(C(=O)[N-]c3ccc(OC)cc3)cc2)CC1 (3D coordinates assigned)
CCOC(=O)N1CCN(S(=O)(=O)c2ccc(C(=O)[N-]c3ccc(OC)cc3)cc2)CC1 (nonaromatic ring conformer: 64.1896589411704 kcal/mol)

>  <smiles>  (31) 
CCOC(=O)N1CCN(S(=O)(=O)c2ccc(C(=O)Nc3ccc(OC)cc3)cc2)CC1

>  <score_type>  (31) 
oracle

>  <origin>  (31) 
adgpu

>  <m_score__min__energy>  (31) 
-10.44

>  <m_primary>  (31) 
energy

$$$$
31:0
     RDKit          3D

 42 44  0  0  0  0  0  0  0  0999 V2000
   -3.0580   22.1440  -28.2860 C   0  0  0  0  0  0  0  0  0  0  0  0
   -3.7790   23.2110  -29.0600 C   0  0  0  0  0  0  0  0  0  0  0  0
   -5.1330   23.0680  -29.3860 C   0  0  0  0  0  0  0  0  0  0  0  0
   -5.7860   24.0300  -30.1070 N   0  0  0  0  0  0  0  0  0  0  0  0
   -7.2020   23.8310  -30.4520 C   0  0  0  0  0  0  0  0  0  0  0  0
   -7.3890   22.5110  -31.1500 C   0  0  0  0  0  0  0  0  0  0  0  0
   -6.5640   22.1520  -32.2270 C   0  0  0  0  0  0  0  0  0  0  0  0
   -6.7190   20.9110  -32.8520 C   0  0  0  0  0  0  0  0  0  0  0  0
   -7.6950   20.0050  -32.4110 C   0  0  0  0  0  0  0  0  0  0  0  0
   -7.8300   18.7390  -33.0820 N   0  0  0  0  0  0  0  0  0  0  0  0
   -6.7400   17.4050  -32.8650 S   0  0  0  0  0  0  0  0  0  0  0  0
   -7.2470   16.2250  -33.6470 O   0  0  0  0  0  0  0  0  0  0  0  0
   -6.6880   17.0400  -31.4090 O   0  0  0  0  0  0  0  0  0  0  0  0
   -5.1220   17.8550  -33.3930 C   0  0  0  0  0  0  0  0  0  0  0  0
   -4.4180   18.8580  -32.7130 C   0  0  0  0  0  0  0  0  0  0  0  0
   -3.1360   19.2270  -33.1370 C   0  0  0  0  0  0  0  0  0  0  0  0
   -2.5530   18.5930  -34.2380 C   0  0  0  0  0  0  0  0  0  0  0  0
   -3.2510   17.5890  -34.9150 C   0  0  0  0  0  0  0  0  0  0  0  0
   -4.5320   17.2190  -34.4950 C   0  0  0  0  0  0  0  0  0  0  0  0
   -8.5110   20.3620  -31.3200 C   0  0  0  0  0  0  0  0  0  0  0  0
   -8.3560   21.6030  -30.6970 C   0  0  0  0  0  0  0  0  0  0  0  0
   -5.0990   25.1370  -30.5390 C   0  0  0  0  0  0  0  0  0  0  0  0
   -5.6760   26.0290  -31.2160 O   0  0  0  0  0  0  0  0  0  0  0  0
   -3.7830   25.2830  -30.2420 N   0  0  0  0  0  0  0  0  0  0  0  0
   -3.1100   24.3530  -29.5200 C   0  0  0  0  0  0  0  0  0  0  0  0
   -1.8870   24.5260  -29.2740 O   0  0  0  0  0  0  0  0  0  0  0  0
   -3.1812   22.3263  -27.2082 H   0  0  0  0  0  0  0  0  0  0  0  0
   -3.4767   21.1594  -28.5416 H   0  0  0  0  0  0  0  0  0  0  0  0
   -1.9883   22.1651  -28.5416 H   0  0  0  0  0  0  0  0  0  0  0  0
   -5.6787   22.1709  -29.0583 H   0  0  0  0  0  0  0  0  0  0  0  0
   -7.8049   23.8436  -29.5320 H   0  0  0  0  0  0  0  0  0  0  0  0
   -7.5236   24.6400  -31.1244 H   0  0  0  0  0  0  0  0  0  0  0  0
   -5.7915   22.8505  -32.5812 H   0  0  0  0  0  0  0  0  0  0  0  0
   -6.0692   20.6424  -33.6979 H   0  0  0  0  0  0  0  0  0  0  0  0
   -8.6650   18.5720  -33.6860 H   0  0  0  0  0  0  0  0  0  0  0  0
   -4.8736   19.3562  -31.8445 H   0  0  0  0  0  0  0  0  0  0  0  0
   -2.5868   20.0166  -32.6033 H   0  0  0  0  0  0  0  0  0  0  0  0
   -1.5459   18.8840  -34.5713 H   0  0  0  0  0  0  0  0  0  0  0  0
   -2.7913   17.0889  -35.7802 H   0  0  0  0  0  0  0  0  0  0  0  0
   -5.0781   16.4278  -35.0296 H   0  0  0  0  0  0  0  0  0  0  0  0
   -9.2751   19.6594  -30.9561 H   0  0  0  0  0  0  0  0  0  0  0  0
   -8.9979   21.8695  -29.8444 H   0  0  0  0  0  0  0  0  0  0  0  0
  1  2  1  0
  2  3  2  0
  3  4  1  0
  4  5  1  0
  5  6  1  0
  6  7  2  0
  7  8  1  0
  8  9  2  0
  9 10  1  0
 10 11  1  0
 11 12  2  0
 11 13  2  0
 11 14  1  0
 14 15  2  0
 15 16  1  0
 16 17  2  0
 17 18  1  0
 18 19  2  0
  9 20  1  0
 20 21  2  0
  4 22  1  0
 22 23  2  0
 22 24  1  0
 24 25  1  0
 25 26  2  0
 25  2  1  0
 21  6  1  0
 19 14  1  0
  1 27  1  0
  1 28  1  0
  1 29  1  0
  3 30  1  0
  5 31  1  0
  5 32  1  0
  7 33  1  0
  8 34  1  0
 10 35  1  0
 15 36  1  0
 16 37  1  0
 17 38  1  0
 18 39  1  0
 19 40  1  0
 20 41  1  0
 21 42  1  0
M  CHG  1  24  -1
M  END
>  <UniqueID>  (32) 
29

>  <SMILES>  (32) 
Cc1cn(Cc2ccc(NS(=O)(=O)c3ccccc3)cc2)c(=O)[n-]c1=O

>  <Energy>  (32) 
48.943966626206524

>  <Genealogy>  (32) 
Cc1cn(Cc2ccc(NS(=O)(=O)c3ccccc3)cc2)c(=O)[n-]c1=O (protonated)
Cc1cn(Cc2ccc(NS(=O)(=O)c3ccccc3)cc2)c(=O)[n-]c1=O (3D coordinates assigned)
Cc1cn(Cc2ccc(NS(=O)(=O)c3ccccc3)cc2)c(=O)[n-]c1=O (optimized conformer: 48.943966626206524 kcal/mol)

>  <smiles>  (32) 
Cc1cn(Cc2ccc(NS(=O)(=O)c3ccccc3)cc2)c(=O)[nH]c1=O

>  <score_type>  (32) 
oracle

>  <origin>  (32) 
adgpu

>  <m_score__min__energy>  (32) 
-10.1

>  <m_primary>  (32) 
energy

$$$$
32:0
     RDKit          3D

 51 53  0  0  0  0  0  0  0  0999 V2000
   -5.3180   16.0160  -34.0780 C   0  0  0  0  0  0  0  0  0  0  0  0
   -4.3480   16.2880  -32.9490 C   0  0  0  0  0  0  0  0  0  0  0  0
   -3.4250   17.3780  -33.3570 C   0  0  0  0  0  0  0  0  0  0  0  0
   -2.1360   17.0740  -33.6980 N   0  0  0  0  0  0  0  0  0  0  0  0
   -1.3120   18.0700  -34.0650 C   0  0  0  0  0  0  0  0  0  0  0  0
   -0.1010   17.7340  -34.3820 N   0  0  0  0  0  0  0  0  0  0  0  0
   -1.6880   19.3600  -34.1170 N   0  0  0  0  0  0  0  0  0  0  0  0
   -2.9560   19.6760  -33.7840 C   0  0  0  0  0  0  0  0  0  0  0  0
   -3.3680   20.8990  -33.8180 N   0  0  0  0  0  0  0  0  0  0  0  0
   -3.8480   18.6890  -33.3990 C   0  0  0  0  0  0  0  0  0  0  0  0
   -5.2070   19.0840  -33.0500 C   0  0  0  0  0  0  0  0  0  0  0  0
   -5.9570   19.6550  -34.0750 C   0  0  0  0  0  0  0  0  0  0  0  0
   -7.2540   20.0610  -33.8370 C   0  0  0  0  0  0  0  0  0  0  0  0
   -7.8250   19.9030  -32.5680 C   0  0  0  0  0  0  0  0  0  0  0  0
   -9.1590   20.3110  -32.2890 N   0  0  0  0  0  0  0  0  0  0  0  0
   -9.4840   21.6610  -31.8300 C   0  0  0  0  0  0  0  0  0  0  0  0
   -8.1810   22.3130  -31.4520 C   0  0  0  0  0  0  0  0  0  0  0  0
   -7.6440   22.1060  -30.1910 C   0  0  0  0  0  0  0  0  0  0  0  0
   -6.4350   22.7160  -29.8540 C   0  0  0  0  0  0  0  0  0  0  0  0
   -5.7840   23.5160  -30.7710 C   0  0  0  0  0  0  0  0  0  0  0  0
   -4.2740   24.2450  -30.2750 S   0  0  0  0  0  0  0  0  0  0  0  0
   -4.2110   24.2930  -28.5050 C   0  0  0  0  0  0  0  0  0  0  0  0
   -4.2740   25.6620  -30.8040 O   0  0  0  0  0  0  0  0  0  0  0  0
   -3.0840   23.5520  -30.8500 O   0  0  0  0  0  0  0  0  0  0  0  0
   -6.3100   23.7330  -32.0390 C   0  0  0  0  0  0  0  0  0  0  0  0
   -7.5060   23.1180  -32.3440 C   0  0  0  0  0  0  0  0  0  0  0  0
   -7.0530   19.3340  -31.5790 C   0  0  0  0  0  0  0  0  0  0  0  0
   -5.7450   18.9170  -31.7890 C   0  0  0  0  0  0  0  0  0  0  0  0
   -6.2981   15.7412  -33.6611 H   0  0  0  0  0  0  0  0  0  0  0  0
   -5.4230   16.9193  -34.6968 H   0  0  0  0  0  0  0  0  0  0  0  0
   -4.9380   15.1898  -34.6968 H   0  0  0  0  0  0  0  0  0  0  0  0
   -4.9042   16.5927  -32.0502 H   0  0  0  0  0  0  0  0  0  0  0  0
   -3.7725   15.3775  -32.7258 H   0  0  0  0  0  0  0  0  0  0  0  0
   -1.8400   16.0740  -33.6580 H   0  0  0  0  0  0  0  0  0  0  0  0
    0.6270   18.4100  -34.6810 H   0  0  0  0  0  0  0  0  0  0  0  0
   -1.0270   20.1150  -34.4070 H   0  0  0  0  0  0  0  0  0  0  0  0
   -2.6710   21.6190  -34.1130 H   0  0  0  0  0  0  0  0  0  0  0  0
   -5.5154   19.7824  -35.0744 H   0  0  0  0  0  0  0  0  0  0  0  0
   -7.8433   20.5117  -34.6492 H   0  0  0  0  0  0  0  0  0  0  0  0
   -9.9140   19.5780  -32.4310 H   0  0  0  0  0  0  0  0  0  0  0  0
   -9.9724   22.2284  -32.6359 H   0  0  0  0  0  0  0  0  0  0  0  0
  -10.1759   21.6332  -30.9753 H   0  0  0  0  0  0  0  0  0  0  0  0
   -8.1657   21.4672  -29.4631 H   0  0  0  0  0  0  0  0  0  0  0  0
   -6.0002   22.5590  -28.8559 H   0  0  0  0  0  0  0  0  0  0  0  0
   -5.0221   23.6751  -28.0923 H   0  0  0  0  0  0  0  0  0  0  0  0
   -3.2416   23.9024  -28.1619 H   0  0  0  0  0  0  0  0  0  0  0  0
   -4.3302   25.3313  -28.1619 H   0  0  0  0  0  0  0  0  0  0  0  0
   -5.7924   24.3705  -32.7709 H   0  0  0  0  0  0  0  0  0  0  0  0
   -7.9399   23.2768  -33.3422 H   0  0  0  0  0  0  0  0  0  0  0  0
   -7.4920   19.2042  -30.5788 H   0  0  0  0  0  0  0  0  0  0  0  0
   -5.1557   18.4676  -30.9761 H   0  0  0  0  0  0  0  0  0  0  0  0
  1  2  1  0
  2  3  1  0
  3  4  1  0
  4  5  1  0
  5  6  2  3
  5  7  1  0
  7  8  1  0
  8  9  2  3
  8 10  1  0
 10 11  1  0
 11 12  2  0
 12 13  1  0
 13 14  2  0
 14 15  1  0
 15 16  1  0
 16 17  1  0
 17 18  2  0
 18 19  1  0
 19 20  2  0
 20 21  1  0
 21 22  1  0
 21 23  2  0
 21 24  2  0
 20 25  1  0
 25 26  2  0
 14 27  1  0
 27 28  2  0
 10  3  2  0
 28 11  1  0
 26 17  1  0
  1 29  1  0
  1 30  1  0
  1 31  1  0
  2 32  1  0
  2 33  1  0
  4 34  1  0
  6 35  1  0
  7 36  1  0
  9 37  1  0
 12 38  1  0
 13 39  1  0
 15 40  1  0
 16 41  1  0
 16 42  1  0
 18 43  1  0
 19 44  1  0
 22 45  1  0
 22 46  1  0
 22 47  1  0
 25 48  1  0
 26 49  1  0
 27 50  1  0
 28 51  1  0
M  END
>  <smiles>  (33) 
CCc1[nH]c(=N)[nH]c(=N)c1-c1ccc(NCc2ccc(S(C)(=O)=O)cc2)cc1

>  <score_type>  (33) 
oracle

>  <origin>  (33) 
adgpu

>  <m_score__min__energy>  (33) 
-9.6600000000000001

>  <m_primary>  (33) 
energy

$$$$
33:0
     RDKit          3D

 43 46  0  0  0  0  0  0  0  0999 V2000
    3.0830   24.0020  -35.7270 C   0  0  0  0  0  0  0  0  0  0  0  0
    1.8550   23.2310  -35.3820 C   0  0  0  0  0  0  0  0  0  0  0  0
    0.6140   23.6000  -35.7520 N   0  0  0  0  0  0  0  0  0  0  0  0
   -0.1600   22.6590  -35.3040 O   0  0  0  0  0  0  0  0  0  0  0  0
    0.5640   21.7500  -34.6970 C   0  0  0  0  0  0  0  0  0  0  0  0
    0.0190   20.5740  -34.0720 N   0  0  0  0  0  0  0  0  0  0  0  0
   -0.1520   19.3620  -34.8740 C   0  0  0  0  0  0  0  0  0  0  0  0
   -0.3810   20.6050  -32.6580 C   0  0  0  0  0  0  0  0  0  0  0  0
   -1.8610   20.8550  -32.5430 C   0  0  0  0  0  0  0  0  0  0  0  0
   -2.3820   21.4670  -31.3910 C   0  0  0  0  0  0  0  0  0  0  0  0
   -3.7620   21.6280  -31.2410 C   0  0  0  0  0  0  0  0  0  0  0  0
   -4.6390   21.1700  -32.2360 C   0  0  0  0  0  0  0  0  0  0  0  0
   -6.1000   21.2930  -32.0550 C   0  0  0  0  0  0  0  0  0  0  0  0
   -6.9200   20.2700  -32.5590 C   0  0  0  0  0  0  0  0  0  0  0  0
   -8.2990   20.2940  -32.3470 C   0  0  0  0  0  0  0  0  0  0  0  0
   -8.8750   21.3380  -31.6250 C   0  0  0  0  0  0  0  0  0  0  0  0
   -8.0790   22.3710  -31.1280 C   0  0  0  0  0  0  0  0  0  0  0  0
   -6.6880   22.3770  -31.3460 C   0  0  0  0  0  0  0  0  0  0  0  0
   -5.9000   23.5390  -30.8650 C   0  0  0  0  0  0  0  0  0  0  0  0
   -5.1290   24.3110  -31.6580 N   0  0  0  0  0  0  0  0  0  0  0  0
   -4.5770   25.1960  -30.8450 N   0  0  0  0  0  0  0  0  0  0  0  0
   -4.9900   24.9660  -29.6110 N   0  0  0  0  0  0  0  0  0  0  0  0
   -5.8140   23.9340  -29.5780 N   0  0  0  0  0  0  0  0  0  0  0  0
   -4.1170   20.5890  -33.4020 C   0  0  0  0  0  0  0  0  0  0  0  0
   -2.7380   20.4300  -33.5530 C   0  0  0  0  0  0  0  0  0  0  0  0
    1.8760   22.0540  -34.7220 N   0  0  0  0  0  0  0  0  0  0  0  0
    3.5884   24.3193  -34.8029 H   0  0  0  0  0  0  0  0  0  0  0  0
    3.7610   23.3672  -36.3163 H   0  0  0  0  0  0  0  0  0  0  0  0
    2.8059   24.8885  -36.3163 H   0  0  0  0  0  0  0  0  0  0  0  0
   -0.2743   18.4955  -34.2075 H   0  0  0  0  0  0  0  0  0  0  0  0
   -1.0445   19.4652  -35.5087 H   0  0  0  0  0  0  0  0  0  0  0  0
    0.7342   19.2142  -35.5087 H   0  0  0  0  0  0  0  0  0  0  0  0
   -0.1379   19.6396  -32.1902 H   0  0  0  0  0  0  0  0  0  0  0  0
    0.1611   21.4155  -32.1488 H   0  0  0  0  0  0  0  0  0  0  0  0
   -1.7006   21.8211  -30.6034 H   0  0  0  0  0  0  0  0  0  0  0  0
   -4.1622   22.1155  -30.3398 H   0  0  0  0  0  0  0  0  0  0  0  0
   -6.4706   19.4417  -33.1265 H   0  0  0  0  0  0  0  0  0  0  0  0
   -8.9315   19.4891  -32.7496 H   0  0  0  0  0  0  0  0  0  0  0  0
   -9.9604   21.3477  -31.4464 H   0  0  0  0  0  0  0  0  0  0  0  0
   -8.5437   23.1900  -30.5594 H   0  0  0  0  0  0  0  0  0  0  0  0
   -4.7000   25.5190  -28.7750 H   0  0  0  0  0  0  0  0  0  0  0  0
   -4.7972   20.2574  -34.2004 H   0  0  0  0  0  0  0  0  0  0  0  0
   -2.3371   19.9694  -34.4679 H   0  0  0  0  0  0  0  0  0  0  0  0
  1  2  1  0
  2  3  2  0
  3  4  1  0
  4  5  1  0
  5  6  1  0
  6  7  1  0
  6  8  1  0
  8  9  1  0
  9 10  2  0
 10 11  1  0
 11 12  2  0
 12 13  1  0
 13 14  2  0
 14 15  1  0
 15 16  2  0
 16 17  1  0
 17 18  2  0
 18 19  1  0
 19 20  1  0
 20 21  2  0
 21 22  1  0
 22 23  1  0
 12 24  1  0
 24 25  2  0
  5 26  2  0
 26  2  1  0
 25  9  1  0
 18 13  1  0
 23 19  2  0
  1 27  1  0
  1 28  1  0
  1 29  1  0
  7 30  1  0
  7 31  1  0
  7 32  1  0
  8 33  1  0
  8 34  1  0
 10 35  1  0
 11 36  1  0
 14 37  1  0
 15 38  1  0
 16 39  1  0
 17 40  1  0
 22 41  1  0
 24 42  1  0
 25 43  1  0
M  END
>  <UniqueID>  (34) 
30

>  <SMILES>  (34) 
Cc1noc(N(C)Cc2ccc(-c3ccccc3-c3nn[nH]n3)cc2)n1

>  <Energy>  (34) 
122.5166510878733

>  <Genealogy>  (34) 
Cc1noc(N(C)Cc2ccc(-c3ccccc3-c3nn[nH]n3)cc2)n1 (3D coordinates assigned)
Cc1noc(N(C)Cc2ccc(-c3ccccc3-c3nn[nH]n3)cc2)n1 (optimized conformer: 122.5166510878733 kcal/mol)

>  <smiles>  (34) 
Cc1noc(N(C)Cc2ccc(-c3ccccc3-c3nn[nH]n3)cc2)n1

>  <score_type>  (34) 
oracle

>  <origin>  (34) 
adgpu

>  <m_score__min__energy>  (34) 
-10.460000000000001

>  <m_primary>  (34) 
energy

$$$$
34:0
     RDKit          3D

 30 32  0  0  0  0  0  0  0  0999 V2000
   -0.8000   22.7730  -26.1390 C   0  0  0  0  0  0  0  0  0  0  0  0
    0.1580   22.8360  -27.0670 C   0  0  0  0  0  0  0  0  0  0  0  0
    0.1080   23.8690  -28.1590 C   0  0  0  0  0  0  0  0  0  0  0  0
   -1.1180   23.6810  -29.0170 C   0  0  0  0  0  0  0  0  0  0  0  0
   -1.4770   22.3930  -29.4460 C   0  0  0  0  0  0  0  0  0  0  0  0
   -2.6330   22.1940  -30.2220 C   0  0  0  0  0  0  0  0  0  0  0  0
   -3.0160   20.9200  -30.6750 C   0  0  0  0  0  0  0  0  0  0  0  0
   -2.3210   19.9040  -30.3920 O   0  0  0  0  0  0  0  0  0  0  0  0
   -4.1830   20.7880  -31.4480 C   0  0  0  0  0  0  0  0  0  0  0  0
   -4.6220   19.5420  -31.9350 C   0  0  0  0  0  0  0  0  0  0  0  0
   -5.7890   19.4600  -32.7000 C   0  0  0  0  0  0  0  0  0  0  0  0
   -6.5250   20.6130  -32.9880 C   0  0  0  0  0  0  0  0  0  0  0  0
   -6.0980   21.8550  -32.5110 C   0  0  0  0  0  0  0  0  0  0  0  0
   -4.9320   21.9500  -31.7420 C   0  0  0  0  0  0  0  0  0  0  0  0
   -4.5380   23.1380  -31.2950 O   0  0  0  0  0  0  0  0  0  0  0  0
   -3.4410   23.3040  -30.5610 C   0  0  0  0  0  0  0  0  0  0  0  0
   -3.0910   24.5850  -30.1210 C   0  0  0  0  0  0  0  0  0  0  0  0
   -3.8920   25.6740  -30.4500 O   0  0  0  0  0  0  0  0  0  0  0  0
   -1.9390   24.7770  -29.3480 C   0  0  0  0  0  0  0  0  0  0  0  0
   -1.6170   26.0570  -28.9080 O   0  0  0  0  0  0  0  0  0  0  0  0
   -0.7491   22.0116  -25.3467 H   0  0  0  0  0  0  0  0  0  0  0  0
   -1.6401   23.4825  -26.1668 H   0  0  0  0  0  0  0  0  0  0  0  0
    0.9949   22.1229  -27.0324 H   0  0  0  0  0  0  0  0  0  0  0  0
    0.0815   24.8713  -27.7066 H   0  0  0  0  0  0  0  0  0  0  0  0
    1.0015   23.7582  -28.7910 H   0  0  0  0  0  0  0  0  0  0  0  0
   -0.8488   21.5324  -29.1728 H   0  0  0  0  0  0  0  0  0  0  0  0
   -4.0457   18.6317  -31.7131 H   0  0  0  0  0  0  0  0  0  0  0  0
   -6.1296   18.4843  -33.0769 H   0  0  0  0  0  0  0  0  0  0  0  0
   -7.4421   20.5424  -33.5913 H   0  0  0  0  0  0  0  0  0  0  0  0
   -6.6794   22.7602  -32.7403 H   0  0  0  0  0  0  0  0  0  0  0  0
  1  2  2  0
  2  3  1  0
  3  4  1  0
  4  5  2  0
  5  6  1  0
  6  7  1  0
  7  8  2  0
  7  9  1  0
  9 10  2  0
 10 11  1  0
 11 12  2  0
 12 13  1  0
 13 14  2  0
 14 15  1  0
 15 16  1  0
 16 17  1  0
 17 18  1  0
 17 19  2  0
 19 20  1  0
 19  4  1  0
 16  6  2  0
 14  9  1  0
  1 21  1  0
  1 22  1  0
  2 23  1  0
  3 24  1  0
  3 25  1  0
  5 26  1  0
 10 27  1  0
 11 28  1  0
 12 29  1  0
 13 30  1  0
M  CHG  2  18  -1  20  -1
M  END
>  <UniqueID>  (35) 
31

>  <SMILES>  (35) 
C=CCc1cc2c(=O)c3ccccc3oc2c([O-])c1[O-]

>  <Energy>  (35) 
39.40304183063948

>  <Genealogy>  (35) 
C=CCc1cc2c(=O)c3ccccc3oc2c([O-])c1[O-] (protonated)
C=CCc1cc2c(=O)c3ccccc3oc2c([O-])c1[O-] (3D coordinates assigned)
C=CCc1cc2c(=O)c3ccccc3oc2c([O-])c1[O-] (optimized conformer: 39.40304183063948 kcal/mol)

>  <smiles>  (35) 
C=CCc1cc2c(=O)c3ccccc3oc2c(O)c1O

>  <score_type>  (35) 
oracle

>  <origin>  (35) 
adgpu

>  <m_score__min__energy>  (35) 
-11.890000000000001

>  <m_primary>  (35) 
energy

$$$$
35:0
     RDKit          3D

 37 38  0  0  0  0  0  0  0  0999 V2000
   -5.7740   15.7580  -33.1700 C   0  0  0  0  0  0  0  0  0  0  0  0
   -7.0030   16.4590  -33.3330 O   0  0  0  0  0  0  0  0  0  0  0  0
   -7.2060   17.7990  -32.9670 C   0  0  0  0  0  0  0  0  0  0  0  0
   -8.0990   18.1670  -31.9410 C   0  0  0  0  0  0  0  0  0  0  0  0
   -8.2710   19.5130  -31.6050 C   0  0  0  0  0  0  0  0  0  0  0  0
   -7.5510   20.5070  -32.2780 C   0  0  0  0  0  0  0  0  0  0  0  0
   -7.7620   22.1970  -31.8260 S   0  0  0  0  0  0  0  0  0  0  0  0
   -7.7450   22.2900  -30.3270 O   0  0  0  0  0  0  0  0  0  0  0  0
   -9.0760   22.7240  -32.3290 O   0  0  0  0  0  0  0  0  0  0  0  0
   -6.4720   23.1610  -32.4710 N   0  0  0  0  0  0  0  0  0  0  0  0
   -5.2740   23.4200  -31.7280 C   0  0  0  0  0  0  0  0  0  0  0  0
   -5.0710   24.4640  -30.8470 C   0  0  0  0  0  0  0  0  0  0  0  0
   -6.0580   25.5210  -30.4780 C   0  0  0  0  0  0  0  0  0  0  0  0
   -3.8480   24.3480  -30.2930 N   0  0  0  0  0  0  0  0  0  0  0  0
   -3.2700   23.2740  -30.8120 N   0  0  0  0  0  0  0  0  0  0  0  0
   -1.9200   22.8460  -30.4640 C   0  0  0  0  0  0  0  0  0  0  0  0
   -4.0970   22.6900  -31.7080 C   0  0  0  0  0  0  0  0  0  0  0  0
   -3.7640   21.4830  -32.5310 C   0  0  0  0  0  0  0  0  0  0  0  0
   -6.6730   20.1470  -33.3070 C   0  0  0  0  0  0  0  0  0  0  0  0
   -6.4970   18.8010  -33.6480 C   0  0  0  0  0  0  0  0  0  0  0  0
   -5.3780   18.3820  -34.9350 Cl  0  0  0  0  0  0  0  0  0  0  0  0
   -5.5607   15.6363  -32.0978 H   0  0  0  0  0  0  0  0  0  0  0  0
   -5.8510   14.7680  -33.6432 H   0  0  0  0  0  0  0  0  0  0  0  0
   -4.9611   16.3283  -33.6432 H   0  0  0  0  0  0  0  0  0  0  0  0
   -8.6633   17.3917  -31.4021 H   0  0  0  0  0  0  0  0  0  0  0  0
   -8.9756   19.7924  -30.8078 H   0  0  0  0  0  0  0  0  0  0  0  0
   -6.7160   23.8080  -33.2530 H   0  0  0  0  0  0  0  0  0  0  0  0
   -6.1255   25.5933  -29.3825 H   0  0  0  0  0  0  0  0  0  0  0  0
   -5.7315   26.4874  -30.8898 H   0  0  0  0  0  0  0  0  0  0  0  0
   -7.0444   25.2614  -30.8898 H   0  0  0  0  0  0  0  0  0  0  0  0
   -1.8165   22.8132  -29.3694 H   0  0  0  0  0  0  0  0  0  0  0  0
   -1.7341   21.8448  -30.8801 H   0  0  0  0  0  0  0  0  0  0  0  0
   -1.1912   23.5571  -30.8801 H   0  0  0  0  0  0  0  0  0  0  0  0
   -3.5310   20.6385  -31.8658 H   0  0  0  0  0  0  0  0  0  0  0  0
   -4.6241   21.2233  -33.1657 H   0  0  0  0  0  0  0  0  0  0  0  0
   -2.8925   21.7011  -33.1657 H   0  0  0  0  0  0  0  0  0  0  0  0
   -6.1184   20.9261  -33.8505 H   0  0  0  0  0  0  0  0  0  0  0  0
  1  2  1  0
  2  3  1  0
  3  4  2  0
  4  5  1  0
  5  6  2  0
  6  7  1  0
  7  8  2  0
  7  9  2  0
  7 10  1  0
 10 11  1  0
 11 12  1  0
 12 13  1  0
 12 14  2  0
 14 15  1  0
 15 16  1  0
 15 17  1  0
 17 18  1  0
  6 19  1  0
 19 20  2  0
 20 21  1  0
 20  3  1  0
 17 11  2  0
  1 22  1  0
  1 23  1  0
  1 24  1  0
  4 25  1  0
  5 26  1  0
 10 27  1  0
 13 28  1  0
 13 29  1  0
 13 30  1  0
 16 31  1  0
 16 32  1  0
 16 33  1  0
 18 34  1  0
 18 35  1  0
 18 36  1  0
 19 37  1  0
M  END
>  <UniqueID>  (36) 
32

>  <SMILES>  (36) 
COc1ccc(S(=O)(=O)Nc2c(C)nn(C)c2C)cc1Cl

>  <Energy>  (36) 
69.23129611179995

>  <Genealogy>  (36) 
COc1ccc(S(=O)(=O)Nc2c(C)nn(C)c2C)cc1Cl (3D coordinates assigned)
COc1ccc(S(=O)(=O)Nc2c(C)nn(C)c2C)cc1Cl (optimized conformer: 69.23129611179995 kcal/mol)

>  <smiles>  (36) 
COc1ccc(S(=O)(=O)Nc2c(C)nn(C)c2C)cc1Cl

>  <score_type>  (36) 
oracle

>  <origin>  (36) 
adgpu

>  <m_score__min__energy>  (36) 
-8.2200000000000006

>  <m_primary>  (36) 
energy

$$$$
36:0
     RDKit          3D

 41 43  0  0  0  0  0  0  0  0999 V2000
   -5.3189   16.5533  -31.3087 H   0  0  0  0  0  0  0  0  0  0  0  0
   -4.9950   16.3890  -32.3470 C   0  0  0  0  0  0  0  0  0  0  0  0
   -4.9830   15.0950  -32.8770 C   0  0  0  0  0  0  0  0  0  0  0  0
   -5.2796   14.2446  -32.2454 H   0  0  0  0  0  0  0  0  0  0  0  0
   -4.5970   14.8720  -34.2040 C   0  0  0  0  0  0  0  0  0  0  0  0
   -4.6030   13.5500  -34.6810 O   0  0  0  0  0  0  0  0  0  0  0  0
   -5.6790   12.6230  -34.5410 C   0  0  0  0  0  0  0  0  0  0  0  0
   -5.7073   12.2570  -33.5040 H   0  0  0  0  0  0  0  0  0  0  0  0
   -5.5174   11.7870  -35.2374 H   0  0  0  0  0  0  0  0  0  0  0  0
   -7.0120   13.2870  -34.8740 C   0  0  0  0  0  0  0  0  0  0  0  0
   -7.5349   13.5474  -33.9419 H   0  0  0  0  0  0  0  0  0  0  0  0
   -6.8306   14.2000  -35.4601 H   0  0  0  0  0  0  0  0  0  0  0  0
   -7.6315   12.5922  -35.4601 H   0  0  0  0  0  0  0  0  0  0  0  0
   -4.2340   15.9730  -35.0060 C   0  0  0  0  0  0  0  0  0  0  0  0
   -3.9402   15.8143  -36.0541 H   0  0  0  0  0  0  0  0  0  0  0  0
   -4.2460   17.2660  -34.4740 C   0  0  0  0  0  0  0  0  0  0  0  0
   -3.9792   18.1216  -35.1118 H   0  0  0  0  0  0  0  0  0  0  0  0
   -4.5950   17.4790  -33.1360 C   0  0  0  0  0  0  0  0  0  0  0  0
   -4.6520   18.8230  -32.6340 N   0  0  0  0  0  0  0  0  0  0  0  0
   -5.7080   19.5820  -32.4900 C   0  0  0  0  0  0  0  0  0  0  0  0
   -7.0110   19.0890  -32.6940 C   0  0  0  0  0  0  0  0  0  0  0  0
   -7.1602   18.0377  -32.9811 H   0  0  0  0  0  0  0  0  0  0  0  0
   -8.1170   19.9310  -32.5330 C   0  0  0  0  0  0  0  0  0  0  0  0
   -9.5040   19.3880  -32.7220 C   0  0  0  0  0  0  0  0  0  0  0  0
   -9.9643   19.2078  -31.7393 H   0  0  0  0  0  0  0  0  0  0  0  0
  -10.1094   20.1155  -33.2826 H   0  0  0  0  0  0  0  0  0  0  0  0
   -9.4545   18.4429  -33.2826 H   0  0  0  0  0  0  0  0  0  0  0  0
   -7.9390   21.2210  -32.1340 N   0  0  0  0  0  0  0  0  0  0  0  0
   -8.7790   21.8270  -31.9950 H   0  0  0  0  0  0  0  0  0  0  0  0
   -6.6960   21.7340  -31.9020 C   0  0  0  0  0  0  0  0  0  0  0  0
   -6.5540   23.0700  -31.4900 C   0  0  0  0  0  0  0  0  0  0  0  0
   -7.4493   23.6951  -31.3570 H   0  0  0  0  0  0  0  0  0  0  0  0
   -5.2850   23.6170  -31.2460 C   0  0  0  0  0  0  0  0  0  0  0  0
   -5.1510   24.9870  -30.8240 N   0  0  0  0  0  0  0  0  0  0  0  0
   -6.1450   25.6360  -30.4390 O   0  0  0  0  0  0  0  0  0  0  0  0
   -3.9200   25.6060  -30.8370 O   0  0  0  0  0  0  0  0  0  0  0  0
   -4.1490   22.8070  -31.4180 C   0  0  0  0  0  0  0  0  0  0  0  0
   -3.1488   23.2243  -31.2293 H   0  0  0  0  0  0  0  0  0  0  0  0
   -4.2780   21.4780  -31.8260 C   0  0  0  0  0  0  0  0  0  0  0  0
   -3.3785   20.8585  -31.9566 H   0  0  0  0  0  0  0  0  0  0  0  0
   -5.5490   20.9230  -32.0720 C   0  0  0  0  0  0  0  0  0  0  0  0
  1  2  1  0
  2  3  2  0
  3  4  1  0
  3  5  1  0
  5  6  1  0
  6  7  1  0
  7  8  1  0
  7  9  1  0
  7 10  1  0
 10 11  1  0
 10 12  1  0
 10 13  1  0
  5 14  2  0
 14 15  1  0
 14 16  1  0
 16 17  1  0
 16 18  2  0
 18 19  1  0
 19 20  2  0
 20 21  1  0
 21 22  1  0
 21 23  2  0
 23 24  1  0
 24 25  1  0
 24 26  1  0
 24 27  1  0
 23 28  1  0
 28 29  1  0
 28 30  1  0
 30 31  2  0
 31 32  1  0
 31 33  1  0
 33 34  1  0
 34 35  2  0
 34 36  1  0
 33 37  2  0
 37 38  1  0
 37 39  1  0
 39 40  1  0
 39 41  2  0
 18  2  1  0
 41 20  1  0
 41 30  1  0
M  CHG  2  34   1  36  -1
M  END
>  <UniqueID>  (37) 
33

>  <SMILES>  (37) 
CCOc1ccc(/N=c2\cc(C)[nH]c3cc([N+](=O)[O-])ccc23)cc1

>  <Energy>  (37) 
56.28413663081331

>  <Genealogy>  (37) 
CCOc1ccc(/N=c2\cc(C)[nH]c3cc([N+](=O)[O-])ccc23)cc1 (cis-trans isomerization)
CCOc1ccc(/N=c2\cc(C)[nH]c3cc([N+](=O)[O-])ccc23)cc1 (3D coordinates assigned)
CCOc1ccc(/N=c2\cc(C)[nH]c3cc([N+](=O)[O-])ccc23)cc1 (optimized conformer: 56.28413663081331 kcal/mol)

>  <smiles>  (37) 
CCOc1ccc(N=c2cc(C)[nH]c3cc([N+](=O)[O-])ccc23)cc1

>  <score_type>  (37) 
oracle

>  <origin>  (37) 
adgpu

>  <m_score__min__energy>  (37) 
-7.8200000000000003

>  <m_primary>  (37) 
energy

$$$$
37:0
     RDKit          3D

 43 46  0  0  0  0  0  0  0  0999 V2000
    0.5360   21.8980  -27.5870 O   0  0  0  0  0  0  0  0  0  0  0  0
   -0.3170   21.6370  -28.4810 C   0  0  0  0  0  0  0  0  0  0  0  0
   -0.4270   20.3250  -28.9790 C   0  0  0  0  0  0  0  0  0  0  0  0
    0.4620   19.2300  -28.5120 C   0  0  0  0  0  0  0  0  0  0  0  0
    1.8580   19.3450  -28.6470 C   0  0  0  0  0  0  0  0  0  0  0  0
    2.6970   18.3200  -28.2010 C   0  0  0  0  0  0  0  0  0  0  0  0
    2.1540   17.1760  -27.6100 C   0  0  0  0  0  0  0  0  0  0  0  0
    0.7700   17.0560  -27.4640 C   0  0  0  0  0  0  0  0  0  0  0  0
   -0.0740   18.0790  -27.9090 C   0  0  0  0  0  0  0  0  0  0  0  0
   -1.4130   20.0600  -29.9380 C   0  0  0  0  0  0  0  0  0  0  0  0
   -2.2120   21.0240  -30.3760 O   0  0  0  0  0  0  0  0  0  0  0  0
   -2.1390   22.2810  -29.9470 C   0  0  0  0  0  0  0  0  0  0  0  0
   -3.0240   23.2460  -30.4700 C   0  0  0  0  0  0  0  0  0  0  0  0
   -4.0700   22.8490  -31.4880 C   0  0  0  0  0  0  0  0  0  0  0  0
   -4.6410   21.5420  -31.1570 N   0  0  0  0  0  0  0  0  0  0  0  0
   -5.9340   21.1050  -31.6180 C   0  0  0  0  0  0  0  0  0  0  0  0
   -7.1020   21.8540  -31.3720 C   0  0  0  0  0  0  0  0  0  0  0  0
   -8.3420   21.4010  -31.8350 C   0  0  0  0  0  0  0  0  0  0  0  0
   -8.4330   20.1980  -32.5450 C   0  0  0  0  0  0  0  0  0  0  0  0
   -9.6630   19.7370  -33.0090 O   0  0  0  0  0  0  0  0  0  0  0  0
   -7.2780   19.4490  -32.7910 C   0  0  0  0  0  0  0  0  0  0  0  0
   -6.0370   19.9000  -32.3310 C   0  0  0  0  0  0  0  0  0  0  0  0
   -2.9730   24.5650  -29.9830 C   0  0  0  0  0  0  0  0  0  0  0  0
   -3.8620   25.5290  -30.4470 O   0  0  0  0  0  0  0  0  0  0  0  0
   -2.0280   24.9240  -29.0210 C   0  0  0  0  0  0  0  0  0  0  0  0
   -1.1320   23.9800  -28.5140 C   0  0  0  0  0  0  0  0  0  0  0  0
   -0.2060   24.3910  -27.5590 O   0  0  0  0  0  0  0  0  0  0  0  0
   -1.1800   22.6430  -28.9690 C   0  0  0  0  0  0  0  0  0  0  0  0
    2.2911   20.2461  -29.1058 H   0  0  0  0  0  0  0  0  0  0  0  0
    3.7870   18.4140  -28.3154 H   0  0  0  0  0  0  0  0  0  0  0  0
    2.8161   16.3704  -27.2599 H   0  0  0  0  0  0  0  0  0  0  0  0
    0.3431   16.1555  -26.9983 H   0  0  0  0  0  0  0  0  0  0  0  0
   -1.1628   17.9822  -27.7864 H   0  0  0  0  0  0  0  0  0  0  0  0
   -1.5261   19.0396  -30.3329 H   0  0  0  0  0  0  0  0  0  0  0  0
   -4.8715   23.6023  -31.4954 H   0  0  0  0  0  0  0  0  0  0  0  0
   -3.5958   22.7883  -32.4787 H   0  0  0  0  0  0  0  0  0  0  0  0
   -4.0850   20.8880  -30.5590 H   0  0  0  0  0  0  0  0  0  0  0  0
   -7.0385   22.7994  -30.8132 H   0  0  0  0  0  0  0  0  0  0  0  0
   -9.2489   21.9923  -31.6404 H   0  0  0  0  0  0  0  0  0  0  0  0
   -9.7650   19.3480  -33.9390 H   0  0  0  0  0  0  0  0  0  0  0  0
   -7.3459   18.5027  -33.3477 H   0  0  0  0  0  0  0  0  0  0  0  0
   -5.1332   19.3053  -32.5296 H   0  0  0  0  0  0  0  0  0  0  0  0
   -1.9883   25.9616  -28.6580 H   0  0  0  0  0  0  0  0  0  0  0  0
  1  2  2  0
  2  3  1  0
  3  4  1  0
  4  5  2  0
  5  6  1  0
  6  7  2  0
  7  8  1  0
  8  9  2  0
  3 10  2  0
 10 11  1  0
 11 12  1  0
 12 13  2  0
 13 14  1  0
 14 15  1  0
 15 16  1  0
 16 17  2  0
 17 18  1  0
 18 19  2  0
 19 20  1  0
 19 21  1  0
 21 22  2  0
 13 23  1  0
 23 24  1  0
 23 25  2  0
 25 26  1  0
 26 27  1  0
 26 28  2  0
 28  2  1  0
  9  4  1  0
 28 12  1  0
 22 16  1  0
  5 29  1  0
  6 30  1  0
  7 31  1  0
  8 32  1  0
  9 33  1  0
 10 34  1  0
 14 35  1  0
 14 36  1  0
 15 37  1  0
 17 38  1  0
 18 39  1  0
 20 40  1  0
 21 41  1  0
 22 42  1  0
 25 43  1  0
M  CHG  2  24  -1  27  -1
M  END
>  <UniqueID>  (38) 
34

>  <SMILES>  (38) 
O=c1c(-c2ccccc2)coc2c(CNc3ccc(O)cc3)c([O-])cc([O-])c12

>  <Energy>  (38) 
62.53000506315714

>  <Genealogy>  (38) 
O=c1c(-c2ccccc2)coc2c(CNc3ccc(O)cc3)c([O-])cc([O-])c12 (protonated)
O=c1c(-c2ccccc2)coc2c(CNc3ccc(O)cc3)c([O-])cc([O-])c12 (3D coordinates assigned)
O=c1c(-c2ccccc2)coc2c(CNc3ccc(O)cc3)c([O-])cc([O-])c12 (optimized conformer: 62.53000506315714 kcal/mol)

>  <smiles>  (38) 
O=c1c(-c2ccccc2)coc2c(CNc3ccc(O)cc3)c(O)cc(O)c12

>  <score_type>  (38) 
oracle

>  <origin>  (38) 
adgpu

>  <m_score__min__energy>  (38) 
-10.76

>  <m_primary>  (38) 
energy

$$$$
38:0
     RDKit          3D

 32 34  0  0  0  0  0  0  0  0999 V2000
   -9.8620   19.0510  -32.8210 O   0  0  0  0  0  0  0  0  0  0  0  0
   -8.9610   19.8380  -32.4170 C   0  0  0  0  0  0  0  0  0  0  0  0
   -9.2350   21.1660  -32.3270 N   0  0  0  0  0  0  0  0  0  0  0  0
   -8.3050   22.0490  -31.8920 C   0  0  0  0  0  0  0  0  0  0  0  0
   -7.0320   21.6060  -31.5220 C   0  0  0  0  0  0  0  0  0  0  0  0
   -6.0170   22.5810  -31.0480 C   0  0  0  0  0  0  0  0  0  0  0  0
   -4.6520   22.3700  -31.3150 C   0  0  0  0  0  0  0  0  0  0  0  0
   -3.6940   23.2820  -30.8620 C   0  0  0  0  0  0  0  0  0  0  0  0
   -4.0880   24.4100  -30.1350 C   0  0  0  0  0  0  0  0  0  0  0  0
   -3.1570   25.2930  -29.6970 F   0  0  0  0  0  0  0  0  0  0  0  0
   -5.4410   24.6250  -29.8590 C   0  0  0  0  0  0  0  0  0  0  0  0
   -6.4020   23.7150  -30.3100 C   0  0  0  0  0  0  0  0  0  0  0  0
   -6.7620   20.2280  -31.6080 C   0  0  0  0  0  0  0  0  0  0  0  0
   -5.6370   19.7910  -31.2360 O   0  0  0  0  0  0  0  0  0  0  0  0
   -7.7210   19.3600  -32.0710 N   0  0  0  0  0  0  0  0  0  0  0  0
   -7.4410   17.9110  -32.1360 C   0  0  0  0  0  0  0  0  0  0  0  0
   -6.3430   17.6400  -33.1180 C   0  0  0  0  0  0  0  0  0  0  0  0
   -6.0330   18.4140  -34.2270 C   0  0  0  0  0  0  0  0  0  0  0  0
   -5.0000   17.8740  -35.0040 C   0  0  0  0  0  0  0  0  0  0  0  0
   -4.5060   16.6720  -34.5160 C   0  0  0  0  0  0  0  0  0  0  0  0
   -5.3560   16.2780  -33.1190 S   0  0  0  0  0  0  0  0  0  0  0  0
  -10.1810   21.5190  -32.5970 H   0  0  0  0  0  0  0  0  0  0  0  0
   -8.5523   23.1190  -31.8296 H   0  0  0  0  0  0  0  0  0  0  0  0
   -4.3367   21.4826  -31.8833 H   0  0  0  0  0  0  0  0  0  0  0  0
   -2.6288   23.1121  -31.0777 H   0  0  0  0  0  0  0  0  0  0  0  0
   -5.7504   25.5115  -29.2860 H   0  0  0  0  0  0  0  0  0  0  0  0
   -7.4652   23.8868  -30.0864 H   0  0  0  0  0  0  0  0  0  0  0  0
   -7.1348   17.5551  -31.1412 H   0  0  0  0  0  0  0  0  0  0  0  0
   -8.3505   17.3838  -32.4599 H   0  0  0  0  0  0  0  0  0  0  0  0
   -6.5462   19.3558  -34.4713 H   0  0  0  0  0  0  0  0  0  0  0  0
   -4.6165   18.3569  -35.9149 H   0  0  0  0  0  0  0  0  0  0  0  0
   -3.6967   16.0784  -34.9661 H   0  0  0  0  0  0  0  0  0  0  0  0
  1  2  2  0
  2  3  1  0
  3  4  1  0
  4  5  2  0
  5  6  1  0
  6  7  2  0
  7  8  1  0
  8  9  2  0
  9 10  1  0
  9 11  1  0
 11 12  2  0
  5 13  1  0
 13 14  2  0
 13 15  1  0
 15 16  1  0
 16 17  1  0
 17 18  2  0
 18 19  1  0
 19 20  2  0
 20 21  1  0
 15  2  1  0
 21 17  1  0
 12  6  1  0
  3 22  1  0
  4 23  1  0
  7 24  1  0
  8 25  1  0
 11 26  1  0
 12 27  1  0
 16 28  1  0
 16 29  1  0
 18 30  1  0
 19 31  1  0
 20 32  1  0
M  END
>  <UniqueID>  (39) 
35

>  <SMILES>  (39) 
O=c1[nH]cc(-c2ccc(F)cc2)c(=O)n1Cc1cccs1

>  <Energy>  (39) 
69.95461633683145

>  <Genealogy>  (39) 
O=c1[nH]cc(-c2ccc(F)cc2)c(=O)n1Cc1cccs1 (3D coordinates assigned)
O=c1[nH]cc(-c2ccc(F)cc2)c(=O)n1Cc1cccs1 (optimized conformer: 69.95461633683145 kcal/mol)

>  <smiles>  (39) 
O=c1[nH]cc(-c2ccc(F)cc2)c(=O)n1Cc1cccs1

>  <score_type>  (39) 
oracle

>  <origin>  (39) 
adgpu

>  <m_score__min__energy>  (39) 
-7.4299999999999997

>  <m_primary>  (39) 
energy

$$$$
39:0
     RDKit          3D

 35 37  0  0  0  0  0  0  0  0999 V2000
   -4.6070   25.6730  -30.8820 O   0  0  0  0  0  0  0  0  0  0  0  0
   -3.9400   24.7010  -30.4420 C   0  0  0  0  0  0  0  0  0  0  0  0
   -2.7340   24.9220  -29.6980 N   0  0  0  0  0  0  0  0  0  0  0  0
   -2.0140   23.9490  -28.9290 C   0  0  0  0  0  0  0  0  0  0  0  0
   -0.6140   23.8220  -29.0040 C   0  0  0  0  0  0  0  0  0  0  0  0
    0.0450   22.8430  -28.2550 C   0  0  0  0  0  0  0  0  0  0  0  0
   -0.6850   21.9760  -27.4370 C   0  0  0  0  0  0  0  0  0  0  0  0
   -2.0780   22.0810  -27.3760 C   0  0  0  0  0  0  0  0  0  0  0  0
   -2.7390   23.0590  -28.1240 C   0  0  0  0  0  0  0  0  0  0  0  0
   -4.4630   23.3780  -30.5980 N   0  0  0  0  0  0  0  0  0  0  0  0
   -4.0150   22.3940  -31.5440 C   0  0  0  0  0  0  0  0  0  0  0  0
   -2.6480   22.2210  -31.8270 C   0  0  0  0  0  0  0  0  0  0  0  0
   -2.2460   21.2730  -32.7130 N   0  0  0  0  0  0  0  0  0  0  0  0
   -3.1340   20.4710  -33.3540 C   0  0  0  0  0  0  0  0  0  0  0  0
   -4.5010   20.6190  -33.1280 C   0  0  0  0  0  0  0  0  0  0  0  0
   -4.9560   21.5990  -32.2320 C   0  0  0  0  0  0  0  0  0  0  0  0
   -6.4100   21.7550  -32.0060 C   0  0  0  0  0  0  0  0  0  0  0  0
   -7.1820   20.6440  -31.6260 C   0  0  0  0  0  0  0  0  0  0  0  0
   -8.5570   20.7800  -31.4110 C   0  0  0  0  0  0  0  0  0  0  0  0
   -9.1730   22.0220  -31.5810 C   0  0  0  0  0  0  0  0  0  0  0  0
   -8.4170   23.1290  -31.9710 C   0  0  0  0  0  0  0  0  0  0  0  0
   -7.0410   23.0010  -32.1870 C   0  0  0  0  0  0  0  0  0  0  0  0
   -6.3310   24.0830  -32.5990 F   0  0  0  0  0  0  0  0  0  0  0  0
   -0.0366   24.4956  -29.6543 H   0  0  0  0  0  0  0  0  0  0  0  0
    1.1401   22.7547  -28.3094 H   0  0  0  0  0  0  0  0  0  0  0  0
   -0.1640   21.2117  -26.8417 H   0  0  0  0  0  0  0  0  0  0  0  0
   -2.6538   21.3935  -26.7390 H   0  0  0  0  0  0  0  0  0  0  0  0
   -3.8358   23.1311  -28.0809 H   0  0  0  0  0  0  0  0  0  0  0  0
   -1.9011   22.8563  -31.3285 H   0  0  0  0  0  0  0  0  0  0  0  0
   -2.7736   19.7024  -34.0535 H   0  0  0  0  0  0  0  0  0  0  0  0
   -5.2205   19.9706  -33.6495 H   0  0  0  0  0  0  0  0  0  0  0  0
   -6.7023   19.6625  -31.4970 H   0  0  0  0  0  0  0  0  0  0  0  0
   -9.1544   19.9076  -31.1076 H   0  0  0  0  0  0  0  0  0  0  0  0
  -10.2541   22.1279  -31.4076 H   0  0  0  0  0  0  0  0  0  0  0  0
   -8.9051   24.1051  -32.1089 H   0  0  0  0  0  0  0  0  0  0  0  0
  1  2  2  0
  2  3  1  0
  3  4  1  0
  4  5  2  0
  5  6  1  0
  6  7  2  0
  7  8  1  0
  8  9  2  0
  2 10  1  0
 10 11  1  0
 11 12  2  0
 12 13  1  0
 13 14  2  0
 14 15  1  0
 15 16  2  0
 16 17  1  0
 17 18  2  0
 18 19  1  0
 19 20  2  0
 20 21  1  0
 21 22  2  0
 22 23  1  0
  9  4  1  0
 16 11  1  0
 22 17  1  0
  5 24  1  0
  6 25  1  0
  7 26  1  0
  8 27  1  0
  9 28  1  0
 12 29  1  0
 14 30  1  0
 15 31  1  0
 18 32  1  0
 19 33  1  0
 20 34  1  0
 21 35  1  0
M  CHG  2   3  -1  10  -1
M  END
>  <UniqueID>  (40) 
36

>  <SMILES>  (40) 
O=C([N-]c1ccccc1)[N-]c1cnccc1-c1ccccc1F

>  <Energy>  (40) 
53.21158681359494

>  <Genealogy>  (40) 
O=C([N-]c1ccccc1)[N-]c1cnccc1-c1ccccc1F (protonated)
O=C([N-]c1ccccc1)[N-]c1cnccc1-c1ccccc1F (3D coordinates assigned)
O=C([N-]c1ccccc1)[N-]c1cnccc1-c1ccccc1F (optimized conformer: 53.21158681359494 kcal/mol)

>  <smiles>  (40) 
O=C(Nc1ccccc1)Nc1cnccc1-c1ccccc1F

>  <score_type>  (40) 
oracle

>  <origin>  (40) 
adgpu

>  <m_score__min__energy>  (40) 
-10.06

>  <m_primary>  (40) 
energy

$$$$
40:0
     RDKit          3D

 33 34  0  0  0  0  0  0  0  0999 V2000
   -6.0400   25.5760  -30.4620 C   0  0  0  0  0  0  0  0  0  0  0  0
   -5.0970   24.4750  -30.8260 C   0  0  0  0  0  0  0  0  0  0  0  0
   -3.8590   24.3410  -30.3110 N   0  0  0  0  0  0  0  0  0  0  0  0
   -3.3170   23.2550  -30.8450 N   0  0  0  0  0  0  0  0  0  0  0  0
   -1.9880   22.7680  -30.4900 C   0  0  0  0  0  0  0  0  0  0  0  0
   -4.1970   22.6640  -31.6860 C   0  0  0  0  0  0  0  0  0  0  0  0
   -3.9620   21.3720  -32.4090 C   0  0  0  0  0  0  0  0  0  0  0  0
   -5.3390   23.4460  -31.7140 C   0  0  0  0  0  0  0  0  0  0  0  0
   -6.5550   23.2210  -32.4350 N   0  0  0  0  0  0  0  0  0  0  0  0
   -7.8390   22.2430  -31.8010 S   0  0  0  0  0  0  0  0  0  0  0  0
   -7.8370   22.2940  -30.2990 O   0  0  0  0  0  0  0  0  0  0  0  0
   -9.1490   22.7620  -32.3240 O   0  0  0  0  0  0  0  0  0  0  0  0
   -7.5990   20.5670  -32.2980 C   0  0  0  0  0  0  0  0  0  0  0  0
   -6.6990   20.2750  -33.3350 C   0  0  0  0  0  0  0  0  0  0  0  0
   -6.4890   18.9530  -33.7360 C   0  0  0  0  0  0  0  0  0  0  0  0
   -7.1680   17.9120  -33.0980 C   0  0  0  0  0  0  0  0  0  0  0  0
   -6.9620   16.6290  -33.4880 F   0  0  0  0  0  0  0  0  0  0  0  0
   -8.0550   18.1930  -32.0550 C   0  0  0  0  0  0  0  0  0  0  0  0
   -8.2690   19.5140  -31.6500 C   0  0  0  0  0  0  0  0  0  0  0  0
   -9.1200   19.7590  -30.6230 F   0  0  0  0  0  0  0  0  0  0  0  0
   -6.1070   25.6543  -29.3668 H   0  0  0  0  0  0  0  0  0  0  0  0
   -5.6713   26.5263  -30.8756 H   0  0  0  0  0  0  0  0  0  0  0  0
   -7.0356   25.3578  -30.8756 H   0  0  0  0  0  0  0  0  0  0  0  0
   -1.8910   22.7324  -29.3949 H   0  0  0  0  0  0  0  0  0  0  0  0
   -1.8446   21.7589  -30.9038 H   0  0  0  0  0  0  0  0  0  0  0  0
   -1.2266   23.4455  -30.9038 H   0  0  0  0  0  0  0  0  0  0  0  0
   -3.8150   20.5639  -31.6773 H   0  0  0  0  0  0  0  0  0  0  0  0
   -4.8329   21.1413  -33.0401 H   0  0  0  0  0  0  0  0  0  0  0  0
   -3.0656   21.4628  -33.0401 H   0  0  0  0  0  0  0  0  0  0  0  0
   -6.5680   23.4190  -33.4610 H   0  0  0  0  0  0  0  0  0  0  0  0
   -6.1563   21.0911  -33.8345 H   0  0  0  0  0  0  0  0  0  0  0  0
   -5.7885   18.7318  -34.5547 H   0  0  0  0  0  0  0  0  0  0  0  0
   -8.5864   17.3722  -31.5512 H   0  0  0  0  0  0  0  0  0  0  0  0
  1  2  1  0
  2  3  2  0
  3  4  1  0
  4  5  1  0
  4  6  1  0
  6  7  1  0
  6  8  2  0
  8  9  1  0
  9 10  1  0
 10 11  2  0
 10 12  2  0
 10 13  1  0
 13 14  2  0
 14 15  1  0
 15 16  2  0
 16 17  1  0
 16 18  1  0
 18 19  2  0
 19 20  1  0
  8  2  1  0
 19 13  1  0
  1 21  1  0
  1 22  1  0
  1 23  1  0
  5 24  1  0
  5 25  1  0
  5 26  1  0
  7 27  1  0
  7 28  1  0
  7 29  1  0
  9 30  1  0
 14 31  1  0
 15 32  1  0
 18 33  1  0
M  END
>  <UniqueID>  (41) 
37

>  <SMILES>  (41) 
Cc1nn(C)c(C)c1NS(=O)(=O)c1ccc(F)cc1F

>  <Energy>  (41) 
68.15937515827665

>  <Genealogy>  (41) 
Cc1nn(C)c(C)c1NS(=O)(=O)c1ccc(F)cc1F (3D coordinates assigned)
Cc1nn(C)c(C)c1NS(=O)(=O)c1ccc(F)cc1F (optimized conformer: 68.15937515827665 kcal/mol)

>  <smiles>  (41) 
Cc1nn(C)c(C)c1NS(=O)(=O)c1ccc(F)cc1F

>  <score_type>  (41) 
oracle

>  <origin>  (41) 
adgpu

>  <m_score__min__energy>  (41) 
-7.6500000000000004

>  <m_primary>  (41) 
energy

$$$$
41:0
     RDKit          3D

 42 44  0  0  0  0  0  0  0  0999 V2000
   -4.8420   24.1030  -31.4590 O   0  0  0  0  0  0  0  0  0  0  0  0
   -5.6180   23.5170  -30.6540 C   0  0  0  0  0  0  0  0  0  0  0  0
   -5.3590   23.5810  -29.2420 N   0  0  0  0  0  0  0  0  0  0  0  0
   -4.0670   23.8680  -28.6790 C   0  0  0  0  0  0  0  0  0  0  0  0
   -3.9310   24.3740  -27.3720 C   0  0  0  0  0  0  0  0  0  0  0  0
   -2.6650   24.6660  -26.8560 C   0  0  0  0  0  0  0  0  0  0  0  0
   -1.5250   24.4690  -27.6410 C   0  0  0  0  0  0  0  0  0  0  0  0
    0.2040   24.8710  -26.9350 Br  0  0  0  0  0  0  0  0  0  0  0  0
   -1.6530   23.9860  -28.9470 C   0  0  0  0  0  0  0  0  0  0  0  0
   -2.9170   23.6940  -29.4660 C   0  0  0  0  0  0  0  0  0  0  0  0
   -6.8140   22.8140  -31.1770 C   0  0  0  0  0  0  0  0  0  0  0  0
   -7.9920   23.5210  -31.4820 C   0  0  0  0  0  0  0  0  0  0  0  0
   -9.1130   22.8490  -31.9760 C   0  0  0  0  0  0  0  0  0  0  0  0
   -9.0770   21.4670  -32.1640 C   0  0  0  0  0  0  0  0  0  0  0  0
   -7.9210   20.7440  -31.8490 C   0  0  0  0  0  0  0  0  0  0  0  0
   -7.8760   19.0020  -32.1100 S   0  0  0  0  0  0  0  0  0  0  0  0
   -9.2560   18.5300  -32.4770 O   0  0  0  0  0  0  0  0  0  0  0  0
   -7.4560   18.3080  -30.8430 O   0  0  0  0  0  0  0  0  0  0  0  0
   -6.7640   18.6280  -33.4020 N   0  0  0  0  0  0  0  0  0  0  0  0
   -5.4950   19.3510  -33.2030 C   0  0  0  0  0  0  0  0  0  0  0  0
   -4.3990   18.8120  -34.1430 C   0  0  0  0  0  0  0  0  0  0  0  0
   -4.9570   18.0030  -35.1600 O   0  0  0  0  0  0  0  0  0  0  0  0
   -5.5330   16.8420  -34.5860 C   0  0  0  0  0  0  0  0  0  0  0  0
   -6.5220   17.1780  -33.4490 C   0  0  0  0  0  0  0  0  0  0  0  0
   -6.7920   21.4180  -31.3590 C   0  0  0  0  0  0  0  0  0  0  0  0
   -6.1750   23.5310  -28.5910 H   0  0  0  0  0  0  0  0  0  0  0  0
   -4.8255   24.5404  -26.7538 H   0  0  0  0  0  0  0  0  0  0  0  0
   -2.5656   25.0514  -25.8305 H   0  0  0  0  0  0  0  0  0  0  0  0
   -0.7569   23.8356  -29.5670 H   0  0  0  0  0  0  0  0  0  0  0  0
   -3.0120   23.3253  -30.4980 H   0  0  0  0  0  0  0  0  0  0  0  0
   -8.0305   24.6098  -31.3305 H   0  0  0  0  0  0  0  0  0  0  0  0
  -10.0270   23.4114  -32.2175 H   0  0  0  0  0  0  0  0  0  0  0  0
   -9.9597   20.9443  -32.5609 H   0  0  0  0  0  0  0  0  0  0  0  0
   -5.6534   20.4196  -33.4106 H   0  0  0  0  0  0  0  0  0  0  0  0
   -5.1677   19.2049  -32.1630 H   0  0  0  0  0  0  0  0  0  0  0  0
   -3.8730   19.6600  -34.6058 H   0  0  0  0  0  0  0  0  0  0  0  0
   -3.7002   18.2010  -33.5528 H   0  0  0  0  0  0  0  0  0  0  0  0
   -6.0707   16.2893  -35.3705 H   0  0  0  0  0  0  0  0  0  0  0  0
   -4.7187   16.2403  -34.1561 H   0  0  0  0  0  0  0  0  0  0  0  0
   -7.4735   16.6559  -33.6282 H   0  0  0  0  0  0  0  0  0  0  0  0
   -6.0920   16.8534  -32.4900 H   0  0  0  0  0  0  0  0  0  0  0  0
   -5.8817   20.8507  -31.1149 H   0  0  0  0  0  0  0  0  0  0  0  0
  1  2  2  0
  2  3  1  0
  3  4  1  0
  4  5  2  0
  5  6  1  0
  6  7  2  0
  7  8  1  0
  7  9  1  0
  9 10  2  0
  2 11  1  0
 11 12  2  0
 12 13  1  0
 13 14  2  0
 14 15  1  0
 15 16  1  0
 16 17  2  0
 16 18  2  0
 16 19  1  0
 19 20  1  0
 20 21  1  0
 21 22  1  0
 22 23  1  0
 23 24  1  0
 15 25  2  0
 10  4  1  0
 25 11  1  0
 24 19  1  0
  3 26  1  0
  5 27  1  0
  6 28  1  0
  9 29  1  0
 10 30  1  0
 12 31  1  0
 13 32  1  0
 14 33  1  0
 20 34  1  0
 20 35  1  0
 21 36  1  0
 21 37  1  0
 23 38  1  0
 23 39  1  0
 24 40  1  0
 24 41  1  0
 25 42  1  0
M  END
>  <UniqueID>  (42) 
38

>  <SMILES>  (42) 
O=C(Nc1ccc(Br)cc1)c1cccc(S(=O)(=O)N2CCOCC2)c1

>  <Energy>  (42) 
55.98316811709378

>  <Genealogy>  (42) 
O=C(Nc1ccc(Br)cc1)c1cccc(S(=O)(=O)N2CCOCC2)c1 (3D coordinates assigned)
O=C(Nc1ccc(Br)cc1)c1cccc(S(=O)(=O)N2CCOCC2)c1 (nonaromatic ring conformer: 55.98316811709378 kcal/mol)

>  <smiles>  (42) 
O=C(Nc1ccc(Br)cc1)c1cccc(S(=O)(=O)N2CCOCC2)c1

>  <score_type>  (42) 
oracle

>  <origin>  (42) 
adgpu

>  <m_score__min__energy>  (42) 
-9.6799999999999997

>  <m_primary>  (42) 
energy

$$$$
42:0
     RDKit          3D

 35 37  0  0  0  0  0  0  0  0999 V2000
   -0.5275   25.1604  -30.0155 H   0  0  0  0  0  0  0  0  0  0  0  0
   -0.8530   24.9020  -28.9970 C   0  0  0  0  0  0  0  0  0  0  0  0
    0.0660   24.5630  -28.0570 N   0  0  0  0  0  0  0  0  0  0  0  0
   -0.3000   24.2520  -26.7870 C   0  0  0  0  0  0  0  0  0  0  0  0
    0.6270   23.9320  -25.9310 N   0  0  0  0  0  0  0  0  0  0  0  0
    0.4120   23.5730  -24.5330 C   0  0  0  0  0  0  0  0  0  0  0  0
    0.8685   24.3352  -23.8843 H   0  0  0  0  0  0  0  0  0  0  0  0
   -0.6678   23.5181  -24.3304 H   0  0  0  0  0  0  0  0  0  0  0  0
    0.8733   22.5951  -24.3304 H   0  0  0  0  0  0  0  0  0  0  0  0
   -1.6240   24.2850  -26.4400 N   0  0  0  0  0  0  0  0  0  0  0  0
   -1.9410   24.0640  -25.4710 H   0  0  0  0  0  0  0  0  0  0  0  0
   -2.5730   24.6200  -27.3550 C   0  0  0  0  0  0  0  0  0  0  0  0
   -3.6317   24.6531  -27.0583 H   0  0  0  0  0  0  0  0  0  0  0  0
   -2.2090   24.9230  -28.6730 C   0  0  0  0  0  0  0  0  0  0  0  0
   -3.1440   25.2920  -29.6510 O   0  0  0  0  0  0  0  0  0  0  0  0
   -4.2000   24.4910  -30.1090 C   0  0  0  0  0  0  0  0  0  0  0  0
   -5.5120   24.8960  -29.8500 C   0  0  0  0  0  0  0  0  0  0  0  0
   -5.6959   25.8224  -29.2861 H   0  0  0  0  0  0  0  0  0  0  0  0
   -6.5930   24.1330  -30.3020 C   0  0  0  0  0  0  0  0  0  0  0  0
   -7.6202   24.4606  -30.0841 H   0  0  0  0  0  0  0  0  0  0  0  0
   -6.3790   22.9500  -31.0330 C   0  0  0  0  0  0  0  0  0  0  0  0
   -7.5050   22.1740  -31.4930 N   0  0  0  0  0  0  0  0  0  0  0  0
   -8.7550   22.6230  -31.4850 N   0  0  0  0  0  0  0  0  0  0  0  0
   -9.5560   21.6500  -31.9660 C   0  0  0  0  0  0  0  0  0  0  0  0
  -10.6474   21.7158  -32.0865 H   0  0  0  0  0  0  0  0  0  0  0  0
   -8.7760   20.5620  -32.2800 C   0  0  0  0  0  0  0  0  0  0  0  0
   -9.2230   19.3150  -32.8060 N   0  0  0  0  0  0  0  0  0  0  0  0
   -9.4160   19.2120  -33.8270 H   0  0  0  0  0  0  0  0  0  0  0  0
   -9.3620   18.4950  -32.1750 H   0  0  0  0  0  0  0  0  0  0  0  0
   -7.4830   20.9100  -31.9730 C   0  0  0  0  0  0  0  0  0  0  0  0
   -6.5923   20.2761  -32.0953 H   0  0  0  0  0  0  0  0  0  0  0  0
   -5.0550   22.5600  -31.3150 C   0  0  0  0  0  0  0  0  0  0  0  0
   -4.8679   21.6452  -31.8965 H   0  0  0  0  0  0  0  0  0  0  0  0
   -3.9770   23.3260  -30.8620 C   0  0  0  0  0  0  0  0  0  0  0  0
   -2.9483   23.0149  -31.0964 H   0  0  0  0  0  0  0  0  0  0  0  0
  1  2  1  0
  2  3  2  0
  3  4  1  0
  4  5  2  0
  5  6  1  0
  6  7  1  0
  6  8  1  0
  6  9  1  0
  4 10  1  0
 10 11  1  0
 10 12  1  0
 12 13  1  0
 12 14  2  0
 14 15  1  0
 15 16  1  0
 16 17  2  0
 17 18  1  0
 17 19  1  0
 19 20  1  0
 19 21  2  0
 21 22  1  0
 22 23  1  0
 23 24  2  0
 24 25  1  0
 24 26  1  0
 26 27  1  0
 27 28  1  0
 27 29  1  0
 26 30  2  0
 30 31  1  0
 21 32  1  0
 32 33  1  0
 32 34  2  0
 34 35  1  0
 14  2  1  0
 34 16  1  0
 30 22  1  0
M  END
>  <UniqueID>  (43) 
39

>  <SMILES>  (43) 
C/N=c1/ncc(Oc2ccc(-n3cc(N)cn3)cc2)c[nH]1

>  <Energy>  (43) 
77.38811270923178

>  <Genealogy>  (43) 
C/N=c1/ncc(Oc2ccc(-n3cc(N)cn3)cc2)c[nH]1 (cis-trans isomerization)
C/N=c1/ncc(Oc2ccc(-n3cc(N)cn3)cc2)c[nH]1 (3D coordinates assigned)
C/N=c1/ncc(Oc2ccc(-n3cc(N)cn3)cc2)c[nH]1 (optimized conformer: 77.38811270923178 kcal/mol)

>  <smiles>  (43) 
CN=c1ncc(Oc2ccc(-n3cc(N)cn3)cc2)c[nH]1

>  <score_type>  (43) 
oracle

>  <origin>  (43) 
adgpu

>  <m_score__min__energy>  (43) 
-7.1500000000000004

>  <m_primary>  (43) 
energy

$$$$
43:0
     RDKit          3D

 32 33  0  0  0  0  0  0  0  0999 V2000
   -6.9490   24.5690  -30.1190 C   0  0  0  0  0  0  0  0  0  0  0  0
   -5.7860   23.8420  -30.6360 N   0  0  0  0  0  0  0  0  0  0  0  0
   -4.4360   24.2290  -30.2870 C   0  0  0  0  0  0  0  0  0  0  0  0
   -3.9360   25.2690  -30.7960 O   0  0  0  0  0  0  0  0  0  0  0  0
   -3.5940   23.4160  -29.3820 C   0  0  0  0  0  0  0  0  0  0  0  0
   -3.9500   22.2010  -28.9130 N   0  0  0  0  0  0  0  0  0  0  0  0
   -2.8900   21.7950  -28.1810 C   0  0  0  0  0  0  0  0  0  0  0  0
   -2.8720   20.5390  -27.4760 C   0  0  0  0  0  0  0  0  0  0  0  0
   -2.8580   19.5310  -26.9100 N   0  0  0  0  0  0  0  0  0  0  0  0
   -1.8750   22.6880  -28.1780 N   0  0  0  0  0  0  0  0  0  0  0  0
   -0.6110   22.6130  -27.4460 C   0  0  0  0  0  0  0  0  0  0  0  0
   -2.3190   23.7130  -28.9290 C   0  0  0  0  0  0  0  0  0  0  0  0
   -1.6020   24.9350  -29.1330 N   0  0  0  0  0  0  0  0  0  0  0  0
   -6.0150   22.6810  -31.4570 C   0  0  0  0  0  0  0  0  0  0  0  0
   -4.9600   22.1160  -32.1920 C   0  0  0  0  0  0  0  0  0  0  0  0
   -5.1780   20.9800  -32.9780 C   0  0  0  0  0  0  0  0  0  0  0  0
   -6.4470   20.3980  -33.0310 C   0  0  0  0  0  0  0  0  0  0  0  0
   -7.5000   20.9470  -32.2940 C   0  0  0  0  0  0  0  0  0  0  0  0
   -7.2870   22.0820  -31.5070 C   0  0  0  0  0  0  0  0  0  0  0  0
   -6.9297   24.5570  -29.0192 H   0  0  0  0  0  0  0  0  0  0  0  0
   -6.9190   25.6094  -30.4749 H   0  0  0  0  0  0  0  0  0  0  0  0
   -7.8711   24.0862  -30.4749 H   0  0  0  0  0  0  0  0  0  0  0  0
   -0.8123   22.6249  -26.3646 H   0  0  0  0  0  0  0  0  0  0  0  0
   -0.0882   21.6823  -27.7114 H   0  0  0  0  0  0  0  0  0  0  0  0
    0.0182   23.4754  -27.7114 H   0  0  0  0  0  0  0  0  0  0  0  0
   -1.9790   25.6740  -29.7660 H   0  0  0  0  0  0  0  0  0  0  0  0
   -0.6660   25.0940  -28.7010 H   0  0  0  0  0  0  0  0  0  0  0  0
   -3.9584   22.5687  -32.1493 H   0  0  0  0  0  0  0  0  0  0  0  0
   -4.3493   20.5441  -33.5553 H   0  0  0  0  0  0  0  0  0  0  0  0
   -6.6175   19.5071  -33.6532 H   0  0  0  0  0  0  0  0  0  0  0  0
   -8.4976   20.4852  -32.3335 H   0  0  0  0  0  0  0  0  0  0  0  0
   -8.1169   22.5086  -30.9245 H   0  0  0  0  0  0  0  0  0  0  0  0
  1  2  1  0
  2  3  1  0
  3  4  2  0
  3  5  1  0
  5  6  1  0
  6  7  2  0
  7  8  1  0
  8  9  3  0
  7 10  1  0
 10 11  1  0
 10 12  1  0
 12 13  1  0
  2 14  1  0
 14 15  2  0
 15 16  1  0
 16 17  2  0
 17 18  1  0
 18 19  2  0
 12  5  2  0
 19 14  1  0
  1 20  1  0
  1 21  1  0
  1 22  1  0
 11 23  1  0
 11 24  1  0
 11 25  1  0
 13 26  1  0
 13 27  1  0
 15 28  1  0
 16 29  1  0
 17 30  1  0
 18 31  1  0
 19 32  1  0
M  END
>  <UniqueID>  (44) 
40

>  <SMILES>  (44) 
CN(C(=O)c1nc(C#N)n(C)c1N)c1ccccc1

>  <Energy>  (44) 
71.29886864150522

>  <Genealogy>  (44) 
CN(C(=O)c1nc(C#N)n(C)c1N)c1ccccc1 (3D coordinates assigned)
CN(C(=O)c1nc(C#N)n(C)c1N)c1ccccc1 (optimized conformer: 71.29886864150522 kcal/mol)

>  <smiles>  (44) 
CN(C(=O)c1nc(C#N)n(C)c1N)c1ccccc1

>  <score_type>  (44) 
oracle

>  <origin>  (44) 
adgpu

>  <m_score__min__energy>  (44) 
-7.0199999999999996

>  <m_primary>  (44) 
energy

$$$$
44:0
     RDKit          3D

 43 45  0  0  0  0  0  0  0  0999 V2000
   -6.3740   20.1150  -33.4820 C   0  0  0  0  0  0  0  0  0  0  0  0
   -6.8220   21.2260  -32.5800 C   0  0  0  0  0  0  0  0  0  0  0  0
   -8.0800   21.1710  -31.9640 C   0  0  0  0  0  0  0  0  0  0  0  0
   -8.4850   22.1900  -31.0990 C   0  0  0  0  0  0  0  0  0  0  0  0
   -7.6310   23.2620  -30.8280 C   0  0  0  0  0  0  0  0  0  0  0  0
   -6.3520   23.3170  -31.4110 C   0  0  0  0  0  0  0  0  0  0  0  0
   -5.4350   24.4480  -31.1290 C   0  0  0  0  0  0  0  0  0  0  0  0
   -5.9150   25.5580  -30.7790 O   0  0  0  0  0  0  0  0  0  0  0  0
   -4.0070   24.3100  -31.1890 N   0  0  0  0  0  0  0  0  0  0  0  0
   -3.2160   23.2810  -30.5730 C   0  0  0  0  0  0  0  0  0  0  0  0
   -3.2470   21.9590  -31.0550 C   0  0  0  0  0  0  0  0  0  0  0  0
   -2.4160   20.9830  -30.5020 C   0  0  0  0  0  0  0  0  0  0  0  0
   -1.5270   21.3200  -29.4820 C   0  0  0  0  0  0  0  0  0  0  0  0
   -1.4660   22.6320  -29.0120 C   0  0  0  0  0  0  0  0  0  0  0  0
   -2.3150   23.6180  -29.5380 C   0  0  0  0  0  0  0  0  0  0  0  0
   -2.2050   24.9620  -29.0450 N   0  0  0  0  0  0  0  0  0  0  0  0
   -1.0090   25.4870  -28.4490 C   0  0  0  0  0  0  0  0  0  0  0  0
    0.0850   24.8760  -28.5790 O   0  0  0  0  0  0  0  0  0  0  0  0
   -1.0180   26.7530  -27.7790 N   0  0  0  0  0  0  0  0  0  0  0  0
   -0.7610   26.9590  -26.3840 C   0  0  0  0  0  0  0  0  0  0  0  0
   -1.0440   25.9220  -25.4860 C   0  0  0  0  0  0  0  0  0  0  0  0
   -0.8210   26.0910  -24.1160 C   0  0  0  0  0  0  0  0  0  0  0  0
   -0.3300   27.3060  -23.6330 C   0  0  0  0  0  0  0  0  0  0  0  0
   -0.1160   27.4700  -22.3040 F   0  0  0  0  0  0  0  0  0  0  0  0
   -0.0730   28.3580  -24.5160 C   0  0  0  0  0  0  0  0  0  0  0  0
   -0.2950   28.1940  -25.8880 C   0  0  0  0  0  0  0  0  0  0  0  0
   -0.1050   29.2530  -26.7150 F   0  0  0  0  0  0  0  0  0  0  0  0
   -5.9580   22.2960  -32.2930 C   0  0  0  0  0  0  0  0  0  0  0  0
   -6.0312   19.2648  -32.8741 H   0  0  0  0  0  0  0  0  0  0  0  0
   -7.2141   19.7967  -34.1168 H   0  0  0  0  0  0  0  0  0  0  0  0
   -5.5481   20.4685  -34.1168 H   0  0  0  0  0  0  0  0  0  0  0  0
   -8.7507   20.3221  -32.1626 H   0  0  0  0  0  0  0  0  0  0  0  0
   -9.4791   22.1484  -30.6298 H   0  0  0  0  0  0  0  0  0  0  0  0
   -7.9605   24.0674  -30.1551 H   0  0  0  0  0  0  0  0  0  0  0  0
   -3.9314   21.6927  -31.8739 H   0  0  0  0  0  0  0  0  0  0  0  0
   -2.4626   19.9478  -30.8710 H   0  0  0  0  0  0  0  0  0  0  0  0
   -0.8727   20.5500  -29.0472 H   0  0  0  0  0  0  0  0  0  0  0  0
   -0.7467   22.8959  -28.2227 H   0  0  0  0  0  0  0  0  0  0  0  0
   -2.9710   25.6340  -29.2770 H   0  0  0  0  0  0  0  0  0  0  0  0
   -1.4443   24.9685  -25.8609 H   0  0  0  0  0  0  0  0  0  0  0  0
   -1.0323   25.2670  -23.4186 H   0  0  0  0  0  0  0  0  0  0  0  0
    0.3046   29.3171  -24.1319 H   0  0  0  0  0  0  0  0  0  0  0  0
   -4.9641   22.3351  -32.7628 H   0  0  0  0  0  0  0  0  0  0  0  0
  1  2  1  0
  2  3  2  0
  3  4  1  0
  4  5  2  0
  5  6  1  0
  6  7  1  0
  7  8  2  0
  7  9  1  0
  9 10  1  0
 10 11  2  0
 11 12  1  0
 12 13  2  0
 13 14  1  0
 14 15  2  0
 15 16  1  0
 16 17  1  0
 17 18  2  0
 17 19  1  0
 19 20  1  0
 20 21  2  0
 21 22  1  0
 22 23  2  0
 23 24  1  0
 23 25  1  0
 25 26  2  0
 26 27  1  0
  6 28  2  0
 28  2  1  0
 15 10  1  0
 26 20  1  0
  1 29  1  0
  1 30  1  0
  1 31  1  0
  3 32  1  0
  4 33  1  0
  5 34  1  0
 11 35  1  0
 12 36  1  0
 13 37  1  0
 14 38  1  0
 16 39  1  0
 21 40  1  0
 22 41  1  0
 25 42  1  0
 28 43  1  0
M  CHG  2   9  -1  19  -1
M  END
>  <UniqueID>  (45) 
41

>  <SMILES>  (45) 
Cc1cccc(C(=O)[N-]c2ccccc2NC(=O)[N-]c2ccc(F)cc2F)c1

>  <Energy>  (45) 
61.45640222526939

>  <Genealogy>  (45) 
Cc1cccc(C(=O)[N-]c2ccccc2NC(=O)[N-]c2ccc(F)cc2F)c1 (protonated)
Cc1cccc(C(=O)[N-]c2ccccc2NC(=O)[N-]c2ccc(F)cc2F)c1 (3D coordinates assigned)
Cc1cccc(C(=O)[N-]c2ccccc2NC(=O)[N-]c2ccc(F)cc2F)c1 (optimized conformer: 61.45640222526939 kcal/mol)

>  <smiles>  (45) 
Cc1cccc(C(=O)Nc2ccccc2NC(=O)Nc2ccc(F)cc2F)c1

>  <score_type>  (45) 
oracle

>  <origin>  (45) 
adgpu

>  <m_score__min__energy>  (45) 
-11.050000000000001

>  <m_primary>  (45) 
energy

$$$$
45:0
     RDKit          3D

 47 50  0  0  0  0  0  0  0  0999 V2000
   -6.3870   25.7020  -29.5900 C   0  0  0  0  0  0  0  0  0  0  0  0
   -5.5430   25.3910  -30.8210 C   0  0  0  0  0  0  0  0  0  0  0  0
   -5.0330   24.0150  -30.7500 N   0  0  0  0  0  0  0  0  0  0  0  0
   -3.6130   23.7670  -30.4670 C   0  0  0  0  0  0  0  0  0  0  0  0
   -3.2710   24.2520  -29.0840 C   0  0  0  0  0  0  0  0  0  0  0  0
   -4.1890   24.0960  -28.0340 C   0  0  0  0  0  0  0  0  0  0  0  0
   -3.8550   24.5070  -26.7390 C   0  0  0  0  0  0  0  0  0  0  0  0
   -2.5990   25.0630  -26.4830 C   0  0  0  0  0  0  0  0  0  0  0  0
   -1.6750   25.2090  -27.5210 C   0  0  0  0  0  0  0  0  0  0  0  0
   -2.0060   24.8020  -28.8170 C   0  0  0  0  0  0  0  0  0  0  0  0
   -5.9120   22.9110  -31.0330 C   0  0  0  0  0  0  0  0  0  0  0  0
   -7.2720   22.9850  -30.6850 C   0  0  0  0  0  0  0  0  0  0  0  0
   -8.1280   21.9090  -30.9380 C   0  0  0  0  0  0  0  0  0  0  0  0
   -7.6310   20.7490  -31.5370 C   0  0  0  0  0  0  0  0  0  0  0  0
   -8.4480   19.6930  -31.7900 N   0  0  0  0  0  0  0  0  0  0  0  0
   -7.9750   18.5580  -32.3700 C   0  0  0  0  0  0  0  0  0  0  0  0
   -6.6130   18.4660  -32.7180 C   0  0  0  0  0  0  0  0  0  0  0  0
   -6.0470   17.2530  -33.3620 C   0  0  0  0  0  0  0  0  0  0  0  0
   -4.6820   17.2170  -33.7100 C   0  0  0  0  0  0  0  0  0  0  0  0
   -4.1300   16.0800  -34.3070 C   0  0  0  0  0  0  0  0  0  0  0  0
   -4.9300   14.9620  -34.5570 C   0  0  0  0  0  0  0  0  0  0  0  0
   -6.2810   14.9800  -34.2070 C   0  0  0  0  0  0  0  0  0  0  0  0
   -6.8390   16.1140  -33.6100 C   0  0  0  0  0  0  0  0  0  0  0  0
   -5.8020   19.5320  -32.4700 N   0  0  0  0  0  0  0  0  0  0  0  0
   -6.2710   20.6660  -31.8870 C   0  0  0  0  0  0  0  0  0  0  0  0
   -5.4160   21.7430  -31.6360 C   0  0  0  0  0  0  0  0  0  0  0  0
   -5.8043   25.4873  -28.6821 H   0  0  0  0  0  0  0  0  0  0  0  0
   -6.6723   26.7643  -29.5999 H   0  0  0  0  0  0  0  0  0  0  0  0
   -7.2934   25.0788  -29.5999 H   0  0  0  0  0  0  0  0  0  0  0  0
   -6.1613   25.5035  -31.7238 H   0  0  0  0  0  0  0  0  0  0  0  0
   -4.6930   26.0881  -30.8598 H   0  0  0  0  0  0  0  0  0  0  0  0
   -3.4112   22.6878  -30.5347 H   0  0  0  0  0  0  0  0  0  0  0  0
   -2.9987   24.3084  -31.2015 H   0  0  0  0  0  0  0  0  0  0  0  0
   -5.1748   23.6489  -28.2299 H   0  0  0  0  0  0  0  0  0  0  0  0
   -4.5820   24.3923  -25.9215 H   0  0  0  0  0  0  0  0  0  0  0  0
   -2.3376   25.3858  -25.4644 H   0  0  0  0  0  0  0  0  0  0  0  0
   -0.6856   25.6448  -27.3182 H   0  0  0  0  0  0  0  0  0  0  0  0
   -1.2736   24.9128  -29.6302 H   0  0  0  0  0  0  0  0  0  0  0  0
   -7.6655   23.8960  -30.2103 H   0  0  0  0  0  0  0  0  0  0  0  0
   -9.1917   21.9757  -30.6657 H   0  0  0  0  0  0  0  0  0  0  0  0
   -8.6533   17.7147  -32.5668 H   0  0  0  0  0  0  0  0  0  0  0  0
   -4.0452   18.0914  -33.5101 H   0  0  0  0  0  0  0  0  0  0  0  0
   -3.0646   16.0654  -34.5803 H   0  0  0  0  0  0  0  0  0  0  0  0
   -4.4955   14.0686  -35.0292 H   0  0  0  0  0  0  0  0  0  0  0  0
   -6.9091   14.0982  -34.4018 H   0  0  0  0  0  0  0  0  0  0  0  0
   -7.9033   16.1174  -33.3319 H   0  0  0  0  0  0  0  0  0  0  0  0
   -4.3531   21.6759  -31.9111 H   0  0  0  0  0  0  0  0  0  0  0  0
  1  2  1  0
  2  3  1  0
  3  4  1  0
  4  5  1  0
  5  6  2  0
  6  7  1  0
  7  8  2  0
  8  9  1  0
  9 10  2  0
  3 11  1  0
 11 12  2  0
 12 13  1  0
 13 14  2  0
 14 15  1  0
 15 16  2  0
 16 17  1  0
 17 18  1  0
 18 19  2  0
 19 20  1  0
 20 21  2  0
 21 22  1  0
 22 23  2  0
 17 24  2  0
 24 25  1  0
 25 26  2  0
 10  5  1  0
 26 11  1  0
 25 14  1  0
 23 18  1  0
  1 27  1  0
  1 28  1  0
  1 29  1  0
  2 30  1  0
  2 31  1  0
  4 32  1  0
  4 33  1  0
  6 34  1  0
  7 35  1  0
  8 36  1  0
  9 37  1  0
 10 38  1  0
 12 39  1  0
 13 40  1  0
 16 41  1  0
 19 42  1  0
 20 43  1  0
 21 44  1  0
 22 45  1  0
 23 46  1  0
 26 47  1  0
M  END
>  <UniqueID>  (46) 
42

>  <SMILES>  (46) 
CCN(Cc1ccccc1)c1ccc2ncc(-c3ccccc3)nc2c1

>  <Energy>  (46) 
58.28214288193296

>  <Genealogy>  (46) 
CCN(Cc1ccccc1)c1ccc2ncc(-c3ccccc3)nc2c1 (3D coordinates assigned)
CCN(Cc1ccccc1)c1ccc2ncc(-c3ccccc3)nc2c1 (optimized conformer: 58.28214288193296 kcal/mol)

>  <smiles>  (46) 
CCN(Cc1ccccc1)c1ccc2ncc(-c3ccccc3)nc2c1

>  <score_type>  (46) 
oracle

>  <origin>  (46) 
adgpu

>  <m_score__min__energy>  (46) 
-8.8800000000000008

>  <m_primary>  (46) 
energy

$$$$
46:0
     RDKit          3D

 30 32  0  0  0  0  0  0  0  0999 V2000
   -9.4940   19.2890  -32.7080 C   0  0  0  0  0  0  0  0  0  0  0  0
   -8.4850   20.3030  -32.2560 C   0  0  0  0  0  0  0  0  0  0  0  0
   -8.8430   21.2930  -31.3300 C   0  0  0  0  0  0  0  0  0  0  0  0
   -7.8920   22.2150  -30.8810 C   0  0  0  0  0  0  0  0  0  0  0  0
   -6.5680   22.1540  -31.3440 C   0  0  0  0  0  0  0  0  0  0  0  0
   -5.5700   23.1310  -30.8660 C   0  0  0  0  0  0  0  0  0  0  0  0
   -5.0730   24.1400  -31.6090 N   0  0  0  0  0  0  0  0  0  0  0  0
   -4.2160   24.7850  -30.8350 N   0  0  0  0  0  0  0  0  0  0  0  0
   -4.2210   24.1490  -29.6470 C   0  0  0  0  0  0  0  0  0  0  0  0
   -3.4040   24.5400  -28.4840 C   0  0  0  0  0  0  0  0  0  0  0  0
   -2.0560   24.8990  -28.6560 C   0  0  0  0  0  0  0  0  0  0  0  0
   -1.2770   25.2700  -27.5550 C   0  0  0  0  0  0  0  0  0  0  0  0
   -1.8370   25.2880  -26.2740 C   0  0  0  0  0  0  0  0  0  0  0  0
   -0.8580   25.7550  -24.8950 Cl  0  0  0  0  0  0  0  0  0  0  0  0
   -3.1770   24.9330  -26.0930 C   0  0  0  0  0  0  0  0  0  0  0  0
   -3.9580   24.5610  -27.1920 C   0  0  0  0  0  0  0  0  0  0  0  0
   -5.0510   23.1330  -29.6620 O   0  0  0  0  0  0  0  0  0  0  0  0
   -6.2080   21.1510  -32.2590 C   0  0  0  0  0  0  0  0  0  0  0  0
   -7.1580   20.2280  -32.7070 C   0  0  0  0  0  0  0  0  0  0  0  0
   -9.9610   18.8197  -31.8296 H   0  0  0  0  0  0  0  0  0  0  0  0
  -10.2671   19.7854  -33.3129 H   0  0  0  0  0  0  0  0  0  0  0  0
   -8.9938   18.5184  -33.3129 H   0  0  0  0  0  0  0  0  0  0  0  0
   -9.8759   21.3448  -30.9552 H   0  0  0  0  0  0  0  0  0  0  0  0
   -8.1834   22.9932  -30.1602 H   0  0  0  0  0  0  0  0  0  0  0  0
   -1.6112   24.8882  -29.6620 H   0  0  0  0  0  0  0  0  0  0  0  0
   -0.2223   25.5480  -27.6972 H   0  0  0  0  0  0  0  0  0  0  0  0
   -3.6176   24.9463  -25.0852 H   0  0  0  0  0  0  0  0  0  0  0  0
   -5.0121   24.2832  -27.0446 H   0  0  0  0  0  0  0  0  0  0  0  0
   -5.1725   21.0913  -32.6253 H   0  0  0  0  0  0  0  0  0  0  0  0
   -6.8641   19.4398  -33.4158 H   0  0  0  0  0  0  0  0  0  0  0  0
  1  2  1  0
  2  3  2  0
  3  4  1  0
  4  5  2  0
  5  6  1  0
  6  7  2  0
  7  8  1  0
  8  9  2  0
  9 10  1  0
 10 11  2  0
 11 12  1  0
 12 13  2  0
 13 14  1  0
 13 15  1  0
 15 16  2  0
  9 17  1  0
  5 18  1  0
 18 19  2  0
 19  2  1  0
 17  6  1  0
 16 10  1  0
  1 20  1  0
  1 21  1  0
  1 22  1  0
  3 23  1  0
  4 24  1  0
 11 25  1  0
 12 26  1  0
 15 27  1  0
 16 28  1  0
 18 29  1  0
 19 30  1  0
M  END
>  <UniqueID>  (47) 
43

>  <SMILES>  (47) 
Cc1ccc(-c2nnc(-c3ccc(Cl)cc3)o2)cc1

>  <Energy>  (47) 
66.61262288155666

>  <Genealogy>  (47) 
Cc1ccc(-c2nnc(-c3ccc(Cl)cc3)o2)cc1 (3D coordinates assigned)
Cc1ccc(-c2nnc(-c3ccc(Cl)cc3)o2)cc1 (optimized conformer: 66.61262288155666 kcal/mol)

>  <smiles>  (47) 
Cc1ccc(-c2nnc(-c3ccc(Cl)cc3)o2)cc1

>  <score_type>  (47) 
oracle

>  <origin>  (47) 
adgpu

>  <m_score__min__energy>  (47) 
-8.0999999999999996

>  <m_primary>  (47) 
energy

$$$$
47:0
     RDKit          3D

 42 44  0  0  0  0  0  0  0  0999 V2000
   -8.1822   24.1982  -30.2759 H   0  0  0  0  0  0  0  0  0  0  0  0
   -7.2320   23.8300  -30.6900 C   0  0  0  0  0  0  0  0  0  0  0  0
   -7.2320   22.7480  -31.5740 C   0  0  0  0  0  0  0  0  0  0  0  0
   -8.4750   22.1220  -31.9470 C   0  0  0  0  0  0  0  0  0  0  0  0
   -9.4730   21.6190  -32.2450 N   0  0  0  0  0  0  0  0  0  0  0  0
   -6.0260   22.2700  -32.0950 C   0  0  0  0  0  0  0  0  0  0  0  0
   -6.0311   21.4166  -32.7890 H   0  0  0  0  0  0  0  0  0  0  0  0
   -4.8090   22.8710  -31.7390 C   0  0  0  0  0  0  0  0  0  0  0  0
   -3.5270   22.3190  -32.3000 C   0  0  0  0  0  0  0  0  0  0  0  0
   -2.8593   22.0315  -31.4745 H   0  0  0  0  0  0  0  0  0  0  0  0
   -3.7473   21.4360  -32.9179 H   0  0  0  0  0  0  0  0  0  0  0  0
   -3.0369   23.0859  -32.9179 H   0  0  0  0  0  0  0  0  0  0  0  0
   -4.8140   23.9960  -30.8800 C   0  0  0  0  0  0  0  0  0  0  0  0
   -3.6250   24.6600  -30.5460 O   0  0  0  0  0  0  0  0  0  0  0  0
   -2.8240   24.3600  -29.4360 C   0  0  0  0  0  0  0  0  0  0  0  0
   -2.0490   25.3430  -28.8980 N   0  0  0  0  0  0  0  0  0  0  0  0
   -1.2420   25.1190  -27.8140 C   0  0  0  0  0  0  0  0  0  0  0  0
   -0.5190   26.0770  -27.3150 N   0  0  0  0  0  0  0  0  0  0  0  0
   -0.4960   27.4390  -27.8370 C   0  0  0  0  0  0  0  0  0  0  0  0
   -0.4840   28.1524  -26.9998 H   0  0  0  0  0  0  0  0  0  0  0  0
    0.4047   27.5807  -28.4524 H   0  0  0  0  0  0  0  0  0  0  0  0
   -1.3914   27.6110  -28.4524 H   0  0  0  0  0  0  0  0  0  0  0  0
   -1.1870   23.8800  -27.2470 N   0  0  0  0  0  0  0  0  0  0  0  0
   -1.9340   22.8730  -27.7630 C   0  0  0  0  0  0  0  0  0  0  0  0
   -2.7540   23.0880  -28.8550 C   0  0  0  0  0  0  0  0  0  0  0  0
   -3.4910   21.6300  -29.2740 S   0  0  0  0  0  0  0  0  0  0  0  0
   -2.7300   20.7970  -28.0160 C   0  0  0  0  0  0  0  0  0  0  0  0
   -2.9150   19.5290  -27.7890 N   0  0  0  0  0  0  0  0  0  0  0  0
   -2.2740   18.7510  -26.7320 C   0  0  0  0  0  0  0  0  0  0  0  0
   -1.3965   19.3010  -26.3611 H   0  0  0  0  0  0  0  0  0  0  0  0
   -1.9697   17.7782  -27.1456 H   0  0  0  0  0  0  0  0  0  0  0  0
   -3.2390   18.5100  -25.5750 C   0  0  0  0  0  0  0  0  0  0  0  0
   -2.7079   18.6426  -24.6209 H   0  0  0  0  0  0  0  0  0  0  0  0
   -4.0700   19.2282  -25.6350 H   0  0  0  0  0  0  0  0  0  0  0  0
   -3.6348   17.4854  -25.6350 H   0  0  0  0  0  0  0  0  0  0  0  0
   -1.9180   21.6040  -27.2840 N   0  0  0  0  0  0  0  0  0  0  0  0
   -1.3470   21.3100  -26.4610 H   0  0  0  0  0  0  0  0  0  0  0  0
   -6.0270   24.4490  -30.3280 C   0  0  0  0  0  0  0  0  0  0  0  0
   -6.0420   25.6430  -29.4130 C   0  0  0  0  0  0  0  0  0  0  0  0
   -6.0377   25.3033  -28.3668 H   0  0  0  0  0  0  0  0  0  0  0  0
   -5.1515   26.2607  -29.6016 H   0  0  0  0  0  0  0  0  0  0  0  0
   -6.9477   26.2381  -29.6016 H   0  0  0  0  0  0  0  0  0  0  0  0
  1  2  1  0
  2  3  2  0
  3  4  1  0
  4  5  3  0
  3  6  1  0
  6  7  1  0
  6  8  2  0
  8  9  1  0
  9 10  1  0
  9 11  1  0
  9 12  1  0
  8 13  1  0
 13 14  1  0
 14 15  1  0
 15 16  2  0
 16 17  1  0
 17 18  2  0
 18 19  1  0
 19 20  1  0
 19 21  1  0
 19 22  1  0
 17 23  1  0
 23 24  1  0
 24 25  2  0
 25 26  1  0
 26 27  1  0
 27 28  2  0
 28 29  1  0
 29 30  1  0
 29 31  1  0
 29 32  1  0
 32 33  1  0
 32 34  1  0
 32 35  1  0
 27 36  1  0
 36 37  1  0
 13 38  2  0
 38 39  1  0
 39 40  1  0
 39 41  1  0
 39 42  1  0
 38  2  1  0
 25 15  1  0
 36 24  1  0
M  CHG  1  23  -1
M  END
>  <UniqueID>  (48) 
44

>  <SMILES>  (48) 
CC/N=c1\[nH]c2[n-]/c(=N/C)nc(Oc3c(C)cc(C#N)cc3C)c2s1

>  <Energy>  (48) 
84.81982212244915

>  <Genealogy>  (48) 
CCN=c1[nH]c2[n-]c(=NC)nc(Oc3c(C)cc(C#N)cc3C)c2s1 (protonated)
CC/N=c1\[nH]c2[n-]/c(=N/C)nc(Oc3c(C)cc(C#N)cc3C)c2s1 (cis-trans isomerization)
CC/N=c1\[nH]c2[n-]/c(=N/C)nc(Oc3c(C)cc(C#N)cc3C)c2s1 (3D coordinates assigned)
CC/N=c1\[nH]c2[n-]/c(=N/C)nc(Oc3c(C)cc(C#N)cc3C)c2s1 (optimized conformer: 84.81982212244915 kcal/mol)

>  <smiles>  (48) 
CCN=c1[nH]c2[nH]c(=NC)nc(Oc3c(C)cc(C#N)cc3C)c2s1

>  <score_type>  (48) 
oracle

>  <origin>  (48) 
adgpu

>  <m_score__min__energy>  (48) 
-9.2400000000000002

>  <m_primary>  (48) 
energy

$$$$
