0:0
     RDKit          3D

 35 37  0  0  0  0  0  0  0  0999 V2000
   -8.8690   18.1160  -32.0020 O   0  0  0  0  0  0  0  0  0  0  0  0
   -7.3670   18.1960  -32.0180 S   0  0  0  0  0  0  0  0  0  0  0  0
   -6.8430   17.3260  -30.9090 O   0  0  0  0  0  0  0  0  0  0  0  0
   -6.8720   19.8660  -31.7310 C   0  0  0  0  0  0  0  0  0  0  0  0
   -5.5150   20.1890  -31.6030 C   0  0  0  0  0  0  0  0  0  0  0  0
   -5.1230   21.5070  -31.3560 C   0  0  0  0  0  0  0  0  0  0  0  0
   -6.0830   22.5290  -31.2380 C   0  0  0  0  0  0  0  0  0  0  0  0
   -5.6980   23.8950  -30.9810 N   0  0  0  0  0  0  0  0  0  0  0  0
   -6.4440   24.9110  -30.5070 C   0  0  0  0  0  0  0  0  0  0  0  0
   -5.6930   26.0240  -30.4180 N   0  0  0  0  0  0  0  0  0  0  0  0
   -4.4890   25.6700  -30.8430 N   0  0  0  0  0  0  0  0  0  0  0  0
   -4.4890   24.3900  -31.1820 N   0  0  0  0  0  0  0  0  0  0  0  0
   -7.4430   22.1980  -31.3760 C   0  0  0  0  0  0  0  0  0  0  0  0
   -7.8330   20.8790  -31.6230 C   0  0  0  0  0  0  0  0  0  0  0  0
   -6.7750   17.6040  -33.5530 N   0  0  0  0  0  0  0  0  0  0  0  0
   -5.9720   16.3780  -33.3560 C   0  0  0  0  0  0  0  0  0  0  0  0
   -5.1090   16.0720  -34.5840 C   0  0  0  0  0  0  0  0  0  0  0  0
   -4.0970   17.2020  -34.8440 C   0  0  0  0  0  0  0  0  0  0  0  0
   -4.5650   18.5600  -34.2920 C   0  0  0  0  0  0  0  0  0  0  0  0
   -6.0960   18.6740  -34.3260 C   0  0  0  0  0  0  0  0  0  0  0  0
   -4.7538   19.4005  -31.6975 H   0  0  0  0  0  0  0  0  0  0  0  0
   -4.0547   21.7479  -31.2529 H   0  0  0  0  0  0  0  0  0  0  0  0
   -7.5072   24.8415  -30.2337 H   0  0  0  0  0  0  0  0  0  0  0  0
   -8.2068   22.9847  -31.2887 H   0  0  0  0  0  0  0  0  0  0  0  0
   -8.9000   20.6352  -31.7331 H   0  0  0  0  0  0  0  0  0  0  0  0
   -5.3167   16.5157  -32.4833 H   0  0  0  0  0  0  0  0  0  0  0  0
   -6.6605   15.5348  -33.1978 H   0  0  0  0  0  0  0  0  0  0  0  0
   -4.5629   15.1323  -34.4145 H   0  0  0  0  0  0  0  0  0  0  0  0
   -5.7672   15.9832  -35.4609 H   0  0  0  0  0  0  0  0  0  0  0  0
   -3.1434   16.9372  -34.3639 H   0  0  0  0  0  0  0  0  0  0  0  0
   -3.9899   17.3065  -35.9338 H   0  0  0  0  0  0  0  0  0  0  0  0
   -4.2203   18.6631  -33.2525 H   0  0  0  0  0  0  0  0  0  0  0  0
   -4.1418   19.3569  -34.9211 H   0  0  0  0  0  0  0  0  0  0  0  0
   -6.3843   19.6480  -33.9040 H   0  0  0  0  0  0  0  0  0  0  0  0
   -6.4102   18.5716  -35.3752 H   0  0  0  0  0  0  0  0  0  0  0  0
  1  2  2  0
  2  3  2  0
  2  4  1  0
  4  5  2  0
  5  6  1  0
  6  7  2  0
  7  8  1  0
  8  9  1  0
  9 10  2  0
 10 11  1  0
 11 12  2  0
  7 13  1  0
 13 14  2  0
  2 15  1  0
 15 16  1  0
 16 17  1  0
 17 18  1  0
 18 19  1  0
 19 20  1  0
 14  4  1  0
 20 15  1  0
 12  8  1  0
  5 21  1  0
  6 22  1  0
  9 23  1  0
 13 24  1  0
 14 25  1  0
 16 26  1  0
 16 27  1  0
 17 28  1  0
 17 29  1  0
 18 30  1  0
 18 31  1  0
 19 32  1  0
 19 33  1  0
 20 34  1  0
 20 35  1  0
M  END
>  <UniqueID>  (1) 
1

>  <SMILES>  (1) 
O=S(=O)(c1ccc(-n2cnnn2)cc1)N1CCCCC1

>  <Energy>  (1) 
82.49851191446568

>  <Genealogy>  (1) 
O=S(=O)(c1ccc(-n2cnnn2)cc1)N1CCCCC1 (3D coordinates assigned)
O=S(=O)(c1ccc(-n2cnnn2)cc1)N1CCCCC1 (nonaromatic ring conformer: 82.49851191446568 kcal/mol)

>  <smiles>  (1) 
O=S(=O)(c1ccc(-n2cnnn2)cc1)N1CCCCC1

>  <score_type>  (1) 
oracle

>  <origin>  (1) 
adgpu

>  <m_score__min__energy>  (1) 
-8.8699999999999992

>  <m_primary>  (1) 
energy

$$$$
1:0
     RDKit          3D

 58 61  0  0  0  0  0  0  0  0999 V2000
    1.2370   17.2760  -35.6490 C   0  0  0  0  0  0  0  0  0  0  0  0
    0.0520   18.0140  -35.9290 O   0  0  0  0  0  0  0  0  0  0  0  0
   -0.6890   18.7190  -34.9660 C   0  0  0  0  0  0  0  0  0  0  0  0
   -0.4960   20.0990  -34.7490 C   0  0  0  0  0  0  0  0  0  0  0  0
   -1.2430   20.7730  -33.7810 C   0  0  0  0  0  0  0  0  0  0  0  0
   -2.1810   20.0840  -33.0130 C   0  0  0  0  0  0  0  0  0  0  0  0
   -2.3800   18.7170  -33.2160 C   0  0  0  0  0  0  0  0  0  0  0  0
   -1.6460   18.0290  -34.1950 C   0  0  0  0  0  0  0  0  0  0  0  0
   -1.9290   16.3010  -34.4370 S   0  0  0  0  0  0  0  0  0  0  0  0
   -0.7170   15.5150  -34.0180 O   0  0  0  0  0  0  0  0  0  0  0  0
   -2.1720   16.0390  -35.8970 O   0  0  0  0  0  0  0  0  0  0  0  0
   -3.3100   15.7650  -33.5260 N   0  0  0  0  0  0  0  0  0  0  0  0
   -4.5560   15.9710  -34.2700 C   0  0  0  0  0  0  0  0  0  0  0  0
   -5.2540   17.2070  -33.7740 C   0  0  0  0  0  0  0  0  0  0  0  0
   -5.4480   17.4070  -32.4000 C   0  0  0  0  0  0  0  0  0  0  0  0
   -6.1140   18.5470  -31.9470 C   0  0  0  0  0  0  0  0  0  0  0  0
   -6.6130   19.4690  -32.8770 C   0  0  0  0  0  0  0  0  0  0  0  0
   -7.3610   20.6660  -32.4400 C   0  0  0  0  0  0  0  0  0  0  0  0
   -8.7650   20.5970  -32.4280 C   0  0  0  0  0  0  0  0  0  0  0  0
   -9.5270   21.7000  -32.0420 C   0  0  0  0  0  0  0  0  0  0  0  0
   -8.8980   22.8820  -31.6550 C   0  0  0  0  0  0  0  0  0  0  0  0
   -7.5060   22.9620  -31.6400 C   0  0  0  0  0  0  0  0  0  0  0  0
   -6.7200   21.8590  -32.0120 C   0  0  0  0  0  0  0  0  0  0  0  0
   -4.9580   22.0150  -31.9020 S   0  0  0  0  0  0  0  0  0  0  0  0
   -4.4110   20.9660  -30.9750 O   0  0  0  0  0  0  0  0  0  0  0  0
   -4.3870   21.8590  -33.2830 O   0  0  0  0  0  0  0  0  0  0  0  0
   -4.5700   23.5780  -31.2570 N   0  0  0  0  0  0  0  0  0  0  0  0
   -3.5630   23.9310  -30.5090 C   0  0  0  0  0  0  0  0  0  0  0  0
   -3.4430   25.1590  -30.0600 O   0  0  0  0  0  0  0  0  0  0  0  0
   -2.3680   25.2990  -29.3420 N   0  0  0  0  0  0  0  0  0  0  0  0
   -1.7500   24.1030  -29.3160 C   0  0  0  0  0  0  0  0  0  0  0  0
   -0.4440   23.8670  -28.6260 C   0  0  0  0  0  0  0  0  0  0  0  0
   -2.4810   23.1770  -30.0460 C   0  0  0  0  0  0  0  0  0  0  0  0
   -2.0350   21.7820  -30.3750 C   0  0  0  0  0  0  0  0  0  0  0  0
   -6.3810   19.2750  -34.2030 N   0  0  0  0  0  0  0  0  0  0  0  0
   -5.7150   18.1860  -34.6670 C   0  0  0  0  0  0  0  0  0  0  0  0
    1.3690   17.1938  -34.5601 H   0  0  0  0  0  0  0  0  0  0  0  0
    1.1539   16.2697  -36.0853 H   0  0  0  0  0  0  0  0  0  0  0  0
    2.1035   17.7944  -36.0853 H   0  0  0  0  0  0  0  0  0  0  0  0
    0.2474   20.6476  -35.3459 H   0  0  0  0  0  0  0  0  0  0  0  0
   -1.0911   21.8510  -33.6237 H   0  0  0  0  0  0  0  0  0  0  0  0
   -2.7639   20.6172  -32.2476 H   0  0  0  0  0  0  0  0  0  0  0  0
   -3.1169   18.1755  -32.6047 H   0  0  0  0  0  0  0  0  0  0  0  0
   -4.3265   16.0869  -35.3395 H   0  0  0  0  0  0  0  0  0  0  0  0
   -5.2130   15.1014  -34.1210 H   0  0  0  0  0  0  0  0  0  0  0  0
   -5.0751   16.6651  -31.6785 H   0  0  0  0  0  0  0  0  0  0  0  0
   -6.2461   18.7203  -30.8688 H   0  0  0  0  0  0  0  0  0  0  0  0
   -9.2674   19.6648  -32.7257 H   0  0  0  0  0  0  0  0  0  0  0  0
  -10.6252   21.6368  -32.0431 H   0  0  0  0  0  0  0  0  0  0  0  0
   -9.5010   23.7537  -31.3608 H   0  0  0  0  0  0  0  0  0  0  0  0
   -7.0182   23.8991  -31.3335 H   0  0  0  0  0  0  0  0  0  0  0  0
   -0.5946   23.8942  -27.5367 H   0  0  0  0  0  0  0  0  0  0  0  0
   -0.0482   22.8828  -28.9169 H   0  0  0  0  0  0  0  0  0  0  0  0
    0.2712   24.6504  -28.9169 H   0  0  0  0  0  0  0  0  0  0  0  0
   -1.8568   21.2247  -29.4435 H   0  0  0  0  0  0  0  0  0  0  0  0
   -2.8162   21.2760  -30.9613 H   0  0  0  0  0  0  0  0  0  0  0  0
   -1.1052   21.8230  -30.9613 H   0  0  0  0  0  0  0  0  0  0  0  0
   -5.5365   18.0712  -35.7463 H   0  0  0  0  0  0  0  0  0  0  0  0
  1  2  1  0
  2  3  1  0
  3  4  2  0
  4  5  1  0
  5  6  2  0
  6  7  1  0
  7  8  2  0
  8  9  1  0
  9 10  2  0
  9 11  2  0
  9 12  1  0
 12 13  1  0
 13 14  1  0
 14 15  2  0
 15 16  1  0
 16 17  2  0
 17 18  1  0
 18 19  2  0
 19 20  1  0
 20 21  2  0
 21 22  1  0
 22 23  2  0
 23 24  1  0
 24 25  2  0
 24 26  2  0
 24 27  1  0
 27 28  2  3
 28 29  1  0
 29 30  1  0
 30 31  1  0
 31 32  1  0
 31 33  2  0
 33 34  1  0
 17 35  1  0
 35 36  2  0
  8  3  1  0
 36 14  1  0
 23 18  1  0
 33 28  1  0
  1 37  1  0
  1 38  1  0
  1 39  1  0
  4 40  1  0
  5 41  1  0
  6 42  1  0
  7 43  1  0
 13 44  1  0
 13 45  1  0
 15 46  1  0
 16 47  1  0
 19 48  1  0
 20 49  1  0
 21 50  1  0
 22 51  1  0
 32 52  1  0
 32 53  1  0
 32 54  1  0
 34 55  1  0
 34 56  1  0
 34 57  1  0
 36 58  1  0
M  CHG  2  12  -1  30  -1
M  END
>  <UniqueID>  (2) 
2

>  <SMILES>  (2) 
COc1ccccc1S(=O)(=O)[N-]Cc1ccc(-c2ccccc2S(=O)(=O)N=c2o[n-]c(C)c2C)nc1

>  <Energy>  (2) 
107.03157465914317

>  <Genealogy>  (2) 
COc1ccccc1S(=O)(=O)[N-]Cc1ccc(-c2ccccc2S(=O)(=O)N=c2o[n-]c(C)c2C)nc1 (protonated)
COc1ccccc1S(=O)(=O)[N-]Cc1ccc(-c2ccccc2S(=O)(=O)N=c2o[n-]c(C)c2C)nc1 (3D coordinates assigned)
COc1ccccc1S(=O)(=O)[N-]Cc1ccc(-c2ccccc2S(=O)(=O)N=c2o[n-]c(C)c2C)nc1 (optimized conformer: 107.03157465914317 kcal/mol)

>  <smiles>  (2) 
COc1ccccc1S(=O)(=O)NCc1ccc(-c2ccccc2S(=O)(=O)N=c2o[nH]c(C)c2C)nc1

>  <score_type>  (2) 
oracle

>  <origin>  (2) 
adgpu

>  <m_score__min__energy>  (2) 
-12.58

>  <m_primary>  (2) 
energy

$$$$
2:0
     RDKit          3D

 32 33  0  0  0  0  0  0  0  0999 V2000
   -5.7570   24.5980  -31.5570 H   0  0  0  0  0  0  0  0  0  0  0  0
   -5.4420   23.6810  -31.9460 N   0  0  0  0  0  0  0  0  0  0  0  0
   -6.2360   22.6560  -32.0390 C   0  0  0  0  0  0  0  0  0  0  0  0
   -5.7610   21.4450  -32.5660 C   0  0  0  0  0  0  0  0  0  0  0  0
   -4.3750   21.3340  -32.9780 C   0  0  0  0  0  0  0  0  0  0  0  0
   -3.2690   21.2430  -33.3090 N   0  0  0  0  0  0  0  0  0  0  0  0
   -6.6320   20.3390  -32.6560 C   0  0  0  0  0  0  0  0  0  0  0  0
   -6.1070   19.0390  -33.1430 C   0  0  0  0  0  0  0  0  0  0  0  0
   -5.8810   18.8350  -34.5120 C   0  0  0  0  0  0  0  0  0  0  0  0
   -6.1000   19.6394  -35.2296 H   0  0  0  0  0  0  0  0  0  0  0  0
   -5.3780   17.6120  -34.9680 C   0  0  0  0  0  0  0  0  0  0  0  0
   -5.1950   17.4612  -36.0421 H   0  0  0  0  0  0  0  0  0  0  0  0
   -5.1060   16.5770  -34.0610 C   0  0  0  0  0  0  0  0  0  0  0  0
   -4.5290   15.2800  -34.5450 C   0  0  0  0  0  0  0  0  0  0  0  0
   -4.2519   14.6571  -33.6817 H   0  0  0  0  0  0  0  0  0  0  0  0
   -5.2766   14.7507  -35.1541 H   0  0  0  0  0  0  0  0  0  0  0  0
   -3.6353   15.4809  -35.1541 H   0  0  0  0  0  0  0  0  0  0  0  0
   -5.3120   16.7900  -32.6880 C   0  0  0  0  0  0  0  0  0  0  0  0
   -5.0773   15.9919  -31.9683 H   0  0  0  0  0  0  0  0  0  0  0  0
   -5.8140   18.0120  -32.2330 C   0  0  0  0  0  0  0  0  0  0  0  0
   -5.9802   18.1695  -31.1571 H   0  0  0  0  0  0  0  0  0  0  0  0
   -7.9790   20.4700  -32.2280 C   0  0  0  0  0  0  0  0  0  0  0  0
   -8.9500   19.3460  -32.3380 C   0  0  0  0  0  0  0  0  0  0  0  0
   -9.7844   19.4256  -33.0503 H   0  0  0  0  0  0  0  0  0  0  0  0
   -8.8390   18.3060  -31.6350 O   0  0  0  0  0  0  0  0  0  0  0  0
   -8.4040   21.7140  -31.6970 C   0  0  0  0  0  0  0  0  0  0  0  0
   -9.8200   21.9200  -31.2210 C   0  0  0  0  0  0  0  0  0  0  0  0
   -9.8403   21.9230  -30.1212 H   0  0  0  0  0  0  0  0  0  0  0  0
  -10.1970   22.8824  -31.5973 H   0  0  0  0  0  0  0  0  0  0  0  0
  -10.4556   21.1049  -31.5973 H   0  0  0  0  0  0  0  0  0  0  0  0
   -7.5270   22.7550  -31.6170 N   0  0  0  0  0  0  0  0  0  0  0  0
   -7.8560   23.6660  -31.2210 H   0  0  0  0  0  0  0  0  0  0  0  0
  1  2  1  0
  2  3  2  0
  3  4  1  0
  4  5  1  0
  5  6  3  0
  4  7  2  0
  7  8  1  0
  8  9  2  0
  9 10  1  0
  9 11  1  0
 11 12  1  0
 11 13  2  0
 13 14  1  0
 14 15  1  0
 14 16  1  0
 14 17  1  0
 13 18  1  0
 18 19  1  0
 18 20  2  0
 20 21  1  0
  7 22  1  0
 22 23  1  0
 23 24  1  0
 23 25  2  0
 22 26  2  0
 26 27  1  0
 27 28  1  0
 27 29  1  0
 27 30  1  0
 26 31  1  0
 31 32  1  0
 31  3  1  0
 20  8  1  0
M  END
>  <UniqueID>  (3) 
3

>  <SMILES>  (3) 
[H]/N=c1\[nH]c(C)c(C=O)c(-c2ccc(C)cc2)c1C#N

>  <Energy>  (3) 
46.856757669473566

>  <Genealogy>  (3) 
[H]/N=c1\[nH]c(C)c(C=O)c(-c2ccc(C)cc2)c1C#N (cis-trans isomerization)
[H]/N=c1\[nH]c(C)c(C=O)c(-c2ccc(C)cc2)c1C#N (3D coordinates assigned)
[H]/N=c1\[nH]c(C)c(C=O)c(-c2ccc(C)cc2)c1C#N (optimized conformer: 46.856757669473566 kcal/mol)

>  <smiles>  (3) 
Cc1ccc(-c2c(C=O)c(C)[nH]c(=N)c2C#N)cc1

>  <score_type>  (3) 
oracle

>  <origin>  (3) 
adgpu

>  <m_score__min__energy>  (3) 
-7.1200000000000001

>  <m_primary>  (3) 
energy

$$$$
3:0
     RDKit          3D

 47 50  0  0  0  0  0  0  0  0999 V2000
   -0.8710   20.6450  -34.2250 C   0  0  0  0  0  0  0  0  0  0  0  0
   -1.7520   19.4880  -34.1310 N   0  0  0  0  0  0  0  0  0  0  0  0
   -3.1250   19.7530  -33.8700 C   0  0  0  0  0  0  0  0  0  0  0  0
   -3.4420   20.9730  -33.7440 O   0  0  0  0  0  0  0  0  0  0  0  0
   -4.1170   18.6920  -33.7510 C   0  0  0  0  0  0  0  0  0  0  0  0
   -4.2280   17.6470  -34.6380 C   0  0  0  0  0  0  0  0  0  0  0  0
   -5.1910   16.6630  -34.4800 C   0  0  0  0  0  0  0  0  0  0  0  0
   -6.0800   16.6860  -33.4250 C   0  0  0  0  0  0  0  0  0  0  0  0
   -5.9670   17.7370  -32.5330 C   0  0  0  0  0  0  0  0  0  0  0  0
   -6.8660   17.8770  -31.3500 C   0  0  0  0  0  0  0  0  0  0  0  0
   -8.2800   18.9390  -31.7030 S   0  0  0  0  0  0  0  0  0  0  0  0
   -7.7200   20.6350  -31.6300 C   0  0  0  0  0  0  0  0  0  0  0  0
   -8.6290   21.5840  -31.9810 N   0  0  0  0  0  0  0  0  0  0  0  0
   -5.1900   24.2090  -31.0480 C   0  0  0  0  0  0  0  0  0  0  0  0
   -9.2100   23.7660  -32.3040 N   0  0  0  0  0  0  0  0  0  0  0  0
   -7.0360   23.2550  -31.5780 C   0  0  0  0  0  0  0  0  0  0  0  0
   -6.4460   24.4520  -31.4640 N   0  0  0  0  0  0  0  0  0  0  0  0
   -8.3090   22.8970  -31.9610 C   0  0  0  0  0  0  0  0  0  0  0  0
   -4.3320   25.1060  -30.8310 O   0  0  0  0  0  0  0  0  0  0  0  0
   -5.0020   22.8720  -30.9040 N   0  0  0  0  0  0  0  0  0  0  0  0
   -3.7640   22.3170  -30.4740 C   0  0  0  0  0  0  0  0  0  0  0  0
   -2.6580   22.2190  -31.2950 C   0  0  0  0  0  0  0  0  0  0  0  0
   -1.5150   21.6540  -30.7390 C   0  0  0  0  0  0  0  0  0  0  0  0
   -0.4240   21.5540  -31.5360 F   0  0  0  0  0  0  0  0  0  0  0  0
   -1.4700   21.2070  -29.4350 C   0  0  0  0  0  0  0  0  0  0  0  0
   -2.5830   21.3060  -28.6130 C   0  0  0  0  0  0  0  0  0  0  0  0
   -2.5800   20.8820  -27.3330 F   0  0  0  0  0  0  0  0  0  0  0  0
   -3.7190   21.8650  -29.1560 C   0  0  0  0  0  0  0  0  0  0  0  0
   -6.1500   22.2540  -31.2320 C   0  0  0  0  0  0  0  0  0  0  0  0
   -6.4680   20.9460  -31.2510 N   0  0  0  0  0  0  0  0  0  0  0  0
   -4.9940   18.7280  -32.6970 C   0  0  0  0  0  0  0  0  0  0  0  0
   -0.6088   20.9893  -33.2137 H   0  0  0  0  0  0  0  0  0  0  0  0
    0.0450   20.3654  -34.7661 H   0  0  0  0  0  0  0  0  0  0  0  0
   -1.3842   21.4536  -34.7661 H   0  0  0  0  0  0  0  0  0  0  0  0
   -1.4110   18.5130  -34.2480 H   0  0  0  0  0  0  0  0  0  0  0  0
   -3.5370   17.5909  -35.4920 H   0  0  0  0  0  0  0  0  0  0  0  0
   -5.2480   15.8445  -35.2127 H   0  0  0  0  0  0  0  0  0  0  0  0
   -6.8436   15.9043  -33.2991 H   0  0  0  0  0  0  0  0  0  0  0  0
   -7.2325   16.8807  -31.0618 H   0  0  0  0  0  0  0  0  0  0  0  0
   -6.2883   18.3376  -30.5351 H   0  0  0  0  0  0  0  0  0  0  0  0
  -10.1400   23.3520  -32.5740 H   0  0  0  0  0  0  0  0  0  0  0  0
   -6.9170   25.3480  -31.6710 H   0  0  0  0  0  0  0  0  0  0  0  0
   -2.6798   22.5704  -32.3371 H   0  0  0  0  0  0  0  0  0  0  0  0
   -0.5413   20.7672  -29.0425 H   0  0  0  0  0  0  0  0  0  0  0  0
   -4.6187   21.9576  -28.5300 H   0  0  0  0  0  0  0  0  0  0  0  0
   -5.7810   20.2080  -30.9850 H   0  0  0  0  0  0  0  0  0  0  0  0
   -4.9309   19.5499  -31.9687 H   0  0  0  0  0  0  0  0  0  0  0  0
  1  2  1  0
  2  3  1  0
  3  4  2  0
  3  5  1  0
  5  6  2  0
  6  7  1  0
  7  8  2  0
  8  9  1  0
  9 10  1  0
 10 11  1  0
 11 12  1  0
 12 13  2  0
 13 14  1  0
 14 15  2  3
 14 16  1  0
 16 17  1  0
 17 18  1  0
 18 19  2  0
 18 20  1  0
 20 21  1  0
 21 22  2  0
 22 23  1  0
 23 24  1  0
 23 25  2  0
 25 26  1  0
 26 27  1  0
 26 28  2  0
 20 29  1  0
 29 30  1  0
  9 31  2  0
 31  5  1  0
 30 12  1  0
 29 16  2  0
 28 21  1  0
  1 32  1  0
  1 33  1  0
  1 34  1  0
  2 35  1  0
  6 36  1  0
  7 37  1  0
  8 38  1  0
 10 39  1  0
 10 40  1  0
 15 41  1  0
 17 42  1  0
 22 43  1  0
 25 44  1  0
 28 45  1  0
 30 46  1  0
 31 47  1  0
M  END
>  <smiles>  (4) 
CNC(=O)c1cccc(CSc2nc(=N)c3[nH]c(=O)n(-c4cc(F)cc(F)c4)c3[nH]2)c1

>  <score_type>  (4) 
oracle

>  <origin>  (4) 
adgpu

>  <m_score__min__energy>  (4) 
-9.9399999999999995

>  <m_primary>  (4) 
energy

$$$$
4:0
     RDKit          3D

 42 44  0  0  0  0  0  0  0  0999 V2000
   -3.8340   16.4450  -34.9500 C   0  0  0  0  0  0  0  0  0  0  0  0
   -4.6350   16.5960  -33.6960 C   0  0  0  0  0  0  0  0  0  0  0  0
   -4.5110   15.7760  -32.6360 N   0  0  0  0  0  0  0  0  0  0  0  0
   -5.3640   16.1780  -31.7420 O   0  0  0  0  0  0  0  0  0  0  0  0
   -6.0440   17.2220  -32.1580 C   0  0  0  0  0  0  0  0  0  0  0  0
   -6.9670   17.7660  -31.4150 N   0  0  0  0  0  0  0  0  0  0  0  0
   -7.9960   19.1280  -31.7280 S   0  0  0  0  0  0  0  0  0  0  0  0
   -8.6450   18.9330  -33.0710 O   0  0  0  0  0  0  0  0  0  0  0  0
   -9.0780   19.1910  -30.6860 O   0  0  0  0  0  0  0  0  0  0  0  0
   -7.0670   20.6190  -31.7920 C   0  0  0  0  0  0  0  0  0  0  0  0
   -5.6700   20.5660  -31.8780 C   0  0  0  0  0  0  0  0  0  0  0  0
   -4.9190   21.7450  -31.8460 C   0  0  0  0  0  0  0  0  0  0  0  0
   -5.5570   22.9830  -31.7050 C   0  0  0  0  0  0  0  0  0  0  0  0
   -4.7610   24.1700  -31.5880 N   0  0  0  0  0  0  0  0  0  0  0  0
   -4.3760   24.7850  -30.3510 C   0  0  0  0  0  0  0  0  0  0  0  0
   -4.6640   25.9950  -30.1590 O   0  0  0  0  0  0  0  0  0  0  0  0
   -3.6320   24.0410  -29.3070 C   0  0  0  0  0  0  0  0  0  0  0  0
   -4.1880   22.8700  -28.7660 C   0  0  0  0  0  0  0  0  0  0  0  0
   -3.4860   22.1290  -27.8100 C   0  0  0  0  0  0  0  0  0  0  0  0
   -2.2250   22.5550  -27.3760 C   0  0  0  0  0  0  0  0  0  0  0  0
   -1.5130   21.8210  -26.4310 O   0  0  0  0  0  0  0  0  0  0  0  0
   -1.6740   23.7320  -27.8930 C   0  0  0  0  0  0  0  0  0  0  0  0
   -2.3740   24.4820  -28.8440 C   0  0  0  0  0  0  0  0  0  0  0  0
   -1.8220   25.6740  -29.3020 O   0  0  0  0  0  0  0  0  0  0  0  0
   -6.9610   23.0380  -31.6770 C   0  0  0  0  0  0  0  0  0  0  0  0
   -7.7120   21.8610  -31.7240 C   0  0  0  0  0  0  0  0  0  0  0  0
   -5.5980   17.5610  -33.4390 C   0  0  0  0  0  0  0  0  0  0  0  0
   -6.0620   18.5990  -34.4170 C   0  0  0  0  0  0  0  0  0  0  0  0
   -2.7831   16.2469  -34.6922 H   0  0  0  0  0  0  0  0  0  0  0  0
   -4.2313   15.6059  -35.5400 H   0  0  0  0  0  0  0  0  0  0  0  0
   -3.8985   17.3711  -35.5400 H   0  0  0  0  0  0  0  0  0  0  0  0
   -5.1625   19.5945  -31.9709 H   0  0  0  0  0  0  0  0  0  0  0  0
   -3.8233   21.6996  -31.9319 H   0  0  0  0  0  0  0  0  0  0  0  0
   -5.1819   22.5337  -29.0964 H   0  0  0  0  0  0  0  0  0  0  0  0
   -3.9259   21.2088  -27.3979 H   0  0  0  0  0  0  0  0  0  0  0  0
   -1.7340   20.8510  -26.2370 H   0  0  0  0  0  0  0  0  0  0  0  0
   -0.6849   24.0697  -27.5500 H   0  0  0  0  0  0  0  0  0  0  0  0
   -7.4703   24.0112  -31.6179 H   0  0  0  0  0  0  0  0  0  0  0  0
   -8.8108   21.9093  -31.7076 H   0  0  0  0  0  0  0  0  0  0  0  0
   -6.4514   19.4702  -33.8699 H   0  0  0  0  0  0  0  0  0  0  0  0
   -5.2175   18.9106  -35.0492 H   0  0  0  0  0  0  0  0  0  0  0  0
   -6.8574   18.1775  -35.0492 H   0  0  0  0  0  0  0  0  0  0  0  0
  1  2  1  0
  2  3  1  0
  3  4  1  0
  4  5  1  0
  5  6  2  3
  6  7  1  0
  7  8  2  0
  7  9  2  0
  7 10  1  0
 10 11  2  0
 11 12  1  0
 12 13  2  0
 13 14  1  0
 14 15  1  0
 15 16  2  0
 15 17  1  0
 17 18  2  0
 18 19  1  0
 19 20  2  0
 20 21  1  0
 20 22  1  0
 22 23  2  0
 23 24  1  0
 13 25  1  0
 25 26  2  0
  5 27  1  0
 27 28  1  0
 27  2  2  0
 26 10  1  0
 23 17  1  0
  1 29  1  0
  1 30  1  0
  1 31  1  0
 11 32  1  0
 12 33  1  0
 18 34  1  0
 19 35  1  0
 21 36  1  0
 22 37  1  0
 25 38  1  0
 26 39  1  0
 28 40  1  0
 28 41  1  0
 28 42  1  0
M  CHG  3   3  -1  14  -1  24  -1
M  END
>  <UniqueID>  (5) 
4

>  <SMILES>  (5) 
Cc1[n-]oc(=NS(=O)(=O)c2ccc([N-]C(=O)c3ccc(O)cc3[O-])cc2)c1C

>  <Energy>  (5) 
90.97401689890341

>  <Genealogy>  (5) 
Cc1[n-]oc(=NS(=O)(=O)c2ccc([N-]C(=O)c3ccc(O)cc3[O-])cc2)c1C (protonated)
Cc1[n-]oc(=NS(=O)(=O)c2ccc([N-]C(=O)c3ccc(O)cc3[O-])cc2)c1C (3D coordinates assigned)
Cc1[n-]oc(=NS(=O)(=O)c2ccc([N-]C(=O)c3ccc(O)cc3[O-])cc2)c1C (optimized conformer: 90.97401689890341 kcal/mol)

>  <smiles>  (5) 
Cc1[nH]oc(=NS(=O)(=O)c2ccc(NC(=O)c3ccc(O)cc3O)cc2)c1C

>  <score_type>  (5) 
oracle

>  <origin>  (5) 
adgpu

>  <m_score__min__energy>  (5) 
-12.6

>  <m_primary>  (5) 
energy

$$$$
5:0
     RDKit          3D

 54 57  0  0  0  0  0  0  0  0999 V2000
   -0.4370   23.4650  -24.1980 C   0  0  0  0  0  0  0  0  0  0  0  0
    0.1520   24.7900  -24.4280 N   0  0  0  0  0  0  0  0  0  0  0  0
   -0.8210   25.8500  -24.1250 C   0  0  0  0  0  0  0  0  0  0  0  0
    0.7040   24.9310  -26.0790 S   0  0  0  0  0  0  0  0  0  0  0  0
    0.7380   26.3810  -26.4740 O   0  0  0  0  0  0  0  0  0  0  0  0
    2.1010   24.3850  -26.1920 O   0  0  0  0  0  0  0  0  0  0  0  0
   -0.3550   24.0530  -27.1830 C   0  0  0  0  0  0  0  0  0  0  0  0
    0.0040   22.7780  -27.6420 C   0  0  0  0  0  0  0  0  0  0  0  0
   -0.8450   22.0740  -28.5000 C   0  0  0  0  0  0  0  0  0  0  0  0
   -2.0600   22.6360  -28.8970 C   0  0  0  0  0  0  0  0  0  0  0  0
   -2.4400   23.9070  -28.4300 C   0  0  0  0  0  0  0  0  0  0  0  0
   -3.6770   24.5140  -28.8260 N   0  0  0  0  0  0  0  0  0  0  0  0
   -4.1600   24.6380  -30.1710 C   0  0  0  0  0  0  0  0  0  0  0  0
   -3.8680   25.6760  -30.8220 O   0  0  0  0  0  0  0  0  0  0  0  0
   -5.0290   23.6100  -30.7890 C   0  0  0  0  0  0  0  0  0  0  0  0
   -6.0800   23.9780  -31.6480 C   0  0  0  0  0  0  0  0  0  0  0  0
   -6.8930   23.0020  -32.2290 C   0  0  0  0  0  0  0  0  0  0  0  0
   -6.6710   21.6420  -31.9620 C   0  0  0  0  0  0  0  0  0  0  0  0
   -7.5190   20.5910  -32.6250 C   0  0  0  0  0  0  0  0  0  0  0  0
   -6.7410   19.3700  -32.8220 N   0  0  0  0  0  0  0  0  0  0  0  0
   -7.2430   18.0310  -32.7680 C   0  0  0  0  0  0  0  0  0  0  0  0
   -8.3460   17.7080  -32.2470 O   0  0  0  0  0  0  0  0  0  0  0  0
   -6.3120   17.1170  -33.4200 C   0  0  0  0  0  0  0  0  0  0  0  0
   -6.3750   15.7380  -33.6140 C   0  0  0  0  0  0  0  0  0  0  0  0
   -5.3200   15.1220  -34.3110 C   0  0  0  0  0  0  0  0  0  0  0  0
   -4.2390   15.8890  -34.7990 C   0  0  0  0  0  0  0  0  0  0  0  0
   -4.2020   17.2800  -34.5940 C   0  0  0  0  0  0  0  0  0  0  0  0
   -5.2570   17.8670  -33.8970 C   0  0  0  0  0  0  0  0  0  0  0  0
   -5.5120   19.2600  -33.5490 C   0  0  0  0  0  0  0  0  0  0  0  0
   -4.7790   20.2370  -33.8530 O   0  0  0  0  0  0  0  0  0  0  0  0
   -5.6070   21.2720  -31.1270 C   0  0  0  0  0  0  0  0  0  0  0  0
   -4.7920   22.2470  -30.5460 C   0  0  0  0  0  0  0  0  0  0  0  0
   -1.5730   24.6170  -27.5910 C   0  0  0  0  0  0  0  0  0  0  0  0
   -0.5181   23.2826  -23.1163 H   0  0  0  0  0  0  0  0  0  0  0  0
   -1.4378   23.4247  -24.6527 H   0  0  0  0  0  0  0  0  0  0  0  0
    0.2036   22.6950  -24.6527 H   0  0  0  0  0  0  0  0  0  0  0  0
    0.9800   24.9040  -23.7980 H   0  0  0  0  0  0  0  0  0  0  0  0
   -0.9191   25.9569  -23.0346 H   0  0  0  0  0  0  0  0  0  0  0  0
   -0.4742   26.8004  -24.5569 H   0  0  0  0  0  0  0  0  0  0  0  0
   -1.7975   25.5857  -24.5569 H   0  0  0  0  0  0  0  0  0  0  0  0
    0.9575   22.3301  -27.3256 H   0  0  0  0  0  0  0  0  0  0  0  0
   -0.5560   21.0766  -28.8628 H   0  0  0  0  0  0  0  0  0  0  0  0
   -2.7229   22.0822  -29.5780 H   0  0  0  0  0  0  0  0  0  0  0  0
   -6.2629   25.0410  -31.8637 H   0  0  0  0  0  0  0  0  0  0  0  0
   -7.7120   23.3010  -32.8997 H   0  0  0  0  0  0  0  0  0  0  0  0
   -8.3884   20.3699  -31.9884 H   0  0  0  0  0  0  0  0  0  0  0  0
   -7.8570   20.9647  -33.6028 H   0  0  0  0  0  0  0  0  0  0  0  0
   -7.2233   15.1499  -33.2338 H   0  0  0  0  0  0  0  0  0  0  0  0
   -5.3369   14.0348  -34.4773 H   0  0  0  0  0  0  0  0  0  0  0  0
   -3.4205   15.3951  -35.3431 H   0  0  0  0  0  0  0  0  0  0  0  0
   -3.3658   17.8864  -34.9723 H   0  0  0  0  0  0  0  0  0  0  0  0
   -5.4127   20.2077  -30.9281 H   0  0  0  0  0  0  0  0  0  0  0  0
   -3.9592   21.9451  -29.8939 H   0  0  0  0  0  0  0  0  0  0  0  0
   -1.8490   25.6253  -27.2489 H   0  0  0  0  0  0  0  0  0  0  0  0
  1  2  1  0
  2  3  1  0
  2  4  1  0
  4  5  2  0
  4  6  2  0
  4  7  1  0
  7  8  2  0
  8  9  1  0
  9 10  2  0
 10 11  1  0
 11 12  1  0
 12 13  1  0
 13 14  2  0
 13 15  1  0
 15 16  2  0
 16 17  1  0
 17 18  2  0
 18 19  1  0
 19 20  1  0
 20 21  1  0
 21 22  2  0
 21 23  1  0
 23 24  2  0
 24 25  1  0
 25 26  2  0
 26 27  1  0
 27 28  2  0
 28 29  1  0
 29 30  2  0
 18 31  1  0
 31 32  2  0
 11 33  2  0
 33  7  1  0
 32 15  1  0
 29 20  1  0
 28 23  1  0
  1 34  1  0
  1 35  1  0
  1 36  1  0
  2 37  1  0
  3 38  1  0
  3 39  1  0
  3 40  1  0
  8 41  1  0
  9 42  1  0
 10 43  1  0
 16 44  1  0
 17 45  1  0
 19 46  1  0
 19 47  1  0
 24 48  1  0
 25 49  1  0
 26 50  1  0
 27 51  1  0
 31 52  1  0
 32 53  1  0
 33 54  1  0
M  CHG  2   2   1  12  -1
M  END
>  <UniqueID>  (6) 
5

>  <SMILES>  (6) 
C[NH+](C)S(=O)(=O)c1cccc([N-]C(=O)c2ccc(CN3C(=O)c4ccccc4C3=O)cc2)c1

>  <Energy>  (6) 
92.12022301220279

>  <Genealogy>  (6) 
C[NH+](C)S(=O)(=O)c1cccc([N-]C(=O)c2ccc(CN3C(=O)c4ccccc4C3=O)cc2)c1 (protonated)
C[NH+](C)S(=O)(=O)c1cccc([N-]C(=O)c2ccc(CN3C(=O)c4ccccc4C3=O)cc2)c1 (3D coordinates assigned)
C[NH+](C)S(=O)(=O)c1cccc([N-]C(=O)c2ccc(CN3C(=O)c4ccccc4C3=O)cc2)c1 (nonaromatic ring conformer: 92.12022301220279 kcal/mol)

>  <smiles>  (6) 
CN(C)S(=O)(=O)c1cccc(NC(=O)c2ccc(CN3C(=O)c4ccccc4C3=O)cc2)c1

>  <score_type>  (6) 
oracle

>  <origin>  (6) 
adgpu

>  <m_score__min__energy>  (6) 
-12.35

>  <m_primary>  (6) 
energy

$$$$
6:0
     RDKit          3D

 44 46  0  0  0  0  0  0  0  0999 V2000
   -0.5440   21.6120  -31.4430 O   0  0  0  0  0  0  0  0  0  0  0  0
   -1.8070   21.6040  -31.4050 C   0  0  0  0  0  0  0  0  0  0  0  0
   -2.5010   22.5950  -30.6300 N   0  0  0  0  0  0  0  0  0  0  0  0
   -1.8590   23.3870  -29.6170 C   0  0  0  0  0  0  0  0  0  0  0  0
   -0.7630   22.8530  -28.9230 C   0  0  0  0  0  0  0  0  0  0  0  0
   -0.1080   23.6040  -27.9370 C   0  0  0  0  0  0  0  0  0  0  0  0
    1.2470   22.9110  -27.0530 S   0  0  0  0  0  0  0  0  0  0  0  0
    0.9800   22.9780  -25.5760 O   0  0  0  0  0  0  0  0  0  0  0  0
    1.4310   21.4720  -27.4450 O   0  0  0  0  0  0  0  0  0  0  0  0
    2.6460   23.7700  -27.4090 O   0  0  0  0  0  0  0  0  0  0  0  0
   -0.5520   24.9000  -27.6450 C   0  0  0  0  0  0  0  0  0  0  0  0
   -1.6250   25.4490  -28.3500 C   0  0  0  0  0  0  0  0  0  0  0  0
   -2.2730   24.7060  -29.3420 C   0  0  0  0  0  0  0  0  0  0  0  0
   -3.3060   25.2940  -30.0630 O   0  0  0  0  0  0  0  0  0  0  0  0
   -2.5540   20.5980  -32.1970 C   0  0  0  0  0  0  0  0  0  0  0  0
   -1.9910   19.3400  -32.4820 C   0  0  0  0  0  0  0  0  0  0  0  0
   -2.7010   18.3990  -33.2350 C   0  0  0  0  0  0  0  0  0  0  0  0
   -3.9800   18.7010  -33.7180 C   0  0  0  0  0  0  0  0  0  0  0  0
   -4.8590   17.5050  -34.6660 S   0  0  0  0  0  0  0  0  0  0  0  0
   -5.7310   18.2300  -35.6540 O   0  0  0  0  0  0  0  0  0  0  0  0
   -3.8930   16.6280  -35.4150 O   0  0  0  0  0  0  0  0  0  0  0  0
   -5.8510   16.5280  -33.6040 N   0  0  0  0  0  0  0  0  0  0  0  0
   -7.2090   17.0780  -33.5170 C   0  0  0  0  0  0  0  0  0  0  0  0
   -7.2770   17.9900  -32.3000 C   0  0  0  0  0  0  0  0  0  0  0  0
   -6.0430   17.6660  -31.4780 C   0  0  0  0  0  0  0  0  0  0  0  0
   -5.3250   16.5590  -32.2350 C   0  0  0  0  0  0  0  0  0  0  0  0
   -4.5440   19.9530  -33.4450 C   0  0  0  0  0  0  0  0  0  0  0  0
   -3.8360   20.8970  -32.6940 C   0  0  0  0  0  0  0  0  0  0  0  0
   -3.4560   22.8830  -30.9390 H   0  0  0  0  0  0  0  0  0  0  0  0
   -0.4144   21.8357  -29.1546 H   0  0  0  0  0  0  0  0  0  0  0  0
   -0.0543   25.4865  -26.8587 H   0  0  0  0  0  0  0  0  0  0  0  0
   -1.9624   26.4713  -28.1240 H   0  0  0  0  0  0  0  0  0  0  0  0
   -0.9853   19.0950  -32.1099 H   0  0  0  0  0  0  0  0  0  0  0  0
   -2.2526   17.4175  -33.4486 H   0  0  0  0  0  0  0  0  0  0  0  0
   -7.4364   17.6534  -34.4265 H   0  0  0  0  0  0  0  0  0  0  0  0
   -7.9428   16.2640  -33.4227 H   0  0  0  0  0  0  0  0  0  0  0  0
   -7.2658   19.0454  -32.6099 H   0  0  0  0  0  0  0  0  0  0  0  0
   -8.2017   17.8335  -31.7252 H   0  0  0  0  0  0  0  0  0  0  0  0
   -5.3971   18.5520  -31.3898 H   0  0  0  0  0  0  0  0  0  0  0  0
   -6.3053   17.3556  -30.4558 H   0  0  0  0  0  0  0  0  0  0  0  0
   -4.2440   16.7617  -32.2554 H   0  0  0  0  0  0  0  0  0  0  0  0
   -5.4905   15.5902  -31.7411 H   0  0  0  0  0  0  0  0  0  0  0  0
   -5.5483   20.1953  -33.8228 H   0  0  0  0  0  0  0  0  0  0  0  0
   -4.2847   21.8805  -32.4904 H   0  0  0  0  0  0  0  0  0  0  0  0
  1  2  2  0
  2  3  1  0
  3  4  1  0
  4  5  2  0
  5  6  1  0
  6  7  1  0
  7  8  2  0
  7  9  2  0
  7 10  1  0
  6 11  2  0
 11 12  1  0
 12 13  2  0
 13 14  1  0
  2 15  1  0
 15 16  2  0
 16 17  1  0
 17 18  2  0
 18 19  1  0
 19 20  2  0
 19 21  2  0
 19 22  1  0
 22 23  1  0
 23 24  1  0
 24 25  1  0
 25 26  1  0
 18 27  1  0
 27 28  2  0
 13  4  1  0
 28 15  1  0
 26 22  1  0
  3 29  1  0
  5 30  1  0
 11 31  1  0
 12 32  1  0
 16 33  1  0
 17 34  1  0
 23 35  1  0
 23 36  1  0
 24 37  1  0
 24 38  1  0
 25 39  1  0
 25 40  1  0
 26 41  1  0
 26 42  1  0
 27 43  1  0
 28 44  1  0
M  CHG  2  10  -1  14  -1
M  END
>  <UniqueID>  (7) 
6

>  <SMILES>  (7) 
O=C(Nc1cc(S(=O)(=O)[O-])ccc1[O-])c1ccc(S(=O)(=O)N2CCCC2)cc1

>  <Energy>  (7) 
54.573908027693435

>  <Genealogy>  (7) 
O=C(Nc1cc(S(=O)(=O)[O-])ccc1[O-])c1ccc(S(=O)(=O)N2CCCC2)cc1 (protonated)
O=C(Nc1cc(S(=O)(=O)[O-])ccc1[O-])c1ccc(S(=O)(=O)N2CCCC2)cc1 (3D coordinates assigned)
O=C(Nc1cc(S(=O)(=O)[O-])ccc1[O-])c1ccc(S(=O)(=O)N2CCCC2)cc1 (nonaromatic ring conformer: 54.573908027693435 kcal/mol)

>  <smiles>  (7) 
O=C(Nc1cc(S(=O)(=O)O)ccc1O)c1ccc(S(=O)(=O)N2CCCC2)cc1

>  <score_type>  (7) 
oracle

>  <origin>  (7) 
adgpu

>  <m_score__min__energy>  (7) 
-11.6

>  <m_primary>  (7) 
energy

$$$$
7:0
     RDKit          3D

 41 43  0  0  0  0  0  0  0  0999 V2000
   -3.6360   20.0730  -33.9500 O   0  0  0  0  0  0  0  0  0  0  0  0
   -4.3630   19.4180  -33.1550 C   0  0  0  0  0  0  0  0  0  0  0  0
   -4.8920   20.0530  -31.9760 N   0  0  0  0  0  0  0  0  0  0  0  0
   -4.5580   21.3920  -31.5700 C   0  0  0  0  0  0  0  0  0  0  0  0
   -3.2460   21.6800  -31.1620 C   0  0  0  0  0  0  0  0  0  0  0  0
   -2.8910   22.9790  -30.7840 C   0  0  0  0  0  0  0  0  0  0  0  0
   -3.8390   24.0050  -30.8290 C   0  0  0  0  0  0  0  0  0  0  0  0
   -3.4840   25.2960  -30.4550 O   0  0  0  0  0  0  0  0  0  0  0  0
   -5.1410   23.7340  -31.2580 C   0  0  0  0  0  0  0  0  0  0  0  0
   -5.5010   22.4360  -31.6340 C   0  0  0  0  0  0  0  0  0  0  0  0
   -4.6640   17.9990  -33.4650 C   0  0  0  0  0  0  0  0  0  0  0  0
   -5.7520   17.3650  -32.8400 C   0  0  0  0  0  0  0  0  0  0  0  0
   -6.0500   16.0280  -33.1160 C   0  0  0  0  0  0  0  0  0  0  0  0
   -5.2630   15.3010  -34.0150 C   0  0  0  0  0  0  0  0  0  0  0  0
   -5.6500   13.6160  -34.3560 S   0  0  0  0  0  0  0  0  0  0  0  0
   -5.3160   13.3340  -35.7940 O   0  0  0  0  0  0  0  0  0  0  0  0
   -7.1170   13.3740  -34.1340 O   0  0  0  0  0  0  0  0  0  0  0  0
   -4.7090   12.5710  -33.3130 N   0  0  0  0  0  0  0  0  0  0  0  0
   -3.3230   13.0460  -33.2220 C   0  0  0  0  0  0  0  0  0  0  0  0
   -3.2050   13.9350  -31.9930 C   0  0  0  0  0  0  0  0  0  0  0  0
   -4.4520   13.6680  -31.1710 C   0  0  0  0  0  0  0  0  0  0  0  0
   -5.2280   12.6100  -31.9410 C   0  0  0  0  0  0  0  0  0  0  0  0
   -4.1650   15.9180  -34.6270 C   0  0  0  0  0  0  0  0  0  0  0  0
   -3.8640   17.2560  -34.3530 C   0  0  0  0  0  0  0  0  0  0  0  0
   -5.5970   19.5480  -31.3960 H   0  0  0  0  0  0  0  0  0  0  0  0
   -2.4924   20.8790  -31.1394 H   0  0  0  0  0  0  0  0  0  0  0  0
   -1.8648   23.1933  -30.4510 H   0  0  0  0  0  0  0  0  0  0  0  0
   -5.8845   24.5436  -31.3001 H   0  0  0  0  0  0  0  0  0  0  0  0
   -6.5243   22.2298  -31.9809 H   0  0  0  0  0  0  0  0  0  0  0  0
   -6.3742   17.9264  -32.1274 H   0  0  0  0  0  0  0  0  0  0  0  0
   -6.9073   15.5452  -32.6241 H   0  0  0  0  0  0  0  0  0  0  0  0
   -2.6408   12.1882  -33.1280 H   0  0  0  0  0  0  0  0  0  0  0  0
   -3.0547   13.6110  -34.1269 H   0  0  0  0  0  0  0  0  0  0  0  0
   -2.3039   13.6762  -31.4177 H   0  0  0  0  0  0  0  0  0  0  0  0
   -3.1194   14.9969  -32.2671 H   0  0  0  0  0  0  0  0  0  0  0  0
   -4.1814   13.2952  -30.1721 H   0  0  0  0  0  0  0  0  0  0  0  0
   -5.0459   14.5819  -31.0221 H   0  0  0  0  0  0  0  0  0  0  0  0
   -5.0936   11.6281  -31.4637 H   0  0  0  0  0  0  0  0  0  0  0  0
   -6.3007   12.8534  -31.9465 H   0  0  0  0  0  0  0  0  0  0  0  0
   -3.5363   15.3476  -35.3265 H   0  0  0  0  0  0  0  0  0  0  0  0
   -2.9964   17.7307  -34.8346 H   0  0  0  0  0  0  0  0  0  0  0  0
  1  2  2  0
  2  3  1  0
  3  4  1  0
  4  5  2  0
  5  6  1  0
  6  7  2  0
  7  8  1  0
  7  9  1  0
  9 10  2  0
  2 11  1  0
 11 12  2  0
 12 13  1  0
 13 14  2  0
 14 15  1  0
 15 16  2  0
 15 17  2  0
 15 18  1  0
 18 19  1  0
 19 20  1  0
 20 21  1  0
 21 22  1  0
 14 23  1  0
 23 24  2  0
 10  4  1  0
 24 11  1  0
 22 18  1  0
  3 25  1  0
  5 26  1  0
  6 27  1  0
  9 28  1  0
 10 29  1  0
 12 30  1  0
 13 31  1  0
 19 32  1  0
 19 33  1  0
 20 34  1  0
 20 35  1  0
 21 36  1  0
 21 37  1  0
 22 38  1  0
 22 39  1  0
 23 40  1  0
 24 41  1  0
M  CHG  1   8  -1
M  END
>  <UniqueID>  (8) 
7

>  <SMILES>  (8) 
O=C(Nc1ccc([O-])cc1)c1ccc(S(=O)(=O)N2CCCC2)cc1

>  <Energy>  (8) 
50.46904627944952

>  <Genealogy>  (8) 
O=C(Nc1ccc([O-])cc1)c1ccc(S(=O)(=O)N2CCCC2)cc1 (protonated)
O=C(Nc1ccc([O-])cc1)c1ccc(S(=O)(=O)N2CCCC2)cc1 (3D coordinates assigned)
O=C(Nc1ccc([O-])cc1)c1ccc(S(=O)(=O)N2CCCC2)cc1 (nonaromatic ring conformer: 50.46904627944952 kcal/mol)

>  <smiles>  (8) 
O=C(Nc1ccc(O)cc1)c1ccc(S(=O)(=O)N2CCCC2)cc1

>  <score_type>  (8) 
oracle

>  <origin>  (8) 
adgpu

>  <m_score__min__energy>  (8) 
-9.3599999999999994

>  <m_primary>  (8) 
energy

$$$$
8:0
     RDKit          3D

 34 36  0  0  0  0  0  0  0  0999 V2000
   -8.5430   19.1080  -32.3230 C   0  0  0  0  0  0  0  0  0  0  0  0
   -7.1320   19.1300  -32.8030 C   0  0  0  0  0  0  0  0  0  0  0  0
   -6.1990   19.9870  -32.3380 N   0  0  0  0  0  0  0  0  0  0  0  0
   -4.9750   19.7560  -32.8870 C   0  0  0  0  0  0  0  0  0  0  0  0
   -3.8090   20.5790  -32.5290 C   0  0  0  0  0  0  0  0  0  0  0  0
   -3.3860   20.7520  -31.2600 N   0  0  0  0  0  0  0  0  0  0  0  0
   -2.3220   21.5650  -31.4330 C   0  0  0  0  0  0  0  0  0  0  0  0
   -1.3120   22.1690  -30.0840 S   0  0  0  0  0  0  0  0  0  0  0  0
   -2.6870   23.0320  -29.2450 C   0  0  0  0  0  0  0  0  0  0  0  0
   -2.7900   24.4640  -29.6960 C   0  0  0  0  0  0  0  0  0  0  0  0
   -1.9380   25.2950  -29.2840 O   0  0  0  0  0  0  0  0  0  0  0  0
   -3.8710   24.9330  -30.5140 N   0  0  0  0  0  0  0  0  0  0  0  0
   -5.1080   24.2500  -30.7460 C   0  0  0  0  0  0  0  0  0  0  0  0
   -5.3870   23.7600  -32.0290 C   0  0  0  0  0  0  0  0  0  0  0  0
   -6.5780   23.0710  -32.2770 C   0  0  0  0  0  0  0  0  0  0  0  0
   -7.4880   22.8490  -31.2390 C   0  0  0  0  0  0  0  0  0  0  0  0
   -8.6410   22.1780  -31.4800 F   0  0  0  0  0  0  0  0  0  0  0  0
   -7.2010   23.3070  -29.9500 C   0  0  0  0  0  0  0  0  0  0  0  0
   -6.0110   23.9970  -29.7000 C   0  0  0  0  0  0  0  0  0  0  0  0
   -2.0980   21.8730  -32.7240 N   0  0  0  0  0  0  0  0  0  0  0  0
   -3.0400   21.2500  -33.4060 N   0  0  0  0  0  0  0  0  0  0  0  0
   -4.9270   18.6920  -33.7880 C   0  0  0  0  0  0  0  0  0  0  0  0
   -6.4700   18.0300  -33.8870 S   0  0  0  0  0  0  0  0  0  0  0  0
   -8.5562   19.1078  -31.2231 H   0  0  0  0  0  0  0  0  0  0  0  0
   -9.0711   19.9980  -32.6958 H   0  0  0  0  0  0  0  0  0  0  0  0
   -9.0431   18.2019  -32.6958 H   0  0  0  0  0  0  0  0  0  0  0  0
   -3.6296   22.5146  -29.4770 H   0  0  0  0  0  0  0  0  0  0  0  0
   -2.4940   23.0220  -28.1621 H   0  0  0  0  0  0  0  0  0  0  0  0
   -4.6658   23.9182  -32.8444 H   0  0  0  0  0  0  0  0  0  0  0  0
   -6.7993   22.7032  -33.2898 H   0  0  0  0  0  0  0  0  0  0  0  0
   -7.9124   23.1243  -29.1311 H   0  0  0  0  0  0  0  0  0  0  0  0
   -5.7811   24.3428  -28.6814 H   0  0  0  0  0  0  0  0  0  0  0  0
   -3.1400   21.2910  -34.4440 H   0  0  0  0  0  0  0  0  0  0  0  0
   -4.0379   18.3472  -34.3363 H   0  0  0  0  0  0  0  0  0  0  0  0
  1  2  1  0
  2  3  2  0
  3  4  1  0
  4  5  1  0
  5  6  2  0
  6  7  1  0
  7  8  1  0
  8  9  1  0
  9 10  1  0
 10 11  2  0
 10 12  1  0
 12 13  1  0
 13 14  2  0
 14 15  1  0
 15 16  2  0
 16 17  1  0
 16 18  1  0
 18 19  2  0
  7 20  2  0
 20 21  1  0
  4 22  2  0
 22 23  1  0
 23  2  1  0
 21  5  1  0
 19 13  1  0
  1 24  1  0
  1 25  1  0
  1 26  1  0
  9 27  1  0
  9 28  1  0
 14 29  1  0
 15 30  1  0
 18 31  1  0
 19 32  1  0
 21 33  1  0
 22 34  1  0
M  CHG  1  12  -1
M  END
>  <UniqueID>  (9) 
8

>  <SMILES>  (9) 
Cc1nc(-c2nc(SCC(=O)[N-]c3ccc(F)cc3)n[nH]2)cs1

>  <Energy>  (9) 
97.48367742209187

>  <Genealogy>  (9) 
Cc1nc(-c2nc(SCC(=O)[N-]c3ccc(F)cc3)n[nH]2)cs1 (protonated)
Cc1nc(-c2nc(SCC(=O)[N-]c3ccc(F)cc3)n[nH]2)cs1 (3D coordinates assigned)
Cc1nc(-c2nc(SCC(=O)[N-]c3ccc(F)cc3)n[nH]2)cs1 (optimized conformer: 97.48367742209187 kcal/mol)

>  <smiles>  (9) 
Cc1nc(-c2nc(SCC(=O)Nc3ccc(F)cc3)n[nH]2)cs1

>  <score_type>  (9) 
oracle

>  <origin>  (9) 
adgpu

>  <m_score__min__energy>  (9) 
-9.8599999999999994

>  <m_primary>  (9) 
energy

$$$$
9:0
     RDKit          3D

 38 40  0  0  0  0  0  0  0  0999 V2000
   -3.4900   26.3960  -31.2110 H   0  0  0  0  0  0  0  0  0  0  0  0
   -4.2220   25.6500  -31.2200 N   0  0  0  0  0  0  0  0  0  0  0  0
   -4.2440   24.7080  -30.3320 C   0  0  0  0  0  0  0  0  0  0  0  0
   -3.2910   24.6850  -29.3600 N   0  0  0  0  0  0  0  0  0  0  0  0
   -3.2610   23.7310  -28.3920 C   0  0  0  0  0  0  0  0  0  0  0  0
   -2.1990   23.7700  -27.3400 C   0  0  0  0  0  0  0  0  0  0  0  0
   -2.6677   23.7528  -26.3450 H   0  0  0  0  0  0  0  0  0  0  0  0
   -1.5411   22.8954  -27.4506 H   0  0  0  0  0  0  0  0  0  0  0  0
   -1.6070   24.6905  -27.4506 H   0  0  0  0  0  0  0  0  0  0  0  0
   -4.2510   22.7460  -28.3620 C   0  0  0  0  0  0  0  0  0  0  0  0
   -4.2481   21.9811  -27.5715 H   0  0  0  0  0  0  0  0  0  0  0  0
   -5.2430   22.7400  -29.3420 C   0  0  0  0  0  0  0  0  0  0  0  0
   -6.0307   21.9726  -29.3174 H   0  0  0  0  0  0  0  0  0  0  0  0
   -5.2430   23.7080  -30.3610 C   0  0  0  0  0  0  0  0  0  0  0  0
   -6.3450   23.7110  -31.4080 C   0  0  0  0  0  0  0  0  0  0  0  0
   -7.0817   24.4850  -31.1469 H   0  0  0  0  0  0  0  0  0  0  0  0
   -5.8855   23.9152  -32.3863 H   0  0  0  0  0  0  0  0  0  0  0  0
   -7.0320   22.4050  -31.4880 N   0  0  0  0  0  0  0  0  0  0  0  0
   -8.2860   22.3140  -30.9450 C   0  0  0  0  0  0  0  0  0  0  0  0
   -8.7320   23.1974  -30.4646 H   0  0  0  0  0  0  0  0  0  0  0  0
   -9.0050   21.1260  -30.9900 C   0  0  0  0  0  0  0  0  0  0  0  0
   -9.9996   21.0625  -30.5244 H   0  0  0  0  0  0  0  0  0  0  0  0
   -8.4600   20.0210  -31.6260 C   0  0  0  0  0  0  0  0  0  0  0  0
   -9.0269   19.0793  -31.6691 H   0  0  0  0  0  0  0  0  0  0  0  0
   -7.1930   20.0980  -32.2130 C   0  0  0  0  0  0  0  0  0  0  0  0
   -6.7000   18.9150  -32.9520 C   0  0  0  0  0  0  0  0  0  0  0  0
   -6.0410   18.9420  -34.5010 S   0  0  0  0  0  0  0  0  0  0  0  0
   -5.6620   17.3060  -34.5740 C   0  0  0  0  0  0  0  0  0  0  0  0
   -5.1991   16.7891  -35.4275 H   0  0  0  0  0  0  0  0  0  0  0  0
   -6.0340   16.7190  -33.3710 C   0  0  0  0  0  0  0  0  0  0  0  0
   -5.8930   15.6498  -33.1541 H   0  0  0  0  0  0  0  0  0  0  0  0
   -6.6050   17.6160  -32.4610 C   0  0  0  0  0  0  0  0  0  0  0  0
   -6.9452   17.3233  -31.4567 H   0  0  0  0  0  0  0  0  0  0  0  0
   -6.4490   21.3050  -32.0930 C   0  0  0  0  0  0  0  0  0  0  0  0
   -5.0400   21.3810  -32.6460 C   0  0  0  0  0  0  0  0  0  0  0  0
   -4.3212   21.4198  -31.8142 H   0  0  0  0  0  0  0  0  0  0  0  0
   -4.8397   20.4924  -33.2626 H   0  0  0  0  0  0  0  0  0  0  0  0
   -4.9364   22.2860  -33.2626 H   0  0  0  0  0  0  0  0  0  0  0  0
  1  2  1  0
  2  3  2  0
  3  4  1  0
  4  5  1  0
  5  6  1  0
  6  7  1  0
  6  8  1  0
  6  9  1  0
  5 10  2  0
 10 11  1  0
 10 12  1  0
 12 13  1  0
 12 14  2  0
 14 15  1  0
 15 16  1  0
 15 17  1  0
 15 18  1  0
 18 19  2  0
 19 20  1  0
 19 21  1  0
 21 22  1  0
 21 23  2  0
 23 24  1  0
 23 25  1  0
 25 26  1  0
 26 27  1  0
 27 28  1  0
 28 29  1  0
 28 30  2  0
 30 31  1  0
 30 32  1  0
 32 33  1  0
 25 34  2  0
 34 35  1  0
 35 36  1  0
 35 37  1  0
 35 38  1  0
 14  3  1  0
 34 18  1  0
 32 26  2  0
M  CHG  2   4  -1  18   1
M  END
>  <UniqueID>  (10) 
9

>  <SMILES>  (10) 
[H]/N=c1\[n-]c(C)ccc1C[n+]1cccc(-c2cccs2)c1C

>  <Energy>  (10) 
77.85905904531396

>  <Genealogy>  (10) 
Cc1ccc(C[n+]2cccc(-c3cccs3)c2C)c(=N)[n-]1 (protonated)
[H]/N=c1\[n-]c(C)ccc1C[n+]1cccc(-c2cccs2)c1C (cis-trans isomerization)
[H]/N=c1\[n-]c(C)ccc1C[n+]1cccc(-c2cccs2)c1C (3D coordinates assigned)
[H]/N=c1\[n-]c(C)ccc1C[n+]1cccc(-c2cccs2)c1C (optimized conformer: 77.85905904531396 kcal/mol)

>  <smiles>  (10) 
Cc1ccc(C[n+]2cccc(-c3cccs3)c2C)c(=N)[nH]1

>  <score_type>  (10) 
oracle

>  <origin>  (10) 
adgpu

>  <m_score__min__energy>  (10) 
-9.7899999999999991

>  <m_primary>  (10) 
energy

$$$$
10:0
     RDKit          3D

 44 46  0  0  0  0  0  0  0  0999 V2000
   -7.2270   14.4890  -34.5750 C   0  0  0  0  0  0  0  0  0  0  0  0
   -5.7860   14.3360  -34.2080 C   0  0  0  0  0  0  0  0  0  0  0  0
   -5.0290   13.2880  -34.5840 N   0  0  0  0  0  0  0  0  0  0  0  0
   -3.8330   13.4920  -34.1110 O   0  0  0  0  0  0  0  0  0  0  0  0
   -3.7670   14.6240  -33.4480 C   0  0  0  0  0  0  0  0  0  0  0  0
   -2.5130   15.1390  -32.8200 C   0  0  0  0  0  0  0  0  0  0  0  0
   -5.0210   15.2160  -33.4630 C   0  0  0  0  0  0  0  0  0  0  0  0
   -5.4510   16.5060  -32.8870 C   0  0  0  0  0  0  0  0  0  0  0  0
   -5.7230   16.5630  -31.6570 O   0  0  0  0  0  0  0  0  0  0  0  0
   -5.5610   17.6820  -33.7080 N   0  0  0  0  0  0  0  0  0  0  0  0
   -5.9590   18.9730  -33.2150 C   0  0  0  0  0  0  0  0  0  0  0  0
   -7.2980   19.1870  -32.8580 C   0  0  0  0  0  0  0  0  0  0  0  0
   -7.7180   20.4400  -32.4020 C   0  0  0  0  0  0  0  0  0  0  0  0
   -6.8090   21.5020  -32.3190 C   0  0  0  0  0  0  0  0  0  0  0  0
   -7.3430   23.0890  -31.7640 S   0  0  0  0  0  0  0  0  0  0  0  0
   -8.8450   23.1290  -31.7910 O   0  0  0  0  0  0  0  0  0  0  0  0
   -6.8410   24.1390  -32.7150 O   0  0  0  0  0  0  0  0  0  0  0  0
   -6.7870   23.4610  -30.1440 N   0  0  0  0  0  0  0  0  0  0  0  0
   -5.4730   22.8590  -29.8350 C   0  0  0  0  0  0  0  0  0  0  0  0
   -4.3170   23.8690  -29.9160 C   0  0  0  0  0  0  0  0  0  0  0  0
   -4.6070   24.8750  -30.8580 O   0  0  0  0  0  0  0  0  0  0  0  0
   -5.6480   25.6990  -30.3700 C   0  0  0  0  0  0  0  0  0  0  0  0
   -6.8620   24.9010  -29.8370 C   0  0  0  0  0  0  0  0  0  0  0  0
   -5.4740   21.2970  -32.6890 C   0  0  0  0  0  0  0  0  0  0  0  0
   -5.0520   20.0440  -33.1450 C   0  0  0  0  0  0  0  0  0  0  0  0
   -7.8336   14.5534  -33.6597 H   0  0  0  0  0  0  0  0  0  0  0  0
   -7.3590   15.4062  -35.1677 H   0  0  0  0  0  0  0  0  0  0  0  0
   -7.5487   13.6200  -35.1677 H   0  0  0  0  0  0  0  0  0  0  0  0
   -2.6085   15.0998  -31.7249 H   0  0  0  0  0  0  0  0  0  0  0  0
   -1.6624   14.5174  -33.1364 H   0  0  0  0  0  0  0  0  0  0  0  0
   -2.3448   16.1790  -33.1364 H   0  0  0  0  0  0  0  0  0  0  0  0
   -5.3930   17.5970  -34.7330 H   0  0  0  0  0  0  0  0  0  0  0  0
   -8.0228   18.3634  -32.9373 H   0  0  0  0  0  0  0  0  0  0  0  0
   -8.7668   20.5923  -32.1072 H   0  0  0  0  0  0  0  0  0  0  0  0
   -5.5073   22.4461  -28.8160 H   0  0  0  0  0  0  0  0  0  0  0  0
   -5.2827   22.0792  -30.5872 H   0  0  0  0  0  0  0  0  0  0  0  0
   -4.1688   24.3297  -28.9282 H   0  0  0  0  0  0  0  0  0  0  0  0
   -3.4041   23.3410  -30.2286 H   0  0  0  0  0  0  0  0  0  0  0  0
   -5.2497   26.3167  -29.5516 H   0  0  0  0  0  0  0  0  0  0  0  0
   -6.0039   26.3082  -31.2139 H   0  0  0  0  0  0  0  0  0  0  0  0
   -6.9098   25.0242  -28.7450 H   0  0  0  0  0  0  0  0  0  0  0  0
   -7.7592   25.2965  -30.3356 H   0  0  0  0  0  0  0  0  0  0  0  0
   -4.7537   22.1256  -32.6206 H   0  0  0  0  0  0  0  0  0  0  0  0
   -4.0056   19.8962  -33.4502 H   0  0  0  0  0  0  0  0  0  0  0  0
  1  2  1  0
  2  3  2  0
  3  4  1  0
  4  5  1  0
  5  6  1  0
  5  7  2  0
  7  8  1  0
  8  9  2  0
  8 10  1  0
 10 11  1  0
 11 12  2  0
 12 13  1  0
 13 14  2  0
 14 15  1  0
 15 16  2  0
 15 17  2  0
 15 18  1  0
 18 19  1  0
 19 20  1  0
 20 21  1  0
 21 22  1  0
 22 23  1  0
 14 24  1  0
 24 25  2  0
  7  2  1  0
 25 11  1  0
 23 18  1  0
  1 26  1  0
  1 27  1  0
  1 28  1  0
  6 29  1  0
  6 30  1  0
  6 31  1  0
 10 32  1  0
 12 33  1  0
 13 34  1  0
 19 35  1  0
 19 36  1  0
 20 37  1  0
 20 38  1  0
 22 39  1  0
 22 40  1  0
 23 41  1  0
 23 42  1  0
 24 43  1  0
 25 44  1  0
M  END
>  <UniqueID>  (11) 
10

>  <SMILES>  (11) 
Cc1noc(C)c1C(=O)Nc1ccc(S(=O)(=O)N2CCOCC2)cc1

>  <Energy>  (11) 
91.40978026712051

>  <Genealogy>  (11) 
Cc1noc(C)c1C(=O)Nc1ccc(S(=O)(=O)N2CCOCC2)cc1 (3D coordinates assigned)
Cc1noc(C)c1C(=O)Nc1ccc(S(=O)(=O)N2CCOCC2)cc1 (nonaromatic ring conformer: 91.40978026712051 kcal/mol)

>  <smiles>  (11) 
Cc1noc(C)c1C(=O)Nc1ccc(S(=O)(=O)N2CCOCC2)cc1

>  <score_type>  (11) 
oracle

>  <origin>  (11) 
adgpu

>  <m_score__min__energy>  (11) 
-8.1899999999999995

>  <m_primary>  (11) 
energy

$$$$
11:0
     RDKit          3D

 48 50  0  0  0  0  0  0  0  0999 V2000
   -5.7162   24.0291  -32.5272 H   0  0  0  0  0  0  0  0  0  0  0  0
   -5.8520   24.1720  -31.4450 C   0  0  0  0  0  0  0  0  0  0  0  0
   -5.1190   25.2640  -30.7750 C   0  0  0  0  0  0  0  0  0  0  0  0
   -5.7360   26.3290  -30.5080 O   0  0  0  0  0  0  0  0  0  0  0  0
   -3.7250   25.1740  -30.4450 N   0  0  0  0  0  0  0  0  0  0  0  0
   -3.1310   24.2450  -29.5270 C   0  0  0  0  0  0  0  0  0  0  0  0
   -3.6270   22.9430  -29.3730 C   0  0  0  0  0  0  0  0  0  0  0  0
   -4.4871   22.6094  -29.9721 H   0  0  0  0  0  0  0  0  0  0  0  0
   -3.0330   22.0690  -28.4620 C   0  0  0  0  0  0  0  0  0  0  0  0
   -3.4195   21.0440  -28.3620 H   0  0  0  0  0  0  0  0  0  0  0  0
   -1.9480   22.4810  -27.6710 C   0  0  0  0  0  0  0  0  0  0  0  0
   -1.3430   21.4920  -26.7110 C   0  0  0  0  0  0  0  0  0  0  0  0
   -1.5408   21.8153  -25.6784 H   0  0  0  0  0  0  0  0  0  0  0  0
   -1.7892   20.5003  -26.8765 H   0  0  0  0  0  0  0  0  0  0  0  0
   -0.2569   21.4377  -26.8765 H   0  0  0  0  0  0  0  0  0  0  0  0
   -1.4430   23.7990  -27.8210 C   0  0  0  0  0  0  0  0  0  0  0  0
   -0.0740   24.4250  -26.8720 S   0  0  0  0  0  0  0  0  0  0  0  0
    0.8450   25.1580  -27.8100 O   0  0  0  0  0  0  0  0  0  0  0  0
    0.7110   23.2780  -26.2950 O   0  0  0  0  0  0  0  0  0  0  0  0
   -0.5750   25.5410  -25.6110 N   0  0  0  0  0  0  0  0  0  0  0  0
   -1.5540   25.2790  -25.3470 H   0  0  0  0  0  0  0  0  0  0  0  0
   -0.5850   26.9320  -26.1050 C   0  0  0  0  0  0  0  0  0  0  0  0
    0.3980   27.1648  -26.5404 H   0  0  0  0  0  0  0  0  0  0  0  0
   -1.3777   27.0262  -26.8618 H   0  0  0  0  0  0  0  0  0  0  0  0
   -0.8790   27.9300  -24.9640 C   0  0  0  0  0  0  0  0  0  0  0  0
    0.0166   28.5438  -24.7875 H   0  0  0  0  0  0  0  0  0  0  0  0
   -1.7318   28.5556  -25.2664 H   0  0  0  0  0  0  0  0  0  0  0  0
   -1.2230   27.2650  -23.7640 O   0  0  0  0  0  0  0  0  0  0  0  0
   -0.1380   26.4620  -23.3380 C   0  0  0  0  0  0  0  0  0  0  0  0
    0.7226   27.1128  -23.1238 H   0  0  0  0  0  0  0  0  0  0  0  0
   -0.4551   25.9121  -22.4397 H   0  0  0  0  0  0  0  0  0  0  0  0
    0.2740   25.4270  -24.4100 C   0  0  0  0  0  0  0  0  0  0  0  0
    1.3226   25.6009  -24.6933 H   0  0  0  0  0  0  0  0  0  0  0  0
    0.1500   24.4186  -23.9885 H   0  0  0  0  0  0  0  0  0  0  0  0
   -2.0590   24.6680  -28.7360 C   0  0  0  0  0  0  0  0  0  0  0  0
   -1.6913   25.7003  -28.8320 H   0  0  0  0  0  0  0  0  0  0  0  0
   -6.6780   23.3470  -30.7830 C   0  0  0  0  0  0  0  0  0  0  0  0
   -6.7914   23.4891  -29.6981 H   0  0  0  0  0  0  0  0  0  0  0  0
   -7.4470   22.2550  -31.4280 C   0  0  0  0  0  0  0  0  0  0  0  0
   -8.8560   22.2170  -31.4500 C   0  0  0  0  0  0  0  0  0  0  0  0
   -9.4332   23.0194  -30.9674 H   0  0  0  0  0  0  0  0  0  0  0  0
   -9.5040   21.1930  -32.0650 N   0  0  0  0  0  0  0  0  0  0  0  0
   -8.8310   20.1830  -32.6770 C   0  0  0  0  0  0  0  0  0  0  0  0
   -9.3863   19.3648  -33.1589 H   0  0  0  0  0  0  0  0  0  0  0  0
   -7.4370   20.1840  -32.6940 C   0  0  0  0  0  0  0  0  0  0  0  0
   -6.8871   19.3723  -33.1927 H   0  0  0  0  0  0  0  0  0  0  0  0
   -6.7460   21.2250  -32.0720 C   0  0  0  0  0  0  0  0  0  0  0  0
   -5.6462   21.2377  -32.0870 H   0  0  0  0  0  0  0  0  0  0  0  0
  1  2  1  0
  2  3  1  0
  3  4  2  0
  3  5  1  0
  5  6  1  0
  6  7  2  0
  7  8  1  0
  7  9  1  0
  9 10  1  0
  9 11  2  0
 11 12  1  0
 12 13  1  0
 12 14  1  0
 12 15  1  0
 11 16  1  0
 16 17  1  0
 17 18  2  0
 17 19  2  0
 17 20  1  0
 20 21  1  0
 20 22  1  0
 22 23  1  0
 22 24  1  0
 22 25  1  0
 25 26  1  0
 25 27  1  0
 25 28  1  0
 28 29  1  0
 29 30  1  0
 29 31  1  0
 29 32  1  0
 32 33  1  0
 32 34  1  0
 16 35  2  0
 35 36  1  0
  2 37  2  0
 37 38  1  0
 37 39  1  0
 39 40  2  0
 40 41  1  0
 40 42  1  0
 42 43  2  0
 43 44  1  0
 43 45  1  0
 45 46  1  0
 45 47  2  0
 47 48  1  0
 35  6  1  0
 47 39  1  0
 32 20  1  0
M  CHG  2   5  -1  20   1
M  END
>  <UniqueID>  (12) 
11

>  <SMILES>  (12) 
Cc1ccc([N-]C(=O)/C=C/c2cccnc2)cc1S(=O)(=O)[NH+]1CCOCC1

>  <Energy>  (12) 
70.15272946299817

>  <Genealogy>  (12) 
Cc1ccc([N-]C(=O)C=Cc2cccnc2)cc1S(=O)(=O)[NH+]1CCOCC1 (protonated)
Cc1ccc([N-]C(=O)/C=C/c2cccnc2)cc1S(=O)(=O)[NH+]1CCOCC1 (cis-trans isomerization)
Cc1ccc([N-]C(=O)/C=C/c2cccnc2)cc1S(=O)(=O)[NH+]1CCOCC1 (3D coordinates assigned)
Cc1ccc([N-]C(=O)/C=C/c2cccnc2)cc1S(=O)(=O)[NH+]1CCOCC1 (nonaromatic ring conformer: 70.15272946299817 kcal/mol)

>  <smiles>  (12) 
Cc1ccc(NC(=O)C=Cc2cccnc2)cc1S(=O)(=O)N1CCOCC1

>  <score_type>  (12) 
oracle

>  <origin>  (12) 
adgpu

>  <m_score__min__energy>  (12) 
-10.67

>  <m_primary>  (12) 
energy

$$$$
12:0
     RDKit          3D

 68 73  0  0  0  0  0  0  0  0999 V2000
   -1.6390   18.1200  -34.1870 C   0  0  0  0  0  0  0  0  0  0  0  0
   -2.8300   17.4400  -34.8520 C   0  0  0  0  0  0  0  0  0  0  0  0
   -4.1150   18.0180  -34.3450 C   0  0  0  0  0  0  0  0  0  0  0  0
   -5.2980   17.4370  -34.6680 N   0  0  0  0  0  0  0  0  0  0  0  0
   -6.4710   17.9290  -34.1980 C   0  0  0  0  0  0  0  0  0  0  0  0
   -6.4790   19.0520  -33.3530 C   0  0  0  0  0  0  0  0  0  0  0  0
   -7.6730   19.6230  -32.8840 O   0  0  0  0  0  0  0  0  0  0  0  0
   -8.5700   18.9880  -31.9790 C   0  0  0  0  0  0  0  0  0  0  0  0
   -5.2390   19.6210  -33.0010 C   0  0  0  0  0  0  0  0  0  0  0  0
   -5.1350   20.7880  -32.0950 C   0  0  0  0  0  0  0  0  0  0  0  0
   -5.9440   21.9280  -32.3260 C   0  0  0  0  0  0  0  0  0  0  0  0
   -5.8360   23.0640  -31.5060 C   0  0  0  0  0  0  0  0  0  0  0  0
   -4.9130   23.0490  -30.4630 C   0  0  0  0  0  0  0  0  0  0  0  0
   -4.1210   21.9480  -30.2420 C   0  0  0  0  0  0  0  0  0  0  0  0
   -4.1950   20.8090  -31.0400 C   0  0  0  0  0  0  0  0  0  0  0  0
   -3.2520   22.2570  -29.1350 C   0  0  0  0  0  0  0  0  0  0  0  0
   -2.3320   21.5140  -28.7010 O   0  0  0  0  0  0  0  0  0  0  0  0
   -3.5380   23.5720  -28.6510 N   0  0  0  0  0  0  0  0  0  0  0  0
   -2.8430   24.2950  -27.6230 C   0  0  0  0  0  0  0  0  0  0  0  0
   -1.4410   24.3320  -27.5720 C   0  0  0  0  0  0  0  0  0  0  0  0
   -0.8080   25.0430  -26.5500 C   0  0  0  0  0  0  0  0  0  0  0  0
   -1.5660   25.7190  -25.5830 C   0  0  0  0  0  0  0  0  0  0  0  0
   -0.9050   26.4700  -24.4910 C   0  0  0  0  0  0  0  0  0  0  0  0
   -1.6080   27.0990  -23.6550 O   0  0  0  0  0  0  0  0  0  0  0  0
    0.5280   26.5200  -24.3860 N   0  0  0  0  0  0  0  0  0  0  0  0
    1.2400   27.7940  -24.6080 C   0  0  0  0  0  0  0  0  0  0  0  0
    2.4810   27.9410  -23.6870 C   0  0  0  0  0  0  0  0  0  0  0  0
    2.8420   26.6610  -23.0430 N   0  0  2  0  0  0  0  0  0  0  0  0
    4.2150   26.5980  -22.5290 C   0  0  0  0  0  0  0  0  0  0  0  0
    4.6040   25.1160  -22.5270 C   0  0  0  0  0  0  0  0  0  0  0  0
    3.5350   24.4060  -23.3590 C   0  0  0  0  0  0  0  0  0  0  0  0
    2.7500   25.5490  -23.9880 C   0  0  1  0  0  0  0  0  0  0  0  0
    1.2750   25.2540  -24.2860 C   0  0  0  0  0  0  0  0  0  0  0  0
   -2.9650   25.6300  -25.6530 C   0  0  0  0  0  0  0  0  0  0  0  0
   -3.5580   24.9310  -26.6550 N   0  0  0  0  0  0  0  0  0  0  0  0
   -4.5920   24.1510  -29.4960 C   0  0  0  0  0  0  0  0  0  0  0  0
   -4.0950   19.0910  -33.5140 N   0  0  0  0  0  0  0  0  0  0  0  0
   -1.7454   18.0592  -33.0938 H   0  0  0  0  0  0  0  0  0  0  0  0
   -0.7107   17.6158  -34.4936 H   0  0  0  0  0  0  0  0  0  0  0  0
   -1.6013   19.1757  -34.4936 H   0  0  0  0  0  0  0  0  0  0  0  0
   -2.7706   17.5891  -35.9402 H   0  0  0  0  0  0  0  0  0  0  0  0
   -2.8048   16.3663  -34.6141 H   0  0  0  0  0  0  0  0  0  0  0  0
   -7.4193   17.4476  -34.4790 H   0  0  0  0  0  0  0  0  0  0  0  0
   -8.2629   19.2054  -30.9453 H   0  0  0  0  0  0  0  0  0  0  0  0
   -9.5890   19.3671  -32.1462 H   0  0  0  0  0  0  0  0  0  0  0  0
   -8.5511   17.9009  -32.1462 H   0  0  0  0  0  0  0  0  0  0  0  0
   -6.6649   21.9237  -33.1568 H   0  0  0  0  0  0  0  0  0  0  0  0
   -6.4674   23.9469  -31.6841 H   0  0  0  0  0  0  0  0  0  0  0  0
   -3.5378   19.9468  -30.8536 H   0  0  0  0  0  0  0  0  0  0  0  0
   -0.8449   23.8048  -28.3315 H   0  0  0  0  0  0  0  0  0  0  0  0
    0.2906   25.0729  -26.5034 H   0  0  0  0  0  0  0  0  0  0  0  0
    1.5700   27.8373  -25.6565 H   0  0  0  0  0  0  0  0  0  0  0  0
    0.5458   28.6141  -24.3723 H   0  0  0  0  0  0  0  0  0  0  0  0
    3.3327   28.2886  -24.2902 H   0  0  0  0  0  0  0  0  0  0  0  0
    2.2352   28.6643  -22.8955 H   0  0  0  0  0  0  0  0  0  0  0  0
    2.1900   26.4930  -22.2370 H   0  0  0  0  0  0  0  0  0  0  0  0
    4.8926   27.1691  -23.1807 H   0  0  0  0  0  0  0  0  0  0  0  0
    4.2855   27.0319  -21.5207 H   0  0  0  0  0  0  0  0  0  0  0  0
    5.5966   24.9795  -22.9810 H   0  0  0  0  0  0  0  0  0  0  0  0
    4.6578   24.7119  -21.5053 H   0  0  0  0  0  0  0  0  0  0  0  0
    3.9955   23.7739  -24.1326 H   0  0  0  0  0  0  0  0  0  0  0  0
    2.9036   23.7345  -22.7587 H   0  0  0  0  0  0  0  0  0  0  0  0
    3.1876   25.7574  -24.9754 H   0  0  0  0  0  0  0  0  0  0  0  0
    1.1961   24.7063  -25.2367 H   0  0  0  0  0  0  0  0  0  0  0  0
    0.8531   24.6442  -23.4735 H   0  0  0  0  0  0  0  0  0  0  0  0
   -3.5840   26.1288  -24.8927 H   0  0  0  0  0  0  0  0  0  0  0  0
   -5.4748   24.4168  -28.8961 H   0  0  0  0  0  0  0  0  0  0  0  0
   -4.2784   25.0799  -29.9948 H   0  0  0  0  0  0  0  0  0  0  0  0
  1  2  1  0
  2  3  1  0
  3  4  2  0
  4  5  1  0
  5  6  2  0
  6  7  1  0
  7  8  1  0
  6  9  1  0
  9 10  1  0
 10 11  2  0
 11 12  1  0
 12 13  2  0
 13 14  1  0
 14 15  2  0
 14 16  1  0
 16 17  2  0
 16 18  1  0
 18 19  1  0
 19 20  2  0
 20 21  1  0
 21 22  2  0
 22 23  1  0
 23 24  2  0
 23 25  1  0
 25 26  1  0
 26 27  1  0
 27 28  1  0
 28 29  1  0
 29 30  1  0
 30 31  1  0
 31 32  1  0
 32 33  1  0
 22 34  1  0
 34 35  2  0
 18 36  1  0
  9 37  2  0
 37  3  1  0
 15 10  1  0
 35 19  1  0
 36 13  1  0
 33 25  1  0
 32 28  1  0
  1 38  1  0
  1 39  1  0
  1 40  1  0
  2 41  1  0
  2 42  1  0
  5 43  1  0
  8 44  1  0
  8 45  1  0
  8 46  1  0
 11 47  1  0
 12 48  1  0
 15 49  1  0
 20 50  1  0
 21 51  1  0
 26 52  1  0
 26 53  1  0
 27 54  1  0
 27 55  1  0
 28 56  1  1
 29 57  1  0
 29 58  1  0
 30 59  1  0
 30 60  1  0
 31 61  1  0
 31 62  1  0
 32 63  1  6
 33 64  1  0
 33 65  1  0
 34 66  1  0
 36 67  1  0
 36 68  1  0
M  CHG  1  28   1
M  END
>  <UniqueID>  (13) 
12

>  <SMILES>  (13) 
CCc1ncc(OC)c(-c2ccc3c(c2)C(=O)N(c2ccc(C(=O)N4CC[N@@H+]5CCC[C@H]5C4)cn2)C3)n1

>  <Energy>  (13) 
116.7370900923734

>  <Genealogy>  (13) 
CCc1ncc(OC)c(-c2ccc3c(c2)C(=O)N(c2ccc(C(=O)N4CC[NH+]5CCCC5C4)cn2)C3)n1 (protonated)
CCc1ncc(OC)c(-c2ccc3c(c2)C(=O)N(c2ccc(C(=O)N4CC[N@@H+]5CCC[C@H]5C4)cn2)C3)n1 (chirality)
CCc1ncc(OC)c(-c2ccc3c(c2)C(=O)N(c2ccc(C(=O)N4CC[N@@H+]5CCC[C@H]5C4)cn2)C3)n1 (3D coordinates assigned)
CCc1ncc(OC)c(-c2ccc3c(c2)C(=O)N(c2ccc(C(=O)N4CC[N@@H+]5CCC[C@H]5C4)cn2)C3)n1 (nonaromatic ring conformer: 116.7370900923734 kcal/mol)

>  <smiles>  (13) 
CCc1ncc(OC)c(-c2ccc3c(c2)C(=O)N(c2ccc(C(=O)N4CCN5CCCC5C4)cn2)C3)n1

>  <score_type>  (13) 
oracle

>  <origin>  (13) 
adgpu

>  <m_score__min__energy>  (13) 
-9.4499999999999993

>  <m_primary>  (13) 
energy

$$$$
13:0
     RDKit          3D

 43 45  0  0  0  0  0  0  0  0999 V2000
   -2.4140   19.7250  -27.1180 C   0  0  0  0  0  0  0  0  0  0  0  0
   -2.0340   20.6960  -28.1990 C   0  0  0  0  0  0  0  0  0  0  0  0
   -2.4080   22.0470  -28.1020 C   0  0  0  0  0  0  0  0  0  0  0  0
   -2.0590   22.9530  -29.1150 C   0  0  0  0  0  0  0  0  0  0  0  0
   -2.6150   24.6260  -29.0640 S   0  0  0  0  0  0  0  0  0  0  0  0
   -1.4210   25.5380  -29.1010 O   0  0  0  0  0  0  0  0  0  0  0  0
   -3.3960   24.8980  -27.8090 O   0  0  0  0  0  0  0  0  0  0  0  0
   -3.6120   24.9270  -30.4500 N   0  0  0  0  0  0  0  0  0  0  0  0
   -4.7710   24.1470  -30.7670 C   0  0  0  0  0  0  0  0  0  0  0  0
   -6.0530   24.5310  -30.3420 C   0  0  0  0  0  0  0  0  0  0  0  0
   -7.1470   23.6940  -30.5630 C   0  0  0  0  0  0  0  0  0  0  0  0
   -6.9740   22.4640  -31.2100 C   0  0  0  0  0  0  0  0  0  0  0  0
   -8.3260   21.3430  -31.3300 S   0  0  0  0  0  0  0  0  0  0  0  0
   -9.0550   21.5300  -32.6310 O   0  0  0  0  0  0  0  0  0  0  0  0
   -9.2720   21.5960  -30.1920 O   0  0  0  0  0  0  0  0  0  0  0  0
   -7.7430   19.7070  -31.2330 N   0  0  0  0  0  0  0  0  0  0  0  0
   -7.1080   19.0490  -32.1630 C   0  0  0  0  0  0  0  0  0  0  0  0
   -6.8380   19.6060  -33.4320 C   0  0  0  0  0  0  0  0  0  0  0  0
   -6.1190   18.8650  -34.3710 C   0  0  0  0  0  0  0  0  0  0  0  0
   -5.6820   17.5810  -34.0560 C   0  0  0  0  0  0  0  0  0  0  0  0
   -5.9740   17.0500  -32.8000 C   0  0  0  0  0  0  0  0  0  0  0  0
   -6.6750   17.7830  -31.8910 N   0  0  0  0  0  0  0  0  0  0  0  0
   -5.7070   22.1080  -31.6920 C   0  0  0  0  0  0  0  0  0  0  0  0
   -4.6130   22.9520  -31.4790 C   0  0  0  0  0  0  0  0  0  0  0  0
   -1.3180   22.5070  -30.2170 C   0  0  0  0  0  0  0  0  0  0  0  0
   -0.9220   21.1710  -30.3040 C   0  0  0  0  0  0  0  0  0  0  0  0
   -1.2720   20.2670  -29.2970 C   0  0  0  0  0  0  0  0  0  0  0  0
   -0.8730   18.9730  -29.3970 F   0  0  0  0  0  0  0  0  0  0  0  0
   -2.2347   20.1831  -26.1341 H   0  0  0  0  0  0  0  0  0  0  0  0
   -3.4792   19.4677  -27.2141 H   0  0  0  0  0  0  0  0  0  0  0  0
   -1.8064   18.8131  -27.2141 H   0  0  0  0  0  0  0  0  0  0  0  0
   -2.9771   22.3960  -27.2277 H   0  0  0  0  0  0  0  0  0  0  0  0
   -6.1953   25.4956  -29.8328 H   0  0  0  0  0  0  0  0  0  0  0  0
   -8.1487   24.0011  -30.2280 H   0  0  0  0  0  0  0  0  0  0  0  0
   -7.1921   20.6177  -33.6790 H   0  0  0  0  0  0  0  0  0  0  0  0
   -5.8977   19.2949  -35.3590 H   0  0  0  0  0  0  0  0  0  0  0  0
   -5.1126   16.9919  -34.7900 H   0  0  0  0  0  0  0  0  0  0  0  0
   -5.6368   16.0351  -32.5424 H   0  0  0  0  0  0  0  0  0  0  0  0
   -6.8710   17.3590  -30.9570 H   0  0  0  0  0  0  0  0  0  0  0  0
   -5.5732   21.1630  -32.2388 H   0  0  0  0  0  0  0  0  0  0  0  0
   -3.6236   22.6759  -31.8726 H   0  0  0  0  0  0  0  0  0  0  0  0
   -1.0471   23.2120  -31.0168 H   0  0  0  0  0  0  0  0  0  0  0  0
   -0.3328   20.8288  -31.1676 H   0  0  0  0  0  0  0  0  0  0  0  0
  1  2  1  0
  2  3  2  0
  3  4  1  0
  4  5  1  0
  5  6  2  0
  5  7  2  0
  5  8  1  0
  8  9  1  0
  9 10  2  0
 10 11  1  0
 11 12  2  0
 12 13  1  0
 13 14  2  0
 13 15  2  0
 13 16  1  0
 16 17  2  3
 17 18  1  0
 18 19  2  0
 19 20  1  0
 20 21  2  0
 21 22  1  0
 12 23  1  0
 23 24  2  0
  4 25  2  0
 25 26  1  0
 26 27  2  0
 27 28  1  0
 27  2  1  0
 24  9  1  0
 22 17  1  0
  1 29  1  0
  1 30  1  0
  1 31  1  0
  3 32  1  0
 10 33  1  0
 11 34  1  0
 18 35  1  0
 19 36  1  0
 20 37  1  0
 21 38  1  0
 22 39  1  0
 23 40  1  0
 24 41  1  0
 25 42  1  0
 26 43  1  0
M  CHG  1   8  -1
M  END
>  <UniqueID>  (14) 
13

>  <SMILES>  (14) 
Cc1cc(S(=O)(=O)[N-]c2ccc(S(=O)(=O)N=c3cccc[nH]3)cc2)ccc1F

>  <Energy>  (14) 
52.7064308444638

>  <Genealogy>  (14) 
Cc1cc(S(=O)(=O)[N-]c2ccc(S(=O)(=O)N=c3cccc[nH]3)cc2)ccc1F (protonated)
Cc1cc(S(=O)(=O)[N-]c2ccc(S(=O)(=O)N=c3cccc[nH]3)cc2)ccc1F (3D coordinates assigned)
Cc1cc(S(=O)(=O)[N-]c2ccc(S(=O)(=O)N=c3cccc[nH]3)cc2)ccc1F (optimized conformer: 52.7064308444638 kcal/mol)

>  <smiles>  (14) 
Cc1cc(S(=O)(=O)Nc2ccc(S(=O)(=O)N=c3cccc[nH]3)cc2)ccc1F

>  <score_type>  (14) 
oracle

>  <origin>  (14) 
adgpu

>  <m_score__min__energy>  (14) 
-11.41

>  <m_primary>  (14) 
energy

$$$$
14:0
     RDKit          3D

 30 31  0  0  0  0  0  0  0  0999 V2000
   -8.6540   20.6760  -32.2590 C   0  0  0  0  0  0  0  0  0  0  0  0
   -7.5950   21.6140  -31.7610 C   0  0  0  0  0  0  0  0  0  0  0  0
   -6.3500   21.6840  -32.4050 C   0  0  0  0  0  0  0  0  0  0  0  0
   -5.3520   22.5320  -31.9190 C   0  0  0  0  0  0  0  0  0  0  0  0
   -5.5820   23.3130  -30.7800 C   0  0  0  0  0  0  0  0  0  0  0  0
   -4.3230   24.3860  -30.1780 S   0  0  0  0  0  0  0  0  0  0  0  0
   -4.3510   25.7000  -30.9100 O   0  0  0  0  0  0  0  0  0  0  0  0
   -4.5560   24.6360  -28.7140 O   0  0  0  0  0  0  0  0  0  0  0  0
   -2.7660   23.6540  -30.3870 N   0  0  0  0  0  0  0  0  0  0  0  0
   -1.7490   23.5570  -29.3780 C   0  0  0  0  0  0  0  0  0  0  0  0
   -1.1300   22.3300  -29.0690 C   0  0  0  0  0  0  0  0  0  0  0  0
   -0.1470   22.2660  -28.0780 C   0  0  0  0  0  0  0  0  0  0  0  0
    0.2300   23.4180  -27.3880 C   0  0  0  0  0  0  0  0  0  0  0  0
   -0.3740   24.6400  -27.6870 C   0  0  0  0  0  0  0  0  0  0  0  0
   -1.3620   24.7180  -28.6780 C   0  0  0  0  0  0  0  0  0  0  0  0
   -1.9430   25.9580  -28.9480 O   0  0  0  0  0  0  0  0  0  0  0  0
   -6.8160   23.2280  -30.1200 C   0  0  0  0  0  0  0  0  0  0  0  0
   -7.8160   22.3790  -30.6050 C   0  0  0  0  0  0  0  0  0  0  0  0
   -9.1707   20.2184  -31.4025 H   0  0  0  0  0  0  0  0  0  0  0  0
   -9.3795   21.2332  -32.8699 H   0  0  0  0  0  0  0  0  0  0  0  0
   -8.1885   19.8885  -32.8699 H   0  0  0  0  0  0  0  0  0  0  0  0
   -6.1592   21.0684  -33.2964 H   0  0  0  0  0  0  0  0  0  0  0  0
   -4.3812   22.5864  -32.4334 H   0  0  0  0  0  0  0  0  0  0  0  0
   -1.4218   21.4180  -29.6103 H   0  0  0  0  0  0  0  0  0  0  0  0
    0.3310   21.3040  -27.8413 H   0  0  0  0  0  0  0  0  0  0  0  0
    1.0036   23.3633  -26.6079 H   0  0  0  0  0  0  0  0  0  0  0  0
   -0.0730   25.5469  -27.1420 H   0  0  0  0  0  0  0  0  0  0  0  0
   -2.8730   26.0470  -29.3410 H   0  0  0  0  0  0  0  0  0  0  0  0
   -6.9982   23.8308  -29.2181 H   0  0  0  0  0  0  0  0  0  0  0  0
   -8.7794   22.3105  -30.0785 H   0  0  0  0  0  0  0  0  0  0  0  0
  1  2  1  0
  2  3  2  0
  3  4  1  0
  4  5  2  0
  5  6  1  0
  6  7  2  0
  6  8  2  0
  6  9  1  0
  9 10  1  0
 10 11  2  0
 11 12  1  0
 12 13  2  0
 13 14  1  0
 14 15  2  0
 15 16  1  0
  5 17  1  0
 17 18  2  0
 18  2  1  0
 15 10  1  0
  1 19  1  0
  1 20  1  0
  1 21  1  0
  3 22  1  0
  4 23  1  0
 11 24  1  0
 12 25  1  0
 13 26  1  0
 14 27  1  0
 16 28  1  0
 17 29  1  0
 18 30  1  0
M  CHG  1   9  -1
M  END
>  <UniqueID>  (15) 
14

>  <SMILES>  (15) 
Cc1ccc(S(=O)(=O)[N-]c2ccccc2O)cc1

>  <Energy>  (15) 
33.17512293388252

>  <Genealogy>  (15) 
Cc1ccc(S(=O)(=O)[N-]c2ccccc2O)cc1 (protonated)
Cc1ccc(S(=O)(=O)[N-]c2ccccc2O)cc1 (3D coordinates assigned)
Cc1ccc(S(=O)(=O)[N-]c2ccccc2O)cc1 (optimized conformer: 33.17512293388252 kcal/mol)

>  <smiles>  (15) 
Cc1ccc(S(=O)(=O)Nc2ccccc2O)cc1

>  <score_type>  (15) 
oracle

>  <origin>  (15) 
adgpu

>  <m_score__min__energy>  (15) 
-9.8800000000000008

>  <m_primary>  (15) 
energy

$$$$
15:0
     RDKit          3D

 35 36  0  0  0  0  0  0  0  0999 V2000
   -6.4610   25.6640  -29.4210 C   0  0  0  0  0  0  0  0  0  0  0  0
   -6.1720   24.4840  -30.3000 C   0  0  0  0  0  0  0  0  0  0  0  0
   -6.1560   24.6330  -31.5130 O   0  0  0  0  0  0  0  0  0  0  0  0
   -5.8970   23.1220  -29.7150 C   0  0  0  0  0  0  0  0  0  0  0  0
   -4.5280   22.5820  -30.1540 C   0  0  0  0  0  0  0  0  0  0  0  0
   -3.4140   23.1410  -29.2990 C   0  0  0  0  0  0  0  0  0  0  0  0
   -2.8610   22.3470  -28.2790 C   0  0  0  0  0  0  0  0  0  0  0  0
   -1.8610   22.8630  -27.4460 C   0  0  0  0  0  0  0  0  0  0  0  0
   -1.4080   24.1740  -27.6260 C   0  0  0  0  0  0  0  0  0  0  0  0
   -1.9460   24.9680  -28.6410 C   0  0  0  0  0  0  0  0  0  0  0  0
   -2.9510   24.4620  -29.4730 C   0  0  0  0  0  0  0  0  0  0  0  0
   -3.4840   25.2780  -30.4650 O   0  0  0  0  0  0  0  0  0  0  0  0
   -0.4010   24.6790  -26.7960 O   0  0  0  0  0  0  0  0  0  0  0  0
   -0.0100   24.0480  -25.5670 C   0  0  0  0  0  0  0  0  0  0  0  0
    1.5010   24.2360  -25.3910 C   0  0  0  0  0  0  0  0  0  0  0  0
   -0.7580   24.7230  -24.4110 C   0  0  0  0  0  0  0  0  0  0  0  0
   -0.3370   22.5640  -25.5640 C   0  0  0  0  0  0  0  0  0  0  0  0
   -1.2380   22.0390  -26.4010 C   0  0  0  0  0  0  0  0  0  0  0  0
   -6.3870   25.3621  -28.3658 H   0  0  0  0  0  0  0  0  0  0  0  0
   -5.7316   26.4614  -29.6262 H   0  0  0  0  0  0  0  0  0  0  0  0
   -7.4763   26.0341  -29.6262 H   0  0  0  0  0  0  0  0  0  0  0  0
   -5.9165   23.1947  -28.6176 H   0  0  0  0  0  0  0  0  0  0  0  0
   -6.6713   22.4300  -30.0776 H   0  0  0  0  0  0  0  0  0  0  0  0
   -4.5309   21.4855  -30.0659 H   0  0  0  0  0  0  0  0  0  0  0  0
   -4.3525   22.8897  -31.1954 H   0  0  0  0  0  0  0  0  0  0  0  0
   -3.2156   21.3158  -28.1348 H   0  0  0  0  0  0  0  0  0  0  0  0
   -1.5786   25.9945  -28.7870 H   0  0  0  0  0  0  0  0  0  0  0  0
    1.7443   24.2663  -24.3187 H   0  0  0  0  0  0  0  0  0  0  0  0
    2.0324   23.3971  -25.8640 H   0  0  0  0  0  0  0  0  0  0  0  0
    1.8106   25.1796  -25.8640 H   0  0  0  0  0  0  0  0  0  0  0  0
   -0.3564   24.3606  -23.4532 H   0  0  0  0  0  0  0  0  0  0  0  0
   -0.6254   25.8131  -24.4753 H   0  0  0  0  0  0  0  0  0  0  0  0
   -1.8288   24.4795  -24.4753 H   0  0  0  0  0  0  0  0  0  0  0  0
    0.1818   21.9034  -24.8537 H   0  0  0  0  0  0  0  0  0  0  0  0
   -1.5158   20.9789  -26.3062 H   0  0  0  0  0  0  0  0  0  0  0  0
  1  2  1  0
  2  3  2  0
  2  4  1  0
  4  5  1  0
  5  6  1  0
  6  7  2  0
  7  8  1  0
  8  9  2  0
  9 10  1  0
 10 11  2  0
 11 12  1  0
  9 13  1  0
 13 14  1  0
 14 15  1  0
 14 16  1  0
 14 17  1  0
 17 18  2  0
 11  6  1  0
 18  8  1  0
  1 19  1  0
  1 20  1  0
  1 21  1  0
  4 22  1  0
  4 23  1  0
  5 24  1  0
  5 25  1  0
  7 26  1  0
 10 27  1  0
 15 28  1  0
 15 29  1  0
 15 30  1  0
 16 31  1  0
 16 32  1  0
 16 33  1  0
 17 34  1  0
 18 35  1  0
M  CHG  1  12  -1
M  END
>  <UniqueID>  (16) 
15

>  <SMILES>  (16) 
CC(=O)CCc1cc2c(cc1[O-])OC(C)(C)C=C2

>  <Energy>  (16) 
26.924236037755396

>  <Genealogy>  (16) 
CC(=O)CCc1cc2c(cc1[O-])OC(C)(C)C=C2 (protonated)
CC(=O)CCc1cc2c(cc1[O-])OC(C)(C)C=C2 (3D coordinates assigned)
CC(=O)CCc1cc2c(cc1[O-])OC(C)(C)C=C2 (nonaromatic ring conformer: 26.924236037755396 kcal/mol)

>  <smiles>  (16) 
CC(=O)CCc1cc2c(cc1O)OC(C)(C)C=C2

>  <score_type>  (16) 
oracle

>  <origin>  (16) 
adgpu

>  <m_score__min__energy>  (16) 
-9.2899999999999991

>  <m_primary>  (16) 
energy

$$$$
16:0
     RDKit          3D

 54 57  0  0  0  0  0  0  0  0999 V2000
    0.1386   21.0112  -32.2519 H   0  0  0  0  0  0  0  0  0  0  0  0
   -0.2380   20.7780  -31.2450 C   0  0  0  0  0  0  0  0  0  0  0  0
   -0.8950   21.7640  -30.5040 C   0  0  0  0  0  0  0  0  0  0  0  0
   -1.0525   22.7623  -30.9382 H   0  0  0  0  0  0  0  0  0  0  0  0
   -1.3540   21.4850  -29.2090 C   0  0  0  0  0  0  0  0  0  0  0  0
   -2.1720   22.7210  -28.2560 S   0  0  0  0  0  0  0  0  0  0  0  0
   -3.4430   22.1430  -27.7000 O   0  0  0  0  0  0  0  0  0  0  0  0
   -1.2940   23.1600  -27.1180 O   0  0  0  0  0  0  0  0  0  0  0  0
   -2.5660   24.1030  -29.2330 N   0  0  0  0  0  0  0  0  0  0  0  0
   -3.6400   24.2070  -29.9590 C   0  0  0  0  0  0  0  0  0  0  0  0
   -3.9130   25.2950  -30.7020 N   0  0  0  0  0  0  0  0  0  0  0  0
   -5.0560   25.0670  -31.2800 O   0  0  0  0  0  0  0  0  0  0  0  0
   -5.5300   23.8880  -30.9460 C   0  0  0  0  0  0  0  0  0  0  0  0
   -6.8240   23.3250  -31.4310 C   0  0  0  0  0  0  0  0  0  0  0  0
   -7.4511   23.0522  -30.5694 H   0  0  0  0  0  0  0  0  0  0  0  0
   -7.3457   24.0775  -32.0406 H   0  0  0  0  0  0  0  0  0  0  0  0
   -6.6291   22.4303  -32.0406 H   0  0  0  0  0  0  0  0  0  0  0  0
   -4.6510   23.2710  -30.0820 C   0  0  0  0  0  0  0  0  0  0  0  0
   -4.7330   22.2815  -29.6086 H   0  0  0  0  0  0  0  0  0  0  0  0
   -1.1560   20.2070  -28.6670 C   0  0  0  0  0  0  0  0  0  0  0  0
   -1.5106   19.9825  -27.6502 H   0  0  0  0  0  0  0  0  0  0  0  0
   -0.5100   19.2170  -29.4130 C   0  0  0  0  0  0  0  0  0  0  0  0
   -0.3564   18.2173  -28.9806 H   0  0  0  0  0  0  0  0  0  0  0  0
   -0.0560   19.4950  -30.7140 C   0  0  0  0  0  0  0  0  0  0  0  0
    0.6460   18.5190  -31.4960 N   0  0  0  0  0  0  0  0  0  0  0  0
    0.2280   17.9890  -32.7620 C   0  0  0  0  0  0  0  0  0  0  0  0
    1.0720   17.4510  -33.5280 O   0  0  0  0  0  0  0  0  0  0  0  0
   -1.2010   18.0260  -33.1440 C   0  0  0  0  0  0  0  0  0  0  0  0
   -2.0580   16.9610  -32.8120 C   0  0  0  0  0  0  0  0  0  0  0  0
   -1.6634   16.0916  -32.2658 H   0  0  0  0  0  0  0  0  0  0  0  0
   -3.4080   17.0010  -33.1720 C   0  0  0  0  0  0  0  0  0  0  0  0
   -4.0722   16.1689  -32.8955 H   0  0  0  0  0  0  0  0  0  0  0  0
   -3.9200   18.0930  -33.8820 C   0  0  0  0  0  0  0  0  0  0  0  0
   -5.6240   18.1100  -34.3370 S   0  0  0  0  0  0  0  0  0  0  0  0
   -5.7050   18.1950  -35.8360 O   0  0  0  0  0  0  0  0  0  0  0  0
   -6.2580   16.8230  -33.8830 O   0  0  0  0  0  0  0  0  0  0  0  0
   -6.4370   19.4850  -33.6100 N   0  0  0  0  0  0  0  0  0  0  0  0
   -5.4740   20.4660  -33.0590 C   0  0  0  0  0  0  0  0  0  0  0  0
   -4.5173   20.3573  -33.5909 H   0  0  0  0  0  0  0  0  0  0  0  0
   -5.9041   21.4689  -33.1980 H   0  0  0  0  0  0  0  0  0  0  0  0
   -5.2250   20.2700  -31.5500 C   0  0  0  0  0  0  0  0  0  0  0  0
   -4.2014   20.5915  -31.3073 H   0  0  0  0  0  0  0  0  0  0  0  0
   -5.9548   20.8714  -30.9881 H   0  0  0  0  0  0  0  0  0  0  0  0
   -5.3820   18.9130  -31.1950 O   0  0  0  0  0  0  0  0  0  0  0  0
   -6.7400   18.5270  -31.3170 C   0  0  0  0  0  0  0  0  0  0  0  0
   -6.7897   17.4283  -31.3343 H   0  0  0  0  0  0  0  0  0  0  0  0
   -7.2771   18.9547  -30.4576 H   0  0  0  0  0  0  0  0  0  0  0  0
   -7.4220   19.0690  -32.5970 C   0  0  0  0  0  0  0  0  0  0  0  0
   -8.0580   18.2790  -33.0228 H   0  0  0  0  0  0  0  0  0  0  0  0
   -8.0178   19.9507  -32.3186 H   0  0  0  0  0  0  0  0  0  0  0  0
   -3.0680   19.1510  -34.2260 C   0  0  0  0  0  0  0  0  0  0  0  0
   -3.4612   20.0086  -34.7916 H   0  0  0  0  0  0  0  0  0  0  0  0
   -1.7210   19.1220  -33.8540 C   0  0  0  0  0  0  0  0  0  0  0  0
   -1.0632   19.9629  -34.1188 H   0  0  0  0  0  0  0  0  0  0  0  0
  1  2  1  0
  2  3  2  0
  3  4  1  0
  3  5  1  0
  5  6  1  0
  6  7  2  0
  6  8  2  0
  6  9  1  0
  9 10  2  0
 10 11  1  0
 11 12  1  0
 12 13  1  0
 13 14  1  0
 14 15  1  0
 14 16  1  0
 14 17  1  0
 13 18  2  0
 18 19  1  0
  5 20  2  0
 20 21  1  0
 20 22  1  0
 22 23  1  0
 22 24  2  0
 24 25  1  0
 25 26  1  0
 26 27  2  0
 26 28  1  0
 28 29  2  0
 29 30  1  0
 29 31  1  0
 31 32  1  0
 31 33  2  0
 33 34  1  0
 34 35  2  0
 34 36  2  0
 34 37  1  0
 37 38  1  0
 38 39  1  0
 38 40  1  0
 38 41  1  0
 41 42  1  0
 41 43  1  0
 41 44  1  0
 44 45  1  0
 45 46  1  0
 45 47  1  0
 45 48  1  0
 48 49  1  0
 48 50  1  0
 33 51  1  0
 51 52  1  0
 51 53  2  0
 53 54  1  0
 24  2  1  0
 53 28  1  0
 18 10  1  0
 48 37  1  0
M  CHG  2  11  -1  25  -1
M  END
>  <UniqueID>  (17) 
16

>  <SMILES>  (17) 
Cc1c/c(=N\S(=O)(=O)c2ccc([N-]C(=O)c3ccc(S(=O)(=O)N4CCOCC4)cc3)cc2)[n-]o1

>  <Energy>  (17) 
107.21432620156465

>  <Genealogy>  (17) 
Cc1cc(=NS(=O)(=O)c2ccc([N-]C(=O)c3ccc(S(=O)(=O)N4CCOCC4)cc3)cc2)[n-]o1 (protonated)
Cc1c/c(=N\S(=O)(=O)c2ccc([N-]C(=O)c3ccc(S(=O)(=O)N4CCOCC4)cc3)cc2)[n-]o1 (cis-trans isomerization)
Cc1c/c(=N\S(=O)(=O)c2ccc([N-]C(=O)c3ccc(S(=O)(=O)N4CCOCC4)cc3)cc2)[n-]o1 (3D coordinates assigned)
Cc1c/c(=N\S(=O)(=O)c2ccc([N-]C(=O)c3ccc(S(=O)(=O)N4CCOCC4)cc3)cc2)[n-]o1 (nonaromatic ring conformer: 107.21432620156465 kcal/mol)

>  <smiles>  (17) 
Cc1cc(=NS(=O)(=O)c2ccc(NC(=O)c3ccc(S(=O)(=O)N4CCOCC4)cc3)cc2)[nH]o1

>  <score_type>  (17) 
oracle

>  <origin>  (17) 
adgpu

>  <m_score__min__energy>  (17) 
-12.640000000000001

>  <m_primary>  (17) 
energy

$$$$
17:0
     RDKit          3D

 44 47  0  0  0  0  0  0  0  0999 V2000
    0.7640   16.5280  -27.8910 C   0  0  0  0  0  0  0  0  0  0  0  0
    0.6520   17.7930  -27.2470 O   0  0  0  0  0  0  0  0  0  0  0  0
   -0.0270   18.9000  -27.7810 C   0  0  0  0  0  0  0  0  0  0  0  0
    0.5580   19.7410  -28.7460 C   0  0  0  0  0  0  0  0  0  0  0  0
   -0.1480   20.8330  -29.2530 C   0  0  0  0  0  0  0  0  0  0  0  0
   -1.4480   21.1080  -28.8050 C   0  0  0  0  0  0  0  0  0  0  0  0
   -2.1760   22.2350  -29.3330 N   0  0  0  0  0  0  0  0  0  0  0  0
   -1.6190   23.4940  -29.2410 C   0  0  0  0  0  0  0  0  0  0  0  0
   -2.2790   24.5910  -29.7180 N   0  0  0  0  0  0  0  0  0  0  0  0
   -3.4840   24.4100  -30.3020 C   0  0  0  0  0  0  0  0  0  0  0  0
   -4.2740   25.3340  -30.7860 O   0  0  0  0  0  0  0  0  0  0  0  0
   -5.3650   24.7840  -31.2490 N   0  0  0  0  0  0  0  0  0  0  0  0
   -5.2640   23.4430  -31.0580 C   0  0  0  0  0  0  0  0  0  0  0  0
   -6.3020   22.4820  -31.4780 C   0  0  0  0  0  0  0  0  0  0  0  0
   -5.9880   21.4010  -32.3160 C   0  0  0  0  0  0  0  0  0  0  0  0
   -6.9840   20.5090  -32.7250 C   0  0  0  0  0  0  0  0  0  0  0  0
   -8.3140   20.7030  -32.3210 C   0  0  0  0  0  0  0  0  0  0  0  0
   -9.3760   19.7240  -32.7260 C   0  0  0  0  0  0  0  0  0  0  0  0
   -8.6310   21.7860  -31.4880 C   0  0  0  0  0  0  0  0  0  0  0  0
   -7.6340   22.6780  -31.0810 C   0  0  0  0  0  0  0  0  0  0  0  0
   -4.0530   23.1870  -30.4380 C   0  0  0  0  0  0  0  0  0  0  0  0
   -3.4140   22.0650  -29.9150 C   0  0  0  0  0  0  0  0  0  0  0  0
   -3.9720   20.9360  -29.9390 O   0  0  0  0  0  0  0  0  0  0  0  0
   -2.0360   20.2680  -27.8470 C   0  0  0  0  0  0  0  0  0  0  0  0
   -1.3300   19.1640  -27.3290 C   0  0  0  0  0  0  0  0  0  0  0  0
   -1.8880   18.3080  -26.3670 O   0  0  0  0  0  0  0  0  0  0  0  0
   -3.1170   18.5480  -25.6890 C   0  0  0  0  0  0  0  0  0  0  0  0
    0.8342   15.7350  -27.1319 H   0  0  0  0  0  0  0  0  0  0  0  0
   -0.1225   16.3567  -28.5193 H   0  0  0  0  0  0  0  0  0  0  0  0
    1.6668   16.5151  -28.5193 H   0  0  0  0  0  0  0  0  0  0  0  0
    1.5782   19.5364  -29.1029 H   0  0  0  0  0  0  0  0  0  0  0  0
    0.3183   21.4821  -30.0088 H   0  0  0  0  0  0  0  0  0  0  0  0
   -0.6292   23.6162  -28.7769 H   0  0  0  0  0  0  0  0  0  0  0  0
   -4.9513   21.2544  -32.6534 H   0  0  0  0  0  0  0  0  0  0  0  0
   -6.7245   19.6529  -33.3651 H   0  0  0  0  0  0  0  0  0  0  0  0
   -9.8414   19.2949  -31.8264 H   0  0  0  0  0  0  0  0  0  0  0  0
  -10.1414   20.2400  -33.3243 H   0  0  0  0  0  0  0  0  0  0  0  0
   -8.9239   18.9192  -33.3243 H   0  0  0  0  0  0  0  0  0  0  0  0
   -9.6683   21.9343  -31.1534 H   0  0  0  0  0  0  0  0  0  0  0  0
   -7.8949   23.5378  -30.4464 H   0  0  0  0  0  0  0  0  0  0  0  0
   -3.0584   20.4734  -27.4969 H   0  0  0  0  0  0  0  0  0  0  0  0
   -2.9488   18.5152  -24.6024 H   0  0  0  0  0  0  0  0  0  0  0  0
   -3.5036   19.5386  -25.9704 H   0  0  0  0  0  0  0  0  0  0  0  0
   -3.8479   17.7756  -25.9704 H   0  0  0  0  0  0  0  0  0  0  0  0
  1  2  1  0
  2  3  1  0
  3  4  2  0
  4  5  1  0
  5  6  2  0
  6  7  1  0
  7  8  1  0
  8  9  2  0
  9 10  1  0
 10 11  1  0
 11 12  1  0
 12 13  2  0
 13 14  1  0
 14 15  2  0
 15 16  1  0
 16 17  2  0
 17 18  1  0
 17 19  1  0
 19 20  2  0
 13 21  1  0
 21 22  1  0
 22 23  2  0
  6 24  1  0
 24 25  2  0
 25 26  1  0
 26 27  1  0
 25  3  1  0
 22  7  1  0
 21 10  2  0
 20 14  1  0
  1 28  1  0
  1 29  1  0
  1 30  1  0
  4 31  1  0
  5 32  1  0
  8 33  1  0
 15 34  1  0
 16 35  1  0
 18 36  1  0
 18 37  1  0
 18 38  1  0
 19 39  1  0
 20 40  1  0
 24 41  1  0
 27 42  1  0
 27 43  1  0
 27 44  1  0
M  END
>  <UniqueID>  (18) 
17

>  <SMILES>  (18) 
COc1ccc(-n2cnc3onc(-c4ccc(C)cc4)c3c2=O)cc1OC

>  <Energy>  (18) 
103.04790138807965

>  <Genealogy>  (18) 
COc1ccc(-n2cnc3onc(-c4ccc(C)cc4)c3c2=O)cc1OC (3D coordinates assigned)
COc1ccc(-n2cnc3onc(-c4ccc(C)cc4)c3c2=O)cc1OC (optimized conformer: 103.04790138807965 kcal/mol)

>  <smiles>  (18) 
COc1ccc(-n2cnc3onc(-c4ccc(C)cc4)c3c2=O)cc1OC

>  <score_type>  (18) 
oracle

>  <origin>  (18) 
adgpu

>  <m_score__min__energy>  (18) 
-9

>  <m_primary>  (18) 
energy

$$$$
18:0
     RDKit          3D

 38 40  0  0  0  0  0  0  0  0999 V2000
   -9.4770   21.6380  -31.7590 C   0  0  0  0  0  0  0  0  0  0  0  0
   -8.8030   20.3280  -32.0090 C   0  0  0  0  0  0  0  0  0  0  0  0
   -9.4580   19.1560  -32.1190 N   0  0  0  0  0  0  0  0  0  0  0  0
   -8.5620   18.2380  -32.3440 O   0  0  0  0  0  0  0  0  0  0  0  0
   -7.3540   18.7530  -32.3880 C   0  0  0  0  0  0  0  0  0  0  0  0
   -6.1120   17.9580  -32.6300 C   0  0  0  0  0  0  0  0  0  0  0  0
   -7.4450   20.1110  -32.1550 C   0  0  0  0  0  0  0  0  0  0  0  0
   -6.3430   21.1330  -32.1640 C   0  0  0  0  0  0  0  0  0  0  0  0
   -6.2310   21.7780  -30.8950 O   0  0  0  0  0  0  0  0  0  0  0  0
   -5.1720   22.6110  -30.4990 C   0  0  0  0  0  0  0  0  0  0  0  0
   -3.9290   22.1100  -30.0730 C   0  0  0  0  0  0  0  0  0  0  0  0
   -2.9070   22.9850  -29.6950 C   0  0  0  0  0  0  0  0  0  0  0  0
   -3.1200   24.3740  -29.7130 C   0  0  0  0  0  0  0  0  0  0  0  0
   -2.0830   25.2980  -29.3560 N   0  0  0  0  0  0  0  0  0  0  0  0
   -1.0920   25.1040  -28.3400 C   0  0  0  0  0  0  0  0  0  0  0  0
   -0.0880   24.3890  -28.5990 O   0  0  0  0  0  0  0  0  0  0  0  0
   -1.1810   25.7780  -27.0320 C   0  0  0  0  0  0  0  0  0  0  0  0
   -1.7590   25.2550  -25.8910 C   0  0  0  0  0  0  0  0  0  0  0  0
   -1.6030   26.2190  -24.9190 C   0  0  0  0  0  0  0  0  0  0  0  0
   -0.9380   27.2660  -25.5220 C   0  0  0  0  0  0  0  0  0  0  0  0
   -0.6990   26.9730  -26.7790 O   0  0  0  0  0  0  0  0  0  0  0  0
   -4.3490   24.8720  -30.1590 C   0  0  0  0  0  0  0  0  0  0  0  0
   -5.3700   23.9970  -30.5390 C   0  0  0  0  0  0  0  0  0  0  0  0
   -9.5630   21.8052  -30.6752 H   0  0  0  0  0  0  0  0  0  0  0  0
   -8.8834   22.4475  -32.2089 H   0  0  0  0  0  0  0  0  0  0  0  0
  -10.4807   21.6257  -32.2089 H   0  0  0  0  0  0  0  0  0  0  0  0
   -5.6658   17.6724  -31.6660 H   0  0  0  0  0  0  0  0  0  0  0  0
   -6.3622   17.0518  -33.2011 H   0  0  0  0  0  0  0  0  0  0  0  0
   -5.3938   18.5647  -33.2011 H   0  0  0  0  0  0  0  0  0  0  0  0
   -5.3914   20.6335  -32.3986 H   0  0  0  0  0  0  0  0  0  0  0  0
   -6.5774   21.8935  -32.9235 H   0  0  0  0  0  0  0  0  0  0  0  0
   -3.7602   21.0236  -30.0371 H   0  0  0  0  0  0  0  0  0  0  0  0
   -1.9314   22.5847  -29.3820 H   0  0  0  0  0  0  0  0  0  0  0  0
   -2.2430   24.2733  -25.7815 H   0  0  0  0  0  0  0  0  0  0  0  0
   -1.9406   26.1645  -23.8735 H   0  0  0  0  0  0  0  0  0  0  0  0
   -0.6513   28.2045  -25.0249 H   0  0  0  0  0  0  0  0  0  0  0  0
   -4.5125   25.9586  -30.2108 H   0  0  0  0  0  0  0  0  0  0  0  0
   -6.3376   24.4002  -30.8724 H   0  0  0  0  0  0  0  0  0  0  0  0
  1  2  1  0
  2  3  2  0
  3  4  1  0
  4  5  1  0
  5  6  1  0
  5  7  2  0
  7  8  1  0
  8  9  1  0
  9 10  1  0
 10 11  2  0
 11 12  1  0
 12 13  2  0
 13 14  1  0
 14 15  1  0
 15 16  2  0
 15 17  1  0
 17 18  2  0
 18 19  1  0
 19 20  2  0
 20 21  1  0
 13 22  1  0
 22 23  2  0
  7  2  1  0
 23 10  1  0
 21 17  1  0
  1 24  1  0
  1 25  1  0
  1 26  1  0
  6 27  1  0
  6 28  1  0
  6 29  1  0
  8 30  1  0
  8 31  1  0
 11 32  1  0
 12 33  1  0
 18 34  1  0
 19 35  1  0
 20 36  1  0
 22 37  1  0
 23 38  1  0
M  CHG  1  14  -1
M  END
>  <UniqueID>  (19) 
18

>  <SMILES>  (19) 
Cc1noc(C)c1COc1ccc([N-]C(=O)c2ccco2)cc1

>  <Energy>  (19) 
97.5886995450572

>  <Genealogy>  (19) 
Cc1noc(C)c1COc1ccc([N-]C(=O)c2ccco2)cc1 (protonated)
Cc1noc(C)c1COc1ccc([N-]C(=O)c2ccco2)cc1 (3D coordinates assigned)
Cc1noc(C)c1COc1ccc([N-]C(=O)c2ccco2)cc1 (optimized conformer: 97.5886995450572 kcal/mol)

>  <smiles>  (19) 
Cc1noc(C)c1COc1ccc(NC(=O)c2ccco2)cc1

>  <score_type>  (19) 
oracle

>  <origin>  (19) 
adgpu

>  <m_score__min__energy>  (19) 
-9.2400000000000002

>  <m_primary>  (19) 
energy

$$$$
19:0
     RDKit          3D

 41 43  0  0  0  0  0  0  0  0999 V2000
   -3.8640   25.0220  -30.4740 O   0  0  0  0  0  0  0  0  0  0  0  0
   -4.2860   24.0950  -29.7290 C   0  0  0  0  0  0  0  0  0  0  0  0
   -3.8650   24.0380  -28.3560 N   0  0  0  0  0  0  0  0  0  0  0  0
   -2.6640   24.6570  -27.8620 C   0  0  0  0  0  0  0  0  0  0  0  0
   -2.6120   25.2580  -26.5920 C   0  0  0  0  0  0  0  0  0  0  0  0
   -1.4350   25.8710  -26.1570 C   0  0  0  0  0  0  0  0  0  0  0  0
   -0.3230   25.8910  -26.9990 C   0  0  0  0  0  0  0  0  0  0  0  0
   -0.3930   25.3240  -28.2320 N   0  0  0  0  0  0  0  0  0  0  0  0
   -1.5270   24.7210  -28.6790 C   0  0  0  0  0  0  0  0  0  0  0  0
   -5.2540   23.1080  -30.2690 C   0  0  0  0  0  0  0  0  0  0  0  0
   -6.6230   23.4220  -30.3320 C   0  0  0  0  0  0  0  0  0  0  0  0
   -7.5400   22.5010  -30.8470 C   0  0  0  0  0  0  0  0  0  0  0  0
   -7.1040   21.2560  -31.3150 C   0  0  0  0  0  0  0  0  0  0  0  0
   -8.2630   20.0970  -31.9720 S   0  0  0  0  0  0  0  0  0  0  0  0
   -9.3240   20.8420  -32.7330 O   0  0  0  0  0  0  0  0  0  0  0  0
   -8.9290   19.3670  -30.8390 O   0  0  0  0  0  0  0  0  0  0  0  0
   -7.4970   18.9420  -33.0340 N   0  0  0  0  0  0  0  0  0  0  0  0
   -6.4480   19.5910  -33.8330 C   0  0  0  0  0  0  0  0  0  0  0  0
   -5.7980   18.5610  -34.7820 C   0  0  0  0  0  0  0  0  0  0  0  0
   -6.2410   17.2390  -34.5250 O   0  0  0  0  0  0  0  0  0  0  0  0
   -6.0540   16.9280  -33.1580 C   0  0  0  0  0  0  0  0  0  0  0  0
   -6.9270   17.8260  -32.2590 C   0  0  0  0  0  0  0  0  0  0  0  0
   -5.7410   20.9390  -31.2620 C   0  0  0  0  0  0  0  0  0  0  0  0
   -4.8210   21.8580  -30.7470 C   0  0  0  0  0  0  0  0  0  0  0  0
   -4.5200   23.6190  -27.6580 H   0  0  0  0  0  0  0  0  0  0  0  0
   -3.4985   25.2454  -25.9409 H   0  0  0  0  0  0  0  0  0  0  0  0
   -1.3853   26.3335  -25.1602 H   0  0  0  0  0  0  0  0  0  0  0  0
    0.6111   26.3660  -26.6647 H   0  0  0  0  0  0  0  0  0  0  0  0
   -1.5520   24.2812  -29.6870 H   0  0  0  0  0  0  0  0  0  0  0  0
   -6.9754   24.4003  -29.9732 H   0  0  0  0  0  0  0  0  0  0  0  0
   -8.6094   22.7560  -30.8846 H   0  0  0  0  0  0  0  0  0  0  0  0
   -6.8917   20.4043  -34.4260 H   0  0  0  0  0  0  0  0  0  0  0  0
   -5.6796   19.9986  -33.1596 H   0  0  0  0  0  0  0  0  0  0  0  0
   -6.0536   18.8246  -35.8189 H   0  0  0  0  0  0  0  0  0  0  0  0
   -4.7109   18.5900  -34.6168 H   0  0  0  0  0  0  0  0  0  0  0  0
   -6.3273   15.8761  -32.9884 H   0  0  0  0  0  0  0  0  0  0  0  0
   -4.9980   17.0996  -32.9024 H   0  0  0  0  0  0  0  0  0  0  0  0
   -7.7455   17.2257  -31.8350 H   0  0  0  0  0  0  0  0  0  0  0  0
   -6.2996   18.2380  -31.4549 H   0  0  0  0  0  0  0  0  0  0  0  0
   -5.3920   19.9619  -31.6274 H   0  0  0  0  0  0  0  0  0  0  0  0
   -3.7518   21.6015  -30.7156 H   0  0  0  0  0  0  0  0  0  0  0  0
  1  2  2  0
  2  3  1  0
  3  4  1  0
  4  5  2  0
  5  6  1  0
  6  7  2  0
  7  8  1  0
  8  9  2  0
  2 10  1  0
 10 11  2  0
 11 12  1  0
 12 13  2  0
 13 14  1  0
 14 15  2  0
 14 16  2  0
 14 17  1  0
 17 18  1  0
 18 19  1  0
 19 20  1  0
 20 21  1  0
 21 22  1  0
 13 23  1  0
 23 24  2  0
  9  4  1  0
 24 10  1  0
 22 17  1  0
  3 25  1  0
  5 26  1  0
  6 27  1  0
  7 28  1  0
  9 29  1  0
 11 30  1  0
 12 31  1  0
 18 32  1  0
 18 33  1  0
 19 34  1  0
 19 35  1  0
 21 36  1  0
 21 37  1  0
 22 38  1  0
 22 39  1  0
 23 40  1  0
 24 41  1  0
M  END
>  <UniqueID>  (20) 
19

>  <SMILES>  (20) 
O=C(Nc1cccnc1)c1ccc(S(=O)(=O)N2CCOCC2)cc1

>  <Energy>  (20) 
55.98976924899609

>  <Genealogy>  (20) 
O=C(Nc1cccnc1)c1ccc(S(=O)(=O)N2CCOCC2)cc1 (3D coordinates assigned)
O=C(Nc1cccnc1)c1ccc(S(=O)(=O)N2CCOCC2)cc1 (nonaromatic ring conformer: 55.98976924899609 kcal/mol)

>  <smiles>  (20) 
O=C(Nc1cccnc1)c1ccc(S(=O)(=O)N2CCOCC2)cc1

>  <score_type>  (20) 
oracle

>  <origin>  (20) 
adgpu

>  <m_score__min__energy>  (20) 
-9.1699999999999999

>  <m_primary>  (20) 
energy

$$$$
20:0
     RDKit          3D

 45 49  0  0  0  0  0  0  0  0999 V2000
   -3.8500   25.3030  -30.3960 O   0  0  0  0  0  0  0  0  0  0  0  0
   -3.8770   24.3740  -29.5400 C   0  0  0  0  0  0  0  0  0  0  0  0
   -2.7210   24.0440  -28.8200 C   0  0  0  0  0  0  0  0  0  0  0  0
   -1.4990   24.7180  -29.0000 C   0  0  0  0  0  0  0  0  0  0  0  0
   -0.3760   24.3440  -28.2540 C   0  0  0  0  0  0  0  0  0  0  0  0
   -0.4650   23.3010  -27.3270 C   0  0  0  0  0  0  0  0  0  0  0  0
   -1.6750   22.6260  -27.1420 C   0  0  0  0  0  0  0  0  0  0  0  0
   -2.8010   22.9960  -27.8870 C   0  0  0  0  0  0  0  0  0  0  0  0
   -3.9760   22.3440  -27.7170 N   0  0  0  0  0  0  0  0  0  0  0  0
   -5.0580   22.6840  -28.4180 N   0  0  0  0  0  0  0  0  0  0  0  0
   -5.0350   23.6800  -29.3080 N   0  0  0  0  0  0  0  0  0  0  0  0
   -6.2580   23.9710  -30.0580 C   0  0  0  0  0  0  0  0  0  0  0  0
   -5.8840   24.0190  -31.8420 S   0  0  0  0  0  0  0  0  0  0  0  0
   -6.4710   22.3490  -32.1320 C   0  0  0  0  0  0  0  0  0  0  0  0
   -7.7600   22.0510  -32.3720 N   0  0  0  0  0  0  0  0  0  0  0  0
   -7.8150   20.7530  -32.6290 N   0  0  0  0  0  0  0  0  0  0  0  0
   -6.5560   20.2750  -32.5440 C   0  0  0  0  0  0  0  0  0  0  0  0
   -6.2200   18.8500  -32.7590 C   0  0  0  0  0  0  0  0  0  0  0  0
   -6.1360   17.9520  -31.6840 C   0  0  0  0  0  0  0  0  0  0  0  0
   -5.8270   16.6110  -31.9270 C   0  0  0  0  0  0  0  0  0  0  0  0
   -5.6220   16.1790  -33.2000 N   0  0  0  0  0  0  0  0  0  0  0  0
   -5.7140   17.0220  -34.2610 C   0  0  0  0  0  0  0  0  0  0  0  0
   -6.0210   18.3700  -34.0620 C   0  0  0  0  0  0  0  0  0  0  0  0
   -5.6830   21.2580  -32.2280 N   0  0  0  0  0  0  0  0  0  0  0  0
   -4.2460   21.2270  -32.2160 C   0  0  0  0  0  0  0  0  0  0  0  0
   -3.5310   21.0350  -33.4090 C   0  0  0  0  0  0  0  0  0  0  0  0
   -2.1320   21.0250  -33.3970 C   0  0  0  0  0  0  0  0  0  0  0  0
   -1.4410   21.2080  -32.1970 C   0  0  0  0  0  0  0  0  0  0  0  0
   -2.1460   21.4000  -31.0050 C   0  0  0  0  0  0  0  0  0  0  0  0
   -3.5450   21.4110  -31.0130 C   0  0  0  0  0  0  0  0  0  0  0  0
   -1.4266   25.5396  -29.7278 H   0  0  0  0  0  0  0  0  0  0  0  0
    0.5787   24.8714  -28.3970 H   0  0  0  0  0  0  0  0  0  0  0  0
    0.4199   23.0108  -26.7415 H   0  0  0  0  0  0  0  0  0  0  0  0
   -1.7423   21.8056  -26.4124 H   0  0  0  0  0  0  0  0  0  0  0  0
   -7.0036   23.1866  -29.8612 H   0  0  0  0  0  0  0  0  0  0  0  0
   -6.6573   24.9460  -29.7419 H   0  0  0  0  0  0  0  0  0  0  0  0
   -6.3124   18.3016  -30.6560 H   0  0  0  0  0  0  0  0  0  0  0  0
   -5.7495   15.9042  -31.0877 H   0  0  0  0  0  0  0  0  0  0  0  0
   -5.5463   16.6421  -35.2796 H   0  0  0  0  0  0  0  0  0  0  0  0
   -6.1062   19.0510  -34.9217 H   0  0  0  0  0  0  0  0  0  0  0  0
   -4.0723   20.8920  -34.3558 H   0  0  0  0  0  0  0  0  0  0  0  0
   -1.5756   20.8728  -34.3336 H   0  0  0  0  0  0  0  0  0  0  0  0
   -0.3410   21.2011  -32.1898 H   0  0  0  0  0  0  0  0  0  0  0  0
   -1.6005   21.5425  -30.0605 H   0  0  0  0  0  0  0  0  0  0  0  0
   -4.0976   21.5642  -30.0743 H   0  0  0  0  0  0  0  0  0  0  0  0
  1  2  2  0
  2  3  1  0
  3  4  2  0
  4  5  1  0
  5  6  2  0
  6  7  1  0
  7  8  2  0
  8  9  1  0
  9 10  2  0
 10 11  1  0
 11 12  1  0
 12 13  1  0
 13 14  1  0
 14 15  2  0
 15 16  1  0
 16 17  2  0
 17 18  1  0
 18 19  2  0
 19 20  1  0
 20 21  2  0
 21 22  1  0
 22 23  2  0
 17 24  1  0
 24 25  1  0
 25 26  2  0
 26 27  1  0
 27 28  2  0
 28 29  1  0
 29 30  2  0
 11  2  1  0
 24 14  1  0
 30 25  1  0
  8  3  1  0
 23 18  1  0
  4 31  1  0
  5 32  1  0
  6 33  1  0
  7 34  1  0
 12 35  1  0
 12 36  1  0
 19 37  1  0
 20 38  1  0
 22 39  1  0
 23 40  1  0
 26 41  1  0
 27 42  1  0
 28 43  1  0
 29 44  1  0
 30 45  1  0
M  END
>  <UniqueID>  (21) 
20

>  <SMILES>  (21) 
O=c1c2ccccc2nnn1CSc1nnc(-c2ccncc2)n1-c1ccccc1

>  <Energy>  (21) 
97.48142572384353

>  <Genealogy>  (21) 
O=c1c2ccccc2nnn1CSc1nnc(-c2ccncc2)n1-c1ccccc1 (3D coordinates assigned)
O=c1c2ccccc2nnn1CSc1nnc(-c2ccncc2)n1-c1ccccc1 (optimized conformer: 97.48142572384353 kcal/mol)

>  <smiles>  (21) 
O=c1c2ccccc2nnn1CSc1nnc(-c2ccncc2)n1-c1ccccc1

>  <score_type>  (21) 
oracle

>  <origin>  (21) 
adgpu

>  <m_score__min__energy>  (21) 
-9.9800000000000004

>  <m_primary>  (21) 
energy

$$$$
21:0
     RDKit          3D

 59 62  0  0  0  0  0  0  0  0999 V2000
   -3.3820   16.4610  -35.3190 C   0  0  0  0  0  0  0  0  0  0  0  0
   -4.7290   16.2800  -34.8970 O   0  0  0  0  0  0  0  0  0  0  0  0
   -5.4790   17.2440  -34.2060 C   0  0  0  0  0  0  0  0  0  0  0  0
   -5.6040   18.5710  -34.6610 C   0  0  0  0  0  0  0  0  0  0  0  0
   -6.3780   19.4910  -33.9450 C   0  0  0  0  0  0  0  0  0  0  0  0
   -7.0300   19.1020  -32.7670 C   0  0  0  0  0  0  0  0  0  0  0  0
   -8.0800   20.2310  -31.9220 S   0  0  0  0  0  0  0  0  0  0  0  0
   -9.1100   20.7890  -32.8650 O   0  0  0  0  0  0  0  0  0  0  0  0
   -8.7980   19.5320  -30.8000 O   0  0  0  0  0  0  0  0  0  0  0  0
   -7.0770   21.5280  -31.2930 C   0  0  0  0  0  0  0  0  0  0  0  0
   -7.6770   22.6230  -30.6600 C   0  0  0  0  0  0  0  0  0  0  0  0
   -6.9070   23.7230  -30.2780 C   0  0  0  0  0  0  0  0  0  0  0  0
   -5.5260   23.7490  -30.5420 C   0  0  0  0  0  0  0  0  0  0  0  0
   -4.7350   24.9690  -30.2710 C   0  0  0  0  0  0  0  0  0  0  0  0
   -5.3230   26.0730  -30.1290 O   0  0  0  0  0  0  0  0  0  0  0  0
   -3.3030   24.9280  -30.1850 N   0  0  0  0  0  0  0  0  0  0  0  0
   -2.5650   24.7930  -28.9610 C   0  0  0  0  0  0  0  0  0  0  0  0
   -3.2080   24.4670  -27.7540 C   0  0  0  0  0  0  0  0  0  0  0  0
   -2.4600   24.2330  -26.5990 C   0  0  0  0  0  0  0  0  0  0  0  0
   -1.0650   24.3420  -26.6300 C   0  0  0  0  0  0  0  0  0  0  0  0
   -0.1350   23.9380  -25.1890 S   0  0  0  0  0  0  0  0  0  0  0  0
    1.2630   23.5790  -25.6140 O   0  0  0  0  0  0  0  0  0  0  0  0
   -0.7480   22.7510  -24.4990 O   0  0  0  0  0  0  0  0  0  0  0  0
   -0.0940   25.3230  -24.1150 N   0  0  0  0  0  0  0  0  0  0  0  0
    1.2130   26.0230  -24.1630 C   0  0  0  0  0  0  0  0  0  0  0  0
    1.1850   27.2780  -25.0520 C   0  0  0  0  0  0  0  0  0  0  0  0
    0.2940   27.0900  -26.1270 O   0  0  0  0  0  0  0  0  0  0  0  0
   -1.0410   27.0700  -25.6560 C   0  0  0  0  0  0  0  0  0  0  0  0
   -1.2310   26.2330  -24.3690 C   0  0  0  0  0  0  0  0  0  0  0  0
   -0.4250   24.7220  -27.8190 C   0  0  0  0  0  0  0  0  0  0  0  0
   -1.1750   24.9580  -28.9760 C   0  0  0  0  0  0  0  0  0  0  0  0
   -4.9180   22.6270  -31.1300 C   0  0  0  0  0  0  0  0  0  0  0  0
   -5.6920   21.5270  -31.5130 C   0  0  0  0  0  0  0  0  0  0  0  0
   -6.9050   17.7830  -32.3130 C   0  0  0  0  0  0  0  0  0  0  0  0
   -6.1300   16.8640  -33.0270 C   0  0  0  0  0  0  0  0  0  0  0  0
   -2.7302   16.5486  -34.4373 H   0  0  0  0  0  0  0  0  0  0  0  0
   -3.0677   15.5970  -35.9230 H   0  0  0  0  0  0  0  0  0  0  0  0
   -3.3069   17.3773  -35.9230 H   0  0  0  0  0  0  0  0  0  0  0  0
   -5.0915   18.8852  -35.5822 H   0  0  0  0  0  0  0  0  0  0  0  0
   -6.4752   20.5246  -34.3086 H   0  0  0  0  0  0  0  0  0  0  0  0
   -8.7592   22.6166  -30.4629 H   0  0  0  0  0  0  0  0  0  0  0  0
   -7.3828   24.5736  -29.7680 H   0  0  0  0  0  0  0  0  0  0  0  0
   -4.3052   24.3960  -27.7197 H   0  0  0  0  0  0  0  0  0  0  0  0
   -2.9683   23.9622  -25.6618 H   0  0  0  0  0  0  0  0  0  0  0  0
   -0.2180   24.9390  -23.1490 H   0  0  0  0  0  0  0  0  0  0  0  0
    1.4891   26.3223  -23.1411 H   0  0  0  0  0  0  0  0  0  0  0  0
    1.9459   25.3265  -24.5964 H   0  0  0  0  0  0  0  0  0  0  0  0
    0.8563   28.1405  -24.4536 H   0  0  0  0  0  0  0  0  0  0  0  0
    2.1945   27.4607  -25.4488 H   0  0  0  0  0  0  0  0  0  0  0  0
   -1.3517   28.1044  -25.4472 H   0  0  0  0  0  0  0  0  0  0  0  0
   -1.6527   26.5997  -26.4400 H   0  0  0  0  0  0  0  0  0  0  0  0
   -1.3331   26.9178  -23.5142 H   0  0  0  0  0  0  0  0  0  0  0  0
   -2.1317   25.6154  -24.5008 H   0  0  0  0  0  0  0  0  0  0  0  0
    0.6690   24.8346  -27.8416 H   0  0  0  0  0  0  0  0  0  0  0  0
   -0.6707   25.2744  -29.9010 H   0  0  0  0  0  0  0  0  0  0  0  0
   -3.8297   22.6138  -31.2896 H   0  0  0  0  0  0  0  0  0  0  0  0
   -5.2129   20.6583  -31.9883 H   0  0  0  0  0  0  0  0  0  0  0  0
   -7.4180   17.4691  -31.3920 H   0  0  0  0  0  0  0  0  0  0  0  0
   -6.0311   15.8323  -32.6584 H   0  0  0  0  0  0  0  0  0  0  0  0
  1  2  1  0
  2  3  1  0
  3  4  2  0
  4  5  1  0
  5  6  2  0
  6  7  1  0
  7  8  2  0
  7  9  2  0
  7 10  1  0
 10 11  2  0
 11 12  1  0
 12 13  2  0
 13 14  1  0
 14 15  2  0
 14 16  1  0
 16 17  1  0
 17 18  2  0
 18 19  1  0
 19 20  2  0
 20 21  1  0
 21 22  2  0
 21 23  2  0
 21 24  1  0
 24 25  1  0
 25 26  1  0
 26 27  1  0
 27 28  1  0
 28 29  1  0
 20 30  1  0
 30 31  2  0
 13 32  1  0
 32 33  2  0
  6 34  1  0
 34 35  2  0
 35  3  1  0
 33 10  1  0
 31 17  1  0
 29 24  1  0
  1 36  1  0
  1 37  1  0
  1 38  1  0
  4 39  1  0
  5 40  1  0
 11 41  1  0
 12 42  1  0
 18 43  1  0
 19 44  1  0
 24 45  1  0
 25 46  1  0
 25 47  1  0
 26 48  1  0
 26 49  1  0
 28 50  1  0
 28 51  1  0
 29 52  1  0
 29 53  1  0
 30 54  1  0
 31 55  1  0
 32 56  1  0
 33 57  1  0
 34 58  1  0
 35 59  1  0
M  CHG  2  16  -1  24   1
M  END
>  <UniqueID>  (22) 
21

>  <SMILES>  (22) 
COc1ccc(S(=O)(=O)c2ccc(C(=O)[N-]c3ccc(S(=O)(=O)[NH+]4CCOCC4)cc3)cc2)cc1

>  <Energy>  (22) 
78.86133376926706

>  <Genealogy>  (22) 
COc1ccc(S(=O)(=O)c2ccc(C(=O)[N-]c3ccc(S(=O)(=O)[NH+]4CCOCC4)cc3)cc2)cc1 (protonated)
COc1ccc(S(=O)(=O)c2ccc(C(=O)[N-]c3ccc(S(=O)(=O)[NH+]4CCOCC4)cc3)cc2)cc1 (3D coordinates assigned)
COc1ccc(S(=O)(=O)c2ccc(C(=O)[N-]c3ccc(S(=O)(=O)[NH+]4CCOCC4)cc3)cc2)cc1 (nonaromatic ring conformer: 78.86133376926706 kcal/mol)

>  <smiles>  (22) 
COc1ccc(S(=O)(=O)c2ccc(C(=O)Nc3ccc(S(=O)(=O)N4CCOCC4)cc3)cc2)cc1

>  <score_type>  (22) 
oracle

>  <origin>  (22) 
adgpu

>  <m_score__min__energy>  (22) 
-12.880000000000001

>  <m_primary>  (22) 
energy

$$$$
22:0
     RDKit          3D

 42 44  0  0  0  0  0  0  0  0999 V2000
   -6.0609   26.0889  -31.7449 H   0  0  0  0  0  0  0  0  0  0  0  0
   -5.5260   25.2850  -31.2180 C   0  0  0  0  0  0  0  0  0  0  0  0
   -4.5920   25.6230  -30.3750 N   0  0  0  0  0  0  0  0  0  0  0  0
   -3.7010   24.7290  -29.7510 N   0  0  0  0  0  0  0  0  0  0  0  0
   -2.3810   24.8870  -29.6990 N   0  0  0  0  0  0  0  0  0  0  0  0
   -1.9130   23.8880  -28.9220 C   0  0  0  0  0  0  0  0  0  0  0  0
   -0.5900   23.6260  -28.5780 C   0  0  0  0  0  0  0  0  0  0  0  0
    0.2308   24.2558  -28.9515 H   0  0  0  0  0  0  0  0  0  0  0  0
   -0.3390   22.5250  -27.7340 C   0  0  0  0  0  0  0  0  0  0  0  0
    0.6944   22.2843  -27.4439 H   0  0  0  0  0  0  0  0  0  0  0  0
   -1.4060   21.7270  -27.2570 C   0  0  0  0  0  0  0  0  0  0  0  0
   -1.1951   20.8714  -26.5986 H   0  0  0  0  0  0  0  0  0  0  0  0
   -2.7350   22.0190  -27.6180 C   0  0  0  0  0  0  0  0  0  0  0  0
   -3.5744   21.4097  -27.2519 H   0  0  0  0  0  0  0  0  0  0  0  0
   -2.9440   23.1100  -28.4570 C   0  0  0  0  0  0  0  0  0  0  0  0
   -4.0710   23.6790  -28.9920 C   0  0  0  0  0  0  0  0  0  0  0  0
   -5.2610   23.3050  -28.8100 O   0  0  0  0  0  0  0  0  0  0  0  0
   -5.9110   23.8900  -31.5100 C   0  0  0  0  0  0  0  0  0  0  0  0
   -7.1990   23.4150  -31.2110 C   0  0  0  0  0  0  0  0  0  0  0  0
   -7.9308   24.0813  -30.7309 H   0  0  0  0  0  0  0  0  0  0  0  0
   -7.5540   22.1000  -31.5210 C   0  0  0  0  0  0  0  0  0  0  0  0
   -8.5585   21.7326  -31.2641 H   0  0  0  0  0  0  0  0  0  0  0  0
   -6.6410   21.2410  -32.1580 C   0  0  0  0  0  0  0  0  0  0  0  0
   -7.0160   19.8810  -32.4810 N   0  0  0  0  0  0  0  0  0  0  0  0
   -8.4350   19.4990  -32.5400 C   0  0  0  0  0  0  0  0  0  0  0  0
   -8.6351   19.0058  -33.5026 H   0  0  0  0  0  0  0  0  0  0  0  0
   -9.0472   20.4072  -32.4380 H   0  0  0  0  0  0  0  0  0  0  0  0
   -8.7910   18.5420  -31.4050 C   0  0  0  0  0  0  0  0  0  0  0  0
   -8.6077   19.0348  -30.4388 H   0  0  0  0  0  0  0  0  0  0  0  0
   -9.8527   18.2640  -31.4792 H   0  0  0  0  0  0  0  0  0  0  0  0
   -8.1691   17.6377  -31.4792 H   0  0  0  0  0  0  0  0  0  0  0  0
   -5.9890   18.8600  -32.7500 C   0  0  0  0  0  0  0  0  0  0  0  0
   -5.0416   19.1706  -32.2852 H   0  0  0  0  0  0  0  0  0  0  0  0
   -6.3267   17.9015  -32.3290 H   0  0  0  0  0  0  0  0  0  0  0  0
   -5.7760   18.6860  -34.2510 C   0  0  0  0  0  0  0  0  0  0  0  0
   -4.9348   17.9988  -34.4247 H   0  0  0  0  0  0  0  0  0  0  0  0
   -6.6880   18.2713  -34.7051 H   0  0  0  0  0  0  0  0  0  0  0  0
   -5.5516   19.6624  -34.7051 H   0  0  0  0  0  0  0  0  0  0  0  0
   -5.3650   21.7350  -32.4860 C   0  0  0  0  0  0  0  0  0  0  0  0
   -4.6411   21.0805  -32.9936 H   0  0  0  0  0  0  0  0  0  0  0  0
   -5.0090   23.0490  -32.1730 C   0  0  0  0  0  0  0  0  0  0  0  0
   -4.0131   23.4256  -32.4493 H   0  0  0  0  0  0  0  0  0  0  0  0
  1  2  1  0
  2  3  2  0
  3  4  1  0
  4  5  1  0
  5  6  1  0
  6  7  2  0
  7  8  1  0
  7  9  1  0
  9 10  1  0
  9 11  2  0
 11 12  1  0
 11 13  1  0
 13 14  1  0
 13 15  2  0
 15 16  1  0
 16 17  2  0
  2 18  1  0
 18 19  2  0
 19 20  1  0
 19 21  1  0
 21 22  1  0
 21 23  2  0
 23 24  1  0
 24 25  1  0
 25 26  1  0
 25 27  1  0
 25 28  1  0
 28 29  1  0
 28 30  1  0
 28 31  1  0
 24 32  1  0
 32 33  1  0
 32 34  1  0
 32 35  1  0
 35 36  1  0
 35 37  1  0
 35 38  1  0
 23 39  1  0
 39 40  1  0
 39 41  2  0
 41 42  1  0
 16  4  1  0
 41 18  1  0
 15  6  1  0
M  CHG  1   5  -1
M  END
>  <UniqueID>  (23) 
22

>  <SMILES>  (23) 
CCN(CC)c1ccc(/C=N\n2[n-]c3ccccc3c2=O)cc1

>  <Energy>  (23) 
91.78191300355593

>  <Genealogy>  (23) 
CCN(CC)c1ccc(C=Nn2[n-]c3ccccc3c2=O)cc1 (protonated)
CCN(CC)c1ccc(/C=N\n2[n-]c3ccccc3c2=O)cc1 (cis-trans isomerization)
CCN(CC)c1ccc(/C=N\n2[n-]c3ccccc3c2=O)cc1 (3D coordinates assigned)
CCN(CC)c1ccc(/C=N\n2[n-]c3ccccc3c2=O)cc1 (optimized conformer: 91.78191300355593 kcal/mol)

>  <smiles>  (23) 
CCN(CC)c1ccc(C=Nn2[nH]c3ccccc3c2=O)cc1

>  <score_type>  (23) 
oracle

>  <origin>  (23) 
adgpu

>  <m_score__min__energy>  (23) 
-9.4800000000000004

>  <m_primary>  (23) 
energy

$$$$
23:0
     RDKit          3D

 34 36  0  0  0  0  0  0  0  0999 V2000
   -4.0330   24.5740  -27.0680 C   0  0  0  0  0  0  0  0  0  0  0  0
   -2.8640   24.4920  -27.9900 C   0  0  0  0  0  0  0  0  0  0  0  0
   -2.4180   23.3600  -28.6380 C   0  0  0  0  0  0  0  0  0  0  0  0
   -1.3150   23.8210  -29.3330 C   0  0  0  0  0  0  0  0  0  0  0  0
   -0.5340   23.1260  -30.1040 N   0  0  0  0  0  0  0  0  0  0  0  0
   -0.7280   21.4300  -30.4190 S   0  0  0  0  0  0  0  0  0  0  0  0
    0.5310   20.9010  -31.0490 O   0  0  0  0  0  0  0  0  0  0  0  0
   -0.9640   20.7120  -29.1210 O   0  0  0  0  0  0  0  0  0  0  0  0
   -2.1110   21.1660  -31.4760 C   0  0  0  0  0  0  0  0  0  0  0  0
   -2.1970   19.9910  -32.2320 C   0  0  0  0  0  0  0  0  0  0  0  0
   -3.3030   19.7660  -33.0570 C   0  0  0  0  0  0  0  0  0  0  0  0
   -4.3220   20.7180  -33.1370 C   0  0  0  0  0  0  0  0  0  0  0  0
   -4.2330   21.9160  -32.4070 C   0  0  0  0  0  0  0  0  0  0  0  0
   -5.2830   22.8920  -32.4550 N   0  0  0  0  0  0  0  0  0  0  0  0
   -5.5570   23.8110  -31.3930 C   0  0  0  0  0  0  0  0  0  0  0  0
   -4.8570   24.7980  -30.7160 C   0  0  0  0  0  0  0  0  0  0  0  0
   -3.5710   25.3250  -30.7710 O   0  0  0  0  0  0  0  0  0  0  0  0
   -5.9640   25.0420  -29.9300 C   0  0  0  0  0  0  0  0  0  0  0  0
   -6.2310   25.8400  -28.9940 O   0  0  0  0  0  0  0  0  0  0  0  0
   -6.6500   24.0340  -30.5770 C   0  0  0  0  0  0  0  0  0  0  0  0
   -7.8000   23.5340  -30.4750 O   0  0  0  0  0  0  0  0  0  0  0  0
   -3.1330   22.1230  -31.5620 C   0  0  0  0  0  0  0  0  0  0  0  0
   -1.1310   25.1330  -29.1030 N   0  0  0  0  0  0  0  0  0  0  0  0
   -2.0790   25.5020  -28.2910 O   0  0  0  0  0  0  0  0  0  0  0  0
   -3.6808   24.5493  -26.0262 H   0  0  0  0  0  0  0  0  0  0  0  0
   -4.5775   25.5125  -27.2488 H   0  0  0  0  0  0  0  0  0  0  0  0
   -4.7032   23.7207  -27.2488 H   0  0  0  0  0  0  0  0  0  0  0  0
   -2.8357   22.3428  -28.6093 H   0  0  0  0  0  0  0  0  0  0  0  0
   -1.3924   19.2429  -32.1768 H   0  0  0  0  0  0  0  0  0  0  0  0
   -3.3708   18.8381  -33.6439 H   0  0  0  0  0  0  0  0  0  0  0  0
   -5.1984   20.5293  -33.7744 H   0  0  0  0  0  0  0  0  0  0  0  0
   -5.9080   22.9180  -33.2920 H   0  0  0  0  0  0  0  0  0  0  0  0
   -3.1130   25.6640  -29.9370 H   0  0  0  0  0  0  0  0  0  0  0  0
   -3.0712   23.0429  -30.9620 H   0  0  0  0  0  0  0  0  0  0  0  0
  1  2  1  0
  2  3  2  0
  3  4  1  0
  4  5  2  3
  5  6  1  0
  6  7  2  0
  6  8  2  0
  6  9  1  0
  9 10  2  0
 10 11  1  0
 11 12  2  0
 12 13  1  0
 13 14  1  0
 14 15  1  0
 15 16  2  0
 16 17  1  0
 16 18  1  0
 18 19  2  0
 18 20  1  0
 20 21  2  0
 13 22  2  0
  4 23  1  0
 23 24  1  0
 24  2  1  0
 22  9  1  0
 20 15  1  0
  1 25  1  0
  1 26  1  0
  1 27  1  0
  3 28  1  0
 10 29  1  0
 11 30  1  0
 12 31  1  0
 14 32  1  0
 17 33  1  0
 22 34  1  0
M  CHG  1  23  -1
M  END
>  <UniqueID>  (24) 
23

>  <SMILES>  (24) 
Cc1cc(=NS(=O)(=O)c2cccc(Nc3c(O)c(=O)c3=O)c2)[n-]o1

>  <Energy>  (24) 
63.7287822255045

>  <Genealogy>  (24) 
Cc1cc(=NS(=O)(=O)c2cccc(Nc3c(O)c(=O)c3=O)c2)[n-]o1 (protonated)
Cc1cc(=NS(=O)(=O)c2cccc(Nc3c(O)c(=O)c3=O)c2)[n-]o1 (3D coordinates assigned)
Cc1cc(=NS(=O)(=O)c2cccc(Nc3c(O)c(=O)c3=O)c2)[n-]o1 (optimized conformer: 63.7287822255045 kcal/mol)

>  <smiles>  (24) 
Cc1cc(=NS(=O)(=O)c2cccc(Nc3c(O)c(=O)c3=O)c2)[nH]o1

>  <score_type>  (24) 
oracle

>  <origin>  (24) 
adgpu

>  <m_score__min__energy>  (24) 
-9.2300000000000004

>  <m_primary>  (24) 
energy

$$$$
24:0
     RDKit          3D

 54 57  0  0  0  0  0  0  0  0999 V2000
   -1.2150   13.8970  -37.5050 C   0  0  0  0  0  0  0  0  0  0  0  0
   -1.9250   13.5600  -36.2650 N   0  0  0  0  0  0  0  0  0  0  0  0
   -1.7210   12.2330  -35.6700 C   0  0  0  0  0  0  0  0  0  0  0  0
   -2.8160   14.5220  -35.6380 C   0  0  0  0  0  0  0  0  0  0  0  0
   -3.9290   14.0980  -34.8840 C   0  0  0  0  0  0  0  0  0  0  0  0
   -4.7840   15.0250  -34.2800 C   0  0  0  0  0  0  0  0  0  0  0  0
   -4.5560   16.4060  -34.4120 C   0  0  0  0  0  0  0  0  0  0  0  0
   -5.4550   17.4130  -33.7840 C   0  0  0  0  0  0  0  0  0  0  0  0
   -6.8520   17.3730  -33.8340 C   0  0  0  0  0  0  0  0  0  0  0  0
   -7.4380   18.7210  -33.0190 S   0  0  0  0  0  0  0  0  0  0  0  0
   -5.9100   19.3070  -32.6290 C   0  0  0  0  0  0  0  0  0  0  0  0
   -5.6190   20.5590  -31.8940 C   0  0  0  0  0  0  0  0  0  0  0  0
   -6.6500   21.2960  -31.2830 C   0  0  0  0  0  0  0  0  0  0  0  0
   -6.3700   22.5020  -30.6350 C   0  0  0  0  0  0  0  0  0  0  0  0
   -5.0590   22.9880  -30.5830 C   0  0  0  0  0  0  0  0  0  0  0  0
   -4.7410   24.5560  -29.8480 S   0  0  0  0  0  0  0  0  0  0  0  0
   -6.0250   25.2990  -29.5900 O   0  0  0  0  0  0  0  0  0  0  0  0
   -3.8830   25.3660  -30.7800 O   0  0  0  0  0  0  0  0  0  0  0  0
   -3.9020   24.3270  -28.3480 N   0  0  0  0  0  0  0  0  0  0  0  0
   -3.1560   23.1530  -27.9940 C   0  0  0  0  0  0  0  0  0  0  0  0
   -3.7810   21.8960  -27.8610 C   0  0  0  0  0  0  0  0  0  0  0  0
   -3.0330   20.7620  -27.5380 C   0  0  0  0  0  0  0  0  0  0  0  0
   -1.6590   20.8650  -27.3310 C   0  0  0  0  0  0  0  0  0  0  0  0
   -1.0280   22.1070  -27.4410 C   0  0  0  0  0  0  0  0  0  0  0  0
   -1.7670   23.2560  -27.7750 C   0  0  0  0  0  0  0  0  0  0  0  0
   -0.9420   24.8130  -27.9240 S   0  0  0  0  0  0  0  0  0  0  0  0
   -1.4900   25.6300  -29.3440 N   0  0  0  0  0  0  0  0  0  0  0  0
    0.5400   24.6040  -28.0300 O   0  0  0  0  0  0  0  0  0  0  0  0
   -1.2340   25.6510  -26.7130 O   0  0  0  0  0  0  0  0  0  0  0  0
   -4.0240   22.2490  -31.1680 C   0  0  0  0  0  0  0  0  0  0  0  0
   -4.3010   21.0440  -31.8210 C   0  0  0  0  0  0  0  0  0  0  0  0
   -4.9500   18.4890  -33.1160 N   0  0  0  0  0  0  0  0  0  0  0  0
   -3.4450   16.8330  -35.1580 C   0  0  0  0  0  0  0  0  0  0  0  0
   -2.5890   15.9080  -35.7630 C   0  0  0  0  0  0  0  0  0  0  0  0
   -0.2463   14.3568  -37.2595 H   0  0  0  0  0  0  0  0  0  0  0  0
   -1.0482   12.9820  -38.0923 H   0  0  0  0  0  0  0  0  0  0  0  0
   -1.8185   14.6047  -38.0923 H   0  0  0  0  0  0  0  0  0  0  0  0
   -1.7339   12.3170  -34.5733 H   0  0  0  0  0  0  0  0  0  0  0  0
   -2.5259   11.5575  -35.9955 H   0  0  0  0  0  0  0  0  0  0  0  0
   -0.7504   11.8305  -35.9955 H   0  0  0  0  0  0  0  0  0  0  0  0
   -4.1278   13.0222  -34.7691 H   0  0  0  0  0  0  0  0  0  0  0  0
   -5.6450   14.6696  -33.6948 H   0  0  0  0  0  0  0  0  0  0  0  0
   -7.4600   16.5963  -34.3208 H   0  0  0  0  0  0  0  0  0  0  0  0
   -7.6834   20.9204  -31.3156 H   0  0  0  0  0  0  0  0  0  0  0  0
   -7.1842   23.0720  -30.1635 H   0  0  0  0  0  0  0  0  0  0  0  0
   -4.8669   21.8080  -28.0130 H   0  0  0  0  0  0  0  0  0  0  0  0
   -3.5298   19.7848  -27.4467 H   0  0  0  0  0  0  0  0  0  0  0  0
   -1.0714   19.9693  -27.0812 H   0  0  0  0  0  0  0  0  0  0  0  0
    0.0549   22.1866  -27.2650 H   0  0  0  0  0  0  0  0  0  0  0  0
   -2.5310   25.6610  -29.2950 H   0  0  0  0  0  0  0  0  0  0  0  0
   -2.9890   22.6176  -31.1138 H   0  0  0  0  0  0  0  0  0  0  0  0
   -3.4821   20.4713  -32.2809 H   0  0  0  0  0  0  0  0  0  0  0  0
   -3.2459   17.9093  -35.2676 H   0  0  0  0  0  0  0  0  0  0  0  0
   -1.7267   16.2663  -36.3444 H   0  0  0  0  0  0  0  0  0  0  0  0
  1  2  1  0
  2  3  1  0
  2  4  1  0
  4  5  2  0
  5  6  1  0
  6  7  2  0
  7  8  1  0
  8  9  2  0
  9 10  1  0
 10 11  1  0
 11 12  1  0
 12 13  2  0
 13 14  1  0
 14 15  2  0
 15 16  1  0
 16 17  2  0
 16 18  2  0
 16 19  1  0
 19 20  1  0
 20 21  2  0
 21 22  1  0
 22 23  2  0
 23 24  1  0
 24 25  2  0
 25 26  1  0
 26 27  1  0
 26 28  2  0
 26 29  2  0
 15 30  1  0
 30 31  2  0
 11 32  2  0
  7 33  1  0
 33 34  2  0
 34  4  1  0
 32  8  1  0
 31 12  1  0
 25 20  1  0
  1 35  1  0
  1 36  1  0
  1 37  1  0
  3 38  1  0
  3 39  1  0
  3 40  1  0
  5 41  1  0
  6 42  1  0
  9 43  1  0
 13 44  1  0
 14 45  1  0
 21 46  1  0
 22 47  1  0
 23 48  1  0
 24 49  1  0
 27 50  1  0
 30 51  1  0
 31 52  1  0
 33 53  1  0
 34 54  1  0
M  CHG  2  19  -1  27  -1
M  END
>  <UniqueID>  (25) 
24

>  <SMILES>  (25) 
CN(C)c1ccc(-c2csc(-c3ccc(S(=O)(=O)[N-]c4ccccc4S([NH-])(=O)=O)cc3)n2)cc1

>  <Energy>  (25) 
96.85452405819971

>  <Genealogy>  (25) 
CN(C)c1ccc(-c2csc(-c3ccc(S(=O)(=O)[N-]c4ccccc4S([NH-])(=O)=O)cc3)n2)cc1 (protonated)
CN(C)c1ccc(-c2csc(-c3ccc(S(=O)(=O)[N-]c4ccccc4S([NH-])(=O)=O)cc3)n2)cc1 (3D coordinates assigned)
CN(C)c1ccc(-c2csc(-c3ccc(S(=O)(=O)[N-]c4ccccc4S([NH-])(=O)=O)cc3)n2)cc1 (optimized conformer: 96.85452405819971 kcal/mol)

>  <smiles>  (25) 
CN(C)c1ccc(-c2csc(-c3ccc(S(=O)(=O)Nc4ccccc4S(N)(=O)=O)cc3)n2)cc1

>  <score_type>  (25) 
oracle

>  <origin>  (25) 
adgpu

>  <m_score__min__energy>  (25) 
-13.050000000000001

>  <m_primary>  (25) 
energy

$$$$
25:0
     RDKit          3D

 45 47  0  0  0  0  0  0  0  0999 V2000
   -3.8670   21.9270  -33.0390 C   0  0  0  0  0  0  0  0  0  0  0  0
   -4.1480   20.4530  -32.7550 C   0  0  0  0  0  0  0  0  0  0  0  0
   -5.1150   19.8230  -33.7700 C   0  0  0  0  0  0  0  0  0  0  0  0
   -6.3680   19.2860  -33.1110 C   0  0  0  0  0  0  0  0  0  0  0  0
   -6.4800   17.8910  -32.9580 C   0  0  0  0  0  0  0  0  0  0  0  0
   -7.6150   17.3230  -32.3840 C   0  0  0  0  0  0  0  0  0  0  0  0
   -8.6540   18.1380  -31.9440 C   0  0  0  0  0  0  0  0  0  0  0  0
   -8.5610   19.5230  -32.0710 C   0  0  0  0  0  0  0  0  0  0  0  0
   -7.4250   20.1220  -32.6550 C   0  0  0  0  0  0  0  0  0  0  0  0
   -7.3330   21.5590  -32.7500 N   0  0  0  0  0  0  0  0  0  0  0  0
   -7.7610   22.6380  -31.4600 S   0  0  0  0  0  0  0  0  0  0  0  0
   -8.5270   23.8030  -32.0220 O   0  0  0  0  0  0  0  0  0  0  0  0
   -8.6370   21.9100  -30.4780 O   0  0  0  0  0  0  0  0  0  0  0  0
   -6.3050   23.2330  -30.6710 C   0  0  0  0  0  0  0  0  0  0  0  0
   -5.9810   24.5940  -30.7100 C   0  0  0  0  0  0  0  0  0  0  0  0
   -4.8310   25.0630  -30.0690 C   0  0  0  0  0  0  0  0  0  0  0  0
   -3.9860   24.1750  -29.3820 C   0  0  0  0  0  0  0  0  0  0  0  0
   -2.7740   24.6940  -28.7060 C   0  0  0  0  0  0  0  0  0  0  0  0
   -2.4690   24.6330  -27.3570 C   0  0  0  0  0  0  0  0  0  0  0  0
   -1.2400   25.2490  -27.2760 C   0  0  0  0  0  0  0  0  0  0  0  0
   -0.4710   25.5090  -26.0240 C   0  0  0  0  0  0  0  0  0  0  0  0
   -0.8540   25.6660  -28.4970 N   0  0  0  0  0  0  0  0  0  0  0  0
   -1.7920   25.3100  -29.3270 O   0  0  0  0  0  0  0  0  0  0  0  0
   -4.3140   22.8070  -29.3520 C   0  0  0  0  0  0  0  0  0  0  0  0
   -5.4650   22.3410  -29.9920 C   0  0  0  0  0  0  0  0  0  0  0  0
   -3.7634   22.4703  -32.0882 H   0  0  0  0  0  0  0  0  0  0  0  0
   -2.9353   22.0180  -33.6167 H   0  0  0  0  0  0  0  0  0  0  0  0
   -4.6998   22.3544  -33.6167 H   0  0  0  0  0  0  0  0  0  0  0  0
   -3.1967   19.9016  -32.7873 H   0  0  0  0  0  0  0  0  0  0  0  0
   -4.6226   20.3919  -31.7645 H   0  0  0  0  0  0  0  0  0  0  0  0
   -5.4024   20.5876  -34.5068 H   0  0  0  0  0  0  0  0  0  0  0  0
   -4.5978   18.9787  -34.2492 H   0  0  0  0  0  0  0  0  0  0  0  0
   -5.6599   17.2406  -33.2964 H   0  0  0  0  0  0  0  0  0  0  0  0
   -7.6902   16.2307  -32.2785 H   0  0  0  0  0  0  0  0  0  0  0  0
   -9.5514   17.6877  -31.4946 H   0  0  0  0  0  0  0  0  0  0  0  0
   -9.3844   20.1574  -31.7111 H   0  0  0  0  0  0  0  0  0  0  0  0
   -6.9710   22.0120  -33.6140 H   0  0  0  0  0  0  0  0  0  0  0  0
   -6.6341   25.2974  -31.2473 H   0  0  0  0  0  0  0  0  0  0  0  0
   -4.5857   26.1348  -30.1025 H   0  0  0  0  0  0  0  0  0  0  0  0
   -3.0664   24.1962  -26.5432 H   0  0  0  0  0  0  0  0  0  0  0  0
   -1.1064   25.2942  -25.1521 H   0  0  0  0  0  0  0  0  0  0  0  0
    0.4178   24.8614  -25.9984 H   0  0  0  0  0  0  0  0  0  0  0  0
   -0.1575   26.5631  -25.9984 H   0  0  0  0  0  0  0  0  0  0  0  0
   -3.6598   22.0998  -28.8211 H   0  0  0  0  0  0  0  0  0  0  0  0
   -5.7126   21.2696  -29.9626 H   0  0  0  0  0  0  0  0  0  0  0  0
  1  2  1  0
  2  3  1  0
  3  4  1  0
  4  5  2  0
  5  6  1  0
  6  7  2  0
  7  8  1  0
  8  9  2  0
  9 10  1  0
 10 11  1  0
 11 12  2  0
 11 13  2  0
 11 14  1  0
 14 15  2  0
 15 16  1  0
 16 17  2  0
 17 18  1  0
 18 19  2  0
 19 20  1  0
 20 21  1  0
 20 22  2  0
 22 23  1  0
 17 24  1  0
 24 25  2  0
  9  4  1  0
 25 14  1  0
 23 18  1  0
  1 26  1  0
  1 27  1  0
  1 28  1  0
  2 29  1  0
  2 30  1  0
  3 31  1  0
  3 32  1  0
  5 33  1  0
  6 34  1  0
  7 35  1  0
  8 36  1  0
 10 37  1  0
 15 38  1  0
 16 39  1  0
 19 40  1  0
 21 41  1  0
 21 42  1  0
 21 43  1  0
 24 44  1  0
 25 45  1  0
M  END
>  <UniqueID>  (26) 
25

>  <SMILES>  (26) 
CCCc1ccccc1NS(=O)(=O)c1ccc(-c2cc(C)no2)cc1

>  <Energy>  (26) 
77.96932871786832

>  <Genealogy>  (26) 
CCCc1ccccc1NS(=O)(=O)c1ccc(-c2cc(C)no2)cc1 (3D coordinates assigned)
CCCc1ccccc1NS(=O)(=O)c1ccc(-c2cc(C)no2)cc1 (optimized conformer: 77.96932871786832 kcal/mol)

>  <smiles>  (26) 
CCCc1ccccc1NS(=O)(=O)c1ccc(-c2cc(C)no2)cc1

>  <score_type>  (26) 
oracle

>  <origin>  (26) 
adgpu

>  <m_score__min__energy>  (26) 
-9.4800000000000004

>  <m_primary>  (26) 
energy

$$$$
26:0
     RDKit          3D

 39 40  0  0  0  0  0  0  0  0999 V2000
   -3.1200   23.0100  -28.7000 C   0  0  0  0  0  0  0  0  0  0  0  0
   -2.4980   22.8410  -29.9690 O   0  0  0  0  0  0  0  0  0  0  0  0
   -2.9140   21.9180  -30.9390 C   0  0  0  0  0  0  0  0  0  0  0  0
   -3.8940   20.9820  -30.5890 C   0  0  0  0  0  0  0  0  0  0  0  0
   -4.3570   20.0530  -31.5250 C   0  0  0  0  0  0  0  0  0  0  0  0
   -3.8420   20.0490  -32.8350 C   0  0  0  0  0  0  0  0  0  0  0  0
   -4.2800   19.1040  -33.8200 N   0  0  0  0  0  0  0  0  0  0  0  0
   -5.6390   18.8010  -34.1610 C   0  0  0  0  0  0  0  0  0  0  0  0
   -5.9580   18.5060  -35.3450 O   0  0  0  0  0  0  0  0  0  0  0  0
   -6.6770   18.7560  -33.0870 C   0  0  0  0  0  0  0  0  0  0  0  0
   -7.8170   19.6150  -33.4180 N   0  0  0  0  0  0  0  0  0  0  0  0
   -8.4840   20.3680  -31.9950 S   0  0  0  0  0  0  0  0  0  0  0  0
   -9.8930   20.8020  -32.2840 O   0  0  0  0  0  0  0  0  0  0  0  0
   -8.5140   19.3710  -30.8700 O   0  0  0  0  0  0  0  0  0  0  0  0
   -7.5400   21.7830  -31.5340 C   0  0  0  0  0  0  0  0  0  0  0  0
   -6.6070   22.3430  -32.4180 C   0  0  0  0  0  0  0  0  0  0  0  0
   -5.8780   23.4760  -32.0460 C   0  0  0  0  0  0  0  0  0  0  0  0
   -6.0710   24.0680  -30.7850 C   0  0  0  0  0  0  0  0  0  0  0  0
   -5.3010   25.2690  -30.3870 C   0  0  0  0  0  0  0  0  0  0  0  0
   -3.8910   25.3300  -30.5990 N   0  0  0  0  0  0  0  0  0  0  0  0
   -5.8830   26.2530  -29.8560 O   0  0  0  0  0  0  0  0  0  0  0  0
   -7.0120   23.5000  -29.9050 C   0  0  0  0  0  0  0  0  0  0  0  0
   -7.7420   22.3690  -30.2800 C   0  0  0  0  0  0  0  0  0  0  0  0
   -2.8360   20.9600  -33.1760 C   0  0  0  0  0  0  0  0  0  0  0  0
   -2.3810   21.8980  -32.2430 C   0  0  0  0  0  0  0  0  0  0  0  0
   -2.3879   22.8111  -27.9034 H   0  0  0  0  0  0  0  0  0  0  0  0
   -3.4909   24.0415  -28.6079 H   0  0  0  0  0  0  0  0  0  0  0  0
   -3.9619   22.3080  -28.6079 H   0  0  0  0  0  0  0  0  0  0  0  0
   -4.3035   20.9775  -29.5681 H   0  0  0  0  0  0  0  0  0  0  0  0
   -5.1269   19.3221  -31.2368 H   0  0  0  0  0  0  0  0  0  0  0  0
   -7.0293   17.7204  -32.9712 H   0  0  0  0  0  0  0  0  0  0  0  0
   -6.2269   19.1185  -32.1511 H   0  0  0  0  0  0  0  0  0  0  0  0
   -6.4482   21.8893  -33.4074 H   0  0  0  0  0  0  0  0  0  0  0  0
   -5.1472   23.9083  -32.7454 H   0  0  0  0  0  0  0  0  0  0  0  0
   -3.4730   26.0490  -31.2310 H   0  0  0  0  0  0  0  0  0  0  0  0
   -7.1738   23.9501  -28.9144 H   0  0  0  0  0  0  0  0  0  0  0  0
   -8.4786   21.9377  -29.5862 H   0  0  0  0  0  0  0  0  0  0  0  0
   -2.3996   20.9384  -34.1855 H   0  0  0  0  0  0  0  0  0  0  0  0
   -1.6042   22.6226  -32.5286 H   0  0  0  0  0  0  0  0  0  0  0  0
  1  2  1  0
  2  3  1  0
  3  4  2  0
  4  5  1  0
  5  6  2  0
  6  7  1  0
  7  8  1  0
  8  9  2  0
  8 10  1  0
 10 11  1  0
 11 12  1  0
 12 13  2  0
 12 14  2  0
 12 15  1  0
 15 16  2  0
 16 17  1  0
 17 18  2  0
 18 19  1  0
 19 20  1  0
 19 21  2  0
 18 22  1  0
 22 23  2  0
  6 24  1  0
 24 25  2  0
 25  3  1  0
 23 15  1  0
  1 26  1  0
  1 27  1  0
  1 28  1  0
  4 29  1  0
  5 30  1  0
 10 31  1  0
 10 32  1  0
 16 33  1  0
 17 34  1  0
 20 35  1  0
 22 36  1  0
 23 37  1  0
 24 38  1  0
 25 39  1  0
M  CHG  3   7  -1  11  -1  20  -1
M  END
>  <UniqueID>  (27) 
26

>  <SMILES>  (27) 
COc1ccc([N-]C(=O)C[N-]S(=O)(=O)c2ccc(C([NH-])=O)cc2)cc1

>  <Energy>  (27) 
40.282734353319206

>  <Genealogy>  (27) 
COc1ccc([N-]C(=O)C[N-]S(=O)(=O)c2ccc(C([NH-])=O)cc2)cc1 (protonated)
COc1ccc([N-]C(=O)C[N-]S(=O)(=O)c2ccc(C([NH-])=O)cc2)cc1 (3D coordinates assigned)
COc1ccc([N-]C(=O)C[N-]S(=O)(=O)c2ccc(C([NH-])=O)cc2)cc1 (optimized conformer: 40.282734353319206 kcal/mol)

>  <smiles>  (27) 
COc1ccc(NC(=O)CNS(=O)(=O)c2ccc(C(N)=O)cc2)cc1

>  <score_type>  (27) 
oracle

>  <origin>  (27) 
adgpu

>  <m_score__min__energy>  (27) 
-10.35

>  <m_primary>  (27) 
energy

$$$$
27:0
     RDKit          3D

 37 39  0  0  0  0  0  0  0  0999 V2000
   -3.0840   18.9680  -26.3850 C   0  0  0  0  0  0  0  0  0  0  0  0
   -1.9210   20.1750  -26.9820 S   0  0  0  0  0  0  0  0  0  0  0  0
   -1.2680   20.8500  -25.8060 O   0  0  0  0  0  0  0  0  0  0  0  0
   -0.8620   19.4980  -27.8040 O   0  0  0  0  0  0  0  0  0  0  0  0
   -2.7630   21.3600  -27.9740 C   0  0  0  0  0  0  0  0  0  0  0  0
   -3.1160   21.0650  -29.2990 C   0  0  0  0  0  0  0  0  0  0  0  0
   -3.7740   22.0190  -30.0800 C   0  0  0  0  0  0  0  0  0  0  0  0
   -4.0790   23.2790  -29.5460 C   0  0  0  0  0  0  0  0  0  0  0  0
   -4.8640   24.5030  -30.5390 S   0  0  0  0  0  0  0  0  0  0  0  0
   -6.0670   25.0680  -29.8360 O   0  0  0  0  0  0  0  0  0  0  0  0
   -3.8850   25.6120  -30.8060 O   0  0  0  0  0  0  0  0  0  0  0  0
   -5.3640   23.8080  -32.0480 N   0  0  0  0  0  0  0  0  0  0  0  0
   -5.8340   22.4620  -32.2200 C   0  0  0  0  0  0  0  0  0  0  0  0
   -7.0990   22.0480  -31.7730 C   0  0  0  0  0  0  0  0  0  0  0  0
   -7.4910   20.7190  -31.9480 C   0  0  0  0  0  0  0  0  0  0  0  0
   -8.7420   20.2600  -31.5090 C   0  0  0  0  0  0  0  0  0  0  0  0
   -9.1000   18.9220  -31.7030 C   0  0  0  0  0  0  0  0  0  0  0  0
   -8.2140   18.0400  -32.3330 C   0  0  0  0  0  0  0  0  0  0  0  0
   -6.9670   18.4940  -32.7750 C   0  0  0  0  0  0  0  0  0  0  0  0
   -6.6000   19.8300  -32.5860 C   0  0  0  0  0  0  0  0  0  0  0  0
   -5.4140   20.2600  -33.0060 O   0  0  0  0  0  0  0  0  0  0  0  0
   -5.0090   21.5180  -32.8510 C   0  0  0  0  0  0  0  0  0  0  0  0
   -3.8700   21.8540  -33.2720 O   0  0  0  0  0  0  0  0  0  0  0  0
   -3.7280   23.5720  -28.2220 C   0  0  0  0  0  0  0  0  0  0  0  0
   -3.0720   22.6180  -27.4410 C   0  0  0  0  0  0  0  0  0  0  0  0
   -3.0822   18.9698  -25.2850 H   0  0  0  0  0  0  0  0  0  0  0  0
   -4.0912   19.2172  -26.7505 H   0  0  0  0  0  0  0  0  0  0  0  0
   -2.7976   17.9708  -26.7505 H   0  0  0  0  0  0  0  0  0  0  0  0
   -2.8742   20.0799  -29.7246 H   0  0  0  0  0  0  0  0  0  0  0  0
   -4.0535   21.7806  -31.1169 H   0  0  0  0  0  0  0  0  0  0  0  0
   -7.7769   22.7658  -31.2881 H   0  0  0  0  0  0  0  0  0  0  0  0
   -9.4397   20.9510  -31.0133 H   0  0  0  0  0  0  0  0  0  0  0  0
  -10.0808   18.5615  -31.3595 H   0  0  0  0  0  0  0  0  0  0  0  0
   -8.4990   16.9879  -32.4807 H   0  0  0  0  0  0  0  0  0  0  0  0
   -6.2741   17.7991  -33.2720 H   0  0  0  0  0  0  0  0  0  0  0  0
   -3.9699   24.5569  -27.7959 H   0  0  0  0  0  0  0  0  0  0  0  0
   -2.7968   22.8555  -26.4028 H   0  0  0  0  0  0  0  0  0  0  0  0
  1  2  1  0
  2  3  2  0
  2  4  2  0
  2  5  1  0
  5  6  2  0
  6  7  1  0
  7  8  2  0
  8  9  1  0
  9 10  2  0
  9 11  2  0
  9 12  1  0
 12 13  1  0
 13 14  2  0
 14 15  1  0
 15 16  2  0
 16 17  1  0
 17 18  2  0
 18 19  1  0
 19 20  2  0
 20 21  1  0
 21 22  1  0
 22 23  2  0
  8 24  1  0
 24 25  2  0
 25  5  1  0
 22 13  1  0
 20 15  1  0
  1 26  1  0
  1 27  1  0
  1 28  1  0
  6 29  1  0
  7 30  1  0
 14 31  1  0
 16 32  1  0
 17 33  1  0
 18 34  1  0
 19 35  1  0
 24 36  1  0
 25 37  1  0
M  CHG  1  12  -1
M  END
>  <UniqueID>  (28) 
27

>  <SMILES>  (28) 
CS(=O)(=O)c1ccc(S(=O)(=O)[N-]c2cc3ccccc3oc2=O)cc1

>  <Energy>  (28) 
44.09323149799434

>  <Genealogy>  (28) 
CS(=O)(=O)c1ccc(S(=O)(=O)[N-]c2cc3ccccc3oc2=O)cc1 (protonated)
CS(=O)(=O)c1ccc(S(=O)(=O)[N-]c2cc3ccccc3oc2=O)cc1 (3D coordinates assigned)
CS(=O)(=O)c1ccc(S(=O)(=O)[N-]c2cc3ccccc3oc2=O)cc1 (optimized conformer: 44.09323149799434 kcal/mol)

>  <smiles>  (28) 
CS(=O)(=O)c1ccc(S(=O)(=O)Nc2cc3ccccc3oc2=O)cc1

>  <score_type>  (28) 
oracle

>  <origin>  (28) 
adgpu

>  <m_score__min__energy>  (28) 
-10.76

>  <m_primary>  (28) 
energy

$$$$
28:0
     RDKit          3D

 42 45  0  0  0  0  0  0  0  0999 V2000
   -1.8240   24.9740  -28.2250 C   0  0  0  0  0  0  0  0  0  0  0  0
   -2.6660   25.2800  -29.3320 O   0  0  0  0  0  0  0  0  0  0  0  0
   -3.7260   24.4720  -29.7670 C   0  0  0  0  0  0  0  0  0  0  0  0
   -4.6790   25.0310  -30.6260 C   0  0  0  0  0  0  0  0  0  0  0  0
   -5.7540   24.2670  -31.0890 C   0  0  0  0  0  0  0  0  0  0  0  0
   -5.8990   22.9270  -30.6910 C   0  0  0  0  0  0  0  0  0  0  0  0
   -6.9870   22.1250  -31.1960 N   0  0  0  0  0  0  0  0  0  0  0  0
   -8.1480   21.8090  -30.4360 C   0  0  0  0  0  0  0  0  0  0  0  0
   -8.3520   22.2930  -29.2900 O   0  0  0  0  0  0  0  0  0  0  0  0
   -9.1310   20.9120  -31.0800 C   0  0  0  0  0  0  0  0  0  0  0  0
   -8.4960   20.5290  -32.7430 S   0  0  0  0  0  0  0  0  0  0  0  0
   -7.0000   21.5680  -32.5460 C   0  0  2  0  0  0  0  0  0  0  0  0
   -5.7700   20.7410  -32.7820 C   0  0  0  0  0  0  0  0  0  0  0  0
   -5.6430   19.3720  -32.6620 C   0  0  0  0  0  0  0  0  0  0  0  0
   -4.3590   19.0290  -32.8800 N   0  0  0  0  0  0  0  0  0  0  0  0
   -3.6730   20.1380  -33.1230 N   0  0  0  0  0  0  0  0  0  0  0  0
   -2.2550   20.1540  -33.3940 C   0  0  0  0  0  0  0  0  0  0  0  0
   -1.6770   19.1310  -34.1710 C   0  0  0  0  0  0  0  0  0  0  0  0
   -0.3060   19.1300  -34.4400 C   0  0  0  0  0  0  0  0  0  0  0  0
    0.5080   20.1460  -33.9340 C   0  0  0  0  0  0  0  0  0  0  0  0
   -0.0490   21.1630  -33.1570 C   0  0  0  0  0  0  0  0  0  0  0  0
   -1.4210   21.1700  -32.8850 C   0  0  0  0  0  0  0  0  0  0  0  0
   -4.5040   21.2010  -33.0670 C   0  0  0  0  0  0  0  0  0  0  0  0
   -4.9380   22.3630  -29.8350 C   0  0  0  0  0  0  0  0  0  0  0  0
   -3.8620   23.1270  -29.3730 C   0  0  0  0  0  0  0  0  0  0  0  0
   -2.3649   25.1706  -27.2876 H   0  0  0  0  0  0  0  0  0  0  0  0
   -1.5351   23.9134  -28.2662 H   0  0  0  0  0  0  0  0  0  0  0  0
   -0.9216   25.6017  -28.2662 H   0  0  0  0  0  0  0  0  0  0  0  0
   -4.5812   26.0808  -30.9395 H   0  0  0  0  0  0  0  0  0  0  0  0
   -6.4915   24.7176  -31.7695 H   0  0  0  0  0  0  0  0  0  0  0  0
   -9.2380   19.9869  -30.4946 H   0  0  0  0  0  0  0  0  0  0  0  0
  -10.1193   21.3915  -31.1388 H   0  0  0  0  0  0  0  0  0  0  0  0
   -7.0132   22.3875  -33.2797 H   0  0  0  0  0  0  0  0  0  0  0  0
   -6.4593   18.6733  -32.4262 H   0  0  0  0  0  0  0  0  0  0  0  0
   -2.3110   18.3254  -34.5697 H   0  0  0  0  0  0  0  0  0  0  0  0
    0.1331   18.3278  -35.0513 H   0  0  0  0  0  0  0  0  0  0  0  0
    1.5871   20.1447  -34.1476 H   0  0  0  0  0  0  0  0  0  0  0  0
    0.5932   21.9616  -32.7572 H   0  0  0  0  0  0  0  0  0  0  0  0
   -1.8520   21.9736  -32.2698 H   0  0  0  0  0  0  0  0  0  0  0  0
   -4.2189   22.2520  -33.2222 H   0  0  0  0  0  0  0  0  0  0  0  0
   -5.0330   21.3116  -29.5258 H   0  0  0  0  0  0  0  0  0  0  0  0
   -3.1189   22.6756  -28.6992 H   0  0  0  0  0  0  0  0  0  0  0  0
  1  2  1  0
  2  3  1  0
  3  4  2  0
  4  5  1  0
  5  6  2  0
  6  7  1  0
  7  8  1  0
  8  9  2  0
  8 10  1  0
 10 11  1  0
 11 12  1  0
 12 13  1  0
 13 14  1  0
 14 15  2  0
 15 16  1  0
 16 17  1  0
 17 18  2  0
 18 19  1  0
 19 20  2  0
 20 21  1  0
 21 22  2  0
 16 23  1  0
  6 24  1  0
 24 25  2  0
 25  3  1  0
 12  7  1  0
 23 13  2  0
 22 17  1  0
  1 26  1  0
  1 27  1  0
  1 28  1  0
  4 29  1  0
  5 30  1  0
 10 31  1  0
 10 32  1  0
 12 33  1  6
 14 34  1  0
 18 35  1  0
 19 36  1  0
 20 37  1  0
 21 38  1  0
 22 39  1  0
 23 40  1  0
 24 41  1  0
 25 42  1  0
M  END
>  <UniqueID>  (29) 
28

>  <SMILES>  (29) 
COc1ccc(N2C(=O)CS[C@@H]2c2cnn(-c3ccccc3)c2)cc1

>  <Energy>  (29) 
79.41767574792439

>  <Genealogy>  (29) 
COc1ccc(N2C(=O)CS[C@@H]2c2cnn(-c3ccccc3)c2)cc1 (chirality)
COc1ccc(N2C(=O)CS[C@@H]2c2cnn(-c3ccccc3)c2)cc1 (3D coordinates assigned)
COc1ccc(N2C(=O)CS[C@@H]2c2cnn(-c3ccccc3)c2)cc1 (nonaromatic ring conformer: 79.41767574792439 kcal/mol)

>  <smiles>  (29) 
COc1ccc(N2C(=O)CSC2c2cnn(-c3ccccc3)c2)cc1

>  <score_type>  (29) 
oracle

>  <origin>  (29) 
adgpu

>  <m_score__min__energy>  (29) 
-8.1799999999999997

>  <m_primary>  (29) 
energy

$$$$
29:0
     RDKit          3D

 45 46  0  0  0  0  0  0  0  0999 V2000
   -7.2932   18.7504  -33.4463 H   0  0  0  0  0  0  0  0  0  0  0  0
   -6.8090   19.6720  -33.0910 C   0  0  0  0  0  0  0  0  0  0  0  0
   -5.5010   19.9610  -33.4800 C   0  0  0  0  0  0  0  0  0  0  0  0
   -4.9593   19.2663  -34.1387 H   0  0  0  0  0  0  0  0  0  0  0  0
   -4.8740   21.1330  -33.0350 C   0  0  0  0  0  0  0  0  0  0  0  0
   -3.4520   21.4370  -33.4290 C   0  0  0  0  0  0  0  0  0  0  0  0
   -3.3720   22.4994  -33.7027 H   0  0  0  0  0  0  0  0  0  0  0  0
   -3.1776   20.8019  -34.2842 H   0  0  0  0  0  0  0  0  0  0  0  0
   -2.5390   21.1560  -32.3210 N   0  0  0  0  0  0  0  0  0  0  0  0
   -2.3510   21.9370  -31.2980 C   0  0  0  0  0  0  0  0  0  0  0  0
   -3.0210   23.1170  -31.1860 N   0  0  0  0  0  0  0  0  0  0  0  0
   -2.8500   23.9590  -30.1300 C   0  0  0  0  0  0  0  0  0  0  0  0
   -3.5230   25.2210  -30.1400 N   0  0  0  0  0  0  0  0  0  0  0  0
   -3.3180   25.9230  -29.3940 H   0  0  0  0  0  0  0  0  0  0  0  0
   -4.2940   25.4320  -30.8100 H   0  0  0  0  0  0  0  0  0  0  0  0
   -1.9650   23.5950  -29.0900 C   0  0  0  0  0  0  0  0  0  0  0  0
   -1.7690   24.4060  -27.9260 N   0  0  0  0  0  0  0  0  0  0  0  0
   -1.1070   25.6730  -27.9390 C   0  0  0  0  0  0  0  0  0  0  0  0
   -1.2430   26.4280  -28.9390 O   0  0  0  0  0  0  0  0  0  0  0  0
   -0.3030   26.0570  -26.8580 O   0  0  0  0  0  0  0  0  0  0  0  0
   -0.5250   25.6210  -25.5190 C   0  0  0  0  0  0  0  0  0  0  0  0
    0.4128   25.7074  -24.9507 H   0  0  0  0  0  0  0  0  0  0  0  0
   -0.8635   24.5746  -25.5387 H   0  0  0  0  0  0  0  0  0  0  0  0
   -1.5970   26.4710  -24.8480 C   0  0  0  0  0  0  0  0  0  0  0  0
   -1.4971   26.3918  -23.7554 H   0  0  0  0  0  0  0  0  0  0  0  0
   -1.4759   27.5212  -25.1521 H   0  0  0  0  0  0  0  0  0  0  0  0
   -2.5919   26.1136  -25.1521 H   0  0  0  0  0  0  0  0  0  0  0  0
   -1.2420   22.4040  -29.2090 C   0  0  0  0  0  0  0  0  0  0  0  0
   -0.5160   22.1250  -28.4311 H   0  0  0  0  0  0  0  0  0  0  0  0
   -1.4360   21.5680  -30.3080 C   0  0  0  0  0  0  0  0  0  0  0  0
   -0.8739   20.6265  -30.3950 H   0  0  0  0  0  0  0  0  0  0  0  0
   -5.5700   22.0110  -32.1920 C   0  0  0  0  0  0  0  0  0  0  0  0
   -5.0801   22.9297  -31.8369 H   0  0  0  0  0  0  0  0  0  0  0  0
   -6.8920   21.7260  -31.7960 C   0  0  0  0  0  0  0  0  0  0  0  0
   -7.6180   22.5830  -30.9540 O   0  0  0  0  0  0  0  0  0  0  0  0
   -7.0340   23.5710  -30.1100 C   0  0  0  0  0  0  0  0  0  0  0  0
   -7.1963   23.2964  -29.0573 H   0  0  0  0  0  0  0  0  0  0  0  0
   -5.9542   23.6327  -30.3105 H   0  0  0  0  0  0  0  0  0  0  0  0
   -7.5005   24.5468  -30.3105 H   0  0  0  0  0  0  0  0  0  0  0  0
   -7.5140   20.5510  -32.2470 C   0  0  0  0  0  0  0  0  0  0  0  0
   -8.8310   20.2930  -31.8360 O   0  0  0  0  0  0  0  0  0  0  0  0
   -9.9110   21.2120  -31.9600 C   0  0  0  0  0  0  0  0  0  0  0  0
  -10.2580   21.5073  -30.9588 H   0  0  0  0  0  0  0  0  0  0  0  0
   -9.5727   22.1035  -32.5085 H   0  0  0  0  0  0  0  0  0  0  0  0
  -10.7368   20.7354  -32.5085 H   0  0  0  0  0  0  0  0  0  0  0  0
  1  2  1  0
  2  3  2  0
  3  4  1  0
  3  5  1  0
  5  6  1  0
  6  7  1  0
  6  8  1  0
  6  9  1  0
  9 10  2  0
 10 11  1  0
 11 12  1  0
 12 13  1  0
 13 14  1  0
 13 15  1  0
 12 16  2  0
 16 17  1  0
 17 18  1  0
 18 19  2  0
 18 20  1  0
 20 21  1  0
 21 22  1  0
 21 23  1  0
 21 24  1  0
 24 25  1  0
 24 26  1  0
 24 27  1  0
 16 28  1  0
 28 29  1  0
 28 30  2  0
 30 31  1  0
  5 32  2  0
 32 33  1  0
 32 34  1  0
 34 35  1  0
 35 36  1  0
 36 37  1  0
 36 38  1  0
 36 39  1  0
 34 40  2  0
 40 41  1  0
 41 42  1  0
 42 43  1  0
 42 44  1  0
 42 45  1  0
 40  2  1  0
 30 10  1  0
M  CHG  2  11  -1  17  -1
M  END
>  <UniqueID>  (30) 
29

>  <SMILES>  (30) 
CCOC(=O)[N-]c1cc/c(=N/Cc2ccc(OC)c(OC)c2)[n-]c1N

>  <Energy>  (30) 
44.55259401929643

>  <Genealogy>  (30) 
CCOC(=O)[N-]c1ccc(=NCc2ccc(OC)c(OC)c2)[n-]c1N (protonated)
CCOC(=O)[N-]c1cc/c(=N/Cc2ccc(OC)c(OC)c2)[n-]c1N (cis-trans isomerization)
CCOC(=O)[N-]c1cc/c(=N/Cc2ccc(OC)c(OC)c2)[n-]c1N (3D coordinates assigned)
CCOC(=O)[N-]c1cc/c(=N/Cc2ccc(OC)c(OC)c2)[n-]c1N (optimized conformer: 44.55259401929643 kcal/mol)

>  <smiles>  (30) 
CCOC(=O)Nc1ccc(=NCc2ccc(OC)c(OC)c2)[nH]c1N

>  <score_type>  (30) 
oracle

>  <origin>  (30) 
adgpu

>  <m_score__min__energy>  (30) 
-9.7300000000000004

>  <m_primary>  (30) 
energy

$$$$
30:0
     RDKit          3D

 51 54  0  0  0  0  0  0  0  0999 V2000
   -1.9090   20.2010  -31.6230 N   0  0  0  0  0  0  0  0  0  0  0  0
   -1.2520   20.7650  -30.4800 C   0  0  0  0  0  0  0  0  0  0  0  0
   -0.1630   20.2630  -30.0930 O   0  0  0  0  0  0  0  0  0  0  0  0
   -1.8250   21.9200  -29.7480 C   0  0  0  0  0  0  0  0  0  0  0  0
   -1.7410   21.9990  -28.3460 C   0  0  0  0  0  0  0  0  0  0  0  0
   -2.2680   23.1010  -27.6680 C   0  0  0  0  0  0  0  0  0  0  0  0
   -2.8740   24.1380  -28.3780 C   0  0  0  0  0  0  0  0  0  0  0  0
   -2.9480   24.0940  -29.7750 C   0  0  0  0  0  0  0  0  0  0  0  0
   -3.6000   25.1770  -30.4590 N   0  0  0  0  0  0  0  0  0  0  0  0
   -5.0060   25.3450  -30.6820 C   0  0  0  0  0  0  0  0  0  0  0  0
   -5.5510   26.4620  -30.4760 O   0  0  0  0  0  0  0  0  0  0  0  0
   -5.8330   24.1860  -31.0940 C   0  0  0  0  0  0  0  0  0  0  0  0
   -7.2170   24.1710  -30.8420 C   0  0  0  0  0  0  0  0  0  0  0  0
   -7.9890   23.0670  -31.2050 C   0  0  0  0  0  0  0  0  0  0  0  0
   -7.3930   21.9620  -31.8140 C   0  0  0  0  0  0  0  0  0  0  0  0
   -6.0150   21.9540  -32.0620 C   0  0  0  0  0  0  0  0  0  0  0  0
   -5.2390   20.5170  -32.7350 S   0  0  0  0  0  0  0  0  0  0  0  0
   -4.1420   20.9380  -33.6750 O   0  0  0  0  0  0  0  0  0  0  0  0
   -4.6160   19.7190  -31.6210 O   0  0  0  0  0  0  0  0  0  0  0  0
   -6.4010   19.5130  -33.5820 N   0  0  0  0  0  0  0  0  0  0  0  0
   -7.1880   18.6680  -32.6360 C   0  0  0  0  0  0  0  0  0  0  0  0
   -7.2390   17.1680  -32.9920 C   0  0  0  0  0  0  0  0  0  0  0  0
   -5.8810   16.6950  -33.4090 C   0  0  0  0  0  0  0  0  0  0  0  0
   -5.3460   15.4730  -32.9710 C   0  0  0  0  0  0  0  0  0  0  0  0
   -4.0870   15.0630  -33.4210 C   0  0  0  0  0  0  0  0  0  0  0  0
   -3.3690   15.8590  -34.3210 C   0  0  0  0  0  0  0  0  0  0  0  0
   -3.9060   17.0690  -34.7700 C   0  0  0  0  0  0  0  0  0  0  0  0
   -5.1560   17.4970  -34.2960 C   0  0  0  0  0  0  0  0  0  0  0  0
   -5.7660   18.8050  -34.7210 C   0  0  0  0  0  0  0  0  0  0  0  0
   -5.2420   23.0730  -31.7170 C   0  0  0  0  0  0  0  0  0  0  0  0
   -2.4350   22.9720  -30.4560 C   0  0  0  0  0  0  0  0  0  0  0  0
   -2.7360   20.6600  -32.0650 H   0  0  0  0  0  0  0  0  0  0  0  0
   -1.5440   19.3260  -32.0560 H   0  0  0  0  0  0  0  0  0  0  0  0
   -1.2577   21.1887  -27.7804 H   0  0  0  0  0  0  0  0  0  0  0  0
   -2.2050   23.1513  -26.5710 H   0  0  0  0  0  0  0  0  0  0  0  0
   -3.2968   24.9966  -27.8358 H   0  0  0  0  0  0  0  0  0  0  0  0
   -7.6934   25.0350  -30.3557 H   0  0  0  0  0  0  0  0  0  0  0  0
   -9.0716   23.0677  -31.0104 H   0  0  0  0  0  0  0  0  0  0  0  0
   -8.0071   21.0953  -32.0999 H   0  0  0  0  0  0  0  0  0  0  0  0
   -6.7400   18.7667  -31.6362 H   0  0  0  0  0  0  0  0  0  0  0  0
   -8.2247   19.0322  -32.6870 H   0  0  0  0  0  0  0  0  0  0  0  0
   -7.5701   16.5958  -32.1128 H   0  0  0  0  0  0  0  0  0  0  0  0
   -7.9448   17.0174  -33.8221 H   0  0  0  0  0  0  0  0  0  0  0  0
   -5.9159   14.8395  -32.2754 H   0  0  0  0  0  0  0  0  0  0  0  0
   -3.6601   14.1130  -33.0670 H   0  0  0  0  0  0  0  0  0  0  0  0
   -2.3804   15.5318  -34.6756 H   0  0  0  0  0  0  0  0  0  0  0  0
   -3.3504   17.6843  -35.4930 H   0  0  0  0  0  0  0  0  0  0  0  0
   -4.9773   19.4452  -35.1431 H   0  0  0  0  0  0  0  0  0  0  0  0
   -6.5447   18.5922  -35.4682 H   0  0  0  0  0  0  0  0  0  0  0  0
   -4.1640   23.0794  -31.9359 H   0  0  0  0  0  0  0  0  0  0  0  0
   -2.5122   22.9180  -31.5520 H   0  0  0  0  0  0  0  0  0  0  0  0
  1  2  1  0
  2  3  2  0
  2  4  1  0
  4  5  2  0
  5  6  1  0
  6  7  2  0
  7  8  1  0
  8  9  1  0
  9 10  1  0
 10 11  2  0
 10 12  1  0
 12 13  2  0
 13 14  1  0
 14 15  2  0
 15 16  1  0
 16 17  1  0
 17 18  2  0
 17 19  2  0
 17 20  1  0
 20 21  1  0
 21 22  1  0
 22 23  1  0
 23 24  2  0
 24 25  1  0
 25 26  2  0
 26 27  1  0
 27 28  2  0
 28 29  1  0
 16 30  2  0
  8 31  2  0
 31  4  1  0
 30 12  1  0
 29 20  1  0
 28 23  1  0
  1 32  1  0
  1 33  1  0
  5 34  1  0
  6 35  1  0
  7 36  1  0
 13 37  1  0
 14 38  1  0
 15 39  1  0
 21 40  1  0
 21 41  1  0
 22 42  1  0
 22 43  1  0
 24 44  1  0
 25 45  1  0
 26 46  1  0
 27 47  1  0
 29 48  1  0
 29 49  1  0
 30 50  1  0
 31 51  1  0
M  CHG  1   9  -1
M  END
>  <UniqueID>  (31) 
30

>  <SMILES>  (31) 
NC(=O)c1cccc([N-]C(=O)c2cccc(S(=O)(=O)N3CCc4ccccc4C3)c2)c1

>  <Energy>  (31) 
67.26697818381601

>  <Genealogy>  (31) 
NC(=O)c1cccc([N-]C(=O)c2cccc(S(=O)(=O)N3CCc4ccccc4C3)c2)c1 (protonated)
NC(=O)c1cccc([N-]C(=O)c2cccc(S(=O)(=O)N3CCc4ccccc4C3)c2)c1 (3D coordinates assigned)
NC(=O)c1cccc([N-]C(=O)c2cccc(S(=O)(=O)N3CCc4ccccc4C3)c2)c1 (nonaromatic ring conformer: 67.26697818381601 kcal/mol)

>  <smiles>  (31) 
NC(=O)c1cccc(NC(=O)c2cccc(S(=O)(=O)N3CCc4ccccc4C3)c2)c1

>  <score_type>  (31) 
oracle

>  <origin>  (31) 
adgpu

>  <m_score__min__energy>  (31) 
-11.34

>  <m_primary>  (31) 
energy

$$$$
31:0
     RDKit          3D

 53 56  0  0  0  0  0  0  0  0999 V2000
    0.3140   24.5350  -28.2180 O   0  0  0  0  0  0  0  0  0  0  0  0
   -0.8460   24.1340  -28.5090 C   0  0  0  0  0  0  0  0  0  0  0  0
   -1.6640   24.9310  -29.3150 C   0  0  0  0  0  0  0  0  0  0  0  0
   -2.9620   24.4950  -29.6440 C   0  0  0  0  0  0  0  0  0  0  0  0
   -3.8560   25.2820  -30.4520 N   0  0  0  0  0  0  0  0  0  0  0  0
   -5.2560   25.5660  -30.1380 C   0  0  0  0  0  0  0  0  0  0  0  0
   -5.9730   24.3210  -29.6060 C   0  0  0  0  0  0  0  0  0  0  0  0
   -6.9680   23.8190  -30.5840 N   0  0  0  0  0  0  0  0  0  0  0  0
   -7.3760   22.4100  -30.3360 C   0  0  0  0  0  0  0  0  0  0  0  0
   -7.1050   21.4650  -31.5250 C   0  0  0  0  0  0  0  0  0  0  0  0
   -5.7520   21.6510  -32.1050 N   0  0  0  0  0  0  0  0  0  0  0  0
   -4.6880   21.0450  -31.2640 C   0  0  0  0  0  0  0  0  0  0  0  0
   -3.3460   21.0060  -31.9620 C   0  0  0  0  0  0  0  0  0  0  0  0
   -2.1850   21.4410  -31.3000 C   0  0  0  0  0  0  0  0  0  0  0  0
   -0.9450   21.3910  -31.9460 C   0  0  0  0  0  0  0  0  0  0  0  0
   -0.8560   20.9080  -33.2540 C   0  0  0  0  0  0  0  0  0  0  0  0
   -2.0060   20.4750  -33.9190 C   0  0  0  0  0  0  0  0  0  0  0  0
   -3.2480   20.5230  -33.2770 C   0  0  0  0  0  0  0  0  0  0  0  0
   -5.4450   23.0810  -32.4100 C   0  0  0  0  0  0  0  0  0  0  0  0
   -6.5540   24.0590  -31.9790 C   0  0  0  0  0  0  0  0  0  0  0  0
   -3.4050   23.3030  -29.1590 N   0  0  0  0  0  0  0  0  0  0  0  0
   -2.6350   22.5030  -28.3740 C   0  0  0  0  0  0  0  0  0  0  0  0
   -3.1450   21.2870  -27.9060 C   0  0  0  0  0  0  0  0  0  0  0  0
   -2.3590   20.4630  -27.0970 C   0  0  0  0  0  0  0  0  0  0  0  0
   -1.0600   20.8490  -26.7530 C   0  0  0  0  0  0  0  0  0  0  0  0
   -0.5420   22.0630  -27.2140 C   0  0  0  0  0  0  0  0  0  0  0  0
   -1.3240   22.9020  -28.0280 C   0  0  0  0  0  0  0  0  0  0  0  0
   -1.2947   25.8964  -29.6914 H   0  0  0  0  0  0  0  0  0  0  0  0
   -3.4740   25.6950  -31.3340 H   0  0  0  0  0  0  0  0  0  0  0  0
   -5.2983   26.3570  -29.3747 H   0  0  0  0  0  0  0  0  0  0  0  0
   -5.7597   25.8876  -31.0615 H   0  0  0  0  0  0  0  0  0  0  0  0
   -5.2298   23.5333  -29.4132 H   0  0  0  0  0  0  0  0  0  0  0  0
   -6.4999   24.5908  -28.6789 H   0  0  0  0  0  0  0  0  0  0  0  0
   -6.8209   22.0367  -29.4628 H   0  0  0  0  0  0  0  0  0  0  0  0
   -8.4638   22.4154  -30.1724 H   0  0  0  0  0  0  0  0  0  0  0  0
   -7.1995   20.4256  -31.1775 H   0  0  0  0  0  0  0  0  0  0  0  0
   -7.8390   21.6987  -32.3102 H   0  0  0  0  0  0  0  0  0  0  0  0
   -5.7490   21.1390  -33.0200 H   0  0  0  0  0  0  0  0  0  0  0  0
   -4.5884   21.6362  -30.3418 H   0  0  0  0  0  0  0  0  0  0  0  0
   -4.9828   20.0069  -31.0506 H   0  0  0  0  0  0  0  0  0  0  0  0
   -2.2515   21.8221  -30.2703 H   0  0  0  0  0  0  0  0  0  0  0  0
   -0.0392   21.7323  -31.4235 H   0  0  0  0  0  0  0  0  0  0  0  0
    0.1197   20.8686  -33.7604 H   0  0  0  0  0  0  0  0  0  0  0  0
   -1.9347   20.0957  -34.9491 H   0  0  0  0  0  0  0  0  0  0  0  0
   -4.1510   20.1812  -33.8041 H   0  0  0  0  0  0  0  0  0  0  0  0
   -4.5172   23.3560  -31.8870 H   0  0  0  0  0  0  0  0  0  0  0  0
   -5.3515   23.1632  -33.5029 H   0  0  0  0  0  0  0  0  0  0  0  0
   -6.1783   25.0889  -32.0691 H   0  0  0  0  0  0  0  0  0  0  0  0
   -7.4260   23.9043  -32.6314 H   0  0  0  0  0  0  0  0  0  0  0  0
   -4.1662   20.9795  -28.1755 H   0  0  0  0  0  0  0  0  0  0  0  0
   -2.7630   19.5081  -26.7297 H   0  0  0  0  0  0  0  0  0  0  0  0
   -0.4438   20.1957  -26.1178 H   0  0  0  0  0  0  0  0  0  0  0  0
    0.4801   22.3628  -26.9393 H   0  0  0  0  0  0  0  0  0  0  0  0
  1  2  2  0
  2  3  1  0
  3  4  2  0
  4  5  1  0
  5  6  1  0
  6  7  1  0
  7  8  1  0
  8  9  1  0
  9 10  1  0
 10 11  1  0
 11 12  1  0
 12 13  1  0
 13 14  2  0
 14 15  1  0
 15 16  2  0
 16 17  1  0
 17 18  2  0
 11 19  1  0
 19 20  1  0
  4 21  1  0
 21 22  1  0
 22 23  2  0
 23 24  1  0
 24 25  2  0
 25 26  1  0
 26 27  2  0
 27  2  1  0
 20  8  1  0
 27 22  1  0
 18 13  1  0
  3 28  1  0
  5 29  1  0
  6 30  1  0
  6 31  1  0
  7 32  1  0
  7 33  1  0
  9 34  1  0
  9 35  1  0
 10 36  1  0
 10 37  1  0
 11 38  1  0
 12 39  1  0
 12 40  1  0
 14 41  1  0
 15 42  1  0
 16 43  1  0
 17 44  1  0
 18 45  1  0
 19 46  1  0
 19 47  1  0
 20 48  1  0
 20 49  1  0
 23 50  1  0
 24 51  1  0
 25 52  1  0
 26 53  1  0
M  CHG  2  11   1  21  -1
M  END
>  <UniqueID>  (32) 
31

>  <SMILES>  (32) 
O=c1cc(NCCN2CC[NH+](Cc3ccccc3)CC2)[n-]c2ccccc12

>  <Energy>  (32) 
77.58693631857435

>  <Genealogy>  (32) 
O=c1cc(NCCN2CC[NH+](Cc3ccccc3)CC2)[n-]c2ccccc12 (protonated)
O=c1cc(NCCN2CC[NH+](Cc3ccccc3)CC2)[n-]c2ccccc12 (3D coordinates assigned)
O=c1cc(NCCN2CC[NH+](Cc3ccccc3)CC2)[n-]c2ccccc12 (nonaromatic ring conformer: 77.58693631857435 kcal/mol)

>  <smiles>  (32) 
O=c1cc(NCCN2CCN(Cc3ccccc3)CC2)[nH]c2ccccc12

>  <score_type>  (32) 
oracle

>  <origin>  (32) 
adgpu

>  <m_score__min__energy>  (32) 
-10.16

>  <m_primary>  (32) 
energy

$$$$
32:0
     RDKit          3D

 45 48  0  0  0  0  0  0  0  0999 V2000
   -6.5110   25.0400  -30.4550 C   0  0  0  0  0  0  0  0  0  0  0  0
   -6.4190   24.1840  -31.5880 O   0  0  0  0  0  0  0  0  0  0  0  0
   -6.9750   22.8950  -31.6620 C   0  0  0  0  0  0  0  0  0  0  0  0
   -8.2900   22.6320  -31.2290 C   0  0  0  0  0  0  0  0  0  0  0  0
   -8.8240   21.3450  -31.3270 C   0  0  0  0  0  0  0  0  0  0  0  0
   -8.0570   20.3060  -31.8560 C   0  0  0  0  0  0  0  0  0  0  0  0
   -8.7960   18.5500  -31.9960 Br  0  0  0  0  0  0  0  0  0  0  0  0
   -6.7510   20.5510  -32.2860 C   0  0  0  0  0  0  0  0  0  0  0  0
   -6.1980   21.8390  -32.1890 C   0  0  0  0  0  0  0  0  0  0  0  0
   -4.7980   22.0730  -32.6970 C   0  0  0  0  0  0  0  0  0  0  0  0
   -3.5590   21.3360  -31.5730 S   0  0  0  0  0  0  0  0  0  0  0  0
   -3.3010   22.8350  -30.6170 C   0  0  0  0  0  0  0  0  0  0  0  0
   -3.7730   24.0360  -30.9940 N   0  0  0  0  0  0  0  0  0  0  0  0
   -3.4780   24.8870  -30.0240 N   0  0  0  0  0  0  0  0  0  0  0  0
   -2.8290   24.1940  -29.0670 C   0  0  0  0  0  0  0  0  0  0  0  0
   -2.3280   24.8200  -27.8230 C   0  0  0  0  0  0  0  0  0  0  0  0
   -1.0330   25.3530  -27.7400 C   0  0  0  0  0  0  0  0  0  0  0  0
   -0.5950   25.9480  -26.5560 C   0  0  0  0  0  0  0  0  0  0  0  0
   -1.4620   26.0170  -25.4650 C   0  0  0  0  0  0  0  0  0  0  0  0
   -2.7210   25.5160  -25.5630 N   0  0  0  0  0  0  0  0  0  0  0  0
   -3.1710   24.9320  -26.7060 C   0  0  0  0  0  0  0  0  0  0  0  0
   -2.6960   22.8930  -29.4140 N   0  0  0  0  0  0  0  0  0  0  0  0
   -2.2170   21.7890  -28.6270 C   0  0  0  0  0  0  0  0  0  0  0  0
   -3.1110   21.0230  -27.8620 C   0  0  0  0  0  0  0  0  0  0  0  0
   -2.6440   19.9460  -27.1030 C   0  0  0  0  0  0  0  0  0  0  0  0
   -1.2840   19.6250  -27.1050 C   0  0  0  0  0  0  0  0  0  0  0  0
   -0.3890   20.3810  -27.8690 C   0  0  0  0  0  0  0  0  0  0  0  0
   -0.8530   21.4590  -28.6290 C   0  0  0  0  0  0  0  0  0  0  0  0
   -6.4465   24.4396  -29.5356 H   0  0  0  0  0  0  0  0  0  0  0  0
   -5.6858   25.7671  -30.4768 H   0  0  0  0  0  0  0  0  0  0  0  0
   -7.4718   25.5751  -30.4768 H   0  0  0  0  0  0  0  0  0  0  0  0
   -8.9003   23.4460  -30.8108 H   0  0  0  0  0  0  0  0  0  0  0  0
   -9.8516   21.1500  -30.9864 H   0  0  0  0  0  0  0  0  0  0  0  0
   -6.1507   19.7293  -32.7038 H   0  0  0  0  0  0  0  0  0  0  0  0
   -4.6961   21.6169  -33.6928 H   0  0  0  0  0  0  0  0  0  0  0  0
   -4.6216   23.1575  -32.7489 H   0  0  0  0  0  0  0  0  0  0  0  0
   -0.3615   25.3019  -28.6098 H   0  0  0  0  0  0  0  0  0  0  0  0
    0.4231   26.3583  -26.4837 H   0  0  0  0  0  0  0  0  0  0  0  0
   -1.1257   26.4776  -24.5244 H   0  0  0  0  0  0  0  0  0  0  0  0
   -4.1998   24.5458  -26.7554 H   0  0  0  0  0  0  0  0  0  0  0  0
   -4.1826   21.2712  -27.8599 H   0  0  0  0  0  0  0  0  0  0  0  0
   -3.3480   19.3504  -26.5034 H   0  0  0  0  0  0  0  0  0  0  0  0
   -0.9175   18.7783  -26.5061 H   0  0  0  0  0  0  0  0  0  0  0  0
    0.6813   20.1272  -27.8720 H   0  0  0  0  0  0  0  0  0  0  0  0
   -0.1467   22.0502  -29.2303 H   0  0  0  0  0  0  0  0  0  0  0  0
  1  2  1  0
  2  3  1  0
  3  4  2  0
  4  5  1  0
  5  6  2  0
  6  7  1  0
  6  8  1  0
  8  9  2  0
  9 10  1  0
 10 11  1  0
 11 12  1  0
 12 13  2  0
 13 14  1  0
 14 15  2  0
 15 16  1  0
 16 17  2  0
 17 18  1  0
 18 19  2  0
 19 20  1  0
 20 21  2  0
 15 22  1  0
 22 23  1  0
 23 24  2  0
 24 25  1  0
 25 26  2  0
 26 27  1  0
 27 28  2  0
  9  3  1  0
 22 12  1  0
 28 23  1  0
 21 16  1  0
  1 29  1  0
  1 30  1  0
  1 31  1  0
  4 32  1  0
  5 33  1  0
  8 34  1  0
 10 35  1  0
 10 36  1  0
 17 37  1  0
 18 38  1  0
 19 39  1  0
 21 40  1  0
 24 41  1  0
 25 42  1  0
 26 43  1  0
 27 44  1  0
 28 45  1  0
M  END
>  <UniqueID>  (33) 
32

>  <SMILES>  (33) 
COc1ccc(Br)cc1CSc1nnc(-c2cccnc2)n1-c1ccccc1

>  <Energy>  (33) 
87.03306317088801

>  <Genealogy>  (33) 
COc1ccc(Br)cc1CSc1nnc(-c2cccnc2)n1-c1ccccc1 (3D coordinates assigned)
COc1ccc(Br)cc1CSc1nnc(-c2cccnc2)n1-c1ccccc1 (optimized conformer: 87.03306317088801 kcal/mol)

>  <smiles>  (33) 
COc1ccc(Br)cc1CSc1nnc(-c2cccnc2)n1-c1ccccc1

>  <score_type>  (33) 
oracle

>  <origin>  (33) 
adgpu

>  <m_score__min__energy>  (33) 
-9.5700000000000003

>  <m_primary>  (33) 
energy

$$$$
33:0
     RDKit          3D

 39 41  0  0  0  0  0  0  0  0999 V2000
   -3.4010   16.0840  -32.2500 H   0  0  0  0  0  0  0  0  0  0  0  0
   -3.6740   16.7360  -32.9750 O   0  0  0  0  0  0  0  0  0  0  0  0
   -4.8920   17.4130  -32.9240 C   0  0  0  0  0  0  0  0  0  0  0  0
   -5.2330   18.3460  -33.9120 C   0  0  0  0  0  0  0  0  0  0  0  0
   -4.5369   18.5494  -34.7391 H   0  0  0  0  0  0  0  0  0  0  0  0
   -6.4570   19.0190  -33.8480 C   0  0  0  0  0  0  0  0  0  0  0  0
   -6.7283   19.7376  -34.6354 H   0  0  0  0  0  0  0  0  0  0  0  0
   -7.3420   18.7820  -32.7830 C   0  0  0  0  0  0  0  0  0  0  0  0
   -8.6550   19.4610  -32.7040 C   0  0  0  0  0  0  0  0  0  0  0  0
   -9.5526   18.8746  -32.9498 H   0  0  0  0  0  0  0  0  0  0  0  0
   -8.8170   20.7090  -32.3620 N   0  0  0  0  0  0  0  0  0  0  0  0
   -7.8240   21.6070  -31.8450 C   0  0  0  0  0  0  0  0  0  0  0  0
   -8.0070   22.1640  -30.5730 C   0  0  0  0  0  0  0  0  0  0  0  0
   -8.9144   21.9267  -29.9983 H   0  0  0  0  0  0  0  0  0  0  0  0
   -7.0450   23.0190  -30.0290 C   0  0  0  0  0  0  0  0  0  0  0  0
   -7.2076   23.4680  -29.0381 H   0  0  0  0  0  0  0  0  0  0  0  0
   -5.8730   23.3060  -30.7430 C   0  0  0  0  0  0  0  0  0  0  0  0
   -4.6500   24.3750  -30.0620 S   0  0  0  0  0  0  0  0  0  0  0  0
   -4.6450   25.6620  -30.8370 O   0  0  0  0  0  0  0  0  0  0  0  0
   -4.9520   24.6740  -28.6190 O   0  0  0  0  0  0  0  0  0  0  0  0
   -3.0840   23.6370  -30.1720 N   0  0  0  0  0  0  0  0  0  0  0  0
   -2.0440   24.0200  -29.4940 C   0  0  0  0  0  0  0  0  0  0  0  0
   -0.8470   23.4170  -29.5960 N   0  0  0  0  0  0  0  0  0  0  0  0
   -0.0480   24.0430  -28.7810 O   0  0  0  0  0  0  0  0  0  0  0  0
   -0.6730   25.0210  -28.1640 C   0  0  0  0  0  0  0  0  0  0  0  0
   -0.0480   25.9170  -27.1500 C   0  0  0  0  0  0  0  0  0  0  0  0
   -0.2979   25.5587  -26.1404 H   0  0  0  0  0  0  0  0  0  0  0  0
    1.0442   25.9129  -27.2806 H   0  0  0  0  0  0  0  0  0  0  0  0
   -0.4291   26.9406  -27.2806 H   0  0  0  0  0  0  0  0  0  0  0  0
   -1.9850   25.0590  -28.5830 C   0  0  0  0  0  0  0  0  0  0  0  0
   -2.7862   25.7450  -28.2707 H   0  0  0  0  0  0  0  0  0  0  0  0
   -5.6710   22.7270  -32.0020 C   0  0  0  0  0  0  0  0  0  0  0  0
   -4.7524   22.9472  -32.5656 H   0  0  0  0  0  0  0  0  0  0  0  0
   -6.6330   21.8700  -32.5450 C   0  0  0  0  0  0  0  0  0  0  0  0
   -6.4576   21.3996  -33.5237 H   0  0  0  0  0  0  0  0  0  0  0  0
   -7.0080   17.8250  -31.8130 C   0  0  0  0  0  0  0  0  0  0  0  0
   -7.7123   17.6028  -30.9978 H   0  0  0  0  0  0  0  0  0  0  0  0
   -5.7830   17.1520  -31.8780 C   0  0  0  0  0  0  0  0  0  0  0  0
   -5.5200   16.4156  -31.1043 H   0  0  0  0  0  0  0  0  0  0  0  0
  1  2  1  0
  2  3  1  0
  3  4  2  0
  4  5  1  0
  4  6  1  0
  6  7  1  0
  6  8  2  0
  8  9  1  0
  9 10  1  0
  9 11  2  0
 11 12  1  0
 12 13  2  0
 13 14  1  0
 13 15  1  0
 15 16  1  0
 15 17  2  0
 17 18  1  0
 18 19  2  0
 18 20  2  0
 18 21  1  0
 21 22  2  0
 22 23  1  0
 23 24  1  0
 24 25  1  0
 25 26  1  0
 26 27  1  0
 26 28  1  0
 26 29  1  0
 25 30  2  0
 30 31  1  0
 17 32  1  0
 32 33  1  0
 32 34  2  0
 34 35  1  0
  8 36  1  0
 36 37  1  0
 36 38  2  0
 38 39  1  0
 38  3  1  0
 34 12  1  0
 30 22  1  0
M  CHG  1  23  -1
M  END
>  <UniqueID>  (34) 
33

>  <SMILES>  (34) 
Cc1c/c(=N\S(=O)(=O)c2ccc(/N=C\c3ccc(O)cc3)cc2)[n-]o1

>  <Energy>  (34) 
85.11716937902504

>  <Genealogy>  (34) 
Cc1cc(=NS(=O)(=O)c2ccc(N=Cc3ccc(O)cc3)cc2)[n-]o1 (protonated)
Cc1c/c(=N\S(=O)(=O)c2ccc(/N=C\c3ccc(O)cc3)cc2)[n-]o1 (cis-trans isomerization)
Cc1c/c(=N\S(=O)(=O)c2ccc(/N=C\c3ccc(O)cc3)cc2)[n-]o1 (3D coordinates assigned)
Cc1c/c(=N\S(=O)(=O)c2ccc(/N=C\c3ccc(O)cc3)cc2)[n-]o1 (optimized conformer: 85.11716937902504 kcal/mol)

>  <smiles>  (34) 
Cc1cc(=NS(=O)(=O)c2ccc(N=Cc3ccc(O)cc3)cc2)[nH]o1

>  <score_type>  (34) 
oracle

>  <origin>  (34) 
adgpu

>  <m_score__min__energy>  (34) 
-9.7100000000000009

>  <m_primary>  (34) 
energy

$$$$
34:0
     RDKit          3D

 48 50  0  0  0  0  0  0  0  0999 V2000
   -8.9300   20.2990  -32.6450 C   0  0  0  0  0  0  0  0  0  0  0  0
   -7.4420   20.1990  -32.5940 C   0  0  0  0  0  0  0  0  0  0  0  0
   -6.7570   19.0590  -32.8290 N   0  0  0  0  0  0  0  0  0  0  0  0
   -5.4660   19.3400  -32.7350 N   0  0  0  0  0  0  0  0  0  0  0  0
   -4.4110   18.3570  -32.9490 C   0  0  0  0  0  0  0  0  0  0  0  0
   -5.3100   20.6510  -32.4620 C   0  0  0  0  0  0  0  0  0  0  0  0
   -4.0430   21.3130  -32.3290 N   0  0  0  0  0  0  0  0  0  0  0  0
   -3.1210   21.3730  -33.4620 C   0  0  0  0  0  0  0  0  0  0  0  0
   -3.5970   21.7400  -31.0040 C   0  0  0  0  0  0  0  0  0  0  0  0
   -6.5550   21.2430  -32.3730 C   0  0  0  0  0  0  0  0  0  0  0  0
   -6.8820   22.6790  -32.0890 C   0  0  0  0  0  0  0  0  0  0  0  0
   -7.4010   22.8150  -30.7220 N   0  0  0  0  0  0  0  0  0  0  0  0
   -7.2160   24.1780  -30.2040 C   0  0  0  0  0  0  0  0  0  0  0  0
   -5.7650   24.4960  -29.9730 C   0  0  0  0  0  0  0  0  0  0  0  0
   -4.9970   24.0460  -28.9180 C   0  0  0  0  0  0  0  0  0  0  0  0
   -3.7280   24.5220  -29.1950 C   0  0  0  0  0  0  0  0  0  0  0  0
   -2.5020   24.2790  -28.3960 C   0  0  0  0  0  0  0  0  0  0  0  0
   -2.4780   24.5650  -27.0170 C   0  0  0  0  0  0  0  0  0  0  0  0
   -1.3230   24.3280  -26.2650 C   0  0  0  0  0  0  0  0  0  0  0  0
   -0.1820   23.8050  -26.8780 C   0  0  0  0  0  0  0  0  0  0  0  0
   -0.1940   23.5180  -28.2440 C   0  0  0  0  0  0  0  0  0  0  0  0
   -1.3460   23.7520  -29.0020 C   0  0  0  0  0  0  0  0  0  0  0  0
   -3.7710   25.2160  -30.3510 N   0  0  0  0  0  0  0  0  0  0  0  0
   -5.0030   25.1970  -30.8340 N   0  0  0  0  0  0  0  0  0  0  0  0
   -9.3310   20.3259  -31.6210 H   0  0  0  0  0  0  0  0  0  0  0  0
   -9.2177   21.2185  -33.1758 H   0  0  0  0  0  0  0  0  0  0  0  0
   -9.3382   19.4263  -33.1758 H   0  0  0  0  0  0  0  0  0  0  0  0
   -4.0343   18.0060  -31.9770 H   0  0  0  0  0  0  0  0  0  0  0  0
   -4.8136   17.5045  -33.5158 H   0  0  0  0  0  0  0  0  0  0  0  0
   -3.5891   18.8188  -33.5158 H   0  0  0  0  0  0  0  0  0  0  0  0
   -2.0877   21.4402  -33.0907 H   0  0  0  0  0  0  0  0  0  0  0  0
   -3.2324   20.4657  -34.0739 H   0  0  0  0  0  0  0  0  0  0  0  0
   -3.3491   22.2582  -34.0739 H   0  0  0  0  0  0  0  0  0  0  0  0
   -4.1641   21.1970  -30.2336 H   0  0  0  0  0  0  0  0  0  0  0  0
   -2.5245   21.5234  -30.8907 H   0  0  0  0  0  0  0  0  0  0  0  0
   -3.7667   22.8209  -30.8907 H   0  0  0  0  0  0  0  0  0  0  0  0
   -5.9720   23.2878  -32.1954 H   0  0  0  0  0  0  0  0  0  0  0  0
   -7.6464   23.0230  -32.8013 H   0  0  0  0  0  0  0  0  0  0  0  0
   -6.9090   22.1400  -30.0910 H   0  0  0  0  0  0  0  0  0  0  0  0
   -7.6258   24.8940  -30.9316 H   0  0  0  0  0  0  0  0  0  0  0  0
   -7.7395   24.2508  -29.2393 H   0  0  0  0  0  0  0  0  0  0  0  0
   -5.3202   23.4461  -28.0545 H   0  0  0  0  0  0  0  0  0  0  0  0
   -3.3732   24.9773  -26.5286 H   0  0  0  0  0  0  0  0  0  0  0  0
   -1.3130   24.5539  -25.1885 H   0  0  0  0  0  0  0  0  0  0  0  0
    0.7254   23.6194  -26.2846 H   0  0  0  0  0  0  0  0  0  0  0  0
    0.7052   23.1066  -28.7258 H   0  0  0  0  0  0  0  0  0  0  0  0
   -1.3486   23.5229  -30.0779 H   0  0  0  0  0  0  0  0  0  0  0  0
   -2.9700   25.6720  -30.8390 H   0  0  0  0  0  0  0  0  0  0  0  0
  1  2  1  0
  2  3  2  0
  3  4  1  0
  4  5  1  0
  4  6  1  0
  6  7  1  0
  7  8  1  0
  7  9  1  0
  6 10  2  0
 10 11  1  0
 11 12  1  0
 12 13  1  0
 13 14  1  0
 14 15  1  0
 15 16  2  0
 16 17  1  0
 17 18  2  0
 18 19  1  0
 19 20  2  0
 20 21  1  0
 21 22  2  0
 16 23  1  0
 23 24  1  0
 10  2  1  0
 24 14  2  0
 22 17  1  0
  1 25  1  0
  1 26  1  0
  1 27  1  0
  5 28  1  0
  5 29  1  0
  5 30  1  0
  8 31  1  0
  8 32  1  0
  8 33  1  0
  9 34  1  0
  9 35  1  0
  9 36  1  0
 11 37  1  0
 11 38  1  0
 12 39  1  0
 13 40  1  0
 13 41  1  0
 15 42  1  0
 18 43  1  0
 19 44  1  0
 20 45  1  0
 21 46  1  0
 22 47  1  0
 23 48  1  0
M  END
>  <UniqueID>  (35) 
34

>  <SMILES>  (35) 
Cc1nn(C)c(N(C)C)c1CNCc1cc(-c2ccccc2)[nH]n1

>  <Energy>  (35) 
109.69361890016522

>  <Genealogy>  (35) 
Cc1nn(C)c(N(C)C)c1CNCc1cc(-c2ccccc2)[nH]n1 (3D coordinates assigned)
Cc1nn(C)c(N(C)C)c1CNCc1cc(-c2ccccc2)[nH]n1 (optimized conformer: 109.69361890016522 kcal/mol)

>  <smiles>  (35) 
Cc1nn(C)c(N(C)C)c1CNCc1cc(-c2ccccc2)[nH]n1

>  <score_type>  (35) 
oracle

>  <origin>  (35) 
adgpu

>  <m_score__min__energy>  (35) 
-8.4100000000000001

>  <m_primary>  (35) 
energy

$$$$
35:0
     RDKit          3D

 62 65  0  0  0  0  0  0  0  0999 V2000
    1.0666   17.9189  -30.7617 H   0  0  0  0  0  0  0  0  0  0  0  0
    0.4190   18.8050  -30.8350 C   0  0  0  0  0  0  0  0  0  0  0  0
    0.3190   19.4780  -32.0100 N   0  0  0  0  0  0  0  0  0  0  0  0
   -0.4740   20.5820  -32.1210 C   0  0  0  0  0  0  0  0  0  0  0  0
   -0.5900   21.2260  -33.2470 N   0  0  0  0  0  0  0  0  0  0  0  0
    0.1270   20.9730  -34.4650 C   0  0  0  0  0  0  0  0  0  0  0  0
   -0.0920   19.8110  -35.2310 C   0  0  0  0  0  0  0  0  0  0  0  0
   -0.8564   19.0841  -34.9191 H   0  0  0  0  0  0  0  0  0  0  0  0
    0.6590   19.5800  -36.3850 C   0  0  0  0  0  0  0  0  0  0  0  0
    0.4778   18.6763  -36.9854 H   0  0  0  0  0  0  0  0  0  0  0  0
    1.6410   20.4940  -36.7800 C   0  0  0  0  0  0  0  0  0  0  0  0
    2.2265   20.3109  -37.6930 H   0  0  0  0  0  0  0  0  0  0  0  0
    1.8800   21.6430  -36.0140 C   0  0  0  0  0  0  0  0  0  0  0  0
    3.1270   22.7920  -36.4890 S   0  0  0  0  0  0  0  0  0  0  0  0
    3.9330   23.2020  -35.2870 O   0  0  0  0  0  0  0  0  0  0  0  0
    4.0430   22.1510  -37.4920 O   0  0  0  0  0  0  0  0  0  0  0  0
    2.3820   24.1890  -37.1830 N   0  0  0  0  0  0  0  0  0  0  0  0
    1.4680   23.8790  -37.5870 H   0  0  0  0  0  0  0  0  0  0  0  0
    2.1530   24.8330  -36.3920 H   0  0  0  0  0  0  0  0  0  0  0  0
    1.1360   21.8670  -34.8480 C   0  0  0  0  0  0  0  0  0  0  0  0
    1.3455   22.7514  -34.2284 H   0  0  0  0  0  0  0  0  0  0  0  0
   -1.1860   21.0030  -31.0460 N   0  0  0  0  0  0  0  0  0  0  0  0
   -1.1150   20.3600  -29.8490 C   0  0  0  0  0  0  0  0  0  0  0  0
   -1.8240   20.8380  -28.7410 O   0  0  0  0  0  0  0  0  0  0  0  0
   -2.0720   22.1980  -28.5290 C   0  0  0  0  0  0  0  0  0  0  0  0
   -2.5300   22.9810  -29.5950 C   0  0  0  0  0  0  0  0  0  0  0  0
   -2.5963   22.5480  -30.6040 H   0  0  0  0  0  0  0  0  0  0  0  0
   -2.9040   24.3130  -29.3820 C   0  0  0  0  0  0  0  0  0  0  0  0
   -3.5070   25.0520  -30.4520 N   0  0  0  0  0  0  0  0  0  0  0  0
   -4.9230   25.1610  -30.6620 C   0  0  0  0  0  0  0  0  0  0  0  0
   -5.4800   26.2710  -30.4710 O   0  0  0  0  0  0  0  0  0  0  0  0
   -5.7270   24.0090  -31.1390 C   0  0  0  0  0  0  0  0  0  0  0  0
   -7.1180   24.0150  -30.9880 C   0  0  0  0  0  0  0  0  0  0  0  0
   -7.6202   24.8933  -30.5562 H   0  0  0  0  0  0  0  0  0  0  0  0
   -7.8690   22.9070  -31.3850 C   0  0  0  0  0  0  0  0  0  0  0  0
   -8.9617   22.9139  -31.2590 H   0  0  0  0  0  0  0  0  0  0  0  0
   -7.2430   21.7920  -31.9400 C   0  0  0  0  0  0  0  0  0  0  0  0
   -7.8483   20.9211  -32.2317 H   0  0  0  0  0  0  0  0  0  0  0  0
   -5.8440   21.7620  -32.1340 C   0  0  0  0  0  0  0  0  0  0  0  0
   -5.1820   20.5090  -32.7480 C   0  0  0  0  0  0  0  0  0  0  0  0
   -4.9000   19.3950  -31.7090 C   0  0  0  0  0  0  0  0  0  0  0  0
   -5.0039   19.8056  -30.6938 H   0  0  0  0  0  0  0  0  0  0  0  0
   -5.6186   18.5738  -31.8477 H   0  0  0  0  0  0  0  0  0  0  0  0
   -3.8772   19.0146  -31.8477 H   0  0  0  0  0  0  0  0  0  0  0  0
   -6.1140   19.9140  -33.8260 C   0  0  0  0  0  0  0  0  0  0  0  0
   -6.9455   19.3832  -33.3394 H   0  0  0  0  0  0  0  0  0  0  0  0
   -6.5135   20.7245  -34.4533 H   0  0  0  0  0  0  0  0  0  0  0  0
   -5.5469   19.2105  -34.4533 H   0  0  0  0  0  0  0  0  0  0  0  0
   -3.8320   20.8970  -33.3930 C   0  0  0  0  0  0  0  0  0  0  0  0
   -3.0958   21.1086  -32.6035 H   0  0  0  0  0  0  0  0  0  0  0  0
   -3.4716   20.0661  -34.0173 H   0  0  0  0  0  0  0  0  0  0  0  0
   -3.9678   21.7925  -34.0173 H   0  0  0  0  0  0  0  0  0  0  0  0
   -5.1010   22.8990  -31.7370 C   0  0  0  0  0  0  0  0  0  0  0  0
   -4.0131   22.9158  -31.8988 H   0  0  0  0  0  0  0  0  0  0  0  0
   -2.7320   24.8870  -28.1110 C   0  0  0  0  0  0  0  0  0  0  0  0
   -3.0031   25.9398  -27.9435 H   0  0  0  0  0  0  0  0  0  0  0  0
   -2.2180   24.1250  -27.0600 C   0  0  0  0  0  0  0  0  0  0  0  0
   -2.0695   24.5832  -26.0711 H   0  0  0  0  0  0  0  0  0  0  0  0
   -1.8920   22.7820  -27.2620 C   0  0  0  0  0  0  0  0  0  0  0  0
   -1.3930   22.0530  -26.2310 F   0  0  0  0  0  0  0  0  0  0  0  0
   -0.3000   19.2380  -29.7210 C   0  0  0  0  0  0  0  0  0  0  0  0
   -0.2249   18.7047  -28.7619 H   0  0  0  0  0  0  0  0  0  0  0  0
  1  2  1  0
  2  3  1  0
  3  4  1  0
  4  5  2  0
  5  6  1  0
  6  7  2  0
  7  8  1  0
  7  9  1  0
  9 10  1  0
  9 11  2  0
 11 12  1  0
 11 13  1  0
 13 14  1  0
 14 15  2  0
 14 16  2  0
 14 17  1  0
 17 18  1  0
 17 19  1  0
 13 20  2  0
 20 21  1  0
  4 22  1  0
 22 23  2  0
 23 24  1  0
 24 25  1  0
 25 26  2  0
 26 27  1  0
 26 28  1  0
 28 29  1  0
 29 30  1  0
 30 31  2  0
 30 32  1  0
 32 33  2  0
 33 34  1  0
 33 35  1  0
 35 36  1  0
 35 37  2  0
 37 38  1  0
 37 39  1  0
 39 40  1  0
 40 41  1  0
 41 42  1  0
 41 43  1  0
 41 44  1  0
 40 45  1  0
 45 46  1  0
 45 47  1  0
 45 48  1  0
 40 49  1  0
 49 50  1  0
 49 51  1  0
 49 52  1  0
 39 53  2  0
 53 54  1  0
 28 55  2  0
 55 56  1  0
 55 57  1  0
 57 58  1  0
 57 59  2  0
 59 60  1  0
 23 61  1  0
 61 62  1  0
 61  2  2  0
 20  6  1  0
 59 25  1  0
 53 32  1  0
M  CHG  2   3  -1  29  -1
M  END
>  <UniqueID>  (36) 
35

>  <SMILES>  (36) 
CC(C)(C)c1cccc(C(=O)[N-]c2ccc(F)c(Oc3cc[n-]/c(=N\c4cccc(S(N)(=O)=O)c4)n3)c2)c1

>  <Energy>  (36) 
83.8467560271348

>  <Genealogy>  (36) 
CC(C)(C)c1cccc(C(=O)[N-]c2ccc(F)c(Oc3cc[n-]c(=Nc4cccc(S(N)(=O)=O)c4)n3)c2)c1 (protonated)
CC(C)(C)c1cccc(C(=O)[N-]c2ccc(F)c(Oc3cc[n-]/c(=N\c4cccc(S(N)(=O)=O)c4)n3)c2)c1 (cis-trans isomerization)
CC(C)(C)c1cccc(C(=O)[N-]c2ccc(F)c(Oc3cc[n-]/c(=N\c4cccc(S(N)(=O)=O)c4)n3)c2)c1 (3D coordinates assigned)
CC(C)(C)c1cccc(C(=O)[N-]c2ccc(F)c(Oc3cc[n-]/c(=N\c4cccc(S(N)(=O)=O)c4)n3)c2)c1 (optimized conformer: 83.8467560271348 kcal/mol)

>  <smiles>  (36) 
CC(C)(C)c1cccc(C(=O)Nc2ccc(F)c(Oc3cc[nH]c(=Nc4cccc(S(N)(=O)=O)c4)n3)c2)c1

>  <score_type>  (36) 
oracle

>  <origin>  (36) 
adgpu

>  <m_score__min__energy>  (36) 
-12.16

>  <m_primary>  (36) 
energy

$$$$
36:0
     RDKit          3D

 54 57  0  0  0  0  0  0  0  0999 V2000
   -0.5860   16.6700  -34.1140 C   0  0  0  0  0  0  0  0  0  0  0  0
    0.6320   17.3290  -33.7890 O   0  0  0  0  0  0  0  0  0  0  0  0
    0.9980   17.7350  -32.4960 C   0  0  0  0  0  0  0  0  0  0  0  0
    0.3860   17.2010  -31.3440 C   0  0  0  0  0  0  0  0  0  0  0  0
    0.7900   17.6150  -30.0710 C   0  0  0  0  0  0  0  0  0  0  0  0
    1.8070   18.5590  -29.9320 C   0  0  0  0  0  0  0  0  0  0  0  0
    2.4200   19.0990  -31.0650 C   0  0  0  0  0  0  0  0  0  0  0  0
    2.0180   18.6960  -32.3480 C   0  0  0  0  0  0  0  0  0  0  0  0
    2.6390   19.2760  -33.5040 N   0  0  0  0  0  0  0  0  0  0  0  0
    4.0480   19.0110  -33.7870 C   0  0  0  0  0  0  0  0  0  0  0  0
    1.7430   20.3540  -34.5280 S   0  0  0  0  0  0  0  0  0  0  0  0
    1.6480   19.7920  -35.9200 O   0  0  0  0  0  0  0  0  0  0  0  0
    2.4490   21.6790  -34.5880 O   0  0  0  0  0  0  0  0  0  0  0  0
    0.1160   20.5400  -33.8850 C   0  0  0  0  0  0  0  0  0  0  0  0
   -0.0690   21.1740  -32.6510 C   0  0  0  0  0  0  0  0  0  0  0  0
   -1.3540   21.3320  -32.1260 C   0  0  0  0  0  0  0  0  0  0  0  0
   -2.4770   20.8660  -32.8350 C   0  0  0  0  0  0  0  0  0  0  0  0
   -3.8330   21.0300  -32.2610 C   0  0  0  0  0  0  0  0  0  0  0  0
   -4.0990   20.4920  -31.1500 O   0  0  0  0  0  0  0  0  0  0  0  0
   -4.8460   21.7850  -32.9520 N   0  0  0  0  0  0  0  0  0  0  0  0
   -6.1880   21.9260  -32.4570 C   0  0  0  0  0  0  0  0  0  0  0  0
   -6.6560   23.1930  -32.0670 C   0  0  0  0  0  0  0  0  0  0  0  0
   -7.9680   23.3640  -31.6270 C   0  0  0  0  0  0  0  0  0  0  0  0
   -8.8390   22.2770  -31.5750 C   0  0  0  0  0  0  0  0  0  0  0  0
   -8.4030   21.0020  -31.9670 C   0  0  0  0  0  0  0  0  0  0  0  0
   -9.2830   19.9090  -31.9180 C   0  0  0  0  0  0  0  0  0  0  0  0
   -8.8510   18.6400  -32.3040 C   0  0  0  0  0  0  0  0  0  0  0  0
   -7.5380   18.4490  -32.7370 C   0  0  0  0  0  0  0  0  0  0  0  0
   -6.6480   19.5250  -32.7900 C   0  0  0  0  0  0  0  0  0  0  0  0
   -7.0680   20.8180  -32.4150 C   0  0  0  0  0  0  0  0  0  0  0  0
   -2.2830   20.2210  -34.0710 C   0  0  0  0  0  0  0  0  0  0  0  0
   -0.9950   20.0610  -34.5920 C   0  0  0  0  0  0  0  0  0  0  0  0
   -1.1084   16.3874  -33.1881 H   0  0  0  0  0  0  0  0  0  0  0  0
   -1.2232   17.3464  -34.7026 H   0  0  0  0  0  0  0  0  0  0  0  0
   -0.3684   15.7666  -34.7026 H   0  0  0  0  0  0  0  0  0  0  0  0
   -0.4146   16.4537  -31.4471 H   0  0  0  0  0  0  0  0  0  0  0  0
    0.3047   17.1953  -29.1775 H   0  0  0  0  0  0  0  0  0  0  0  0
    2.1267   18.8786  -28.9292 H   0  0  0  0  0  0  0  0  0  0  0  0
    3.2216   19.8436  -30.9512 H   0  0  0  0  0  0  0  0  0  0  0  0
    4.5989   18.9074  -32.8405 H   0  0  0  0  0  0  0  0  0  0  0  0
    4.1368   18.0804  -34.3667 H   0  0  0  0  0  0  0  0  0  0  0  0
    4.4689   19.8457  -34.3667 H   0  0  0  0  0  0  0  0  0  0  0  0
    0.8010   21.5494  -32.0922 H   0  0  0  0  0  0  0  0  0  0  0  0
   -1.4890   21.8241  -31.1515 H   0  0  0  0  0  0  0  0  0  0  0  0
   -4.6080   22.2650  -33.8480 H   0  0  0  0  0  0  0  0  0  0  0  0
   -5.9795   24.0593  -32.1094 H   0  0  0  0  0  0  0  0  0  0  0  0
   -8.3171   24.3608  -31.3197 H   0  0  0  0  0  0  0  0  0  0  0  0
   -9.8722   22.4191  -31.2253 H   0  0  0  0  0  0  0  0  0  0  0  0
  -10.3176   20.0540  -31.5737 H   0  0  0  0  0  0  0  0  0  0  0  0
   -9.5463   17.7885  -32.2671 H   0  0  0  0  0  0  0  0  0  0  0  0
   -7.2019   17.4459  -33.0382 H   0  0  0  0  0  0  0  0  0  0  0  0
   -5.6134   19.3625  -33.1263 H   0  0  0  0  0  0  0  0  0  0  0  0
   -3.1501   19.8403  -34.6307 H   0  0  0  0  0  0  0  0  0  0  0  0
   -0.8536   19.5576  -35.5598 H   0  0  0  0  0  0  0  0  0  0  0  0
  1  2  1  0
  2  3  1  0
  3  4  2  0
  4  5  1  0
  5  6  2  0
  6  7  1  0
  7  8  2  0
  8  9  1  0
  9 10  1  0
  9 11  1  0
 11 12  2  0
 11 13  2  0
 11 14  1  0
 14 15  2  0
 15 16  1  0
 16 17  2  0
 17 18  1  0
 18 19  2  0
 18 20  1  0
 20 21  1  0
 21 22  2  0
 22 23  1  0
 23 24  2  0
 24 25  1  0
 25 26  2  0
 26 27  1  0
 27 28  2  0
 28 29  1  0
 29 30  2  0
 17 31  1  0
 31 32  2  0
  8  3  1  0
 32 14  1  0
 30 21  1  0
 30 25  1  0
  1 33  1  0
  1 34  1  0
  1 35  1  0
  4 36  1  0
  5 37  1  0
  6 38  1  0
  7 39  1  0
 10 40  1  0
 10 41  1  0
 10 42  1  0
 15 43  1  0
 16 44  1  0
 20 45  1  0
 22 46  1  0
 23 47  1  0
 24 48  1  0
 26 49  1  0
 27 50  1  0
 28 51  1  0
 29 52  1  0
 31 53  1  0
 32 54  1  0
M  END
>  <UniqueID>  (37) 
36

>  <SMILES>  (37) 
COc1ccccc1N(C)S(=O)(=O)c1ccc(C(=O)Nc2cccc3ccccc23)cc1

>  <Energy>  (37) 
75.2109634348624

>  <Genealogy>  (37) 
COc1ccccc1N(C)S(=O)(=O)c1ccc(C(=O)Nc2cccc3ccccc23)cc1 (3D coordinates assigned)
COc1ccccc1N(C)S(=O)(=O)c1ccc(C(=O)Nc2cccc3ccccc23)cc1 (optimized conformer: 75.2109634348624 kcal/mol)

>  <smiles>  (37) 
COc1ccccc1N(C)S(=O)(=O)c1ccc(C(=O)Nc2cccc3ccccc23)cc1

>  <score_type>  (37) 
oracle

>  <origin>  (37) 
adgpu

>  <m_score__min__energy>  (37) 
-9.5899999999999999

>  <m_primary>  (37) 
energy

$$$$
37:0
     RDKit          3D

 54 56  0  0  0  0  0  0  0  0999 V2000
   -7.8270   23.6330  -31.4720 C   0  0  0  0  0  0  0  0  0  0  0  0
   -7.1040   22.5410  -30.7480 C   0  0  0  0  0  0  0  0  0  0  0  0
   -6.5810   22.7970  -29.6300 O   0  0  0  0  0  0  0  0  0  0  0  0
   -6.9290   21.2000  -31.3600 C   0  0  0  0  0  0  0  0  0  0  0  0
   -8.0280   20.3240  -31.3840 C   0  0  0  0  0  0  0  0  0  0  0  0
   -7.9290   19.0690  -31.9840 C   0  0  0  0  0  0  0  0  0  0  0  0
   -6.7300   18.6560  -32.5760 C   0  0  0  0  0  0  0  0  0  0  0  0
   -6.6340   17.3370  -33.2420 C   0  0  0  0  0  0  0  0  0  0  0  0
   -7.6070   16.5390  -33.1700 O   0  0  0  0  0  0  0  0  0  0  0  0
   -5.4460   16.9410  -33.9510 N   0  0  0  0  0  0  0  0  0  0  0  0
   -4.9670   15.5600  -33.8400 C   0  0  0  0  0  0  0  0  0  0  0  0
   -3.8540   15.2740  -34.8610 C   0  0  0  0  0  0  0  0  0  0  0  0
   -2.8010   16.3160  -34.8600 N   0  0  0  0  0  0  0  0  0  0  0  0
   -1.8080   16.0780  -33.8020 C   0  0  0  0  0  0  0  0  0  0  0  0
   -3.3000   17.7180  -34.8340 C   0  0  0  0  0  0  0  0  0  0  0  0
   -4.8260   17.8330  -34.9340 C   0  0  0  0  0  0  0  0  0  0  0  0
   -5.6270   19.5220  -32.5590 C   0  0  0  0  0  0  0  0  0  0  0  0
   -5.7020   20.7800  -31.9390 C   0  0  0  0  0  0  0  0  0  0  0  0
   -4.2300   21.7640  -31.8600 S   0  0  0  0  0  0  0  0  0  0  0  0
   -3.3980   21.5580  -33.0960 O   0  0  0  0  0  0  0  0  0  0  0  0
   -3.4190   21.3460  -30.6650 O   0  0  0  0  0  0  0  0  0  0  0  0
   -4.6710   23.4360  -31.7450 N   0  0  0  0  0  0  0  0  0  0  0  0
   -4.2710   24.2800  -30.6630 C   0  0  0  0  0  0  0  0  0  0  0  0
   -4.1930   25.5280  -30.8280 O   0  0  0  0  0  0  0  0  0  0  0  0
   -3.9980   23.6960  -29.3820 N   0  0  0  0  0  0  0  0  0  0  0  0
   -3.3260   24.3790  -28.3100 C   0  0  0  0  0  0  0  0  0  0  0  0
   -1.9850   24.7890  -28.4280 C   0  0  0  0  0  0  0  0  0  0  0  0
   -1.3430   25.4180  -27.3560 C   0  0  0  0  0  0  0  0  0  0  0  0
   -2.0270   25.6320  -26.1550 C   0  0  0  0  0  0  0  0  0  0  0  0
   -1.2180   26.4150  -24.8110 Cl  0  0  0  0  0  0  0  0  0  0  0  0
   -3.3550   25.2140  -26.0270 C   0  0  0  0  0  0  0  0  0  0  0  0
   -3.9990   24.5830  -27.0950 C   0  0  0  0  0  0  0  0  0  0  0  0
   -8.2811   24.3189  -30.7418 H   0  0  0  0  0  0  0  0  0  0  0  0
   -7.1168   24.1872  -32.1032 H   0  0  0  0  0  0  0  0  0  0  0  0
   -8.6145   23.1956  -32.1032 H   0  0  0  0  0  0  0  0  0  0  0  0
   -8.9783   20.6323  -30.9236 H   0  0  0  0  0  0  0  0  0  0  0  0
   -8.8006   18.3981  -31.9920 H   0  0  0  0  0  0  0  0  0  0  0  0
   -4.5740   15.3970  -32.8256 H   0  0  0  0  0  0  0  0  0  0  0  0
   -5.8089   14.8819  -34.0433 H   0  0  0  0  0  0  0  0  0  0  0  0
   -3.3923   14.3058  -34.6174 H   0  0  0  0  0  0  0  0  0  0  0  0
   -4.3126   15.2636  -35.8608 H   0  0  0  0  0  0  0  0  0  0  0  0
   -2.2861   16.1926  -32.8180 H   0  0  0  0  0  0  0  0  0  0  0  0
   -1.4069   15.0583  -33.8983 H   0  0  0  0  0  0  0  0  0  0  0  0
   -0.9882   16.8051  -33.8983 H   0  0  0  0  0  0  0  0  0  0  0  0
   -2.9781   18.1834  -33.8907 H   0  0  0  0  0  0  0  0  0  0  0  0
   -2.8817   18.2237  -35.7168 H   0  0  0  0  0  0  0  0  0  0  0  0
   -5.1300   18.8706  -34.7314 H   0  0  0  0  0  0  0  0  0  0  0  0
   -5.1507   17.5479  -35.9456 H   0  0  0  0  0  0  0  0  0  0  0  0
   -4.6876   19.2108  -33.0392 H   0  0  0  0  0  0  0  0  0  0  0  0
   -4.3680   22.7370  -29.2030 H   0  0  0  0  0  0  0  0  0  0  0  0
   -1.4394   24.6142  -29.3670 H   0  0  0  0  0  0  0  0  0  0  0  0
   -0.2977   25.7451  -27.4579 H   0  0  0  0  0  0  0  0  0  0  0  0
   -3.8945   25.3822  -25.0832 H   0  0  0  0  0  0  0  0  0  0  0  0
   -5.0395   24.2442  -26.9828 H   0  0  0  0  0  0  0  0  0  0  0  0
  1  2  1  0
  2  3  2  0
  2  4  1  0
  4  5  2  0
  5  6  1  0
  6  7  2  0
  7  8  1  0
  8  9  2  0
  8 10  1  0
 10 11  1  0
 11 12  1  0
 12 13  1  0
 13 14  1  0
 13 15  1  0
 15 16  1  0
  7 17  1  0
 17 18  2  0
 18 19  1  0
 19 20  2  0
 19 21  2  0
 19 22  1  0
 22 23  1  0
 23 24  2  0
 23 25  1  0
 25 26  1  0
 26 27  2  0
 27 28  1  0
 28 29  2  0
 29 30  1  0
 29 31  1  0
 31 32  2  0
 18  4  1  0
 32 26  1  0
 16 10  1  0
  1 33  1  0
  1 34  1  0
  1 35  1  0
  5 36  1  0
  6 37  1  0
 11 38  1  0
 11 39  1  0
 12 40  1  0
 12 41  1  0
 14 42  1  0
 14 43  1  0
 14 44  1  0
 15 45  1  0
 15 46  1  0
 16 47  1  0
 16 48  1  0
 17 49  1  0
 25 50  1  0
 27 51  1  0
 28 52  1  0
 31 53  1  0
 32 54  1  0
M  CHG  1  22  -1
M  END
>  <UniqueID>  (38) 
37

>  <SMILES>  (38) 
CC(=O)c1ccc(C(=O)N2CCN(C)CC2)cc1S(=O)(=O)[N-]C(=O)Nc1ccc(Cl)cc1

>  <Energy>  (38) 
78.45839967428273

>  <Genealogy>  (38) 
CC(=O)c1ccc(C(=O)N2CCN(C)CC2)cc1S(=O)(=O)[N-]C(=O)Nc1ccc(Cl)cc1 (protonated)
CC(=O)c1ccc(C(=O)N2CCN(C)CC2)cc1S(=O)(=O)[N-]C(=O)Nc1ccc(Cl)cc1 (3D coordinates assigned)
CC(=O)c1ccc(C(=O)N2CCN(C)CC2)cc1S(=O)(=O)[N-]C(=O)Nc1ccc(Cl)cc1 (nonaromatic ring conformer: 78.45839967428273 kcal/mol)

>  <smiles>  (38) 
CC(=O)c1ccc(C(=O)N2CCN(C)CC2)cc1S(=O)(=O)NC(=O)Nc1ccc(Cl)cc1

>  <score_type>  (38) 
oracle

>  <origin>  (38) 
adgpu

>  <m_score__min__energy>  (38) 
-12.44

>  <m_primary>  (38) 
energy

$$$$
38:0
     RDKit          3D

 47 49  0  0  0  0  0  0  0  0999 V2000
    4.6120   23.8830  -25.8660 N   0  0  0  0  0  0  0  0  0  0  0  0
    3.7520   24.8890  -26.3990 C   0  0  0  0  0  0  0  0  0  0  0  0
    4.1670   26.0780  -26.4650 O   0  0  0  0  0  0  0  0  0  0  0  0
    2.3900   24.5460  -26.8690 C   0  0  0  0  0  0  0  0  0  0  0  0
    1.4370   25.5540  -27.0970 C   0  0  0  0  0  0  0  0  0  0  0  0
    0.1510   25.2320  -27.5390 C   0  0  0  0  0  0  0  0  0  0  0  0
   -0.2120   23.8910  -27.7510 C   0  0  0  0  0  0  0  0  0  0  0  0
   -1.5190   23.5340  -28.2310 N   0  0  0  0  0  0  0  0  0  0  0  0
   -2.3880   24.4330  -28.9420 C   0  0  0  0  0  0  0  0  0  0  0  0
   -2.1580   25.6740  -28.9410 O   0  0  0  0  0  0  0  0  0  0  0  0
   -3.6200   23.9160  -29.6420 C   0  0  0  0  0  0  0  0  0  0  0  0
   -4.5760   23.2460  -28.6460 C   0  0  0  0  0  0  0  0  0  0  0  0
   -5.8010   22.6770  -29.3840 C   0  0  0  0  0  0  0  0  0  0  0  0
   -6.3900   23.6040  -30.3810 N   0  0  0  0  0  0  0  0  0  0  0  0
   -6.3550   22.9360  -31.9990 S   0  0  0  0  0  0  0  0  0  0  0  0
   -4.9320   22.8000  -32.4670 O   0  0  0  0  0  0  0  0  0  0  0  0
   -7.1030   23.8290  -32.9500 O   0  0  0  0  0  0  0  0  0  0  0  0
   -7.1300   21.3550  -31.9890 C   0  0  0  0  0  0  0  0  0  0  0  0
   -8.5290   21.2660  -31.9490 C   0  0  0  0  0  0  0  0  0  0  0  0
   -9.1550   20.0150  -31.9360 C   0  0  0  0  0  0  0  0  0  0  0  0
   -8.3850   18.8490  -31.9680 C   0  0  0  0  0  0  0  0  0  0  0  0
   -6.9900   18.9310  -32.0130 C   0  0  0  0  0  0  0  0  0  0  0  0
   -6.3630   20.1810  -32.0240 C   0  0  0  0  0  0  0  0  0  0  0  0
   -5.8570   24.9810  -30.3430 C   0  0  0  0  0  0  0  0  0  0  0  0
   -4.3220   25.0360  -30.4480 C   0  0  0  0  0  0  0  0  0  0  0  0
    0.7430   22.8860  -27.5480 C   0  0  0  0  0  0  0  0  0  0  0  0
    2.0290   23.2070  -27.1030 C   0  0  0  0  0  0  0  0  0  0  0  0
    4.7660   23.7970  -24.8370 H   0  0  0  0  0  0  0  0  0  0  0  0
    1.7063   26.6067  -26.9258 H   0  0  0  0  0  0  0  0  0  0  0  0
   -0.5810   26.0324  -27.7220 H   0  0  0  0  0  0  0  0  0  0  0  0
   -1.8890   22.5890  -27.9820 H   0  0  0  0  0  0  0  0  0  0  0  0
   -3.3036   23.1488  -30.3640 H   0  0  0  0  0  0  0  0  0  0  0  0
   -4.0499   22.4284  -28.1315 H   0  0  0  0  0  0  0  0  0  0  0  0
   -4.9141   23.9947  -27.9145 H   0  0  0  0  0  0  0  0  0  0  0  0
   -5.4946   21.7580  -29.9051 H   0  0  0  0  0  0  0  0  0  0  0  0
   -6.5744   22.4953  -28.6232 H   0  0  0  0  0  0  0  0  0  0  0  0
   -9.1362   22.1830  -31.9278 H   0  0  0  0  0  0  0  0  0  0  0  0
  -10.2525   19.9490  -31.9006 H   0  0  0  0  0  0  0  0  0  0  0  0
   -8.8773   17.8653  -31.9578 H   0  0  0  0  0  0  0  0  0  0  0  0
   -6.3856   18.0123  -32.0398 H   0  0  0  0  0  0  0  0  0  0  0  0
   -5.2654   20.2438  -32.0602 H   0  0  0  0  0  0  0  0  0  0  0  0
   -6.2861   25.5461  -31.1835 H   0  0  0  0  0  0  0  0  0  0  0  0
   -6.1357   25.4146  -29.3712 H   0  0  0  0  0  0  0  0  0  0  0  0
   -4.0392   24.9361  -31.5063 H   0  0  0  0  0  0  0  0  0  0  0  0
   -3.9976   25.9983  -30.0253 H   0  0  0  0  0  0  0  0  0  0  0  0
    0.4788   21.8357  -27.7403 H   0  0  0  0  0  0  0  0  0  0  0  0
    2.7640   22.4061  -26.9346 H   0  0  0  0  0  0  0  0  0  0  0  0
  1  2  1  0
  2  3  2  0
  2  4  1  0
  4  5  2  0
  5  6  1  0
  6  7  2  0
  7  8  1  0
  8  9  1  0
  9 10  2  0
  9 11  1  0
 11 12  1  0
 12 13  1  0
 13 14  1  0
 14 15  1  0
 15 16  2  0
 15 17  2  0
 15 18  1  0
 18 19  2  0
 19 20  1  0
 20 21  2  0
 21 22  1  0
 22 23  2  0
 14 24  1  0
 24 25  1  0
  7 26  1  0
 26 27  2  0
 27  4  1  0
 25 11  1  0
 23 18  1  0
  1 28  1  0
  5 29  1  0
  6 30  1  0
  8 31  1  0
 11 32  1  0
 12 33  1  0
 12 34  1  0
 13 35  1  0
 13 36  1  0
 19 37  1  0
 20 38  1  0
 21 39  1  0
 22 40  1  0
 23 41  1  0
 24 42  1  0
 24 43  1  0
 25 44  1  0
 25 45  1  0
 26 46  1  0
 27 47  1  0
M  CHG  1   1  -1
M  END
>  <UniqueID>  (39) 
38

>  <SMILES>  (39) 
[NH-]C(=O)c1ccc(NC(=O)C2CCN(S(=O)(=O)c3ccccc3)CC2)cc1

>  <Energy>  (39) 
59.71333553928243

>  <Genealogy>  (39) 
[NH-]C(=O)c1ccc(NC(=O)C2CCN(S(=O)(=O)c3ccccc3)CC2)cc1 (protonated)
[NH-]C(=O)c1ccc(NC(=O)C2CCN(S(=O)(=O)c3ccccc3)CC2)cc1 (3D coordinates assigned)
[NH-]C(=O)c1ccc(NC(=O)C2CCN(S(=O)(=O)c3ccccc3)CC2)cc1 (nonaromatic ring conformer: 59.71333553928243 kcal/mol)

>  <smiles>  (39) 
NC(=O)c1ccc(NC(=O)C2CCN(S(=O)(=O)c3ccccc3)CC2)cc1

>  <score_type>  (39) 
oracle

>  <origin>  (39) 
adgpu

>  <m_score__min__energy>  (39) 
-9.2599999999999998

>  <m_primary>  (39) 
energy

$$$$
39:0
     RDKit          3D

 54 57  0  0  0  0  0  0  0  0999 V2000
   -4.5460   13.1640  -33.2390 C   0  0  0  0  0  0  0  0  0  0  0  0
   -4.7350   13.9560  -34.5290 C   0  0  0  0  0  0  0  0  0  0  0  0
   -5.1440   15.3730  -34.2300 C   0  0  0  0  0  0  0  0  0  0  0  0
   -6.4640   15.6650  -33.8550 C   0  0  0  0  0  0  0  0  0  0  0  0
   -6.8510   16.9860  -33.6080 C   0  0  0  0  0  0  0  0  0  0  0  0
   -5.9290   18.0370  -33.7520 C   0  0  0  0  0  0  0  0  0  0  0  0
   -6.2960   19.4010  -33.4810 N   0  0  0  0  0  0  0  0  0  0  0  0
   -6.8780   19.8400  -32.2410 C   0  0  0  0  0  0  0  0  0  0  0  0
   -7.4850   19.0110  -31.5080 O   0  0  0  0  0  0  0  0  0  0  0  0
   -6.8170   21.2650  -31.8370 C   0  0  0  0  0  0  0  0  0  0  0  0
   -7.9670   22.0720  -31.9140 C   0  0  0  0  0  0  0  0  0  0  0  0
   -7.9190   23.4120  -31.5220 C   0  0  0  0  0  0  0  0  0  0  0  0
   -6.7300   23.9620  -31.0440 C   0  0  0  0  0  0  0  0  0  0  0  0
   -5.5770   23.1710  -30.9530 C   0  0  0  0  0  0  0  0  0  0  0  0
   -4.0760   23.8370  -30.3140 S   0  0  0  0  0  0  0  0  0  0  0  0
   -3.8690   25.2320  -30.8370 O   0  0  0  0  0  0  0  0  0  0  0  0
   -2.9370   22.9800  -30.7920 O   0  0  0  0  0  0  0  0  0  0  0  0
   -4.1000   23.8330  -28.5630 N   0  0  0  0  0  0  0  0  0  0  0  0
   -2.9810   24.5850  -27.9640 C   0  0  0  0  0  0  0  0  0  0  0  0
   -1.6180   23.9360  -28.2370 C   0  0  0  0  0  0  0  0  0  0  0  0
   -1.6490   22.4420  -28.0520 C   0  0  0  0  0  0  0  0  0  0  0  0
   -0.4370   21.7340  -28.0030 C   0  0  0  0  0  0  0  0  0  0  0  0
   -0.4380   20.3420  -27.8900 C   0  0  0  0  0  0  0  0  0  0  0  0
   -1.6460   19.6450  -27.8320 C   0  0  0  0  0  0  0  0  0  0  0  0
   -2.8570   20.3370  -27.8900 C   0  0  0  0  0  0  0  0  0  0  0  0
   -2.8700   21.7350  -28.0180 C   0  0  0  0  0  0  0  0  0  0  0  0
   -4.1930   22.4660  -28.0210 C   0  0  0  0  0  0  0  0  0  0  0  0
   -5.6250   21.8270  -31.3450 C   0  0  0  0  0  0  0  0  0  0  0  0
   -4.6080   17.7400  -34.1210 C   0  0  0  0  0  0  0  0  0  0  0  0
   -4.2200   16.4200  -34.3690 C   0  0  0  0  0  0  0  0  0  0  0  0
   -4.7041   13.8267  -32.3754 H   0  0  0  0  0  0  0  0  0  0  0  0
   -5.2724   12.3386  -33.2057 H   0  0  0  0  0  0  0  0  0  0  0  0
   -3.5252   12.7556  -33.2057 H   0  0  0  0  0  0  0  0  0  0  0  0
   -3.7884   13.9643  -35.0893 H   0  0  0  0  0  0  0  0  0  0  0  0
   -5.5273   13.4780  -35.1238 H   0  0  0  0  0  0  0  0  0  0  0  0
   -7.1976   14.8515  -33.7548 H   0  0  0  0  0  0  0  0  0  0  0  0
   -7.8839   17.2039  -33.2989 H   0  0  0  0  0  0  0  0  0  0  0  0
   -6.2390   20.0880  -34.2670 H   0  0  0  0  0  0  0  0  0  0  0  0
   -8.9102   21.6449  -32.2854 H   0  0  0  0  0  0  0  0  0  0  0  0
   -8.8225   24.0357  -31.5906 H   0  0  0  0  0  0  0  0  0  0  0  0
   -6.6972   25.0181  -30.7380 H   0  0  0  0  0  0  0  0  0  0  0  0
   -2.9766   25.6022  -28.3827 H   0  0  0  0  0  0  0  0  0  0  0  0
   -3.1324   24.5941  -26.8745 H   0  0  0  0  0  0  0  0  0  0  0  0
   -1.3216   24.1581  -29.2728 H   0  0  0  0  0  0  0  0  0  0  0  0
   -0.8979   24.3495  -27.5155 H   0  0  0  0  0  0  0  0  0  0  0  0
    0.5175   22.2784  -28.0539 H   0  0  0  0  0  0  0  0  0  0  0  0
    0.5148   19.7940  -27.8466 H   0  0  0  0  0  0  0  0  0  0  0  0
   -1.6437   18.5488  -27.7405 H   0  0  0  0  0  0  0  0  0  0  0  0
   -3.8062   19.7839  -27.8351 H   0  0  0  0  0  0  0  0  0  0  0  0
   -4.9065   21.8950  -28.6333 H   0  0  0  0  0  0  0  0  0  0  0  0
   -4.5217   22.5510  -26.9747 H   0  0  0  0  0  0  0  0  0  0  0  0
   -4.7213   21.2047  -31.2673 H   0  0  0  0  0  0  0  0  0  0  0  0
   -3.8721   18.5521  -34.2158 H   0  0  0  0  0  0  0  0  0  0  0  0
   -3.1861   16.2012  -34.6744 H   0  0  0  0  0  0  0  0  0  0  0  0
  1  2  1  0
  2  3  1  0
  3  4  2  0
  4  5  1  0
  5  6  2  0
  6  7  1  0
  7  8  1  0
  8  9  2  0
  8 10  1  0
 10 11  2  0
 11 12  1  0
 12 13  2  0
 13 14  1  0
 14 15  1  0
 15 16  2  0
 15 17  2  0
 15 18  1  0
 18 19  1  0
 19 20  1  0
 20 21  1  0
 21 22  2  0
 22 23  1  0
 23 24  2  0
 24 25  1  0
 25 26  2  0
 26 27  1  0
 14 28  2  0
  6 29  1  0
 29 30  2  0
 30  3  1  0
 28 10  1  0
 27 18  1  0
 26 21  1  0
  1 31  1  0
  1 32  1  0
  1 33  1  0
  2 34  1  0
  2 35  1  0
  4 36  1  0
  5 37  1  0
  7 38  1  0
 11 39  1  0
 12 40  1  0
 13 41  1  0
 19 42  1  0
 19 43  1  0
 20 44  1  0
 20 45  1  0
 22 46  1  0
 23 47  1  0
 24 48  1  0
 25 49  1  0
 27 50  1  0
 27 51  1  0
 28 52  1  0
 29 53  1  0
 30 54  1  0
M  END
>  <UniqueID>  (40) 
39

>  <SMILES>  (40) 
CCc1ccc(NC(=O)c2cccc(S(=O)(=O)N3CCc4ccccc4C3)c2)cc1

>  <Energy>  (40) 
64.20889037151646

>  <Genealogy>  (40) 
CCc1ccc(NC(=O)c2cccc(S(=O)(=O)N3CCc4ccccc4C3)c2)cc1 (3D coordinates assigned)
CCc1ccc(NC(=O)c2cccc(S(=O)(=O)N3CCc4ccccc4C3)c2)cc1 (nonaromatic ring conformer: 64.20889037151646 kcal/mol)

>  <smiles>  (40) 
CCc1ccc(NC(=O)c2cccc(S(=O)(=O)N3CCc4ccccc4C3)c2)cc1

>  <score_type>  (40) 
oracle

>  <origin>  (40) 
adgpu

>  <m_score__min__energy>  (40) 
-10.68

>  <m_primary>  (40) 
energy

$$$$
40:0
     RDKit          3D

 53 55  0  0  0  0  0  0  0  0999 V2000
   -0.5400   26.1870  -24.5430 C   0  0  0  0  0  0  0  0  0  0  0  0
   -0.5390   25.0280  -25.3700 O   0  0  0  0  0  0  0  0  0  0  0  0
   -1.3720   24.8470  -26.4870 C   0  0  0  0  0  0  0  0  0  0  0  0
   -2.7670   24.7070  -26.3610 C   0  0  0  0  0  0  0  0  0  0  0  0
   -3.5630   24.5290  -27.4940 C   0  0  0  0  0  0  0  0  0  0  0  0
   -2.9810   24.4840  -28.7640 C   0  0  0  0  0  0  0  0  0  0  0  0
   -4.0030   24.2760  -30.1850 S   0  0  0  0  0  0  0  0  0  0  0  0
   -4.3070   25.6100  -30.8090 O   0  0  0  0  0  0  0  0  0  0  0  0
   -3.2740   23.4350  -31.1940 O   0  0  0  0  0  0  0  0  0  0  0  0
   -5.4800   23.4740  -29.7350 N   0  0  0  0  0  0  0  0  0  0  0  0
   -6.6350   24.0580  -30.4210 C   0  0  0  0  0  0  0  0  0  0  0  0
   -6.6350   23.6910  -31.9090 C   0  0  0  0  0  0  0  0  0  0  0  0
   -6.9440   22.2290  -32.1200 C   0  0  0  0  0  0  0  0  0  0  0  0
   -8.1770   21.6230  -31.9640 C   0  0  0  0  0  0  0  0  0  0  0  0
   -9.4440   22.2730  -31.5110 C   0  0  0  0  0  0  0  0  0  0  0  0
   -8.0910   20.3230  -32.3060 N   0  0  0  0  0  0  0  0  0  0  0  0
   -6.8020   20.1580  -32.6780 C   0  0  0  0  0  0  0  0  0  0  0  0
   -6.2870   18.8560  -33.1550 C   0  0  0  0  0  0  0  0  0  0  0  0
   -5.7330   18.7580  -34.4420 C   0  0  0  0  0  0  0  0  0  0  0  0
   -5.2200   17.5400  -34.9000 C   0  0  0  0  0  0  0  0  0  0  0  0
   -5.2430   16.4150  -34.0710 C   0  0  0  0  0  0  0  0  0  0  0  0
   -5.7710   16.5090  -32.7810 C   0  0  0  0  0  0  0  0  0  0  0  0
   -6.2850   17.7250  -32.3190 C   0  0  0  0  0  0  0  0  0  0  0  0
   -6.0730   21.2960  -32.5620 N   0  0  0  0  0  0  0  0  0  0  0  0
   -4.6490   21.4820  -32.8500 C   0  0  0  0  0  0  0  0  0  0  0  0
   -1.5940   24.6260  -28.8970 C   0  0  0  0  0  0  0  0  0  0  0  0
   -0.7820   24.8090  -27.7600 C   0  0  0  0  0  0  0  0  0  0  0  0
    0.6100   24.9560  -27.8550 O   0  0  0  0  0  0  0  0  0  0  0  0
    1.5570   24.0600  -27.2810 C   0  0  0  0  0  0  0  0  0  0  0  0
   -0.5397   25.8831  -23.4858 H   0  0  0  0  0  0  0  0  0  0  0  0
    0.3576   26.7874  -24.7521 H   0  0  0  0  0  0  0  0  0  0  0  0
   -1.4387   26.7859  -24.7521 H   0  0  0  0  0  0  0  0  0  0  0  0
   -3.2323   24.7380  -25.3647 H   0  0  0  0  0  0  0  0  0  0  0  0
   -4.6527   24.4237  -27.3868 H   0  0  0  0  0  0  0  0  0  0  0  0
   -7.5578   23.6792  -29.9573 H   0  0  0  0  0  0  0  0  0  0  0  0
   -6.5788   25.1528  -30.3307 H   0  0  0  0  0  0  0  0  0  0  0  0
   -7.3955   24.2949  -32.4257 H   0  0  0  0  0  0  0  0  0  0  0  0
   -5.6321   23.8928  -32.3134 H   0  0  0  0  0  0  0  0  0  0  0  0
   -9.4752   22.2890  -30.4116 H   0  0  0  0  0  0  0  0  0  0  0  0
   -9.4848   23.3034  -31.8940 H   0  0  0  0  0  0  0  0  0  0  0  0
  -10.3047   21.7051  -31.8940 H   0  0  0  0  0  0  0  0  0  0  0  0
   -5.7024   19.6439  -35.0933 H   0  0  0  0  0  0  0  0  0  0  0  0
   -4.7982   17.4675  -35.9133 H   0  0  0  0  0  0  0  0  0  0  0  0
   -4.8455   15.4558  -34.4342 H   0  0  0  0  0  0  0  0  0  0  0  0
   -5.7825   15.6246  -32.1271 H   0  0  0  0  0  0  0  0  0  0  0  0
   -6.6890   17.7970  -31.2984 H   0  0  0  0  0  0  0  0  0  0  0  0
   -4.0903   21.5550  -31.9052 H   0  0  0  0  0  0  0  0  0  0  0  0
   -4.2773   20.6248  -33.4305 H   0  0  0  0  0  0  0  0  0  0  0  0
   -4.5099   22.4059  -33.4305 H   0  0  0  0  0  0  0  0  0  0  0  0
   -1.1352   24.5944  -29.8963 H   0  0  0  0  0  0  0  0  0  0  0  0
    1.4972   24.1166  -26.1841 H   0  0  0  0  0  0  0  0  0  0  0  0
    1.3353   23.0333  -27.6078 H   0  0  0  0  0  0  0  0  0  0  0  0
    2.5698   24.3382  -27.6078 H   0  0  0  0  0  0  0  0  0  0  0  0
  1  2  1  0
  2  3  1  0
  3  4  2  0
  4  5  1  0
  5  6  2  0
  6  7  1  0
  7  8  2  0
  7  9  2  0
  7 10  1  0
 10 11  1  0
 11 12  1  0
 12 13  1  0
 13 14  2  0
 14 15  1  0
 14 16  1  0
 16 17  2  0
 17 18  1  0
 18 19  2  0
 19 20  1  0
 20 21  2  0
 21 22  1  0
 22 23  2  0
 17 24  1  0
 24 25  1  0
  6 26  1  0
 26 27  2  0
 27 28  1  0
 28 29  1  0
 27  3  1  0
 24 13  1  0
 23 18  1  0
  1 30  1  0
  1 31  1  0
  1 32  1  0
  4 33  1  0
  5 34  1  0
 11 35  1  0
 11 36  1  0
 12 37  1  0
 12 38  1  0
 15 39  1  0
 15 40  1  0
 15 41  1  0
 19 42  1  0
 20 43  1  0
 21 44  1  0
 22 45  1  0
 23 46  1  0
 25 47  1  0
 25 48  1  0
 25 49  1  0
 26 50  1  0
 29 51  1  0
 29 52  1  0
 29 53  1  0
M  CHG  1  10  -1
M  END
>  <UniqueID>  (41) 
40

>  <SMILES>  (41) 
COc1ccc(S(=O)(=O)[N-]CCc2c(C)nc(-c3ccccc3)n2C)cc1OC

>  <Energy>  (41) 
83.97054375845306

>  <Genealogy>  (41) 
COc1ccc(S(=O)(=O)[N-]CCc2c(C)nc(-c3ccccc3)n2C)cc1OC (protonated)
COc1ccc(S(=O)(=O)[N-]CCc2c(C)nc(-c3ccccc3)n2C)cc1OC (3D coordinates assigned)
COc1ccc(S(=O)(=O)[N-]CCc2c(C)nc(-c3ccccc3)n2C)cc1OC (optimized conformer: 83.97054375845306 kcal/mol)

>  <smiles>  (41) 
COc1ccc(S(=O)(=O)NCCc2c(C)nc(-c3ccccc3)n2C)cc1OC

>  <score_type>  (41) 
oracle

>  <origin>  (41) 
adgpu

>  <m_score__min__energy>  (41) 
-10.09

>  <m_primary>  (41) 
energy

$$$$
41:0
     RDKit          3D

 42 44  0  0  0  0  0  0  0  0999 V2000
   -3.8780   25.5250  -30.5370 O   0  0  0  0  0  0  0  0  0  0  0  0
   -3.8960   24.2780  -30.3670 C   0  0  0  0  0  0  0  0  0  0  0  0
   -3.9720   23.4200  -31.5110 N   0  0  0  0  0  0  0  0  0  0  0  0
   -4.9340   22.3760  -31.7190 C   0  0  0  0  0  0  0  0  0  0  0  0
   -6.2430   22.6470  -32.1560 C   0  0  0  0  0  0  0  0  0  0  0  0
   -7.1440   21.6010  -32.3720 C   0  0  0  0  0  0  0  0  0  0  0  0
   -6.7480   20.2740  -32.1640 C   0  0  0  0  0  0  0  0  0  0  0  0
   -7.8810   18.9590  -32.4630 S   0  0  0  0  0  0  0  0  0  0  0  0
   -9.1210   19.5140  -33.1070 O   0  0  0  0  0  0  0  0  0  0  0  0
   -8.2660   18.3140  -31.1600 O   0  0  0  0  0  0  0  0  0  0  0  0
   -7.1430   17.7930  -33.5320 N   0  0  0  0  0  0  0  0  0  0  0  0
   -6.1470   18.4220  -34.3990 C   0  0  0  0  0  0  0  0  0  0  0  0
   -5.1390   17.3410  -34.7560 C   0  0  0  0  0  0  0  0  0  0  0  0
   -5.3110   16.2630  -33.6960 C   0  0  0  0  0  0  0  0  0  0  0  0
   -6.4150   16.7700  -32.7810 C   0  0  0  0  0  0  0  0  0  0  0  0
   -5.4340   19.9990  -31.7620 C   0  0  0  0  0  0  0  0  0  0  0  0
   -4.5320   21.0460  -31.5470 C   0  0  0  0  0  0  0  0  0  0  0  0
   -3.7600   23.7300  -29.0510 N   0  0  0  0  0  0  0  0  0  0  0  0
   -2.5060   23.5150  -28.3930 C   0  0  0  0  0  0  0  0  0  0  0  0
   -2.3800   22.4080  -27.5420 C   0  0  0  0  0  0  0  0  0  0  0  0
   -1.1640   22.1350  -26.9120 C   0  0  0  0  0  0  0  0  0  0  0  0
   -0.0670   22.9740  -27.1160 C   0  0  0  0  0  0  0  0  0  0  0  0
   -0.1910   24.1000  -27.9350 C   0  0  0  0  0  0  0  0  0  0  0  0
   -1.4100   24.3940  -28.5570 C   0  0  0  0  0  0  0  0  0  0  0  0
   -1.5100   25.5740  -29.2960 O   0  0  0  0  0  0  0  0  0  0  0  0
   -6.5588   23.6865  -32.3284 H   0  0  0  0  0  0  0  0  0  0  0  0
   -8.1685   21.8208  -32.7068 H   0  0  0  0  0  0  0  0  0  0  0  0
   -6.6269   18.8095  -35.3098 H   0  0  0  0  0  0  0  0  0  0  0  0
   -5.6592   19.2689  -33.8943 H   0  0  0  0  0  0  0  0  0  0  0  0
   -5.3488   16.9343  -35.7563 H   0  0  0  0  0  0  0  0  0  0  0  0
   -4.1110   17.7316  -34.7795 H   0  0  0  0  0  0  0  0  0  0  0  0
   -5.6033   15.3096  -34.1603 H   0  0  0  0  0  0  0  0  0  0  0  0
   -4.3767   16.0768  -33.1461 H   0  0  0  0  0  0  0  0  0  0  0  0
   -7.0909   15.9459  -32.5089 H   0  0  0  0  0  0  0  0  0  0  0  0
   -6.0002   17.1817  -31.8491 H   0  0  0  0  0  0  0  0  0  0  0  0
   -5.1114   18.9577  -31.6153 H   0  0  0  0  0  0  0  0  0  0  0  0
   -3.4994   20.8229  -31.2406 H   0  0  0  0  0  0  0  0  0  0  0  0
   -3.2446   21.7502  -27.3694 H   0  0  0  0  0  0  0  0  0  0  0  0
   -1.0704   21.2581  -26.2545 H   0  0  0  0  0  0  0  0  0  0  0  0
    0.8950   22.7490  -26.6322 H   0  0  0  0  0  0  0  0  0  0  0  0
    0.6753   24.7595  -28.0917 H   0  0  0  0  0  0  0  0  0  0  0  0
   -2.1270   25.6710  -30.0920 H   0  0  0  0  0  0  0  0  0  0  0  0
  1  2  2  0
  2  3  1  0
  3  4  1  0
  4  5  2  0
  5  6  1  0
  6  7  2  0
  7  8  1  0
  8  9  2  0
  8 10  2  0
  8 11  1  0
 11 12  1  0
 12 13  1  0
 13 14  1  0
 14 15  1  0
  7 16  1  0
 16 17  2  0
  2 18  1  0
 18 19  1  0
 19 20  2  0
 20 21  1  0
 21 22  2  0
 22 23  1  0
 23 24  2  0
 24 25  1  0
 17  4  1  0
 24 19  1  0
 15 11  1  0
  5 26  1  0
  6 27  1  0
 12 28  1  0
 12 29  1  0
 13 30  1  0
 13 31  1  0
 14 32  1  0
 14 33  1  0
 15 34  1  0
 15 35  1  0
 16 36  1  0
 17 37  1  0
 20 38  1  0
 21 39  1  0
 22 40  1  0
 23 41  1  0
 25 42  1  0
M  CHG  2   3  -1  18  -1
M  END
>  <UniqueID>  (42) 
41

>  <SMILES>  (42) 
O=C([N-]c1ccc(S(=O)(=O)N2CCCC2)cc1)[N-]c1ccccc1O

>  <Energy>  (42) 
53.89572057869896

>  <Genealogy>  (42) 
O=C([N-]c1ccc(S(=O)(=O)N2CCCC2)cc1)[N-]c1ccccc1O (protonated)
O=C([N-]c1ccc(S(=O)(=O)N2CCCC2)cc1)[N-]c1ccccc1O (3D coordinates assigned)
O=C([N-]c1ccc(S(=O)(=O)N2CCCC2)cc1)[N-]c1ccccc1O (nonaromatic ring conformer: 53.89572057869896 kcal/mol)

>  <smiles>  (42) 
O=C(Nc1ccc(S(=O)(=O)N2CCCC2)cc1)Nc1ccccc1O

>  <score_type>  (42) 
oracle

>  <origin>  (42) 
adgpu

>  <m_score__min__energy>  (42) 
-12.07

>  <m_primary>  (42) 
energy

$$$$
42:0
     RDKit          3D

 60 63  0  0  1  0  0  0  0  0999 V2000
   -6.5290   25.5590  -29.3260 C   0  0  0  0  0  0  0  0  0  0  0  0
   -5.7050   26.0550  -30.4930 C   0  0  0  0  0  0  0  0  0  0  0  0
   -4.6370   25.1110  -30.7250 N   0  0  0  0  0  0  0  0  0  0  0  0
   -4.8780   23.9510  -31.1880 C   0  0  0  0  0  0  0  0  0  0  0  0
   -3.8300   23.1260  -31.3780 N   0  0  0  0  0  0  0  0  0  0  0  0
   -3.9740   21.8930  -31.8580 C   0  0  0  0  0  0  0  0  0  0  0  0
   -5.2170   21.3820  -32.1930 C   0  0  0  0  0  0  0  0  0  0  0  0
   -5.3590   20.0290  -32.7180 C   0  0  0  0  0  0  0  0  0  0  0  0
   -6.6210   19.4820  -32.8180 C   0  0  0  0  0  0  0  0  0  0  0  0
   -6.8580   18.2140  -33.2980 C   0  0  0  0  0  0  0  0  0  0  0  0
   -5.7800   17.4570  -33.6990 C   0  0  0  0  0  0  0  0  0  0  0  0
   -4.4840   17.9790  -33.6120 C   0  0  0  0  0  0  0  0  0  0  0  0
   -3.3620   17.1070  -34.0600 C   0  0  1  0  0  0  0  0  0  0  0  0
   -3.9440   16.0470  -34.9530 C   0  0  0  0  0  0  0  0  0  0  0  0
   -2.4290   17.9920  -34.7590 N   0  0  0  0  0  0  0  0  0  0  0  0
   -1.5500   18.7140  -34.1100 C   0  0  0  0  0  0  0  0  0  0  0  0
   -0.6900   19.5370  -34.8240 C   0  0  0  0  0  0  0  0  0  0  0  0
    0.2300   20.2920  -34.1280 C   0  0  0  0  0  0  0  0  0  0  0  0
    1.1820   21.1890  -34.7750 C   0  0  0  0  0  0  0  0  0  0  0  0
    0.6720   22.2920  -35.4340 C   0  0  0  0  0  0  0  0  0  0  0  0
    1.4990   23.1980  -36.0760 C   0  0  0  0  0  0  0  0  0  0  0  0
    2.8790   22.9840  -36.0510 C   0  0  0  0  0  0  0  0  0  0  0  0
    3.7530   23.9780  -36.7510 C   0  0  0  0  0  0  0  0  0  0  0  0
    3.4080   21.8850  -35.3950 C   0  0  0  0  0  0  0  0  0  0  0  0
    2.5310   21.0180  -34.7740 C   0  0  0  0  0  0  0  0  0  0  0  0
    0.2490   20.1920  -32.7880 N   0  0  0  0  0  0  0  0  0  0  0  0
   -0.5910   19.3890  -32.1080 C   0  0  0  0  0  0  0  0  0  0  0  0
   -0.5450   19.3000  -30.6130 C   0  0  0  0  0  0  0  0  0  0  0  0
   -1.5130   18.6290  -32.7630 N   0  0  0  0  0  0  0  0  0  0  0  0
   -4.2950   19.2540  -33.1230 C   0  0  0  0  0  0  0  0  0  0  0  0
   -6.2940   22.2310  -31.9980 C   0  0  0  0  0  0  0  0  0  0  0  0
   -6.0880   23.4730  -31.5070 N   0  0  0  0  0  0  0  0  0  0  0  0
   -6.0431   25.8515  -28.3835 H   0  0  0  0  0  0  0  0  0  0  0  0
   -7.5348   26.0019  -29.3728 H   0  0  0  0  0  0  0  0  0  0  0  0
   -6.6084   24.4629  -29.3728 H   0  0  0  0  0  0  0  0  0  0  0  0
   -6.3372   26.1298  -31.3901 H   0  0  0  0  0  0  0  0  0  0  0  0
   -5.2912   27.0496  -30.2704 H   0  0  0  0  0  0  0  0  0  0  0  0
   -3.0822   21.2631  -31.9922 H   0  0  0  0  0  0  0  0  0  0  0  0
   -7.4808   20.0891  -32.4983 H   0  0  0  0  0  0  0  0  0  0  0  0
   -7.8816   17.8159  -33.3596 H   0  0  0  0  0  0  0  0  0  0  0  0
   -5.9374   16.4403  -34.0884 H   0  0  0  0  0  0  0  0  0  0  0  0
   -2.8304   16.5944  -33.2448 H   0  0  0  0  0  0  0  0  0  0  0  0
   -4.3825   15.2484  -34.3365 H   0  0  0  0  0  0  0  0  0  0  0  0
   -4.7250   16.4907  -35.5880 H   0  0  0  0  0  0  0  0  0  0  0  0
   -3.1504   15.6262  -35.5880 H   0  0  0  0  0  0  0  0  0  0  0  0
   -0.7414   19.5858  -35.9217 H   0  0  0  0  0  0  0  0  0  0  0  0
   -0.4160   22.4536  -35.4487 H   0  0  0  0  0  0  0  0  0  0  0  0
    1.0769   24.0704  -36.5963 H   0  0  0  0  0  0  0  0  0  0  0  0
    4.2872   24.5855  -36.0056 H   0  0  0  0  0  0  0  0  0  0  0  0
    4.4814   23.4463  -37.3808 H   0  0  0  0  0  0  0  0  0  0  0  0
    3.1325   24.6324  -37.3808 H   0  0  0  0  0  0  0  0  0  0  0  0
    4.4934   21.7083  -35.3695 H   0  0  0  0  0  0  0  0  0  0  0  0
    2.9452   20.1433  -34.2512 H   0  0  0  0  0  0  0  0  0  0  0  0
   -1.0089   20.1975  -30.1778 H   0  0  0  0  0  0  0  0  0  0  0  0
   -1.0941   18.4062  -30.2818 H   0  0  0  0  0  0  0  0  0  0  0  0
    0.5017   19.2310  -30.2818 H   0  0  0  0  0  0  0  0  0  0  0  0
   -2.1660   18.0090  -32.2730 H   0  0  0  0  0  0  0  0  0  0  0  0
   -3.2750   19.6601  -33.0550 H   0  0  0  0  0  0  0  0  0  0  0  0
   -7.3128   21.8956  -32.2418 H   0  0  0  0  0  0  0  0  0  0  0  0
   -6.9210   24.0640  -31.3810 H   0  0  0  0  0  0  0  0  0  0  0  0
  1  2  1  0
  2  3  1  0
  3  4  2  3
  4  5  1  0
  5  6  2  0
  6  7  1  0
  7  8  1  0
  8  9  2  0
  9 10  1  0
 10 11  2  0
 11 12  1  0
 12 13  1  0
 13 14  1  0
 13 15  1  0
 15 16  2  0
 16 17  1  0
 17 18  2  0
 18 19  1  0
 19 20  2  0
 20 21  1  0
 21 22  2  0
 22 23  1  0
 22 24  1  0
 24 25  2  0
 18 26  1  0
 26 27  2  0
 27 28  1  0
 27 29  1  0
 12 30  2  0
  7 31  2  0
 31 32  1  0
 32  4  1  0
 30  8  1  0
 29 16  1  0
 25 19  1  0
  1 33  1  0
  1 34  1  0
  1 35  1  0
  2 36  1  0
  2 37  1  0
  6 38  1  0
  9 39  1  0
 10 40  1  0
 11 41  1  0
 13 42  1  1
 14 43  1  0
 14 44  1  0
 14 45  1  0
 17 46  1  0
 20 47  1  0
 21 48  1  0
 23 49  1  0
 23 50  1  0
 23 51  1  0
 24 52  1  0
 25 53  1  0
 28 54  1  0
 28 55  1  0
 28 56  1  0
 29 57  1  0
 30 58  1  0
 31 59  1  0
 32 60  1  0
M  END
>  <smiles>  (43) 
CCN=c1ncc(-c2cccc(C(C)N=c3cc(-c4ccc(C)cc4)nc(C)[nH]3)c2)c[nH]1

>  <score_type>  (43) 
oracle

>  <origin>  (43) 
adgpu

>  <m_score__min__energy>  (43) 
-10.09

>  <m_primary>  (43) 
energy

$$$$
43:0
     RDKit          3D

 48 50  0  0  0  0  0  0  0  0999 V2000
   -6.2290   26.0010  -29.4310 C   0  0  0  0  0  0  0  0  0  0  0  0
   -6.7610   24.6810  -29.3930 O   0  0  0  0  0  0  0  0  0  0  0  0
   -6.7690   23.7960  -30.4820 C   0  0  0  0  0  0  0  0  0  0  0  0
   -7.9190   23.0660  -30.8420 C   0  0  0  0  0  0  0  0  0  0  0  0
   -7.8890   22.1960  -31.9350 C   0  0  0  0  0  0  0  0  0  0  0  0
   -6.7200   22.0460  -32.6790 C   0  0  0  0  0  0  0  0  0  0  0  0
   -5.5730   22.7580  -32.3290 C   0  0  0  0  0  0  0  0  0  0  0  0
   -5.5890   23.6360  -31.2280 C   0  0  0  0  0  0  0  0  0  0  0  0
   -4.4230   24.3870  -30.8470 N   0  0  0  0  0  0  0  0  0  0  0  0
   -3.1620   23.8080  -29.8080 S   0  0  0  0  0  0  0  0  0  0  0  0
   -2.3280   24.9720  -29.3420 O   0  0  0  0  0  0  0  0  0  0  0  0
   -3.7710   23.1370  -28.6120 O   0  0  0  0  0  0  0  0  0  0  0  0
   -2.1820   22.6360  -30.6830 C   0  0  0  0  0  0  0  0  0  0  0  0
   -1.0100   22.1440  -30.0960 C   0  0  0  0  0  0  0  0  0  0  0  0
   -0.2620   21.1590  -30.7440 C   0  0  0  0  0  0  0  0  0  0  0  0
   -0.6890   20.6470  -31.9720 C   0  0  0  0  0  0  0  0  0  0  0  0
   -1.8690   21.1280  -32.5680 C   0  0  0  0  0  0  0  0  0  0  0  0
   -2.3600   20.5740  -33.8000 N   0  0  0  0  0  0  0  0  0  0  0  0
   -2.7550   19.1730  -33.9360 C   0  0  0  0  0  0  0  0  0  0  0  0
   -4.1580   18.9770  -33.4210 C   0  0  0  0  0  0  0  0  0  0  0  0
   -5.1630   18.5210  -34.2890 C   0  0  0  0  0  0  0  0  0  0  0  0
   -6.4790   18.3940  -33.8370 C   0  0  0  0  0  0  0  0  0  0  0  0
   -6.8130   18.7400  -32.5190 C   0  0  0  0  0  0  0  0  0  0  0  0
   -8.2270   18.5890  -32.0420 C   0  0  0  0  0  0  0  0  0  0  0  0
   -5.8050   19.1840  -31.6490 C   0  0  0  0  0  0  0  0  0  0  0  0
   -4.4870   19.3020  -32.0960 C   0  0  0  0  0  0  0  0  0  0  0  0
   -2.5980   22.1400  -31.9280 C   0  0  0  0  0  0  0  0  0  0  0  0
   -6.0816   26.3666  -28.4041 H   0  0  0  0  0  0  0  0  0  0  0  0
   -5.2641   25.9924  -29.9591 H   0  0  0  0  0  0  0  0  0  0  0  0
   -6.9302   26.6639  -29.9591 H   0  0  0  0  0  0  0  0  0  0  0  0
   -8.8451   23.1815  -30.2597 H   0  0  0  0  0  0  0  0  0  0  0  0
   -8.7903   21.6280  -32.2090 H   0  0  0  0  0  0  0  0  0  0  0  0
   -6.7020   21.3654  -33.5430 H   0  0  0  0  0  0  0  0  0  0  0  0
   -4.6511   22.6331  -32.9159 H   0  0  0  0  0  0  0  0  0  0  0  0
   -0.6779   22.5341  -29.1226 H   0  0  0  0  0  0  0  0  0  0  0  0
    0.6659   20.7851  -30.2866 H   0  0  0  0  0  0  0  0  0  0  0  0
   -0.1005   19.8652  -32.4744 H   0  0  0  0  0  0  0  0  0  0  0  0
   -2.6440   21.2290  -34.5630 H   0  0  0  0  0  0  0  0  0  0  0  0
   -2.7134   18.8848  -34.9968 H   0  0  0  0  0  0  0  0  0  0  0  0
   -2.0661   18.5467  -33.3502 H   0  0  0  0  0  0  0  0  0  0  0  0
   -4.9134   18.2628  -35.3287 H   0  0  0  0  0  0  0  0  0  0  0  0
   -7.2576   18.0206  -34.5184 H   0  0  0  0  0  0  0  0  0  0  0  0
   -8.2447   18.5871  -30.9421 H   0  0  0  0  0  0  0  0  0  0  0  0
   -8.8320   19.4276  -32.4170 H   0  0  0  0  0  0  0  0  0  0  0  0
   -8.6413   17.6415  -32.4170 H   0  0  0  0  0  0  0  0  0  0  0  0
   -6.0545   19.4406  -30.6089 H   0  0  0  0  0  0  0  0  0  0  0  0
   -3.7039   19.6510  -31.4068 H   0  0  0  0  0  0  0  0  0  0  0  0
   -3.5016   22.5478  -32.4047 H   0  0  0  0  0  0  0  0  0  0  0  0
  1  2  1  0
  2  3  1  0
  3  4  2  0
  4  5  1  0
  5  6  2  0
  6  7  1  0
  7  8  2  0
  8  9  1  0
  9 10  1  0
 10 11  2  0
 10 12  2  0
 10 13  1  0
 13 14  2  0
 14 15  1  0
 15 16  2  0
 16 17  1  0
 17 18  1  0
 18 19  1  0
 19 20  1  0
 20 21  2  0
 21 22  1  0
 22 23  2  0
 23 24  1  0
 23 25  1  0
 25 26  2  0
 17 27  2  0
  8  3  1  0
 27 13  1  0
 26 20  1  0
  1 28  1  0
  1 29  1  0
  1 30  1  0
  4 31  1  0
  5 32  1  0
  6 33  1  0
  7 34  1  0
 14 35  1  0
 15 36  1  0
 16 37  1  0
 18 38  1  0
 19 39  1  0
 19 40  1  0
 21 41  1  0
 22 42  1  0
 24 43  1  0
 24 44  1  0
 24 45  1  0
 25 46  1  0
 26 47  1  0
 27 48  1  0
M  CHG  1   9  -1
M  END
>  <UniqueID>  (44) 
42

>  <SMILES>  (44) 
COc1ccccc1[N-]S(=O)(=O)c1cccc(NCc2ccc(C)cc2)c1

>  <Energy>  (44) 
50.025584867638834

>  <Genealogy>  (44) 
COc1ccccc1[N-]S(=O)(=O)c1cccc(NCc2ccc(C)cc2)c1 (protonated)
COc1ccccc1[N-]S(=O)(=O)c1cccc(NCc2ccc(C)cc2)c1 (3D coordinates assigned)
COc1ccccc1[N-]S(=O)(=O)c1cccc(NCc2ccc(C)cc2)c1 (optimized conformer: 50.025584867638834 kcal/mol)

>  <smiles>  (44) 
COc1ccccc1NS(=O)(=O)c1cccc(NCc2ccc(C)cc2)c1

>  <score_type>  (44) 
oracle

>  <origin>  (44) 
adgpu

>  <m_score__min__energy>  (44) 
-11.01

>  <m_primary>  (44) 
energy

$$$$
44:0
     RDKit          3D

 57 60  0  0  0  0  0  0  0  0999 V2000
   -1.1260   21.2230  -26.3730 N   0  0  0  0  0  0  0  0  0  0  0  0
   -1.8100   21.9310  -27.4170 C   0  0  0  0  0  0  0  0  0  0  0  0
   -1.2190   23.0440  -28.0240 C   0  0  0  0  0  0  0  0  0  0  0  0
   -1.8850   23.7430  -29.0330 C   0  0  0  0  0  0  0  0  0  0  0  0
   -3.1750   23.3570  -29.4260 C   0  0  0  0  0  0  0  0  0  0  0  0
   -3.8890   24.1050  -30.4780 C   0  0  0  0  0  0  0  0  0  0  0  0
   -3.8580   25.3610  -30.4720 O   0  0  0  0  0  0  0  0  0  0  0  0
   -4.6640   23.4010  -31.4630 N   0  0  0  0  0  0  0  0  0  0  0  0
   -4.2650   22.1950  -32.1360 C   0  0  0  0  0  0  0  0  0  0  0  0
   -2.9290   21.9810  -32.5300 C   0  0  0  0  0  0  0  0  0  0  0  0
   -2.5720   20.8190  -33.2270 C   0  0  0  0  0  0  0  0  0  0  0  0
   -0.9100   20.5840  -33.7760 S   0  0  0  0  0  0  0  0  0  0  0  0
   -0.4100   21.8670  -34.3730 O   0  0  0  0  0  0  0  0  0  0  0  0
   -0.8800   19.5240  -34.8410 O   0  0  0  0  0  0  0  0  0  0  0  0
    0.1160   20.1070  -32.4420 N   0  0  0  0  0  0  0  0  0  0  0  0
   -0.0960   18.6730  -32.1440 C   0  0  0  0  0  0  0  0  0  0  0  0
    0.2980   18.3280  -30.6960 C   0  0  0  0  0  0  0  0  0  0  0  0
   -0.3430   19.1060  -29.6900 O   0  0  0  0  0  0  0  0  0  0  0  0
   -0.9650   20.2720  -30.1930 C   0  0  0  0  0  0  0  0  0  0  0  0
   -0.1100   20.9740  -31.2590 C   0  0  0  0  0  0  0  0  0  0  0  0
   -3.5480   19.8510  -33.5010 C   0  0  0  0  0  0  0  0  0  0  0  0
   -4.8650   20.0380  -33.0750 C   0  0  0  0  0  0  0  0  0  0  0  0
   -5.2280   21.2050  -32.3920 C   0  0  0  0  0  0  0  0  0  0  0  0
   -6.5920   21.3860  -31.9860 N   0  0  0  0  0  0  0  0  0  0  0  0
   -7.3570   20.1940  -31.5960 C   0  0  0  0  0  0  0  0  0  0  0  0
   -8.8050   20.5440  -31.2660 C   0  0  0  0  0  0  0  0  0  0  0  0
   -9.3040   21.4700  -32.2100 O   0  0  0  0  0  0  0  0  0  0  0  0
   -8.7220   22.7300  -31.9630 C   0  0  0  0  0  0  0  0  0  0  0  0
   -7.1970   22.7110  -32.1900 C   0  0  0  0  0  0  0  0  0  0  0  0
   -3.7740   22.2400  -28.8130 C   0  0  0  0  0  0  0  0  0  0  0  0
   -3.0880   21.5210  -27.8340 C   0  0  0  0  0  0  0  0  0  0  0  0
   -0.8190   21.7180  -25.5060 H   0  0  0  0  0  0  0  0  0  0  0  0
   -0.9150   20.2040  -26.4710 H   0  0  0  0  0  0  0  0  0  0  0  0
   -0.2193   23.3721  -27.7033 H   0  0  0  0  0  0  0  0  0  0  0  0
   -1.3964   24.5991  -29.5212 H   0  0  0  0  0  0  0  0  0  0  0  0
   -2.1614   22.7311  -32.2888 H   0  0  0  0  0  0  0  0  0  0  0  0
    1.1070   20.2350  -32.7610 H   0  0  0  0  0  0  0  0  0  0  0  0
   -1.1590   18.4316  -32.2914 H   0  0  0  0  0  0  0  0  0  0  0  0
    0.5395   18.0843  -32.8219 H   0  0  0  0  0  0  0  0  0  0  0  0
    0.0494   17.2713  -30.5185 H   0  0  0  0  0  0  0  0  0  0  0  0
    1.3726   18.5474  -30.6122 H   0  0  0  0  0  0  0  0  0  0  0  0
   -1.9303   19.9931  -30.6408 H   0  0  0  0  0  0  0  0  0  0  0  0
   -1.0988   20.9711  -29.3543 H   0  0  0  0  0  0  0  0  0  0  0  0
   -0.6255   21.8904  -31.5823 H   0  0  0  0  0  0  0  0  0  0  0  0
    0.8684   21.2073  -30.8138 H   0  0  0  0  0  0  0  0  0  0  0  0
   -3.2755   18.9400  -34.0540 H   0  0  0  0  0  0  0  0  0  0  0  0
   -5.6207   19.2646  -33.2771 H   0  0  0  0  0  0  0  0  0  0  0  0
   -7.3436   19.4728  -32.4265 H   0  0  0  0  0  0  0  0  0  0  0  0
   -6.8918   19.7634  -30.6970 H   0  0  0  0  0  0  0  0  0  0  0  0
   -9.4164   19.6300  -31.2936 H   0  0  0  0  0  0  0  0  0  0  0  0
   -8.8493   20.9914  -30.2621 H   0  0  0  0  0  0  0  0  0  0  0  0
   -9.1736   23.4697  -32.6404 H   0  0  0  0  0  0  0  0  0  0  0  0
   -8.9077   22.9920  -30.9109 H   0  0  0  0  0  0  0  0  0  0  0  0
   -6.9943   23.0315  -33.2225 H   0  0  0  0  0  0  0  0  0  0  0  0
   -6.7501   23.3894  -31.4484 H   0  0  0  0  0  0  0  0  0  0  0  0
   -4.7883   21.9326  -29.1076 H   0  0  0  0  0  0  0  0  0  0  0  0
   -3.5496   20.6286  -27.3861 H   0  0  0  0  0  0  0  0  0  0  0  0
  1  2  1  0
  2  3  2  0
  3  4  1  0
  4  5  2  0
  5  6  1  0
  6  7  2  0
  6  8  1  0
  8  9  1  0
  9 10  2  0
 10 11  1  0
 11 12  1  0
 12 13  2  0
 12 14  2  0
 12 15  1  0
 15 16  1  0
 16 17  1  0
 17 18  1  0
 18 19  1  0
 19 20  1  0
 11 21  2  0
 21 22  1  0
 22 23  2  0
 23 24  1  0
 24 25  1  0
 25 26  1  0
 26 27  1  0
 27 28  1  0
 28 29  1  0
  5 30  1  0
 30 31  2  0
 31  2  1  0
 23  9  1  0
 29 24  1  0
 20 15  1  0
  1 32  1  0
  1 33  1  0
  3 34  1  0
  4 35  1  0
 10 36  1  0
 15 37  1  0
 16 38  1  0
 16 39  1  0
 17 40  1  0
 17 41  1  0
 19 42  1  0
 19 43  1  0
 20 44  1  0
 20 45  1  0
 21 46  1  0
 22 47  1  0
 25 48  1  0
 25 49  1  0
 26 50  1  0
 26 51  1  0
 28 52  1  0
 28 53  1  0
 29 54  1  0
 29 55  1  0
 30 56  1  0
 31 57  1  0
M  CHG  2   8  -1  15   1
M  END
>  <UniqueID>  (45) 
43

>  <SMILES>  (45) 
Nc1ccc(C(=O)[N-]c2cc(S(=O)(=O)[NH+]3CCOCC3)ccc2N2CCOCC2)cc1

>  <Energy>  (45) 
85.15892212676286

>  <Genealogy>  (45) 
Nc1ccc(C(=O)[N-]c2cc(S(=O)(=O)[NH+]3CCOCC3)ccc2N2CCOCC2)cc1 (protonated)
Nc1ccc(C(=O)[N-]c2cc(S(=O)(=O)[NH+]3CCOCC3)ccc2N2CCOCC2)cc1 (3D coordinates assigned)
Nc1ccc(C(=O)[N-]c2cc(S(=O)(=O)[NH+]3CCOCC3)ccc2N2CCOCC2)cc1 (nonaromatic ring conformer: 85.15892212676286 kcal/mol)

>  <smiles>  (45) 
Nc1ccc(C(=O)Nc2cc(S(=O)(=O)N3CCOCC3)ccc2N2CCOCC2)cc1

>  <score_type>  (45) 
oracle

>  <origin>  (45) 
adgpu

>  <m_score__min__energy>  (45) 
-9.7599999999999998

>  <m_primary>  (45) 
energy

$$$$
45:0
     RDKit          3D

 45 47  0  0  0  0  0  0  0  0999 V2000
    1.5160   21.7170  -34.7410 C   0  0  0  0  0  0  0  0  0  0  0  0
    0.2850   20.9190  -34.4340 C   0  0  0  0  0  0  0  0  0  0  0  0
   -0.8230   21.5320  -33.8290 C   0  0  0  0  0  0  0  0  0  0  0  0
   -1.9900   20.8010  -33.5870 C   0  0  0  0  0  0  0  0  0  0  0  0
   -2.0710   19.4500  -33.9590 C   0  0  0  0  0  0  0  0  0  0  0  0
   -3.3160   18.6900  -33.7340 C   0  0  0  0  0  0  0  0  0  0  0  0
   -4.5430   19.1580  -34.0480 N   0  0  0  0  0  0  0  0  0  0  0  0
   -5.3710   18.1790  -33.6350 C   0  0  0  0  0  0  0  0  0  0  0  0
   -6.8590   18.3400  -33.5700 C   0  0  0  0  0  0  0  0  0  0  0  0
   -7.3490   18.8800  -31.9360 S   0  0  0  0  0  0  0  0  0  0  0  0
   -8.8490   18.8870  -31.8360 O   0  0  0  0  0  0  0  0  0  0  0  0
   -6.8060   17.9250  -30.9080 O   0  0  0  0  0  0  0  0  0  0  0  0
   -6.7300   20.5020  -31.6250 C   0  0  0  0  0  0  0  0  0  0  0  0
   -5.3470   20.7270  -31.5860 C   0  0  0  0  0  0  0  0  0  0  0  0
   -4.8480   21.9760  -31.2010 C   0  0  0  0  0  0  0  0  0  0  0  0
   -5.7290   23.0090  -30.8530 C   0  0  0  0  0  0  0  0  0  0  0  0
   -5.1130   24.5680  -30.3150 S   0  0  0  0  0  0  0  0  0  0  0  0
   -5.0980   24.6150  -28.5870 N   0  0  0  0  0  0  0  0  0  0  0  0
   -5.9920   25.6660  -30.8460 O   0  0  0  0  0  0  0  0  0  0  0  0
   -3.7150   24.7750  -30.8300 O   0  0  0  0  0  0  0  0  0  0  0  0
   -7.1110   22.7850  -30.8950 C   0  0  0  0  0  0  0  0  0  0  0  0
   -7.6100   21.5370  -31.2800 C   0  0  0  0  0  0  0  0  0  0  0  0
   -4.6190   17.1640  -33.0790 C   0  0  0  0  0  0  0  0  0  0  0  0
   -5.1160   15.9140  -32.4320 C   0  0  0  0  0  0  0  0  0  0  0  0
   -3.3570   17.5050  -33.1610 O   0  0  0  0  0  0  0  0  0  0  0  0
   -0.9680   18.8430  -34.5830 C   0  0  0  0  0  0  0  0  0  0  0  0
    0.2010   19.5740  -34.8200 C   0  0  0  0  0  0  0  0  0  0  0  0
    1.9954   22.0278  -33.8010 H   0  0  0  0  0  0  0  0  0  0  0  0
    2.2166   21.1008  -35.3237 H   0  0  0  0  0  0  0  0  0  0  0  0
    1.2395   22.6081  -35.3237 H   0  0  0  0  0  0  0  0  0  0  0  0
   -0.7731   22.5932  -33.5437 H   0  0  0  0  0  0  0  0  0  0  0  0
   -2.8494   21.2873  -33.1024 H   0  0  0  0  0  0  0  0  0  0  0  0
   -7.1765   19.0885  -34.3109 H   0  0  0  0  0  0  0  0  0  0  0  0
   -7.3354   17.3726  -33.7871 H   0  0  0  0  0  0  0  0  0  0  0  0
   -4.6520   19.9192  -31.8589 H   0  0  0  0  0  0  0  0  0  0  0  0
   -3.7619   22.1477  -31.1713 H   0  0  0  0  0  0  0  0  0  0  0  0
   -6.0630   24.3750  -28.2650 H   0  0  0  0  0  0  0  0  0  0  0  0
   -4.9230   25.6050  -28.3080 H   0  0  0  0  0  0  0  0  0  0  0  0
   -7.8059   23.5935  -30.6242 H   0  0  0  0  0  0  0  0  0  0  0  0
   -8.6963   21.3669  -31.3122 H   0  0  0  0  0  0  0  0  0  0  0  0
   -5.0720   16.0247  -31.3385 H   0  0  0  0  0  0  0  0  0  0  0  0
   -6.1557   15.7299  -32.7404 H   0  0  0  0  0  0  0  0  0  0  0  0
   -4.4865   15.0663  -32.7404 H   0  0  0  0  0  0  0  0  0  0  0  0
   -1.0240   17.7873  -34.8868 H   0  0  0  0  0  0  0  0  0  0  0  0
    1.0584   19.0911  -35.3116 H   0  0  0  0  0  0  0  0  0  0  0  0
  1  2  1  0
  2  3  2  0
  3  4  1  0
  4  5  2  0
  5  6  1  0
  6  7  2  0
  7  8  1  0
  8  9  1  0
  9 10  1  0
 10 11  2  0
 10 12  2  0
 10 13  1  0
 13 14  2  0
 14 15  1  0
 15 16  2  0
 16 17  1  0
 17 18  1  0
 17 19  2  0
 17 20  2  0
 16 21  1  0
 21 22  2  0
  8 23  2  0
 23 24  1  0
 23 25  1  0
  5 26  1  0
 26 27  2  0
 27  2  1  0
 25  6  1  0
 22 13  1  0
  1 28  1  0
  1 29  1  0
  1 30  1  0
  3 31  1  0
  4 32  1  0
  9 33  1  0
  9 34  1  0
 14 35  1  0
 15 36  1  0
 18 37  1  0
 18 38  1  0
 21 39  1  0
 22 40  1  0
 24 41  1  0
 24 42  1  0
 24 43  1  0
 26 44  1  0
 27 45  1  0
M  END
>  <UniqueID>  (46) 
44

>  <SMILES>  (46) 
Cc1ccc(-c2nc(CS(=O)(=O)c3ccc(S(N)(=O)=O)cc3)c(C)o2)cc1

>  <Energy>  (46) 
66.03815137887388

>  <Genealogy>  (46) 
Cc1ccc(-c2nc(CS(=O)(=O)c3ccc(S(N)(=O)=O)cc3)c(C)o2)cc1 (3D coordinates assigned)
Cc1ccc(-c2nc(CS(=O)(=O)c3ccc(S(N)(=O)=O)cc3)c(C)o2)cc1 (optimized conformer: 66.03815137887388 kcal/mol)

>  <smiles>  (46) 
Cc1ccc(-c2nc(CS(=O)(=O)c3ccc(S(N)(=O)=O)cc3)c(C)o2)cc1

>  <score_type>  (46) 
oracle

>  <origin>  (46) 
adgpu

>  <m_score__min__energy>  (46) 
-10.01

>  <m_primary>  (46) 
energy

$$$$
46:0
     RDKit          3D

 59 62  0  0  0  0  0  0  0  0999 V2000
    0.3580   18.8480  -30.9180 C   0  0  0  0  0  0  0  0  0  0  0  0
   -0.6520   19.1200  -29.9520 O   0  0  0  0  0  0  0  0  0  0  0  0
   -1.0790   20.4060  -29.5920 C   0  0  0  0  0  0  0  0  0  0  0  0
   -1.7770   20.6680  -28.3950 C   0  0  0  0  0  0  0  0  0  0  0  0
   -2.2050   21.9660  -28.0970 C   0  0  0  0  0  0  0  0  0  0  0  0
   -1.9420   23.0160  -28.9870 C   0  0  0  0  0  0  0  0  0  0  0  0
   -2.6120   24.6260  -28.7120 S   0  0  0  0  0  0  0  0  0  0  0  0
   -1.4830   25.5990  -28.5160 O   0  0  0  0  0  0  0  0  0  0  0  0
   -3.4990   24.6400  -27.5000 O   0  0  0  0  0  0  0  0  0  0  0  0
   -3.5380   25.0850  -30.1060 N   0  0  0  0  0  0  0  0  0  0  0  0
   -4.6430   24.3070  -30.5800 C   0  0  0  0  0  0  0  0  0  0  0  0
   -5.7110   24.9040  -31.2710 C   0  0  0  0  0  0  0  0  0  0  0  0
   -6.8660   24.1700  -31.5480 C   0  0  0  0  0  0  0  0  0  0  0  0
   -6.9600   22.8310  -31.1530 C   0  0  0  0  0  0  0  0  0  0  0  0
   -8.5030   22.0020  -31.2810 S   0  0  0  0  0  0  0  0  0  0  0  0
   -9.1630   21.9240  -29.9320 O   0  0  0  0  0  0  0  0  0  0  0  0
   -9.4220   22.7390  -32.2170 O   0  0  0  0  0  0  0  0  0  0  0  0
   -8.1720   20.3880  -31.8970 C   0  0  0  0  0  0  0  0  0  0  0  0
   -9.0400   19.3290  -31.5970 C   0  0  0  0  0  0  0  0  0  0  0  0
   -8.7290   18.0320  -32.0050 C   0  0  0  0  0  0  0  0  0  0  0  0
   -7.5560   17.7810  -32.7200 C   0  0  0  0  0  0  0  0  0  0  0  0
   -6.6840   18.8350  -33.0450 C   0  0  0  0  0  0  0  0  0  0  0  0
   -5.4360   18.5900  -33.8080 C   0  0  0  0  0  0  0  0  0  0  0  0
   -5.4830   18.5560  -35.0660 O   0  0  0  0  0  0  0  0  0  0  0  0
   -4.1650   18.4240  -33.1660 N   0  0  0  0  0  0  0  0  0  0  0  0
   -2.9570   19.1320  -33.4850 C   0  0  0  0  0  0  0  0  0  0  0  0
   -1.8250   18.3780  -33.8220 C   0  0  0  0  0  0  0  0  0  0  0  0
   -0.6320   19.0090  -34.1790 C   0  0  0  0  0  0  0  0  0  0  0  0
   -0.5550   20.4020  -34.1880 C   0  0  0  0  0  0  0  0  0  0  0  0
   -1.6630   21.1670  -33.8160 C   0  0  0  0  0  0  0  0  0  0  0  0
   -2.8650   20.5460  -33.4330 C   0  0  0  0  0  0  0  0  0  0  0  0
   -4.0080   21.4110  -32.9770 C   0  0  0  0  0  0  0  0  0  0  0  0
   -6.9910   20.1350  -32.6080 C   0  0  0  0  0  0  0  0  0  0  0  0
   -5.8670   22.2140  -30.5270 C   0  0  0  0  0  0  0  0  0  0  0  0
   -4.7070   22.9460  -30.2560 C   0  0  0  0  0  0  0  0  0  0  0  0
   -1.2280   22.7600  -30.1660 C   0  0  0  0  0  0  0  0  0  0  0  0
   -0.8020   21.4640  -30.4650 C   0  0  0  0  0  0  0  0  0  0  0  0
    1.2975   18.5950  -30.4049 H   0  0  0  0  0  0  0  0  0  0  0  0
    0.0448   18.0022  -31.5477 H   0  0  0  0  0  0  0  0  0  0  0  0
    0.5119   19.7367  -31.5477 H   0  0  0  0  0  0  0  0  0  0  0  0
   -1.9859   19.8478  -27.6924 H   0  0  0  0  0  0  0  0  0  0  0  0
   -2.7494   22.1630  -27.1617 H   0  0  0  0  0  0  0  0  0  0  0  0
   -5.6369   25.9527  -31.5947 H   0  0  0  0  0  0  0  0  0  0  0  0
   -7.7043   24.6457  -32.0782 H   0  0  0  0  0  0  0  0  0  0  0  0
   -9.9681   19.5212  -31.0388 H   0  0  0  0  0  0  0  0  0  0  0  0
   -9.4106   17.2033  -31.7626 H   0  0  0  0  0  0  0  0  0  0  0  0
   -7.3131   16.7540  -33.0304 H   0  0  0  0  0  0  0  0  0  0  0  0
   -1.8768   17.2794  -33.8051 H   0  0  0  0  0  0  0  0  0  0  0  0
    0.2474   18.4078  -34.4532 H   0  0  0  0  0  0  0  0  0  0  0  0
    0.3794   20.8985  -34.4884 H   0  0  0  0  0  0  0  0  0  0  0  0
   -1.5946   22.2648  -33.8227 H   0  0  0  0  0  0  0  0  0  0  0  0
   -4.0359   21.4321  -31.8776 H   0  0  0  0  0  0  0  0  0  0  0  0
   -3.8700   22.4329  -33.3600 H   0  0  0  0  0  0  0  0  0  0  0  0
   -4.9540   21.0005  -33.3600 H   0  0  0  0  0  0  0  0  0  0  0  0
   -6.2983   20.9612  -32.8259 H   0  0  0  0  0  0  0  0  0  0  0  0
   -5.9226   21.1513  -30.2485 H   0  0  0  0  0  0  0  0  0  0  0  0
   -3.8430   22.4520  -29.7874 H   0  0  0  0  0  0  0  0  0  0  0  0
   -1.0022   23.5839  -30.8590 H   0  0  0  0  0  0  0  0  0  0  0  0
   -0.2444   21.2734  -31.3939 H   0  0  0  0  0  0  0  0  0  0  0  0
  1  2  1  0
  2  3  1  0
  3  4  2  0
  4  5  1  0
  5  6  2  0
  6  7  1  0
  7  8  2  0
  7  9  2  0
  7 10  1  0
 10 11  1  0
 11 12  2  0
 12 13  1  0
 13 14  2  0
 14 15  1  0
 15 16  2  0
 15 17  2  0
 15 18  1  0
 18 19  2  0
 19 20  1  0
 20 21  2  0
 21 22  1  0
 22 23  1  0
 23 24  2  0
 23 25  1  0
 25 26  1  0
 26 27  2  0
 27 28  1  0
 28 29  2  0
 29 30  1  0
 30 31  2  0
 31 32  1  0
 22 33  2  0
 14 34  1  0
 34 35  2  0
  6 36  1  0
 36 37  2  0
 37  3  1  0
 35 11  1  0
 33 18  1  0
 31 26  1  0
  1 38  1  0
  1 39  1  0
  1 40  1  0
  4 41  1  0
  5 42  1  0
 12 43  1  0
 13 44  1  0
 19 45  1  0
 20 46  1  0
 21 47  1  0
 27 48  1  0
 28 49  1  0
 29 50  1  0
 30 51  1  0
 32 52  1  0
 32 53  1  0
 32 54  1  0
 33 55  1  0
 34 56  1  0
 35 57  1  0
 36 58  1  0
 37 59  1  0
M  CHG  2  10  -1  25  -1
M  END
>  <UniqueID>  (47) 
45

>  <SMILES>  (47) 
COc1ccc(S(=O)(=O)[N-]c2ccc(S(=O)(=O)c3cccc(C(=O)[N-]c4ccccc4C)c3)cc2)cc1

>  <Energy>  (47) 
77.83933880480359

>  <Genealogy>  (47) 
COc1ccc(S(=O)(=O)[N-]c2ccc(S(=O)(=O)c3cccc(C(=O)[N-]c4ccccc4C)c3)cc2)cc1 (protonated)
COc1ccc(S(=O)(=O)[N-]c2ccc(S(=O)(=O)c3cccc(C(=O)[N-]c4ccccc4C)c3)cc2)cc1 (3D coordinates assigned)
COc1ccc(S(=O)(=O)[N-]c2ccc(S(=O)(=O)c3cccc(C(=O)[N-]c4ccccc4C)c3)cc2)cc1 (optimized conformer: 77.83933880480359 kcal/mol)

>  <smiles>  (47) 
COc1ccc(S(=O)(=O)Nc2ccc(S(=O)(=O)c3cccc(C(=O)Nc4ccccc4C)c3)cc2)cc1

>  <score_type>  (47) 
oracle

>  <origin>  (47) 
adgpu

>  <m_score__min__energy>  (47) 
-12.52

>  <m_primary>  (47) 
energy

$$$$
47:0
     RDKit          3D

 36 38  0  0  0  0  0  0  0  0999 V2000
   -4.4440   25.6750  -30.3100 O   0  0  0  0  0  0  0  0  0  0  0  0
   -4.0010   24.4990  -30.3980 C   0  0  0  0  0  0  0  0  0  0  0  0
   -4.2680   23.7490  -31.5910 N   0  0  0  0  0  0  0  0  0  0  0  0
   -5.2260   22.6900  -31.7220 C   0  0  0  0  0  0  0  0  0  0  0  0
   -4.8360   21.3390  -31.7210 C   0  0  0  0  0  0  0  0  0  0  0  0
   -5.7970   20.3290  -31.8140 C   0  0  0  0  0  0  0  0  0  0  0  0
   -7.1540   20.6570  -31.9220 C   0  0  0  0  0  0  0  0  0  0  0  0
   -8.3590   19.3740  -31.9590 S   0  0  0  0  0  0  0  0  0  0  0  0
   -9.3260   19.6410  -33.0760 O   0  0  0  0  0  0  0  0  0  0  0  0
   -9.1120   19.3140  -30.6590 O   0  0  0  0  0  0  0  0  0  0  0  0
   -7.5770   17.8490  -32.2290 N   0  0  0  0  0  0  0  0  0  0  0  0
   -6.7290   17.6500  -33.1890 C   0  0  0  0  0  0  0  0  0  0  0  0
   -6.3550   18.5980  -34.0770 N   0  0  0  0  0  0  0  0  0  0  0  0
   -5.4680   18.1080  -34.9810 C   0  0  0  0  0  0  0  0  0  0  0  0
   -5.1340   16.7670  -34.8140 C   0  0  0  0  0  0  0  0  0  0  0  0
   -5.9820   16.1770  -33.4840 S   0  0  0  0  0  0  0  0  0  0  0  0
   -7.5410   22.0020  -31.9710 C   0  0  0  0  0  0  0  0  0  0  0  0
   -6.5780   23.0130  -31.8790 C   0  0  0  0  0  0  0  0  0  0  0  0
   -3.2450   23.9240  -29.2590 C   0  0  0  0  0  0  0  0  0  0  0  0
   -3.6820   22.7200  -28.6820 C   0  0  0  0  0  0  0  0  0  0  0  0
   -3.0100   22.1750  -27.5860 C   0  0  0  0  0  0  0  0  0  0  0  0
   -1.8890   22.8200  -27.0610 C   0  0  0  0  0  0  0  0  0  0  0  0
   -1.4230   24.0050  -27.6380 C   0  0  0  0  0  0  0  0  0  0  0  0
   -0.2910   24.6180  -27.1010 O   0  0  0  0  0  0  0  0  0  0  0  0
   -2.0920   24.5550  -28.7450 C   0  0  0  0  0  0  0  0  0  0  0  0
   -1.5970   25.7120  -29.3410 O   0  0  0  0  0  0  0  0  0  0  0  0
   -3.7704   21.0763  -31.6467 H   0  0  0  0  0  0  0  0  0  0  0  0
   -5.4868   19.2737  -31.8023 H   0  0  0  0  0  0  0  0  0  0  0  0
   -5.0443   18.7257  -35.7865 H   0  0  0  0  0  0  0  0  0  0  0  0
   -4.4371   16.1924  -35.4418 H   0  0  0  0  0  0  0  0  0  0  0  0
   -8.6035   22.2641  -32.0820 H   0  0  0  0  0  0  0  0  0  0  0  0
   -6.8859   24.0678  -31.9304 H   0  0  0  0  0  0  0  0  0  0  0  0
   -4.5599   22.2028  -29.0966 H   0  0  0  0  0  0  0  0  0  0  0  0
   -3.3645   21.2361  -27.1357 H   0  0  0  0  0  0  0  0  0  0  0  0
   -1.3701   22.3941  -26.1896 H   0  0  0  0  0  0  0  0  0  0  0  0
    0.0720   25.4910  -27.4650 H   0  0  0  0  0  0  0  0  0  0  0  0
  1  2  2  0
  2  3  1  0
  3  4  1  0
  4  5  2  0
  5  6  1  0
  6  7  2  0
  7  8  1  0
  8  9  2  0
  8 10  2  0
  8 11  1  0
 11 12  2  3
 12 13  1  0
 13 14  1  0
 14 15  2  0
 15 16  1  0
  7 17  1  0
 17 18  2  0
  2 19  1  0
 19 20  2  0
 20 21  1  0
 21 22  2  0
 22 23  1  0
 23 24  1  0
 23 25  2  0
 25 26  1  0
 18  4  1  0
 25 19  1  0
 16 12  1  0
  5 27  1  0
  6 28  1  0
 14 29  1  0
 15 30  1  0
 17 31  1  0
 18 32  1  0
 20 33  1  0
 21 34  1  0
 22 35  1  0
 24 36  1  0
M  CHG  3   3  -1  13  -1  26  -1
M  END
>  <UniqueID>  (48) 
46

>  <SMILES>  (48) 
O=C([N-]c1ccc(S(=O)(=O)N=c2[n-]ccs2)cc1)c1cccc(O)c1[O-]

>  <Energy>  (48) 
79.13133147068498

>  <Genealogy>  (48) 
O=C([N-]c1ccc(S(=O)(=O)N=c2[n-]ccs2)cc1)c1cccc(O)c1[O-] (protonated)
O=C([N-]c1ccc(S(=O)(=O)N=c2[n-]ccs2)cc1)c1cccc(O)c1[O-] (3D coordinates assigned)
O=C([N-]c1ccc(S(=O)(=O)N=c2[n-]ccs2)cc1)c1cccc(O)c1[O-] (optimized conformer: 79.13133147068498 kcal/mol)

>  <smiles>  (48) 
O=C(Nc1ccc(S(=O)(=O)N=c2[nH]ccs2)cc1)c1cccc(O)c1O

>  <score_type>  (48) 
oracle

>  <origin>  (48) 
adgpu

>  <m_score__min__energy>  (48) 
-12.69

>  <m_primary>  (48) 
energy

$$$$
48:0
     RDKit          3D

 39 41  0  0  0  0  0  0  0  0999 V2000
    0.4795   25.5438  -27.3942 H   0  0  0  0  0  0  0  0  0  0  0  0
   -0.2850   24.8960  -27.8480 C   0  0  0  0  0  0  0  0  0  0  0  0
   -0.2940   23.5260  -27.5680 C   0  0  0  0  0  0  0  0  0  0  0  0
    0.4697   23.0990  -26.9013 H   0  0  0  0  0  0  0  0  0  0  0  0
   -1.2740   22.6910  -28.1340 C   0  0  0  0  0  0  0  0  0  0  0  0
   -1.2800   21.2350  -27.8560 C   0  0  0  0  0  0  0  0  0  0  0  0
   -1.1260   20.8350  -26.6710 O   0  0  0  0  0  0  0  0  0  0  0  0
   -1.5120   20.2580  -28.8840 N   0  0  0  0  0  0  0  0  0  0  0  0
   -0.8580   20.1710  -30.0030 C   0  0  0  0  0  0  0  0  0  0  0  0
    0.2020   20.9430  -30.3290 N   0  0  0  0  0  0  0  0  0  0  0  0
    0.7240   20.6330  -31.5150 N   0  0  0  0  0  0  0  0  0  0  0  0
    0.0790   19.6170  -32.1320 C   0  0  0  0  0  0  0  0  0  0  0  0
    0.5270   19.0220  -33.4270 C   0  0  0  0  0  0  0  0  0  0  0  0
    0.6631   17.9377  -33.3012 H   0  0  0  0  0  0  0  0  0  0  0  0
    1.4779   19.4869  -33.7264 H   0  0  0  0  0  0  0  0  0  0  0  0
   -0.6920   19.3200  -34.6940 S   0  0  0  0  0  0  0  0  0  0  0  0
   -0.1490   20.3100  -35.6860 O   0  0  0  0  0  0  0  0  0  0  0  0
   -0.9940   18.0360  -35.4150 O   0  0  0  0  0  0  0  0  0  0  0  0
   -2.1650   19.9580  -33.9690 C   0  0  0  0  0  0  0  0  0  0  0  0
   -3.3110   19.1560  -33.8880 C   0  0  0  0  0  0  0  0  0  0  0  0
   -3.2800   18.1176  -34.2497 H   0  0  0  0  0  0  0  0  0  0  0  0
   -4.4940   19.6710  -33.3490 C   0  0  0  0  0  0  0  0  0  0  0  0
   -5.3855   19.0312  -33.2728 H   0  0  0  0  0  0  0  0  0  0  0  0
   -4.5480   21.0010  -32.9050 C   0  0  0  0  0  0  0  0  0  0  0  0
   -5.8060   21.5440  -32.2950 C   0  0  0  0  0  0  0  0  0  0  0  0
   -5.7263   21.5096  -31.1984 H   0  0  0  0  0  0  0  0  0  0  0  0
   -5.9512   22.5849  -32.6196 H   0  0  0  0  0  0  0  0  0  0  0  0
   -6.6631   20.9357  -32.6196 H   0  0  0  0  0  0  0  0  0  0  0  0
   -3.3950   21.7990  -32.9770 C   0  0  0  0  0  0  0  0  0  0  0  0
   -3.4222   22.8353  -32.6092 H   0  0  0  0  0  0  0  0  0  0  0  0
   -2.2130   21.2820  -33.5140 C   0  0  0  0  0  0  0  0  0  0  0  0
   -1.3171   21.9169  -33.5796 H   0  0  0  0  0  0  0  0  0  0  0  0
   -1.1910   19.0280  -31.1890 S   0  0  0  0  0  0  0  0  0  0  0  0
   -2.2240   23.2480  -29.0060 C   0  0  0  0  0  0  0  0  0  0  0  0
   -2.9812   22.6015  -29.4736 H   0  0  0  0  0  0  0  0  0  0  0  0
   -2.2140   24.6190  -29.2840 C   0  0  0  0  0  0  0  0  0  0  0  0
   -3.1680   25.1590  -30.1400 O   0  0  0  0  0  0  0  0  0  0  0  0
   -1.2450   25.4440  -28.7030 C   0  0  0  0  0  0  0  0  0  0  0  0
   -1.2300   26.8070  -28.9760 O   0  0  0  0  0  0  0  0  0  0  0  0
  1  2  1  0
  2  3  2  0
  3  4  1  0
  3  5  1  0
  5  6  1  0
  6  7  2  0
  6  8  1  0
  8  9  2  0
  9 10  1  0
 10 11  1  0
 11 12  2  0
 12 13  1  0
 13 14  1  0
 13 15  1  0
 13 16  1  0
 16 17  2  0
 16 18  2  0
 16 19  1  0
 19 20  2  0
 20 21  1  0
 20 22  1  0
 22 23  1  0
 22 24  2  0
 24 25  1  0
 25 26  1  0
 25 27  1  0
 25 28  1  0
 24 29  1  0
 29 30  1  0
 29 31  2  0
 31 32  1  0
 12 33  1  0
  5 34  2  0
 34 35  1  0
 34 36  1  0
 36 37  1  0
 36 38  2  0
 38 39  1  0
 38  2  1  0
 33  9  1  0
 31 19  1  0
M  CHG  3  10  -1  37  -1  39  -1
M  END
>  <UniqueID>  (49) 
47

>  <SMILES>  (49) 
Cc1ccc(S(=O)(=O)Cc2n[n-]/c(=N\C(=O)c3ccc([O-])c([O-])c3)s2)cc1

>  <Energy>  (49) 
77.64543776314608

>  <Genealogy>  (49) 
Cc1ccc(S(=O)(=O)Cc2n[n-]c(=NC(=O)c3ccc([O-])c([O-])c3)s2)cc1 (protonated)
Cc1ccc(S(=O)(=O)Cc2n[n-]/c(=N\C(=O)c3ccc([O-])c([O-])c3)s2)cc1 (cis-trans isomerization)
Cc1ccc(S(=O)(=O)Cc2n[n-]/c(=N\C(=O)c3ccc([O-])c([O-])c3)s2)cc1 (3D coordinates assigned)
Cc1ccc(S(=O)(=O)Cc2n[n-]/c(=N\C(=O)c3ccc([O-])c([O-])c3)s2)cc1 (optimized conformer: 77.64543776314608 kcal/mol)

>  <smiles>  (49) 
Cc1ccc(S(=O)(=O)Cc2n[nH]c(=NC(=O)c3ccc(O)c(O)c3)s2)cc1

>  <score_type>  (49) 
oracle

>  <origin>  (49) 
adgpu

>  <m_score__min__energy>  (49) 
-13.789999999999999

>  <m_primary>  (49) 
energy

$$$$
49:0
     RDKit          3D

 25 26  0  0  0  0  0  0  0  0999 V2000
   -3.8360   21.9350  -27.7030 O   0  0  0  0  0  0  0  0  0  0  0  0
   -3.3490   22.9890  -28.1930 C   0  0  0  0  0  0  0  0  0  0  0  0
   -2.1170   23.4010  -27.7950 N   0  0  0  0  0  0  0  0  0  0  0  0
   -1.5580   24.5300  -28.2990 C   0  0  0  0  0  0  0  0  0  0  0  0
   -0.0790   25.0020  -27.7980 S   0  0  0  0  0  0  0  0  0  0  0  0
   -2.2230   25.2600  -29.2310 N   0  0  0  0  0  0  0  0  0  0  0  0
   -3.4570   24.8910  -29.6650 C   0  0  0  0  0  0  0  0  0  0  0  0
   -4.0910   25.6440  -30.6490 O   0  0  0  0  0  0  0  0  0  0  0  0
   -4.0720   23.7440  -29.1310 C   0  0  0  0  0  0  0  0  0  0  0  0
   -5.4110   23.2960  -29.5780 C   0  0  0  0  0  0  0  0  0  0  0  0
   -5.6360   22.3550  -30.5090 C   0  0  0  0  0  0  0  0  0  0  0  0
   -4.5950   21.7050  -31.3370 C   0  0  0  0  0  0  0  0  0  0  0  0
   -3.7250   20.7350  -30.8050 C   0  0  0  0  0  0  0  0  0  0  0  0
   -2.7390   20.1540  -31.6110 C   0  0  0  0  0  0  0  0  0  0  0  0
   -2.6020   20.5490  -32.9440 C   0  0  0  0  0  0  0  0  0  0  0  0
   -1.6460   19.9860  -33.7230 F   0  0  0  0  0  0  0  0  0  0  0  0
   -3.4420   21.5330  -33.4710 C   0  0  0  0  0  0  0  0  0  0  0  0
   -4.4290   22.1150  -32.6690 C   0  0  0  0  0  0  0  0  0  0  0  0
   -3.7350   25.6660  -31.5980 H   0  0  0  0  0  0  0  0  0  0  0  0
   -6.2875   23.7700  -29.1120 H   0  0  0  0  0  0  0  0  0  0  0  0
   -6.6782   22.0417  -30.6695 H   0  0  0  0  0  0  0  0  0  0  0  0
   -3.8202   20.4323  -29.7518 H   0  0  0  0  0  0  0  0  0  0  0  0
   -2.0713   19.3855  -31.1943 H   0  0  0  0  0  0  0  0  0  0  0  0
   -3.3270   21.8504  -34.5179 H   0  0  0  0  0  0  0  0  0  0  0  0
   -5.0792   22.8989  -33.0847 H   0  0  0  0  0  0  0  0  0  0  0  0
  1  2  2  0
  2  3  1  0
  3  4  1  0
  4  5  2  0
  4  6  1  0
  6  7  1  0
  7  8  1  0
  7  9  2  0
  9 10  1  0
 10 11  2  3
 11 12  1  0
 12 13  2  0
 13 14  1  0
 14 15  2  0
 15 16  1  0
 15 17  1  0
 17 18  2  0
  9  2  1  0
 18 12  1  0
  8 19  1  0
 10 20  1  0
 11 21  1  0
 13 22  1  0
 14 23  1  0
 17 24  1  0
 18 25  1  0
M  CHG  2   3  -1   6  -1
M  END
>  <UniqueID>  (50) 
48

>  <SMILES>  (50) 
O=c1[n-]c(=S)[n-]c(O)c1C=Cc1ccc(F)cc1

>  <Energy>  (50) 
37.665416294647386

>  <Genealogy>  (50) 
O=c1[n-]c(=S)[n-]c(O)c1C=Cc1ccc(F)cc1 (protonated)
O=c1[n-]c(=S)[n-]c(O)c1C=Cc1ccc(F)cc1 (3D coordinates assigned)
O=c1[n-]c(=S)[n-]c(O)c1C=Cc1ccc(F)cc1 (optimized conformer: 37.665416294647386 kcal/mol)

>  <smiles>  (50) 
O=c1[nH]c(=S)[nH]c(O)c1C=Cc1ccc(F)cc1

>  <score_type>  (50) 
oracle

>  <origin>  (50) 
adgpu

>  <m_score__min__energy>  (50) 
-8.7899999999999991

>  <m_primary>  (50) 
energy

$$$$
