0:0
     RDKit          3D

 40 42  0  0  1  0  0  0  0  0999 V2000
  -10.0420   21.9190  -30.4790 N   0  0  0  0  0  0  0  0  0  0  0  0
   -9.3380   21.1970  -31.0830 C   0  0  0  0  0  0  0  0  0  0  0  0
   -8.4700   20.3260  -31.8220 C   0  0  0  0  0  0  0  0  0  0  0  0
   -7.5500   20.8230  -32.7540 C   0  0  0  0  0  0  0  0  0  0  0  0
   -6.7130   19.9850  -33.4660 C   0  0  0  0  0  0  0  0  0  0  0  0
   -6.7990   18.6260  -33.2400 C   0  0  0  0  0  0  0  0  0  0  0  0
   -5.9840   17.6730  -33.9180 N   0  0  0  0  0  0  0  0  0  0  0  0
   -4.7190   17.7430  -33.9860 C   0  0  0  0  0  0  0  0  0  0  0  0
   -4.0530   16.7410  -34.6820 C   0  0  0  0  0  0  0  0  0  0  0  0
   -2.6670   16.7720  -34.7850 C   0  0  0  0  0  0  0  0  0  0  0  0
   -2.0460   17.8140  -34.1770 N   0  0  0  0  0  0  0  0  0  0  0  0
   -2.7250   18.7640  -33.5120 C   0  0  0  0  0  0  0  0  0  0  0  0
   -2.0320   19.7060  -32.9750 N   0  0  0  0  0  0  0  0  0  0  0  0
   -2.6800   20.7490  -32.2540 C   0  0  0  0  0  0  0  0  0  0  0  0
   -2.5120   20.9710  -30.9140 C   0  0  0  0  0  0  0  0  0  0  0  0
   -3.2120   22.0290  -30.3480 C   0  0  0  0  0  0  0  0  0  0  0  0
   -4.0510   22.8400  -31.0870 C   0  0  0  0  0  0  0  0  0  0  0  0
   -4.9370   24.1780  -30.3760 S   0  0  0  0  0  0  0  0  0  0  0  0
   -4.8060   24.1740  -28.6560 N   0  0  0  0  0  0  0  0  0  0  0  0
   -6.4090   24.0890  -30.7370 O   0  0  0  0  0  0  0  0  0  0  0  0
   -4.4390   25.5050  -30.8610 O   0  0  0  0  0  0  0  0  0  0  0  0
   -4.2210   22.6180  -32.4340 C   0  0  0  0  0  0  0  0  0  0  0  0
   -3.5290   21.5670  -33.0070 C   0  0  0  0  0  0  0  0  0  0  0  0
   -4.0720   18.7600  -33.3950 N   0  0  0  0  0  0  0  0  0  0  0  0
   -7.7120   18.1130  -32.3120 C   0  0  0  0  0  0  0  0  0  0  0  0
   -8.5540   18.9670  -31.5980 C   0  0  0  0  0  0  0  0  0  0  0  0
   -7.4923   21.9083  -32.9235 H   0  0  0  0  0  0  0  0  0  0  0  0
   -5.9960   20.3909  -34.1948 H   0  0  0  0  0  0  0  0  0  0  0  0
   -4.6219   15.9245  -35.1507 H   0  0  0  0  0  0  0  0  0  0  0  0
   -2.1063   15.9968  -35.3279 H   0  0  0  0  0  0  0  0  0  0  0  0
   -1.0050   17.8270  -34.2610 H   0  0  0  0  0  0  0  0  0  0  0  0
   -1.8483   20.3362  -30.3086 H   0  0  0  0  0  0  0  0  0  0  0  0
   -3.0939   22.2281  -29.2726 H   0  0  0  0  0  0  0  0  0  0  0  0
   -4.3030   25.0280  -28.3270 H   0  0  0  0  0  0  0  0  0  0  0  0
   -5.7670   24.1030  -28.2480 H   0  0  0  0  0  0  0  0  0  0  0  0
   -4.8856   23.2557  -33.0354 H   0  0  0  0  0  0  0  0  0  0  0  0
   -3.6491   21.3690  -34.0824 H   0  0  0  0  0  0  0  0  0  0  0  0
   -4.6030   19.4960  -32.8810 H   0  0  0  0  0  0  0  0  0  0  0  0
   -7.7666   17.0273  -32.1437 H   0  0  0  0  0  0  0  0  0  0  0  0
   -9.2723   18.5636  -30.8691 H   0  0  0  0  0  0  0  0  0  0  0  0
  1  2  3  0
  2  3  1  0
  3  4  2  0
  4  5  1  0
  5  6  2  0
  6  7  1  0
  7  8  2  0
  8  9  1  0
  9 10  2  0
 10 11  1  0
 11 12  1  0
 12 13  2  0
 13 14  1  0
 14 15  2  0
 15 16  1  0
 16 17  2  0
 17 18  1  0
 18 19  1  0
 18 20  2  0
 18 21  2  0
 17 22  1  0
 22 23  2  0
 12 24  1  0
  6 25  1  0
 25 26  2  0
 26  3  1  0
 24  8  1  0
 23 14  1  0
  4 27  1  0
  5 28  1  0
  9 29  1  0
 10 30  1  0
 11 31  1  0
 15 32  1  0
 16 33  1  0
 19 34  1  0
 19 35  1  0
 22 36  1  0
 23 37  1  0
 24 38  1  0
 25 39  1  0
 26 40  1  0
M  END
>  <smiles>  (1) 
N#Cc1ccc(N=c2cc[nH]c(=Nc3ccc(S(N)(=O)=O)cc3)[nH]2)cc1

>  <score_type>  (1) 
oracle

>  <origin>  (1) 
adgpu

>  <m_score__min__energy>  (1) 
-9.5299999999999994

>  <m_primary>  (1) 
energy

$$$$
1:0
     RDKit          3D

 48 50  0  0  0  0  0  0  0  0999 V2000
    1.0670   17.1260  -28.9470 C   0  0  0  0  0  0  0  0  0  0  0  0
    0.5410   18.4890  -28.6320 C   0  0  0  0  0  0  0  0  0  0  0  0
    0.8440   19.0300  -27.5350 O   0  0  0  0  0  0  0  0  0  0  0  0
   -0.3600   19.1320  -29.5460 N   0  0  0  0  0  0  0  0  0  0  0  0
   -0.8160   20.4890  -29.4150 C   0  0  0  0  0  0  0  0  0  0  0  0
   -1.2100   20.9620  -28.1540 C   0  0  0  0  0  0  0  0  0  0  0  0
   -1.6820   22.2680  -28.0000 C   0  0  0  0  0  0  0  0  0  0  0  0
   -1.7810   23.1140  -29.1110 C   0  0  0  0  0  0  0  0  0  0  0  0
   -2.3890   24.7560  -28.9290 S   0  0  0  0  0  0  0  0  0  0  0  0
   -1.2280   25.7080  -28.9900 O   0  0  0  0  0  0  0  0  0  0  0  0
   -3.0920   24.9230  -27.6080 O   0  0  0  0  0  0  0  0  0  0  0  0
   -3.4920   25.1290  -30.2150 N   0  0  0  0  0  0  0  0  0  0  0  0
   -4.6730   24.3750  -30.5320 C   0  0  0  0  0  0  0  0  0  0  0  0
   -4.6980   23.4170  -31.5580 C   0  0  0  0  0  0  0  0  0  0  0  0
   -5.8780   22.7260  -31.8470 C   0  0  0  0  0  0  0  0  0  0  0  0
   -7.0440   22.9760  -31.1120 C   0  0  0  0  0  0  0  0  0  0  0  0
   -8.5400   22.1160  -31.4850 S   0  0  0  0  0  0  0  0  0  0  0  0
   -9.4010   22.9910  -32.3510 O   0  0  0  0  0  0  0  0  0  0  0  0
   -9.2870   21.8510  -30.2070 O   0  0  0  0  0  0  0  0  0  0  0  0
   -8.2640   20.5970  -32.3020 N   0  0  0  0  0  0  0  0  0  0  0  0
   -7.0340   19.9540  -31.8550 C   0  0  0  0  0  0  0  0  0  0  0  0
   -7.2070   18.4680  -32.1350 C   0  0  0  0  0  0  0  0  0  0  0  0
   -8.7080   18.2540  -32.2660 C   0  0  0  0  0  0  0  0  0  0  0  0
   -9.3280   19.6280  -32.0520 C   0  0  0  0  0  0  0  0  0  0  0  0
   -7.0190   23.9310  -30.0880 C   0  0  0  0  0  0  0  0  0  0  0  0
   -5.8390   24.6200  -29.7970 C   0  0  0  0  0  0  0  0  0  0  0  0
   -1.4040   22.6440  -30.3760 C   0  0  0  0  0  0  0  0  0  0  0  0
   -0.9330   21.3370  -30.5300 C   0  0  0  0  0  0  0  0  0  0  0  0
    1.2747   16.5877  -28.0105 H   0  0  0  0  0  0  0  0  0  0  0  0
    0.3188   16.5702  -29.5312 H   0  0  0  0  0  0  0  0  0  0  0  0
    1.9946   17.2169  -29.5312 H   0  0  0  0  0  0  0  0  0  0  0  0
   -0.7810   18.5440  -30.3000 H   0  0  0  0  0  0  0  0  0  0  0  0
   -1.1467   20.2986  -27.2789 H   0  0  0  0  0  0  0  0  0  0  0  0
   -1.9762   22.6319  -27.0045 H   0  0  0  0  0  0  0  0  0  0  0  0
   -3.7857   23.2095  -32.1365 H   0  0  0  0  0  0  0  0  0  0  0  0
   -5.8912   21.9813  -32.6565 H   0  0  0  0  0  0  0  0  0  0  0  0
   -6.1723   20.3495  -32.4127 H   0  0  0  0  0  0  0  0  0  0  0  0
   -6.8479   20.1422  -30.7873 H   0  0  0  0  0  0  0  0  0  0  0  0
   -6.6956   18.1901  -33.0684 H   0  0  0  0  0  0  0  0  0  0  0  0
   -6.7733   17.8479  -31.3366 H   0  0  0  0  0  0  0  0  0  0  0  0
   -8.9569   17.8702  -33.2664 H   0  0  0  0  0  0  0  0  0  0  0  0
   -9.0827   17.5167  -31.5408 H   0  0  0  0  0  0  0  0  0  0  0  0
  -10.1598   19.7849  -32.7545 H   0  0  0  0  0  0  0  0  0  0  0  0
   -9.7341   19.7312  -31.0349 H   0  0  0  0  0  0  0  0  0  0  0  0
   -7.9318   24.1394  -29.5107 H   0  0  0  0  0  0  0  0  0  0  0  0
   -5.8260   25.3608  -28.9840 H   0  0  0  0  0  0  0  0  0  0  0  0
   -1.4790   23.3061  -31.2512 H   0  0  0  0  0  0  0  0  0  0  0  0
   -0.6526   20.9703  -31.5284 H   0  0  0  0  0  0  0  0  0  0  0  0
  1  2  1  0
  2  3  2  0
  2  4  1  0
  4  5  1  0
  5  6  2  0
  6  7  1  0
  7  8  2  0
  8  9  1  0
  9 10  2  0
  9 11  2  0
  9 12  1  0
 12 13  1  0
 13 14  2  0
 14 15  1  0
 15 16  2  0
 16 17  1  0
 17 18  2  0
 17 19  2  0
 17 20  1  0
 20 21  1  0
 21 22  1  0
 22 23  1  0
 23 24  1  0
 16 25  1  0
 25 26  2  0
  8 27  1  0
 27 28  2  0
 28  5  1  0
 26 13  1  0
 24 20  1  0
  1 29  1  0
  1 30  1  0
  1 31  1  0
  4 32  1  0
  6 33  1  0
  7 34  1  0
 14 35  1  0
 15 36  1  0
 21 37  1  0
 21 38  1  0
 22 39  1  0
 22 40  1  0
 23 41  1  0
 23 42  1  0
 24 43  1  0
 24 44  1  0
 25 45  1  0
 26 46  1  0
 27 47  1  0
 28 48  1  0
M  CHG  1  12  -1
M  END
>  <UniqueID>  (2) 
1

>  <SMILES>  (2) 
CC(=O)Nc1ccc(S(=O)(=O)[N-]c2ccc(S(=O)(=O)N3CCCC3)cc2)cc1

>  <Energy>  (2) 
54.827168917391305

>  <Genealogy>  (2) 
CC(=O)Nc1ccc(S(=O)(=O)[N-]c2ccc(S(=O)(=O)N3CCCC3)cc2)cc1 (protonated)
CC(=O)Nc1ccc(S(=O)(=O)[N-]c2ccc(S(=O)(=O)N3CCCC3)cc2)cc1 (3D coordinates assigned)
CC(=O)Nc1ccc(S(=O)(=O)[N-]c2ccc(S(=O)(=O)N3CCCC3)cc2)cc1 (nonaromatic ring conformer: 54.827168917391305 kcal/mol)

>  <smiles>  (2) 
CC(=O)Nc1ccc(S(=O)(=O)Nc2ccc(S(=O)(=O)N3CCCC3)cc2)cc1

>  <score_type>  (2) 
oracle

>  <origin>  (2) 
adgpu

>  <m_score__min__energy>  (2) 
-11.35

>  <m_primary>  (2) 
energy

$$$$
2:0
     RDKit          3D

 56 58  0  0  0  0  0  0  0  0999 V2000
   -2.7060   23.4560  -28.5750 C   0  0  0  0  0  0  0  0  0  0  0  0
   -2.6450   24.7470  -29.3320 C   0  0  0  0  0  0  0  0  0  0  0  0
   -1.8540   25.6450  -28.9410 O   0  0  0  0  0  0  0  0  0  0  0  0
   -3.4860   25.0090  -30.4640 N   0  0  0  0  0  0  0  0  0  0  0  0
   -4.8590   24.6260  -30.6130 C   0  0  0  0  0  0  0  0  0  0  0  0
   -5.8690   25.1660  -29.7990 C   0  0  0  0  0  0  0  0  0  0  0  0
   -7.1940   24.7550  -29.9600 C   0  0  0  0  0  0  0  0  0  0  0  0
   -7.5210   23.7890  -30.9140 C   0  0  0  0  0  0  0  0  0  0  0  0
   -6.5140   23.2070  -31.7050 C   0  0  0  0  0  0  0  0  0  0  0  0
   -6.8260   22.2250  -32.7100 N   0  0  0  0  0  0  0  0  0  0  0  0
   -6.9980   20.8240  -32.4400 C   0  0  0  0  0  0  0  0  0  0  0  0
   -8.2130   20.3610  -31.9070 C   0  0  0  0  0  0  0  0  0  0  0  0
   -8.3730   19.0170  -31.5670 C   0  0  0  0  0  0  0  0  0  0  0  0
   -7.3200   18.1220  -31.7480 C   0  0  0  0  0  0  0  0  0  0  0  0
   -6.1030   18.5660  -32.2690 C   0  0  0  0  0  0  0  0  0  0  0  0
   -5.9230   19.9170  -32.6160 C   0  0  0  0  0  0  0  0  0  0  0  0
   -4.6420   20.3560  -33.2160 C   0  0  0  0  0  0  0  0  0  0  0  0
   -4.5620   21.5120  -33.7160 O   0  0  0  0  0  0  0  0  0  0  0  0
   -3.5110   19.4680  -33.2670 N   0  0  0  0  0  0  0  0  0  0  0  0
   -2.2080   19.8620  -33.7290 C   0  0  0  0  0  0  0  0  0  0  0  0
   -1.7280   21.1430  -33.4220 C   0  0  0  0  0  0  0  0  0  0  0  0
   -0.4720   21.5560  -33.8770 C   0  0  0  0  0  0  0  0  0  0  0  0
    0.3020   20.7070  -34.6790 C   0  0  0  0  0  0  0  0  0  0  0  0
    1.6390   21.1230  -35.1200 C   0  0  0  0  0  0  0  0  0  0  0  0
    2.6340   20.7670  -34.4330 O   0  0  0  0  0  0  0  0  0  0  0  0
    1.8610   21.9260  -36.2890 N   0  0  0  0  0  0  0  0  0  0  0  0
    1.9330   23.3870  -36.4080 C   0  0  0  0  0  0  0  0  0  0  0  0
    0.5860   24.0430  -36.0960 C   0  0  0  0  0  0  0  0  0  0  0  0
    3.0690   23.9790  -35.5690 C   0  0  0  0  0  0  0  0  0  0  0  0
   -0.1700   19.4220  -34.9820 C   0  0  0  0  0  0  0  0  0  0  0  0
   -1.4250   19.0080  -34.5260 C   0  0  0  0  0  0  0  0  0  0  0  0
   -5.1870   23.6350  -31.5480 C   0  0  0  0  0  0  0  0  0  0  0  0
   -2.6962   23.6635  -27.4948 H   0  0  0  0  0  0  0  0  0  0  0  0
   -3.6304   22.9206  -28.8371 H   0  0  0  0  0  0  0  0  0  0  0  0
   -1.8362   22.8358  -28.8371 H   0  0  0  0  0  0  0  0  0  0  0  0
   -5.6156   25.9140  -29.0333 H   0  0  0  0  0  0  0  0  0  0  0  0
   -7.9836   25.1942  -29.3325 H   0  0  0  0  0  0  0  0  0  0  0  0
   -8.5690   23.4824  -31.0472 H   0  0  0  0  0  0  0  0  0  0  0  0
   -6.9250   22.5480  -33.7000 H   0  0  0  0  0  0  0  0  0  0  0  0
   -9.0454   21.0642  -31.7564 H   0  0  0  0  0  0  0  0  0  0  0  0
   -9.3303   18.6639  -31.1561 H   0  0  0  0  0  0  0  0  0  0  0  0
   -7.4480   17.0629  -31.4797 H   0  0  0  0  0  0  0  0  0  0  0  0
   -5.2775   17.8526  -32.4093 H   0  0  0  0  0  0  0  0  0  0  0  0
   -3.6460   18.4650  -33.0100 H   0  0  0  0  0  0  0  0  0  0  0  0
   -2.3433   21.8274  -32.8195 H   0  0  0  0  0  0  0  0  0  0  0  0
   -0.0902   22.5509  -33.6043 H   0  0  0  0  0  0  0  0  0  0  0  0
    2.1692   23.6142  -37.4580 H   0  0  0  0  0  0  0  0  0  0  0  0
    0.4534   24.1076  -35.0059 H   0  0  0  0  0  0  0  0  0  0  0  0
    0.5615   25.0539  -36.5289 H   0  0  0  0  0  0  0  0  0  0  0  0
   -0.2250   23.4390  -36.5289 H   0  0  0  0  0  0  0  0  0  0  0  0
    2.8371   23.8582  -34.5005 H   0  0  0  0  0  0  0  0  0  0  0  0
    4.0080   23.4556  -35.8019 H   0  0  0  0  0  0  0  0  0  0  0  0
    3.1779   25.0485  -35.8019 H   0  0  0  0  0  0  0  0  0  0  0  0
    0.4491   18.7375  -35.5804 H   0  0  0  0  0  0  0  0  0  0  0  0
   -1.8019   18.0094  -34.7919 H   0  0  0  0  0  0  0  0  0  0  0  0
   -4.3948   23.1874  -32.1661 H   0  0  0  0  0  0  0  0  0  0  0  0
  1  2  1  0
  2  3  2  0
  2  4  1  0
  4  5  1  0
  5  6  2  0
  6  7  1  0
  7  8  2  0
  8  9  1  0
  9 10  1  0
 10 11  1  0
 11 12  2  0
 12 13  1  0
 13 14  2  0
 14 15  1  0
 15 16  2  0
 16 17  1  0
 17 18  2  0
 17 19  1  0
 19 20  1  0
 20 21  2  0
 21 22  1  0
 22 23  2  0
 23 24  1  0
 24 25  2  0
 24 26  1  0
 26 27  1  0
 27 28  1  0
 27 29  1  0
 23 30  1  0
 30 31  2  0
  9 32  2  0
 32  5  1  0
 16 11  1  0
 31 20  1  0
  1 33  1  0
  1 34  1  0
  1 35  1  0
  6 36  1  0
  7 37  1  0
  8 38  1  0
 10 39  1  0
 12 40  1  0
 13 41  1  0
 14 42  1  0
 15 43  1  0
 19 44  1  0
 21 45  1  0
 22 46  1  0
 27 47  1  0
 28 48  1  0
 28 49  1  0
 28 50  1  0
 29 51  1  0
 29 52  1  0
 29 53  1  0
 30 54  1  0
 31 55  1  0
 32 56  1  0
M  CHG  2   4  -1  26  -1
M  END
>  <UniqueID>  (3) 
2

>  <SMILES>  (3) 
CC(=O)[N-]c1cccc(Nc2ccccc2C(=O)Nc2ccc(C(=O)[N-]C(C)C)cc2)c1

>  <Energy>  (3) 
79.97163392011997

>  <Genealogy>  (3) 
CC(=O)[N-]c1cccc(Nc2ccccc2C(=O)Nc2ccc(C(=O)[N-]C(C)C)cc2)c1 (protonated)
CC(=O)[N-]c1cccc(Nc2ccccc2C(=O)Nc2ccc(C(=O)[N-]C(C)C)cc2)c1 (3D coordinates assigned)
CC(=O)[N-]c1cccc(Nc2ccccc2C(=O)Nc2ccc(C(=O)[N-]C(C)C)cc2)c1 (optimized conformer: 79.97163392011997 kcal/mol)

>  <smiles>  (3) 
CC(=O)Nc1cccc(Nc2ccccc2C(=O)Nc2ccc(C(=O)NC(C)C)cc2)c1

>  <score_type>  (3) 
oracle

>  <origin>  (3) 
adgpu

>  <m_score__min__energy>  (3) 
-12.369999999999999

>  <m_primary>  (3) 
energy

$$$$
3:0
     RDKit          3D

 30 31  0  0  0  0  0  0  0  0999 V2000
   -1.6030   25.6610  -29.3350 N   0  0  0  0  0  0  0  0  0  0  0  0
   -1.0660   24.9540  -27.8510 S   0  0  0  0  0  0  0  0  0  0  0  0
    0.4360   24.9210  -27.8450 O   0  0  0  0  0  0  0  0  0  0  0  0
   -1.5420   25.7890  -26.6950 O   0  0  0  0  0  0  0  0  0  0  0  0
   -1.7220   23.3200  -27.7060 C   0  0  0  0  0  0  0  0  0  0  0  0
   -0.9460   22.3050  -27.1280 C   0  0  0  0  0  0  0  0  0  0  0  0
   -1.4450   21.0070  -27.0200 C   0  0  0  0  0  0  0  0  0  0  0  0
   -2.7240   20.7100  -27.4940 C   0  0  0  0  0  0  0  0  0  0  0  0
   -3.5080   21.7090  -28.0720 C   0  0  0  0  0  0  0  0  0  0  0  0
   -3.0160   23.0250  -28.1830 C   0  0  0  0  0  0  0  0  0  0  0  0
   -3.8020   24.0710  -28.7760 N   0  0  0  0  0  0  0  0  0  0  0  0
   -4.1740   24.2160  -30.4640 S   0  0  0  0  0  0  0  0  0  0  0  0
   -4.1520   25.6700  -30.8490 O   0  0  0  0  0  0  0  0  0  0  0  0
   -3.1330   23.4820  -31.2600 O   0  0  0  0  0  0  0  0  0  0  0  0
   -5.7490   23.5040  -30.7920 C   0  0  0  0  0  0  0  0  0  0  0  0
   -6.2970   23.5520  -32.0820 C   0  0  0  0  0  0  0  0  0  0  0  0
   -7.5500   22.9840  -32.3340 C   0  0  0  0  0  0  0  0  0  0  0  0
   -8.2580   22.3640  -31.3000 C   0  0  0  0  0  0  0  0  0  0  0  0
   -7.7150   22.3120  -30.0120 C   0  0  0  0  0  0  0  0  0  0  0  0
   -6.4620   22.8780  -29.7590 C   0  0  0  0  0  0  0  0  0  0  0  0
   -2.6470   25.6740  -29.3050 H   0  0  0  0  0  0  0  0  0  0  0  0
    0.0639   22.5342  -26.7570 H   0  0  0  0  0  0  0  0  0  0  0  0
   -0.8310   20.2178  -26.5616 H   0  0  0  0  0  0  0  0  0  0  0  0
   -3.1150   19.6851  -27.4116 H   0  0  0  0  0  0  0  0  0  0  0  0
   -4.5152   21.4682  -28.4429 H   0  0  0  0  0  0  0  0  0  0  0  0
   -5.7403   24.0373  -32.8972 H   0  0  0  0  0  0  0  0  0  0  0  0
   -7.9787   23.0251  -33.3462 H   0  0  0  0  0  0  0  0  0  0  0  0
   -9.2429   21.9167  -31.4996 H   0  0  0  0  0  0  0  0  0  0  0  0
   -8.2736   21.8260  -29.1985 H   0  0  0  0  0  0  0  0  0  0  0  0
   -6.0340   22.8323  -28.7467 H   0  0  0  0  0  0  0  0  0  0  0  0
  1  2  1  0
  2  3  2  0
  2  4  2  0
  2  5  1  0
  5  6  2  0
  6  7  1  0
  7  8  2  0
  8  9  1  0
  9 10  2  0
 10 11  1  0
 11 12  1  0
 12 13  2  0
 12 14  2  0
 12 15  1  0
 15 16  2  0
 16 17  1  0
 17 18  2  0
 18 19  1  0
 19 20  2  0
 10  5  1  0
 20 15  1  0
  1 21  1  0
  6 22  1  0
  7 23  1  0
  8 24  1  0
  9 25  1  0
 16 26  1  0
 17 27  1  0
 18 28  1  0
 19 29  1  0
 20 30  1  0
M  CHG  2   1  -1  11  -1
M  END
>  <UniqueID>  (4) 
3

>  <SMILES>  (4) 
[NH-]S(=O)(=O)c1ccccc1[N-]S(=O)(=O)c1ccccc1

>  <Energy>  (4) 
34.14721473924521

>  <Genealogy>  (4) 
[NH-]S(=O)(=O)c1ccccc1[N-]S(=O)(=O)c1ccccc1 (protonated)
[NH-]S(=O)(=O)c1ccccc1[N-]S(=O)(=O)c1ccccc1 (3D coordinates assigned)
[NH-]S(=O)(=O)c1ccccc1[N-]S(=O)(=O)c1ccccc1 (optimized conformer: 34.14721473924521 kcal/mol)

>  <smiles>  (4) 
NS(=O)(=O)c1ccccc1NS(=O)(=O)c1ccccc1

>  <score_type>  (4) 
oracle

>  <origin>  (4) 
adgpu

>  <m_score__min__energy>  (4) 
-10.789999999999999

>  <m_primary>  (4) 
energy

$$$$
4:0
     RDKit          3D

 46 48  0  0  0  0  0  0  0  0999 V2000
   -1.2780   24.3670  -27.7810 C   0  0  0  0  0  0  0  0  0  0  0  0
   -1.6430   24.4700  -29.1900 N   0  0  0  0  0  0  0  0  0  0  0  0
   -2.6420   23.6410  -29.8170 C   0  0  0  0  0  0  0  0  0  0  0  0
   -2.5410   22.2370  -29.8050 C   0  0  0  0  0  0  0  0  0  0  0  0
   -3.5180   21.4490  -30.4160 C   0  0  0  0  0  0  0  0  0  0  0  0
   -4.6260   22.0390  -31.0470 C   0  0  0  0  0  0  0  0  0  0  0  0
   -5.6490   21.1790  -31.6960 C   0  0  0  0  0  0  0  0  0  0  0  0
   -7.0180   21.3110  -31.4090 C   0  0  0  0  0  0  0  0  0  0  0  0
   -7.9330   20.4680  -32.0380 C   0  0  0  0  0  0  0  0  0  0  0  0
   -7.4910   19.4990  -32.9370 C   0  0  0  0  0  0  0  0  0  0  0  0
   -6.1140   19.3730  -33.2030 C   0  0  0  0  0  0  0  0  0  0  0  0
   -5.5920   18.3630  -34.1030 N   0  0  0  0  0  0  0  0  0  0  0  0
   -4.1490   18.2820  -34.3590 C   0  0  0  0  0  0  0  0  0  0  0  0
   -3.4090   17.7900  -33.1130 C   0  0  0  0  0  0  0  0  0  0  0  0
   -3.7220   16.3180  -32.7590 C   0  0  0  0  0  0  0  0  0  0  0  0
   -5.1660   15.9830  -32.7340 N   0  0  0  0  0  0  0  0  0  0  0  0
   -5.9350   16.6480  -31.6700 C   0  0  0  0  0  0  0  0  0  0  0  0
   -5.8820   15.8980  -34.0310 C   0  0  0  0  0  0  0  0  0  0  0  0
   -6.4040   17.2360  -34.5790 C   0  0  0  0  0  0  0  0  0  0  0  0
   -5.2500   20.2170  -32.5720 N   0  0  0  0  0  0  0  0  0  0  0  0
   -4.7230   23.4420  -31.0680 C   0  0  0  0  0  0  0  0  0  0  0  0
   -3.7440   24.2350  -30.4590 C   0  0  0  0  0  0  0  0  0  0  0  0
   -3.8760   25.6190  -30.5020 O   0  0  0  0  0  0  0  0  0  0  0  0
   -2.1501   24.6131  -27.1574 H   0  0  0  0  0  0  0  0  0  0  0  0
   -0.9483   23.3407  -27.5617 H   0  0  0  0  0  0  0  0  0  0  0  0
   -0.4605   25.0695  -27.5617 H   0  0  0  0  0  0  0  0  0  0  0  0
   -1.1420   25.1900  -29.7600 H   0  0  0  0  0  0  0  0  0  0  0  0
   -1.6844   21.7564  -29.3097 H   0  0  0  0  0  0  0  0  0  0  0  0
   -3.4192   20.3535  -30.4033 H   0  0  0  0  0  0  0  0  0  0  0  0
   -7.3646   22.0724  -30.6947 H   0  0  0  0  0  0  0  0  0  0  0  0
   -9.0074   20.5679  -31.8241 H   0  0  0  0  0  0  0  0  0  0  0  0
   -8.2137   18.8365  -33.4358 H   0  0  0  0  0  0  0  0  0  0  0  0
   -3.9674   17.5818  -35.1877 H   0  0  0  0  0  0  0  0  0  0  0  0
   -3.7778   19.2840  -34.6201 H   0  0  0  0  0  0  0  0  0  0  0  0
   -2.3273   17.8847  -33.2889 H   0  0  0  0  0  0  0  0  0  0  0  0
   -3.7464   18.4078  -32.2677 H   0  0  0  0  0  0  0  0  0  0  0  0
   -3.2333   15.6743  -33.5052 H   0  0  0  0  0  0  0  0  0  0  0  0
   -3.3467   16.1563  -31.7377 H   0  0  0  0  0  0  0  0  0  0  0  0
   -5.5594   16.3232  -30.6884 H   0  0  0  0  0  0  0  0  0  0  0  0
   -5.8227   17.7383  -31.7631 H   0  0  0  0  0  0  0  0  0  0  0  0
   -6.9977   16.3796  -31.7631 H   0  0  0  0  0  0  0  0  0  0  0  0
   -5.1914   15.4722  -34.7738 H   0  0  0  0  0  0  0  0  0  0  0  0
   -6.7702   15.2751  -33.8493 H   0  0  0  0  0  0  0  0  0  0  0  0
   -6.3708   17.2100  -35.6782 H   0  0  0  0  0  0  0  0  0  0  0  0
   -7.4351   17.3774  -34.2230 H   0  0  0  0  0  0  0  0  0  0  0  0
   -5.5775   23.9210  -31.5684 H   0  0  0  0  0  0  0  0  0  0  0  0
  1  2  1  0
  2  3  1  0
  3  4  2  0
  4  5  1  0
  5  6  2  0
  6  7  1  0
  7  8  2  0
  8  9  1  0
  9 10  2  0
 10 11  1  0
 11 12  1  0
 12 13  1  0
 13 14  1  0
 14 15  1  0
 15 16  1  0
 16 17  1  0
 16 18  1  0
 18 19  1  0
 11 20  2  0
  6 21  1  0
 21 22  2  0
 22 23  1  0
 22  3  1  0
 20  7  1  0
 19 12  1  0
  1 24  1  0
  1 25  1  0
  1 26  1  0
  2 27  1  0
  4 28  1  0
  5 29  1  0
  8 30  1  0
  9 31  1  0
 10 32  1  0
 13 33  1  0
 13 34  1  0
 14 35  1  0
 14 36  1  0
 15 37  1  0
 15 38  1  0
 17 39  1  0
 17 40  1  0
 17 41  1  0
 18 42  1  0
 18 43  1  0
 19 44  1  0
 19 45  1  0
 21 46  1  0
M  CHG  1  23  -1
M  END
>  <UniqueID>  (5) 
4

>  <SMILES>  (5) 
CNc1ccc(-c2cccc(N3CCCN(C)CC3)n2)cc1[O-]

>  <Energy>  (5) 
62.469800768694675

>  <Genealogy>  (5) 
CNc1ccc(-c2cccc(N3CCCN(C)CC3)n2)cc1[O-] (protonated)
CNc1ccc(-c2cccc(N3CCCN(C)CC3)n2)cc1[O-] (3D coordinates assigned)
CNc1ccc(-c2cccc(N3CCCN(C)CC3)n2)cc1[O-] (nonaromatic ring conformer: 62.469800768694675 kcal/mol)

>  <smiles>  (5) 
CNc1ccc(-c2cccc(N3CCCN(C)CC3)n2)cc1O

>  <score_type>  (5) 
oracle

>  <origin>  (5) 
adgpu

>  <m_score__min__energy>  (5) 
-9.0099999999999998

>  <m_primary>  (5) 
energy

$$$$
5:0
     RDKit          3D

 60 63  0  0  0  0  0  0  0  0999 V2000
   -2.3910   25.3500  -28.8570 O   0  0  0  0  0  0  0  0  0  0  0  0
   -2.8330   24.5360  -29.7100 C   0  0  0  0  0  0  0  0  0  0  0  0
   -3.9880   24.8970  -30.4820 N   0  0  0  0  0  0  0  0  0  0  0  0
   -5.0760   24.0180  -30.8090 C   0  0  0  0  0  0  0  0  0  0  0  0
   -5.5930   23.9420  -32.1150 C   0  0  0  0  0  0  0  0  0  0  0  0
   -6.6470   23.0720  -32.4050 C   0  0  0  0  0  0  0  0  0  0  0  0
   -7.2030   22.2760  -31.3950 C   0  0  0  0  0  0  0  0  0  0  0  0
   -8.5330   21.1760  -31.7460 S   0  0  0  0  0  0  0  0  0  0  0  0
   -9.6630   21.9650  -32.3450 O   0  0  0  0  0  0  0  0  0  0  0  0
   -9.0180   20.5310  -30.4760 O   0  0  0  0  0  0  0  0  0  0  0  0
   -8.0020   19.9480  -32.8720 N   0  0  0  0  0  0  0  0  0  0  0  0
   -8.1480   18.6100  -32.2600 C   0  0  0  0  0  0  0  0  0  0  0  0
   -7.2200   17.5950  -32.9470 C   0  0  0  0  0  0  0  0  0  0  0  0
   -5.8390   17.9210  -32.8600 O   0  0  0  0  0  0  0  0  0  0  0  0
   -5.5880   19.3060  -32.6580 C   0  0  0  0  0  0  0  0  0  0  0  0
   -6.6210   20.2180  -33.3450 C   0  0  0  0  0  0  0  0  0  0  0  0
   -6.7120   22.3780  -30.0870 C   0  0  0  0  0  0  0  0  0  0  0  0
   -5.6590   23.2500  -29.7950 C   0  0  0  0  0  0  0  0  0  0  0  0
   -2.1730   23.2240  -29.8760 C   0  0  0  0  0  0  0  0  0  0  0  0
   -2.5050   22.3920  -30.9570 C   0  0  0  0  0  0  0  0  0  0  0  0
   -1.8210   21.1900  -31.1600 C   0  0  0  0  0  0  0  0  0  0  0  0
   -0.7880   20.8120  -30.2930 C   0  0  0  0  0  0  0  0  0  0  0  0
    0.1720   19.3710  -30.6330 S   0  0  0  0  0  0  0  0  0  0  0  0
   -0.4240   18.1960  -29.9070 O   0  0  0  0  0  0  0  0  0  0  0  0
    1.5720   19.5750  -30.1250 O   0  0  0  0  0  0  0  0  0  0  0  0
    0.2330   19.0420  -32.3510 N   0  0  0  0  0  0  0  0  0  0  0  0
    0.9640   20.1050  -33.0850 C   0  0  0  0  0  0  0  0  0  0  0  0
    0.0250   21.0860  -33.8080 C   0  0  0  0  0  0  0  0  0  0  0  0
   -0.8790   20.3530  -34.8150 C   0  0  0  0  0  0  0  0  0  0  0  0
   -1.1850   18.9040  -34.3950 C   0  0  0  0  0  0  0  0  0  0  0  0
   -1.1210   18.7480  -32.8720 C   0  0  0  0  0  0  0  0  0  0  0  0
   -0.4870   21.6190  -29.1860 C   0  0  0  0  0  0  0  0  0  0  0  0
   -1.1810   22.8120  -28.9730 C   0  0  0  0  0  0  0  0  0  0  0  0
   -5.1659   24.5698  -32.9109 H   0  0  0  0  0  0  0  0  0  0  0  0
   -7.0417   23.0118  -33.4300 H   0  0  0  0  0  0  0  0  0  0  0  0
   -8.6440   20.0000  -33.6980 H   0  0  0  0  0  0  0  0  0  0  0  0
   -7.8896   18.6709  -31.1925 H   0  0  0  0  0  0  0  0  0  0  0  0
   -9.1892   18.2767  -32.3818 H   0  0  0  0  0  0  0  0  0  0  0  0
   -7.3735   16.6126  -32.4765 H   0  0  0  0  0  0  0  0  0  0  0  0
   -7.4806   17.5990  -34.0157 H   0  0  0  0  0  0  0  0  0  0  0  0
   -5.6059   19.5102  -31.5773 H   0  0  0  0  0  0  0  0  0  0  0  0
   -4.6080   19.5285  -33.1054 H   0  0  0  0  0  0  0  0  0  0  0  0
   -6.3696   21.2665  -33.1273 H   0  0  0  0  0  0  0  0  0  0  0  0
   -6.5864   20.0170  -34.4259 H   0  0  0  0  0  0  0  0  0  0  0  0
   -7.1570   21.7693  -29.2861 H   0  0  0  0  0  0  0  0  0  0  0  0
   -5.2870   23.3328  -28.7631 H   0  0  0  0  0  0  0  0  0  0  0  0
   -3.3080   22.6877  -31.6482 H   0  0  0  0  0  0  0  0  0  0  0  0
   -2.0949   20.5390  -32.0033 H   0  0  0  0  0  0  0  0  0  0  0  0
    1.5766   20.6699  -32.3669 H   0  0  0  0  0  0  0  0  0  0  0  0
    1.5814   19.6130  -33.8510 H   0  0  0  0  0  0  0  0  0  0  0  0
   -0.6057   21.5936  -33.0633 H   0  0  0  0  0  0  0  0  0  0  0  0
    0.6393   21.8142  -34.3579 H   0  0  0  0  0  0  0  0  0  0  0  0
   -1.8282   20.9024  -34.9003 H   0  0  0  0  0  0  0  0  0  0  0  0
   -0.3432   20.3141  -35.7749 H   0  0  0  0  0  0  0  0  0  0  0  0
   -2.1934   18.6343  -34.7421 H   0  0  0  0  0  0  0  0  0  0  0  0
   -0.4317   18.2419  -34.8468 H   0  0  0  0  0  0  0  0  0  0  0  0
   -1.8393   19.4422  -32.4115 H   0  0  0  0  0  0  0  0  0  0  0  0
   -1.3671   17.7054  -32.6221 H   0  0  0  0  0  0  0  0  0  0  0  0
    0.2998   21.3106  -28.4819 H   0  0  0  0  0  0  0  0  0  0  0  0
   -0.9491   23.4312  -28.0939 H   0  0  0  0  0  0  0  0  0  0  0  0
  1  2  2  0
  2  3  1  0
  3  4  1  0
  4  5  2  0
  5  6  1  0
  6  7  2  0
  7  8  1  0
  8  9  2  0
  8 10  2  0
  8 11  1  0
 11 12  1  0
 12 13  1  0
 13 14  1  0
 14 15  1  0
 15 16  1  0
  7 17  1  0
 17 18  2  0
  2 19  1  0
 19 20  2  0
 20 21  1  0
 21 22  2  0
 22 23  1  0
 23 24  2  0
 23 25  2  0
 23 26  1  0
 26 27  1  0
 27 28  1  0
 28 29  1  0
 29 30  1  0
 30 31  1  0
 22 32  1  0
 32 33  2  0
 18  4  1  0
 33 19  1  0
 16 11  1  0
 31 26  1  0
  5 34  1  0
  6 35  1  0
 11 36  1  0
 12 37  1  0
 12 38  1  0
 13 39  1  0
 13 40  1  0
 15 41  1  0
 15 42  1  0
 16 43  1  0
 16 44  1  0
 17 45  1  0
 18 46  1  0
 20 47  1  0
 21 48  1  0
 27 49  1  0
 27 50  1  0
 28 51  1  0
 28 52  1  0
 29 53  1  0
 29 54  1  0
 30 55  1  0
 30 56  1  0
 31 57  1  0
 31 58  1  0
 32 59  1  0
 33 60  1  0
M  CHG  2   3  -1  11   1
M  END
>  <UniqueID>  (6) 
5

>  <SMILES>  (6) 
O=C([N-]c1ccc(S(=O)(=O)[NH+]2CCOCC2)cc1)c1ccc(S(=O)(=O)N2CCCCC2)cc1

>  <Energy>  (6) 
83.60579437749426

>  <Genealogy>  (6) 
O=C([N-]c1ccc(S(=O)(=O)[NH+]2CCOCC2)cc1)c1ccc(S(=O)(=O)N2CCCCC2)cc1 (protonated)
O=C([N-]c1ccc(S(=O)(=O)[NH+]2CCOCC2)cc1)c1ccc(S(=O)(=O)N2CCCCC2)cc1 (3D coordinates assigned)
O=C([N-]c1ccc(S(=O)(=O)[NH+]2CCOCC2)cc1)c1ccc(S(=O)(=O)N2CCCCC2)cc1 (nonaromatic ring conformer: 83.60579437749426 kcal/mol)

>  <smiles>  (6) 
O=C(Nc1ccc(S(=O)(=O)N2CCOCC2)cc1)c1ccc(S(=O)(=O)N2CCCCC2)cc1

>  <score_type>  (6) 
oracle

>  <origin>  (6) 
adgpu

>  <m_score__min__energy>  (6) 
-13.109999999999999

>  <m_primary>  (6) 
energy

$$$$
6:0
     RDKit          3D

 44 46  0  0  0  0  0  0  0  0999 V2000
   -7.9100   17.0690  -33.2550 H   0  0  0  0  0  0  0  0  0  0  0  0
   -7.2570   16.3270  -33.4880 O   0  0  0  0  0  0  0  0  0  0  0  0
   -5.9480   16.6030  -33.8840 C   0  0  0  0  0  0  0  0  0  0  0  0
   -5.0110   15.5640  -33.9940 C   0  0  0  0  0  0  0  0  0  0  0  0
   -5.3087   14.5305  -33.7634 H   0  0  0  0  0  0  0  0  0  0  0  0
   -3.7030   15.8380  -34.3950 C   0  0  0  0  0  0  0  0  0  0  0  0
   -2.9710   15.0214  -34.4799 H   0  0  0  0  0  0  0  0  0  0  0  0
   -3.3230   17.1520  -34.6890 C   0  0  0  0  0  0  0  0  0  0  0  0
   -2.2929   17.3659  -35.0101 H   0  0  0  0  0  0  0  0  0  0  0  0
   -4.2480   18.1940  -34.5760 C   0  0  0  0  0  0  0  0  0  0  0  0
   -3.9441   19.2251  -34.8095 H   0  0  0  0  0  0  0  0  0  0  0  0
   -5.5680   17.9270  -34.1640 C   0  0  0  0  0  0  0  0  0  0  0  0
   -6.5490   18.9670  -34.0280 N   0  0  0  0  0  0  0  0  0  0  0  0
   -7.6220   19.1980  -32.6840 S   0  0  0  0  0  0  0  0  0  0  0  0
   -9.0410   18.9010  -33.0760 O   0  0  0  0  0  0  0  0  0  0  0  0
   -7.2310   18.2410  -31.5950 O   0  0  0  0  0  0  0  0  0  0  0  0
   -7.4610   20.8490  -32.0840 C   0  0  0  0  0  0  0  0  0  0  0  0
   -8.5840   21.6840  -32.0310 C   0  0  0  0  0  0  0  0  0  0  0  0
   -9.5529   21.3257  -32.4090 H   0  0  0  0  0  0  0  0  0  0  0  0
   -8.4760   22.9710  -31.4990 C   0  0  0  0  0  0  0  0  0  0  0  0
   -9.3585   23.6269  -31.4673 H   0  0  0  0  0  0  0  0  0  0  0  0
   -7.2510   23.4280  -31.0070 C   0  0  0  0  0  0  0  0  0  0  0  0
   -7.1777   24.4376  -30.5765 H   0  0  0  0  0  0  0  0  0  0  0  0
   -6.1160   22.6100  -31.0580 C   0  0  0  0  0  0  0  0  0  0  0  0
   -4.8950   23.1070  -30.4830 N   0  0  0  0  0  0  0  0  0  0  0  0
   -4.1260   22.4840  -29.6430 C   0  0  0  0  0  0  0  0  0  0  0  0
   -4.3724   21.4569  -29.3359 H   0  0  0  0  0  0  0  0  0  0  0  0
   -2.9220   23.1440  -29.0960 C   0  0  0  0  0  0  0  0  0  0  0  0
   -2.0440   22.4640  -28.2350 C   0  0  0  0  0  0  0  0  0  0  0  0
   -2.2598   21.4255  -27.9434 H   0  0  0  0  0  0  0  0  0  0  0  0
   -0.8990   23.0980  -27.7470 C   0  0  0  0  0  0  0  0  0  0  0  0
   -0.2137   22.5530  -27.0812 H   0  0  0  0  0  0  0  0  0  0  0  0
   -0.6170   24.4320  -28.1030 C   0  0  0  0  0  0  0  0  0  0  0  0
    0.5120   25.1120  -27.6220 O   0  0  0  0  0  0  0  0  0  0  0  0
    0.4640   26.3470  -26.9150 C   0  0  0  0  0  0  0  0  0  0  0  0
    0.4716   26.1505  -25.8327 H   0  0  0  0  0  0  0  0  0  0  0  0
    1.3391   26.9572  -27.1830 H   0  0  0  0  0  0  0  0  0  0  0  0
   -0.4558   26.8874  -27.1830 H   0  0  0  0  0  0  0  0  0  0  0  0
   -1.4960   25.1070  -28.9590 C   0  0  0  0  0  0  0  0  0  0  0  0
   -1.2360   26.4260  -29.3230 O   0  0  0  0  0  0  0  0  0  0  0  0
   -2.6340   24.4660  -29.4600 C   0  0  0  0  0  0  0  0  0  0  0  0
   -3.3071   25.0034  -30.1442 H   0  0  0  0  0  0  0  0  0  0  0  0
   -6.2270   21.3130  -31.6030 C   0  0  0  0  0  0  0  0  0  0  0  0
   -5.3415   20.6622  -31.6510 H   0  0  0  0  0  0  0  0  0  0  0  0
  1  2  1  0
  2  3  1  0
  3  4  2  0
  4  5  1  0
  4  6  1  0
  6  7  1  0
  6  8  2  0
  8  9  1  0
  8 10  1  0
 10 11  1  0
 10 12  2  0
 12 13  1  0
 13 14  1  0
 14 15  2  0
 14 16  2  0
 14 17  1  0
 17 18  2  0
 18 19  1  0
 18 20  1  0
 20 21  1  0
 20 22  2  0
 22 23  1  0
 22 24  1  0
 24 25  1  0
 25 26  2  0
 26 27  1  0
 26 28  1  0
 28 29  2  0
 29 30  1  0
 29 31  1  0
 31 32  1  0
 31 33  2  0
 33 34  1  0
 34 35  1  0
 35 36  1  0
 35 37  1  0
 35 38  1  0
 33 39  1  0
 39 40  1  0
 39 41  2  0
 41 42  1  0
 24 43  2  0
 43 44  1  0
 12  3  1  0
 43 17  1  0
 41 28  1  0
M  CHG  2  13  -1  40  -1
M  END
>  <UniqueID>  (7) 
6

>  <SMILES>  (7) 
COc1ccc(/C=N/c2cccc(S(=O)(=O)[N-]c3ccccc3O)c2)cc1[O-]

>  <Energy>  (7) 
54.07130737894438

>  <Genealogy>  (7) 
COc1ccc(C=Nc2cccc(S(=O)(=O)[N-]c3ccccc3O)c2)cc1[O-] (protonated)
COc1ccc(/C=N/c2cccc(S(=O)(=O)[N-]c3ccccc3O)c2)cc1[O-] (cis-trans isomerization)
COc1ccc(/C=N/c2cccc(S(=O)(=O)[N-]c3ccccc3O)c2)cc1[O-] (3D coordinates assigned)
COc1ccc(/C=N/c2cccc(S(=O)(=O)[N-]c3ccccc3O)c2)cc1[O-] (optimized conformer: 54.07130737894438 kcal/mol)

>  <smiles>  (7) 
COc1ccc(C=Nc2cccc(S(=O)(=O)Nc3ccccc3O)c2)cc1O

>  <score_type>  (7) 
oracle

>  <origin>  (7) 
adgpu

>  <m_score__min__energy>  (7) 
-10.779999999999999

>  <m_primary>  (7) 
energy

$$$$
7:0
     RDKit          3D

 46 48  0  0  0  0  0  0  0  0999 V2000
   -8.2890   19.0820  -31.9690 C   0  0  0  0  0  0  0  0  0  0  0  0
   -7.2150   18.5960  -32.7670 O   0  0  0  0  0  0  0  0  0  0  0  0
   -6.0010   19.2740  -32.9550 C   0  0  0  0  0  0  0  0  0  0  0  0
   -5.9600   20.6480  -32.6980 C   0  0  0  0  0  0  0  0  0  0  0  0
   -4.7740   21.3670  -32.8740 C   0  0  0  0  0  0  0  0  0  0  0  0
   -3.6080   20.7210  -33.3000 C   0  0  0  0  0  0  0  0  0  0  0  0
   -2.4060   21.4920  -33.4500 N   0  0  0  0  0  0  0  0  0  0  0  0
   -0.8730   20.8430  -33.9380 S   0  0  0  0  0  0  0  0  0  0  0  0
   -0.0440   21.9360  -34.5480 O   0  0  0  0  0  0  0  0  0  0  0  0
   -1.1020   19.7710  -34.9660 O   0  0  0  0  0  0  0  0  0  0  0  0
   -0.0380   20.2230  -32.5100 C   0  0  0  0  0  0  0  0  0  0  0  0
   -0.7780   20.0330  -31.3350 C   0  0  0  0  0  0  0  0  0  0  0  0
   -0.2010   19.4270  -30.2150 C   0  0  0  0  0  0  0  0  0  0  0  0
   -1.0130   19.2100  -29.0540 N   0  0  0  0  0  0  0  0  0  0  0  0
   -1.2770   20.3970  -27.8210 S   0  0  0  0  0  0  0  0  0  0  0  0
   -2.1950   19.8450  -26.7650 O   0  0  0  0  0  0  0  0  0  0  0  0
    0.0360   20.7470  -27.1800 O   0  0  0  0  0  0  0  0  0  0  0  0
   -1.9500   21.8440  -28.5660 C   0  0  0  0  0  0  0  0  0  0  0  0
   -2.8810   21.7490  -29.6050 C   0  0  0  0  0  0  0  0  0  0  0  0
   -3.3860   22.9070  -30.1990 C   0  0  0  0  0  0  0  0  0  0  0  0
   -2.9700   24.1690  -29.7600 C   0  0  0  0  0  0  0  0  0  0  0  0
   -3.4940   25.2980  -30.3810 O   0  0  0  0  0  0  0  0  0  0  0  0
   -2.0300   24.2800  -28.7110 C   0  0  0  0  0  0  0  0  0  0  0  0
   -1.5740   25.5970  -28.2000 C   0  0  0  0  0  0  0  0  0  0  0  0
   -1.2410   26.5180  -28.9920 O   0  0  0  0  0  0  0  0  0  0  0  0
   -1.5260   25.8410  -26.8320 O   0  0  0  0  0  0  0  0  0  0  0  0
   -1.5210   23.1030  -28.1310 C   0  0  0  0  0  0  0  0  0  0  0  0
    1.1470   19.0360  -30.2610 C   0  0  0  0  0  0  0  0  0  0  0  0
    1.9030   19.2570  -31.4140 C   0  0  0  0  0  0  0  0  0  0  0  0
    1.3170   19.8430  -32.5410 C   0  0  0  0  0  0  0  0  0  0  0  0
    2.0910   20.0370  -33.6800 O   0  0  0  0  0  0  0  0  0  0  0  0
   -3.6480   19.3410  -33.5680 C   0  0  0  0  0  0  0  0  0  0  0  0
   -4.8330   18.6220  -33.3920 C   0  0  0  0  0  0  0  0  0  0  0  0
   -8.0360   18.9675  -30.9046 H   0  0  0  0  0  0  0  0  0  0  0  0
   -8.4602   20.1453  -32.1929 H   0  0  0  0  0  0  0  0  0  0  0  0
   -9.2007   18.5088  -32.1929 H   0  0  0  0  0  0  0  0  0  0  0  0
   -6.8673   21.1667  -32.3549 H   0  0  0  0  0  0  0  0  0  0  0  0
   -4.7572   22.4489  -32.6761 H   0  0  0  0  0  0  0  0  0  0  0  0
   -1.8259   20.3649  -31.2935 H   0  0  0  0  0  0  0  0  0  0  0  0
   -3.2157   20.7612  -29.9545 H   0  0  0  0  0  0  0  0  0  0  0  0
   -4.1161   22.8269  -31.0179 H   0  0  0  0  0  0  0  0  0  0  0  0
   -0.7759   23.1737  -27.3249 H   0  0  0  0  0  0  0  0  0  0  0  0
    1.6086   18.5543  -29.3864 H   0  0  0  0  0  0  0  0  0  0  0  0
    2.9644   18.9689  -31.4362 H   0  0  0  0  0  0  0  0  0  0  0  0
   -2.7417   18.8250  -33.9180 H   0  0  0  0  0  0  0  0  0  0  0  0
   -4.8530   17.5413  -33.5960 H   0  0  0  0  0  0  0  0  0  0  0  0
  1  2  1  0
  2  3  1  0
  3  4  2  0
  4  5  1  0
  5  6  2  0
  6  7  1  0
  7  8  1  0
  8  9  2  0
  8 10  2  0
  8 11  1  0
 11 12  2  0
 12 13  1  0
 13 14  1  0
 14 15  1  0
 15 16  2  0
 15 17  2  0
 15 18  1  0
 18 19  2  0
 19 20  1  0
 20 21  2  0
 21 22  1  0
 21 23  1  0
 23 24  1  0
 24 25  2  0
 24 26  1  0
 23 27  2  0
 13 28  2  0
 28 29  1  0
 29 30  2  0
 30 31  1  0
  6 32  1  0
 32 33  2  0
 33  3  1  0
 30 11  1  0
 27 18  1  0
  1 34  1  0
  1 35  1  0
  1 36  1  0
  4 37  1  0
  5 38  1  0
 12 39  1  0
 19 40  1  0
 20 41  1  0
 27 42  1  0
 28 43  1  0
 29 44  1  0
 32 45  1  0
 33 46  1  0
M  CHG  5   7  -1  14  -1  22  -1  26  -1  31  -1
M  END
>  <UniqueID>  (8) 
7

>  <SMILES>  (8) 
COc1ccc([N-]S(=O)(=O)c2cc([N-]S(=O)(=O)c3ccc([O-])c(C(=O)[O-])c3)ccc2[O-])cc1

>  <Energy>  (8) 
56.19629045044078

>  <Genealogy>  (8) 
COc1ccc([N-]S(=O)(=O)c2cc([N-]S(=O)(=O)c3ccc([O-])c(C(=O)[O-])c3)ccc2[O-])cc1 (protonated)
COc1ccc([N-]S(=O)(=O)c2cc([N-]S(=O)(=O)c3ccc([O-])c(C(=O)[O-])c3)ccc2[O-])cc1 (3D coordinates assigned)
COc1ccc([N-]S(=O)(=O)c2cc([N-]S(=O)(=O)c3ccc([O-])c(C(=O)[O-])c3)ccc2[O-])cc1 (optimized conformer: 56.19629045044078 kcal/mol)

>  <smiles>  (8) 
COc1ccc(NS(=O)(=O)c2cc(NS(=O)(=O)c3ccc(O)c(C(=O)O)c3)ccc2O)cc1

>  <score_type>  (8) 
oracle

>  <origin>  (8) 
adgpu

>  <m_score__min__energy>  (8) 
-14.19

>  <m_primary>  (8) 
energy

$$$$
8:0
     RDKit          3D

 33 35  0  0  0  0  0  0  0  0999 V2000
   -5.3680   26.5780  -29.5650 H   0  0  0  0  0  0  0  0  0  0  0  0
   -6.0090   25.9480  -30.0970 N   0  0  0  0  0  0  0  0  0  0  0  0
   -5.6740   24.7630  -30.5110 C   0  0  0  0  0  0  0  0  0  0  0  0
   -4.3870   24.2280  -30.2650 C   0  0  0  0  0  0  0  0  0  0  0  0
   -3.5000   24.9240  -29.6100 N   0  0  0  0  0  0  0  0  0  0  0  0
   -2.1560   24.5330  -29.2780 C   0  0  0  0  0  0  0  0  0  0  0  0
   -1.2100   25.3650  -29.3460 O   0  0  0  0  0  0  0  0  0  0  0  0
   -1.8790   23.1400  -28.8510 C   0  0  0  0  0  0  0  0  0  0  0  0
   -2.6560   22.5290  -27.8520 C   0  0  0  0  0  0  0  0  0  0  0  0
   -3.4774   23.0891  -27.3813 H   0  0  0  0  0  0  0  0  0  0  0  0
   -2.3940   21.2150  -27.4510 C   0  0  0  0  0  0  0  0  0  0  0  0
   -3.0101   20.7489  -26.6679 H   0  0  0  0  0  0  0  0  0  0  0  0
   -1.3480   20.4870  -28.0430 C   0  0  0  0  0  0  0  0  0  0  0  0
   -1.0570   19.1020  -27.6340 C   0  0  0  0  0  0  0  0  0  0  0  0
   -0.2580   18.5444  -28.1445 H   0  0  0  0  0  0  0  0  0  0  0  0
   -1.7070   18.5450  -26.7100 O   0  0  0  0  0  0  0  0  0  0  0  0
   -0.5710   21.0930  -29.0400 C   0  0  0  0  0  0  0  0  0  0  0  0
    0.2498   20.5315  -29.5101 H   0  0  0  0  0  0  0  0  0  0  0  0
   -0.8330   22.4080  -29.4410 C   0  0  0  0  0  0  0  0  0  0  0  0
   -0.2158   22.8728  -30.2240 H   0  0  0  0  0  0  0  0  0  0  0  0
   -4.0950   22.9800  -30.7250 N   0  0  0  0  0  0  0  0  0  0  0  0
   -5.0020   22.2380  -31.4070 C   0  0  0  0  0  0  0  0  0  0  0  0
   -4.6720   20.9580  -31.8660 C   0  0  0  0  0  0  0  0  0  0  0  0
   -3.6707   20.5450  -31.6740 H   0  0  0  0  0  0  0  0  0  0  0  0
   -5.6170   20.2050  -32.5690 C   0  0  0  0  0  0  0  0  0  0  0  0
   -5.3578   19.1987  -32.9298 H   0  0  0  0  0  0  0  0  0  0  0  0
   -6.8910   20.7270  -32.8150 C   0  0  0  0  0  0  0  0  0  0  0  0
   -7.6308   20.1301  -33.3686 H   0  0  0  0  0  0  0  0  0  0  0  0
   -7.2270   22.0060  -32.3590 C   0  0  0  0  0  0  0  0  0  0  0  0
   -8.2297   22.4138  -32.5546 H   0  0  0  0  0  0  0  0  0  0  0  0
   -6.2850   22.7690  -31.6520 C   0  0  0  0  0  0  0  0  0  0  0  0
   -6.5860   24.0170  -31.1980 N   0  0  0  0  0  0  0  0  0  0  0  0
   -7.5380   24.4160  -31.3770 H   0  0  0  0  0  0  0  0  0  0  0  0
  1  2  1  0
  2  3  2  0
  3  4  1  0
  4  5  2  0
  5  6  1  0
  6  7  2  0
  6  8  1  0
  8  9  2  0
  9 10  1  0
  9 11  1  0
 11 12  1  0
 11 13  2  0
 13 14  1  0
 14 15  1  0
 14 16  2  0
 13 17  1  0
 17 18  1  0
 17 19  2  0
 19 20  1  0
  4 21  1  0
 21 22  1  0
 22 23  2  0
 23 24  1  0
 23 25  1  0
 25 26  1  0
 25 27  2  0
 27 28  1  0
 27 29  1  0
 29 30  1  0
 29 31  2  0
 31 32  1  0
 32 33  1  0
 32  3  1  0
 19  8  1  0
 31 22  1  0
M  CHG  1  21  -1
M  END
>  <UniqueID>  (9) 
8

>  <SMILES>  (9) 
[H]/N=c1/[nH]c2ccccc2[n-]c1=NC(=O)c1ccc(C=O)cc1

>  <Energy>  (9) 
45.0073946529018

>  <Genealogy>  (9) 
N=c1[nH]c2ccccc2[n-]c1=NC(=O)c1ccc(C=O)cc1 (protonated)
[H]/N=c1/[nH]c2ccccc2[n-]c1=NC(=O)c1ccc(C=O)cc1 (cis-trans isomerization)
[H]/N=c1/[nH]c2ccccc2[n-]c1=NC(=O)c1ccc(C=O)cc1 (3D coordinates assigned)
[H]/N=c1/[nH]c2ccccc2[n-]c1=NC(=O)c1ccc(C=O)cc1 (optimized conformer: 45.0073946529018 kcal/mol)

>  <smiles>  (9) 
N=c1[nH]c2ccccc2[nH]c1=NC(=O)c1ccc(C=O)cc1

>  <score_type>  (9) 
oracle

>  <origin>  (9) 
adgpu

>  <m_score__min__energy>  (9) 
-8.7699999999999996

>  <m_primary>  (9) 
energy

$$$$
9:0
     RDKit          3D

 50 53  0  0  0  0  0  0  0  0999 V2000
   -5.9980   25.7010  -30.2120 O   0  0  0  0  0  0  0  0  0  0  0  0
   -5.0770   25.1080  -30.8340 C   0  0  0  0  0  0  0  0  0  0  0  0
   -3.7070   25.2910  -30.4550 N   0  0  0  0  0  0  0  0  0  0  0  0
   -2.9360   24.4430  -29.5910 C   0  0  0  0  0  0  0  0  0  0  0  0
   -3.3210   23.1200  -29.3060 C   0  0  0  0  0  0  0  0  0  0  0  0
   -2.5540   22.3350  -28.4400 C   0  0  0  0  0  0  0  0  0  0  0  0
   -1.4040   22.8640  -27.8370 C   0  0  0  0  0  0  0  0  0  0  0  0
   -0.4400   21.8780  -26.7350 S   0  0  0  0  0  0  0  0  0  0  0  0
    0.8130   22.6230  -26.3670 O   0  0  0  0  0  0  0  0  0  0  0  0
   -1.2250   21.6380  -25.4750 O   0  0  0  0  0  0  0  0  0  0  0  0
   -0.0150   20.3420  -27.4500 N   0  0  0  0  0  0  0  0  0  0  0  0
   -1.0120   19.3190  -27.0980 C   0  0  0  0  0  0  0  0  0  0  0  0
   -0.5140   17.9210  -27.5110 C   0  0  0  0  0  0  0  0  0  0  0  0
    0.5210   17.9780  -28.6460 C   0  0  0  0  0  0  0  0  0  0  0  0
    0.2000   19.1090  -29.6280 C   0  0  0  0  0  0  0  0  0  0  0  0
    0.1080   20.4780  -28.9160 C   0  0  0  0  0  0  0  0  0  0  0  0
   -1.0330   24.1880  -28.1040 C   0  0  0  0  0  0  0  0  0  0  0  0
   -1.8000   24.9730  -28.9680 C   0  0  0  0  0  0  0  0  0  0  0  0
   -5.3790   24.2400  -31.9320 N   0  0  0  0  0  0  0  0  0  0  0  0
   -6.3570   23.1900  -31.9490 C   0  0  0  0  0  0  0  0  0  0  0  0
   -7.6970   23.4140  -31.5860 C   0  0  0  0  0  0  0  0  0  0  0  0
   -8.6180   22.3630  -31.5950 C   0  0  0  0  0  0  0  0  0  0  0  0
   -8.2110   21.0700  -31.9500 C   0  0  0  0  0  0  0  0  0  0  0  0
   -9.1290   20.0080  -31.9600 C   0  0  0  0  0  0  0  0  0  0  0  0
   -8.7070   18.7210  -32.3100 C   0  0  0  0  0  0  0  0  0  0  0  0
   -7.3720   18.4860  -32.6480 C   0  0  0  0  0  0  0  0  0  0  0  0
   -6.4490   19.5360  -32.6400 C   0  0  0  0  0  0  0  0  0  0  0  0
   -6.8590   20.8320  -32.2930 C   0  0  0  0  0  0  0  0  0  0  0  0
   -5.9420   21.8940  -32.2810 C   0  0  0  0  0  0  0  0  0  0  0  0
   -4.2285   22.7020  -29.7661 H   0  0  0  0  0  0  0  0  0  0  0  0
   -2.8541   21.2976  -28.2307 H   0  0  0  0  0  0  0  0  0  0  0  0
   -1.1820   19.3370  -26.0114 H   0  0  0  0  0  0  0  0  0  0  0  0
   -1.9498   19.5359  -27.6304 H   0  0  0  0  0  0  0  0  0  0  0  0
   -0.0531   17.4379  -26.6368 H   0  0  0  0  0  0  0  0  0  0  0  0
   -1.3810   17.3512  -27.8767 H   0  0  0  0  0  0  0  0  0  0  0  0
    1.5183   18.1489  -28.2146 H   0  0  0  0  0  0  0  0  0  0  0  0
    0.4945   17.0232  -29.1916 H   0  0  0  0  0  0  0  0  0  0  0  0
    0.9931   19.1559  -30.3888 H   0  0  0  0  0  0  0  0  0  0  0  0
   -0.7764   18.8961  -30.0876 H   0  0  0  0  0  0  0  0  0  0  0  0
    1.0162   21.0559  -29.1424 H   0  0  0  0  0  0  0  0  0  0  0  0
   -0.7952   20.9875  -29.2830 H   0  0  0  0  0  0  0  0  0  0  0  0
   -0.1343   24.6111  -27.6315 H   0  0  0  0  0  0  0  0  0  0  0  0
   -1.5090   26.0162  -29.1604 H   0  0  0  0  0  0  0  0  0  0  0  0
   -8.0224   24.4231  -31.2930 H   0  0  0  0  0  0  0  0  0  0  0  0
   -9.6668   22.5515  -31.3223 H   0  0  0  0  0  0  0  0  0  0  0  0
  -10.1807   20.1879  -31.6925 H   0  0  0  0  0  0  0  0  0  0  0  0
   -9.4289   17.8911  -32.3191 H   0  0  0  0  0  0  0  0  0  0  0  0
   -7.0460   17.4716  -32.9213 H   0  0  0  0  0  0  0  0  0  0  0  0
   -5.3989   19.3455  -32.9064 H   0  0  0  0  0  0  0  0  0  0  0  0
   -4.8880   21.7072  -32.5345 H   0  0  0  0  0  0  0  0  0  0  0  0
  1  2  2  0
  2  3  1  0
  3  4  1  0
  4  5  2  0
  5  6  1  0
  6  7  2  0
  7  8  1  0
  8  9  2  0
  8 10  2  0
  8 11  1  0
 11 12  1  0
 12 13  1  0
 13 14  1  0
 14 15  1  0
 15 16  1  0
  7 17  1  0
 17 18  2  0
  2 19  1  0
 19 20  1  0
 20 21  2  0
 21 22  1  0
 22 23  2  0
 23 24  1  0
 24 25  2  0
 25 26  1  0
 26 27  2  0
 27 28  1  0
 28 29  2  0
 18  4  1  0
 29 20  1  0
 16 11  1  0
 28 23  1  0
  5 30  1  0
  6 31  1  0
 12 32  1  0
 12 33  1  0
 13 34  1  0
 13 35  1  0
 14 36  1  0
 14 37  1  0
 15 38  1  0
 15 39  1  0
 16 40  1  0
 16 41  1  0
 17 42  1  0
 18 43  1  0
 21 44  1  0
 22 45  1  0
 24 46  1  0
 25 47  1  0
 26 48  1  0
 27 49  1  0
 29 50  1  0
M  CHG  2   3  -1  19  -1
M  END
>  <UniqueID>  (10) 
9

>  <SMILES>  (10) 
O=C([N-]c1ccc(S(=O)(=O)N2CCCCC2)cc1)[N-]c1ccc2ccccc2c1

>  <Energy>  (10) 
65.86190958776942

>  <Genealogy>  (10) 
O=C([N-]c1ccc(S(=O)(=O)N2CCCCC2)cc1)[N-]c1ccc2ccccc2c1 (protonated)
O=C([N-]c1ccc(S(=O)(=O)N2CCCCC2)cc1)[N-]c1ccc2ccccc2c1 (3D coordinates assigned)
O=C([N-]c1ccc(S(=O)(=O)N2CCCCC2)cc1)[N-]c1ccc2ccccc2c1 (nonaromatic ring conformer: 65.86190958776942 kcal/mol)

>  <smiles>  (10) 
O=C(Nc1ccc(S(=O)(=O)N2CCCCC2)cc1)Nc1ccc2ccccc2c1

>  <score_type>  (10) 
oracle

>  <origin>  (10) 
adgpu

>  <m_score__min__energy>  (10) 
-13.17

>  <m_primary>  (10) 
energy

$$$$
10:0
     RDKit          3D

 62 65  0  0  0  0  0  0  0  0999 V2000
   -6.1230   17.6800  -33.9860 C   0  0  0  0  0  0  0  0  0  0  0  0
   -6.3210   19.0240  -33.3740 C   0  0  0  0  0  0  0  0  0  0  0  0
   -7.5800   19.3590  -32.9540 C   0  0  0  0  0  0  0  0  0  0  0  0
   -7.8010   20.5950  -32.3710 C   0  0  0  0  0  0  0  0  0  0  0  0
   -6.8150   21.5330  -32.1810 C   0  0  0  0  0  0  0  0  0  0  0  0
   -6.9560   22.8120  -31.5530 C   0  0  0  0  0  0  0  0  0  0  0  0
   -7.9700   23.5220  -32.0190 O   0  0  0  0  0  0  0  0  0  0  0  0
   -6.2710   23.4840  -30.5650 N   0  0  0  0  0  0  0  0  0  0  0  0
   -6.8160   24.8770  -30.3030 C   0  0  0  0  0  0  0  0  0  0  0  0
   -5.5460   25.6870  -30.1000 C   0  0  0  0  0  0  0  0  0  0  0  0
   -4.4610   25.1910  -30.8240 O   0  0  0  0  0  0  0  0  0  0  0  0
   -3.9820   23.9950  -30.2780 C   0  0  0  0  0  0  0  0  0  0  0  0
   -5.1730   23.1780  -29.7240 C   0  0  0  0  0  0  0  0  0  0  0  0
   -5.5390   21.1430  -32.6300 C   0  0  0  0  0  0  0  0  0  0  0  0
   -5.2710   19.9320  -33.2110 C   0  0  0  0  0  0  0  0  0  0  0  0
   -4.0030   19.4980  -33.6520 N   0  0  0  0  0  0  0  0  0  0  0  0
   -2.8110   19.3990  -32.9290 C   0  0  0  0  0  0  0  0  0  0  0  0
   -2.7390   19.6990  -31.7030 O   0  0  0  0  0  0  0  0  0  0  0  0
   -1.6500   18.9570  -33.5690 N   0  0  0  0  0  0  0  0  0  0  0  0
   -0.3530   18.7820  -33.0370 C   0  0  0  0  0  0  0  0  0  0  0  0
    0.6980   18.6120  -33.9070 C   0  0  0  0  0  0  0  0  0  0  0  0
    1.9890   18.5060  -33.3820 C   0  0  0  0  0  0  0  0  0  0  0  0
    2.2020   18.5740  -31.9970 C   0  0  0  0  0  0  0  0  0  0  0  0
    3.5990   18.4520  -31.4760 C   0  0  0  0  0  0  0  0  0  0  0  0
    1.1620   18.7430  -31.1200 C   0  0  0  0  0  0  0  0  0  0  0  0
    1.2560   18.8270  -29.3810 S   0  0  0  0  0  0  0  0  0  0  0  0
   -0.1970   18.9700  -28.4470 C   0  0  0  0  0  0  0  0  0  0  0  0
   -1.1540   19.9500  -28.5430 C   0  0  0  0  0  0  0  0  0  0  0  0
   -0.9970   20.9510  -29.5320 N   0  0  0  0  0  0  0  0  0  0  0  0
   -2.2250   20.0130  -27.7360 N   0  0  0  0  0  0  0  0  0  0  0  0
   -2.4410   19.0940  -26.7520 C   0  0  0  0  0  0  0  0  0  0  0  0
   -1.5100   18.1160  -26.6420 N   0  0  0  0  0  0  0  0  0  0  0  0
   -0.4310   18.0190  -27.4270 C   0  0  0  0  0  0  0  0  0  0  0  0
    0.4430   17.0520  -27.2780 N   0  0  0  0  0  0  0  0  0  0  0  0
   -0.1180   18.8410  -31.6910 C   0  0  0  0  0  0  0  0  0  0  0  0
   -6.0122   16.9278  -33.1910 H   0  0  0  0  0  0  0  0  0  0  0  0
   -6.9939   17.4291  -34.6094 H   0  0  0  0  0  0  0  0  0  0  0  0
   -5.2168   17.6909  -34.6094 H   0  0  0  0  0  0  0  0  0  0  0  0
   -8.4116   18.6499  -33.0791 H   0  0  0  0  0  0  0  0  0  0  0  0
   -8.8217   20.8396  -32.0419 H   0  0  0  0  0  0  0  0  0  0  0  0
   -7.3922   25.2480  -31.1635 H   0  0  0  0  0  0  0  0  0  0  0  0
   -7.5111   24.9258  -29.4519 H   0  0  0  0  0  0  0  0  0  0  0  0
   -5.7361   26.7225  -30.4187 H   0  0  0  0  0  0  0  0  0  0  0  0
   -5.2846   25.6269  -29.0332 H   0  0  0  0  0  0  0  0  0  0  0  0
   -3.4680   23.4140  -31.0579 H   0  0  0  0  0  0  0  0  0  0  0  0
   -3.2746   24.2161  -29.4652 H   0  0  0  0  0  0  0  0  0  0  0  0
   -4.9499   22.1015  -29.7607 H   0  0  0  0  0  0  0  0  0  0  0  0
   -5.3836   23.4280  -28.6737 H   0  0  0  0  0  0  0  0  0  0  0  0
   -4.7079   21.8530  -32.5069 H   0  0  0  0  0  0  0  0  0  0  0  0
   -3.9850   19.2130  -34.6890 H   0  0  0  0  0  0  0  0  0  0  0  0
   -1.7270   18.7090  -34.6100 H   0  0  0  0  0  0  0  0  0  0  0  0
    0.5266   18.5605  -34.9923 H   0  0  0  0  0  0  0  0  0  0  0  0
    2.8444   18.3682  -34.0598 H   0  0  0  0  0  0  0  0  0  0  0  0
    3.5816   18.4535  -30.3761 H   0  0  0  0  0  0  0  0  0  0  0  0
    4.0432   17.5116  -31.8344 H   0  0  0  0  0  0  0  0  0  0  0  0
    4.1995   19.3011  -31.8344 H   0  0  0  0  0  0  0  0  0  0  0  0
   -0.2830   21.7080  -29.4570 H   0  0  0  0  0  0  0  0  0  0  0  0
   -1.5930   20.9730  -30.3850 H   0  0  0  0  0  0  0  0  0  0  0  0
   -3.3170   19.1437  -26.0886 H   0  0  0  0  0  0  0  0  0  0  0  0
   -1.6150   17.3830  -25.9030 H   0  0  0  0  0  0  0  0  0  0  0  0
    0.2460   16.3680  -26.5170 H   0  0  0  0  0  0  0  0  0  0  0  0
   -0.9785   18.9724  -31.0184 H   0  0  0  0  0  0  0  0  0  0  0  0
  1  2  1  0
  2  3  2  0
  3  4  1  0
  4  5  2  0
  5  6  1  0
  6  7  2  0
  6  8  1  0
  8  9  1  0
  9 10  1  0
 10 11  1  0
 11 12  1  0
 12 13  1  0
  5 14  1  0
 14 15  2  0
 15 16  1  0
 16 17  1  0
 17 18  2  0
 17 19  1  0
 19 20  1  0
 20 21  2  0
 21 22  1  0
 22 23  2  0
 23 24  1  0
 23 25  1  0
 25 26  1  0
 26 27  1  0
 27 28  2  0
 28 29  1  0
 28 30  1  0
 30 31  2  0
 31 32  1  0
 32 33  1  0
 33 34  2  3
 25 35  2  0
 15  2  1  0
 35 20  1  0
 13  8  1  0
 33 27  1  0
  1 36  1  0
  1 37  1  0
  1 38  1  0
  3 39  1  0
  4 40  1  0
  9 41  1  0
  9 42  1  0
 10 43  1  0
 10 44  1  0
 12 45  1  0
 12 46  1  0
 13 47  1  0
 13 48  1  0
 14 49  1  0
 16 50  1  0
 19 51  1  0
 21 52  1  0
 22 53  1  0
 24 54  1  0
 24 55  1  0
 24 56  1  0
 29 57  1  0
 29 58  1  0
 31 59  1  0
 32 60  1  0
 34 61  1  0
 35 62  1  0
M  END
>  <smiles>  (11) 
Cc1ccc(C(=O)N2CCOCC2)cc1NC(=O)Nc1ccc(C)c(Sc2c(N)nc[nH]c2=N)c1

>  <score_type>  (11) 
oracle

>  <origin>  (11) 
adgpu

>  <m_score__min__energy>  (11) 
-10.470000000000001

>  <m_primary>  (11) 
energy

$$$$
11:0
     RDKit          3D

 63 66  0  0  0  0  0  0  0  0999 V2000
    1.3400   28.3990  -23.3790 C   0  0  0  0  0  0  0  0  0  0  0  0
    1.0830   28.1770  -24.8100 N   0  0  0  0  0  0  0  0  0  0  0  0
   -0.3270   28.5040  -25.1380 C   0  0  0  0  0  0  0  0  0  0  0  0
   -0.7800   27.8180  -26.4280 C   0  0  0  0  0  0  0  0  0  0  0  0
   -0.7620   26.2840  -26.2570 C   0  0  0  0  0  0  0  0  0  0  0  0
   -0.6360   25.4740  -27.8550 S   0  0  0  0  0  0  0  0  0  0  0  0
   -0.9140   26.4630  -28.9520 O   0  0  0  0  0  0  0  0  0  0  0  0
    0.7660   24.9650  -28.0440 O   0  0  0  0  0  0  0  0  0  0  0  0
   -1.7640   24.0990  -27.8980 C   0  0  0  0  0  0  0  0  0  0  0  0
   -1.5750   22.9370  -27.1110 C   0  0  0  0  0  0  0  0  0  0  0  0
   -0.2090   22.7180  -26.0230 Cl  0  0  0  0  0  0  0  0  0  0  0  0
   -2.4940   21.8860  -27.1900 C   0  0  0  0  0  0  0  0  0  0  0  0
   -3.5790   21.9550  -28.0630 C   0  0  0  0  0  0  0  0  0  0  0  0
   -3.7520   23.0690  -28.8880 C   0  0  0  0  0  0  0  0  0  0  0  0
   -4.8630   23.0980  -29.7960 N   0  0  0  0  0  0  0  0  0  0  0  0
   -4.7150   23.2630  -31.2120 C   0  0  0  0  0  0  0  0  0  0  0  0
   -3.5660   23.3150  -31.7300 O   0  0  0  0  0  0  0  0  0  0  0  0
   -5.8860   23.3820  -32.0280 N   0  0  0  0  0  0  0  0  0  0  0  0
   -7.0330   22.5170  -32.0140 C   0  0  0  0  0  0  0  0  0  0  0  0
   -8.3060   23.0940  -31.9450 C   0  0  0  0  0  0  0  0  0  0  0  0
   -9.4480   22.2880  -31.9110 C   0  0  0  0  0  0  0  0  0  0  0  0
   -9.3260   20.8970  -31.9280 C   0  0  0  0  0  0  0  0  0  0  0  0
   -8.0560   20.3050  -31.9660 C   0  0  0  0  0  0  0  0  0  0  0  0
   -7.8870   18.5530  -31.9670 S   0  0  0  0  0  0  0  0  0  0  0  0
   -6.9940   18.1220  -30.8360 O   0  0  0  0  0  0  0  0  0  0  0  0
   -9.2440   17.9330  -31.7840 O   0  0  0  0  0  0  0  0  0  0  0  0
   -7.2090   18.0350  -33.4910 N   0  0  0  0  0  0  0  0  0  0  0  0
   -6.1530   18.9410  -33.9420 C   0  0  0  0  0  0  0  0  0  0  0  0
   -5.2100   18.1150  -34.8030 C   0  0  0  0  0  0  0  0  0  0  0  0
   -5.4970   16.6660  -34.4430 C   0  0  0  0  0  0  0  0  0  0  0  0
   -6.5750   16.7230  -33.3710 C   0  0  0  0  0  0  0  0  0  0  0  0
   -6.9130   21.1140  -32.0050 C   0  0  0  0  0  0  0  0  0  0  0  0
   -2.8590   24.1530  -28.7860 C   0  0  0  0  0  0  0  0  0  0  0  0
   -3.0750   25.2910  -29.5570 O   0  0  0  0  0  0  0  0  0  0  0  0
    0.3530   25.8170  -25.2930 C   0  0  0  0  0  0  0  0  0  0  0  0
    1.5140   26.8200  -25.2350 C   0  0  0  0  0  0  0  0  0  0  0  0
    0.6405   27.7947  -22.7828 H   0  0  0  0  0  0  0  0  0  0  0  0
    2.3730   28.1045  -23.1420 H   0  0  0  0  0  0  0  0  0  0  0  0
    1.1988   29.4638  -23.1420 H   0  0  0  0  0  0  0  0  0  0  0  0
   -0.9720   28.1711  -24.3115 H   0  0  0  0  0  0  0  0  0  0  0  0
   -0.4027   29.5918  -25.2826 H   0  0  0  0  0  0  0  0  0  0  0  0
   -1.8020   28.1435  -26.6719 H   0  0  0  0  0  0  0  0  0  0  0  0
   -0.0912   28.0945  -27.2399 H   0  0  0  0  0  0  0  0  0  0  0  0
   -1.7161   25.9894  -25.7956 H   0  0  0  0  0  0  0  0  0  0  0  0
   -2.3596   20.9962  -26.5573 H   0  0  0  0  0  0  0  0  0  0  0  0
   -4.3028   21.1276  -28.1023 H   0  0  0  0  0  0  0  0  0  0  0  0
   -5.8050   22.8220  -29.4360 H   0  0  0  0  0  0  0  0  0  0  0  0
   -8.4089   24.1888  -31.9173 H   0  0  0  0  0  0  0  0  0  0  0  0
  -10.4451   22.7508  -31.8708 H   0  0  0  0  0  0  0  0  0  0  0  0
  -10.2267   20.2657  -31.9116 H   0  0  0  0  0  0  0  0  0  0  0  0
   -6.5845   19.7627  -34.5325 H   0  0  0  0  0  0  0  0  0  0  0  0
   -5.6221   19.3875  -33.0883 H   0  0  0  0  0  0  0  0  0  0  0  0
   -5.4085   18.2927  -35.8702 H   0  0  0  0  0  0  0  0  0  0  0  0
   -4.1572   18.3793  -34.6250 H   0  0  0  0  0  0  0  0  0  0  0  0
   -5.8585   16.1148  -35.3236 H   0  0  0  0  0  0  0  0  0  0  0  0
   -4.5948   16.1456  -34.0892 H   0  0  0  0  0  0  0  0  0  0  0  0
   -7.3158   15.9264  -33.5340 H   0  0  0  0  0  0  0  0  0  0  0  0
   -6.1474   16.5774  -32.3680 H   0  0  0  0  0  0  0  0  0  0  0  0
   -5.9157   20.6505  -32.0287 H   0  0  0  0  0  0  0  0  0  0  0  0
   -0.0719   25.7056  -24.2845 H   0  0  0  0  0  0  0  0  0  0  0  0
    0.7469   24.8594  -25.6643 H   0  0  0  0  0  0  0  0  0  0  0  0
    2.2631   26.4493  -24.5199 H   0  0  0  0  0  0  0  0  0  0  0  0
    1.9270   26.9071  -26.2508 H   0  0  0  0  0  0  0  0  0  0  0  0
  1  2  1  0
  2  3  1  0
  3  4  1  0
  4  5  1  0
  5  6  1  0
  6  7  2  0
  6  8  2  0
  6  9  1  0
  9 10  2  0
 10 11  1  0
 10 12  1  0
 12 13  2  0
 13 14  1  0
 14 15  1  0
 15 16  1  0
 16 17  2  0
 16 18  1  0
 18 19  1  0
 19 20  2  0
 20 21  1  0
 21 22  2  0
 22 23  1  0
 23 24  1  0
 24 25  2  0
 24 26  2  0
 24 27  1  0
 27 28  1  0
 28 29  1  0
 29 30  1  0
 30 31  1  0
 23 32  2  0
 14 33  2  0
 33 34  1  0
  5 35  1  0
 35 36  1  0
 36  2  1  0
 33  9  1  0
 32 19  1  0
 31 27  1  0
  1 37  1  0
  1 38  1  0
  1 39  1  0
  3 40  1  0
  3 41  1  0
  4 42  1  0
  4 43  1  0
  5 44  1  0
 12 45  1  0
 13 46  1  0
 15 47  1  0
 20 48  1  0
 21 49  1  0
 22 50  1  0
 28 51  1  0
 28 52  1  0
 29 53  1  0
 29 54  1  0
 30 55  1  0
 30 56  1  0
 31 57  1  0
 31 58  1  0
 32 59  1  0
 35 60  1  0
 35 61  1  0
 36 62  1  0
 36 63  1  0
M  CHG  2  18  -1  34  -1
M  END
>  <UniqueID>  (12) 
10

>  <SMILES>  (12) 
CN1CCC(S(=O)(=O)c2c(Cl)ccc(NC(=O)[N-]c3cccc(S(=O)(=O)N4CCCC4)c3)c2[O-])CC1

>  <Energy>  (12) 
82.28347811086839

>  <Genealogy>  (12) 
CN1CCC(S(=O)(=O)c2c(Cl)ccc(NC(=O)[N-]c3cccc(S(=O)(=O)N4CCCC4)c3)c2[O-])CC1 (protonated)
CN1CCC(S(=O)(=O)c2c(Cl)ccc(NC(=O)[N-]c3cccc(S(=O)(=O)N4CCCC4)c3)c2[O-])CC1 (3D coordinates assigned)
CN1CCC(S(=O)(=O)c2c(Cl)ccc(NC(=O)[N-]c3cccc(S(=O)(=O)N4CCCC4)c3)c2[O-])CC1 (nonaromatic ring conformer: 82.28347811086839 kcal/mol)

>  <smiles>  (12) 
CN1CCC(S(=O)(=O)c2c(Cl)ccc(NC(=O)Nc3cccc(S(=O)(=O)N4CCCC4)c3)c2O)CC1

>  <score_type>  (12) 
oracle

>  <origin>  (12) 
adgpu

>  <m_score__min__energy>  (12) 
-15.44

>  <m_primary>  (12) 
energy

$$$$
12:0
     RDKit          3D

 57 59  0  0  0  0  0  0  0  0999 V2000
   -0.5500   24.8840  -24.9350 C   0  0  0  0  0  0  0  0  0  0  0  0
   -1.2290   24.9100  -26.2710 C   0  0  0  0  0  0  0  0  0  0  0  0
   -0.5100   25.2480  -27.4290 C   0  0  0  0  0  0  0  0  0  0  0  0
   -1.1410   25.2440  -28.6760 C   0  0  0  0  0  0  0  0  0  0  0  0
   -2.4860   24.8680  -28.7890 C   0  0  0  0  0  0  0  0  0  0  0  0
   -3.1160   24.9230  -30.0760 N   0  0  0  0  0  0  0  0  0  0  0  0
   -4.4770   24.5950  -30.3820 C   0  0  0  0  0  0  0  0  0  0  0  0
   -5.1220   25.3530  -31.1540 O   0  0  0  0  0  0  0  0  0  0  0  0
   -5.0920   23.2870  -29.9610 C   0  0  0  0  0  0  0  0  0  0  0  0
   -4.3570   22.1490  -30.5220 N   0  0  0  0  0  0  0  0  0  0  0  0
   -3.1260   21.7150  -29.9250 C   0  0  0  0  0  0  0  0  0  0  0  0
   -1.9370   21.7480  -30.6640 C   0  0  0  0  0  0  0  0  0  0  0  0
   -0.7330   21.3620  -30.0760 C   0  0  0  0  0  0  0  0  0  0  0  0
   -0.7030   20.9500  -28.7410 C   0  0  0  0  0  0  0  0  0  0  0  0
   -1.8840   20.9050  -27.9810 C   0  0  0  0  0  0  0  0  0  0  0  0
   -1.8210   20.5130  -26.5470 C   0  0  0  0  0  0  0  0  0  0  0  0
   -1.4490   21.3770  -25.7000 O   0  0  0  0  0  0  0  0  0  0  0  0
   -2.2210   19.1940  -26.0950 N   0  0  0  0  0  0  0  0  0  0  0  0
   -3.6480   18.9570  -26.3740 C   0  0  0  0  0  0  0  0  0  0  0  0
   -1.3920   18.1690  -26.7490 C   0  0  0  0  0  0  0  0  0  0  0  0
   -3.0980   21.2770  -28.5920 C   0  0  0  0  0  0  0  0  0  0  0  0
   -4.8860   21.4260  -32.0110 S   0  0  0  0  0  0  0  0  0  0  0  0
   -4.4210   22.2670  -33.1680 O   0  0  0  0  0  0  0  0  0  0  0  0
   -4.2780   20.0580  -32.1570 O   0  0  0  0  0  0  0  0  0  0  0  0
   -6.6420   21.2930  -32.0270 C   0  0  0  0  0  0  0  0  0  0  0  0
   -7.2480   20.0440  -32.2340 C   0  0  0  0  0  0  0  0  0  0  0  0
   -8.6410   19.9300  -32.2340 C   0  0  0  0  0  0  0  0  0  0  0  0
   -9.4370   21.0600  -32.0280 C   0  0  0  0  0  0  0  0  0  0  0  0
   -8.8380   22.3080  -31.8220 C   0  0  0  0  0  0  0  0  0  0  0  0
   -7.4450   22.4250  -31.8230 C   0  0  0  0  0  0  0  0  0  0  0  0
   -3.2070   24.5370  -27.6300 C   0  0  0  0  0  0  0  0  0  0  0  0
   -2.5790   24.5440  -26.3820 C   0  0  0  0  0  0  0  0  0  0  0  0
   -1.3076   24.9130  -24.1380 H   0  0  0  0  0  0  0  0  0  0  0  0
    0.0436   23.9625  -24.8433 H   0  0  0  0  0  0  0  0  0  0  0  0
    0.1123   25.7574  -24.8433 H   0  0  0  0  0  0  0  0  0  0  0  0
    0.5540   25.5169  -27.3543 H   0  0  0  0  0  0  0  0  0  0  0  0
   -0.5783   25.5379  -29.5743 H   0  0  0  0  0  0  0  0  0  0  0  0
   -5.0742   23.2193  -28.8632 H   0  0  0  0  0  0  0  0  0  0  0  0
   -6.1256   23.2522  -30.3357 H   0  0  0  0  0  0  0  0  0  0  0  0
   -1.9529   22.0798  -31.7127 H   0  0  0  0  0  0  0  0  0  0  0  0
    0.1960   21.3819  -30.6648 H   0  0  0  0  0  0  0  0  0  0  0  0
    0.2529   20.6586  -28.2814 H   0  0  0  0  0  0  0  0  0  0  0  0
   -2.1030   19.1180  -25.0580 H   0  0  0  0  0  0  0  0  0  0  0  0
   -4.1969   18.8658  -25.4251 H   0  0  0  0  0  0  0  0  0  0  0  0
   -4.0534   19.8001  -26.9526 H   0  0  0  0  0  0  0  0  0  0  0  0
   -3.7591   18.0281  -26.9526 H   0  0  0  0  0  0  0  0  0  0  0  0
   -0.8956   17.5552  -25.9829 H   0  0  0  0  0  0  0  0  0  0  0  0
   -2.0287   17.5280  -27.3765 H   0  0  0  0  0  0  0  0  0  0  0  0
   -0.6320   18.6576  -27.3765 H   0  0  0  0  0  0  0  0  0  0  0  0
   -4.0346   21.2235  -28.0175 H   0  0  0  0  0  0  0  0  0  0  0  0
   -6.6248   19.1523  -32.3967 H   0  0  0  0  0  0  0  0  0  0  0  0
   -9.1116   18.9491  -32.3964 H   0  0  0  0  0  0  0  0  0  0  0  0
  -10.5332   20.9687  -32.0278 H   0  0  0  0  0  0  0  0  0  0  0  0
   -9.4640   23.1977  -31.6591 H   0  0  0  0  0  0  0  0  0  0  0  0
   -6.9771   23.4077  -31.6633 H   0  0  0  0  0  0  0  0  0  0  0  0
   -4.2717   24.2709  -27.7053 H   0  0  0  0  0  0  0  0  0  0  0  0
   -3.1454   24.2613  -25.4824 H   0  0  0  0  0  0  0  0  0  0  0  0
  1  2  1  0
  2  3  2  0
  3  4  1  0
  4  5  2  0
  5  6  1  0
  6  7  1  0
  7  8  2  0
  7  9  1  0
  9 10  1  0
 10 11  1  0
 11 12  2  0
 12 13  1  0
 13 14  2  0
 14 15  1  0
 15 16  1  0
 16 17  2  0
 16 18  1  0
 18 19  1  0
 18 20  1  0
 15 21  2  0
 10 22  1  0
 22 23  2  0
 22 24  2  0
 22 25  1  0
 25 26  2  0
 26 27  1  0
 27 28  2  0
 28 29  1  0
 29 30  2  0
  5 31  1  0
 31 32  2  0
 32  2  1  0
 21 11  1  0
 30 25  1  0
  1 33  1  0
  1 34  1  0
  1 35  1  0
  3 36  1  0
  4 37  1  0
  9 38  1  0
  9 39  1  0
 12 40  1  0
 13 41  1  0
 14 42  1  0
 18 43  1  0
 19 44  1  0
 19 45  1  0
 19 46  1  0
 20 47  1  0
 20 48  1  0
 20 49  1  0
 21 50  1  0
 26 51  1  0
 27 52  1  0
 28 53  1  0
 29 54  1  0
 30 55  1  0
 31 56  1  0
 32 57  1  0
M  CHG  2   6  -1  18   1
M  END
>  <UniqueID>  (13) 
11

>  <SMILES>  (13) 
Cc1ccc([N-]C(=O)CN(c2cccc(C(=O)[NH+](C)C)c2)S(=O)(=O)c2ccccc2)cc1

>  <Energy>  (13) 
71.01164772736284

>  <Genealogy>  (13) 
Cc1ccc([N-]C(=O)CN(c2cccc(C(=O)[NH+](C)C)c2)S(=O)(=O)c2ccccc2)cc1 (protonated)
Cc1ccc([N-]C(=O)CN(c2cccc(C(=O)[NH+](C)C)c2)S(=O)(=O)c2ccccc2)cc1 (3D coordinates assigned)
Cc1ccc([N-]C(=O)CN(c2cccc(C(=O)[NH+](C)C)c2)S(=O)(=O)c2ccccc2)cc1 (optimized conformer: 71.01164772736284 kcal/mol)

>  <smiles>  (13) 
Cc1ccc(NC(=O)CN(c2cccc(C(=O)N(C)C)c2)S(=O)(=O)c2ccccc2)cc1

>  <score_type>  (13) 
oracle

>  <origin>  (13) 
adgpu

>  <m_score__min__energy>  (13) 
-11.6

>  <m_primary>  (13) 
energy

$$$$
13:0
     RDKit          3D

 31 32  0  0  0  0  0  0  0  0999 V2000
   -5.9840   17.1890  -31.9370 C   0  0  0  0  0  0  0  0  0  0  0  0
   -5.8180   18.6900  -31.7250 C   0  0  0  0  0  0  0  0  0  0  0  0
   -7.1310   19.4110  -31.9270 C   0  0  0  0  0  0  0  0  0  0  0  0
   -8.2510   18.6740  -32.3490 C   0  0  0  0  0  0  0  0  0  0  0  0
   -9.4800   19.3040  -32.5530 C   0  0  0  0  0  0  0  0  0  0  0  0
   -9.6030   20.6790  -32.3500 C   0  0  0  0  0  0  0  0  0  0  0  0
   -8.4970   21.4280  -31.9430 C   0  0  0  0  0  0  0  0  0  0  0  0
   -7.2560   20.8060  -31.7200 C   0  0  0  0  0  0  0  0  0  0  0  0
   -6.1160   21.5960  -31.3400 N   0  0  0  0  0  0  0  0  0  0  0  0
   -6.1690   22.6150  -30.3250 C   0  0  0  0  0  0  0  0  0  0  0  0
   -7.2590   22.8600  -29.7380 O   0  0  0  0  0  0  0  0  0  0  0  0
   -4.9600   23.3840  -29.9470 C   0  0  0  0  0  0  0  0  0  0  0  0
   -4.1480   22.9960  -28.8670 C   0  0  0  0  0  0  0  0  0  0  0  0
   -3.0190   23.7470  -28.5310 C   0  0  0  0  0  0  0  0  0  0  0  0
   -2.7120   24.8900  -29.2730 C   0  0  0  0  0  0  0  0  0  0  0  0
   -1.6980   25.5780  -28.9840 O   0  0  0  0  0  0  0  0  0  0  0  0
   -3.5100   25.2630  -30.3070 N   0  0  0  0  0  0  0  0  0  0  0  0
   -4.6150   24.5500  -30.6520 C   0  0  0  0  0  0  0  0  0  0  0  0
   -6.0398   16.6848  -30.9610 H   0  0  0  0  0  0  0  0  0  0  0  0
   -6.9087   16.9985  -32.5015 H   0  0  0  0  0  0  0  0  0  0  0  0
   -5.1233   16.8010  -32.5015 H   0  0  0  0  0  0  0  0  0  0  0  0
   -5.4610   18.8719  -30.7006 H   0  0  0  0  0  0  0  0  0  0  0  0
   -5.0914   19.0705  -32.4579 H   0  0  0  0  0  0  0  0  0  0  0  0
   -8.1583   17.5913  -32.5200 H   0  0  0  0  0  0  0  0  0  0  0  0
  -10.3523   18.7158  -32.8741 H   0  0  0  0  0  0  0  0  0  0  0  0
  -10.5723   21.1735  -32.5108 H   0  0  0  0  0  0  0  0  0  0  0  0
   -8.5975   22.5134  -31.7957 H   0  0  0  0  0  0  0  0  0  0  0  0
   -5.2110   21.4000  -31.8200 H   0  0  0  0  0  0  0  0  0  0  0  0
   -4.4024   22.0982  -28.2846 H   0  0  0  0  0  0  0  0  0  0  0  0
   -2.3783   23.4414  -27.6907 H   0  0  0  0  0  0  0  0  0  0  0  0
   -5.2436   24.8881  -31.4890 H   0  0  0  0  0  0  0  0  0  0  0  0
  1  2  1  0
  2  3  1  0
  3  4  2  0
  4  5  1  0
  5  6  2  0
  6  7  1  0
  7  8  2  0
  8  9  1  0
  9 10  1  0
 10 11  2  0
 10 12  1  0
 12 13  1  0
 13 14  2  0
 14 15  1  0
 15 16  2  0
 15 17  1  0
 17 18  1  0
  8  3  1  0
 18 12  2  0
  1 19  1  0
  1 20  1  0
  1 21  1  0
  2 22  1  0
  2 23  1  0
  4 24  1  0
  5 25  1  0
  6 26  1  0
  7 27  1  0
  9 28  1  0
 13 29  1  0
 14 30  1  0
 18 31  1  0
M  CHG  1  17  -1
M  END
>  <UniqueID>  (14) 
12

>  <SMILES>  (14) 
CCc1ccccc1NC(=O)c1ccc(=O)[n-]c1

>  <Energy>  (14) 
37.316196375218524

>  <Genealogy>  (14) 
CCc1ccccc1NC(=O)c1ccc(=O)[n-]c1 (protonated)
CCc1ccccc1NC(=O)c1ccc(=O)[n-]c1 (3D coordinates assigned)
CCc1ccccc1NC(=O)c1ccc(=O)[n-]c1 (optimized conformer: 37.316196375218524 kcal/mol)

>  <smiles>  (14) 
CCc1ccccc1NC(=O)c1ccc(=O)[nH]c1

>  <score_type>  (14) 
oracle

>  <origin>  (14) 
adgpu

>  <m_score__min__energy>  (14) 
-9.1500000000000004

>  <m_primary>  (14) 
energy

$$$$
14:0
     RDKit          3D

 55 58  0  0  0  0  0  0  0  0999 V2000
   -5.5920   26.4110  -30.7620 O   0  0  0  0  0  0  0  0  0  0  0  0
   -5.0450   25.2750  -30.8220 C   0  0  0  0  0  0  0  0  0  0  0  0
   -3.6640   25.1580  -30.4550 N   0  0  0  0  0  0  0  0  0  0  0  0
   -3.1280   24.3470  -29.3980 C   0  0  0  0  0  0  0  0  0  0  0  0
   -3.8660   23.2980  -28.8210 C   0  0  0  0  0  0  0  0  0  0  0  0
   -3.3210   22.5510  -27.7750 C   0  0  0  0  0  0  0  0  0  0  0  0
   -2.0340   22.8290  -27.3080 C   0  0  0  0  0  0  0  0  0  0  0  0
   -1.2690   23.8390  -27.9070 C   0  0  0  0  0  0  0  0  0  0  0  0
    0.3680   24.1870  -27.3270 S   0  0  0  0  0  0  0  0  0  0  0  0
    0.9410   22.9480  -26.6940 O   0  0  0  0  0  0  0  0  0  0  0  0
    1.2350   24.5470  -28.5040 O   0  0  0  0  0  0  0  0  0  0  0  0
    0.4030   25.4730  -26.1350 N   0  0  0  0  0  0  0  0  0  0  0  0
   -0.1200   26.7410  -26.6750 C   0  0  0  0  0  0  0  0  0  0  0  0
   -1.1540   27.2750  -25.7010 C   0  0  0  0  0  0  0  0  0  0  0  0
   -1.5780   26.0720  -24.8900 C   0  0  0  0  0  0  0  0  0  0  0  0
   -0.3810   25.1410  -24.9360 C   0  0  0  0  0  0  0  0  0  0  0  0
   -1.8210   24.5890  -28.9590 C   0  0  0  0  0  0  0  0  0  0  0  0
   -5.8520   24.1010  -31.2350 C   0  0  0  0  0  0  0  0  0  0  0  0
   -7.2400   24.0610  -31.0120 C   0  0  0  0  0  0  0  0  0  0  0  0
   -7.9840   22.9400  -31.3930 C   0  0  0  0  0  0  0  0  0  0  0  0
   -7.3530   21.8540  -32.0030 C   0  0  0  0  0  0  0  0  0  0  0  0
   -5.9730   21.8880  -32.2460 C   0  0  0  0  0  0  0  0  0  0  0  0
   -5.1550   20.5410  -33.0320 S   0  0  0  0  0  0  0  0  0  0  0  0
   -5.9350   20.0420  -34.2160 O   0  0  0  0  0  0  0  0  0  0  0  0
   -5.0170   19.4170  -32.0440 O   0  0  0  0  0  0  0  0  0  0  0  0
   -3.5760   21.0490  -33.5420 N   0  0  0  0  0  0  0  0  0  0  0  0
   -2.4270   21.1010  -32.6730 C   0  0  0  0  0  0  0  0  0  0  0  0
   -1.1400   21.0910  -33.2390 C   0  0  0  0  0  0  0  0  0  0  0  0
   -0.0040   21.1790  -32.4270 C   0  0  0  0  0  0  0  0  0  0  0  0
   -0.1400   21.2790  -31.0420 C   0  0  0  0  0  0  0  0  0  0  0  0
   -1.4130   21.2780  -30.4660 C   0  0  0  0  0  0  0  0  0  0  0  0
   -2.5520   21.1960  -31.2740 C   0  0  0  0  0  0  0  0  0  0  0  0
   -5.2290   23.0130  -31.8670 C   0  0  0  0  0  0  0  0  0  0  0  0
   -4.8743   23.0657  -29.1945 H   0  0  0  0  0  0  0  0  0  0  0  0
   -3.9071   21.7406  -27.3169 H   0  0  0  0  0  0  0  0  0  0  0  0
   -1.6197   22.2532  -26.4673 H   0  0  0  0  0  0  0  0  0  0  0  0
    0.6996   27.4665  -26.7841 H   0  0  0  0  0  0  0  0  0  0  0  0
   -0.5749   26.5766  -27.6629 H   0  0  0  0  0  0  0  0  0  0  0  0
   -0.7127   28.0447  -25.0508 H   0  0  0  0  0  0  0  0  0  0  0  0
   -2.0029   27.7492  -26.2153 H   0  0  0  0  0  0  0  0  0  0  0  0
   -1.8050   26.3623  -23.8536 H   0  0  0  0  0  0  0  0  0  0  0  0
   -2.4895   25.6008  -25.2864 H   0  0  0  0  0  0  0  0  0  0  0  0
    0.2356   25.2800  -24.0357 H   0  0  0  0  0  0  0  0  0  0  0  0
   -0.7118   24.0925  -24.9722 H   0  0  0  0  0  0  0  0  0  0  0  0
   -1.2205   25.3738  -29.4422 H   0  0  0  0  0  0  0  0  0  0  0  0
   -7.7427   24.9156  -30.5356 H   0  0  0  0  0  0  0  0  0  0  0  0
   -9.0686   22.9137  -31.2118 H   0  0  0  0  0  0  0  0  0  0  0  0
   -7.9400   20.9702  -32.2934 H   0  0  0  0  0  0  0  0  0  0  0  0
   -3.4470   21.2300  -34.5630 H   0  0  0  0  0  0  0  0  0  0  0  0
   -1.0252   21.0133  -34.3302 H   0  0  0  0  0  0  0  0  0  0  0  0
    0.9978   21.1693  -32.8812 H   0  0  0  0  0  0  0  0  0  0  0  0
    0.7531   21.3585  -30.4048 H   0  0  0  0  0  0  0  0  0  0  0  0
   -1.5199   21.3419  -29.3731 H   0  0  0  0  0  0  0  0  0  0  0  0
   -3.5510   21.2058  -30.8136 H   0  0  0  0  0  0  0  0  0  0  0  0
   -4.1476   23.0442  -32.0663 H   0  0  0  0  0  0  0  0  0  0  0  0
  1  2  2  0
  2  3  1  0
  3  4  1  0
  4  5  2  0
  5  6  1  0
  6  7  2  0
  7  8  1  0
  8  9  1  0
  9 10  2  0
  9 11  2  0
  9 12  1  0
 12 13  1  0
 13 14  1  0
 14 15  1  0
 15 16  1  0
  8 17  2  0
  2 18  1  0
 18 19  2  0
 19 20  1  0
 20 21  2  0
 21 22  1  0
 22 23  1  0
 23 24  2  0
 23 25  2  0
 23 26  1  0
 26 27  1  0
 27 28  2  0
 28 29  1  0
 29 30  2  0
 30 31  1  0
 31 32  2  0
 22 33  2  0
 17  4  1  0
 33 18  1  0
 16 12  1  0
 32 27  1  0
  5 34  1  0
  6 35  1  0
  7 36  1  0
 13 37  1  0
 13 38  1  0
 14 39  1  0
 14 40  1  0
 15 41  1  0
 15 42  1  0
 16 43  1  0
 16 44  1  0
 17 45  1  0
 19 46  1  0
 20 47  1  0
 21 48  1  0
 26 49  1  0
 28 50  1  0
 29 51  1  0
 30 52  1  0
 31 53  1  0
 32 54  1  0
 33 55  1  0
M  CHG  1   3  -1
M  END
>  <UniqueID>  (15) 
13

>  <SMILES>  (15) 
O=C([N-]c1cccc(S(=O)(=O)N2CCCC2)c1)c1cccc(S(=O)(=O)Nc2ccccc2)c1

>  <Energy>  (15) 
70.37158447261525

>  <Genealogy>  (15) 
O=C([N-]c1cccc(S(=O)(=O)N2CCCC2)c1)c1cccc(S(=O)(=O)Nc2ccccc2)c1 (protonated)
O=C([N-]c1cccc(S(=O)(=O)N2CCCC2)c1)c1cccc(S(=O)(=O)Nc2ccccc2)c1 (3D coordinates assigned)
O=C([N-]c1cccc(S(=O)(=O)N2CCCC2)c1)c1cccc(S(=O)(=O)Nc2ccccc2)c1 (nonaromatic ring conformer: 70.37158447261525 kcal/mol)

>  <smiles>  (15) 
O=C(Nc1cccc(S(=O)(=O)N2CCCC2)c1)c1cccc(S(=O)(=O)Nc2ccccc2)c1

>  <score_type>  (15) 
oracle

>  <origin>  (15) 
adgpu

>  <m_score__min__energy>  (15) 
-12.19

>  <m_primary>  (15) 
energy

$$$$
15:0
     RDKit          3D

 45 48  0  0  0  0  0  0  0  0999 V2000
   -3.4080   16.1060  -36.5680 H   0  0  0  0  0  0  0  0  0  0  0  0
   -3.8830   15.9650  -35.6840 O   0  0  0  0  0  0  0  0  0  0  0  0
   -4.3040   17.0400  -34.9040 C   0  0  0  0  0  0  0  0  0  0  0  0
   -5.6270   17.5010  -34.9770 C   0  0  0  0  0  0  0  0  0  0  0  0
   -6.3418   17.0105  -35.6540 H   0  0  0  0  0  0  0  0  0  0  0  0
   -6.0400   18.5820  -34.1920 C   0  0  0  0  0  0  0  0  0  0  0  0
   -7.0772   18.9431  -34.2537 H   0  0  0  0  0  0  0  0  0  0  0  0
   -5.1300   19.2050  -33.3260 C   0  0  0  0  0  0  0  0  0  0  0  0
   -5.4960   20.3040  -32.5500 C   0  0  0  0  0  0  0  0  0  0  0  0
   -6.5255   20.6890  -32.5951 H   0  0  0  0  0  0  0  0  0  0  0  0
   -4.5550   20.9200  -31.7120 C   0  0  0  0  0  0  0  0  0  0  0  0
   -4.9240   22.2320  -31.1330 C   0  0  0  0  0  0  0  0  0  0  0  0
   -6.1520   22.4000  -30.4760 C   0  0  0  0  0  0  0  0  0  0  0  0
   -6.8293   21.5419  -30.3536 H   0  0  0  0  0  0  0  0  0  0  0  0
   -6.5190   23.6530  -29.9760 C   0  0  0  0  0  0  0  0  0  0  0  0
   -7.4774   23.7748  -29.4500 H   0  0  0  0  0  0  0  0  0  0  0  0
   -5.6710   24.7510  -30.1430 C   0  0  0  0  0  0  0  0  0  0  0  0
   -6.0320   25.9940  -29.6370 O   0  0  0  0  0  0  0  0  0  0  0  0
   -4.4630   24.6010  -30.8290 C   0  0  0  0  0  0  0  0  0  0  0  0
   -3.7987   25.4666  -30.9680 H   0  0  0  0  0  0  0  0  0  0  0  0
   -4.0980   23.3510  -31.3390 C   0  0  0  0  0  0  0  0  0  0  0  0
   -3.1604   23.2428  -31.9039 H   0  0  0  0  0  0  0  0  0  0  0  0
   -3.2500   20.3480  -31.6320 C   0  0  0  0  0  0  0  0  0  0  0  0
   -2.3210   20.7510  -30.8060 N   0  0  0  0  0  0  0  0  0  0  0  0
   -2.4360   21.6390  -29.6880 C   0  0  0  0  0  0  0  0  0  0  0  0
   -3.4920   21.4830  -28.7840 C   0  0  0  0  0  0  0  0  0  0  0  0
   -4.1798   20.6306  -28.8854 H   0  0  0  0  0  0  0  0  0  0  0  0
   -3.6750   22.4070  -27.7530 C   0  0  0  0  0  0  0  0  0  0  0  0
   -4.4771   22.2557  -27.0156 H   0  0  0  0  0  0  0  0  0  0  0  0
   -2.8400   23.5240  -27.6570 C   0  0  0  0  0  0  0  0  0  0  0  0
   -2.9973   24.2553  -26.8505 H   0  0  0  0  0  0  0  0  0  0  0  0
   -1.8010   23.7200  -28.5830 C   0  0  0  0  0  0  0  0  0  0  0  0
   -1.0440   24.9920  -28.5670 C   0  0  0  0  0  0  0  0  0  0  0  0
   -1.6140   26.0410  -28.9660 O   0  0  0  0  0  0  0  0  0  0  0  0
    0.3120   25.0870  -28.1110 N   0  0  0  0  0  0  0  0  0  0  0  0
    1.0610   24.0080  -27.4860 C   0  0  0  0  0  0  0  0  0  0  0  0
    0.9957   24.1021  -26.3920 H   0  0  0  0  0  0  0  0  0  0  0  0
    0.6390   23.0408  -27.7967 H   0  0  0  0  0  0  0  0  0  0  0  0
    2.1147   24.0651  -27.7967 H   0  0  0  0  0  0  0  0  0  0  0  0
   -1.6020   22.7660  -29.5980 C   0  0  0  0  0  0  0  0  0  0  0  0
   -0.7884   22.9035  -30.3255 H   0  0  0  0  0  0  0  0  0  0  0  0
   -2.9400   19.3240  -32.4260 O   0  0  0  0  0  0  0  0  0  0  0  0
   -3.8040   18.7450  -33.2510 C   0  0  0  0  0  0  0  0  0  0  0  0
   -3.3950   17.6640  -34.0410 C   0  0  0  0  0  0  0  0  0  0  0  0
   -2.3571   17.3040  -33.9836 H   0  0  0  0  0  0  0  0  0  0  0  0
  1  2  1  0
  2  3  1  0
  3  4  2  0
  4  5  1  0
  4  6  1  0
  6  7  1  0
  6  8  2  0
  8  9  1  0
  9 10  1  0
  9 11  2  0
 11 12  1  0
 12 13  2  0
 13 14  1  0
 13 15  1  0
 15 16  1  0
 15 17  2  0
 17 18  1  0
 17 19  1  0
 19 20  1  0
 19 21  2  0
 21 22  1  0
 11 23  1  0
 23 24  2  0
 24 25  1  0
 25 26  2  0
 26 27  1  0
 26 28  1  0
 28 29  1  0
 28 30  2  0
 30 31  1  0
 30 32  1  0
 32 33  1  0
 33 34  2  0
 33 35  1  0
 35 36  1  0
 36 37  1  0
 36 38  1  0
 36 39  1  0
 32 40  2  0
 40 41  1  0
 23 42  1  0
 42 43  1  0
 43 44  2  0
 44 45  1  0
 44  3  1  0
 43  8  1  0
 21 12  1  0
 40 25  1  0
M  CHG  2  18  -1  35  -1
M  END
>  <UniqueID>  (16) 
14

>  <SMILES>  (16) 
C[N-]C(=O)c1cccc(/N=c2/oc3cc(O)ccc3cc2-c2ccc([O-])cc2)c1

>  <Energy>  (16) 
77.98217600939547

>  <Genealogy>  (16) 
C[N-]C(=O)c1cccc(N=c2oc3cc(O)ccc3cc2-c2ccc([O-])cc2)c1 (protonated)
C[N-]C(=O)c1cccc(/N=c2/oc3cc(O)ccc3cc2-c2ccc([O-])cc2)c1 (cis-trans isomerization)
C[N-]C(=O)c1cccc(/N=c2/oc3cc(O)ccc3cc2-c2ccc([O-])cc2)c1 (3D coordinates assigned)
C[N-]C(=O)c1cccc(/N=c2/oc3cc(O)ccc3cc2-c2ccc([O-])cc2)c1 (optimized conformer: 77.98217600939547 kcal/mol)

>  <smiles>  (16) 
CNC(=O)c1cccc(N=c2oc3cc(O)ccc3cc2-c2ccc(O)cc2)c1

>  <score_type>  (16) 
oracle

>  <origin>  (16) 
adgpu

>  <m_score__min__energy>  (16) 
-8.5299999999999994

>  <m_primary>  (16) 
energy

$$$$
16:0
     RDKit          3D

 45 47  0  0  0  0  0  0  0  0999 V2000
   -4.5580   25.5750  -30.8690 O   0  0  0  0  0  0  0  0  0  0  0  0
   -4.0510   24.6090  -30.2420 C   0  0  0  0  0  0  0  0  0  0  0  0
   -2.7430   24.7660  -29.6770 N   0  0  0  0  0  0  0  0  0  0  0  0
   -2.0240   23.7660  -28.9430 C   0  0  0  0  0  0  0  0  0  0  0  0
   -1.4450   22.6550  -29.5830 C   0  0  0  0  0  0  0  0  0  0  0  0
   -0.7220   21.7150  -28.8430 C   0  0  0  0  0  0  0  0  0  0  0  0
   -0.5570   21.8850  -27.4650 C   0  0  0  0  0  0  0  0  0  0  0  0
   -1.1070   23.0010  -26.8280 C   0  0  0  0  0  0  0  0  0  0  0  0
   -1.8310   23.9430  -27.5670 C   0  0  0  0  0  0  0  0  0  0  0  0
   -4.7830   23.3840  -30.0680 N   0  0  0  0  0  0  0  0  0  0  0  0
   -6.0310   23.0930  -30.7200 C   0  0  0  0  0  0  0  0  0  0  0  0
   -6.9400   24.1120  -31.0550 C   0  0  0  0  0  0  0  0  0  0  0  0
   -8.1500   23.7970  -31.6780 C   0  0  0  0  0  0  0  0  0  0  0  0
   -8.4680   22.4680  -31.9630 C   0  0  0  0  0  0  0  0  0  0  0  0
   -7.5800   21.4410  -31.6170 C   0  0  0  0  0  0  0  0  0  0  0  0
   -7.9710   19.7610  -31.9930 S   0  0  0  0  0  0  0  0  0  0  0  0
   -8.7390   19.1620  -30.8480 O   0  0  0  0  0  0  0  0  0  0  0  0
   -8.8480   19.7170  -33.2140 O   0  0  0  0  0  0  0  0  0  0  0  0
   -6.5270   18.8170  -32.2800 N   0  0  0  0  0  0  0  0  0  0  0  0
   -6.8800   17.4020  -32.5300 C   0  0  0  0  0  0  0  0  0  0  0  0
   -5.7220   16.6440  -33.1850 C   0  0  0  0  0  0  0  0  0  0  0  0
   -5.3760   17.2410  -34.5610 C   0  0  0  0  0  0  0  0  0  0  0  0
   -5.7640   18.7260  -34.6800 C   0  0  0  0  0  0  0  0  0  0  0  0
   -5.6660   19.4350  -33.3200 C   0  0  0  0  0  0  0  0  0  0  0  0
   -6.3710   21.7590  -30.9810 C   0  0  0  0  0  0  0  0  0  0  0  0
   -1.5616   22.5256  -30.6691 H   0  0  0  0  0  0  0  0  0  0  0  0
   -0.2824   20.8407  -29.3453 H   0  0  0  0  0  0  0  0  0  0  0  0
    0.0055   21.1406  -26.8823 H   0  0  0  0  0  0  0  0  0  0  0  0
   -0.9706   23.1387  -25.7452 H   0  0  0  0  0  0  0  0  0  0  0  0
   -2.2508   24.8271  -27.0648 H   0  0  0  0  0  0  0  0  0  0  0  0
   -4.3390   22.6120  -29.5220 H   0  0  0  0  0  0  0  0  0  0  0  0
   -6.6977   25.1602  -30.8259 H   0  0  0  0  0  0  0  0  0  0  0  0
   -8.8544   24.5987  -31.9448 H   0  0  0  0  0  0  0  0  0  0  0  0
   -9.4187   22.2263  -32.4608 H   0  0  0  0  0  0  0  0  0  0  0  0
   -7.1268   16.9202  -31.5724 H   0  0  0  0  0  0  0  0  0  0  0  0
   -7.7413   17.3759  -33.2138 H   0  0  0  0  0  0  0  0  0  0  0  0
   -4.8377   16.7066  -32.5337 H   0  0  0  0  0  0  0  0  0  0  0  0
   -6.0257   15.5961  -33.3254 H   0  0  0  0  0  0  0  0  0  0  0  0
   -4.2921   17.1466  -34.7229 H   0  0  0  0  0  0  0  0  0  0  0  0
   -5.9506   16.6863  -35.3174 H   0  0  0  0  0  0  0  0  0  0  0  0
   -5.0850   19.2187  -35.3916 H   0  0  0  0  0  0  0  0  0  0  0  0
   -6.8044   18.7878  -35.0317 H   0  0  0  0  0  0  0  0  0  0  0  0
   -4.6210   19.3956  -32.9787 H   0  0  0  0  0  0  0  0  0  0  0  0
   -6.0129   20.4691  -33.4624 H   0  0  0  0  0  0  0  0  0  0  0  0
   -5.6832   20.9535  -30.6843 H   0  0  0  0  0  0  0  0  0  0  0  0
  1  2  2  0
  2  3  1  0
  3  4  1  0
  4  5  2  0
  5  6  1  0
  6  7  2  0
  7  8  1  0
  8  9  2  0
  2 10  1  0
 10 11  1  0
 11 12  2  0
 12 13  1  0
 13 14  2  0
 14 15  1  0
 15 16  1  0
 16 17  2  0
 16 18  2  0
 16 19  1  0
 19 20  1  0
 20 21  1  0
 21 22  1  0
 22 23  1  0
 23 24  1  0
 15 25  2  0
  9  4  1  0
 25 11  1  0
 24 19  1  0
  5 26  1  0
  6 27  1  0
  7 28  1  0
  8 29  1  0
  9 30  1  0
 10 31  1  0
 12 32  1  0
 13 33  1  0
 14 34  1  0
 20 35  1  0
 20 36  1  0
 21 37  1  0
 21 38  1  0
 22 39  1  0
 22 40  1  0
 23 41  1  0
 23 42  1  0
 24 43  1  0
 24 44  1  0
 25 45  1  0
M  CHG  1   3  -1
M  END
>  <UniqueID>  (17) 
15

>  <SMILES>  (17) 
O=C([N-]c1ccccc1)Nc1cccc(S(=O)(=O)N2CCCCC2)c1

>  <Energy>  (17) 
58.713231266532745

>  <Genealogy>  (17) 
O=C([N-]c1ccccc1)Nc1cccc(S(=O)(=O)N2CCCCC2)c1 (protonated)
O=C([N-]c1ccccc1)Nc1cccc(S(=O)(=O)N2CCCCC2)c1 (3D coordinates assigned)
O=C([N-]c1ccccc1)Nc1cccc(S(=O)(=O)N2CCCCC2)c1 (nonaromatic ring conformer: 58.713231266532745 kcal/mol)

>  <smiles>  (17) 
O=C(Nc1ccccc1)Nc1cccc(S(=O)(=O)N2CCCCC2)c1

>  <score_type>  (17) 
oracle

>  <origin>  (17) 
adgpu

>  <m_score__min__energy>  (17) 
-10.5

>  <m_primary>  (17) 
energy

$$$$
17:0
     RDKit          3D

 49 52  0  0  0  0  0  0  0  0999 V2000
    0.9090   19.8840  -30.2060 O   0  0  0  0  0  0  0  0  0  0  0  0
    0.0110   20.4960  -30.8460 C   0  0  0  0  0  0  0  0  0  0  0  0
   -0.2360   20.1230  -32.2080 N   0  0  0  0  0  0  0  0  0  0  0  0
   -1.4500   19.5520  -32.7160 C   0  0  0  0  0  0  0  0  0  0  0  0
   -1.6350   18.1670  -32.6340 C   0  0  0  0  0  0  0  0  0  0  0  0
   -2.8140   17.5840  -33.1060 C   0  0  0  0  0  0  0  0  0  0  0  0
   -3.8190   18.3790  -33.6760 C   0  0  0  0  0  0  0  0  0  0  0  0
   -5.3200   17.6440  -34.2510 S   0  0  0  0  0  0  0  0  0  0  0  0
   -5.3050   16.1780  -33.9210 O   0  0  0  0  0  0  0  0  0  0  0  0
   -5.3910   17.7830  -35.7460 O   0  0  0  0  0  0  0  0  0  0  0  0
   -6.7430   18.3720  -33.5430 N   0  0  0  0  0  0  0  0  0  0  0  0
   -6.9150   17.9920  -32.1430 C   0  0  0  0  0  0  0  0  0  0  0  0
   -7.7240   19.1040  -31.4930 C   0  0  0  0  0  0  0  0  0  0  0  0
   -7.5640   20.3080  -32.4090 C   0  0  0  0  0  0  0  0  0  0  0  0
   -6.6720   19.8320  -33.5460 C   0  0  0  0  0  0  0  0  0  0  0  0
   -3.6150   19.7610  -33.7990 C   0  0  0  0  0  0  0  0  0  0  0  0
   -2.4380   20.3440  -33.3270 C   0  0  0  0  0  0  0  0  0  0  0  0
   -0.7870   21.5400  -30.1590 C   0  0  0  0  0  0  0  0  0  0  0  0
   -0.2920   22.1850  -29.0130 C   0  0  0  0  0  0  0  0  0  0  0  0
   -1.0510   23.1650  -28.3710 C   0  0  0  0  0  0  0  0  0  0  0  0
   -2.3050   23.5200  -28.8690 C   0  0  0  0  0  0  0  0  0  0  0  0
   -2.8130   22.8990  -30.0220 C   0  0  0  0  0  0  0  0  0  0  0  0
   -4.1070   23.2630  -30.5360 N   0  0  0  0  0  0  0  0  0  0  0  0
   -4.5840   24.5100  -30.7330 C   0  0  0  0  0  0  0  0  0  0  0  0
   -3.8640   25.6730  -30.4840 O   0  0  0  0  0  0  0  0  0  0  0  0
   -5.8680   24.4770  -31.2390 C   0  0  0  0  0  0  0  0  0  0  0  0
   -6.1970   23.1390  -31.3610 C   0  0  0  0  0  0  0  0  0  0  0  0
   -5.0960   22.4300  -30.9200 C   0  0  0  0  0  0  0  0  0  0  0  0
   -5.0170   21.0410  -30.8520 O   0  0  0  0  0  0  0  0  0  0  0  0
   -2.0440   21.9130  -30.6650 C   0  0  0  0  0  0  0  0  0  0  0  0
   -0.8487   17.5346  -32.1960 H   0  0  0  0  0  0  0  0  0  0  0  0
   -2.9546   16.4957  -33.0301 H   0  0  0  0  0  0  0  0  0  0  0  0
   -7.4555   17.0366  -32.0717 H   0  0  0  0  0  0  0  0  0  0  0  0
   -5.9440   17.8605  -31.6431 H   0  0  0  0  0  0  0  0  0  0  0  0
   -8.7829   18.8159  -31.4174 H   0  0  0  0  0  0  0  0  0  0  0  0
   -7.3777   19.3184  -30.4712 H   0  0  0  0  0  0  0  0  0  0  0  0
   -8.5420   20.6305  -32.7957 H   0  0  0  0  0  0  0  0  0  0  0  0
   -7.1304   21.1701  -31.8810 H   0  0  0  0  0  0  0  0  0  0  0  0
   -7.0349   20.2285  -34.5057 H   0  0  0  0  0  0  0  0  0  0  0  0
   -5.6373   20.1811  -33.4139 H   0  0  0  0  0  0  0  0  0  0  0  0
   -4.3862   20.3885  -34.2697 H   0  0  0  0  0  0  0  0  0  0  0  0
   -2.2827   21.4278  -33.4335 H   0  0  0  0  0  0  0  0  0  0  0  0
    0.6994   21.9161  -28.6195 H   0  0  0  0  0  0  0  0  0  0  0  0
   -0.6592   23.6589  -27.4696 H   0  0  0  0  0  0  0  0  0  0  0  0
   -2.8992   24.2905  -28.3559 H   0  0  0  0  0  0  0  0  0  0  0  0
   -6.5011   25.3398  -31.4936 H   0  0  0  0  0  0  0  0  0  0  0  0
   -7.1445   22.7230  -31.7341 H   0  0  0  0  0  0  0  0  0  0  0  0
   -4.1200   20.5720  -30.8190 H   0  0  0  0  0  0  0  0  0  0  0  0
   -2.4303   21.4284  -31.5738 H   0  0  0  0  0  0  0  0  0  0  0  0
  1  2  2  0
  2  3  1  0
  3  4  1  0
  4  5  2  0
  5  6  1  0
  6  7  2  0
  7  8  1  0
  8  9  2  0
  8 10  2  0
  8 11  1  0
 11 12  1  0
 12 13  1  0
 13 14  1  0
 14 15  1  0
  7 16  1  0
 16 17  2  0
  2 18  1  0
 18 19  2  0
 19 20  1  0
 20 21  2  0
 21 22  1  0
 22 23  1  0
 23 24  1  0
 24 25  1  0
 24 26  2  0
 26 27  1  0
 27 28  2  0
 28 29  1  0
 22 30  2  0
 17  4  1  0
 30 18  1  0
 15 11  1  0
 28 23  1  0
  5 31  1  0
  6 32  1  0
 12 33  1  0
 12 34  1  0
 13 35  1  0
 13 36  1  0
 14 37  1  0
 14 38  1  0
 15 39  1  0
 15 40  1  0
 16 41  1  0
 17 42  1  0
 19 43  1  0
 20 44  1  0
 21 45  1  0
 26 46  1  0
 27 47  1  0
 29 48  1  0
 30 49  1  0
M  CHG  2   3  -1  25  -1
M  END
>  <UniqueID>  (18) 
16

>  <SMILES>  (18) 
O=C([N-]c1ccc(S(=O)(=O)N2CCCC2)cc1)c1cccc(-n2c([O-])ccc2O)c1

>  <Energy>  (18) 
92.42623921393088

>  <Genealogy>  (18) 
O=C([N-]c1ccc(S(=O)(=O)N2CCCC2)cc1)c1cccc(-n2c([O-])ccc2O)c1 (protonated)
O=C([N-]c1ccc(S(=O)(=O)N2CCCC2)cc1)c1cccc(-n2c([O-])ccc2O)c1 (3D coordinates assigned)
O=C([N-]c1ccc(S(=O)(=O)N2CCCC2)cc1)c1cccc(-n2c([O-])ccc2O)c1 (nonaromatic ring conformer: 92.42623921393088 kcal/mol)

>  <smiles>  (18) 
O=C(Nc1ccc(S(=O)(=O)N2CCCC2)cc1)c1cccc(-n2c(O)ccc2O)c1

>  <score_type>  (18) 
oracle

>  <origin>  (18) 
adgpu

>  <m_score__min__energy>  (18) 
-12.31

>  <m_primary>  (18) 
energy

$$$$
18:0
     RDKit          3D

 28 30  0  0  0  0  0  0  0  0999 V2000
    2.2020   23.7860  -36.7320 O   0  0  0  0  0  0  0  0  0  0  0  0
    1.5330   22.8610  -36.2030 C   0  0  0  0  0  0  0  0  0  0  0  0
    1.8010   21.5500  -36.4270 N   0  0  0  0  0  0  0  0  0  0  0  0
    0.8660   20.9420  -35.6830 C   0  0  0  0  0  0  0  0  0  0  0  0
    0.6580   19.5740  -35.5280 C   0  0  0  0  0  0  0  0  0  0  0  0
   -0.3930   19.1630  -34.6870 C   0  0  0  0  0  0  0  0  0  0  0  0
   -1.2020   20.1210  -34.0260 C   0  0  0  0  0  0  0  0  0  0  0  0
   -2.5060   19.5980  -32.9660 S   0  0  0  0  0  0  0  0  0  0  0  0
   -3.8070   19.6960  -33.7090 O   0  0  0  0  0  0  0  0  0  0  0  0
   -2.2950   18.1740  -32.5310 O   0  0  0  0  0  0  0  0  0  0  0  0
   -2.5770   20.6130  -31.5620 N   0  0  0  0  0  0  0  0  0  0  0  0
   -3.4720   21.7210  -31.3870 C   0  0  0  0  0  0  0  0  0  0  0  0
   -4.8370   21.5250  -31.6350 C   0  0  0  0  0  0  0  0  0  0  0  0
   -5.7420   22.5800  -31.4840 C   0  0  0  0  0  0  0  0  0  0  0  0
   -5.2900   23.8390  -31.0850 C   0  0  0  0  0  0  0  0  0  0  0  0
   -3.9300   24.0460  -30.8330 C   0  0  0  0  0  0  0  0  0  0  0  0
   -3.4810   25.2990  -30.4340 O   0  0  0  0  0  0  0  0  0  0  0  0
   -3.0210   22.9920  -30.9810 C   0  0  0  0  0  0  0  0  0  0  0  0
   -0.9620   21.4980  -34.2160 C   0  0  0  0  0  0  0  0  0  0  0  0
    0.0870   21.8650  -35.0540 C   0  0  0  0  0  0  0  0  0  0  0  0
    0.4910   23.1050  -35.3670 N   0  0  0  0  0  0  0  0  0  0  0  0
    1.2932   18.8398  -36.0451 H   0  0  0  0  0  0  0  0  0  0  0  0
   -0.5881   18.0903  -34.5416 H   0  0  0  0  0  0  0  0  0  0  0  0
   -5.1988   20.5352  -31.9504 H   0  0  0  0  0  0  0  0  0  0  0  0
   -6.8122   22.4176  -31.6800 H   0  0  0  0  0  0  0  0  0  0  0  0
   -6.0034   24.6682  -30.9688 H   0  0  0  0  0  0  0  0  0  0  0  0
   -1.9522   23.1567  -30.7798 H   0  0  0  0  0  0  0  0  0  0  0  0
   -1.5835   22.2569  -33.7182 H   0  0  0  0  0  0  0  0  0  0  0  0
  1  2  2  0
  2  3  1  0
  3  4  1  0
  4  5  2  0
  5  6  1  0
  6  7  2  0
  7  8  1  0
  8  9  2  0
  8 10  2  0
  8 11  1  0
 11 12  1  0
 12 13  2  0
 13 14  1  0
 14 15  2  0
 15 16  1  0
 16 17  1  0
 16 18  2  0
  7 19  1  0
 19 20  2  0
 20 21  1  0
 21  2  1  0
 20  4  1  0
 18 12  1  0
  5 22  1  0
  6 23  1  0
 13 24  1  0
 14 25  1  0
 15 26  1  0
 18 27  1  0
 19 28  1  0
M  CHG  4   3  -1  11  -1  17  -1  21  -1
M  END
>  <UniqueID>  (19) 
17

>  <SMILES>  (19) 
O=c1[n-]c2ccc(S(=O)(=O)[N-]c3cccc([O-])c3)cc2[n-]1

>  <Energy>  (19) 
69.15169362656297

>  <Genealogy>  (19) 
O=c1[n-]c2ccc(S(=O)(=O)[N-]c3cccc([O-])c3)cc2[n-]1 (protonated)
O=c1[n-]c2ccc(S(=O)(=O)[N-]c3cccc([O-])c3)cc2[n-]1 (3D coordinates assigned)
O=c1[n-]c2ccc(S(=O)(=O)[N-]c3cccc([O-])c3)cc2[n-]1 (optimized conformer: 69.15169362656297 kcal/mol)

>  <smiles>  (19) 
O=c1[nH]c2ccc(S(=O)(=O)Nc3cccc(O)c3)cc2[nH]1

>  <score_type>  (19) 
oracle

>  <origin>  (19) 
adgpu

>  <m_score__min__energy>  (19) 
-10.68

>  <m_primary>  (19) 
energy

$$$$
19:0
     RDKit          3D

 36 38  0  0  0  0  0  0  0  0999 V2000
   -4.3400   25.5410  -30.8310 N   0  0  0  0  0  0  0  0  0  0  0  0
   -3.7580   24.1920  -29.9220 S   0  0  0  0  0  0  0  0  0  0  0  0
   -2.3340   24.4400  -29.5100 O   0  0  0  0  0  0  0  0  0  0  0  0
   -4.5950   24.0230  -28.6870 O   0  0  0  0  0  0  0  0  0  0  0  0
   -3.8480   22.7360  -30.9080 C   0  0  0  0  0  0  0  0  0  0  0  0
   -4.5610   22.7440  -32.1130 C   0  0  0  0  0  0  0  0  0  0  0  0
   -4.6490   21.5840  -32.8880 C   0  0  0  0  0  0  0  0  0  0  0  0
   -4.0340   20.3960  -32.4590 C   0  0  0  0  0  0  0  0  0  0  0  0
   -4.1400   19.1640  -33.2760 C   0  0  0  0  0  0  0  0  0  0  0  0
   -2.9890   18.6860  -33.9280 C   0  0  0  0  0  0  0  0  0  0  0  0
   -3.0260   17.4960  -34.6550 C   0  0  0  0  0  0  0  0  0  0  0  0
   -4.2100   16.7650  -34.7420 C   0  0  0  0  0  0  0  0  0  0  0  0
   -5.3650   17.2280  -34.1100 C   0  0  0  0  0  0  0  0  0  0  0  0
   -5.3530   18.4320  -33.3830 C   0  0  0  0  0  0  0  0  0  0  0  0
   -6.6210   18.9170  -32.7890 C   0  0  0  0  0  0  0  0  0  0  0  0
   -7.2090   20.1140  -33.2370 C   0  0  0  0  0  0  0  0  0  0  0  0
   -8.4010   20.5700  -32.6680 C   0  0  0  0  0  0  0  0  0  0  0  0
   -9.0220   19.8330  -31.6560 C   0  0  0  0  0  0  0  0  0  0  0  0
   -8.4520   18.6370  -31.2130 C   0  0  0  0  0  0  0  0  0  0  0  0
   -7.2590   18.1770  -31.7790 C   0  0  0  0  0  0  0  0  0  0  0  0
   -3.3140   20.3940  -31.2520 C   0  0  0  0  0  0  0  0  0  0  0  0
   -3.2280   21.5550  -30.4790 C   0  0  0  0  0  0  0  0  0  0  0  0
   -3.5030   26.0300  -31.2210 H   0  0  0  0  0  0  0  0  0  0  0  0
   -5.0541   23.6672  -32.4513 H   0  0  0  0  0  0  0  0  0  0  0  0
   -5.2025   21.6015  -33.8384 H   0  0  0  0  0  0  0  0  0  0  0  0
   -2.0505   19.2561  -33.8640 H   0  0  0  0  0  0  0  0  0  0  0  0
   -2.1189   17.1335  -35.1608 H   0  0  0  0  0  0  0  0  0  0  0  0
   -4.2338   15.8228  -35.3091 H   0  0  0  0  0  0  0  0  0  0  0  0
   -6.2950   16.6449  -34.1812 H   0  0  0  0  0  0  0  0  0  0  0  0
   -6.7282   20.6936  -34.0388 H   0  0  0  0  0  0  0  0  0  0  0  0
   -8.8514   21.5108  -33.0173 H   0  0  0  0  0  0  0  0  0  0  0  0
   -9.9595   20.1946  -31.2083 H   0  0  0  0  0  0  0  0  0  0  0  0
   -8.9424   18.0563  -30.4178 H   0  0  0  0  0  0  0  0  0  0  0  0
   -6.8177   17.2311  -31.4319 H   0  0  0  0  0  0  0  0  0  0  0  0
   -2.8155   19.4736  -30.9140 H   0  0  0  0  0  0  0  0  0  0  0  0
   -2.6715   21.5417  -29.5302 H   0  0  0  0  0  0  0  0  0  0  0  0
  1  2  1  0
  2  3  2  0
  2  4  2  0
  2  5  1  0
  5  6  2  0
  6  7  1  0
  7  8  2  0
  8  9  1  0
  9 10  2  0
 10 11  1  0
 11 12  2  0
 12 13  1  0
 13 14  2  0
 14 15  1  0
 15 16  2  0
 16 17  1  0
 17 18  2  0
 18 19  1  0
 19 20  2  0
  8 21  1  0
 21 22  2  0
 22  5  1  0
 14  9  1  0
 20 15  1  0
  1 23  1  0
  6 24  1  0
  7 25  1  0
 10 26  1  0
 11 27  1  0
 12 28  1  0
 13 29  1  0
 16 30  1  0
 17 31  1  0
 18 32  1  0
 19 33  1  0
 20 34  1  0
 21 35  1  0
 22 36  1  0
M  CHG  1   1  -1
M  END
>  <UniqueID>  (20) 
18

>  <SMILES>  (20) 
[NH-]S(=O)(=O)c1ccc(-c2ccccc2-c2ccccc2)cc1

>  <Energy>  (20) 
51.15559914656305

>  <Genealogy>  (20) 
[NH-]S(=O)(=O)c1ccc(-c2ccccc2-c2ccccc2)cc1 (protonated)
[NH-]S(=O)(=O)c1ccc(-c2ccccc2-c2ccccc2)cc1 (3D coordinates assigned)
[NH-]S(=O)(=O)c1ccc(-c2ccccc2-c2ccccc2)cc1 (optimized conformer: 51.15559914656305 kcal/mol)

>  <smiles>  (20) 
NS(=O)(=O)c1ccc(-c2ccccc2-c2ccccc2)cc1

>  <score_type>  (20) 
oracle

>  <origin>  (20) 
adgpu

>  <m_score__min__energy>  (20) 
-11.109999999999999

>  <m_primary>  (20) 
energy

$$$$
20:0
     RDKit          3D

 53 55  0  0  0  0  0  0  0  0999 V2000
   -5.4760   16.2940  -32.5380 C   0  0  0  0  0  0  0  0  0  0  0  0
   -4.4520   17.3150  -32.9600 C   0  0  0  0  0  0  0  0  0  0  0  0
   -3.1220   16.8950  -33.1100 C   0  0  0  0  0  0  0  0  0  0  0  0
   -2.1260   17.7910  -33.4880 C   0  0  0  0  0  0  0  0  0  0  0  0
   -2.4350   19.1400  -33.7070 C   0  0  0  0  0  0  0  0  0  0  0  0
   -1.4340   20.0780  -34.1290 N   0  0  0  0  0  0  0  0  0  0  0  0
   -0.5160   20.7720  -33.2770 C   0  0  0  0  0  0  0  0  0  0  0  0
    0.1510   21.7290  -33.7520 O   0  0  0  0  0  0  0  0  0  0  0  0
   -0.4410   20.4560  -31.8800 N   0  0  0  0  0  0  0  0  0  0  0  0
   -1.2790   20.9770  -30.8380 C   0  0  0  0  0  0  0  0  0  0  0  0
   -1.8080   20.1550  -29.8280 C   0  0  0  0  0  0  0  0  0  0  0  0
   -2.6400   20.6980  -28.8470 C   0  0  0  0  0  0  0  0  0  0  0  0
   -2.9630   22.0570  -28.8710 C   0  0  0  0  0  0  0  0  0  0  0  0
   -2.4620   22.8900  -29.8860 C   0  0  0  0  0  0  0  0  0  0  0  0
   -2.8150   24.3290  -29.9190 C   0  0  0  0  0  0  0  0  0  0  0  0
   -1.9880   25.2940  -29.2710 N   0  0  0  0  0  0  0  0  0  0  0  0
   -3.8540   24.7170  -30.5200 O   0  0  0  0  0  0  0  0  0  0  0  0
   -1.6250   22.3340  -30.8720 C   0  0  0  0  0  0  0  0  0  0  0  0
   -3.7610   19.5750  -33.5760 C   0  0  0  0  0  0  0  0  0  0  0  0
   -4.0520   20.9090  -33.8420 O   0  0  0  0  0  0  0  0  0  0  0  0
   -4.7810   18.6800  -33.1790 C   0  0  0  0  0  0  0  0  0  0  0  0
   -6.4530   19.2760  -33.0090 S   0  0  0  0  0  0  0  0  0  0  0  0
   -7.4090   18.1230  -32.8810 O   0  0  0  0  0  0  0  0  0  0  0  0
   -6.8480   20.0590  -34.2290 O   0  0  0  0  0  0  0  0  0  0  0  0
   -6.5870   20.3230  -31.5520 C   0  0  0  0  0  0  0  0  0  0  0  0
   -8.0050   20.9200  -31.4420 C   0  0  0  0  0  0  0  0  0  0  0  0
   -7.9840   22.1940  -30.5930 C   0  0  0  0  0  0  0  0  0  0  0  0
   -7.1760   23.2620  -31.2320 N   0  0  0  0  0  0  0  0  0  0  0  0
   -6.7440   24.2470  -30.2280 C   0  0  0  0  0  0  0  0  0  0  0  0
   -6.0280   22.7680  -32.0360 C   0  0  0  0  0  0  0  0  0  0  0  0
   -5.4910   21.4160  -31.5390 C   0  0  0  0  0  0  0  0  0  0  0  0
   -5.5195   16.2506  -31.4397 H   0  0  0  0  0  0  0  0  0  0  0  0
   -6.4623   16.5789  -32.9331 H   0  0  0  0  0  0  0  0  0  0  0  0
   -5.1940   15.3069  -32.9331 H   0  0  0  0  0  0  0  0  0  0  0  0
   -2.8623   15.8420  -32.9262 H   0  0  0  0  0  0  0  0  0  0  0  0
   -1.0918   17.4384  -33.6153 H   0  0  0  0  0  0  0  0  0  0  0  0
   -1.5661   19.0821  -29.8104 H   0  0  0  0  0  0  0  0  0  0  0  0
   -3.0428   20.0532  -28.0520 H   0  0  0  0  0  0  0  0  0  0  0  0
   -3.6137   22.4778  -28.0903 H   0  0  0  0  0  0  0  0  0  0  0  0
   -1.2630   25.8240  -29.8030 H   0  0  0  0  0  0  0  0  0  0  0  0
   -1.2379   22.9731  -31.6792 H   0  0  0  0  0  0  0  0  0  0  0  0
   -6.4202   19.6994  -30.6614 H   0  0  0  0  0  0  0  0  0  0  0  0
   -8.3755   21.1618  -32.4491 H   0  0  0  0  0  0  0  0  0  0  0  0
   -8.6660   20.1829  -30.9626 H   0  0  0  0  0  0  0  0  0  0  0  0
   -9.0152   22.5547  -30.4647 H   0  0  0  0  0  0  0  0  0  0  0  0
   -7.5289   21.9527  -29.6211 H   0  0  0  0  0  0  0  0  0  0  0  0
   -6.9206   23.8444  -29.2197 H   0  0  0  0  0  0  0  0  0  0  0  0
   -5.6717   24.4558  -30.3569 H   0  0  0  0  0  0  0  0  0  0  0  0
   -7.3167   25.1772  -30.3569 H   0  0  0  0  0  0  0  0  0  0  0  0
   -6.3534   22.6544  -33.0806 H   0  0  0  0  0  0  0  0  0  0  0  0
   -5.2153   23.5030  -31.9396 H   0  0  0  0  0  0  0  0  0  0  0  0
   -4.6644   21.0993  -32.1920 H   0  0  0  0  0  0  0  0  0  0  0  0
   -5.1481   21.5444  -30.5017 H   0  0  0  0  0  0  0  0  0  0  0  0
  1  2  1  0
  2  3  2  0
  3  4  1  0
  4  5  2  0
  5  6  1  0
  6  7  1  0
  7  8  2  0
  7  9  1  0
  9 10  1  0
 10 11  2  0
 11 12  1  0
 12 13  2  0
 13 14  1  0
 14 15  1  0
 15 16  1  0
 15 17  2  0
 14 18  2  0
  5 19  1  0
 19 20  1  0
 19 21  2  0
 21 22  1  0
 22 23  2  0
 22 24  2  0
 22 25  1  0
 25 26  1  0
 26 27  1  0
 27 28  1  0
 28 29  1  0
 28 30  1  0
 30 31  1  0
 21  2  1  0
 31 25  1  0
 18 10  1  0
  1 32  1  0
  1 33  1  0
  1 34  1  0
  3 35  1  0
  4 36  1  0
 11 37  1  0
 12 38  1  0
 13 39  1  0
 16 40  1  0
 18 41  1  0
 25 42  1  0
 26 43  1  0
 26 44  1  0
 27 45  1  0
 27 46  1  0
 29 47  1  0
 29 48  1  0
 29 49  1  0
 30 50  1  0
 30 51  1  0
 31 52  1  0
 31 53  1  0
M  CHG  4   6  -1   9  -1  16  -1  20  -1
M  END
>  <UniqueID>  (21) 
19

>  <SMILES>  (21) 
Cc1ccc([N-]C(=O)[N-]c2cccc(C([NH-])=O)c2)c([O-])c1S(=O)(=O)C1CCN(C)CC1

>  <Energy>  (21) 
69.75477686556155

>  <Genealogy>  (21) 
Cc1ccc([N-]C(=O)[N-]c2cccc(C([NH-])=O)c2)c([O-])c1S(=O)(=O)C1CCN(C)CC1 (protonated)
Cc1ccc([N-]C(=O)[N-]c2cccc(C([NH-])=O)c2)c([O-])c1S(=O)(=O)C1CCN(C)CC1 (3D coordinates assigned)
Cc1ccc([N-]C(=O)[N-]c2cccc(C([NH-])=O)c2)c([O-])c1S(=O)(=O)C1CCN(C)CC1 (nonaromatic ring conformer: 69.75477686556155 kcal/mol)

>  <smiles>  (21) 
Cc1ccc(NC(=O)Nc2cccc(C(N)=O)c2)c(O)c1S(=O)(=O)C1CCN(C)CC1

>  <score_type>  (21) 
oracle

>  <origin>  (21) 
adgpu

>  <m_score__min__energy>  (21) 
-15.15

>  <m_primary>  (21) 
energy

$$$$
21:0
     RDKit          3D

 54 57  0  0  0  0  0  0  0  0999 V2000
   -6.5190   17.4680  -33.8370 C   0  0  0  0  0  0  0  0  0  0  0  0
   -6.6230   18.9220  -33.9330 N   0  0  0  0  0  0  0  0  0  0  0  0
   -7.6070   19.5280  -32.6340 S   0  0  0  0  0  0  0  0  0  0  0  0
   -7.6230   18.5280  -31.5130 O   0  0  0  0  0  0  0  0  0  0  0  0
   -9.0170   19.7220  -33.1200 O   0  0  0  0  0  0  0  0  0  0  0  0
   -6.9550   21.0510  -32.0310 C   0  0  0  0  0  0  0  0  0  0  0  0
   -5.6660   21.4700  -32.3910 C   0  0  0  0  0  0  0  0  0  0  0  0
   -5.1400   22.6530  -31.8640 C   0  0  0  0  0  0  0  0  0  0  0  0
   -5.8960   23.4250  -30.9730 C   0  0  0  0  0  0  0  0  0  0  0  0
   -5.2000   24.8630  -30.2330 S   0  0  0  0  0  0  0  0  0  0  0  0
   -5.8320   26.0820  -30.8450 O   0  0  0  0  0  0  0  0  0  0  0  0
   -5.4930   24.8640  -28.7590 O   0  0  0  0  0  0  0  0  0  0  0  0
   -3.4830   24.9400  -30.4730 N   0  0  0  0  0  0  0  0  0  0  0  0
   -2.5480   24.1690  -29.7150 C   0  0  0  0  0  0  0  0  0  0  0  0
   -1.7940   24.7590  -28.6650 C   0  0  0  0  0  0  0  0  0  0  0  0
   -0.8760   23.9910  -27.9250 C   0  0  0  0  0  0  0  0  0  0  0  0
   -0.7610   22.6420  -28.2460 C   0  0  0  0  0  0  0  0  0  0  0  0
    0.0070   21.7340  -27.7100 O   0  0  0  0  0  0  0  0  0  0  0  0
   -0.2570   20.6100  -28.3580 C   0  0  0  0  0  0  0  0  0  0  0  0
    0.4070   19.3250  -28.0580 C   0  0  0  0  0  0  0  0  0  0  0  0
   -0.3560   18.2000  -27.7170 C   0  0  0  0  0  0  0  0  0  0  0  0
    0.2660   16.9820  -27.4270 C   0  0  0  0  0  0  0  0  0  0  0  0
    1.6700   16.8590  -27.4710 C   0  0  0  0  0  0  0  0  0  0  0  0
    2.3160   15.5920  -27.1750 N   0  0  0  0  0  0  0  0  0  0  0  0
    1.5280   14.4430  -26.7110 C   0  0  0  0  0  0  0  0  0  0  0  0
    3.7680   15.4400  -27.3320 C   0  0  0  0  0  0  0  0  0  0  0  0
    2.4290   17.9950  -27.8150 C   0  0  0  0  0  0  0  0  0  0  0  0
    1.8050   19.2120  -28.1050 C   0  0  0  0  0  0  0  0  0  0  0  0
   -1.2000   20.7590  -29.3270 N   0  0  0  0  0  0  0  0  0  0  0  0
   -1.5000   22.0660  -29.2300 C   0  0  0  0  0  0  0  0  0  0  0  0
   -2.4160   22.7930  -29.9860 C   0  0  0  0  0  0  0  0  0  0  0  0
   -7.1870   23.0090  -30.6180 C   0  0  0  0  0  0  0  0  0  0  0  0
   -7.7130   21.8260  -31.1440 C   0  0  0  0  0  0  0  0  0  0  0  0
   -6.4978   17.1710  -32.7781 H   0  0  0  0  0  0  0  0  0  0  0  0
   -7.3863   17.0050  -34.3303 H   0  0  0  0  0  0  0  0  0  0  0  0
   -5.5946   17.1331  -34.3303 H   0  0  0  0  0  0  0  0  0  0  0  0
   -7.1190   19.1470  -34.8260 H   0  0  0  0  0  0  0  0  0  0  0  0
   -5.0677   20.8665  -33.0895 H   0  0  0  0  0  0  0  0  0  0  0  0
   -4.1290   22.9787  -32.1500 H   0  0  0  0  0  0  0  0  0  0  0  0
   -1.9290   25.8248  -28.4287 H   0  0  0  0  0  0  0  0  0  0  0  0
   -0.2720   24.4402  -27.1229 H   0  0  0  0  0  0  0  0  0  0  0  0
   -1.4527   18.2759  -27.6772 H   0  0  0  0  0  0  0  0  0  0  0  0
   -0.3476   16.1086  -27.1611 H   0  0  0  0  0  0  0  0  0  0  0  0
    1.5166   14.4264  -25.6112 H   0  0  0  0  0  0  0  0  0  0  0  0
    0.4979   14.5290  -27.0871 H   0  0  0  0  0  0  0  0  0  0  0  0
    1.9793   13.5130  -27.0871 H   0  0  0  0  0  0  0  0  0  0  0  0
    4.2409   15.3905  -26.3401 H   0  0  0  0  0  0  0  0  0  0  0  0
    3.9819   14.5146  -27.8868 H   0  0  0  0  0  0  0  0  0  0  0  0
    4.1690   16.3011  -27.8868 H   0  0  0  0  0  0  0  0  0  0  0  0
    3.5259   17.9235  -27.8559 H   0  0  0  0  0  0  0  0  0  0  0  0
    2.4146   20.0878  -28.3721 H   0  0  0  0  0  0  0  0  0  0  0  0
   -3.0171   22.3084  -30.7695 H   0  0  0  0  0  0  0  0  0  0  0  0
   -7.7873   23.6153  -29.9237 H   0  0  0  0  0  0  0  0  0  0  0  0
   -8.7254   21.5024  -30.8606 H   0  0  0  0  0  0  0  0  0  0  0  0
  1  2  1  0
  2  3  1  0
  3  4  2  0
  3  5  2  0
  3  6  1  0
  6  7  2  0
  7  8  1  0
  8  9  2  0
  9 10  1  0
 10 11  2  0
 10 12  2  0
 10 13  1  0
 13 14  1  0
 14 15  2  0
 15 16  1  0
 16 17  2  0
 17 18  1  0
 18 19  1  0
 19 20  1  0
 20 21  2  0
 21 22  1  0
 22 23  2  0
 23 24  1  0
 24 25  1  0
 24 26  1  0
 23 27  1  0
 27 28  2  0
 19 29  2  0
 29 30  1  0
 30 31  2  0
  9 32  1  0
 32 33  2  0
 33  6  1  0
 31 14  1  0
 30 17  1  0
 28 20  1  0
  1 34  1  0
  1 35  1  0
  1 36  1  0
  2 37  1  0
  7 38  1  0
  8 39  1  0
 15 40  1  0
 16 41  1  0
 21 42  1  0
 22 43  1  0
 25 44  1  0
 25 45  1  0
 25 46  1  0
 26 47  1  0
 26 48  1  0
 26 49  1  0
 27 50  1  0
 28 51  1  0
 31 52  1  0
 32 53  1  0
 33 54  1  0
M  CHG  1  13  -1
M  END
>  <UniqueID>  (22) 
20

>  <SMILES>  (22) 
CNS(=O)(=O)c1ccc(S(=O)(=O)[N-]c2ccc3oc(-c4ccc(N(C)C)cc4)nc3c2)cc1

>  <Energy>  (22) 
102.52112684284009

>  <Genealogy>  (22) 
CNS(=O)(=O)c1ccc(S(=O)(=O)[N-]c2ccc3oc(-c4ccc(N(C)C)cc4)nc3c2)cc1 (protonated)
CNS(=O)(=O)c1ccc(S(=O)(=O)[N-]c2ccc3oc(-c4ccc(N(C)C)cc4)nc3c2)cc1 (3D coordinates assigned)
CNS(=O)(=O)c1ccc(S(=O)(=O)[N-]c2ccc3oc(-c4ccc(N(C)C)cc4)nc3c2)cc1 (optimized conformer: 102.52112684284009 kcal/mol)

>  <smiles>  (22) 
CNS(=O)(=O)c1ccc(S(=O)(=O)Nc2ccc3oc(-c4ccc(N(C)C)cc4)nc3c2)cc1

>  <score_type>  (22) 
oracle

>  <origin>  (22) 
adgpu

>  <m_score__min__energy>  (22) 
-11.220000000000001

>  <m_primary>  (22) 
energy

$$$$
22:0
     RDKit          3D

 52 54  0  0  0  0  0  0  0  0999 V2000
   -0.5600   16.7240  -32.2340 C   0  0  0  0  0  0  0  0  0  0  0  0
   -0.4850   18.1140  -31.6510 C   0  0  0  0  0  0  0  0  0  0  0  0
    0.2610   18.2740  -30.4740 C   0  0  0  0  0  0  0  0  0  0  0  0
    0.3360   19.5060  -29.8400 C   0  0  0  0  0  0  0  0  0  0  0  0
   -0.3390   20.6050  -30.3570 C   0  0  0  0  0  0  0  0  0  0  0  0
   -0.3090   21.8330  -29.6160 N   0  0  0  0  0  0  0  0  0  0  0  0
   -1.4750   22.4940  -29.1140 C   0  0  0  0  0  0  0  0  0  0  0  0
   -1.8540   22.2620  -27.9360 O   0  0  0  0  0  0  0  0  0  0  0  0
   -2.1960   23.4170  -29.9410 N   0  0  0  0  0  0  0  0  0  0  0  0
   -3.5510   23.2680  -30.3830 C   0  0  0  0  0  0  0  0  0  0  0  0
   -4.1070   21.9830  -30.4160 C   0  0  0  0  0  0  0  0  0  0  0  0
   -5.4300   21.7940  -30.8210 C   0  0  0  0  0  0  0  0  0  0  0  0
   -6.2170   22.8940  -31.1830 C   0  0  0  0  0  0  0  0  0  0  0  0
   -7.5820   22.6990  -31.5990 C   0  0  0  0  0  0  0  0  0  0  0  0
   -8.6780   22.5430  -31.9330 N   0  0  0  0  0  0  0  0  0  0  0  0
   -5.6790   24.1850  -31.1220 C   0  0  0  0  0  0  0  0  0  0  0  0
   -4.3560   24.3790  -30.7090 C   0  0  0  0  0  0  0  0  0  0  0  0
   -3.8680   25.6760  -30.5940 O   0  0  0  0  0  0  0  0  0  0  0  0
   -1.0210   20.5050  -31.5870 C   0  0  0  0  0  0  0  0  0  0  0  0
   -1.5740   21.6870  -32.0920 O   0  0  0  0  0  0  0  0  0  0  0  0
   -1.1060   19.2460  -32.2580 C   0  0  0  0  0  0  0  0  0  0  0  0
   -2.0130   19.0520  -33.7940 S   0  0  0  0  0  0  0  0  0  0  0  0
   -1.4100   17.9420  -34.6070 O   0  0  0  0  0  0  0  0  0  0  0  0
   -1.9470   20.2840  -34.6520 O   0  0  0  0  0  0  0  0  0  0  0  0
   -3.7290   18.6300  -33.4450 C   0  0  0  0  0  0  0  0  0  0  0  0
   -4.6160   19.8850  -33.3000 C   0  0  0  0  0  0  0  0  0  0  0  0
   -6.0680   19.6570  -33.7720 C   0  0  0  0  0  0  0  0  0  0  0  0
   -6.5480   18.2840  -33.5160 N   0  0  0  0  0  0  0  0  0  0  0  0
   -6.7930   18.0450  -32.0830 C   0  0  0  0  0  0  0  0  0  0  0  0
   -5.7100   17.2260  -34.1380 C   0  0  0  0  0  0  0  0  0  0  0  0
   -4.2860   17.6860  -34.5120 C   0  0  0  0  0  0  0  0  0  0  0  0
   -0.5998   15.9862  -31.4191 H   0  0  0  0  0  0  0  0  0  0  0  0
   -1.4643   16.6347  -32.8539 H   0  0  0  0  0  0  0  0  0  0  0  0
    0.3294   16.5379  -32.8539 H   0  0  0  0  0  0  0  0  0  0  0  0
    0.7938   17.4112  -30.0478 H   0  0  0  0  0  0  0  0  0  0  0  0
    0.9334   19.6133  -28.9226 H   0  0  0  0  0  0  0  0  0  0  0  0
   -3.4972   21.1164  -30.1208 H   0  0  0  0  0  0  0  0  0  0  0  0
   -5.8543   20.7797  -30.8557 H   0  0  0  0  0  0  0  0  0  0  0  0
   -6.2986   25.0504  -31.3998 H   0  0  0  0  0  0  0  0  0  0  0  0
   -1.7010   22.5450  -31.5850 H   0  0  0  0  0  0  0  0  0  0  0  0
   -3.7459   18.1078  -32.4770 H   0  0  0  0  0  0  0  0  0  0  0  0
   -4.6344   20.1804  -32.2406 H   0  0  0  0  0  0  0  0  0  0  0  0
   -4.1825   20.6691  -33.9382 H   0  0  0  0  0  0  0  0  0  0  0  0
   -6.7242   20.3626  -33.2414 H   0  0  0  0  0  0  0  0  0  0  0  0
   -6.0896   19.8161  -34.8602 H   0  0  0  0  0  0  0  0  0  0  0  0
   -6.1319   18.6899  -31.4854 H   0  0  0  0  0  0  0  0  0  0  0  0
   -7.8422   18.2762  -31.8468 H   0  0  0  0  0  0  0  0  0  0  0  0
   -6.5878   16.9904  -31.8468 H   0  0  0  0  0  0  0  0  0  0  0  0
   -5.6272   16.3897  -33.4282 H   0  0  0  0  0  0  0  0  0  0  0  0
   -6.2068   16.9403  -35.0769 H   0  0  0  0  0  0  0  0  0  0  0  0
   -3.6313   16.8058  -34.5937 H   0  0  0  0  0  0  0  0  0  0  0  0
   -4.3261   18.2201  -35.4728 H   0  0  0  0  0  0  0  0  0  0  0  0
  1  2  1  0
  2  3  2  0
  3  4  1  0
  4  5  2  0
  5  6  1  0
  6  7  1  0
  7  8  2  0
  7  9  1  0
  9 10  1  0
 10 11  2  0
 11 12  1  0
 12 13  2  0
 13 14  1  0
 14 15  3  0
 13 16  1  0
 16 17  2  0
 17 18  1  0
  5 19  1  0
 19 20  1  0
 19 21  2  0
 21 22  1  0
 22 23  2  0
 22 24  2  0
 22 25  1  0
 25 26  1  0
 26 27  1  0
 27 28  1  0
 28 29  1  0
 28 30  1  0
 30 31  1  0
 21  2  1  0
 31 25  1  0
 17 10  1  0
  1 32  1  0
  1 33  1  0
  1 34  1  0
  3 35  1  0
  4 36  1  0
 11 37  1  0
 12 38  1  0
 16 39  1  0
 20 40  1  0
 25 41  1  0
 26 42  1  0
 26 43  1  0
 27 44  1  0
 27 45  1  0
 29 46  1  0
 29 47  1  0
 29 48  1  0
 30 49  1  0
 30 50  1  0
 31 51  1  0
 31 52  1  0
M  CHG  3   6  -1   9  -1  18  -1
M  END
>  <UniqueID>  (23) 
21

>  <SMILES>  (23) 
Cc1ccc([N-]C(=O)[N-]c2ccc(C#N)cc2[O-])c(O)c1S(=O)(=O)C1CCN(C)CC1

>  <Energy>  (23) 
76.63238828183373

>  <Genealogy>  (23) 
Cc1ccc([N-]C(=O)[N-]c2ccc(C#N)cc2[O-])c(O)c1S(=O)(=O)C1CCN(C)CC1 (protonated)
Cc1ccc([N-]C(=O)[N-]c2ccc(C#N)cc2[O-])c(O)c1S(=O)(=O)C1CCN(C)CC1 (3D coordinates assigned)
Cc1ccc([N-]C(=O)[N-]c2ccc(C#N)cc2[O-])c(O)c1S(=O)(=O)C1CCN(C)CC1 (nonaromatic ring conformer: 76.63238828183373 kcal/mol)

>  <smiles>  (23) 
Cc1ccc(NC(=O)Nc2ccc(C#N)cc2O)c(O)c1S(=O)(=O)C1CCN(C)CC1

>  <score_type>  (23) 
oracle

>  <origin>  (23) 
adgpu

>  <m_score__min__energy>  (23) 
-14.789999999999999

>  <m_primary>  (23) 
energy

$$$$
23:0
     RDKit          3D

 58 60  0  0  0  0  0  0  0  0999 V2000
    1.2090   19.2020  -27.8570 C   0  0  0  0  0  0  0  0  0  0  0  0
   -0.1610   19.7820  -28.2570 C   0  0  0  0  0  0  0  0  0  0  0  0
   -1.2560   19.2510  -27.3140 C   0  0  0  0  0  0  0  0  0  0  0  0
   -0.4870   19.3560  -29.6950 C   0  0  0  0  0  0  0  0  0  0  0  0
   -0.1200   21.2160  -28.2300 O   0  0  0  0  0  0  0  0  0  0  0  0
   -1.2470   22.0420  -28.3070 C   0  0  0  0  0  0  0  0  0  0  0  0
   -1.7450   22.6350  -27.1410 C   0  0  0  0  0  0  0  0  0  0  0  0
   -2.8680   23.4660  -27.1970 C   0  0  0  0  0  0  0  0  0  0  0  0
   -3.5100   23.7090  -28.4200 C   0  0  0  0  0  0  0  0  0  0  0  0
   -4.6770   24.5450  -28.4530 N   0  0  0  0  0  0  0  0  0  0  0  0
   -5.4540   24.9940  -29.9360 S   0  0  0  0  0  0  0  0  0  0  0  0
   -6.5280   26.0060  -29.6510 O   0  0  0  0  0  0  0  0  0  0  0  0
   -4.4520   25.6100  -30.8720 O   0  0  0  0  0  0  0  0  0  0  0  0
   -6.1940   23.5660  -30.6530 C   0  0  0  0  0  0  0  0  0  0  0  0
   -7.2340   22.9130  -29.9770 C   0  0  0  0  0  0  0  0  0  0  0  0
   -7.7940   21.7480  -30.5060 C   0  0  0  0  0  0  0  0  0  0  0  0
   -7.3120   21.2170  -31.7090 C   0  0  0  0  0  0  0  0  0  0  0  0
   -7.9990   19.7280  -32.3620 S   0  0  0  0  0  0  0  0  0  0  0  0
   -8.4420   18.8460  -31.2270 O   0  0  0  0  0  0  0  0  0  0  0  0
   -9.2100   20.0650  -33.1890 O   0  0  0  0  0  0  0  0  0  0  0  0
   -6.8470   18.8690  -33.3560 N   0  0  0  0  0  0  0  0  0  0  0  0
   -7.1890   17.4330  -33.4140 C   0  0  0  0  0  0  0  0  0  0  0  0
   -6.0610   16.5850  -34.0430 C   0  0  0  0  0  0  0  0  0  0  0  0
   -5.0390   17.4530  -34.7840 C   0  0  0  0  0  0  0  0  0  0  0  0
   -4.4550   18.5370  -33.8630 C   0  0  0  0  0  0  0  0  0  0  0  0
   -5.4820   19.0630  -32.8440 C   0  0  0  0  0  0  0  0  0  0  0  0
   -6.2730   21.8700  -32.3860 C   0  0  0  0  0  0  0  0  0  0  0  0
   -5.7180   23.0400  -31.8620 C   0  0  0  0  0  0  0  0  0  0  0  0
   -2.9870   23.1380  -29.5930 C   0  0  0  0  0  0  0  0  0  0  0  0
   -1.8600   22.3140  -29.5360 C   0  0  0  0  0  0  0  0  0  0  0  0
    1.2871   19.1689  -26.7603 H   0  0  0  0  0  0  0  0  0  0  0  0
    1.3089   18.1844  -28.2626 H   0  0  0  0  0  0  0  0  0  0  0  0
    2.0092   19.8385  -28.2626 H   0  0  0  0  0  0  0  0  0  0  0  0
   -0.9452   19.4017  -26.2696 H   0  0  0  0  0  0  0  0  0  0  0  0
   -2.1945   19.7941  -27.4993 H   0  0  0  0  0  0  0  0  0  0  0  0
   -1.4107   18.1778  -27.4993 H   0  0  0  0  0  0  0  0  0  0  0  0
   -1.1554   18.4826  -29.6761 H   0  0  0  0  0  0  0  0  0  0  0  0
   -0.9829   20.1859  -30.2198 H   0  0  0  0  0  0  0  0  0  0  0  0
    0.4436   19.0942  -30.2198 H   0  0  0  0  0  0  0  0  0  0  0  0
   -1.2508   22.4464  -26.1765 H   0  0  0  0  0  0  0  0  0  0  0  0
   -3.2501   23.9318  -26.2767 H   0  0  0  0  0  0  0  0  0  0  0  0
   -5.2130   24.7020  -27.5690 H   0  0  0  0  0  0  0  0  0  0  0  0
   -7.6103   23.3195  -29.0267 H   0  0  0  0  0  0  0  0  0  0  0  0
   -8.6166   21.2457  -29.9759 H   0  0  0  0  0  0  0  0  0  0  0  0
   -7.3742   17.0722  -32.3915 H   0  0  0  0  0  0  0  0  0  0  0  0
   -8.0824   17.3258  -34.0467 H   0  0  0  0  0  0  0  0  0  0  0  0
   -5.5450   16.0313  -33.2447 H   0  0  0  0  0  0  0  0  0  0  0  0
   -6.5167   15.8981  -34.7714 H   0  0  0  0  0  0  0  0  0  0  0  0
   -4.2215   16.8129  -35.1473 H   0  0  0  0  0  0  0  0  0  0  0  0
   -5.5480   17.9482  -35.6241 H   0  0  0  0  0  0  0  0  0  0  0  0
   -3.6011   18.1116  -33.3153 H   0  0  0  0  0  0  0  0  0  0  0  0
   -4.1496   19.3833  -34.4959 H   0  0  0  0  0  0  0  0  0  0  0  0
   -5.3676   18.5158  -31.8966 H   0  0  0  0  0  0  0  0  0  0  0  0
   -5.3084   20.1367  -32.6794 H   0  0  0  0  0  0  0  0  0  0  0  0
   -5.8932   21.4598  -33.3333 H   0  0  0  0  0  0  0  0  0  0  0  0
   -4.9051   23.5500  -32.3997 H   0  0  0  0  0  0  0  0  0  0  0  0
   -3.4676   23.3410  -30.5614 H   0  0  0  0  0  0  0  0  0  0  0  0
   -1.4529   21.8775  -30.4600 H   0  0  0  0  0  0  0  0  0  0  0  0
  1  2  1  0
  2  3  1  0
  2  4  1  0
  2  5  1  0
  5  6  1  0
  6  7  2  0
  7  8  1  0
  8  9  2  0
  9 10  1  0
 10 11  1  0
 11 12  2  0
 11 13  2  0
 11 14  1  0
 14 15  2  0
 15 16  1  0
 16 17  2  0
 17 18  1  0
 18 19  2  0
 18 20  2  0
 18 21  1  0
 21 22  1  0
 22 23  1  0
 23 24  1  0
 24 25  1  0
 25 26  1  0
 17 27  1  0
 27 28  2  0
  9 29  1  0
 29 30  2  0
 30  6  1  0
 28 14  1  0
 26 21  1  0
  1 31  1  0
  1 32  1  0
  1 33  1  0
  3 34  1  0
  3 35  1  0
  3 36  1  0
  4 37  1  0
  4 38  1  0
  4 39  1  0
  7 40  1  0
  8 41  1  0
 10 42  1  0
 15 43  1  0
 16 44  1  0
 22 45  1  0
 22 46  1  0
 23 47  1  0
 23 48  1  0
 24 49  1  0
 24 50  1  0
 25 51  1  0
 25 52  1  0
 26 53  1  0
 26 54  1  0
 27 55  1  0
 28 56  1  0
 29 57  1  0
 30 58  1  0
M  END
>  <UniqueID>  (24) 
22

>  <SMILES>  (24) 
CC(C)(C)Oc1ccc(NS(=O)(=O)c2ccc(S(=O)(=O)N3CCCCC3)cc2)cc1

>  <Energy>  (24) 
62.79652278864049

>  <Genealogy>  (24) 
CC(C)(C)Oc1ccc(NS(=O)(=O)c2ccc(S(=O)(=O)N3CCCCC3)cc2)cc1 (3D coordinates assigned)
CC(C)(C)Oc1ccc(NS(=O)(=O)c2ccc(S(=O)(=O)N3CCCCC3)cc2)cc1 (nonaromatic ring conformer: 62.79652278864049 kcal/mol)

>  <smiles>  (24) 
CC(C)(C)Oc1ccc(NS(=O)(=O)c2ccc(S(=O)(=O)N3CCCCC3)cc2)cc1

>  <score_type>  (24) 
oracle

>  <origin>  (24) 
adgpu

>  <m_score__min__energy>  (24) 
-11.1

>  <m_primary>  (24) 
energy

$$$$
24:0
     RDKit          3D

 40 42  0  0  0  0  0  0  0  0999 V2000
   -7.7783   17.9036  -30.8354 H   0  0  0  0  0  0  0  0  0  0  0  0
   -7.2530   18.2860  -31.7230 C   0  0  0  0  0  0  0  0  0  0  0  0
   -7.4820   19.5440  -32.2650 C   0  0  0  0  0  0  0  0  0  0  0  0
   -8.7170   20.8350  -31.6000 Br  0  0  0  0  0  0  0  0  0  0  0  0
   -6.4920   19.7580  -33.6070 S   0  0  0  0  0  0  0  0  0  0  0  0
   -5.7640   18.2450  -33.5070 C   0  0  0  0  0  0  0  0  0  0  0  0
   -4.5230   17.6580  -34.5980 S   0  0  0  0  0  0  0  0  0  0  0  0
   -5.0510   17.6960  -36.0040 O   0  0  0  0  0  0  0  0  0  0  0  0
   -4.1490   16.2440  -34.2510 O   0  0  0  0  0  0  0  0  0  0  0  0
   -3.1180   18.6660  -34.4880 N   0  0  0  0  0  0  0  0  0  0  0  0
   -2.7720   19.4820  -33.3600 C   0  0  0  0  0  0  0  0  0  0  0  0
   -2.0700   18.9720  -32.2530 C   0  0  0  0  0  0  0  0  0  0  0  0
   -1.7669   17.9147  -32.2364 H   0  0  0  0  0  0  0  0  0  0  0  0
   -1.7560   19.8030  -31.1740 C   0  0  0  0  0  0  0  0  0  0  0  0
   -1.2131   19.3957  -30.3084 H   0  0  0  0  0  0  0  0  0  0  0  0
   -2.1300   21.1520  -31.1910 C   0  0  0  0  0  0  0  0  0  0  0  0
   -1.7200   22.2070  -29.8420 S   0  0  0  0  0  0  0  0  0  0  0  0
   -2.2170   21.6450  -28.5410 O   0  0  0  0  0  0  0  0  0  0  0  0
   -0.2230   22.3070  -29.7730 O   0  0  0  0  0  0  0  0  0  0  0  0
   -2.3580   23.8050  -30.0790 N   0  0  0  0  0  0  0  0  0  0  0  0
   -3.5850   24.1900  -30.2950 C   0  0  0  0  0  0  0  0  0  0  0  0
   -3.8770   25.4560  -30.4830 O   0  0  0  0  0  0  0  0  0  0  0  0
   -5.1520   25.6100  -30.6750 N   0  0  0  0  0  0  0  0  0  0  0  0
   -5.6230   26.5280  -30.8410 H   0  0  0  0  0  0  0  0  0  0  0  0
   -5.7370   24.4020  -30.6100 C   0  0  0  0  0  0  0  0  0  0  0  0
   -7.2100   24.1780  -30.7560 C   0  0  0  0  0  0  0  0  0  0  0  0
   -7.6708   24.1079  -29.7596 H   0  0  0  0  0  0  0  0  0  0  0  0
   -7.6558   25.0187  -31.3078 H   0  0  0  0  0  0  0  0  0  0  0  0
   -7.3857   23.2428  -31.3078 H   0  0  0  0  0  0  0  0  0  0  0  0
   -4.7650   23.4380  -30.3730 C   0  0  0  0  0  0  0  0  0  0  0  0
   -5.0240   21.9810  -30.1390 C   0  0  0  0  0  0  0  0  0  0  0  0
   -5.0590   21.7839  -29.0574 H   0  0  0  0  0  0  0  0  0  0  0  0
   -5.9858   21.7019  -30.5939 H   0  0  0  0  0  0  0  0  0  0  0  0
   -4.2173   21.3875  -30.5939 H   0  0  0  0  0  0  0  0  0  0  0  0
   -2.8340   21.6620  -32.2890 C   0  0  0  0  0  0  0  0  0  0  0  0
   -3.1390   22.7188  -32.3025 H   0  0  0  0  0  0  0  0  0  0  0  0
   -3.1500   20.8310  -33.3680 C   0  0  0  0  0  0  0  0  0  0  0  0
   -3.6992   21.2392  -34.2292 H   0  0  0  0  0  0  0  0  0  0  0  0
   -6.2850   17.5540  -32.4220 C   0  0  0  0  0  0  0  0  0  0  0  0
   -5.9707   16.5381  -32.1406 H   0  0  0  0  0  0  0  0  0  0  0  0
  1  2  1  0
  2  3  2  0
  3  4  1  0
  3  5  1  0
  5  6  1  0
  6  7  1  0
  7  8  2  0
  7  9  2  0
  7 10  1  0
 10 11  1  0
 11 12  2  0
 12 13  1  0
 12 14  1  0
 14 15  1  0
 14 16  2  0
 16 17  1  0
 17 18  2  0
 17 19  2  0
 17 20  1  0
 20 21  2  0
 21 22  1  0
 22 23  1  0
 23 24  1  0
 23 25  1  0
 25 26  1  0
 26 27  1  0
 26 28  1  0
 26 29  1  0
 25 30  2  0
 30 31  1  0
 31 32  1  0
 31 33  1  0
 31 34  1  0
 16 35  1  0
 35 36  1  0
 35 37  2  0
 37 38  1  0
  6 39  2  0
 39 40  1  0
 39  2  1  0
 37 11  1  0
 30 21  1  0
M  CHG  1  10  -1
M  END
>  <UniqueID>  (25) 
23

>  <SMILES>  (25) 
Cc1[nH]o/c(=N/S(=O)(=O)c2ccc([N-]S(=O)(=O)c3ccc(Br)s3)cc2)c1C

>  <Energy>  (25) 
111.31136569427213

>  <Genealogy>  (25) 
Cc1[nH]oc(=NS(=O)(=O)c2ccc([N-]S(=O)(=O)c3ccc(Br)s3)cc2)c1C (protonated)
Cc1[nH]o/c(=N/S(=O)(=O)c2ccc([N-]S(=O)(=O)c3ccc(Br)s3)cc2)c1C (cis-trans isomerization)
Cc1[nH]o/c(=N/S(=O)(=O)c2ccc([N-]S(=O)(=O)c3ccc(Br)s3)cc2)c1C (3D coordinates assigned)
Cc1[nH]o/c(=N/S(=O)(=O)c2ccc([N-]S(=O)(=O)c3ccc(Br)s3)cc2)c1C (optimized conformer: 111.31136569427213 kcal/mol)

>  <smiles>  (25) 
Cc1[nH]oc(=NS(=O)(=O)c2ccc(NS(=O)(=O)c3ccc(Br)s3)cc2)c1C

>  <score_type>  (25) 
oracle

>  <origin>  (25) 
adgpu

>  <m_score__min__energy>  (25) 
-10.890000000000001

>  <m_primary>  (25) 
energy

$$$$
25:0
     RDKit          3D

 47 49  0  0  0  0  0  0  0  0999 V2000
   -6.6170   25.2830  -30.1610 C   0  0  0  0  0  0  0  0  0  0  0  0
   -5.6570   24.1370  -30.3680 C   0  0  0  0  0  0  0  0  0  0  0  0
   -6.1170   22.7990  -30.2860 C   0  0  0  0  0  0  0  0  0  0  0  0
   -7.5040   22.5050  -30.0410 N   0  0  0  0  0  0  0  0  0  0  0  0
   -8.5530   21.8520  -31.2590 S   0  0  0  0  0  0  0  0  0  0  0  0
   -8.7770   22.8890  -32.3250 O   0  0  0  0  0  0  0  0  0  0  0  0
   -9.8740   21.4920  -30.6390 O   0  0  0  0  0  0  0  0  0  0  0  0
   -7.8360   20.3960  -31.9420 C   0  0  0  0  0  0  0  0  0  0  0  0
   -8.5330   19.1820  -31.9280 C   0  0  0  0  0  0  0  0  0  0  0  0
   -7.9640   18.0370  -32.4930 C   0  0  0  0  0  0  0  0  0  0  0  0
   -6.6870   18.0900  -33.0820 C   0  0  0  0  0  0  0  0  0  0  0  0
   -6.0850   16.8760  -33.6890 C   0  0  0  0  0  0  0  0  0  0  0  0
   -4.7440   16.8790  -34.1040 C   0  0  0  0  0  0  0  0  0  0  0  0
   -4.1960   15.7300  -34.6730 C   0  0  0  0  0  0  0  0  0  0  0  0
   -4.9570   14.6160  -34.8260 N   0  0  0  0  0  0  0  0  0  0  0  0
   -6.2620   14.5610  -34.4380 C   0  0  0  0  0  0  0  0  0  0  0  0
   -7.0110   13.3370  -34.6280 N   0  0  0  0  0  0  0  0  0  0  0  0
   -6.7670   12.2070  -33.7230 C   0  0  0  0  0  0  0  0  0  0  0  0
   -7.9990   13.2040  -35.7050 C   0  0  0  0  0  0  0  0  0  0  0  0
   -6.8450   15.7060  -33.8580 C   0  0  0  0  0  0  0  0  0  0  0  0
   -5.9920   19.3130  -33.0880 C   0  0  0  0  0  0  0  0  0  0  0  0
   -6.5620   20.4550  -32.5200 C   0  0  0  0  0  0  0  0  0  0  0  0
   -5.1920   21.7580  -30.4650 C   0  0  0  0  0  0  0  0  0  0  0  0
   -3.8550   22.0430  -30.7220 C   0  0  0  0  0  0  0  0  0  0  0  0
   -3.4430   23.3690  -30.8120 C   0  0  0  0  0  0  0  0  0  0  0  0
   -4.3350   24.3840  -30.6440 N   0  0  0  0  0  0  0  0  0  0  0  0
   -3.8740   25.6760  -30.7580 O   0  0  0  0  0  0  0  0  0  0  0  0
   -6.7589   25.4524  -29.0834 H   0  0  0  0  0  0  0  0  0  0  0  0
   -6.2074   26.1927  -30.6244 H   0  0  0  0  0  0  0  0  0  0  0  0
   -7.5844   25.0392  -30.6244 H   0  0  0  0  0  0  0  0  0  0  0  0
   -7.8960   22.5820  -29.0760 H   0  0  0  0  0  0  0  0  0  0  0  0
   -9.5320   19.1289  -31.4707 H   0  0  0  0  0  0  0  0  0  0  0  0
   -8.5187   17.0872  -32.4771 H   0  0  0  0  0  0  0  0  0  0  0  0
   -4.1290   17.7827  -33.9810 H   0  0  0  0  0  0  0  0  0  0  0  0
   -3.1453   15.7261  -34.9985 H   0  0  0  0  0  0  0  0  0  0  0  0
   -6.8410   12.5497  -32.6804 H   0  0  0  0  0  0  0  0  0  0  0  0
   -7.5165   11.4228  -33.9053 H   0  0  0  0  0  0  0  0  0  0  0  0
   -5.7607   11.8019  -33.9053 H   0  0  0  0  0  0  0  0  0  0  0  0
   -9.0001   13.0692  -35.2696 H   0  0  0  0  0  0  0  0  0  0  0  0
   -7.9885   14.1117  -36.3263 H   0  0  0  0  0  0  0  0  0  0  0  0
   -7.7489   12.3314  -36.3263 H   0  0  0  0  0  0  0  0  0  0  0  0
   -7.8969   15.6836  -33.5371 H   0  0  0  0  0  0  0  0  0  0  0  0
   -4.9923   19.3706  -33.5433 H   0  0  0  0  0  0  0  0  0  0  0  0
   -6.0074   21.4049  -32.5269 H   0  0  0  0  0  0  0  0  0  0  0  0
   -5.5263   20.7119  -30.4017 H   0  0  0  0  0  0  0  0  0  0  0  0
   -3.1293   21.2268  -30.8530 H   0  0  0  0  0  0  0  0  0  0  0  0
   -2.3878   23.5992  -31.0206 H   0  0  0  0  0  0  0  0  0  0  0  0
  1  2  1  0
  2  3  2  0
  3  4  1  0
  4  5  1  0
  5  6  2  0
  5  7  2  0
  5  8  1  0
  8  9  2  0
  9 10  1  0
 10 11  2  0
 11 12  1  0
 12 13  2  0
 13 14  1  0
 14 15  2  0
 15 16  1  0
 16 17  1  0
 17 18  1  0
 17 19  1  0
 16 20  2  0
 11 21  1  0
 21 22  2  0
  3 23  1  0
 23 24  2  0
 24 25  1  0
 25 26  2  0
 26 27  1  0
 26  2  1  0
 22  8  1  0
 20 12  1  0
  1 28  1  0
  1 29  1  0
  1 30  1  0
  4 31  1  0
  9 32  1  0
 10 33  1  0
 13 34  1  0
 14 35  1  0
 18 36  1  0
 18 37  1  0
 18 38  1  0
 19 39  1  0
 19 40  1  0
 19 41  1  0
 20 42  1  0
 21 43  1  0
 22 44  1  0
 23 45  1  0
 24 46  1  0
 25 47  1  0
M  CHG  2  26   1  27  -1
M  END
>  <UniqueID>  (26) 
24

>  <SMILES>  (26) 
Cc1c(NS(=O)(=O)c2ccc(-c3ccnc(N(C)C)c3)cc2)ccc[n+]1[O-]

>  <Energy>  (26) 
59.59842800026171

>  <Genealogy>  (26) 
Cc1c(NS(=O)(=O)c2ccc(-c3ccnc(N(C)C)c3)cc2)ccc[n+]1[O-] (3D coordinates assigned)
Cc1c(NS(=O)(=O)c2ccc(-c3ccnc(N(C)C)c3)cc2)ccc[n+]1[O-] (optimized conformer: 59.59842800026171 kcal/mol)

>  <smiles>  (26) 
Cc1c(NS(=O)(=O)c2ccc(-c3ccnc(N(C)C)c3)cc2)ccc[n+]1[O-]

>  <score_type>  (26) 
oracle

>  <origin>  (26) 
adgpu

>  <m_score__min__energy>  (26) 
-10.17

>  <m_primary>  (26) 
energy

$$$$
26:0
     RDKit          3D

 36 37  0  0  0  0  0  0  0  0999 V2000
   -4.2180   23.5870  -27.2860 C   0  0  0  0  0  0  0  0  0  0  0  0
   -3.1210   23.3730  -28.2360 N   0  0  0  0  0  0  0  0  0  0  0  0
   -3.4030   22.9210  -29.6020 C   0  0  0  0  0  0  0  0  0  0  0  0
   -3.8570   24.0790  -30.4270 C   0  0  0  0  0  0  0  0  0  0  0  0
   -3.5240   25.2480  -30.0970 O   0  0  0  0  0  0  0  0  0  0  0  0
   -4.6540   23.8440  -31.5940 N   0  0  0  0  0  0  0  0  0  0  0  0
   -5.8030   22.9890  -31.6750 C   0  0  0  0  0  0  0  0  0  0  0  0
   -7.0640   23.3900  -31.1960 C   0  0  0  0  0  0  0  0  0  0  0  0
   -8.1720   22.5500  -31.3440 C   0  0  0  0  0  0  0  0  0  0  0  0
   -8.0310   21.3030  -31.9610 C   0  0  0  0  0  0  0  0  0  0  0  0
   -9.1110   20.4980  -32.1180 F   0  0  0  0  0  0  0  0  0  0  0  0
   -6.7820   20.9020  -32.4440 C   0  0  0  0  0  0  0  0  0  0  0  0
   -5.6740   21.7470  -32.3110 C   0  0  0  0  0  0  0  0  0  0  0  0
   -1.7600   23.6020  -27.8290 C   0  0  0  0  0  0  0  0  0  0  0  0
   -0.8950   22.7070  -28.0310 O   0  0  0  0  0  0  0  0  0  0  0  0
   -1.3620   24.8580  -27.1500 C   0  0  0  0  0  0  0  0  0  0  0  0
   -1.2420   24.8840  -25.7490 C   0  0  0  0  0  0  0  0  0  0  0  0
   -0.8300   26.0470  -25.0930 C   0  0  0  0  0  0  0  0  0  0  0  0
   -0.5190   27.1900  -25.8270 C   0  0  0  0  0  0  0  0  0  0  0  0
   -0.6310   27.1790  -27.2190 C   0  0  0  0  0  0  0  0  0  0  0  0
   -1.0460   26.0170  -27.8890 C   0  0  0  0  0  0  0  0  0  0  0  0
   -1.1550   26.0200  -29.2790 O   0  0  0  0  0  0  0  0  0  0  0  0
   -3.8330   23.5119  -26.2583 H   0  0  0  0  0  0  0  0  0  0  0  0
   -4.6499   24.5863  -27.4436 H   0  0  0  0  0  0  0  0  0  0  0  0
   -4.9938   22.8233  -27.4436 H   0  0  0  0  0  0  0  0  0  0  0  0
   -2.4902   22.4930  -30.0421 H   0  0  0  0  0  0  0  0  0  0  0  0
   -4.1931   22.1560  -29.5787 H   0  0  0  0  0  0  0  0  0  0  0  0
   -7.1784   24.3670  -30.7038 H   0  0  0  0  0  0  0  0  0  0  0  0
   -9.1570   22.8709  -30.9742 H   0  0  0  0  0  0  0  0  0  0  0  0
   -6.6697   19.9212  -32.9292 H   0  0  0  0  0  0  0  0  0  0  0  0
   -4.6968   21.4344  -32.7078 H   0  0  0  0  0  0  0  0  0  0  0  0
   -1.4744   23.9814  -25.1648 H   0  0  0  0  0  0  0  0  0  0  0  0
   -0.7511   26.0603  -23.9959 H   0  0  0  0  0  0  0  0  0  0  0  0
   -0.1851   28.1015  -25.3096 H   0  0  0  0  0  0  0  0  0  0  0  0
   -0.3927   28.0860  -27.7939 H   0  0  0  0  0  0  0  0  0  0  0  0
   -2.0000   25.7130  -29.7470 H   0  0  0  0  0  0  0  0  0  0  0  0
  1  2  1  0
  2  3  1  0
  3  4  1  0
  4  5  2  0
  4  6  1  0
  6  7  1  0
  7  8  2  0
  8  9  1  0
  9 10  2  0
 10 11  1  0
 10 12  1  0
 12 13  2  0
  2 14  1  0
 14 15  2  0
 14 16  1  0
 16 17  2  0
 17 18  1  0
 18 19  2  0
 19 20  1  0
 20 21  2  0
 21 22  1  0
 13  7  1  0
 21 16  1  0
  1 23  1  0
  1 24  1  0
  1 25  1  0
  3 26  1  0
  3 27  1  0
  8 28  1  0
  9 29  1  0
 12 30  1  0
 13 31  1  0
 17 32  1  0
 18 33  1  0
 19 34  1  0
 20 35  1  0
 22 36  1  0
M  CHG  1   6  -1
M  END
>  <UniqueID>  (27) 
25

>  <SMILES>  (27) 
CN(CC(=O)[N-]c1ccc(F)cc1)C(=O)c1ccccc1O

>  <Energy>  (27) 
42.93727103408803

>  <Genealogy>  (27) 
CN(CC(=O)[N-]c1ccc(F)cc1)C(=O)c1ccccc1O (protonated)
CN(CC(=O)[N-]c1ccc(F)cc1)C(=O)c1ccccc1O (3D coordinates assigned)
CN(CC(=O)[N-]c1ccc(F)cc1)C(=O)c1ccccc1O (optimized conformer: 42.93727103408803 kcal/mol)

>  <smiles>  (27) 
CN(CC(=O)Nc1ccc(F)cc1)C(=O)c1ccccc1O

>  <score_type>  (27) 
oracle

>  <origin>  (27) 
adgpu

>  <m_score__min__energy>  (27) 
-8.9900000000000002

>  <m_primary>  (27) 
energy

$$$$
27:0
     RDKit          3D

 41 43  0  0  0  0  0  0  0  0999 V2000
   -4.3065   21.2588  -32.2033 H   0  0  0  0  0  0  0  0  0  0  0  0
   -5.3220   20.8540  -32.3250 C   0  0  0  0  0  0  0  0  0  0  0  0
   -5.5020   19.6480  -32.9240 N   0  0  0  0  0  0  0  0  0  0  0  0
   -6.7370   19.0980  -33.0940 C   0  0  0  0  0  0  0  0  0  0  0  0
   -6.8920   17.9520  -33.6930 N   0  0  0  0  0  0  0  0  0  0  0  0
   -5.8530   17.0750  -34.1610 C   0  0  0  0  0  0  0  0  0  0  0  0
   -4.7950   17.5330  -34.9670 C   0  0  0  0  0  0  0  0  0  0  0  0
   -4.7617   18.5870  -35.2799 H   0  0  0  0  0  0  0  0  0  0  0  0
   -3.7860   16.6550  -35.3720 C   0  0  0  0  0  0  0  0  0  0  0  0
   -2.9755   17.0159  -36.0222 H   0  0  0  0  0  0  0  0  0  0  0  0
   -3.8010   15.3160  -34.9540 C   0  0  0  0  0  0  0  0  0  0  0  0
   -2.7390   14.3660  -35.4210 C   0  0  0  0  0  0  0  0  0  0  0  0
   -2.2386   13.9184  -34.5497 H   0  0  0  0  0  0  0  0  0  0  0  0
   -3.1985   13.5720  -36.0280 H   0  0  0  0  0  0  0  0  0  0  0  0
   -2.0009   14.9108  -36.0280 H   0  0  0  0  0  0  0  0  0  0  0  0
   -4.8500   14.8630  -34.1400 C   0  0  0  0  0  0  0  0  0  0  0  0
   -4.8790   13.8110  -33.8198 H   0  0  0  0  0  0  0  0  0  0  0  0
   -5.8580   15.7410  -33.7340 C   0  0  0  0  0  0  0  0  0  0  0  0
   -6.6615   15.3820  -33.0741 H   0  0  0  0  0  0  0  0  0  0  0  0
   -7.8660   19.7990  -32.6570 C   0  0  0  0  0  0  0  0  0  0  0  0
   -8.8708   19.3752  -32.8009 H   0  0  0  0  0  0  0  0  0  0  0  0
   -7.7090   21.0400  -32.0370 C   0  0  0  0  0  0  0  0  0  0  0  0
   -8.5932   21.5919  -31.6854 H   0  0  0  0  0  0  0  0  0  0  0  0
   -6.4280   21.5870  -31.8600 C   0  0  0  0  0  0  0  0  0  0  0  0
   -6.2480   22.9060  -31.2020 C   0  0  0  0  0  0  0  0  0  0  0  0
   -7.3610   23.6430  -30.7570 C   0  0  0  0  0  0  0  0  0  0  0  0
   -8.3742   23.2347  -30.8863 H   0  0  0  0  0  0  0  0  0  0  0  0
   -7.1870   24.8900  -30.1520 C   0  0  0  0  0  0  0  0  0  0  0  0
   -8.0635   25.4637  -29.8165 H   0  0  0  0  0  0  0  0  0  0  0  0
   -5.9050   25.4100  -29.9720 C   0  0  0  0  0  0  0  0  0  0  0  0
   -5.7759   26.3989  -29.5078 H   0  0  0  0  0  0  0  0  0  0  0  0
   -4.7820   24.6800  -30.3790 C   0  0  0  0  0  0  0  0  0  0  0  0
   -3.4800   25.2550  -30.2020 N   0  0  0  0  0  0  0  0  0  0  0  0
   -2.5170   24.9000  -29.2000 C   0  0  0  0  0  0  0  0  0  0  0  0
   -1.5430   25.6690  -28.9920 O   0  0  0  0  0  0  0  0  0  0  0  0
   -2.6560   23.6620  -28.3660 C   0  0  0  0  0  0  0  0  0  0  0  0
   -2.6256   23.9326  -27.3002 H   0  0  0  0  0  0  0  0  0  0  0  0
   -3.6147   23.1728  -28.5929 H   0  0  0  0  0  0  0  0  0  0  0  0
   -1.8296   22.9723  -28.5929 H   0  0  0  0  0  0  0  0  0  0  0  0
   -4.9590   23.4420  -31.0180 C   0  0  0  0  0  0  0  0  0  0  0  0
   -4.0815   22.8852  -31.3785 H   0  0  0  0  0  0  0  0  0  0  0  0
  1  2  1  0
  2  3  1  0
  3  4  1  0
  4  5  2  0
  5  6  1  0
  6  7  2  0
  7  8  1  0
  7  9  1  0
  9 10  1  0
  9 11  2  0
 11 12  1  0
 12 13  1  0
 12 14  1  0
 12 15  1  0
 11 16  1  0
 16 17  1  0
 16 18  2  0
 18 19  1  0
  4 20  1  0
 20 21  1  0
 20 22  2  0
 22 23  1  0
 22 24  1  0
 24 25  1  0
 25 26  2  0
 26 27  1  0
 26 28  1  0
 28 29  1  0
 28 30  2  0
 30 31  1  0
 30 32  1  0
 32 33  1  0
 33 34  1  0
 34 35  2  0
 34 36  1  0
 36 37  1  0
 36 38  1  0
 36 39  1  0
 32 40  2  0
 40 41  1  0
 24  2  2  0
 40 25  1  0
 18  6  1  0
M  CHG  2   3  -1  33  -1
M  END
>  <UniqueID>  (28) 
26

>  <SMILES>  (28) 
CC(=O)[N-]c1cccc(-c2cc/c(=N/c3ccc(C)cc3)[n-]c2)c1

>  <Energy>  (28) 
58.09862385374063

>  <Genealogy>  (28) 
CC(=O)[N-]c1cccc(-c2ccc(=Nc3ccc(C)cc3)[n-]c2)c1 (protonated)
CC(=O)[N-]c1cccc(-c2cc/c(=N/c3ccc(C)cc3)[n-]c2)c1 (cis-trans isomerization)
CC(=O)[N-]c1cccc(-c2cc/c(=N/c3ccc(C)cc3)[n-]c2)c1 (3D coordinates assigned)
CC(=O)[N-]c1cccc(-c2cc/c(=N/c3ccc(C)cc3)[n-]c2)c1 (optimized conformer: 58.09862385374063 kcal/mol)

>  <smiles>  (28) 
CC(=O)Nc1cccc(-c2ccc(=Nc3ccc(C)cc3)[nH]c2)c1

>  <score_type>  (28) 
oracle

>  <origin>  (28) 
adgpu

>  <m_score__min__energy>  (28) 
-10.5

>  <m_primary>  (28) 
energy

$$$$
28:0
     RDKit          3D

 54 57  0  0  0  0  0  0  0  0999 V2000
   -1.5070   21.0450  -26.5970 C   0  0  0  0  0  0  0  0  0  0  0  0
   -0.9630   22.3360  -27.1220 C   0  0  0  0  0  0  0  0  0  0  0  0
    0.3490   22.7570  -26.8310 C   0  0  0  0  0  0  0  0  0  0  0  0
    0.7970   23.9620  -27.4010 C   0  0  0  0  0  0  0  0  0  0  0  0
   -0.0070   24.6710  -28.2280 N   0  0  0  0  0  0  0  0  0  0  0  0
   -1.2750   24.2420  -28.5120 C   0  0  0  0  0  0  0  0  0  0  0  0
   -2.0100   24.9130  -29.3350 N   0  0  0  0  0  0  0  0  0  0  0  0
   -3.6280   24.4770  -29.8020 S   0  0  0  0  0  0  0  0  0  0  0  0
   -4.2330   25.5910  -30.6090 O   0  0  0  0  0  0  0  0  0  0  0  0
   -4.4760   24.2680  -28.5770 O   0  0  0  0  0  0  0  0  0  0  0  0
   -3.5860   22.9920  -30.7650 C   0  0  0  0  0  0  0  0  0  0  0  0
   -2.4990   22.1110  -30.6350 C   0  0  0  0  0  0  0  0  0  0  0  0
   -2.4050   21.0000  -31.4710 C   0  0  0  0  0  0  0  0  0  0  0  0
   -3.3980   20.7510  -32.4300 C   0  0  0  0  0  0  0  0  0  0  0  0
   -3.2330   19.6600  -33.2810 O   0  0  0  0  0  0  0  0  0  0  0  0
   -3.0590   18.3790  -33.7980 C   0  0  0  0  0  0  0  0  0  0  0  0
   -1.7360   17.9590  -33.9650 C   0  0  0  0  0  0  0  0  0  0  0  0
   -1.4450   16.6770  -34.4280 C   0  0  0  0  0  0  0  0  0  0  0  0
   -2.4820   15.7830  -34.7380 C   0  0  0  0  0  0  0  0  0  0  0  0
   -2.2160   14.4660  -35.1540 O   0  0  0  0  0  0  0  0  0  0  0  0
   -2.8680   13.8310  -36.2660 C   0  0  0  0  0  0  0  0  0  0  0  0
   -4.1030   13.3390  -35.8850 F   0  0  0  0  0  0  0  0  0  0  0  0
   -2.0870   12.7880  -36.6910 F   0  0  0  0  0  0  0  0  0  0  0  0
   -3.0250   14.7140  -37.3240 F   0  0  0  0  0  0  0  0  0  0  0  0
   -3.8130   16.2060  -34.6050 C   0  0  0  0  0  0  0  0  0  0  0  0
   -4.1240   17.5130  -34.1640 C   0  0  0  0  0  0  0  0  0  0  0  0
   -5.8300   18.0040  -34.1540 S   0  0  0  0  0  0  0  0  0  0  0  0
   -6.6630   16.7750  -34.3480 O   0  0  0  0  0  0  0  0  0  0  0  0
   -6.0940   18.9490  -35.2990 O   0  0  0  0  0  0  0  0  0  0  0  0
   -6.2660   18.7660  -32.6450 N   0  0  0  0  0  0  0  0  0  0  0  0
   -7.5900   19.3950  -32.7260 C   0  0  0  0  0  0  0  0  0  0  0  0
   -8.2250   18.3720  -31.7980 C   0  0  0  0  0  0  0  0  0  0  0  0
   -6.8150   17.7920  -31.7050 C   0  0  0  0  0  0  0  0  0  0  0  0
   -4.5260   21.5740  -32.5050 C   0  0  0  0  0  0  0  0  0  0  0  0
   -5.5440   21.2570  -33.3440 F   0  0  0  0  0  0  0  0  0  0  0  0
   -4.6170   22.6960  -31.6760 C   0  0  0  0  0  0  0  0  0  0  0  0
   -1.7290   23.0890  -27.9540 N   0  0  0  0  0  0  0  0  0  0  0  0
   -1.4990   21.0640  -25.4972 H   0  0  0  0  0  0  0  0  0  0  0  0
   -2.5387   20.9097  -26.9539 H   0  0  0  0  0  0  0  0  0  0  0  0
   -0.8833   20.2121  -26.9539 H   0  0  0  0  0  0  0  0  0  0  0  0
    1.0035   22.1614  -26.1777 H   0  0  0  0  0  0  0  0  0  0  0  0
    1.8079   24.3312  -27.1733 H   0  0  0  0  0  0  0  0  0  0  0  0
   -1.7250   22.2977  -29.8760 H   0  0  0  0  0  0  0  0  0  0  0  0
   -1.5488   20.3156  -31.3785 H   0  0  0  0  0  0  0  0  0  0  0  0
   -0.9135   18.6498  -33.7277 H   0  0  0  0  0  0  0  0  0  0  0  0
   -0.3976   16.3642  -34.5511 H   0  0  0  0  0  0  0  0  0  0  0  0
   -4.6286   15.5090  -34.8479 H   0  0  0  0  0  0  0  0  0  0  0  0
   -7.6118   20.4197  -32.3265 H   0  0  0  0  0  0  0  0  0  0  0  0
   -8.0375   19.5587  -33.7174 H   0  0  0  0  0  0  0  0  0  0  0  0
   -8.6288   18.7773  -30.8585 H   0  0  0  0  0  0  0  0  0  0  0  0
   -9.1058   17.7734  -32.0735 H   0  0  0  0  0  0  0  0  0  0  0  0
   -6.3790   17.8636  -30.6976 H   0  0  0  0  0  0  0  0  0  0  0  0
   -6.6696   16.7208  -31.9087 H   0  0  0  0  0  0  0  0  0  0  0  0
   -5.4989   23.3507  -31.7361 H   0  0  0  0  0  0  0  0  0  0  0  0
  1  2  1  0
  2  3  1  0
  3  4  2  0
  4  5  1  0
  5  6  1  0
  6  7  2  3
  7  8  1  0
  8  9  2  0
  8 10  2  0
  8 11  1  0
 11 12  2  0
 12 13  1  0
 13 14  2  0
 14 15  1  0
 15 16  1  0
 16 17  2  0
 17 18  1  0
 18 19  2  0
 19 20  1  0
 20 21  1  0
 21 22  1  0
 21 23  1  0
 21 24  1  0
 19 25  1  0
 25 26  2  0
 26 27  1  0
 27 28  2  0
 27 29  2  0
 27 30  1  0
 30 31  1  0
 31 32  1  0
 32 33  1  0
 14 34  1  0
 34 35  1  0
 34 36  2  0
  6 37  1  0
 37  2  2  0
 36 11  1  0
 26 16  1  0
 33 30  1  0
  1 38  1  0
  1 39  1  0
  1 40  1  0
  3 41  1  0
  4 42  1  0
 12 43  1  0
 13 44  1  0
 17 45  1  0
 18 46  1  0
 25 47  1  0
 31 48  1  0
 31 49  1  0
 32 50  1  0
 32 51  1  0
 33 52  1  0
 33 53  1  0
 36 54  1  0
M  CHG  1   5  -1
M  END
>  <UniqueID>  (29) 
27

>  <SMILES>  (29) 
Cc1cc[n-]c(=NS(=O)(=O)c2ccc(Oc3ccc(OC(F)(F)F)cc3S(=O)(=O)N3CCC3)c(F)c2)n1

>  <Energy>  (29) 
183.6577601204797

>  <Genealogy>  (29) 
Cc1cc[n-]c(=NS(=O)(=O)c2ccc(Oc3ccc(OC(F)(F)F)cc3S(=O)(=O)N3CCC3)c(F)c2)n1 (protonated)
Cc1cc[n-]c(=NS(=O)(=O)c2ccc(Oc3ccc(OC(F)(F)F)cc3S(=O)(=O)N3CCC3)c(F)c2)n1 (3D coordinates assigned)
Cc1cc[n-]c(=NS(=O)(=O)c2ccc(Oc3ccc(OC(F)(F)F)cc3S(=O)(=O)N3CCC3)c(F)c2)n1 (nonaromatic ring conformer: 183.6577601204797 kcal/mol)

>  <smiles>  (29) 
Cc1cc[nH]c(=NS(=O)(=O)c2ccc(Oc3ccc(OC(F)(F)F)cc3S(=O)(=O)N3CCC3)c(F)c2)n1

>  <score_type>  (29) 
oracle

>  <origin>  (29) 
adgpu

>  <m_score__min__energy>  (29) 
-9.8900000000000006

>  <m_primary>  (29) 
energy

$$$$
29:0
     RDKit          3D

 58 60  0  0  0  0  0  0  0  0999 V2000
   -5.5910   15.1240  -33.8430 C   0  0  0  0  0  0  0  0  0  0  0  0
   -5.7150   16.4300  -34.3920 O   0  0  0  0  0  0  0  0  0  0  0  0
   -4.8540   17.5020  -34.1040 C   0  0  0  0  0  0  0  0  0  0  0  0
   -3.5710   17.5990  -34.6750 C   0  0  0  0  0  0  0  0  0  0  0  0
   -2.7400   18.6770  -34.3660 C   0  0  0  0  0  0  0  0  0  0  0  0
   -3.1810   19.6840  -33.4970 C   0  0  0  0  0  0  0  0  0  0  0  0
   -2.3440   20.8020  -33.1860 N   0  0  0  0  0  0  0  0  0  0  0  0
   -1.2870   20.7980  -31.8090 S   0  0  0  0  0  0  0  0  0  0  0  0
    0.0900   21.1930  -32.2640 O   0  0  0  0  0  0  0  0  0  0  0  0
   -1.2080   19.4080  -31.2430 O   0  0  0  0  0  0  0  0  0  0  0  0
   -1.8280   21.9470  -30.5660 C   0  0  0  0  0  0  0  0  0  0  0  0
   -2.5990   23.0480  -30.9770 C   0  0  0  0  0  0  0  0  0  0  0  0
   -3.0880   23.9750  -30.0420 C   0  0  0  0  0  0  0  0  0  0  0  0
   -3.8690   25.1140  -30.4360 N   0  0  0  0  0  0  0  0  0  0  0  0
   -5.2720   25.1230  -30.7250 C   0  0  0  0  0  0  0  0  0  0  0  0
   -6.2220   25.6610  -29.7130 C   0  0  0  0  0  0  0  0  0  0  0  0
   -5.7190   24.5980  -31.7790 O   0  0  0  0  0  0  0  0  0  0  0  0
   -2.7650   23.8210  -28.6920 C   0  0  0  0  0  0  0  0  0  0  0  0
   -2.0080   22.7290  -28.2660 C   0  0  0  0  0  0  0  0  0  0  0  0
   -1.5480   21.7710  -29.1850 C   0  0  0  0  0  0  0  0  0  0  0  0
   -0.7350   20.6120  -28.6680 C   0  0  0  0  0  0  0  0  0  0  0  0
   -4.4430   19.5780  -32.9020 C   0  0  0  0  0  0  0  0  0  0  0  0
   -5.2880   18.5020  -33.2130 C   0  0  0  0  0  0  0  0  0  0  0  0
   -6.8840   18.3910  -32.4630 S   0  0  0  0  0  0  0  0  0  0  0  0
   -7.6110   17.1740  -32.9650 O   0  0  0  0  0  0  0  0  0  0  0  0
   -6.7070   18.2650  -30.9750 O   0  0  0  0  0  0  0  0  0  0  0  0
   -7.8100   19.8260  -32.8300 N   0  0  0  0  0  0  0  0  0  0  0  0
   -9.0720   19.8210  -32.0530 C   0  0  0  0  0  0  0  0  0  0  0  0
   -9.6880   21.2200  -31.9730 C   0  0  0  0  0  0  0  0  0  0  0  0
   -8.7490   22.2000  -31.2440 C   0  0  0  0  0  0  0  0  0  0  0  0
   -7.2710   21.7900  -31.3410 C   0  0  0  0  0  0  0  0  0  0  0  0
   -6.9840   21.0490  -32.6580 C   0  0  0  0  0  0  0  0  0  0  0  0
   -5.5969   15.1858  -32.7448 H   0  0  0  0  0  0  0  0  0  0  0  0
   -6.4342   14.5031  -34.1798 H   0  0  0  0  0  0  0  0  0  0  0  0
   -4.6460   14.6729  -34.1798 H   0  0  0  0  0  0  0  0  0  0  0  0
   -3.2212   16.8205  -35.3689 H   0  0  0  0  0  0  0  0  0  0  0  0
   -1.7339   18.7364  -34.8068 H   0  0  0  0  0  0  0  0  0  0  0  0
   -2.0980   21.4630  -33.9580 H   0  0  0  0  0  0  0  0  0  0  0  0
   -2.8224   23.1855  -32.0453 H   0  0  0  0  0  0  0  0  0  0  0  0
   -5.8425   25.4461  -28.7031 H   0  0  0  0  0  0  0  0  0  0  0  0
   -6.3201   26.7487  -29.8440 H   0  0  0  0  0  0  0  0  0  0  0  0
   -7.2053   25.1857  -29.8440 H   0  0  0  0  0  0  0  0  0  0  0  0
   -3.1097   24.5657  -27.9595 H   0  0  0  0  0  0  0  0  0  0  0  0
   -1.7686   22.6169  -27.1982 H   0  0  0  0  0  0  0  0  0  0  0  0
   -0.7415   20.6213  -27.5681 H   0  0  0  0  0  0  0  0  0  0  0  0
   -1.1703   19.6686  -29.0293 H   0  0  0  0  0  0  0  0  0  0  0  0
    0.3002   20.7002  -29.0293 H   0  0  0  0  0  0  0  0  0  0  0  0
   -4.7750   20.3437  -32.1854 H   0  0  0  0  0  0  0  0  0  0  0  0
   -9.7883   19.1425  -32.5393 H   0  0  0  0  0  0  0  0  0  0  0  0
   -8.8459   19.4848  -31.0303 H   0  0  0  0  0  0  0  0  0  0  0  0
   -9.8719   21.5901  -32.9924 H   0  0  0  0  0  0  0  0  0  0  0  0
  -10.6301   21.1546  -31.4089 H   0  0  0  0  0  0  0  0  0  0  0  0
   -8.8671   23.1983  -31.6906 H   0  0  0  0  0  0  0  0  0  0  0  0
   -9.0256   22.1947  -30.1794 H   0  0  0  0  0  0  0  0  0  0  0  0
   -6.6444   22.6929  -31.2935 H   0  0  0  0  0  0  0  0  0  0  0  0
   -7.0417   21.1139  -30.5041 H   0  0  0  0  0  0  0  0  0  0  0  0
   -7.1900   21.7314  -33.4958 H   0  0  0  0  0  0  0  0  0  0  0  0
   -5.9307   20.7330  -32.6340 H   0  0  0  0  0  0  0  0  0  0  0  0
  1  2  1  0
  2  3  1  0
  3  4  2  0
  4  5  1  0
  5  6  2  0
  6  7  1  0
  7  8  1  0
  8  9  2  0
  8 10  2  0
  8 11  1  0
 11 12  2  0
 12 13  1  0
 13 14  1  0
 14 15  1  0
 15 16  1  0
 15 17  2  0
 13 18  2  0
 18 19  1  0
 19 20  2  0
 20 21  1  0
  6 22  1  0
 22 23  2  0
 23 24  1  0
 24 25  2  0
 24 26  2  0
 24 27  1  0
 27 28  1  0
 28 29  1  0
 29 30  1  0
 30 31  1  0
 31 32  1  0
 23  3  1  0
 32 27  1  0
 20 11  1  0
  1 33  1  0
  1 34  1  0
  1 35  1  0
  4 36  1  0
  5 37  1  0
  7 38  1  0
 12 39  1  0
 16 40  1  0
 16 41  1  0
 16 42  1  0
 18 43  1  0
 19 44  1  0
 21 45  1  0
 21 46  1  0
 21 47  1  0
 22 48  1  0
 28 49  1  0
 28 50  1  0
 29 51  1  0
 29 52  1  0
 30 53  1  0
 30 54  1  0
 31 55  1  0
 31 56  1  0
 32 57  1  0
 32 58  1  0
M  CHG  1  14  -1
M  END
>  <UniqueID>  (30) 
28

>  <SMILES>  (30) 
COc1ccc(NS(=O)(=O)c2cc([N-]C(C)=O)ccc2C)cc1S(=O)(=O)N1CCCCC1

>  <Energy>  (30) 
72.7138332889463

>  <Genealogy>  (30) 
COc1ccc(NS(=O)(=O)c2cc([N-]C(C)=O)ccc2C)cc1S(=O)(=O)N1CCCCC1 (protonated)
COc1ccc(NS(=O)(=O)c2cc([N-]C(C)=O)ccc2C)cc1S(=O)(=O)N1CCCCC1 (3D coordinates assigned)
COc1ccc(NS(=O)(=O)c2cc([N-]C(C)=O)ccc2C)cc1S(=O)(=O)N1CCCCC1 (nonaromatic ring conformer: 72.7138332889463 kcal/mol)

>  <smiles>  (30) 
COc1ccc(NS(=O)(=O)c2cc(NC(C)=O)ccc2C)cc1S(=O)(=O)N1CCCCC1

>  <score_type>  (30) 
oracle

>  <origin>  (30) 
adgpu

>  <m_score__min__energy>  (30) 
-11.52

>  <m_primary>  (30) 
energy

$$$$
30:0
     RDKit          3D

 44 47  0  0  0  0  0  0  0  0999 V2000
   -0.9700   16.6260  -35.6020 C   0  0  0  0  0  0  0  0  0  0  0  0
   -0.9090   17.3670  -34.3450 N   0  0  0  0  0  0  0  0  0  0  0  0
    0.1750   18.0090  -33.9400 N   0  0  0  0  0  0  0  0  0  0  0  0
   -0.0930   18.5500  -32.7350 C   0  0  0  0  0  0  0  0  0  0  0  0
   -1.3860   18.2420  -32.3630 C   0  0  0  0  0  0  0  0  0  0  0  0
   -1.8830   17.5020  -33.4170 C   0  0  0  0  0  0  0  0  0  0  0  0
   -3.2410   16.9250  -33.4880 C   0  0  0  0  0  0  0  0  0  0  0  0
   -3.4410   15.5930  -33.0900 C   0  0  0  0  0  0  0  0  0  0  0  0
   -4.7150   15.0210  -33.1480 C   0  0  0  0  0  0  0  0  0  0  0  0
   -4.9510   13.3530  -32.6620 Cl  0  0  0  0  0  0  0  0  0  0  0  0
   -5.8010   15.7810  -33.5880 C   0  0  0  0  0  0  0  0  0  0  0  0
   -5.6180   17.1130  -33.9660 C   0  0  0  0  0  0  0  0  0  0  0  0
   -4.3370   17.6950  -33.9240 C   0  0  0  0  0  0  0  0  0  0  0  0
   -4.1460   19.0490  -34.2390 O   0  0  0  0  0  0  0  0  0  0  0  0
   -4.5360   20.1360  -33.4380 C   0  0  0  0  0  0  0  0  0  0  0  0
   -5.8320   20.2220  -32.9000 C   0  0  0  0  0  0  0  0  0  0  0  0
   -6.2030   21.3220  -32.1220 C   0  0  0  0  0  0  0  0  0  0  0  0
   -5.2880   22.3530  -31.8780 C   0  0  0  0  0  0  0  0  0  0  0  0
   -5.7460   23.7380  -30.8930 S   0  0  0  0  0  0  0  0  0  0  0  0
   -7.2360   23.7750  -30.6950 O   0  0  0  0  0  0  0  0  0  0  0  0
   -5.3120   24.9970  -31.5870 O   0  0  0  0  0  0  0  0  0  0  0  0
   -4.9740   23.6440  -29.3430 N   0  0  0  0  0  0  0  0  0  0  0  0
   -3.8300   24.2000  -29.0890 C   0  0  0  0  0  0  0  0  0  0  0  0
   -3.1900   24.1540  -27.8730 C   0  0  0  0  0  0  0  0  0  0  0  0
   -2.0400   24.8800  -28.0980 C   0  0  0  0  0  0  0  0  0  0  0  0
   -2.0400   25.2980  -29.3450 O   0  0  0  0  0  0  0  0  0  0  0  0
   -3.1080   24.9060  -29.9790 N   0  0  0  0  0  0  0  0  0  0  0  0
   -4.0040   22.2850  -32.4340 C   0  0  0  0  0  0  0  0  0  0  0  0
   -3.6280   21.1850  -33.2150 C   0  0  0  0  0  0  0  0  0  0  0  0
   -2.3020   21.1350  -33.7790 C   0  0  0  0  0  0  0  0  0  0  0  0
   -1.2380   21.0940  -34.2320 N   0  0  0  0  0  0  0  0  0  0  0  0
   -1.0585   15.5503  -35.3896 H   0  0  0  0  0  0  0  0  0  0  0  0
   -1.8438   16.9585  -36.1816 H   0  0  0  0  0  0  0  0  0  0  0  0
   -0.0536   16.8111  -36.1816 H   0  0  0  0  0  0  0  0  0  0  0  0
    0.6123   19.1469  -32.1381 H   0  0  0  0  0  0  0  0  0  0  0  0
   -1.9044   18.5233  -31.4345 H   0  0  0  0  0  0  0  0  0  0  0  0
   -2.5898   14.9963  -32.7304 H   0  0  0  0  0  0  0  0  0  0  0  0
   -6.8028   15.3294  -33.6370 H   0  0  0  0  0  0  0  0  0  0  0  0
   -6.4796   17.7106  -34.2984 H   0  0  0  0  0  0  0  0  0  0  0  0
   -6.5583   19.4187  -33.0926 H   0  0  0  0  0  0  0  0  0  0  0  0
   -7.2173   21.3779  -31.7000 H   0  0  0  0  0  0  0  0  0  0  0  0
   -3.5161   23.6587  -26.9466 H   0  0  0  0  0  0  0  0  0  0  0  0
   -1.2519   25.0773  -27.3565 H   0  0  0  0  0  0  0  0  0  0  0  0
   -3.2871   23.1001  -32.2562 H   0  0  0  0  0  0  0  0  0  0  0  0
  1  2  1  0
  2  3  1  0
  3  4  2  0
  4  5  1  0
  5  6  2  0
  6  7  1  0
  7  8  2  0
  8  9  1  0
  9 10  1  0
  9 11  2  0
 11 12  1  0
 12 13  2  0
 13 14  1  0
 14 15  1  0
 15 16  2  0
 16 17  1  0
 17 18  2  0
 18 19  1  0
 19 20  2  0
 19 21  2  0
 19 22  1  0
 22 23  2  3
 23 24  1  0
 24 25  2  0
 25 26  1  0
 26 27  1  0
 18 28  1  0
 28 29  2  0
 29 30  1  0
 30 31  3  0
  6  2  1  0
 13  7  1  0
 29 15  1  0
 27 23  1  0
  1 32  1  0
  1 33  1  0
  1 34  1  0
  4 35  1  0
  5 36  1  0
  8 37  1  0
 11 38  1  0
 12 39  1  0
 16 40  1  0
 17 41  1  0
 24 42  1  0
 25 43  1  0
 28 44  1  0
M  CHG  1  27  -1
M  END
>  <UniqueID>  (31) 
29

>  <SMILES>  (31) 
Cn1nccc1-c1cc(Cl)ccc1Oc1ccc(S(=O)(=O)N=c2cco[n-]2)cc1C#N

>  <Energy>  (31) 
122.45683742980138

>  <Genealogy>  (31) 
Cn1nccc1-c1cc(Cl)ccc1Oc1ccc(S(=O)(=O)N=c2cco[n-]2)cc1C#N (protonated)
Cn1nccc1-c1cc(Cl)ccc1Oc1ccc(S(=O)(=O)N=c2cco[n-]2)cc1C#N (3D coordinates assigned)
Cn1nccc1-c1cc(Cl)ccc1Oc1ccc(S(=O)(=O)N=c2cco[n-]2)cc1C#N (optimized conformer: 122.45683742980138 kcal/mol)

>  <smiles>  (31) 
Cn1nccc1-c1cc(Cl)ccc1Oc1ccc(S(=O)(=O)N=c2cco[nH]2)cc1C#N

>  <score_type>  (31) 
oracle

>  <origin>  (31) 
adgpu

>  <m_score__min__energy>  (31) 
-11.01

>  <m_primary>  (31) 
energy

$$$$
31:0
     RDKit          3D

 52 54  0  0  0  0  0  0  0  0999 V2000
   -9.7440   21.5670  -31.9670 C   0  0  0  0  0  0  0  0  0  0  0  0
   -8.6130   20.5820  -32.0260 C   0  0  0  0  0  0  0  0  0  0  0  0
   -8.8670   19.2200  -32.2480 C   0  0  0  0  0  0  0  0  0  0  0  0
   -7.8070   18.3160  -32.3470 C   0  0  0  0  0  0  0  0  0  0  0  0
   -6.4880   18.7630  -32.2280 C   0  0  0  0  0  0  0  0  0  0  0  0
   -6.2200   20.1230  -31.9970 C   0  0  0  0  0  0  0  0  0  0  0  0
   -4.8810   20.6300  -31.9020 N   0  0  0  0  0  0  0  0  0  0  0  0
   -4.4430   21.9520  -32.2390 C   0  0  0  0  0  0  0  0  0  0  0  0
   -4.2070   22.2520  -33.4400 O   0  0  0  0  0  0  0  0  0  0  0  0
   -4.1920   22.9440  -31.1700 C   0  0  0  0  0  0  0  0  0  0  0  0
   -5.0440   23.9660  -30.7720 C   0  0  0  0  0  0  0  0  0  0  0  0
   -6.4000   24.2660  -31.3330 C   0  0  0  0  0  0  0  0  0  0  0  0
   -4.4690   24.7020  -29.8020 N   0  0  0  0  0  0  0  0  0  0  0  0
   -3.2530   24.1750  -29.5650 C   0  0  0  0  0  0  0  0  0  0  0  0
   -2.2960   24.7570  -28.5990 C   0  0  0  0  0  0  0  0  0  0  0  0
   -1.5140   25.6760  -28.9630 O   0  0  0  0  0  0  0  0  0  0  0  0
   -2.2610   24.2850  -27.2440 N   0  0  0  0  0  0  0  0  0  0  0  0
   -1.4680   24.9210  -26.2320 C   0  0  0  0  0  0  0  0  0  0  0  0
   -2.0050   26.0250  -25.5590 C   0  0  0  0  0  0  0  0  0  0  0  0
   -1.2860   26.6610  -24.5510 C   0  0  0  0  0  0  0  0  0  0  0  0
   -0.0180   26.2010  -24.2000 C   0  0  0  0  0  0  0  0  0  0  0  0
    0.5530   25.1030  -24.8640 C   0  0  0  0  0  0  0  0  0  0  0  0
    1.9310   24.6490  -24.4580 C   0  0  0  0  0  0  0  0  0  0  0  0
   -0.1550   24.4790  -25.9250 C   0  0  0  0  0  0  0  0  0  0  0  0
    0.4780   23.3520  -26.7100 C   0  0  0  0  0  0  0  0  0  0  0  0
   -3.0500   23.0650  -30.3810 C   0  0  0  0  0  0  0  0  0  0  0  0
   -1.8450   22.1670  -30.3950 C   0  0  0  0  0  0  0  0  0  0  0  0
   -7.2870   21.0290  -31.9230 C   0  0  0  0  0  0  0  0  0  0  0  0
   -9.9895   21.7808  -30.9163 H   0  0  0  0  0  0  0  0  0  0  0  0
   -9.4458   22.4983  -32.4707 H   0  0  0  0  0  0  0  0  0  0  0  0
  -10.6255   21.1437  -32.4707 H   0  0  0  0  0  0  0  0  0  0  0  0
   -9.9032   18.8635  -32.3443 H   0  0  0  0  0  0  0  0  0  0  0  0
   -8.0108   17.2488  -32.5192 H   0  0  0  0  0  0  0  0  0  0  0  0
   -5.6569   18.0477  -32.3155 H   0  0  0  0  0  0  0  0  0  0  0  0
   -7.1112   24.4233  -30.5087 H   0  0  0  0  0  0  0  0  0  0  0  0
   -6.3483   25.1744  -31.9511 H   0  0  0  0  0  0  0  0  0  0  0  0
   -6.7363   23.4205  -31.9511 H   0  0  0  0  0  0  0  0  0  0  0  0
   -4.8810   25.5500  -29.3530 H   0  0  0  0  0  0  0  0  0  0  0  0
   -2.6410   23.3330  -27.0380 H   0  0  0  0  0  0  0  0  0  0  0  0
   -3.0055   26.3936  -25.8296 H   0  0  0  0  0  0  0  0  0  0  0  0
   -1.7192   27.5279  -24.0307 H   0  0  0  0  0  0  0  0  0  0  0  0
    0.5405   26.7024  -23.3958 H   0  0  0  0  0  0  0  0  0  0  0  0
    2.0009   24.6260  -23.3605 H   0  0  0  0  0  0  0  0  0  0  0  0
    2.1180   23.6417  -24.8586 H   0  0  0  0  0  0  0  0  0  0  0  0
    2.6801   25.3478  -24.8586 H   0  0  0  0  0  0  0  0  0  0  0  0
    0.8951   22.6094  -26.0139 H   0  0  0  0  0  0  0  0  0  0  0  0
   -0.2834   22.8736  -27.3435 H   0  0  0  0  0  0  0  0  0  0  0  0
    1.2827   23.7533  -27.3435 H   0  0  0  0  0  0  0  0  0  0  0  0
   -1.5433   21.9421  -29.3614 H   0  0  0  0  0  0  0  0  0  0  0  0
   -2.0916   21.2306  -30.9169 H   0  0  0  0  0  0  0  0  0  0  0  0
   -1.0182   22.6710  -30.9169 H   0  0  0  0  0  0  0  0  0  0  0  0
   -7.0828   22.1008  -31.7828 H   0  0  0  0  0  0  0  0  0  0  0  0
  1  2  1  0
  2  3  2  0
  3  4  1  0
  4  5  2  0
  5  6  1  0
  6  7  1  0
  7  8  1  0
  8  9  2  0
  8 10  1  0
 10 11  2  0
 11 12  1  0
 11 13  1  0
 13 14  1  0
 14 15  1  0
 15 16  2  0
 15 17  1  0
 17 18  1  0
 18 19  2  0
 19 20  1  0
 20 21  2  0
 21 22  1  0
 22 23  1  0
 22 24  2  0
 24 25  1  0
 14 26  2  0
 26 27  1  0
  6 28  2  0
 28  2  1  0
 26 10  1  0
 24 18  1  0
  1 29  1  0
  1 30  1  0
  1 31  1  0
  3 32  1  0
  4 33  1  0
  5 34  1  0
 12 35  1  0
 12 36  1  0
 12 37  1  0
 13 38  1  0
 17 39  1  0
 19 40  1  0
 20 41  1  0
 21 42  1  0
 23 43  1  0
 23 44  1  0
 23 45  1  0
 25 46  1  0
 25 47  1  0
 25 48  1  0
 27 49  1  0
 27 50  1  0
 27 51  1  0
 28 52  1  0
M  CHG  1   7  -1
M  END
>  <UniqueID>  (32) 
30

>  <SMILES>  (32) 
Cc1cccc([N-]C(=O)c2c(C)[nH]c(C(=O)Nc3cccc(C)c3C)c2C)c1

>  <Energy>  (32) 
91.61409366409906

>  <Genealogy>  (32) 
Cc1cccc([N-]C(=O)c2c(C)[nH]c(C(=O)Nc3cccc(C)c3C)c2C)c1 (protonated)
Cc1cccc([N-]C(=O)c2c(C)[nH]c(C(=O)Nc3cccc(C)c3C)c2C)c1 (3D coordinates assigned)
Cc1cccc([N-]C(=O)c2c(C)[nH]c(C(=O)Nc3cccc(C)c3C)c2C)c1 (optimized conformer: 91.61409366409906 kcal/mol)

>  <smiles>  (32) 
Cc1cccc(NC(=O)c2c(C)[nH]c(C(=O)Nc3cccc(C)c3C)c2C)c1

>  <score_type>  (32) 
oracle

>  <origin>  (32) 
adgpu

>  <m_score__min__energy>  (32) 
-10.289999999999999

>  <m_primary>  (32) 
energy

$$$$
32:0
     RDKit          3D

 49 53  0  0  0  0  0  0  0  0999 V2000
   -2.6933   14.9008  -32.2837 H   0  0  0  0  0  0  0  0  0  0  0  0
   -3.6060   14.4760  -32.7270 C   0  0  0  0  0  0  0  0  0  0  0  0
   -4.5450   15.2980  -33.2680 N   0  0  0  0  0  0  0  0  0  0  0  0
   -5.6870   14.8090  -33.8250 C   0  0  0  0  0  0  0  0  0  0  0  0
   -6.8750   15.9370  -34.5460 S   0  0  0  0  0  0  0  0  0  0  0  0
   -6.2370   17.3280  -33.6140 C   0  0  0  0  0  0  0  0  0  0  0  0
   -6.4150   17.3860  -32.2270 C   0  0  0  0  0  0  0  0  0  0  0  0
   -6.9773   16.5930  -31.7121 H   0  0  0  0  0  0  0  0  0  0  0  0
   -5.8800   18.4490  -31.4950 C   0  0  0  0  0  0  0  0  0  0  0  0
   -6.0377   18.5015  -30.4076 H   0  0  0  0  0  0  0  0  0  0  0  0
   -5.1430   19.4480  -32.1440 C   0  0  0  0  0  0  0  0  0  0  0  0
   -4.6110   20.5420  -31.3900 N   0  0  0  0  0  0  0  0  0  0  0  0
   -5.2390   21.5570  -30.8460 C   0  0  0  0  0  0  0  0  0  0  0  0
   -6.6180   21.8430  -31.0660 C   0  0  0  0  0  0  0  0  0  0  0  0
   -7.4490   21.1410  -32.0190 C   0  0  0  0  0  0  0  0  0  0  0  0
   -8.1200   20.5880  -32.7830 N   0  0  0  0  0  0  0  0  0  0  0  0
   -7.2080   22.9260  -30.4050 C   0  0  0  0  0  0  0  0  0  0  0  0
   -8.2765   23.1382  -30.5579 H   0  0  0  0  0  0  0  0  0  0  0  0
   -6.4800   23.7180  -29.5780 N   0  0  0  0  0  0  0  0  0  0  0  0
   -6.9650   24.5170  -29.1100 H   0  0  0  0  0  0  0  0  0  0  0  0
   -5.1520   23.5090  -29.3710 C   0  0  0  0  0  0  0  0  0  0  0  0
   -4.4310   24.3670  -28.5260 C   0  0  0  0  0  0  0  0  0  0  0  0
   -4.9481   25.2044  -28.0346 H   0  0  0  0  0  0  0  0  0  0  0  0
   -3.0600   24.1720  -28.2990 C   0  0  0  0  0  0  0  0  0  0  0  0
   -2.3040   25.0840  -27.4040 C   0  0  0  0  0  0  0  0  0  0  0  0
   -2.7170   25.3170  -26.0830 C   0  0  0  0  0  0  0  0  0  0  0  0
   -3.6186   24.8199  -25.6956 H   0  0  0  0  0  0  0  0  0  0  0  0
   -2.0090   26.1530  -25.2810 N   0  0  0  0  0  0  0  0  0  0  0  0
   -0.8960   26.7830  -25.7390 C   0  0  0  0  0  0  0  0  0  0  0  0
   -0.1660   27.6650  -24.8730 C   0  0  0  0  0  0  0  0  0  0  0  0
    0.4240   28.3760  -24.1760 N   0  0  0  0  0  0  0  0  0  0  0  0
   -0.4740   26.5790  -27.0120 N   0  0  0  0  0  0  0  0  0  0  0  0
   -1.1490   25.7480  -27.8480 C   0  0  0  0  0  0  0  0  0  0  0  0
   -0.7897   25.5946  -28.8763 H   0  0  0  0  0  0  0  0  0  0  0  0
   -2.4130   23.0980  -28.9320 C   0  0  0  0  0  0  0  0  0  0  0  0
   -1.3383   22.9345  -28.7641 H   0  0  0  0  0  0  0  0  0  0  0  0
   -3.1200   22.2360  -29.7720 C   0  0  0  0  0  0  0  0  0  0  0  0
   -2.5965   21.3985  -30.2563 H   0  0  0  0  0  0  0  0  0  0  0  0
   -4.4970   22.4260  -30.0070 C   0  0  0  0  0  0  0  0  0  0  0  0
   -5.0050   19.4140  -33.5410 C   0  0  0  0  0  0  0  0  0  0  0  0
   -4.4721   20.2241  -34.0604 H   0  0  0  0  0  0  0  0  0  0  0  0
   -5.5440   18.3520  -34.2720 C   0  0  0  0  0  0  0  0  0  0  0  0
   -5.4240   18.3202  -35.3650 H   0  0  0  0  0  0  0  0  0  0  0  0
   -5.9180   13.4300  -33.8470 C   0  0  0  0  0  0  0  0  0  0  0  0
   -6.8401   13.0277  -34.2918 H   0  0  0  0  0  0  0  0  0  0  0  0
   -4.9650   12.5690  -33.2980 C   0  0  0  0  0  0  0  0  0  0  0  0
   -5.1320   11.4818  -33.3100 H   0  0  0  0  0  0  0  0  0  0  0  0
   -3.8000   13.0920  -32.7340 C   0  0  0  0  0  0  0  0  0  0  0  0
   -3.0431   12.4222  -32.2999 H   0  0  0  0  0  0  0  0  0  0  0  0
  1  2  1  0
  2  3  2  0
  3  4  1  0
  4  5  1  0
  5  6  1  0
  6  7  2  0
  7  8  1  0
  7  9  1  0
  9 10  1  0
  9 11  2  0
 11 12  1  0
 12 13  2  0
 13 14  1  0
 14 15  1  0
 15 16  3  0
 14 17  2  0
 17 18  1  0
 17 19  1  0
 19 20  1  0
 19 21  1  0
 21 22  2  0
 22 23  1  0
 22 24  1  0
 24 25  1  0
 25 26  2  0
 26 27  1  0
 26 28  1  0
 28 29  2  0
 29 30  1  0
 30 31  3  0
 29 32  1  0
 32 33  2  0
 33 34  1  0
 24 35  2  0
 35 36  1  0
 35 37  1  0
 37 38  1  0
 37 39  2  0
 11 40  1  0
 40 41  1  0
 40 42  2  0
 42 43  1  0
  4 44  2  0
 44 45  1  0
 44 46  1  0
 46 47  1  0
 46 48  2  0
 48 49  1  0
 48  2  1  0
 42  6  1  0
 39 13  1  0
 39 21  1  0
 33 25  1  0
M  END
>  <UniqueID>  (33) 
31

>  <SMILES>  (33) 
N#Cc1ncc(-c2ccc3/c(=N/c4ccc(Sc5ccccn5)cc4)c(C#N)c[nH]c3c2)cn1

>  <Energy>  (33) 
77.69484843151801

>  <Genealogy>  (33) 
N#Cc1ncc(-c2ccc3/c(=N/c4ccc(Sc5ccccn5)cc4)c(C#N)c[nH]c3c2)cn1 (cis-trans isomerization)
N#Cc1ncc(-c2ccc3/c(=N/c4ccc(Sc5ccccn5)cc4)c(C#N)c[nH]c3c2)cn1 (3D coordinates assigned)
N#Cc1ncc(-c2ccc3/c(=N/c4ccc(Sc5ccccn5)cc4)c(C#N)c[nH]c3c2)cn1 (optimized conformer: 77.69484843151801 kcal/mol)

>  <smiles>  (33) 
N#Cc1ncc(-c2ccc3c(=Nc4ccc(Sc5ccccn5)cc4)c(C#N)c[nH]c3c2)cn1

>  <score_type>  (33) 
oracle

>  <origin>  (33) 
adgpu

>  <m_score__min__energy>  (33) 
-8.8699999999999992

>  <m_primary>  (33) 
energy

$$$$
33:0
     RDKit          3D

 37 39  0  0  1  0  0  0  0  0999 V2000
   -9.4780   20.1430  -32.2710 C   0  0  0  0  0  0  0  0  0  0  0  0
   -8.0130   19.9780  -32.4390 C   0  0  0  0  0  0  0  0  0  0  0  0
   -7.5500   19.0260  -33.2690 N   0  0  0  0  0  0  0  0  0  0  0  0
   -6.2310   18.8400  -33.4650 C   0  0  0  0  0  0  0  0  0  0  0  0
   -5.8490   17.8900  -34.3590 C   0  0  0  0  0  0  0  0  0  0  0  0
   -4.4990   17.7560  -34.5930 C   0  0  0  0  0  0  0  0  0  0  0  0
   -3.5820   18.5440  -33.9640 C   0  0  0  0  0  0  0  0  0  0  0  0
   -3.9590   19.5430  -33.0260 C   0  0  0  0  0  0  0  0  0  0  0  0
   -2.8970   20.2300  -32.5560 O   0  0  0  0  0  0  0  0  0  0  0  0
   -5.2940   19.6290  -32.8110 C   0  0  0  0  0  0  0  0  0  0  0  0
   -5.7660   20.5740  -31.9650 C   0  0  0  0  0  0  0  0  0  0  0  0
   -5.0940   21.0210  -30.9890 N   0  0  0  0  0  0  0  0  0  0  0  0
   -3.7940   20.6040  -30.6080 C   0  0  0  0  0  0  0  0  0  0  0  0
   -3.3260   22.0360  -30.1750 C   0  0  0  0  0  0  0  0  0  0  0  0
   -2.2640   22.0120  -29.3140 C   0  0  0  0  0  0  0  0  0  0  0  0
   -1.7810   23.2560  -28.9140 C   0  0  0  0  0  0  0  0  0  0  0  0
   -2.3640   24.4140  -29.3770 C   0  0  0  0  0  0  0  0  0  0  0  0
   -1.8440   25.6250  -28.9470 O   0  0  0  0  0  0  0  0  0  0  0  0
   -3.4330   24.4090  -30.2440 C   0  0  0  0  0  0  0  0  0  0  0  0
   -4.0390   25.5580  -30.7260 O   0  0  0  0  0  0  0  0  0  0  0  0
   -3.9080   23.1510  -30.6380 C   0  0  0  0  0  0  0  0  0  0  0  0
   -7.1180   20.7600  -31.7810 N   0  0  0  0  0  0  0  0  0  0  0  0
   -9.7233   20.1706  -31.1991 H   0  0  0  0  0  0  0  0  0  0  0  0
   -9.7978   21.0828  -32.7447 H   0  0  0  0  0  0  0  0  0  0  0  0
   -9.9989   19.2978  -32.7447 H   0  0  0  0  0  0  0  0  0  0  0  0
   -6.5864   17.2560  -34.8731 H   0  0  0  0  0  0  0  0  0  0  0  0
   -4.1516   16.9936  -35.3057 H   0  0  0  0  0  0  0  0  0  0  0  0
   -2.5148   18.4021  -34.1898 H   0  0  0  0  0  0  0  0  0  0  0  0
   -2.7450   21.2260  -32.5630 H   0  0  0  0  0  0  0  0  0  0  0  0
   -3.7989   19.8828  -29.7774 H   0  0  0  0  0  0  0  0  0  0  0  0
   -3.1869   20.0660  -31.3510 H   0  0  0  0  0  0  0  0  0  0  0  0
   -1.8193   21.0703  -28.9597 H   0  0  0  0  0  0  0  0  0  0  0  0
   -0.9272   23.3134  -28.2229 H   0  0  0  0  0  0  0  0  0  0  0  0
   -2.4950   26.4230  -28.9730 H   0  0  0  0  0  0  0  0  0  0  0  0
   -4.2120   25.6750  -31.7150 H   0  0  0  0  0  0  0  0  0  0  0  0
   -4.7607   23.0784  -31.3291 H   0  0  0  0  0  0  0  0  0  0  0  0
   -7.5030   21.4750  -31.1620 H   0  0  0  0  0  0  0  0  0  0  0  0
  1  2  1  0
  2  3  2  0
  3  4  1  0
  4  5  2  0
  5  6  1  0
  6  7  2  0
  7  8  1  0
  8  9  1  0
  8 10  2  0
 10 11  1  0
 11 12  2  0
 12 13  1  0
 13 14  1  0
 14 15  2  0
 15 16  1  0
 16 17  2  0
 17 18  1  0
 17 19  1  0
 19 20  1  0
 19 21  2  0
 11 22  1  0
 22  2  1  0
 10  4  1  0
 21 14  1  0
  1 23  1  0
  1 24  1  0
  1 25  1  0
  5 26  1  0
  6 27  1  0
  7 28  1  0
  9 29  1  0
 13 30  1  0
 13 31  1  0
 15 32  1  0
 16 33  1  0
 18 34  1  0
 20 35  1  0
 21 36  1  0
 22 37  1  0
M  END
>  <smiles>  (34) 
Cc1nc2cccc(O)c2c(=NCc2ccc(O)c(O)c2)[nH]1

>  <score_type>  (34) 
oracle

>  <origin>  (34) 
adgpu

>  <m_score__min__energy>  (34) 
-8.2799999999999994

>  <m_primary>  (34) 
energy

$$$$
34:0
     RDKit          3D

 49 51  0  0  0  0  0  0  0  0999 V2000
   -9.0750   18.7120  -31.9500 C   0  0  0  0  0  0  0  0  0  0  0  0
   -7.7340   19.0540  -31.6160 O   0  0  0  0  0  0  0  0  0  0  0  0
   -7.1960   20.3450  -31.7210 C   0  0  0  0  0  0  0  0  0  0  0  0
   -5.8560   20.4790  -32.0990 C   0  0  0  0  0  0  0  0  0  0  0  0
   -5.2750   21.7450  -32.2160 C   0  0  0  0  0  0  0  0  0  0  0  0
   -6.0190   22.8970  -31.9400 C   0  0  0  0  0  0  0  0  0  0  0  0
   -5.3880   24.1770  -32.0930 N   0  0  0  0  0  0  0  0  0  0  0  0
   -5.1600   25.1520  -31.0680 C   0  0  0  0  0  0  0  0  0  0  0  0
   -6.0850   25.9210  -30.6980 O   0  0  0  0  0  0  0  0  0  0  0  0
   -3.8740   25.2700  -30.4500 N   0  0  0  0  0  0  0  0  0  0  0  0
   -3.2780   24.3270  -29.5470 C   0  0  0  0  0  0  0  0  0  0  0  0
   -3.9500   23.1610  -29.1620 C   0  0  0  0  0  0  0  0  0  0  0  0
   -3.3630   22.2760  -28.2620 C   0  0  0  0  0  0  0  0  0  0  0  0
   -2.0920   22.5290  -27.7230 C   0  0  0  0  0  0  0  0  0  0  0  0
   -1.5460   21.5450  -26.7210 C   0  0  0  0  0  0  0  0  0  0  0  0
   -1.4070   23.7240  -28.0850 C   0  0  0  0  0  0  0  0  0  0  0  0
    0.2090   24.1390  -27.4420 S   0  0  0  0  0  0  0  0  0  0  0  0
    0.8000   22.9230  -26.7830 O   0  0  0  0  0  0  0  0  0  0  0  0
    1.1460   24.5300  -28.5510 O   0  0  0  0  0  0  0  0  0  0  0  0
    0.1440   25.4400  -26.2730 N   0  0  0  0  0  0  0  0  0  0  0  0
    0.7990   25.0530  -25.0160 C   0  0  0  0  0  0  0  0  0  0  0  0
    0.7630   26.2320  -24.0220 C   0  0  0  0  0  0  0  0  0  0  0  0
   -0.0190   27.3140  -24.5000 O   0  0  0  0  0  0  0  0  0  0  0  0
   -1.3100   26.8550  -24.8490 C   0  0  0  0  0  0  0  0  0  0  0  0
   -1.2470   25.8420  -26.0120 C   0  0  0  0  0  0  0  0  0  0  0  0
   -2.0280   24.6180  -28.9880 C   0  0  0  0  0  0  0  0  0  0  0  0
   -1.4010   25.8090  -29.3440 O   0  0  0  0  0  0  0  0  0  0  0  0
   -7.3730   22.7690  -31.5840 C   0  0  0  0  0  0  0  0  0  0  0  0
   -7.9560   21.5030  -31.4670 C   0  0  0  0  0  0  0  0  0  0  0  0
   -9.6561   18.5638  -31.0279 H   0  0  0  0  0  0  0  0  0  0  0  0
   -9.5245   19.5243  -32.5401 H   0  0  0  0  0  0  0  0  0  0  0  0
   -9.0805   17.7837  -32.5401 H   0  0  0  0  0  0  0  0  0  0  0  0
   -5.2548   19.5813  -32.3058 H   0  0  0  0  0  0  0  0  0  0  0  0
   -4.2240   21.8361  -32.5277 H   0  0  0  0  0  0  0  0  0  0  0  0
   -4.9469   22.9430  -29.5727 H   0  0  0  0  0  0  0  0  0  0  0  0
   -3.9037   21.3641  -27.9686 H   0  0  0  0  0  0  0  0  0  0  0  0
   -1.7478   21.9086  -25.7026 H   0  0  0  0  0  0  0  0  0  0  0  0
   -2.0312   20.5683  -26.8644 H   0  0  0  0  0  0  0  0  0  0  0  0
   -0.4605   21.4398  -26.8644 H   0  0  0  0  0  0  0  0  0  0  0  0
    0.2718   24.1917  -24.5799 H   0  0  0  0  0  0  0  0  0  0  0  0
    1.8455   24.7829  -25.2206 H   0  0  0  0  0  0  0  0  0  0  0  0
    0.3367   25.8802  -23.0709 H   0  0  0  0  0  0  0  0  0  0  0  0
    1.7936   26.5934  -23.8904 H   0  0  0  0  0  0  0  0  0  0  0  0
   -1.7666   26.3690  -23.9742 H   0  0  0  0  0  0  0  0  0  0  0  0
   -1.9112   27.7180  -25.1711 H   0  0  0  0  0  0  0  0  0  0  0  0
   -1.8373   24.9519  -25.7487 H   0  0  0  0  0  0  0  0  0  0  0  0
   -1.6555   26.3150  -26.9172 H   0  0  0  0  0  0  0  0  0  0  0  0
   -7.9770   23.6690  -31.3965 H   0  0  0  0  0  0  0  0  0  0  0  0
   -9.0127   21.4115  -31.1753 H   0  0  0  0  0  0  0  0  0  0  0  0
  1  2  1  0
  2  3  1  0
  3  4  2  0
  4  5  1  0
  5  6  2  0
  6  7  1  0
  7  8  1  0
  8  9  2  0
  8 10  1  0
 10 11  1  0
 11 12  2  0
 12 13  1  0
 13 14  2  0
 14 15  1  0
 14 16  1  0
 16 17  1  0
 17 18  2  0
 17 19  2  0
 17 20  1  0
 20 21  1  0
 21 22  1  0
 22 23  1  0
 23 24  1  0
 24 25  1  0
 16 26  2  0
 26 27  1  0
  6 28  1  0
 28 29  2  0
 29  3  1  0
 26 11  1  0
 25 20  1  0
  1 30  1  0
  1 31  1  0
  1 32  1  0
  4 33  1  0
  5 34  1  0
 12 35  1  0
 13 36  1  0
 15 37  1  0
 15 38  1  0
 15 39  1  0
 21 40  1  0
 21 41  1  0
 22 42  1  0
 22 43  1  0
 24 44  1  0
 24 45  1  0
 25 46  1  0
 25 47  1  0
 28 48  1  0
 29 49  1  0
M  CHG  3   7  -1  10  -1  27  -1
M  END
>  <UniqueID>  (35) 
32

>  <SMILES>  (35) 
COc1ccc([N-]C(=O)[N-]c2ccc(C)c(S(=O)(=O)N3CCOCC3)c2[O-])cc1

>  <Energy>  (35) 
68.90240364682339

>  <Genealogy>  (35) 
COc1ccc([N-]C(=O)[N-]c2ccc(C)c(S(=O)(=O)N3CCOCC3)c2[O-])cc1 (protonated)
COc1ccc([N-]C(=O)[N-]c2ccc(C)c(S(=O)(=O)N3CCOCC3)c2[O-])cc1 (3D coordinates assigned)
COc1ccc([N-]C(=O)[N-]c2ccc(C)c(S(=O)(=O)N3CCOCC3)c2[O-])cc1 (nonaromatic ring conformer: 68.90240364682339 kcal/mol)

>  <smiles>  (35) 
COc1ccc(NC(=O)Nc2ccc(C)c(S(=O)(=O)N3CCOCC3)c2O)cc1

>  <score_type>  (35) 
oracle

>  <origin>  (35) 
adgpu

>  <m_score__min__energy>  (35) 
-14.710000000000001

>  <m_primary>  (35) 
energy

$$$$
35:0
     RDKit          3D

 72 76  0  0  0  0  0  0  0  0999 V2000
   -0.7180   28.2700  -24.8650 C   0  0  0  0  0  0  0  0  0  0  0  0
    0.0610   27.1170  -24.3770 N   0  0  0  0  0  0  0  0  0  0  0  0
    1.0550   26.6650  -25.3800 C   0  0  0  0  0  0  0  0  0  0  0  0
    0.3740   26.0360  -26.6110 C   0  0  0  0  0  0  0  0  0  0  0  0
   -0.7900   25.2350  -26.2080 N   0  0  0  0  0  0  0  0  0  0  0  0
   -1.8560   24.9770  -27.1460 C   0  0  0  0  0  0  0  0  0  0  0  0
   -3.1310   24.5880  -26.7050 C   0  0  0  0  0  0  0  0  0  0  0  0
   -4.1540   24.3560  -27.6230 C   0  0  0  0  0  0  0  0  0  0  0  0
   -3.9090   24.5290  -28.9900 C   0  0  0  0  0  0  0  0  0  0  0  0
   -4.9520   24.2990  -29.9570 N   0  0  0  0  0  0  0  0  0  0  0  0
   -6.0500   25.2680  -30.0640 C   0  0  0  0  0  0  0  0  0  0  0  0
   -4.9080   23.1760  -30.8700 C   0  0  0  0  0  0  0  0  0  0  0  0
   -3.7030   22.7380  -31.4480 C   0  0  0  0  0  0  0  0  0  0  0  0
   -3.7220   21.6500  -32.3420 C   0  0  0  0  0  0  0  0  0  0  0  0
   -2.5110   21.1340  -32.9520 N   0  0  0  0  0  0  0  0  0  0  0  0
   -1.2110   21.5530  -32.3880 C   0  0  0  0  0  0  0  0  0  0  0  0
   -0.0030   21.3850  -33.3460 C   0  0  0  0  0  0  0  0  0  0  0  0
   -0.3310   20.7180  -34.6240 N   0  0  0  0  0  0  0  0  0  0  0  0
    0.9020   20.2790  -35.3020 C   0  0  0  0  0  0  0  0  0  0  0  0
   -1.2230   19.5700  -34.3930 C   0  0  0  0  0  0  0  0  0  0  0  0
   -2.6000   20.0720  -33.9700 C   0  0  0  0  0  0  0  0  0  0  0  0
   -4.9190   21.0720  -32.6360 N   0  0  0  0  0  0  0  0  0  0  0  0
   -6.0820   21.5140  -32.0950 C   0  0  0  0  0  0  0  0  0  0  0  0
   -7.3710   20.8350  -32.4330 C   0  0  0  0  0  0  0  0  0  0  0  0
   -7.1010   19.4560  -32.9680 C   0  0  0  0  0  0  0  0  0  0  0  0
   -6.3810   19.2870  -34.1620 C   0  0  0  0  0  0  0  0  0  0  0  0
   -6.1060   18.0040  -34.6450 C   0  0  0  0  0  0  0  0  0  0  0  0
   -6.5380   16.8820  -33.9340 C   0  0  0  0  0  0  0  0  0  0  0  0
   -7.2410   17.0400  -32.7360 C   0  0  0  0  0  0  0  0  0  0  0  0
   -7.5190   18.3220  -32.2510 C   0  0  0  0  0  0  0  0  0  0  0  0
   -6.0660   22.5490  -31.2160 N   0  0  0  0  0  0  0  0  0  0  0  0
   -2.6700   24.9150  -29.4020 N   0  0  0  0  0  0  0  0  0  0  0  0
   -1.6560   25.1440  -28.5260 C   0  0  0  0  0  0  0  0  0  0  0  0
   -0.8690   24.7980  -24.8090 C   0  0  0  0  0  0  0  0  0  0  0  0
   -0.8160   26.0220  -23.8780 C   0  0  0  0  0  0  0  0  0  0  0  0
   -1.1038   28.8411  -24.0077 H   0  0  0  0  0  0  0  0  0  0  0  0
   -0.0714   28.9173  -25.4757 H   0  0  0  0  0  0  0  0  0  0  0  0
   -1.5598   27.9117  -25.4757 H   0  0  0  0  0  0  0  0  0  0  0  0
    1.6521   27.5296  -25.7054 H   0  0  0  0  0  0  0  0  0  0  0  0
    1.6926   25.9006  -24.9118 H   0  0  0  0  0  0  0  0  0  0  0  0
    0.0440   26.8365  -27.2895 H   0  0  0  0  0  0  0  0  0  0  0  0
    1.0965   25.3796  -27.1180 H   0  0  0  0  0  0  0  0  0  0  0  0
   -3.3237   24.4656  -25.6289 H   0  0  0  0  0  0  0  0  0  0  0  0
   -5.1481   24.0388  -27.2750 H   0  0  0  0  0  0  0  0  0  0  0  0
   -6.3808   25.5600  -29.0564 H   0  0  0  0  0  0  0  0  0  0  0  0
   -5.7016   26.1584  -30.6079 H   0  0  0  0  0  0  0  0  0  0  0  0
   -6.8902   24.8116  -30.6079 H   0  0  0  0  0  0  0  0  0  0  0  0
   -2.7552   23.2402  -31.2042 H   0  0  0  0  0  0  0  0  0  0  0  0
   -1.2839   22.6153  -32.1120 H   0  0  0  0  0  0  0  0  0  0  0  0
   -1.0191   20.8940  -31.5284 H   0  0  0  0  0  0  0  0  0  0  0  0
    0.3999   22.3834  -33.5715 H   0  0  0  0  0  0  0  0  0  0  0  0
    0.7224   20.7392  -32.8296 H   0  0  0  0  0  0  0  0  0  0  0  0
   -0.8040   21.4110  -35.2550 H   0  0  0  0  0  0  0  0  0  0  0  0
    1.6581   20.0098  -34.5498 H   0  0  0  0  0  0  0  0  0  0  0  0
    0.6828   19.4037  -35.9311 H   0  0  0  0  0  0  0  0  0  0  0  0
    1.2853   21.0959  -35.9311 H   0  0  0  0  0  0  0  0  0  0  0  0
   -1.3150   18.9850  -35.3200 H   0  0  0  0  0  0  0  0  0  0  0  0
   -0.8045   18.9350  -33.5982 H   0  0  0  0  0  0  0  0  0  0  0  0
   -3.1201   20.4698  -34.8539 H   0  0  0  0  0  0  0  0  0  0  0  0
   -3.1505   19.2263  -33.5320 H   0  0  0  0  0  0  0  0  0  0  0  0
   -7.9913   20.7595  -31.5277 H   0  0  0  0  0  0  0  0  0  0  0  0
   -7.8986   21.4225  -33.1988 H   0  0  0  0  0  0  0  0  0  0  0  0
   -6.0317   20.1683  -34.7199 H   0  0  0  0  0  0  0  0  0  0  0  0
   -5.5492   17.8782  -35.5853 H   0  0  0  0  0  0  0  0  0  0  0  0
   -6.3249   15.8731  -34.3171 H   0  0  0  0  0  0  0  0  0  0  0  0
   -7.5757   16.1554  -32.1744 H   0  0  0  0  0  0  0  0  0  0  0  0
   -8.0668   18.4431  -31.3048 H   0  0  0  0  0  0  0  0  0  0  0  0
   -0.6720   25.4623  -28.9007 H   0  0  0  0  0  0  0  0  0  0  0  0
   -1.8132   24.2570  -24.6479 H   0  0  0  0  0  0  0  0  0  0  0  0
   -0.0200   24.1349  -24.5866 H   0  0  0  0  0  0  0  0  0  0  0  0
   -1.8362   26.4178  -23.7666 H   0  0  0  0  0  0  0  0  0  0  0  0
   -0.3912   25.6805  -22.9225 H   0  0  0  0  0  0  0  0  0  0  0  0
  1  2  1  0
  2  3  1  0
  3  4  1  0
  4  5  1  0
  5  6  1  0
  6  7  2  0
  7  8  1  0
  8  9  2  0
  9 10  1  0
 10 11  1  0
 10 12  1  0
 12 13  2  0
 13 14  1  0
 14 15  1  0
 15 16  1  0
 16 17  1  0
 17 18  1  0
 18 19  1  0
 18 20  1  0
 20 21  1  0
 14 22  2  0
 22 23  1  0
 23 24  1  0
 24 25  1  0
 25 26  2  0
 26 27  1  0
 27 28  2  0
 28 29  1  0
 29 30  2  0
 23 31  2  0
  9 32  1  0
 32 33  2  0
  5 34  1  0
 34 35  1  0
 35  2  1  0
 33  6  1  0
 31 12  1  0
 21 15  1  0
 30 25  1  0
  1 36  1  0
  1 37  1  0
  1 38  1  0
  3 39  1  0
  3 40  1  0
  4 41  1  0
  4 42  1  0
  7 43  1  0
  8 44  1  0
 11 45  1  0
 11 46  1  0
 11 47  1  0
 13 48  1  0
 16 49  1  0
 16 50  1  0
 17 51  1  0
 17 52  1  0
 18 53  1  0
 19 54  1  0
 19 55  1  0
 19 56  1  0
 20 57  1  0
 20 58  1  0
 21 59  1  0
 21 60  1  0
 24 61  1  0
 24 62  1  0
 26 63  1  0
 27 64  1  0
 28 65  1  0
 29 66  1  0
 30 67  1  0
 33 68  1  0
 34 69  1  0
 34 70  1  0
 35 71  1  0
 35 72  1  0
M  CHG  1  18   1
M  END
>  <UniqueID>  (36) 
33

>  <SMILES>  (36) 
CN1CCN(c2ccc(N(C)c3cc(N4CC[NH+](C)CC4)nc(Cc4ccccc4)n3)nc2)CC1

>  <Energy>  (36) 
100.59088529518468

>  <Genealogy>  (36) 
CN1CCN(c2ccc(N(C)c3cc(N4CC[NH+](C)CC4)nc(Cc4ccccc4)n3)nc2)CC1 (protonated)
CN1CCN(c2ccc(N(C)c3cc(N4CC[NH+](C)CC4)nc(Cc4ccccc4)n3)nc2)CC1 (3D coordinates assigned)
CN1CCN(c2ccc(N(C)c3cc(N4CC[NH+](C)CC4)nc(Cc4ccccc4)n3)nc2)CC1 (nonaromatic ring conformer: 100.59088529518468 kcal/mol)

>  <smiles>  (36) 
CN1CCN(c2ccc(N(C)c3cc(N4CCN(C)CC4)nc(Cc4ccccc4)n3)nc2)CC1

>  <score_type>  (36) 
oracle

>  <origin>  (36) 
adgpu

>  <m_score__min__energy>  (36) 
-9.2400000000000002

>  <m_primary>  (36) 
energy

$$$$
36:0
     RDKit          3D

 58 62  0  0  1  0  0  0  0  0999 V2000
    0.8130   24.4330  -25.4090 C   0  0  0  0  0  0  0  0  0  0  0  0
    0.1170   25.7050  -25.4070 N   0  0  0  0  0  0  0  0  0  0  0  0
   -1.2810   25.5790  -25.1330 C   0  0  0  0  0  0  0  0  0  0  0  0
   -2.0580   26.0780  -26.3310 C   0  0  0  0  0  0  0  0  0  0  0  0
   -1.5030   25.4230  -27.5000 N   0  0  0  0  0  0  0  0  0  0  0  0
   -2.2470   24.4880  -28.2700 C   0  0  0  0  0  0  0  0  0  0  0  0
   -2.9140   24.9300  -29.3520 N   0  0  0  0  0  0  0  0  0  0  0  0
   -3.6300   24.0740  -30.0990 C   0  0  0  0  0  0  0  0  0  0  0  0
   -4.2690   24.4920  -31.1370 N   0  0  0  0  0  0  0  0  0  0  0  0
   -3.6590   22.7160  -29.7150 C   0  0  0  0  0  0  0  0  0  0  0  0
   -4.7160   21.9690  -30.4120 C   0  0  0  0  0  0  0  0  0  0  0  0
   -4.8320   21.1380  -31.2310 N   0  0  0  0  0  0  0  0  0  0  0  0
   -5.8830   20.7110  -31.8850 C   0  0  0  0  0  0  0  0  0  0  0  0
   -5.9770   19.7070  -32.8630 C   0  0  0  0  0  0  0  0  0  0  0  0
   -7.2110   19.4470  -33.3980 C   0  0  0  0  0  0  0  0  0  0  0  0
   -8.3750   20.0740  -33.0710 C   0  0  0  0  0  0  0  0  0  0  0  0
   -8.2940   21.0760  -32.0980 C   0  0  0  0  0  0  0  0  0  0  0  0
   -7.0550   21.3290  -31.5670 C   0  0  0  0  0  0  0  0  0  0  0  0
   -6.5230   22.5350  -30.2930 S   0  0  0  0  0  0  0  0  0  0  0  0
   -2.9910   22.2550  -28.6450 C   0  0  0  0  0  0  0  0  0  0  0  0
   -2.6840   20.9320  -28.3090 N   0  0  0  0  0  0  0  0  0  0  0  0
   -1.7520   20.4070  -27.3720 C   0  0  2  0  0  0  0  0  0  0  0  0
   -0.3800   20.2950  -27.9790 C   0  0  0  0  0  0  0  0  0  0  0  0
   -0.1690   19.0720  -28.8240 C   0  0  0  0  0  0  0  0  0  0  0  0
   -0.0940   17.8870  -27.8680 C   0  0  0  0  0  0  0  0  0  0  0  0
   -0.9830   18.1390  -26.7390 N   0  0  0  0  0  0  0  0  0  0  0  0
   -2.1340   18.8930  -27.1250 C   0  0  0  0  0  0  0  0  0  0  0  0
   -2.2790   23.2020  -27.9230 N   0  0  0  0  0  0  0  0  0  0  0  0
   -0.1300   25.7770  -27.8460 C   0  0  0  0  0  0  0  0  0  0  0  0
    0.4350   26.4640  -26.5940 C   0  0  0  0  0  0  0  0  0  0  0  0
    0.9897   24.1101  -24.3724 H   0  0  0  0  0  0  0  0  0  0  0  0
    0.2008   23.6808  -25.9281 H   0  0  0  0  0  0  0  0  0  0  0  0
    1.7766   24.5431  -25.9281 H   0  0  0  0  0  0  0  0  0  0  0  0
   -1.5276   24.5235  -24.9456 H   0  0  0  0  0  0  0  0  0  0  0  0
   -1.5430   26.1711  -24.2438 H   0  0  0  0  0  0  0  0  0  0  0  0
   -3.1224   25.8217  -26.2242 H   0  0  0  0  0  0  0  0  0  0  0  0
   -1.9812   27.1716  -26.4206 H   0  0  0  0  0  0  0  0  0  0  0  0
   -4.2470   25.4900  -31.4200 H   0  0  0  0  0  0  0  0  0  0  0  0
   -5.0879   19.1473  -33.1889 H   0  0  0  0  0  0  0  0  0  0  0  0
   -7.2670   18.6584  -34.1629 H   0  0  0  0  0  0  0  0  0  0  0  0
   -9.3297   19.8063  -33.5474 H   0  0  0  0  0  0  0  0  0  0  0  0
   -9.1837   21.6356  -31.7735 H   0  0  0  0  0  0  0  0  0  0  0  0
   -3.2320   20.1830  -28.8590 H   0  0  0  0  0  0  0  0  0  0  0  0
   -1.7666   21.0565  -26.4843 H   0  0  0  0  0  0  0  0  0  0  0  0
   -0.2099   21.1808  -28.6087 H   0  0  0  0  0  0  0  0  0  0  0  0
    0.3273   20.2203  -27.1399 H   0  0  0  0  0  0  0  0  0  0  0  0
   -1.0096   18.9436  -29.5218 H   0  0  0  0  0  0  0  0  0  0  0  0
    0.7507   19.1575  -29.4213 H   0  0  0  0  0  0  0  0  0  0  0  0
   -0.4083   16.9707  -28.3891 H   0  0  0  0  0  0  0  0  0  0  0  0
    0.9384   17.7590  -27.5105 H   0  0  0  0  0  0  0  0  0  0  0  0
   -1.3150   17.2160  -26.4020 H   0  0  0  0  0  0  0  0  0  0  0  0
   -2.5493   18.4695  -28.0513 H   0  0  0  0  0  0  0  0  0  0  0  0
   -2.8777   18.8429  -26.3160 H   0  0  0  0  0  0  0  0  0  0  0  0
   -1.7400   22.9250  -27.0740 H   0  0  0  0  0  0  0  0  0  0  0  0
    0.4520   24.8753  -28.0873 H   0  0  0  0  0  0  0  0  0  0  0  0
   -0.0835   26.4298  -28.7301 H   0  0  0  0  0  0  0  0  0  0  0  0
    1.5279   26.5448  -26.6888 H   0  0  0  0  0  0  0  0  0  0  0  0
   -0.0157   27.4635  -26.5056 H   0  0  0  0  0  0  0  0  0  0  0  0
  1  2  1  0
  2  3  1  0
  3  4  1  0
  4  5  1  0
  5  6  1  0
  6  7  2  0
  7  8  1  0
  8  9  2  3
  8 10  1  0
 10 11  1  0
 11 12  2  0
 12 13  1  0
 13 14  2  0
 14 15  1  0
 15 16  2  0
 16 17  1  0
 17 18  2  0
 18 19  1  0
 10 20  2  0
 20 21  1  0
 21 22  1  0
 22 23  1  0
 23 24  1  0
 24 25  1  0
 25 26  1  0
 26 27  1  0
 20 28  1  0
  5 29  1  0
 29 30  1  0
 30  2  1  0
 28  6  1  0
 19 11  1  0
 27 22  1  0
 18 13  1  0
  1 31  1  0
  1 32  1  0
  1 33  1  0
  3 34  1  0
  3 35  1  0
  4 36  1  0
  4 37  1  0
  9 38  1  0
 14 39  1  0
 15 40  1  0
 16 41  1  0
 17 42  1  0
 21 43  1  0
 22 44  1  1
 23 45  1  0
 23 46  1  0
 24 47  1  0
 24 48  1  0
 25 49  1  0
 25 50  1  0
 26 51  1  0
 27 52  1  0
 27 53  1  0
 28 54  1  0
 29 55  1  0
 29 56  1  0
 30 57  1  0
 30 58  1  0
M  END
>  <smiles>  (37) 
CN1CCN(c2nc(=N)c(-c3nc4ccccc4s3)c(NC3CCCNC3)[nH]2)CC1

>  <score_type>  (37) 
oracle

>  <origin>  (37) 
adgpu

>  <m_score__min__energy>  (37) 
-9.7599999999999998

>  <m_primary>  (37) 
energy

$$$$
37:0
     RDKit          3D

 53 56  0  0  0  0  0  0  0  0999 V2000
   -6.3870   22.6910  -29.1240 O   0  0  0  0  0  0  0  0  0  0  0  0
   -5.7250   23.9050  -29.7140 S   0  0  0  0  0  0  0  0  0  0  0  0
   -6.5820   25.0970  -29.3880 O   0  0  0  0  0  0  0  0  0  0  0  0
   -4.1450   24.0990  -28.9480 C   0  0  0  0  0  0  0  0  0  0  0  0
   -2.9740   24.1120  -29.7200 C   0  0  0  0  0  0  0  0  0  0  0  0
   -1.7240   24.2010  -29.1040 C   0  0  0  0  0  0  0  0  0  0  0  0
   -1.6300   24.2870  -27.7080 C   0  0  0  0  0  0  0  0  0  0  0  0
   -0.0540   24.3270  -26.9240 S   0  0  0  0  0  0  0  0  0  0  0  0
    1.0010   24.5740  -27.9680 O   0  0  0  0  0  0  0  0  0  0  0  0
    0.2210   22.9960  -26.2780 O   0  0  0  0  0  0  0  0  0  0  0  0
   -0.0120   25.6010  -25.7280 N   0  0  0  0  0  0  0  0  0  0  0  0
   -0.8280   26.7460  -26.1810 C   0  0  0  0  0  0  0  0  0  0  0  0
   -0.7190   27.9450  -25.2140 C   0  0  0  0  0  0  0  0  0  0  0  0
   -0.2620   27.5350  -23.8070 C   0  0  0  0  0  0  0  0  0  0  0  0
   -0.8580   26.1840  -23.4160 C   0  0  0  0  0  0  0  0  0  0  0  0
   -0.4840   25.0740  -24.4250 C   0  0  0  0  0  0  0  0  0  0  0  0
   -2.8000   24.3170  -26.9380 C   0  0  0  0  0  0  0  0  0  0  0  0
   -4.0500   24.2460  -27.5560 C   0  0  0  0  0  0  0  0  0  0  0  0
   -5.6420   23.7110  -31.4560 N   0  0  0  0  0  0  0  0  0  0  0  0
   -4.7140   22.6570  -31.8990 C   0  0  0  0  0  0  0  0  0  0  0  0
   -5.2260   21.2380  -31.6140 C   0  0  0  0  0  0  0  0  0  0  0  0
   -6.7100   21.0870  -31.8190 C   0  0  0  0  0  0  0  0  0  0  0  0
   -7.2840   19.8080  -31.7360 C   0  0  0  0  0  0  0  0  0  0  0  0
   -8.6630   19.6420  -31.8750 C   0  0  0  0  0  0  0  0  0  0  0  0
   -9.4830   20.7500  -32.0940 C   0  0  0  0  0  0  0  0  0  0  0  0
   -8.9250   22.0280  -32.1690 C   0  0  0  0  0  0  0  0  0  0  0  0
   -7.5430   22.2100  -32.0110 C   0  0  0  0  0  0  0  0  0  0  0  0
   -6.9660   23.6000  -32.0920 C   0  0  0  0  0  0  0  0  0  0  0  0
   -3.0407   24.0518  -30.8163 H   0  0  0  0  0  0  0  0  0  0  0  0
   -0.8101   24.2036  -29.7162 H   0  0  0  0  0  0  0  0  0  0  0  0
    0.9860   25.9030  -25.6390 H   0  0  0  0  0  0  0  0  0  0  0  0
   -0.4810   27.0588  -27.1769 H   0  0  0  0  0  0  0  0  0  0  0  0
   -1.8799   26.4257  -26.2119 H   0  0  0  0  0  0  0  0  0  0  0  0
    0.0070   28.6624  -25.6242 H   0  0  0  0  0  0  0  0  0  0  0  0
   -1.7218   28.3874  -25.1207 H   0  0  0  0  0  0  0  0  0  0  0  0
    0.8355   27.4634  -23.7907 H   0  0  0  0  0  0  0  0  0  0  0  0
   -0.6066   28.2938  -23.0890 H   0  0  0  0  0  0  0  0  0  0  0  0
   -0.4798   25.9029  -22.4220 H   0  0  0  0  0  0  0  0  0  0  0  0
   -1.9534   26.2840  -23.4104 H   0  0  0  0  0  0  0  0  0  0  0  0
    0.3157   24.4588  -23.9868 H   0  0  0  0  0  0  0  0  0  0  0  0
   -1.3958   24.4905  -24.6204 H   0  0  0  0  0  0  0  0  0  0  0  0
   -2.7336   24.3968  -25.8429 H   0  0  0  0  0  0  0  0  0  0  0  0
   -4.9650   24.3056  -26.9484 H   0  0  0  0  0  0  0  0  0  0  0  0
   -4.5592   22.7612  -32.9831 H   0  0  0  0  0  0  0  0  0  0  0  0
   -3.7799   22.7862  -31.3326 H   0  0  0  0  0  0  0  0  0  0  0  0
   -4.7079   20.5384  -32.2864 H   0  0  0  0  0  0  0  0  0  0  0  0
   -5.0204   21.0245  -30.5547 H   0  0  0  0  0  0  0  0  0  0  0  0
   -6.6429   18.9315  -31.5604 H   0  0  0  0  0  0  0  0  0  0  0  0
   -9.1041   18.6363  -31.8118 H   0  0  0  0  0  0  0  0  0  0  0  0
  -10.5690   20.6166  -32.2075 H   0  0  0  0  0  0  0  0  0  0  0  0
   -9.5732   22.8974  -32.3531 H   0  0  0  0  0  0  0  0  0  0  0  0
   -6.8704   23.8787  -33.1518 H   0  0  0  0  0  0  0  0  0  0  0  0
   -7.6485   24.2719  -31.5510 H   0  0  0  0  0  0  0  0  0  0  0  0
  1  2  2  0
  2  3  2  0
  2  4  1  0
  4  5  2  0
  5  6  1  0
  6  7  2  0
  7  8  1  0
  8  9  2  0
  8 10  2  0
  8 11  1  0
 11 12  1  0
 12 13  1  0
 13 14  1  0
 14 15  1  0
 15 16  1  0
  7 17  1  0
 17 18  2  0
  2 19  1  0
 19 20  1  0
 20 21  1  0
 21 22  1  0
 22 23  2  0
 23 24  1  0
 24 25  2  0
 25 26  1  0
 26 27  2  0
 27 28  1  0
 18  4  1  0
 28 19  1  0
 16 11  1  0
 27 22  1  0
  5 29  1  0
  6 30  1  0
 11 31  1  0
 12 32  1  0
 12 33  1  0
 13 34  1  0
 13 35  1  0
 14 36  1  0
 14 37  1  0
 15 38  1  0
 15 39  1  0
 16 40  1  0
 16 41  1  0
 17 42  1  0
 18 43  1  0
 20 44  1  0
 20 45  1  0
 21 46  1  0
 21 47  1  0
 23 48  1  0
 24 49  1  0
 25 50  1  0
 26 51  1  0
 28 52  1  0
 28 53  1  0
M  CHG  1  11   1
M  END
>  <UniqueID>  (38) 
34

>  <SMILES>  (38) 
O=S(=O)(c1ccc(S(=O)(=O)[NH+]2CCCCC2)cc1)N1CCc2ccccc2C1

>  <Energy>  (38) 
59.3682855620833

>  <Genealogy>  (38) 
O=S(=O)(c1ccc(S(=O)(=O)[NH+]2CCCCC2)cc1)N1CCc2ccccc2C1 (protonated)
O=S(=O)(c1ccc(S(=O)(=O)[NH+]2CCCCC2)cc1)N1CCc2ccccc2C1 (3D coordinates assigned)
O=S(=O)(c1ccc(S(=O)(=O)[NH+]2CCCCC2)cc1)N1CCc2ccccc2C1 (nonaromatic ring conformer: 59.3682855620833 kcal/mol)

>  <smiles>  (38) 
O=S(=O)(c1ccc(S(=O)(=O)N2CCc3ccccc3C2)cc1)N1CCCCC1

>  <score_type>  (38) 
oracle

>  <origin>  (38) 
adgpu

>  <m_score__min__energy>  (38) 
-10.09

>  <m_primary>  (38) 
energy

$$$$
38:0
     RDKit          3D

 49 52  0  0  0  0  0  0  0  0999 V2000
   -0.5060   16.3080  -26.3800 H   0  0  0  0  0  0  0  0  0  0  0  0
   -0.1200   16.8800  -27.1210 O   0  0  0  0  0  0  0  0  0  0  0  0
   -0.4670   18.2210  -27.2620 C   0  0  0  0  0  0  0  0  0  0  0  0
   -1.6830   18.6790  -26.7460 C   0  0  0  0  0  0  0  0  0  0  0  0
   -2.3595   17.9791  -26.2337 H   0  0  0  0  0  0  0  0  0  0  0  0
   -2.0420   20.0240  -26.8790 C   0  0  0  0  0  0  0  0  0  0  0  0
   -3.0082   20.3742  -26.4869 H   0  0  0  0  0  0  0  0  0  0  0  0
   -1.1730   20.9310  -27.5120 C   0  0  0  0  0  0  0  0  0  0  0  0
   -1.5270   22.3080  -27.7000 N   0  0  0  0  0  0  0  0  0  0  0  0
   -2.2900   22.7930  -28.6400 C   0  0  0  0  0  0  0  0  0  0  0  0
   -3.1680   21.8880  -29.7630 S   0  0  0  0  0  0  0  0  0  0  0  0
   -3.8910   23.2390  -30.4610 C   0  0  0  0  0  0  0  0  0  0  0  0
   -4.8490   23.1890  -31.5810 C   0  0  0  0  0  0  0  0  0  0  0  0
   -5.3630   24.2620  -31.9980 O   0  0  0  0  0  0  0  0  0  0  0  0
   -5.2190   21.9190  -32.2390 C   0  0  0  0  0  0  0  0  0  0  0  0
   -4.2020   21.1460  -32.8230 C   0  0  0  0  0  0  0  0  0  0  0  0
   -3.1625   21.5051  -32.7995 H   0  0  0  0  0  0  0  0  0  0  0  0
   -4.4990   19.9260  -33.4330 C   0  0  0  0  0  0  0  0  0  0  0  0
   -3.6943   19.3269  -33.8841 H   0  0  0  0  0  0  0  0  0  0  0  0
   -5.8150   19.4660  -33.4710 C   0  0  0  0  0  0  0  0  0  0  0  0
   -6.0450   18.4980  -33.9401 H   0  0  0  0  0  0  0  0  0  0  0  0
   -6.8420   20.2330  -32.9140 C   0  0  0  0  0  0  0  0  0  0  0  0
   -7.8774   19.8628  -32.9448 H   0  0  0  0  0  0  0  0  0  0  0  0
   -6.5630   21.4730  -32.3150 C   0  0  0  0  0  0  0  0  0  0  0  0
   -7.7050   22.2820  -31.7540 C   0  0  0  0  0  0  0  0  0  0  0  0
   -7.6678   22.2557  -30.6549 H   0  0  0  0  0  0  0  0  0  0  0  0
   -7.6210   23.3231  -32.0989 H   0  0  0  0  0  0  0  0  0  0  0  0
   -8.6593   21.8574  -32.0989 H   0  0  0  0  0  0  0  0  0  0  0  0
   -3.4430   24.3700  -29.7730 C   0  0  0  0  0  0  0  0  0  0  0  0
   -3.8660   25.6600  -30.0830 O   0  0  0  0  0  0  0  0  0  0  0  0
   -2.5550   24.1200  -28.7650 N   0  0  0  0  0  0  0  0  0  0  0  0
   -1.9750   25.1470  -27.9380 C   0  0  0  0  0  0  0  0  0  0  0  0
   -2.3630   25.2820  -26.5960 C   0  0  0  0  0  0  0  0  0  0  0  0
   -3.1143   24.5993  -26.1725 H   0  0  0  0  0  0  0  0  0  0  0  0
   -1.8000   26.2790  -25.7950 C   0  0  0  0  0  0  0  0  0  0  0  0
   -2.1192   26.3850  -24.7477 H   0  0  0  0  0  0  0  0  0  0  0  0
   -0.8300   27.1450  -26.3200 C   0  0  0  0  0  0  0  0  0  0  0  0
   -0.2530   28.2390  -25.4700 C   0  0  0  0  0  0  0  0  0  0  0  0
   -0.3861   27.9867  -24.4076 H   0  0  0  0  0  0  0  0  0  0  0  0
    0.8194   28.3471  -25.6897 H   0  0  0  0  0  0  0  0  0  0  0  0
   -0.7694   29.1851  -25.6897 H   0  0  0  0  0  0  0  0  0  0  0  0
   -0.4540   27.0230  -27.6660 C   0  0  0  0  0  0  0  0  0  0  0  0
    0.2876   27.7148  -28.0920 H   0  0  0  0  0  0  0  0  0  0  0  0
   -1.0170   26.0270  -28.4680 C   0  0  0  0  0  0  0  0  0  0  0  0
   -0.7085   25.9315  -29.5195 H   0  0  0  0  0  0  0  0  0  0  0  0
    0.0280   20.4590  -28.0570 C   0  0  0  0  0  0  0  0  0  0  0  0
    0.6940   21.1515  -28.5927 H   0  0  0  0  0  0  0  0  0  0  0  0
    0.3860   19.1150  -27.9250 C   0  0  0  0  0  0  0  0  0  0  0  0
    1.3390   18.7573  -28.3420 H   0  0  0  0  0  0  0  0  0  0  0  0
  1  2  1  0
  2  3  1  0
  3  4  2  0
  4  5  1  0
  4  6  1  0
  6  7  1  0
  6  8  2  0
  8  9  1  0
  9 10  2  0
 10 11  1  0
 11 12  1  0
 12 13  1  0
 13 14  2  0
 13 15  1  0
 15 16  2  0
 16 17  1  0
 16 18  1  0
 18 19  1  0
 18 20  2  0
 20 21  1  0
 20 22  1  0
 22 23  1  0
 22 24  2  0
 24 25  1  0
 25 26  1  0
 25 27  1  0
 25 28  1  0
 12 29  2  0
 29 30  1  0
 29 31  1  0
 31 32  1  0
 32 33  2  0
 33 34  1  0
 33 35  1  0
 35 36  1  0
 35 37  2  0
 37 38  1  0
 38 39  1  0
 38 40  1  0
 38 41  1  0
 37 42  1  0
 42 43  1  0
 42 44  2  0
 44 45  1  0
  8 46  1  0
 46 47  1  0
 46 48  2  0
 48 49  1  0
 48  3  1  0
 31 10  1  0
 44 32  1  0
 24 15  1  0
M  CHG  1  30  -1
M  END
>  <UniqueID>  (39) 
35

>  <SMILES>  (39) 
Cc1ccc(-n2c([O-])c(C(=O)c3ccccc3C)s/c2=N\c2ccc(O)cc2)cc1

>  <Energy>  (39) 
104.23288820056098

>  <Genealogy>  (39) 
Cc1ccc(-n2c([O-])c(C(=O)c3ccccc3C)sc2=Nc2ccc(O)cc2)cc1 (protonated)
Cc1ccc(-n2c([O-])c(C(=O)c3ccccc3C)s/c2=N\c2ccc(O)cc2)cc1 (cis-trans isomerization)
Cc1ccc(-n2c([O-])c(C(=O)c3ccccc3C)s/c2=N\c2ccc(O)cc2)cc1 (3D coordinates assigned)
Cc1ccc(-n2c([O-])c(C(=O)c3ccccc3C)s/c2=N\c2ccc(O)cc2)cc1 (optimized conformer: 104.23288820056098 kcal/mol)

>  <smiles>  (39) 
Cc1ccc(-n2c(O)c(C(=O)c3ccccc3C)sc2=Nc2ccc(O)cc2)cc1

>  <score_type>  (39) 
oracle

>  <origin>  (39) 
adgpu

>  <m_score__min__energy>  (39) 
-12.66

>  <m_primary>  (39) 
energy

$$$$
39:0
     RDKit          3D

 60 63  0  0  0  0  0  0  0  0999 V2000
    1.1980   16.8960  -27.4610 C   0  0  0  0  0  0  0  0  0  0  0  0
    0.3630   18.1000  -27.7810 C   0  0  0  0  0  0  0  0  0  0  0  0
   -0.8780   18.2940  -27.1580 C   0  0  0  0  0  0  0  0  0  0  0  0
   -1.6410   19.4290  -27.4470 C   0  0  0  0  0  0  0  0  0  0  0  0
   -1.1720   20.3910  -28.3600 C   0  0  0  0  0  0  0  0  0  0  0  0
   -1.9120   21.5920  -28.6450 N   0  0  0  0  0  0  0  0  0  0  0  0
   -2.5740   21.8630  -29.8910 C   0  0  0  0  0  0  0  0  0  0  0  0
   -2.0630   21.4630  -30.9700 O   0  0  0  0  0  0  0  0  0  0  0  0
   -3.8070   22.6860  -29.9270 C   0  0  0  0  0  0  0  0  0  0  0  0
   -4.8930   22.2380  -30.7000 C   0  0  0  0  0  0  0  0  0  0  0  0
   -6.0680   22.9960  -30.7950 C   0  0  0  0  0  0  0  0  0  0  0  0
   -7.4190   22.4150  -31.7730 S   0  0  0  0  0  0  0  0  0  0  0  0
   -8.7120   22.7160  -31.0660 O   0  0  0  0  0  0  0  0  0  0  0  0
   -7.4290   23.1470  -33.0870 O   0  0  0  0  0  0  0  0  0  0  0  0
   -7.3030   20.6980  -32.0730 N   0  0  0  0  0  0  0  0  0  0  0  0
   -6.4130   20.4390  -33.2210 C   0  0  0  0  0  0  0  0  0  0  0  0
   -6.4620   18.9610  -33.6770 C   0  0  0  0  0  0  0  0  0  0  0  0
   -7.1610   18.0690  -32.6480 C   0  0  0  0  0  0  0  0  0  0  0  0
   -8.5730   18.5900  -32.3320 C   0  0  0  0  0  0  0  0  0  0  0  0
   -8.6410   20.1290  -32.3100 C   0  0  0  0  0  0  0  0  0  0  0  0
   -6.1630   24.2110  -30.1110 C   0  0  0  0  0  0  0  0  0  0  0  0
   -5.1010   24.6620  -29.3270 C   0  0  0  0  0  0  0  0  0  0  0  0
   -3.9230   23.9080  -29.2170 C   0  0  0  0  0  0  0  0  0  0  0  0
   -2.8840   24.3730  -28.3380 N   0  0  0  0  0  0  0  0  0  0  0  0
   -1.5830   24.7300  -28.9230 C   0  0  0  0  0  0  0  0  0  0  0  0
   -0.4820   24.9360  -27.8630 C   0  0  0  0  0  0  0  0  0  0  0  0
   -0.8170   24.3490  -26.6230 O   0  0  0  0  0  0  0  0  0  0  0  0
   -1.9690   24.9820  -26.1130 C   0  0  0  0  0  0  0  0  0  0  0  0
   -3.1980   24.5540  -26.9140 C   0  0  0  0  0  0  0  0  0  0  0  0
    0.0850   20.2050  -28.9560 C   0  0  0  0  0  0  0  0  0  0  0  0
    0.8450   19.0670  -28.6710 C   0  0  0  0  0  0  0  0  0  0  0  0
    1.2760   16.7835  -26.3696 H   0  0  0  0  0  0  0  0  0  0  0  0
    0.7272   15.9989  -27.8894 H   0  0  0  0  0  0  0  0  0  0  0  0
    2.2032   17.0226  -27.8894 H   0  0  0  0  0  0  0  0  0  0  0  0
   -1.2525   17.5503  -26.4392 H   0  0  0  0  0  0  0  0  0  0  0  0
   -2.6155   19.5710  -26.9568 H   0  0  0  0  0  0  0  0  0  0  0  0
   -1.9420   22.3390  -27.9150 H   0  0  0  0  0  0  0  0  0  0  0  0
   -4.8193   21.2807  -31.2368 H   0  0  0  0  0  0  0  0  0  0  0  0
   -6.7222   21.0791  -34.0604 H   0  0  0  0  0  0  0  0  0  0  0  0
   -5.3827   20.6613  -32.9063 H   0  0  0  0  0  0  0  0  0  0  0  0
   -7.0087   18.9007  -34.6296 H   0  0  0  0  0  0  0  0  0  0  0  0
   -5.4275   18.6047  -33.7902 H   0  0  0  0  0  0  0  0  0  0  0  0
   -7.2365   17.0479  -33.0500 H   0  0  0  0  0  0  0  0  0  0  0  0
   -6.5700   18.0766  -31.7203 H   0  0  0  0  0  0  0  0  0  0  0  0
   -9.2670   18.2169  -33.0996 H   0  0  0  0  0  0  0  0  0  0  0  0
   -8.8470   18.2283  -31.3300 H   0  0  0  0  0  0  0  0  0  0  0  0
   -9.0220   20.4890  -33.2771 H   0  0  0  0  0  0  0  0  0  0  0  0
   -9.3125   20.4453  -31.4982 H   0  0  0  0  0  0  0  0  0  0  0  0
   -7.0793   24.8143  -30.1912 H   0  0  0  0  0  0  0  0  0  0  0  0
   -5.1880   25.6180  -28.7899 H   0  0  0  0  0  0  0  0  0  0  0  0
   -1.2701   23.9224  -29.6011 H   0  0  0  0  0  0  0  0  0  0  0  0
   -1.7117   25.6849  -29.4537 H   0  0  0  0  0  0  0  0  0  0  0  0
    0.4509   24.4824  -28.2289 H   0  0  0  0  0  0  0  0  0  0  0  0
   -0.3661   26.0182  -27.7033 H   0  0  0  0  0  0  0  0  0  0  0  0
   -2.1042   24.6982  -25.0589 H   0  0  0  0  0  0  0  0  0  0  0  0
   -1.8474   26.0723  -26.1930 H   0  0  0  0  0  0  0  0  0  0  0  0
   -3.5742   23.6032  -26.5085 H   0  0  0  0  0  0  0  0  0  0  0  0
   -3.9556   25.3469  -26.8285 H   0  0  0  0  0  0  0  0  0  0  0  0
    0.4753   20.9610  -29.6532 H   0  0  0  0  0  0  0  0  0  0  0  0
    1.8266   18.9307  -29.1484 H   0  0  0  0  0  0  0  0  0  0  0  0
  1  2  1  0
  2  3  2  0
  3  4  1  0
  4  5  2  0
  5  6  1  0
  6  7  1  0
  7  8  2  0
  7  9  1  0
  9 10  2  0
 10 11  1  0
 11 12  1  0
 12 13  2  0
 12 14  2  0
 12 15  1  0
 15 16  1  0
 16 17  1  0
 17 18  1  0
 18 19  1  0
 19 20  1  0
 11 21  2  0
 21 22  1  0
 22 23  2  0
 23 24  1  0
 24 25  1  0
 25 26  1  0
 26 27  1  0
 27 28  1  0
 28 29  1  0
  5 30  1  0
 30 31  2  0
 31  2  1  0
 23  9  1  0
 29 24  1  0
 20 15  1  0
  1 32  1  0
  1 33  1  0
  1 34  1  0
  3 35  1  0
  4 36  1  0
  6 37  1  0
 10 38  1  0
 16 39  1  0
 16 40  1  0
 17 41  1  0
 17 42  1  0
 18 43  1  0
 18 44  1  0
 19 45  1  0
 19 46  1  0
 20 47  1  0
 20 48  1  0
 21 49  1  0
 22 50  1  0
 25 51  1  0
 25 52  1  0
 26 53  1  0
 26 54  1  0
 28 55  1  0
 28 56  1  0
 29 57  1  0
 29 58  1  0
 30 59  1  0
 31 60  1  0
M  END
>  <UniqueID>  (40) 
36

>  <SMILES>  (40) 
Cc1ccc(NC(=O)c2cc(S(=O)(=O)N3CCCCC3)ccc2N2CCOCC2)cc1

>  <Energy>  (40) 
78.98588068963608

>  <Genealogy>  (40) 
Cc1ccc(NC(=O)c2cc(S(=O)(=O)N3CCCCC3)ccc2N2CCOCC2)cc1 (3D coordinates assigned)
Cc1ccc(NC(=O)c2cc(S(=O)(=O)N3CCCCC3)ccc2N2CCOCC2)cc1 (nonaromatic ring conformer: 78.98588068963608 kcal/mol)

>  <smiles>  (40) 
Cc1ccc(NC(=O)c2cc(S(=O)(=O)N3CCCCC3)ccc2N2CCOCC2)cc1

>  <score_type>  (40) 
oracle

>  <origin>  (40) 
adgpu

>  <m_score__min__energy>  (40) 
-9.9000000000000004

>  <m_primary>  (40) 
energy

$$$$
40:0
     RDKit          3D

 72 75  0  0  0  0  0  0  0  0999 V2000
    1.6180   19.7730  -27.9400 C   0  0  0  0  0  0  0  0  0  0  0  0
    0.6210   20.6790  -28.6110 C   0  0  0  0  0  0  0  0  0  0  0  0
    0.0920   21.7460  -27.8650 C   0  0  0  0  0  0  0  0  0  0  0  0
   -0.8530   22.6070  -28.4160 C   0  0  0  0  0  0  0  0  0  0  0  0
   -1.2920   22.4250  -29.7340 C   0  0  0  0  0  0  0  0  0  0  0  0
   -2.3250   23.2590  -30.2860 N   0  0  0  0  0  0  0  0  0  0  0  0
   -2.7410   24.5110  -29.7140 C   0  0  0  0  0  0  0  0  0  0  0  0
   -1.9740   25.1430  -28.9400 O   0  0  0  0  0  0  0  0  0  0  0  0
   -3.9930   25.0940  -30.0880 N   0  0  0  0  0  0  0  0  0  0  0  0
   -5.1490   24.3320  -30.4620 C   0  0  0  0  0  0  0  0  0  0  0  0
   -5.6660   23.3850  -29.5700 C   0  0  0  0  0  0  0  0  0  0  0  0
   -6.8200   22.6670  -29.9000 C   0  0  0  0  0  0  0  0  0  0  0  0
   -7.4510   22.8700  -31.1360 C   0  0  0  0  0  0  0  0  0  0  0  0
   -8.9460   22.0170  -31.5240 S   0  0  0  0  0  0  0  0  0  0  0  0
   -9.6840   21.7070  -30.2510 O   0  0  0  0  0  0  0  0  0  0  0  0
   -9.8200   22.9060  -32.3630 O   0  0  0  0  0  0  0  0  0  0  0  0
   -8.6290   20.5370  -32.4040 N   0  0  0  0  0  0  0  0  0  0  0  0
   -7.2430   20.5020  -32.9380 C   0  0  0  0  0  0  0  0  0  0  0  0
   -6.3030   19.6010  -32.1160 C   0  0  0  0  0  0  0  0  0  0  0  0
   -6.8280   18.1440  -32.0410 C   0  0  0  0  0  0  0  0  0  0  0  0
   -6.1830   17.2640  -33.1180 C   0  0  0  0  0  0  0  0  0  0  0  0
   -8.3710   18.0760  -32.1370 C   0  0  0  0  0  0  0  0  0  0  0  0
   -9.0080   19.3580  -31.5920 C   0  0  0  0  0  0  0  0  0  0  0  0
   -6.8980   23.7750  -32.0520 C   0  0  0  0  0  0  0  0  0  0  0  0
   -5.7570   24.5060  -31.7160 C   0  0  0  0  0  0  0  0  0  0  0  0
   -0.7720   21.3650  -30.4960 C   0  0  0  0  0  0  0  0  0  0  0  0
   -1.2300   21.1770  -31.7980 O   0  0  0  0  0  0  0  0  0  0  0  0
    0.2010   20.4950  -29.9570 C   0  0  0  0  0  0  0  0  0  0  0  0
    0.8000   19.1700  -30.9890 S   0  0  0  0  0  0  0  0  0  0  0  0
    1.3100   18.0090  -30.1810 O   0  0  0  0  0  0  0  0  0  0  0  0
    1.9410   19.6830  -31.8230 O   0  0  0  0  0  0  0  0  0  0  0  0
   -0.5160   18.6150  -32.0770 C   0  0  0  0  0  0  0  0  0  0  0  0
   -0.3130   19.1480  -33.5140 C   0  0  0  0  0  0  0  0  0  0  0  0
   -0.7480   18.1420  -34.5970 C   0  0  0  0  0  0  0  0  0  0  0  0
   -1.9510   17.3730  -34.2130 N   0  0  0  0  0  0  0  0  0  0  0  0
   -3.1640   18.2070  -34.2420 C   0  0  0  0  0  0  0  0  0  0  0  0
   -1.8100   16.6260  -32.9360 C   0  0  0  0  0  0  0  0  0  0  0  0
   -0.6280   17.0880  -32.0610 C   0  0  0  0  0  0  0  0  0  0  0  0
    1.5187   19.8632  -26.8482 H   0  0  0  0  0  0  0  0  0  0  0  0
    1.4280   18.7321  -28.2407 H   0  0  0  0  0  0  0  0  0  0  0  0
    2.6360   20.0615  -28.2407 H   0  0  0  0  0  0  0  0  0  0  0  0
    0.4297   21.9032  -26.8300 H   0  0  0  0  0  0  0  0  0  0  0  0
   -1.2569   23.4341  -27.8138 H   0  0  0  0  0  0  0  0  0  0  0  0
   -2.7620   22.9750  -31.1910 H   0  0  0  0  0  0  0  0  0  0  0  0
   -5.1638   23.2053  -28.6080 H   0  0  0  0  0  0  0  0  0  0  0  0
   -7.2347   21.9396  -29.1867 H   0  0  0  0  0  0  0  0  0  0  0  0
   -7.2749   20.1251  -33.9709 H   0  0  0  0  0  0  0  0  0  0  0  0
   -6.8449   21.5261  -32.8862 H   0  0  0  0  0  0  0  0  0  0  0  0
   -5.3091   19.5982  -32.5873 H   0  0  0  0  0  0  0  0  0  0  0  0
   -6.2520   20.0009  -31.0925 H   0  0  0  0  0  0  0  0  0  0  0  0
   -6.5393   17.7534  -31.0541 H   0  0  0  0  0  0  0  0  0  0  0  0
   -5.5980   16.4659  -32.6375 H   0  0  0  0  0  0  0  0  0  0  0  0
   -6.9685   16.8164  -33.7446 H   0  0  0  0  0  0  0  0  0  0  0  0
   -5.5197   17.8783  -33.7446 H   0  0  0  0  0  0  0  0  0  0  0  0
   -8.6613   17.9489  -33.1903 H   0  0  0  0  0  0  0  0  0  0  0  0
   -8.7240   17.2246  -31.5365 H   0  0  0  0  0  0  0  0  0  0  0  0
  -10.1024   19.2489  -31.6086 H   0  0  0  0  0  0  0  0  0  0  0  0
   -8.6469   19.5145  -30.5648 H   0  0  0  0  0  0  0  0  0  0  0  0
   -7.3645   23.9099  -33.0390 H   0  0  0  0  0  0  0  0  0  0  0  0
   -5.3326   25.2210  -32.4362 H   0  0  0  0  0  0  0  0  0  0  0  0
   -1.4645   19.0267  -31.7017 H   0  0  0  0  0  0  0  0  0  0  0  0
   -0.9036   20.0683  -33.6331 H   0  0  0  0  0  0  0  0  0  0  0  0
    0.7635   19.3303  -33.6480 H   0  0  0  0  0  0  0  0  0  0  0  0
   -0.9645   18.6942  -35.5234 H   0  0  0  0  0  0  0  0  0  0  0  0
    0.0748   17.4247  -34.7331 H   0  0  0  0  0  0  0  0  0  0  0  0
   -3.4829   18.4263  -33.2123 H   0  0  0  0  0  0  0  0  0  0  0  0
   -2.9488   19.1490  -34.7677 H   0  0  0  0  0  0  0  0  0  0  0  0
   -3.9665   17.6688  -34.7677 H   0  0  0  0  0  0  0  0  0  0  0  0
   -2.7373   16.7527  -32.3580 H   0  0  0  0  0  0  0  0  0  0  0  0
   -1.6144   15.5770  -33.2033 H   0  0  0  0  0  0  0  0  0  0  0  0
   -0.7875   16.7472  -31.0273 H   0  0  0  0  0  0  0  0  0  0  0  0
    0.3018   16.6581  -32.4619 H   0  0  0  0  0  0  0  0  0  0  0  0
  1  2  1  0
  2  3  2  0
  3  4  1  0
  4  5  2  0
  5  6  1  0
  6  7  1  0
  7  8  2  0
  7  9  1  0
  9 10  1  0
 10 11  2  0
 11 12  1  0
 12 13  2  0
 13 14  1  0
 14 15  2  0
 14 16  2  0
 14 17  1  0
 17 18  1  0
 18 19  1  0
 19 20  1  0
 20 21  1  0
 20 22  1  0
 22 23  1  0
 13 24  1  0
 24 25  2  0
  5 26  1  0
 26 27  1  0
 26 28  2  0
 28 29  1  0
 29 30  2  0
 29 31  2  0
 29 32  1  0
 32 33  1  0
 33 34  1  0
 34 35  1  0
 35 36  1  0
 35 37  1  0
 37 38  1  0
 28  2  1  0
 38 32  1  0
 25 10  1  0
 23 17  1  0
  1 39  1  0
  1 40  1  0
  1 41  1  0
  3 42  1  0
  4 43  1  0
  6 44  1  0
 11 45  1  0
 12 46  1  0
 18 47  1  0
 18 48  1  0
 19 49  1  0
 19 50  1  0
 20 51  1  0
 21 52  1  0
 21 53  1  0
 21 54  1  0
 22 55  1  0
 22 56  1  0
 23 57  1  0
 23 58  1  0
 24 59  1  0
 25 60  1  0
 32 61  1  0
 33 62  1  0
 33 63  1  0
 34 64  1  0
 34 65  1  0
 36 66  1  0
 36 67  1  0
 36 68  1  0
 37 69  1  0
 37 70  1  0
 38 71  1  0
 38 72  1  0
M  CHG  2   9  -1  27  -1
M  END
>  <UniqueID>  (41) 
37

>  <SMILES>  (41) 
Cc1ccc(NC(=O)[N-]c2ccc(S(=O)(=O)N3CCC(C)CC3)cc2)c([O-])c1S(=O)(=O)C1CCN(C)CC1

>  <Energy>  (41) 
93.50339262290512

>  <Genealogy>  (41) 
Cc1ccc(NC(=O)[N-]c2ccc(S(=O)(=O)N3CCC(C)CC3)cc2)c([O-])c1S(=O)(=O)C1CCN(C)CC1 (protonated)
Cc1ccc(NC(=O)[N-]c2ccc(S(=O)(=O)N3CCC(C)CC3)cc2)c([O-])c1S(=O)(=O)C1CCN(C)CC1 (3D coordinates assigned)
Cc1ccc(NC(=O)[N-]c2ccc(S(=O)(=O)N3CCC(C)CC3)cc2)c([O-])c1S(=O)(=O)C1CCN(C)CC1 (nonaromatic ring conformer: 93.50339262290512 kcal/mol)

>  <smiles>  (41) 
Cc1ccc(NC(=O)Nc2ccc(S(=O)(=O)N3CCC(C)CC3)cc2)c(O)c1S(=O)(=O)C1CCN(C)CC1

>  <score_type>  (41) 
oracle

>  <origin>  (41) 
adgpu

>  <m_score__min__energy>  (41) 
-15.289999999999999

>  <m_primary>  (41) 
energy

$$$$
41:0
     RDKit          3D

 59 62  0  0  0  0  0  0  0  0999 V2000
   -2.3050   25.4780  -28.4510 O   0  0  0  0  0  0  0  0  0  0  0  0
   -2.5230   24.6130  -29.3400 C   0  0  0  0  0  0  0  0  0  0  0  0
   -3.4510   24.9170  -30.3910 N   0  0  0  0  0  0  0  0  0  0  0  0
   -4.6620   24.1990  -30.6630 C   0  0  0  0  0  0  0  0  0  0  0  0
   -5.7070   24.8540  -31.3240 C   0  0  0  0  0  0  0  0  0  0  0  0
   -6.8970   24.1770  -31.6080 C   0  0  0  0  0  0  0  0  0  0  0  0
   -7.0470   22.8300  -31.2470 C   0  0  0  0  0  0  0  0  0  0  0  0
   -8.5590   21.9800  -31.5750 S   0  0  0  0  0  0  0  0  0  0  0  0
   -9.1070   21.4270  -30.2880 O   0  0  0  0  0  0  0  0  0  0  0  0
   -9.5640   22.9560  -32.1250 O   0  0  0  0  0  0  0  0  0  0  0  0
   -8.3370   20.6740  -32.7210 N   0  0  0  0  0  0  0  0  0  0  0  0
   -7.1580   19.8700  -32.3820 C   0  0  0  0  0  0  0  0  0  0  0  0
   -7.6270   18.6510  -31.6080 C   0  0  0  0  0  0  0  0  0  0  0  0
   -9.0860   18.4820  -31.9760 C   0  0  0  0  0  0  0  0  0  0  0  0
   -9.4840   19.7580  -32.7130 C   0  0  0  0  0  0  0  0  0  0  0  0
   -5.9870   22.1620  -30.6180 C   0  0  0  0  0  0  0  0  0  0  0  0
   -4.8010   22.8410  -30.3280 C   0  0  0  0  0  0  0  0  0  0  0  0
   -1.8620   23.2920  -29.2520 C   0  0  0  0  0  0  0  0  0  0  0  0
   -1.5730   22.5790  -30.4280 C   0  0  0  0  0  0  0  0  0  0  0  0
   -0.9740   21.3140  -30.3670 C   0  0  0  0  0  0  0  0  0  0  0  0
   -0.7060   20.3860  -31.8440 S   0  0  0  0  0  0  0  0  0  0  0  0
    0.7210   20.5610  -32.2830 O   0  0  0  0  0  0  0  0  0  0  0  0
   -0.9270   18.9270  -31.5610 O   0  0  0  0  0  0  0  0  0  0  0  0
   -1.7760   20.8860  -33.1340 N   0  0  0  0  0  0  0  0  0  0  0  0
   -3.1090   21.3030  -32.6340 C   0  0  0  0  0  0  0  0  0  0  0  0
   -4.2730   20.7480  -33.4630 C   0  0  0  0  0  0  0  0  0  0  0  0
   -4.1460   19.2300  -33.5670 C   0  0  0  0  0  0  0  0  0  0  0  0
   -2.7950   18.8020  -34.1670 C   0  0  0  0  0  0  0  0  0  0  0  0
   -1.7650   19.9480  -34.2790 C   0  0  0  0  0  0  0  0  0  0  0  0
   -0.6260   20.7730  -29.1230 C   0  0  0  0  0  0  0  0  0  0  0  0
   -0.9070   21.4750  -27.9480 C   0  0  0  0  0  0  0  0  0  0  0  0
   -1.5320   22.7290  -28.0030 C   0  0  0  0  0  0  0  0  0  0  0  0
   -1.8060   23.4210  -26.8240 O   0  0  0  0  0  0  0  0  0  0  0  0
   -5.5918   25.9067  -31.6217 H   0  0  0  0  0  0  0  0  0  0  0  0
   -7.7186   24.7028  -32.1164 H   0  0  0  0  0  0  0  0  0  0  0  0
   -6.6453   19.5532  -33.3022 H   0  0  0  0  0  0  0  0  0  0  0  0
   -6.4551   20.4600  -31.7756 H   0  0  0  0  0  0  0  0  0  0  0  0
   -7.0498   17.7620  -31.9023 H   0  0  0  0  0  0  0  0  0  0  0  0
   -7.4889   18.7752  -30.5238 H   0  0  0  0  0  0  0  0  0  0  0  0
   -9.2166   17.6067  -32.6292 H   0  0  0  0  0  0  0  0  0  0  0  0
   -9.7103   18.3197  -31.0850 H   0  0  0  0  0  0  0  0  0  0  0  0
   -9.7704   19.5144  -33.7467 H   0  0  0  0  0  0  0  0  0  0  0  0
  -10.3385   20.2317  -32.2076 H   0  0  0  0  0  0  0  0  0  0  0  0
   -6.0895   21.0996  -30.3519 H   0  0  0  0  0  0  0  0  0  0  0  0
   -3.9726   22.3107  -29.8355 H   0  0  0  0  0  0  0  0  0  0  0  0
   -1.8195   23.0184  -31.4059 H   0  0  0  0  0  0  0  0  0  0  0  0
   -3.2190   20.9490  -31.5984 H   0  0  0  0  0  0  0  0  0  0  0  0
   -3.1536   22.3997  -32.7064 H   0  0  0  0  0  0  0  0  0  0  0  0
   -5.2252   21.0036  -32.9751 H   0  0  0  0  0  0  0  0  0  0  0  0
   -4.2475   21.1878  -34.4709 H   0  0  0  0  0  0  0  0  0  0  0  0
   -4.2405   18.7964  -32.5605 H   0  0  0  0  0  0  0  0  0  0  0  0
   -4.9426   18.8683  -34.2337 H   0  0  0  0  0  0  0  0  0  0  0  0
   -2.3676   18.0141  -33.5294 H   0  0  0  0  0  0  0  0  0  0  0  0
   -2.9975   18.4554  -35.1911 H   0  0  0  0  0  0  0  0  0  0  0  0
   -0.7612   19.5041  -34.3520 H   0  0  0  0  0  0  0  0  0  0  0  0
   -2.0374   20.5327  -35.1700 H   0  0  0  0  0  0  0  0  0  0  0  0
   -0.1300   19.7926  -29.0708 H   0  0  0  0  0  0  0  0  0  0  0  0
   -0.6363   21.0413  -26.9740 H   0  0  0  0  0  0  0  0  0  0  0  0
   -2.2600   24.3260  -26.8320 H   0  0  0  0  0  0  0  0  0  0  0  0
  1  2  2  0
  2  3  1  0
  3  4  1  0
  4  5  2  0
  5  6  1  0
  6  7  2  0
  7  8  1  0
  8  9  2  0
  8 10  2  0
  8 11  1  0
 11 12  1  0
 12 13  1  0
 13 14  1  0
 14 15  1  0
  7 16  1  0
 16 17  2  0
  2 18  1  0
 18 19  2  0
 19 20  1  0
 20 21  1  0
 21 22  2  0
 21 23  2  0
 21 24  1  0
 24 25  1  0
 25 26  1  0
 26 27  1  0
 27 28  1  0
 28 29  1  0
 20 30  2  0
 30 31  1  0
 31 32  2  0
 32 33  1  0
 17  4  1  0
 32 18  1  0
 15 11  1  0
 29 24  1  0
  5 34  1  0
  6 35  1  0
 12 36  1  0
 12 37  1  0
 13 38  1  0
 13 39  1  0
 14 40  1  0
 14 41  1  0
 15 42  1  0
 15 43  1  0
 16 44  1  0
 17 45  1  0
 19 46  1  0
 25 47  1  0
 25 48  1  0
 26 49  1  0
 26 50  1  0
 27 51  1  0
 27 52  1  0
 28 53  1  0
 28 54  1  0
 29 55  1  0
 29 56  1  0
 30 57  1  0
 31 58  1  0
 33 59  1  0
M  CHG  1   3  -1
M  END
>  <UniqueID>  (42) 
38

>  <SMILES>  (42) 
O=C([N-]c1ccc(S(=O)(=O)N2CCCC2)cc1)c1cc(S(=O)(=O)N2CCCCC2)ccc1O

>  <Energy>  (42) 
73.58925573162557

>  <Genealogy>  (42) 
O=C([N-]c1ccc(S(=O)(=O)N2CCCC2)cc1)c1cc(S(=O)(=O)N2CCCCC2)ccc1O (protonated)
O=C([N-]c1ccc(S(=O)(=O)N2CCCC2)cc1)c1cc(S(=O)(=O)N2CCCCC2)ccc1O (3D coordinates assigned)
O=C([N-]c1ccc(S(=O)(=O)N2CCCC2)cc1)c1cc(S(=O)(=O)N2CCCCC2)ccc1O (nonaromatic ring conformer: 73.58925573162557 kcal/mol)

>  <smiles>  (42) 
O=C(Nc1ccc(S(=O)(=O)N2CCCC2)cc1)c1cc(S(=O)(=O)N2CCCCC2)ccc1O

>  <score_type>  (42) 
oracle

>  <origin>  (42) 
adgpu

>  <m_score__min__energy>  (42) 
-11.69

>  <m_primary>  (42) 
energy

$$$$
42:0
     RDKit          3D

 51 53  0  0  0  0  0  0  0  0999 V2000
   -6.5060   18.4280  -33.4600 C   0  0  0  0  0  0  0  0  0  0  0  0
   -6.3930   19.7780  -32.8040 C   0  0  0  0  0  0  0  0  0  0  0  0
   -5.1340   20.3950  -32.7200 C   0  0  0  0  0  0  0  0  0  0  0  0
   -4.9910   21.6370  -32.0990 C   0  0  0  0  0  0  0  0  0  0  0  0
   -6.1020   22.2820  -31.5470 C   0  0  0  0  0  0  0  0  0  0  0  0
   -5.9290   23.8630  -30.7870 S   0  0  0  0  0  0  0  0  0  0  0  0
   -7.2570   24.5640  -30.7190 O   0  0  0  0  0  0  0  0  0  0  0  0
   -4.9790   24.6890  -31.6060 O   0  0  0  0  0  0  0  0  0  0  0  0
   -5.3000   23.6920  -29.1770 N   0  0  0  0  0  0  0  0  0  0  0  0
   -3.9390   23.3200  -28.8890 C   0  0  0  0  0  0  0  0  0  0  0  0
   -3.6390   22.1530  -28.1610 C   0  0  0  0  0  0  0  0  0  0  0  0
   -2.3120   21.7710  -27.9390 C   0  0  0  0  0  0  0  0  0  0  0  0
   -1.9830   20.2420  -27.1280 S   0  0  0  0  0  0  0  0  0  0  0  0
   -1.0640   20.4630  -25.9580 O   0  0  0  0  0  0  0  0  0  0  0  0
   -3.2840   19.6890  -26.6160 O   0  0  0  0  0  0  0  0  0  0  0  0
   -1.2720   19.1050  -28.2540 N   0  0  0  0  0  0  0  0  0  0  0  0
   -0.5380   19.7830  -29.3410 C   0  0  0  0  0  0  0  0  0  0  0  0
    0.8020   20.3820  -28.8770 C   0  0  0  0  0  0  0  0  0  0  0  0
    1.5560   19.4750  -27.8880 C   0  0  0  0  0  0  0  0  0  0  0  0
    1.0070   18.0490  -27.8870 C   0  0  0  0  0  0  0  0  0  0  0  0
   -0.4980   18.0440  -27.5600 C   0  0  0  0  0  0  0  0  0  0  0  0
   -1.2680   22.5710  -28.4170 C   0  0  0  0  0  0  0  0  0  0  0  0
   -1.5530   23.7490  -29.1100 C   0  0  0  0  0  0  0  0  0  0  0  0
   -2.8780   24.1240  -29.3510 C   0  0  0  0  0  0  0  0  0  0  0  0
   -3.1330   25.2910  -30.0630 O   0  0  0  0  0  0  0  0  0  0  0  0
   -7.3600   21.6720  -31.6150 C   0  0  0  0  0  0  0  0  0  0  0  0
   -7.5180   20.4180  -32.2310 C   0  0  0  0  0  0  0  0  0  0  0  0
   -8.8920   19.8060  -32.3090 C   0  0  0  0  0  0  0  0  0  0  0  0
   -6.5712   17.6487  -32.6864 H   0  0  0  0  0  0  0  0  0  0  0  0
   -7.4097   18.3993  -34.0865 H   0  0  0  0  0  0  0  0  0  0  0  0
   -5.6197   18.2494  -34.0865 H   0  0  0  0  0  0  0  0  0  0  0  0
   -4.2525   19.8949  -33.1475 H   0  0  0  0  0  0  0  0  0  0  0  0
   -3.9997   22.1105  -32.0437 H   0  0  0  0  0  0  0  0  0  0  0  0
   -5.9340   23.9700  -28.3960 H   0  0  0  0  0  0  0  0  0  0  0  0
   -4.4570   21.5349  -27.7625 H   0  0  0  0  0  0  0  0  0  0  0  0
   -0.3383   19.0522  -30.1385 H   0  0  0  0  0  0  0  0  0  0  0  0
   -1.1659   20.6140  -29.6947 H   0  0  0  0  0  0  0  0  0  0  0  0
    1.4382   20.5432  -29.7597 H   0  0  0  0  0  0  0  0  0  0  0  0
    0.5781   21.3238  -28.3546 H   0  0  0  0  0  0  0  0  0  0  0  0
    2.6185   19.4464  -28.1714 H   0  0  0  0  0  0  0  0  0  0  0  0
    1.4249   19.8905  -26.8779 H   0  0  0  0  0  0  0  0  0  0  0  0
    1.1620   17.6019  -28.8800 H   0  0  0  0  0  0  0  0  0  0  0  0
    1.5372   17.4670  -27.1188 H   0  0  0  0  0  0  0  0  0  0  0  0
   -0.9118   17.0674  -27.8517 H   0  0  0  0  0  0  0  0  0  0  0  0
   -0.5893   18.2384  -26.4812 H   0  0  0  0  0  0  0  0  0  0  0  0
   -0.2232   22.2718  -28.2468 H   0  0  0  0  0  0  0  0  0  0  0  0
   -0.7305   24.3855  -29.4683 H   0  0  0  0  0  0  0  0  0  0  0  0
   -8.2346   22.1793  -31.1817 H   0  0  0  0  0  0  0  0  0  0  0  0
   -9.2756   19.6352  -31.2923 H   0  0  0  0  0  0  0  0  0  0  0  0
   -9.5674   20.4884  -32.8458 H   0  0  0  0  0  0  0  0  0  0  0  0
   -8.8365   18.8475  -32.8458 H   0  0  0  0  0  0  0  0  0  0  0  0
  1  2  1  0
  2  3  2  0
  3  4  1  0
  4  5  2  0
  5  6  1  0
  6  7  2  0
  6  8  2  0
  6  9  1  0
  9 10  1  0
 10 11  2  0
 11 12  1  0
 12 13  1  0
 13 14  2  0
 13 15  2  0
 13 16  1  0
 16 17  1  0
 17 18  1  0
 18 19  1  0
 19 20  1  0
 20 21  1  0
 12 22  2  0
 22 23  1  0
 23 24  2  0
 24 25  1  0
  5 26  1  0
 26 27  2  0
 27 28  1  0
 27  2  1  0
 24 10  1  0
 21 16  1  0
  1 29  1  0
  1 30  1  0
  1 31  1  0
  3 32  1  0
  4 33  1  0
  9 34  1  0
 11 35  1  0
 17 36  1  0
 17 37  1  0
 18 38  1  0
 18 39  1  0
 19 40  1  0
 19 41  1  0
 20 42  1  0
 20 43  1  0
 21 44  1  0
 21 45  1  0
 22 46  1  0
 23 47  1  0
 26 48  1  0
 28 49  1  0
 28 50  1  0
 28 51  1  0
M  CHG  1  25  -1
M  END
>  <UniqueID>  (43) 
39

>  <SMILES>  (43) 
Cc1ccc(S(=O)(=O)Nc2cc(S(=O)(=O)N3CCCCC3)ccc2[O-])cc1C

>  <Energy>  (43) 
58.272053247783155

>  <Genealogy>  (43) 
Cc1ccc(S(=O)(=O)Nc2cc(S(=O)(=O)N3CCCCC3)ccc2[O-])cc1C (protonated)
Cc1ccc(S(=O)(=O)Nc2cc(S(=O)(=O)N3CCCCC3)ccc2[O-])cc1C (3D coordinates assigned)
Cc1ccc(S(=O)(=O)Nc2cc(S(=O)(=O)N3CCCCC3)ccc2[O-])cc1C (nonaromatic ring conformer: 58.272053247783155 kcal/mol)

>  <smiles>  (43) 
Cc1ccc(S(=O)(=O)Nc2cc(S(=O)(=O)N3CCCCC3)ccc2O)cc1C

>  <score_type>  (43) 
oracle

>  <origin>  (43) 
adgpu

>  <m_score__min__energy>  (43) 
-13.17

>  <m_primary>  (43) 
energy

$$$$
43:0
     RDKit          3D

 48 51  0  0  0  0  0  0  0  0999 V2000
    2.4860   26.2210  -23.9270 C   0  0  0  0  0  0  0  0  0  0  0  0
    1.8210   27.5150  -24.1590 N   0  0  0  0  0  0  0  0  0  0  0  0
    0.6960   27.7510  -23.2330 C   0  0  0  0  0  0  0  0  0  0  0  0
   -0.4540   26.7540  -23.4390 C   0  0  0  0  0  0  0  0  0  0  0  0
   -0.7640   26.5300  -24.8960 C   0  0  0  0  0  0  0  0  0  0  0  0
   -1.9350   25.8440  -25.2470 C   0  0  0  0  0  0  0  0  0  0  0  0
   -2.2220   25.5740  -26.5860 C   0  0  0  0  0  0  0  0  0  0  0  0
   -1.3520   25.9920  -27.5970 C   0  0  0  0  0  0  0  0  0  0  0  0
   -1.6830   25.6820  -28.9580 N   0  0  0  0  0  0  0  0  0  0  0  0
   -2.5710   24.6510  -29.4130 C   0  0  0  0  0  0  0  0  0  0  0  0
   -2.5210   23.4970  -28.9140 O   0  0  0  0  0  0  0  0  0  0  0  0
   -3.5320   24.9200  -30.4390 N   0  0  0  0  0  0  0  0  0  0  0  0
   -4.7450   24.1920  -30.6770 C   0  0  0  0  0  0  0  0  0  0  0  0
   -5.9830   24.6610  -30.2120 C   0  0  0  0  0  0  0  0  0  0  0  0
   -7.1510   23.9550  -30.4910 C   0  0  0  0  0  0  0  0  0  0  0  0
   -7.1080   22.7760  -31.2390 C   0  0  0  0  0  0  0  0  0  0  0  0
   -8.6380   21.9720  -31.5830 Cl  0  0  0  0  0  0  0  0  0  0  0  0
   -5.8720   22.2890  -31.7200 C   0  0  0  0  0  0  0  0  0  0  0  0
   -5.8050   20.8000  -32.6870 S   0  0  0  0  0  0  0  0  0  0  0  0
   -6.8770   20.8000  -33.7420 O   0  0  0  0  0  0  0  0  0  0  0  0
   -4.4760   20.7060  -33.3820 O   0  0  0  0  0  0  0  0  0  0  0  0
   -5.9950   19.3990  -31.5850 C   0  0  0  0  0  0  0  0  0  0  0  0
   -7.3210   18.6700  -31.7200 C   0  0  0  0  0  0  0  0  0  0  0  0
   -6.0460   18.0390  -32.2610 C   0  0  0  0  0  0  0  0  0  0  0  0
   -4.6970   23.0240  -31.4540 C   0  0  0  0  0  0  0  0  0  0  0  0
   -3.4680   22.6070  -31.9590 O   0  0  0  0  0  0  0  0  0  0  0  0
   -0.1580   26.6480  -27.2500 C   0  0  0  0  0  0  0  0  0  0  0  0
    0.1470   26.9090  -25.9040 C   0  0  0  0  0  0  0  0  0  0  0  0
    1.4040   27.6780  -25.5660 C   0  0  0  0  0  0  0  0  0  0  0  0
    2.5769   26.0442  -22.8451 H   0  0  0  0  0  0  0  0  0  0  0  0
    1.8900   25.4158  -24.3813 H   0  0  0  0  0  0  0  0  0  0  0  0
    3.4877   26.2368  -24.3813 H   0  0  0  0  0  0  0  0  0  0  0  0
    1.0634   27.6574  -22.2004 H   0  0  0  0  0  0  0  0  0  0  0  0
    0.3043   28.7593  -23.4329 H   0  0  0  0  0  0  0  0  0  0  0  0
   -0.1734   25.7920  -22.9853 H   0  0  0  0  0  0  0  0  0  0  0  0
   -1.3529   27.1754  -22.9652 H   0  0  0  0  0  0  0  0  0  0  0  0
   -2.6324   25.5163  -24.4619 H   0  0  0  0  0  0  0  0  0  0  0  0
   -3.1403   25.0278  -26.8477 H   0  0  0  0  0  0  0  0  0  0  0  0
   -6.0314   25.5899  -29.6248 H   0  0  0  0  0  0  0  0  0  0  0  0
   -8.1161   24.3294  -30.1189 H   0  0  0  0  0  0  0  0  0  0  0  0
   -5.4159   19.8282  -30.7541 H   0  0  0  0  0  0  0  0  0  0  0  0
   -7.8093   18.2469  -30.8297 H   0  0  0  0  0  0  0  0  0  0  0  0
   -8.3060   18.9183  -32.1421 H   0  0  0  0  0  0  0  0  0  0  0  0
   -5.6125   17.1599  -31.7618 H   0  0  0  0  0  0  0  0  0  0  0  0
   -5.7272   17.6422  -33.2361 H   0  0  0  0  0  0  0  0  0  0  0  0
    0.5428   26.9593  -28.0387 H   0  0  0  0  0  0  0  0  0  0  0  0
    2.2174   27.3227  -26.2158 H   0  0  0  0  0  0  0  0  0  0  0  0
    1.1883   28.7452  -25.7231 H   0  0  0  0  0  0  0  0  0  0  0  0
  1  2  1  0
  2  3  1  0
  3  4  1  0
  4  5  1  0
  5  6  2  0
  6  7  1  0
  7  8  2  0
  8  9  1  0
  9 10  1  0
 10 11  2  0
 10 12  1  0
 12 13  1  0
 13 14  2  0
 14 15  1  0
 15 16  2  0
 16 17  1  0
 16 18  1  0
 18 19  1  0
 19 20  2  0
 19 21  2  0
 19 22  1  0
 22 23  1  0
 23 24  1  0
 18 25  2  0
 25 26  1  0
  8 27  1  0
 27 28  2  0
 28 29  1  0
 29  2  1  0
 28  5  1  0
 25 13  1  0
 24 22  1  0
  1 30  1  0
  1 31  1  0
  1 32  1  0
  3 33  1  0
  3 34  1  0
  4 35  1  0
  4 36  1  0
  6 37  1  0
  7 38  1  0
 14 39  1  0
 15 40  1  0
 22 41  1  0
 23 42  1  0
 23 43  1  0
 24 44  1  0
 24 45  1  0
 27 46  1  0
 29 47  1  0
 29 48  1  0
M  CHG  3   9  -1  12  -1  26  -1
M  END
>  <UniqueID>  (44) 
40

>  <SMILES>  (44) 
CN1CCc2ccc([N-]C(=O)[N-]c3ccc(Cl)c(S(=O)(=O)C4CC4)c3[O-])cc2C1

>  <Energy>  (44) 
329.09285982823377

>  <Genealogy>  (44) 
CN1CCc2ccc([N-]C(=O)[N-]c3ccc(Cl)c(S(=O)(=O)C4CC4)c3[O-])cc2C1 (protonated)
CN1CCc2ccc([N-]C(=O)[N-]c3ccc(Cl)c(S(=O)(=O)C4CC4)c3[O-])cc2C1 (3D coordinates assigned)
CN1CCc2ccc([N-]C(=O)[N-]c3ccc(Cl)c(S(=O)(=O)C4CC4)c3[O-])cc2C1 (nonaromatic ring conformer: 329.09285982823377 kcal/mol)

>  <smiles>  (44) 
CN1CCc2ccc(NC(=O)Nc3ccc(Cl)c(S(=O)(=O)C4CC4)c3O)cc2C1

>  <score_type>  (44) 
oracle

>  <origin>  (44) 
adgpu

>  <m_score__min__energy>  (44) 
-16.23

>  <m_primary>  (44) 
energy

$$$$
44:0
     RDKit          3D

 25 26  0  0  0  0  0  0  0  0999 V2000
   -7.3130   17.9810  -32.7560 C   0  0  0  0  0  0  0  0  0  0  0  0
   -8.3970   18.2420  -31.9170 C   0  0  0  0  0  0  0  0  0  0  0  0
   -8.7650   19.5620  -31.6470 C   0  0  0  0  0  0  0  0  0  0  0  0
   -8.0310   20.6120  -32.2180 C   0  0  0  0  0  0  0  0  0  0  0  0
   -8.4070   22.0440  -31.9640 C   0  0  0  0  0  0  0  0  0  0  0  0
   -7.3410   22.9420  -32.4120 N   0  0  0  0  0  0  0  0  0  0  0  0
   -6.4300   23.6250  -31.5300 C   0  0  0  0  0  0  0  0  0  0  0  0
   -6.8760   24.5030  -30.5230 C   0  0  0  0  0  0  0  0  0  0  0  0
   -5.9530   25.1390  -29.6910 C   0  0  0  0  0  0  0  0  0  0  0  0
   -4.5910   24.8990  -29.8690 C   0  0  0  0  0  0  0  0  0  0  0  0
   -4.1710   24.0530  -30.8460 N   0  0  0  0  0  0  0  0  0  0  0  0
   -5.0490   23.4210  -31.6690 C   0  0  0  0  0  0  0  0  0  0  0  0
   -6.9820   20.3280  -33.0430 N   0  0  0  0  0  0  0  0  0  0  0  0
   -6.6110   19.0490  -33.3170 C   0  0  0  0  0  0  0  0  0  0  0  0
   -7.0149   16.9446  -32.9730 H   0  0  0  0  0  0  0  0  0  0  0  0
   -8.9604   17.4101  -31.4693 H   0  0  0  0  0  0  0  0  0  0  0  0
   -9.6227   19.7762  -30.9925 H   0  0  0  0  0  0  0  0  0  0  0  0
   -9.3315   22.2781  -32.5122 H   0  0  0  0  0  0  0  0  0  0  0  0
   -8.5601   22.1851  -30.8839 H   0  0  0  0  0  0  0  0  0  0  0  0
   -7.2320   23.0760  -33.4430 H   0  0  0  0  0  0  0  0  0  0  0  0
   -7.9525   24.6877  -30.3921 H   0  0  0  0  0  0  0  0  0  0  0  0
   -6.2972   25.8236  -28.9018 H   0  0  0  0  0  0  0  0  0  0  0  0
   -3.8559   25.3949  -29.2180 H   0  0  0  0  0  0  0  0  0  0  0  0
   -4.6736   22.7440  -32.4505 H   0  0  0  0  0  0  0  0  0  0  0  0
   -5.7563   18.8556  -33.9818 H   0  0  0  0  0  0  0  0  0  0  0  0
  1  2  2  0
  2  3  1  0
  3  4  2  0
  4  5  1  0
  5  6  1  0
  6  7  1  0
  7  8  2  0
  8  9  1  0
  9 10  2  0
 10 11  1  0
 11 12  2  0
  4 13  1  0
 13 14  2  0
 14  1  1  0
 12  7  1  0
  1 15  1  0
  2 16  1  0
  3 17  1  0
  5 18  1  0
  5 19  1  0
  6 20  1  0
  8 21  1  0
  9 22  1  0
 10 23  1  0
 12 24  1  0
 14 25  1  0
M  END
>  <UniqueID>  (45) 
41

>  <SMILES>  (45) 
c1ccc(CNc2cccnc2)nc1

>  <Energy>  (45) 
26.091126238979243

>  <Genealogy>  (45) 
c1ccc(CNc2cccnc2)nc1 (3D coordinates assigned)
c1ccc(CNc2cccnc2)nc1 (optimized conformer: 26.091126238979243 kcal/mol)

>  <smiles>  (45) 
c1ccc(CNc2cccnc2)nc1

>  <score_type>  (45) 
oracle

>  <origin>  (45) 
adgpu

>  <m_score__min__energy>  (45) 
-6.2400000000000002

>  <m_primary>  (45) 
energy

$$$$
45:0
     RDKit          3D

 50 52  0  0  0  0  0  0  0  0999 V2000
   -8.7310   18.9530  -32.0750 C   0  0  0  0  0  0  0  0  0  0  0  0
   -7.2630   19.1640  -32.3020 C   0  0  0  0  0  0  0  0  0  0  0  0
   -6.7940   20.3830  -32.8130 C   0  0  0  0  0  0  0  0  0  0  0  0
   -5.4290   20.5670  -33.0600 C   0  0  0  0  0  0  0  0  0  0  0  0
   -4.5210   19.5280  -32.8070 C   0  0  0  0  0  0  0  0  0  0  0  0
   -2.8040   19.7270  -33.1330 S   0  0  0  0  0  0  0  0  0  0  0  0
   -2.1960   18.4380  -33.6140 O   0  0  0  0  0  0  0  0  0  0  0  0
   -2.6320   20.7680  -34.2040 O   0  0  0  0  0  0  0  0  0  0  0  0
   -2.0150   20.2230  -31.6670 N   0  0  0  0  0  0  0  0  0  0  0  0
   -1.1540   19.2790  -30.9600 C   0  0  0  0  0  0  0  0  0  0  0  0
   -2.2900   21.5120  -31.1000 C   0  0  0  0  0  0  0  0  0  0  0  0
   -3.3410   22.2940  -31.6000 C   0  0  0  0  0  0  0  0  0  0  0  0
   -3.6040   23.5510  -31.0530 C   0  0  0  0  0  0  0  0  0  0  0  0
   -2.8260   24.0380  -30.0000 C   0  0  0  0  0  0  0  0  0  0  0  0
   -3.0960   25.3000  -29.4800 O   0  0  0  0  0  0  0  0  0  0  0  0
   -1.7790   23.2580  -29.4790 C   0  0  0  0  0  0  0  0  0  0  0  0
   -0.7760   23.8610  -28.1550 S   0  0  0  0  0  0  0  0  0  0  0  0
   -0.6470   22.7850  -27.1110 O   0  0  0  0  0  0  0  0  0  0  0  0
    0.5980   24.1910  -28.6670 O   0  0  0  0  0  0  0  0  0  0  0  0
   -1.5060   25.2840  -27.4490 N   0  0  0  0  0  0  0  0  0  0  0  0
   -0.5310   26.3970  -27.4340 C   0  0  0  0  0  0  0  0  0  0  0  0
   -0.8920   27.4280  -26.3510 C   0  0  0  0  0  0  0  0  0  0  0  0
   -0.9090   26.8960  -25.0300 O   0  0  0  0  0  0  0  0  0  0  0  0
   -1.1340   25.4930  -24.9800 C   0  0  0  0  0  0  0  0  0  0  0  0
   -2.0570   24.9850  -26.1030 C   0  0  0  0  0  0  0  0  0  0  0  0
   -1.5120   22.0010  -30.0400 C   0  0  0  0  0  0  0  0  0  0  0  0
   -4.9900   18.3020  -32.3160 C   0  0  0  0  0  0  0  0  0  0  0  0
   -6.3530   18.1180  -32.0690 C   0  0  0  0  0  0  0  0  0  0  0  0
   -8.9344   18.9238  -30.9944 H   0  0  0  0  0  0  0  0  0  0  0  0
   -9.2952   19.7793  -32.5321 H   0  0  0  0  0  0  0  0  0  0  0  0
   -9.0396   18.0013  -32.5321 H   0  0  0  0  0  0  0  0  0  0  0  0
   -7.5026   21.1983  -33.0206 H   0  0  0  0  0  0  0  0  0  0  0  0
   -5.0672   21.5284  -33.4534 H   0  0  0  0  0  0  0  0  0  0  0  0
   -1.2762   19.4130  -29.8750 H   0  0  0  0  0  0  0  0  0  0  0  0
   -1.4322   18.2512  -31.2362 H   0  0  0  0  0  0  0  0  0  0  0  0
   -0.1050   19.4617  -31.2362 H   0  0  0  0  0  0  0  0  0  0  0  0
   -3.9605   21.9155  -32.4264 H   0  0  0  0  0  0  0  0  0  0  0  0
   -4.4276   24.1608  -31.4529 H   0  0  0  0  0  0  0  0  0  0  0  0
   -2.3040   25.5570  -28.0730 H   0  0  0  0  0  0  0  0  0  0  0  0
    0.4719   25.9946  -27.2282 H   0  0  0  0  0  0  0  0  0  0  0  0
   -0.5512   26.8953  -28.4145 H   0  0  0  0  0  0  0  0  0  0  0  0
   -0.1525   28.2415  -26.3872 H   0  0  0  0  0  0  0  0  0  0  0  0
   -1.9129   27.7750  -26.5684 H   0  0  0  0  0  0  0  0  0  0  0  0
   -0.1645   24.9804  -25.0659 H   0  0  0  0  0  0  0  0  0  0  0  0
   -1.6334   25.2764  -24.0241 H   0  0  0  0  0  0  0  0  0  0  0  0
   -2.1756   23.8962  -26.0009 H   0  0  0  0  0  0  0  0  0  0  0  0
   -3.0247   25.4994  -26.0083 H   0  0  0  0  0  0  0  0  0  0  0  0
   -0.6849   21.3927  -29.6453 H   0  0  0  0  0  0  0  0  0  0  0  0
   -4.2827   17.4817  -32.1244 H   0  0  0  0  0  0  0  0  0  0  0  0
   -6.7154   17.1508  -31.6907 H   0  0  0  0  0  0  0  0  0  0  0  0
  1  2  1  0
  2  3  2  0
  3  4  1  0
  4  5  2  0
  5  6  1  0
  6  7  2  0
  6  8  2  0
  6  9  1  0
  9 10  1  0
  9 11  1  0
 11 12  2  0
 12 13  1  0
 13 14  2  0
 14 15  1  0
 14 16  1  0
 16 17  1  0
 17 18  2  0
 17 19  2  0
 17 20  1  0
 20 21  1  0
 21 22  1  0
 22 23  1  0
 23 24  1  0
 24 25  1  0
 16 26  2  0
  5 27  1  0
 27 28  2  0
 28  2  1  0
 26 11  1  0
 25 20  1  0
  1 29  1  0
  1 30  1  0
  1 31  1  0
  3 32  1  0
  4 33  1  0
 10 34  1  0
 10 35  1  0
 10 36  1  0
 12 37  1  0
 13 38  1  0
 20 39  1  0
 21 40  1  0
 21 41  1  0
 22 42  1  0
 22 43  1  0
 24 44  1  0
 24 45  1  0
 25 46  1  0
 25 47  1  0
 26 48  1  0
 27 49  1  0
 28 50  1  0
M  CHG  2  15  -1  20   1
M  END
>  <UniqueID>  (46) 
42

>  <SMILES>  (46) 
Cc1ccc(S(=O)(=O)N(C)c2ccc([O-])c(S(=O)(=O)[NH+]3CCOCC3)c2)cc1

>  <Energy>  (46) 
67.87994469922808

>  <Genealogy>  (46) 
Cc1ccc(S(=O)(=O)N(C)c2ccc([O-])c(S(=O)(=O)[NH+]3CCOCC3)c2)cc1 (protonated)
Cc1ccc(S(=O)(=O)N(C)c2ccc([O-])c(S(=O)(=O)[NH+]3CCOCC3)c2)cc1 (3D coordinates assigned)
Cc1ccc(S(=O)(=O)N(C)c2ccc([O-])c(S(=O)(=O)[NH+]3CCOCC3)c2)cc1 (nonaromatic ring conformer: 67.87994469922808 kcal/mol)

>  <smiles>  (46) 
Cc1ccc(S(=O)(=O)N(C)c2ccc(O)c(S(=O)(=O)N3CCOCC3)c2)cc1

>  <score_type>  (46) 
oracle

>  <origin>  (46) 
adgpu

>  <m_score__min__energy>  (46) 
-10.57

>  <m_primary>  (46) 
energy

$$$$
46:0
     RDKit          3D

 45 47  0  0  1  0  0  0  0  0999 V2000
   -4.6260   14.6440  -32.0610 C   0  0  0  0  0  0  0  0  0  0  0  0
   -4.5530   14.5180  -33.5590 C   0  0  0  0  0  0  0  0  0  0  0  0
   -3.7800   15.5140  -34.1810 O   0  0  0  0  0  0  0  0  0  0  0  0
   -4.3410   16.7050  -34.6120 C   0  0  0  0  0  0  0  0  0  0  0  0
   -4.0070   17.0490  -35.8050 O   0  0  0  0  0  0  0  0  0  0  0  0
   -5.2100   17.5500  -33.8990 C   0  0  0  0  0  0  0  0  0  0  0  0
   -6.9170   17.0540  -33.5370 S   0  0  0  0  0  0  0  0  0  0  0  0
   -7.2960   18.6230  -32.6530 C   0  0  0  0  0  0  0  0  0  0  0  0
   -8.4610   19.0030  -32.0640 N   0  0  0  0  0  0  0  0  0  0  0  0
   -8.5120   20.2050  -31.4740 C   0  0  0  0  0  0  0  0  0  0  0  0
   -7.4120   20.9520  -31.5020 N   0  0  0  0  0  0  0  0  0  0  0  0
   -6.2470   20.6080  -32.0730 C   0  0  0  0  0  0  0  0  0  0  0  0
   -5.2860   21.4400  -32.0170 N   0  0  0  0  0  0  0  0  0  0  0  0
   -5.4600   22.7050  -31.3580 C   0  0  0  0  0  0  0  0  0  0  0  0
   -6.1600   23.7440  -31.9330 C   0  0  0  0  0  0  0  0  0  0  0  0
   -6.2680   24.9220  -31.2090 C   0  0  0  0  0  0  0  0  0  0  0  0
   -5.6880   25.0350  -29.9570 C   0  0  0  0  0  0  0  0  0  0  0  0
   -4.9910   24.0120  -29.3710 C   0  0  0  0  0  0  0  0  0  0  0  0
   -4.3760   24.0380  -28.1110 N   0  0  0  0  0  0  0  0  0  0  0  0
   -2.7400   24.4470  -27.8080 S   0  0  0  0  0  0  0  0  0  0  0  0
   -2.6200   25.3170  -26.2720 C   0  0  0  0  0  0  0  0  0  0  0  0
   -2.1900   25.2810  -28.9480 O   0  0  0  0  0  0  0  0  0  0  0  0
   -1.8890   23.1950  -27.7810 O   0  0  0  0  0  0  0  0  0  0  0  0
   -4.8830   22.8240  -30.1030 C   0  0  0  0  0  0  0  0  0  0  0  0
   -6.1400   19.3470  -32.7110 C   0  0  0  0  0  0  0  0  0  0  0  0
   -5.0790   18.8270  -33.3320 C   0  0  0  0  0  0  0  0  0  0  0  0
   -3.7450   19.5240  -33.4540 C   0  0  0  0  0  0  0  0  0  0  0  0
   -4.1263   13.7815  -31.5957 H   0  0  0  0  0  0  0  0  0  0  0  0
   -4.1254   15.5715  -31.7462 H   0  0  0  0  0  0  0  0  0  0  0  0
   -5.6797   14.6710  -31.7462 H   0  0  0  0  0  0  0  0  0  0  0  0
   -4.1155   13.5386  -33.8025 H   0  0  0  0  0  0  0  0  0  0  0  0
   -5.5797   14.6302  -33.9375 H   0  0  0  0  0  0  0  0  0  0  0  0
   -9.2490   18.3490  -32.1000 H   0  0  0  0  0  0  0  0  0  0  0  0
   -9.4304   20.5610  -30.9843 H   0  0  0  0  0  0  0  0  0  0  0  0
   -6.6159   23.6426  -32.9289 H   0  0  0  0  0  0  0  0  0  0  0  0
   -6.8194   25.7740  -31.6333 H   0  0  0  0  0  0  0  0  0  0  0  0
   -5.7911   25.9844  -29.4111 H   0  0  0  0  0  0  0  0  0  0  0  0
   -4.9760   23.7860  -27.2850 H   0  0  0  0  0  0  0  0  0  0  0  0
   -2.7181   24.6054  -25.4389 H   0  0  0  0  0  0  0  0  0  0  0  0
   -1.6439   25.8205  -26.2111 H   0  0  0  0  0  0  0  0  0  0  0  0
   -3.4233   26.0659  -26.2111 H   0  0  0  0  0  0  0  0  0  0  0  0
   -4.3324   21.9725  -29.6765 H   0  0  0  0  0  0  0  0  0  0  0  0
   -3.3468   19.7320  -32.4499 H   0  0  0  0  0  0  0  0  0  0  0  0
   -3.0423   18.8778  -34.0005 H   0  0  0  0  0  0  0  0  0  0  0  0
   -3.8741   20.4699  -34.0005 H   0  0  0  0  0  0  0  0  0  0  0  0
  1  2  1  0
  2  3  1  0
  3  4  1  0
  4  5  2  0
  4  6  1  0
  6  7  1  0
  7  8  1  0
  8  9  1  0
  9 10  1  0
 10 11  2  0
 11 12  1  0
 12 13  2  0
 13 14  1  0
 14 15  2  0
 15 16  1  0
 16 17  2  0
 17 18  1  0
 18 19  1  0
 19 20  1  0
 20 21  1  0
 20 22  2  0
 20 23  2  0
 18 24  2  0
 12 25  1  0
 25 26  1  0
 26 27  1  0
 26  6  2  0
 25  8  2  0
 24 14  1  0
  1 28  1  0
  1 29  1  0
  1 30  1  0
  2 31  1  0
  2 32  1  0
  9 33  1  0
 10 34  1  0
 15 35  1  0
 16 36  1  0
 17 37  1  0
 19 38  1  0
 21 39  1  0
 21 40  1  0
 21 41  1  0
 24 42  1  0
 27 43  1  0
 27 44  1  0
 27 45  1  0
M  END
>  <smiles>  (47) 
CCOC(=O)c1sc2[nH]cnc(=Nc3cccc(NS(C)(=O)=O)c3)c2c1C

>  <score_type>  (47) 
oracle

>  <origin>  (47) 
adgpu

>  <m_score__min__energy>  (47) 
-9

>  <m_primary>  (47) 
energy

$$$$
47:0
     RDKit          3D

 48 50  0  0  0  0  0  0  0  0999 V2000
   -8.2940   22.2490  -30.7840 C   0  0  0  0  0  0  0  0  0  0  0  0
   -7.0160   23.0350  -30.6990 C   0  0  0  0  0  0  0  0  0  0  0  0
   -7.0580   24.3750  -30.2970 C   0  0  0  0  0  0  0  0  0  0  0  0
   -5.8790   25.1210  -30.2150 C   0  0  0  0  0  0  0  0  0  0  0  0
   -4.6500   24.5410  -30.5560 C   0  0  0  0  0  0  0  0  0  0  0  0
   -3.4900   25.3040  -30.4550 O   0  0  0  0  0  0  0  0  0  0  0  0
   -4.5940   23.1940  -30.9710 C   0  0  0  0  0  0  0  0  0  0  0  0
   -3.3090   22.5790  -31.3730 C   0  0  0  0  0  0  0  0  0  0  0  0
   -2.3360   22.5970  -30.5720 O   0  0  0  0  0  0  0  0  0  0  0  0
   -3.1250   21.9790  -32.6630 N   0  0  0  0  0  0  0  0  0  0  0  0
   -2.9540   20.5750  -32.8980 C   0  0  0  0  0  0  0  0  0  0  0  0
   -3.9940   19.8740  -33.5230 C   0  0  0  0  0  0  0  0  0  0  0  0
   -3.9020   18.4920  -33.7330 C   0  0  0  0  0  0  0  0  0  0  0  0
   -5.2660   17.6080  -34.4240 S   0  0  0  0  0  0  0  0  0  0  0  0
   -5.0240   16.1260  -34.2980 O   0  0  0  0  0  0  0  0  0  0  0  0
   -5.3780   17.9380  -35.8880 O   0  0  0  0  0  0  0  0  0  0  0  0
   -6.7600   18.0340  -33.6200 N   0  0  0  0  0  0  0  0  0  0  0  0
   -6.8720   17.3410  -32.3110 C   0  0  0  0  0  0  0  0  0  0  0  0
   -7.5210   18.1970  -31.2060 C   0  0  0  0  0  0  0  0  0  0  0  0
   -8.6740   19.0370  -31.7610 C   0  0  0  0  0  0  0  0  0  0  0  0
   -8.2620   19.8800  -32.9910 C   0  0  0  0  0  0  0  0  0  0  0  0
   -6.8770   19.4990  -33.5240 C   0  0  0  0  0  0  0  0  0  0  0  0
   -2.7400   17.8140  -33.3490 C   0  0  0  0  0  0  0  0  0  0  0  0
   -1.6860   18.5070  -32.7510 C   0  0  0  0  0  0  0  0  0  0  0  0
   -1.7740   19.8890  -32.5270 C   0  0  0  0  0  0  0  0  0  0  0  0
   -0.6430   20.5770  -31.9760 N   0  0  0  0  0  0  0  0  0  0  0  0
   -5.7830   22.4430  -31.0210 C   0  0  0  0  0  0  0  0  0  0  0  0
   -8.6558   22.0265  -29.7693 H   0  0  0  0  0  0  0  0  0  0  0  0
   -9.0514   22.8376  -31.3225 H   0  0  0  0  0  0  0  0  0  0  0  0
   -8.1103   21.3075  -31.3225 H   0  0  0  0  0  0  0  0  0  0  0  0
   -8.0214   24.8422  -30.0450 H   0  0  0  0  0  0  0  0  0  0  0  0
   -5.9161   26.1685  -29.8812 H   0  0  0  0  0  0  0  0  0  0  0  0
   -4.8931   20.4152  -33.8526 H   0  0  0  0  0  0  0  0  0  0  0  0
   -7.4801   16.4349  -32.4495 H   0  0  0  0  0  0  0  0  0  0  0  0
   -5.8476   17.1150  -31.9802 H   0  0  0  0  0  0  0  0  0  0  0  0
   -7.9074   17.5332  -30.4185 H   0  0  0  0  0  0  0  0  0  0  0  0
   -6.7583   18.8778  -30.8001 H   0  0  0  0  0  0  0  0  0  0  0  0
   -9.4912   18.3619  -32.0551 H   0  0  0  0  0  0  0  0  0  0  0  0
   -8.9866   19.7348  -30.9702 H   0  0  0  0  0  0  0  0  0  0  0  0
   -9.0025   19.7249  -33.7895 H   0  0  0  0  0  0  0  0  0  0  0  0
   -8.2219   20.9334  -32.6769 H   0  0  0  0  0  0  0  0  0  0  0  0
   -6.7358   19.9419  -34.5210 H   0  0  0  0  0  0  0  0  0  0  0  0
   -6.1079   19.8784  -32.8351 H   0  0  0  0  0  0  0  0  0  0  0  0
   -2.6566   16.7304  -33.5190 H   0  0  0  0  0  0  0  0  0  0  0  0
   -0.7772   17.9639  -32.4524 H   0  0  0  0  0  0  0  0  0  0  0  0
   -0.7460   21.5490  -31.6060 H   0  0  0  0  0  0  0  0  0  0  0  0
    0.2890   20.1210  -31.8740 H   0  0  0  0  0  0  0  0  0  0  0  0
   -5.7469   21.3835  -31.3146 H   0  0  0  0  0  0  0  0  0  0  0  0
  1  2  1  0
  2  3  2  0
  3  4  1  0
  4  5  2  0
  5  6  1  0
  5  7  1  0
  7  8  1  0
  8  9  2  0
  8 10  1  0
 10 11  1  0
 11 12  2  0
 12 13  1  0
 13 14  1  0
 14 15  2  0
 14 16  2  0
 14 17  1  0
 17 18  1  0
 18 19  1  0
 19 20  1  0
 20 21  1  0
 21 22  1  0
 13 23  2  0
 23 24  1  0
 24 25  2  0
 25 26  1  0
  7 27  2  0
 27  2  1  0
 25 11  1  0
 22 17  1  0
  1 28  1  0
  1 29  1  0
  1 30  1  0
  3 31  1  0
  4 32  1  0
 12 33  1  0
 18 34  1  0
 18 35  1  0
 19 36  1  0
 19 37  1  0
 20 38  1  0
 20 39  1  0
 21 40  1  0
 21 41  1  0
 22 42  1  0
 22 43  1  0
 23 44  1  0
 24 45  1  0
 26 46  1  0
 26 47  1  0
 27 48  1  0
M  CHG  2   6  -1  10  -1
M  END
>  <UniqueID>  (48) 
43

>  <SMILES>  (48) 
Cc1ccc([O-])c(C(=O)[N-]c2cc(S(=O)(=O)N3CCCCC3)ccc2N)c1

>  <Energy>  (48) 
61.12963886929009

>  <Genealogy>  (48) 
Cc1ccc([O-])c(C(=O)[N-]c2cc(S(=O)(=O)N3CCCCC3)ccc2N)c1 (protonated)
Cc1ccc([O-])c(C(=O)[N-]c2cc(S(=O)(=O)N3CCCCC3)ccc2N)c1 (3D coordinates assigned)
Cc1ccc([O-])c(C(=O)[N-]c2cc(S(=O)(=O)N3CCCCC3)ccc2N)c1 (nonaromatic ring conformer: 61.12963886929009 kcal/mol)

>  <smiles>  (48) 
Cc1ccc(O)c(C(=O)Nc2cc(S(=O)(=O)N3CCCCC3)ccc2N)c1

>  <score_type>  (48) 
oracle

>  <origin>  (48) 
adgpu

>  <m_score__min__energy>  (48) 
-13.539999999999999

>  <m_primary>  (48) 
energy

$$$$
48:0
     RDKit          3D

 40 41  0  0  1  0  0  0  0  0999 V2000
   -8.0770   23.0400  -31.9290 C   0  0  0  0  0  0  0  0  0  0  0  0
   -6.7280   22.6540  -31.5970 N   0  0  0  0  0  0  0  0  0  0  0  0
   -6.3970   21.4530  -32.3390 C   0  0  0  0  0  0  0  0  0  0  0  0
   -5.8420   23.7440  -31.9030 C   0  0  0  0  0  0  0  0  0  0  0  0
   -5.6910   24.6900  -30.7390 C   0  0  0  0  0  0  0  0  0  0  0  0
   -4.3310   25.0980  -30.5250 N   0  0  0  0  0  0  0  0  0  0  0  0
   -3.6480   24.4930  -29.6150 C   0  0  0  0  0  0  0  0  0  0  0  0
   -4.1440   23.4850  -28.8430 C   0  0  0  0  0  0  0  0  0  0  0  0
   -3.3310   22.9050  -27.9000 C   0  0  0  0  0  0  0  0  0  0  0  0
   -2.0590   23.3120  -27.7250 N   0  0  0  0  0  0  0  0  0  0  0  0
   -1.2290   22.6810  -26.7230 C   0  0  0  0  0  0  0  0  0  0  0  0
   -0.9580   21.2610  -27.0170 C   0  0  0  0  0  0  0  0  0  0  0  0
   -1.7830   20.2510  -26.5560 C   0  0  0  0  0  0  0  0  0  0  0  0
   -1.5400   18.9140  -26.8250 C   0  0  0  0  0  0  0  0  0  0  0  0
   -0.4330   18.5840  -27.5840 C   0  0  0  0  0  0  0  0  0  0  0  0
   -0.1260   17.2980  -27.8910 F   0  0  0  0  0  0  0  0  0  0  0  0
    0.4260   19.5660  -28.0700 C   0  0  0  0  0  0  0  0  0  0  0  0
    0.1350   20.8840  -27.7700 C   0  0  0  0  0  0  0  0  0  0  0  0
   -1.6190   24.3070  -28.5090 C   0  0  0  0  0  0  0  0  0  0  0  0
   -0.4350   24.7230  -28.3830 O   0  0  0  0  0  0  0  0  0  0  0  0
   -2.3690   24.9100  -29.4470 N   0  0  0  0  0  0  0  0  0  0  0  0
   -8.6496   23.2039  -31.0042 H   0  0  0  0  0  0  0  0  0  0  0  0
   -8.0582   23.9688  -32.5180 H   0  0  0  0  0  0  0  0  0  0  0  0
   -8.5523   22.2418  -32.5180 H   0  0  0  0  0  0  0  0  0  0  0  0
   -6.1723   20.6377  -31.6356 H   0  0  0  0  0  0  0  0  0  0  0  0
   -7.2497   21.1665  -32.9721 H   0  0  0  0  0  0  0  0  0  0  0  0
   -5.5179   21.6437  -32.9721 H   0  0  0  0  0  0  0  0  0  0  0  0
   -4.8532   23.3368  -32.1608 H   0  0  0  0  0  0  0  0  0  0  0  0
   -6.2716   24.3061  -32.7453 H   0  0  0  0  0  0  0  0  0  0  0  0
   -6.3000   25.5853  -30.9328 H   0  0  0  0  0  0  0  0  0  0  0  0
   -6.0227   24.1579  -29.8352 H   0  0  0  0  0  0  0  0  0  0  0  0
   -5.1806   23.1409  -28.9734 H   0  0  0  0  0  0  0  0  0  0  0  0
   -3.7269   22.0912  -27.2747 H   0  0  0  0  0  0  0  0  0  0  0  0
   -0.2706   23.2184  -26.6712 H   0  0  0  0  0  0  0  0  0  0  0  0
   -1.7727   22.7236  -25.7677 H   0  0  0  0  0  0  0  0  0  0  0  0
   -2.6638   20.5191  -25.9541 H   0  0  0  0  0  0  0  0  0  0  0  0
   -2.2131   18.1323  -26.4430 H   0  0  0  0  0  0  0  0  0  0  0  0
    1.3073   19.3020  -28.6729 H   0  0  0  0  0  0  0  0  0  0  0  0
    0.8062   21.6686  -28.1494 H   0  0  0  0  0  0  0  0  0  0  0  0
   -1.9900   25.6720  -30.0290 H   0  0  0  0  0  0  0  0  0  0  0  0
  1  2  1  0
  2  3  1  0
  2  4  1  0
  4  5  1  0
  5  6  1  0
  6  7  2  0
  7  8  1  0
  8  9  2  0
  9 10  1  0
 10 11  1  0
 11 12  1  0
 12 13  2  0
 13 14  1  0
 14 15  2  0
 15 16  1  0
 15 17  1  0
 17 18  2  0
 10 19  1  0
 19 20  2  0
 19 21  1  0
 21  7  1  0
 18 12  1  0
  1 22  1  0
  1 23  1  0
  1 24  1  0
  3 25  1  0
  3 26  1  0
  3 27  1  0
  4 28  1  0
  4 29  1  0
  5 30  1  0
  5 31  1  0
  8 32  1  0
  9 33  1  0
 11 34  1  0
 11 35  1  0
 13 36  1  0
 14 37  1  0
 17 38  1  0
 18 39  1  0
 21 40  1  0
M  END
>  <smiles>  (49) 
CN(C)CCN=c1ccn(Cc2ccc(F)cc2)c(=O)[nH]1

>  <score_type>  (49) 
oracle

>  <origin>  (49) 
adgpu

>  <m_score__min__energy>  (49) 
-7.3300000000000001

>  <m_primary>  (49) 
energy

$$$$
