0:0
     RDKit          3D

 41 43  0  0  0  0  0  0  0  0999 V2000
   -5.7580   26.2040  -30.8380 O   0  0  0  0  0  0  0  0  0  0  0  0
   -5.0400   25.1700  -30.8390 C   0  0  0  0  0  0  0  0  0  0  0  0
   -3.6740   25.2820  -30.4210 N   0  0  0  0  0  0  0  0  0  0  0  0
   -3.0480   24.5430  -29.3600 C   0  0  0  0  0  0  0  0  0  0  0  0
   -3.6090   23.3520  -28.8630 C   0  0  0  0  0  0  0  0  0  0  0  0
   -2.9700   22.6450  -27.8400 C   0  0  0  0  0  0  0  0  0  0  0  0
   -1.7620   23.1100  -27.3170 C   0  0  0  0  0  0  0  0  0  0  0  0
   -1.1850   24.2790  -27.8210 C   0  0  0  0  0  0  0  0  0  0  0  0
   -1.8210   24.9920  -28.8430 C   0  0  0  0  0  0  0  0  0  0  0  0
   -1.2360   26.1500  -29.3390 O   0  0  0  0  0  0  0  0  0  0  0  0
   -5.6420   23.8690  -31.2170 C   0  0  0  0  0  0  0  0  0  0  0  0
   -6.9420   23.5440  -30.7940 C   0  0  0  0  0  0  0  0  0  0  0  0
   -7.5160   22.3190  -31.1460 C   0  0  0  0  0  0  0  0  0  0  0  0
   -6.7940   21.3960  -31.9120 C   0  0  0  0  0  0  0  0  0  0  0  0
   -7.5070   19.8480  -32.3570 S   0  0  0  0  0  0  0  0  0  0  0  0
   -8.4860   20.0710  -33.4750 O   0  0  0  0  0  0  0  0  0  0  0  0
   -8.2300   19.2600  -31.1770 O   0  0  0  0  0  0  0  0  0  0  0  0
   -6.2500   18.7490  -32.8740 N   0  0  0  0  0  0  0  0  0  0  0  0
   -6.5270   17.3680  -32.4150 C   0  0  0  0  0  0  0  0  0  0  0  0
   -6.9210   16.4340  -33.5720 C   0  0  0  0  0  0  0  0  0  0  0  0
   -5.9280   16.3670  -34.5820 O   0  0  0  0  0  0  0  0  0  0  0  0
   -5.3160   17.6200  -34.8700 C   0  0  0  0  0  0  0  0  0  0  0  0
   -6.0730   18.8480  -34.3340 C   0  0  0  0  0  0  0  0  0  0  0  0
   -5.4940   21.7090  -32.3270 C   0  0  0  0  0  0  0  0  0  0  0  0
   -4.9190   22.9330  -31.9770 C   0  0  0  0  0  0  0  0  0  0  0  0
   -4.5543   22.9757  -29.2811 H   0  0  0  0  0  0  0  0  0  0  0  0
   -3.4196   21.7213  -27.4468 H   0  0  0  0  0  0  0  0  0  0  0  0
   -1.2639   22.5560  -26.5077 H   0  0  0  0  0  0  0  0  0  0  0  0
   -0.2289   24.6391  -27.4133 H   0  0  0  0  0  0  0  0  0  0  0  0
   -7.5118   24.2584  -30.1817 H   0  0  0  0  0  0  0  0  0  0  0  0
   -8.5388   22.0793  -30.8199 H   0  0  0  0  0  0  0  0  0  0  0  0
   -5.6237   16.9688  -31.9305 H   0  0  0  0  0  0  0  0  0  0  0  0
   -7.3742   17.4107  -31.7147 H   0  0  0  0  0  0  0  0  0  0  0  0
   -7.0824   15.4232  -33.1692 H   0  0  0  0  0  0  0  0  0  0  0  0
   -7.8351   16.8393  -34.0304 H   0  0  0  0  0  0  0  0  0  0  0  0
   -4.3092   17.6187  -34.4268 H   0  0  0  0  0  0  0  0  0  0  0  0
   -5.3086   17.7156  -35.9658 H   0  0  0  0  0  0  0  0  0  0  0  0
   -5.4998   19.7572  -34.5683 H   0  0  0  0  0  0  0  0  0  0  0  0
   -7.0636   18.8908  -34.8102 H   0  0  0  0  0  0  0  0  0  0  0  0
   -4.9232   20.9883  -32.9310 H   0  0  0  0  0  0  0  0  0  0  0  0
   -3.8931   23.1662  -32.2983 H   0  0  0  0  0  0  0  0  0  0  0  0
  1  2  2  0
  2  3  1  0
  3  4  1  0
  4  5  2  0
  5  6  1  0
  6  7  2  0
  7  8  1  0
  8  9  2  0
  9 10  1  0
  2 11  1  0
 11 12  2  0
 12 13  1  0
 13 14  2  0
 14 15  1  0
 15 16  2  0
 15 17  2  0
 15 18  1  0
 18 19  1  0
 19 20  1  0
 20 21  1  0
 21 22  1  0
 22 23  1  0
 14 24  1  0
 24 25  2  0
  9  4  1  0
 25 11  1  0
 23 18  1  0
  5 26  1  0
  6 27  1  0
  7 28  1  0
  8 29  1  0
 12 30  1  0
 13 31  1  0
 19 32  1  0
 19 33  1  0
 20 34  1  0
 20 35  1  0
 22 36  1  0
 22 37  1  0
 23 38  1  0
 23 39  1  0
 24 40  1  0
 25 41  1  0
M  CHG  2   3  -1  10  -1
M  END
>  <UniqueID>  (1) 
1

>  <SMILES>  (1) 
O=C([N-]c1ccccc1[O-])c1ccc(S(=O)(=O)N2CCOCC2)cc1

>  <Energy>  (1) 
62.052424638521174

>  <Genealogy>  (1) 
O=C([N-]c1ccccc1[O-])c1ccc(S(=O)(=O)N2CCOCC2)cc1 (protonated)
O=C([N-]c1ccccc1[O-])c1ccc(S(=O)(=O)N2CCOCC2)cc1 (3D coordinates assigned)
O=C([N-]c1ccccc1[O-])c1ccc(S(=O)(=O)N2CCOCC2)cc1 (nonaromatic ring conformer: 62.052424638521174 kcal/mol)

>  <smiles>  (1) 
O=C(Nc1ccccc1O)c1ccc(S(=O)(=O)N2CCOCC2)cc1

>  <score_type>  (1) 
oracle

>  <origin>  (1) 
adgpu

>  <m_score__min__energy>  (1) 
-14.5

>  <m_primary>  (1) 
energy

$$$$
1:0
     RDKit          3D

 59 62  0  0  0  0  0  0  0  0999 V2000
    2.0600   27.9360  -22.9780 C   0  0  0  0  0  0  0  0  0  0  0  0
    0.7210   27.9200  -23.5940 N   0  0  0  0  0  0  0  0  0  0  0  0
   -0.1080   26.8130  -23.0410 C   0  0  0  0  0  0  0  0  0  0  0  0
   -0.1660   25.6050  -23.9860 C   0  0  0  0  0  0  0  0  0  0  0  0
   -0.7740   25.9740  -25.2810 N   0  0  0  0  0  0  0  0  0  0  0  0
   -0.3420   24.7960  -26.4990 S   0  0  0  0  0  0  0  0  0  0  0  0
    0.7590   25.3450  -27.3640 O   0  0  0  0  0  0  0  0  0  0  0  0
    0.1470   23.5340  -25.8440 O   0  0  0  0  0  0  0  0  0  0  0  0
   -1.7360   24.4400  -27.5170 C   0  0  0  0  0  0  0  0  0  0  0  0
   -3.0010   24.2780  -26.9380 C   0  0  0  0  0  0  0  0  0  0  0  0
   -4.1080   23.9770  -27.7370 C   0  0  0  0  0  0  0  0  0  0  0  0
   -3.9660   23.8470  -29.1260 C   0  0  0  0  0  0  0  0  0  0  0  0
   -5.1110   23.5030  -29.9240 N   0  0  0  0  0  0  0  0  0  0  0  0
   -5.8340   24.4340  -30.7560 C   0  0  0  0  0  0  0  0  0  0  0  0
   -5.7560   26.0500  -30.4790 S   0  0  0  0  0  0  0  0  0  0  0  0
   -6.6760   23.9630  -31.8200 N   0  0  0  0  0  0  0  0  0  0  0  0
   -7.1880   22.6260  -31.8990 C   0  0  0  0  0  0  0  0  0  0  0  0
   -8.5690   22.4200  -31.8230 C   0  0  0  0  0  0  0  0  0  0  0  0
   -9.0910   21.1290  -31.8640 C   0  0  0  0  0  0  0  0  0  0  0  0
   -8.2430   20.0240  -31.9790 C   0  0  0  0  0  0  0  0  0  0  0  0
   -8.9840   18.4260  -31.9800 Cl  0  0  0  0  0  0  0  0  0  0  0  0
   -6.8430   20.2100  -32.0540 C   0  0  0  0  0  0  0  0  0  0  0  0
   -5.7510   18.8140  -32.1810 S   0  0  0  0  0  0  0  0  0  0  0  0
   -4.3300   19.2590  -31.9670 O   0  0  0  0  0  0  0  0  0  0  0  0
   -6.0720   17.7870  -31.1310 O   0  0  0  0  0  0  0  0  0  0  0  0
   -5.9120   18.1190  -33.8260 C   0  0  0  0  0  0  0  0  0  0  0  0
   -5.0220   16.9230  -34.1190 C   0  0  0  0  0  0  0  0  0  0  0  0
   -6.5080   16.7220  -33.8600 C   0  0  0  0  0  0  0  0  0  0  0  0
   -6.3210   21.5200  -31.9790 C   0  0  0  0  0  0  0  0  0  0  0  0
   -4.9450   21.7330  -31.9550 O   0  0  0  0  0  0  0  0  0  0  0  0
   -2.6890   23.9740  -29.7000 C   0  0  0  0  0  0  0  0  0  0  0  0
   -1.5820   24.2760  -28.9010 C   0  0  0  0  0  0  0  0  0  0  0  0
   -0.4400   27.3470  -25.7300 C   0  0  0  0  0  0  0  0  0  0  0  0
    0.8430   27.8810  -25.0730 C   0  0  0  0  0  0  0  0  0  0  0  0
    1.9597   27.9348  -21.8826 H   0  0  0  0  0  0  0  0  0  0  0  0
    2.6205   27.0445  -23.2959 H   0  0  0  0  0  0  0  0  0  0  0  0
    2.5990   28.8407  -23.2959 H   0  0  0  0  0  0  0  0  0  0  0  0
    0.2570   28.8240  -23.3360 H   0  0  0  0  0  0  0  0  0  0  0  0
    0.3240   26.4920  -22.0817 H   0  0  0  0  0  0  0  0  0  0  0  0
   -1.1331   27.1905  -22.9118 H   0  0  0  0  0  0  0  0  0  0  0  0
    0.8553   25.2355  -24.1605 H   0  0  0  0  0  0  0  0  0  0  0  0
   -0.7840   24.8241  -23.5187 H   0  0  0  0  0  0  0  0  0  0  0  0
   -3.1239   24.3880  -25.8504 H   0  0  0  0  0  0  0  0  0  0  0  0
   -5.0962   23.8413  -27.2734 H   0  0  0  0  0  0  0  0  0  0  0  0
   -5.4320   22.5120  -29.8770 H   0  0  0  0  0  0  0  0  0  0  0  0
   -6.8480   24.6010  -32.6300 H   0  0  0  0  0  0  0  0  0  0  0  0
   -9.2466   23.2816  -31.7304 H   0  0  0  0  0  0  0  0  0  0  0  0
  -10.1790   20.9782  -31.8054 H   0  0  0  0  0  0  0  0  0  0  0  0
   -6.1169   19.0730  -34.3338 H   0  0  0  0  0  0  0  0  0  0  0  0
   -4.6148   16.7748  -35.1300 H   0  0  0  0  0  0  0  0  0  0  0  0
   -4.0950   16.5183  -33.6866 H   0  0  0  0  0  0  0  0  0  0  0  0
   -7.1752   16.4285  -34.6838 H   0  0  0  0  0  0  0  0  0  0  0  0
   -7.1007   16.1117  -33.1627 H   0  0  0  0  0  0  0  0  0  0  0  0
   -2.5600   23.8350  -30.7835 H   0  0  0  0  0  0  0  0  0  0  0  0
   -0.5880   24.3852  -29.3592 H   0  0  0  0  0  0  0  0  0  0  0  0
   -0.3011   27.3381  -26.8212 H   0  0  0  0  0  0  0  0  0  0  0  0
   -1.2685   28.0078  -25.4352 H   0  0  0  0  0  0  0  0  0  0  0  0
    1.6835   27.2256  -25.3452 H   0  0  0  0  0  0  0  0  0  0  0  0
    1.0139   28.9065  -25.4325 H   0  0  0  0  0  0  0  0  0  0  0  0
  1  2  1  0
  2  3  1  0
  3  4  1  0
  4  5  1  0
  5  6  1  0
  6  7  2  0
  6  8  2  0
  6  9  1  0
  9 10  2  0
 10 11  1  0
 11 12  2  0
 12 13  1  0
 13 14  1  0
 14 15  2  0
 14 16  1  0
 16 17  1  0
 17 18  2  0
 18 19  1  0
 19 20  2  0
 20 21  1  0
 20 22  1  0
 22 23  1  0
 23 24  2  0
 23 25  2  0
 23 26  1  0
 26 27  1  0
 27 28  1  0
 22 29  2  0
 29 30  1  0
 12 31  1  0
 31 32  2  0
  5 33  1  0
 33 34  1  0
 34  2  1  0
 32  9  1  0
 29 17  1  0
 28 26  1  0
  1 35  1  0
  1 36  1  0
  1 37  1  0
  2 38  1  0
  3 39  1  0
  3 40  1  0
  4 41  1  0
  4 42  1  0
 10 43  1  0
 11 44  1  0
 13 45  1  0
 16 46  1  0
 18 47  1  0
 19 48  1  0
 26 49  1  0
 27 50  1  0
 27 51  1  0
 28 52  1  0
 28 53  1  0
 31 54  1  0
 32 55  1  0
 33 56  1  0
 33 57  1  0
 34 58  1  0
 34 59  1  0
M  CHG  2   2   1  30  -1
M  END
>  <UniqueID>  (2) 
2

>  <SMILES>  (2) 
C[NH+]1CCN(S(=O)(=O)c2ccc(NC(=S)Nc3ccc(Cl)c(S(=O)(=O)C4CC4)c3[O-])cc2)CC1

>  <Energy>  (2) 
348.66088803340614

>  <Genealogy>  (2) 
C[NH+]1CCN(S(=O)(=O)c2ccc(NC(=S)Nc3ccc(Cl)c(S(=O)(=O)C4CC4)c3[O-])cc2)CC1 (protonated)
C[NH+]1CCN(S(=O)(=O)c2ccc(NC(=S)Nc3ccc(Cl)c(S(=O)(=O)C4CC4)c3[O-])cc2)CC1 (3D coordinates assigned)
C[NH+]1CCN(S(=O)(=O)c2ccc(NC(=S)Nc3ccc(Cl)c(S(=O)(=O)C4CC4)c3[O-])cc2)CC1 (nonaromatic ring conformer: 348.66088803340614 kcal/mol)

>  <smiles>  (2) 
CN1CCN(S(=O)(=O)c2ccc(NC(=S)Nc3ccc(Cl)c(S(=O)(=O)C4CC4)c3O)cc2)CC1

>  <score_type>  (2) 
oracle

>  <origin>  (2) 
adgpu

>  <m_score__min__energy>  (2) 
-11.58

>  <m_primary>  (2) 
energy

$$$$
2:0
     RDKit          3D

 58 61  0  0  0  0  0  0  0  0999 V2000
   -9.3980   18.1280  -31.6040 C   0  0  0  0  0  0  0  0  0  0  0  0
   -8.6420   19.4310  -31.6490 C   0  0  0  0  0  0  0  0  0  0  0  0
   -9.3760   20.6250  -31.5370 C   0  0  0  0  0  0  0  0  0  0  0  0
   -8.7390   21.8640  -31.5610 C   0  0  0  0  0  0  0  0  0  0  0  0
   -7.3480   21.9370  -31.6740 C   0  0  0  0  0  0  0  0  0  0  0  0
   -6.5570   23.5090  -31.7590 S   0  0  0  0  0  0  0  0  0  0  0  0
   -6.9470   24.3610  -30.5850 O   0  0  0  0  0  0  0  0  0  0  0  0
   -6.9780   24.1910  -33.0270 O   0  0  0  0  0  0  0  0  0  0  0  0
   -4.8340   23.3110  -31.7630 N   0  0  0  0  0  0  0  0  0  0  0  0
   -4.0390   23.2400  -30.5620 C   0  0  0  0  0  0  0  0  0  0  0  0
   -3.7240   22.0050  -29.9650 C   0  0  0  0  0  0  0  0  0  0  0  0
   -2.9210   21.9400  -28.8140 C   0  0  0  0  0  0  0  0  0  0  0  0
   -2.4120   23.1330  -28.2520 C   0  0  0  0  0  0  0  0  0  0  0  0
   -2.7560   24.3660  -28.8270 C   0  0  0  0  0  0  0  0  0  0  0  0
   -3.5570   24.4210  -29.9730 C   0  0  0  0  0  0  0  0  0  0  0  0
   -3.8580   25.6600  -30.5300 O   0  0  0  0  0  0  0  0  0  0  0  0
   -1.5980   23.1220  -26.9770 C   0  0  0  0  0  0  0  0  0  0  0  0
   -0.9670   21.7550  -26.6910 C   0  0  0  0  0  0  0  0  0  0  0  0
   -2.0120   20.6460  -26.8340 C   0  0  0  0  0  0  0  0  0  0  0  0
   -2.5260   20.5830  -28.2750 C   0  0  0  0  0  0  0  0  0  0  0  0
   -6.5990   20.7580  -31.7660 C   0  0  0  0  0  0  0  0  0  0  0  0
   -7.2280   19.4990  -31.7890 C   0  0  0  0  0  0  0  0  0  0  0  0
   -6.1730   18.0760  -32.0060 S   0  0  0  0  0  0  0  0  0  0  0  0
   -6.7280   17.1160  -33.0190 O   0  0  0  0  0  0  0  0  0  0  0  0
   -6.1140   17.3510  -30.6890 O   0  0  0  0  0  0  0  0  0  0  0  0
   -4.5580   18.5120  -32.5330 N   0  0  0  0  0  0  0  0  0  0  0  0
   -3.8230   17.3390  -33.0560 C   0  0  0  0  0  0  0  0  0  0  0  0
   -2.5210   17.7410  -33.7860 C   0  0  0  0  0  0  0  0  0  0  0  0
   -2.0530   19.1450  -33.3920 C   0  0  0  0  0  0  0  0  0  0  0  0
   -3.1500   20.1960  -33.6460 C   0  0  0  0  0  0  0  0  0  0  0  0
   -4.5700   19.6180  -33.5090 C   0  0  0  0  0  0  0  0  0  0  0  0
   -9.5664   17.8378  -30.5564 H   0  0  0  0  0  0  0  0  0  0  0  0
  -10.3666   18.2483  -32.1114 H   0  0  0  0  0  0  0  0  0  0  0  0
   -8.8128   17.3469  -32.1114 H   0  0  0  0  0  0  0  0  0  0  0  0
  -10.4698   20.5803  -31.4288 H   0  0  0  0  0  0  0  0  0  0  0  0
   -9.3327   22.7873  -31.4908 H   0  0  0  0  0  0  0  0  0  0  0  0
   -4.3870   23.1170  -32.6890 H   0  0  0  0  0  0  0  0  0  0  0  0
   -4.1128   21.0756  -30.4067 H   0  0  0  0  0  0  0  0  0  0  0  0
   -2.3921   25.2991  -28.3720 H   0  0  0  0  0  0  0  0  0  0  0  0
   -0.7952   23.8688  -27.0654 H   0  0  0  0  0  0  0  0  0  0  0  0
   -2.2794   23.3544  -26.1453 H   0  0  0  0  0  0  0  0  0  0  0  0
   -0.1490   21.5767  -27.4045 H   0  0  0  0  0  0  0  0  0  0  0  0
   -0.5782   21.7491  -25.6620 H   0  0  0  0  0  0  0  0  0  0  0  0
   -1.5556   19.6809  -26.5690 H   0  0  0  0  0  0  0  0  0  0  0  0
   -2.8560   20.8607  -26.1620 H   0  0  0  0  0  0  0  0  0  0  0  0
   -1.7324   20.1680  -28.9138 H   0  0  0  0  0  0  0  0  0  0  0  0
   -3.4251   19.9493  -28.2795 H   0  0  0  0  0  0  0  0  0  0  0  0
   -5.5019   20.8163  -31.8212 H   0  0  0  0  0  0  0  0  0  0  0  0
   -3.5674   16.6778  -32.2149 H   0  0  0  0  0  0  0  0  0  0  0  0
   -4.4735   16.8307  -33.7829 H   0  0  0  0  0  0  0  0  0  0  0  0
   -1.7322   17.0185  -33.5293 H   0  0  0  0  0  0  0  0  0  0  0  0
   -2.7236   17.7411  -34.8672 H   0  0  0  0  0  0  0  0  0  0  0  0
   -1.7945   19.1490  -32.3228 H   0  0  0  0  0  0  0  0  0  0  0  0
   -1.1780   19.4030  -34.0066 H   0  0  0  0  0  0  0  0  0  0  0  0
   -3.0306   21.0122  -32.9182 H   0  0  0  0  0  0  0  0  0  0  0  0
   -3.0350   20.5528  -34.6801 H   0  0  0  0  0  0  0  0  0  0  0  0
   -5.2548   20.4059  -33.1621 H   0  0  0  0  0  0  0  0  0  0  0  0
   -4.9089   19.2419  -34.4856 H   0  0  0  0  0  0  0  0  0  0  0  0
  1  2  1  0
  2  3  2  0
  3  4  1  0
  4  5  2  0
  5  6  1  0
  6  7  2  0
  6  8  2  0
  6  9  1  0
  9 10  1  0
 10 11  2  0
 11 12  1  0
 12 13  2  0
 13 14  1  0
 14 15  2  0
 15 16  1  0
 13 17  1  0
 17 18  1  0
 18 19  1  0
 19 20  1  0
  5 21  1  0
 21 22  2  0
 22 23  1  0
 23 24  2  0
 23 25  2  0
 23 26  1  0
 26 27  1  0
 27 28  1  0
 28 29  1  0
 29 30  1  0
 30 31  1  0
 22  2  1  0
 31 26  1  0
 15 10  1  0
 20 12  1  0
  1 32  1  0
  1 33  1  0
  1 34  1  0
  3 35  1  0
  4 36  1  0
  9 37  1  0
 11 38  1  0
 14 39  1  0
 17 40  1  0
 17 41  1  0
 18 42  1  0
 18 43  1  0
 19 44  1  0
 19 45  1  0
 20 46  1  0
 20 47  1  0
 21 48  1  0
 27 49  1  0
 27 50  1  0
 28 51  1  0
 28 52  1  0
 29 53  1  0
 29 54  1  0
 30 55  1  0
 30 56  1  0
 31 57  1  0
 31 58  1  0
M  CHG  1  16  -1
M  END
>  <UniqueID>  (3) 
3

>  <SMILES>  (3) 
Cc1ccc(S(=O)(=O)Nc2cc3c(cc2[O-])CCCC3)cc1S(=O)(=O)N1CCCCC1

>  <Energy>  (3) 
69.00877295832044

>  <Genealogy>  (3) 
Cc1ccc(S(=O)(=O)Nc2cc3c(cc2[O-])CCCC3)cc1S(=O)(=O)N1CCCCC1 (protonated)
Cc1ccc(S(=O)(=O)Nc2cc3c(cc2[O-])CCCC3)cc1S(=O)(=O)N1CCCCC1 (3D coordinates assigned)
Cc1ccc(S(=O)(=O)Nc2cc3c(cc2[O-])CCCC3)cc1S(=O)(=O)N1CCCCC1 (nonaromatic ring conformer: 69.00877295832044 kcal/mol)

>  <smiles>  (3) 
Cc1ccc(S(=O)(=O)Nc2cc3c(cc2O)CCCC3)cc1S(=O)(=O)N1CCCCC1

>  <score_type>  (3) 
oracle

>  <origin>  (3) 
adgpu

>  <m_score__min__energy>  (3) 
-14.84

>  <m_primary>  (3) 
energy

$$$$
3:0
     RDKit          3D

 50 53  0  0  0  0  0  0  0  0999 V2000
   -8.4820   18.4530  -31.7770 O   0  0  0  0  0  0  0  0  0  0  0  0
   -7.6990   19.0280  -32.5760 C   0  0  0  0  0  0  0  0  0  0  0  0
   -7.9360   20.4050  -32.8980 N   0  0  0  0  0  0  0  0  0  0  0  0
   -7.3030   21.5500  -32.3110 C   0  0  0  0  0  0  0  0  0  0  0  0
   -8.0640   22.4120  -31.5110 C   0  0  0  0  0  0  0  0  0  0  0  0
   -7.4780   23.5360  -30.9210 C   0  0  0  0  0  0  0  0  0  0  0  0
   -6.1160   23.8100  -31.1260 C   0  0  0  0  0  0  0  0  0  0  0  0
   -5.3360   25.1780  -30.3340 S   0  0  0  0  0  0  0  0  0  0  0  0
   -5.7450   26.4410  -31.0380 O   0  0  0  0  0  0  0  0  0  0  0  0
   -5.7600   25.2870  -28.8930 O   0  0  0  0  0  0  0  0  0  0  0  0
   -3.6100   25.0120  -30.4530 N   0  0  0  0  0  0  0  0  0  0  0  0
   -2.7810   24.1730  -29.6370 C   0  0  0  0  0  0  0  0  0  0  0  0
   -3.1090   22.8290  -29.3720 C   0  0  0  0  0  0  0  0  0  0  0  0
   -2.2960   22.0370  -28.5460 C   0  0  0  0  0  0  0  0  0  0  0  0
   -1.1160   22.5920  -27.9950 C   0  0  0  0  0  0  0  0  0  0  0  0
   -0.7970   23.9360  -28.2570 C   0  0  0  0  0  0  0  0  0  0  0  0
   -1.6180   24.7170  -29.0730 C   0  0  0  0  0  0  0  0  0  0  0  0
   -1.2710   26.0410  -29.3260 O   0  0  0  0  0  0  0  0  0  0  0  0
   -0.2530   21.8110  -27.0300 C   0  0  0  0  0  0  0  0  0  0  0  0
   -0.4780   20.2960  -27.1210 C   0  0  0  0  0  0  0  0  0  0  0  0
   -1.9730   19.9760  -27.1160 C   0  0  0  0  0  0  0  0  0  0  0  0
   -2.6500   20.5790  -28.3490 C   0  0  0  0  0  0  0  0  0  0  0  0
   -5.3580   22.9680  -31.9510 C   0  0  0  0  0  0  0  0  0  0  0  0
   -5.9520   21.8580  -32.5580 C   0  0  0  0  0  0  0  0  0  0  0  0
   -6.5380   18.2840  -33.1120 C   0  0  0  0  0  0  0  0  0  0  0  0
   -6.1010   18.5120  -34.4290 C   0  0  0  0  0  0  0  0  0  0  0  0
   -5.0210   17.7940  -34.9510 C   0  0  0  0  0  0  0  0  0  0  0  0
   -4.3670   16.8420  -34.1680 C   0  0  0  0  0  0  0  0  0  0  0  0
   -4.7850   16.6110  -32.8550 C   0  0  0  0  0  0  0  0  0  0  0  0
   -5.8660   17.3310  -32.3190 C   0  0  0  0  0  0  0  0  0  0  0  0
   -6.2820   17.0840  -31.0110 O   0  0  0  0  0  0  0  0  0  0  0  0
   -9.1312   22.2029  -31.3456 H   0  0  0  0  0  0  0  0  0  0  0  0
   -8.0849   24.2068  -30.2952 H   0  0  0  0  0  0  0  0  0  0  0  0
   -4.0152   22.3939  -29.8187 H   0  0  0  0  0  0  0  0  0  0  0  0
    0.1086   24.3768  -27.8147 H   0  0  0  0  0  0  0  0  0  0  0  0
    0.8031   22.0232  -27.2526 H   0  0  0  0  0  0  0  0  0  0  0  0
   -0.5275   22.1254  -26.0122 H   0  0  0  0  0  0  0  0  0  0  0  0
   -0.0301   19.9187  -28.0521 H   0  0  0  0  0  0  0  0  0  0  0  0
   -0.0077   19.8134  -26.2515 H   0  0  0  0  0  0  0  0  0  0  0  0
   -2.1104   18.8846  -27.1240 H   0  0  0  0  0  0  0  0  0  0  0  0
   -2.4278   20.4067  -26.2118 H   0  0  0  0  0  0  0  0  0  0  0  0
   -2.3318   20.0149  -29.2381 H   0  0  0  0  0  0  0  0  0  0  0  0
   -3.7379   20.5151  -28.1993 H   0  0  0  0  0  0  0  0  0  0  0  0
   -4.2924   23.1814  -32.1213 H   0  0  0  0  0  0  0  0  0  0  0  0
   -5.3604   21.2216  -33.2325 H   0  0  0  0  0  0  0  0  0  0  0  0
   -6.6123   19.2602  -35.0526 H   0  0  0  0  0  0  0  0  0  0  0  0
   -4.6858   17.9801  -35.9820 H   0  0  0  0  0  0  0  0  0  0  0  0
   -3.5224   16.2734  -34.5845 H   0  0  0  0  0  0  0  0  0  0  0  0
   -4.2658   15.8625  -32.2384 H   0  0  0  0  0  0  0  0  0  0  0  0
   -7.0970   17.5400  -30.6220 H   0  0  0  0  0  0  0  0  0  0  0  0
  1  2  2  0
  2  3  1  0
  3  4  1  0
  4  5  2  0
  5  6  1  0
  6  7  2  0
  7  8  1  0
  8  9  2  0
  8 10  2  0
  8 11  1  0
 11 12  1  0
 12 13  2  0
 13 14  1  0
 14 15  2  0
 15 16  1  0
 16 17  2  0
 17 18  1  0
 15 19  1  0
 19 20  1  0
 20 21  1  0
 21 22  1  0
  7 23  1  0
 23 24  2  0
  2 25  1  0
 25 26  2  0
 26 27  1  0
 27 28  2  0
 28 29  1  0
 29 30  2  0
 30 31  1  0
 24  4  1  0
 30 25  1  0
 17 12  1  0
 22 14  1  0
  5 32  1  0
  6 33  1  0
 13 34  1  0
 16 35  1  0
 19 36  1  0
 19 37  1  0
 20 38  1  0
 20 39  1  0
 21 40  1  0
 21 41  1  0
 22 42  1  0
 22 43  1  0
 23 44  1  0
 24 45  1  0
 26 46  1  0
 27 47  1  0
 28 48  1  0
 29 49  1  0
 31 50  1  0
M  CHG  3   3  -1  11  -1  18  -1
M  END
>  <UniqueID>  (4) 
4

>  <SMILES>  (4) 
O=C([N-]c1ccc(S(=O)(=O)[N-]c2cc3c(cc2[O-])CCCC3)cc1)c1ccccc1O

>  <Energy>  (4) 
65.25604943235118

>  <Genealogy>  (4) 
O=C([N-]c1ccc(S(=O)(=O)[N-]c2cc3c(cc2[O-])CCCC3)cc1)c1ccccc1O (protonated)
O=C([N-]c1ccc(S(=O)(=O)[N-]c2cc3c(cc2[O-])CCCC3)cc1)c1ccccc1O (3D coordinates assigned)
O=C([N-]c1ccc(S(=O)(=O)[N-]c2cc3c(cc2[O-])CCCC3)cc1)c1ccccc1O (nonaromatic ring conformer: 65.25604943235118 kcal/mol)

>  <smiles>  (4) 
O=C(Nc1ccc(S(=O)(=O)Nc2cc3c(cc2O)CCCC3)cc1)c1ccccc1O

>  <score_type>  (4) 
oracle

>  <origin>  (4) 
adgpu

>  <m_score__min__energy>  (4) 
-15.220000000000001

>  <m_primary>  (4) 
energy

$$$$
4:0
     RDKit          3D

 49 52  0  0  0  0  0  0  0  0999 V2000
   -5.5060   26.4280  -30.4630 O   0  0  0  0  0  0  0  0  0  0  0  0
   -4.9570   25.3140  -30.6820 C   0  0  0  0  0  0  0  0  0  0  0  0
   -3.5470   25.1640  -30.4770 N   0  0  0  0  0  0  0  0  0  0  0  0
   -2.9750   24.5290  -29.2990 C   0  0  0  0  0  0  0  0  0  0  0  0
   -2.4020   23.2010  -29.6820 C   0  0  0  0  0  0  0  0  0  0  0  0
   -1.7500   22.3360  -28.8050 C   0  0  0  0  0  0  0  0  0  0  0  0
   -1.2750   21.3180  -29.6020 C   0  0  0  0  0  0  0  0  0  0  0  0
   -0.5250   20.1890  -29.2780 C   0  0  0  0  0  0  0  0  0  0  0  0
   -0.1530   19.3270  -30.3250 C   0  0  0  0  0  0  0  0  0  0  0  0
   -0.5310   19.6130  -31.6560 C   0  0  0  0  0  0  0  0  0  0  0  0
   -1.2840   20.7650  -31.9520 C   0  0  0  0  0  0  0  0  0  0  0  0
   -1.6410   21.5980  -30.8930 C   0  0  0  0  0  0  0  0  0  0  0  0
   -2.3280   22.7510  -30.9560 N   0  0  0  0  0  0  0  0  0  0  0  0
   -5.7710   24.1520  -31.1040 C   0  0  0  0  0  0  0  0  0  0  0  0
   -7.1600   24.1380  -30.8990 C   0  0  0  0  0  0  0  0  0  0  0  0
   -7.9110   23.0090  -31.2250 C   0  0  0  0  0  0  0  0  0  0  0  0
   -7.2870   21.8650  -31.7410 C   0  0  0  0  0  0  0  0  0  0  0  0
   -8.0470   20.7320  -32.0270 O   0  0  0  0  0  0  0  0  0  0  0  0
   -5.8940   21.8660  -31.9530 C   0  0  0  0  0  0  0  0  0  0  0  0
   -5.0420   20.4240  -32.5350 S   0  0  0  0  0  0  0  0  0  0  0  0
   -4.3250   19.7810  -31.3810 O   0  0  0  0  0  0  0  0  0  0  0  0
   -4.0090   20.8110  -33.5560 O   0  0  0  0  0  0  0  0  0  0  0  0
   -6.1480   19.2700  -33.2470 N   0  0  0  0  0  0  0  0  0  0  0  0
   -5.7270   18.8620  -34.6060 C   0  0  0  0  0  0  0  0  0  0  0  0
   -5.1490   17.4360  -34.6320 C   0  0  0  0  0  0  0  0  0  0  0  0
   -6.0600   16.4550  -34.1550 O   0  0  0  0  0  0  0  0  0  0  0  0
   -6.9110   16.9180  -33.1120 C   0  0  0  0  0  0  0  0  0  0  0  0
   -6.3580   18.1270  -32.3400 C   0  0  0  0  0  0  0  0  0  0  0  0
   -5.1520   23.0170  -31.6540 C   0  0  0  0  0  0  0  0  0  0  0  0
   -2.1795   25.1674  -28.8872 H   0  0  0  0  0  0  0  0  0  0  0  0
   -3.7584   24.3872  -28.5399 H   0  0  0  0  0  0  0  0  0  0  0  0
   -1.6391   22.4428  -27.7158 H   0  0  0  0  0  0  0  0  0  0  0  0
   -0.2338   19.9792  -28.2382 H   0  0  0  0  0  0  0  0  0  0  0  0
    0.4361   18.4242  -30.1063 H   0  0  0  0  0  0  0  0  0  0  0  0
   -0.2349   18.9308  -32.4665 H   0  0  0  0  0  0  0  0  0  0  0  0
   -1.5808   21.0000  -32.9848 H   0  0  0  0  0  0  0  0  0  0  0  0
   -2.6980   23.2180  -31.8140 H   0  0  0  0  0  0  0  0  0  0  0  0
   -7.6591   25.0234  -30.4785 H   0  0  0  0  0  0  0  0  0  0  0  0
   -9.0008   23.0164  -31.0761 H   0  0  0  0  0  0  0  0  0  0  0  0
   -7.9380   20.2250  -32.8980 H   0  0  0  0  0  0  0  0  0  0  0  0
   -6.5997   18.9027  -35.2744 H   0  0  0  0  0  0  0  0  0  0  0  0
   -4.9371   19.5526  -34.9364 H   0  0  0  0  0  0  0  0  0  0  0  0
   -4.8781   17.1872  -35.6687 H   0  0  0  0  0  0  0  0  0  0  0  0
   -4.2757   17.4245  -33.9633 H   0  0  0  0  0  0  0  0  0  0  0  0
   -7.8765   17.2035  -33.5551 H   0  0  0  0  0  0  0  0  0  0  0  0
   -7.0022   16.0946  -32.3883 H   0  0  0  0  0  0  0  0  0  0  0  0
   -7.0747   18.4142  -31.5565 H   0  0  0  0  0  0  0  0  0  0  0  0
   -5.3933   17.8494  -31.8902 H   0  0  0  0  0  0  0  0  0  0  0  0
   -4.0702   23.0318  -31.8527 H   0  0  0  0  0  0  0  0  0  0  0  0
  1  2  2  0
  2  3  1  0
  3  4  1  0
  4  5  1  0
  5  6  2  0
  6  7  1  0
  7  8  2  0
  8  9  1  0
  9 10  2  0
 10 11  1  0
 11 12  2  0
 12 13  1  0
  2 14  1  0
 14 15  2  0
 15 16  1  0
 16 17  2  0
 17 18  1  0
 17 19  1  0
 19 20  1  0
 20 21  2  0
 20 22  2  0
 20 23  1  0
 23 24  1  0
 24 25  1  0
 25 26  1  0
 26 27  1  0
 27 28  1  0
 19 29  2  0
 13  5  1  0
 29 14  1  0
 12  7  1  0
 28 23  1  0
  4 30  1  0
  4 31  1  0
  6 32  1  0
  8 33  1  0
  9 34  1  0
 10 35  1  0
 11 36  1  0
 13 37  1  0
 15 38  1  0
 16 39  1  0
 18 40  1  0
 24 41  1  0
 24 42  1  0
 25 43  1  0
 25 44  1  0
 27 45  1  0
 27 46  1  0
 28 47  1  0
 28 48  1  0
 29 49  1  0
M  CHG  1   3  -1
M  END
>  <UniqueID>  (5) 
5

>  <SMILES>  (5) 
O=C([N-]Cc1cc2ccccc2[nH]1)c1ccc(O)c(S(=O)(=O)N2CCOCC2)c1

>  <Energy>  (5) 
94.63613533132288

>  <Genealogy>  (5) 
O=C([N-]Cc1cc2ccccc2[nH]1)c1ccc(O)c(S(=O)(=O)N2CCOCC2)c1 (protonated)
O=C([N-]Cc1cc2ccccc2[nH]1)c1ccc(O)c(S(=O)(=O)N2CCOCC2)c1 (3D coordinates assigned)
O=C([N-]Cc1cc2ccccc2[nH]1)c1ccc(O)c(S(=O)(=O)N2CCOCC2)c1 (nonaromatic ring conformer: 94.63613533132288 kcal/mol)

>  <smiles>  (5) 
O=C(NCc1cc2ccccc2[nH]1)c1ccc(O)c(S(=O)(=O)N2CCOCC2)c1

>  <score_type>  (5) 
oracle

>  <origin>  (5) 
adgpu

>  <m_score__min__energy>  (5) 
-11.69

>  <m_primary>  (5) 
energy

$$$$
5:0
     RDKit          3D

 44 47  0  0  0  0  0  0  0  0999 V2000
   -7.1690   25.4190  -29.6300 O   0  0  0  0  0  0  0  0  0  0  0  0
   -6.3130   24.8360  -30.3450 C   0  0  0  0  0  0  0  0  0  0  0  0
   -6.7250   24.2820  -31.6020 N   0  0  0  0  0  0  0  0  0  0  0  0
   -7.1320   22.9260  -31.8350 C   0  0  0  0  0  0  0  0  0  0  0  0
   -8.4950   22.6360  -31.9520 C   0  0  0  0  0  0  0  0  0  0  0  0
   -8.9220   21.3260  -32.1890 C   0  0  0  0  0  0  0  0  0  0  0  0
   -7.9920   20.2890  -32.3310 C   0  0  0  0  0  0  0  0  0  0  0  0
   -8.4760   18.9920  -32.5660 O   0  0  0  0  0  0  0  0  0  0  0  0
   -7.8750   17.7880  -32.0870 C   0  0  0  0  0  0  0  0  0  0  0  0
   -6.6480   17.4450  -32.8900 C   0  0  0  0  0  0  0  0  0  0  0  0
   -6.4240   18.0610  -34.1310 C   0  0  0  0  0  0  0  0  0  0  0  0
   -5.2910   17.7370  -34.8850 C   0  0  0  0  0  0  0  0  0  0  0  0
   -4.3810   16.7890  -34.4090 C   0  0  0  0  0  0  0  0  0  0  0  0
   -4.6050   16.1610  -33.1810 C   0  0  0  0  0  0  0  0  0  0  0  0
   -5.7370   16.4820  -32.4250 C   0  0  0  0  0  0  0  0  0  0  0  0
   -6.6190   20.5830  -32.2340 C   0  0  0  0  0  0  0  0  0  0  0  0
   -6.1920   21.8930  -32.0000 C   0  0  0  0  0  0  0  0  0  0  0  0
   -4.9360   24.6910  -29.8400 C   0  0  0  0  0  0  0  0  0  0  0  0
   -4.5400   24.0290  -28.6940 C   0  0  0  0  0  0  0  0  0  0  0  0
   -3.1690   24.2100  -28.6560 C   0  0  0  0  0  0  0  0  0  0  0  0
   -2.2300   23.6950  -27.6320 C   0  0  0  0  0  0  0  0  0  0  0  0
   -2.0570   22.3100  -27.4690 C   0  0  0  0  0  0  0  0  0  0  0  0
   -1.1720   21.8300  -26.5010 C   0  0  0  0  0  0  0  0  0  0  0  0
   -0.4820   22.6990  -25.7160 N   0  0  0  0  0  0  0  0  0  0  0  0
   -0.6260   24.0430  -25.8470 C   0  0  0  0  0  0  0  0  0  0  0  0
   -1.5000   24.5670  -26.8030 C   0  0  0  0  0  0  0  0  0  0  0  0
   -2.7900   24.9530  -29.7160 N   0  0  0  0  0  0  0  0  0  0  0  0
   -3.8630   25.2490  -30.4320 N   0  0  0  0  0  0  0  0  0  0  0  0
   -9.2358   23.4436  -31.8570 H   0  0  0  0  0  0  0  0  0  0  0  0
   -9.9976   21.1082  -32.2645 H   0  0  0  0  0  0  0  0  0  0  0  0
   -7.5901   17.9220  -31.0330 H   0  0  0  0  0  0  0  0  0  0  0  0
   -8.6015   16.9681  -32.1867 H   0  0  0  0  0  0  0  0  0  0  0  0
   -7.1423   18.8017  -34.5124 H   0  0  0  0  0  0  0  0  0  0  0  0
   -5.1162   18.2288  -35.8533 H   0  0  0  0  0  0  0  0  0  0  0  0
   -3.4887   16.5373  -35.0009 H   0  0  0  0  0  0  0  0  0  0  0  0
   -3.8898   15.4129  -32.8083 H   0  0  0  0  0  0  0  0  0  0  0  0
   -5.9146   15.9788  -31.4631 H   0  0  0  0  0  0  0  0  0  0  0  0
   -5.8780   19.7773  -32.3430 H   0  0  0  0  0  0  0  0  0  0  0  0
   -5.1165   22.1170  -31.9447 H   0  0  0  0  0  0  0  0  0  0  0  0
   -5.1702   23.4832  -27.9764 H   0  0  0  0  0  0  0  0  0  0  0  0
   -2.6170   21.6059  -28.1020 H   0  0  0  0  0  0  0  0  0  0  0  0
   -1.0331   20.7463  -26.3736 H   0  0  0  0  0  0  0  0  0  0  0  0
   -0.0526   24.7215  -25.1983 H   0  0  0  0  0  0  0  0  0  0  0  0
   -1.6169   25.6558  -26.9071 H   0  0  0  0  0  0  0  0  0  0  0  0
  1  2  2  0
  2  3  1  0
  3  4  1  0
  4  5  2  0
  5  6  1  0
  6  7  2  0
  7  8  1  0
  8  9  1  0
  9 10  1  0
 10 11  2  0
 11 12  1  0
 12 13  2  0
 13 14  1  0
 14 15  2  0
  7 16  1  0
 16 17  2  0
  2 18  1  0
 18 19  1  0
 19 20  2  0
 20 21  1  0
 21 22  2  0
 22 23  1  0
 23 24  2  0
 24 25  1  0
 25 26  2  0
 20 27  1  0
 27 28  1  0
 17  4  1  0
 28 18  2  0
 15 10  1  0
 26 21  1  0
  5 29  1  0
  6 30  1  0
  9 31  1  0
  9 32  1  0
 11 33  1  0
 12 34  1  0
 13 35  1  0
 14 36  1  0
 15 37  1  0
 16 38  1  0
 17 39  1  0
 19 40  1  0
 22 41  1  0
 23 42  1  0
 25 43  1  0
 26 44  1  0
M  CHG  2   3  -1  27  -1
M  END
>  <UniqueID>  (6) 
6

>  <SMILES>  (6) 
O=C([N-]c1ccc(OCc2ccccc2)cc1)c1cc(-c2ccncc2)[n-]n1

>  <Energy>  (6) 
84.95308438370184

>  <Genealogy>  (6) 
O=C([N-]c1ccc(OCc2ccccc2)cc1)c1cc(-c2ccncc2)[n-]n1 (protonated)
O=C([N-]c1ccc(OCc2ccccc2)cc1)c1cc(-c2ccncc2)[n-]n1 (3D coordinates assigned)
O=C([N-]c1ccc(OCc2ccccc2)cc1)c1cc(-c2ccncc2)[n-]n1 (optimized conformer: 84.95308438370184 kcal/mol)

>  <smiles>  (6) 
O=C(Nc1ccc(OCc2ccccc2)cc1)c1cc(-c2ccncc2)[nH]n1

>  <score_type>  (6) 
oracle

>  <origin>  (6) 
adgpu

>  <m_score__min__energy>  (6) 
-11.31

>  <m_primary>  (6) 
energy

$$$$
6:0
     RDKit          3D

 53 56  0  0  0  0  0  0  0  0999 V2000
   -6.5120   25.9600  -29.6840 O   0  0  0  0  0  0  0  0  0  0  0  0
   -5.4280   24.9960  -30.0770 S   0  0  0  0  0  0  0  0  0  0  0  0
   -4.5300   25.6650  -31.0790 O   0  0  0  0  0  0  0  0  0  0  0  0
   -4.4980   24.5790  -28.6720 N   0  0  0  0  0  0  0  0  0  0  0  0
   -3.3440   23.7300  -28.7360 C   0  0  0  0  0  0  0  0  0  0  0  0
   -3.4520   22.3500  -28.4920 C   0  0  0  0  0  0  0  0  0  0  0  0
   -2.3050   21.5430  -28.4730 C   0  0  0  0  0  0  0  0  0  0  0  0
   -1.0510   22.1030  -28.7560 C   0  0  0  0  0  0  0  0  0  0  0  0
   -0.9520   23.4670  -29.0740 C   0  0  0  0  0  0  0  0  0  0  0  0
   -2.0950   24.2790  -29.0570 C   0  0  0  0  0  0  0  0  0  0  0  0
   -1.9820   25.6380  -29.3420 O   0  0  0  0  0  0  0  0  0  0  0  0
    0.1560   21.2030  -28.7570 C   0  0  0  0  0  0  0  0  0  0  0  0
    0.1360   20.2460  -27.5530 C   0  0  0  0  0  0  0  0  0  0  0  0
   -1.2620   19.6730  -27.1920 C   0  0  0  0  0  0  0  0  0  0  0  0
   -2.3820   20.0710  -28.1700 C   0  0  0  0  0  0  0  0  0  0  0  0
   -6.1470   23.5660  -30.8160 C   0  0  0  0  0  0  0  0  0  0  0  0
   -7.5240   23.3610  -30.7450 C   0  0  0  0  0  0  0  0  0  0  0  0
   -8.0830   22.2030  -31.2800 C   0  0  0  0  0  0  0  0  0  0  0  0
   -7.2760   21.2220  -31.8680 C   0  0  0  0  0  0  0  0  0  0  0  0
   -7.9140   20.1200  -32.4420 O   0  0  0  0  0  0  0  0  0  0  0  0
   -5.8660   21.3820  -31.8790 C   0  0  0  0  0  0  0  0  0  0  0  0
   -4.8090   20.0810  -32.4920 S   0  0  0  0  0  0  0  0  0  0  0  0
   -5.3030   18.7810  -31.9230 O   0  0  0  0  0  0  0  0  0  0  0  0
   -4.9530   20.0350  -33.9860 O   0  0  0  0  0  0  0  0  0  0  0  0
   -3.1070   20.1680  -32.0910 N   0  0  0  0  0  0  0  0  0  0  0  0
   -2.5220   21.4850  -32.3850 C   0  0  0  0  0  0  0  0  0  0  0  0
   -1.0450   21.4890  -31.9800 C   0  0  0  0  0  0  0  0  0  0  0  0
   -0.3400   20.4530  -32.6380 O   0  0  0  0  0  0  0  0  0  0  0  0
   -0.8510   19.1980  -32.2340 C   0  0  0  0  0  0  0  0  0  0  0  0
   -2.3240   19.0500  -32.6390 C   0  0  0  0  0  0  0  0  0  0  0  0
   -5.3300   22.5880  -31.3930 C   0  0  0  0  0  0  0  0  0  0  0  0
   -4.4405   21.9009  -28.3152 H   0  0  0  0  0  0  0  0  0  0  0  0
    0.0245   23.8996  -29.3371 H   0  0  0  0  0  0  0  0  0  0  0  0
    0.1626   20.6124  -29.6850 H   0  0  0  0  0  0  0  0  0  0  0  0
    1.0579   21.8291  -28.6899 H   0  0  0  0  0  0  0  0  0  0  0  0
    0.8033   19.4009  -27.7779 H   0  0  0  0  0  0  0  0  0  0  0  0
    0.4586   20.8386  -26.6843 H   0  0  0  0  0  0  0  0  0  0  0  0
   -1.1911   18.5754  -27.1778 H   0  0  0  0  0  0  0  0  0  0  0  0
   -1.5329   20.0969  -26.2138 H   0  0  0  0  0  0  0  0  0  0  0  0
   -2.2691   19.5009  -29.1039 H   0  0  0  0  0  0  0  0  0  0  0  0
   -3.3566   19.8484  -27.7111 H   0  0  0  0  0  0  0  0  0  0  0  0
   -8.1686   24.1132  -30.2668 H   0  0  0  0  0  0  0  0  0  0  0  0
   -9.1726   22.0574  -31.2400 H   0  0  0  0  0  0  0  0  0  0  0  0
   -7.4490   19.2560  -32.6620 H   0  0  0  0  0  0  0  0  0  0  0  0
   -2.6075   21.6922  -33.4619 H   0  0  0  0  0  0  0  0  0  0  0  0
   -3.0597   22.2599  -31.8189 H   0  0  0  0  0  0  0  0  0  0  0  0
   -0.5993   22.4573  -32.2516 H   0  0  0  0  0  0  0  0  0  0  0  0
   -0.9770   21.3269  -30.8941 H   0  0  0  0  0  0  0  0  0  0  0  0
   -0.2642   18.3996  -32.7117 H   0  0  0  0  0  0  0  0  0  0  0  0
   -0.7788   19.1253  -31.1388 H   0  0  0  0  0  0  0  0  0  0  0  0
   -2.4029   19.0523  -33.7362 H   0  0  0  0  0  0  0  0  0  0  0  0
   -2.7164   18.1027  -32.2407 H   0  0  0  0  0  0  0  0  0  0  0  0
   -4.2471   22.7657  -31.4681 H   0  0  0  0  0  0  0  0  0  0  0  0
  1  2  2  0
  2  3  2  0
  2  4  1  0
  4  5  1  0
  5  6  2  0
  6  7  1  0
  7  8  2  0
  8  9  1  0
  9 10  2  0
 10 11  1  0
  8 12  1  0
 12 13  1  0
 13 14  1  0
 14 15  1  0
  2 16  1  0
 16 17  2  0
 17 18  1  0
 18 19  2  0
 19 20  1  0
 19 21  1  0
 21 22  1  0
 22 23  2  0
 22 24  2  0
 22 25  1  0
 25 26  1  0
 26 27  1  0
 27 28  1  0
 28 29  1  0
 29 30  1  0
 21 31  2  0
 10  5  1  0
 31 16  1  0
 15  7  1  0
 30 25  1  0
  6 32  1  0
  9 33  1  0
 12 34  1  0
 12 35  1  0
 13 36  1  0
 13 37  1  0
 14 38  1  0
 14 39  1  0
 15 40  1  0
 15 41  1  0
 17 42  1  0
 18 43  1  0
 20 44  1  0
 26 45  1  0
 26 46  1  0
 27 47  1  0
 27 48  1  0
 29 49  1  0
 29 50  1  0
 30 51  1  0
 30 52  1  0
 31 53  1  0
M  CHG  2   4  -1  11  -1
M  END
>  <UniqueID>  (7) 
7

>  <SMILES>  (7) 
O=S(=O)([N-]c1cc2c(cc1[O-])CCCC2)c1ccc(O)c(S(=O)(=O)N2CCOCC2)c1

>  <Energy>  (7) 
76.59563405110443

>  <Genealogy>  (7) 
O=S(=O)([N-]c1cc2c(cc1[O-])CCCC2)c1ccc(O)c(S(=O)(=O)N2CCOCC2)c1 (protonated)
O=S(=O)([N-]c1cc2c(cc1[O-])CCCC2)c1ccc(O)c(S(=O)(=O)N2CCOCC2)c1 (3D coordinates assigned)
O=S(=O)([N-]c1cc2c(cc1[O-])CCCC2)c1ccc(O)c(S(=O)(=O)N2CCOCC2)c1 (nonaromatic ring conformer: 76.59563405110443 kcal/mol)

>  <smiles>  (7) 
O=S(=O)(Nc1cc2c(cc1O)CCCC2)c1ccc(O)c(S(=O)(=O)N2CCOCC2)c1

>  <score_type>  (7) 
oracle

>  <origin>  (7) 
adgpu

>  <m_score__min__energy>  (7) 
-14.42

>  <m_primary>  (7) 
energy

$$$$
7:0
     RDKit          3D

 55 57  0  0  0  0  0  0  0  0999 V2000
    1.2763   21.2935  -26.2165 H   0  0  0  0  0  0  0  0  0  0  0  0
    0.5560   21.9830  -26.6810 C   0  0  0  0  0  0  0  0  0  0  0  0
    0.0380   21.6880  -27.8970 N   0  0  0  0  0  0  0  0  0  0  0  0
   -0.8530   22.5020  -28.5130 C   0  0  0  0  0  0  0  0  0  0  0  0
   -1.3670   22.1330  -29.7600 C   0  0  0  0  0  0  0  0  0  0  0  0
   -1.0466   21.1885  -30.2240 H   0  0  0  0  0  0  0  0  0  0  0  0
   -2.2900   22.9590  -30.4260 C   0  0  0  0  0  0  0  0  0  0  0  0
   -2.8280   22.6210  -31.6770 O   0  0  0  0  0  0  0  0  0  0  0  0
   -2.9720   21.2900  -32.1610 C   0  0  0  0  0  0  0  0  0  0  0  0
   -3.0470   20.5966  -31.3103 H   0  0  0  0  0  0  0  0  0  0  0  0
   -3.8831   21.2191  -32.7733 H   0  0  0  0  0  0  0  0  0  0  0  0
   -2.0972   21.0258  -32.7733 H   0  0  0  0  0  0  0  0  0  0  0  0
   -2.6930   24.1600  -29.8220 C   0  0  0  0  0  0  0  0  0  0  0  0
   -3.6520   25.0000  -30.4630 N   0  0  0  0  0  0  0  0  0  0  0  0
   -5.3020   25.0040  -29.9480 S   0  0  0  0  0  0  0  0  0  0  0  0
   -5.3650   24.8650  -28.4520 O   0  0  0  0  0  0  0  0  0  0  0  0
   -5.9360   26.3120  -30.3320 O   0  0  0  0  0  0  0  0  0  0  0  0
   -6.1690   23.6790  -30.7170 C   0  0  0  0  0  0  0  0  0  0  0  0
   -5.7790   23.2170  -31.9800 C   0  0  0  0  0  0  0  0  0  0  0  0
   -4.9594   23.7166  -32.5173 H   0  0  0  0  0  0  0  0  0  0  0  0
   -6.4270   22.1240  -32.5600 C   0  0  0  0  0  0  0  0  0  0  0  0
   -6.1185   21.7722  -33.5555 H   0  0  0  0  0  0  0  0  0  0  0  0
   -7.4700   21.4700  -31.8820 C   0  0  0  0  0  0  0  0  0  0  0  0
   -8.1490   20.2680  -32.5130 C   0  0  0  0  0  0  0  0  0  0  0  0
   -8.7520   20.6293  -33.3591 H   0  0  0  0  0  0  0  0  0  0  0  0
   -7.1130   19.2780  -33.0580 C   0  0  0  0  0  0  0  0  0  0  0  0
   -6.5987   18.7865  -32.2190 H   0  0  0  0  0  0  0  0  0  0  0  0
   -7.6190   18.5192  -33.6730 H   0  0  0  0  0  0  0  0  0  0  0  0
   -6.3780   19.8179  -33.6730 H   0  0  0  0  0  0  0  0  0  0  0  0
   -9.1020   19.5830  -31.5260 C   0  0  0  0  0  0  0  0  0  0  0  0
   -8.7879   19.8088  -30.4963 H   0  0  0  0  0  0  0  0  0  0  0  0
  -10.1251   19.9537  -31.6869 H   0  0  0  0  0  0  0  0  0  0  0  0
   -9.0767   18.4951  -31.6869 H   0  0  0  0  0  0  0  0  0  0  0  0
   -7.8530   21.9360  -30.6100 C   0  0  0  0  0  0  0  0  0  0  0  0
   -8.6665   21.4337  -30.0660 H   0  0  0  0  0  0  0  0  0  0  0  0
   -7.2060   23.0330  -30.0340 C   0  0  0  0  0  0  0  0  0  0  0  0
   -7.5130   23.3901  -29.0399 H   0  0  0  0  0  0  0  0  0  0  0  0
   -2.1720   24.5370  -28.5790 C   0  0  0  0  0  0  0  0  0  0  0  0
   -2.4863   25.4880  -28.1243 H   0  0  0  0  0  0  0  0  0  0  0  0
   -1.2490   23.7130  -27.9020 C   0  0  0  0  0  0  0  0  0  0  0  0
   -0.6920   24.0790  -26.6490 C   0  0  0  0  0  0  0  0  0  0  0  0
   -0.9730   25.2750  -26.1890 N   0  0  0  0  0  0  0  0  0  0  0  0
   -0.4490   26.0400  -25.0560 C   0  0  0  0  0  0  0  0  0  0  0  0
    0.6308   26.1969  -25.1952 H   0  0  0  0  0  0  0  0  0  0  0  0
   -0.6374   25.4748  -24.1313 H   0  0  0  0  0  0  0  0  0  0  0  0
   -1.1420   27.3950  -24.9510 C   0  0  0  0  0  0  0  0  0  0  0  0
   -1.2761   27.6571  -23.8911 H   0  0  0  0  0  0  0  0  0  0  0  0
   -0.5252   28.1614  -25.4431 H   0  0  0  0  0  0  0  0  0  0  0  0
   -2.1244   27.3435  -25.4431 H   0  0  0  0  0  0  0  0  0  0  0  0
    0.1870   23.1550  -26.0060 C   0  0  0  0  0  0  0  0  0  0  0  0
    0.6180   23.2500  -24.6010 C   0  0  0  0  0  0  0  0  0  0  0  0
    1.7130   23.8030  -24.3160 O   0  0  0  0  0  0  0  0  0  0  0  0
   -0.1430   22.6140  -23.5740 N   0  0  0  0  0  0  0  0  0  0  0  0
    0.1780   22.6480  -22.5810 H   0  0  0  0  0  0  0  0  0  0  0  0
   -1.0280   22.1090  -23.8040 H   0  0  0  0  0  0  0  0  0  0  0  0
  1  2  1  0
  2  3  1  0
  3  4  1  0
  4  5  2  0
  5  6  1  0
  5  7  1  0
  7  8  1  0
  8  9  1  0
  9 10  1  0
  9 11  1  0
  9 12  1  0
  7 13  2  0
 13 14  1  0
 14 15  1  0
 15 16  2  0
 15 17  2  0
 15 18  1  0
 18 19  2  0
 19 20  1  0
 19 21  1  0
 21 22  1  0
 21 23  2  0
 23 24  1  0
 24 25  1  0
 24 26  1  0
 26 27  1  0
 26 28  1  0
 26 29  1  0
 24 30  1  0
 30 31  1  0
 30 32  1  0
 30 33  1  0
 23 34  1  0
 34 35  1  0
 34 36  2  0
 36 37  1  0
 13 38  1  0
 38 39  1  0
 38 40  2  0
 40 41  1  0
 41 42  2  0
 42 43  1  0
 43 44  1  0
 43 45  1  0
 43 46  1  0
 46 47  1  0
 46 48  1  0
 46 49  1  0
 41 50  1  0
 50 51  1  0
 51 52  2  0
 51 53  1  0
 53 54  1  0
 53 55  1  0
 50  2  2  0
 40  4  1  0
 36 18  1  0
M  CHG  2   3  -1  14  -1
M  END
>  <UniqueID>  (8) 
8

>  <SMILES>  (8) 
CC/N=c1\c(C(N)=O)c[n-]c2cc(OC)c([N-]S(=O)(=O)c3ccc(C(C)C)cc3)cc12

>  <Energy>  (8) 
79.61169281389824

>  <Genealogy>  (8) 
CCN=c1c(C(N)=O)c[n-]c2cc(OC)c([N-]S(=O)(=O)c3ccc(C(C)C)cc3)cc12 (protonated)
CC/N=c1\c(C(N)=O)c[n-]c2cc(OC)c([N-]S(=O)(=O)c3ccc(C(C)C)cc3)cc12 (cis-trans isomerization)
CC/N=c1\c(C(N)=O)c[n-]c2cc(OC)c([N-]S(=O)(=O)c3ccc(C(C)C)cc3)cc12 (3D coordinates assigned)
CC/N=c1\c(C(N)=O)c[n-]c2cc(OC)c([N-]S(=O)(=O)c3ccc(C(C)C)cc3)cc12 (optimized conformer: 79.61169281389824 kcal/mol)

>  <smiles>  (8) 
CCN=c1c(C(N)=O)c[nH]c2cc(OC)c(NS(=O)(=O)c3ccc(C(C)C)cc3)cc12

>  <score_type>  (8) 
oracle

>  <origin>  (8) 
adgpu

>  <m_score__min__energy>  (8) 
-11.359999999999999

>  <m_primary>  (8) 
energy

$$$$
8:0
     RDKit          3D

 61 64  0  0  0  0  0  0  0  0999 V2000
   -2.4300   20.2160  -27.1530 C   0  0  0  0  0  0  0  0  0  0  0  0
   -2.3660   21.5670  -27.8020 C   0  0  0  0  0  0  0  0  0  0  0  0
   -3.5080   22.0680  -28.3470 N   0  0  0  0  0  0  0  0  0  0  0  0
   -3.5620   23.2760  -28.9640 C   0  0  0  0  0  0  0  0  0  0  0  0
   -4.8740   23.7670  -29.5080 C   0  0  0  0  0  0  0  0  0  0  0  0
   -4.7460   24.0900  -30.9460 N   0  0  0  0  0  0  0  0  0  0  0  0
   -6.0570   24.4020  -31.5790 C   0  0  0  0  0  0  0  0  0  0  0  0
   -6.5730   23.3100  -32.5360 C   0  0  0  0  0  0  0  0  0  0  0  0
   -6.1860   21.9750  -32.0560 N   0  0  0  0  0  0  0  0  0  0  0  0
   -7.1630   20.9120  -31.9430 C   0  0  0  0  0  0  0  0  0  0  0  0
   -6.7760   19.5800  -31.6930 C   0  0  0  0  0  0  0  0  0  0  0  0
   -7.7520   18.5860  -31.5820 C   0  0  0  0  0  0  0  0  0  0  0  0
   -9.0990   18.9160  -31.7190 C   0  0  0  0  0  0  0  0  0  0  0  0
   -9.4550   20.2410  -31.9670 C   0  0  0  0  0  0  0  0  0  0  0  0
   -8.4910   21.1940  -32.0710 N   0  0  0  0  0  0  0  0  0  0  0  0
   -4.7660   21.7360  -31.7550 C   0  0  0  0  0  0  0  0  0  0  0  0
   -3.9840   23.0570  -31.6760 C   0  0  0  0  0  0  0  0  0  0  0  0
   -2.4010   24.0550  -29.0590 C   0  0  0  0  0  0  0  0  0  0  0  0
   -2.4340   25.2980  -29.6860 O   0  0  0  0  0  0  0  0  0  0  0  0
   -1.2060   23.5770  -28.5130 C   0  0  0  0  0  0  0  0  0  0  0  0
   -0.1630   24.2820  -28.5950 O   0  0  0  0  0  0  0  0  0  0  0  0
   -1.1690   22.3220  -27.8720 C   0  0  0  0  0  0  0  0  0  0  0  0
    0.1290   21.8420  -27.2480 C   0  0  0  0  0  0  0  0  0  0  0  0
    0.4260   20.4640  -27.6650 N   0  0  0  0  0  0  0  0  0  0  0  0
    0.8150   20.4050  -29.0800 C   0  0  0  0  0  0  0  0  0  0  0  0
   -0.1810   19.5440  -29.8590 C   0  0  0  0  0  0  0  0  0  0  0  0
   -0.3380   20.0580  -31.2680 C   0  0  0  0  0  0  0  0  0  0  0  0
   -1.5450   20.6630  -31.6570 C   0  0  0  0  0  0  0  0  0  0  0  0
   -1.6920   21.1820  -32.9480 C   0  0  0  0  0  0  0  0  0  0  0  0
   -0.6350   21.1080  -33.8560 C   0  0  0  0  0  0  0  0  0  0  0  0
    0.5750   20.5210  -33.4760 C   0  0  0  0  0  0  0  0  0  0  0  0
    0.7320   20.0040  -32.1840 C   0  0  0  0  0  0  0  0  0  0  0  0
    1.9530   19.4450  -31.8190 O   0  0  0  0  0  0  0  0  0  0  0  0
   -2.4244   20.3340  -26.0594 H   0  0  0  0  0  0  0  0  0  0  0  0
   -3.3534   19.7042  -27.4619 H   0  0  0  0  0  0  0  0  0  0  0  0
   -1.5591   19.6192  -27.4619 H   0  0  0  0  0  0  0  0  0  0  0  0
   -5.6360   22.9844  -29.3785 H   0  0  0  0  0  0  0  0  0  0  0  0
   -5.1696   24.6754  -28.9626 H   0  0  0  0  0  0  0  0  0  0  0  0
   -6.8010   24.5406  -30.7808 H   0  0  0  0  0  0  0  0  0  0  0  0
   -5.9075   25.3079  -32.1848 H   0  0  0  0  0  0  0  0  0  0  0  0
   -7.6699   23.3692  -32.5940 H   0  0  0  0  0  0  0  0  0  0  0  0
   -6.1297   23.4715  -33.5297 H   0  0  0  0  0  0  0  0  0  0  0  0
   -5.7115   19.3242  -31.5858 H   0  0  0  0  0  0  0  0  0  0  0  0
   -7.4574   17.5443  -31.3867 H   0  0  0  0  0  0  0  0  0  0  0  0
   -9.8731   18.1393  -31.6324 H   0  0  0  0  0  0  0  0  0  0  0  0
  -10.5145   20.5150  -32.0784 H   0  0  0  0  0  0  0  0  0  0  0  0
   -4.6868   21.2140  -30.7900 H   0  0  0  0  0  0  0  0  0  0  0  0
   -4.3369   21.1252  -32.5630 H   0  0  0  0  0  0  0  0  0  0  0  0
   -3.0319   22.8789  -31.1546 H   0  0  0  0  0  0  0  0  0  0  0  0
   -3.8061   23.4164  -32.7003 H   0  0  0  0  0  0  0  0  0  0  0  0
    0.9493   22.5012  -27.5682 H   0  0  0  0  0  0  0  0  0  0  0  0
    0.0260   21.8664  -26.1531 H   0  0  0  0  0  0  0  0  0  0  0  0
    1.2410   20.1340  -27.0960 H   0  0  0  0  0  0  0  0  0  0  0  0
    0.8231   21.4222  -29.4986 H   0  0  0  0  0  0  0  0  0  0  0  0
    1.8182   19.9611  -29.1613 H   0  0  0  0  0  0  0  0  0  0  0  0
    0.1850   18.5072  -29.8910 H   0  0  0  0  0  0  0  0  0  0  0  0
   -1.1576   19.5872  -29.3547 H   0  0  0  0  0  0  0  0  0  0  0  0
   -2.3789   20.7290  -30.9427 H   0  0  0  0  0  0  0  0  0  0  0  0
   -2.6419   21.6489  -33.2475 H   0  0  0  0  0  0  0  0  0  0  0  0
   -0.7543   21.5122  -34.8721 H   0  0  0  0  0  0  0  0  0  0  0  0
    1.4066   20.4649  -34.1939 H   0  0  0  0  0  0  0  0  0  0  0  0
  1  2  1  0
  2  3  1  0
  3  4  1  0
  4  5  1  0
  5  6  1  0
  6  7  1  0
  7  8  1  0
  8  9  1  0
  9 10  1  0
 10 11  2  0
 11 12  1  0
 12 13  2  0
 13 14  1  0
 14 15  2  0
  9 16  1  0
 16 17  1  0
  4 18  2  0
 18 19  1  0
 18 20  1  0
 20 21  2  0
 20 22  1  0
 22 23  1  0
 23 24  1  0
 24 25  1  0
 25 26  1  0
 26 27  1  0
 27 28  2  0
 28 29  1  0
 29 30  2  0
 30 31  1  0
 31 32  2  0
 32 33  1  0
 22  2  2  0
 32 27  1  0
 17  6  1  0
 15 10  1  0
  1 34  1  0
  1 35  1  0
  1 36  1  0
  5 37  1  0
  5 38  1  0
  7 39  1  0
  7 40  1  0
  8 41  1  0
  8 42  1  0
 11 43  1  0
 12 44  1  0
 13 45  1  0
 14 46  1  0
 16 47  1  0
 16 48  1  0
 17 49  1  0
 17 50  1  0
 23 51  1  0
 23 52  1  0
 24 53  1  0
 25 54  1  0
 25 55  1  0
 26 56  1  0
 26 57  1  0
 28 58  1  0
 29 59  1  0
 30 60  1  0
 31 61  1  0
M  CHG  3   3  -1  19  -1  33  -1
M  END
>  <UniqueID>  (9) 
9

>  <SMILES>  (9) 
Cc1[n-]c(CN2CCN(c3ccccn3)CC2)c([O-])c(=O)c1CNCCc1ccccc1[O-]

>  <Energy>  (9) 
74.43220369793742

>  <Genealogy>  (9) 
Cc1[n-]c(CN2CCN(c3ccccn3)CC2)c([O-])c(=O)c1CNCCc1ccccc1[O-] (protonated)
Cc1[n-]c(CN2CCN(c3ccccn3)CC2)c([O-])c(=O)c1CNCCc1ccccc1[O-] (3D coordinates assigned)
Cc1[n-]c(CN2CCN(c3ccccn3)CC2)c([O-])c(=O)c1CNCCc1ccccc1[O-] (nonaromatic ring conformer: 74.43220369793742 kcal/mol)

>  <smiles>  (9) 
Cc1[nH]c(CN2CCN(c3ccccn3)CC2)c(O)c(=O)c1CNCCc1ccccc1O

>  <score_type>  (9) 
oracle

>  <origin>  (9) 
adgpu

>  <m_score__min__energy>  (9) 
-12.75

>  <m_primary>  (9) 
energy

$$$$
9:0
     RDKit          3D

 61 64  0  0  0  0  0  0  0  0999 V2000
   -1.1980   21.8870  -26.5500 C   0  0  0  0  0  0  0  0  0  0  0  0
   -1.8340   22.8480  -27.5210 C   0  0  0  0  0  0  0  0  0  0  0  0
   -3.0810   22.4980  -28.0630 C   0  0  0  0  0  0  0  0  0  0  0  0
   -3.7050   23.3090  -29.0030 C   0  0  0  0  0  0  0  0  0  0  0  0
   -3.0830   24.4660  -29.4630 C   0  0  0  0  0  0  0  0  0  0  0  0
   -3.7740   25.2830  -30.4170 N   0  0  0  0  0  0  0  0  0  0  0  0
   -5.1390   25.1130  -30.8140 C   0  0  0  0  0  0  0  0  0  0  0  0
   -6.0610   25.6780  -30.1680 O   0  0  0  0  0  0  0  0  0  0  0  0
   -5.4630   24.3760  -31.9960 N   0  0  0  0  0  0  0  0  0  0  0  0
   -6.1760   23.1310  -32.0280 C   0  0  0  0  0  0  0  0  0  0  0  0
   -5.4500   21.9350  -32.0050 C   0  0  0  0  0  0  0  0  0  0  0  0
   -6.1110   20.7040  -32.0560 C   0  0  0  0  0  0  0  0  0  0  0  0
   -7.5090   20.6580  -32.1550 C   0  0  0  0  0  0  0  0  0  0  0  0
   -8.3390   19.1050  -32.1970 S   0  0  0  0  0  0  0  0  0  0  0  0
   -9.5330   19.2180  -33.1030 O   0  0  0  0  0  0  0  0  0  0  0  0
   -8.8200   18.7510  -30.8160 O   0  0  0  0  0  0  0  0  0  0  0  0
   -7.2590   17.8740  -32.7980 N   0  0  0  0  0  0  0  0  0  0  0  0
   -6.4570   18.4070  -33.9120 C   0  0  0  0  0  0  0  0  0  0  0  0
   -5.3280   17.4270  -34.2940 C   0  0  0  0  0  0  0  0  0  0  0  0
   -5.4950   16.1800  -33.6490 O   0  0  0  0  0  0  0  0  0  0  0  0
   -5.3930   16.3490  -32.2470 C   0  0  0  0  0  0  0  0  0  0  0  0
   -6.3770   17.4130  -31.7160 C   0  0  0  0  0  0  0  0  0  0  0  0
   -8.2370   21.8540  -32.2000 C   0  0  0  0  0  0  0  0  0  0  0  0
   -7.5770   23.0840  -32.1460 C   0  0  0  0  0  0  0  0  0  0  0  0
   -1.8430   24.8530  -28.9190 C   0  0  0  0  0  0  0  0  0  0  0  0
   -1.2610   26.0440  -29.3360 O   0  0  0  0  0  0  0  0  0  0  0  0
   -1.2090   24.0610  -27.9310 C   0  0  0  0  0  0  0  0  0  0  0  0
    0.3300   24.6420  -27.2270 S   0  0  0  0  0  0  0  0  0  0  0  0
    0.7630   23.7590  -26.0910 O   0  0  0  0  0  0  0  0  0  0  0  0
    1.4010   24.5430  -28.2780 O   0  0  0  0  0  0  0  0  0  0  0  0
    0.2590   26.2990  -26.6470 N   0  0  0  0  0  0  0  0  0  0  0  0
    1.1310   26.5480  -25.4870 C   0  0  0  0  0  0  0  0  0  0  0  0
    0.4880   26.1090  -24.1520 C   0  0  0  0  0  0  0  0  0  0  0  0
   -0.8590   25.7050  -24.2920 O   0  0  0  0  0  0  0  0  0  0  0  0
   -1.5850   26.6930  -24.9860 C   0  0  0  0  0  0  0  0  0  0  0  0
   -1.1130   26.8020  -26.4480 C   0  0  0  0  0  0  0  0  0  0  0  0
   -1.4121   22.2104  -25.5206 H   0  0  0  0  0  0  0  0  0  0  0  0
   -1.6078   20.8789  -26.7103 H   0  0  0  0  0  0  0  0  0  0  0  0
   -0.1099   21.8702  -26.7103 H   0  0  0  0  0  0  0  0  0  0  0  0
   -3.5712   21.5682  -27.7387 H   0  0  0  0  0  0  0  0  0  0  0  0
   -4.6987   23.0344  -29.3867 H   0  0  0  0  0  0  0  0  0  0  0  0
   -4.3519   21.9635  -31.9464 H   0  0  0  0  0  0  0  0  0  0  0  0
   -5.5328   19.7690  -32.0184 H   0  0  0  0  0  0  0  0  0  0  0  0
   -7.1096   18.5625  -34.7838 H   0  0  0  0  0  0  0  0  0  0  0  0
   -6.0051   19.3590  -33.5965 H   0  0  0  0  0  0  0  0  0  0  0  0
   -5.3400   17.2724  -35.3830 H   0  0  0  0  0  0  0  0  0  0  0  0
   -4.3681   17.8591  -33.9748 H   0  0  0  0  0  0  0  0  0  0  0  0
   -5.6114   15.3885  -31.7574 H   0  0  0  0  0  0  0  0  0  0  0  0
   -4.3719   16.6899  -32.0209 H   0  0  0  0  0  0  0  0  0  0  0  0
   -6.9867   16.9750  -30.9120 H   0  0  0  0  0  0  0  0  0  0  0  0
   -5.8052   18.2696  -31.3296 H   0  0  0  0  0  0  0  0  0  0  0  0
   -9.3338   21.8244  -32.2782 H   0  0  0  0  0  0  0  0  0  0  0  0
   -8.1546   24.0188  -32.1959 H   0  0  0  0  0  0  0  0  0  0  0  0
    2.0690   25.9905  -25.6259 H   0  0  0  0  0  0  0  0  0  0  0  0
    1.3067   27.6324  -25.4303 H   0  0  0  0  0  0  0  0  0  0  0  0
    1.0659   25.2659  -23.7456 H   0  0  0  0  0  0  0  0  0  0  0  0
    0.5012   26.9795  -23.4796 H   0  0  0  0  0  0  0  0  0  0  0  0
   -2.6532   26.4307  -24.9717 H   0  0  0  0  0  0  0  0  0  0  0  0
   -1.4186   27.6614  -24.4915 H   0  0  0  0  0  0  0  0  0  0  0  0
   -1.7964   26.2180  -27.0819 H   0  0  0  0  0  0  0  0  0  0  0  0
   -1.1159   27.8685  -26.7172 H   0  0  0  0  0  0  0  0  0  0  0  0
  1  2  1  0
  2  3  2  0
  3  4  1  0
  4  5  2  0
  5  6  1  0
  6  7  1  0
  7  8  2  0
  7  9  1  0
  9 10  1  0
 10 11  2  0
 11 12  1  0
 12 13  2  0
 13 14  1  0
 14 15  2  0
 14 16  2  0
 14 17  1  0
 17 18  1  0
 18 19  1  0
 19 20  1  0
 20 21  1  0
 21 22  1  0
 13 23  1  0
 23 24  2  0
  5 25  1  0
 25 26  1  0
 25 27  2  0
 27 28  1  0
 28 29  2  0
 28 30  2  0
 28 31  1  0
 31 32  1  0
 32 33  1  0
 33 34  1  0
 34 35  1  0
 35 36  1  0
 27  2  1  0
 36 31  1  0
 24 10  1  0
 22 17  1  0
  1 37  1  0
  1 38  1  0
  1 39  1  0
  3 40  1  0
  4 41  1  0
 11 42  1  0
 12 43  1  0
 18 44  1  0
 18 45  1  0
 19 46  1  0
 19 47  1  0
 21 48  1  0
 21 49  1  0
 22 50  1  0
 22 51  1  0
 23 52  1  0
 24 53  1  0
 32 54  1  0
 32 55  1  0
 33 56  1  0
 33 57  1  0
 35 58  1  0
 35 59  1  0
 36 60  1  0
 36 61  1  0
M  CHG  3   6  -1   9  -1  26  -1
M  END
>  <UniqueID>  (10) 
10

>  <SMILES>  (10) 
Cc1ccc([N-]C(=O)[N-]c2ccc(S(=O)(=O)N3CCOCC3)cc2)c([O-])c1S(=O)(=O)N1CCOCC1

>  <Energy>  (10) 
95.06008106824436

>  <Genealogy>  (10) 
Cc1ccc([N-]C(=O)[N-]c2ccc(S(=O)(=O)N3CCOCC3)cc2)c([O-])c1S(=O)(=O)N1CCOCC1 (protonated)
Cc1ccc([N-]C(=O)[N-]c2ccc(S(=O)(=O)N3CCOCC3)cc2)c([O-])c1S(=O)(=O)N1CCOCC1 (3D coordinates assigned)
Cc1ccc([N-]C(=O)[N-]c2ccc(S(=O)(=O)N3CCOCC3)cc2)c([O-])c1S(=O)(=O)N1CCOCC1 (nonaromatic ring conformer: 95.06008106824436 kcal/mol)

>  <smiles>  (10) 
Cc1ccc(NC(=O)Nc2ccc(S(=O)(=O)N3CCOCC3)cc2)c(O)c1S(=O)(=O)N1CCOCC1

>  <score_type>  (10) 
oracle

>  <origin>  (10) 
adgpu

>  <m_score__min__energy>  (10) 
-17.48

>  <m_primary>  (10) 
energy

$$$$
10:0
     RDKit          3D

 52 54  0  0  0  0  0  0  0  0999 V2000
   -0.9060   22.9550  -26.9870 C   0  0  0  0  0  0  0  0  0  0  0  0
   -1.0260   22.3640  -28.3680 C   0  0  0  0  0  0  0  0  0  0  0  0
   -0.4160   21.1260  -28.6330 C   0  0  0  0  0  0  0  0  0  0  0  0
   -0.5180   20.5380  -29.8960 C   0  0  0  0  0  0  0  0  0  0  0  0
   -1.2130   21.1890  -30.9190 C   0  0  0  0  0  0  0  0  0  0  0  0
   -1.4290   20.4290  -32.4940 S   0  0  0  0  0  0  0  0  0  0  0  0
   -1.6410   21.4990  -33.5280 O   0  0  0  0  0  0  0  0  0  0  0  0
   -0.2060   19.6350  -32.8640 O   0  0  0  0  0  0  0  0  0  0  0  0
   -2.8110   19.3740  -32.4710 N   0  0  0  0  0  0  0  0  0  0  0  0
   -4.0210   20.1300  -32.7870 C   0  0  0  0  0  0  0  0  0  0  0  0
   -5.2140   19.6490  -31.9310 C   0  0  0  0  0  0  0  0  0  0  0  0
   -6.3360   19.0280  -32.6760 N   0  0  0  0  0  0  0  0  0  0  0  0
   -7.2330   19.9810  -33.3400 C   0  0  0  0  0  0  0  0  0  0  0  0
   -8.5630   19.9770  -32.6000 C   0  0  0  0  0  0  0  0  0  0  0  0
   -8.5060   18.8100  -31.6300 C   0  0  0  0  0  0  0  0  0  0  0  0
   -7.1730   18.1210  -31.8810 C   0  0  0  0  0  0  0  0  0  0  0  0
   -1.7920   22.4370  -30.6760 C   0  0  0  0  0  0  0  0  0  0  0  0
   -1.7170   23.0330  -29.4080 C   0  0  0  0  0  0  0  0  0  0  0  0
   -2.5580   24.5680  -29.1390 S   0  0  0  0  0  0  0  0  0  0  0  0
   -3.3650   24.4470  -27.8760 O   0  0  0  0  0  0  0  0  0  0  0  0
   -1.5630   25.6880  -29.0160 O   0  0  0  0  0  0  0  0  0  0  0  0
   -3.6160   24.8980  -30.4730 N   0  0  0  0  0  0  0  0  0  0  0  0
   -4.9000   24.3040  -30.7170 C   0  0  0  0  0  0  0  0  0  0  0  0
   -5.0240   23.4590  -31.8280 C   0  0  0  0  0  0  0  0  0  0  0  0
   -6.2370   22.8260  -32.1100 C   0  0  0  0  0  0  0  0  0  0  0  0
   -7.3460   23.0470  -31.2940 C   0  0  0  0  0  0  0  0  0  0  0  0
   -7.2480   23.9120  -30.2020 C   0  0  0  0  0  0  0  0  0  0  0  0
   -6.0350   24.5580  -29.9120 C   0  0  0  0  0  0  0  0  0  0  0  0
   -5.9790   25.4610  -28.8540 O   0  0  0  0  0  0  0  0  0  0  0  0
   -1.0659   22.1674  -26.2359 H   0  0  0  0  0  0  0  0  0  0  0  0
    0.0979   23.3858  -26.8585 H   0  0  0  0  0  0  0  0  0  0  0  0
   -1.6624   23.7432  -26.8585 H   0  0  0  0  0  0  0  0  0  0  0  0
    0.1472   20.6151  -27.8382 H   0  0  0  0  0  0  0  0  0  0  0  0
   -0.0504   19.5606  -30.0858 H   0  0  0  0  0  0  0  0  0  0  0  0
   -3.8414   21.1966  -32.5866 H   0  0  0  0  0  0  0  0  0  0  0  0
   -4.2652   19.9730  -33.8480 H   0  0  0  0  0  0  0  0  0  0  0  0
   -4.8357   18.9078  -31.2116 H   0  0  0  0  0  0  0  0  0  0  0  0
   -5.6305   20.5541  -31.4648 H   0  0  0  0  0  0  0  0  0  0  0  0
   -6.7934   20.9889  -33.3103 H   0  0  0  0  0  0  0  0  0  0  0  0
   -7.3822   19.6933  -34.3912 H   0  0  0  0  0  0  0  0  0  0  0  0
   -8.6973   20.9215  -32.0524 H   0  0  0  0  0  0  0  0  0  0  0  0
   -9.4085   19.8776  -33.2967 H   0  0  0  0  0  0  0  0  0  0  0  0
   -8.5597   19.1722  -30.5927 H   0  0  0  0  0  0  0  0  0  0  0  0
   -9.3502   18.1207  -31.7788 H   0  0  0  0  0  0  0  0  0  0  0  0
   -6.6798   17.9018  -30.9225 H   0  0  0  0  0  0  0  0  0  0  0  0
   -7.3277   17.1740  -32.4188 H   0  0  0  0  0  0  0  0  0  0  0  0
   -2.3143   22.9600  -31.4907 H   0  0  0  0  0  0  0  0  0  0  0  0
   -4.1574   23.2924  -32.4847 H   0  0  0  0  0  0  0  0  0  0  0  0
   -6.3174   22.1528  -32.9763 H   0  0  0  0  0  0  0  0  0  0  0  0
   -8.2979   22.5400  -31.5104 H   0  0  0  0  0  0  0  0  0  0  0  0
   -8.1269   24.0886  -29.5646 H   0  0  0  0  0  0  0  0  0  0  0  0
   -5.1150   25.6450  -28.3560 H   0  0  0  0  0  0  0  0  0  0  0  0
  1  2  1  0
  2  3  2  0
  3  4  1  0
  4  5  2  0
  5  6  1  0
  6  7  2  0
  6  8  2  0
  6  9  1  0
  9 10  1  0
 10 11  1  0
 11 12  1  0
 12 13  1  0
 13 14  1  0
 14 15  1  0
 15 16  1  0
  5 17  1  0
 17 18  2  0
 18 19  1  0
 19 20  2  0
 19 21  2  0
 19 22  1  0
 22 23  1  0
 23 24  2  0
 24 25  1  0
 25 26  2  0
 26 27  1  0
 27 28  2  0
 28 29  1  0
 18  2  1  0
 28 23  1  0
 16 12  1  0
  1 30  1  0
  1 31  1  0
  1 32  1  0
  3 33  1  0
  4 34  1  0
 10 35  1  0
 10 36  1  0
 11 37  1  0
 11 38  1  0
 13 39  1  0
 13 40  1  0
 14 41  1  0
 14 42  1  0
 15 43  1  0
 15 44  1  0
 16 45  1  0
 16 46  1  0
 17 47  1  0
 24 48  1  0
 25 49  1  0
 26 50  1  0
 27 51  1  0
 29 52  1  0
M  CHG  2   9  -1  22  -1
M  END
>  <UniqueID>  (11) 
11

>  <SMILES>  (11) 
Cc1ccc(S(=O)(=O)[N-]CCN2CCCC2)cc1S(=O)(=O)[N-]c1ccccc1O

>  <Energy>  (11) 
61.478935734611866

>  <Genealogy>  (11) 
Cc1ccc(S(=O)(=O)[N-]CCN2CCCC2)cc1S(=O)(=O)[N-]c1ccccc1O (protonated)
Cc1ccc(S(=O)(=O)[N-]CCN2CCCC2)cc1S(=O)(=O)[N-]c1ccccc1O (3D coordinates assigned)
Cc1ccc(S(=O)(=O)[N-]CCN2CCCC2)cc1S(=O)(=O)[N-]c1ccccc1O (nonaromatic ring conformer: 61.478935734611866 kcal/mol)

>  <smiles>  (11) 
Cc1ccc(S(=O)(=O)NCCN2CCCC2)cc1S(=O)(=O)Nc1ccccc1O

>  <score_type>  (11) 
oracle

>  <origin>  (11) 
adgpu

>  <m_score__min__energy>  (11) 
-11.199999999999999

>  <m_primary>  (11) 
energy

$$$$
11:0
     RDKit          3D

 49 51  0  0  0  0  0  0  0  0999 V2000
   -4.1790   19.6100  -33.8100 C   0  0  0  0  0  0  0  0  0  0  0  0
   -4.4070   20.7200  -32.8710 N   0  0  0  0  0  0  0  0  0  0  0  0
   -4.4570   20.2110  -31.4810 C   0  0  0  0  0  0  0  0  0  0  0  0
   -4.2520   21.3270  -30.4540 C   0  0  0  0  0  0  0  0  0  0  0  0
   -2.9740   21.9980  -30.6960 N   0  0  0  0  0  0  0  0  0  0  0  0
   -2.3930   22.8230  -29.6740 C   0  0  0  0  0  0  0  0  0  0  0  0
   -1.4680   22.2600  -28.7810 C   0  0  0  0  0  0  0  0  0  0  0  0
   -0.9340   23.0220  -27.7410 C   0  0  0  0  0  0  0  0  0  0  0  0
   -1.3140   24.3550  -27.5860 C   0  0  0  0  0  0  0  0  0  0  0  0
   -2.2220   24.9320  -28.4740 C   0  0  0  0  0  0  0  0  0  0  0  0
   -2.7710   24.1780  -29.5290 C   0  0  0  0  0  0  0  0  0  0  0  0
   -3.6600   24.7880  -30.4840 N   0  0  0  0  0  0  0  0  0  0  0  0
   -5.0480   25.1450  -30.1880 C   0  0  0  0  0  0  0  0  0  0  0  0
   -5.9770   24.0500  -30.6400 C   0  0  0  0  0  0  0  0  0  0  0  0
   -6.7930   23.3760  -29.7170 C   0  0  0  0  0  0  0  0  0  0  0  0
   -7.6260   22.3340  -30.1400 C   0  0  0  0  0  0  0  0  0  0  0  0
   -7.6560   21.9590  -31.4890 C   0  0  0  0  0  0  0  0  0  0  0  0
   -8.7010   20.6400  -32.0090 S   0  0  0  0  0  0  0  0  0  0  0  0
   -8.0290   19.9000  -33.4200 N   0  0  0  0  0  0  0  0  0  0  0  0
  -10.0750   21.1610  -32.3230 O   0  0  0  0  0  0  0  0  0  0  0  0
   -8.8090   19.6220  -30.9080 O   0  0  0  0  0  0  0  0  0  0  0  0
   -6.8360   22.6250  -32.4120 C   0  0  0  0  0  0  0  0  0  0  0  0
   -6.0040   23.6670  -31.9900 C   0  0  0  0  0  0  0  0  0  0  0  0
   -2.3510   21.9180  -32.0200 C   0  0  0  0  0  0  0  0  0  0  0  0
   -3.4370   21.8260  -33.0990 C   0  0  0  0  0  0  0  0  0  0  0  0
   -3.9891   18.6853  -33.2454 H   0  0  0  0  0  0  0  0  0  0  0  0
   -5.0685   19.4768  -34.4432 H   0  0  0  0  0  0  0  0  0  0  0  0
   -3.3090   19.8382  -34.4432 H   0  0  0  0  0  0  0  0  0  0  0  0
   -5.4386   19.7455  -31.3084 H   0  0  0  0  0  0  0  0  0  0  0  0
   -3.6432   19.4814  -31.3569 H   0  0  0  0  0  0  0  0  0  0  0  0
   -5.0698   22.0575  -30.5411 H   0  0  0  0  0  0  0  0  0  0  0  0
   -4.2474   20.8928  -29.4433 H   0  0  0  0  0  0  0  0  0  0  0  0
   -1.1617   21.2104  -28.9018 H   0  0  0  0  0  0  0  0  0  0  0  0
   -0.2131   22.5711  -27.0432 H   0  0  0  0  0  0  0  0  0  0  0  0
   -0.8969   24.9525  -26.7619 H   0  0  0  0  0  0  0  0  0  0  0  0
   -2.5118   25.9857  -28.3490 H   0  0  0  0  0  0  0  0  0  0  0  0
   -3.3320   24.9150  -31.4680 H   0  0  0  0  0  0  0  0  0  0  0  0
   -5.1614   25.2926  -29.1039 H   0  0  0  0  0  0  0  0  0  0  0  0
   -5.3008   26.0722  -30.7231 H   0  0  0  0  0  0  0  0  0  0  0  0
   -6.7774   23.6684  -28.6567 H   0  0  0  0  0  0  0  0  0  0  0  0
   -8.2592   21.8078  -29.4105 H   0  0  0  0  0  0  0  0  0  0  0  0
   -8.3860   20.4340  -34.2430 H   0  0  0  0  0  0  0  0  0  0  0  0
   -8.4370   18.9410  -33.4840 H   0  0  0  0  0  0  0  0  0  0  0  0
   -6.8474   22.3268  -33.4708 H   0  0  0  0  0  0  0  0  0  0  0  0
   -5.3676   24.1890  -32.7198 H   0  0  0  0  0  0  0  0  0  0  0  0
   -1.7406   22.8169  -32.1916 H   0  0  0  0  0  0  0  0  0  0  0  0
   -1.7133   21.0230  -32.0685 H   0  0  0  0  0  0  0  0  0  0  0  0
   -3.9905   22.7764  -33.1181 H   0  0  0  0  0  0  0  0  0  0  0  0
   -2.9294   21.6202  -34.0529 H   0  0  0  0  0  0  0  0  0  0  0  0
  1  2  1  0
  2  3  1  0
  3  4  1  0
  4  5  1  0
  5  6  1  0
  6  7  2  0
  7  8  1  0
  8  9  2  0
  9 10  1  0
 10 11  2  0
 11 12  1  0
 12 13  1  0
 13 14  1  0
 14 15  2  0
 15 16  1  0
 16 17  2  0
 17 18  1  0
 18 19  1  0
 18 20  2  0
 18 21  2  0
 17 22  1  0
 22 23  2  0
  5 24  1  0
 24 25  1  0
 25  2  1  0
 11  6  1  0
 23 14  1  0
  1 26  1  0
  1 27  1  0
  1 28  1  0
  3 29  1  0
  3 30  1  0
  4 31  1  0
  4 32  1  0
  7 33  1  0
  8 34  1  0
  9 35  1  0
 10 36  1  0
 12 37  1  0
 13 38  1  0
 13 39  1  0
 15 40  1  0
 16 41  1  0
 19 42  1  0
 19 43  1  0
 22 44  1  0
 23 45  1  0
 24 46  1  0
 24 47  1  0
 25 48  1  0
 25 49  1  0
M  END
>  <UniqueID>  (12) 
12

>  <SMILES>  (12) 
CN1CCN(c2ccccc2NCc2ccc(S(N)(=O)=O)cc2)CC1

>  <Energy>  (12) 
59.0111895756331

>  <Genealogy>  (12) 
CN1CCN(c2ccccc2NCc2ccc(S(N)(=O)=O)cc2)CC1 (3D coordinates assigned)
CN1CCN(c2ccccc2NCc2ccc(S(N)(=O)=O)cc2)CC1 (nonaromatic ring conformer: 59.0111895756331 kcal/mol)

>  <smiles>  (12) 
CN1CCN(c2ccccc2NCc2ccc(S(N)(=O)=O)cc2)CC1

>  <score_type>  (12) 
oracle

>  <origin>  (12) 
adgpu

>  <m_score__min__energy>  (12) 
-9.2599999999999998

>  <m_primary>  (12) 
energy

$$$$
12:0
     RDKit          3D

 45 48  0  0  0  0  0  0  0  0999 V2000
   -6.3900   25.4130  -29.3090 N   0  0  0  0  0  0  0  0  0  0  0  0
   -5.3420   24.9290  -29.3950 C   0  0  0  0  0  0  0  0  0  0  0  0
   -4.0380   24.3250  -29.5030 C   0  0  0  0  0  0  0  0  0  0  0  0
   -3.0950   24.5350  -28.4870 C   0  0  0  0  0  0  0  0  0  0  0  0
   -1.8130   23.9630  -28.5690 C   0  0  0  0  0  0  0  0  0  0  0  0
   -0.8170   24.1860  -27.4900 C   0  0  0  0  0  0  0  0  0  0  0  0
   -1.2360   24.4950  -26.1840 C   0  0  0  0  0  0  0  0  0  0  0  0
   -0.2980   24.7040  -25.1700 C   0  0  0  0  0  0  0  0  0  0  0  0
    1.0700   24.6100  -25.4430 C   0  0  0  0  0  0  0  0  0  0  0  0
    2.2190   24.8800  -24.1400 Cl  0  0  0  0  0  0  0  0  0  0  0  0
    1.5020   24.3050  -26.7440 C   0  0  0  0  0  0  0  0  0  0  0  0
    3.2130   24.1830  -27.1310 Cl  0  0  0  0  0  0  0  0  0  0  0  0
    0.5600   24.0940  -27.7600 C   0  0  0  0  0  0  0  0  0  0  0  0
   -1.4880   23.1820  -29.6910 C   0  0  0  0  0  0  0  0  0  0  0  0
   -2.4260   22.9710  -30.7050 C   0  0  0  0  0  0  0  0  0  0  0  0
   -3.7130   23.5270  -30.6120 C   0  0  0  0  0  0  0  0  0  0  0  0
   -4.6660   23.3390  -31.6270 O   0  0  0  0  0  0  0  0  0  0  0  0
   -5.5300   22.2400  -31.7390 C   0  0  0  0  0  0  0  0  0  0  0  0
   -5.1090   20.9300  -31.4470 C   0  0  0  0  0  0  0  0  0  0  0  0
   -6.0050   19.8620  -31.5560 C   0  0  0  0  0  0  0  0  0  0  0  0
   -7.3320   20.0910  -31.9480 C   0  0  0  0  0  0  0  0  0  0  0  0
   -8.4640   18.7490  -32.0670 S   0  0  0  0  0  0  0  0  0  0  0  0
   -9.1710   18.5730  -30.7530 O   0  0  0  0  0  0  0  0  0  0  0  0
   -9.4760   19.0430  -33.1390 O   0  0  0  0  0  0  0  0  0  0  0  0
   -7.5840   17.3090  -32.4640 N   0  0  0  0  0  0  0  0  0  0  0  0
   -6.6430   17.2520  -33.3570 C   0  0  0  0  0  0  0  0  0  0  0  0
   -5.9790   16.1130  -33.6410 N   0  0  0  0  0  0  0  0  0  0  0  0
   -5.0400   16.2900  -34.6080 C   0  0  0  0  0  0  0  0  0  0  0  0
   -4.9510   17.5870  -35.1050 C   0  0  0  0  0  0  0  0  0  0  0  0
   -6.0900   18.5350  -34.3010 S   0  0  0  0  0  0  0  0  0  0  0  0
   -7.7590   21.4000  -32.2110 C   0  0  0  0  0  0  0  0  0  0  0  0
   -6.8630   22.4670  -32.1030 C   0  0  0  0  0  0  0  0  0  0  0  0
   -3.3606   25.1534  -27.6170 H   0  0  0  0  0  0  0  0  0  0  0  0
   -2.3099   24.5727  -25.9590 H   0  0  0  0  0  0  0  0  0  0  0  0
   -0.6375   24.9438  -24.1515 H   0  0  0  0  0  0  0  0  0  0  0  0
    0.9009   23.8542  -28.7780 H   0  0  0  0  0  0  0  0  0  0  0  0
   -0.4870   22.7331  -29.7718 H   0  0  0  0  0  0  0  0  0  0  0  0
   -2.1549   22.3653  -31.5823 H   0  0  0  0  0  0  0  0  0  0  0  0
   -4.0715   20.7451  -31.1319 H   0  0  0  0  0  0  0  0  0  0  0  0
   -5.6679   18.8388  -31.3335 H   0  0  0  0  0  0  0  0  0  0  0  0
   -6.1610   15.1960  -33.1760 H   0  0  0  0  0  0  0  0  0  0  0  0
   -4.4001   15.4716  -34.9696 H   0  0  0  0  0  0  0  0  0  0  0  0
   -4.2583   17.9332  -35.8862 H   0  0  0  0  0  0  0  0  0  0  0  0
   -8.8027   21.5879  -32.5033 H   0  0  0  0  0  0  0  0  0  0  0  0
   -7.2071   23.4920  -32.3053 H   0  0  0  0  0  0  0  0  0  0  0  0
  1  2  3  0
  2  3  1  0
  3  4  2  0
  4  5  1  0
  5  6  1  0
  6  7  2  0
  7  8  1  0
  8  9  2  0
  9 10  1  0
  9 11  1  0
 11 12  1  0
 11 13  2  0
  5 14  2  0
 14 15  1  0
 15 16  2  0
 16 17  1  0
 17 18  1  0
 18 19  2  0
 19 20  1  0
 20 21  2  0
 21 22  1  0
 22 23  2  0
 22 24  2  0
 22 25  1  0
 25 26  2  3
 26 27  1  0
 27 28  1  0
 28 29  2  0
 29 30  1  0
 21 31  1  0
 31 32  2  0
 16  3  1  0
 32 18  1  0
 13  6  1  0
 30 26  1  0
  4 33  1  0
  7 34  1  0
  8 35  1  0
 13 36  1  0
 14 37  1  0
 15 38  1  0
 19 39  1  0
 20 40  1  0
 27 41  1  0
 28 42  1  0
 29 43  1  0
 31 44  1  0
 32 45  1  0
M  END
>  <UniqueID>  (13) 
13

>  <SMILES>  (13) 
N#Cc1cc(-c2ccc(Cl)c(Cl)c2)ccc1Oc1ccc(S(=O)(=O)N=c2[nH]ccs2)cc1

>  <Energy>  (13) 
96.33563961381064

>  <Genealogy>  (13) 
N#Cc1cc(-c2ccc(Cl)c(Cl)c2)ccc1Oc1ccc(S(=O)(=O)N=c2[nH]ccs2)cc1 (3D coordinates assigned)
N#Cc1cc(-c2ccc(Cl)c(Cl)c2)ccc1Oc1ccc(S(=O)(=O)N=c2[nH]ccs2)cc1 (optimized conformer: 96.33563961381064 kcal/mol)

>  <smiles>  (13) 
N#Cc1cc(-c2ccc(Cl)c(Cl)c2)ccc1Oc1ccc(S(=O)(=O)N=c2[nH]ccs2)cc1

>  <score_type>  (13) 
oracle

>  <origin>  (13) 
adgpu

>  <m_score__min__energy>  (13) 
-9.9700000000000006

>  <m_primary>  (13) 
energy

$$$$
13:0
     RDKit          3D

 52 54  0  0  0  0  0  0  0  0999 V2000
   -0.7710   22.0510  -26.1590 C   0  0  0  0  0  0  0  0  0  0  0  0
   -1.5620   22.9210  -27.1020 C   0  0  0  0  0  0  0  0  0  0  0  0
   -2.8590   22.5130  -27.4470 C   0  0  0  0  0  0  0  0  0  0  0  0
   -3.6580   23.2850  -28.2900 C   0  0  0  0  0  0  0  0  0  0  0  0
   -4.9410   22.8310  -28.5970 O   0  0  0  0  0  0  0  0  0  0  0  0
   -3.1720   24.5010  -28.7950 C   0  0  0  0  0  0  0  0  0  0  0  0
   -4.0160   25.2870  -29.6490 N   0  0  0  0  0  0  0  0  0  0  0  0
   -4.6190   24.8300  -30.8670 C   0  0  0  0  0  0  0  0  0  0  0  0
   -5.3070   25.6170  -31.5690 O   0  0  0  0  0  0  0  0  0  0  0  0
   -4.5310   23.4530  -31.2460 N   0  0  0  0  0  0  0  0  0  0  0  0
   -5.6480   22.5630  -31.3740 C   0  0  0  0  0  0  0  0  0  0  0  0
   -5.4200   21.2650  -31.8480 C   0  0  0  0  0  0  0  0  0  0  0  0
   -6.4810   20.3520  -31.9910 C   0  0  0  0  0  0  0  0  0  0  0  0
   -6.2330   18.9830  -32.5140 C   0  0  0  0  0  0  0  0  0  0  0  0
   -6.1670   18.7470  -33.8980 C   0  0  0  0  0  0  0  0  0  0  0  0
   -5.9330   17.4600  -34.3890 C   0  0  0  0  0  0  0  0  0  0  0  0
   -5.7580   16.3890  -33.5040 C   0  0  0  0  0  0  0  0  0  0  0  0
   -5.4800   14.7640  -34.1220 S   0  0  0  0  0  0  0  0  0  0  0  0
   -4.9140   13.7190  -32.8020 C   0  0  0  0  0  0  0  0  0  0  0  0
   -4.4450   14.8050  -35.2120 O   0  0  0  0  0  0  0  0  0  0  0  0
   -6.7570   14.2100  -34.6910 O   0  0  0  0  0  0  0  0  0  0  0  0
   -5.8310   16.6140  -32.1240 C   0  0  0  0  0  0  0  0  0  0  0  0
   -6.0640   17.9010  -31.6310 C   0  0  0  0  0  0  0  0  0  0  0  0
   -7.7780   20.7560  -31.6320 C   0  0  0  0  0  0  0  0  0  0  0  0
   -8.0060   22.0380  -31.1260 C   0  0  0  0  0  0  0  0  0  0  0  0
   -6.9470   22.9370  -30.9800 C   0  0  0  0  0  0  0  0  0  0  0  0
   -7.1920   24.1830  -30.4130 O   0  0  0  0  0  0  0  0  0  0  0  0
   -1.8500   24.8940  -28.5100 C   0  0  0  0  0  0  0  0  0  0  0  0
   -1.3460   26.0600  -29.0780 O   0  0  0  0  0  0  0  0  0  0  0  0
   -1.0290   24.1050  -27.6730 C   0  0  0  0  0  0  0  0  0  0  0  0
    0.6360   24.6420  -27.3340 S   0  0  0  0  0  0  0  0  0  0  0  0
    0.6090   26.3470  -26.8260 C   0  0  0  0  0  0  0  0  0  0  0  0
    1.4900   24.5150  -28.5640 O   0  0  0  0  0  0  0  0  0  0  0  0
    1.2640   23.8060  -26.2550 O   0  0  0  0  0  0  0  0  0  0  0  0
   -1.0151   22.3194  -25.1206 H   0  0  0  0  0  0  0  0  0  0  0  0
   -1.0249   20.9951  -26.3341 H   0  0  0  0  0  0  0  0  0  0  0  0
    0.3042   22.2035  -26.3341 H   0  0  0  0  0  0  0  0  0  0  0  0
   -3.2528   21.5676  -27.0456 H   0  0  0  0  0  0  0  0  0  0  0  0
   -5.5270   23.2830  -29.2890 H   0  0  0  0  0  0  0  0  0  0  0  0
   -4.3981   20.9552  -32.1120 H   0  0  0  0  0  0  0  0  0  0  0  0
   -6.3007   19.5827  -34.6006 H   0  0  0  0  0  0  0  0  0  0  0  0
   -5.8861   17.2875  -35.4744 H   0  0  0  0  0  0  0  0  0  0  0  0
   -5.1642   14.1810  -31.8356 H   0  0  0  0  0  0  0  0  0  0  0  0
   -5.4034   12.7367  -32.8765 H   0  0  0  0  0  0  0  0  0  0  0  0
   -3.8239   13.5922  -32.8765 H   0  0  0  0  0  0  0  0  0  0  0  0
   -5.7044   15.7743  -31.4248 H   0  0  0  0  0  0  0  0  0  0  0  0
   -6.1156   18.0689  -30.5451 H   0  0  0  0  0  0  0  0  0  0  0  0
   -8.6198   20.0579  -31.7502 H   0  0  0  0  0  0  0  0  0  0  0  0
   -9.0244   22.3409  -30.8412 H   0  0  0  0  0  0  0  0  0  0  0  0
    0.6081   26.4023  -25.7274 H   0  0  0  0  0  0  0  0  0  0  0  0
    1.4991   26.8606  -27.2183 H   0  0  0  0  0  0  0  0  0  0  0  0
   -0.2969   26.8322  -27.2183 H   0  0  0  0  0  0  0  0  0  0  0  0
  1  2  1  0
  2  3  2  0
  3  4  1  0
  4  5  1  0
  4  6  2  0
  6  7  1  0
  7  8  1  0
  8  9  2  0
  8 10  1  0
 10 11  1  0
 11 12  2  0
 12 13  1  0
 13 14  1  0
 14 15  2  0
 15 16  1  0
 16 17  2  0
 17 18  1  0
 18 19  1  0
 18 20  2  0
 18 21  2  0
 17 22  1  0
 22 23  2  0
 13 24  2  0
 24 25  1  0
 25 26  2  0
 26 27  1  0
  6 28  1  0
 28 29  1  0
 28 30  2  0
 30 31  1  0
 31 32  1  0
 31 33  2  0
 31 34  2  0
 30  2  1  0
 26 11  1  0
 23 14  1  0
  1 35  1  0
  1 36  1  0
  1 37  1  0
  3 38  1  0
  5 39  1  0
 12 40  1  0
 15 41  1  0
 16 42  1  0
 19 43  1  0
 19 44  1  0
 19 45  1  0
 22 46  1  0
 23 47  1  0
 24 48  1  0
 25 49  1  0
 32 50  1  0
 32 51  1  0
 32 52  1  0
M  CHG  4   7  -1  10  -1  27  -1  29  -1
M  END
>  <UniqueID>  (14) 
14

>  <SMILES>  (14) 
Cc1cc(O)c([N-]C(=O)[N-]c2cc(-c3ccc(S(C)(=O)=O)cc3)ccc2[O-])c([O-])c1S(C)(=O)=O

>  <Energy>  (14) 
69.49952843141004

>  <Genealogy>  (14) 
Cc1cc(O)c([N-]C(=O)[N-]c2cc(-c3ccc(S(C)(=O)=O)cc3)ccc2[O-])c([O-])c1S(C)(=O)=O (protonated)
Cc1cc(O)c([N-]C(=O)[N-]c2cc(-c3ccc(S(C)(=O)=O)cc3)ccc2[O-])c([O-])c1S(C)(=O)=O (3D coordinates assigned)
Cc1cc(O)c([N-]C(=O)[N-]c2cc(-c3ccc(S(C)(=O)=O)cc3)ccc2[O-])c([O-])c1S(C)(=O)=O (optimized conformer: 69.49952843141004 kcal/mol)

>  <smiles>  (14) 
Cc1cc(O)c(NC(=O)Nc2cc(-c3ccc(S(C)(=O)=O)cc3)ccc2O)c(O)c1S(C)(=O)=O

>  <score_type>  (14) 
oracle

>  <origin>  (14) 
adgpu

>  <m_score__min__energy>  (14) 
-14.57

>  <m_primary>  (14) 
energy

$$$$
14:0
     RDKit          3D

 37 39  0  0  0  0  0  0  0  0999 V2000
   -1.9160   22.1450  -26.7330 O   0  0  0  0  0  0  0  0  0  0  0  0
   -1.8150   23.1660  -27.4630 C   0  0  0  0  0  0  0  0  0  0  0  0
   -2.7520   23.4040  -28.4700 C   0  0  0  0  0  0  0  0  0  0  0  0
   -2.5980   24.5460  -29.2720 C   0  0  0  0  0  0  0  0  0  0  0  0
   -3.5420   24.8720  -30.3050 N   0  0  0  0  0  0  0  0  0  0  0  0
   -4.7470   24.1330  -30.5720 C   0  0  0  0  0  0  0  0  0  0  0  0
   -5.9730   24.8120  -30.6250 C   0  0  0  0  0  0  0  0  0  0  0  0
   -7.1540   24.1200  -30.9090 C   0  0  0  0  0  0  0  0  0  0  0  0
   -7.1200   22.7440  -31.1650 C   0  0  0  0  0  0  0  0  0  0  0  0
   -8.6070   21.8610  -31.4970 S   0  0  0  0  0  0  0  0  0  0  0  0
   -9.5150   22.7200  -32.3330 O   0  0  0  0  0  0  0  0  0  0  0  0
   -9.3080   21.5420  -30.2040 O   0  0  0  0  0  0  0  0  0  0  0  0
   -8.2260   20.3970  -32.3670 N   0  0  0  0  0  0  0  0  0  0  0  0
   -7.0910   20.5940  -33.2680 C   0  0  0  0  0  0  0  0  0  0  0  0
   -6.4230   19.2370  -33.4280 C   0  0  0  0  0  0  0  0  0  0  0  0
   -6.9120   18.4050  -32.2530 C   0  0  0  0  0  0  0  0  0  0  0  0
   -7.8190   19.3280  -31.4560 C   0  0  0  0  0  0  0  0  0  0  0  0
   -5.8950   22.0640  -31.1320 C   0  0  0  0  0  0  0  0  0  0  0  0
   -4.7140   22.7560  -30.8470 C   0  0  0  0  0  0  0  0  0  0  0  0
   -1.5690   25.4000  -29.0220 N   0  0  0  0  0  0  0  0  0  0  0  0
   -0.6690   25.1500  -28.0360 C   0  0  0  0  0  0  0  0  0  0  0  0
    0.2800   25.9520  -27.8340 O   0  0  0  0  0  0  0  0  0  0  0  0
   -0.7930   24.0380  -27.2660 N   0  0  0  0  0  0  0  0  0  0  0  0
   -3.5920   22.7124  -28.6315 H   0  0  0  0  0  0  0  0  0  0  0  0
   -3.3310   25.6990  -30.9070 H   0  0  0  0  0  0  0  0  0  0  0  0
   -6.0055   25.8962  -30.4419 H   0  0  0  0  0  0  0  0  0  0  0  0
   -8.1130   24.6583  -30.9314 H   0  0  0  0  0  0  0  0  0  0  0  0
   -7.4404   20.9625  -34.2438 H   0  0  0  0  0  0  0  0  0  0  0  0
   -6.3879   21.3372  -32.8639 H   0  0  0  0  0  0  0  0  0  0  0  0
   -6.7203   18.7715  -34.3793 H   0  0  0  0  0  0  0  0  0  0  0  0
   -5.3262   19.3201  -33.4420 H   0  0  0  0  0  0  0  0  0  0  0  0
   -7.4723   17.5279  -32.6090 H   0  0  0  0  0  0  0  0  0  0  0  0
   -6.0778   18.0253  -31.6448 H   0  0  0  0  0  0  0  0  0  0  0  0
   -8.7013   18.7775  -31.0976 H   0  0  0  0  0  0  0  0  0  0  0  0
   -7.3000   19.7323  -30.5744 H   0  0  0  0  0  0  0  0  0  0  0  0
   -5.8626   20.9826  -31.3309 H   0  0  0  0  0  0  0  0  0  0  0  0
   -3.7539   22.2192  -30.8381 H   0  0  0  0  0  0  0  0  0  0  0  0
  1  2  2  0
  2  3  1  0
  3  4  2  0
  4  5  1  0
  5  6  1  0
  6  7  2  0
  7  8  1  0
  8  9  2  0
  9 10  1  0
 10 11  2  0
 10 12  2  0
 10 13  1  0
 13 14  1  0
 14 15  1  0
 15 16  1  0
 16 17  1  0
  9 18  1  0
 18 19  2  0
  4 20  1  0
 20 21  1  0
 21 22  2  0
 21 23  1  0
 23  2  1  0
 19  6  1  0
 17 13  1  0
  3 24  1  0
  5 25  1  0
  7 26  1  0
  8 27  1  0
 14 28  1  0
 14 29  1  0
 15 30  1  0
 15 31  1  0
 16 32  1  0
 16 33  1  0
 17 34  1  0
 17 35  1  0
 18 36  1  0
 19 37  1  0
M  CHG  2  20  -1  23  -1
M  END
>  <UniqueID>  (15) 
15

>  <SMILES>  (15) 
O=c1cc(Nc2ccc(S(=O)(=O)N3CCCC3)cc2)[n-]c(=O)[n-]1

>  <Energy>  (15) 
45.354463059776016

>  <Genealogy>  (15) 
O=c1cc(Nc2ccc(S(=O)(=O)N3CCCC3)cc2)[n-]c(=O)[n-]1 (protonated)
O=c1cc(Nc2ccc(S(=O)(=O)N3CCCC3)cc2)[n-]c(=O)[n-]1 (3D coordinates assigned)
O=c1cc(Nc2ccc(S(=O)(=O)N3CCCC3)cc2)[n-]c(=O)[n-]1 (nonaromatic ring conformer: 45.354463059776016 kcal/mol)

>  <smiles>  (15) 
O=c1cc(Nc2ccc(S(=O)(=O)N3CCCC3)cc2)[nH]c(=O)[nH]1

>  <score_type>  (15) 
oracle

>  <origin>  (15) 
adgpu

>  <m_score__min__energy>  (15) 
-11.75

>  <m_primary>  (15) 
energy

$$$$
15:0
     RDKit          3D

 59 62  0  0  0  0  0  0  0  0999 V2000
    1.6470   19.8400  -33.3110 C   0  0  0  0  0  0  0  0  0  0  0  0
    0.1600   19.8680  -33.1170 C   0  0  0  0  0  0  0  0  0  0  0  0
   -0.5050   21.0940  -32.9850 C   0  0  0  0  0  0  0  0  0  0  0  0
   -1.8800   21.1300  -32.7470 C   0  0  0  0  0  0  0  0  0  0  0  0
   -2.6090   19.9360  -32.6190 C   0  0  0  0  0  0  0  0  0  0  0  0
   -4.0550   19.9700  -32.2050 C   0  0  0  0  0  0  0  0  0  0  0  0
   -5.1570   20.7100  -33.4660 S   0  0  0  0  0  0  0  0  0  0  0  0
   -6.5660   21.0790  -32.3960 C   0  0  0  0  0  0  0  0  0  0  0  0
   -7.7200   20.2800  -32.4680 C   0  0  0  0  0  0  0  0  0  0  0  0
   -8.8390   20.5770  -31.6900 C   0  0  0  0  0  0  0  0  0  0  0  0
   -8.8460   21.7110  -30.8790 C   0  0  0  0  0  0  0  0  0  0  0  0
   -7.7390   22.5600  -30.8600 C   0  0  0  0  0  0  0  0  0  0  0  0
   -6.5860   22.2490  -31.6010 C   0  0  0  0  0  0  0  0  0  0  0  0
   -5.5140   23.2620  -31.6950 C   0  0  0  0  0  0  0  0  0  0  0  0
   -5.8220   24.4460  -31.9940 O   0  0  0  0  0  0  0  0  0  0  0  0
   -4.1320   22.9300  -31.5230 N   0  0  0  0  0  0  0  0  0  0  0  0
   -3.3190   23.2370  -30.3810 C   0  0  0  0  0  0  0  0  0  0  0  0
   -2.6790   22.2240  -29.6460 C   0  0  0  0  0  0  0  0  0  0  0  0
   -1.9320   22.5320  -28.5040 C   0  0  0  0  0  0  0  0  0  0  0  0
   -1.0750   21.2550  -27.6440 S   0  0  0  0  0  0  0  0  0  0  0  0
    0.4000   21.5480  -27.6750 O   0  0  0  0  0  0  0  0  0  0  0  0
   -1.5240   21.2410  -26.2080 O   0  0  0  0  0  0  0  0  0  0  0  0
   -1.4170   19.7200  -28.4240 N   0  0  0  0  0  0  0  0  0  0  0  0
   -1.2400   18.5760  -27.5020 C   0  0  0  0  0  0  0  0  0  0  0  0
    0.1650   17.9500  -27.5960 C   0  0  0  0  0  0  0  0  0  0  0  0
    1.1100   18.9080  -28.0190 O   0  0  0  0  0  0  0  0  0  0  0  0
    0.8610   19.2810  -29.3640 C   0  0  0  0  0  0  0  0  0  0  0  0
   -0.6360   19.5420  -29.6590 C   0  0  0  0  0  0  0  0  0  0  0  0
   -1.8650   23.8570  -28.0590 C   0  0  0  0  0  0  0  0  0  0  0  0
   -2.5270   24.8660  -28.7610 C   0  0  0  0  0  0  0  0  0  0  0  0
   -3.2460   24.5670  -29.9240 C   0  0  0  0  0  0  0  0  0  0  0  0
   -3.8770   25.6060  -30.6090 O   0  0  0  0  0  0  0  0  0  0  0  0
   -1.9470   18.7080  -32.7650 C   0  0  0  0  0  0  0  0  0  0  0  0
   -0.5680   18.6750  -32.9950 C   0  0  0  0  0  0  0  0  0  0  0  0
    2.1446   19.8306  -32.3300 H   0  0  0  0  0  0  0  0  0  0  0  0
    1.9266   18.9364  -33.8726 H   0  0  0  0  0  0  0  0  0  0  0  0
    1.9604   20.7324  -33.8726 H   0  0  0  0  0  0  0  0  0  0  0  0
    0.0599   22.0341  -33.0694 H   0  0  0  0  0  0  0  0  0  0  0  0
   -2.3952   22.0979  -32.6593 H   0  0  0  0  0  0  0  0  0  0  0  0
   -4.3871   18.9388  -32.0141 H   0  0  0  0  0  0  0  0  0  0  0  0
   -4.1202   20.6017  -31.3068 H   0  0  0  0  0  0  0  0  0  0  0  0
   -7.7409   19.4125  -33.1440 H   0  0  0  0  0  0  0  0  0  0  0  0
   -9.7174   19.9154  -31.7164 H   0  0  0  0  0  0  0  0  0  0  0  0
   -9.7233   21.9361  -30.2548 H   0  0  0  0  0  0  0  0  0  0  0  0
   -7.7689   23.4812  -30.2596 H   0  0  0  0  0  0  0  0  0  0  0  0
   -2.7665   21.1772  -29.9725 H   0  0  0  0  0  0  0  0  0  0  0  0
   -1.4014   18.9258  -26.4717 H   0  0  0  0  0  0  0  0  0  0  0  0
   -1.9686   17.8028  -27.7872 H   0  0  0  0  0  0  0  0  0  0  0  0
    0.4567   17.5672  -26.6069 H   0  0  0  0  0  0  0  0  0  0  0  0
    0.1390   17.1308  -28.3296 H   0  0  0  0  0  0  0  0  0  0  0  0
    1.4253   20.1997  -29.5819 H   0  0  0  0  0  0  0  0  0  0  0  0
    1.1770   18.4405  -29.9994 H   0  0  0  0  0  0  0  0  0  0  0  0
   -0.7244   20.4526  -30.2698 H   0  0  0  0  0  0  0  0  0  0  0  0
   -1.0358   18.6664  -30.1914 H   0  0  0  0  0  0  0  0  0  0  0  0
   -1.2897   24.1040  -27.1545 H   0  0  0  0  0  0  0  0  0  0  0  0
   -2.4832   25.9033  -28.3975 H   0  0  0  0  0  0  0  0  0  0  0  0
   -4.1100   25.5440  -31.5920 H   0  0  0  0  0  0  0  0  0  0  0  0
   -2.5144   17.7680  -32.6984 H   0  0  0  0  0  0  0  0  0  0  0  0
   -0.0510   17.7078  -33.0808 H   0  0  0  0  0  0  0  0  0  0  0  0
  1  2  1  0
  2  3  2  0
  3  4  1  0
  4  5  2  0
  5  6  1  0
  6  7  1  0
  7  8  1  0
  8  9  2  0
  9 10  1  0
 10 11  2  0
 11 12  1  0
 12 13  2  0
 13 14  1  0
 14 15  2  0
 14 16  1  0
 16 17  1  0
 17 18  2  0
 18 19  1  0
 19 20  1  0
 20 21  2  0
 20 22  2  0
 20 23  1  0
 23 24  1  0
 24 25  1  0
 25 26  1  0
 26 27  1  0
 27 28  1  0
 19 29  2  0
 29 30  1  0
 30 31  2  0
 31 32  1  0
  5 33  1  0
 33 34  2  0
 34  2  1  0
 13  8  1  0
 31 17  1  0
 28 23  1  0
  1 35  1  0
  1 36  1  0
  1 37  1  0
  3 38  1  0
  4 39  1  0
  6 40  1  0
  6 41  1  0
  9 42  1  0
 10 43  1  0
 11 44  1  0
 12 45  1  0
 18 46  1  0
 24 47  1  0
 24 48  1  0
 25 49  1  0
 25 50  1  0
 27 51  1  0
 27 52  1  0
 28 53  1  0
 28 54  1  0
 29 55  1  0
 30 56  1  0
 32 57  1  0
 33 58  1  0
 34 59  1  0
M  CHG  1  16  -1
M  END
>  <UniqueID>  (16) 
16

>  <SMILES>  (16) 
Cc1ccc(CSc2ccccc2C(=O)[N-]c2cc(S(=O)(=O)N3CCOCC3)ccc2O)cc1

>  <Energy>  (16) 
77.63952007468068

>  <Genealogy>  (16) 
Cc1ccc(CSc2ccccc2C(=O)[N-]c2cc(S(=O)(=O)N3CCOCC3)ccc2O)cc1 (protonated)
Cc1ccc(CSc2ccccc2C(=O)[N-]c2cc(S(=O)(=O)N3CCOCC3)ccc2O)cc1 (3D coordinates assigned)
Cc1ccc(CSc2ccccc2C(=O)[N-]c2cc(S(=O)(=O)N3CCOCC3)ccc2O)cc1 (nonaromatic ring conformer: 77.63952007468068 kcal/mol)

>  <smiles>  (16) 
Cc1ccc(CSc2ccccc2C(=O)Nc2cc(S(=O)(=O)N3CCOCC3)ccc2O)cc1

>  <score_type>  (16) 
oracle

>  <origin>  (16) 
adgpu

>  <m_score__min__energy>  (16) 
-11.779999999999999

>  <m_primary>  (16) 
energy

$$$$
16:0
     RDKit          3D

 57 60  0  0  0  0  0  0  0  0999 V2000
   -3.8640   25.3470  -30.8260 O   0  0  0  0  0  0  0  0  0  0  0  0
   -3.9870   24.1100  -30.6200 C   0  0  0  0  0  0  0  0  0  0  0  0
   -4.7740   23.3440  -31.5430 N   0  0  0  0  0  0  0  0  0  0  0  0
   -4.3970   22.1200  -32.1910 C   0  0  0  0  0  0  0  0  0  0  0  0
   -3.0600   21.9730  -32.5820 C   0  0  0  0  0  0  0  0  0  0  0  0
   -2.6200   20.8010  -33.2110 C   0  0  0  0  0  0  0  0  0  0  0  0
   -0.9280   20.6290  -33.6910 S   0  0  0  0  0  0  0  0  0  0  0  0
   -0.8180   19.5340  -34.7170 O   0  0  0  0  0  0  0  0  0  0  0  0
   -0.4640   21.9090  -34.3300 O   0  0  0  0  0  0  0  0  0  0  0  0
    0.1030   20.2610  -32.3280 N   0  0  0  0  0  0  0  0  0  0  0  0
   -0.0470   18.8360  -31.9470 C   0  0  0  0  0  0  0  0  0  0  0  0
    0.4990   18.5700  -30.5390 C   0  0  0  0  0  0  0  0  0  0  0  0
   -0.2740   19.3770  -29.4810 C   0  0  0  0  0  0  0  0  0  0  0  0
   -0.9470   20.6300  -30.0660 C   0  0  0  0  0  0  0  0  0  0  0  0
   -0.1140   21.2220  -31.2110 C   0  0  0  0  0  0  0  0  0  0  0  0
   -3.5340   19.7780  -33.4740 C   0  0  0  0  0  0  0  0  0  0  0  0
   -4.8750   19.9240  -33.1200 C   0  0  0  0  0  0  0  0  0  0  0  0
   -5.3280   21.0940  -32.4880 C   0  0  0  0  0  0  0  0  0  0  0  0
   -6.7390   21.2690  -32.2580 N   0  0  0  0  0  0  0  0  0  0  0  0
   -7.3050   22.6240  -32.3310 C   0  0  0  0  0  0  0  0  0  0  0  0
   -8.6710   22.7250  -31.6190 C   0  0  0  0  0  0  0  0  0  0  0  0
   -9.0620   21.5190  -30.9910 O   0  0  0  0  0  0  0  0  0  0  0  0
   -9.0590   20.4730  -31.9350 C   0  0  0  0  0  0  0  0  0  0  0  0
   -7.6200   20.0930  -32.2900 C   0  0  0  0  0  0  0  0  0  0  0  0
   -3.2820   23.4950  -29.4700 C   0  0  0  0  0  0  0  0  0  0  0  0
   -3.7960   22.3190  -28.8940 C   0  0  0  0  0  0  0  0  0  0  0  0
   -3.1370   21.7030  -27.8280 C   0  0  0  0  0  0  0  0  0  0  0  0
   -1.9700   22.2640  -27.3090 C   0  0  0  0  0  0  0  0  0  0  0  0
   -1.4710   23.4570  -27.8380 C   0  0  0  0  0  0  0  0  0  0  0  0
   -0.0260   24.1730  -27.1440 Cl  0  0  0  0  0  0  0  0  0  0  0  0
   -2.1310   24.0830  -28.9040 C   0  0  0  0  0  0  0  0  0  0  0  0
   -1.6880   25.2900  -29.3360 F   0  0  0  0  0  0  0  0  0  0  0  0
   -2.3463   22.7883  -32.3927 H   0  0  0  0  0  0  0  0  0  0  0  0
    1.0860   20.3910  -32.6670 H   0  0  0  0  0  0  0  0  0  0  0  0
   -1.1139   18.5696  -31.9728 H   0  0  0  0  0  0  0  0  0  0  0  0
    0.5265   18.2259  -32.6604 H   0  0  0  0  0  0  0  0  0  0  0  0
    0.4027   17.4977  -30.3134 H   0  0  0  0  0  0  0  0  0  0  0  0
    1.5543   18.8790  -30.5104 H   0  0  0  0  0  0  0  0  0  0  0  0
   -1.0505   18.7318  -29.0442 H   0  0  0  0  0  0  0  0  0  0  0  0
    0.4501   19.7115  -28.7235 H   0  0  0  0  0  0  0  0  0  0  0  0
   -1.9416   20.3577  -30.4490 H   0  0  0  0  0  0  0  0  0  0  0  0
   -1.0320   21.3844  -29.2700 H   0  0  0  0  0  0  0  0  0  0  0  0
   -0.6373   22.1056  -31.6051 H   0  0  0  0  0  0  0  0  0  0  0  0
    0.8737   21.4796  -30.8011 H   0  0  0  0  0  0  0  0  0  0  0  0
   -3.1944   18.8528  -33.9626 H   0  0  0  0  0  0  0  0  0  0  0  0
   -5.5862   19.1137  -33.3382 H   0  0  0  0  0  0  0  0  0  0  0  0
   -6.6048   23.3264  -31.8552 H   0  0  0  0  0  0  0  0  0  0  0  0
   -7.4587   22.8688  -33.3923 H   0  0  0  0  0  0  0  0  0  0  0  0
   -8.6094   23.5135  -30.8544 H   0  0  0  0  0  0  0  0  0  0  0  0
   -9.4244   22.9530  -32.3874 H   0  0  0  0  0  0  0  0  0  0  0  0
   -9.5728   19.5978  -31.5107 H   0  0  0  0  0  0  0  0  0  0  0  0
   -9.5796   20.8062  -32.8449 H   0  0  0  0  0  0  0  0  0  0  0  0
   -7.2550   19.3509  -31.5647 H   0  0  0  0  0  0  0  0  0  0  0  0
   -7.6097   19.6763  -33.3080 H   0  0  0  0  0  0  0  0  0  0  0  0
   -4.7253   21.8807  -29.2868 H   0  0  0  0  0  0  0  0  0  0  0  0
   -3.5387   20.7741  -27.3970 H   0  0  0  0  0  0  0  0  0  0  0  0
   -1.4419   21.7665  -26.4822 H   0  0  0  0  0  0  0  0  0  0  0  0
  1  2  2  0
  2  3  1  0
  3  4  1  0
  4  5  2  0
  5  6  1  0
  6  7  1  0
  7  8  2  0
  7  9  2  0
  7 10  1  0
 10 11  1  0
 11 12  1  0
 12 13  1  0
 13 14  1  0
 14 15  1  0
  6 16  2  0
 16 17  1  0
 17 18  2  0
 18 19  1  0
 19 20  1  0
 20 21  1  0
 21 22  1  0
 22 23  1  0
 23 24  1  0
  2 25  1  0
 25 26  2  0
 26 27  1  0
 27 28  2  0
 28 29  1  0
 29 30  1  0
 29 31  2  0
 31 32  1  0
 18  4  1  0
 24 19  1  0
 31 25  1  0
 15 10  1  0
  5 33  1  0
 10 34  1  0
 11 35  1  0
 11 36  1  0
 12 37  1  0
 12 38  1  0
 13 39  1  0
 13 40  1  0
 14 41  1  0
 14 42  1  0
 15 43  1  0
 15 44  1  0
 16 45  1  0
 17 46  1  0
 20 47  1  0
 20 48  1  0
 21 49  1  0
 21 50  1  0
 23 51  1  0
 23 52  1  0
 24 53  1  0
 24 54  1  0
 26 55  1  0
 27 56  1  0
 28 57  1  0
M  CHG  2   3  -1  10   1
M  END
>  <UniqueID>  (17) 
17

>  <SMILES>  (17) 
O=C([N-]c1cc(S(=O)(=O)[NH+]2CCCCC2)ccc1N1CCOCC1)c1cccc(Cl)c1F

>  <Energy>  (17) 
81.03573714464237

>  <Genealogy>  (17) 
O=C([N-]c1cc(S(=O)(=O)[NH+]2CCCCC2)ccc1N1CCOCC1)c1cccc(Cl)c1F (protonated)
O=C([N-]c1cc(S(=O)(=O)[NH+]2CCCCC2)ccc1N1CCOCC1)c1cccc(Cl)c1F (3D coordinates assigned)
O=C([N-]c1cc(S(=O)(=O)[NH+]2CCCCC2)ccc1N1CCOCC1)c1cccc(Cl)c1F (nonaromatic ring conformer: 81.03573714464237 kcal/mol)

>  <smiles>  (17) 
O=C(Nc1cc(S(=O)(=O)N2CCCCC2)ccc1N1CCOCC1)c1cccc(Cl)c1F

>  <score_type>  (17) 
oracle

>  <origin>  (17) 
adgpu

>  <m_score__min__energy>  (17) 
-10.130000000000001

>  <m_primary>  (17) 
energy

$$$$
17:0
     RDKit          3D

 47 48  0  0  0  0  0  0  0  0999 V2000
   -8.7620   18.5960  -31.6370 C   0  0  0  0  0  0  0  0  0  0  0  0
   -7.6660   18.5450  -32.6970 C   0  0  0  0  0  0  0  0  0  0  0  0
   -7.4490   19.8640  -33.2960 N   0  0  0  0  0  0  0  0  0  0  0  0
   -6.7720   20.9410  -32.6190 C   0  0  0  0  0  0  0  0  0  0  0  0
   -7.5220   21.8540  -31.8720 C   0  0  0  0  0  0  0  0  0  0  0  0
   -6.8980   22.9040  -31.2030 C   0  0  0  0  0  0  0  0  0  0  0  0
   -5.5060   23.0670  -31.2580 C   0  0  0  0  0  0  0  0  0  0  0  0
   -4.7800   24.4030  -30.3460 S   0  0  0  0  0  0  0  0  0  0  0  0
   -4.8190   25.6410  -31.1970 O   0  0  0  0  0  0  0  0  0  0  0  0
   -5.5540   24.6630  -29.0840 O   0  0  0  0  0  0  0  0  0  0  0  0
   -3.1340   24.0490  -29.9190 N   0  0  0  0  0  0  0  0  0  0  0  0
   -2.7580   23.0430  -28.9600 C   0  0  0  0  0  0  0  0  0  0  0  0
   -3.4490   21.8170  -28.9120 C   0  0  0  0  0  0  0  0  0  0  0  0
   -3.0970   20.8340  -27.9860 C   0  0  0  0  0  0  0  0  0  0  0  0
   -2.0630   21.0660  -27.0820 C   0  0  0  0  0  0  0  0  0  0  0  0
   -1.3780   22.2810  -27.1000 C   0  0  0  0  0  0  0  0  0  0  0  0
   -1.7110   23.2770  -28.0320 C   0  0  0  0  0  0  0  0  0  0  0  0
   -0.7920   24.7910  -28.0240 S   0  0  0  0  0  0  0  0  0  0  0  0
   -1.5940   25.9980  -28.9670 N   0  0  0  0  0  0  0  0  0  0  0  0
   -0.6560   25.3040  -26.6180 O   0  0  0  0  0  0  0  0  0  0  0  0
    0.5730   24.5480  -28.6050 O   0  0  0  0  0  0  0  0  0  0  0  0
   -4.7250   22.1550  -32.0140 C   0  0  0  0  0  0  0  0  0  0  0  0
   -3.2910   22.3120  -32.1090 N   0  0  0  0  0  0  0  0  0  0  0  0
   -2.3560   21.2450  -32.4770 C   0  0  0  0  0  0  0  0  0  0  0  0
   -1.1330   21.2450  -31.5640 C   0  0  0  0  0  0  0  0  0  0  0  0
   -5.3770   21.1010  -32.6910 C   0  0  0  0  0  0  0  0  0  0  0  0
   -8.3056   18.5748  -30.6364 H   0  0  0  0  0  0  0  0  0  0  0  0
   -9.3436   19.5222  -31.7552 H   0  0  0  0  0  0  0  0  0  0  0  0
   -9.4271   17.7278  -31.7552 H   0  0  0  0  0  0  0  0  0  0  0  0
   -6.7302   18.2043  -32.2299 H   0  0  0  0  0  0  0  0  0  0  0  0
   -7.9787   17.8490  -33.4893 H   0  0  0  0  0  0  0  0  0  0  0  0
   -7.8110   20.0420  -34.2610 H   0  0  0  0  0  0  0  0  0  0  0  0
   -8.6147   21.7421  -31.8121 H   0  0  0  0  0  0  0  0  0  0  0  0
   -7.5051   23.6152  -30.6236 H   0  0  0  0  0  0  0  0  0  0  0  0
   -2.4020   24.6000  -30.4160 H   0  0  0  0  0  0  0  0  0  0  0  0
   -4.2763   21.6318  -29.6129 H   0  0  0  0  0  0  0  0  0  0  0  0
   -3.6364   19.8755  -27.9700 H   0  0  0  0  0  0  0  0  0  0  0  0
   -1.7863   20.2901  -26.3530 H   0  0  0  0  0  0  0  0  0  0  0  0
   -0.5688   22.4606  -26.3768 H   0  0  0  0  0  0  0  0  0  0  0  0
   -1.5770   25.6730  -29.9600 H   0  0  0  0  0  0  0  0  0  0  0  0
   -2.8670   23.2510  -31.9480 H   0  0  0  0  0  0  0  0  0  0  0  0
   -2.8672   20.2747  -32.3923 H   0  0  0  0  0  0  0  0  0  0  0  0
   -2.0199   21.4169  -33.5102 H   0  0  0  0  0  0  0  0  0  0  0  0
   -0.8392   20.2079  -31.3447 H   0  0  0  0  0  0  0  0  0  0  0  0
   -0.3019   21.7635  -32.0644 H   0  0  0  0  0  0  0  0  0  0  0  0
   -1.3765   21.7635  -30.6249 H   0  0  0  0  0  0  0  0  0  0  0  0
   -4.7824   20.3920  -33.2857 H   0  0  0  0  0  0  0  0  0  0  0  0
  1  2  1  0
  2  3  1  0
  3  4  1  0
  4  5  2  0
  5  6  1  0
  6  7  2  0
  7  8  1  0
  8  9  2  0
  8 10  2  0
  8 11  1  0
 11 12  1  0
 12 13  2  0
 13 14  1  0
 14 15  2  0
 15 16  1  0
 16 17  2  0
 17 18  1  0
 18 19  1  0
 18 20  2  0
 18 21  2  0
  7 22  1  0
 22 23  1  0
 23 24  1  0
 24 25  1  0
 22 26  2  0
 26  4  1  0
 17 12  1  0
  1 27  1  0
  1 28  1  0
  1 29  1  0
  2 30  1  0
  2 31  1  0
  3 32  1  0
  5 33  1  0
  6 34  1  0
 11 35  1  0
 13 36  1  0
 14 37  1  0
 15 38  1  0
 16 39  1  0
 19 40  1  0
 23 41  1  0
 24 42  1  0
 24 43  1  0
 25 44  1  0
 25 45  1  0
 25 46  1  0
 26 47  1  0
M  CHG  1  19  -1
M  END
>  <UniqueID>  (18) 
18

>  <SMILES>  (18) 
CCNc1ccc(S(=O)(=O)Nc2ccccc2S([NH-])(=O)=O)c(NCC)c1

>  <Energy>  (18) 
45.55563480575108

>  <Genealogy>  (18) 
CCNc1ccc(S(=O)(=O)Nc2ccccc2S([NH-])(=O)=O)c(NCC)c1 (protonated)
CCNc1ccc(S(=O)(=O)Nc2ccccc2S([NH-])(=O)=O)c(NCC)c1 (3D coordinates assigned)
CCNc1ccc(S(=O)(=O)Nc2ccccc2S([NH-])(=O)=O)c(NCC)c1 (optimized conformer: 45.55563480575108 kcal/mol)

>  <smiles>  (18) 
CCNc1ccc(S(=O)(=O)Nc2ccccc2S(N)(=O)=O)c(NCC)c1

>  <score_type>  (18) 
oracle

>  <origin>  (18) 
adgpu

>  <m_score__min__energy>  (18) 
-11.1

>  <m_primary>  (18) 
energy

$$$$
18:0
     RDKit          3D

 49 52  0  0  0  0  0  0  0  0999 V2000
    1.0280   23.4090  -36.0800 C   0  0  0  0  0  0  0  0  0  0  0  0
    1.9740   22.3500  -35.5010 C   0  0  0  0  0  0  0  0  0  0  0  0
    1.2940   21.0990  -35.0990 N   0  0  0  0  0  0  0  0  0  0  0  0
   -0.0050   20.8810  -35.7780 C   0  0  0  0  0  0  0  0  0  0  0  0
   -0.9800   20.0670  -34.9280 C   0  0  0  0  0  0  0  0  0  0  0  0
   -1.1460   20.7300  -33.6300 N   0  0  0  0  0  0  0  0  0  0  0  0
   -2.4400   20.9480  -33.0310 C   0  0  0  0  0  0  0  0  0  0  0  0
   -3.5570   20.1420  -33.1790 C   0  0  0  0  0  0  0  0  0  0  0  0
   -4.5680   20.7590  -32.4690 C   0  0  0  0  0  0  0  0  0  0  0  0
   -5.9290   20.2110  -32.2850 C   0  0  0  0  0  0  0  0  0  0  0  0
   -6.1230   18.9270  -31.7500 C   0  0  0  0  0  0  0  0  0  0  0  0
   -7.4200   18.4300  -31.5980 C   0  0  0  0  0  0  0  0  0  0  0  0
   -8.4870   19.1840  -31.9760 N   0  0  0  0  0  0  0  0  0  0  0  0
   -8.3300   20.4240  -32.5110 C   0  0  0  0  0  0  0  0  0  0  0  0
   -7.0490   20.9560  -32.6830 C   0  0  0  0  0  0  0  0  0  0  0  0
   -4.0200   21.9250  -31.9380 C   0  0  0  0  0  0  0  0  0  0  0  0
   -4.7170   22.9800  -31.1690 C   0  0  0  0  0  0  0  0  0  0  0  0
   -4.2180   23.3710  -29.9180 C   0  0  0  0  0  0  0  0  0  0  0  0
   -4.8490   24.3850  -29.1890 C   0  0  0  0  0  0  0  0  0  0  0  0
   -5.9780   25.0260  -29.7100 C   0  0  0  0  0  0  0  0  0  0  0  0
   -6.5910   26.0390  -28.9750 O   0  0  0  0  0  0  0  0  0  0  0  0
   -6.4730   24.6510  -30.9630 C   0  0  0  0  0  0  0  0  0  0  0  0
   -5.8420   23.6400  -31.6950 C   0  0  0  0  0  0  0  0  0  0  0  0
   -2.7220   22.0350  -32.2840 N   0  0  0  0  0  0  0  0  0  0  0  0
    0.0510   21.1740  -32.9050 C   0  0  0  0  0  0  0  0  0  0  0  0
    1.3460   20.7970  -33.6490 C   0  0  0  0  0  0  0  0  0  0  0  0
    0.5409   23.9542  -35.2581 H   0  0  0  0  0  0  0  0  0  0  0  0
    1.6021   24.1145  -36.6986 H   0  0  0  0  0  0  0  0  0  0  0  0
    0.2624   22.9179  -36.6986 H   0  0  0  0  0  0  0  0  0  0  0  0
    2.7288   22.1053  -36.2628 H   0  0  0  0  0  0  0  0  0  0  0  0
    2.4187   22.7800  -34.5914 H   0  0  0  0  0  0  0  0  0  0  0  0
   -0.4582   21.8595  -35.9952 H   0  0  0  0  0  0  0  0  0  0  0  0
    0.1905   20.3126  -36.6993 H   0  0  0  0  0  0  0  0  0  0  0  0
   -1.9525   20.0055  -35.4384 H   0  0  0  0  0  0  0  0  0  0  0  0
   -0.5867   19.0504  -34.7799 H   0  0  0  0  0  0  0  0  0  0  0  0
   -3.6248   19.2021  -33.7464 H   0  0  0  0  0  0  0  0  0  0  0  0
   -5.2583   18.3158  -31.4522 H   0  0  0  0  0  0  0  0  0  0  0  0
   -7.5783   17.4281  -31.1723 H   0  0  0  0  0  0  0  0  0  0  0  0
   -9.2124   21.0094  -32.8089 H   0  0  0  0  0  0  0  0  0  0  0  0
   -6.9198   21.9536  -33.1281 H   0  0  0  0  0  0  0  0  0  0  0  0
   -3.3249   22.8774  -29.5073 H   0  0  0  0  0  0  0  0  0  0  0  0
   -4.4565   24.6787  -28.2043 H   0  0  0  0  0  0  0  0  0  0  0  0
   -6.0590   26.8040  -28.5840 H   0  0  0  0  0  0  0  0  0  0  0  0
   -7.3614   25.1527  -31.3741 H   0  0  0  0  0  0  0  0  0  0  0  0
   -6.2273   23.3598  -32.6865 H   0  0  0  0  0  0  0  0  0  0  0  0
    0.0122   22.2673  -32.7903 H   0  0  0  0  0  0  0  0  0  0  0  0
    0.0621   20.6727  -31.9259 H   0  0  0  0  0  0  0  0  0  0  0  0
    2.1809   21.3585  -33.2045 H   0  0  0  0  0  0  0  0  0  0  0  0
    1.4784   19.7099  -33.5456 H   0  0  0  0  0  0  0  0  0  0  0  0
  1  2  1  0
  2  3  1  0
  3  4  1  0
  4  5  1  0
  5  6  1  0
  6  7  1  0
  7  8  2  0
  8  9  1  0
  9 10  1  0
 10 11  2  0
 11 12  1  0
 12 13  2  0
 13 14  1  0
 14 15  2  0
  9 16  2  0
 16 17  1  0
 17 18  2  0
 18 19  1  0
 19 20  2  0
 20 21  1  0
 20 22  1  0
 22 23  2  0
 16 24  1  0
  6 25  1  0
 25 26  1  0
 26  3  1  0
 24  7  1  0
 15 10  1  0
 23 17  1  0
  1 27  1  0
  1 28  1  0
  1 29  1  0
  2 30  1  0
  2 31  1  0
  4 32  1  0
  4 33  1  0
  5 34  1  0
  5 35  1  0
  8 36  1  0
 11 37  1  0
 12 38  1  0
 14 39  1  0
 15 40  1  0
 18 41  1  0
 19 42  1  0
 21 43  1  0
 22 44  1  0
 23 45  1  0
 25 46  1  0
 25 47  1  0
 26 48  1  0
 26 49  1  0
M  CHG  1  24  -1
M  END
>  <UniqueID>  (19) 
19

>  <SMILES>  (19) 
CCN1CCN(c2cc(-c3ccncc3)c(-c3ccc(O)cc3)[n-]2)CC1

>  <Energy>  (19) 
96.0818228376927

>  <Genealogy>  (19) 
CCN1CCN(c2cc(-c3ccncc3)c(-c3ccc(O)cc3)[n-]2)CC1 (protonated)
CCN1CCN(c2cc(-c3ccncc3)c(-c3ccc(O)cc3)[n-]2)CC1 (3D coordinates assigned)
CCN1CCN(c2cc(-c3ccncc3)c(-c3ccc(O)cc3)[n-]2)CC1 (nonaromatic ring conformer: 96.0818228376927 kcal/mol)

>  <smiles>  (19) 
CCN1CCN(c2cc(-c3ccncc3)c(-c3ccc(O)cc3)[nH]2)CC1

>  <score_type>  (19) 
oracle

>  <origin>  (19) 
adgpu

>  <m_score__min__energy>  (19) 
-8.1600000000000001

>  <m_primary>  (19) 
energy

$$$$
19:0
     RDKit          3D

 40 42  0  0  0  0  0  0  0  0999 V2000
   -1.5450   19.2010  -34.1680 C   0  0  0  0  0  0  0  0  0  0  0  0
   -3.0040   19.1720  -33.8160 C   0  0  0  0  0  0  0  0  0  0  0  0
   -3.6580   20.3460  -33.4160 C   0  0  0  0  0  0  0  0  0  0  0  0
   -5.0250   20.3280  -33.1230 C   0  0  0  0  0  0  0  0  0  0  0  0
   -5.7600   19.1390  -33.2510 C   0  0  0  0  0  0  0  0  0  0  0  0
   -7.2220   19.1070  -32.9020 C   0  0  0  0  0  0  0  0  0  0  0  0
   -7.8610   20.3450  -33.3490 N   0  0  0  0  0  0  0  0  0  0  0  0
   -8.3610   21.2790  -31.9720 S   0  0  0  0  0  0  0  0  0  0  0  0
   -8.7310   20.3610  -30.8390 O   0  0  0  0  0  0  0  0  0  0  0  0
   -9.5680   22.0960  -32.3370 O   0  0  0  0  0  0  0  0  0  0  0  0
   -7.0620   22.3640  -31.4810 C   0  0  0  0  0  0  0  0  0  0  0  0
   -7.0250   23.6710  -31.9830 C   0  0  0  0  0  0  0  0  0  0  0  0
   -5.9950   24.5400  -31.6130 C   0  0  0  0  0  0  0  0  0  0  0  0
   -4.9850   24.1020  -30.7500 C   0  0  0  0  0  0  0  0  0  0  0  0
   -5.0060   22.7860  -30.2500 C   0  0  0  0  0  0  0  0  0  0  0  0
   -6.0540   21.9260  -30.6090 C   0  0  0  0  0  0  0  0  0  0  0  0
   -3.9730   22.3490  -29.2370 C   0  0  0  0  0  0  0  0  0  0  0  0
   -2.6140   23.0290  -29.4650 C   0  0  0  0  0  0  0  0  0  0  0  0
   -2.7830   24.5050  -29.6790 C   0  0  0  0  0  0  0  0  0  0  0  0
   -1.8900   25.3080  -29.3010 O   0  0  0  0  0  0  0  0  0  0  0  0
   -3.9250   24.9910  -30.3850 N   0  0  0  0  0  0  0  0  0  0  0  0
   -5.1050   17.9640  -33.6550 C   0  0  0  0  0  0  0  0  0  0  0  0
   -3.7390   17.9840  -33.9470 C   0  0  0  0  0  0  0  0  0  0  0  0
   -0.9455   19.2129  -33.2458 H   0  0  0  0  0  0  0  0  0  0  0  0
   -1.2923   18.3077  -34.7581 H   0  0  0  0  0  0  0  0  0  0  0  0
   -1.3280   20.1036  -34.7581 H   0  0  0  0  0  0  0  0  0  0  0  0
   -3.0927   21.2859  -33.3323 H   0  0  0  0  0  0  0  0  0  0  0  0
   -5.5264   21.2491  -32.7909 H   0  0  0  0  0  0  0  0  0  0  0  0
   -7.6983   18.2491  -33.3992 H   0  0  0  0  0  0  0  0  0  0  0  0
   -7.3352   19.0106  -31.8121 H   0  0  0  0  0  0  0  0  0  0  0  0
   -8.7300   20.0920  -33.8740 H   0  0  0  0  0  0  0  0  0  0  0  0
   -7.8105   24.0152  -32.6719 H   0  0  0  0  0  0  0  0  0  0  0  0
   -5.9785   25.5693  -32.0007 H   0  0  0  0  0  0  0  0  0  0  0  0
   -6.0858   20.9034  -30.2050 H   0  0  0  0  0  0  0  0  0  0  0  0
   -4.3333   22.6059  -28.2299 H   0  0  0  0  0  0  0  0  0  0  0  0
   -3.8306   21.2637  -29.3459 H   0  0  0  0  0  0  0  0  0  0  0  0
   -1.9762   22.8635  -28.5842 H   0  0  0  0  0  0  0  0  0  0  0  0
   -2.1497   22.5945  -30.3626 H   0  0  0  0  0  0  0  0  0  0  0  0
   -5.6700   17.0242  -33.7418 H   0  0  0  0  0  0  0  0  0  0  0  0
   -3.2372   17.0639  -34.2812 H   0  0  0  0  0  0  0  0  0  0  0  0
  1  2  1  0
  2  3  2  0
  3  4  1  0
  4  5  2  0
  5  6  1  0
  6  7  1  0
  7  8  1  0
  8  9  2  0
  8 10  2  0
  8 11  1  0
 11 12  2  0
 12 13  1  0
 13 14  2  0
 14 15  1  0
 15 16  2  0
 15 17  1  0
 17 18  1  0
 18 19  1  0
 19 20  2  0
 19 21  1  0
  5 22  1  0
 22 23  2  0
 23  2  1  0
 16 11  1  0
 21 14  1  0
  1 24  1  0
  1 25  1  0
  1 26  1  0
  3 27  1  0
  4 28  1  0
  6 29  1  0
  6 30  1  0
  7 31  1  0
 12 32  1  0
 13 33  1  0
 16 34  1  0
 17 35  1  0
 17 36  1  0
 18 37  1  0
 18 38  1  0
 22 39  1  0
 23 40  1  0
M  CHG  1  21  -1
M  END
>  <UniqueID>  (20) 
20

>  <SMILES>  (20) 
Cc1ccc(CNS(=O)(=O)c2ccc3c(c2)CCC(=O)[N-]3)cc1

>  <Energy>  (20) 
38.08535566607578

>  <Genealogy>  (20) 
Cc1ccc(CNS(=O)(=O)c2ccc3c(c2)CCC(=O)[N-]3)cc1 (protonated)
Cc1ccc(CNS(=O)(=O)c2ccc3c(c2)CCC(=O)[N-]3)cc1 (3D coordinates assigned)
Cc1ccc(CNS(=O)(=O)c2ccc3c(c2)CCC(=O)[N-]3)cc1 (nonaromatic ring conformer: 38.08535566607578 kcal/mol)

>  <smiles>  (20) 
Cc1ccc(CNS(=O)(=O)c2ccc3c(c2)CCC(=O)N3)cc1

>  <score_type>  (20) 
oracle

>  <origin>  (20) 
adgpu

>  <m_score__min__energy>  (20) 
-10.98

>  <m_primary>  (20) 
energy

$$$$
20:0
     RDKit          3D

 48 50  0  0  0  0  0  0  0  0999 V2000
   -3.9730   22.8400  -27.4870 C   0  0  0  0  0  0  0  0  0  0  0  0
   -4.2220   24.5370  -26.8800 S   0  0  0  0  0  0  0  0  0  0  0  0
   -2.4690   24.9390  -26.9200 C   0  0  0  0  0  0  0  0  0  0  0  0
   -1.7380   24.9090  -25.7260 C   0  0  0  0  0  0  0  0  0  0  0  0
   -0.3790   25.2280  -25.7250 C   0  0  0  0  0  0  0  0  0  0  0  0
    0.2530   25.5910  -26.9150 C   0  0  0  0  0  0  0  0  0  0  0  0
   -0.4680   25.6220  -28.1120 C   0  0  0  0  0  0  0  0  0  0  0  0
   -1.8310   25.2660  -28.1320 C   0  0  0  0  0  0  0  0  0  0  0  0
   -2.6010   25.2950  -29.3440 N   0  0  0  0  0  0  0  0  0  0  0  0
   -3.1500   24.1840  -30.0650 C   0  0  0  0  0  0  0  0  0  0  0  0
   -2.3700   23.2790  -30.4650 O   0  0  0  0  0  0  0  0  0  0  0  0
   -4.5910   24.0690  -30.3750 C   0  0  0  0  0  0  0  0  0  0  0  0
   -5.4430   25.0810  -29.9030 C   0  0  0  0  0  0  0  0  0  0  0  0
   -6.8070   25.0570  -30.1960 C   0  0  0  0  0  0  0  0  0  0  0  0
   -7.3400   24.0160  -30.9540 C   0  0  0  0  0  0  0  0  0  0  0  0
   -6.5140   22.9840  -31.4020 C   0  0  0  0  0  0  0  0  0  0  0  0
   -5.1410   22.9830  -31.1060 C   0  0  0  0  0  0  0  0  0  0  0  0
   -4.1850   21.5720  -31.6020 S   0  0  0  0  0  0  0  0  0  0  0  0
   -3.1740   21.9780  -32.6390 O   0  0  0  0  0  0  0  0  0  0  0  0
   -3.4520   21.0330  -30.4070 O   0  0  0  0  0  0  0  0  0  0  0  0
   -5.2020   20.3260  -32.3210 C   0  0  0  0  0  0  0  0  0  0  0  0
   -6.4550   20.0420  -31.7630 C   0  0  0  0  0  0  0  0  0  0  0  0
   -7.2500   19.0140  -32.2900 C   0  0  0  0  0  0  0  0  0  0  0  0
   -8.5960   18.7210  -31.6940 C   0  0  0  0  0  0  0  0  0  0  0  0
   -6.8030   18.3010  -33.4130 C   0  0  0  0  0  0  0  0  0  0  0  0
   -5.5650   18.6040  -33.9990 C   0  0  0  0  0  0  0  0  0  0  0  0
   -5.0630   17.8070  -35.1670 C   0  0  0  0  0  0  0  0  0  0  0  0
   -4.7650   19.6130  -33.4430 C   0  0  0  0  0  0  0  0  0  0  0  0
   -3.8726   22.1557  -26.6317 H   0  0  0  0  0  0  0  0  0  0  0  0
   -4.8366   22.5388  -28.0982 H   0  0  0  0  0  0  0  0  0  0  0  0
   -3.0593   22.7996  -28.0982 H   0  0  0  0  0  0  0  0  0  0  0  0
   -2.2366   24.6330  -24.7852 H   0  0  0  0  0  0  0  0  0  0  0  0
    0.1936   25.1932  -24.7864 H   0  0  0  0  0  0  0  0  0  0  0  0
    1.3212   25.8534  -26.9110 H   0  0  0  0  0  0  0  0  0  0  0  0
    0.0316   25.9261  -29.0437 H   0  0  0  0  0  0  0  0  0  0  0  0
   -5.0308   25.9007  -29.2963 H   0  0  0  0  0  0  0  0  0  0  0  0
   -7.4622   25.8605  -29.8284 H   0  0  0  0  0  0  0  0  0  0  0  0
   -8.4123   24.0077  -31.1993 H   0  0  0  0  0  0  0  0  0  0  0  0
   -6.9432   22.1620  -31.9937 H   0  0  0  0  0  0  0  0  0  0  0  0
   -6.8176   20.6289  -30.9062 H   0  0  0  0  0  0  0  0  0  0  0  0
   -8.5224   18.7370  -30.5966 H   0  0  0  0  0  0  0  0  0  0  0  0
   -9.3171   19.4832  -32.0243 H   0  0  0  0  0  0  0  0  0  0  0  0
   -8.9350   17.7280  -32.0243 H   0  0  0  0  0  0  0  0  0  0  0  0
   -7.4269   17.5000  -33.8362 H   0  0  0  0  0  0  0  0  0  0  0  0
   -4.5101   16.9292  -34.8014 H   0  0  0  0  0  0  0  0  0  0  0  0
   -5.9154   17.4751  -35.7779 H   0  0  0  0  0  0  0  0  0  0  0  0
   -4.3955   18.4324  -35.7779 H   0  0  0  0  0  0  0  0  0  0  0  0
   -3.7879   19.8453  -33.8917 H   0  0  0  0  0  0  0  0  0  0  0  0
  1  2  1  0
  2  3  1  0
  3  4  2  0
  4  5  1  0
  5  6  2  0
  6  7  1  0
  7  8  2  0
  8  9  1  0
  9 10  1  0
 10 11  2  0
 10 12  1  0
 12 13  2  0
 13 14  1  0
 14 15  2  0
 15 16  1  0
 16 17  2  0
 17 18  1  0
 18 19  2  0
 18 20  2  0
 18 21  1  0
 21 22  2  0
 22 23  1  0
 23 24  1  0
 23 25  2  0
 25 26  1  0
 26 27  1  0
 26 28  2  0
  8  3  1  0
 17 12  1  0
 28 21  1  0
  1 29  1  0
  1 30  1  0
  1 31  1  0
  4 32  1  0
  5 33  1  0
  6 34  1  0
  7 35  1  0
 13 36  1  0
 14 37  1  0
 15 38  1  0
 16 39  1  0
 22 40  1  0
 24 41  1  0
 24 42  1  0
 24 43  1  0
 25 44  1  0
 27 45  1  0
 27 46  1  0
 27 47  1  0
 28 48  1  0
M  CHG  1   9  -1
M  END
>  <UniqueID>  (21) 
21

>  <SMILES>  (21) 
CSc1ccccc1[N-]C(=O)c1ccccc1S(=O)(=O)c1cc(C)cc(C)c1

>  <Energy>  (21) 
55.794458008508684

>  <Genealogy>  (21) 
CSc1ccccc1[N-]C(=O)c1ccccc1S(=O)(=O)c1cc(C)cc(C)c1 (protonated)
CSc1ccccc1[N-]C(=O)c1ccccc1S(=O)(=O)c1cc(C)cc(C)c1 (3D coordinates assigned)
CSc1ccccc1[N-]C(=O)c1ccccc1S(=O)(=O)c1cc(C)cc(C)c1 (optimized conformer: 55.794458008508684 kcal/mol)

>  <smiles>  (21) 
CSc1ccccc1NC(=O)c1ccccc1S(=O)(=O)c1cc(C)cc(C)c1

>  <score_type>  (21) 
oracle

>  <origin>  (21) 
adgpu

>  <m_score__min__energy>  (21) 
-10.970000000000001

>  <m_primary>  (21) 
energy

$$$$
21:0
     RDKit          3D

 60 63  0  0  0  0  0  0  0  0999 V2000
   -0.8260   19.5870  -34.5460 C   0  0  0  0  0  0  0  0  0  0  0  0
   -1.4880   20.1160  -33.3190 C   0  0  0  0  0  0  0  0  0  0  0  0
   -1.5820   19.4600  -32.1090 C   0  0  0  0  0  0  0  0  0  0  0  0
   -2.2830   20.3080  -31.2780 C   0  0  0  0  0  0  0  0  0  0  0  0
   -2.5710   21.4260  -32.0380 C   0  0  0  0  0  0  0  0  0  0  0  0
   -3.3280   22.6340  -31.5760 C   0  0  0  0  0  0  0  0  0  0  0  0
   -4.8190   22.4310  -31.7260 C   0  0  0  0  0  0  0  0  0  0  0  0
   -5.2610   21.3420  -32.5010 C   0  0  0  0  0  0  0  0  0  0  0  0
   -6.6250   21.0790  -32.6710 C   0  0  0  0  0  0  0  0  0  0  0  0
   -7.0330   19.9400  -33.4480 N   0  0  0  0  0  0  0  0  0  0  0  0
   -6.4830   18.6190  -33.3000 C   0  0  0  0  0  0  0  0  0  0  0  0
   -6.3290   18.0760  -32.0180 C   0  0  0  0  0  0  0  0  0  0  0  0
   -5.7740   16.8040  -31.8490 C   0  0  0  0  0  0  0  0  0  0  0  0
   -5.3530   16.0650  -32.9620 C   0  0  0  0  0  0  0  0  0  0  0  0
   -4.6600   14.4550  -32.7460 S   0  0  0  0  0  0  0  0  0  0  0  0
   -5.3160   13.5050  -33.7110 O   0  0  0  0  0  0  0  0  0  0  0  0
   -4.9470   13.9720  -31.3510 O   0  0  0  0  0  0  0  0  0  0  0  0
   -2.9330   14.4560  -33.0170 N   0  0  0  0  0  0  0  0  0  0  0  0
   -2.4240   15.8390  -33.0720 C   0  0  0  0  0  0  0  0  0  0  0  0
   -0.9470   15.8720  -33.5190 C   0  0  0  0  0  0  0  0  0  0  0  0
   -0.1960   14.5740  -33.1770 C   0  0  0  0  0  0  0  0  0  0  0  0
   -0.7310   13.9490  -31.8870 C   0  0  0  0  0  0  0  0  0  0  0  0
   -2.2480   13.6630  -31.9690 C   0  0  0  0  0  0  0  0  0  0  0  0
   -5.4800   16.6140  -34.2450 C   0  0  0  0  0  0  0  0  0  0  0  0
   -6.0360   17.8860  -34.4140 C   0  0  0  0  0  0  0  0  0  0  0  0
   -7.5630   21.8910  -32.0220 C   0  0  0  0  0  0  0  0  0  0  0  0
   -7.1450   22.9730  -31.2480 C   0  0  0  0  0  0  0  0  0  0  0  0
   -5.7790   23.2580  -31.0870 C   0  0  0  0  0  0  0  0  0  0  0  0
   -5.3230   24.6660  -30.1090 S   0  0  0  0  0  0  0  0  0  0  0  0
   -3.8130   25.2960  -30.6630 N   0  0  0  0  0  0  0  0  0  0  0  0
   -6.3650   25.7420  -30.2290 O   0  0  0  0  0  0  0  0  0  0  0  0
   -5.2100   24.2730  -28.6640 O   0  0  0  0  0  0  0  0  0  0  0  0
   -2.0900   21.2810  -33.2520 O   0  0  0  0  0  0  0  0  0  0  0  0
    0.0034   18.9242  -34.2584 H   0  0  0  0  0  0  0  0  0  0  0  0
   -1.5572   19.0216  -35.1424 H   0  0  0  0  0  0  0  0  0  0  0  0
   -0.4359   20.4249  -35.1424 H   0  0  0  0  0  0  0  0  0  0  0  0
   -1.1810   18.4667  -31.8591 H   0  0  0  0  0  0  0  0  0  0  0  0
   -2.5565   20.1313  -30.2273 H   0  0  0  0  0  0  0  0  0  0  0  0
   -3.0954   22.8208  -30.5172 H   0  0  0  0  0  0  0  0  0  0  0  0
   -3.0278   23.4927  -32.1945 H   0  0  0  0  0  0  0  0  0  0  0  0
   -4.5206   20.6857  -32.9818 H   0  0  0  0  0  0  0  0  0  0  0  0
   -7.7810   20.0800  -34.1640 H   0  0  0  0  0  0  0  0  0  0  0  0
   -6.6470   18.6544  -31.1381 H   0  0  0  0  0  0  0  0  0  0  0  0
   -5.6676   16.3821  -30.8387 H   0  0  0  0  0  0  0  0  0  0  0  0
   -2.7770   13.9990  -33.9480 H   0  0  0  0  0  0  0  0  0  0  0  0
   -3.0285   16.4158  -33.7875 H   0  0  0  0  0  0  0  0  0  0  0  0
   -2.4934   16.2763  -32.0651 H   0  0  0  0  0  0  0  0  0  0  0  0
   -0.9119   16.0228  -34.6081 H   0  0  0  0  0  0  0  0  0  0  0  0
   -0.4540   16.6940  -32.9793 H   0  0  0  0  0  0  0  0  0  0  0  0
   -0.3230   13.8579  -34.0022 H   0  0  0  0  0  0  0  0  0  0  0  0
    0.8676   14.8146  -33.0326 H   0  0  0  0  0  0  0  0  0  0  0  0
   -0.2005   13.0030  -31.7039 H   0  0  0  0  0  0  0  0  0  0  0  0
   -0.5634   14.6637  -31.0678 H   0  0  0  0  0  0  0  0  0  0  0  0
   -2.3915   12.5947  -32.1884 H   0  0  0  0  0  0  0  0  0  0  0  0
   -2.6883   13.9475  -31.0019 H   0  0  0  0  0  0  0  0  0  0  0  0
   -5.1413   16.0427  -35.1219 H   0  0  0  0  0  0  0  0  0  0  0  0
   -6.1241   18.3153  -35.4229 H   0  0  0  0  0  0  0  0  0  0  0  0
   -8.6366   21.6740  -32.1233 H   0  0  0  0  0  0  0  0  0  0  0  0
   -7.8945   23.6114  -30.7573 H   0  0  0  0  0  0  0  0  0  0  0  0
   -4.0230   26.1750  -31.1900 H   0  0  0  0  0  0  0  0  0  0  0  0
  1  2  1  0
  2  3  2  0
  3  4  1  0
  4  5  2  0
  5  6  1  0
  6  7  1  0
  7  8  2  0
  8  9  1  0
  9 10  1  0
 10 11  1  0
 11 12  2  0
 12 13  1  0
 13 14  2  0
 14 15  1  0
 15 16  2  0
 15 17  2  0
 15 18  1  0
 18 19  1  0
 19 20  1  0
 20 21  1  0
 21 22  1  0
 22 23  1  0
 14 24  1  0
 24 25  2  0
  9 26  2  0
 26 27  1  0
 27 28  2  0
 28 29  1  0
 29 30  1  0
 29 31  2  0
 29 32  2  0
  5 33  1  0
 33  2  1  0
 28  7  1  0
 25 11  1  0
 23 18  1  0
  1 34  1  0
  1 35  1  0
  1 36  1  0
  3 37  1  0
  4 38  1  0
  6 39  1  0
  6 40  1  0
  8 41  1  0
 10 42  1  0
 12 43  1  0
 13 44  1  0
 18 45  1  0
 19 46  1  0
 19 47  1  0
 20 48  1  0
 20 49  1  0
 21 50  1  0
 21 51  1  0
 22 52  1  0
 22 53  1  0
 23 54  1  0
 23 55  1  0
 24 56  1  0
 25 57  1  0
 26 58  1  0
 27 59  1  0
 30 60  1  0
M  CHG  2  18   1  30  -1
M  END
>  <UniqueID>  (22) 
22

>  <SMILES>  (22) 
Cc1ccc(Cc2cc(Nc3ccc(S(=O)(=O)[NH+]4CCCCC4)cc3)ccc2S([NH-])(=O)=O)o1

>  <Energy>  (22) 
96.07024217130308

>  <Genealogy>  (22) 
Cc1ccc(Cc2cc(Nc3ccc(S(=O)(=O)[NH+]4CCCCC4)cc3)ccc2S([NH-])(=O)=O)o1 (protonated)
Cc1ccc(Cc2cc(Nc3ccc(S(=O)(=O)[NH+]4CCCCC4)cc3)ccc2S([NH-])(=O)=O)o1 (3D coordinates assigned)
Cc1ccc(Cc2cc(Nc3ccc(S(=O)(=O)[NH+]4CCCCC4)cc3)ccc2S([NH-])(=O)=O)o1 (nonaromatic ring conformer: 96.07024217130308 kcal/mol)

>  <smiles>  (22) 
Cc1ccc(Cc2cc(Nc3ccc(S(=O)(=O)N4CCCCC4)cc3)ccc2S(N)(=O)=O)o1

>  <score_type>  (22) 
oracle

>  <origin>  (22) 
adgpu

>  <m_score__min__energy>  (22) 
-11.73

>  <m_primary>  (22) 
energy

$$$$
22:0
     RDKit          3D

 38 39  0  0  0  0  0  0  0  0999 V2000
   -2.6440   23.8500  -28.2460 C   0  0  0  0  0  0  0  0  0  0  0  0
   -2.5090   24.8960  -29.3110 C   0  0  0  0  0  0  0  0  0  0  0  0
   -1.5190   25.6740  -29.2800 O   0  0  0  0  0  0  0  0  0  0  0  0
   -3.4920   25.0670  -30.3400 N   0  0  0  0  0  0  0  0  0  0  0  0
   -4.6640   24.2660  -30.5450 C   0  0  0  0  0  0  0  0  0  0  0  0
   -5.9290   24.6830  -30.1000 C   0  0  0  0  0  0  0  0  0  0  0  0
   -7.0480   23.8670  -30.2920 C   0  0  0  0  0  0  0  0  0  0  0  0
   -6.9130   22.6210  -30.9190 C   0  0  0  0  0  0  0  0  0  0  0  0
   -8.3290   21.6040  -31.1670 S   0  0  0  0  0  0  0  0  0  0  0  0
   -8.9370   21.9330  -32.5010 O   0  0  0  0  0  0  0  0  0  0  0  0
   -9.3440   21.8570  -30.0860 O   0  0  0  0  0  0  0  0  0  0  0  0
   -7.8640   19.9300  -31.1450 N   0  0  0  0  0  0  0  0  0  0  0  0
   -8.1460   19.3170  -32.4440 C   0  0  0  0  0  0  0  0  0  0  0  0
   -6.8590   18.9160  -33.0970 C   0  0  0  0  0  0  0  0  0  0  0  0
   -6.7720   17.7220  -33.8260 C   0  0  0  0  0  0  0  0  0  0  0  0
   -5.5520   17.3560  -34.3980 C   0  0  0  0  0  0  0  0  0  0  0  0
   -4.4330   18.1740  -34.2320 C   0  0  0  0  0  0  0  0  0  0  0  0
   -4.5500   19.3540  -33.4860 C   0  0  0  0  0  0  0  0  0  0  0  0
   -3.3650   20.2470  -33.2920 C   0  0  0  0  0  0  0  0  0  0  0  0
   -5.7500   19.6920  -32.9390 N   0  0  0  0  0  0  0  0  0  0  0  0
   -5.6450   22.1870  -31.3290 C   0  0  0  0  0  0  0  0  0  0  0  0
   -4.5260   23.0040  -31.1350 C   0  0  0  0  0  0  0  0  0  0  0  0
   -2.5827   24.3250  -27.2557 H   0  0  0  0  0  0  0  0  0  0  0  0
   -3.6149   23.3437  -28.3503 H   0  0  0  0  0  0  0  0  0  0  0  0
   -1.8334   23.1137  -28.3503 H   0  0  0  0  0  0  0  0  0  0  0  0
   -6.0400   25.6556  -29.5983 H   0  0  0  0  0  0  0  0  0  0  0  0
   -8.0376   24.2042  -29.9498 H   0  0  0  0  0  0  0  0  0  0  0  0
   -6.8290   19.9010  -30.9900 H   0  0  0  0  0  0  0  0  0  0  0  0
   -8.7770   18.4275  -32.3004 H   0  0  0  0  0  0  0  0  0  0  0  0
   -8.6721   20.0404  -33.0842 H   0  0  0  0  0  0  0  0  0  0  0  0
   -7.6566   17.0793  -33.9463 H   0  0  0  0  0  0  0  0  0  0  0  0
   -5.4727   16.4249  -34.9783 H   0  0  0  0  0  0  0  0  0  0  0  0
   -3.4691   17.8948  -34.6824 H   0  0  0  0  0  0  0  0  0  0  0  0
   -3.1820   20.3849  -32.2161 H   0  0  0  0  0  0  0  0  0  0  0  0
   -2.4804   19.7890  -33.7586 H   0  0  0  0  0  0  0  0  0  0  0  0
   -3.5615   21.2235  -33.7586 H   0  0  0  0  0  0  0  0  0  0  0  0
   -5.5294   21.2018  -31.8044 H   0  0  0  0  0  0  0  0  0  0  0  0
   -3.5317   22.6526  -31.4480 H   0  0  0  0  0  0  0  0  0  0  0  0
  1  2  1  0
  2  3  2  0
  2  4  1  0
  4  5  1  0
  5  6  2  0
  6  7  1  0
  7  8  2  0
  8  9  1  0
  9 10  2  0
  9 11  2  0
  9 12  1  0
 12 13  1  0
 13 14  1  0
 14 15  2  0
 15 16  1  0
 16 17  2  0
 17 18  1  0
 18 19  1  0
 18 20  2  0
  8 21  1  0
 21 22  2  0
 22  5  1  0
 20 14  1  0
  1 23  1  0
  1 24  1  0
  1 25  1  0
  6 26  1  0
  7 27  1  0
 12 28  1  0
 13 29  1  0
 13 30  1  0
 15 31  1  0
 16 32  1  0
 17 33  1  0
 19 34  1  0
 19 35  1  0
 19 36  1  0
 21 37  1  0
 22 38  1  0
M  CHG  1   4  -1
M  END
>  <UniqueID>  (23) 
23

>  <SMILES>  (23) 
CC(=O)[N-]c1ccc(S(=O)(=O)NCc2cccc(C)n2)cc1

>  <Energy>  (23) 
37.14430929721654

>  <Genealogy>  (23) 
CC(=O)[N-]c1ccc(S(=O)(=O)NCc2cccc(C)n2)cc1 (protonated)
CC(=O)[N-]c1ccc(S(=O)(=O)NCc2cccc(C)n2)cc1 (3D coordinates assigned)
CC(=O)[N-]c1ccc(S(=O)(=O)NCc2cccc(C)n2)cc1 (optimized conformer: 37.14430929721654 kcal/mol)

>  <smiles>  (23) 
CC(=O)Nc1ccc(S(=O)(=O)NCc2cccc(C)n2)cc1

>  <score_type>  (23) 
oracle

>  <origin>  (23) 
adgpu

>  <m_score__min__energy>  (23) 
-10.49

>  <m_primary>  (23) 
energy

$$$$
23:0
     RDKit          3D

 46 48  0  0  0  0  0  0  0  0999 V2000
   -4.0100   25.3500  -30.8230 O   0  0  0  0  0  0  0  0  0  0  0  0
   -3.4690   24.4640  -30.1110 C   0  0  0  0  0  0  0  0  0  0  0  0
   -3.2590   23.1630  -30.6780 N   0  0  0  0  0  0  0  0  0  0  0  0
   -4.2770   22.2690  -31.1490 C   0  0  0  0  0  0  0  0  0  0  0  0
   -5.4050   22.7350  -31.8460 C   0  0  0  0  0  0  0  0  0  0  0  0
   -6.3860   21.8380  -32.2790 C   0  0  0  0  0  0  0  0  0  0  0  0
   -6.2570   20.4690  -32.0110 C   0  0  0  0  0  0  0  0  0  0  0  0
   -7.5020   19.3330  -32.5300 S   0  0  0  0  0  0  0  0  0  0  0  0
   -7.9980   18.5510  -31.3460 O   0  0  0  0  0  0  0  0  0  0  0  0
   -8.6510   20.1150  -33.1010 O   0  0  0  0  0  0  0  0  0  0  0  0
   -6.8630   18.2480  -33.7450 N   0  0  0  0  0  0  0  0  0  0  0  0
   -5.7450   18.8970  -34.4620 C   0  0  0  0  0  0  0  0  0  0  0  0
   -4.3630   18.5750  -33.8660 C   0  0  0  0  0  0  0  0  0  0  0  0
   -3.7420   17.3210  -34.4980 C   0  0  0  0  0  0  0  0  0  0  0  0
   -4.3360   16.0130  -33.9620 C   0  0  0  0  0  0  0  0  0  0  0  0
   -5.8630   15.9280  -34.1090 C   0  0  0  0  0  0  0  0  0  0  0  0
   -6.5920   16.9100  -33.1670 C   0  0  0  0  0  0  0  0  0  0  0  0
   -5.1490   20.0080  -31.2880 C   0  0  0  0  0  0  0  0  0  0  0  0
   -4.1680   20.9040  -30.8550 C   0  0  0  0  0  0  0  0  0  0  0  0
   -3.1330   24.7660  -28.6970 C   0  0  0  0  0  0  0  0  0  0  0  0
   -3.9460   24.2740  -27.6590 C   0  0  0  0  0  0  0  0  0  0  0  0
   -3.6420   24.5580  -26.3250 C   0  0  0  0  0  0  0  0  0  0  0  0
   -2.5300   25.3420  -26.0120 C   0  0  0  0  0  0  0  0  0  0  0  0
   -1.7210   25.8450  -27.0320 C   0  0  0  0  0  0  0  0  0  0  0  0
   -2.0150   25.5630  -28.3710 C   0  0  0  0  0  0  0  0  0  0  0  0
   -1.1820   26.0650  -29.3660 O   0  0  0  0  0  0  0  0  0  0  0  0
   -5.5164   23.8098  -32.0516 H   0  0  0  0  0  0  0  0  0  0  0  0
   -7.2619   22.2083  -32.8319 H   0  0  0  0  0  0  0  0  0  0  0  0
   -5.7599   18.5590  -35.5087 H   0  0  0  0  0  0  0  0  0  0  0  0
   -5.8906   19.9836  -34.3719 H   0  0  0  0  0  0  0  0  0  0  0  0
   -3.6930   19.4297  -34.0408 H   0  0  0  0  0  0  0  0  0  0  0  0
   -4.4928   18.3846  -32.7904 H   0  0  0  0  0  0  0  0  0  0  0  0
   -3.9071   17.3597  -35.5848 H   0  0  0  0  0  0  0  0  0  0  0  0
   -2.6726   17.3223  -34.2404 H   0  0  0  0  0  0  0  0  0  0  0  0
   -3.8859   15.1744  -34.5135 H   0  0  0  0  0  0  0  0  0  0  0  0
   -4.1117   15.9728  -32.8859 H   0  0  0  0  0  0  0  0  0  0  0  0
   -6.1332   16.1666  -35.1483 H   0  0  0  0  0  0  0  0  0  0  0  0
   -6.1731   14.9073  -33.8405 H   0  0  0  0  0  0  0  0  0  0  0  0
   -7.5546   16.4596  -32.8831 H   0  0  0  0  0  0  0  0  0  0  0  0
   -5.9182   17.0746  -32.3133 H   0  0  0  0  0  0  0  0  0  0  0  0
   -5.0509   18.9363  -31.0603 H   0  0  0  0  0  0  0  0  0  0  0  0
   -3.3056   20.5353  -30.2802 H   0  0  0  0  0  0  0  0  0  0  0  0
   -4.8273   23.6613  -27.8996 H   0  0  0  0  0  0  0  0  0  0  0  0
   -4.2797   24.1633  -25.5203 H   0  0  0  0  0  0  0  0  0  0  0  0
   -2.2914   25.5633  -24.9612 H   0  0  0  0  0  0  0  0  0  0  0  0
   -0.8481   26.4661  -26.7823 H   0  0  0  0  0  0  0  0  0  0  0  0
  1  2  2  0
  2  3  1  0
  3  4  1  0
  4  5  2  0
  5  6  1  0
  6  7  2  0
  7  8  1  0
  8  9  2  0
  8 10  2  0
  8 11  1  0
 11 12  1  0
 12 13  1  0
 13 14  1  0
 14 15  1  0
 15 16  1  0
 16 17  1  0
  7 18  1  0
 18 19  2  0
  2 20  1  0
 20 21  2  0
 21 22  1  0
 22 23  2  0
 23 24  1  0
 24 25  2  0
 25 26  1  0
 19  4  1  0
 25 20  1  0
 17 11  1  0
  5 27  1  0
  6 28  1  0
 12 29  1  0
 12 30  1  0
 13 31  1  0
 13 32  1  0
 14 33  1  0
 14 34  1  0
 15 35  1  0
 15 36  1  0
 16 37  1  0
 16 38  1  0
 17 39  1  0
 17 40  1  0
 18 41  1  0
 19 42  1  0
 21 43  1  0
 22 44  1  0
 23 45  1  0
 24 46  1  0
M  CHG  2   3  -1  26  -1
M  END
>  <UniqueID>  (24) 
24

>  <SMILES>  (24) 
O=C([N-]c1ccc(S(=O)(=O)N2CCCCCC2)cc1)c1ccccc1[O-]

>  <Energy>  (24) 
60.8347024202853

>  <Genealogy>  (24) 
O=C([N-]c1ccc(S(=O)(=O)N2CCCCCC2)cc1)c1ccccc1[O-] (protonated)
O=C([N-]c1ccc(S(=O)(=O)N2CCCCCC2)cc1)c1ccccc1[O-] (3D coordinates assigned)
O=C([N-]c1ccc(S(=O)(=O)N2CCCCCC2)cc1)c1ccccc1[O-] (nonaromatic ring conformer: 60.8347024202853 kcal/mol)

>  <smiles>  (24) 
O=C(Nc1ccc(S(=O)(=O)N2CCCCCC2)cc1)c1ccccc1O

>  <score_type>  (24) 
oracle

>  <origin>  (24) 
adgpu

>  <m_score__min__energy>  (24) 
-10.640000000000001

>  <m_primary>  (24) 
energy

$$$$
24:0
     RDKit          3D

 54 57  0  0  0  0  0  0  0  0999 V2000
   -2.8480   16.2120  -33.1670 O   0  0  0  0  0  0  0  0  0  0  0  0
   -2.9560   17.6010  -33.7300 S   0  0  0  0  0  0  0  0  0  0  0  0
   -2.8400   17.5210  -35.2270 O   0  0  0  0  0  0  0  0  0  0  0  0
   -1.6670   18.5770  -33.0980 N   0  0  0  0  0  0  0  0  0  0  0  0
   -1.6200   19.8530  -33.8070 C   0  0  0  0  0  0  0  0  0  0  0  0
   -2.5370   20.8200  -33.1360 C   0  0  0  0  0  0  0  0  0  0  0  0
   -2.7450   20.9590  -31.7820 C   0  0  0  0  0  0  0  0  0  0  0  0
   -3.6840   21.9100  -31.6510 N   0  0  0  0  0  0  0  0  0  0  0  0
   -4.1890   22.4700  -30.4030 C   0  0  0  0  0  0  0  0  0  0  0  0
   -3.0500   23.0530  -29.6080 C   0  0  0  0  0  0  0  0  0  0  0  0
   -2.2390   22.2090  -28.8310 C   0  0  0  0  0  0  0  0  0  0  0  0
   -1.1540   22.7260  -28.1170 C   0  0  0  0  0  0  0  0  0  0  0  0
   -0.3670   21.8710  -27.3480 O   0  0  0  0  0  0  0  0  0  0  0  0
   -0.8660   24.0960  -28.1820 C   0  0  0  0  0  0  0  0  0  0  0  0
   -1.6570   24.9390  -28.9640 C   0  0  0  0  0  0  0  0  0  0  0  0
   -2.7410   24.4250  -29.6830 C   0  0  0  0  0  0  0  0  0  0  0  0
   -3.5020   25.2820  -30.4710 O   0  0  0  0  0  0  0  0  0  0  0  0
   -4.0280   22.3340  -32.8570 N   0  0  0  0  0  0  0  0  0  0  0  0
   -3.3510   21.6760  -33.7860 N   0  0  0  0  0  0  0  0  0  0  0  0
   -4.5150   18.2850  -33.2730 C   0  0  0  0  0  0  0  0  0  0  0  0
   -5.2590   19.0050  -34.2170 C   0  0  0  0  0  0  0  0  0  0  0  0
   -6.5190   19.5110  -33.8840 C   0  0  0  0  0  0  0  0  0  0  0  0
   -7.0460   19.2990  -32.6020 C   0  0  0  0  0  0  0  0  0  0  0  0
   -8.6410   19.9070  -32.1710 S   0  0  0  0  0  0  0  0  0  0  0  0
   -9.6160   19.6330  -33.2830 O   0  0  0  0  0  0  0  0  0  0  0  0
   -9.1080   19.2040  -30.9270 O   0  0  0  0  0  0  0  0  0  0  0  0
   -8.5430   21.6230  -31.8710 N   0  0  0  0  0  0  0  0  0  0  0  0
   -8.4940   21.9190  -30.4340 C   0  0  0  0  0  0  0  0  0  0  0  0
   -7.4780   23.0410  -30.2240 C   0  0  0  0  0  0  0  0  0  0  0  0
   -6.9820   23.3980  -31.6100 C   0  0  0  0  0  0  0  0  0  0  0  0
   -7.3280   22.1910  -32.4530 C   0  0  0  0  0  0  0  0  0  0  0  0
   -6.3000   18.5820  -31.6560 C   0  0  0  0  0  0  0  0  0  0  0  0
   -5.0410   18.0750  -31.9910 C   0  0  0  0  0  0  0  0  0  0  0  0
   -0.5929   20.2465  -33.7890 H   0  0  0  0  0  0  0  0  0  0  0  0
   -1.9348   19.7080  -34.8510 H   0  0  0  0  0  0  0  0  0  0  0  0
   -2.2449   20.4050  -30.9739 H   0  0  0  0  0  0  0  0  0  0  0  0
   -4.9204   23.2605  -30.6269 H   0  0  0  0  0  0  0  0  0  0  0  0
   -4.6715   21.6742  -29.8166 H   0  0  0  0  0  0  0  0  0  0  0  0
   -2.4596   21.1324  -28.7841 H   0  0  0  0  0  0  0  0  0  0  0  0
    0.5020   21.4890  -27.7040 H   0  0  0  0  0  0  0  0  0  0  0  0
   -0.0165   24.5069  -27.6167 H   0  0  0  0  0  0  0  0  0  0  0  0
   -1.4267   26.0134  -29.0151 H   0  0  0  0  0  0  0  0  0  0  0  0
   -4.8501   19.1728  -35.2243 H   0  0  0  0  0  0  0  0  0  0  0  0
   -7.0980   20.0764  -34.6290 H   0  0  0  0  0  0  0  0  0  0  0  0
   -9.4857   22.2416  -30.0841 H   0  0  0  0  0  0  0  0  0  0  0  0
   -8.2011   21.0234  -29.8664 H   0  0  0  0  0  0  0  0  0  0  0  0
   -7.9572   23.9107  -29.7507 H   0  0  0  0  0  0  0  0  0  0  0  0
   -6.6559   22.7304  -29.5624 H   0  0  0  0  0  0  0  0  0  0  0  0
   -7.4928   24.2962  -31.9873 H   0  0  0  0  0  0  0  0  0  0  0  0
   -5.9062   23.6270  -31.6254 H   0  0  0  0  0  0  0  0  0  0  0  0
   -7.5092   22.4928  -33.4952 H   0  0  0  0  0  0  0  0  0  0  0  0
   -6.5070   21.4589  -32.4616 H   0  0  0  0  0  0  0  0  0  0  0  0
   -6.7065   18.4179  -30.6471 H   0  0  0  0  0  0  0  0  0  0  0  0
   -4.4615   17.5096  -31.2463 H   0  0  0  0  0  0  0  0  0  0  0  0
  1  2  2  0
  2  3  2  0
  2  4  1  0
  4  5  1  0
  5  6  1  0
  6  7  2  0
  7  8  1  0
  8  9  1  0
  9 10  1  0
 10 11  2  0
 11 12  1  0
 12 13  1  0
 12 14  2  0
 14 15  1  0
 15 16  2  0
 16 17  1  0
  8 18  1  0
 18 19  2  0
  2 20  1  0
 20 21  2  0
 21 22  1  0
 22 23  2  0
 23 24  1  0
 24 25  2  0
 24 26  2  0
 24 27  1  0
 27 28  1  0
 28 29  1  0
 29 30  1  0
 30 31  1  0
 23 32  1  0
 32 33  2  0
 19  6  1  0
 33 20  1  0
 16 10  1  0
 31 27  1  0
  5 34  1  0
  5 35  1  0
  7 36  1  0
  9 37  1  0
  9 38  1  0
 11 39  1  0
 13 40  1  0
 14 41  1  0
 15 42  1  0
 21 43  1  0
 22 44  1  0
 28 45  1  0
 28 46  1  0
 29 47  1  0
 29 48  1  0
 30 49  1  0
 30 50  1  0
 31 51  1  0
 31 52  1  0
 32 53  1  0
 33 54  1  0
M  CHG  2   4  -1  17  -1
M  END
>  <UniqueID>  (25) 
25

>  <SMILES>  (25) 
O=S(=O)([N-]Cc1cn(Cc2cc(O)ccc2[O-])nn1)c1ccc(S(=O)(=O)N2CCCC2)cc1

>  <Energy>  (25) 
88.60700402374896

>  <Genealogy>  (25) 
O=S(=O)([N-]Cc1cn(Cc2cc(O)ccc2[O-])nn1)c1ccc(S(=O)(=O)N2CCCC2)cc1 (protonated)
O=S(=O)([N-]Cc1cn(Cc2cc(O)ccc2[O-])nn1)c1ccc(S(=O)(=O)N2CCCC2)cc1 (3D coordinates assigned)
O=S(=O)([N-]Cc1cn(Cc2cc(O)ccc2[O-])nn1)c1ccc(S(=O)(=O)N2CCCC2)cc1 (nonaromatic ring conformer: 88.60700402374896 kcal/mol)

>  <smiles>  (25) 
O=S(=O)(NCc1cn(Cc2cc(O)ccc2O)nn1)c1ccc(S(=O)(=O)N2CCCC2)cc1

>  <score_type>  (25) 
oracle

>  <origin>  (25) 
adgpu

>  <m_score__min__energy>  (25) 
-14.24

>  <m_primary>  (25) 
energy

$$$$
25:0
     RDKit          3D

 41 42  0  0  1  0  0  0  0  0999 V2000
   -3.5300   16.2630  -34.3160 C   0  0  0  0  0  0  0  0  0  0  0  0
   -3.6000   17.5400  -34.8620 O   0  0  0  0  0  0  0  0  0  0  0  0
   -3.7930   18.7290  -34.1990 C   0  0  0  0  0  0  0  0  0  0  0  0
   -2.7750   19.5670  -33.8080 C   0  0  0  0  0  0  0  0  0  0  0  0
   -3.0180   20.7700  -33.1340 C   0  0  0  0  0  0  0  0  0  0  0  0
   -4.3120   21.1790  -32.8230 C   0  0  0  0  0  0  0  0  0  0  0  0
   -4.5360   22.4360  -32.1210 C   0  0  0  0  0  0  0  0  0  0  0  0
   -3.6240   22.8500  -31.1690 C   0  0  0  0  0  0  0  0  0  0  0  0
   -3.7830   24.0470  -30.4610 C   0  0  0  0  0  0  0  0  0  0  0  0
   -2.9160   24.4060  -29.5810 N   0  0  0  0  0  0  0  0  0  0  0  0
   -1.7680   23.6390  -29.2700 C   0  0  0  0  0  0  0  0  0  0  0  0
   -0.7050   24.5800  -28.7360 C   0  0  0  0  0  0  0  0  0  0  0  0
   -1.0710   25.9180  -28.9290 O   0  0  0  0  0  0  0  0  0  0  0  0
   -4.8530   24.7950  -30.7300 N   0  0  0  0  0  0  0  0  0  0  0  0
   -5.7670   24.4170  -31.6580 C   0  0  0  0  0  0  0  0  0  0  0  0
   -5.5820   23.2450  -32.3300 N   0  0  0  0  0  0  0  0  0  0  0  0
   -5.3190   20.3300  -33.2210 C   0  0  0  0  0  0  0  0  0  0  0  0
   -6.6200   20.5960  -32.9900 F   0  0  0  0  0  0  0  0  0  0  0  0
   -5.0740   19.1280  -33.8950 C   0  0  0  0  0  0  0  0  0  0  0  0
   -6.1560   18.2740  -34.2900 N   0  0  0  0  0  0  0  0  0  0  0  0
   -6.8010   17.1770  -33.1060 S   0  0  0  0  0  0  0  0  0  0  0  0
   -8.1710   17.9070  -32.2520 C   0  0  0  0  0  0  0  0  0  0  0  0
   -5.7290   16.7270  -32.1430 O   0  0  0  0  0  0  0  0  0  0  0  0
   -7.2630   15.9280  -33.8360 O   0  0  0  0  0  0  0  0  0  0  0  0
   -3.5338   16.3329  -33.2182 H   0  0  0  0  0  0  0  0  0  0  0  0
   -4.3972   15.6738  -34.6489 H   0  0  0  0  0  0  0  0  0  0  0  0
   -2.6036   15.7721  -34.6489 H   0  0  0  0  0  0  0  0  0  0  0  0
   -1.7362   19.2830  -34.0320 H   0  0  0  0  0  0  0  0  0  0  0  0
   -2.1683   21.4056  -32.8440 H   0  0  0  0  0  0  0  0  0  0  0  0
   -2.7466   22.2199  -30.9613 H   0  0  0  0  0  0  0  0  0  0  0  0
   -2.0174   22.8865  -28.5074 H   0  0  0  0  0  0  0  0  0  0  0  0
   -1.4016   23.1191  -30.1675 H   0  0  0  0  0  0  0  0  0  0  0  0
   -0.5707   24.3962  -27.6598 H   0  0  0  0  0  0  0  0  0  0  0  0
    0.2320   24.3927  -29.2809 H   0  0  0  0  0  0  0  0  0  0  0  0
   -1.6170   26.0400  -29.7520 H   0  0  0  0  0  0  0  0  0  0  0  0
   -6.6447   25.0467  -31.8655 H   0  0  0  0  0  0  0  0  0  0  0  0
   -6.3180   23.0290  -33.0160 H   0  0  0  0  0  0  0  0  0  0  0  0
   -6.5380   18.3210  -35.2710 H   0  0  0  0  0  0  0  0  0  0  0  0
   -8.0134   17.8230  -31.1666 H   0  0  0  0  0  0  0  0  0  0  0  0
   -8.2528   18.9683  -32.5296 H   0  0  0  0  0  0  0  0  0  0  0  0
   -9.0975   17.3830  -32.5296 H   0  0  0  0  0  0  0  0  0  0  0  0
  1  2  1  0
  2  3  1  0
  3  4  2  0
  4  5  1  0
  5  6  2  0
  6  7  1  0
  7  8  2  0
  8  9  1  0
  9 10  2  0
 10 11  1  0
 11 12  1  0
 12 13  1  0
  9 14  1  0
 14 15  2  0
 15 16  1  0
  6 17  1  0
 17 18  1  0
 17 19  2  0
 19 20  1  0
 20 21  1  0
 21 22  1  0
 21 23  2  0
 21 24  2  0
 19  3  1  0
 16  7  1  0
  1 25  1  0
  1 26  1  0
  1 27  1  0
  4 28  1  0
  5 29  1  0
  8 30  1  0
 11 31  1  0
 11 32  1  0
 12 33  1  0
 12 34  1  0
 13 35  1  0
 15 36  1  0
 16 37  1  0
 20 38  1  0
 22 39  1  0
 22 40  1  0
 22 41  1  0
M  END
>  <smiles>  (26) 
COc1ccc(-c2cc(=NCCO)nc[nH]2)c(F)c1NS(C)(=O)=O

>  <score_type>  (26) 
oracle

>  <origin>  (26) 
adgpu

>  <m_score__min__energy>  (26) 
-7.8200000000000003

>  <m_primary>  (26) 
energy

$$$$
26:0
     RDKit          3D

 81 85  0  0  1  0  0  0  0  0999 V2000
   -1.6270   19.6930  -26.5600 C   0  0  0  0  0  0  0  0  0  0  0  0
   -1.3330   20.8760  -25.7950 N   0  0  0  0  0  0  0  0  0  0  0  0
   -0.3180   21.8980  -26.7220 S   0  0  0  0  0  0  0  0  0  0  0  0
    0.6430   21.0890  -27.5590 O   0  0  0  0  0  0  0  0  0  0  0  0
    0.5080   22.6990  -25.7580 O   0  0  0  0  0  0  0  0  0  0  0  0
   -1.2930   22.9350  -27.7370 C   0  0  0  0  0  0  0  0  0  0  0  0
   -1.0890   24.2950  -27.8170 C   0  0  0  0  0  0  0  0  0  0  0  0
   -1.9100   25.0330  -28.6440 C   0  0  0  0  0  0  0  0  0  0  0  0
   -2.9210   24.4980  -29.3960 C   0  0  0  0  0  0  0  0  0  0  0  0
   -3.7680   25.1550  -30.2310 O   0  0  0  0  0  0  0  0  0  0  0  0
   -5.1310   25.1350  -30.3780 C   0  0  0  0  0  0  0  0  0  0  0  0
   -5.7020   24.5410  -31.6160 C   0  0  0  0  0  0  0  0  0  0  0  0
   -6.6180   23.4740  -31.4330 N   0  0  0  0  0  0  0  0  0  0  0  0
   -7.7470   23.4100  -32.2850 C   0  0  0  0  0  0  0  0  0  0  0  0
   -8.4700   22.1580  -31.7730 C   0  0  0  0  0  0  0  0  0  0  0  0
   -7.9910   22.0120  -30.3500 C   0  0  0  0  0  0  0  0  0  0  0  0
   -7.0680   23.2160  -30.1110 C   0  0  0  0  0  0  0  0  0  0  0  0
   -3.0940   23.1100  -29.2850 C   0  0  0  0  0  0  0  0  0  0  0  0
   -4.1380   22.4650  -30.0450 N   0  0  0  0  0  0  0  0  0  0  0  0
   -3.7590   21.7920  -31.0800 C   0  0  0  0  0  0  0  0  0  0  0  0
   -4.6670   21.1410  -31.8720 C   0  0  0  0  0  0  0  0  0  0  0  0
   -4.2690   20.4170  -32.9800 C   0  0  0  0  0  0  0  0  0  0  0  0
   -5.2430   19.7090  -33.8430 C   0  0  0  0  0  0  0  0  0  0  0  0
   -2.9460   20.3780  -33.2490 N   0  0  0  0  0  0  0  0  0  0  0  0
   -2.0270   21.0050  -32.4940 C   0  0  0  0  0  0  0  0  0  0  0  0
   -0.7550   20.9520  -32.7740 N   0  0  0  0  0  0  0  0  0  0  0  0
   -0.3250   20.2120  -33.9100 C   0  0  0  0  0  0  0  0  0  0  0  0
    0.4580   20.8480  -34.8500 C   0  0  0  0  0  0  0  0  0  0  0  0
    0.9140   20.1970  -35.9770 C   0  0  0  0  0  0  0  0  0  0  0  0
    0.5560   18.8610  -36.1410 C   0  0  0  0  0  0  0  0  0  0  0  0
    1.0410   18.2190  -37.3060 N   0  0  0  0  0  0  0  0  0  0  0  0
    0.7400   16.8080  -37.5410 C   0  0  0  0  0  0  0  0  0  0  0  0
    0.9980   16.5650  -39.0340 C   0  0  0  0  0  0  0  0  0  0  0  0
    2.3050   16.7990  -39.3950 O   0  0  0  0  0  0  0  0  0  0  0  0
    2.9070   17.8490  -38.7390 C   0  0  0  0  0  0  0  0  0  0  0  0
    1.8460   18.8750  -38.3180 C   0  0  0  0  0  0  0  0  0  0  0  0
   -0.2240   18.1960  -35.2210 C   0  0  0  0  0  0  0  0  0  0  0  0
   -0.6770   18.8740  -34.0830 C   0  0  0  0  0  0  0  0  0  0  0  0
   -1.4580   18.2220  -33.1560 O   0  0  0  0  0  0  0  0  0  0  0  0
   -1.1470   16.9960  -32.5640 C   0  0  0  0  0  0  0  0  0  0  0  0
   -2.4530   21.7050  -31.4150 N   0  0  0  0  0  0  0  0  0  0  0  0
   -2.2940   22.3420  -28.4700 C   0  0  0  0  0  0  0  0  0  0  0  0
   -1.8349   18.8566  -25.8765 H   0  0  0  0  0  0  0  0  0  0  0  0
   -2.5071   19.8757  -27.1941 H   0  0  0  0  0  0  0  0  0  0  0  0
   -0.7638   19.4425  -27.1941 H   0  0  0  0  0  0  0  0  0  0  0  0
   -0.8940   20.6490  -24.8810 H   0  0  0  0  0  0  0  0  0  0  0  0
   -0.2912   24.7804  -27.2358 H   0  0  0  0  0  0  0  0  0  0  0  0
   -1.7419   26.1185  -28.7029 H   0  0  0  0  0  0  0  0  0  0  0  0
   -5.5412   24.5704  -29.5277 H   0  0  0  0  0  0  0  0  0  0  0  0
   -5.4116   26.1971  -30.4344 H   0  0  0  0  0  0  0  0  0  0  0  0
   -6.2231   25.3408  -32.1627 H   0  0  0  0  0  0  0  0  0  0  0  0
   -4.8475   24.1065  -32.1556 H   0  0  0  0  0  0  0  0  0  0  0  0
   -8.3772   24.3054  -32.1797 H   0  0  0  0  0  0  0  0  0  0  0  0
   -7.4911   23.3655  -33.3539 H   0  0  0  0  0  0  0  0  0  0  0  0
   -9.5608   22.2963  -31.8055 H   0  0  0  0  0  0  0  0  0  0  0  0
   -8.2566   21.2682  -32.3835 H   0  0  0  0  0  0  0  0  0  0  0  0
   -8.8413   22.0333  -29.6525 H   0  0  0  0  0  0  0  0  0  0  0  0
   -7.4712   21.0564  -30.1869 H   0  0  0  0  0  0  0  0  0  0  0  0
   -7.6196   24.0728  -29.6968 H   0  0  0  0  0  0  0  0  0  0  0  0
   -6.2630   23.0350  -29.3835 H   0  0  0  0  0  0  0  0  0  0  0  0
   -5.7365   21.1955  -31.6208 H   0  0  0  0  0  0  0  0  0  0  0  0
   -5.9727   19.1785  -33.2136 H   0  0  0  0  0  0  0  0  0  0  0  0
   -5.7678   20.4379  -34.4781 H   0  0  0  0  0  0  0  0  0  0  0  0
   -4.7116   18.9849  -34.4781 H   0  0  0  0  0  0  0  0  0  0  0  0
   -2.6710   19.8270  -34.0900 H   0  0  0  0  0  0  0  0  0  0  0  0
    0.7263   21.9037  -34.6968 H   0  0  0  0  0  0  0  0  0  0  0  0
    1.5384   20.7146  -36.7201 H   0  0  0  0  0  0  0  0  0  0  0  0
    1.3962   16.1701  -36.9307 H   0  0  0  0  0  0  0  0  0  0  0  0
   -0.2971   16.5654  -37.2660 H   0  0  0  0  0  0  0  0  0  0  0  0
    0.7510   15.5188  -39.2675 H   0  0  0  0  0  0  0  0  0  0  0  0
    0.3680   17.2690  -39.5975 H   0  0  0  0  0  0  0  0  0  0  0  0
    3.4257   17.4721  -37.8452 H   0  0  0  0  0  0  0  0  0  0  0  0
    3.6315   18.3307  -39.4121 H   0  0  0  0  0  0  0  0  0  0  0  0
    2.3257   19.7735  -37.9027 H   0  0  0  0  0  0  0  0  0  0  0  0
    1.2351   19.1996  -39.1733 H   0  0  0  0  0  0  0  0  0  0  0  0
   -0.4890   17.1402  -35.3792 H   0  0  0  0  0  0  0  0  0  0  0  0
   -1.1734   17.1002  -31.4693 H   0  0  0  0  0  0  0  0  0  0  0  0
   -1.8819   16.2402  -32.8782 H   0  0  0  0  0  0  0  0  0  0  0  0
   -0.1407   16.6819  -32.8782 H   0  0  0  0  0  0  0  0  0  0  0  0
   -1.7200   22.1770  -30.8520 H   0  0  0  0  0  0  0  0  0  0  0  0
   -2.4550   21.2558  -28.4051 H   0  0  0  0  0  0  0  0  0  0  0  0
  1  2  1  0
  2  3  1  0
  3  4  2  0
  3  5  2  0
  3  6  1  0
  6  7  2  0
  7  8  1  0
  8  9  2  0
  9 10  1  0
 10 11  1  0
 11 12  1  0
 12 13  1  0
 13 14  1  0
 14 15  1  0
 15 16  1  0
 16 17  1  0
  9 18  1  0
 18 19  1  0
 19 20  2  0
 20 21  1  0
 21 22  2  0
 22 23  1  0
 22 24  1  0
 24 25  1  0
 25 26  2  0
 26 27  1  0
 27 28  2  0
 28 29  1  0
 29 30  2  0
 30 31  1  0
 31 32  1  0
 32 33  1  0
 33 34  1  0
 34 35  1  0
 35 36  1  0
 30 37  1  0
 37 38  2  0
 38 39  1  0
 39 40  1  0
 25 41  1  0
 18 42  2  0
 42  6  1  0
 17 13  1  0
 41 20  1  0
 38 27  1  0
 36 31  1  0
  1 43  1  0
  1 44  1  0
  1 45  1  0
  2 46  1  0
  7 47  1  0
  8 48  1  0
 11 49  1  0
 11 50  1  0
 12 51  1  0
 12 52  1  0
 14 53  1  0
 14 54  1  0
 15 55  1  0
 15 56  1  0
 16 57  1  0
 16 58  1  0
 17 59  1  0
 17 60  1  0
 21 61  1  0
 23 62  1  0
 23 63  1  0
 23 64  1  0
 24 65  1  0
 28 66  1  0
 29 67  1  0
 32 68  1  0
 32 69  1  0
 33 70  1  0
 33 71  1  0
 35 72  1  0
 35 73  1  0
 36 74  1  0
 36 75  1  0
 37 76  1  0
 40 77  1  0
 40 78  1  0
 40 79  1  0
 41 80  1  0
 42 81  1  0
M  END
>  <smiles>  (27) 
CNS(=O)(=O)c1ccc(OCCN2CCCC2)c(N=c2cc(C)[nH]c(=Nc3ccc(N4CCOCC4)cc3OC)[nH]2)c1

>  <score_type>  (27) 
oracle

>  <origin>  (27) 
adgpu

>  <m_score__min__energy>  (27) 
-11.029999999999999

>  <m_primary>  (27) 
energy

$$$$
27:0
     RDKit          3D

 43 45  0  0  0  0  0  0  0  0999 V2000
   -5.9846   26.0742  -30.1051 H   0  0  0  0  0  0  0  0  0  0  0  0
   -5.8860   25.0470  -30.4860 C   0  0  0  0  0  0  0  0  0  0  0  0
   -7.0290   24.2840  -30.7280 C   0  0  0  0  0  0  0  0  0  0  0  0
   -8.0243   24.7088  -30.5305 H   0  0  0  0  0  0  0  0  0  0  0  0
   -6.9120   22.9780  -31.2220 C   0  0  0  0  0  0  0  0  0  0  0  0
   -8.3570   22.0200  -31.5500 S   0  0  0  0  0  0  0  0  0  0  0  0
   -9.3930   22.8960  -32.1980 O   0  0  0  0  0  0  0  0  0  0  0  0
   -8.9220   21.5210  -30.2490 O   0  0  0  0  0  0  0  0  0  0  0  0
   -8.0150   20.6580  -32.5970 N   0  0  0  0  0  0  0  0  0  0  0  0
   -7.6910   21.0370  -33.5170 H   0  0  0  0  0  0  0  0  0  0  0  0
   -9.2020   19.8150  -32.7960 C   0  0  0  0  0  0  0  0  0  0  0  0
  -10.1116   20.3948  -32.5804 H   0  0  0  0  0  0  0  0  0  0  0  0
   -9.2498   19.4632  -33.8371 H   0  0  0  0  0  0  0  0  0  0  0  0
   -9.1060   18.6320  -31.8430 C   0  0  0  0  0  0  0  0  0  0  0  0
   -9.8121   18.7549  -31.0086 H   0  0  0  0  0  0  0  0  0  0  0  0
   -9.3581   17.6870  -32.3465 H   0  0  0  0  0  0  0  0  0  0  0  0
   -7.6780   18.6250  -31.3290 C   0  0  0  0  0  0  0  0  0  0  0  0
   -7.6628   18.7673  -30.2384 H   0  0  0  0  0  0  0  0  0  0  0  0
   -7.1772   17.6682  -31.5379 H   0  0  0  0  0  0  0  0  0  0  0  0
   -6.9810   19.7860  -32.0250 C   0  0  0  0  0  0  0  0  0  0  0  0
   -6.3777   20.3494  -31.2979 H   0  0  0  0  0  0  0  0  0  0  0  0
   -6.3145   19.4129  -32.8166 H   0  0  0  0  0  0  0  0  0  0  0  0
   -5.6410   22.4400  -31.4610 C   0  0  0  0  0  0  0  0  0  0  0  0
   -5.5482   21.4155  -31.8506 H   0  0  0  0  0  0  0  0  0  0  0  0
   -4.4820   23.1960  -31.2080 C   0  0  0  0  0  0  0  0  0  0  0  0
   -3.1460   22.6170  -31.4910 C   0  0  0  0  0  0  0  0  0  0  0  0
   -2.1870   22.8750  -30.7180 O   0  0  0  0  0  0  0  0  0  0  0  0
   -2.8870   21.8240  -32.6610 N   0  0  0  0  0  0  0  0  0  0  0  0
   -3.3260   20.6190  -32.8770 C   0  0  0  0  0  0  0  0  0  0  0  0
   -4.0420   19.8920  -31.9980 N   0  0  0  0  0  0  0  0  0  0  0  0
   -4.2750   18.7320  -32.5920 N   0  0  0  0  0  0  0  0  0  0  0  0
   -3.6820   18.8000  -33.8000 C   0  0  0  0  0  0  0  0  0  0  0  0
   -3.7240   17.7080  -34.8160 C   0  0  0  0  0  0  0  0  0  0  0  0
   -2.7252   17.5745  -35.2570 H   0  0  0  0  0  0  0  0  0  0  0  0
   -4.4360   17.9662  -35.6137 H   0  0  0  0  0  0  0  0  0  0  0  0
   -4.1260   16.5140  -34.1820 O   0  0  0  0  0  0  0  0  0  0  0  0
   -5.5330   16.4250  -34.2070 C   0  0  0  0  0  0  0  0  0  0  0  0
   -5.9172   16.4007  -33.1766 H   0  0  0  0  0  0  0  0  0  0  0  0
   -5.9464   17.2988  -34.7320 H   0  0  0  0  0  0  0  0  0  0  0  0
   -5.8330   15.5061  -34.7320 H   0  0  0  0  0  0  0  0  0  0  0  0
   -3.0970   19.9590  -33.9840 O   0  0  0  0  0  0  0  0  0  0  0  0
   -4.6160   24.5130  -30.7250 C   0  0  0  0  0  0  0  0  0  0  0  0
   -3.4940   25.2930  -30.4640 O   0  0  0  0  0  0  0  0  0  0  0  0
  1  2  1  0
  2  3  2  0
  3  4  1  0
  3  5  1  0
  5  6  1  0
  6  7  2  0
  6  8  2  0
  6  9  1  0
  9 10  1  0
  9 11  1  0
 11 12  1  0
 11 13  1  0
 11 14  1  0
 14 15  1  0
 14 16  1  0
 14 17  1  0
 17 18  1  0
 17 19  1  0
 17 20  1  0
 20 21  1  0
 20 22  1  0
  5 23  2  0
 23 24  1  0
 23 25  1  0
 25 26  1  0
 26 27  2  0
 26 28  1  0
 28 29  2  0
 29 30  1  0
 30 31  1  0
 31 32  2  0
 32 33  1  0
 33 34  1  0
 33 35  1  0
 33 36  1  0
 36 37  1  0
 37 38  1  0
 37 39  1  0
 37 40  1  0
 32 41  1  0
 25 42  2  0
 42 43  1  0
 42  2  1  0
 20  9  1  0
 41 29  1  0
M  CHG  3   9   1  30  -1  43  -1
M  END
>  <UniqueID>  (28) 
26

>  <SMILES>  (28) 
COCc1n[n-]/c(=N\C(=O)c2cc(S(=O)(=O)[NH+]3CCCC3)ccc2[O-])o1

>  <Energy>  (28) 
87.051482983271

>  <Genealogy>  (28) 
COCc1n[n-]c(=NC(=O)c2cc(S(=O)(=O)[NH+]3CCCC3)ccc2[O-])o1 (protonated)
COCc1n[n-]/c(=N\C(=O)c2cc(S(=O)(=O)[NH+]3CCCC3)ccc2[O-])o1 (cis-trans isomerization)
COCc1n[n-]/c(=N\C(=O)c2cc(S(=O)(=O)[NH+]3CCCC3)ccc2[O-])o1 (3D coordinates assigned)
COCc1n[n-]/c(=N\C(=O)c2cc(S(=O)(=O)[NH+]3CCCC3)ccc2[O-])o1 (nonaromatic ring conformer: 87.051482983271 kcal/mol)

>  <smiles>  (28) 
COCc1n[nH]c(=NC(=O)c2cc(S(=O)(=O)N3CCCC3)ccc2O)o1

>  <score_type>  (28) 
oracle

>  <origin>  (28) 
adgpu

>  <m_score__min__energy>  (28) 
-11.640000000000001

>  <m_primary>  (28) 
energy

$$$$
28:0
     RDKit          3D

 49 51  0  0  0  0  0  0  0  0999 V2000
   -0.8850   26.6730  -28.0160 C   0  0  0  0  0  0  0  0  0  0  0  0
   -1.5130   25.8150  -28.9640 O   0  0  0  0  0  0  0  0  0  0  0  0
   -1.3960   24.4150  -28.9740 C   0  0  0  0  0  0  0  0  0  0  0  0
   -0.3150   23.7580  -28.3500 C   0  0  0  0  0  0  0  0  0  0  0  0
   -0.1950   22.3680  -28.4250 C   0  0  0  0  0  0  0  0  0  0  0  0
   -1.1420   21.6200  -29.1250 C   0  0  0  0  0  0  0  0  0  0  0  0
   -2.2220   22.2580  -29.7380 C   0  0  0  0  0  0  0  0  0  0  0  0
   -2.3740   23.6470  -29.6440 C   0  0  0  0  0  0  0  0  0  0  0  0
   -3.4970   24.2570  -30.2960 N   0  0  0  0  0  0  0  0  0  0  0  0
   -4.5510   23.5600  -30.9700 C   0  0  0  0  0  0  0  0  0  0  0  0
   -4.3490   23.1490  -32.1430 O   0  0  0  0  0  0  0  0  0  0  0  0
   -5.8100   23.3180  -30.3160 N   0  0  0  0  0  0  0  0  0  0  0  0
   -6.9620   22.7740  -30.9790 C   0  0  0  0  0  0  0  0  0  0  0  0
   -7.9980   23.6350  -31.3690 C   0  0  0  0  0  0  0  0  0  0  0  0
   -9.1300   23.1300  -32.0140 C   0  0  0  0  0  0  0  0  0  0  0  0
   -9.2450   21.7610  -32.2590 C   0  0  0  0  0  0  0  0  0  0  0  0
   -8.2330   20.8840  -31.8450 C   0  0  0  0  0  0  0  0  0  0  0  0
   -8.3930   19.1580  -32.1550 S   0  0  0  0  0  0  0  0  0  0  0  0
   -9.6680   18.9220  -32.9170 O   0  0  0  0  0  0  0  0  0  0  0  0
   -8.4660   18.4040  -30.8550 O   0  0  0  0  0  0  0  0  0  0  0  0
   -7.0270   18.6000  -33.0910 N   0  0  0  0  0  0  0  0  0  0  0  0
   -6.5050   19.6760  -33.9720 C   0  0  0  0  0  0  0  0  0  0  0  0
   -5.2360   20.3410  -33.4200 C   0  0  0  0  0  0  0  0  0  0  0  0
   -4.1120   19.3110  -33.2150 C   0  0  0  0  0  0  0  0  0  0  0  0
   -4.6450   17.9100  -32.8660 C   0  0  0  0  0  0  0  0  0  0  0  0
   -6.0180   17.9970  -32.1910 C   0  0  0  0  0  0  0  0  0  0  0  0
   -7.0950   21.3920  -31.2010 C   0  0  0  0  0  0  0  0  0  0  0  0
   -1.1310   26.3369  -26.9979 H   0  0  0  0  0  0  0  0  0  0  0  0
    0.2052   26.6418  -28.1590 H   0  0  0  0  0  0  0  0  0  0  0  0
   -1.2443   27.7028  -28.1590 H   0  0  0  0  0  0  0  0  0  0  0  0
    0.4377   24.3432  -27.8013 H   0  0  0  0  0  0  0  0  0  0  0  0
    0.6479   21.8624  -27.9311 H   0  0  0  0  0  0  0  0  0  0  0  0
   -1.0377   20.5271  -29.1940 H   0  0  0  0  0  0  0  0  0  0  0  0
   -2.9592   21.6651  -30.2992 H   0  0  0  0  0  0  0  0  0  0  0  0
   -5.9410   23.6730  -29.3420 H   0  0  0  0  0  0  0  0  0  0  0  0
   -7.9191   24.7132  -31.1661 H   0  0  0  0  0  0  0  0  0  0  0  0
   -9.9324   23.8132  -32.3294 H   0  0  0  0  0  0  0  0  0  0  0  0
  -10.1320   21.3692  -32.7783 H   0  0  0  0  0  0  0  0  0  0  0  0
   -6.2736   19.2420  -34.9559 H   0  0  0  0  0  0  0  0  0  0  0  0
   -7.2812   20.4526  -34.0379 H   0  0  0  0  0  0  0  0  0  0  0  0
   -4.8946   21.1079  -34.1309 H   0  0  0  0  0  0  0  0  0  0  0  0
   -5.4754   20.7935  -32.4464 H   0  0  0  0  0  0  0  0  0  0  0  0
   -3.5241   19.2427  -34.1422 H   0  0  0  0  0  0  0  0  0  0  0  0
   -3.4989   19.6531  -32.3682 H   0  0  0  0  0  0  0  0  0  0  0  0
   -4.7350   17.3191  -33.7894 H   0  0  0  0  0  0  0  0  0  0  0  0
   -3.9416   17.4311  -32.1689 H   0  0  0  0  0  0  0  0  0  0  0  0
   -6.3454   16.9839  -31.9146 H   0  0  0  0  0  0  0  0  0  0  0  0
   -5.9250   18.6349  -31.2997 H   0  0  0  0  0  0  0  0  0  0  0  0
   -6.3026   20.7056  -30.8680 H   0  0  0  0  0  0  0  0  0  0  0  0
  1  2  1  0
  2  3  1  0
  3  4  2  0
  4  5  1  0
  5  6  2  0
  6  7  1  0
  7  8  2  0
  8  9  1  0
  9 10  1  0
 10 11  2  0
 10 12  1  0
 12 13  1  0
 13 14  2  0
 14 15  1  0
 15 16  2  0
 16 17  1  0
 17 18  1  0
 18 19  2  0
 18 20  2  0
 18 21  1  0
 21 22  1  0
 22 23  1  0
 23 24  1  0
 24 25  1  0
 25 26  1  0
 17 27  2  0
  8  3  1  0
 27 13  1  0
 26 21  1  0
  1 28  1  0
  1 29  1  0
  1 30  1  0
  4 31  1  0
  5 32  1  0
  6 33  1  0
  7 34  1  0
 12 35  1  0
 14 36  1  0
 15 37  1  0
 16 38  1  0
 22 39  1  0
 22 40  1  0
 23 41  1  0
 23 42  1  0
 24 43  1  0
 24 44  1  0
 25 45  1  0
 25 46  1  0
 26 47  1  0
 26 48  1  0
 27 49  1  0
M  CHG  1   9  -1
M  END
>  <UniqueID>  (29) 
27

>  <SMILES>  (29) 
COc1ccccc1[N-]C(=O)Nc1cccc(S(=O)(=O)N2CCCCC2)c1

>  <Energy>  (29) 
63.53549021788815

>  <Genealogy>  (29) 
COc1ccccc1[N-]C(=O)Nc1cccc(S(=O)(=O)N2CCCCC2)c1 (protonated)
COc1ccccc1[N-]C(=O)Nc1cccc(S(=O)(=O)N2CCCCC2)c1 (3D coordinates assigned)
COc1ccccc1[N-]C(=O)Nc1cccc(S(=O)(=O)N2CCCCC2)c1 (nonaromatic ring conformer: 63.53549021788815 kcal/mol)

>  <smiles>  (29) 
COc1ccccc1NC(=O)Nc1cccc(S(=O)(=O)N2CCCCC2)c1

>  <score_type>  (29) 
oracle

>  <origin>  (29) 
adgpu

>  <m_score__min__energy>  (29) 
-11.27

>  <m_primary>  (29) 
energy

$$$$
29:0
     RDKit          3D

 44 46  0  0  0  0  0  0  0  0999 V2000
   -9.2732   21.9912  -32.2863 H   0  0  0  0  0  0  0  0  0  0  0  0
   -8.2580   22.2550  -31.9550 C   0  0  0  0  0  0  0  0  0  0  0  0
   -7.9850   23.5560  -31.5290 C   0  0  0  0  0  0  0  0  0  0  0  0
   -8.7900   24.3054  -31.5101 H   0  0  0  0  0  0  0  0  0  0  0  0
   -6.6840   23.9150  -31.1230 C   0  0  0  0  0  0  0  0  0  0  0  0
   -6.3770   25.2180  -30.6970 O   0  0  0  0  0  0  0  0  0  0  0  0
   -6.4940   25.6790  -29.3560 C   0  0  0  0  0  0  0  0  0  0  0  0
   -6.2837   24.8504  -28.6638 H   0  0  0  0  0  0  0  0  0  0  0  0
   -5.7738   26.4924  -29.1838 H   0  0  0  0  0  0  0  0  0  0  0  0
   -7.5149   26.0506  -29.1838 H   0  0  0  0  0  0  0  0  0  0  0  0
   -5.6620   22.9470  -31.1540 C   0  0  0  0  0  0  0  0  0  0  0  0
   -4.0120   23.3800  -30.6870 S   0  0  0  0  0  0  0  0  0  0  0  0
   -3.0640   22.7240  -31.6510 O   0  0  0  0  0  0  0  0  0  0  0  0
   -3.8520   24.8730  -30.7710 O   0  0  0  0  0  0  0  0  0  0  0  0
   -3.6720   22.8400  -29.0550 N   0  0  0  0  0  0  0  0  0  0  0  0
   -4.2360   23.7610  -28.0330 C   0  0  0  0  0  0  0  0  0  0  0  0
   -4.8125   24.5409  -28.5521 H   0  0  0  0  0  0  0  0  0  0  0  0
   -4.8561   23.1477  -27.3626 H   0  0  0  0  0  0  0  0  0  0  0  0
   -3.1780   24.4490  -27.1510 C   0  0  0  0  0  0  0  0  0  0  0  0
   -3.6353   25.3127  -26.6462 H   0  0  0  0  0  0  0  0  0  0  0  0
   -2.8103   23.7239  -26.4101 H   0  0  0  0  0  0  0  0  0  0  0  0
   -2.0000   24.9280  -27.9940 C   0  0  0  0  0  0  0  0  0  0  0  0
   -2.3559   25.6948  -28.6978 H   0  0  0  0  0  0  0  0  0  0  0  0
   -1.2386   25.3349  -27.3123 H   0  0  0  0  0  0  0  0  0  0  0  0
   -1.3560   23.7800  -28.7940 C   0  0  0  0  0  0  0  0  0  0  0  0
   -1.1634   24.1319  -29.8183 H   0  0  0  0  0  0  0  0  0  0  0  0
   -0.4283   23.4979  -28.2746 H   0  0  0  0  0  0  0  0  0  0  0  0
   -2.2430   22.5230  -28.8660 C   0  0  0  0  0  0  0  0  0  0  0  0
   -1.9061   21.9033  -29.7101 H   0  0  0  0  0  0  0  0  0  0  0  0
   -2.1457   21.9943  -27.9063 H   0  0  0  0  0  0  0  0  0  0  0  0
   -5.9460   21.6460  -31.5950 C   0  0  0  0  0  0  0  0  0  0  0  0
   -5.1382   20.9016  -31.6523 H   0  0  0  0  0  0  0  0  0  0  0  0
   -7.2520   21.2850  -31.9640 C   0  0  0  0  0  0  0  0  0  0  0  0
   -7.5640   19.9650  -32.4370 N   0  0  0  0  0  0  0  0  0  0  0  0
   -6.7420   19.1460  -33.0290 C   0  0  0  0  0  0  0  0  0  0  0  0
   -5.4220   19.4530  -33.1690 N   0  0  0  0  0  0  0  0  0  0  0  0
   -4.5550   18.5880  -33.7560 C   0  0  0  0  0  0  0  0  0  0  0  0
   -2.8620   19.0130  -33.9040 Cl  0  0  0  0  0  0  0  0  0  0  0  0
   -5.0140   17.3570  -34.2210 C   0  0  0  0  0  0  0  0  0  0  0  0
   -4.3262   16.6447  -34.7003 H   0  0  0  0  0  0  0  0  0  0  0  0
   -6.3640   17.0490  -34.0650 C   0  0  0  0  0  0  0  0  0  0  0  0
   -6.7529   16.0844  -34.4231 H   0  0  0  0  0  0  0  0  0  0  0  0
   -7.2010   17.9410  -33.4700 N   0  0  0  0  0  0  0  0  0  0  0  0
   -8.2100   17.6880  -33.3550 H   0  0  0  0  0  0  0  0  0  0  0  0
  1  2  1  0
  2  3  2  0
  3  4  1  0
  3  5  1  0
  5  6  1  0
  6  7  1  0
  7  8  1  0
  7  9  1  0
  7 10  1  0
  5 11  2  0
 11 12  1  0
 12 13  2  0
 12 14  2  0
 12 15  1  0
 15 16  1  0
 16 17  1  0
 16 18  1  0
 16 19  1  0
 19 20  1  0
 19 21  1  0
 19 22  1  0
 22 23  1  0
 22 24  1  0
 22 25  1  0
 25 26  1  0
 25 27  1  0
 25 28  1  0
 28 29  1  0
 28 30  1  0
 11 31  1  0
 31 32  1  0
 31 33  2  0
 33 34  1  0
 34 35  2  0
 35 36  1  0
 36 37  2  0
 37 38  1  0
 37 39  1  0
 39 40  1  0
 39 41  2  0
 41 42  1  0
 41 43  1  0
 43 44  1  0
 33  2  1  0
 43 35  1  0
 28 15  1  0
M  END
>  <UniqueID>  (30) 
28

>  <SMILES>  (30) 
COc1ccc(/N=c2\nc(Cl)cc[nH]2)cc1S(=O)(=O)N1CCCCC1

>  <Energy>  (30) 
58.02350222663239

>  <Genealogy>  (30) 
COc1ccc(/N=c2\nc(Cl)cc[nH]2)cc1S(=O)(=O)N1CCCCC1 (cis-trans isomerization)
COc1ccc(/N=c2\nc(Cl)cc[nH]2)cc1S(=O)(=O)N1CCCCC1 (3D coordinates assigned)
COc1ccc(/N=c2\nc(Cl)cc[nH]2)cc1S(=O)(=O)N1CCCCC1 (nonaromatic ring conformer: 58.02350222663239 kcal/mol)

>  <smiles>  (30) 
COc1ccc(N=c2nc(Cl)cc[nH]2)cc1S(=O)(=O)N1CCCCC1

>  <score_type>  (30) 
oracle

>  <origin>  (30) 
adgpu

>  <m_score__min__energy>  (30) 
-9.1300000000000008

>  <m_primary>  (30) 
energy

$$$$
30:0
     RDKit          3D

 60 63  0  0  0  0  0  0  0  0999 V2000
   -9.7770   21.8720  -30.8750 C   0  0  0  0  0  0  0  0  0  0  0  0
   -9.4820   20.5510  -31.3170 O   0  0  0  0  0  0  0  0  0  0  0  0
   -8.2450   20.1510  -31.8450 C   0  0  0  0  0  0  0  0  0  0  0  0
   -7.4390   21.0110  -32.6160 C   0  0  0  0  0  0  0  0  0  0  0  0
   -6.2130   20.5650  -33.1200 C   0  0  0  0  0  0  0  0  0  0  0  0
   -5.7810   19.2540  -32.8710 C   0  0  0  0  0  0  0  0  0  0  0  0
   -4.4740   18.7890  -33.3920 C   0  0  0  0  0  0  0  0  0  0  0  0
   -3.3740   19.6290  -33.2310 C   0  0  0  0  0  0  0  0  0  0  0  0
   -2.1060   19.2180  -33.6140 C   0  0  0  0  0  0  0  0  0  0  0  0
   -1.0100   20.1260  -33.4290 N   0  0  0  0  0  0  0  0  0  0  0  0
   -0.2230   20.2550  -32.2370 C   0  0  0  0  0  0  0  0  0  0  0  0
    1.0030   20.5320  -32.3120 O   0  0  0  0  0  0  0  0  0  0  0  0
   -0.8020   19.9810  -30.9590 N   0  0  0  0  0  0  0  0  0  0  0  0
   -1.5550   20.9230  -30.1820 C   0  0  0  0  0  0  0  0  0  0  0  0
   -1.3960   20.9170  -28.7970 C   0  0  0  0  0  0  0  0  0  0  0  0
   -2.0800   21.8330  -28.0040 C   0  0  0  0  0  0  0  0  0  0  0  0
   -2.9620   22.7510  -28.5800 C   0  0  0  0  0  0  0  0  0  0  0  0
   -3.7320   23.9030  -27.4940 Cl  0  0  0  0  0  0  0  0  0  0  0  0
   -3.1610   22.7620  -29.9820 C   0  0  0  0  0  0  0  0  0  0  0  0
   -4.3790   23.8340  -30.7170 S   0  0  0  0  0  0  0  0  0  0  0  0
   -4.6640   23.4120  -32.1310 O   0  0  0  0  0  0  0  0  0  0  0  0
   -3.8590   25.2440  -30.7730 O   0  0  0  0  0  0  0  0  0  0  0  0
   -5.8930   23.7240  -29.7650 C   0  0  0  0  0  0  0  0  0  0  0  0
   -6.7590   24.9750  -29.7300 C   0  0  0  0  0  0  0  0  0  0  0  0
   -7.1540   23.8000  -30.6100 C   0  0  0  0  0  0  0  0  0  0  0  0
   -2.3780   21.8950  -30.7880 C   0  0  0  0  0  0  0  0  0  0  0  0
   -2.3500   22.0100  -32.1800 O   0  0  0  0  0  0  0  0  0  0  0  0
   -1.9500   17.9620  -34.2240 C   0  0  0  0  0  0  0  0  0  0  0  0
   -0.8050   17.6150  -34.6260 O   0  0  0  0  0  0  0  0  0  0  0  0
   -3.0310   17.1260  -34.4040 N   0  0  0  0  0  0  0  0  0  0  0  0
   -2.7980   15.8030  -35.0320 C   0  0  0  0  0  0  0  0  0  0  0  0
   -2.5830   14.7050  -33.9810 C   0  0  0  0  0  0  0  0  0  0  0  0
   -1.4330   14.0000  -34.2850 F   0  0  0  0  0  0  0  0  0  0  0  0
   -2.4520   15.2500  -32.7170 F   0  0  0  0  0  0  0  0  0  0  0  0
   -3.6500   13.8260  -33.9780 F   0  0  0  0  0  0  0  0  0  0  0  0
   -4.2990   17.5280  -34.0210 C   0  0  0  0  0  0  0  0  0  0  0  0
   -5.5080   16.6300  -34.2260 C   0  0  0  0  0  0  0  0  0  0  0  0
   -6.5800   18.4010  -32.0940 C   0  0  0  0  0  0  0  0  0  0  0  0
   -7.8030   18.8480  -31.5900 C   0  0  0  0  0  0  0  0  0  0  0  0
   -9.7828   21.8980  -29.7753 H   0  0  0  0  0  0  0  0  0  0  0  0
   -9.0115   22.5650  -31.2541 H   0  0  0  0  0  0  0  0  0  0  0  0
  -10.7646   22.1735  -31.2541 H   0  0  0  0  0  0  0  0  0  0  0  0
   -7.7752   22.0378  -32.8226 H   0  0  0  0  0  0  0  0  0  0  0  0
   -5.5850   21.2451  -33.7141 H   0  0  0  0  0  0  0  0  0  0  0  0
   -3.5129   20.6294  -32.7952 H   0  0  0  0  0  0  0  0  0  0  0  0
   -0.7248   20.1827  -28.3277 H   0  0  0  0  0  0  0  0  0  0  0  0
   -1.9252   21.8345  -26.9149 H   0  0  0  0  0  0  0  0  0  0  0  0
   -5.4923   23.0485  -28.9948 H   0  0  0  0  0  0  0  0  0  0  0  0
   -7.3476   25.2117  -28.8314 H   0  0  0  0  0  0  0  0  0  0  0  0
   -6.5833   26.0479  -29.8972 H   0  0  0  0  0  0  0  0  0  0  0  0
   -8.0290   23.1868  -30.3483 H   0  0  0  0  0  0  0  0  0  0  0  0
   -7.3829   23.6712  -31.6782 H   0  0  0  0  0  0  0  0  0  0  0  0
   -1.8370   21.3830  -32.7840 H   0  0  0  0  0  0  0  0  0  0  0  0
   -3.6718   15.5415  -35.6469 H   0  0  0  0  0  0  0  0  0  0  0  0
   -1.8888   15.8711  -35.6473 H   0  0  0  0  0  0  0  0  0  0  0  0
   -5.9120   16.3300  -33.2478 H   0  0  0  0  0  0  0  0  0  0  0  0
   -6.2791   17.1761  -34.7893 H   0  0  0  0  0  0  0  0  0  0  0  0
   -5.2080   15.7341  -34.7893 H   0  0  0  0  0  0  0  0  0  0  0  0
   -6.2414   17.3763  -31.8812 H   0  0  0  0  0  0  0  0  0  0  0  0
   -8.4247   18.1698  -30.9871 H   0  0  0  0  0  0  0  0  0  0  0  0
  1  2  1  0
  2  3  1  0
  3  4  2  0
  4  5  1  0
  5  6  2  0
  6  7  1  0
  7  8  1  0
  8  9  2  0
  9 10  1  0
 10 11  1  0
 11 12  2  0
 11 13  1  0
 13 14  1  0
 14 15  2  0
 15 16  1  0
 16 17  2  0
 17 18  1  0
 17 19  1  0
 19 20  1  0
 20 21  2  0
 20 22  2  0
 20 23  1  0
 23 24  1  0
 24 25  1  0
 19 26  2  0
 26 27  1  0
  9 28  1  0
 28 29  2  0
 28 30  1  0
 30 31  1  0
 31 32  1  0
 32 33  1  0
 32 34  1  0
 32 35  1  0
 30 36  1  0
 36 37  1  0
  6 38  1  0
 38 39  2  0
 39  3  1  0
 36  7  2  0
 26 14  1  0
 25 23  1  0
  1 40  1  0
  1 41  1  0
  1 42  1  0
  4 43  1  0
  5 44  1  0
  8 45  1  0
 15 46  1  0
 16 47  1  0
 23 48  1  0
 24 49  1  0
 24 50  1  0
 25 51  1  0
 25 52  1  0
 27 53  1  0
 31 54  1  0
 31 55  1  0
 37 56  1  0
 37 57  1  0
 37 58  1  0
 38 59  1  0
 39 60  1  0
M  CHG  2  10  -1  13  -1
M  END
>  <UniqueID>  (31) 
29

>  <SMILES>  (31) 
COc1ccc(-c2cc([N-]C(=O)[N-]c3ccc(Cl)c(S(=O)(=O)C4CC4)c3O)c(=O)n(CC(F)(F)F)c2C)cc1

>  <Energy>  (31) 
355.8856948888316

>  <Genealogy>  (31) 
COc1ccc(-c2cc([N-]C(=O)[N-]c3ccc(Cl)c(S(=O)(=O)C4CC4)c3O)c(=O)n(CC(F)(F)F)c2C)cc1 (protonated)
COc1ccc(-c2cc([N-]C(=O)[N-]c3ccc(Cl)c(S(=O)(=O)C4CC4)c3O)c(=O)n(CC(F)(F)F)c2C)cc1 (3D coordinates assigned)
COc1ccc(-c2cc([N-]C(=O)[N-]c3ccc(Cl)c(S(=O)(=O)C4CC4)c3O)c(=O)n(CC(F)(F)F)c2C)cc1 (nonaromatic ring conformer: 355.8856948888316 kcal/mol)

>  <smiles>  (31) 
COc1ccc(-c2cc(NC(=O)Nc3ccc(Cl)c(S(=O)(=O)C4CC4)c3O)c(=O)n(CC(F)(F)F)c2C)cc1

>  <score_type>  (31) 
oracle

>  <origin>  (31) 
adgpu

>  <m_score__min__energy>  (31) 
-13.41

>  <m_primary>  (31) 
energy

$$$$
31:0
     RDKit          3D

 43 45  0  0  0  0  0  0  0  0999 V2000
   -1.6550   25.4150  -29.2980 O   0  0  0  0  0  0  0  0  0  0  0  0
   -2.4970   24.5330  -29.6130 C   0  0  0  0  0  0  0  0  0  0  0  0
   -3.5740   24.8900  -30.4900 N   0  0  0  0  0  0  0  0  0  0  0  0
   -4.7240   24.0880  -30.7980 C   0  0  0  0  0  0  0  0  0  0  0  0
   -6.0250   24.6220  -30.7890 C   0  0  0  0  0  0  0  0  0  0  0  0
   -7.1220   23.8090  -31.0890 C   0  0  0  0  0  0  0  0  0  0  0  0
   -6.9370   22.4500  -31.3770 C   0  0  0  0  0  0  0  0  0  0  0  0
   -8.3230   21.4250  -31.7640 S   0  0  0  0  0  0  0  0  0  0  0  0
   -8.8610   20.8300  -30.4920 O   0  0  0  0  0  0  0  0  0  0  0  0
   -9.4030   22.2740  -32.3750 O   0  0  0  0  0  0  0  0  0  0  0  0
   -7.9190   20.1340  -32.8710 N   0  0  0  0  0  0  0  0  0  0  0  0
   -6.6240   20.3390  -33.5220 C   0  0  0  0  0  0  0  0  0  0  0  0
   -6.1140   18.9600  -33.9150 C   0  0  0  0  0  0  0  0  0  0  0  0
   -6.8980   17.9780  -33.0560 C   0  0  0  0  0  0  0  0  0  0  0  0
   -7.8250   18.8340  -32.2040 C   0  0  0  0  0  0  0  0  0  0  0  0
   -5.6410   21.9140  -31.3680 C   0  0  0  0  0  0  0  0  0  0  0  0
   -4.5450   22.7270  -31.0700 C   0  0  0  0  0  0  0  0  0  0  0  0
   -2.3550   23.1700  -29.0530 C   0  0  0  0  0  0  0  0  0  0  0  0
   -1.4180   22.2970  -29.6290 C   0  0  0  0  0  0  0  0  0  0  0  0
   -1.2670   20.9810  -29.1530 C   0  0  0  0  0  0  0  0  0  0  0  0
   -0.3170   20.0840  -29.7570 N   0  0  0  0  0  0  0  0  0  0  0  0
    0.6300   19.6160  -29.0920 O   0  0  0  0  0  0  0  0  0  0  0  0
   -0.4370   19.7280  -31.0810 O   0  0  0  0  0  0  0  0  0  0  0  0
   -2.0620   20.5530  -28.0780 C   0  0  0  0  0  0  0  0  0  0  0  0
   -2.9780   21.4230  -27.4840 C   0  0  0  0  0  0  0  0  0  0  0  0
   -3.1270   22.7300  -27.9580 C   0  0  0  0  0  0  0  0  0  0  0  0
   -4.2310   23.8000  -27.1000 Cl  0  0  0  0  0  0  0  0  0  0  0  0
   -6.1800   25.6833  -30.5450 H   0  0  0  0  0  0  0  0  0  0  0  0
   -8.1349   24.2379  -31.0990 H   0  0  0  0  0  0  0  0  0  0  0  0
   -8.6650   20.0870  -33.6050 H   0  0  0  0  0  0  0  0  0  0  0  0
   -6.7436   20.9688  -34.4159 H   0  0  0  0  0  0  0  0  0  0  0  0
   -5.9172   20.8475  -32.8498 H   0  0  0  0  0  0  0  0  0  0  0  0
   -6.3000   18.7709  -34.9825 H   0  0  0  0  0  0  0  0  0  0  0  0
   -5.0295   18.8652  -33.7576 H   0  0  0  0  0  0  0  0  0  0  0  0
   -7.4809   17.2932  -33.6894 H   0  0  0  0  0  0  0  0  0  0  0  0
   -6.2341   17.3555  -32.4381 H   0  0  0  0  0  0  0  0  0  0  0  0
   -8.8191   18.3678  -32.1380 H   0  0  0  0  0  0  0  0  0  0  0  0
   -7.4397   18.9393  -31.1791 H   0  0  0  0  0  0  0  0  0  0  0  0
   -5.4870   20.8491  -31.5965 H   0  0  0  0  0  0  0  0  0  0  0  0
   -3.5339   22.2943  -31.0490 H   0  0  0  0  0  0  0  0  0  0  0  0
   -0.7931   22.6466  -30.4641 H   0  0  0  0  0  0  0  0  0  0  0  0
   -1.9624   19.5245  -27.7009 H   0  0  0  0  0  0  0  0  0  0  0  0
   -3.5876   21.0775  -26.6361 H   0  0  0  0  0  0  0  0  0  0  0  0
  1  2  2  0
  2  3  1  0
  3  4  1  0
  4  5  2  0
  5  6  1  0
  6  7  2  0
  7  8  1  0
  8  9  2  0
  8 10  2  0
  8 11  1  0
 11 12  1  0
 12 13  1  0
 13 14  1  0
 14 15  1  0
  7 16  1  0
 16 17  2  0
  2 18  1  0
 18 19  2  0
 19 20  1  0
 20 21  1  0
 21 22  2  0
 21 23  1  0
 20 24  2  0
 24 25  1  0
 25 26  2  0
 26 27  1  0
 17  4  1  0
 26 18  1  0
 15 11  1  0
  5 28  1  0
  6 29  1  0
 11 30  1  0
 12 31  1  0
 12 32  1  0
 13 33  1  0
 13 34  1  0
 14 35  1  0
 14 36  1  0
 15 37  1  0
 15 38  1  0
 16 39  1  0
 17 40  1  0
 19 41  1  0
 24 42  1  0
 25 43  1  0
M  CHG  4   3  -1  11   1  21   1  23  -1
M  END
>  <UniqueID>  (32) 
30

>  <SMILES>  (32) 
O=C([N-]c1ccc(S(=O)(=O)[NH+]2CCCC2)cc1)c1cc([N+](=O)[O-])ccc1Cl

>  <Energy>  (32) 
56.27576685122896

>  <Genealogy>  (32) 
O=C([N-]c1ccc(S(=O)(=O)[NH+]2CCCC2)cc1)c1cc([N+](=O)[O-])ccc1Cl (protonated)
O=C([N-]c1ccc(S(=O)(=O)[NH+]2CCCC2)cc1)c1cc([N+](=O)[O-])ccc1Cl (3D coordinates assigned)
O=C([N-]c1ccc(S(=O)(=O)[NH+]2CCCC2)cc1)c1cc([N+](=O)[O-])ccc1Cl (nonaromatic ring conformer: 56.27576685122896 kcal/mol)

>  <smiles>  (32) 
O=C(Nc1ccc(S(=O)(=O)N2CCCC2)cc1)c1cc([N+](=O)[O-])ccc1Cl

>  <score_type>  (32) 
oracle

>  <origin>  (32) 
adgpu

>  <m_score__min__energy>  (32) 
-11.01

>  <m_primary>  (32) 
energy

$$$$
32:0
     RDKit          3D

 46 48  0  0  0  0  0  0  0  0999 V2000
    1.7870   29.7160  -22.5020 C   0  0  0  0  0  0  0  0  0  0  0  0
    1.3470   29.1540  -23.7750 N   0  0  0  0  0  0  0  0  0  0  0  0
    0.9150   27.7880  -23.9390 C   0  0  0  0  0  0  0  0  0  0  0  0
    1.0220   26.9310  -22.9630 N   0  0  0  0  0  0  0  0  0  0  0  0
    0.3400   27.3640  -25.2400 C   0  0  0  0  0  0  0  0  0  0  0  0
    0.0200   26.0150  -25.4800 C   0  0  0  0  0  0  0  0  0  0  0  0
   -0.5190   25.6220  -26.7090 C   0  0  0  0  0  0  0  0  0  0  0  0
   -0.7600   26.5680  -27.7110 C   0  0  0  0  0  0  0  0  0  0  0  0
   -1.2870   26.1280  -28.9690 N   0  0  0  0  0  0  0  0  0  0  0  0
   -1.7390   24.8020  -29.2730 C   0  0  0  0  0  0  0  0  0  0  0  0
   -0.9180   23.8530  -29.1740 O   0  0  0  0  0  0  0  0  0  0  0  0
   -3.1450   24.5350  -29.6560 C   0  0  0  0  0  0  0  0  0  0  0  0
   -3.6890   24.9620  -30.8100 N   0  0  0  0  0  0  0  0  0  0  0  0
   -4.9350   24.4490  -30.8080 C   0  0  0  0  0  0  0  0  0  0  0  0
   -5.2180   23.7220  -29.7080 N   0  0  0  0  0  0  0  0  0  0  0  0
   -4.0950   23.7880  -28.9720 C   0  0  0  0  0  0  0  0  0  0  0  0
   -3.9920   23.1770  -27.6340 C   0  0  0  0  0  0  0  0  0  0  0  0
   -4.2460   23.8840  -26.6240 O   0  0  0  0  0  0  0  0  0  0  0  0
   -3.6020   21.8110  -27.4430 N   0  0  0  0  0  0  0  0  0  0  0  0
   -2.2790   21.2730  -27.5900 C   0  0  0  0  0  0  0  0  0  0  0  0
   -1.1530   21.9160  -27.0460 C   0  0  0  0  0  0  0  0  0  0  0  0
    0.1210   21.3610  -27.2060 C   0  0  0  0  0  0  0  0  0  0  0  0
    0.2820   20.1420  -27.8830 C   0  0  0  0  0  0  0  0  0  0  0  0
    1.6520   19.5690  -28.0910 C   0  0  0  0  0  0  0  0  0  0  0  0
   -0.8440   19.4970  -28.4150 C   0  0  0  0  0  0  0  0  0  0  0  0
   -2.1170   20.0520  -28.2540 C   0  0  0  0  0  0  0  0  0  0  0  0
   -0.4160   27.9110  -27.4870 C   0  0  0  0  0  0  0  0  0  0  0  0
    0.1230   28.3060  -26.2590 C   0  0  0  0  0  0  0  0  0  0  0  0
    1.3399   29.1449  -21.6750 H   0  0  0  0  0  0  0  0  0  0  0  0
    2.8836   29.6597  -22.4358 H   0  0  0  0  0  0  0  0  0  0  0  0
    1.4692   30.7670  -22.4358 H   0  0  0  0  0  0  0  0  0  0  0  0
    1.3500   29.7870  -24.6060 H   0  0  0  0  0  0  0  0  0  0  0  0
    1.4280   27.1890  -22.0380 H   0  0  0  0  0  0  0  0  0  0  0  0
    0.6790   25.9490  -23.0620 H   0  0  0  0  0  0  0  0  0  0  0  0
    0.1951   25.2642  -24.6953 H   0  0  0  0  0  0  0  0  0  0  0  0
   -0.7549   24.5628  -26.8889 H   0  0  0  0  0  0  0  0  0  0  0  0
   -5.6531   24.6081  -31.6259 H   0  0  0  0  0  0  0  0  0  0  0  0
   -1.2744   22.8589  -26.4926 H   0  0  0  0  0  0  0  0  0  0  0  0
    1.0004   21.8821  -26.7996 H   0  0  0  0  0  0  0  0  0  0  0  0
    2.1197   19.3734  -27.1148 H   0  0  0  0  0  0  0  0  0  0  0  0
    1.5741   18.6280  -28.6554 H   0  0  0  0  0  0  0  0  0  0  0  0
    2.2672   20.2852  -28.6554 H   0  0  0  0  0  0  0  0  0  0  0  0
   -0.7250   18.5499  -28.9616 H   0  0  0  0  0  0  0  0  0  0  0  0
   -2.9970   19.5254  -28.6519 H   0  0  0  0  0  0  0  0  0  0  0  0
   -0.5714   28.6557  -28.2815 H   0  0  0  0  0  0  0  0  0  0  0  0
    0.3790   29.3623  -26.0896 H   0  0  0  0  0  0  0  0  0  0  0  0
  1  2  1  0
  2  3  1  0
  3  4  2  0
  3  5  1  0
  5  6  2  0
  6  7  1  0
  7  8  2  0
  8  9  1  0
  9 10  1  0
 10 11  2  0
 10 12  1  0
 12 13  1  0
 13 14  1  0
 14 15  2  0
 15 16  1  0
 16 17  1  0
 17 18  2  0
 17 19  1  0
 19 20  1  0
 20 21  2  0
 21 22  1  0
 22 23  2  0
 23 24  1  0
 23 25  1  0
 25 26  2  0
  8 27  1  0
 27 28  2  0
 28  5  1  0
 16 12  2  0
 26 20  1  0
  1 29  1  0
  1 30  1  0
  1 31  1  0
  2 32  1  0
  4 33  1  0
  4 34  1  0
  6 35  1  0
  7 36  1  0
 14 37  1  0
 21 38  1  0
 22 39  1  0
 24 40  1  0
 24 41  1  0
 24 42  1  0
 25 43  1  0
 26 44  1  0
 27 45  1  0
 28 46  1  0
M  CHG  4   4   1   9  -1  13  -1  19  -1
M  END
>  <UniqueID>  (33) 
31

>  <SMILES>  (33) 
CNC(=[NH2+])c1ccc([N-]C(=O)c2[n-]cnc2C(=O)[N-]c2ccc(C)cc2)cc1

>  <Energy>  (33) 
91.8646811159819

>  <Genealogy>  (33) 
CNC(=[NH2+])c1ccc([N-]C(=O)c2[n-]cnc2C(=O)[N-]c2ccc(C)cc2)cc1 (protonated)
CNC(=[NH2+])c1ccc([N-]C(=O)c2[n-]cnc2C(=O)[N-]c2ccc(C)cc2)cc1 (3D coordinates assigned)
CNC(=[NH2+])c1ccc([N-]C(=O)c2[n-]cnc2C(=O)[N-]c2ccc(C)cc2)cc1 (optimized conformer: 91.8646811159819 kcal/mol)

>  <smiles>  (33) 
CNC(=N)c1ccc(NC(=O)c2[nH]cnc2C(=O)Nc2ccc(C)cc2)cc1

>  <score_type>  (33) 
oracle

>  <origin>  (33) 
adgpu

>  <m_score__min__energy>  (33) 
-11.210000000000001

>  <m_primary>  (33) 
energy

$$$$
33:0
     RDKit          3D

 68 72  0  0  0  0  0  0  0  0999 V2000
   -0.6200   19.0310  -27.5960 C   0  0  0  0  0  0  0  0  0  0  0  0
    0.0960   19.8220  -28.5400 O   0  0  0  0  0  0  0  0  0  0  0  0
   -0.3830   20.1590  -29.8150 C   0  0  0  0  0  0  0  0  0  0  0  0
   -0.7650   21.4710  -30.1530 C   0  0  0  0  0  0  0  0  0  0  0  0
   -1.2590   21.7510  -31.4300 C   0  0  0  0  0  0  0  0  0  0  0  0
   -1.3710   20.7310  -32.3910 C   0  0  0  0  0  0  0  0  0  0  0  0
   -2.0020   21.0240  -33.7220 C   0  0  0  0  0  0  0  0  0  0  0  0
   -3.5370   21.9780  -33.4560 S   0  0  0  0  0  0  0  0  0  0  0  0
   -4.5120   20.5770  -32.8780 C   0  0  0  0  0  0  0  0  0  0  0  0
   -4.0060   19.3290  -33.0800 N   0  0  0  0  0  0  0  0  0  0  0  0
   -4.6950   18.2450  -32.6610 C   0  0  0  0  0  0  0  0  0  0  0  0
   -5.8900   18.3720  -32.0280 C   0  0  0  0  0  0  0  0  0  0  0  0
   -6.4260   19.6380  -31.8100 C   0  0  0  0  0  0  0  0  0  0  0  0
   -7.5400   19.7500  -31.2330 O   0  0  0  0  0  0  0  0  0  0  0  0
   -5.7270   20.7480  -32.2370 N   0  0  0  0  0  0  0  0  0  0  0  0
   -6.2540   22.1060  -31.9840 C   0  0  0  0  0  0  0  0  0  0  0  0
   -5.3150   22.9180  -31.1210 C   0  0  0  0  0  0  0  0  0  0  0  0
   -5.3070   24.3190  -31.2310 C   0  0  0  0  0  0  0  0  0  0  0  0
   -4.3970   25.0810  -30.4920 C   0  0  0  0  0  0  0  0  0  0  0  0
   -3.4940   24.4610  -29.6150 C   0  0  0  0  0  0  0  0  0  0  0  0
   -2.5080   25.2700  -28.9550 N   0  0  0  0  0  0  0  0  0  0  0  0
   -1.2030   24.8450  -28.5410 C   0  0  0  0  0  0  0  0  0  0  0  0
   -0.3700   24.4230  -29.3860 O   0  0  0  0  0  0  0  0  0  0  0  0
   -0.8440   24.8750  -27.1070 C   0  0  0  0  0  0  0  0  0  0  0  0
   -0.4670   26.0910  -26.4820 C   0  0  0  0  0  0  0  0  0  0  0  0
   -0.4490   27.3940  -27.2410 C   0  0  0  0  0  0  0  0  0  0  0  0
   -0.0940   26.0870  -25.1300 C   0  0  0  0  0  0  0  0  0  0  0  0
   -0.1020   24.9030  -24.3930 C   0  0  0  0  0  0  0  0  0  0  0  0
   -0.4840   23.7080  -24.9930 C   0  0  0  0  0  0  0  0  0  0  0  0
   -0.8530   23.6760  -26.3500 C   0  0  0  0  0  0  0  0  0  0  0  0
   -1.2220   22.3530  -26.9740 C   0  0  0  0  0  0  0  0  0  0  0  0
   -3.5200   23.0590  -29.4800 C   0  0  0  0  0  0  0  0  0  0  0  0
   -4.4390   22.2970  -30.2110 C   0  0  0  0  0  0  0  0  0  0  0  0
   -6.4550   17.0570  -31.6380 C   0  0  0  0  0  0  0  0  0  0  0  0
   -5.4380   16.0400  -32.1980 C   0  0  0  0  0  0  0  0  0  0  0  0
   -4.2650   16.8390  -32.8020 C   0  0  0  0  0  0  0  0  0  0  0  0
   -0.9850   19.4260  -32.0540 C   0  0  0  0  0  0  0  0  0  0  0  0
   -0.4860   19.1460  -30.7780 C   0  0  0  0  0  0  0  0  0  0  0  0
   -0.3431   19.3369  -26.5763 H   0  0  0  0  0  0  0  0  0  0  0  0
   -1.7007   19.1754  -27.7414 H   0  0  0  0  0  0  0  0  0  0  0  0
   -0.3690   17.9699  -27.7414 H   0  0  0  0  0  0  0  0  0  0  0  0
   -0.6745   22.2775  -29.4105 H   0  0  0  0  0  0  0  0  0  0  0  0
   -1.5624   22.7771  -31.6851 H   0  0  0  0  0  0  0  0  0  0  0  0
   -1.3055   21.6106  -34.3391 H   0  0  0  0  0  0  0  0  0  0  0  0
   -2.2354   20.0810  -34.2380 H   0  0  0  0  0  0  0  0  0  0  0  0
   -6.3889   22.6211  -32.9465 H   0  0  0  0  0  0  0  0  0  0  0  0
   -7.2116   22.0087  -31.4515 H   0  0  0  0  0  0  0  0  0  0  0  0
   -6.0207   24.8189  -31.9023 H   0  0  0  0  0  0  0  0  0  0  0  0
   -4.3889   26.1758  -30.5990 H   0  0  0  0  0  0  0  0  0  0  0  0
   -0.4374   28.2327  -26.5294 H   0  0  0  0  0  0  0  0  0  0  0  0
    0.4498   27.4374  -27.8736 H   0  0  0  0  0  0  0  0  0  0  0  0
   -1.3463   27.4623  -27.8736 H   0  0  0  0  0  0  0  0  0  0  0  0
    0.2080   27.0274  -24.6459 H   0  0  0  0  0  0  0  0  0  0  0  0
    0.1948   24.9144  -23.3338 H   0  0  0  0  0  0  0  0  0  0  0  0
   -0.4977   22.7805  -24.4018 H   0  0  0  0  0  0  0  0  0  0  0  0
   -1.4269   21.6182  -26.1814 H   0  0  0  0  0  0  0  0  0  0  0  0
   -2.1192   22.4793  -27.5978 H   0  0  0  0  0  0  0  0  0  0  0  0
   -0.3889   21.9967  -27.5978 H   0  0  0  0  0  0  0  0  0  0  0  0
   -2.8155   22.5611  -28.7976 H   0  0  0  0  0  0  0  0  0  0  0  0
   -4.4768   21.2063  -30.0734 H   0  0  0  0  0  0  0  0  0  0  0  0
   -6.5322   16.9724  -30.5440 H   0  0  0  0  0  0  0  0  0  0  0  0
   -7.4725   16.8990  -32.0250 H   0  0  0  0  0  0  0  0  0  0  0  0
   -5.0724   15.3906  -31.3889 H   0  0  0  0  0  0  0  0  0  0  0  0
   -5.9079   15.4048  -32.9634 H   0  0  0  0  0  0  0  0  0  0  0  0
   -3.3352   16.6546  -32.2438 H   0  0  0  0  0  0  0  0  0  0  0  0
   -4.0488   16.5601  -33.8438 H   0  0  0  0  0  0  0  0  0  0  0  0
   -1.0750   18.6192  -32.7962 H   0  0  0  0  0  0  0  0  0  0  0  0
   -0.1717   18.1219  -30.5280 H   0  0  0  0  0  0  0  0  0  0  0  0
  1  2  1  0
  2  3  1  0
  3  4  2  0
  4  5  1  0
  5  6  2  0
  6  7  1  0
  7  8  1  0
  8  9  1  0
  9 10  2  0
 10 11  1  0
 11 12  2  0
 12 13  1  0
 13 14  2  0
 13 15  1  0
 15 16  1  0
 16 17  1  0
 17 18  2  0
 18 19  1  0
 19 20  2  0
 20 21  1  0
 21 22  1  0
 22 23  2  0
 22 24  1  0
 24 25  2  0
 25 26  1  0
 25 27  1  0
 27 28  2  0
 28 29  1  0
 29 30  2  0
 30 31  1  0
 20 32  1  0
 32 33  2  0
 12 34  1  0
 34 35  1  0
 35 36  1  0
  6 37  1  0
 37 38  2  0
 38  3  1  0
 15  9  1  0
 33 17  1  0
 36 11  1  0
 30 24  1  0
  1 39  1  0
  1 40  1  0
  1 41  1  0
  4 42  1  0
  5 43  1  0
  7 44  1  0
  7 45  1  0
 16 46  1  0
 16 47  1  0
 18 48  1  0
 19 49  1  0
 26 50  1  0
 26 51  1  0
 26 52  1  0
 27 53  1  0
 28 54  1  0
 29 55  1  0
 31 56  1  0
 31 57  1  0
 31 58  1  0
 32 59  1  0
 33 60  1  0
 34 61  1  0
 34 62  1  0
 35 63  1  0
 35 64  1  0
 36 65  1  0
 36 66  1  0
 37 67  1  0
 38 68  1  0
M  CHG  1  21  -1
M  END
>  <UniqueID>  (34) 
32

>  <SMILES>  (34) 
COc1ccc(CSc2nc3c(c(=O)n2Cc2ccc([N-]C(=O)c4c(C)cccc4C)cc2)CCC3)cc1

>  <Energy>  (34) 
94.2166562457122

>  <Genealogy>  (34) 
COc1ccc(CSc2nc3c(c(=O)n2Cc2ccc([N-]C(=O)c4c(C)cccc4C)cc2)CCC3)cc1 (protonated)
COc1ccc(CSc2nc3c(c(=O)n2Cc2ccc([N-]C(=O)c4c(C)cccc4C)cc2)CCC3)cc1 (3D coordinates assigned)
COc1ccc(CSc2nc3c(c(=O)n2Cc2ccc([N-]C(=O)c4c(C)cccc4C)cc2)CCC3)cc1 (nonaromatic ring conformer: 94.2166562457122 kcal/mol)

>  <smiles>  (34) 
COc1ccc(CSc2nc3c(c(=O)n2Cc2ccc(NC(=O)c4c(C)cccc4C)cc2)CCC3)cc1

>  <score_type>  (34) 
oracle

>  <origin>  (34) 
adgpu

>  <m_score__min__energy>  (34) 
-11.94

>  <m_primary>  (34) 
energy

$$$$
34:0
     RDKit          3D

 43 45  0  0  0  0  0  0  0  0999 V2000
   -3.5540   22.7150  -27.5000 C   0  0  0  0  0  0  0  0  0  0  0  0
   -3.8220   23.5950  -28.6760 C   0  0  0  0  0  0  0  0  0  0  0  0
   -5.0140   23.6880  -29.2890 N   0  0  0  0  0  0  0  0  0  0  0  0
   -4.7780   24.5320  -30.3170 C   0  0  0  0  0  0  0  0  0  0  0  0
   -5.8220   24.9060  -31.3190 C   0  0  0  0  0  0  0  0  0  0  0  0
   -6.1550   23.7480  -32.1490 N   0  0  0  0  0  0  0  0  0  0  0  0
   -7.2180   22.8400  -31.8200 C   0  0  0  0  0  0  0  0  0  0  0  0
   -7.9020   23.0160  -30.7760 O   0  0  0  0  0  0  0  0  0  0  0  0
   -7.5470   21.7470  -32.6840 N   0  0  0  0  0  0  0  0  0  0  0  0
   -7.3750   20.3620  -32.3570 C   0  0  0  0  0  0  0  0  0  0  0  0
   -8.5120   19.5620  -32.2070 C   0  0  0  0  0  0  0  0  0  0  0  0
   -8.3820   18.1950  -31.9660 C   0  0  0  0  0  0  0  0  0  0  0  0
   -7.1070   17.6390  -31.8640 C   0  0  0  0  0  0  0  0  0  0  0  0
   -6.0100   18.4320  -31.9690 N   0  0  0  0  0  0  0  0  0  0  0  0
   -6.0990   19.7740  -32.1930 C   0  0  0  0  0  0  0  0  0  0  0  0
   -4.8920   20.5580  -32.2100 N   0  0  0  0  0  0  0  0  0  0  0  0
   -4.4000   21.1990  -30.9810 C   0  0  0  0  0  0  0  0  0  0  0  0
   -2.9200   20.8630  -30.7780 C   0  0  0  0  0  0  0  0  0  0  0  0
   -2.0520   21.2280  -32.0030 C   0  0  0  0  0  0  0  0  0  0  0  0
   -2.8640   21.5000  -33.2800 C   0  0  0  0  0  0  0  0  0  0  0  0
   -4.0470   20.5350  -33.4140 C   0  0  0  0  0  0  0  0  0  0  0  0
   -3.4990   24.9610  -30.3930 N   0  0  0  0  0  0  0  0  0  0  0  0
   -2.9020   24.3610  -29.3520 C   0  0  0  0  0  0  0  0  0  0  0  0
   -1.1990   24.5270  -28.9700 Cl  0  0  0  0  0  0  0  0  0  0  0  0
   -3.7262   23.2803  -26.5722 H   0  0  0  0  0  0  0  0  0  0  0  0
   -4.2284   21.8465  -27.5307 H   0  0  0  0  0  0  0  0  0  0  0  0
   -2.5100   22.3698  -27.5307 H   0  0  0  0  0  0  0  0  0  0  0  0
   -6.7252   25.2495  -30.7934 H   0  0  0  0  0  0  0  0  0  0  0  0
   -5.4353   25.7115  -31.9606 H   0  0  0  0  0  0  0  0  0  0  0  0
   -5.7250   23.6900  -33.0990 H   0  0  0  0  0  0  0  0  0  0  0  0
   -9.5127   20.0129  -32.2794 H   0  0  0  0  0  0  0  0  0  0  0  0
   -9.2751   17.5620  -31.8575 H   0  0  0  0  0  0  0  0  0  0  0  0
   -6.9902   16.5578  -31.6985 H   0  0  0  0  0  0  0  0  0  0  0  0
   -4.5188   22.2893  -31.0650 H   0  0  0  0  0  0  0  0  0  0  0  0
   -4.9779   20.8285  -30.1215 H   0  0  0  0  0  0  0  0  0  0  0  0
   -2.5491   21.4205  -29.9053 H   0  0  0  0  0  0  0  0  0  0  0  0
   -2.8436   19.7758  -30.6289 H   0  0  0  0  0  0  0  0  0  0  0  0
   -1.4731   22.1315  -31.7610 H   0  0  0  0  0  0  0  0  0  0  0  0
   -1.4096   20.3595  -32.2107 H   0  0  0  0  0  0  0  0  0  0  0  0
   -3.2465   22.5308  -33.2468 H   0  0  0  0  0  0  0  0  0  0  0  0
   -2.2016   21.3538  -34.1460 H   0  0  0  0  0  0  0  0  0  0  0  0
   -4.6533   20.8293  -34.2834 H   0  0  0  0  0  0  0  0  0  0  0  0
   -3.6524   19.5163  -33.5429 H   0  0  0  0  0  0  0  0  0  0  0  0
  1  2  1  0
  2  3  1  0
  3  4  1  0
  4  5  1  0
  5  6  1  0
  6  7  1  0
  7  8  2  0
  7  9  1  0
  9 10  1  0
 10 11  2  0
 11 12  1  0
 12 13  2  0
 13 14  1  0
 14 15  2  0
 15 16  1  0
 16 17  1  0
 17 18  1  0
 18 19  1  0
 19 20  1  0
 20 21  1  0
  4 22  2  0
 22 23  1  0
 23 24  1  0
 23  2  2  0
 15 10  1  0
 21 16  1  0
  1 25  1  0
  1 26  1  0
  1 27  1  0
  5 28  1  0
  5 29  1  0
  6 30  1  0
 11 31  1  0
 12 32  1  0
 13 33  1  0
 17 34  1  0
 17 35  1  0
 18 36  1  0
 18 37  1  0
 19 38  1  0
 19 39  1  0
 20 40  1  0
 20 41  1  0
 21 42  1  0
 21 43  1  0
M  CHG  2   3  -1   9  -1
M  END
>  <UniqueID>  (35) 
33

>  <SMILES>  (35) 
Cc1[n-]c(CNC(=O)[N-]c2cccnc2N2CCCCC2)nc1Cl

>  <Energy>  (35) 
76.05523277744369

>  <Genealogy>  (35) 
Cc1[n-]c(CNC(=O)[N-]c2cccnc2N2CCCCC2)nc1Cl (protonated)
Cc1[n-]c(CNC(=O)[N-]c2cccnc2N2CCCCC2)nc1Cl (3D coordinates assigned)
Cc1[n-]c(CNC(=O)[N-]c2cccnc2N2CCCCC2)nc1Cl (nonaromatic ring conformer: 76.05523277744369 kcal/mol)

>  <smiles>  (35) 
Cc1[nH]c(CNC(=O)Nc2cccnc2N2CCCCC2)nc1Cl

>  <score_type>  (35) 
oracle

>  <origin>  (35) 
adgpu

>  <m_score__min__energy>  (35) 
-9.3900000000000006

>  <m_primary>  (35) 
energy

$$$$
35:0
     RDKit          3D

 58 61  0  0  0  0  0  0  0  0999 V2000
   -3.4270   21.5760  -32.7860 C   0  0  0  0  0  0  0  0  0  0  0  0
   -3.5240   22.0790  -31.4600 O   0  0  0  0  0  0  0  0  0  0  0  0
   -4.4420   23.0600  -31.0520 C   0  0  0  0  0  0  0  0  0  0  0  0
   -5.6140   23.3410  -31.7880 C   0  0  0  0  0  0  0  0  0  0  0  0
   -6.5230   24.2980  -31.3290 C   0  0  0  0  0  0  0  0  0  0  0  0
   -6.2800   24.9780  -30.1360 C   0  0  0  0  0  0  0  0  0  0  0  0
   -5.1250   24.7110  -29.4000 C   0  0  0  0  0  0  0  0  0  0  0  0
   -4.1940   23.7650  -29.8600 C   0  0  0  0  0  0  0  0  0  0  0  0
   -3.0240   23.4850  -29.0800 N   0  0  0  0  0  0  0  0  0  0  0  0
   -2.7570   22.3230  -28.4560 C   0  0  0  0  0  0  0  0  0  0  0  0
   -1.5100   22.3950  -27.8590 C   0  0  0  0  0  0  0  0  0  0  0  0
   -0.8250   21.3220  -27.1130 C   0  0  0  0  0  0  0  0  0  0  0  0
   -1.2540   20.9870  -25.9790 O   0  0  0  0  0  0  0  0  0  0  0  0
    0.2990   20.6200  -27.6620 N   0  0  0  0  0  0  0  0  0  0  0  0
    0.3210   19.9210  -28.9140 C   0  0  0  0  0  0  0  0  0  0  0  0
   -0.4940   20.3100  -29.9930 C   0  0  0  0  0  0  0  0  0  0  0  0
   -0.4400   19.6140  -31.2030 C   0  0  0  0  0  0  0  0  0  0  0  0
    0.4390   18.5350  -31.3590 C   0  0  0  0  0  0  0  0  0  0  0  0
    0.5240   17.6750  -32.8950 S   0  0  0  0  0  0  0  0  0  0  0  0
   -0.7090   16.8300  -33.0620 O   0  0  0  0  0  0  0  0  0  0  0  0
    1.7150   16.7540  -32.8780 O   0  0  0  0  0  0  0  0  0  0  0  0
    0.6550   18.7900  -34.2400 N   0  0  0  0  0  0  0  0  0  0  0  0
    1.2800   18.1090  -35.3890 C   0  0  0  0  0  0  0  0  0  0  0  0
    1.6560   19.0730  -36.5270 C   0  0  0  0  0  0  0  0  0  0  0  0
    0.6490   20.2040  -36.8090 C   0  0  0  0  0  0  0  0  0  0  0  0
    0.8850   21.4830  -35.9880 C   0  0  0  0  0  0  0  0  0  0  0  0
    0.6990   21.3420  -34.4560 C   0  0  0  0  0  0  0  0  0  0  0  0
    1.2890   20.0640  -33.8150 C   0  0  0  0  0  0  0  0  0  0  0  0
    1.2700   18.1620  -30.2950 C   0  0  0  0  0  0  0  0  0  0  0  0
    1.2160   18.8570  -29.0820 C   0  0  0  0  0  0  0  0  0  0  0  0
   -1.0090   23.6630  -28.1070 C   0  0  0  0  0  0  0  0  0  0  0  0
   -1.9690   24.2960  -28.8660 C   0  0  0  0  0  0  0  0  0  0  0  0
   -1.8730   25.5970  -29.3450 O   0  0  0  0  0  0  0  0  0  0  0  0
   -3.2188   20.4963  -32.7543 H   0  0  0  0  0  0  0  0  0  0  0  0
   -4.3755   21.7511  -33.3149 H   0  0  0  0  0  0  0  0  0  0  0  0
   -2.6117   22.0913  -33.3149 H   0  0  0  0  0  0  0  0  0  0  0  0
   -5.8124   22.8039  -32.7272 H   0  0  0  0  0  0  0  0  0  0  0  0
   -7.4316   24.5153  -31.9097 H   0  0  0  0  0  0  0  0  0  0  0  0
   -7.0004   25.7265  -29.7744 H   0  0  0  0  0  0  0  0  0  0  0  0
   -4.9426   25.2438  -28.4551 H   0  0  0  0  0  0  0  0  0  0  0  0
   -3.4263   21.4506  -28.4251 H   0  0  0  0  0  0  0  0  0  0  0  0
   -1.1765   21.1657  -29.8833 H   0  0  0  0  0  0  0  0  0  0  0  0
   -1.0909   19.9149  -32.0371 H   0  0  0  0  0  0  0  0  0  0  0  0
    2.1930   17.6029  -35.0423 H   0  0  0  0  0  0  0  0  0  0  0  0
    0.5433   17.3975  -35.7903 H   0  0  0  0  0  0  0  0  0  0  0  0
    2.6206   19.5361  -36.2719 H   0  0  0  0  0  0  0  0  0  0  0  0
    1.6806   18.4609  -37.4406 H   0  0  0  0  0  0  0  0  0  0  0  0
    0.7126   20.4633  -37.8761 H   0  0  0  0  0  0  0  0  0  0  0  0
   -0.3412   19.8227  -36.5191 H   0  0  0  0  0  0  0  0  0  0  0  0
    1.9160   21.8185  -36.1738 H   0  0  0  0  0  0  0  0  0  0  0  0
    0.1169   22.1976  -36.3188 H   0  0  0  0  0  0  0  0  0  0  0  0
    1.1772   22.2096  -33.9779 H   0  0  0  0  0  0  0  0  0  0  0  0
   -0.3873   21.2800  -34.2941 H   0  0  0  0  0  0  0  0  0  0  0  0
    2.3568   20.0154  -34.0747 H   0  0  0  0  0  0  0  0  0  0  0  0
    1.1017   20.1513  -32.7346 H   0  0  0  0  0  0  0  0  0  0  0  0
    1.9675   17.3197  -30.4135 H   0  0  0  0  0  0  0  0  0  0  0  0
    1.8806   18.5660  -28.2552 H   0  0  0  0  0  0  0  0  0  0  0  0
   -0.0475   24.0769  -27.7691 H   0  0  0  0  0  0  0  0  0  0  0  0
  1  2  1  0
  2  3  1  0
  3  4  2  0
  4  5  1  0
  5  6  2  0
  6  7  1  0
  7  8  2  0
  8  9  1  0
  9 10  1  0
 10 11  2  0
 11 12  1  0
 12 13  2  0
 12 14  1  0
 14 15  1  0
 15 16  2  0
 16 17  1  0
 17 18  2  0
 18 19  1  0
 19 20  2  0
 19 21  2  0
 19 22  1  0
 22 23  1  0
 23 24  1  0
 24 25  1  0
 25 26  1  0
 26 27  1  0
 27 28  1  0
 18 29  1  0
 29 30  2  0
 11 31  1  0
 31 32  2  0
 32 33  1  0
  8  3  1  0
 32  9  1  0
 30 15  1  0
 28 22  1  0
  1 34  1  0
  1 35  1  0
  1 36  1  0
  4 37  1  0
  5 38  1  0
  6 39  1  0
  7 40  1  0
 10 41  1  0
 16 42  1  0
 17 43  1  0
 23 44  1  0
 23 45  1  0
 24 46  1  0
 24 47  1  0
 25 48  1  0
 25 49  1  0
 26 50  1  0
 26 51  1  0
 27 52  1  0
 27 53  1  0
 28 54  1  0
 28 55  1  0
 29 56  1  0
 30 57  1  0
 31 58  1  0
M  CHG  2  14  -1  33  -1
M  END
>  <UniqueID>  (36) 
34

>  <SMILES>  (36) 
COc1ccccc1-n1cc(C(=O)[N-]c2ccc(S(=O)(=O)N3CCCCCC3)cc2)cc1[O-]

>  <Energy>  (36) 
110.62220982565624

>  <Genealogy>  (36) 
COc1ccccc1-n1cc(C(=O)[N-]c2ccc(S(=O)(=O)N3CCCCCC3)cc2)cc1[O-] (protonated)
COc1ccccc1-n1cc(C(=O)[N-]c2ccc(S(=O)(=O)N3CCCCCC3)cc2)cc1[O-] (3D coordinates assigned)
COc1ccccc1-n1cc(C(=O)[N-]c2ccc(S(=O)(=O)N3CCCCCC3)cc2)cc1[O-] (nonaromatic ring conformer: 110.62220982565624 kcal/mol)

>  <smiles>  (36) 
COc1ccccc1-n1cc(C(=O)Nc2ccc(S(=O)(=O)N3CCCCCC3)cc2)cc1O

>  <score_type>  (36) 
oracle

>  <origin>  (36) 
adgpu

>  <m_score__min__energy>  (36) 
-9.8000000000000007

>  <m_primary>  (36) 
energy

$$$$
36:0
     RDKit          3D

 52 54  0  0  0  0  0  0  0  0999 V2000
   -3.8490   22.6560  -31.9930 C   0  0  0  0  0  0  0  0  0  0  0  0
   -5.3060   22.5330  -31.6290 C   0  0  0  0  0  0  0  0  0  0  0  0
   -6.0610   21.5170  -32.2410 C   0  0  0  0  0  0  0  0  0  0  0  0
   -7.4290   21.3740  -31.9760 C   0  0  0  0  0  0  0  0  0  0  0  0
   -8.1990   20.2390  -32.5940 C   0  0  0  0  0  0  0  0  0  0  0  0
   -7.3070   19.4250  -33.4140 N   0  0  0  0  0  0  0  0  0  0  0  0
   -6.3590   18.5110  -32.8420 C   0  0  0  0  0  0  0  0  0  0  0  0
   -6.2720   18.4060  -31.5890 O   0  0  0  0  0  0  0  0  0  0  0  0
   -5.4570   17.7090  -33.6960 C   0  0  0  0  0  0  0  0  0  0  0  0
   -5.6530   16.4500  -34.2470 C   0  0  0  0  0  0  0  0  0  0  0  0
   -6.8570   15.5700  -34.1210 C   0  0  0  0  0  0  0  0  0  0  0  0
   -4.5570   16.0940  -34.9470 N   0  0  0  0  0  0  0  0  0  0  0  0
   -3.6970   17.0660  -34.8370 O   0  0  0  0  0  0  0  0  0  0  0  0
   -4.1760   18.0440  -34.1060 C   0  0  0  0  0  0  0  0  0  0  0  0
   -3.4240   19.2980  -33.7950 C   0  0  0  0  0  0  0  0  0  0  0  0
   -8.0520   22.2550  -31.0880 C   0  0  0  0  0  0  0  0  0  0  0  0
   -7.3200   23.2730  -30.4770 C   0  0  0  0  0  0  0  0  0  0  0  0
   -5.9470   23.4270  -30.7290 C   0  0  0  0  0  0  0  0  0  0  0  0
   -5.1010   24.7360  -29.8720 S   0  0  0  0  0  0  0  0  0  0  0  0
   -6.1210   25.5440  -29.1150 O   0  0  0  0  0  0  0  0  0  0  0  0
   -4.4220   25.6680  -30.8350 O   0  0  0  0  0  0  0  0  0  0  0  0
   -3.9180   24.1130  -28.7450 N   0  0  0  0  0  0  0  0  0  0  0  0
   -2.5620   24.5530  -29.1270 C   0  0  0  0  0  0  0  0  0  0  0  0
   -1.4640   23.8550  -28.2930 C   0  0  0  0  0  0  0  0  0  0  0  0
   -2.0420   23.1230  -27.0780 C   0  0  0  0  0  0  0  0  0  0  0  0
   -3.1370   22.1300  -27.4990 C   0  0  0  0  0  0  0  0  0  0  0  0
   -3.9850   22.6470  -28.6750 C   0  0  0  0  0  0  0  0  0  0  0  0
   -3.2448   22.7070  -31.0752 H   0  0  0  0  0  0  0  0  0  0  0  0
   -3.5437   21.7804  -32.5848 H   0  0  0  0  0  0  0  0  0  0  0  0
   -3.6948   23.5704  -32.5848 H   0  0  0  0  0  0  0  0  0  0  0  0
   -5.5695   20.8233  -32.9391 H   0  0  0  0  0  0  0  0  0  0  0  0
   -8.6332   19.6162  -31.7980 H   0  0  0  0  0  0  0  0  0  0  0  0
   -9.0022   20.6464  -33.2256 H   0  0  0  0  0  0  0  0  0  0  0  0
   -7.2380   19.6620  -34.4280 H   0  0  0  0  0  0  0  0  0  0  0  0
   -7.0815   15.4059  -33.0567 H   0  0  0  0  0  0  0  0  0  0  0  0
   -7.7172   16.0538  -34.6068 H   0  0  0  0  0  0  0  0  0  0  0  0
   -6.6572   14.6035  -34.6068 H   0  0  0  0  0  0  0  0  0  0  0  0
   -3.3505   19.4205  -32.7043 H   0  0  0  0  0  0  0  0  0  0  0  0
   -2.4138   19.2362  -34.2259 H   0  0  0  0  0  0  0  0  0  0  0  0
   -3.9543   20.1600  -34.2259 H   0  0  0  0  0  0  0  0  0  0  0  0
   -9.1245   22.1451  -30.8699 H   0  0  0  0  0  0  0  0  0  0  0  0
   -7.8255   23.9653  -29.7877 H   0  0  0  0  0  0  0  0  0  0  0  0
   -2.4007   24.3206  -30.1900 H   0  0  0  0  0  0  0  0  0  0  0  0
   -2.4927   25.6344  -28.9381 H   0  0  0  0  0  0  0  0  0  0  0  0
   -0.9429   23.1263  -28.9314 H   0  0  0  0  0  0  0  0  0  0  0  0
   -0.7739   24.6289  -27.9258 H   0  0  0  0  0  0  0  0  0  0  0  0
   -1.2344   22.5738  -26.5719 H   0  0  0  0  0  0  0  0  0  0  0  0
   -2.4870   23.8672  -26.4011 H   0  0  0  0  0  0  0  0  0  0  0  0
   -2.6597   21.1850  -27.7976 H   0  0  0  0  0  0  0  0  0  0  0  0
   -3.8092   21.9913  -26.6394 H   0  0  0  0  0  0  0  0  0  0  0  0
   -3.6018   22.2208  -29.6139 H   0  0  0  0  0  0  0  0  0  0  0  0
   -5.0312   22.3431  -28.5231 H   0  0  0  0  0  0  0  0  0  0  0  0
  1  2  1  0
  2  3  2  0
  3  4  1  0
  4  5  1  0
  5  6  1  0
  6  7  1  0
  7  8  2  0
  7  9  1  0
  9 10  1  0
 10 11  1  0
 10 12  2  0
 12 13  1  0
 13 14  1  0
 14 15  1  0
  4 16  2  0
 16 17  1  0
 17 18  2  0
 18 19  1  0
 19 20  2  0
 19 21  2  0
 19 22  1  0
 22 23  1  0
 23 24  1  0
 24 25  1  0
 25 26  1  0
 26 27  1  0
 18  2  1  0
 27 22  1  0
 14  9  2  0
  1 28  1  0
  1 29  1  0
  1 30  1  0
  3 31  1  0
  5 32  1  0
  5 33  1  0
  6 34  1  0
 11 35  1  0
 11 36  1  0
 11 37  1  0
 15 38  1  0
 15 39  1  0
 15 40  1  0
 16 41  1  0
 17 42  1  0
 23 43  1  0
 23 44  1  0
 24 45  1  0
 24 46  1  0
 25 47  1  0
 25 48  1  0
 26 49  1  0
 26 50  1  0
 27 51  1  0
 27 52  1  0
M  END
>  <UniqueID>  (37) 
35

>  <SMILES>  (37) 
Cc1cc(CNC(=O)c2c(C)noc2C)ccc1S(=O)(=O)N1CCCCC1

>  <Energy>  (37) 
86.72450343202242

>  <Genealogy>  (37) 
Cc1cc(CNC(=O)c2c(C)noc2C)ccc1S(=O)(=O)N1CCCCC1 (3D coordinates assigned)
Cc1cc(CNC(=O)c2c(C)noc2C)ccc1S(=O)(=O)N1CCCCC1 (nonaromatic ring conformer: 86.72450343202242 kcal/mol)

>  <smiles>  (37) 
Cc1cc(CNC(=O)c2c(C)noc2C)ccc1S(=O)(=O)N1CCCCC1

>  <score_type>  (37) 
oracle

>  <origin>  (37) 
adgpu

>  <m_score__min__energy>  (37) 
-10.470000000000001

>  <m_primary>  (37) 
energy

$$$$
37:0
     RDKit          3D

 44 46  0  0  0  0  0  0  0  0999 V2000
   -8.4220   21.4550  -31.9390 C   0  0  0  0  0  0  0  0  0  0  0  0
   -7.1400   22.1980  -31.7670 C   0  0  0  0  0  0  0  0  0  0  0  0
   -7.0180   23.4830  -31.2780 C   0  0  0  0  0  0  0  0  0  0  0  0
   -5.6630   23.7520  -31.2800 C   0  0  0  0  0  0  0  0  0  0  0  0
   -5.0340   25.0110  -30.8450 C   0  0  0  0  0  0  0  0  0  0  0  0
   -5.7020   26.0800  -30.8180 O   0  0  0  0  0  0  0  0  0  0  0  0
   -3.6510   25.0190  -30.4710 N   0  0  0  0  0  0  0  0  0  0  0  0
   -3.1220   24.3360  -29.3280 C   0  0  0  0  0  0  0  0  0  0  0  0
   -3.9010   23.3420  -28.7290 C   0  0  0  0  0  0  0  0  0  0  0  0
   -3.4130   22.6230  -27.6420 C   0  0  0  0  0  0  0  0  0  0  0  0
   -2.1410   22.8910  -27.1380 C   0  0  0  0  0  0  0  0  0  0  0  0
   -1.3430   23.8970  -27.7070 C   0  0  0  0  0  0  0  0  0  0  0  0
    0.2640   24.2910  -27.0480 S   0  0  0  0  0  0  0  0  0  0  0  0
    1.1590   24.6720  -28.1940 O   0  0  0  0  0  0  0  0  0  0  0  0
    0.8190   23.0540  -26.3980 O   0  0  0  0  0  0  0  0  0  0  0  0
    0.3120   25.5670  -25.8510 N   0  0  0  0  0  0  0  0  0  0  0  0
   -0.1980   25.1460  -24.5470 C   0  0  0  0  0  0  0  0  0  0  0  0
   -0.8090   26.3750  -23.9030 C   0  0  0  0  0  0  0  0  0  0  0  0
   -1.2210   27.2610  -25.0630 C   0  0  0  0  0  0  0  0  0  0  0  0
   -0.4100   26.7770  -26.2590 C   0  0  0  0  0  0  0  0  0  0  0  0
   -1.8550   24.6540  -28.7840 C   0  0  0  0  0  0  0  0  0  0  0  0
   -1.1140   25.7360  -29.2650 O   0  0  0  0  0  0  0  0  0  0  0  0
   -5.0480   22.6080  -31.7700 C   0  0  0  0  0  0  0  0  0  0  0  0
   -3.5830   22.3900  -31.9710 C   0  0  0  0  0  0  0  0  0  0  0  0
   -5.9570   21.7010  -32.0490 O   0  0  0  0  0  0  0  0  0  0  0  0
   -8.8406   21.2124  -30.9511 H   0  0  0  0  0  0  0  0  0  0  0  0
   -9.1358   22.0794  -32.4964 H   0  0  0  0  0  0  0  0  0  0  0  0
   -8.2350   20.5253  -32.4964 H   0  0  0  0  0  0  0  0  0  0  0  0
   -7.8291   24.1521  -30.9547 H   0  0  0  0  0  0  0  0  0  0  0  0
   -4.9066   23.1266  -29.1194 H   0  0  0  0  0  0  0  0  0  0  0  0
   -4.0327   21.8409  -27.1791 H   0  0  0  0  0  0  0  0  0  0  0  0
   -1.7587   22.3089  -26.2865 H   0  0  0  0  0  0  0  0  0  0  0  0
   -0.9615   24.3641  -24.6726 H   0  0  0  0  0  0  0  0  0  0  0  0
    0.6060   24.7293  -23.9225 H   0  0  0  0  0  0  0  0  0  0  0  0
   -1.6846   26.0993  -23.2969 H   0  0  0  0  0  0  0  0  0  0  0  0
   -0.1046   26.8807  -23.2262 H   0  0  0  0  0  0  0  0  0  0  0  0
   -2.2978   27.1565  -25.2620 H   0  0  0  0  0  0  0  0  0  0  0  0
   -1.0343   28.3237  -24.8488 H   0  0  0  0  0  0  0  0  0  0  0  0
   -1.0824   26.5464  -27.0985 H   0  0  0  0  0  0  0  0  0  0  0  0
    0.2966   27.5548  -26.5843 H   0  0  0  0  0  0  0  0  0  0  0  0
   -0.1170   25.8310  -29.1180 H   0  0  0  0  0  0  0  0  0  0  0  0
   -3.0857   22.3160  -30.9926 H   0  0  0  0  0  0  0  0  0  0  0  0
   -3.4248   21.4584  -32.5341 H   0  0  0  0  0  0  0  0  0  0  0  0
   -3.1604   23.2351  -32.5341 H   0  0  0  0  0  0  0  0  0  0  0  0
  1  2  1  0
  2  3  2  0
  3  4  1  0
  4  5  1  0
  5  6  2  0
  5  7  1  0
  7  8  1  0
  8  9  2  0
  9 10  1  0
 10 11  2  0
 11 12  1  0
 12 13  1  0
 13 14  2  0
 13 15  2  0
 13 16  1  0
 16 17  1  0
 17 18  1  0
 18 19  1  0
 19 20  1  0
 12 21  2  0
 21 22  1  0
  4 23  2  0
 23 24  1  0
 23 25  1  0
 25  2  1  0
 21  8  1  0
 20 16  1  0
  1 26  1  0
  1 27  1  0
  1 28  1  0
  3 29  1  0
  9 30  1  0
 10 31  1  0
 11 32  1  0
 17 33  1  0
 17 34  1  0
 18 35  1  0
 18 36  1  0
 19 37  1  0
 19 38  1  0
 20 39  1  0
 20 40  1  0
 22 41  1  0
 24 42  1  0
 24 43  1  0
 24 44  1  0
M  CHG  1   7  -1
M  END
>  <UniqueID>  (38) 
36

>  <SMILES>  (38) 
Cc1cc(C(=O)[N-]c2cccc(S(=O)(=O)N3CCCC3)c2O)c(C)o1

>  <Energy>  (38) 
80.94655207454203

>  <Genealogy>  (38) 
Cc1cc(C(=O)[N-]c2cccc(S(=O)(=O)N3CCCC3)c2O)c(C)o1 (protonated)
Cc1cc(C(=O)[N-]c2cccc(S(=O)(=O)N3CCCC3)c2O)c(C)o1 (3D coordinates assigned)
Cc1cc(C(=O)[N-]c2cccc(S(=O)(=O)N3CCCC3)c2O)c(C)o1 (nonaromatic ring conformer: 80.94655207454203 kcal/mol)

>  <smiles>  (38) 
Cc1cc(C(=O)Nc2cccc(S(=O)(=O)N3CCCC3)c2O)c(C)o1

>  <score_type>  (38) 
oracle

>  <origin>  (38) 
adgpu

>  <m_score__min__energy>  (38) 
-11.31

>  <m_primary>  (38) 
energy

$$$$
38:0
     RDKit          3D

 49 52  0  0  0  0  0  0  0  0999 V2000
   -9.4880   20.5390  -30.7740 O   0  0  0  0  0  0  0  0  0  0  0  0
   -8.2840   20.3790  -31.6610 S   0  0  0  0  0  0  0  0  0  0  0  0
   -8.7300   20.4270  -33.0970 O   0  0  0  0  0  0  0  0  0  0  0  0
   -7.5270   18.7890  -31.3570 C   0  0  0  0  0  0  0  0  0  0  0  0
   -6.6950   18.3710  -32.5390 C   0  0  0  0  0  0  0  0  0  0  0  0
   -6.8860   17.1080  -33.1260 C   0  0  0  0  0  0  0  0  0  0  0  0
   -6.1490   16.7360  -34.2550 C   0  0  0  0  0  0  0  0  0  0  0  0
   -5.2190   17.6200  -34.8060 C   0  0  0  0  0  0  0  0  0  0  0  0
   -5.0190   18.8760  -34.2270 C   0  0  0  0  0  0  0  0  0  0  0  0
   -5.7520   19.2510  -33.0980 C   0  0  0  0  0  0  0  0  0  0  0  0
   -7.1240   21.6480  -31.3540 N   0  0  0  0  0  0  0  0  0  0  0  0
   -7.6020   22.5240  -30.2630 C   0  0  0  0  0  0  0  0  0  0  0  0
   -6.7260   23.7860  -30.1150 C   0  0  0  0  0  0  0  0  0  0  0  0
   -5.5120   23.6630  -30.9260 N   0  0  0  0  0  0  0  0  0  0  0  0
   -4.2120   23.6140  -30.3080 C   0  0  0  0  0  0  0  0  0  0  0  0
   -3.5770   24.8060  -29.9430 C   0  0  0  0  0  0  0  0  0  0  0  0
   -2.3350   24.7910  -29.3170 C   0  0  0  0  0  0  0  0  0  0  0  0
   -1.7420   26.0020  -28.9680 O   0  0  0  0  0  0  0  0  0  0  0  0
   -1.6990   23.5690  -29.0390 C   0  0  0  0  0  0  0  0  0  0  0  0
   -0.4430   23.5500  -28.4020 C   0  0  0  0  0  0  0  0  0  0  0  0
    0.1890   22.3410  -28.1230 C   0  0  0  0  0  0  0  0  0  0  0  0
   -0.4170   21.1370  -28.4720 C   0  0  0  0  0  0  0  0  0  0  0  0
   -1.6630   21.1310  -29.1040 C   0  0  0  0  0  0  0  0  0  0  0  0
   -2.3260   22.3420  -29.4020 C   0  0  0  0  0  0  0  0  0  0  0  0
   -3.5930   22.3760  -30.0480 C   0  0  0  0  0  0  0  0  0  0  0  0
   -4.2640   21.2190  -30.4590 O   0  0  0  0  0  0  0  0  0  0  0  0
   -5.6600   23.3470  -32.3530 C   0  0  0  0  0  0  0  0  0  0  0  0
   -6.8760   22.4330  -32.5760 C   0  0  0  0  0  0  0  0  0  0  0  0
   -6.8841   18.8576  -30.4671 H   0  0  0  0  0  0  0  0  0  0  0  0
   -8.3178   18.0419  -31.1945 H   0  0  0  0  0  0  0  0  0  0  0  0
   -7.6183   16.4092  -32.6955 H   0  0  0  0  0  0  0  0  0  0  0  0
   -6.3021   15.7460  -34.7094 H   0  0  0  0  0  0  0  0  0  0  0  0
   -4.6434   17.3274  -35.6965 H   0  0  0  0  0  0  0  0  0  0  0  0
   -4.2839   19.5701  -34.6604 H   0  0  0  0  0  0  0  0  0  0  0  0
   -5.5903   20.2399  -32.6443 H   0  0  0  0  0  0  0  0  0  0  0  0
   -8.6355   22.8316  -30.4804 H   0  0  0  0  0  0  0  0  0  0  0  0
   -7.5474   21.9579  -29.3215 H   0  0  0  0  0  0  0  0  0  0  0  0
   -7.2972   24.6649  -30.4486 H   0  0  0  0  0  0  0  0  0  0  0  0
   -6.4397   23.8998  -29.0590 H   0  0  0  0  0  0  0  0  0  0  0  0
   -4.0666   25.7682  -30.1540 H   0  0  0  0  0  0  0  0  0  0  0  0
    0.0421   24.4970  -28.1229 H   0  0  0  0  0  0  0  0  0  0  0  0
    1.1700   22.3371  -27.6254 H   0  0  0  0  0  0  0  0  0  0  0  0
    0.0879   20.1855  -28.2490 H   0  0  0  0  0  0  0  0  0  0  0  0
   -2.1326   20.1731  -29.3723 H   0  0  0  0  0  0  0  0  0  0  0  0
   -5.2010   21.1930  -30.8340 H   0  0  0  0  0  0  0  0  0  0  0  0
   -5.7995   24.2802  -32.9184 H   0  0  0  0  0  0  0  0  0  0  0  0
   -4.7545   22.8272  -32.6992 H   0  0  0  0  0  0  0  0  0  0  0  0
   -7.7600   23.0464  -32.8047 H   0  0  0  0  0  0  0  0  0  0  0  0
   -6.6772   21.7530  -33.4175 H   0  0  0  0  0  0  0  0  0  0  0  0
  1  2  2  0
  2  3  2  0
  2  4  1  0
  4  5  1  0
  5  6  2  0
  6  7  1  0
  7  8  2  0
  8  9  1  0
  9 10  2  0
  2 11  1  0
 11 12  1  0
 12 13  1  0
 13 14  1  0
 14 15  1  0
 15 16  2  0
 16 17  1  0
 17 18  1  0
 17 19  2  0
 19 20  1  0
 20 21  2  0
 21 22  1  0
 22 23  2  0
 23 24  1  0
 24 25  2  0
 25 26  1  0
 14 27  1  0
 27 28  1  0
 10  5  1  0
 28 11  1  0
 25 15  1  0
 24 19  1  0
  4 29  1  0
  4 30  1  0
  6 31  1  0
  7 32  1  0
  8 33  1  0
  9 34  1  0
 10 35  1  0
 12 36  1  0
 12 37  1  0
 13 38  1  0
 13 39  1  0
 16 40  1  0
 20 41  1  0
 21 42  1  0
 22 43  1  0
 23 44  1  0
 26 45  1  0
 27 46  1  0
 27 47  1  0
 28 48  1  0
 28 49  1  0
M  CHG  1  18  -1
M  END
>  <UniqueID>  (39) 
37

>  <SMILES>  (39) 
O=S(=O)(Cc1ccccc1)N1CCN(c2cc([O-])c3ccccc3c2O)CC1

>  <Energy>  (39) 
63.057639280344134

>  <Genealogy>  (39) 
O=S(=O)(Cc1ccccc1)N1CCN(c2cc([O-])c3ccccc3c2O)CC1 (protonated)
O=S(=O)(Cc1ccccc1)N1CCN(c2cc([O-])c3ccccc3c2O)CC1 (3D coordinates assigned)
O=S(=O)(Cc1ccccc1)N1CCN(c2cc([O-])c3ccccc3c2O)CC1 (nonaromatic ring conformer: 63.057639280344134 kcal/mol)

>  <smiles>  (39) 
O=S(=O)(Cc1ccccc1)N1CCN(c2cc(O)c3ccccc3c2O)CC1

>  <score_type>  (39) 
oracle

>  <origin>  (39) 
adgpu

>  <m_score__min__energy>  (39) 
-11.18

>  <m_primary>  (39) 
energy

$$$$
39:0
     RDKit          3D

 44 46  0  0  0  0  0  0  0  0999 V2000
    0.6340   19.6920  -29.6550 C   0  0  0  0  0  0  0  0  0  0  0  0
    0.4430   20.6950  -30.6500 O   0  0  0  0  0  0  0  0  0  0  0  0
   -0.2230   20.4960  -31.8710 C   0  0  0  0  0  0  0  0  0  0  0  0
    0.4580   19.9860  -32.9950 C   0  0  0  0  0  0  0  0  0  0  0  0
   -0.2050   19.8140  -34.2090 C   0  0  0  0  0  0  0  0  0  0  0  0
   -1.5510   20.1540  -34.3250 C   0  0  0  0  0  0  0  0  0  0  0  0
   -2.2530   20.6610  -33.2240 C   0  0  0  0  0  0  0  0  0  0  0  0
   -3.6620   21.0500  -33.4210 C   0  0  0  0  0  0  0  0  0  0  0  0
   -3.9380   22.2640  -33.6260 O   0  0  0  0  0  0  0  0  0  0  0  0
   -4.7110   20.0690  -33.3950 N   0  0  0  0  0  0  0  0  0  0  0  0
   -4.4820   18.6330  -33.3690 C   0  0  0  0  0  0  0  0  0  0  0  0
   -5.8660   17.9970  -33.4570 C   0  0  0  0  0  0  0  0  0  0  0  0
   -6.8610   19.1100  -33.1280 C   0  0  0  0  0  0  0  0  0  0  0  0
   -6.1200   20.4200  -33.3740 C   0  0  0  0  0  0  0  0  0  0  0  0
   -1.5970   20.8230  -31.9770 C   0  0  0  0  0  0  0  0  0  0  0  0
   -2.4890   21.4790  -30.5830 S   0  0  0  0  0  0  0  0  0  0  0  0
   -1.5920   21.7130  -29.4000 O   0  0  0  0  0  0  0  0  0  0  0  0
   -3.5370   20.4810  -30.1780 O   0  0  0  0  0  0  0  0  0  0  0  0
   -3.2030   22.9920  -31.0560 N   0  0  0  0  0  0  0  0  0  0  0  0
   -4.5800   23.3660  -30.8900 C   0  0  0  0  0  0  0  0  0  0  0  0
   -5.6230   22.4200  -30.9300 C   0  0  0  0  0  0  0  0  0  0  0  0
   -6.9570   22.8360  -30.8180 C   0  0  0  0  0  0  0  0  0  0  0  0
   -8.2520   21.6550  -30.9100 Cl  0  0  0  0  0  0  0  0  0  0  0  0
   -7.2560   24.1910  -30.6280 C   0  0  0  0  0  0  0  0  0  0  0  0
   -6.2210   25.1290  -30.5370 C   0  0  0  0  0  0  0  0  0  0  0  0
   -4.8880   24.7200  -30.6630 C   0  0  0  0  0  0  0  0  0  0  0  0
   -3.8640   25.6640  -30.5810 O   0  0  0  0  0  0  0  0  0  0  0  0
    0.5477   20.1451  -28.6564 H   0  0  0  0  0  0  0  0  0  0  0  0
   -0.1315   18.9105  -29.7705 H   0  0  0  0  0  0  0  0  0  0  0  0
    1.6331   19.2465  -29.7705 H   0  0  0  0  0  0  0  0  0  0  0  0
    1.5225   19.7213  -32.9133 H   0  0  0  0  0  0  0  0  0  0  0  0
    0.3357   19.4090  -35.0771 H   0  0  0  0  0  0  0  0  0  0  0  0
   -2.0662   20.0234  -35.2881 H   0  0  0  0  0  0  0  0  0  0  0  0
   -3.8633   18.3270  -34.2255 H   0  0  0  0  0  0  0  0  0  0  0  0
   -3.9473   18.3218  -32.4595 H   0  0  0  0  0  0  0  0  0  0  0  0
   -6.0457   17.6108  -34.4712 H   0  0  0  0  0  0  0  0  0  0  0  0
   -5.9653   17.1489  -32.7635 H   0  0  0  0  0  0  0  0  0  0  0  0
   -7.7427   19.0406  -33.7821 H   0  0  0  0  0  0  0  0  0  0  0  0
   -7.2192   19.0375  -32.0905 H   0  0  0  0  0  0  0  0  0  0  0  0
   -6.4218   20.8577  -34.3370 H   0  0  0  0  0  0  0  0  0  0  0  0
   -6.3434   21.1678  -32.5988 H   0  0  0  0  0  0  0  0  0  0  0  0
   -5.3900   21.3516  -31.0495 H   0  0  0  0  0  0  0  0  0  0  0  0
   -8.3034   24.5179  -30.5503 H   0  0  0  0  0  0  0  0  0  0  0  0
   -6.4556   26.1900  -30.3661 H   0  0  0  0  0  0  0  0  0  0  0  0
  1  2  1  0
  2  3  1  0
  3  4  2  0
  4  5  1  0
  5  6  2  0
  6  7  1  0
  7  8  1  0
  8  9  2  0
  8 10  1  0
 10 11  1  0
 11 12  1  0
 12 13  1  0
 13 14  1  0
  7 15  2  0
 15 16  1  0
 16 17  2  0
 16 18  2  0
 16 19  1  0
 19 20  1  0
 20 21  2  0
 21 22  1  0
 22 23  1  0
 22 24  2  0
 24 25  1  0
 25 26  2  0
 26 27  1  0
 15  3  1  0
 26 20  1  0
 14 10  1  0
  1 28  1  0
  1 29  1  0
  1 30  1  0
  4 31  1  0
  5 32  1  0
  6 33  1  0
 11 34  1  0
 11 35  1  0
 12 36  1  0
 12 37  1  0
 13 38  1  0
 13 39  1  0
 14 40  1  0
 14 41  1  0
 21 42  1  0
 24 43  1  0
 25 44  1  0
M  CHG  2  19  -1  27  -1
M  END
>  <UniqueID>  (40) 
38

>  <SMILES>  (40) 
COc1cccc(C(=O)N2CCCC2)c1S(=O)(=O)[N-]c1cc(Cl)ccc1[O-]

>  <Energy>  (40) 
59.246985403781885

>  <Genealogy>  (40) 
COc1cccc(C(=O)N2CCCC2)c1S(=O)(=O)[N-]c1cc(Cl)ccc1[O-] (protonated)
COc1cccc(C(=O)N2CCCC2)c1S(=O)(=O)[N-]c1cc(Cl)ccc1[O-] (3D coordinates assigned)
COc1cccc(C(=O)N2CCCC2)c1S(=O)(=O)[N-]c1cc(Cl)ccc1[O-] (nonaromatic ring conformer: 59.246985403781885 kcal/mol)

>  <smiles>  (40) 
COc1cccc(C(=O)N2CCCC2)c1S(=O)(=O)Nc1cc(Cl)ccc1O

>  <score_type>  (40) 
oracle

>  <origin>  (40) 
adgpu

>  <m_score__min__energy>  (40) 
-12.619999999999999

>  <m_primary>  (40) 
energy

$$$$
40:0
     RDKit          3D

 40 42  0  0  0  0  0  0  0  0999 V2000
   -7.6700   18.0760  -32.3600 C   0  0  0  0  0  0  0  0  0  0  0  0
   -8.9140   18.7290  -31.7680 C   0  0  0  0  0  0  0  0  0  0  0  0
   -9.1770   20.0170  -32.4060 N   0  0  0  0  0  0  0  0  0  0  0  0
   -8.7870   21.3010  -31.8990 C   0  0  0  0  0  0  0  0  0  0  0  0
   -9.6660   22.0410  -31.3840 O   0  0  0  0  0  0  0  0  0  0  0  0
   -7.3900   21.7760  -31.9460 C   0  0  0  0  0  0  0  0  0  0  0  0
   -6.4390   21.0760  -32.7040 C   0  0  0  0  0  0  0  0  0  0  0  0
   -5.1120   21.5140  -32.7460 C   0  0  0  0  0  0  0  0  0  0  0  0
   -4.7230   22.6420  -32.0200 C   0  0  0  0  0  0  0  0  0  0  0  0
   -5.6570   23.3310  -31.2370 C   0  0  0  0  0  0  0  0  0  0  0  0
   -5.1510   24.7320  -30.2980 S   0  0  0  0  0  0  0  0  0  0  0  0
   -5.4970   24.5540  -28.8450 O   0  0  0  0  0  0  0  0  0  0  0  0
   -5.8560   25.9490  -30.8230 O   0  0  0  0  0  0  0  0  0  0  0  0
   -3.4390   24.9590  -30.4470 N   0  0  0  0  0  0  0  0  0  0  0  0
   -2.4490   24.3530  -29.6030 C   0  0  0  0  0  0  0  0  0  0  0  0
   -2.4550   22.9600  -29.3150 C   0  0  0  0  0  0  0  0  0  0  0  0
   -1.4640   22.3960  -28.4890 C   0  0  0  0  0  0  0  0  0  0  0  0
   -0.4930   23.2460  -27.9690 C   0  0  0  0  0  0  0  0  0  0  0  0
    0.5360   22.9260  -27.1720 N   0  0  0  0  0  0  0  0  0  0  0  0
    1.1400   24.1290  -26.9780 C   0  0  0  0  0  0  0  0  0  0  0  0
    2.3910   24.2810  -26.1810 C   0  0  0  0  0  0  0  0  0  0  0  0
    0.5510   25.1700  -27.6240 N   0  0  0  0  0  0  0  0  0  0  0  0
   -0.4850   24.5790  -28.2370 C   0  0  0  0  0  0  0  0  0  0  0  0
   -1.4460   25.1740  -29.0510 C   0  0  0  0  0  0  0  0  0  0  0  0
   -6.9880   22.8950  -31.1980 C   0  0  0  0  0  0  0  0  0  0  0  0
   -7.0143   17.7318  -31.5467 H   0  0  0  0  0  0  0  0  0  0  0  0
   -7.9665   17.2173  -32.9802 H   0  0  0  0  0  0  0  0  0  0  0  0
   -7.1317   18.8078  -32.9802 H   0  0  0  0  0  0  0  0  0  0  0  0
   -9.7780   18.0663  -31.9237 H   0  0  0  0  0  0  0  0  0  0  0  0
   -8.7477   18.8951  -30.6934 H   0  0  0  0  0  0  0  0  0  0  0  0
   -6.7386   20.1797  -33.2670 H   0  0  0  0  0  0  0  0  0  0  0  0
   -4.3730   20.9693  -33.3519 H   0  0  0  0  0  0  0  0  0  0  0  0
   -3.6804   22.9899  -32.0635 H   0  0  0  0  0  0  0  0  0  0  0  0
   -3.2402   22.3182  -29.7411 H   0  0  0  0  0  0  0  0  0  0  0  0
   -1.4577   21.3196  -28.2624 H   0  0  0  0  0  0  0  0  0  0  0  0
    2.1483   24.2515  -25.1085 H   0  0  0  0  0  0  0  0  0  0  0  0
    3.0821   23.4602  -26.4233 H   0  0  0  0  0  0  0  0  0  0  0  0
    2.8654   25.2434  -26.4233 H   0  0  0  0  0  0  0  0  0  0  0  0
   -1.4225   26.2543  -29.2570 H   0  0  0  0  0  0  0  0  0  0  0  0
   -7.7218   23.4316  -30.5786 H   0  0  0  0  0  0  0  0  0  0  0  0
  1  2  1  0
  2  3  1  0
  3  4  1  0
  4  5  2  0
  4  6  1  0
  6  7  2  0
  7  8  1  0
  8  9  2  0
  9 10  1  0
 10 11  1  0
 11 12  2  0
 11 13  2  0
 11 14  1  0
 14 15  1  0
 15 16  2  0
 16 17  1  0
 17 18  2  0
 18 19  1  0
 19 20  1  0
 20 21  1  0
 20 22  2  0
 22 23  1  0
 23 24  2  0
 10 25  2  0
 25  6  1  0
 24 15  1  0
 23 18  1  0
  1 26  1  0
  1 27  1  0
  1 28  1  0
  2 29  1  0
  2 30  1  0
  7 31  1  0
  8 32  1  0
  9 33  1  0
 16 34  1  0
 17 35  1  0
 21 36  1  0
 21 37  1  0
 21 38  1  0
 24 39  1  0
 25 40  1  0
M  CHG  3   3  -1  14  -1  19  -1
M  END
>  <UniqueID>  (41) 
39

>  <SMILES>  (41) 
CC[N-]C(=O)c1cccc(S(=O)(=O)[N-]c2ccc3[n-]c(C)nc3c2)c1

>  <Energy>  (41) 
79.5228740866455

>  <Genealogy>  (41) 
CC[N-]C(=O)c1cccc(S(=O)(=O)[N-]c2ccc3[n-]c(C)nc3c2)c1 (protonated)
CC[N-]C(=O)c1cccc(S(=O)(=O)[N-]c2ccc3[n-]c(C)nc3c2)c1 (3D coordinates assigned)
CC[N-]C(=O)c1cccc(S(=O)(=O)[N-]c2ccc3[n-]c(C)nc3c2)c1 (optimized conformer: 79.5228740866455 kcal/mol)

>  <smiles>  (41) 
CCNC(=O)c1cccc(S(=O)(=O)Nc2ccc3[nH]c(C)nc3c2)c1

>  <score_type>  (41) 
oracle

>  <origin>  (41) 
adgpu

>  <m_score__min__energy>  (41) 
-10.08

>  <m_primary>  (41) 
energy

$$$$
41:0
     RDKit          3D

 29 30  0  0  0  0  0  0  0  0999 V2000
   -2.2200   23.2290  -27.2610 C   0  0  0  0  0  0  0  0  0  0  0  0
   -3.0430   23.6240  -28.3990 N   0  0  0  0  0  0  0  0  0  0  0  0
   -4.0560   22.9090  -28.9360 C   0  0  0  0  0  0  0  0  0  0  0  0
   -4.5500   23.5630  -30.0570 C   0  0  0  0  0  0  0  0  0  0  0  0
   -5.6530   23.1120  -30.9170 C   0  0  0  0  0  0  0  0  0  0  0  0
   -5.6540   23.4030  -32.1440 O   0  0  0  0  0  0  0  0  0  0  0  0
   -6.7220   22.3410  -30.3580 N   0  0  0  0  0  0  0  0  0  0  0  0
   -7.8990   21.9270  -31.1110 C   0  0  0  0  0  0  0  0  0  0  0  0
   -7.6430   20.6170  -31.8020 C   0  0  0  0  0  0  0  0  0  0  0  0
   -8.4220   19.4860  -31.5050 C   0  0  0  0  0  0  0  0  0  0  0  0
   -8.1610   18.2650  -32.1350 C   0  0  0  0  0  0  0  0  0  0  0  0
   -7.1200   18.1630  -33.0640 C   0  0  0  0  0  0  0  0  0  0  0  0
   -6.7940   16.6310  -33.8530 Cl  0  0  0  0  0  0  0  0  0  0  0  0
   -6.3380   19.2840  -33.3600 C   0  0  0  0  0  0  0  0  0  0  0  0
   -6.5960   20.5060  -32.7310 C   0  0  0  0  0  0  0  0  0  0  0  0
   -3.7870   24.7080  -30.2000 C   0  0  0  0  0  0  0  0  0  0  0  0
   -3.9110   25.6730  -31.1920 O   0  0  0  0  0  0  0  0  0  0  0  0
   -2.8710   24.7110  -29.1760 C   0  0  0  0  0  0  0  0  0  0  0  0
   -1.8970   25.6800  -28.9650 O   0  0  0  0  0  0  0  0  0  0  0  0
   -2.7425   23.4798  -26.3260 H   0  0  0  0  0  0  0  0  0  0  0  0
   -2.0371   22.1450  -27.2995 H   0  0  0  0  0  0  0  0  0  0  0  0
   -1.2599   23.7644  -27.2995 H   0  0  0  0  0  0  0  0  0  0  0  0
   -4.4327   21.9527  -28.5441 H   0  0  0  0  0  0  0  0  0  0  0  0
   -8.7490   21.8137  -30.4221 H   0  0  0  0  0  0  0  0  0  0  0  0
   -8.1264   22.6920  -31.8680 H   0  0  0  0  0  0  0  0  0  0  0  0
   -9.2405   19.5612  -30.7740 H   0  0  0  0  0  0  0  0  0  0  0  0
   -8.7753   17.3834  -31.8997 H   0  0  0  0  0  0  0  0  0  0  0  0
   -5.5182   19.2043  -34.0891 H   0  0  0  0  0  0  0  0  0  0  0  0
   -5.9761   21.3840  -32.9650 H   0  0  0  0  0  0  0  0  0  0  0  0
  1  2  1  0
  2  3  1  0
  3  4  2  0
  4  5  1  0
  5  6  2  0
  5  7  1  0
  7  8  1  0
  8  9  1  0
  9 10  2  0
 10 11  1  0
 11 12  2  0
 12 13  1  0
 12 14  1  0
 14 15  2  0
  4 16  1  0
 16 17  1  0
 16 18  2  0
 18 19  1  0
 18  2  1  0
 15  9  1  0
  1 20  1  0
  1 21  1  0
  1 22  1  0
  3 23  1  0
  8 24  1  0
  8 25  1  0
 10 26  1  0
 11 27  1  0
 14 28  1  0
 15 29  1  0
M  CHG  3   7  -1  17  -1  19  -1
M  END
>  <UniqueID>  (42) 
40

>  <SMILES>  (42) 
Cn1cc(C(=O)[N-]Cc2ccc(Cl)cc2)c([O-])c1[O-]

>  <Energy>  (42) 
54.7956953222548

>  <Genealogy>  (42) 
Cn1cc(C(=O)[N-]Cc2ccc(Cl)cc2)c([O-])c1[O-] (protonated)
Cn1cc(C(=O)[N-]Cc2ccc(Cl)cc2)c([O-])c1[O-] (3D coordinates assigned)
Cn1cc(C(=O)[N-]Cc2ccc(Cl)cc2)c([O-])c1[O-] (optimized conformer: 54.7956953222548 kcal/mol)

>  <smiles>  (42) 
Cn1cc(C(=O)NCc2ccc(Cl)cc2)c(O)c1O

>  <score_type>  (42) 
oracle

>  <origin>  (42) 
adgpu

>  <m_score__min__energy>  (42) 
-12.65

>  <m_primary>  (42) 
energy

$$$$
42:0
     RDKit          3D

 44 46  0  0  0  0  0  0  0  0999 V2000
   -5.7410   25.8870  -29.8670 H   0  0  0  0  0  0  0  0  0  0  0  0
   -6.4740   25.5560  -30.4820 O   0  0  0  0  0  0  0  0  0  0  0  0
   -6.5440   24.2220  -30.8830 C   0  0  0  0  0  0  0  0  0  0  0  0
   -7.7820   23.6600  -31.2250 C   0  0  0  0  0  0  0  0  0  0  0  0
   -8.6948   24.2706  -31.1618 H   0  0  0  0  0  0  0  0  0  0  0  0
   -7.8650   22.3320  -31.6450 C   0  0  0  0  0  0  0  0  0  0  0  0
   -8.8398   21.9047  -31.9227 H   0  0  0  0  0  0  0  0  0  0  0  0
   -6.7120   21.5420  -31.7140 C   0  0  0  0  0  0  0  0  0  0  0  0
   -6.8260   19.8730  -32.2670 S   0  0  0  0  0  0  0  0  0  0  0  0
   -6.3350   18.9410  -31.1930 O   0  0  0  0  0  0  0  0  0  0  0  0
   -8.2670   19.5570  -32.5570 O   0  0  0  0  0  0  0  0  0  0  0  0
   -5.8700   19.6680  -33.7140 N   0  0  0  0  0  0  0  0  0  0  0  0
   -6.1090   18.3300  -34.2880 C   0  0  0  0  0  0  0  0  0  0  0  0
   -6.1826   17.5948  -33.4731 H   0  0  0  0  0  0  0  0  0  0  0  0
   -7.0454   18.3534  -34.8647 H   0  0  0  0  0  0  0  0  0  0  0  0
   -4.9590   17.9310  -35.2260 C   0  0  0  0  0  0  0  0  0  0  0  0
   -5.1794   16.9348  -35.6371 H   0  0  0  0  0  0  0  0  0  0  0  0
   -4.8998   18.7094  -36.0010 H   0  0  0  0  0  0  0  0  0  0  0  0
   -3.6830   17.8820  -34.5990 O   0  0  0  0  0  0  0  0  0  0  0  0
   -3.6010   18.6480  -33.4050 C   0  0  0  0  0  0  0  0  0  0  0  0
   -3.9591   18.0304  -32.5681 H   0  0  0  0  0  0  0  0  0  0  0  0
   -2.5494   18.9451  -33.2788 H   0  0  0  0  0  0  0  0  0  0  0  0
   -4.4380   19.9380  -33.4540 C   0  0  0  0  0  0  0  0  0  0  0  0
   -4.3453   20.4569  -32.4885 H   0  0  0  0  0  0  0  0  0  0  0  0
   -4.0563   20.5561  -34.2800 H   0  0  0  0  0  0  0  0  0  0  0  0
   -5.4720   22.0970  -31.3690 C   0  0  0  0  0  0  0  0  0  0  0  0
   -4.5656   21.4757  -31.4175 H   0  0  0  0  0  0  0  0  0  0  0  0
   -5.3740   23.4380  -30.9620 C   0  0  0  0  0  0  0  0  0  0  0  0
   -4.0490   24.0020  -30.6050 C   0  0  0  0  0  0  0  0  0  0  0  0
   -3.8590   25.2440  -30.6940 O   0  0  0  0  0  0  0  0  0  0  0  0
   -2.9910   23.1810  -30.0820 N   0  0  0  0  0  0  0  0  0  0  0  0
   -1.9900   23.5960  -29.3600 C   0  0  0  0  0  0  0  0  0  0  0  0
   -1.9100   24.8910  -28.9430 N   0  0  0  0  0  0  0  0  0  0  0  0
   -0.8770   25.3470  -28.1810 C   0  0  0  0  0  0  0  0  0  0  0  0
   -0.8670   26.7690  -27.7240 C   0  0  0  0  0  0  0  0  0  0  0  0
   -0.8668   26.8008  -26.6245 H   0  0  0  0  0  0  0  0  0  0  0  0
    0.0347   27.2704  -28.1055 H   0  0  0  0  0  0  0  0  0  0  0  0
   -1.7616   27.2830  -28.1055 H   0  0  0  0  0  0  0  0  0  0  0  0
    0.1330   24.4610  -27.7860 C   0  0  0  0  0  0  0  0  0  0  0  0
    0.9673   24.8130  -27.1615 H   0  0  0  0  0  0  0  0  0  0  0  0
    0.0710   23.1280  -28.1920 C   0  0  0  0  0  0  0  0  0  0  0  0
    0.8617   22.4241  -27.8929 H   0  0  0  0  0  0  0  0  0  0  0  0
   -0.9950   22.6880  -28.9780 C   0  0  0  0  0  0  0  0  0  0  0  0
   -1.0530   21.6362  -29.2949 H   0  0  0  0  0  0  0  0  0  0  0  0
  1  2  1  0
  2  3  1  0
  3  4  2  0
  4  5  1  0
  4  6  1  0
  6  7  1  0
  6  8  2  0
  8  9  1  0
  9 10  2  0
  9 11  2  0
  9 12  1  0
 12 13  1  0
 13 14  1  0
 13 15  1  0
 13 16  1  0
 16 17  1  0
 16 18  1  0
 16 19  1  0
 19 20  1  0
 20 21  1  0
 20 22  1  0
 20 23  1  0
 23 24  1  0
 23 25  1  0
  8 26  1  0
 26 27  1  0
 26 28  2  0
 28 29  1  0
 29 30  2  0
 29 31  1  0
 31 32  2  0
 32 33  1  0
 33 34  1  0
 34 35  1  0
 35 36  1  0
 35 37  1  0
 35 38  1  0
 34 39  2  0
 39 40  1  0
 39 41  1  0
 41 42  1  0
 41 43  2  0
 43 44  1  0
 28  3  1  0
 43 32  1  0
 23 12  1  0
M  CHG  1  33  -1
M  END
>  <UniqueID>  (43) 
41

>  <SMILES>  (43) 
Cc1ccc/c(=N/C(=O)c2cc(S(=O)(=O)N3CCOCC3)ccc2O)[n-]1

>  <Energy>  (43) 
62.522748402812724

>  <Genealogy>  (43) 
Cc1cccc(=NC(=O)c2cc(S(=O)(=O)N3CCOCC3)ccc2O)[n-]1 (protonated)
Cc1ccc/c(=N/C(=O)c2cc(S(=O)(=O)N3CCOCC3)ccc2O)[n-]1 (cis-trans isomerization)
Cc1ccc/c(=N/C(=O)c2cc(S(=O)(=O)N3CCOCC3)ccc2O)[n-]1 (3D coordinates assigned)
Cc1ccc/c(=N/C(=O)c2cc(S(=O)(=O)N3CCOCC3)ccc2O)[n-]1 (nonaromatic ring conformer: 62.522748402812724 kcal/mol)

>  <smiles>  (43) 
Cc1cccc(=NC(=O)c2cc(S(=O)(=O)N3CCOCC3)ccc2O)[nH]1

>  <score_type>  (43) 
oracle

>  <origin>  (43) 
adgpu

>  <m_score__min__energy>  (43) 
-10.08

>  <m_primary>  (43) 
energy

$$$$
43:0
     RDKit          3D

 59 62  0  0  0  0  0  0  0  0999 V2000
   -9.0690   22.7890  -31.9560 C   0  0  0  0  0  0  0  0  0  0  0  0
   -9.8450   21.1910  -31.5650 S   0  0  0  0  0  0  0  0  0  0  0  0
   -8.4220   20.2390  -32.1020 C   0  0  0  0  0  0  0  0  0  0  0  0
   -7.5590   20.7530  -33.0780 C   0  0  0  0  0  0  0  0  0  0  0  0
   -6.4560   20.0070  -33.5040 C   0  0  0  0  0  0  0  0  0  0  0  0
   -6.2100   18.7380  -32.9550 C   0  0  0  0  0  0  0  0  0  0  0  0
   -4.8210   17.7840  -33.4670 S   0  0  0  0  0  0  0  0  0  0  0  0
   -5.1270   17.0070  -34.7170 O   0  0  0  0  0  0  0  0  0  0  0  0
   -4.4750   16.8140  -32.3710 O   0  0  0  0  0  0  0  0  0  0  0  0
   -3.4680   18.8340  -33.7500 N   0  0  0  0  0  0  0  0  0  0  0  0
   -3.0780   19.8870  -32.8510 C   0  0  0  0  0  0  0  0  0  0  0  0
   -1.8680   19.7800  -32.1530 C   0  0  0  0  0  0  0  0  0  0  0  0
   -1.4640   20.7780  -31.2630 C   0  0  0  0  0  0  0  0  0  0  0  0
   -2.2620   21.9220  -31.0580 C   0  0  0  0  0  0  0  0  0  0  0  0
   -1.8990   22.9560  -30.1570 C   0  0  0  0  0  0  0  0  0  0  0  0
   -0.6920   22.8140  -29.2570 C   0  0  0  0  0  0  0  0  0  0  0  0
   -2.7020   24.1180  -30.0910 C   0  0  0  0  0  0  0  0  0  0  0  0
   -2.3270   25.2180  -29.3060 O   0  0  0  0  0  0  0  0  0  0  0  0
   -1.7390   25.0780  -28.0090 C   0  0  0  0  0  0  0  0  0  0  0  0
   -2.8580   24.9550  -26.9580 C   0  0  0  0  0  0  0  0  0  0  0  0
   -2.3980   25.3840  -25.5520 C   0  0  0  0  0  0  0  0  0  0  0  0
   -0.9410   25.2060  -25.4150 N   0  0  0  0  0  0  0  0  0  0  0  0
   -0.5330   25.3770  -24.0120 C   0  0  0  0  0  0  0  0  0  0  0  0
   -0.2090   26.1570  -26.2830 C   0  0  0  0  0  0  0  0  0  0  0  0
   -0.8300   26.2760  -27.6940 C   0  0  0  0  0  0  0  0  0  0  0  0
   -3.9060   24.1710  -30.8200 C   0  0  0  0  0  0  0  0  0  0  0  0
   -4.7000   25.1920  -30.7390 N   0  0  0  0  0  0  0  0  0  0  0  0
   -4.2470   23.1430  -31.6370 N   0  0  0  0  0  0  0  0  0  0  0  0
   -3.4680   22.0430  -31.7860 C   0  0  0  0  0  0  0  0  0  0  0  0
   -3.8700   21.0330  -32.6670 C   0  0  0  0  0  0  0  0  0  0  0  0
   -7.0710   18.2290  -31.9710 C   0  0  0  0  0  0  0  0  0  0  0  0
   -8.1730   18.9770  -31.5460 C   0  0  0  0  0  0  0  0  0  0  0  0
   -8.8152   23.3117  -31.0220 H   0  0  0  0  0  0  0  0  0  0  0  0
   -8.1533   22.6185  -32.5412 H   0  0  0  0  0  0  0  0  0  0  0  0
   -9.7692   23.4032  -32.5412 H   0  0  0  0  0  0  0  0  0  0  0  0
   -7.7495   21.7463  -33.5105 H   0  0  0  0  0  0  0  0  0  0  0  0
   -5.7800   20.4145  -34.2701 H   0  0  0  0  0  0  0  0  0  0  0  0
   -2.8340   18.5860  -34.5430 H   0  0  0  0  0  0  0  0  0  0  0  0
   -1.2279   18.8989  -32.3078 H   0  0  0  0  0  0  0  0  0  0  0  0
   -0.5150   20.6703  -30.7174 H   0  0  0  0  0  0  0  0  0  0  0  0
   -1.0123   22.8517  -28.2053 H   0  0  0  0  0  0  0  0  0  0  0  0
   -0.1978   21.8515  -29.4555 H   0  0  0  0  0  0  0  0  0  0  0  0
    0.0121   23.6355  -29.4555 H   0  0  0  0  0  0  0  0  0  0  0  0
   -1.1179   24.1704  -27.9874 H   0  0  0  0  0  0  0  0  0  0  0  0
   -3.7002   25.5933  -27.2634 H   0  0  0  0  0  0  0  0  0  0  0  0
   -3.1508   23.8960  -26.9047 H   0  0  0  0  0  0  0  0  0  0  0  0
   -2.6508   26.4429  -25.3947 H   0  0  0  0  0  0  0  0  0  0  0  0
   -2.9072   24.7602  -24.8026 H   0  0  0  0  0  0  0  0  0  0  0  0
   -1.3435   25.0373  -23.3504 H   0  0  0  0  0  0  0  0  0  0  0  0
    0.3720   24.7825  -23.8182 H   0  0  0  0  0  0  0  0  0  0  0  0
   -0.3224   26.4391  -23.8182 H   0  0  0  0  0  0  0  0  0  0  0  0
   -0.2222   27.1490  -25.8078 H   0  0  0  0  0  0  0  0  0  0  0  0
    0.8163   25.7768  -26.4021 H   0  0  0  0  0  0  0  0  0  0  0  0
   -1.4245   27.2000  -27.7467 H   0  0  0  0  0  0  0  0  0  0  0  0
   -0.0138   26.2946  -28.4312 H   0  0  0  0  0  0  0  0  0  0  0  0
   -4.5110   26.0220  -30.1340 H   0  0  0  0  0  0  0  0  0  0  0  0
   -4.8148   21.1371  -33.2207 H   0  0  0  0  0  0  0  0  0  0  0  0
   -6.8784   17.2386  -31.5327 H   0  0  0  0  0  0  0  0  0  0  0  0
   -8.8455   18.5744  -30.7742 H   0  0  0  0  0  0  0  0  0  0  0  0
  1  2  1  0
  2  3  1  0
  3  4  2  0
  4  5  1  0
  5  6  2  0
  6  7  1  0
  7  8  2  0
  7  9  2  0
  7 10  1  0
 10 11  1  0
 11 12  2  0
 12 13  1  0
 13 14  2  0
 14 15  1  0
 15 16  1  0
 15 17  2  0
 17 18  1  0
 18 19  1  0
 19 20  1  0
 20 21  1  0
 21 22  1  0
 22 23  1  0
 22 24  1  0
 24 25  1  0
 17 26  1  0
 26 27  2  3
 26 28  1  0
 28 29  1  0
 29 30  2  0
  6 31  1  0
 31 32  2  0
 32  3  1  0
 30 11  1  0
 29 14  1  0
 25 19  1  0
  1 33  1  0
  1 34  1  0
  1 35  1  0
  4 36  1  0
  5 37  1  0
 10 38  1  0
 12 39  1  0
 13 40  1  0
 16 41  1  0
 16 42  1  0
 16 43  1  0
 19 44  1  0
 20 45  1  0
 20 46  1  0
 21 47  1  0
 21 48  1  0
 23 49  1  0
 23 50  1  0
 23 51  1  0
 24 52  1  0
 24 53  1  0
 25 54  1  0
 25 55  1  0
 27 56  1  0
 30 57  1  0
 31 58  1  0
 32 59  1  0
M  CHG  1  28  -1
M  END
>  <UniqueID>  (44) 
42

>  <SMILES>  (44) 
CSc1ccc(S(=O)(=O)Nc2ccc3c(C)c(OC4CCN(C)CC4)c(=N)[n-]c3c2)cc1

>  <Energy>  (44) 
77.83944346676205

>  <Genealogy>  (44) 
CSc1ccc(S(=O)(=O)Nc2ccc3c(C)c(OC4CCN(C)CC4)c(=N)[n-]c3c2)cc1 (protonated)
CSc1ccc(S(=O)(=O)Nc2ccc3c(C)c(OC4CCN(C)CC4)c(=N)[n-]c3c2)cc1 (3D coordinates assigned)
CSc1ccc(S(=O)(=O)Nc2ccc3c(C)c(OC4CCN(C)CC4)c(=N)[n-]c3c2)cc1 (nonaromatic ring conformer: 77.83944346676205 kcal/mol)

>  <smiles>  (44) 
CSc1ccc(S(=O)(=O)Nc2ccc3c(C)c(OC4CCN(C)CC4)c(=N)[nH]c3c2)cc1

>  <score_type>  (44) 
oracle

>  <origin>  (44) 
adgpu

>  <m_score__min__energy>  (44) 
-11.91

>  <m_primary>  (44) 
energy

$$$$
44:0
     RDKit          3D

 56 60  0  0  0  0  0  0  0  0999 V2000
    0.4000   19.1940  -34.8730 C   0  0  0  0  0  0  0  0  0  0  0  0
   -0.0350   17.8300  -35.3180 C   0  0  0  0  0  0  0  0  0  0  0  0
    0.8670   16.9360  -35.9370 C   0  0  0  0  0  0  0  0  0  0  0  0
    0.4480   15.6410  -36.3140 C   0  0  0  0  0  0  0  0  0  0  0  0
   -0.8700   15.2180  -36.0670 C   0  0  0  0  0  0  0  0  0  0  0  0
   -1.7320   16.1160  -35.4430 C   0  0  0  0  0  0  0  0  0  0  0  0
   -3.0120   15.9190  -35.1000 N   0  0  0  0  0  0  0  0  0  0  0  0
   -3.3530   17.1020  -34.5210 C   0  0  0  0  0  0  0  0  0  0  0  0
   -4.6980   17.3710  -33.9650 C   0  0  0  0  0  0  0  0  0  0  0  0
   -5.6360   16.3350  -33.8310 C   0  0  0  0  0  0  0  0  0  0  0  0
   -6.8960   16.5900  -33.2840 C   0  0  0  0  0  0  0  0  0  0  0  0
   -7.2340   17.8790  -32.8650 C   0  0  0  0  0  0  0  0  0  0  0  0
   -6.3130   18.9310  -32.9990 C   0  0  0  0  0  0  0  0  0  0  0  0
   -6.6540   20.2980  -32.5400 C   0  0  0  0  0  0  0  0  0  0  0  0
   -5.8180   21.3830  -32.8540 C   0  0  0  0  0  0  0  0  0  0  0  0
   -6.0900   22.6550  -32.3450 C   0  0  0  0  0  0  0  0  0  0  0  0
   -7.1920   22.8600  -31.5010 C   0  0  0  0  0  0  0  0  0  0  0  0
   -7.4000   24.1890  -30.8250 C   0  0  0  0  0  0  0  0  0  0  0  0
   -6.3770   24.4110  -29.7890 N   0  0  0  0  0  0  0  0  0  0  0  0
   -5.6080   23.1940  -29.4730 C   0  0  0  0  0  0  0  0  0  0  0  0
   -4.2590   23.5280  -28.8790 C   0  0  0  0  0  0  0  0  0  0  0  0
   -3.7760   22.7920  -27.7820 C   0  0  0  0  0  0  0  0  0  0  0  0
   -2.5530   23.1200  -27.1940 C   0  0  0  0  0  0  0  0  0  0  0  0
   -1.7940   24.1770  -27.6990 C   0  0  0  0  0  0  0  0  0  0  0  0
   -2.2480   24.9030  -28.8020 C   0  0  0  0  0  0  0  0  0  0  0  0
   -1.4760   25.9500  -29.2940 O   0  0  0  0  0  0  0  0  0  0  0  0
   -3.4770   24.5790  -29.4050 C   0  0  0  0  0  0  0  0  0  0  0  0
   -3.9350   25.2950  -30.5120 O   0  0  0  0  0  0  0  0  0  0  0  0
   -8.0580   21.7900  -31.2300 C   0  0  0  0  0  0  0  0  0  0  0  0
   -7.7910   20.5180  -31.7430 C   0  0  0  0  0  0  0  0  0  0  0  0
   -5.0470   18.6680  -33.5520 C   0  0  0  0  0  0  0  0  0  0  0  0
   -2.3460   18.0160  -34.4900 N   0  0  0  0  0  0  0  0  0  0  0  0
   -1.3320   17.3660  -35.0800 C   0  0  0  0  0  0  0  0  0  0  0  0
    0.4129   19.2343  -33.7738 H   0  0  0  0  0  0  0  0  0  0  0  0
    1.4088   19.4013  -35.2593 H   0  0  0  0  0  0  0  0  0  0  0  0
   -0.3025   19.9471  -35.2593 H   0  0  0  0  0  0  0  0  0  0  0  0
    1.9037   17.2510  -36.1268 H   0  0  0  0  0  0  0  0  0  0  0  0
    1.1578   14.9585  -36.8043 H   0  0  0  0  0  0  0  0  0  0  0  0
   -1.2085   14.2123  -36.3568 H   0  0  0  0  0  0  0  0  0  0  0  0
   -5.3775   15.3172  -34.1584 H   0  0  0  0  0  0  0  0  0  0  0  0
   -7.6249   15.7724  -33.1828 H   0  0  0  0  0  0  0  0  0  0  0  0
   -8.2253   18.0709  -32.4284 H   0  0  0  0  0  0  0  0  0  0  0  0
   -4.9443   21.2297  -33.5045 H   0  0  0  0  0  0  0  0  0  0  0  0
   -5.4369   23.5004  -32.6072 H   0  0  0  0  0  0  0  0  0  0  0  0
   -7.3338   24.9904  -31.5756 H   0  0  0  0  0  0  0  0  0  0  0  0
   -8.3919   24.1929  -30.3496 H   0  0  0  0  0  0  0  0  0  0  0  0
   -5.7000   25.1140  -30.1680 H   0  0  0  0  0  0  0  0  0  0  0  0
   -6.1765   22.5897  -28.7508 H   0  0  0  0  0  0  0  0  0  0  0  0
   -5.4446   22.6374  -30.4076 H   0  0  0  0  0  0  0  0  0  0  0  0
   -4.3657   21.9526  -27.3848 H   0  0  0  0  0  0  0  0  0  0  0  0
   -2.1868   22.5444  -26.3311 H   0  0  0  0  0  0  0  0  0  0  0  0
   -0.8356   24.4388  -27.2268 H   0  0  0  0  0  0  0  0  0  0  0  0
   -3.4880   26.1490  -30.8240 H   0  0  0  0  0  0  0  0  0  0  0  0
   -8.9520   21.9533  -30.6103 H   0  0  0  0  0  0  0  0  0  0  0  0
   -8.4740   19.6845  -31.5221 H   0  0  0  0  0  0  0  0  0  0  0  0
   -4.3214   19.4873  -33.6626 H   0  0  0  0  0  0  0  0  0  0  0  0
  1  2  1  0
  2  3  2  0
  3  4  1  0
  4  5  2  0
  5  6  1  0
  6  7  1  0
  7  8  1  0
  8  9  1  0
  9 10  2  0
 10 11  1  0
 11 12  2  0
 12 13  1  0
 13 14  1  0
 14 15  2  0
 15 16  1  0
 16 17  2  0
 17 18  1  0
 18 19  1  0
 19 20  1  0
 20 21  1  0
 21 22  2  0
 22 23  1  0
 23 24  2  0
 24 25  1  0
 25 26  1  0
 25 27  2  0
 27 28  1  0
 17 29  1  0
 29 30  2  0
 13 31  2  0
  8 32  2  0
 32 33  1  0
 33  2  1  0
 33  6  2  0
 31  9  1  0
 30 14  1  0
 27 21  1  0
  1 34  1  0
  1 35  1  0
  1 36  1  0
  3 37  1  0
  4 38  1  0
  5 39  1  0
 10 40  1  0
 11 41  1  0
 12 42  1  0
 15 43  1  0
 16 44  1  0
 18 45  1  0
 18 46  1  0
 19 47  1  0
 20 48  1  0
 20 49  1  0
 22 50  1  0
 23 51  1  0
 24 52  1  0
 28 53  1  0
 29 54  1  0
 30 55  1  0
 31 56  1  0
M  CHG  2   7  -1  26  -1
M  END
>  <UniqueID>  (45) 
43

>  <SMILES>  (45) 
Cc1cccc2[n-]c(-c3cccc(-c4ccc(CNCc5cccc([O-])c5O)cc4)c3)nc12

>  <Energy>  (45) 
98.46771925394711

>  <Genealogy>  (45) 
Cc1cccc2[n-]c(-c3cccc(-c4ccc(CNCc5cccc([O-])c5O)cc4)c3)nc12 (protonated)
Cc1cccc2[n-]c(-c3cccc(-c4ccc(CNCc5cccc([O-])c5O)cc4)c3)nc12 (3D coordinates assigned)
Cc1cccc2[n-]c(-c3cccc(-c4ccc(CNCc5cccc([O-])c5O)cc4)c3)nc12 (optimized conformer: 98.46771925394711 kcal/mol)

>  <smiles>  (45) 
Cc1cccc2[nH]c(-c3cccc(-c4ccc(CNCc5cccc(O)c5O)cc4)c3)nc12

>  <score_type>  (45) 
oracle

>  <origin>  (45) 
adgpu

>  <m_score__min__energy>  (45) 
-14.289999999999999

>  <m_primary>  (45) 
energy

$$$$
45:0
     RDKit          3D

 39 42  0  0  0  0  0  0  0  0999 V2000
   -2.6030   20.4430  -34.2040 O   0  0  0  0  0  0  0  0  0  0  0  0
   -2.6750   20.9020  -32.8880 C   0  0  0  0  0  0  0  0  0  0  0  0
   -3.4710   22.0180  -32.6100 C   0  0  0  0  0  0  0  0  0  0  0  0
   -3.5840   22.5080  -31.2990 C   0  0  0  0  0  0  0  0  0  0  0  0
   -4.4110   23.6940  -31.0060 C   0  0  0  0  0  0  0  0  0  0  0  0
   -3.8980   24.8440  -30.5350 N   0  0  0  0  0  0  0  0  0  0  0  0
   -4.9570   25.6760  -30.4680 C   0  0  0  0  0  0  0  0  0  0  0  0
   -6.1160   25.1110  -30.8630 N   0  0  0  0  0  0  0  0  0  0  0  0
   -5.7740   23.8540  -31.2020 C   0  0  0  0  0  0  0  0  0  0  0  0
   -6.7610   22.8250  -31.5940 C   0  0  0  0  0  0  0  0  0  0  0  0
   -8.1320   23.0450  -31.4190 C   0  0  0  0  0  0  0  0  0  0  0  0
   -9.0230   22.0330  -31.7750 C   0  0  0  0  0  0  0  0  0  0  0  0
   -8.5540   20.8600  -32.2700 N   0  0  0  0  0  0  0  0  0  0  0  0
   -7.2190   20.6490  -32.4280 C   0  0  0  0  0  0  0  0  0  0  0  0
   -6.7390   19.4010  -32.9480 N   0  0  0  0  0  0  0  0  0  0  0  0
   -5.9610   19.2880  -34.1700 C   0  0  0  0  0  0  0  0  0  0  0  0
   -5.5190   17.8330  -34.2390 C   0  0  0  0  0  0  0  0  0  0  0  0
   -6.4220   17.0750  -33.2660 C   0  0  0  0  0  0  0  0  0  0  0  0
   -6.9750   18.1210  -32.3070 C   0  0  0  0  0  0  0  0  0  0  0  0
   -6.3400   21.6290  -32.0850 N   0  0  0  0  0  0  0  0  0  0  0  0
   -2.8580   21.8910  -30.2710 C   0  0  0  0  0  0  0  0  0  0  0  0
   -2.0660   20.7730  -30.5420 C   0  0  0  0  0  0  0  0  0  0  0  0
   -1.9740   20.2700  -31.8430 C   0  0  0  0  0  0  0  0  0  0  0  0
   -0.9720   18.8520  -32.1310 Cl  0  0  0  0  0  0  0  0  0  0  0  0
   -2.3140   21.0330  -34.9740 H   0  0  0  0  0  0  0  0  0  0  0  0
   -4.0138   22.5167  -33.4265 H   0  0  0  0  0  0  0  0  0  0  0  0
   -4.8825   26.7180  -30.1234 H   0  0  0  0  0  0  0  0  0  0  0  0
   -8.4995   23.9972  -31.0088 H   0  0  0  0  0  0  0  0  0  0  0  0
  -10.1057   22.1857  -31.6545 H   0  0  0  0  0  0  0  0  0  0  0  0
   -6.5785   19.5438  -35.0437 H   0  0  0  0  0  0  0  0  0  0  0  0
   -5.1022   19.9754  -34.1715 H   0  0  0  0  0  0  0  0  0  0  0  0
   -5.6439   17.4431  -35.2600 H   0  0  0  0  0  0  0  0  0  0  0  0
   -4.4569   17.7204  -33.9760 H   0  0  0  0  0  0  0  0  0  0  0  0
   -7.2420   16.5829  -33.8095 H   0  0  0  0  0  0  0  0  0  0  0  0
   -5.8687   16.2893  -32.7307 H   0  0  0  0  0  0  0  0  0  0  0  0
   -8.0520   17.9643  -32.1472 H   0  0  0  0  0  0  0  0  0  0  0  0
   -6.4921   18.0646  -31.3203 H   0  0  0  0  0  0  0  0  0  0  0  0
   -2.9122   22.2888  -29.2469 H   0  0  0  0  0  0  0  0  0  0  0  0
   -1.5113   20.2854  -29.7268 H   0  0  0  0  0  0  0  0  0  0  0  0
  1  2  1  0
  2  3  2  0
  3  4  1  0
  4  5  1  0
  5  6  1  0
  6  7  1  0
  7  8  2  0
  8  9  1  0
  9 10  1  0
 10 11  2  0
 11 12  1  0
 12 13  2  0
 13 14  1  0
 14 15  1  0
 15 16  1  0
 16 17  1  0
 17 18  1  0
 18 19  1  0
 14 20  2  0
  4 21  2  0
 21 22  1  0
 22 23  2  0
 23 24  1  0
 23  2  1  0
  9  5  2  0
 20 10  1  0
 19 15  1  0
  1 25  1  0
  3 26  1  0
  7 27  1  0
 11 28  1  0
 12 29  1  0
 16 30  1  0
 16 31  1  0
 17 32  1  0
 17 33  1  0
 18 34  1  0
 18 35  1  0
 19 36  1  0
 19 37  1  0
 21 38  1  0
 22 39  1  0
M  CHG  1   6  -1
M  END
>  <UniqueID>  (46) 
44

>  <SMILES>  (46) 
Oc1cc(-c2[n-]cnc2-c2ccnc(N3CCCC3)n2)ccc1Cl

>  <Energy>  (46) 
75.11102941206609

>  <Genealogy>  (46) 
Oc1cc(-c2[n-]cnc2-c2ccnc(N3CCCC3)n2)ccc1Cl (protonated)
Oc1cc(-c2[n-]cnc2-c2ccnc(N3CCCC3)n2)ccc1Cl (3D coordinates assigned)
Oc1cc(-c2[n-]cnc2-c2ccnc(N3CCCC3)n2)ccc1Cl (nonaromatic ring conformer: 75.11102941206609 kcal/mol)

>  <smiles>  (46) 
Oc1cc(-c2[nH]cnc2-c2ccnc(N3CCCC3)n2)ccc1Cl

>  <score_type>  (46) 
oracle

>  <origin>  (46) 
adgpu

>  <m_score__min__energy>  (46) 
-9.3000000000000007

>  <m_primary>  (46) 
energy

$$$$
46:0
     RDKit          3D

 42 44  0  0  0  0  0  0  0  0999 V2000
   -6.1180   19.2180  -34.4350 C   0  0  0  0  0  0  0  0  0  0  0  0
   -6.0130   18.1070  -33.4800 N   0  0  0  0  0  0  0  0  0  0  0  0
   -6.4610   16.8590  -34.1110 C   0  0  0  0  0  0  0  0  0  0  0  0
   -7.0060   18.4410  -32.0840 S   0  0  0  0  0  0  0  0  0  0  0  0
   -6.3040   17.9860  -30.8340 O   0  0  0  0  0  0  0  0  0  0  0  0
   -8.3150   17.7080  -32.2060 O   0  0  0  0  0  0  0  0  0  0  0  0
   -7.3000   20.1750  -31.9650 C   0  0  0  0  0  0  0  0  0  0  0  0
   -8.6050   20.6820  -31.9960 C   0  0  0  0  0  0  0  0  0  0  0  0
   -8.8240   22.0600  -31.9220 C   0  0  0  0  0  0  0  0  0  0  0  0
   -7.7420   22.9390  -31.8120 C   0  0  0  0  0  0  0  0  0  0  0  0
   -6.4270   22.4390  -31.7710 C   0  0  0  0  0  0  0  0  0  0  0  0
   -5.2860   23.3010  -31.6660 N   0  0  0  0  0  0  0  0  0  0  0  0
   -4.9530   24.3620  -30.3380 S   0  0  0  0  0  0  0  0  0  0  0  0
   -4.6010   25.7230  -30.8710 O   0  0  0  0  0  0  0  0  0  0  0  0
   -6.1810   24.4860  -29.4800 O   0  0  0  0  0  0  0  0  0  0  0  0
   -3.5910   23.7460  -29.4090 C   0  0  0  0  0  0  0  0  0  0  0  0
   -3.6730   22.5110  -28.7480 C   0  0  0  0  0  0  0  0  0  0  0  0
   -2.5810   22.0290  -28.0180 C   0  0  0  0  0  0  0  0  0  0  0  0
   -1.4050   22.7840  -27.9400 C   0  0  0  0  0  0  0  0  0  0  0  0
   -1.3180   24.0140  -28.6040 C   0  0  0  0  0  0  0  0  0  0  0  0
   -2.4070   24.4940  -29.3380 C   0  0  0  0  0  0  0  0  0  0  0  0
   -0.0910   24.7440  -28.5630 N   0  0  0  0  0  0  0  0  0  0  0  0
    0.9970   24.2740  -27.7660 C   0  0  0  0  0  0  0  0  0  0  0  0
    2.1100   24.8580  -27.8170 O   0  0  0  0  0  0  0  0  0  0  0  0
    0.7870   23.1320  -26.8120 C   0  0  0  0  0  0  0  0  0  0  0  0
   -0.3070   22.3010  -27.2160 O   0  0  0  0  0  0  0  0  0  0  0  0
   -6.2170   21.0550  -31.8430 C   0  0  0  0  0  0  0  0  0  0  0  0
   -6.2077   20.1667  -33.8855 H   0  0  0  0  0  0  0  0  0  0  0  0
   -5.2183   19.2442  -35.0674 H   0  0  0  0  0  0  0  0  0  0  0  0
   -7.0066   19.0752  -35.0674 H   0  0  0  0  0  0  0  0  0  0  0  0
   -6.7234   16.1279  -33.3321 H   0  0  0  0  0  0  0  0  0  0  0  0
   -7.3429   17.0605  -34.7368 H   0  0  0  0  0  0  0  0  0  0  0  0
   -5.6523   16.4536  -34.7368 H   0  0  0  0  0  0  0  0  0  0  0  0
   -9.4593   19.9941  -32.0788 H   0  0  0  0  0  0  0  0  0  0  0  0
   -9.8504   22.4545  -31.9504 H   0  0  0  0  0  0  0  0  0  0  0  0
   -7.9190   24.0233  -31.7574 H   0  0  0  0  0  0  0  0  0  0  0  0
   -4.5989   21.9198  -28.8039 H   0  0  0  0  0  0  0  0  0  0  0  0
   -2.6466   21.0577  -27.5059 H   0  0  0  0  0  0  0  0  0  0  0  0
   -2.3349   25.4594  -29.8603 H   0  0  0  0  0  0  0  0  0  0  0  0
    1.7029   22.5238  -26.7763 H   0  0  0  0  0  0  0  0  0  0  0  0
    0.5537   23.5500  -25.8216 H   0  0  0  0  0  0  0  0  0  0  0  0
   -5.1925   20.6564  -31.8033 H   0  0  0  0  0  0  0  0  0  0  0  0
  1  2  1  0
  2  3  1  0
  2  4  1  0
  4  5  2  0
  4  6  2  0
  4  7  1  0
  7  8  2  0
  8  9  1  0
  9 10  2  0
 10 11  1  0
 11 12  1  0
 12 13  1  0
 13 14  2  0
 13 15  2  0
 13 16  1  0
 16 17  2  0
 17 18  1  0
 18 19  2  0
 19 20  1  0
 20 21  2  0
 20 22  1  0
 22 23  1  0
 23 24  2  0
 23 25  1  0
 25 26  1  0
 11 27  2  0
 27  7  1  0
 21 16  1  0
 26 19  1  0
  1 28  1  0
  1 29  1  0
  1 30  1  0
  3 31  1  0
  3 32  1  0
  3 33  1  0
  8 34  1  0
  9 35  1  0
 10 36  1  0
 17 37  1  0
 18 38  1  0
 21 39  1  0
 25 40  1  0
 25 41  1  0
 27 42  1  0
M  CHG  2  12  -1  22  -1
M  END
>  <UniqueID>  (47) 
45

>  <SMILES>  (47) 
CN(C)S(=O)(=O)c1cccc([N-]S(=O)(=O)c2ccc3c(c2)[N-]C(=O)CO3)c1

>  <Energy>  (47) 
46.686525638650494

>  <Genealogy>  (47) 
CN(C)S(=O)(=O)c1cccc([N-]S(=O)(=O)c2ccc3c(c2)[N-]C(=O)CO3)c1 (protonated)
CN(C)S(=O)(=O)c1cccc([N-]S(=O)(=O)c2ccc3c(c2)[N-]C(=O)CO3)c1 (3D coordinates assigned)
CN(C)S(=O)(=O)c1cccc([N-]S(=O)(=O)c2ccc3c(c2)[N-]C(=O)CO3)c1 (nonaromatic ring conformer: 46.686525638650494 kcal/mol)

>  <smiles>  (47) 
CN(C)S(=O)(=O)c1cccc(NS(=O)(=O)c2ccc3c(c2)NC(=O)CO3)c1

>  <score_type>  (47) 
oracle

>  <origin>  (47) 
adgpu

>  <m_score__min__energy>  (47) 
-10.880000000000001

>  <m_primary>  (47) 
energy

$$$$
47:0
     RDKit          3D

 39 40  0  0  0  0  0  0  0  0999 V2000
   -0.8020   21.9340  -25.5330 C   0  0  0  0  0  0  0  0  0  0  0  0
   -0.1500   21.9650  -26.7980 O   0  0  0  0  0  0  0  0  0  0  0  0
   -0.8000   21.7990  -28.0330 C   0  0  0  0  0  0  0  0  0  0  0  0
   -0.9470   20.5310  -28.6280 C   0  0  0  0  0  0  0  0  0  0  0  0
   -1.6070   20.3960  -29.8530 C   0  0  0  0  0  0  0  0  0  0  0  0
   -2.1290   21.5230  -30.4960 C   0  0  0  0  0  0  0  0  0  0  0  0
   -2.9990   21.3570  -32.0370 S   0  0  0  0  0  0  0  0  0  0  0  0
   -3.8930   20.1370  -31.8620 O   0  0  0  0  0  0  0  0  0  0  0  0
   -4.1080   22.7160  -32.0460 N   0  0  0  0  0  0  0  0  0  0  0  0
   -5.4910   22.5690  -31.6830 C   0  0  0  0  0  0  0  0  0  0  0  0
   -6.2940   21.6280  -32.3530 C   0  0  0  0  0  0  0  0  0  0  0  0
   -7.6300   21.4480  -31.9910 C   0  0  0  0  0  0  0  0  0  0  0  0
   -8.1810   22.2000  -30.9550 C   0  0  0  0  0  0  0  0  0  0  0  0
   -7.4000   23.1410  -30.2820 C   0  0  0  0  0  0  0  0  0  0  0  0
   -6.0570   23.3430  -30.6400 C   0  0  0  0  0  0  0  0  0  0  0  0
   -5.1210   24.5890  -29.8010 S   0  0  0  0  0  0  0  0  0  0  0  0
   -3.8900   25.2290  -30.8350 N   0  0  0  0  0  0  0  0  0  0  0  0
   -4.4610   23.9960  -28.5870 O   0  0  0  0  0  0  0  0  0  0  0  0
   -6.0340   25.7050  -29.3840 O   0  0  0  0  0  0  0  0  0  0  0  0
   -1.9870   22.7850  -29.9140 C   0  0  0  0  0  0  0  0  0  0  0  0
   -1.3190   22.9320  -28.6890 C   0  0  0  0  0  0  0  0  0  0  0  0
   -1.1550   24.5330  -27.9630 S   0  0  0  0  0  0  0  0  0  0  0  0
   -2.2000   25.6700  -28.7440 N   0  0  0  0  0  0  0  0  0  0  0  0
    0.2650   25.0060  -28.1040 O   0  0  0  0  0  0  0  0  0  0  0  0
   -1.5160   24.4550  -26.5060 O   0  0  0  0  0  0  0  0  0  0  0  0
   -0.0494   21.9698  -24.7316 H   0  0  0  0  0  0  0  0  0  0  0  0
   -1.4729   22.8013  -25.4449 H   0  0  0  0  0  0  0  0  0  0  0  0
   -1.3876   21.0070  -25.4449 H   0  0  0  0  0  0  0  0  0  0  0  0
   -0.5399   19.6411  -28.1256 H   0  0  0  0  0  0  0  0  0  0  0  0
   -1.7159   19.4022  -30.3117 H   0  0  0  0  0  0  0  0  0  0  0  0
   -3.7510   23.6220  -32.4190 H   0  0  0  0  0  0  0  0  0  0  0  0
   -5.8651   21.0286  -33.1696 H   0  0  0  0  0  0  0  0  0  0  0  0
   -8.2490   20.7114  -32.5243 H   0  0  0  0  0  0  0  0  0  0  0  0
   -9.2324   22.0518  -30.6674 H   0  0  0  0  0  0  0  0  0  0  0  0
   -7.8404   23.7297  -29.4638 H   0  0  0  0  0  0  0  0  0  0  0  0
   -3.0120   25.2810  -30.2710 H   0  0  0  0  0  0  0  0  0  0  0  0
   -2.4017   23.6695  -30.4196 H   0  0  0  0  0  0  0  0  0  0  0  0
   -1.9630   25.6540  -29.7620 H   0  0  0  0  0  0  0  0  0  0  0  0
   -3.1740   25.2990  -28.6580 H   0  0  0  0  0  0  0  0  0  0  0  0
  1  2  1  0
  2  3  1  0
  3  4  2  0
  4  5  1  0
  5  6  2  0
  6  7  1  0
  7  8  2  0
  7  9  1  1
  9 10  1  0
 10 11  2  0
 11 12  1  0
 12 13  2  0
 13 14  1  0
 14 15  2  0
 15 16  1  0
 16 17  1  0
 16 18  2  0
 16 19  2  0
  6 20  1  0
 20 21  2  0
 21 22  1  0
 22 23  1  0
 22 24  2  0
 22 25  2  0
 21  3  1  0
 15 10  1  0
  1 26  1  0
  1 27  1  0
  1 28  1  0
  4 29  1  0
  5 30  1  0
  9 31  1  0
 11 32  1  0
 12 33  1  0
 13 34  1  0
 14 35  1  0
 17 36  1  0
 20 37  1  0
 23 38  1  0
 23 39  1  0
M  CHG  1  17  -1
M  END
>  <UniqueID>  (48) 
46

>  <SMILES>  (48) 
COc1ccc([S@@](=O)Nc2ccccc2S([NH-])(=O)=O)cc1S(N)(=O)=O

>  <Energy>  (48) 
41.6718931434454

>  <Genealogy>  (48) 
COc1ccc(S(=O)Nc2ccccc2S([NH-])(=O)=O)cc1S(N)(=O)=O (protonated)
COc1ccc([S@@](=O)Nc2ccccc2S([NH-])(=O)=O)cc1S(N)(=O)=O (chirality)
COc1ccc([S@@](=O)Nc2ccccc2S([NH-])(=O)=O)cc1S(N)(=O)=O (3D coordinates assigned)
COc1ccc([S@@](=O)Nc2ccccc2S([NH-])(=O)=O)cc1S(N)(=O)=O (optimized conformer: 41.6718931434454 kcal/mol)

>  <smiles>  (48) 
COc1ccc(S(=O)Nc2ccccc2S(N)(=O)=O)cc1S(N)(=O)=O

>  <score_type>  (48) 
oracle

>  <origin>  (48) 
adgpu

>  <m_score__min__energy>  (48) 
-10.619999999999999

>  <m_primary>  (48) 
energy

$$$$
48:0
     RDKit          3D

 56 60  0  0  0  0  0  0  0  0999 V2000
   -5.3320   26.4180  -30.5660 O   0  0  0  0  0  0  0  0  0  0  0  0
   -4.8110   25.2740  -30.4640 C   0  0  0  0  0  0  0  0  0  0  0  0
   -3.4800   25.1770  -29.9340 N   0  0  0  0  0  0  0  0  0  0  0  0
   -2.7550   23.9950  -29.5570 C   0  0  0  0  0  0  0  0  0  0  0  0
   -2.3880   23.8390  -28.2160 C   0  0  0  0  0  0  0  0  0  0  0  0
   -1.6950   22.7010  -27.7990 C   0  0  0  0  0  0  0  0  0  0  0  0
   -1.3670   21.7030  -28.7190 C   0  0  0  0  0  0  0  0  0  0  0  0
   -1.7130   21.8440  -30.0740 C   0  0  0  0  0  0  0  0  0  0  0  0
   -1.4200   20.7580  -31.0350 C   0  0  0  0  0  0  0  0  0  0  0  0
   -0.8350   19.5850  -30.6640 N   0  0  0  0  0  0  0  0  0  0  0  0
   -0.8110   18.8930  -31.8120 C   0  0  0  0  0  0  0  0  0  0  0  0
   -0.3250   17.6040  -32.0180 C   0  0  0  0  0  0  0  0  0  0  0  0
   -0.4270   17.0670  -33.3150 C   0  0  0  0  0  0  0  0  0  0  0  0
   -1.0150   17.8220  -34.3540 C   0  0  0  0  0  0  0  0  0  0  0  0
   -1.4960   19.1230  -34.1070 C   0  0  0  0  0  0  0  0  0  0  0  0
   -1.3670   19.6250  -32.8150 C   0  0  0  0  0  0  0  0  0  0  0  0
   -1.7660   20.8180  -32.3510 N   0  0  0  0  0  0  0  0  0  0  0  0
   -2.3750   23.0140  -30.4930 C   0  0  0  0  0  0  0  0  0  0  0  0
   -5.6070   24.0880  -30.8510 C   0  0  0  0  0  0  0  0  0  0  0  0
   -6.9010   23.8840  -30.3440 C   0  0  0  0  0  0  0  0  0  0  0  0
   -7.6080   22.7240  -30.6650 C   0  0  0  0  0  0  0  0  0  0  0  0
   -7.0380   21.7650  -31.5040 C   0  0  0  0  0  0  0  0  0  0  0  0
   -5.7620   21.9700  -32.0480 C   0  0  0  0  0  0  0  0  0  0  0  0
   -5.0570   20.7710  -33.1410 S   0  0  0  0  0  0  0  0  0  0  0  0
   -3.9170   21.4240  -33.8770 O   0  0  0  0  0  0  0  0  0  0  0  0
   -6.1020   20.4100  -34.1620 O   0  0  0  0  0  0  0  0  0  0  0  0
   -4.5180   19.2830  -32.3600 N   0  0  0  0  0  0  0  0  0  0  0  0
   -5.3710   18.9140  -31.2060 C   0  0  0  0  0  0  0  0  0  0  0  0
   -6.7250   18.3150  -31.6270 C   0  0  0  0  0  0  0  0  0  0  0  0
   -6.6120   17.3360  -32.8090 C   0  0  0  0  0  0  0  0  0  0  0  0
   -5.1680   16.9260  -33.0840 C   0  0  0  0  0  0  0  0  0  0  0  0
   -4.2740   18.1610  -33.3160 C   0  0  0  0  0  0  0  0  0  0  0  0
   -5.0670   23.1470  -31.7420 C   0  0  0  0  0  0  0  0  0  0  0  0
   -2.6474   24.6188  -27.4848 H   0  0  0  0  0  0  0  0  0  0  0  0
   -1.4067   22.5903  -26.7432 H   0  0  0  0  0  0  0  0  0  0  0  0
   -0.8349   20.8014  -28.3814 H   0  0  0  0  0  0  0  0  0  0  0  0
    0.1227   17.0261  -31.1960 H   0  0  0  0  0  0  0  0  0  0  0  0
   -0.0473   16.0553  -33.5204 H   0  0  0  0  0  0  0  0  0  0  0  0
   -1.0979   17.3913  -35.3628 H   0  0  0  0  0  0  0  0  0  0  0  0
   -1.9572   19.7210  -34.9068 H   0  0  0  0  0  0  0  0  0  0  0  0
   -2.5971   23.1629  -31.5600 H   0  0  0  0  0  0  0  0  0  0  0  0
   -7.3592   24.6416  -29.6912 H   0  0  0  0  0  0  0  0  0  0  0  0
   -8.6167   22.5652  -30.2559 H   0  0  0  0  0  0  0  0  0  0  0  0
   -7.5922   20.8445  -31.7394 H   0  0  0  0  0  0  0  0  0  0  0  0
   -3.5880   19.5290  -31.9450 H   0  0  0  0  0  0  0  0  0  0  0  0
   -4.8341   18.1727  -30.5959 H   0  0  0  0  0  0  0  0  0  0  0  0
   -5.5794   19.8355  -30.6426 H   0  0  0  0  0  0  0  0  0  0  0  0
   -7.1524   17.7779  -30.7674 H   0  0  0  0  0  0  0  0  0  0  0  0
   -7.3649   19.1485  -31.9522 H   0  0  0  0  0  0  0  0  0  0  0  0
   -7.1983   16.4342  -32.5789 H   0  0  0  0  0  0  0  0  0  0  0  0
   -6.9944   17.8451  -33.7060 H   0  0  0  0  0  0  0  0  0  0  0  0
   -4.7843   16.3619  -32.2211 H   0  0  0  0  0  0  0  0  0  0  0  0
   -5.1483   16.3053  -33.9919 H   0  0  0  0  0  0  0  0  0  0  0  0
   -3.2235   17.8490  -33.2206 H   0  0  0  0  0  0  0  0  0  0  0  0
   -4.5164   18.5424  -34.3189 H   0  0  0  0  0  0  0  0  0  0  0  0
   -4.0872   23.3361  -32.2049 H   0  0  0  0  0  0  0  0  0  0  0  0
  1  2  2  0
  2  3  1  0
  3  4  1  0
  4  5  2  0
  5  6  1  0
  6  7  2  0
  7  8  1  0
  8  9  1  0
  9 10  2  0
 10 11  1  0
 11 12  2  0
 12 13  1  0
 13 14  2  0
 14 15  1  0
 15 16  2  0
 16 17  1  0
  8 18  2  0
  2 19  1  0
 19 20  2  0
 20 21  1  0
 21 22  2  0
 22 23  1  0
 23 24  1  0
 24 25  2  0
 24 26  2  0
 24 27  1  0
 27 28  1  0
 28 29  1  0
 29 30  1  0
 30 31  1  0
 31 32  1  0
 23 33  2  0
 18  4  1  0
 33 19  1  0
 17  9  1  0
 32 27  1  0
 16 11  1  0
  5 34  1  0
  6 35  1  0
  7 36  1  0
 12 37  1  0
 13 38  1  0
 14 39  1  0
 15 40  1  0
 18 41  1  0
 20 42  1  0
 21 43  1  0
 22 44  1  0
 27 45  1  0
 28 46  1  0
 28 47  1  0
 29 48  1  0
 29 49  1  0
 30 50  1  0
 30 51  1  0
 31 52  1  0
 31 53  1  0
 32 54  1  0
 32 55  1  0
 33 56  1  0
M  CHG  3   3  -1  17  -1  27   1
M  END
>  <UniqueID>  (49) 
47

>  <SMILES>  (49) 
O=C([N-]c1cccc(-c2nc3ccccc3[n-]2)c1)c1cccc(S(=O)(=O)[NH+]2CCCCC2)c1

>  <Energy>  (49) 
112.15535430608054

>  <Genealogy>  (49) 
O=C([N-]c1cccc(-c2nc3ccccc3[n-]2)c1)c1cccc(S(=O)(=O)[NH+]2CCCCC2)c1 (protonated)
O=C([N-]c1cccc(-c2nc3ccccc3[n-]2)c1)c1cccc(S(=O)(=O)[NH+]2CCCCC2)c1 (3D coordinates assigned)
O=C([N-]c1cccc(-c2nc3ccccc3[n-]2)c1)c1cccc(S(=O)(=O)[NH+]2CCCCC2)c1 (nonaromatic ring conformer: 112.15535430608054 kcal/mol)

>  <smiles>  (49) 
O=C(Nc1cccc(-c2nc3ccccc3[nH]2)c1)c1cccc(S(=O)(=O)N2CCCCC2)c1

>  <score_type>  (49) 
oracle

>  <origin>  (49) 
adgpu

>  <m_score__min__energy>  (49) 
-12.08

>  <m_primary>  (49) 
energy

$$$$
