0:0
     RDKit          3D

 52 55  0  0  0  0  0  0  0  0999 V2000
   -6.4640   17.1700  -31.7460 C   0  0  0  0  0  0  0  0  0  0  0  0
   -5.1770   17.2430  -32.5750 C   0  0  0  0  0  0  0  0  0  0  0  0
   -4.9120   18.6810  -33.0730 C   0  0  0  0  0  0  0  0  0  0  0  0
   -4.2680   18.7480  -34.4740 C   0  0  0  0  0  0  0  0  0  0  0  0
   -3.3640   17.6210  -34.7790 N   0  0  0  0  0  0  0  0  0  0  0  0
   -1.7300   17.8730  -34.2030 S   0  0  0  0  0  0  0  0  0  0  0  0
   -0.8380   18.1880  -35.3710 O   0  0  0  0  0  0  0  0  0  0  0  0
   -1.2270   16.6050  -33.5710 O   0  0  0  0  0  0  0  0  0  0  0  0
   -1.6210   19.1800  -33.0220 C   0  0  0  0  0  0  0  0  0  0  0  0
   -1.3230   18.8990  -31.6820 C   0  0  0  0  0  0  0  0  0  0  0  0
   -1.2380   19.9350  -30.7480 C   0  0  0  0  0  0  0  0  0  0  0  0
   -1.4240   21.2640  -31.1430 C   0  0  0  0  0  0  0  0  0  0  0  0
   -1.3400   22.3010  -30.1550 N   0  0  0  0  0  0  0  0  0  0  0  0
   -2.2970   23.3480  -29.9430 C   0  0  0  0  0  0  0  0  0  0  0  0
   -1.9190   24.4000  -29.3630 O   0  0  0  0  0  0  0  0  0  0  0  0
   -3.6900   23.2520  -30.4450 C   0  0  0  0  0  0  0  0  0  0  0  0
   -4.2890   21.9900  -30.6090 C   0  0  0  0  0  0  0  0  0  0  0  0
   -5.6080   21.8800  -31.0730 C   0  0  0  0  0  0  0  0  0  0  0  0
   -6.2100   20.6210  -31.2240 C   0  0  0  0  0  0  0  0  0  0  0  0
   -7.5260   20.5240  -31.6870 C   0  0  0  0  0  0  0  0  0  0  0  0
   -8.2480   21.6770  -32.0030 C   0  0  0  0  0  0  0  0  0  0  0  0
   -7.6590   22.9370  -31.8570 C   0  0  0  0  0  0  0  0  0  0  0  0
   -6.3380   23.0480  -31.3930 C   0  0  0  0  0  0  0  0  0  0  0  0
   -5.7370   24.3050  -31.2430 C   0  0  0  0  0  0  0  0  0  0  0  0
   -4.4240   24.4100  -30.7730 C   0  0  0  0  0  0  0  0  0  0  0  0
   -3.8640   25.6740  -30.6180 O   0  0  0  0  0  0  0  0  0  0  0  0
   -1.7320   21.5450  -32.4860 C   0  0  0  0  0  0  0  0  0  0  0  0
   -1.8140   20.5100  -33.4210 C   0  0  0  0  0  0  0  0  0  0  0  0
   -3.8840   16.2630  -34.4880 C   0  0  0  0  0  0  0  0  0  0  0  0
   -5.2290   16.2590  -33.7480 C   0  0  0  0  0  0  0  0  0  0  0  0
   -6.2118   17.1843  -30.6754 H   0  0  0  0  0  0  0  0  0  0  0  0
   -7.1028   18.0334  -31.9838 H   0  0  0  0  0  0  0  0  0  0  0  0
   -7.0011   16.2399  -31.9838 H   0  0  0  0  0  0  0  0  0  0  0  0
   -4.3395   16.9556  -31.9223 H   0  0  0  0  0  0  0  0  0  0  0  0
   -5.8712   19.2184  -33.1065 H   0  0  0  0  0  0  0  0  0  0  0  0
   -4.1979   19.1359  -32.3708 H   0  0  0  0  0  0  0  0  0  0  0  0
   -5.0730   18.7572  -35.2236 H   0  0  0  0  0  0  0  0  0  0  0  0
   -3.6543   19.6606  -34.4965 H   0  0  0  0  0  0  0  0  0  0  0  0
   -1.1554   17.8593  -31.3641 H   0  0  0  0  0  0  0  0  0  0  0  0
   -1.0232   19.7037  -29.6943 H   0  0  0  0  0  0  0  0  0  0  0  0
   -3.7176   21.0807  -30.3711 H   0  0  0  0  0  0  0  0  0  0  0  0
   -5.6458   19.7094  -30.9778 H   0  0  0  0  0  0  0  0  0  0  0  0
   -7.9944   19.5355  -31.8028 H   0  0  0  0  0  0  0  0  0  0  0  0
   -9.2825   21.5939  -32.3676 H   0  0  0  0  0  0  0  0  0  0  0  0
   -8.2314   23.8428  -32.1060 H   0  0  0  0  0  0  0  0  0  0  0  0
   -6.3013   25.2146  -31.4964 H   0  0  0  0  0  0  0  0  0  0  0  0
   -1.9091   22.5837  -32.8017 H   0  0  0  0  0  0  0  0  0  0  0  0
   -2.0309   20.7397  -34.4747 H   0  0  0  0  0  0  0  0  0  0  0  0
   -4.0112   15.7289  -35.4412 H   0  0  0  0  0  0  0  0  0  0  0  0
   -3.1531   15.7756  -33.8260 H   0  0  0  0  0  0  0  0  0  0  0  0
   -6.0285   16.5589  -34.4414 H   0  0  0  0  0  0  0  0  0  0  0  0
   -5.4310   15.2475  -33.3658 H   0  0  0  0  0  0  0  0  0  0  0  0
  1  2  1  0
  2  3  1  0
  3  4  1  0
  4  5  1  0
  5  6  1  0
  6  7  2  0
  6  8  2  0
  6  9  1  0
  9 10  2  0
 10 11  1  0
 11 12  2  0
 12 13  1  0
 13 14  1  0
 14 15  2  0
 14 16  1  0
 16 17  2  0
 17 18  1  0
 18 19  2  0
 19 20  1  0
 20 21  2  0
 21 22  1  0
 22 23  2  0
 23 24  1  0
 24 25  2  0
 25 26  1  0
 12 27  1  0
 27 28  2  0
  5 29  1  0
 29 30  1  0
 30  2  1  0
 28  9  1  0
 25 16  1  0
 23 18  1  0
  1 31  1  0
  1 32  1  0
  1 33  1  0
  2 34  1  0
  3 35  1  0
  3 36  1  0
  4 37  1  0
  4 38  1  0
 10 39  1  0
 11 40  1  0
 17 41  1  0
 19 42  1  0
 20 43  1  0
 21 44  1  0
 22 45  1  0
 24 46  1  0
 27 47  1  0
 28 48  1  0
 29 49  1  0
 29 50  1  0
 30 51  1  0
 30 52  1  0
M  CHG  2  13  -1  26  -1
M  END
>  <UniqueID>  (1) 
1

>  <SMILES>  (1) 
CC1CCN(S(=O)(=O)c2ccc([N-]C(=O)c3cc4ccccc4cc3[O-])cc2)CC1

>  <Energy>  (1) 
72.17538199070698

>  <Genealogy>  (1) 
CC1CCN(S(=O)(=O)c2ccc([N-]C(=O)c3cc4ccccc4cc3[O-])cc2)CC1 (protonated)
CC1CCN(S(=O)(=O)c2ccc([N-]C(=O)c3cc4ccccc4cc3[O-])cc2)CC1 (3D coordinates assigned)
CC1CCN(S(=O)(=O)c2ccc([N-]C(=O)c3cc4ccccc4cc3[O-])cc2)CC1 (nonaromatic ring conformer: 72.17538199070698 kcal/mol)

>  <smiles>  (1) 
CC1CCN(S(=O)(=O)c2ccc(NC(=O)c3cc4ccccc4cc3O)cc2)CC1

>  <score_type>  (1) 
oracle

>  <origin>  (1) 
adgpu

>  <m_score__min__energy>  (1) 
-14.609999999999999

>  <m_primary>  (1) 
energy

$$$$
1:0
     RDKit          3D

 50 52  0  0  0  0  0  0  0  0999 V2000
   -4.6600   15.5630  -32.1950 C   0  0  0  0  0  0  0  0  0  0  0  0
   -4.8370   16.7230  -33.1840 C   0  0  0  0  0  0  0  0  0  0  0  0
   -6.1260   16.5550  -34.0250 C   0  0  0  0  0  0  0  0  0  0  0  0
   -7.2740   17.3930  -33.4550 C   0  0  0  0  0  0  0  0  0  0  0  0
   -6.9580   18.8390  -33.4860 N   0  0  0  0  0  0  0  0  0  0  0  0
   -8.0220   19.7160  -32.4110 S   0  0  0  0  0  0  0  0  0  0  0  0
   -9.2990   20.0430  -33.1350 O   0  0  0  0  0  0  0  0  0  0  0  0
   -8.3660   18.8530  -31.2280 O   0  0  0  0  0  0  0  0  0  0  0  0
   -7.2760   21.2120  -31.8420 C   0  0  0  0  0  0  0  0  0  0  0  0
   -6.4680   21.9700  -32.7020 C   0  0  0  0  0  0  0  0  0  0  0  0
   -5.8570   23.1400  -32.2430 C   0  0  0  0  0  0  0  0  0  0  0  0
   -6.0500   23.5660  -30.9220 C   0  0  0  0  0  0  0  0  0  0  0  0
   -5.2900   25.0550  -30.3640 S   0  0  0  0  0  0  0  0  0  0  0  0
   -5.7490   26.2160  -31.2010 O   0  0  0  0  0  0  0  0  0  0  0  0
   -5.7070   25.3040  -28.9420 O   0  0  0  0  0  0  0  0  0  0  0  0
   -3.5540   24.9370  -30.4330 N   0  0  0  0  0  0  0  0  0  0  0  0
   -3.0560   23.8370  -29.6050 C   0  0  0  0  0  0  0  0  0  0  0  0
   -2.9100   22.5820  -30.4060 C   0  0  0  0  0  0  0  0  0  0  0  0
   -2.8900   21.2940  -29.9010 C   0  0  0  0  0  0  0  0  0  0  0  0
   -2.7640   20.4920  -31.0150 C   0  0  0  0  0  0  0  0  0  0  0  0
   -2.6990   21.2820  -32.1020 N   0  0  0  0  0  0  0  0  0  0  0  0
   -2.6340   20.8270  -33.4840 C   0  0  0  0  0  0  0  0  0  0  0  0
   -2.8000   22.5530  -31.7490 N   0  0  0  0  0  0  0  0  0  0  0  0
   -6.8670   22.8150  -30.0660 C   0  0  0  0  0  0  0  0  0  0  0  0
   -7.4790   21.6460  -30.5240 C   0  0  0  0  0  0  0  0  0  0  0  0
   -5.5330   19.1670  -33.2320 C   0  0  0  0  0  0  0  0  0  0  0  0
   -4.8020   18.0760  -32.4360 C   0  0  0  0  0  0  0  0  0  0  0  0
   -4.7185   15.9466  -31.1657 H   0  0  0  0  0  0  0  0  0  0  0  0
   -5.4552   14.8200  -32.3552 H   0  0  0  0  0  0  0  0  0  0  0  0
   -3.6794   15.0910  -32.3552 H   0  0  0  0  0  0  0  0  0  0  0  0
   -3.9957   16.7102  -33.8925 H   0  0  0  0  0  0  0  0  0  0  0  0
   -5.9251   16.8773  -35.0574 H   0  0  0  0  0  0  0  0  0  0  0  0
   -6.4224   15.4960  -33.9992 H   0  0  0  0  0  0  0  0  0  0  0  0
   -8.1795   17.2122  -34.0528 H   0  0  0  0  0  0  0  0  0  0  0  0
   -7.4305   17.0964  -32.4074 H   0  0  0  0  0  0  0  0  0  0  0  0
   -6.3148   21.6426  -33.7409 H   0  0  0  0  0  0  0  0  0  0  0  0
   -5.2221   23.7289  -32.9213 H   0  0  0  0  0  0  0  0  0  0  0  0
   -2.0755   24.1147  -29.1908 H   0  0  0  0  0  0  0  0  0  0  0  0
   -3.7795   23.6531  -28.7971 H   0  0  0  0  0  0  0  0  0  0  0  0
   -2.9590   20.9809  -28.8488 H   0  0  0  0  0  0  0  0  0  0  0  0
   -2.7235   19.3927  -31.0152 H   0  0  0  0  0  0  0  0  0  0  0  0
   -2.4785   19.7382  -33.5046 H   0  0  0  0  0  0  0  0  0  0  0  0
   -3.5763   21.0725  -33.9956 H   0  0  0  0  0  0  0  0  0  0  0  0
   -1.7981   21.3266  -33.9956 H   0  0  0  0  0  0  0  0  0  0  0  0
   -7.0268   23.1474  -29.0297 H   0  0  0  0  0  0  0  0  0  0  0  0
   -8.1226   21.0636  -29.8483 H   0  0  0  0  0  0  0  0  0  0  0  0
   -5.0247   19.2963  -34.1989 H   0  0  0  0  0  0  0  0  0  0  0  0
   -5.5080   20.0876  -32.6305 H   0  0  0  0  0  0  0  0  0  0  0  0
   -3.7546   18.3787  -32.2899 H   0  0  0  0  0  0  0  0  0  0  0  0
   -5.3076   17.9526  -31.4669 H   0  0  0  0  0  0  0  0  0  0  0  0
  1  2  1  0
  2  3  1  0
  3  4  1  0
  4  5  1  0
  5  6  1  0
  6  7  2  0
  6  8  2  0
  6  9  1  0
  9 10  2  0
 10 11  1  0
 11 12  2  0
 12 13  1  0
 13 14  2  0
 13 15  2  0
 13 16  1  0
 16 17  1  0
 17 18  1  0
 18 19  1  0
 19 20  2  0
 20 21  1  0
 21 22  1  0
 21 23  1  0
 12 24  1  0
 24 25  2  0
  5 26  1  0
 26 27  1  0
 27  2  1  0
 25  9  1  0
 23 18  2  0
  1 28  1  0
  1 29  1  0
  1 30  1  0
  2 31  1  0
  3 32  1  0
  3 33  1  0
  4 34  1  0
  4 35  1  0
 10 36  1  0
 11 37  1  0
 17 38  1  0
 17 39  1  0
 19 40  1  0
 20 41  1  0
 22 42  1  0
 22 43  1  0
 22 44  1  0
 24 45  1  0
 25 46  1  0
 26 47  1  0
 26 48  1  0
 27 49  1  0
 27 50  1  0
M  CHG  1  16  -1
M  END
>  <UniqueID>  (2) 
2

>  <SMILES>  (2) 
CC1CCN(S(=O)(=O)c2ccc(S(=O)(=O)[N-]Cc3ccn(C)n3)cc2)CC1

>  <Energy>  (2) 
80.04113708568426

>  <Genealogy>  (2) 
CC1CCN(S(=O)(=O)c2ccc(S(=O)(=O)[N-]Cc3ccn(C)n3)cc2)CC1 (protonated)
CC1CCN(S(=O)(=O)c2ccc(S(=O)(=O)[N-]Cc3ccn(C)n3)cc2)CC1 (3D coordinates assigned)
CC1CCN(S(=O)(=O)c2ccc(S(=O)(=O)[N-]Cc3ccn(C)n3)cc2)CC1 (nonaromatic ring conformer: 80.04113708568426 kcal/mol)

>  <smiles>  (2) 
CC1CCN(S(=O)(=O)c2ccc(S(=O)(=O)NCc3ccn(C)n3)cc2)CC1

>  <score_type>  (2) 
oracle

>  <origin>  (2) 
adgpu

>  <m_score__min__energy>  (2) 
-11.380000000000001

>  <m_primary>  (2) 
energy

$$$$
2:0
     RDKit          3D

 38 40  0  0  0  0  0  0  0  0999 V2000
    0.6680   21.4310  -34.1680 O   0  0  0  0  0  0  0  0  0  0  0  0
   -0.4560   21.0590  -33.7450 C   0  0  0  0  0  0  0  0  0  0  0  0
   -1.2160   20.1450  -34.3850 N   0  0  0  0  0  0  0  0  0  0  0  0
   -2.3790   19.9210  -33.7170 C   0  0  0  0  0  0  0  0  0  0  0  0
   -3.3160   18.9960  -34.1660 O   0  0  0  0  0  0  0  0  0  0  0  0
   -2.5410   20.6650  -32.5510 C   0  0  0  0  0  0  0  0  0  0  0  0
   -3.6710   20.6050  -31.6580 N   0  0  0  0  0  0  0  0  0  0  0  0
   -3.4680   20.7640  -30.2100 C   0  0  0  0  0  0  0  0  0  0  0  0
   -2.9770   22.1510  -29.8790 C   0  0  0  0  0  0  0  0  0  0  0  0
   -1.8350   22.3290  -29.0800 C   0  0  0  0  0  0  0  0  0  0  0  0
   -1.3830   23.6160  -28.7720 C   0  0  0  0  0  0  0  0  0  0  0  0
   -2.0620   24.7340  -29.2630 C   0  0  0  0  0  0  0  0  0  0  0  0
   -1.6070   26.0110  -28.9520 O   0  0  0  0  0  0  0  0  0  0  0  0
   -3.1960   24.5670  -30.0660 C   0  0  0  0  0  0  0  0  0  0  0  0
   -3.8740   25.6750  -30.5570 O   0  0  0  0  0  0  0  0  0  0  0  0
   -3.6500   23.2800  -30.3750 C   0  0  0  0  0  0  0  0  0  0  0  0
   -5.0060   20.6370  -32.2000 C   0  0  0  0  0  0  0  0  0  0  0  0
   -5.6590   19.5040  -32.4920 C   0  0  0  0  0  0  0  0  0  0  0  0
   -7.0470   19.5720  -33.0570 C   0  0  0  0  0  0  0  0  0  0  0  0
   -7.8900   20.5810  -32.2660 C   0  0  0  0  0  0  0  0  0  0  0  0
   -7.1630   21.9280  -32.0090 C   0  0  0  0  0  0  0  0  0  0  0  0
   -5.6920   21.9550  -32.4740 C   0  0  0  0  0  0  0  0  0  0  0  0
   -1.1720   21.6290  -32.3340 S   0  0  0  0  0  0  0  0  0  0  0  0
   -3.4830   18.1380  -33.6540 H   0  0  0  0  0  0  0  0  0  0  0  0
   -4.4223   20.5877  -29.6921 H   0  0  0  0  0  0  0  0  0  0  0  0
   -2.7098   20.0377  -29.8820 H   0  0  0  0  0  0  0  0  0  0  0  0
   -1.2940   21.4520  -28.6950 H   0  0  0  0  0  0  0  0  0  0  0  0
   -0.4911   23.7484  -28.1419 H   0  0  0  0  0  0  0  0  0  0  0  0
   -4.5390   23.1515  -31.0100 H   0  0  0  0  0  0  0  0  0  0  0  0
   -5.1799   18.5292  -32.3183 H   0  0  0  0  0  0  0  0  0  0  0  0
   -6.9961   19.8867  -34.1098 H   0  0  0  0  0  0  0  0  0  0  0  0
   -7.5138   18.5785  -32.9852 H   0  0  0  0  0  0  0  0  0  0  0  0
   -8.8110   20.7848  -32.8320 H   0  0  0  0  0  0  0  0  0  0  0  0
   -8.0953   20.1313  -31.2833 H   0  0  0  0  0  0  0  0  0  0  0  0
   -7.7076   22.7206  -32.5430 H   0  0  0  0  0  0  0  0  0  0  0  0
   -7.1514   22.0765  -30.9191 H   0  0  0  0  0  0  0  0  0  0  0  0
   -5.6614   22.1571  -33.5548 H   0  0  0  0  0  0  0  0  0  0  0  0
   -5.1656   22.7433  -31.9159 H   0  0  0  0  0  0  0  0  0  0  0  0
  1  2  2  0
  2  3  1  0
  3  4  1  0
  4  5  1  0
  4  6  2  0
  6  7  1  0
  7  8  1  0
  8  9  1  0
  9 10  2  0
 10 11  1  0
 11 12  2  0
 12 13  1  0
 12 14  1  0
 14 15  1  0
 14 16  2  0
  7 17  1  0
 17 18  2  0
 18 19  1  0
 19 20  1  0
 20 21  1  0
 21 22  1  0
  6 23  1  0
 23  2  1  0
 16  9  1  0
 22 17  1  0
  5 24  1  0
  8 25  1  0
  8 26  1  0
 10 27  1  0
 11 28  1  0
 16 29  1  0
 18 30  1  0
 19 31  1  0
 19 32  1  0
 20 33  1  0
 20 34  1  0
 21 35  1  0
 21 36  1  0
 22 37  1  0
 22 38  1  0
M  CHG  3   3  -1  13  -1  15  -1
M  END
>  <UniqueID>  (3) 
3

>  <SMILES>  (3) 
O=c1[n-]c(O)c(N(Cc2ccc([O-])c([O-])c2)C2=CCCCC2)s1

>  <Energy>  (3) 
78.4169462082491

>  <Genealogy>  (3) 
O=c1[n-]c(O)c(N(Cc2ccc([O-])c([O-])c2)C2=CCCCC2)s1 (protonated)
O=c1[n-]c(O)c(N(Cc2ccc([O-])c([O-])c2)C2=CCCCC2)s1 (3D coordinates assigned)
O=c1[n-]c(O)c(N(Cc2ccc([O-])c([O-])c2)C2=CCCCC2)s1 (nonaromatic ring conformer: 78.4169462082491 kcal/mol)

>  <smiles>  (3) 
O=c1[nH]c(O)c(N(Cc2ccc(O)c(O)c2)C2=CCCCC2)s1

>  <score_type>  (3) 
oracle

>  <origin>  (3) 
adgpu

>  <m_score__min__energy>  (3) 
-13.49

>  <m_primary>  (3) 
energy

$$$$
3:0
     RDKit          3D

 42 43  0  0  0  0  0  0  0  0999 V2000
   -4.7410   19.6700  -32.0840 C   0  0  0  0  0  0  0  0  0  0  0  0
   -5.7130   20.2790  -32.9290 O   0  0  0  0  0  0  0  0  0  0  0  0
   -6.9860   20.6980  -32.5110 C   0  0  0  0  0  0  0  0  0  0  0  0
   -8.1380   19.9340  -32.7880 C   0  0  0  0  0  0  0  0  0  0  0  0
   -9.3920   20.3570  -32.3460 C   0  0  0  0  0  0  0  0  0  0  0  0
   -9.5130   21.5340  -31.6090 C   0  0  0  0  0  0  0  0  0  0  0  0
   -8.3810   22.2970  -31.3200 C   0  0  0  0  0  0  0  0  0  0  0  0
   -7.1170   21.9040  -31.7880 C   0  0  0  0  0  0  0  0  0  0  0  0
   -5.7090   22.9040  -31.3880 S   0  0  0  0  0  0  0  0  0  0  0  0
   -4.7130   22.8900  -32.5150 O   0  0  0  0  0  0  0  0  0  0  0  0
   -5.0560   22.3420  -30.1580 O   0  0  0  0  0  0  0  0  0  0  0  0
   -6.1540   24.6140  -31.0790 C   0  0  0  0  0  0  0  0  0  0  0  0
   -5.1990   25.2850  -30.0920 C   0  0  0  0  0  0  0  0  0  0  0  0
   -3.8180   25.1160  -30.5380 N   0  0  0  0  0  0  0  0  0  0  0  0
   -2.8230   24.5860  -29.2190 S   0  0  0  0  0  0  0  0  0  0  0  0
   -3.6500   24.4210  -27.9750 O   0  0  0  0  0  0  0  0  0  0  0  0
   -1.7630   25.6170  -28.9540 O   0  0  0  0  0  0  0  0  0  0  0  0
   -2.0540   23.0610  -29.6450 C   0  0  0  0  0  0  0  0  0  0  0  0
   -2.2270   22.5260  -30.9290 C   0  0  0  0  0  0  0  0  0  0  0  0
   -1.6370   21.3060  -31.2690 C   0  0  0  0  0  0  0  0  0  0  0  0
   -0.8650   20.6060  -30.3280 C   0  0  0  0  0  0  0  0  0  0  0  0
   -0.2490   19.2830  -30.6710 C   0  0  0  0  0  0  0  0  0  0  0  0
   -0.7080   21.1350  -29.0370 C   0  0  0  0  0  0  0  0  0  0  0  0
   -1.2970   22.3570  -28.7000 C   0  0  0  0  0  0  0  0  0  0  0  0
   -5.0121   19.8399  -31.0315 H   0  0  0  0  0  0  0  0  0  0  0  0
   -4.7071   18.5889  -32.2840 H   0  0  0  0  0  0  0  0  0  0  0  0
   -3.7533   20.1111  -32.2840 H   0  0  0  0  0  0  0  0  0  0  0  0
   -8.0475   18.9970  -33.3571 H   0  0  0  0  0  0  0  0  0  0  0  0
  -10.2865   19.7608  -32.5795 H   0  0  0  0  0  0  0  0  0  0  0  0
  -10.5016   21.8616  -31.2550 H   0  0  0  0  0  0  0  0  0  0  0  0
   -8.4798   23.2140  -30.7205 H   0  0  0  0  0  0  0  0  0  0  0  0
   -6.1267   25.1655  -32.0304 H   0  0  0  0  0  0  0  0  0  0  0  0
   -7.1622   24.6285  -30.6394 H   0  0  0  0  0  0  0  0  0  0  0  0
   -5.4332   26.3581  -30.0310 H   0  0  0  0  0  0  0  0  0  0  0  0
   -5.3178   24.8199  -29.1023 H   0  0  0  0  0  0  0  0  0  0  0  0
   -2.8297   23.0689  -31.6720 H   0  0  0  0  0  0  0  0  0  0  0  0
   -1.7779   20.8921  -32.2784 H   0  0  0  0  0  0  0  0  0  0  0  0
    0.0018   18.7443  -29.7453 H   0  0  0  0  0  0  0  0  0  0  0  0
   -0.9626   18.6879  -31.2597 H   0  0  0  0  0  0  0  0  0  0  0  0
    0.6658   19.4461  -31.2597 H   0  0  0  0  0  0  0  0  0  0  0  0
   -0.1191   20.5856  -28.2877 H   0  0  0  0  0  0  0  0  0  0  0  0
   -1.1654   22.7676  -27.6880 H   0  0  0  0  0  0  0  0  0  0  0  0
  1  2  1  0
  2  3  1  0
  3  4  2  0
  4  5  1  0
  5  6  2  0
  6  7  1  0
  7  8  2  0
  8  9  1  0
  9 10  2  0
  9 11  2  0
  9 12  1  0
 12 13  1  0
 13 14  1  0
 14 15  1  0
 15 16  2  0
 15 17  2  0
 15 18  1  0
 18 19  2  0
 19 20  1  0
 20 21  2  0
 21 22  1  0
 21 23  1  0
 23 24  2  0
  8  3  1  0
 24 18  1  0
  1 25  1  0
  1 26  1  0
  1 27  1  0
  4 28  1  0
  5 29  1  0
  6 30  1  0
  7 31  1  0
 12 32  1  0
 12 33  1  0
 13 34  1  0
 13 35  1  0
 19 36  1  0
 20 37  1  0
 22 38  1  0
 22 39  1  0
 22 40  1  0
 23 41  1  0
 24 42  1  0
M  CHG  1  14  -1
M  END
>  <UniqueID>  (4) 
4

>  <SMILES>  (4) 
COc1ccccc1S(=O)(=O)CC[N-]S(=O)(=O)c1ccc(C)cc1

>  <Energy>  (4) 
31.672700644475697

>  <Genealogy>  (4) 
COc1ccccc1S(=O)(=O)CC[N-]S(=O)(=O)c1ccc(C)cc1 (protonated)
COc1ccccc1S(=O)(=O)CC[N-]S(=O)(=O)c1ccc(C)cc1 (3D coordinates assigned)
COc1ccccc1S(=O)(=O)CC[N-]S(=O)(=O)c1ccc(C)cc1 (optimized conformer: 31.672700644475697 kcal/mol)

>  <smiles>  (4) 
COc1ccccc1S(=O)(=O)CCNS(=O)(=O)c1ccc(C)cc1

>  <score_type>  (4) 
oracle

>  <origin>  (4) 
adgpu

>  <m_score__min__energy>  (4) 
-10.220000000000001

>  <m_primary>  (4) 
energy

$$$$
4:0
     RDKit          3D

 49 51  0  0  0  0  0  0  0  0999 V2000
   -9.5530   19.5210  -32.8490 C   0  0  0  0  0  0  0  0  0  0  0  0
   -8.6670   20.5080  -32.1460 C   0  0  0  0  0  0  0  0  0  0  0  0
   -9.1960   21.3590  -31.1660 C   0  0  0  0  0  0  0  0  0  0  0  0
   -8.3640   22.2540  -30.4850 C   0  0  0  0  0  0  0  0  0  0  0  0
   -6.9860   22.2920  -30.7580 C   0  0  0  0  0  0  0  0  0  0  0  0
   -6.1130   23.2210  -30.0940 N   0  0  0  0  0  0  0  0  0  0  0  0
   -5.0850   23.9750  -30.7590 C   0  0  0  0  0  0  0  0  0  0  0  0
   -5.1490   24.1800  -31.9990 O   0  0  0  0  0  0  0  0  0  0  0  0
   -4.0260   24.5830  -30.0100 N   0  0  0  0  0  0  0  0  0  0  0  0
   -3.2410   23.9270  -29.0040 C   0  0  0  0  0  0  0  0  0  0  0  0
   -3.7310   22.7500  -28.4430 C   0  0  0  0  0  0  0  0  0  0  0  0
   -3.0000   22.0720  -27.4730 C   0  0  0  0  0  0  0  0  0  0  0  0
   -1.7700   22.5740  -27.0150 C   0  0  0  0  0  0  0  0  0  0  0  0
   -1.0040   21.7460  -26.0150 C   0  0  0  0  0  0  0  0  0  0  0  0
   -1.2750   23.7990  -27.5440 C   0  0  0  0  0  0  0  0  0  0  0  0
    0.2640   24.5300  -26.9990 S   0  0  0  0  0  0  0  0  0  0  0  0
    1.0740   24.9130  -28.2070 O   0  0  0  0  0  0  0  0  0  0  0  0
    1.0830   23.5390  -26.2230 O   0  0  0  0  0  0  0  0  0  0  0  0
    0.0150   25.9530  -26.0130 N   0  0  0  0  0  0  0  0  0  0  0  0
   -0.6490   27.0180  -26.7770 C   0  0  0  0  0  0  0  0  0  0  0  0
   -0.8110   28.2730  -25.8940 C   0  0  0  0  0  0  0  0  0  0  0  0
   -0.4390   28.0340  -24.5470 O   0  0  0  0  0  0  0  0  0  0  0  0
   -1.1460   26.9170  -24.0450 C   0  0  0  0  0  0  0  0  0  0  0  0
   -0.7730   25.6310  -24.8120 C   0  0  0  0  0  0  0  0  0  0  0  0
   -2.0300   24.4700  -28.5350 C   0  0  0  0  0  0  0  0  0  0  0  0
   -1.5920   25.6910  -29.0380 O   0  0  0  0  0  0  0  0  0  0  0  0
   -6.4620   21.4400  -31.7430 C   0  0  0  0  0  0  0  0  0  0  0  0
   -7.2920   20.5460  -32.4230 C   0  0  0  0  0  0  0  0  0  0  0  0
  -10.0939   18.9185  -32.1044 H   0  0  0  0  0  0  0  0  0  0  0  0
  -10.2756   20.0606  -33.4789 H   0  0  0  0  0  0  0  0  0  0  0  0
   -8.9388   18.8607  -33.4789 H   0  0  0  0  0  0  0  0  0  0  0  0
  -10.2701   21.3230  -30.9313 H   0  0  0  0  0  0  0  0  0  0  0  0
   -8.7910   22.9320  -29.7314 H   0  0  0  0  0  0  0  0  0  0  0  0
   -6.2740   23.4090  -29.0790 H   0  0  0  0  0  0  0  0  0  0  0  0
   -4.7037   22.3535  -28.7696 H   0  0  0  0  0  0  0  0  0  0  0  0
   -3.3899   21.1304  -27.0590 H   0  0  0  0  0  0  0  0  0  0  0  0
   -1.2849   22.0496  -24.9957 H   0  0  0  0  0  0  0  0  0  0  0  0
   -1.2434   20.6822  -26.1598 H   0  0  0  0  0  0  0  0  0  0  0  0
    0.0752   21.9020  -26.1598 H   0  0  0  0  0  0  0  0  0  0  0  0
   -0.0408   27.2682  -27.6588 H   0  0  0  0  0  0  0  0  0  0  0  0
   -1.6418   26.6694  -27.0976 H   0  0  0  0  0  0  0  0  0  0  0  0
   -0.1767   29.0751  -26.2993 H   0  0  0  0  0  0  0  0  0  0  0  0
   -1.8735   28.5574  -25.9046 H   0  0  0  0  0  0  0  0  0  0  0  0
   -0.8996   26.7847  -22.9811 H   0  0  0  0  0  0  0  0  0  0  0  0
   -2.2231   27.0996  -24.1734 H   0  0  0  0  0  0  0  0  0  0  0  0
   -0.1799   24.9777  -24.1552 H   0  0  0  0  0  0  0  0  0  0  0  0
   -1.6979   25.1221  -25.1211 H   0  0  0  0  0  0  0  0  0  0  0  0
   -5.3887   21.4768  -31.9812 H   0  0  0  0  0  0  0  0  0  0  0  0
   -6.8663   19.8692  -33.1785 H   0  0  0  0  0  0  0  0  0  0  0  0
  1  2  1  0
  2  3  2  0
  3  4  1  0
  4  5  2  0
  5  6  1  0
  6  7  1  0
  7  8  2  0
  7  9  1  0
  9 10  1  0
 10 11  2  0
 11 12  1  0
 12 13  2  0
 13 14  1  0
 13 15  1  0
 15 16  1  0
 16 17  2  0
 16 18  2  0
 16 19  1  0
 19 20  1  0
 20 21  1  0
 21 22  1  0
 22 23  1  0
 23 24  1  0
 15 25  2  0
 25 26  1  0
  5 27  1  0
 27 28  2  0
 28  2  1  0
 25 10  1  0
 24 19  1  0
  1 29  1  0
  1 30  1  0
  1 31  1  0
  3 32  1  0
  4 33  1  0
  6 34  1  0
 11 35  1  0
 12 36  1  0
 14 37  1  0
 14 38  1  0
 14 39  1  0
 20 40  1  0
 20 41  1  0
 21 42  1  0
 21 43  1  0
 23 44  1  0
 23 45  1  0
 24 46  1  0
 24 47  1  0
 27 48  1  0
 28 49  1  0
M  CHG  2   9  -1  26  -1
M  END
>  <UniqueID>  (5) 
5

>  <SMILES>  (5) 
Cc1ccc(NC(=O)[N-]c2ccc(C)c(S(=O)(=O)N3CCOCC3)c2[O-])cc1

>  <Energy>  (5) 
69.86969841825476

>  <Genealogy>  (5) 
Cc1ccc(NC(=O)[N-]c2ccc(C)c(S(=O)(=O)N3CCOCC3)c2[O-])cc1 (protonated)
Cc1ccc(NC(=O)[N-]c2ccc(C)c(S(=O)(=O)N3CCOCC3)c2[O-])cc1 (3D coordinates assigned)
Cc1ccc(NC(=O)[N-]c2ccc(C)c(S(=O)(=O)N3CCOCC3)c2[O-])cc1 (nonaromatic ring conformer: 69.86969841825476 kcal/mol)

>  <smiles>  (5) 
Cc1ccc(NC(=O)Nc2ccc(C)c(S(=O)(=O)N3CCOCC3)c2O)cc1

>  <score_type>  (5) 
oracle

>  <origin>  (5) 
adgpu

>  <m_score__min__energy>  (5) 
-13.029999999999999

>  <m_primary>  (5) 
energy

$$$$
5:0
     RDKit          3D

 49 52  0  0  0  0  0  0  0  0999 V2000
   -1.8900   26.4190  -24.5390 C   0  0  0  0  0  0  0  0  0  0  0  0
   -2.2200   25.7420  -25.8410 C   0  0  0  0  0  0  0  0  0  0  0  0
   -3.4960   25.1730  -25.9870 C   0  0  0  0  0  0  0  0  0  0  0  0
   -3.8660   24.5400  -27.1710 C   0  0  0  0  0  0  0  0  0  0  0  0
   -2.9680   24.4500  -28.2350 C   0  0  0  0  0  0  0  0  0  0  0  0
   -3.3870   23.8110  -29.4510 N   0  0  0  0  0  0  0  0  0  0  0  0
   -4.7460   23.7980  -29.9220 C   0  0  0  0  0  0  0  0  0  0  0  0
   -5.7800   25.0030  -29.4920 S   0  0  0  0  0  0  0  0  0  0  0  0
   -5.1250   22.8880  -30.9670 N   0  0  0  0  0  0  0  0  0  0  0  0
   -4.3090   22.4080  -31.9370 C   0  0  0  0  0  0  0  0  0  0  0  0
   -5.0060   21.5590  -32.7890 C   0  0  0  0  0  0  0  0  0  0  0  0
   -6.2920   21.5230  -32.2940 C   0  0  0  0  0  0  0  0  0  0  0  0
   -7.4050   20.8120  -32.7380 C   0  0  0  0  0  0  0  0  0  0  0  0
   -8.5990   20.9410  -32.0070 C   0  0  0  0  0  0  0  0  0  0  0  0
   -8.6490   21.7600  -30.8580 C   0  0  0  0  0  0  0  0  0  0  0  0
   -7.5070   22.4640  -30.4340 C   0  0  0  0  0  0  0  0  0  0  0  0
   -6.3370   22.3350  -31.1900 C   0  0  0  0  0  0  0  0  0  0  0  0
   -1.6960   25.0390  -28.1210 C   0  0  0  0  0  0  0  0  0  0  0  0
   -0.8410   25.0370  -29.2200 O   0  0  0  0  0  0  0  0  0  0  0  0
   -1.2950   25.6570  -26.9180 C   0  0  0  0  0  0  0  0  0  0  0  0
    0.3460   26.3490  -26.8500 S   0  0  0  0  0  0  0  0  0  0  0  0
    1.2150   25.5980  -27.8210 O   0  0  0  0  0  0  0  0  0  0  0  0
    0.9680   26.2170  -25.4870 O   0  0  0  0  0  0  0  0  0  0  0  0
    0.2760   28.0300  -27.3160 N   0  0  0  0  0  0  0  0  0  0  0  0
    1.5790   28.6730  -27.0750 C   0  0  0  0  0  0  0  0  0  0  0  0
    1.4740   30.2020  -27.2490 C   0  0  0  0  0  0  0  0  0  0  0  0
    0.2350   30.5660  -27.8260 O   0  0  0  0  0  0  0  0  0  0  0  0
   -0.8210   30.2130  -26.9510 C   0  0  0  0  0  0  0  0  0  0  0  0
   -0.7790   28.7210  -26.5610 C   0  0  0  0  0  0  0  0  0  0  0  0
   -2.2029   25.7771  -23.7023 H   0  0  0  0  0  0  0  0  0  0  0  0
   -0.8055   26.5940  -24.4813 H   0  0  0  0  0  0  0  0  0  0  0  0
   -2.4202   27.3810  -24.4813 H   0  0  0  0  0  0  0  0  0  0  0  0
   -4.2129   25.2282  -25.1545 H   0  0  0  0  0  0  0  0  0  0  0  0
   -4.8730   24.1081  -27.2680 H   0  0  0  0  0  0  0  0  0  0  0  0
   -2.6480   23.3660  -30.0420 H   0  0  0  0  0  0  0  0  0  0  0  0
   -3.2420   22.6561  -32.0364 H   0  0  0  0  0  0  0  0  0  0  0  0
   -4.6148   21.0291  -33.6700 H   0  0  0  0  0  0  0  0  0  0  0  0
   -7.3513   20.1713  -33.6305 H   0  0  0  0  0  0  0  0  0  0  0  0
   -9.5000   20.4004  -32.3323 H   0  0  0  0  0  0  0  0  0  0  0  0
   -9.5871   21.8483  -30.2905 H   0  0  0  0  0  0  0  0  0  0  0  0
   -7.5333   23.0970  -29.5348 H   0  0  0  0  0  0  0  0  0  0  0  0
    1.9083   28.4482  -26.0498 H   0  0  0  0  0  0  0  0  0  0  0  0
    2.3052   28.2836  -27.8037 H   0  0  0  0  0  0  0  0  0  0  0  0
    1.5663   30.6826  -26.2639 H   0  0  0  0  0  0  0  0  0  0  0  0
    2.2814   30.5332  -27.9186 H   0  0  0  0  0  0  0  0  0  0  0  0
   -0.7424   30.8205  -26.0374 H   0  0  0  0  0  0  0  0  0  0  0  0
   -1.7704   30.3991  -27.4744 H   0  0  0  0  0  0  0  0  0  0  0  0
   -0.5730   28.6323  -25.4841 H   0  0  0  0  0  0  0  0  0  0  0  0
   -1.7499   28.2604  -26.7961 H   0  0  0  0  0  0  0  0  0  0  0  0
  1  2  1  0
  2  3  2  0
  3  4  1  0
  4  5  2  0
  5  6  1  0
  6  7  1  0
  7  8  2  0
  7  9  1  0
  9 10  1  0
 10 11  2  0
 11 12  1  0
 12 13  2  0
 13 14  1  0
 14 15  2  0
 15 16  1  0
 16 17  2  0
  5 18  1  0
 18 19  1  0
 18 20  2  0
 20 21  1  0
 21 22  2  0
 21 23  2  0
 21 24  1  0
 24 25  1  0
 25 26  1  0
 26 27  1  0
 27 28  1  0
 28 29  1  0
 20  2  1  0
 29 24  1  0
 17  9  1  0
 17 12  1  0
  1 30  1  0
  1 31  1  0
  1 32  1  0
  3 33  1  0
  4 34  1  0
  6 35  1  0
 10 36  1  0
 11 37  1  0
 13 38  1  0
 14 39  1  0
 15 40  1  0
 16 41  1  0
 25 42  1  0
 25 43  1  0
 26 44  1  0
 26 45  1  0
 28 46  1  0
 28 47  1  0
 29 48  1  0
 29 49  1  0
M  CHG  1  19  -1
M  END
>  <UniqueID>  (6) 
6

>  <SMILES>  (6) 
Cc1ccc(NC(=S)n2ccc3ccccc32)c([O-])c1S(=O)(=O)N1CCOCC1

>  <Energy>  (6) 
108.43613666253486

>  <Genealogy>  (6) 
Cc1ccc(NC(=S)n2ccc3ccccc32)c([O-])c1S(=O)(=O)N1CCOCC1 (protonated)
Cc1ccc(NC(=S)n2ccc3ccccc32)c([O-])c1S(=O)(=O)N1CCOCC1 (3D coordinates assigned)
Cc1ccc(NC(=S)n2ccc3ccccc32)c([O-])c1S(=O)(=O)N1CCOCC1 (nonaromatic ring conformer: 108.43613666253486 kcal/mol)

>  <smiles>  (6) 
Cc1ccc(NC(=S)n2ccc3ccccc32)c(O)c1S(=O)(=O)N1CCOCC1

>  <score_type>  (6) 
oracle

>  <origin>  (6) 
adgpu

>  <m_score__min__energy>  (6) 
-12.06

>  <m_primary>  (6) 
energy

$$$$
6:0
     RDKit          3D

 70 75  0  0  0  0  0  0  0  0999 V2000
    0.8910   25.1140  -27.4520 O   0  0  0  0  0  0  0  0  0  0  0  0
   -0.1870   24.6020  -27.0390 C   0  0  0  0  0  0  0  0  0  0  0  0
   -0.9380   23.7050  -27.9430 C   0  0  0  0  0  0  0  0  0  0  0  0
   -2.1760   24.1140  -28.4860 C   0  0  0  0  0  0  0  0  0  0  0  0
   -2.8890   23.2630  -29.3800 C   0  0  0  0  0  0  0  0  0  0  0  0
   -4.1700   23.6910  -29.9980 C   0  0  0  0  0  0  0  0  0  0  0  0
   -4.3870   25.0510  -30.2890 C   0  0  0  0  0  0  0  0  0  0  0  0
   -5.5940   25.4740  -30.8480 C   0  0  0  0  0  0  0  0  0  0  0  0
   -6.6010   24.5490  -31.1260 C   0  0  0  0  0  0  0  0  0  0  0  0
   -6.3980   23.1890  -30.8620 C   0  0  0  0  0  0  0  0  0  0  0  0
   -7.6960   22.0410  -31.1830 S   0  0  0  0  0  0  0  0  0  0  0  0
   -8.5090   21.8690  -29.9300 O   0  0  0  0  0  0  0  0  0  0  0  0
   -8.5930   22.5620  -32.2740 O   0  0  0  0  0  0  0  0  0  0  0  0
   -7.0050   20.5110  -31.6610 N   0  0  0  0  0  0  0  0  0  0  0  0
   -6.4380   20.6140  -33.0160 C   0  0  0  0  0  0  0  0  0  0  0  0
   -5.6320   19.3480  -33.3600 C   0  0  0  0  0  0  0  0  0  0  0  0
   -6.0790   18.1260  -32.5380 C   0  0  0  0  0  0  0  0  0  0  0  0
   -7.5910   18.1500  -32.2960 C   0  0  0  0  0  0  0  0  0  0  0  0
   -8.0400   19.4560  -31.6030 C   0  0  0  0  0  0  0  0  0  0  0  0
   -5.1840   22.7630  -30.3060 C   0  0  0  0  0  0  0  0  0  0  0  0
   -2.3660   22.0420  -29.7090 N   0  0  0  0  0  0  0  0  0  0  0  0
   -1.1870   21.6540  -29.1670 C   0  0  0  0  0  0  0  0  0  0  0  0
   -0.4790   22.4370  -28.3100 C   0  0  0  0  0  0  0  0  0  0  0  0
    0.6350   21.6820  -27.9790 C   0  0  0  0  0  0  0  0  0  0  0  0
    0.5730   20.5040  -28.6500 N   0  0  0  0  0  0  0  0  0  0  0  0
   -0.5450   20.4920  -29.3680 N   0  0  0  0  0  0  0  0  0  0  0  0
   -0.9310   19.4150  -30.2740 C   0  0  0  0  0  0  0  0  0  0  0  0
   -1.1290   19.9600  -31.6620 C   0  0  0  0  0  0  0  0  0  0  0  0
   -0.0220   20.3380  -32.4360 C   0  0  0  0  0  0  0  0  0  0  0  0
   -0.2250   20.8940  -33.7010 C   0  0  0  0  0  0  0  0  0  0  0  0
   -1.4880   21.0760  -34.1720 N   0  0  0  0  0  0  0  0  0  0  0  0
   -2.5790   20.7260  -33.4390 C   0  0  0  0  0  0  0  0  0  0  0  0
   -2.4200   20.1640  -32.1710 C   0  0  0  0  0  0  0  0  0  0  0  0
   -0.6250   24.8400  -25.6780 N   0  0  0  0  0  0  0  0  0  0  0  0
    0.4760   25.4520  -24.8990 C   0  0  0  0  0  0  0  0  0  0  0  0
   -0.0750   26.1670  -23.6520 C   0  0  0  0  0  0  0  0  0  0  0  0
   -1.0090   27.2040  -23.9350 O   0  0  0  0  0  0  0  0  0  0  0  0
   -1.6050   27.1040  -25.2200 C   0  0  0  0  0  0  0  0  0  0  0  0
   -1.8720   25.6510  -25.6480 C   0  0  0  0  0  0  0  0  0  0  0  0
   -2.5928   25.0959  -28.2172 H   0  0  0  0  0  0  0  0  0  0  0  0
   -3.5983   25.7870  -30.0739 H   0  0  0  0  0  0  0  0  0  0  0  0
   -5.7518   26.5397  -31.0700 H   0  0  0  0  0  0  0  0  0  0  0  0
   -7.5560   24.8888  -31.5533 H   0  0  0  0  0  0  0  0  0  0  0  0
   -7.2554   20.7315  -33.7427 H   0  0  0  0  0  0  0  0  0  0  0  0
   -5.7674   21.4850  -33.0562 H   0  0  0  0  0  0  0  0  0  0  0  0
   -5.7663   19.1233  -34.4284 H   0  0  0  0  0  0  0  0  0  0  0  0
   -4.5772   19.5464  -33.1191 H   0  0  0  0  0  0  0  0  0  0  0  0
   -5.8170   17.2088  -33.0857 H   0  0  0  0  0  0  0  0  0  0  0  0
   -5.5680   18.1530  -31.5643 H   0  0  0  0  0  0  0  0  0  0  0  0
   -8.1079   18.0641  -33.2632 H   0  0  0  0  0  0  0  0  0  0  0  0
   -7.8453   17.3076  -31.6360 H   0  0  0  0  0  0  0  0  0  0  0  0
   -8.9488   19.8253  -32.1006 H   0  0  0  0  0  0  0  0  0  0  0  0
   -8.2250   19.2263  -30.5433 H   0  0  0  0  0  0  0  0  0  0  0  0
   -5.0214   21.6932  -30.1082 H   0  0  0  0  0  0  0  0  0  0  0  0
    1.4352   21.9864  -27.2883 H   0  0  0  0  0  0  0  0  0  0  0  0
   -0.1392   18.6516  -30.2914 H   0  0  0  0  0  0  0  0  0  0  0  0
   -1.8722   18.9665  -29.9233 H   0  0  0  0  0  0  0  0  0  0  0  0
    0.9983   20.1976  -32.0496 H   0  0  0  0  0  0  0  0  0  0  0  0
    0.6381   21.1853  -34.3176 H   0  0  0  0  0  0  0  0  0  0  0  0
   -3.5883   20.8860  -33.8460 H   0  0  0  0  0  0  0  0  0  0  0  0
   -3.3010   19.8831  -31.5752 H   0  0  0  0  0  0  0  0  0  0  0  0
   -0.8340   23.9200  -25.2230 H   0  0  0  0  0  0  0  0  0  0  0  0
    1.1771   24.6650  -24.5843 H   0  0  0  0  0  0  0  0  0  0  0  0
    0.9911   26.1895  -25.5321 H   0  0  0  0  0  0  0  0  0  0  0  0
   -0.5729   25.4187  -23.0179 H   0  0  0  0  0  0  0  0  0  0  0  0
    0.7841   26.6437  -23.1573 H   0  0  0  0  0  0  0  0  0  0  0  0
   -2.5618   27.6465  -25.2056 H   0  0  0  0  0  0  0  0  0  0  0  0
   -0.8987   27.5356  -25.9445 H   0  0  0  0  0  0  0  0  0  0  0  0
   -2.5752   25.1946  -24.9358 H   0  0  0  0  0  0  0  0  0  0  0  0
   -2.2903   25.6682  -26.6652 H   0  0  0  0  0  0  0  0  0  0  0  0
  1  2  2  0
  2  3  1  0
  3  4  2  0
  4  5  1  0
  5  6  1  0
  6  7  2  0
  7  8  1  0
  8  9  2  0
  9 10  1  0
 10 11  1  0
 11 12  2  0
 11 13  2  0
 11 14  1  0
 14 15  1  0
 15 16  1  0
 16 17  1  0
 17 18  1  0
 18 19  1  0
 10 20  2  0
  5 21  2  0
 21 22  1  0
 22 23  2  0
 23 24  1  0
 24 25  2  0
 25 26  1  0
 26 27  1  0
 27 28  1  0
 28 29  2  0
 29 30  1  0
 30 31  2  0
 31 32  1  0
 32 33  2  0
  2 34  1  0
 34 35  1  0
 35 36  1  0
 36 37  1  0
 37 38  1  0
 38 39  1  0
 23  3  1  0
 33 28  1  0
 39 34  1  0
 20  6  1  0
 26 22  1  0
 19 14  1  0
  4 40  1  0
  7 41  1  0
  8 42  1  0
  9 43  1  0
 15 44  1  0
 15 45  1  0
 16 46  1  0
 16 47  1  0
 17 48  1  0
 17 49  1  0
 18 50  1  0
 18 51  1  0
 19 52  1  0
 19 53  1  0
 20 54  1  0
 24 55  1  0
 27 56  1  0
 27 57  1  0
 29 58  1  0
 30 59  1  0
 32 60  1  0
 33 61  1  0
 34 62  1  0
 35 63  1  0
 35 64  1  0
 36 65  1  0
 36 66  1  0
 38 67  1  0
 38 68  1  0
 39 69  1  0
 39 70  1  0
M  CHG  1  34   1
M  END
>  <UniqueID>  (7) 
7

>  <SMILES>  (7) 
O=C(c1cc(-c2cccc(S(=O)(=O)N3CCCCC3)c2)nc2c1cnn2Cc1ccncc1)[NH+]1CCOCC1

>  <Energy>  (7) 
141.94152655724878

>  <Genealogy>  (7) 
O=C(c1cc(-c2cccc(S(=O)(=O)N3CCCCC3)c2)nc2c1cnn2Cc1ccncc1)[NH+]1CCOCC1 (protonated)
O=C(c1cc(-c2cccc(S(=O)(=O)N3CCCCC3)c2)nc2c1cnn2Cc1ccncc1)[NH+]1CCOCC1 (3D coordinates assigned)
O=C(c1cc(-c2cccc(S(=O)(=O)N3CCCCC3)c2)nc2c1cnn2Cc1ccncc1)[NH+]1CCOCC1 (nonaromatic ring conformer: 141.94152655724878 kcal/mol)

>  <smiles>  (7) 
O=C(c1cc(-c2cccc(S(=O)(=O)N3CCCCC3)c2)nc2c1cnn2Cc1ccncc1)N1CCOCC1

>  <score_type>  (7) 
oracle

>  <origin>  (7) 
adgpu

>  <m_score__min__energy>  (7) 
-10.56

>  <m_primary>  (7) 
energy

$$$$
7:0
     RDKit          3D

 58 62  0  0  0  0  0  0  0  0999 V2000
   -1.3230   21.1900  -32.2850 O   0  0  0  0  0  0  0  0  0  0  0  0
   -0.4910   20.4620  -31.6830 C   0  0  0  0  0  0  0  0  0  0  0  0
   -0.7200   20.0520  -30.3490 C   0  0  0  0  0  0  0  0  0  0  0  0
   -1.9710   20.3990  -29.5460 C   0  0  2  0  0  0  0  0  0  0  0  0
   -2.4960   21.7840  -29.8850 C   0  0  0  0  0  0  0  0  0  0  0  0
   -1.8950   22.9100  -29.2960 C   0  0  0  0  0  0  0  0  0  0  0  0
   -2.3730   24.1920  -29.5650 C   0  0  0  0  0  0  0  0  0  0  0  0
   -3.4590   24.3750  -30.4220 C   0  0  0  0  0  0  0  0  0  0  0  0
   -3.9130   25.6640  -30.6770 O   0  0  0  0  0  0  0  0  0  0  0  0
   -4.0780   23.2670  -31.0260 C   0  0  0  0  0  0  0  0  0  0  0  0
   -5.2000   23.4660  -31.9040 N   0  0  0  0  0  0  0  0  0  0  0  0
   -6.8130   22.9600  -31.5130 S   0  0  0  0  0  0  0  0  0  0  0  0
   -7.7950   23.7960  -32.2820 O   0  0  0  0  0  0  0  0  0  0  0  0
   -7.0540   23.1560  -30.0420 O   0  0  0  0  0  0  0  0  0  0  0  0
   -7.0340   21.2730  -31.9690 C   0  0  0  0  0  0  0  0  0  0  0  0
   -6.0390   20.5890  -32.6830 C   0  0  0  0  0  0  0  0  0  0  0  0
   -6.2290   19.2510  -33.0440 C   0  0  0  0  0  0  0  0  0  0  0  0
   -7.4060   18.5890  -32.6850 C   0  0  0  0  0  0  0  0  0  0  0  0
   -8.3960   19.2640  -31.9640 C   0  0  0  0  0  0  0  0  0  0  0  0
   -8.2110   20.6040  -31.6070 C   0  0  0  0  0  0  0  0  0  0  0  0
   -3.5970   21.9750  -30.7420 C   0  0  0  0  0  0  0  0  0  0  0  0
   -1.8470   20.0920  -27.7730 S   0  0  0  0  0  0  0  0  0  0  0  0
   -3.2210   20.1590  -27.1660 O   0  0  0  0  0  0  0  0  0  0  0  0
   -1.2490   18.7520  -27.4530 O   0  0  0  0  0  0  0  0  0  0  0  0
   -0.8230   21.3360  -27.0640 C   0  0  0  0  0  0  0  0  0  0  0  0
   -1.2390   22.0510  -25.9320 C   0  0  0  0  0  0  0  0  0  0  0  0
   -0.4160   23.0390  -25.3830 C   0  0  0  0  0  0  0  0  0  0  0  0
    0.8250   23.3210  -25.9640 C   0  0  0  0  0  0  0  0  0  0  0  0
    1.8580   24.5600  -25.2750 Cl  0  0  0  0  0  0  0  0  0  0  0  0
    1.2410   22.6160  -27.0980 C   0  0  0  0  0  0  0  0  0  0  0  0
    0.4180   21.6280  -27.6470 C   0  0  0  0  0  0  0  0  0  0  0  0
    0.2400   19.2120  -29.7530 C   0  0  0  0  0  0  0  0  0  0  0  0
    1.3340   18.8420  -30.4070 O   0  0  0  0  0  0  0  0  0  0  0  0
    1.5900   19.2240  -31.6510 C   0  0  0  0  0  0  0  0  0  0  0  0
    2.7670   18.7970  -32.2780 C   0  0  0  0  0  0  0  0  0  0  0  0
    3.0440   19.1880  -33.5910 C   0  0  0  0  0  0  0  0  0  0  0  0
    2.1470   20.0060  -34.2830 C   0  0  0  0  0  0  0  0  0  0  0  0
    0.9690   20.4380  -33.6670 C   0  0  0  0  0  0  0  0  0  0  0  0
    0.6810   20.0520  -32.3430 C   0  0  0  0  0  0  0  0  0  0  0  0
   -2.7333   19.6771  -29.8744 H   0  0  0  0  0  0  0  0  0  0  0  0
   -1.0398   22.7786  -28.6167 H   0  0  0  0  0  0  0  0  0  0  0  0
   -1.8912   25.0642  -29.0989 H   0  0  0  0  0  0  0  0  0  0  0  0
   -5.0340   23.7850  -32.8840 H   0  0  0  0  0  0  0  0  0  0  0  0
   -5.1080   21.1055  -32.9594 H   0  0  0  0  0  0  0  0  0  0  0  0
   -5.4508   18.7193  -33.6112 H   0  0  0  0  0  0  0  0  0  0  0  0
   -7.5538   17.5368  -32.9696 H   0  0  0  0  0  0  0  0  0  0  0  0
   -9.3205   18.7412  -31.6775 H   0  0  0  0  0  0  0  0  0  0  0  0
   -8.9913   21.1337  -31.0408 H   0  0  0  0  0  0  0  0  0  0  0  0
   -4.0883   21.1018  -31.1961 H   0  0  0  0  0  0  0  0  0  0  0  0
   -2.2156   21.8341  -25.4745 H   0  0  0  0  0  0  0  0  0  0  0  0
   -0.7448   23.5954  -24.4929 H   0  0  0  0  0  0  0  0  0  0  0  0
    2.2152   22.8387  -27.5577 H   0  0  0  0  0  0  0  0  0  0  0  0
    0.7459   21.0771  -28.5408 H   0  0  0  0  0  0  0  0  0  0  0  0
    0.0801   18.8553  -28.7248 H   0  0  0  0  0  0  0  0  0  0  0  0
    3.4750   18.1526  -31.7362 H   0  0  0  0  0  0  0  0  0  0  0  0
    3.9697   18.8512  -34.0805 H   0  0  0  0  0  0  0  0  0  0  0  0
    2.3687   20.3111  -35.3163 H   0  0  0  0  0  0  0  0  0  0  0  0
    0.2656   21.0805  -34.2169 H   0  0  0  0  0  0  0  0  0  0  0  0
  1  2  2  0
  2  3  1  0
  3  4  1  0
  4  5  1  0
  5  6  2  0
  6  7  1  0
  7  8  2  0
  8  9  1  0
  8 10  1  0
 10 11  1  0
 11 12  1  0
 12 13  2  0
 12 14  2  0
 12 15  1  0
 15 16  2  0
 16 17  1  0
 17 18  2  0
 18 19  1  0
 19 20  2  0
 10 21  2  0
  4 22  1  0
 22 23  2  0
 22 24  2  0
 22 25  1  0
 25 26  2  0
 26 27  1  0
 27 28  2  0
 28 29  1  0
 28 30  1  0
 30 31  2  0
  3 32  2  0
 32 33  1  0
 33 34  1  0
 34 35  2  0
 35 36  1  0
 36 37  2  0
 37 38  1  0
 38 39  2  0
 39  2  1  0
 21  5  1  0
 31 25  1  0
 39 34  1  0
 20 15  1  0
  4 40  1  6
  6 41  1  0
  7 42  1  0
 11 43  1  0
 16 44  1  0
 17 45  1  0
 18 46  1  0
 19 47  1  0
 20 48  1  0
 21 49  1  0
 26 50  1  0
 27 51  1  0
 30 52  1  0
 31 53  1  0
 32 54  1  0
 35 55  1  0
 36 56  1  0
 37 57  1  0
 38 58  1  0
M  CHG  1   9  -1
M  END
>  <UniqueID>  (8) 
8

>  <SMILES>  (8) 
O=c1c([C@H](c2ccc([O-])c(NS(=O)(=O)c3ccccc3)c2)S(=O)(=O)c2ccc(Cl)cc2)coc2ccccc12

>  <Energy>  (8) 
73.44032414515529

>  <Genealogy>  (8) 
O=c1c(C(c2ccc([O-])c(NS(=O)(=O)c3ccccc3)c2)S(=O)(=O)c2ccc(Cl)cc2)coc2ccccc12 (protonated)
O=c1c([C@H](c2ccc([O-])c(NS(=O)(=O)c3ccccc3)c2)S(=O)(=O)c2ccc(Cl)cc2)coc2ccccc12 (chirality)
O=c1c([C@H](c2ccc([O-])c(NS(=O)(=O)c3ccccc3)c2)S(=O)(=O)c2ccc(Cl)cc2)coc2ccccc12 (3D coordinates assigned)
O=c1c([C@H](c2ccc([O-])c(NS(=O)(=O)c3ccccc3)c2)S(=O)(=O)c2ccc(Cl)cc2)coc2ccccc12 (optimized conformer: 73.44032414515529 kcal/mol)

>  <smiles>  (8) 
O=c1c(C(c2ccc(O)c(NS(=O)(=O)c3ccccc3)c2)S(=O)(=O)c2ccc(Cl)cc2)coc2ccccc12

>  <score_type>  (8) 
oracle

>  <origin>  (8) 
adgpu

>  <m_score__min__energy>  (8) 
-12.99

>  <m_primary>  (8) 
energy

$$$$
8:0
     RDKit          3D

 59 62  0  0  0  0  0  0  0  0999 V2000
   -5.0320   25.7820  -30.4970 N   0  0  0  0  0  0  0  0  0  0  0  0
   -5.3240   24.4340  -30.8860 C   0  0  0  0  0  0  0  0  0  0  0  0
   -6.4690   24.1770  -31.6530 C   0  0  0  0  0  0  0  0  0  0  0  0
   -6.7410   22.8870  -32.1140 C   0  0  0  0  0  0  0  0  0  0  0  0
   -5.8680   21.8360  -31.8180 C   0  0  0  0  0  0  0  0  0  0  0  0
   -6.2110   20.2200  -32.4330 S   0  0  0  0  0  0  0  0  0  0  0  0
   -4.9690   19.3850  -32.2900 O   0  0  0  0  0  0  0  0  0  0  0  0
   -6.5810   20.2890  -33.8900 O   0  0  0  0  0  0  0  0  0  0  0  0
   -7.5150   19.5030  -31.5100 N   0  0  0  0  0  0  0  0  0  0  0  0
   -8.4180   20.5420  -31.0000 C   0  0  0  0  0  0  0  0  0  0  0  0
   -9.5490   20.7180  -32.0010 C   0  0  0  0  0  0  0  0  0  0  0  0
   -9.5040   19.4890  -32.8890 C   0  0  0  0  0  0  0  0  0  0  0  0
   -8.3430   18.6520  -32.3690 C   0  0  0  0  0  0  0  0  0  0  0  0
   -4.7240   22.0810  -31.0490 C   0  0  0  0  0  0  0  0  0  0  0  0
   -4.4550   23.3680  -30.5590 C   0  0  0  0  0  0  0  0  0  0  0  0
   -3.2900   23.5690  -29.7450 N   0  0  0  0  0  0  0  0  0  0  0  0
   -3.3480   24.2490  -28.4810 C   0  0  0  0  0  0  0  0  0  0  0  0
   -4.4700   24.5180  -27.9700 O   0  0  0  0  0  0  0  0  0  0  0  0
   -2.1080   24.6230  -27.7590 C   0  0  0  0  0  0  0  0  0  0  0  0
   -1.3210   25.7080  -28.1860 C   0  0  0  0  0  0  0  0  0  0  0  0
   -0.1630   26.0610  -27.4870 C   0  0  0  0  0  0  0  0  0  0  0  0
    0.2270   25.3380  -26.3540 C   0  0  0  0  0  0  0  0  0  0  0  0
    1.6720   25.8150  -25.4640 S   0  0  0  0  0  0  0  0  0  0  0  0
    2.5480   26.6220  -26.3820 O   0  0  0  0  0  0  0  0  0  0  0  0
    2.4350   24.5900  -25.0430 O   0  0  0  0  0  0  0  0  0  0  0  0
    1.2460   26.7890  -24.0710 N   0  0  0  0  0  0  0  0  0  0  0  0
    1.2320   28.2280  -24.3870 C   0  0  0  0  0  0  0  0  0  0  0  0
    0.0030   28.6320  -25.2360 C   0  0  0  0  0  0  0  0  0  0  0  0
   -1.0480   27.6810  -25.1990 O   0  0  0  0  0  0  0  0  0  0  0  0
   -1.2280   27.2020  -23.8860 C   0  0  0  0  0  0  0  0  0  0  0  0
   -0.0240   26.3410  -23.4580 C   0  0  0  0  0  0  0  0  0  0  0  0
   -0.5580   24.2650  -25.9150 C   0  0  0  0  0  0  0  0  0  0  0  0
   -1.7180   23.9110  -26.6100 C   0  0  0  0  0  0  0  0  0  0  0  0
   -4.7850   26.0300  -29.5140 H   0  0  0  0  0  0  0  0  0  0  0  0
   -4.9840   26.5420  -31.2130 H   0  0  0  0  0  0  0  0  0  0  0  0
   -7.1594   24.9988  -31.8939 H   0  0  0  0  0  0  0  0  0  0  0  0
   -7.6448   22.6974  -32.7117 H   0  0  0  0  0  0  0  0  0  0  0  0
   -8.8267   20.2354  -30.0258 H   0  0  0  0  0  0  0  0  0  0  0  0
   -7.8740   21.4891  -30.8694 H   0  0  0  0  0  0  0  0  0  0  0  0
  -10.5160   20.7802  -31.4805 H   0  0  0  0  0  0  0  0  0  0  0  0
   -9.4364   21.6446  -32.5830 H   0  0  0  0  0  0  0  0  0  0  0  0
  -10.4465   18.9267  -32.8149 H   0  0  0  0  0  0  0  0  0  0  0  0
   -9.3719   19.7559  -33.9479 H   0  0  0  0  0  0  0  0  0  0  0  0
   -8.7281   17.8001  -31.7894 H   0  0  0  0  0  0  0  0  0  0  0  0
   -7.7472   18.2647  -33.2086 H   0  0  0  0  0  0  0  0  0  0  0  0
   -4.0298   21.2571  -30.8269 H   0  0  0  0  0  0  0  0  0  0  0  0
   -2.4420   23.0000  -29.9650 H   0  0  0  0  0  0  0  0  0  0  0  0
   -1.6187   26.2823  -29.0757 H   0  0  0  0  0  0  0  0  0  0  0  0
    0.4448   26.9115  -27.8293 H   0  0  0  0  0  0  0  0  0  0  0  0
    1.2136   28.7966  -23.4455 H   0  0  0  0  0  0  0  0  0  0  0  0
    2.1346   28.4518  -24.9746 H   0  0  0  0  0  0  0  0  0  0  0  0
   -0.3815   29.5906  -24.8576 H   0  0  0  0  0  0  0  0  0  0  0  0
    0.3403   28.7006  -26.2808 H   0  0  0  0  0  0  0  0  0  0  0  0
   -1.3255   28.0556  -23.1991 H   0  0  0  0  0  0  0  0  0  0  0  0
   -2.1376   26.5844  -23.8533 H   0  0  0  0  0  0  0  0  0  0  0  0
    0.0754   26.3945  -22.3638 H   0  0  0  0  0  0  0  0  0  0  0  0
   -0.2130   25.3127  -23.7999 H   0  0  0  0  0  0  0  0  0  0  0  0
   -0.2609   23.6986  -25.0201 H   0  0  0  0  0  0  0  0  0  0  0  0
   -2.3308   23.0690  -26.2557 H   0  0  0  0  0  0  0  0  0  0  0  0
  1  2  1  0
  2  3  2  0
  3  4  1  0
  4  5  2  0
  5  6  1  0
  6  7  2  0
  6  8  2  0
  6  9  1  0
  9 10  1  0
 10 11  1  0
 11 12  1  0
 12 13  1  0
  5 14  1  0
 14 15  2  0
 15 16  1  0
 16 17  1  0
 17 18  2  0
 17 19  1  0
 19 20  2  0
 20 21  1  0
 21 22  2  0
 22 23  1  0
 23 24  2  0
 23 25  2  0
 23 26  1  0
 26 27  1  0
 27 28  1  0
 28 29  1  0
 29 30  1  0
 30 31  1  0
 22 32  1  0
 32 33  2  0
 15  2  1  0
 33 19  1  0
 13  9  1  0
 31 26  1  0
  1 34  1  0
  1 35  1  0
  3 36  1  0
  4 37  1  0
 10 38  1  0
 10 39  1  0
 11 40  1  0
 11 41  1  0
 12 42  1  0
 12 43  1  0
 13 44  1  0
 13 45  1  0
 14 46  1  0
 16 47  1  0
 20 48  1  0
 21 49  1  0
 27 50  1  0
 27 51  1  0
 28 52  1  0
 28 53  1  0
 30 54  1  0
 30 55  1  0
 31 56  1  0
 31 57  1  0
 32 58  1  0
 33 59  1  0
M  END
>  <UniqueID>  (9) 
9

>  <SMILES>  (9) 
Nc1ccc(S(=O)(=O)N2CCCC2)cc1NC(=O)c1ccc(S(=O)(=O)N2CCOCC2)cc1

>  <Energy>  (9) 
80.42827492310403

>  <Genealogy>  (9) 
Nc1ccc(S(=O)(=O)N2CCCC2)cc1NC(=O)c1ccc(S(=O)(=O)N2CCOCC2)cc1 (3D coordinates assigned)
Nc1ccc(S(=O)(=O)N2CCCC2)cc1NC(=O)c1ccc(S(=O)(=O)N2CCOCC2)cc1 (nonaromatic ring conformer: 80.42827492310403 kcal/mol)

>  <smiles>  (9) 
Nc1ccc(S(=O)(=O)N2CCCC2)cc1NC(=O)c1ccc(S(=O)(=O)N2CCOCC2)cc1

>  <score_type>  (9) 
oracle

>  <origin>  (9) 
adgpu

>  <m_score__min__energy>  (9) 
-9.4700000000000006

>  <m_primary>  (9) 
energy

$$$$
9:0
     RDKit          3D

 44 47  0  0  0  0  0  0  0  0999 V2000
    1.6930   21.8690  -36.5030 O   0  0  0  0  0  0  0  0  0  0  0  0
    0.8860   21.5320  -35.5980 C   0  0  0  0  0  0  0  0  0  0  0  0
   -0.1450   20.6740  -35.8140 N   0  0  0  0  0  0  0  0  0  0  0  0
   -0.7070   20.6220  -34.5940 C   0  0  0  0  0  0  0  0  0  0  0  0
   -1.8190   19.8870  -34.1970 C   0  0  0  0  0  0  0  0  0  0  0  0
   -2.2280   19.9900  -32.8550 C   0  0  0  0  0  0  0  0  0  0  0  0
   -1.5240   20.8250  -31.9400 C   0  0  0  0  0  0  0  0  0  0  0  0
   -1.9340   20.9600  -30.5670 N   0  0  0  0  0  0  0  0  0  0  0  0
   -2.4920   22.4490  -29.8650 S   0  0  0  0  0  0  0  0  0  0  0  0
   -1.4660   23.5200  -30.1050 O   0  0  0  0  0  0  0  0  0  0  0  0
   -2.6620   22.2510  -28.3850 O   0  0  0  0  0  0  0  0  0  0  0  0
   -4.0130   22.9450  -30.6150 C   0  0  0  0  0  0  0  0  0  0  0  0
   -4.8900   21.9670  -31.1090 C   0  0  0  0  0  0  0  0  0  0  0  0
   -6.1090   22.3330  -31.6890 C   0  0  0  0  0  0  0  0  0  0  0  0
   -7.1830   21.0810  -32.3060 S   0  0  0  0  0  0  0  0  0  0  0  0
   -8.5960   21.5890  -32.2390 O   0  0  0  0  0  0  0  0  0  0  0  0
   -6.8450   20.7670  -33.7380 O   0  0  0  0  0  0  0  0  0  0  0  0
   -7.0260   19.6400  -31.3240 N   0  0  0  0  0  0  0  0  0  0  0  0
   -5.7780   18.9350  -31.6380 C   0  0  0  0  0  0  0  0  0  0  0  0
   -6.0820   17.8940  -32.7030 C   0  0  0  0  0  0  0  0  0  0  0  0
   -7.5840   17.6890  -32.6530 C   0  0  0  0  0  0  0  0  0  0  0  0
   -8.1020   18.6910  -31.6280 C   0  0  0  0  0  0  0  0  0  0  0  0
   -6.4500   23.6890  -31.7900 C   0  0  0  0  0  0  0  0  0  0  0  0
   -5.5740   24.6670  -31.3170 C   0  0  0  0  0  0  0  0  0  0  0  0
   -4.3570   24.3030  -30.7320 C   0  0  0  0  0  0  0  0  0  0  0  0
   -3.4970   25.2970  -30.2760 O   0  0  0  0  0  0  0  0  0  0  0  0
   -0.3940   21.5450  -32.3890 C   0  0  0  0  0  0  0  0  0  0  0  0
   -0.0240   21.4150  -33.7240 C   0  0  0  0  0  0  0  0  0  0  0  0
    0.9680   21.9800  -34.3580 O   0  0  0  0  0  0  0  0  0  0  0  0
   -2.3606   19.2465  -34.9087 H   0  0  0  0  0  0  0  0  0  0  0  0
   -3.1018   19.4191  -32.5079 H   0  0  0  0  0  0  0  0  0  0  0  0
   -1.8090   20.1500  -29.9190 H   0  0  0  0  0  0  0  0  0  0  0  0
   -4.6164   20.9038  -31.0395 H   0  0  0  0  0  0  0  0  0  0  0  0
   -5.0310   19.6486  -32.0159 H   0  0  0  0  0  0  0  0  0  0  0  0
   -5.3744   18.4522  -30.7358 H   0  0  0  0  0  0  0  0  0  0  0  0
   -5.7766   18.2585  -33.6949 H   0  0  0  0  0  0  0  0  0  0  0  0
   -5.5361   16.9559  -32.5240 H   0  0  0  0  0  0  0  0  0  0  0  0
   -8.0308   17.8832  -33.6392 H   0  0  0  0  0  0  0  0  0  0  0  0
   -7.8443   16.6560  -32.3790 H   0  0  0  0  0  0  0  0  0  0  0  0
   -8.9676   19.2303  -32.0402 H   0  0  0  0  0  0  0  0  0  0  0  0
   -8.4145   18.1678  -30.7123 H   0  0  0  0  0  0  0  0  0  0  0  0
   -7.4088   23.9824  -32.2424 H   0  0  0  0  0  0  0  0  0  0  0  0
   -5.8423   25.7302  -31.4048 H   0  0  0  0  0  0  0  0  0  0  0  0
    0.1762   22.1891  -31.7034 H   0  0  0  0  0  0  0  0  0  0  0  0
  1  2  2  0
  2  3  1  0
  3  4  1  0
  4  5  2  0
  5  6  1  0
  6  7  2  0
  7  8  1  0
  8  9  1  0
  9 10  2  0
  9 11  2  0
  9 12  1  0
 12 13  2  0
 13 14  1  0
 14 15  1  0
 15 16  2  0
 15 17  2  0
 15 18  1  0
 18 19  1  0
 19 20  1  0
 20 21  1  0
 21 22  1  0
 14 23  2  0
 23 24  1  0
 24 25  2  0
 25 26  1  0
  7 27  1  0
 27 28  2  0
 28 29  1  0
 29  2  1  0
 28  4  1  0
 25 12  1  0
 22 18  1  0
  5 30  1  0
  6 31  1  0
  8 32  1  0
 13 33  1  0
 19 34  1  0
 19 35  1  0
 20 36  1  0
 20 37  1  0
 21 38  1  0
 21 39  1  0
 22 40  1  0
 22 41  1  0
 23 42  1  0
 24 43  1  0
 27 44  1  0
M  CHG  2   3  -1  26  -1
M  END
>  <UniqueID>  (10) 
10

>  <SMILES>  (10) 
O=c1[n-]c2ccc(NS(=O)(=O)c3cc(S(=O)(=O)N4CCCC4)ccc3[O-])cc2o1

>  <Energy>  (10) 
89.58585526317151

>  <Genealogy>  (10) 
O=c1[n-]c2ccc(NS(=O)(=O)c3cc(S(=O)(=O)N4CCCC4)ccc3[O-])cc2o1 (protonated)
O=c1[n-]c2ccc(NS(=O)(=O)c3cc(S(=O)(=O)N4CCCC4)ccc3[O-])cc2o1 (3D coordinates assigned)
O=c1[n-]c2ccc(NS(=O)(=O)c3cc(S(=O)(=O)N4CCCC4)ccc3[O-])cc2o1 (nonaromatic ring conformer: 89.58585526317151 kcal/mol)

>  <smiles>  (10) 
O=c1[nH]c2ccc(NS(=O)(=O)c3cc(S(=O)(=O)N4CCCC4)ccc3O)cc2o1

>  <score_type>  (10) 
oracle

>  <origin>  (10) 
adgpu

>  <m_score__min__energy>  (10) 
-12.94

>  <m_primary>  (10) 
energy

$$$$
10:0
     RDKit          3D

 51 53  0  0  0  0  0  0  0  0999 V2000
   -2.5560   24.4740  -29.0380 C   0  0  0  0  0  0  0  0  0  0  0  0
   -3.5250   24.5410  -30.1790 C   0  0  0  0  0  0  0  0  0  0  0  0
   -3.9430   25.6680  -30.5560 O   0  0  0  0  0  0  0  0  0  0  0  0
   -3.9480   23.3710  -30.8950 N   0  0  0  0  0  0  0  0  0  0  0  0
   -5.2870   22.8710  -31.0210 C   0  0  0  0  0  0  0  0  0  0  0  0
   -5.7720   22.5570  -32.2970 C   0  0  0  0  0  0  0  0  0  0  0  0
   -7.0830   22.0980  -32.4640 C   0  0  0  0  0  0  0  0  0  0  0  0
   -7.9310   21.9820  -31.3580 C   0  0  0  0  0  0  0  0  0  0  0  0
   -9.6230   21.4120  -31.5640 S   0  0  0  0  0  0  0  0  0  0  0  0
   -9.2080   20.0550  -32.7170 C   0  0  0  0  0  0  0  0  0  0  0  0
   -8.6960   18.8450  -32.0020 C   0  0  0  0  0  0  0  0  0  0  0  0
   -9.4890   17.9160  -31.6840 O   0  0  0  0  0  0  0  0  0  0  0  0
   -7.3210   18.7940  -31.6030 N   0  0  0  0  0  0  0  0  0  0  0  0
   -6.2110   18.6090  -32.4920 C   0  0  0  0  0  0  0  0  0  0  0  0
   -5.1190   19.4930  -32.4730 C   0  0  0  0  0  0  0  0  0  0  0  0
   -4.0320   19.3030  -33.3370 C   0  0  0  0  0  0  0  0  0  0  0  0
   -2.6500   20.4050  -33.2850 S   0  0  0  0  0  0  0  0  0  0  0  0
   -3.1290   21.8060  -33.5480 O   0  0  0  0  0  0  0  0  0  0  0  0
   -1.6880   20.0350  -34.3790 O   0  0  0  0  0  0  0  0  0  0  0  0
   -1.8110   20.3780  -31.7530 N   0  0  0  0  0  0  0  0  0  0  0  0
   -0.8280   21.4540  -31.6410 C   0  0  0  0  0  0  0  0  0  0  0  0
   -0.6580   21.7310  -30.1530 C   0  0  0  0  0  0  0  0  0  0  0  0
   -1.8770   21.1090  -29.4840 C   0  0  0  0  0  0  0  0  0  0  0  0
   -2.7210   20.5620  -30.6240 C   0  0  0  0  0  0  0  0  0  0  0  0
   -4.0290   18.2090  -34.2110 C   0  0  0  0  0  0  0  0  0  0  0  0
   -5.0970   17.3090  -34.2150 C   0  0  0  0  0  0  0  0  0  0  0  0
   -6.1850   17.4970  -33.3560 C   0  0  0  0  0  0  0  0  0  0  0  0
   -7.2310   16.5740  -33.3830 O   0  0  0  0  0  0  0  0  0  0  0  0
   -7.4580   22.3110  -30.0820 C   0  0  0  0  0  0  0  0  0  0  0  0
   -6.1490   22.7690  -29.9140 C   0  0  0  0  0  0  0  0  0  0  0  0
   -3.1067   24.5121  -28.0865 H   0  0  0  0  0  0  0  0  0  0  0  0
   -1.9869   23.5344  -29.0949 H   0  0  0  0  0  0  0  0  0  0  0  0
   -1.8630   25.3264  -29.0949 H   0  0  0  0  0  0  0  0  0  0  0  0
   -5.1177   22.6721  -33.1737 H   0  0  0  0  0  0  0  0  0  0  0  0
   -7.4472   21.8281  -33.4663 H   0  0  0  0  0  0  0  0  0  0  0  0
  -10.1121   19.7785  -33.2793 H   0  0  0  0  0  0  0  0  0  0  0  0
   -8.4136   20.4126  -33.3887 H   0  0  0  0  0  0  0  0  0  0  0  0
   -5.1173   20.3420  -31.7736 H   0  0  0  0  0  0  0  0  0  0  0  0
    0.1302   21.1407  -32.0812 H   0  0  0  0  0  0  0  0  0  0  0  0
   -1.1609   22.3545  -32.1779 H   0  0  0  0  0  0  0  0  0  0  0  0
    0.2658   21.2663  -29.7781 H   0  0  0  0  0  0  0  0  0  0  0  0
   -0.5814   22.8081  -29.9435 H   0  0  0  0  0  0  0  0  0  0  0  0
   -1.5731   20.2983  -28.8055 H   0  0  0  0  0  0  0  0  0  0  0  0
   -2.4306   21.8400  -28.8764 H   0  0  0  0  0  0  0  0  0  0  0  0
   -3.1722   19.6006  -30.3372 H   0  0  0  0  0  0  0  0  0  0  0  0
   -3.5428   21.2473  -30.8790 H   0  0  0  0  0  0  0  0  0  0  0  0
   -3.1824   18.0579  -34.8969 H   0  0  0  0  0  0  0  0  0  0  0  0
   -5.0825   16.4468  -34.8980 H   0  0  0  0  0  0  0  0  0  0  0  0
   -8.0550   16.6720  -32.8050 H   0  0  0  0  0  0  0  0  0  0  0  0
   -8.1193   22.2085  -29.2089 H   0  0  0  0  0  0  0  0  0  0  0  0
   -5.7911   23.0508  -28.9128 H   0  0  0  0  0  0  0  0  0  0  0  0
  1  2  1  0
  2  3  2  0
  2  4  1  0
  4  5  1  0
  5  6  2  0
  6  7  1  0
  7  8  2  0
  8  9  1  0
  9 10  1  0
 10 11  1  0
 11 12  2  0
 11 13  1  0
 13 14  1  0
 14 15  2  0
 15 16  1  0
 16 17  1  0
 17 18  2  0
 17 19  2  0
 17 20  1  0
 20 21  1  0
 21 22  1  0
 22 23  1  0
 23 24  1  0
 16 25  2  0
 25 26  1  0
 26 27  2  0
 27 28  1  0
  8 29  1  0
 29 30  2  0
 30  5  1  0
 27 14  1  0
 24 20  1  0
  1 31  1  0
  1 32  1  0
  1 33  1  0
  6 34  1  0
  7 35  1  0
 10 36  1  0
 10 37  1  0
 15 38  1  0
 21 39  1  0
 21 40  1  0
 22 41  1  0
 22 42  1  0
 23 43  1  0
 23 44  1  0
 24 45  1  0
 24 46  1  0
 25 47  1  0
 26 48  1  0
 28 49  1  0
 29 50  1  0
 30 51  1  0
M  CHG  2   4  -1  13  -1
M  END
>  <UniqueID>  (11) 
11

>  <SMILES>  (11) 
CC(=O)[N-]c1ccc(SCC(=O)[N-]c2cc(S(=O)(=O)N3CCCC3)ccc2O)cc1

>  <Energy>  (11) 
53.38304175618749

>  <Genealogy>  (11) 
CC(=O)[N-]c1ccc(SCC(=O)[N-]c2cc(S(=O)(=O)N3CCCC3)ccc2O)cc1 (protonated)
CC(=O)[N-]c1ccc(SCC(=O)[N-]c2cc(S(=O)(=O)N3CCCC3)ccc2O)cc1 (3D coordinates assigned)
CC(=O)[N-]c1ccc(SCC(=O)[N-]c2cc(S(=O)(=O)N3CCCC3)ccc2O)cc1 (nonaromatic ring conformer: 53.38304175618749 kcal/mol)

>  <smiles>  (11) 
CC(=O)Nc1ccc(SCC(=O)Nc2cc(S(=O)(=O)N3CCCC3)ccc2O)cc1

>  <score_type>  (11) 
oracle

>  <origin>  (11) 
adgpu

>  <m_score__min__energy>  (11) 
-11.23

>  <m_primary>  (11) 
energy

$$$$
11:0
     RDKit          3D

 52 55  0  0  0  0  0  0  0  0999 V2000
   -6.5600   25.7530  -30.0720 O   0  0  0  0  0  0  0  0  0  0  0  0
   -5.4990   24.7040  -30.2430 S   0  0  0  0  0  0  0  0  0  0  0  0
   -4.3970   25.2530  -31.1050 O   0  0  0  0  0  0  0  0  0  0  0  0
   -4.8510   24.2730  -28.6920 N   0  0  0  0  0  0  0  0  0  0  0  0
   -3.6480   23.4950  -28.5680 C   0  0  0  0  0  0  0  0  0  0  0  0
   -3.6790   22.2150  -27.9860 C   0  0  0  0  0  0  0  0  0  0  0  0
   -2.4940   21.4870  -27.8080 C   0  0  0  0  0  0  0  0  0  0  0  0
   -1.2700   22.0370  -28.2110 C   0  0  0  0  0  0  0  0  0  0  0  0
   -1.2370   23.3030  -28.8100 C   0  0  0  0  0  0  0  0  0  0  0  0
   -2.4180   24.0280  -28.9930 C   0  0  0  0  0  0  0  0  0  0  0  0
   -2.3610   25.2900  -29.5740 O   0  0  0  0  0  0  0  0  0  0  0  0
   -0.0120   21.2590  -27.9500 C   0  0  0  0  0  0  0  0  0  0  0  0
   -0.2130   19.7840  -28.3310 C   0  0  0  0  0  0  0  0  0  0  0  0
   -1.5270   19.1590  -27.7930 C   0  0  0  0  0  0  0  0  0  0  0  0
   -2.4940   20.1500  -27.1160 C   0  0  0  0  0  0  0  0  0  0  0  0
   -6.2210   23.2770  -30.9780 C   0  0  0  0  0  0  0  0  0  0  0  0
   -7.5870   23.2810  -31.2900 C   0  0  0  0  0  0  0  0  0  0  0  0
   -8.2140   22.1100  -31.7230 C   0  0  0  0  0  0  0  0  0  0  0  0
   -7.4770   20.9270  -31.8580 C   0  0  0  0  0  0  0  0  0  0  0  0
   -8.2900   19.4110  -32.2220 S   0  0  0  0  0  0  0  0  0  0  0  0
   -9.4900   19.6830  -33.0860 O   0  0  0  0  0  0  0  0  0  0  0  0
   -8.7490   18.7510  -30.9500 O   0  0  0  0  0  0  0  0  0  0  0  0
   -7.1680   18.3870  -33.0770 N   0  0  0  0  0  0  0  0  0  0  0  0
   -6.3520   19.1580  -34.0130 C   0  0  0  0  0  0  0  0  0  0  0  0
   -5.0890   18.3470  -34.2330 C   0  0  0  0  0  0  0  0  0  0  0  0
   -4.9680   17.4630  -32.9990 C   0  0  0  0  0  0  0  0  0  0  0  0
   -6.2130   17.7520  -32.1720 C   0  0  0  0  0  0  0  0  0  0  0  0
   -6.1040   20.9310  -31.5800 C   0  0  0  0  0  0  0  0  0  0  0  0
   -5.4770   22.1010  -31.1440 C   0  0  0  0  0  0  0  0  0  0  0  0
   -5.4790   24.3810  -27.8660 H   0  0  0  0  0  0  0  0  0  0  0  0
   -4.6391   21.7822  -27.6684 H   0  0  0  0  0  0  0  0  0  0  0  0
   -0.2771   23.7285  -29.1379 H   0  0  0  0  0  0  0  0  0  0  0  0
    0.8076   21.6811  -28.5501 H   0  0  0  0  0  0  0  0  0  0  0  0
    0.2350   21.3234  -26.8800 H   0  0  0  0  0  0  0  0  0  0  0  0
   -0.2202   19.7096  -29.4285 H   0  0  0  0  0  0  0  0  0  0  0  0
    0.6140   19.2241  -27.8700 H   0  0  0  0  0  0  0  0  0  0  0  0
   -2.0538   18.6930  -28.6388 H   0  0  0  0  0  0  0  0  0  0  0  0
   -1.2283   18.4423  -27.0138 H   0  0  0  0  0  0  0  0  0  0  0  0
   -3.5113   19.7327  -27.1462 H   0  0  0  0  0  0  0  0  0  0  0  0
   -2.1609   20.3003  -26.0785 H   0  0  0  0  0  0  0  0  0  0  0  0
   -8.1681   24.2100  -31.1936 H   0  0  0  0  0  0  0  0  0  0  0  0
   -9.2885   22.1173  -31.9583 H   0  0  0  0  0  0  0  0  0  0  0  0
   -6.8881   19.2959  -34.9636 H   0  0  0  0  0  0  0  0  0  0  0  0
   -6.1242   20.1593  -33.6187 H   0  0  0  0  0  0  0  0  0  0  0  0
   -5.1772   17.7329  -35.1413 H   0  0  0  0  0  0  0  0  0  0  0  0
   -4.2054   18.9876  -34.3704 H   0  0  0  0  0  0  0  0  0  0  0  0
   -4.9350   16.4020  -33.2873 H   0  0  0  0  0  0  0  0  0  0  0  0
   -4.0457   17.6695  -32.4363 H   0  0  0  0  0  0  0  0  0  0  0  0
   -6.6309   16.8160  -31.7729 H   0  0  0  0  0  0  0  0  0  0  0  0
   -5.9818   18.4015  -31.3148 H   0  0  0  0  0  0  0  0  0  0  0  0
   -5.5171   20.0092  -31.7055 H   0  0  0  0  0  0  0  0  0  0  0  0
   -4.3979   22.0991  -30.9307 H   0  0  0  0  0  0  0  0  0  0  0  0
  1  2  2  0
  2  3  2  0
  2  4  1  0
  4  5  1  0
  5  6  2  0
  6  7  1  0
  7  8  2  0
  8  9  1  0
  9 10  2  0
 10 11  1  0
  8 12  1  0
 12 13  1  0
 13 14  1  0
 14 15  1  0
  2 16  1  0
 16 17  2  0
 17 18  1  0
 18 19  2  0
 19 20  1  0
 20 21  2  0
 20 22  2  0
 20 23  1  0
 23 24  1  0
 24 25  1  0
 25 26  1  0
 26 27  1  0
 19 28  1  0
 28 29  2  0
 10  5  1  0
 29 16  1  0
 15  7  1  0
 27 23  1  0
  4 30  1  0
  6 31  1  0
  9 32  1  0
 12 33  1  0
 12 34  1  0
 13 35  1  0
 13 36  1  0
 14 37  1  0
 14 38  1  0
 15 39  1  0
 15 40  1  0
 17 41  1  0
 18 42  1  0
 24 43  1  0
 24 44  1  0
 25 45  1  0
 25 46  1  0
 26 47  1  0
 26 48  1  0
 27 49  1  0
 27 50  1  0
 28 51  1  0
 29 52  1  0
M  CHG  1  11  -1
M  END
>  <UniqueID>  (12) 
12

>  <SMILES>  (12) 
O=S(=O)(Nc1cc2c(cc1[O-])CCCC2)c1ccc(S(=O)(=O)N2CCCC2)cc1

>  <Energy>  (12) 
60.30734985110271

>  <Genealogy>  (12) 
O=S(=O)(Nc1cc2c(cc1[O-])CCCC2)c1ccc(S(=O)(=O)N2CCCC2)cc1 (protonated)
O=S(=O)(Nc1cc2c(cc1[O-])CCCC2)c1ccc(S(=O)(=O)N2CCCC2)cc1 (3D coordinates assigned)
O=S(=O)(Nc1cc2c(cc1[O-])CCCC2)c1ccc(S(=O)(=O)N2CCCC2)cc1 (nonaromatic ring conformer: 60.30734985110271 kcal/mol)

>  <smiles>  (12) 
O=S(=O)(Nc1cc2c(cc1O)CCCC2)c1ccc(S(=O)(=O)N2CCCC2)cc1

>  <score_type>  (12) 
oracle

>  <origin>  (12) 
adgpu

>  <m_score__min__energy>  (12) 
-15.16

>  <m_primary>  (12) 
energy

$$$$
12:0
     RDKit          3D

 56 59  0  0  0  0  0  0  0  0999 V2000
   -0.9280   14.7340  -32.4440 C   0  0  0  0  0  0  0  0  0  0  0  0
   -0.6190   15.6110  -33.6560 C   0  0  0  0  0  0  0  0  0  0  0  0
   -0.3960   17.0000  -33.2490 N   0  0  0  0  0  0  0  0  0  0  0  0
   -1.4600   17.9620  -33.1660 C   0  0  0  0  0  0  0  0  0  0  0  0
   -3.0940   17.5630  -33.2550 S   0  0  0  0  0  0  0  0  0  0  0  0
   -3.6450   19.1420  -33.2010 C   0  0  0  0  0  0  0  0  0  0  0  0
   -2.5700   20.0200  -33.1510 C   0  0  0  0  0  0  0  0  0  0  0  0
   -1.3120   19.3620  -33.0830 C   0  0  0  0  0  0  0  0  0  0  0  0
   -0.0110   20.0470  -32.8320 C   0  0  0  0  0  0  0  0  0  0  0  0
    0.1140   21.2730  -33.0880 O   0  0  0  0  0  0  0  0  0  0  0  0
    1.1100   19.3240  -32.3050 N   0  0  0  0  0  0  0  0  0  0  0  0
    1.1300   18.5420  -31.1000 C   0  0  0  0  0  0  0  0  0  0  0  0
    0.5020   18.9990  -29.9240 C   0  0  0  0  0  0  0  0  0  0  0  0
    0.5320   18.2300  -28.7520 C   0  0  0  0  0  0  0  0  0  0  0  0
   -0.1790   18.7150  -27.5180 C   0  0  0  0  0  0  0  0  0  0  0  0
    1.2170   17.0010  -28.7520 C   0  0  0  0  0  0  0  0  0  0  0  0
    1.2690   15.9750  -27.3220 Cl  0  0  0  0  0  0  0  0  0  0  0  0
    1.8750   16.5670  -29.9050 C   0  0  0  0  0  0  0  0  0  0  0  0
    1.8390   17.3280  -31.0760 C   0  0  0  0  0  0  0  0  0  0  0  0
    2.5080   16.8530  -32.2060 O   0  0  0  0  0  0  0  0  0  0  0  0
   -2.8060   21.5070  -33.1040 C   0  0  0  0  0  0  0  0  0  0  0  0
   -4.2600   21.8740  -33.4690 C   0  0  0  0  0  0  0  0  0  0  0  0
   -5.2660   20.9650  -32.8710 N   0  0  0  0  0  0  0  0  0  0  0  0
   -5.3360   21.0520  -31.3950 C   0  0  0  0  0  0  0  0  0  0  0  0
   -5.6410   22.4610  -30.9580 C   0  0  0  0  0  0  0  0  0  0  0  0
   -6.9250   22.8110  -30.5070 C   0  0  0  0  0  0  0  0  0  0  0  0
   -7.1820   24.1080  -30.0620 C   0  0  0  0  0  0  0  0  0  0  0  0
   -6.1610   25.0630  -30.0550 C   0  0  0  0  0  0  0  0  0  0  0  0
   -4.8790   24.7220  -30.4950 C   0  0  0  0  0  0  0  0  0  0  0  0
   -3.8620   25.6670  -30.4730 O   0  0  0  0  0  0  0  0  0  0  0  0
   -4.6210   23.4270  -30.9510 C   0  0  0  0  0  0  0  0  0  0  0  0
   -5.0720   19.5750  -33.3380 C   0  0  0  0  0  0  0  0  0  0  0  0
   -0.7287   15.2996  -31.5218 H   0  0  0  0  0  0  0  0  0  0  0  0
   -1.9860   14.4339  -32.4687 H   0  0  0  0  0  0  0  0  0  0  0  0
   -0.2918   13.8370  -32.4687 H   0  0  0  0  0  0  0  0  0  0  0  0
    0.2851   15.2316  -34.1546 H   0  0  0  0  0  0  0  0  0  0  0  0
   -1.4773   15.5782  -34.3432 H   0  0  0  0  0  0  0  0  0  0  0  0
    0.5900   17.3050  -33.1120 H   0  0  0  0  0  0  0  0  0  0  0  0
   -0.0170   19.9689  -29.9256 H   0  0  0  0  0  0  0  0  0  0  0  0
    0.3504   18.3539  -26.6240 H   0  0  0  0  0  0  0  0  0  0  0  0
   -0.1975   19.8148  -27.5139 H   0  0  0  0  0  0  0  0  0  0  0  0
   -1.2098   18.3309  -27.5139 H   0  0  0  0  0  0  0  0  0  0  0  0
    2.4274   15.6159  -29.8909 H   0  0  0  0  0  0  0  0  0  0  0  0
    2.5520   17.3750  -33.0710 H   0  0  0  0  0  0  0  0  0  0  0  0
   -2.5932   21.8683  -32.0870 H   0  0  0  0  0  0  0  0  0  0  0  0
   -2.1410   21.9798  -33.8418 H   0  0  0  0  0  0  0  0  0  0  0  0
   -4.4605   22.8962  -33.1156 H   0  0  0  0  0  0  0  0  0  0  0  0
   -4.3520   21.7853  -34.5615 H   0  0  0  0  0  0  0  0  0  0  0  0
   -6.1285   20.3816  -31.0311 H   0  0  0  0  0  0  0  0  0  0  0  0
   -4.3628   20.7551  -30.9769 H   0  0  0  0  0  0  0  0  0  0  0  0
   -7.7293   22.0606  -30.5048 H   0  0  0  0  0  0  0  0  0  0  0  0
   -8.1901   24.3798  -29.7159 H   0  0  0  0  0  0  0  0  0  0  0  0
   -6.3670   26.0845  -29.7026 H   0  0  0  0  0  0  0  0  0  0  0  0
   -3.6142   23.1624  -31.3063 H   0  0  0  0  0  0  0  0  0  0  0  0
   -5.7073   18.9054  -32.7397 H   0  0  0  0  0  0  0  0  0  0  0  0
   -5.3453   19.5282  -34.4025 H   0  0  0  0  0  0  0  0  0  0  0  0
  1  2  1  0
  2  3  1  0
  3  4  1  0
  4  5  1  0
  5  6  1  0
  6  7  2  0
  7  8  1  0
  8  9  1  0
  9 10  2  0
  9 11  1  0
 11 12  1  0
 12 13  2  0
 13 14  1  0
 14 15  1  0
 14 16  2  0
 16 17  1  0
 16 18  1  0
 18 19  2  0
 19 20  1  0
  7 21  1  0
 21 22  1  0
 22 23  1  0
 23 24  1  0
 24 25  1  0
 25 26  2  0
 26 27  1  0
 27 28  2  0
 28 29  1  0
 29 30  1  0
 29 31  2  0
 23 32  1  0
  8  4  2  0
 19 12  1  0
 31 25  1  0
 32  6  1  0
  1 33  1  0
  1 34  1  0
  1 35  1  0
  2 36  1  0
  2 37  1  0
  3 38  1  0
 13 39  1  0
 15 40  1  0
 15 41  1  0
 15 42  1  0
 18 43  1  0
 20 44  1  0
 21 45  1  0
 21 46  1  0
 22 47  1  0
 22 48  1  0
 24 49  1  0
 24 50  1  0
 26 51  1  0
 27 52  1  0
 28 53  1  0
 31 54  1  0
 32 55  1  0
 32 56  1  0
M  CHG  2  11  -1  30  -1
M  END
>  <UniqueID>  (13) 
13

>  <SMILES>  (13) 
CCNc1sc2c(c1C(=O)[N-]c1cc(C)c(Cl)cc1O)CCN(Cc1cccc([O-])c1)C2

>  <Energy>  (13) 
97.84030216947637

>  <Genealogy>  (13) 
CCNc1sc2c(c1C(=O)[N-]c1cc(C)c(Cl)cc1O)CCN(Cc1cccc([O-])c1)C2 (protonated)
CCNc1sc2c(c1C(=O)[N-]c1cc(C)c(Cl)cc1O)CCN(Cc1cccc([O-])c1)C2 (3D coordinates assigned)
CCNc1sc2c(c1C(=O)[N-]c1cc(C)c(Cl)cc1O)CCN(Cc1cccc([O-])c1)C2 (nonaromatic ring conformer: 97.84030216947637 kcal/mol)

>  <smiles>  (13) 
CCNc1sc2c(c1C(=O)Nc1cc(C)c(Cl)cc1O)CCN(Cc1cccc(O)c1)C2

>  <score_type>  (13) 
oracle

>  <origin>  (13) 
adgpu

>  <m_score__min__energy>  (13) 
-12.68

>  <m_primary>  (13) 
energy

$$$$
13:0
     RDKit          3D

 54 57  0  0  0  0  0  0  0  0999 V2000
   -0.0870   18.0800  -32.4600 O   0  0  0  0  0  0  0  0  0  0  0  0
    0.4070   19.2310  -32.3240 C   0  0  0  0  0  0  0  0  0  0  0  0
    0.3300   19.8610  -31.0360 N   0  0  0  0  0  0  0  0  0  0  0  0
   -0.4860   20.9900  -30.6920 C   0  0  0  0  0  0  0  0  0  0  0  0
   -0.1890   21.7070  -29.5290 C   0  0  0  0  0  0  0  0  0  0  0  0
   -0.9480   22.8240  -29.1750 C   0  0  0  0  0  0  0  0  0  0  0  0
   -2.0070   23.2560  -29.9880 C   0  0  0  0  0  0  0  0  0  0  0  0
   -2.7320   24.4890  -29.6100 C   0  0  0  0  0  0  0  0  0  0  0  0
   -2.3380   25.1510  -28.6140 O   0  0  0  0  0  0  0  0  0  0  0  0
   -3.8790   24.9530  -30.3370 N   0  0  0  0  0  0  0  0  0  0  0  0
   -5.0830   24.2120  -30.5830 C   0  0  0  0  0  0  0  0  0  0  0  0
   -5.8250   24.4900  -31.7360 C   0  0  0  0  0  0  0  0  0  0  0  0
   -7.0060   23.7900  -32.0030 C   0  0  0  0  0  0  0  0  0  0  0  0
   -7.4480   22.7930  -31.1240 C   0  0  0  0  0  0  0  0  0  0  0  0
   -8.9270   21.9020  -31.4660 S   0  0  0  0  0  0  0  0  0  0  0  0
   -9.8580   22.7630  -32.2760 O   0  0  0  0  0  0  0  0  0  0  0  0
   -9.6060   21.5550  -30.1690 O   0  0  0  0  0  0  0  0  0  0  0  0
   -8.5380   20.4360  -32.3290 N   0  0  0  0  0  0  0  0  0  0  0  0
   -8.7310   19.2530  -31.4880 C   0  0  0  0  0  0  0  0  0  0  0  0
   -7.7540   18.1970  -31.9840 C   0  0  0  0  0  0  0  0  0  0  0  0
   -6.7430   18.9470  -32.8370 C   0  0  0  0  0  0  0  0  0  0  0  0
   -7.1300   20.4110  -32.7180 C   0  0  0  0  0  0  0  0  0  0  0  0
   -6.6860   22.4860  -29.9890 C   0  0  0  0  0  0  0  0  0  0  0  0
   -5.5080   23.1870  -29.7200 C   0  0  0  0  0  0  0  0  0  0  0  0
   -2.3250   22.5200  -31.1540 C   0  0  0  0  0  0  0  0  0  0  0  0
   -3.4170   22.8430  -31.9630 O   0  0  0  0  0  0  0  0  0  0  0  0
   -1.5440   21.4150  -31.5120 C   0  0  0  0  0  0  0  0  0  0  0  0
    1.0030   19.9110  -33.4980 C   0  0  0  0  0  0  0  0  0  0  0  0
    2.0590   19.3210  -34.2160 C   0  0  0  0  0  0  0  0  0  0  0  0
    2.6120   19.9720  -35.3220 C   0  0  0  0  0  0  0  0  0  0  0  0
    2.1260   21.2220  -35.7170 C   0  0  0  0  0  0  0  0  0  0  0  0
    2.6800   21.8620  -36.8190 O   0  0  0  0  0  0  0  0  0  0  0  0
    1.0870   21.8250  -35.0000 C   0  0  0  0  0  0  0  0  0  0  0  0
    0.6040   23.0700  -35.3870 O   0  0  0  0  0  0  0  0  0  0  0  0
    0.5320   21.1760  -33.8920 C   0  0  0  0  0  0  0  0  0  0  0  0
    0.6475   21.3892  -28.8893 H   0  0  0  0  0  0  0  0  0  0  0  0
   -0.7136   23.3708  -28.2498 H   0  0  0  0  0  0  0  0  0  0  0  0
   -5.4775   25.2636  -32.4366 H   0  0  0  0  0  0  0  0  0  0  0  0
   -7.5895   24.0231  -32.9059 H   0  0  0  0  0  0  0  0  0  0  0  0
   -8.5221   19.4979  -30.4362 H   0  0  0  0  0  0  0  0  0  0  0  0
   -9.7679   18.8908  -31.5482 H   0  0  0  0  0  0  0  0  0  0  0  0
   -7.2533   17.7078  -31.1355 H   0  0  0  0  0  0  0  0  0  0  0  0
   -8.2629   17.4065  -32.5551 H   0  0  0  0  0  0  0  0  0  0  0  0
   -5.7231   18.7855  -32.4579 H   0  0  0  0  0  0  0  0  0  0  0  0
   -6.7510   18.6032  -33.8819 H   0  0  0  0  0  0  0  0  0  0  0  0
   -6.5150   20.9059  -31.9519 H   0  0  0  0  0  0  0  0  0  0  0  0
   -6.9692   20.9440  -33.6667 H   0  0  0  0  0  0  0  0  0  0  0  0
   -7.0169   21.6893  -29.3066 H   0  0  0  0  0  0  0  0  0  0  0  0
   -4.9114   22.9362  -28.8305 H   0  0  0  0  0  0  0  0  0  0  0  0
   -3.7430   23.7910  -32.0970 H   0  0  0  0  0  0  0  0  0  0  0  0
   -1.7611   20.8741  -32.4449 H   0  0  0  0  0  0  0  0  0  0  0  0
    2.4517   18.3416  -33.9051 H   0  0  0  0  0  0  0  0  0  0  0  0
    3.4318   19.4998  -35.8832 H   0  0  0  0  0  0  0  0  0  0  0  0
   -0.2781   21.6583  -33.3253 H   0  0  0  0  0  0  0  0  0  0  0  0
  1  2  2  0
  2  3  1  0
  3  4  1  0
  4  5  2  0
  5  6  1  0
  6  7  2  0
  7  8  1  0
  8  9  2  0
  8 10  1  0
 10 11  1  0
 11 12  2  0
 12 13  1  0
 13 14  2  0
 14 15  1  0
 15 16  2  0
 15 17  2  0
 15 18  1  0
 18 19  1  0
 19 20  1  0
 20 21  1  0
 21 22  1  0
 14 23  1  0
 23 24  2  0
  7 25  1  0
 25 26  1  0
 25 27  2  0
  2 28  1  0
 28 29  2  0
 29 30  1  0
 30 31  2  0
 31 32  1  0
 31 33  1  0
 33 34  1  0
 33 35  2  0
 27  4  1  0
 35 28  1  0
 24 11  1  0
 22 18  1  0
  5 36  1  0
  6 37  1  0
 12 38  1  0
 13 39  1  0
 19 40  1  0
 19 41  1  0
 20 42  1  0
 20 43  1  0
 21 44  1  0
 21 45  1  0
 22 46  1  0
 22 47  1  0
 23 48  1  0
 24 49  1  0
 26 50  1  0
 27 51  1  0
 29 52  1  0
 30 53  1  0
 35 54  1  0
M  CHG  4   3  -1  10  -1  32  -1  34  -1
M  END
>  <UniqueID>  (14) 
14

>  <SMILES>  (14) 
O=C([N-]c1ccc(C(=O)[N-]c2ccc(S(=O)(=O)N3CCCC3)cc2)c(O)c1)c1ccc([O-])c([O-])c1

>  <Energy>  (14) 
74.9407759039254

>  <Genealogy>  (14) 
O=C([N-]c1ccc(C(=O)[N-]c2ccc(S(=O)(=O)N3CCCC3)cc2)c(O)c1)c1ccc([O-])c([O-])c1 (protonated)
O=C([N-]c1ccc(C(=O)[N-]c2ccc(S(=O)(=O)N3CCCC3)cc2)c(O)c1)c1ccc([O-])c([O-])c1 (3D coordinates assigned)
O=C([N-]c1ccc(C(=O)[N-]c2ccc(S(=O)(=O)N3CCCC3)cc2)c(O)c1)c1ccc([O-])c([O-])c1 (nonaromatic ring conformer: 74.9407759039254 kcal/mol)

>  <smiles>  (14) 
O=C(Nc1ccc(C(=O)Nc2ccc(S(=O)(=O)N3CCCC3)cc2)c(O)c1)c1ccc(O)c(O)c1

>  <score_type>  (14) 
oracle

>  <origin>  (14) 
adgpu

>  <m_score__min__energy>  (14) 
-15.75

>  <m_primary>  (14) 
energy

$$$$
14:0
     RDKit          3D

 49 52  0  0  0  0  0  0  0  0999 V2000
   -9.1730   20.1450  -32.1390 C   0  0  0  0  0  0  0  0  0  0  0  0
   -7.7020   20.0250  -32.4380 C   0  0  0  0  0  0  0  0  0  0  0  0
   -7.2320   18.8670  -33.0790 C   0  0  0  0  0  0  0  0  0  0  0  0
   -5.8760   18.7140  -33.3700 C   0  0  0  0  0  0  0  0  0  0  0  0
   -4.9670   19.7220  -33.0350 C   0  0  0  0  0  0  0  0  0  0  0  0
   -3.2440   19.5210  -33.3460 S   0  0  0  0  0  0  0  0  0  0  0  0
   -2.6040   18.7690  -32.2130 O   0  0  0  0  0  0  0  0  0  0  0  0
   -3.0840   18.7080  -34.6010 O   0  0  0  0  0  0  0  0  0  0  0  0
   -2.4700   21.0790  -33.5630 N   0  0  0  0  0  0  0  0  0  0  0  0
   -1.1400   20.9380  -34.2240 C   0  0  0  0  0  0  0  0  0  0  0  0
    0.0510   21.3570  -33.3420 C   0  0  0  0  0  0  0  0  0  0  0  0
   -0.1120   20.8260  -31.9190 C   0  0  0  0  0  0  0  0  0  0  0  0
   -1.4320   21.2910  -31.2790 C   0  0  0  0  0  0  0  0  0  0  0  0
   -2.4360   21.8540  -32.3020 C   0  0  0  0  0  0  0  0  0  0  0  0
   -5.4250   20.8860  -32.4090 C   0  0  0  0  0  0  0  0  0  0  0  0
   -6.7860   21.0560  -32.1110 C   0  0  0  0  0  0  0  0  0  0  0  0
   -7.2930   22.5370  -31.2810 S   0  0  0  0  0  0  0  0  0  0  0  0
   -8.1920   22.1780  -30.1310 O   0  0  0  0  0  0  0  0  0  0  0  0
   -8.0590   23.4290  -32.2180 O   0  0  0  0  0  0  0  0  0  0  0  0
   -5.8730   23.4070  -30.7120 C   0  0  0  0  0  0  0  0  0  0  0  0
   -5.7950   24.8120  -30.8870 C   0  0  0  0  0  0  0  0  0  0  0  0
   -4.6640   25.5250  -30.4470 C   0  0  0  0  0  0  0  0  0  0  0  0
   -3.6410   24.8040  -29.8390 C   0  0  0  0  0  0  0  0  0  0  0  0
   -2.4840   25.2760  -29.3490 N   0  0  0  0  0  0  0  0  0  0  0  0
   -1.8920   24.1450  -28.8860 C   0  0  0  0  0  0  0  0  0  0  0  0
   -0.7600   24.1550  -28.3360 O   0  0  0  0  0  0  0  0  0  0  0  0
   -2.6060   23.0040  -29.0570 N   0  0  0  0  0  0  0  0  0  0  0  0
   -3.7130   23.4550  -29.6650 C   0  0  0  0  0  0  0  0  0  0  0  0
   -4.8140   22.7130  -30.0870 C   0  0  0  0  0  0  0  0  0  0  0  0
   -9.3259   20.1575  -31.0498 H   0  0  0  0  0  0  0  0  0  0  0  0
   -9.5608   21.0778  -32.5744 H   0  0  0  0  0  0  0  0  0  0  0  0
   -9.7068   19.2874  -32.5744 H   0  0  0  0  0  0  0  0  0  0  0  0
   -7.9406   18.0721  -33.3546 H   0  0  0  0  0  0  0  0  0  0  0  0
   -5.5212   17.7977  -33.8644 H   0  0  0  0  0  0  0  0  0  0  0  0
   -3.0920   21.6080  -34.2180 H   0  0  0  0  0  0  0  0  0  0  0  0
   -1.0055   19.8836  -34.5070 H   0  0  0  0  0  0  0  0  0  0  0  0
   -1.1447   21.6148  -35.0911 H   0  0  0  0  0  0  0  0  0  0  0  0
    0.9786   20.9527  -33.7734 H   0  0  0  0  0  0  0  0  0  0  0  0
    0.0919   22.4556  -33.3049 H   0  0  0  0  0  0  0  0  0  0  0  0
   -0.0983   19.7264  -31.9463 H   0  0  0  0  0  0  0  0  0  0  0  0
    0.7172   21.2187  -31.3122 H   0  0  0  0  0  0  0  0  0  0  0  0
   -1.8953   20.4329  -30.7701 H   0  0  0  0  0  0  0  0  0  0  0  0
   -1.1878   22.1035  -30.5789 H   0  0  0  0  0  0  0  0  0  0  0  0
   -3.4402   21.8383  -31.8533 H   0  0  0  0  0  0  0  0  0  0  0  0
   -2.1148   22.8760  -32.5514 H   0  0  0  0  0  0  0  0  0  0  0  0
   -4.7089   21.6788  -32.1467 H   0  0  0  0  0  0  0  0  0  0  0  0
   -6.6247   25.3488  -31.3703 H   0  0  0  0  0  0  0  0  0  0  0  0
   -4.5914   26.6146  -30.5792 H   0  0  0  0  0  0  0  0  0  0  0  0
   -4.8569   21.6239  -29.9384 H   0  0  0  0  0  0  0  0  0  0  0  0
  1  2  1  0
  2  3  2  0
  3  4  1  0
  4  5  2  0
  5  6  1  0
  6  7  2  0
  6  8  2  0
  6  9  1  0
  9 10  1  0
 10 11  1  0
 11 12  1  0
 12 13  1  0
 13 14  1  0
  5 15  1  0
 15 16  2  0
 16 17  1  0
 17 18  2  0
 17 19  2  0
 17 20  1  0
 20 21  2  0
 21 22  1  0
 22 23  2  0
 23 24  1  0
 24 25  1  0
 25 26  2  0
 25 27  1  0
 27 28  1  0
 28 29  2  0
 16  2  1  0
 29 20  1  0
 14  9  1  0
 28 23  1  0
  1 30  1  0
  1 31  1  0
  1 32  1  0
  3 33  1  0
  4 34  1  0
  9 35  1  0
 10 36  1  0
 10 37  1  0
 11 38  1  0
 11 39  1  0
 12 40  1  0
 12 41  1  0
 13 42  1  0
 13 43  1  0
 14 44  1  0
 14 45  1  0
 15 46  1  0
 21 47  1  0
 22 48  1  0
 29 49  1  0
M  CHG  3   9   1  24  -1  27  -1
M  END
>  <UniqueID>  (15) 
15

>  <SMILES>  (15) 
Cc1ccc(S(=O)(=O)[NH+]2CCCCC2)cc1S(=O)(=O)c1ccc2[n-]c(=O)[n-]c2c1

>  <Energy>  (15) 
96.81408931088482

>  <Genealogy>  (15) 
Cc1ccc(S(=O)(=O)[NH+]2CCCCC2)cc1S(=O)(=O)c1ccc2[n-]c(=O)[n-]c2c1 (protonated)
Cc1ccc(S(=O)(=O)[NH+]2CCCCC2)cc1S(=O)(=O)c1ccc2[n-]c(=O)[n-]c2c1 (3D coordinates assigned)
Cc1ccc(S(=O)(=O)[NH+]2CCCCC2)cc1S(=O)(=O)c1ccc2[n-]c(=O)[n-]c2c1 (nonaromatic ring conformer: 96.81408931088482 kcal/mol)

>  <smiles>  (15) 
Cc1ccc(S(=O)(=O)N2CCCCC2)cc1S(=O)(=O)c1ccc2[nH]c(=O)[nH]c2c1

>  <score_type>  (15) 
oracle

>  <origin>  (15) 
adgpu

>  <m_score__min__energy>  (15) 
-12.31

>  <m_primary>  (15) 
energy

$$$$
15:0
     RDKit          3D

 53 56  0  0  0  0  0  0  0  0999 V2000
   -5.8320   25.3130  -28.9640 O   0  0  0  0  0  0  0  0  0  0  0  0
   -5.3730   25.1570  -30.3870 S   0  0  0  0  0  0  0  0  0  0  0  0
   -5.7440   26.4050  -31.1410 O   0  0  0  0  0  0  0  0  0  0  0  0
   -3.6440   24.9850  -30.4840 N   0  0  0  0  0  0  0  0  0  0  0  0
   -2.8250   24.2310  -29.5810 C   0  0  0  0  0  0  0  0  0  0  0  0
   -3.1640   22.8940  -29.3360 C   0  0  0  0  0  0  0  0  0  0  0  0
   -2.3900   22.1000  -28.4780 C   0  0  0  0  0  0  0  0  0  0  0  0
   -1.2240   22.6410  -27.8970 C   0  0  0  0  0  0  0  0  0  0  0  0
   -0.8770   23.9740  -28.1540 C   0  0  0  0  0  0  0  0  0  0  0  0
   -1.6550   24.7610  -29.0080 C   0  0  0  0  0  0  0  0  0  0  0  0
   -1.2290   26.0490  -29.3030 O   0  0  0  0  0  0  0  0  0  0  0  0
   -0.3920   21.8230  -26.9390 C   0  0  0  0  0  0  0  0  0  0  0  0
   -0.6040   20.3820  -27.1330 N   0  0  0  0  0  0  0  0  0  0  0  0
   -2.0340   20.0630  -27.0500 C   0  0  0  0  0  0  0  0  0  0  0  0
   -2.7610   20.6520  -28.2610 C   0  0  0  0  0  0  0  0  0  0  0  0
   -6.1860   23.7740  -31.1280 C   0  0  0  0  0  0  0  0  0  0  0  0
   -7.5800   23.7540  -31.2470 C   0  0  0  0  0  0  0  0  0  0  0  0
   -8.2250   22.6450  -31.8010 C   0  0  0  0  0  0  0  0  0  0  0  0
   -7.4830   21.5460  -32.2450 C   0  0  0  0  0  0  0  0  0  0  0  0
   -8.1520   20.4550  -32.7840 O   0  0  0  0  0  0  0  0  0  0  0  0
   -6.0780   21.5550  -32.1350 C   0  0  0  0  0  0  0  0  0  0  0  0
   -5.0970   20.1950  -32.7050 S   0  0  0  0  0  0  0  0  0  0  0  0
   -4.2090   19.7050  -31.5930 O   0  0  0  0  0  0  0  0  0  0  0  0
   -4.2110   20.6660  -33.8260 O   0  0  0  0  0  0  0  0  0  0  0  0
   -6.0920   18.8780  -33.2900 N   0  0  0  0  0  0  0  0  0  0  0  0
   -6.5700   18.0220  -32.1750 C   0  0  0  0  0  0  0  0  0  0  0  0
   -5.7670   16.7190  -32.0470 C   0  0  0  0  0  0  0  0  0  0  0  0
   -5.8660   15.8840  -33.3370 C   0  0  0  0  0  0  0  0  0  0  0  0
   -6.0170   16.7570  -34.5950 C   0  0  0  0  0  0  0  0  0  0  0  0
   -5.4070   18.1480  -34.3800 C   0  0  0  0  0  0  0  0  0  0  0  0
   -5.4440   22.6650  -31.5560 C   0  0  0  0  0  0  0  0  0  0  0  0
   -4.0499   22.4611  -29.8236 H   0  0  0  0  0  0  0  0  0  0  0  0
    0.0165   24.4054  -27.6790 H   0  0  0  0  0  0  0  0  0  0  0  0
    0.6711   22.0528  -27.1035 H   0  0  0  0  0  0  0  0  0  0  0  0
   -0.6954   22.0804  -25.9135 H   0  0  0  0  0  0  0  0  0  0  0  0
   -0.1210   19.8850  -26.3480 H   0  0  0  0  0  0  0  0  0  0  0  0
   -2.1657   18.9710  -27.0391 H   0  0  0  0  0  0  0  0  0  0  0  0
   -2.4519   20.4928  -26.1277 H   0  0  0  0  0  0  0  0  0  0  0  0
   -2.4887   20.0749  -29.1570 H   0  0  0  0  0  0  0  0  0  0  0  0
   -3.8437   20.5970  -28.0744 H   0  0  0  0  0  0  0  0  0  0  0  0
   -8.1711   24.6155  -30.9028 H   0  0  0  0  0  0  0  0  0  0  0  0
   -9.3215   22.6365  -31.8882 H   0  0  0  0  0  0  0  0  0  0  0  0
   -6.4803   18.5853  -31.2345 H   0  0  0  0  0  0  0  0  0  0  0  0
   -7.6149   17.7509  -32.3864 H   0  0  0  0  0  0  0  0  0  0  0  0
   -4.7116   16.9635  -31.8563 H   0  0  0  0  0  0  0  0  0  0  0  0
   -6.1814   16.1309  -31.2149 H   0  0  0  0  0  0  0  0  0  0  0  0
   -4.9532   15.2781  -33.4358 H   0  0  0  0  0  0  0  0  0  0  0  0
   -6.7640   15.2535  -33.2585 H   0  0  0  0  0  0  0  0  0  0  0  0
   -5.5049   16.2665  -35.4360 H   0  0  0  0  0  0  0  0  0  0  0  0
   -7.0891   16.8758  -34.8105 H   0  0  0  0  0  0  0  0  0  0  0  0
   -4.3436   18.0360  -34.1220 H   0  0  0  0  0  0  0  0  0  0  0  0
   -5.5258   18.7244  -35.3093 H   0  0  0  0  0  0  0  0  0  0  0  0
   -4.3505   22.6645  -31.4366 H   0  0  0  0  0  0  0  0  0  0  0  0
  1  2  2  0
  2  3  2  0
  2  4  1  0
  4  5  1  0
  5  6  2  0
  6  7  1  0
  7  8  2  0
  8  9  1  0
  9 10  2  0
 10 11  1  0
  8 12  1  0
 12 13  1  0
 13 14  1  0
 14 15  1  0
  2 16  1  0
 16 17  2  0
 17 18  1  0
 18 19  2  0
 19 20  1  0
 19 21  1  0
 21 22  1  0
 22 23  2  0
 22 24  2  0
 22 25  1  0
 25 26  1  0
 26 27  1  0
 27 28  1  0
 28 29  1  0
 29 30  1  0
 21 31  2  0
 10  5  1  0
 31 16  1  0
 15  7  1  0
 30 25  1  0
  6 32  1  0
  9 33  1  0
 12 34  1  0
 12 35  1  0
 13 36  1  0
 14 37  1  0
 14 38  1  0
 15 39  1  0
 15 40  1  0
 17 41  1  0
 18 42  1  0
 26 43  1  0
 26 44  1  0
 27 45  1  0
 27 46  1  0
 28 47  1  0
 28 48  1  0
 29 49  1  0
 29 50  1  0
 30 51  1  0
 30 52  1  0
 31 53  1  0
M  CHG  3   4  -1  11  -1  20  -1
M  END
>  <UniqueID>  (16) 
16

>  <SMILES>  (16) 
O=S(=O)([N-]c1cc2c(cc1[O-])CNCC2)c1ccc([O-])c(S(=O)(=O)N2CCCCC2)c1

>  <Energy>  (16) 
68.59125058375054

>  <Genealogy>  (16) 
O=S(=O)([N-]c1cc2c(cc1[O-])CNCC2)c1ccc([O-])c(S(=O)(=O)N2CCCCC2)c1 (protonated)
O=S(=O)([N-]c1cc2c(cc1[O-])CNCC2)c1ccc([O-])c(S(=O)(=O)N2CCCCC2)c1 (3D coordinates assigned)
O=S(=O)([N-]c1cc2c(cc1[O-])CNCC2)c1ccc([O-])c(S(=O)(=O)N2CCCCC2)c1 (nonaromatic ring conformer: 68.59125058375054 kcal/mol)

>  <smiles>  (16) 
O=S(=O)(Nc1cc2c(cc1O)CNCC2)c1ccc(O)c(S(=O)(=O)N2CCCCC2)c1

>  <score_type>  (16) 
oracle

>  <origin>  (16) 
adgpu

>  <m_score__min__energy>  (16) 
-14.83

>  <m_primary>  (16) 
energy

$$$$
16:0
     RDKit          3D

 59 61  0  0  0  0  0  0  0  0999 V2000
   -8.6930   18.5430  -31.7600 C   0  0  0  0  0  0  0  0  0  0  0  0
   -7.4470   19.2720  -32.1880 C   0  0  0  0  0  0  0  0  0  0  0  0
   -6.2890   18.5340  -32.4960 C   0  0  0  0  0  0  0  0  0  0  0  0
   -5.1210   19.1810  -32.8980 C   0  0  0  0  0  0  0  0  0  0  0  0
   -5.0900   20.5750  -33.0150 C   0  0  0  0  0  0  0  0  0  0  0  0
   -3.5570   21.3920  -33.4860 S   0  0  0  0  0  0  0  0  0  0  0  0
   -2.6680   20.9430  -31.9790 C   0  0  0  0  0  0  0  0  0  0  0  0
   -1.7020   19.9290  -32.0600 C   0  0  0  0  0  0  0  0  0  0  0  0
   -1.0260   19.4950  -30.9190 C   0  0  0  0  0  0  0  0  0  0  0  0
   -1.3360   20.0390  -29.6690 C   0  0  0  0  0  0  0  0  0  0  0  0
   -0.4860   19.4800  -28.2290 S   0  0  0  0  0  0  0  0  0  0  0  0
   -1.6390   19.3360  -26.8820 C   0  0  0  0  0  0  0  0  0  0  0  0
    0.1460   18.1420  -28.4960 O   0  0  0  0  0  0  0  0  0  0  0  0
    0.5960   20.4600  -27.8660 O   0  0  0  0  0  0  0  0  0  0  0  0
   -2.3180   21.0310  -29.5700 C   0  0  0  0  0  0  0  0  0  0  0  0
   -2.9960   21.4930  -30.7140 C   0  0  0  0  0  0  0  0  0  0  0  0
   -4.0660   22.4960  -30.5260 C   0  0  0  0  0  0  0  0  0  0  0  0
   -5.1780   22.1330  -30.0550 O   0  0  0  0  0  0  0  0  0  0  0  0
   -3.8270   23.8820  -30.8130 N   0  0  0  0  0  0  0  0  0  0  0  0
   -3.8610   24.9340  -29.8030 C   0  0  0  0  0  0  0  0  0  0  0  0
   -2.5900   24.9220  -29.0090 C   0  0  0  0  0  0  0  0  0  0  0  0
   -2.3140   24.0980  -27.9400 C   0  0  0  0  0  0  0  0  0  0  0  0
   -0.9860   24.3570  -27.6510 C   0  0  0  0  0  0  0  0  0  0  0  0
   -0.1620   23.6840  -26.5660 C   0  0  0  0  0  0  0  0  0  0  0  0
    1.2370   23.3080  -27.0980 C   0  0  0  0  0  0  0  0  0  0  0  0
   -0.8750   22.3980  -26.0990 C   0  0  0  0  0  0  0  0  0  0  0  0
   -0.0060   24.6490  -25.3770 C   0  0  0  0  0  0  0  0  0  0  0  0
   -0.5170   25.2900  -28.5080 N   0  0  0  0  0  0  0  0  0  0  0  0
   -1.4920   25.6270  -29.3390 N   0  0  0  0  0  0  0  0  0  0  0  0
   -6.2300   21.3230  -32.6910 C   0  0  0  0  0  0  0  0  0  0  0  0
   -7.4160   20.6860  -32.2850 C   0  0  0  0  0  0  0  0  0  0  0  0
   -8.6270   21.5200  -31.9520 C   0  0  0  0  0  0  0  0  0  0  0  0
   -8.7420   18.5143  -30.6615 H   0  0  0  0  0  0  0  0  0  0  0  0
   -9.5772   19.0662  -32.1529 H   0  0  0  0  0  0  0  0  0  0  0  0
   -8.6701   17.5158  -32.1529 H   0  0  0  0  0  0  0  0  0  0  0  0
   -6.3054   17.4368  -32.4189 H   0  0  0  0  0  0  0  0  0  0  0  0
   -4.2196   18.5926  -33.1243 H   0  0  0  0  0  0  0  0  0  0  0  0
   -1.4749   19.4709  -33.0339 H   0  0  0  0  0  0  0  0  0  0  0  0
   -0.2471   18.7228  -31.0033 H   0  0  0  0  0  0  0  0  0  0  0  0
   -1.0974   19.4036  -25.9270 H   0  0  0  0  0  0  0  0  0  0  0  0
   -2.3776   20.1489  -26.9431 H   0  0  0  0  0  0  0  0  0  0  0  0
   -2.1550   18.3664  -26.9431 H   0  0  0  0  0  0  0  0  0  0  0  0
   -2.5634   21.4554  -28.5853 H   0  0  0  0  0  0  0  0  0  0  0  0
   -3.9728   25.9103  -30.2973 H   0  0  0  0  0  0  0  0  0  0  0  0
   -4.7111   24.7591  -29.1272 H   0  0  0  0  0  0  0  0  0  0  0  0
   -2.9927   23.3962  -27.4332 H   0  0  0  0  0  0  0  0  0  0  0  0
    1.9147   23.1259  -26.2509 H   0  0  0  0  0  0  0  0  0  0  0  0
    1.1637   22.3977  -27.7112 H   0  0  0  0  0  0  0  0  0  0  0  0
    1.6299   24.1324  -27.7112 H   0  0  0  0  0  0  0  0  0  0  0  0
   -0.8922   22.3669  -24.9996 H   0  0  0  0  0  0  0  0  0  0  0  0
   -1.9061   22.3906  -26.4822 H   0  0  0  0  0  0  0  0  0  0  0  0
   -0.3351   21.5196  -26.4822 H   0  0  0  0  0  0  0  0  0  0  0  0
   -0.0967   24.0880  -24.4351 H   0  0  0  0  0  0  0  0  0  0  0  0
    0.9817   25.1310  -25.4231 H   0  0  0  0  0  0  0  0  0  0  0  0
   -0.7916   25.4176  -25.4231 H   0  0  0  0  0  0  0  0  0  0  0  0
   -6.1966   22.4206  -32.7550 H   0  0  0  0  0  0  0  0  0  0  0  0
   -8.7329   21.5929  -30.8595 H   0  0  0  0  0  0  0  0  0  0  0  0
   -8.5064   22.5275  -32.3768 H   0  0  0  0  0  0  0  0  0  0  0  0
   -9.5253   21.0481  -32.3768 H   0  0  0  0  0  0  0  0  0  0  0  0
  1  2  1  0
  2  3  2  0
  3  4  1  0
  4  5  2  0
  5  6  1  0
  6  7  1  0
  7  8  2  0
  8  9  1  0
  9 10  2  0
 10 11  1  0
 11 12  1  0
 11 13  2  0
 11 14  2  0
 10 15  1  0
 15 16  2  0
 16 17  1  0
 17 18  2  0
 17 19  1  0
 19 20  1  0
 20 21  1  0
 21 22  2  0
 22 23  1  0
 23 24  1  0
 24 25  1  0
 24 26  1  0
 24 27  1  0
 23 28  2  0
 28 29  1  0
  5 30  1  0
 30 31  2  0
 31 32  1  0
 31  2  1  0
 16  7  1  0
 29 21  1  0
  1 33  1  0
  1 34  1  0
  1 35  1  0
  3 36  1  0
  4 37  1  0
  8 38  1  0
  9 39  1  0
 12 40  1  0
 12 41  1  0
 12 42  1  0
 15 43  1  0
 20 44  1  0
 20 45  1  0
 22 46  1  0
 25 47  1  0
 25 48  1  0
 25 49  1  0
 26 50  1  0
 26 51  1  0
 26 52  1  0
 27 53  1  0
 27 54  1  0
 27 55  1  0
 30 56  1  0
 32 57  1  0
 32 58  1  0
 32 59  1  0
M  CHG  2  19  -1  29  -1
M  END
>  <UniqueID>  (17) 
17

>  <SMILES>  (17) 
Cc1ccc(Sc2ccc(S(C)(=O)=O)cc2C(=O)[N-]Cc2cc(C(C)(C)C)n[n-]2)cc1C

>  <Energy>  (17) 
82.21777419638512

>  <Genealogy>  (17) 
Cc1ccc(Sc2ccc(S(C)(=O)=O)cc2C(=O)[N-]Cc2cc(C(C)(C)C)n[n-]2)cc1C (protonated)
Cc1ccc(Sc2ccc(S(C)(=O)=O)cc2C(=O)[N-]Cc2cc(C(C)(C)C)n[n-]2)cc1C (3D coordinates assigned)
Cc1ccc(Sc2ccc(S(C)(=O)=O)cc2C(=O)[N-]Cc2cc(C(C)(C)C)n[n-]2)cc1C (optimized conformer: 82.21777419638512 kcal/mol)

>  <smiles>  (17) 
Cc1ccc(Sc2ccc(S(C)(=O)=O)cc2C(=O)NCc2cc(C(C)(C)C)n[nH]2)cc1C

>  <score_type>  (17) 
oracle

>  <origin>  (17) 
adgpu

>  <m_score__min__energy>  (17) 
-12.470000000000001

>  <m_primary>  (17) 
energy

$$$$
17:0
     RDKit          3D

 56 59  0  0  0  0  0  0  0  0999 V2000
   -3.9730   21.3830  -33.4500 O   0  0  0  0  0  0  0  0  0  0  0  0
   -3.0760   21.7010  -32.6220 C   0  0  0  0  0  0  0  0  0  0  0  0
   -3.2650   22.8250  -31.7490 N   0  0  0  0  0  0  0  0  0  0  0  0
   -4.5530   23.3390  -31.3620 C   0  0  0  0  0  0  0  0  0  0  0  0
   -5.7290   22.6040  -31.6010 C   0  0  0  0  0  0  0  0  0  0  0  0
   -6.9700   23.0760  -31.1550 C   0  0  0  0  0  0  0  0  0  0  0  0
   -8.4340   22.1250  -31.4370 S   0  0  0  0  0  0  0  0  0  0  0  0
   -9.3840   22.9300  -32.2800 O   0  0  0  0  0  0  0  0  0  0  0  0
   -9.1020   21.8520  -30.1180 O   0  0  0  0  0  0  0  0  0  0  0  0
   -8.1110   20.6060  -32.2380 N   0  0  0  0  0  0  0  0  0  0  0  0
   -6.9730   19.9030  -31.6500 C   0  0  0  0  0  0  0  0  0  0  0  0
   -7.1740   18.4280  -31.9580 C   0  0  0  0  0  0  0  0  0  0  0  0
   -8.6570   18.2810  -32.2700 C   0  0  0  0  0  0  0  0  0  0  0  0
   -9.2370   19.6810  -32.1350 C   0  0  0  0  0  0  0  0  0  0  0  0
   -7.0430   24.3030  -30.4850 C   0  0  0  0  0  0  0  0  0  0  0  0
   -5.8810   25.0380  -30.2390 C   0  0  0  0  0  0  0  0  0  0  0  0
   -4.6390   24.5580  -30.6640 C   0  0  0  0  0  0  0  0  0  0  0  0
   -3.4940   25.3000  -30.3970 O   0  0  0  0  0  0  0  0  0  0  0  0
   -1.7900   20.9750  -32.6330 C   0  0  0  0  0  0  0  0  0  0  0  0
   -1.2760   20.5770  -33.8780 C   0  0  0  0  0  0  0  0  0  0  0  0
   -0.0340   19.9510  -33.9660 C   0  0  0  0  0  0  0  0  0  0  0  0
    0.7110   19.7170  -32.8140 C   0  0  0  0  0  0  0  0  0  0  0  0
    0.2060   20.0860  -31.5670 C   0  0  0  0  0  0  0  0  0  0  0  0
   -1.0570   20.6940  -31.4460 C   0  0  0  0  0  0  0  0  0  0  0  0
   -1.7190   21.0680  -29.8280 S   0  0  0  0  0  0  0  0  0  0  0  0
   -0.8280   20.4440  -28.7910 O   0  0  0  0  0  0  0  0  0  0  0  0
   -3.0880   20.4540  -29.7160 O   0  0  0  0  0  0  0  0  0  0  0  0
   -1.8370   22.7660  -29.4230 N   0  0  0  0  0  0  0  0  0  0  0  0
   -2.8040   23.0380  -28.3590 C   0  0  0  0  0  0  0  0  0  0  0  0
   -2.2940   24.2540  -27.6110 C   0  0  0  0  0  0  0  0  0  0  0  0
   -0.7920   24.2360  -27.8140 C   0  0  0  0  0  0  0  0  0  0  0  0
   -0.5550   23.3730  -29.0490 C   0  0  0  0  0  0  0  0  0  0  0  0
   -2.4070   23.3180  -31.4110 H   0  0  0  0  0  0  0  0  0  0  0  0
   -5.6730   21.6489  -32.1437 H   0  0  0  0  0  0  0  0  0  0  0  0
   -6.0332   20.2602  -32.0963 H   0  0  0  0  0  0  0  0  0  0  0  0
   -6.9122   20.0793  -30.5659 H   0  0  0  0  0  0  0  0  0  0  0  0
   -6.5664   18.1292  -32.8249 H   0  0  0  0  0  0  0  0  0  0  0  0
   -6.8663   17.7881  -31.1179 H   0  0  0  0  0  0  0  0  0  0  0  0
   -8.7997   17.9019  -33.2927 H   0  0  0  0  0  0  0  0  0  0  0  0
   -9.1492   17.5665  -31.5938 H   0  0  0  0  0  0  0  0  0  0  0  0
   -9.9611   19.8720  -32.9407 H   0  0  0  0  0  0  0  0  0  0  0  0
   -9.7666   19.8026  -31.1786 H   0  0  0  0  0  0  0  0  0  0  0  0
   -8.0175   24.6891  -30.1516 H   0  0  0  0  0  0  0  0  0  0  0  0
   -5.9437   25.9994  -29.7081 H   0  0  0  0  0  0  0  0  0  0  0  0
   -1.8593   20.7611  -34.7923 H   0  0  0  0  0  0  0  0  0  0  0  0
    0.3576   19.6417  -34.9463 H   0  0  0  0  0  0  0  0  0  0  0  0
    1.6997   19.2403  -32.8868 H   0  0  0  0  0  0  0  0  0  0  0  0
    0.8050   19.8985  -30.6637 H   0  0  0  0  0  0  0  0  0  0  0  0
   -3.7945   23.2454  -28.7902 H   0  0  0  0  0  0  0  0  0  0  0  0
   -2.9080   22.1735  -27.6868 H   0  0  0  0  0  0  0  0  0  0  0  0
   -2.7296   25.1746  -28.0266 H   0  0  0  0  0  0  0  0  0  0  0  0
   -2.5680   24.2297  -26.5459 H   0  0  0  0  0  0  0  0  0  0  0  0
   -0.4148   25.2559  -27.9802 H   0  0  0  0  0  0  0  0  0  0  0  0
   -0.2671   23.8383  -26.9329 H   0  0  0  0  0  0  0  0  0  0  0  0
   -0.1805   23.9958  -29.8748 H   0  0  0  0  0  0  0  0  0  0  0  0
    0.1921   22.5941  -28.8365 H   0  0  0  0  0  0  0  0  0  0  0  0
  1  2  2  0
  2  3  1  0
  3  4  1  0
  4  5  2  0
  5  6  1  0
  6  7  1  0
  7  8  2  0
  7  9  2  0
  7 10  1  0
 10 11  1  0
 11 12  1  0
 12 13  1  0
 13 14  1  0
  6 15  2  0
 15 16  1  0
 16 17  2  0
 17 18  1  0
  2 19  1  0
 19 20  2  0
 20 21  1  0
 21 22  2  0
 22 23  1  0
 23 24  2  0
 24 25  1  0
 25 26  2  0
 25 27  2  0
 25 28  1  0
 28 29  1  0
 29 30  1  0
 30 31  1  0
 31 32  1  0
 17  4  1  0
 24 19  1  0
 32 28  1  0
 14 10  1  0
  3 33  1  0
  5 34  1  0
 11 35  1  0
 11 36  1  0
 12 37  1  0
 12 38  1  0
 13 39  1  0
 13 40  1  0
 14 41  1  0
 14 42  1  0
 15 43  1  0
 16 44  1  0
 20 45  1  0
 21 46  1  0
 22 47  1  0
 23 48  1  0
 29 49  1  0
 29 50  1  0
 30 51  1  0
 30 52  1  0
 31 53  1  0
 31 54  1  0
 32 55  1  0
 32 56  1  0
M  CHG  1  18  -1
M  END
>  <UniqueID>  (18) 
18

>  <SMILES>  (18) 
O=C(Nc1cc(S(=O)(=O)N2CCCC2)ccc1[O-])c1ccccc1S(=O)(=O)N1CCCC1

>  <Energy>  (18) 
73.69162290398242

>  <Genealogy>  (18) 
O=C(Nc1cc(S(=O)(=O)N2CCCC2)ccc1[O-])c1ccccc1S(=O)(=O)N1CCCC1 (protonated)
O=C(Nc1cc(S(=O)(=O)N2CCCC2)ccc1[O-])c1ccccc1S(=O)(=O)N1CCCC1 (3D coordinates assigned)
O=C(Nc1cc(S(=O)(=O)N2CCCC2)ccc1[O-])c1ccccc1S(=O)(=O)N1CCCC1 (nonaromatic ring conformer: 73.69162290398242 kcal/mol)

>  <smiles>  (18) 
O=C(Nc1cc(S(=O)(=O)N2CCCC2)ccc1O)c1ccccc1S(=O)(=O)N1CCCC1

>  <score_type>  (18) 
oracle

>  <origin>  (18) 
adgpu

>  <m_score__min__energy>  (18) 
-13.619999999999999

>  <m_primary>  (18) 
energy

$$$$
18:0
     RDKit          3D

 62 66  0  0  0  0  0  0  0  0999 V2000
   -7.3930   22.2410  -31.4830 C   0  0  0  0  0  0  0  0  0  0  0  0
   -6.3910   22.6210  -32.4190 O   0  0  0  0  0  0  0  0  0  0  0  0
   -5.0750   22.1340  -32.4220 C   0  0  0  0  0  0  0  0  0  0  0  0
   -4.6770   21.0870  -33.2770 C   0  0  0  0  0  0  0  0  0  0  0  0
   -3.3620   20.6140  -33.2530 C   0  0  0  0  0  0  0  0  0  0  0  0
   -2.4220   21.1700  -32.3720 C   0  0  0  0  0  0  0  0  0  0  0  0
   -1.0300   20.6620  -32.3470 C   0  0  0  0  0  0  0  0  0  0  0  0
   -0.6230   19.8010  -31.3110 C   0  0  0  0  0  0  0  0  0  0  0  0
    0.6940   19.3150  -31.2600 C   0  0  0  0  0  0  0  0  0  0  0  0
    1.1170   18.3940  -30.1430 C   0  0  0  0  0  0  0  0  0  0  0  0
    1.6230   19.1530  -28.9870 N   0  0  0  0  0  0  0  0  0  0  0  0
    0.9100   18.8460  -27.7330 C   0  0  0  0  0  0  0  0  0  0  0  0
   -0.4500   19.5030  -27.6680 C   0  0  0  0  0  0  0  0  0  0  0  0
   -0.6520   20.7810  -28.2200 C   0  0  0  0  0  0  0  0  0  0  0  0
   -1.9100   21.3930  -28.1400 C   0  0  0  0  0  0  0  0  0  0  0  0
   -2.9730   20.7370  -27.5110 C   0  0  0  0  0  0  0  0  0  0  0  0
   -2.7790   19.4660  -26.9600 C   0  0  0  0  0  0  0  0  0  0  0  0
   -1.5240   18.8500  -27.0370 C   0  0  0  0  0  0  0  0  0  0  0  0
    1.6050   19.6840  -32.2630 C   0  0  0  0  0  0  0  0  0  0  0  0
    1.2100   20.5390  -33.2970 C   0  0  0  0  0  0  0  0  0  0  0  0
   -0.0980   21.0330  -33.3410 C   0  0  0  0  0  0  0  0  0  0  0  0
   -0.4560   21.9070  -34.3650 O   0  0  0  0  0  0  0  0  0  0  0  0
   -2.8100   22.2230  -31.5310 C   0  0  0  0  0  0  0  0  0  0  0  0
   -4.1290   22.7050  -31.5460 C   0  0  0  0  0  0  0  0  0  0  0  0
   -4.5560   24.0660  -30.5030 S   0  0  0  0  0  0  0  0  0  0  0  0
   -5.5330   24.9810  -31.1830 O   0  0  0  0  0  0  0  0  0  0  0  0
   -5.2150   23.5410  -29.2590 O   0  0  0  0  0  0  0  0  0  0  0  0
   -3.1130   24.9110  -30.0370 N   0  0  0  0  0  0  0  0  0  0  0  0
   -2.3470   24.6970  -28.8430 C   0  0  0  0  0  0  0  0  0  0  0  0
   -0.9380   24.5460  -28.8790 C   0  0  0  0  0  0  0  0  0  0  0  0
   -0.2680   24.3470  -27.6750 C   0  0  0  0  0  0  0  0  0  0  0  0
   -0.9310   24.3080  -26.4750 C   0  0  0  0  0  0  0  0  0  0  0  0
   -2.3130   24.4730  -26.3980 C   0  0  0  0  0  0  0  0  0  0  0  0
   -3.0260   24.6790  -27.5970 C   0  0  0  0  0  0  0  0  0  0  0  0
   -4.4100   24.8610  -27.5610 O   0  0  0  0  0  0  0  0  0  0  0  0
    0.0690   24.1090  -25.4350 C   0  0  0  0  0  0  0  0  0  0  0  0
   -0.1740   24.0110  -24.2040 O   0  0  0  0  0  0  0  0  0  0  0  0
    1.3860   24.0200  -25.9900 N   0  0  0  0  0  0  0  0  0  0  0  0
    1.1540   24.1780  -27.3910 C   0  0  0  0  0  0  0  0  0  0  0  0
    2.0750   24.1860  -28.2520 O   0  0  0  0  0  0  0  0  0  0  0  0
   -7.0133   22.3850  -30.4607 H   0  0  0  0  0  0  0  0  0  0  0  0
   -8.2886   22.8619  -31.6323 H   0  0  0  0  0  0  0  0  0  0  0  0
   -7.6517   21.1823  -31.6323 H   0  0  0  0  0  0  0  0  0  0  0  0
   -5.4062   20.6389  -33.9680 H   0  0  0  0  0  0  0  0  0  0  0  0
   -3.0619   19.8002  -33.9295 H   0  0  0  0  0  0  0  0  0  0  0  0
   -1.3431   19.5057  -30.5336 H   0  0  0  0  0  0  0  0  0  0  0  0
    0.2515   17.7935  -29.8264 H   0  0  0  0  0  0  0  0  0  0  0  0
    1.9250   17.7463  -30.5139 H   0  0  0  0  0  0  0  0  0  0  0  0
    1.5270   20.1760  -29.1930 H   0  0  0  0  0  0  0  0  0  0  0  0
    0.7799   17.7563  -27.6582 H   0  0  0  0  0  0  0  0  0  0  0  0
    1.5121   19.2380  -26.9001 H   0  0  0  0  0  0  0  0  0  0  0  0
    0.1803   21.3017  -28.7161 H   0  0  0  0  0  0  0  0  0  0  0  0
   -2.0620   22.3926  -28.5733 H   0  0  0  0  0  0  0  0  0  0  0  0
   -3.9596   21.2195  -27.4497 H   0  0  0  0  0  0  0  0  0  0  0  0
   -3.6144   18.9492  -26.4650 H   0  0  0  0  0  0  0  0  0  0  0  0
   -1.3773   17.8504  -26.6018 H   0  0  0  0  0  0  0  0  0  0  0  0
    2.6349   19.2985  -32.2353 H   0  0  0  0  0  0  0  0  0  0  0  0
    1.9302   20.8239  -34.0781 H   0  0  0  0  0  0  0  0  0  0  0  0
   -2.0730   22.6765  -30.8520 H   0  0  0  0  0  0  0  0  0  0  0  0
   -0.3894   24.5850  -29.8316 H   0  0  0  0  0  0  0  0  0  0  0  0
   -2.8328   24.4433  -25.4290 H   0  0  0  0  0  0  0  0  0  0  0  0
   -4.9090   25.3020  -28.3250 H   0  0  0  0  0  0  0  0  0  0  0  0
  1  2  1  0
  2  3  1  0
  3  4  2  0
  4  5  1  0
  5  6  2  0
  6  7  1  0
  7  8  2  0
  8  9  1  0
  9 10  1  0
 10 11  1  0
 11 12  1  0
 12 13  1  0
 13 14  2  0
 14 15  1  0
 15 16  2  0
 16 17  1  0
 17 18  2  0
  9 19  2  0
 19 20  1  0
 20 21  2  0
 21 22  1  0
  6 23  1  0
 23 24  2  0
 24 25  1  0
 25 26  2  0
 25 27  2  0
 25 28  1  0
 28 29  1  0
 29 30  2  0
 30 31  1  0
 31 32  2  0
 32 33  1  0
 33 34  2  0
 34 35  1  0
 32 36  1  0
 36 37  2  0
 36 38  1  0
 38 39  1  0
 39 40  2  0
 24  3  1  0
 34 29  1  0
 21  7  1  0
 39 31  1  0
 18 13  1  0
  1 41  1  0
  1 42  1  0
  1 43  1  0
  4 44  1  0
  5 45  1  0
  8 46  1  0
 10 47  1  0
 10 48  1  0
 11 49  1  0
 12 50  1  0
 12 51  1  0
 14 52  1  0
 15 53  1  0
 16 54  1  0
 17 55  1  0
 18 56  1  0
 19 57  1  0
 20 58  1  0
 23 59  1  0
 30 60  1  0
 33 61  1  0
 35 62  1  0
M  CHG  3  22  -1  28  -1  38  -1
M  END
>  <UniqueID>  (19) 
19

>  <SMILES>  (19) 
COc1ccc(-c2cc(CNCc3ccccc3)ccc2[O-])cc1S(=O)(=O)[N-]c1cc2c(cc1O)C(=O)[N-]C2=O

>  <Energy>  (19) 
110.67845243842326

>  <Genealogy>  (19) 
COc1ccc(-c2cc(CNCc3ccccc3)ccc2[O-])cc1S(=O)(=O)[N-]c1cc2c(cc1O)C(=O)[N-]C2=O (protonated)
COc1ccc(-c2cc(CNCc3ccccc3)ccc2[O-])cc1S(=O)(=O)[N-]c1cc2c(cc1O)C(=O)[N-]C2=O (3D coordinates assigned)
COc1ccc(-c2cc(CNCc3ccccc3)ccc2[O-])cc1S(=O)(=O)[N-]c1cc2c(cc1O)C(=O)[N-]C2=O (nonaromatic ring conformer: 110.67845243842326 kcal/mol)

>  <smiles>  (19) 
COc1ccc(-c2cc(CNCc3ccccc3)ccc2O)cc1S(=O)(=O)Nc1cc2c(cc1O)C(=O)NC2=O

>  <score_type>  (19) 
oracle

>  <origin>  (19) 
adgpu

>  <m_score__min__energy>  (19) 
-15.630000000000001

>  <m_primary>  (19) 
energy

$$$$
19:0
     RDKit          3D

 57 60  0  0  0  0  0  0  0  0999 V2000
   -9.1000   18.9850  -31.7030 C   0  0  0  0  0  0  0  0  0  0  0  0
   -8.0210   20.0230  -31.8250 C   0  0  0  0  0  0  0  0  0  0  0  0
   -6.6590   19.7720  -31.8580 C   0  0  0  0  0  0  0  0  0  0  0  0
   -6.0140   18.4520  -31.8520 C   0  0  0  0  0  0  0  0  0  0  0  0
   -5.8710   17.8440  -30.7580 O   0  0  0  0  0  0  0  0  0  0  0  0
   -5.5330   17.8630  -33.0700 N   0  0  0  0  0  0  0  0  0  0  0  0
   -5.3780   18.5920  -34.3170 C   0  0  0  0  0  0  0  0  0  0  0  0
   -4.9540   17.5550  -35.3470 C   0  0  0  0  0  0  0  0  0  0  0  0
   -4.4680   16.3460  -34.5490 C   0  0  0  0  0  0  0  0  0  0  0  0
   -5.0770   16.4870  -33.1590 C   0  0  0  0  0  0  0  0  0  0  0  0
   -6.0290   20.9980  -32.0010 C   0  0  0  0  0  0  0  0  0  0  0  0
   -4.3060   21.2570  -32.3110 S   0  0  0  0  0  0  0  0  0  0  0  0
   -3.5090   20.1770  -31.6360 O   0  0  0  0  0  0  0  0  0  0  0  0
   -4.0350   21.1920  -33.7870 O   0  0  0  0  0  0  0  0  0  0  0  0
   -3.7940   22.8010  -31.7130 N   0  0  0  0  0  0  0  0  0  0  0  0
   -2.9890   22.9260  -30.5390 C   0  0  0  0  0  0  0  0  0  0  0  0
   -2.3350   21.8070  -30.0060 C   0  0  0  0  0  0  0  0  0  0  0  0
   -1.6360   21.9100  -28.7980 C   0  0  0  0  0  0  0  0  0  0  0  0
   -1.5420   23.1490  -28.1450 C   0  0  0  0  0  0  0  0  0  0  0  0
   -2.1370   24.2830  -28.7160 C   0  0  0  0  0  0  0  0  0  0  0  0
   -2.8680   24.1700  -29.9040 C   0  0  0  0  0  0  0  0  0  0  0  0
   -3.4860   25.2930  -30.4420 O   0  0  0  0  0  0  0  0  0  0  0  0
   -0.7330   23.2430  -26.8790 C   0  0  0  0  0  0  0  0  0  0  0  0
   -0.9610   22.0330  -25.9450 C   0  0  0  0  0  0  0  0  0  0  0  0
   -1.3070   20.7010  -26.6600 C   0  0  0  0  0  0  0  0  0  0  0  0
   -0.9920   20.7110  -28.1610 C   0  0  0  0  0  0  0  0  0  0  0  0
   -7.0370   21.9520  -32.0570 C   0  0  0  0  0  0  0  0  0  0  0  0
   -6.8300   23.4210  -32.2940 C   0  0  0  0  0  0  0  0  0  0  0  0
   -8.2450   21.3550  -31.9100 N   0  0  0  0  0  0  0  0  0  0  0  0
   -9.5500   22.0160  -31.9570 C   0  0  0  0  0  0  0  0  0  0  0  0
   -9.3027   18.7900  -30.6396 H   0  0  0  0  0  0  0  0  0  0  0  0
  -10.0164   19.3497  -32.1901 H   0  0  0  0  0  0  0  0  0  0  0  0
   -8.7711   18.0552  -32.1901 H   0  0  0  0  0  0  0  0  0  0  0  0
   -6.3304   19.0577  -34.6105 H   0  0  0  0  0  0  0  0  0  0  0  0
   -4.6388   19.4015  -34.2262 H   0  0  0  0  0  0  0  0  0  0  0  0
   -5.8073   17.2759  -35.9826 H   0  0  0  0  0  0  0  0  0  0  0  0
   -4.1674   17.9433  -36.0107 H   0  0  0  0  0  0  0  0  0  0  0  0
   -4.8087   15.4135  -35.0227 H   0  0  0  0  0  0  0  0  0  0  0  0
   -3.3695   16.3075  -34.5053 H   0  0  0  0  0  0  0  0  0  0  0  0
   -5.9225   15.7938  -33.0381 H   0  0  0  0  0  0  0  0  0  0  0  0
   -4.3493   16.2476  -32.3696 H   0  0  0  0  0  0  0  0  0  0  0  0
   -2.3712   20.8452  -30.5385 H   0  0  0  0  0  0  0  0  0  0  0  0
   -2.0290   25.2635  -28.2292 H   0  0  0  0  0  0  0  0  0  0  0  0
    0.3337   23.2893  -27.1436 H   0  0  0  0  0  0  0  0  0  0  0  0
   -1.0537   24.1476  -26.3416 H   0  0  0  0  0  0  0  0  0  0  0  0
   -0.0422   21.8766  -25.3607 H   0  0  0  0  0  0  0  0  0  0  0  0
   -1.8370   22.2845  -25.3290 H   0  0  0  0  0  0  0  0  0  0  0  0
   -0.7288   19.8927  -26.1885 H   0  0  0  0  0  0  0  0  0  0  0  0
   -2.3922   20.5525  -26.5587 H   0  0  0  0  0  0  0  0  0  0  0  0
    0.0972   20.7584  -28.3071 H   0  0  0  0  0  0  0  0  0  0  0  0
   -1.3836   19.7937  -28.6248 H   0  0  0  0  0  0  0  0  0  0  0  0
   -6.7567   23.9415  -31.3277 H   0  0  0  0  0  0  0  0  0  0  0  0
   -5.9015   23.5732  -32.8639 H   0  0  0  0  0  0  0  0  0  0  0  0
   -7.6803   23.8239  -32.8639 H   0  0  0  0  0  0  0  0  0  0  0  0
   -9.9066   22.1966  -30.9322 H   0  0  0  0  0  0  0  0  0  0  0  0
   -9.4562   22.9753  -32.4871 H   0  0  0  0  0  0  0  0  0  0  0  0
  -10.2679   21.3728  -32.4871 H   0  0  0  0  0  0  0  0  0  0  0  0
  1  2  1  0
  2  3  2  0
  3  4  1  0
  4  5  2  0
  4  6  1  0
  6  7  1  0
  7  8  1  0
  8  9  1  0
  9 10  1  0
  3 11  1  0
 11 12  1  0
 12 13  2  0
 12 14  2  0
 12 15  1  0
 15 16  1  0
 16 17  2  0
 17 18  1  0
 18 19  2  0
 19 20  1  0
 20 21  2  0
 21 22  1  0
 19 23  1  0
 23 24  1  0
 24 25  1  0
 25 26  1  0
 11 27  2  0
 27 28  1  0
 27 29  1  0
 29 30  1  0
 29  2  1  0
 10  6  1  0
 21 16  1  0
 26 18  1  0
  1 31  1  0
  1 32  1  0
  1 33  1  0
  7 34  1  0
  7 35  1  0
  8 36  1  0
  8 37  1  0
  9 38  1  0
  9 39  1  0
 10 40  1  0
 10 41  1  0
 17 42  1  0
 20 43  1  0
 23 44  1  0
 23 45  1  0
 24 46  1  0
 24 47  1  0
 25 48  1  0
 25 49  1  0
 26 50  1  0
 26 51  1  0
 28 52  1  0
 28 53  1  0
 28 54  1  0
 30 55  1  0
 30 56  1  0
 30 57  1  0
M  CHG  2  15  -1  22  -1
M  END
>  <UniqueID>  (20) 
20

>  <SMILES>  (20) 
Cc1c(C(=O)N2CCCC2)c(S(=O)(=O)[N-]c2cc3c(cc2[O-])CCCC3)c(C)n1C

>  <Energy>  (20) 
99.66923663956841

>  <Genealogy>  (20) 
Cc1c(C(=O)N2CCCC2)c(S(=O)(=O)[N-]c2cc3c(cc2[O-])CCCC3)c(C)n1C (protonated)
Cc1c(C(=O)N2CCCC2)c(S(=O)(=O)[N-]c2cc3c(cc2[O-])CCCC3)c(C)n1C (3D coordinates assigned)
Cc1c(C(=O)N2CCCC2)c(S(=O)(=O)[N-]c2cc3c(cc2[O-])CCCC3)c(C)n1C (nonaromatic ring conformer: 99.66923663956841 kcal/mol)

>  <smiles>  (20) 
Cc1c(C(=O)N2CCCC2)c(S(=O)(=O)Nc2cc3c(cc2O)CCCC3)c(C)n1C

>  <score_type>  (20) 
oracle

>  <origin>  (20) 
adgpu

>  <m_score__min__energy>  (20) 
-13.56

>  <m_primary>  (20) 
energy

$$$$
20:0
     RDKit          3D

 65 69  0  0  0  0  0  0  0  0999 V2000
   -3.4890   16.1420  -33.3420 C   0  0  0  0  0  0  0  0  0  0  0  0
   -2.9650   17.5360  -33.2670 C   0  0  0  0  0  0  0  0  0  0  0  0
   -1.6660   17.8150  -33.0290 N   0  0  0  0  0  0  0  0  0  0  0  0
   -1.5120   19.1300  -33.0790 N   0  0  0  0  0  0  0  0  0  0  0  0
   -0.2370   19.7960  -32.8380 C   0  0  0  0  0  0  0  0  0  0  0  0
   -2.7010   19.7200  -33.3310 C   0  0  0  0  0  0  0  0  0  0  0  0
   -2.9330   21.1960  -33.4710 C   0  0  0  0  0  0  0  0  0  0  0  0
   -3.6550   18.7270  -33.4630 C   0  0  0  0  0  0  0  0  0  0  0  0
   -5.0330   18.9390  -33.8040 N   0  0  0  0  0  0  0  0  0  0  0  0
   -6.3820   18.4920  -32.8030 S   0  0  0  0  0  0  0  0  0  0  0  0
   -5.8700   17.7890  -31.5780 O   0  0  0  0  0  0  0  0  0  0  0  0
   -7.2390   17.5350  -33.5850 O   0  0  0  0  0  0  0  0  0  0  0  0
   -7.3930   19.8890  -32.3700 C   0  0  0  0  0  0  0  0  0  0  0  0
   -8.7870   19.7580  -32.4720 C   0  0  0  0  0  0  0  0  0  0  0  0
   -9.6370   20.8090  -32.1360 C   0  0  0  0  0  0  0  0  0  0  0  0
   -9.1150   22.0080  -31.6610 C   0  0  0  0  0  0  0  0  0  0  0  0
   -7.7310   22.1620  -31.5020 C   0  0  0  0  0  0  0  0  0  0  0  0
   -7.2220   23.3590  -30.9750 C   0  0  0  0  0  0  0  0  0  0  0  0
   -5.8450   23.5220  -30.7850 C   0  0  0  0  0  0  0  0  0  0  0  0
   -5.2200   24.9880  -30.0330 S   0  0  0  0  0  0  0  0  0  0  0  0
   -4.2020   25.6230  -30.9400 O   0  0  0  0  0  0  0  0  0  0  0  0
   -6.3300   25.9750  -29.7890 O   0  0  0  0  0  0  0  0  0  0  0  0
   -4.4720   24.5710  -28.5300 N   0  0  0  0  0  0  0  0  0  0  0  0
   -3.3050   23.7520  -28.5070 C   0  0  0  0  0  0  0  0  0  0  0  0
   -3.3940   22.4240  -28.0720 C   0  0  0  0  0  0  0  0  0  0  0  0
   -2.2460   21.6140  -28.0110 C   0  0  0  0  0  0  0  0  0  0  0  0
   -1.0070   22.1320  -28.4400 C   0  0  0  0  0  0  0  0  0  0  0  0
   -0.9270   23.4670  -28.8760 C   0  0  0  0  0  0  0  0  0  0  0  0
   -2.0680   24.2740  -28.9060 C   0  0  0  0  0  0  0  0  0  0  0  0
   -1.9670   25.5950  -29.3310 O   0  0  0  0  0  0  0  0  0  0  0  0
    0.2620   21.3140  -28.3260 C   0  0  0  0  0  0  0  0  0  0  0  0
    0.0170   19.8620  -28.2240 N   0  0  0  0  0  0  0  0  0  0  0  0
   -0.2770   19.2590  -29.5350 C   0  0  0  0  0  0  0  0  0  0  0  0
   -1.0130   19.5560  -27.2120 C   0  0  0  0  0  0  0  0  0  0  0  0
   -2.3750   20.1850  -27.5490 C   0  0  0  0  0  0  0  0  0  0  0  0
   -4.9740   22.4790  -31.1120 C   0  0  0  0  0  0  0  0  0  0  0  0
   -5.4660   21.2810  -31.6340 C   0  0  0  0  0  0  0  0  0  0  0  0
   -6.8500   21.1000  -31.8500 C   0  0  0  0  0  0  0  0  0  0  0  0
   -3.6362   15.7504  -32.3247 H   0  0  0  0  0  0  0  0  0  0  0  0
   -4.4494   16.1396  -33.8783 H   0  0  0  0  0  0  0  0  0  0  0  0
   -2.7680   15.5076  -33.8783 H   0  0  0  0  0  0  0  0  0  0  0  0
   -0.0684   19.8841  -31.7546 H   0  0  0  0  0  0  0  0  0  0  0  0
    0.5753   19.2070  -33.2888 H   0  0  0  0  0  0  0  0  0  0  0  0
   -0.2564   20.7992  -33.2888 H   0  0  0  0  0  0  0  0  0  0  0  0
   -3.0047   21.6522  -32.4726 H   0  0  0  0  0  0  0  0  0  0  0  0
   -2.0949   21.6483  -34.0215 H   0  0  0  0  0  0  0  0  0  0  0  0
   -3.8694   21.3694  -34.0215 H   0  0  0  0  0  0  0  0  0  0  0  0
   -5.2490   19.5430  -34.6330 H   0  0  0  0  0  0  0  0  0  0  0  0
   -9.2158   18.8080  -32.8237 H   0  0  0  0  0  0  0  0  0  0  0  0
  -10.7250   20.6906  -32.2466 H   0  0  0  0  0  0  0  0  0  0  0  0
   -9.7911   22.8383  -31.4093 H   0  0  0  0  0  0  0  0  0  0  0  0
   -7.9102   24.1749  -30.7094 H   0  0  0  0  0  0  0  0  0  0  0  0
   -4.3695   22.0111  -27.7757 H   0  0  0  0  0  0  0  0  0  0  0  0
    0.0413   23.8793  -29.1959 H   0  0  0  0  0  0  0  0  0  0  0  0
    0.8789   21.5016  -29.2172 H   0  0  0  0  0  0  0  0  0  0  0  0
    0.7656   21.6240  -27.3985 H   0  0  0  0  0  0  0  0  0  0  0  0
   -0.7548   18.2790  -29.3890 H   0  0  0  0  0  0  0  0  0  0  0  0
   -0.9552   19.9174  -30.0976 H   0  0  0  0  0  0  0  0  0  0  0  0
    0.6594   19.1302  -30.0976 H   0  0  0  0  0  0  0  0  0  0  0  0
   -1.1341   18.4644  -27.1508 H   0  0  0  0  0  0  0  0  0  0  0  0
   -0.6769   19.9800  -26.2543 H   0  0  0  0  0  0  0  0  0  0  0  0
   -2.8487   19.5961  -28.3483 H   0  0  0  0  0  0  0  0  0  0  0  0
   -2.9837   20.1810  -26.6328 H   0  0  0  0  0  0  0  0  0  0  0  0
   -3.8921   22.6029  -30.9569 H   0  0  0  0  0  0  0  0  0  0  0  0
   -4.7670   20.4681  -31.8801 H   0  0  0  0  0  0  0  0  0  0  0  0
  1  2  1  0
  2  3  2  0
  3  4  1  0
  4  5  1  0
  4  6  1  0
  6  7  1  0
  6  8  2  0
  8  9  1  0
  9 10  1  0
 10 11  2  0
 10 12  2  0
 10 13  1  0
 13 14  2  0
 14 15  1  0
 15 16  2  0
 16 17  1  0
 17 18  2  0
 18 19  1  0
 19 20  1  0
 20 21  2  0
 20 22  2  0
 20 23  1  0
 23 24  1  0
 24 25  2  0
 25 26  1  0
 26 27  2  0
 27 28  1  0
 28 29  2  0
 29 30  1  0
 27 31  1  0
 31 32  1  0
 32 33  1  0
 32 34  1  0
 34 35  1  0
 19 36  2  0
 36 37  1  0
 37 38  2  0
  8  2  1  0
 38 13  1  0
 38 17  1  0
 29 24  1  0
 35 26  1  0
  1 39  1  0
  1 40  1  0
  1 41  1  0
  5 42  1  0
  5 43  1  0
  5 44  1  0
  7 45  1  0
  7 46  1  0
  7 47  1  0
  9 48  1  0
 14 49  1  0
 15 50  1  0
 16 51  1  0
 18 52  1  0
 25 53  1  0
 28 54  1  0
 31 55  1  0
 31 56  1  0
 33 57  1  0
 33 58  1  0
 33 59  1  0
 34 60  1  0
 34 61  1  0
 35 62  1  0
 35 63  1  0
 36 64  1  0
 37 65  1  0
M  CHG  2  23  -1  30  -1
M  END
>  <UniqueID>  (21) 
21

>  <SMILES>  (21) 
Cc1nn(C)c(C)c1NS(=O)(=O)c1cccc2cc(S(=O)(=O)[N-]c3cc4c(cc3[O-])CN(C)CC4)ccc12

>  <Energy>  (21) 
126.00559760084714

>  <Genealogy>  (21) 
Cc1nn(C)c(C)c1NS(=O)(=O)c1cccc2cc(S(=O)(=O)[N-]c3cc4c(cc3[O-])CN(C)CC4)ccc12 (protonated)
Cc1nn(C)c(C)c1NS(=O)(=O)c1cccc2cc(S(=O)(=O)[N-]c3cc4c(cc3[O-])CN(C)CC4)ccc12 (3D coordinates assigned)
Cc1nn(C)c(C)c1NS(=O)(=O)c1cccc2cc(S(=O)(=O)[N-]c3cc4c(cc3[O-])CN(C)CC4)ccc12 (nonaromatic ring conformer: 126.00559760084714 kcal/mol)

>  <smiles>  (21) 
Cc1nn(C)c(C)c1NS(=O)(=O)c1cccc2cc(S(=O)(=O)Nc3cc4c(cc3O)CN(C)CC4)ccc12

>  <score_type>  (21) 
oracle

>  <origin>  (21) 
adgpu

>  <m_score__min__energy>  (21) 
-17.390000000000001

>  <m_primary>  (21) 
energy

$$$$
21:0
     RDKit          3D

 48 51  0  0  0  0  0  0  0  0999 V2000
   -3.0770   24.2890  -27.8680 O   0  0  0  0  0  0  0  0  0  0  0  0
   -2.0230   24.1590  -28.5490 C   0  0  0  0  0  0  0  0  0  0  0  0
   -2.0740   23.5310  -29.8390 N   0  0  0  0  0  0  0  0  0  0  0  0
   -3.2940   23.3230  -30.5670 C   0  0  0  0  0  0  0  0  0  0  0  0
   -3.5830   22.0440  -31.0650 C   0  0  0  0  0  0  0  0  0  0  0  0
   -4.7640   21.8070  -31.7800 C   0  0  0  0  0  0  0  0  0  0  0  0
   -5.1360   20.1850  -32.3690 S   0  0  0  0  0  0  0  0  0  0  0  0
   -4.1200   19.2180  -31.8280 O   0  0  0  0  0  0  0  0  0  0  0  0
   -5.0390   20.1680  -33.8690 O   0  0  0  0  0  0  0  0  0  0  0  0
   -6.7360   19.6790  -31.8840 N   0  0  0  0  0  0  0  0  0  0  0  0
   -7.7310   20.6740  -32.3250 C   0  0  0  0  0  0  0  0  0  0  0  0
   -9.1260   20.2790  -31.8290 C   0  0  0  0  0  0  0  0  0  0  0  0
   -9.4970   18.8790  -32.3280 C   0  0  0  0  0  0  0  0  0  0  0  0
   -8.4050   17.8670  -31.9670 C   0  0  0  0  0  0  0  0  0  0  0  0
   -7.0380   18.3550  -32.4580 C   0  0  0  0  0  0  0  0  0  0  0  0
   -5.6550   22.8630  -32.0140 C   0  0  0  0  0  0  0  0  0  0  0  0
   -5.3610   24.1460  -31.5480 C   0  0  0  0  0  0  0  0  0  0  0  0
   -4.1810   24.3840  -30.8360 C   0  0  0  0  0  0  0  0  0  0  0  0
   -3.8870   25.6810  -30.4270 O   0  0  0  0  0  0  0  0  0  0  0  0
   -0.7310   24.5470  -27.9500 C   0  0  0  0  0  0  0  0  0  0  0  0
    0.4030   24.1720  -28.6010 N   0  0  0  0  0  0  0  0  0  0  0  0
    1.6150   24.5170  -28.1740 N   0  0  0  0  0  0  0  0  0  0  0  0
    1.7930   25.2680  -27.0590 C   0  0  0  0  0  0  0  0  0  0  0  0
    2.9620   25.5770  -26.7040 O   0  0  0  0  0  0  0  0  0  0  0  0
    0.6750   25.6770  -26.3150 C   0  0  0  0  0  0  0  0  0  0  0  0
    0.8170   26.4360  -25.1380 C   0  0  0  0  0  0  0  0  0  0  0  0
   -0.3040   26.7940  -24.3910 C   0  0  0  0  0  0  0  0  0  0  0  0
   -1.5760   26.3910  -24.7970 C   0  0  0  0  0  0  0  0  0  0  0  0
   -1.7360   25.6410  -25.9640 C   0  0  0  0  0  0  0  0  0  0  0  0
   -0.6180   25.2970  -26.7550 C   0  0  0  0  0  0  0  0  0  0  0  0
   -1.2030   23.0780  -30.1980 H   0  0  0  0  0  0  0  0  0  0  0  0
   -2.8757   21.2194  -30.8925 H   0  0  0  0  0  0  0  0  0  0  0  0
   -7.4653   21.6601  -31.9164 H   0  0  0  0  0  0  0  0  0  0  0  0
   -7.7376   20.7139  -33.4243 H   0  0  0  0  0  0  0  0  0  0  0  0
   -9.1341   20.2851  -30.7290 H   0  0  0  0  0  0  0  0  0  0  0  0
   -9.8592   21.0009  -32.2179 H   0  0  0  0  0  0  0  0  0  0  0  0
  -10.4442   18.5692  -31.8624 H   0  0  0  0  0  0  0  0  0  0  0  0
   -9.6014   18.9104  -33.4226 H   0  0  0  0  0  0  0  0  0  0  0  0
   -8.3739   17.7422  -30.8745 H   0  0  0  0  0  0  0  0  0  0  0  0
   -8.6353   16.9068  -32.4518 H   0  0  0  0  0  0  0  0  0  0  0  0
   -6.2631   17.6387  -32.1476 H   0  0  0  0  0  0  0  0  0  0  0  0
   -7.0570   18.4343  -33.5550 H   0  0  0  0  0  0  0  0  0  0  0  0
   -6.5886   22.6807  -32.5663 H   0  0  0  0  0  0  0  0  0  0  0  0
   -6.0602   24.9728  -31.7417 H   0  0  0  0  0  0  0  0  0  0  0  0
    1.8181   26.7483  -24.8060 H   0  0  0  0  0  0  0  0  0  0  0  0
   -0.1851   27.3963  -23.4783 H   0  0  0  0  0  0  0  0  0  0  0  0
   -2.4558   26.6648  -24.1961 H   0  0  0  0  0  0  0  0  0  0  0  0
   -2.7413   25.3155  -26.2696 H   0  0  0  0  0  0  0  0  0  0  0  0
  1  2  2  0
  2  3  1  0
  3  4  1  0
  4  5  2  0
  5  6  1  0
  6  7  1  0
  7  8  2  0
  7  9  2  0
  7 10  1  0
 10 11  1  0
 11 12  1  0
 12 13  1  0
 13 14  1  0
 14 15  1  0
  6 16  2  0
 16 17  1  0
 17 18  2  0
 18 19  1  0
  2 20  1  0
 20 21  2  0
 21 22  1  0
 22 23  1  0
 23 24  2  0
 23 25  1  0
 25 26  2  0
 26 27  1  0
 27 28  2  0
 28 29  1  0
 29 30  2  0
 18  4  1  0
 30 20  1  0
 15 10  1  0
 30 25  1  0
  3 31  1  0
  5 32  1  0
 11 33  1  0
 11 34  1  0
 12 35  1  0
 12 36  1  0
 13 37  1  0
 13 38  1  0
 14 39  1  0
 14 40  1  0
 15 41  1  0
 15 42  1  0
 16 43  1  0
 17 44  1  0
 26 45  1  0
 27 46  1  0
 28 47  1  0
 29 48  1  0
M  CHG  2  19  -1  22  -1
M  END
>  <UniqueID>  (22) 
22

>  <SMILES>  (22) 
O=C(Nc1cc(S(=O)(=O)N2CCCCC2)ccc1[O-])c1n[n-]c(=O)c2ccccc12

>  <Energy>  (22) 
62.388161571777424

>  <Genealogy>  (22) 
O=C(Nc1cc(S(=O)(=O)N2CCCCC2)ccc1[O-])c1n[n-]c(=O)c2ccccc12 (protonated)
O=C(Nc1cc(S(=O)(=O)N2CCCCC2)ccc1[O-])c1n[n-]c(=O)c2ccccc12 (3D coordinates assigned)
O=C(Nc1cc(S(=O)(=O)N2CCCCC2)ccc1[O-])c1n[n-]c(=O)c2ccccc12 (nonaromatic ring conformer: 62.388161571777424 kcal/mol)

>  <smiles>  (22) 
O=C(Nc1cc(S(=O)(=O)N2CCCCC2)ccc1O)c1n[nH]c(=O)c2ccccc12

>  <score_type>  (22) 
oracle

>  <origin>  (22) 
adgpu

>  <m_score__min__energy>  (22) 
-13.460000000000001

>  <m_primary>  (22) 
energy

$$$$
22:0
     RDKit          3D

 51 54  0  0  0  0  0  0  0  0999 V2000
   -5.9410   25.2020  -29.0430 O   0  0  0  0  0  0  0  0  0  0  0  0
   -5.3370   24.9950  -30.4040 S   0  0  0  0  0  0  0  0  0  0  0  0
   -5.8410   26.0580  -31.3370 O   0  0  0  0  0  0  0  0  0  0  0  0
   -3.6090   25.1070  -30.2790 N   0  0  0  0  0  0  0  0  0  0  0  0
   -2.8130   24.3940  -29.3220 C   0  0  0  0  0  0  0  0  0  0  0  0
   -3.1930   23.1300  -28.8390 C   0  0  0  0  0  0  0  0  0  0  0  0
   -2.3530   22.4110  -27.9790 C   0  0  0  0  0  0  0  0  0  0  0  0
   -1.1470   22.9910  -27.5360 C   0  0  0  0  0  0  0  0  0  0  0  0
   -0.7840   24.2660  -27.9940 C   0  0  0  0  0  0  0  0  0  0  0  0
   -1.6120   24.9640  -28.8790 C   0  0  0  0  0  0  0  0  0  0  0  0
   -1.2280   26.2220  -29.3280 O   0  0  0  0  0  0  0  0  0  0  0  0
   -0.1900   22.2110  -26.6640 C   0  0  0  0  0  0  0  0  0  0  0  0
   -0.8500   21.1070  -25.9510 N   0  0  0  0  0  0  0  0  0  0  0  0
   -1.6200   20.2730  -26.8800 C   0  0  0  0  0  0  0  0  0  0  0  0
   -2.7920   21.0610  -27.4760 C   0  0  0  0  0  0  0  0  0  0  0  0
   -5.7760   23.4140  -31.0480 C   0  0  0  0  0  0  0  0  0  0  0  0
   -4.9690   22.7860  -32.0070 C   0  0  0  0  0  0  0  0  0  0  0  0
   -5.3960   21.6030  -32.6170 C   0  0  0  0  0  0  0  0  0  0  0  0
   -6.6300   21.0370  -32.2700 C   0  0  0  0  0  0  0  0  0  0  0  0
   -7.2040   19.6130  -33.1340 S   0  0  0  0  0  0  0  0  0  0  0  0
   -8.7060   19.6020  -33.0890 O   0  0  0  0  0  0  0  0  0  0  0  0
   -6.7610   19.6720  -34.5700 O   0  0  0  0  0  0  0  0  0  0  0  0
   -6.5690   18.1780  -32.3550 N   0  0  0  0  0  0  0  0  0  0  0  0
   -5.0890   18.1650  -32.3280 C   0  0  0  0  0  0  0  0  0  0  0  0
   -4.4800   17.2830  -33.4310 C   0  0  0  0  0  0  0  0  0  0  0  0
   -5.3010   17.2970  -34.5770 O   0  0  0  0  0  0  0  0  0  0  0  0
   -6.5130   16.6110  -34.3170 C   0  0  0  0  0  0  0  0  0  0  0  0
   -7.1330   16.9490  -32.9390 C   0  0  0  0  0  0  0  0  0  0  0  0
   -7.4210   21.6490  -31.2890 C   0  0  0  0  0  0  0  0  0  0  0  0
   -6.9940   22.8300  -30.6790 C   0  0  0  0  0  0  0  0  0  0  0  0
   -4.1602   22.7008  -29.1395 H   0  0  0  0  0  0  0  0  0  0  0  0
    0.1586   24.7202  -27.6547 H   0  0  0  0  0  0  0  0  0  0  0  0
    0.6063   21.7950  -27.2986 H   0  0  0  0  0  0  0  0  0  0  0  0
    0.2137   22.9022  -25.9095 H   0  0  0  0  0  0  0  0  0  0  0  0
   -1.4970   21.5080  -25.2310 H   0  0  0  0  0  0  0  0  0  0  0  0
   -0.9607   19.9366  -27.6938 H   0  0  0  0  0  0  0  0  0  0  0  0
   -2.0201   19.4090  -26.3292 H   0  0  0  0  0  0  0  0  0  0  0  0
   -3.2177   20.4890  -28.3136 H   0  0  0  0  0  0  0  0  0  0  0  0
   -3.5408   21.2151  -26.6851 H   0  0  0  0  0  0  0  0  0  0  0  0
   -3.9980   23.2250  -32.2799 H   0  0  0  0  0  0  0  0  0  0  0  0
   -4.7615   21.1150  -33.3715 H   0  0  0  0  0  0  0  0  0  0  0  0
   -4.7261   19.1948  -32.4612 H   0  0  0  0  0  0  0  0  0  0  0  0
   -4.7793   17.7450  -31.3597 H   0  0  0  0  0  0  0  0  0  0  0  0
   -3.4833   17.6670  -33.6938 H   0  0  0  0  0  0  0  0  0  0  0  0
   -4.4000   16.2504  -33.0604 H   0  0  0  0  0  0  0  0  0  0  0  0
   -7.2385   16.8778  -35.0996 H   0  0  0  0  0  0  0  0  0  0  0  0
   -6.2804   15.5359  -34.3112 H   0  0  0  0  0  0  0  0  0  0  0  0
   -8.2178   17.0825  -33.0630 H   0  0  0  0  0  0  0  0  0  0  0  0
   -6.9044   16.1178  -32.2557 H   0  0  0  0  0  0  0  0  0  0  0  0
   -8.3812   21.1978  -30.9985 H   0  0  0  0  0  0  0  0  0  0  0  0
   -7.6167   23.3035  -29.9057 H   0  0  0  0  0  0  0  0  0  0  0  0
  1  2  2  0
  2  3  2  0
  2  4  1  0
  4  5  1  0
  5  6  2  0
  6  7  1  0
  7  8  2  0
  8  9  1  0
  9 10  2  0
 10 11  1  0
  8 12  1  0
 12 13  1  0
 13 14  1  0
 14 15  1  0
  2 16  1  0
 16 17  2  0
 17 18  1  0
 18 19  2  0
 19 20  1  0
 20 21  2  0
 20 22  2  0
 20 23  1  0
 23 24  1  0
 24 25  1  0
 25 26  1  0
 26 27  1  0
 27 28  1  0
 19 29  1  0
 29 30  2  0
 10  5  1  0
 30 16  1  0
 15  7  1  0
 28 23  1  0
  6 31  1  0
  9 32  1  0
 12 33  1  0
 12 34  1  0
 13 35  1  0
 14 36  1  0
 14 37  1  0
 15 38  1  0
 15 39  1  0
 17 40  1  0
 18 41  1  0
 24 42  1  0
 24 43  1  0
 25 44  1  0
 25 45  1  0
 27 46  1  0
 27 47  1  0
 28 48  1  0
 28 49  1  0
 29 50  1  0
 30 51  1  0
M  CHG  2   4  -1  11  -1
M  END
>  <UniqueID>  (23) 
23

>  <SMILES>  (23) 
O=S(=O)([N-]c1cc2c(cc1[O-])CNCC2)c1ccc(S(=O)(=O)N2CCOCC2)cc1

>  <Energy>  (23) 
67.9242860680246

>  <Genealogy>  (23) 
O=S(=O)([N-]c1cc2c(cc1[O-])CNCC2)c1ccc(S(=O)(=O)N2CCOCC2)cc1 (protonated)
O=S(=O)([N-]c1cc2c(cc1[O-])CNCC2)c1ccc(S(=O)(=O)N2CCOCC2)cc1 (3D coordinates assigned)
O=S(=O)([N-]c1cc2c(cc1[O-])CNCC2)c1ccc(S(=O)(=O)N2CCOCC2)cc1 (nonaromatic ring conformer: 67.9242860680246 kcal/mol)

>  <smiles>  (23) 
O=S(=O)(Nc1cc2c(cc1O)CNCC2)c1ccc(S(=O)(=O)N2CCOCC2)cc1

>  <score_type>  (23) 
oracle

>  <origin>  (23) 
adgpu

>  <m_score__min__energy>  (23) 
-14.92

>  <m_primary>  (23) 
energy

$$$$
23:0
     RDKit          3D

 39 41  0  0  0  0  0  0  0  0999 V2000
   -5.0260   20.8130  -33.4730 O   0  0  0  0  0  0  0  0  0  0  0  0
   -4.5170   19.8840  -32.7890 C   0  0  0  0  0  0  0  0  0  0  0  0
   -3.5470   20.1890  -31.7720 N   0  0  0  0  0  0  0  0  0  0  0  0
   -3.3600   21.5030  -31.2160 C   0  0  0  0  0  0  0  0  0  0  0  0
   -2.0840   21.9000  -30.8010 C   0  0  0  0  0  0  0  0  0  0  0  0
   -1.8870   23.1640  -30.2430 C   0  0  0  0  0  0  0  0  0  0  0  0
   -2.9640   24.0420  -30.0850 C   0  0  0  0  0  0  0  0  0  0  0  0
   -2.7370   25.2890  -29.5130 O   0  0  0  0  0  0  0  0  0  0  0  0
   -4.2560   23.6590  -30.4910 C   0  0  0  0  0  0  0  0  0  0  0  0
   -5.6200   24.7790  -30.2580 S   0  0  0  0  0  0  0  0  0  0  0  0
   -5.5760   25.2830  -28.8430 O   0  0  0  0  0  0  0  0  0  0  0  0
   -5.4330   25.9460  -31.1860 O   0  0  0  0  0  0  0  0  0  0  0  0
   -7.2110   24.1210  -30.5730 N   0  0  0  0  0  0  0  0  0  0  0  0
   -7.4070   23.7390  -31.9720 C   0  0  0  0  0  0  0  0  0  0  0  0
   -8.3650   22.5640  -31.9730 C   0  0  0  0  0  0  0  0  0  0  0  0
   -8.1810   21.9060  -30.6210 C   0  0  0  0  0  0  0  0  0  0  0  0
   -7.5430   22.9670  -29.7300 C   0  0  0  0  0  0  0  0  0  0  0  0
   -4.4460   22.3760  -31.0310 C   0  0  0  0  0  0  0  0  0  0  0  0
   -4.8970   18.4820  -33.0620 C   0  0  0  0  0  0  0  0  0  0  0  0
   -6.1430   18.1590  -33.6180 C   0  0  0  0  0  0  0  0  0  0  0  0
   -6.4620   16.8230  -33.8520 C   0  0  0  0  0  0  0  0  0  0  0  0
   -5.5330   15.8360  -33.5250 C   0  0  0  0  0  0  0  0  0  0  0  0
   -5.7940   14.6220  -33.7260 O   0  0  0  0  0  0  0  0  0  0  0  0
   -4.3390   16.1940  -32.9870 N   0  0  0  0  0  0  0  0  0  0  0  0
   -4.0320   17.4730  -32.7620 N   0  0  0  0  0  0  0  0  0  0  0  0
   -2.8850   19.4360  -31.4750 H   0  0  0  0  0  0  0  0  0  0  0  0
   -1.2326   21.2129  -30.9150 H   0  0  0  0  0  0  0  0  0  0  0  0
   -0.8795   23.4712  -29.9259 H   0  0  0  0  0  0  0  0  0  0  0  0
   -7.8367   24.5789  -32.5376 H   0  0  0  0  0  0  0  0  0  0  0  0
   -6.4515   23.4707  -32.4463 H   0  0  0  0  0  0  0  0  0  0  0  0
   -9.4017   22.9106  -32.0962 H   0  0  0  0  0  0  0  0  0  0  0  0
   -8.1645   21.8685  -32.8013 H   0  0  0  0  0  0  0  0  0  0  0  0
   -9.1528   21.5941  -30.2106 H   0  0  0  0  0  0  0  0  0  0  0  0
   -7.5556   21.0037  -30.6900 H   0  0  0  0  0  0  0  0  0  0  0  0
   -8.2500   23.2694  -28.9434 H   0  0  0  0  0  0  0  0  0  0  0  0
   -6.6372   22.5700  -29.2485 H   0  0  0  0  0  0  0  0  0  0  0  0
   -5.4582   22.0503  -31.3128 H   0  0  0  0  0  0  0  0  0  0  0  0
   -6.8622   18.9532  -33.8672 H   0  0  0  0  0  0  0  0  0  0  0  0
   -7.4340   16.5505  -34.2890 H   0  0  0  0  0  0  0  0  0  0  0  0
  1  2  2  0
  2  3  1  0
  3  4  1  0
  4  5  2  0
  5  6  1  0
  6  7  2  0
  7  8  1  0
  7  9  1  0
  9 10  1  0
 10 11  2  0
 10 12  2  0
 10 13  1  0
 13 14  1  0
 14 15  1  0
 15 16  1  0
 16 17  1  0
  9 18  2  0
  2 19  1  0
 19 20  1  0
 20 21  2  0
 21 22  1  0
 22 23  2  0
 22 24  1  0
 24 25  1  0
 18  4  1  0
 25 19  2  0
 17 13  1  0
  3 26  1  0
  5 27  1  0
  6 28  1  0
 14 29  1  0
 14 30  1  0
 15 31  1  0
 15 32  1  0
 16 33  1  0
 16 34  1  0
 17 35  1  0
 17 36  1  0
 18 37  1  0
 20 38  1  0
 21 39  1  0
M  CHG  2   8  -1  24  -1
M  END
>  <UniqueID>  (24) 
24

>  <SMILES>  (24) 
O=C(Nc1ccc([O-])c(S(=O)(=O)N2CCCC2)c1)c1ccc(=O)[n-]n1

>  <Energy>  (24) 
49.98519069649026

>  <Genealogy>  (24) 
O=C(Nc1ccc([O-])c(S(=O)(=O)N2CCCC2)c1)c1ccc(=O)[n-]n1 (protonated)
O=C(Nc1ccc([O-])c(S(=O)(=O)N2CCCC2)c1)c1ccc(=O)[n-]n1 (3D coordinates assigned)
O=C(Nc1ccc([O-])c(S(=O)(=O)N2CCCC2)c1)c1ccc(=O)[n-]n1 (nonaromatic ring conformer: 49.98519069649026 kcal/mol)

>  <smiles>  (24) 
O=C(Nc1ccc(O)c(S(=O)(=O)N2CCCC2)c1)c1ccc(=O)[nH]n1

>  <score_type>  (24) 
oracle

>  <origin>  (24) 
adgpu

>  <m_score__min__energy>  (24) 
-10.75

>  <m_primary>  (24) 
energy

$$$$
24:0
     RDKit          3D

 40 42  0  0  0  0  0  0  0  0999 V2000
   -0.3570   24.2330  -27.5980 H   0  0  0  0  0  0  0  0  0  0  0  0
   -0.9910   23.4460  -27.6500 O   0  0  0  0  0  0  0  0  0  0  0  0
   -2.1310   23.4670  -28.4560 C   0  0  0  0  0  0  0  0  0  0  0  0
   -2.9910   22.3650  -28.4450 C   0  0  0  0  0  0  0  0  0  0  0  0
   -2.7584   21.4957  -27.8124 H   0  0  0  0  0  0  0  0  0  0  0  0
   -4.1440   22.3620  -29.2330 C   0  0  0  0  0  0  0  0  0  0  0  0
   -4.8164   21.4917  -29.2139 H   0  0  0  0  0  0  0  0  0  0  0  0
   -4.4510   23.4630  -30.0500 C   0  0  0  0  0  0  0  0  0  0  0  0
   -5.6790   23.4380  -30.9280 C   0  0  0  0  0  0  0  0  0  0  0  0
   -6.0484   24.4652  -31.0635 H   0  0  0  0  0  0  0  0  0  0  0  0
   -6.4497   22.8192  -30.4453 H   0  0  0  0  0  0  0  0  0  0  0  0
   -5.3600   22.8630  -32.2380 N   0  0  0  0  0  0  0  0  0  0  0  0
   -5.7290   23.3550  -33.0820 H   0  0  0  0  0  0  0  0  0  0  0  0
   -4.4180   21.7930  -32.4210 C   0  0  0  0  0  0  0  0  0  0  0  0
   -4.8900   20.4940  -32.6580 C   0  0  0  0  0  0  0  0  0  0  0  0
   -5.9712   20.2930  -32.6335 H   0  0  0  0  0  0  0  0  0  0  0  0
   -3.9970   19.4530  -32.9250 C   0  0  0  0  0  0  0  0  0  0  0  0
   -4.3781   18.4405  -33.1239 H   0  0  0  0  0  0  0  0  0  0  0  0
   -2.6170   19.6960  -32.9400 C   0  0  0  0  0  0  0  0  0  0  0  0
   -1.4930   18.4180  -33.3900 S   0  0  0  0  0  0  0  0  0  0  0  0
   -2.1890   17.0850  -33.3880 O   0  0  0  0  0  0  0  0  0  0  0  0
   -0.3650   18.3870  -32.4010 O   0  0  0  0  0  0  0  0  0  0  0  0
   -0.8550   18.7120  -34.9780 N   0  0  0  0  0  0  0  0  0  0  0  0
   -0.0900   19.7170  -35.2850 C   0  0  0  0  0  0  0  0  0  0  0  0
    0.3880   19.9040  -36.5340 N   0  0  0  0  0  0  0  0  0  0  0  0
    1.1650   20.9830  -36.6400 N   0  0  0  0  0  0  0  0  0  0  0  0
    1.3010   21.6620  -35.4790 C   0  0  0  0  0  0  0  0  0  0  0  0
    2.1790   22.8550  -35.3240 C   0  0  0  0  0  0  0  0  0  0  0  0
    2.3312   23.0618  -34.2544 H   0  0  0  0  0  0  0  0  0  0  0  0
    3.1505   22.6598  -35.8016 H   0  0  0  0  0  0  0  0  0  0  0  0
    1.7038   23.7245  -35.8016 H   0  0  0  0  0  0  0  0  0  0  0  0
    0.4510   20.9190  -34.2260 S   0  0  0  0  0  0  0  0  0  0  0  0
   -2.1380   20.9790  -32.6490 C   0  0  0  0  0  0  0  0  0  0  0  0
   -1.0544   21.1663  -32.6219 H   0  0  0  0  0  0  0  0  0  0  0  0
   -3.0310   22.0220  -32.3930 C   0  0  0  0  0  0  0  0  0  0  0  0
   -2.6471   23.0280  -32.1683 H   0  0  0  0  0  0  0  0  0  0  0  0
   -3.5830   24.5730  -30.0620 C   0  0  0  0  0  0  0  0  0  0  0  0
   -3.8650   25.6770  -30.8630 O   0  0  0  0  0  0  0  0  0  0  0  0
   -2.4270   24.5720  -29.2700 C   0  0  0  0  0  0  0  0  0  0  0  0
   -1.5770   25.6740  -29.2940 O   0  0  0  0  0  0  0  0  0  0  0  0
  1  2  1  0
  2  3  1  0
  3  4  2  0
  4  5  1  0
  4  6  1  0
  6  7  1  0
  6  8  2  0
  8  9  1  0
  9 10  1  0
  9 11  1  0
  9 12  1  0
 12 13  1  0
 12 14  1  0
 14 15  2  0
 15 16  1  0
 15 17  1  0
 17 18  1  0
 17 19  2  0
 19 20  1  0
 20 21  2  0
 20 22  2  0
 20 23  1  0
 23 24  2  0
 24 25  1  0
 25 26  1  0
 26 27  2  0
 27 28  1  0
 28 29  1  0
 28 30  1  0
 28 31  1  0
 27 32  1  0
 19 33  1  0
 33 34  1  0
 33 35  2  0
 35 36  1  0
  8 37  1  0
 37 38  1  0
 37 39  2  0
 39 40  1  0
 39  3  1  0
 35 14  1  0
 32 24  1  0
M  CHG  3  25  -1  38  -1  40  -1
M  END
>  <UniqueID>  (25) 
25

>  <SMILES>  (25) 
Cc1n[n-]/c(=N/S(=O)(=O)c2ccc(NCc3ccc(O)c([O-])c3[O-])cc2)s1

>  <Energy>  (25) 
77.64721606134144

>  <Genealogy>  (25) 
Cc1n[n-]c(=NS(=O)(=O)c2ccc(NCc3ccc(O)c([O-])c3[O-])cc2)s1 (protonated)
Cc1n[n-]/c(=N/S(=O)(=O)c2ccc(NCc3ccc(O)c([O-])c3[O-])cc2)s1 (cis-trans isomerization)
Cc1n[n-]/c(=N/S(=O)(=O)c2ccc(NCc3ccc(O)c([O-])c3[O-])cc2)s1 (3D coordinates assigned)
Cc1n[n-]/c(=N/S(=O)(=O)c2ccc(NCc3ccc(O)c([O-])c3[O-])cc2)s1 (optimized conformer: 77.64721606134144 kcal/mol)

>  <smiles>  (25) 
Cc1n[nH]c(=NS(=O)(=O)c2ccc(NCc3ccc(O)c(O)c3O)cc2)s1

>  <score_type>  (25) 
oracle

>  <origin>  (25) 
adgpu

>  <m_score__min__energy>  (25) 
-14.130000000000001

>  <m_primary>  (25) 
energy

$$$$
25:0
     RDKit          3D

 43 45  0  0  0  0  0  0  0  0999 V2000
   -5.5510   24.6660  -28.9860 O   0  0  0  0  0  0  0  0  0  0  0  0
   -4.9750   24.9370  -30.0750 C   0  0  0  0  0  0  0  0  0  0  0  0
   -5.7670   24.9530  -31.3420 C   0  0  0  0  0  0  0  0  0  0  0  0
   -6.3080   23.5760  -31.6240 C   0  0  0  0  0  0  0  0  0  0  0  0
   -7.6130   23.2280  -31.2300 C   0  0  0  0  0  0  0  0  0  0  0  0
   -8.0970   21.9330  -31.4570 C   0  0  0  0  0  0  0  0  0  0  0  0
   -7.2790   20.9760  -32.0670 C   0  0  0  0  0  0  0  0  0  0  0  0
   -5.9760   21.3120  -32.4480 C   0  0  0  0  0  0  0  0  0  0  0  0
   -5.4890   22.6050  -32.2280 C   0  0  0  0  0  0  0  0  0  0  0  0
   -3.5530   25.1020  -30.1410 N   0  0  0  0  0  0  0  0  0  0  0  0
   -2.5500   24.3950  -29.3930 C   0  0  0  0  0  0  0  0  0  0  0  0
   -2.7000   23.0450  -29.0240 C   0  0  0  0  0  0  0  0  0  0  0  0
   -1.6740   22.3800  -28.3340 C   0  0  0  0  0  0  0  0  0  0  0  0
   -1.7940   20.6600  -27.9760 S   0  0  0  0  0  0  0  0  0  0  0  0
   -3.2080   20.2710  -27.6460 O   0  0  0  0  0  0  0  0  0  0  0  0
   -0.9230   20.3460  -26.7920 O   0  0  0  0  0  0  0  0  0  0  0  0
   -1.2360   19.7540  -29.3470 N   0  0  0  0  0  0  0  0  0  0  0  0
   -1.2560   20.2140  -30.7070 C   0  0  0  0  0  0  0  0  0  0  0  0
   -0.0810   20.3000  -31.4780 C   0  0  0  0  0  0  0  0  0  0  0  0
   -0.1370   20.7400  -32.8030 C   0  0  0  0  0  0  0  0  0  0  0  0
   -1.3590   21.1090  -33.3690 C   0  0  0  0  0  0  0  0  0  0  0  0
   -2.5310   21.0370  -32.6120 C   0  0  0  0  0  0  0  0  0  0  0  0
   -2.4850   20.5920  -31.2820 C   0  0  0  0  0  0  0  0  0  0  0  0
   -3.6580   20.5070  -30.5320 O   0  0  0  0  0  0  0  0  0  0  0  0
   -0.5120   23.0780  -27.9750 C   0  0  0  0  0  0  0  0  0  0  0  0
   -0.3810   24.4290  -28.2950 C   0  0  0  0  0  0  0  0  0  0  0  0
   -1.3920   25.0860  -29.0040 C   0  0  0  0  0  0  0  0  0  0  0  0
   -1.2360   26.4270  -29.3320 O   0  0  0  0  0  0  0  0  0  0  0  0
   -6.6035   25.6601  -31.2407 H   0  0  0  0  0  0  0  0  0  0  0  0
   -5.1165   25.2643  -32.1726 H   0  0  0  0  0  0  0  0  0  0  0  0
   -8.2557   23.9755  -30.7419 H   0  0  0  0  0  0  0  0  0  0  0  0
   -9.1212   21.6685  -31.1553 H   0  0  0  0  0  0  0  0  0  0  0  0
   -7.6604   19.9600  -32.2468 H   0  0  0  0  0  0  0  0  0  0  0  0
   -5.3318   20.5570  -32.9223 H   0  0  0  0  0  0  0  0  0  0  0  0
   -4.4627   22.8630  -32.5282 H   0  0  0  0  0  0  0  0  0  0  0  0
   -3.6260   22.5082  -29.2776 H   0  0  0  0  0  0  0  0  0  0  0  0
    0.8860   20.0194  -31.0350 H   0  0  0  0  0  0  0  0  0  0  0  0
    0.7840   20.7959  -33.4018 H   0  0  0  0  0  0  0  0  0  0  0  0
   -1.3989   21.4567  -34.4118 H   0  0  0  0  0  0  0  0  0  0  0  0
   -3.4922   21.3299  -33.0596 H   0  0  0  0  0  0  0  0  0  0  0  0
   -3.6480   20.2060  -29.5660 H   0  0  0  0  0  0  0  0  0  0  0  0
    0.2973   22.5592  -27.4403 H   0  0  0  0  0  0  0  0  0  0  0  0
    0.5205   24.9799  -27.9888 H   0  0  0  0  0  0  0  0  0  0  0  0
  1  2  2  0
  2  3  1  0
  3  4  1  0
  4  5  2  0
  5  6  1  0
  6  7  2  0
  7  8  1  0
  8  9  2  0
  2 10  1  0
 10 11  1  0
 11 12  2  0
 12 13  1  0
 13 14  1  0
 14 15  2  0
 14 16  2  0
 14 17  1  0
 17 18  1  0
 18 19  2  0
 19 20  1  0
 20 21  2  0
 21 22  1  0
 22 23  2  0
 23 24  1  0
 13 25  2  0
 25 26  1  0
 26 27  2  0
 27 28  1  0
  9  4  1  0
 27 11  1  0
 23 18  1  0
  3 29  1  0
  3 30  1  0
  5 31  1  0
  6 32  1  0
  7 33  1  0
  8 34  1  0
  9 35  1  0
 12 36  1  0
 19 37  1  0
 20 38  1  0
 21 39  1  0
 22 40  1  0
 24 41  1  0
 25 42  1  0
 26 43  1  0
M  CHG  3  10  -1  17  -1  28  -1
M  END
>  <UniqueID>  (26) 
26

>  <SMILES>  (26) 
O=C(Cc1ccccc1)[N-]c1cc(S(=O)(=O)[N-]c2ccccc2O)ccc1[O-]

>  <Energy>  (26) 
50.94060735489141

>  <Genealogy>  (26) 
O=C(Cc1ccccc1)[N-]c1cc(S(=O)(=O)[N-]c2ccccc2O)ccc1[O-] (protonated)
O=C(Cc1ccccc1)[N-]c1cc(S(=O)(=O)[N-]c2ccccc2O)ccc1[O-] (3D coordinates assigned)
O=C(Cc1ccccc1)[N-]c1cc(S(=O)(=O)[N-]c2ccccc2O)ccc1[O-] (optimized conformer: 50.94060735489141 kcal/mol)

>  <smiles>  (26) 
O=C(Cc1ccccc1)Nc1cc(S(=O)(=O)Nc2ccccc2O)ccc1O

>  <score_type>  (26) 
oracle

>  <origin>  (26) 
adgpu

>  <m_score__min__energy>  (26) 
-12.69

>  <m_primary>  (26) 
energy

$$$$
26:0
     RDKit          3D

 43 45  0  0  0  0  0  0  0  0999 V2000
   -1.2960   20.7410  -34.6270 N   0  0  0  0  0  0  0  0  0  0  0  0
   -0.8710   20.4010  -33.3000 C   0  0  0  0  0  0  0  0  0  0  0  0
    0.2900   19.6260  -33.1430 C   0  0  0  0  0  0  0  0  0  0  0  0
    0.7840   19.3360  -31.8700 C   0  0  0  0  0  0  0  0  0  0  0  0
    0.1250   19.8160  -30.7390 C   0  0  0  0  0  0  0  0  0  0  0  0
   -1.0370   20.5760  -30.8770 C   0  0  0  0  0  0  0  0  0  0  0  0
   -1.5570   20.8690  -32.1510 C   0  0  0  0  0  0  0  0  0  0  0  0
   -2.8320   21.6160  -32.2380 C   0  0  0  0  0  0  0  0  0  0  0  0
   -3.6430   21.3660  -33.1710 O   0  0  0  0  0  0  0  0  0  0  0  0
   -3.1490   22.6180  -31.2570 N   0  0  0  0  0  0  0  0  0  0  0  0
   -4.4580   23.1900  -31.0960 C   0  0  0  0  0  0  0  0  0  0  0  0
   -5.6150   22.4210  -31.3180 C   0  0  0  0  0  0  0  0  0  0  0  0
   -6.8880   22.9830  -31.1550 C   0  0  0  0  0  0  0  0  0  0  0  0
   -8.3340   22.0090  -31.4500 S   0  0  0  0  0  0  0  0  0  0  0  0
   -9.2870   22.7940  -32.3090 O   0  0  0  0  0  0  0  0  0  0  0  0
   -9.0130   21.7300  -30.1390 O   0  0  0  0  0  0  0  0  0  0  0  0
   -7.9780   20.4920  -32.2410 N   0  0  0  0  0  0  0  0  0  0  0  0
   -6.8550   19.7960  -31.6150 C   0  0  0  0  0  0  0  0  0  0  0  0
   -7.0410   18.3180  -31.9210 C   0  0  0  0  0  0  0  0  0  0  0  0
   -8.5090   18.1640  -32.2920 C   0  0  0  0  0  0  0  0  0  0  0  0
   -9.1030   19.5600  -32.1740 C   0  0  0  0  0  0  0  0  0  0  0  0
   -7.0070   24.3140  -30.7330 C   0  0  0  0  0  0  0  0  0  0  0  0
   -5.8650   25.0770  -30.4850 C   0  0  0  0  0  0  0  0  0  0  0  0
   -4.5940   24.5200  -30.6620 C   0  0  0  0  0  0  0  0  0  0  0  0
   -3.4690   25.2990  -30.4140 O   0  0  0  0  0  0  0  0  0  0  0  0
   -2.2590   21.0860  -34.8290 H   0  0  0  0  0  0  0  0  0  0  0  0
   -0.6090   20.7600  -35.4130 H   0  0  0  0  0  0  0  0  0  0  0  0
    0.8146   19.2442  -34.0312 H   0  0  0  0  0  0  0  0  0  0  0  0
    1.6941   18.7282  -31.7591 H   0  0  0  0  0  0  0  0  0  0  0  0
    0.5215   19.5954  -29.7370 H   0  0  0  0  0  0  0  0  0  0  0  0
   -1.5521   20.9501  -29.9799 H   0  0  0  0  0  0  0  0  0  0  0  0
   -2.3620   23.0140  -30.6950 H   0  0  0  0  0  0  0  0  0  0  0  0
   -5.5192   21.3683  -31.6225 H   0  0  0  0  0  0  0  0  0  0  0  0
   -5.9036   20.1546  -32.0348 H   0  0  0  0  0  0  0  0  0  0  0  0
   -6.8276   19.9782  -30.5305 H   0  0  0  0  0  0  0  0  0  0  0  0
   -6.3980   18.0148  -32.7604 H   0  0  0  0  0  0  0  0  0  0  0  0
   -6.7669   17.6851  -31.0641 H   0  0  0  0  0  0  0  0  0  0  0  0
   -8.6087   17.7888  -33.3212 H   0  0  0  0  0  0  0  0  0  0  0  0
   -9.0231   17.4436  -31.6388 H   0  0  0  0  0  0  0  0  0  0  0  0
   -9.8026   19.7474  -33.0019 H   0  0  0  0  0  0  0  0  0  0  0  0
   -9.6641   19.6776  -31.2352 H   0  0  0  0  0  0  0  0  0  0  0  0
   -8.0038   24.7589  -30.5968 H   0  0  0  0  0  0  0  0  0  0  0  0
   -5.9646   26.1198  -30.1493 H   0  0  0  0  0  0  0  0  0  0  0  0
  1  2  1  0
  2  3  2  0
  3  4  1  0
  4  5  2  0
  5  6  1  0
  6  7  2  0
  7  8  1  0
  8  9  2  0
  8 10  1  0
 10 11  1  0
 11 12  2  0
 12 13  1  0
 13 14  1  0
 14 15  2  0
 14 16  2  0
 14 17  1  0
 17 18  1  0
 18 19  1  0
 19 20  1  0
 20 21  1  0
 13 22  2  0
 22 23  1  0
 23 24  2  0
 24 25  1  0
  7  2  1  0
 24 11  1  0
 21 17  1  0
  1 26  1  0
  1 27  1  0
  3 28  1  0
  4 29  1  0
  5 30  1  0
  6 31  1  0
 10 32  1  0
 12 33  1  0
 18 34  1  0
 18 35  1  0
 19 36  1  0
 19 37  1  0
 20 38  1  0
 20 39  1  0
 21 40  1  0
 21 41  1  0
 22 42  1  0
 23 43  1  0
M  CHG  1  25  -1
M  END
>  <UniqueID>  (27) 
27

>  <SMILES>  (27) 
Nc1ccccc1C(=O)Nc1cc(S(=O)(=O)N2CCCC2)ccc1[O-]

>  <Energy>  (27) 
54.48270442595772

>  <Genealogy>  (27) 
Nc1ccccc1C(=O)Nc1cc(S(=O)(=O)N2CCCC2)ccc1[O-] (protonated)
Nc1ccccc1C(=O)Nc1cc(S(=O)(=O)N2CCCC2)ccc1[O-] (3D coordinates assigned)
Nc1ccccc1C(=O)Nc1cc(S(=O)(=O)N2CCCC2)ccc1[O-] (nonaromatic ring conformer: 54.48270442595772 kcal/mol)

>  <smiles>  (27) 
Nc1ccccc1C(=O)Nc1cc(S(=O)(=O)N2CCCC2)ccc1O

>  <score_type>  (27) 
oracle

>  <origin>  (27) 
adgpu

>  <m_score__min__energy>  (27) 
-11.949999999999999

>  <m_primary>  (27) 
energy

$$$$
27:0
     RDKit          3D

 56 59  0  0  0  0  0  0  0  0999 V2000
   -2.7940   20.3620  -31.5480 O   0  0  0  0  0  0  0  0  0  0  0  0
   -2.7410   21.4690  -30.9490 C   0  0  0  0  0  0  0  0  0  0  0  0
   -3.2810   22.6430  -31.5670 N   0  0  0  0  0  0  0  0  0  0  0  0
   -4.5350   23.2490  -31.2310 C   0  0  0  0  0  0  0  0  0  0  0  0
   -5.7130   22.5430  -31.5070 C   0  0  0  0  0  0  0  0  0  0  0  0
   -6.9640   23.0920  -31.1910 C   0  0  0  0  0  0  0  0  0  0  0  0
   -8.4420   22.1810  -31.5180 S   0  0  0  0  0  0  0  0  0  0  0  0
   -9.4550   23.0950  -32.1500 O   0  0  0  0  0  0  0  0  0  0  0  0
   -9.0140   21.6880  -30.2170 O   0  0  0  0  0  0  0  0  0  0  0  0
   -8.1570   20.8160  -32.5780 N   0  0  0  0  0  0  0  0  0  0  0  0
   -9.3580   19.9760  -32.7070 C   0  0  0  0  0  0  0  0  0  0  0  0
   -9.0980   18.6420  -32.0170 C   0  0  0  0  0  0  0  0  0  0  0  0
   -7.7530   18.7870  -31.3430 C   0  0  0  0  0  0  0  0  0  0  0  0
   -7.0950   19.9520  -32.0530 C   0  0  0  0  0  0  0  0  0  0  0  0
   -7.0310   24.3640  -30.6070 C   0  0  0  0  0  0  0  0  0  0  0  0
   -5.8610   25.0880  -30.3590 C   0  0  0  0  0  0  0  0  0  0  0  0
   -4.6140   24.5410  -30.6780 C   0  0  0  0  0  0  0  0  0  0  0  0
   -3.4670   25.2980  -30.4680 O   0  0  0  0  0  0  0  0  0  0  0  0
   -2.0640   21.5680  -29.6360 C   0  0  0  0  0  0  0  0  0  0  0  0
   -2.2180   20.5530  -28.6760 C   0  0  0  0  0  0  0  0  0  0  0  0
   -1.5970   20.6590  -27.4300 C   0  0  0  0  0  0  0  0  0  0  0  0
   -0.8350   21.7870  -27.1190 C   0  0  0  0  0  0  0  0  0  0  0  0
   -0.6800   22.8130  -28.0600 C   0  0  0  0  0  0  0  0  0  0  0  0
    0.2330   24.2580  -27.6350 S   0  0  0  0  0  0  0  0  0  0  0  0
    0.7230   24.1030  -26.2200 O   0  0  0  0  0  0  0  0  0  0  0  0
    1.4160   24.3840  -28.5580 O   0  0  0  0  0  0  0  0  0  0  0  0
   -0.7950   25.6730  -27.7690 N   0  0  0  0  0  0  0  0  0  0  0  0
   -2.2220   25.3150  -27.7800 C   0  0  0  0  0  0  0  0  0  0  0  0
   -2.7240   24.8700  -26.3870 C   0  0  0  0  0  0  0  0  0  0  0  0
   -1.8790   25.2730  -25.3240 O   0  0  0  0  0  0  0  0  0  0  0  0
   -1.4390   26.6000  -25.5200 C   0  0  0  0  0  0  0  0  0  0  0  0
   -0.4840   26.6800  -26.7280 C   0  0  0  0  0  0  0  0  0  0  0  0
   -1.2880   22.6980  -29.3160 C   0  0  0  0  0  0  0  0  0  0  0  0
   -5.6562   21.5494  -31.9756 H   0  0  0  0  0  0  0  0  0  0  0  0
  -10.2136   20.4780  -32.2316 H   0  0  0  0  0  0  0  0  0  0  0  0
   -9.5865   19.8097  -33.7701 H   0  0  0  0  0  0  0  0  0  0  0  0
   -9.8805   18.4365  -31.2718 H   0  0  0  0  0  0  0  0  0  0  0  0
   -9.1064   17.8061  -32.7319 H   0  0  0  0  0  0  0  0  0  0  0  0
   -7.8766   19.0044  -30.2718 H   0  0  0  0  0  0  0  0  0  0  0  0
   -7.1532   17.8671  -31.4055 H   0  0  0  0  0  0  0  0  0  0  0  0
   -6.4694   20.5161  -31.3456 H   0  0  0  0  0  0  0  0  0  0  0  0
   -6.4546   19.5907  -32.8712 H   0  0  0  0  0  0  0  0  0  0  0  0
   -8.0081   24.7946  -30.3426 H   0  0  0  0  0  0  0  0  0  0  0  0
   -5.9214   26.0911  -29.9115 H   0  0  0  0  0  0  0  0  0  0  0  0
   -2.8315   19.6698  -28.9077 H   0  0  0  0  0  0  0  0  0  0  0  0
   -1.7083   19.8516  -26.6913 H   0  0  0  0  0  0  0  0  0  0  0  0
   -0.3553   21.8701  -26.1326 H   0  0  0  0  0  0  0  0  0  0  0  0
   -2.8043   26.1905  -28.1032 H   0  0  0  0  0  0  0  0  0  0  0  0
   -2.3524   24.4696  -28.4715 H   0  0  0  0  0  0  0  0  0  0  0  0
   -3.7213   25.3037  -26.2219 H   0  0  0  0  0  0  0  0  0  0  0  0
   -2.7406   23.7701  -26.3865 H   0  0  0  0  0  0  0  0  0  0  0  0
   -2.3097   27.2466  -25.7036 H   0  0  0  0  0  0  0  0  0  0  0  0
   -0.9021   26.9332  -24.6196 H   0  0  0  0  0  0  0  0  0  0  0  0
   -0.5628   27.6827  -27.1734 H   0  0  0  0  0  0  0  0  0  0  0  0
    0.5332   26.4769  -26.3620 H   0  0  0  0  0  0  0  0  0  0  0  0
   -1.1581   23.4981  -30.0596 H   0  0  0  0  0  0  0  0  0  0  0  0
  1  2  2  0
  2  3  1  0
  3  4  1  0
  4  5  2  0
  5  6  1  0
  6  7  1  0
  7  8  2  0
  7  9  2  0
  7 10  1  0
 10 11  1  0
 11 12  1  0
 12 13  1  0
 13 14  1  0
  6 15  2  0
 15 16  1  0
 16 17  2  0
 17 18  1  0
  2 19  1  0
 19 20  2  0
 20 21  1  0
 21 22  2  0
 22 23  1  0
 23 24  1  0
 24 25  2  0
 24 26  2  0
 24 27  1  0
 27 28  1  0
 28 29  1  0
 29 30  1  0
 30 31  1  0
 31 32  1  0
 23 33  2  0
 17  4  1  0
 33 19  1  0
 14 10  1  0
 32 27  1  0
  5 34  1  0
 11 35  1  0
 11 36  1  0
 12 37  1  0
 12 38  1  0
 13 39  1  0
 13 40  1  0
 14 41  1  0
 14 42  1  0
 15 43  1  0
 16 44  1  0
 20 45  1  0
 21 46  1  0
 22 47  1  0
 28 48  1  0
 28 49  1  0
 29 50  1  0
 29 51  1  0
 31 52  1  0
 31 53  1  0
 32 54  1  0
 32 55  1  0
 33 56  1  0
M  CHG  2   3  -1  18  -1
M  END
>  <UniqueID>  (28) 
28

>  <SMILES>  (28) 
O=C([N-]c1cc(S(=O)(=O)N2CCCC2)ccc1[O-])c1cccc(S(=O)(=O)N2CCOCC2)c1

>  <Energy>  (28) 
76.5693525218427

>  <Genealogy>  (28) 
O=C([N-]c1cc(S(=O)(=O)N2CCCC2)ccc1[O-])c1cccc(S(=O)(=O)N2CCOCC2)c1 (protonated)
O=C([N-]c1cc(S(=O)(=O)N2CCCC2)ccc1[O-])c1cccc(S(=O)(=O)N2CCOCC2)c1 (3D coordinates assigned)
O=C([N-]c1cc(S(=O)(=O)N2CCCC2)ccc1[O-])c1cccc(S(=O)(=O)N2CCOCC2)c1 (nonaromatic ring conformer: 76.5693525218427 kcal/mol)

>  <smiles>  (28) 
O=C(Nc1cc(S(=O)(=O)N2CCCC2)ccc1O)c1cccc(S(=O)(=O)N2CCOCC2)c1

>  <score_type>  (28) 
oracle

>  <origin>  (28) 
adgpu

>  <m_score__min__energy>  (28) 
-14.6

>  <m_primary>  (28) 
energy

$$$$
28:0
     RDKit          3D

 52 53  0  0  0  0  0  0  0  0999 V2000
   -1.0860   21.2150  -32.8750 C   0  0  0  0  0  0  0  0  0  0  0  0
   -1.1320   21.0160  -31.3630 C   0  0  0  0  0  0  0  0  0  0  0  0
   -2.2330   21.7990  -30.7580 N   0  0  0  0  0  0  0  0  0  0  0  0
   -3.1330   20.9900  -29.9000 C   0  0  0  0  0  0  0  0  0  0  0  0
   -2.3900   20.5710  -28.6390 C   0  0  0  0  0  0  0  0  0  0  0  0
   -1.7530   23.0290  -30.0880 C   0  0  0  0  0  0  0  0  0  0  0  0
   -2.8860   23.8810  -29.4790 C   0  0  0  0  0  0  0  0  0  0  0  0
   -3.5010   24.7390  -30.4940 N   0  0  0  0  0  0  0  0  0  0  0  0
   -5.2130   24.9300  -30.2360 S   0  0  0  0  0  0  0  0  0  0  0  0
   -5.4810   24.9870  -28.7580 O   0  0  0  0  0  0  0  0  0  0  0  0
   -5.6920   26.2160  -30.8550 O   0  0  0  0  0  0  0  0  0  0  0  0
   -6.0850   23.5570  -30.9080 C   0  0  0  0  0  0  0  0  0  0  0  0
   -7.4570   23.4230  -30.6610 C   0  0  0  0  0  0  0  0  0  0  0  0
   -8.1590   22.3300  -31.1750 C   0  0  0  0  0  0  0  0  0  0  0  0
   -7.4950   21.3650  -31.9380 C   0  0  0  0  0  0  0  0  0  0  0  0
   -6.1210   21.4910  -32.1910 C   0  0  0  0  0  0  0  0  0  0  0  0
   -5.2780   20.2750  -33.1530 S   0  0  0  0  0  0  0  0  0  0  0  0
   -3.9510   20.8280  -33.5940 O   0  0  0  0  0  0  0  0  0  0  0  0
   -6.0870   19.9900  -34.3870 O   0  0  0  0  0  0  0  0  0  0  0  0
   -5.0170   18.7820  -32.2750 N   0  0  0  0  0  0  0  0  0  0  0  0
   -6.2100   18.3530  -31.5230 C   0  0  0  0  0  0  0  0  0  0  0  0
   -7.2360   17.5910  -32.3970 C   0  0  0  0  0  0  0  0  0  0  0  0
   -6.7420   17.2570  -33.6790 O   0  0  0  0  0  0  0  0  0  0  0  0
   -5.4680   16.6690  -33.5600 C   0  0  0  0  0  0  0  0  0  0  0  0
   -4.4330   17.7160  -33.1170 C   0  0  0  0  0  0  0  0  0  0  0  0
   -5.4180   22.5850  -31.6690 C   0  0  0  0  0  0  0  0  0  0  0  0
   -0.8435   22.2642  -33.0995 H   0  0  0  0  0  0  0  0  0  0  0  0
   -0.3156   20.5599  -33.3078 H   0  0  0  0  0  0  0  0  0  0  0  0
   -2.0657   20.9644  -33.3078 H   0  0  0  0  0  0  0  0  0  0  0  0
   -1.2875   19.9490  -31.1452 H   0  0  0  0  0  0  0  0  0  0  0  0
   -0.1796   21.3620  -30.9349 H   0  0  0  0  0  0  0  0  0  0  0  0
   -4.0136   21.5890  -29.6249 H   0  0  0  0  0  0  0  0  0  0  0  0
   -3.4565   20.0940  -30.4500 H   0  0  0  0  0  0  0  0  0  0  0  0
   -2.9593   20.8920  -27.7542 H   0  0  0  0  0  0  0  0  0  0  0  0
   -2.2781   19.4768  -28.6258 H   0  0  0  0  0  0  0  0  0  0  0  0
   -1.3958   21.0414  -28.6258 H   0  0  0  0  0  0  0  0  0  0  0  0
   -1.0632   22.7395  -29.2815 H   0  0  0  0  0  0  0  0  0  0  0  0
   -1.2623   23.6450  -30.8560 H   0  0  0  0  0  0  0  0  0  0  0  0
   -3.6529   23.2130  -29.0600 H   0  0  0  0  0  0  0  0  0  0  0  0
   -2.4596   24.5199  -28.6916 H   0  0  0  0  0  0  0  0  0  0  0  0
   -7.9831   24.1801  -30.0609 H   0  0  0  0  0  0  0  0  0  0  0  0
   -9.2366   22.2285  -30.9789 H   0  0  0  0  0  0  0  0  0  0  0  0
   -8.0509   20.5054  -32.3407 H   0  0  0  0  0  0  0  0  0  0  0  0
   -5.8890   17.6929  -30.7037 H   0  0  0  0  0  0  0  0  0  0  0  0
   -6.7067   19.2606  -31.1493 H   0  0  0  0  0  0  0  0  0  0  0  0
   -7.5149   16.6622  -31.8778 H   0  0  0  0  0  0  0  0  0  0  0  0
   -8.0973   18.2592  -32.5444 H   0  0  0  0  0  0  0  0  0  0  0  0
   -5.5096   15.8622  -32.8134 H   0  0  0  0  0  0  0  0  0  0  0  0
   -5.1694   16.2642  -34.5382 H   0  0  0  0  0  0  0  0  0  0  0  0
   -3.6437   17.2083  -32.5432 H   0  0  0  0  0  0  0  0  0  0  0  0
   -4.0363   18.1930  -34.0254 H   0  0  0  0  0  0  0  0  0  0  0  0
   -4.3385   22.6822  -31.8566 H   0  0  0  0  0  0  0  0  0  0  0  0
  1  2  1  0
  2  3  1  0
  3  4  1  0
  4  5  1  0
  3  6  1  0
  6  7  1  0
  7  8  1  0
  8  9  1  0
  9 10  2  0
  9 11  2  0
  9 12  1  0
 12 13  2  0
 13 14  1  0
 14 15  2  0
 15 16  1  0
 16 17  1  0
 17 18  2  0
 17 19  2  0
 17 20  1  0
 20 21  1  0
 21 22  1  0
 22 23  1  0
 23 24  1  0
 24 25  1  0
 16 26  2  0
 26 12  1  0
 25 20  1  0
  1 27  1  0
  1 28  1  0
  1 29  1  0
  2 30  1  0
  2 31  1  0
  4 32  1  0
  4 33  1  0
  5 34  1  0
  5 35  1  0
  5 36  1  0
  6 37  1  0
  6 38  1  0
  7 39  1  0
  7 40  1  0
 13 41  1  0
 14 42  1  0
 15 43  1  0
 21 44  1  0
 21 45  1  0
 22 46  1  0
 22 47  1  0
 24 48  1  0
 24 49  1  0
 25 50  1  0
 25 51  1  0
 26 52  1  0
M  CHG  1   8  -1
M  END
>  <UniqueID>  (29) 
29

>  <SMILES>  (29) 
CCN(CC)CC[N-]S(=O)(=O)c1cccc(S(=O)(=O)N2CCOCC2)c1

>  <Energy>  (29) 
59.83195356107729

>  <Genealogy>  (29) 
CCN(CC)CC[N-]S(=O)(=O)c1cccc(S(=O)(=O)N2CCOCC2)c1 (protonated)
CCN(CC)CC[N-]S(=O)(=O)c1cccc(S(=O)(=O)N2CCOCC2)c1 (3D coordinates assigned)
CCN(CC)CC[N-]S(=O)(=O)c1cccc(S(=O)(=O)N2CCOCC2)c1 (nonaromatic ring conformer: 59.83195356107729 kcal/mol)

>  <smiles>  (29) 
CCN(CC)CCNS(=O)(=O)c1cccc(S(=O)(=O)N2CCOCC2)c1

>  <score_type>  (29) 
oracle

>  <origin>  (29) 
adgpu

>  <m_score__min__energy>  (29) 
-9.3900000000000006

>  <m_primary>  (29) 
energy

$$$$
29:0
     RDKit          3D

 42 45  0  0  0  0  0  0  0  0999 V2000
   -0.5700   23.3660  -28.0120 C   0  0  0  0  0  0  0  0  0  0  0  0
   -1.7110   23.6130  -28.8890 N   0  0  0  0  0  0  0  0  0  0  0  0
   -2.4860   22.6780  -29.4840 C   0  0  0  0  0  0  0  0  0  0  0  0
   -3.4130   23.2950  -30.3120 C   0  0  0  0  0  0  0  0  0  0  0  0
   -4.4320   22.6300  -31.1410 C   0  0  0  0  0  0  0  0  0  0  0  0
   -5.0520   23.2860  -32.0220 O   0  0  0  0  0  0  0  0  0  0  0  0
   -4.7250   21.2460  -30.9320 N   0  0  0  0  0  0  0  0  0  0  0  0
   -5.3230   20.3820  -31.9430 C   0  0  0  0  0  0  0  0  0  0  0  0
   -4.2470   19.5920  -32.6440 C   0  0  0  0  0  0  0  0  0  0  0  0
   -3.1090   20.2530  -33.1440 C   0  0  0  0  0  0  0  0  0  0  0  0
   -2.0570   19.5300  -33.7360 C   0  0  0  0  0  0  0  0  0  0  0  0
   -0.8350   20.2050  -34.2320 C   0  0  0  0  0  0  0  0  0  0  0  0
    0.4890   19.8450  -33.9600 C   0  0  0  0  0  0  0  0  0  0  0  0
    1.2440   20.7520  -34.6680 C   0  0  0  0  0  0  0  0  0  0  0  0
    2.6260   20.8850  -34.8120 C   0  0  0  0  0  0  0  0  0  0  0  0
    3.5030   20.0270  -34.1600 O   0  0  0  0  0  0  0  0  0  0  0  0
    3.1070   21.9150  -35.6410 C   0  0  0  0  0  0  0  0  0  0  0  0
    2.2030   22.7810  -36.3000 C   0  0  0  0  0  0  0  0  0  0  0  0
    2.6900   23.7910  -37.1210 O   0  0  0  0  0  0  0  0  0  0  0  0
    0.8120   22.6220  -36.1310 C   0  0  0  0  0  0  0  0  0  0  0  0
    0.3700   21.5880  -35.3080 C   0  0  0  0  0  0  0  0  0  0  0  0
   -0.8680   21.2530  -35.0400 O   0  0  0  0  0  0  0  0  0  0  0  0
   -2.1640   18.1330  -33.8350 C   0  0  0  0  0  0  0  0  0  0  0  0
   -3.2940   17.4710  -33.3490 C   0  0  0  0  0  0  0  0  0  0  0  0
   -4.3300   18.1900  -32.7480 C   0  0  0  0  0  0  0  0  0  0  0  0
   -5.4380   17.5040  -32.2590 O   0  0  0  0  0  0  0  0  0  0  0  0
   -3.1760   24.6550  -30.2060 C   0  0  0  0  0  0  0  0  0  0  0  0
   -3.8700   25.6730  -30.8520 O   0  0  0  0  0  0  0  0  0  0  0  0
   -2.1260   24.8140  -29.3330 C   0  0  0  0  0  0  0  0  0  0  0  0
   -1.5630   26.0290  -28.9570 O   0  0  0  0  0  0  0  0  0  0  0  0
   -0.8923   23.4358  -26.9626 H   0  0  0  0  0  0  0  0  0  0  0  0
   -0.1691   22.3603  -28.2064 H   0  0  0  0  0  0  0  0  0  0  0  0
    0.2110   24.1159  -28.2064 H   0  0  0  0  0  0  0  0  0  0  0  0
   -2.3952   21.5920  -29.3342 H   0  0  0  0  0  0  0  0  0  0  0  0
   -6.0281   19.6894  -31.4602 H   0  0  0  0  0  0  0  0  0  0  0  0
   -5.8558   21.0013  -32.6796 H   0  0  0  0  0  0  0  0  0  0  0  0
   -3.0414   21.3485  -33.0710 H   0  0  0  0  0  0  0  0  0  0  0  0
    0.8463   19.0221  -33.3235 H   0  0  0  0  0  0  0  0  0  0  0  0
    4.1905   22.0475  -35.7773 H   0  0  0  0  0  0  0  0  0  0  0  0
    0.0988   23.2926  -36.6327 H   0  0  0  0  0  0  0  0  0  0  0  0
   -1.3511   17.5553  -34.2992 H   0  0  0  0  0  0  0  0  0  0  0  0
   -3.3685   16.3773  -33.4401 H   0  0  0  0  0  0  0  0  0  0  0  0
  1  2  1  0
  2  3  1  0
  3  4  2  0
  4  5  1  0
  5  6  2  0
  5  7  1  0
  7  8  1  0
  8  9  1  0
  9 10  2  0
 10 11  1  0
 11 12  1  0
 12 13  2  0
 13 14  1  0
 14 15  2  0
 15 16  1  0
 15 17  1  0
 17 18  2  0
 18 19  1  0
 18 20  1  0
 20 21  2  0
 21 22  1  0
 11 23  2  0
 23 24  1  0
 24 25  2  0
 25 26  1  0
  4 27  1  0
 27 28  1  0
 27 29  2  0
 29 30  1  0
 29  2  1  0
 25  9  1  0
 22 12  1  0
 21 14  1  0
  1 31  1  0
  1 32  1  0
  1 33  1  0
  3 34  1  0
  8 35  1  0
  8 36  1  0
 10 37  1  0
 13 38  1  0
 17 39  1  0
 20 40  1  0
 23 41  1  0
 24 42  1  0
M  CHG  6   7  -1  16  -1  19  -1  26  -1  28  -1  30  -1
M  END
>  <UniqueID>  (30) 
30

>  <SMILES>  (30) 
Cn1cc(C(=O)[N-]Cc2cc(-c3cc4c([O-])cc([O-])cc4o3)ccc2[O-])c([O-])c1[O-]

>  <Energy>  (30) 
108.76123674547986

>  <Genealogy>  (30) 
Cn1cc(C(=O)[N-]Cc2cc(-c3cc4c([O-])cc([O-])cc4o3)ccc2[O-])c([O-])c1[O-] (protonated)
Cn1cc(C(=O)[N-]Cc2cc(-c3cc4c([O-])cc([O-])cc4o3)ccc2[O-])c([O-])c1[O-] (3D coordinates assigned)
Cn1cc(C(=O)[N-]Cc2cc(-c3cc4c([O-])cc([O-])cc4o3)ccc2[O-])c([O-])c1[O-] (optimized conformer: 108.76123674547986 kcal/mol)

>  <smiles>  (30) 
Cn1cc(C(=O)NCc2cc(-c3cc4c(O)cc(O)cc4o3)ccc2O)c(O)c1O

>  <score_type>  (30) 
oracle

>  <origin>  (30) 
adgpu

>  <m_score__min__energy>  (30) 
-14.06

>  <m_primary>  (30) 
energy

$$$$
30:0
     RDKit          3D

 55 58  0  0  0  0  0  0  0  0999 V2000
   -5.7340   26.4560  -30.2760 O   0  0  0  0  0  0  0  0  0  0  0  0
   -5.2140   25.3480  -30.5700 C   0  0  0  0  0  0  0  0  0  0  0  0
   -3.7940   25.1830  -30.4640 N   0  0  0  0  0  0  0  0  0  0  0  0
   -3.2020   24.2680  -29.5330 C   0  0  0  0  0  0  0  0  0  0  0  0
   -3.9330   23.1690  -29.0510 C   0  0  0  0  0  0  0  0  0  0  0  0
   -3.3980   22.3550  -28.0510 C   0  0  0  0  0  0  0  0  0  0  0  0
   -2.1430   22.6420  -27.5120 C   0  0  0  0  0  0  0  0  0  0  0  0
   -1.4100   23.7440  -27.9790 C   0  0  0  0  0  0  0  0  0  0  0  0
    0.1190   24.1790  -27.2100 S   0  0  0  0  0  0  0  0  0  0  0  0
    1.1170   24.5460  -28.2740 O   0  0  0  0  0  0  0  0  0  0  0  0
    0.6500   22.9860  -26.4640 O   0  0  0  0  0  0  0  0  0  0  0  0
   -0.0500   25.5160  -26.0970 N   0  0  0  0  0  0  0  0  0  0  0  0
    0.1180   25.1030  -24.7030 C   0  0  0  0  0  0  0  0  0  0  0  0
   -0.6260   26.1280  -23.8620 C   0  0  0  0  0  0  0  0  0  0  0  0
   -1.6230   26.7780  -24.8110 C   0  0  0  0  0  0  0  0  0  0  0  0
   -1.3780   26.1230  -26.1630 C   0  0  0  0  0  0  0  0  0  0  0  0
   -1.9270   24.5290  -29.0200 C   0  0  0  0  0  0  0  0  0  0  0  0
   -6.0640   24.2270  -31.0170 C   0  0  0  0  0  0  0  0  0  0  0  0
   -5.8660   23.6450  -32.2770 C   0  0  0  0  0  0  0  0  0  0  0  0
   -6.5210   22.4530  -32.6070 C   0  0  0  0  0  0  0  0  0  0  0  0
   -7.3880   21.8440  -31.6870 C   0  0  0  0  0  0  0  0  0  0  0  0
   -8.0810   20.2560  -32.0240 S   0  0  0  0  0  0  0  0  0  0  0  0
   -8.7870   19.7580  -30.7950 O   0  0  0  0  0  0  0  0  0  0  0  0
   -9.0950   20.3840  -33.1270 O   0  0  0  0  0  0  0  0  0  0  0  0
   -6.8660   19.0900  -32.5010 N   0  0  0  0  0  0  0  0  0  0  0  0
   -6.3320   19.3650  -33.8340 C   0  0  0  0  0  0  0  0  0  0  0  0
   -5.8230   18.0400  -34.3770 C   0  0  0  0  0  0  0  0  0  0  0  0
   -6.5360   16.9720  -33.5620 C   0  0  0  0  0  0  0  0  0  0  0  0
   -7.4020   17.7320  -32.5680 C   0  0  0  0  0  0  0  0  0  0  0  0
   -7.6550   22.4790  -30.4670 C   0  0  0  0  0  0  0  0  0  0  0  0
   -6.9900   23.6570  -30.1300 C   0  0  0  0  0  0  0  0  0  0  0  0
   -4.9292   22.9496  -29.4626 H   0  0  0  0  0  0  0  0  0  0  0  0
   -3.9663   21.4862  -27.6874 H   0  0  0  0  0  0  0  0  0  0  0  0
   -1.7273   22.0028  -26.7191 H   0  0  0  0  0  0  0  0  0  0  0  0
   -0.3091   24.1011  -24.5484 H   0  0  0  0  0  0  0  0  0  0  0  0
    1.1814   25.0541  -24.4257 H   0  0  0  0  0  0  0  0  0  0  0  0
   -1.1506   25.6360  -23.0297 H   0  0  0  0  0  0  0  0  0  0  0  0
    0.0568   26.8660  -23.4157 H   0  0  0  0  0  0  0  0  0  0  0  0
   -2.6534   26.5917  -24.4739 H   0  0  0  0  0  0  0  0  0  0  0  0
   -1.4946   27.8696  -24.8553 H   0  0  0  0  0  0  0  0  0  0  0  0
   -2.1388   25.3521  -26.3550 H   0  0  0  0  0  0  0  0  0  0  0  0
   -1.4381   26.8594  -26.9779 H   0  0  0  0  0  0  0  0  0  0  0  0
   -1.3277   25.3530  -29.4346 H   0  0  0  0  0  0  0  0  0  0  0  0
   -5.1963   24.1249  -33.0058 H   0  0  0  0  0  0  0  0  0  0  0  0
   -6.3554   21.9916  -33.5917 H   0  0  0  0  0  0  0  0  0  0  0  0
   -7.1235   19.7638  -34.4856 H   0  0  0  0  0  0  0  0  0  0  0  0
   -5.5271   20.1137  -33.7933 H   0  0  0  0  0  0  0  0  0  0  0  0
   -6.0710   17.9401  -35.4440 H   0  0  0  0  0  0  0  0  0  0  0  0
   -4.7292   17.9562  -34.2953 H   0  0  0  0  0  0  0  0  0  0  0  0
   -7.1602   16.3433  -34.2140 H   0  0  0  0  0  0  0  0  0  0  0  0
   -5.8256   16.3016  -33.0562 H   0  0  0  0  0  0  0  0  0  0  0  0
   -8.4464   17.7527  -32.9125 H   0  0  0  0  0  0  0  0  0  0  0  0
   -7.3873   17.2502  -31.5792 H   0  0  0  0  0  0  0  0  0  0  0  0
   -8.3912   22.0469  -29.7733 H   0  0  0  0  0  0  0  0  0  0  0  0
   -7.1922   24.1422  -29.1637 H   0  0  0  0  0  0  0  0  0  0  0  0
  1  2  2  0
  2  3  1  0
  3  4  1  0
  4  5  2  0
  5  6  1  0
  6  7  2  0
  7  8  1  0
  8  9  1  0
  9 10  2  0
  9 11  2  0
  9 12  1  0
 12 13  1  0
 13 14  1  0
 14 15  1  0
 15 16  1  0
  8 17  2  0
  2 18  1  0
 18 19  2  0
 19 20  1  0
 20 21  2  0
 21 22  1  0
 22 23  2  0
 22 24  2  0
 22 25  1  0
 25 26  1  0
 26 27  1  0
 27 28  1  0
 28 29  1  0
 21 30  1  0
 30 31  2  0
 17  4  1  0
 31 18  1  0
 16 12  1  0
 29 25  1  0
  5 32  1  0
  6 33  1  0
  7 34  1  0
 13 35  1  0
 13 36  1  0
 14 37  1  0
 14 38  1  0
 15 39  1  0
 15 40  1  0
 16 41  1  0
 16 42  1  0
 17 43  1  0
 19 44  1  0
 20 45  1  0
 26 46  1  0
 26 47  1  0
 27 48  1  0
 27 49  1  0
 28 50  1  0
 28 51  1  0
 29 52  1  0
 29 53  1  0
 30 54  1  0
 31 55  1  0
M  CHG  1   3  -1
M  END
>  <UniqueID>  (31) 
31

>  <SMILES>  (31) 
O=C([N-]c1cccc(S(=O)(=O)N2CCCC2)c1)c1ccc(S(=O)(=O)N2CCCC2)cc1

>  <Energy>  (31) 
64.48792929123528

>  <Genealogy>  (31) 
O=C([N-]c1cccc(S(=O)(=O)N2CCCC2)c1)c1ccc(S(=O)(=O)N2CCCC2)cc1 (protonated)
O=C([N-]c1cccc(S(=O)(=O)N2CCCC2)c1)c1ccc(S(=O)(=O)N2CCCC2)cc1 (3D coordinates assigned)
O=C([N-]c1cccc(S(=O)(=O)N2CCCC2)c1)c1ccc(S(=O)(=O)N2CCCC2)cc1 (nonaromatic ring conformer: 64.48792929123528 kcal/mol)

>  <smiles>  (31) 
O=C(Nc1cccc(S(=O)(=O)N2CCCC2)c1)c1ccc(S(=O)(=O)N2CCCC2)cc1

>  <score_type>  (31) 
oracle

>  <origin>  (31) 
adgpu

>  <m_score__min__energy>  (31) 
-13.279999999999999

>  <m_primary>  (31) 
energy

$$$$
31:0
     RDKit          3D

 58 61  0  0  0  0  0  0  0  0999 V2000
    3.9750   21.2050  -35.6350 C   0  0  0  0  0  0  0  0  0  0  0  0
    2.9310   22.2160  -35.4330 N   0  0  0  0  0  0  0  0  0  0  0  0
    3.1970   23.6190  -35.7720 C   0  0  0  0  0  0  0  0  0  0  0  0
    1.6220   21.8420  -34.9470 C   0  0  0  0  0  0  0  0  0  0  0  0
    0.6660   22.6720  -34.9990 O   0  0  0  0  0  0  0  0  0  0  0  0
    1.3640   20.5050  -34.3730 C   0  0  0  0  0  0  0  0  0  0  0  0
    2.3280   19.9480  -33.5160 C   0  0  0  0  0  0  0  0  0  0  0  0
    2.1200   18.7030  -32.9300 C   0  0  0  0  0  0  0  0  0  0  0  0
    0.9390   18.0040  -33.1800 C   0  0  0  0  0  0  0  0  0  0  0  0
   -0.0620   18.5380  -34.0200 C   0  0  0  0  0  0  0  0  0  0  0  0
   -1.2910   17.7810  -34.1680 N   0  0  0  0  0  0  0  0  0  0  0  0
   -2.6180   18.3090  -34.0860 C   0  0  0  0  0  0  0  0  0  0  0  0
   -3.1390   19.5680  -33.8470 C   0  0  0  0  0  0  0  0  0  0  0  0
   -2.5860   20.8720  -33.6590 N   0  0  0  0  0  0  0  0  0  0  0  0
   -2.3880   21.4360  -32.3520 C   0  0  0  0  0  0  0  0  0  0  0  0
   -1.2730   21.0590  -31.5860 C   0  0  0  0  0  0  0  0  0  0  0  0
   -1.0560   21.6370  -30.3310 C   0  0  0  0  0  0  0  0  0  0  0  0
   -1.9590   22.5810  -29.8260 C   0  0  0  0  0  0  0  0  0  0  0  0
   -3.0980   22.9390  -30.5650 C   0  0  0  0  0  0  0  0  0  0  0  0
   -4.2490   24.1160  -29.9200 S   0  0  0  0  0  0  0  0  0  0  0  0
   -4.2360   25.3480  -30.7860 O   0  0  0  0  0  0  0  0  0  0  0  0
   -3.8140   24.5220  -28.5390 O   0  0  0  0  0  0  0  0  0  0  0  0
   -5.8820   23.4880  -29.8740 N   0  0  0  0  0  0  0  0  0  0  0  0
   -6.8030   24.3590  -30.6130 C   0  0  0  0  0  0  0  0  0  0  0  0
   -6.9930   23.7730  -32.0050 C   0  0  0  0  0  0  0  0  0  0  0  0
   -6.5900   22.3150  -31.8890 C   0  0  0  0  0  0  0  0  0  0  0  0
   -5.9690   22.1620  -30.5030 C   0  0  0  0  0  0  0  0  0  0  0  0
   -3.3120   22.3580  -31.8240 C   0  0  0  0  0  0  0  0  0  0  0  0
   -4.4110   19.0360  -33.8350 C   0  0  0  0  0  0  0  0  0  0  0  0
   -5.5710   19.5020  -33.6690 O   0  0  0  0  0  0  0  0  0  0  0  0
   -3.8930   17.7780  -34.0620 C   0  0  0  0  0  0  0  0  0  0  0  0
   -4.3800   16.6210  -34.1750 O   0  0  0  0  0  0  0  0  0  0  0  0
    0.1510   19.8080  -34.6250 C   0  0  0  0  0  0  0  0  0  0  0  0
   -0.8310   20.3630  -35.4630 O   0  0  0  0  0  0  0  0  0  0  0  0
    4.3385   20.8530  -34.6583 H   0  0  0  0  0  0  0  0  0  0  0  0
    3.5598   20.3568  -36.1991 H   0  0  0  0  0  0  0  0  0  0  0  0
    4.8094   21.6472  -36.1991 H   0  0  0  0  0  0  0  0  0  0  0  0
    3.3081   24.2049  -34.8476 H   0  0  0  0  0  0  0  0  0  0  0  0
    4.1236   23.6845  -36.3612 H   0  0  0  0  0  0  0  0  0  0  0  0
    2.3587   24.0191  -36.3612 H   0  0  0  0  0  0  0  0  0  0  0  0
    3.2555   20.5010  -33.3063 H   0  0  0  0  0  0  0  0  0  0  0  0
    2.8864   18.2704  -32.2701 H   0  0  0  0  0  0  0  0  0  0  0  0
    0.7850   17.0194  -32.7144 H   0  0  0  0  0  0  0  0  0  0  0  0
   -1.2280   16.7360  -34.1220 H   0  0  0  0  0  0  0  0  0  0  0  0
   -2.4290   21.4700  -34.5030 H   0  0  0  0  0  0  0  0  0  0  0  0
   -0.5691   20.3078  -31.9737 H   0  0  0  0  0  0  0  0  0  0  0  0
   -0.1743   21.3496  -29.7394 H   0  0  0  0  0  0  0  0  0  0  0  0
   -1.7750   23.0443  -28.8455 H   0  0  0  0  0  0  0  0  0  0  0  0
   -7.7710   24.4053  -30.0925 H   0  0  0  0  0  0  0  0  0  0  0  0
   -6.3929   25.3774  -30.6808 H   0  0  0  0  0  0  0  0  0  0  0  0
   -8.0442   23.8577  -32.3176 H   0  0  0  0  0  0  0  0  0  0  0  0
   -6.3914   24.3043  -32.7572 H   0  0  0  0  0  0  0  0  0  0  0  0
   -7.4721   21.6652  -31.9870 H   0  0  0  0  0  0  0  0  0  0  0  0
   -5.8843   22.0266  -32.6820 H   0  0  0  0  0  0  0  0  0  0  0  0
   -6.5970   21.5012  -29.8874 H   0  0  0  0  0  0  0  0  0  0  0  0
   -4.9642   21.7229  -30.5900 H   0  0  0  0  0  0  0  0  0  0  0  0
   -4.2084   22.6248  -32.4030 H   0  0  0  0  0  0  0  0  0  0  0  0
   -0.9700   21.3600  -35.5870 H   0  0  0  0  0  0  0  0  0  0  0  0
  1  2  1  0
  2  3  1  0
  2  4  1  0
  4  5  2  0
  4  6  1  0
  6  7  2  0
  7  8  1  0
  8  9  2  0
  9 10  1  0
 10 11  1  0
 11 12  1  0
 12 13  2  0
 13 14  1  0
 14 15  1  0
 15 16  2  0
 16 17  1  0
 17 18  2  0
 18 19  1  0
 19 20  1  0
 20 21  2  0
 20 22  2  0
 20 23  1  0
 23 24  1  0
 24 25  1  0
 25 26  1  0
 26 27  1  0
 19 28  2  0
 13 29  1  0
 29 30  2  0
 29 31  1  0
 31 32  2  0
 10 33  2  0
 33 34  1  0
 33  6  1  0
 31 12  1  0
 28 15  1  0
 27 23  1  0
  1 35  1  0
  1 36  1  0
  1 37  1  0
  3 38  1  0
  3 39  1  0
  3 40  1  0
  7 41  1  0
  8 42  1  0
  9 43  1  0
 11 44  1  0
 14 45  1  0
 16 46  1  0
 17 47  1  0
 18 48  1  0
 24 49  1  0
 24 50  1  0
 25 51  1  0
 25 52  1  0
 26 53  1  0
 26 54  1  0
 27 55  1  0
 27 56  1  0
 28 57  1  0
 34 58  1  0
M  END
>  <UniqueID>  (32) 
32

>  <SMILES>  (32) 
CN(C)C(=O)c1cccc(Nc2c(Nc3cccc(S(=O)(=O)N4CCCC4)c3)c(=O)c2=O)c1O

>  <Energy>  (32) 
67.13019237889287

>  <Genealogy>  (32) 
CN(C)C(=O)c1cccc(Nc2c(Nc3cccc(S(=O)(=O)N4CCCC4)c3)c(=O)c2=O)c1O (3D coordinates assigned)
CN(C)C(=O)c1cccc(Nc2c(Nc3cccc(S(=O)(=O)N4CCCC4)c3)c(=O)c2=O)c1O (nonaromatic ring conformer: 67.13019237889287 kcal/mol)

>  <smiles>  (32) 
CN(C)C(=O)c1cccc(Nc2c(Nc3cccc(S(=O)(=O)N4CCCC4)c3)c(=O)c2=O)c1O

>  <score_type>  (32) 
oracle

>  <origin>  (32) 
adgpu

>  <m_score__min__energy>  (32) 
-10.48

>  <m_primary>  (32) 
energy

$$$$
32:0
     RDKit          3D

 49 52  0  0  0  0  0  0  0  0999 V2000
   -4.5140   13.6110  -31.6650 C   0  0  0  0  0  0  0  0  0  0  0  0
   -4.2820   14.9340  -32.3320 C   0  0  0  0  0  0  0  0  0  0  0  0
   -3.1000   15.1640  -33.0500 C   0  0  0  0  0  0  0  0  0  0  0  0
   -2.9000   16.3810  -33.7030 C   0  0  0  0  0  0  0  0  0  0  0  0
   -3.8830   17.3730  -33.6570 C   0  0  0  0  0  0  0  0  0  0  0  0
   -5.0840   17.1570  -32.9570 C   0  0  0  0  0  0  0  0  0  0  0  0
   -6.1030   18.1780  -32.9120 N   0  0  0  0  0  0  0  0  0  0  0  0
   -5.7360   19.5990  -32.8310 C   0  0  0  0  0  0  0  0  0  0  0  0
   -6.8450   20.4700  -33.4370 C   0  0  0  0  0  0  0  0  0  0  0  0
   -8.1780   20.2240  -32.8360 N   0  0  0  0  0  0  0  0  0  0  0  0
   -8.6190   21.4910  -31.7150 S   0  0  0  0  0  0  0  0  0  0  0  0
   -9.7030   22.3360  -32.3230 O   0  0  0  0  0  0  0  0  0  0  0  0
   -9.1590   20.8790  -30.4510 O   0  0  0  0  0  0  0  0  0  0  0  0
   -7.2350   22.5140  -31.3210 C   0  0  0  0  0  0  0  0  0  0  0  0
   -7.1380   23.8070  -31.8560 C   0  0  0  0  0  0  0  0  0  0  0  0
   -6.0260   24.6040  -31.5790 C   0  0  0  0  0  0  0  0  0  0  0  0
   -5.0050   24.1220  -30.7540 C   0  0  0  0  0  0  0  0  0  0  0  0
   -5.0990   22.8320  -30.1960 C   0  0  0  0  0  0  0  0  0  0  0  0
   -6.2120   22.0320  -30.4910 C   0  0  0  0  0  0  0  0  0  0  0  0
   -3.9460   22.2730  -29.3960 C   0  0  0  0  0  0  0  0  0  0  0  0
   -3.2050   23.3620  -28.6070 C   0  0  0  0  0  0  0  0  0  0  0  0
   -2.9220   24.5540  -29.4750 C   0  0  0  0  0  0  0  0  0  0  0  0
   -1.8900   25.2500  -29.2830 O   0  0  0  0  0  0  0  0  0  0  0  0
   -3.8710   24.9450  -30.4690 N   0  0  0  0  0  0  0  0  0  0  0  0
   -8.3440   18.8960  -32.2060 C   0  0  0  0  0  0  0  0  0  0  0  0
   -7.5260   17.8140  -32.9170 C   0  0  0  0  0  0  0  0  0  0  0  0
   -5.2750   15.9250  -32.3000 C   0  0  0  0  0  0  0  0  0  0  0  0
   -4.4911   13.7419  -30.5731 H   0  0  0  0  0  0  0  0  0  0  0  0
   -5.4952   13.2155  -31.9664 H   0  0  0  0  0  0  0  0  0  0  0  0
   -3.7259   12.9052  -31.9664 H   0  0  0  0  0  0  0  0  0  0  0  0
   -2.3275   14.3824  -33.0988 H   0  0  0  0  0  0  0  0  0  0  0  0
   -1.9658   16.5599  -34.2555 H   0  0  0  0  0  0  0  0  0  0  0  0
   -3.7164   18.3305  -34.1723 H   0  0  0  0  0  0  0  0  0  0  0  0
   -5.5913   19.8771  -31.7766 H   0  0  0  0  0  0  0  0  0  0  0  0
   -4.8051   19.7612  -33.3942 H   0  0  0  0  0  0  0  0  0  0  0  0
   -6.5822   21.5270  -33.2831 H   0  0  0  0  0  0  0  0  0  0  0  0
   -6.9159   20.2118  -34.5039 H   0  0  0  0  0  0  0  0  0  0  0  0
   -7.9428   24.1952  -32.4975 H   0  0  0  0  0  0  0  0  0  0  0  0
   -5.9527   25.6132  -32.0105 H   0  0  0  0  0  0  0  0  0  0  0  0
   -6.2835   21.0189  -30.0685 H   0  0  0  0  0  0  0  0  0  0  0  0
   -4.3351   21.5259  -28.6886 H   0  0  0  0  0  0  0  0  0  0  0  0
   -3.2324   21.8229  -30.1018 H   0  0  0  0  0  0  0  0  0  0  0  0
   -3.8268   23.6760  -27.7556 H   0  0  0  0  0  0  0  0  0  0  0  0
   -2.2484   22.9501  -28.2530 H   0  0  0  0  0  0  0  0  0  0  0  0
   -8.0158   18.9573  -31.1579 H   0  0  0  0  0  0  0  0  0  0  0  0
   -9.4061   18.6184  -32.2764 H   0  0  0  0  0  0  0  0  0  0  0  0
   -7.6588   16.8547  -32.3953 H   0  0  0  0  0  0  0  0  0  0  0  0
   -7.8726   17.7232  -33.9570 H   0  0  0  0  0  0  0  0  0  0  0  0
   -6.2127   15.7381  -31.7561 H   0  0  0  0  0  0  0  0  0  0  0  0
  1  2  1  0
  2  3  2  0
  3  4  1  0
  4  5  2  0
  5  6  1  0
  6  7  1  0
  7  8  1  0
  8  9  1  0
  9 10  1  0
 10 11  1  0
 11 12  2  0
 11 13  2  0
 11 14  1  0
 14 15  2  0
 15 16  1  0
 16 17  2  0
 17 18  1  0
 18 19  2  0
 18 20  1  0
 20 21  1  0
 21 22  1  0
 22 23  2  0
 22 24  1  0
 10 25  1  0
 25 26  1  0
  6 27  2  0
 27  2  1  0
 26  7  1  0
 19 14  1  0
 24 17  1  0
  1 28  1  0
  1 29  1  0
  1 30  1  0
  3 31  1  0
  4 32  1  0
  5 33  1  0
  8 34  1  0
  8 35  1  0
  9 36  1  0
  9 37  1  0
 15 38  1  0
 16 39  1  0
 19 40  1  0
 20 41  1  0
 20 42  1  0
 21 43  1  0
 21 44  1  0
 25 45  1  0
 25 46  1  0
 26 47  1  0
 26 48  1  0
 27 49  1  0
M  CHG  1  24  -1
M  END
>  <UniqueID>  (33) 
33

>  <SMILES>  (33) 
Cc1cccc(N2CCN(S(=O)(=O)c3ccc4c(c3)CCC(=O)[N-]4)CC2)c1

>  <Energy>  (33) 
58.60334034412637

>  <Genealogy>  (33) 
Cc1cccc(N2CCN(S(=O)(=O)c3ccc4c(c3)CCC(=O)[N-]4)CC2)c1 (protonated)
Cc1cccc(N2CCN(S(=O)(=O)c3ccc4c(c3)CCC(=O)[N-]4)CC2)c1 (3D coordinates assigned)
Cc1cccc(N2CCN(S(=O)(=O)c3ccc4c(c3)CCC(=O)[N-]4)CC2)c1 (nonaromatic ring conformer: 58.60334034412637 kcal/mol)

>  <smiles>  (33) 
Cc1cccc(N2CCN(S(=O)(=O)c3ccc4c(c3)CCC(=O)N4)CC2)c1

>  <score_type>  (33) 
oracle

>  <origin>  (33) 
adgpu

>  <m_score__min__energy>  (33) 
-11.74

>  <m_primary>  (33) 
energy

$$$$
33:0
     RDKit          3D

 47 49  0  0  0  0  0  0  0  0999 V2000
    0.2710   21.0740  -33.0140 O   0  0  0  0  0  0  0  0  0  0  0  0
   -0.5490   20.4950  -31.8950 S   0  0  0  0  0  0  0  0  0  0  0  0
   -0.1790   19.0460  -31.7280 O   0  0  0  0  0  0  0  0  0  0  0  0
   -0.2080   21.3630  -30.4270 N   0  0  0  0  0  0  0  0  0  0  0  0
   -0.2770   20.4800  -29.2620 C   0  0  0  0  0  0  0  0  0  0  0  0
   -1.3460   20.9730  -28.2850 C   0  0  0  0  0  0  0  0  0  0  0  0
   -2.0340   22.1960  -28.8300 C   0  0  0  0  0  0  0  0  0  0  0  0
   -3.2970   22.0850  -29.4340 C   0  0  0  0  0  0  0  0  0  0  0  0
   -3.9150   23.2120  -29.9830 C   0  0  0  0  0  0  0  0  0  0  0  0
   -3.2790   24.4570  -29.9450 C   0  0  0  0  0  0  0  0  0  0  0  0
   -3.9170   25.5640  -30.5020 O   0  0  0  0  0  0  0  0  0  0  0  0
   -2.0100   24.5710  -29.3520 C   0  0  0  0  0  0  0  0  0  0  0  0
   -1.3580   25.7980  -29.3100 O   0  0  0  0  0  0  0  0  0  0  0  0
   -1.3900   23.4440  -28.8010 C   0  0  0  0  0  0  0  0  0  0  0  0
   -2.2560   20.6500  -32.3030 C   0  0  0  0  0  0  0  0  0  0  0  0
   -2.8010   21.8960  -32.6450 C   0  0  0  0  0  0  0  0  0  0  0  0
   -4.1490   22.0000  -32.9940 C   0  0  0  0  0  0  0  0  0  0  0  0
   -4.9630   20.8630  -33.0070 C   0  0  0  0  0  0  0  0  0  0  0  0
   -6.3070   20.9920  -33.3390 O   0  0  0  0  0  0  0  0  0  0  0  0
   -4.4240   19.6060  -32.6720 C   0  0  0  0  0  0  0  0  0  0  0  0
   -5.2420   18.4230  -32.6900 N   0  0  0  0  0  0  0  0  0  0  0  0
   -4.8200   17.2740  -33.5000 C   0  0  0  0  0  0  0  0  0  0  0  0
   -5.8380   16.1380  -33.3900 C   0  0  0  0  0  0  0  0  0  0  0  0
   -7.1850   16.6870  -33.5680 N   0  0  0  0  0  0  0  0  0  0  0  0
   -7.5770   17.5970  -32.4710 C   0  0  0  0  0  0  0  0  0  0  0  0
   -6.3870   18.2990  -31.7810 C   0  0  0  0  0  0  0  0  0  0  0  0
   -3.0690   19.5100  -32.3170 C   0  0  0  0  0  0  0  0  0  0  0  0
   -0.5296   19.4618  -29.5928 H   0  0  0  0  0  0  0  0  0  0  0  0
    0.6990   20.4800  -28.7546 H   0  0  0  0  0  0  0  0  0  0  0  0
   -2.0900   20.1776  -28.1307 H   0  0  0  0  0  0  0  0  0  0  0  0
   -0.8639   21.2314  -27.3306 H   0  0  0  0  0  0  0  0  0  0  0  0
   -3.8013   21.1083  -29.4751 H   0  0  0  0  0  0  0  0  0  0  0  0
   -4.9077   23.1192  -30.4478 H   0  0  0  0  0  0  0  0  0  0  0  0
   -3.8660   26.4830  -30.0810 H   0  0  0  0  0  0  0  0  0  0  0  0
   -0.3940   23.5358  -28.3432 H   0  0  0  0  0  0  0  0  0  0  0  0
   -2.1651   22.7935  -32.6383 H   0  0  0  0  0  0  0  0  0  0  0  0
   -4.5722   22.9800  -33.2597 H   0  0  0  0  0  0  0  0  0  0  0  0
   -4.7360   17.5841  -34.5520 H   0  0  0  0  0  0  0  0  0  0  0  0
   -3.8472   16.9168  -33.1310 H   0  0  0  0  0  0  0  0  0  0  0  0
   -5.6393   15.3877  -34.1695 H   0  0  0  0  0  0  0  0  0  0  0  0
   -5.7581   15.6611  -32.4020 H   0  0  0  0  0  0  0  0  0  0  0  0
   -7.8610   15.8880  -33.5970 H   0  0  0  0  0  0  0  0  0  0  0  0
   -8.2423   18.3697  -32.8837 H   0  0  0  0  0  0  0  0  0  0  0  0
   -8.0690   16.9789  -31.7055 H   0  0  0  0  0  0  0  0  0  0  0  0
   -6.7004   19.3034  -31.4602 H   0  0  0  0  0  0  0  0  0  0  0  0
   -6.0799   17.6927  -30.9161 H   0  0  0  0  0  0  0  0  0  0  0  0
   -2.6430   18.5322  -32.0479 H   0  0  0  0  0  0  0  0  0  0  0  0
  1  2  2  0
  2  3  2  0
  2  4  1  0
  4  5  1  0
  5  6  1  0
  6  7  1  0
  7  8  2  0
  8  9  1  0
  9 10  2  0
 10 11  1  0
 10 12  1  0
 12 13  1  0
 12 14  2  0
  2 15  1  0
 15 16  2  0
 16 17  1  0
 17 18  2  0
 18 19  1  0
 18 20  1  0
 20 21  1  0
 21 22  1  0
 22 23  1  0
 23 24  1  0
 24 25  1  0
 25 26  1  0
 20 27  2  0
 14  7  1  0
 27 15  1  0
 26 21  1  0
  5 28  1  0
  5 29  1  0
  6 30  1  0
  6 31  1  0
  8 32  1  0
  9 33  1  0
 11 34  1  0
 14 35  1  0
 16 36  1  0
 17 37  1  0
 22 38  1  0
 22 39  1  0
 23 40  1  0
 23 41  1  0
 24 42  1  0
 25 43  1  0
 25 44  1  0
 26 45  1  0
 26 46  1  0
 27 47  1  0
M  CHG  3   4  -1  13  -1  19  -1
M  END
>  <UniqueID>  (34) 
34

>  <SMILES>  (34) 
O=S(=O)([N-]CCc1ccc(O)c([O-])c1)c1ccc([O-])c(N2CCNCC2)c1

>  <Energy>  (34) 
54.16828964185899

>  <Genealogy>  (34) 
O=S(=O)([N-]CCc1ccc(O)c([O-])c1)c1ccc([O-])c(N2CCNCC2)c1 (protonated)
O=S(=O)([N-]CCc1ccc(O)c([O-])c1)c1ccc([O-])c(N2CCNCC2)c1 (3D coordinates assigned)
O=S(=O)([N-]CCc1ccc(O)c([O-])c1)c1ccc([O-])c(N2CCNCC2)c1 (nonaromatic ring conformer: 54.16828964185899 kcal/mol)

>  <smiles>  (34) 
O=S(=O)(NCCc1ccc(O)c(O)c1)c1ccc(O)c(N2CCNCC2)c1

>  <score_type>  (34) 
oracle

>  <origin>  (34) 
adgpu

>  <m_score__min__energy>  (34) 
-11.640000000000001

>  <m_primary>  (34) 
energy

$$$$
34:0
     RDKit          3D

 52 55  0  0  0  0  0  0  0  0999 V2000
   -6.0870   18.9220  -33.6280 C   0  0  0  0  0  0  0  0  0  0  0  0
   -6.7490   20.0790  -33.0280 N   0  0  0  0  0  0  0  0  0  0  0  0
   -8.0440   20.1830  -32.6420 C   0  0  0  0  0  0  0  0  0  0  0  0
   -8.8990   19.2740  -32.8320 O   0  0  0  0  0  0  0  0  0  0  0  0
   -8.3150   21.3340  -31.9780 N   0  0  0  0  0  0  0  0  0  0  0  0
   -9.5630   21.7000  -31.3110 C   0  0  0  0  0  0  0  0  0  0  0  0
   -7.1170   21.9520  -31.8940 C   0  0  0  0  0  0  0  0  0  0  0  0
   -6.7800   23.1130  -31.1950 C   0  0  0  0  0  0  0  0  0  0  0  0
   -5.4220   23.4960  -31.1720 C   0  0  0  0  0  0  0  0  0  0  0  0
   -4.8970   24.8700  -30.2020 S   0  0  0  0  0  0  0  0  0  0  0  0
   -5.3950   26.1290  -30.8530 O   0  0  0  0  0  0  0  0  0  0  0  0
   -5.4530   24.7810  -28.8050 O   0  0  0  0  0  0  0  0  0  0  0  0
   -3.1610   24.9100  -30.1310 N   0  0  0  0  0  0  0  0  0  0  0  0
   -2.4100   24.7740  -28.9170 C   0  0  0  0  0  0  0  0  0  0  0  0
   -1.0190   24.9260  -28.9600 C   0  0  0  0  0  0  0  0  0  0  0  0
   -0.2470   24.6960  -27.8190 C   0  0  0  0  0  0  0  0  0  0  0  0
   -0.8620   24.3370  -26.6110 C   0  0  0  0  0  0  0  0  0  0  0  0
    0.1200   23.9650  -25.1870 S   0  0  0  0  0  0  0  0  0  0  0  0
    1.5000   23.5710  -25.6340 O   0  0  0  0  0  0  0  0  0  0  0  0
   -0.4890   22.7950  -24.4690 O   0  0  0  0  0  0  0  0  0  0  0  0
    0.2450   25.3080  -24.0790 N   0  0  0  0  0  0  0  0  0  0  0  0
    1.4830   26.0670  -24.2540 C   0  0  0  0  0  0  0  0  0  0  0  0
    1.2040   27.4660  -23.7290 C   0  0  0  0  0  0  0  0  0  0  0  0
   -0.3100   27.6150  -23.7580 C   0  0  0  0  0  0  0  0  0  0  0  0
   -0.8400   26.2750  -24.2500 C   0  0  0  0  0  0  0  0  0  0  0  0
   -2.2590   24.2310  -26.5540 C   0  0  0  0  0  0  0  0  0  0  0  0
   -3.0310   24.4570  -27.6970 C   0  0  0  0  0  0  0  0  0  0  0  0
   -4.4520   22.7180  -31.8510 C   0  0  0  0  0  0  0  0  0  0  0  0
   -4.8210   21.5460  -32.5330 C   0  0  0  0  0  0  0  0  0  0  0  0
   -6.1700   21.1920  -32.5320 C   0  0  0  0  0  0  0  0  0  0  0  0
   -5.7096   18.2623  -32.8328 H   0  0  0  0  0  0  0  0  0  0  0  0
   -6.8062   18.3705  -34.2514 H   0  0  0  0  0  0  0  0  0  0  0  0
   -5.2471   19.2626  -34.2514 H   0  0  0  0  0  0  0  0  0  0  0  0
   -9.4219   21.6586  -30.2209 H   0  0  0  0  0  0  0  0  0  0  0  0
   -9.8504   22.7203  -31.6051 H   0  0  0  0  0  0  0  0  0  0  0  0
  -10.3559   20.9966  -31.6051 H   0  0  0  0  0  0  0  0  0  0  0  0
   -7.5475   23.7091  -30.6795 H   0  0  0  0  0  0  0  0  0  0  0  0
   -0.5310   25.2285  -29.8983 H   0  0  0  0  0  0  0  0  0  0  0  0
    0.8473   24.7968  -27.8682 H   0  0  0  0  0  0  0  0  0  0  0  0
    0.2140   24.9290  -23.1010 H   0  0  0  0  0  0  0  0  0  0  0  0
    2.2992   25.6014  -23.6821 H   0  0  0  0  0  0  0  0  0  0  0  0
    1.7916   26.0904  -25.3096 H   0  0  0  0  0  0  0  0  0  0  0  0
    1.5815   27.5737  -22.7014 H   0  0  0  0  0  0  0  0  0  0  0  0
    1.7022   28.2369  -24.3352 H   0  0  0  0  0  0  0  0  0  0  0  0
   -0.6943   27.8343  -22.7509 H   0  0  0  0  0  0  0  0  0  0  0  0
   -0.6267   28.4435  -24.4087 H   0  0  0  0  0  0  0  0  0  0  0  0
   -1.7154   25.9721  -23.6567 H   0  0  0  0  0  0  0  0  0  0  0  0
   -1.1555   26.3353  -25.3021 H   0  0  0  0  0  0  0  0  0  0  0  0
   -2.7497   23.9687  -25.6051 H   0  0  0  0  0  0  0  0  0  0  0  0
   -4.1273   24.3865  -27.6414 H   0  0  0  0  0  0  0  0  0  0  0  0
   -3.3986   23.0348  -31.8443 H   0  0  0  0  0  0  0  0  0  0  0  0
   -4.0714   20.9289  -33.0500 H   0  0  0  0  0  0  0  0  0  0  0  0
  1  2  1  0
  2  3  1  0
  3  4  2  0
  3  5  1  0
  5  6  1  0
  5  7  1  0
  7  8  2  0
  8  9  1  0
  9 10  1  0
 10 11  2  0
 10 12  2  0
 10 13  1  0
 13 14  1  0
 14 15  2  0
 15 16  1  0
 16 17  2  0
 17 18  1  0
 18 19  2  0
 18 20  2  0
 18 21  1  0
 21 22  1  0
 22 23  1  0
 23 24  1  0
 24 25  1  0
 17 26  1  0
 26 27  2  0
  9 28  2  0
 28 29  1  0
 29 30  2  0
 30  2  1  0
 30  7  1  0
 27 14  1  0
 25 21  1  0
  1 31  1  0
  1 32  1  0
  1 33  1  0
  6 34  1  0
  6 35  1  0
  6 36  1  0
  8 37  1  0
 15 38  1  0
 16 39  1  0
 21 40  1  0
 22 41  1  0
 22 42  1  0
 23 43  1  0
 23 44  1  0
 24 45  1  0
 24 46  1  0
 25 47  1  0
 25 48  1  0
 26 49  1  0
 27 50  1  0
 28 51  1  0
 29 52  1  0
M  CHG  2  13  -1  21   1
M  END
>  <UniqueID>  (35) 
35

>  <SMILES>  (35) 
Cn1c(=O)n(C)c2cc(S(=O)(=O)[N-]c3ccc(S(=O)(=O)[NH+]4CCCC4)cc3)ccc21

>  <Energy>  (35) 
101.12473144490137

>  <Genealogy>  (35) 
Cn1c(=O)n(C)c2cc(S(=O)(=O)[N-]c3ccc(S(=O)(=O)[NH+]4CCCC4)cc3)ccc21 (protonated)
Cn1c(=O)n(C)c2cc(S(=O)(=O)[N-]c3ccc(S(=O)(=O)[NH+]4CCCC4)cc3)ccc21 (3D coordinates assigned)
Cn1c(=O)n(C)c2cc(S(=O)(=O)[N-]c3ccc(S(=O)(=O)[NH+]4CCCC4)cc3)ccc21 (nonaromatic ring conformer: 101.12473144490137 kcal/mol)

>  <smiles>  (35) 
Cn1c(=O)n(C)c2cc(S(=O)(=O)Nc3ccc(S(=O)(=O)N4CCCC4)cc3)ccc21

>  <score_type>  (35) 
oracle

>  <origin>  (35) 
adgpu

>  <m_score__min__energy>  (35) 
-12.35

>  <m_primary>  (35) 
energy

$$$$
35:0
     RDKit          3D

 39 41  0  0  0  0  0  0  0  0999 V2000
   -3.9960   24.3800  -26.9870 O   0  0  0  0  0  0  0  0  0  0  0  0
   -3.1090   24.7670  -27.7950 C   0  0  0  0  0  0  0  0  0  0  0  0
   -3.4300   24.9250  -29.1870 N   0  0  0  0  0  0  0  0  0  0  0  0
   -4.5320   24.2670  -29.8340 C   0  0  0  0  0  0  0  0  0  0  0  0
   -4.3580   23.0540  -30.5260 C   0  0  0  0  0  0  0  0  0  0  0  0
   -5.4400   22.4440  -31.1680 C   0  0  0  0  0  0  0  0  0  0  0  0
   -6.7080   23.0400  -31.1350 C   0  0  0  0  0  0  0  0  0  0  0  0
   -8.0660   22.2820  -31.9580 S   0  0  0  0  0  0  0  0  0  0  0  0
   -8.9170   21.5570  -30.9520 O   0  0  0  0  0  0  0  0  0  0  0  0
   -8.8900   23.3390  -32.6390 O   0  0  0  0  0  0  0  0  0  0  0  0
   -7.4480   21.1600  -33.1320 N   0  0  0  0  0  0  0  0  0  0  0  0
   -7.1420   19.9120  -32.9260 C   0  0  0  0  0  0  0  0  0  0  0  0
   -7.2820   19.2940  -31.6660 C   0  0  0  0  0  0  0  0  0  0  0  0
   -6.9330   17.9500  -31.5180 C   0  0  0  0  0  0  0  0  0  0  0  0
   -6.4520   17.2310  -32.6120 C   0  0  0  0  0  0  0  0  0  0  0  0
   -6.3260   17.8700  -33.8460 C   0  0  0  0  0  0  0  0  0  0  0  0
   -6.6690   19.1800  -33.9720 N   0  0  0  0  0  0  0  0  0  0  0  0
   -6.8790   24.2620  -30.4720 C   0  0  0  0  0  0  0  0  0  0  0  0
   -5.7970   24.8730  -29.8300 C   0  0  0  0  0  0  0  0  0  0  0  0
   -1.7640   25.1250  -27.2830 C   0  0  0  0  0  0  0  0  0  0  0  0
   -1.3490   24.6330  -26.0310 C   0  0  0  0  0  0  0  0  0  0  0  0
   -0.0900   24.9620  -25.5210 C   0  0  0  0  0  0  0  0  0  0  0  0
    0.7720   25.7770  -26.2560 C   0  0  0  0  0  0  0  0  0  0  0  0
    0.3810   26.2580  -27.5070 C   0  0  0  0  0  0  0  0  0  0  0  0
   -0.8770   25.9300  -28.0290 C   0  0  0  0  0  0  0  0  0  0  0  0
   -1.2160   26.3900  -29.2960 O   0  0  0  0  0  0  0  0  0  0  0  0
   -2.8980   25.6420  -29.7300 H   0  0  0  0  0  0  0  0  0  0  0  0
   -3.3646   22.5829  -30.5620 H   0  0  0  0  0  0  0  0  0  0  0  0
   -5.2954   21.4927  -31.7010 H   0  0  0  0  0  0  0  0  0  0  0  0
   -7.6629   19.8659  -30.8070 H   0  0  0  0  0  0  0  0  0  0  0  0
   -7.0374   17.4588  -30.5393 H   0  0  0  0  0  0  0  0  0  0  0  0
   -6.1751   16.1720  -32.5032 H   0  0  0  0  0  0  0  0  0  0  0  0
   -5.9491   17.3140  -34.7171 H   0  0  0  0  0  0  0  0  0  0  0  0
   -7.8681   24.7430  -30.4562 H   0  0  0  0  0  0  0  0  0  0  0  0
   -5.9392   25.8362  -29.3180 H   0  0  0  0  0  0  0  0  0  0  0  0
   -2.0209   23.9845  -25.4495 H   0  0  0  0  0  0  0  0  0  0  0  0
    0.2220   24.5779  -24.5386 H   0  0  0  0  0  0  0  0  0  0  0  0
    1.7597   26.0405  -25.8497 H   0  0  0  0  0  0  0  0  0  0  0  0
    1.0639   26.8975  -28.0855 H   0  0  0  0  0  0  0  0  0  0  0  0
  1  2  2  0
  2  3  1  0
  3  4  1  0
  4  5  2  0
  5  6  1  0
  6  7  2  0
  7  8  1  0
  8  9  2  0
  8 10  2  0
  8 11  1  0
 11 12  2  3
 12 13  1  0
 13 14  2  0
 14 15  1  0
 15 16  2  0
 16 17  1  0
  7 18  1  0
 18 19  2  0
  2 20  1  0
 20 21  2  0
 21 22  1  0
 22 23  2  0
 23 24  1  0
 24 25  2  0
 25 26  1  0
 19  4  1  0
 25 20  1  0
 17 12  1  0
  3 27  1  0
  5 28  1  0
  6 29  1  0
 13 30  1  0
 14 31  1  0
 15 32  1  0
 16 33  1  0
 18 34  1  0
 19 35  1  0
 21 36  1  0
 22 37  1  0
 23 38  1  0
 24 39  1  0
M  CHG  2  17  -1  26  -1
M  END
>  <UniqueID>  (36) 
36

>  <SMILES>  (36) 
O=C(Nc1ccc(S(=O)(=O)N=c2cccc[n-]2)cc1)c1ccccc1[O-]

>  <Energy>  (36) 
56.56531441188069

>  <Genealogy>  (36) 
O=C(Nc1ccc(S(=O)(=O)N=c2cccc[n-]2)cc1)c1ccccc1[O-] (protonated)
O=C(Nc1ccc(S(=O)(=O)N=c2cccc[n-]2)cc1)c1ccccc1[O-] (3D coordinates assigned)
O=C(Nc1ccc(S(=O)(=O)N=c2cccc[n-]2)cc1)c1ccccc1[O-] (optimized conformer: 56.56531441188069 kcal/mol)

>  <smiles>  (36) 
O=C(Nc1ccc(S(=O)(=O)N=c2cccc[nH]2)cc1)c1ccccc1O

>  <score_type>  (36) 
oracle

>  <origin>  (36) 
adgpu

>  <m_score__min__energy>  (36) 
-11.859999999999999

>  <m_primary>  (36) 
energy

$$$$
36:0
     RDKit          3D

 69 73  0  0  0  0  0  0  0  0999 V2000
   -1.1880   25.8460  -29.2330 N   0  0  0  0  0  0  0  0  0  0  0  0
   -1.7970   24.5600  -29.3330 C   0  0  0  0  0  0  0  0  0  0  0  0
   -2.8160   24.4110  -30.0590 O   0  0  0  0  0  0  0  0  0  0  0  0
   -1.2740   23.4200  -28.5420 C   0  0  0  0  0  0  0  0  0  0  0  0
   -1.0380   22.1830  -29.1900 C   0  0  0  0  0  0  0  0  0  0  0  0
   -1.3140   22.0190  -30.5870 N   0  0  0  0  0  0  0  0  0  0  0  0
   -0.4290   20.8810  -31.5500 S   0  0  0  0  0  0  0  0  0  0  0  0
    0.2700   21.6130  -32.6620 O   0  0  0  0  0  0  0  0  0  0  0  0
    0.6070   20.2040  -30.6970 O   0  0  0  0  0  0  0  0  0  0  0  0
   -1.5040   19.6750  -32.2510 C   0  0  0  0  0  0  0  0  0  0  0  0
   -0.9780   18.5050  -32.8160 C   0  0  0  0  0  0  0  0  0  0  0  0
   -1.8320   17.5310  -33.3340 C   0  0  0  0  0  0  0  0  0  0  0  0
   -3.2170   17.7140  -33.2890 C   0  0  0  0  0  0  0  0  0  0  0  0
   -3.7640   18.8790  -32.7200 C   0  0  0  0  0  0  0  0  0  0  0  0
   -5.2360   19.0660  -32.6520 C   0  0  0  0  0  0  0  0  0  0  0  0
   -6.0070   18.3530  -31.7170 C   0  0  0  0  0  0  0  0  0  0  0  0
   -7.3920   18.5300  -31.6550 C   0  0  0  0  0  0  0  0  0  0  0  0
   -8.0330   19.4230  -32.5280 C   0  0  0  0  0  0  0  0  0  0  0  0
   -9.5290   19.6210  -32.4550 C   0  0  0  0  0  0  0  0  0  0  0  0
   -9.8970   21.0220  -32.1880 N   0  0  0  0  0  0  0  0  0  0  0  0
   -8.9520   21.7140  -31.2970 C   0  0  0  0  0  0  0  0  0  0  0  0
   -8.3350   22.9790  -31.9450 C   0  0  0  0  0  0  0  0  0  0  0  0
   -7.1180   23.5210  -31.2930 N   0  0  0  0  0  0  0  0  0  0  0  0
   -6.6150   22.7140  -30.1730 C   0  0  0  0  0  0  0  0  0  0  0  0
   -5.2660   22.1260  -30.5740 C   0  0  0  0  0  0  0  0  0  0  0  0
   -4.9730   22.6570  -31.9660 C   0  0  0  0  0  0  0  0  0  0  0  0
   -5.9900   23.7610  -32.1990 C   0  0  0  0  0  0  0  0  0  0  0  0
   -7.2670   20.1350  -33.4640 C   0  0  0  0  0  0  0  0  0  0  0  0
   -5.8830   19.9590  -33.5260 C   0  0  0  0  0  0  0  0  0  0  0  0
   -2.8940   19.8590  -32.2050 C   0  0  0  0  0  0  0  0  0  0  0  0
   -0.6100   21.0760  -28.4500 C   0  0  0  0  0  0  0  0  0  0  0  0
   -0.3760   21.1800  -27.0830 C   0  0  0  0  0  0  0  0  0  0  0  0
   -0.5650   22.3990  -26.4230 C   0  0  0  0  0  0  0  0  0  0  0  0
   -0.3060   22.4940  -25.0470 C   0  0  0  0  0  0  0  0  0  0  0  0
   -0.4650   23.7100  -24.3840 C   0  0  0  0  0  0  0  0  0  0  0  0
   -0.8750   24.8420  -25.0870 C   0  0  0  0  0  0  0  0  0  0  0  0
   -1.1400   24.7640  -26.4550 C   0  0  0  0  0  0  0  0  0  0  0  0
   -1.0080   23.5390  -27.1480 C   0  0  0  0  0  0  0  0  0  0  0  0
   -0.8490   26.3430  -30.0860 H   0  0  0  0  0  0  0  0  0  0  0  0
   -1.8300   22.7750  -31.0910 H   0  0  0  0  0  0  0  0  0  0  0  0
    0.1111   18.3544  -32.8511 H   0  0  0  0  0  0  0  0  0  0  0  0
   -1.4141   16.6161  -33.7793 H   0  0  0  0  0  0  0  0  0  0  0  0
   -3.8838   16.9422  -33.7011 H   0  0  0  0  0  0  0  0  0  0  0  0
   -5.5158   17.6498  -31.0283 H   0  0  0  0  0  0  0  0  0  0  0  0
   -7.9830   17.9664  -30.9180 H   0  0  0  0  0  0  0  0  0  0  0  0
   -9.9731   19.3156  -33.4139 H   0  0  0  0  0  0  0  0  0  0  0  0
   -9.9082   19.0099  -31.6227 H   0  0  0  0  0  0  0  0  0  0  0  0
  -10.8500   21.0490  -31.7560 H   0  0  0  0  0  0  0  0  0  0  0  0
   -9.4850   22.0118  -30.3820 H   0  0  0  0  0  0  0  0  0  0  0  0
   -8.1290   21.0170  -31.0803 H   0  0  0  0  0  0  0  0  0  0  0  0
   -8.0766   22.7313  -32.9851 H   0  0  0  0  0  0  0  0  0  0  0  0
   -9.0984   23.7644  -31.8430 H   0  0  0  0  0  0  0  0  0  0  0  0
   -6.4943   23.3482  -29.2824 H   0  0  0  0  0  0  0  0  0  0  0  0
   -7.3252   21.9074  -29.9382 H   0  0  0  0  0  0  0  0  0  0  0  0
   -4.4845   22.4482  -29.8701 H   0  0  0  0  0  0  0  0  0  0  0  0
   -5.2862   21.0263  -30.5591 H   0  0  0  0  0  0  0  0  0  0  0  0
   -3.9503   23.0588  -32.0172 H   0  0  0  0  0  0  0  0  0  0  0  0
   -5.0445   21.8674  -32.7285 H   0  0  0  0  0  0  0  0  0  0  0  0
   -5.5372   24.7401  -31.9836 H   0  0  0  0  0  0  0  0  0  0  0  0
   -6.3278   23.7614  -33.2459 H   0  0  0  0  0  0  0  0  0  0  0  0
   -7.7600   20.8363  -34.1533 H   0  0  0  0  0  0  0  0  0  0  0  0
   -5.2939   20.5231  -34.2641 H   0  0  0  0  0  0  0  0  0  0  0  0
   -3.3079   20.7771  -31.7626 H   0  0  0  0  0  0  0  0  0  0  0  0
   -0.4566   20.1111  -28.9555 H   0  0  0  0  0  0  0  0  0  0  0  0
   -0.0403   20.2984  -26.5173 H   0  0  0  0  0  0  0  0  0  0  0  0
    0.0239   21.6052  -24.4892 H   0  0  0  0  0  0  0  0  0  0  0  0
   -0.2666   23.7765  -23.3041 H   0  0  0  0  0  0  0  0  0  0  0  0
   -0.9902   25.8012  -24.5609 H   0  0  0  0  0  0  0  0  0  0  0  0
   -1.4551   25.6659  -27.0001 H   0  0  0  0  0  0  0  0  0  0  0  0
  1  2  1  0
  2  3  2  0
  2  4  1  0
  4  5  2  0
  5  6  1  0
  6  7  1  0
  7  8  2  0
  7  9  2  0
  7 10  1  0
 10 11  2  0
 11 12  1  0
 12 13  2  0
 13 14  1  0
 14 15  1  0
 15 16  2  0
 16 17  1  0
 17 18  2  0
 18 19  1  0
 19 20  1  0
 20 21  1  0
 21 22  1  0
 22 23  1  0
 23 24  1  0
 24 25  1  0
 25 26  1  0
 26 27  1  0
 18 28  1  0
 28 29  2  0
 14 30  2  0
  5 31  1  0
 31 32  2  0
 32 33  1  0
 33 34  2  0
 34 35  1  0
 35 36  2  0
 36 37  1  0
 37 38  2  0
 38  4  1  0
 30 10  1  0
 38 33  1  0
 29 15  1  0
 27 23  1  0
  1 39  1  0
  6 40  1  0
 11 41  1  0
 12 42  1  0
 13 43  1  0
 16 44  1  0
 17 45  1  0
 19 46  1  0
 19 47  1  0
 20 48  1  0
 21 49  1  0
 21 50  1  0
 22 51  1  0
 22 52  1  0
 24 53  1  0
 24 54  1  0
 25 55  1  0
 25 56  1  0
 26 57  1  0
 26 58  1  0
 27 59  1  0
 27 60  1  0
 28 61  1  0
 29 62  1  0
 30 63  1  0
 31 64  1  0
 32 65  1  0
 34 66  1  0
 35 67  1  0
 36 68  1  0
 37 69  1  0
M  CHG  1   1  -1
M  END
>  <UniqueID>  (37) 
37

>  <SMILES>  (37) 
[NH-]C(=O)c1c(NS(=O)(=O)c2cccc(-c3ccc(CNCCN4CCCC4)cc3)c2)ccc2ccccc12

>  <Energy>  (37) 
104.40024047630578

>  <Genealogy>  (37) 
[NH-]C(=O)c1c(NS(=O)(=O)c2cccc(-c3ccc(CNCCN4CCCC4)cc3)c2)ccc2ccccc12 (protonated)
[NH-]C(=O)c1c(NS(=O)(=O)c2cccc(-c3ccc(CNCCN4CCCC4)cc3)c2)ccc2ccccc12 (3D coordinates assigned)
[NH-]C(=O)c1c(NS(=O)(=O)c2cccc(-c3ccc(CNCCN4CCCC4)cc3)c2)ccc2ccccc12 (nonaromatic ring conformer: 104.40024047630578 kcal/mol)

>  <smiles>  (37) 
NC(=O)c1c(NS(=O)(=O)c2cccc(-c3ccc(CNCCN4CCCC4)cc3)c2)ccc2ccccc12

>  <score_type>  (37) 
oracle

>  <origin>  (37) 
adgpu

>  <m_score__min__energy>  (37) 
-13.33

>  <m_primary>  (37) 
energy

$$$$
37:0
     RDKit          3D

 47 49  0  0  0  0  0  0  0  0999 V2000
    0.1610   26.5480  -23.7750 C   0  0  0  0  0  0  0  0  0  0  0  0
   -0.3260   26.1050  -25.1230 C   0  0  0  0  0  0  0  0  0  0  0  0
    0.5190   26.1790  -26.2390 C   0  0  0  0  0  0  0  0  0  0  0  0
    0.0550   25.8010  -27.5000 C   0  0  0  0  0  0  0  0  0  0  0  0
   -1.2710   25.3630  -27.6730 C   0  0  0  0  0  0  0  0  0  0  0  0
   -1.7390   24.9460  -28.9670 N   0  0  0  0  0  0  0  0  0  0  0  0
   -1.6940   23.5910  -29.4290 C   0  0  0  0  0  0  0  0  0  0  0  0
   -1.0500   22.7170  -28.7870 O   0  0  0  0  0  0  0  0  0  0  0  0
   -2.3170   23.2560  -30.6730 N   0  0  0  0  0  0  0  0  0  0  0  0
   -3.7320   23.2300  -30.9090 C   0  0  0  0  0  0  0  0  0  0  0  0
   -4.5070   24.4050  -30.8180 C   0  0  0  0  0  0  0  0  0  0  0  0
   -3.9210   25.6240  -30.4940 O   0  0  0  0  0  0  0  0  0  0  0  0
   -5.8780   24.3650  -31.0910 C   0  0  0  0  0  0  0  0  0  0  0  0
   -6.4810   23.1700  -31.4850 C   0  0  0  0  0  0  0  0  0  0  0  0
   -5.7160   22.0100  -31.6130 C   0  0  0  0  0  0  0  0  0  0  0  0
   -4.3400   22.0290  -31.3310 C   0  0  0  0  0  0  0  0  0  0  0  0
   -3.5770   20.8130  -31.4430 N   0  0  0  0  0  0  0  0  0  0  0  0
   -3.6170   20.0300  -32.6820 C   0  0  0  0  0  0  0  0  0  0  0  0
   -2.3340   19.1990  -32.8420 C   0  0  0  0  0  0  0  0  0  0  0  0
   -1.1360   19.9440  -32.3960 N   0  0  0  0  0  0  0  0  0  0  0  0
   -0.8340   21.0770  -33.2880 C   0  0  0  0  0  0  0  0  0  0  0  0
   -1.1960   20.3610  -30.9710 C   0  0  0  0  0  0  0  0  0  0  0  0
   -2.6260   20.4320  -30.3970 C   0  0  0  0  0  0  0  0  0  0  0  0
   -2.1200   25.2910  -26.5510 C   0  0  0  0  0  0  0  0  0  0  0  0
   -3.9460   24.7260  -26.7090 Br  0  0  0  0  0  0  0  0  0  0  0  0
   -1.6490   25.6730  -25.2890 C   0  0  0  0  0  0  0  0  0  0  0  0
   -0.4093   26.0292  -22.9904 H   0  0  0  0  0  0  0  0  0  0  0  0
    1.2291   26.3054  -23.6731 H   0  0  0  0  0  0  0  0  0  0  0  0
    0.0203   27.6342  -23.6731 H   0  0  0  0  0  0  0  0  0  0  0  0
    1.5525   26.5366  -26.1205 H   0  0  0  0  0  0  0  0  0  0  0  0
    0.7318   25.8459  -28.3660 H   0  0  0  0  0  0  0  0  0  0  0  0
   -2.0860   25.6710  -29.6340 H   0  0  0  0  0  0  0  0  0  0  0  0
   -6.4830   25.2786  -30.9948 H   0  0  0  0  0  0  0  0  0  0  0  0
   -7.5604   23.1423  -31.6949 H   0  0  0  0  0  0  0  0  0  0  0  0
   -6.1940   21.0738  -31.9371 H   0  0  0  0  0  0  0  0  0  0  0  0
   -4.4840   19.3536  -32.6537 H   0  0  0  0  0  0  0  0  0  0  0  0
   -3.6991   20.7208  -33.5341 H   0  0  0  0  0  0  0  0  0  0  0  0
   -2.4268   18.2821  -32.2415 H   0  0  0  0  0  0  0  0  0  0  0  0
   -2.2113   18.9627  -33.9093 H   0  0  0  0  0  0  0  0  0  0  0  0
   -0.5971   21.9657  -32.6846 H   0  0  0  0  0  0  0  0  0  0  0  0
    0.0281   20.8243  -33.9227 H   0  0  0  0  0  0  0  0  0  0  0  0
   -1.7075   21.2869  -33.9227 H   0  0  0  0  0  0  0  0  0  0  0  0
   -0.6196   19.6384  -30.3747 H   0  0  0  0  0  0  0  0  0  0  0  0
   -0.7820   21.3788  -30.9199 H   0  0  0  0  0  0  0  0  0  0  0  0
   -2.9047   19.4467  -29.9951 H   0  0  0  0  0  0  0  0  0  0  0  0
   -2.6528   21.1873  -29.5978 H   0  0  0  0  0  0  0  0  0  0  0  0
   -2.3229   25.6337  -24.4205 H   0  0  0  0  0  0  0  0  0  0  0  0
  1  2  1  0
  2  3  2  0
  3  4  1  0
  4  5  2  0
  5  6  1  0
  6  7  1  0
  7  8  2  0
  7  9  1  0
  9 10  1  0
 10 11  2  0
 11 12  1  0
 11 13  1  0
 13 14  2  0
 14 15  1  0
 15 16  2  0
 16 17  1  0
 17 18  1  0
 18 19  1  0
 19 20  1  0
 20 21  1  0
 20 22  1  0
 22 23  1  0
  5 24  1  0
 24 25  1  0
 24 26  2  0
 26  2  1  0
 16 10  1  0
 23 17  1  0
  1 27  1  0
  1 28  1  0
  1 29  1  0
  3 30  1  0
  4 31  1  0
  6 32  1  0
 13 33  1  0
 14 34  1  0
 15 35  1  0
 18 36  1  0
 18 37  1  0
 19 38  1  0
 19 39  1  0
 21 40  1  0
 21 41  1  0
 21 42  1  0
 22 43  1  0
 22 44  1  0
 23 45  1  0
 23 46  1  0
 26 47  1  0
M  CHG  2   9  -1  12  -1
M  END
>  <UniqueID>  (38) 
38

>  <SMILES>  (38) 
Cc1ccc(NC(=O)[N-]c2c([O-])cccc2N2CCN(C)CC2)c(Br)c1

>  <Energy>  (38) 
69.56753839353539

>  <Genealogy>  (38) 
Cc1ccc(NC(=O)[N-]c2c([O-])cccc2N2CCN(C)CC2)c(Br)c1 (protonated)
Cc1ccc(NC(=O)[N-]c2c([O-])cccc2N2CCN(C)CC2)c(Br)c1 (3D coordinates assigned)
Cc1ccc(NC(=O)[N-]c2c([O-])cccc2N2CCN(C)CC2)c(Br)c1 (nonaromatic ring conformer: 69.56753839353539 kcal/mol)

>  <smiles>  (38) 
Cc1ccc(NC(=O)Nc2c(O)cccc2N2CCN(C)CC2)c(Br)c1

>  <score_type>  (38) 
oracle

>  <origin>  (38) 
adgpu

>  <m_score__min__energy>  (38) 
-12.35

>  <m_primary>  (38) 
energy

$$$$
38:0
     RDKit          3D

 52 55  0  0  0  0  0  0  0  0999 V2000
   -1.6290   25.7270  -29.0060 O   0  0  0  0  0  0  0  0  0  0  0  0
   -2.4050   24.7850  -29.3190 C   0  0  0  0  0  0  0  0  0  0  0  0
   -3.6470   25.0950  -29.9630 N   0  0  0  0  0  0  0  0  0  0  0  0
   -4.6240   24.1450  -30.4120 C   0  0  0  0  0  0  0  0  0  0  0  0
   -5.8020   23.8980  -29.6840 C   0  0  0  0  0  0  0  0  0  0  0  0
   -6.7230   22.9500  -30.1350 C   0  0  0  0  0  0  0  0  0  0  0  0
   -6.4800   22.2350  -31.3160 C   0  0  0  0  0  0  0  0  0  0  0  0
   -7.4490   21.2260  -31.7890 C   0  0  0  0  0  0  0  0  0  0  0  0
   -8.8050   21.5830  -31.8620 C   0  0  0  0  0  0  0  0  0  0  0  0
   -9.7550   20.6690  -32.3170 C   0  0  0  0  0  0  0  0  0  0  0  0
   -9.3630   19.3870  -32.7000 C   0  0  0  0  0  0  0  0  0  0  0  0
   -8.0210   19.0110  -32.6200 C   0  0  0  0  0  0  0  0  0  0  0  0
   -7.0500   19.9170  -32.1610 C   0  0  0  0  0  0  0  0  0  0  0  0
   -5.3700   19.3730  -32.0080 S   0  0  0  0  0  0  0  0  0  0  0  0
   -5.3680   17.8940  -31.7390 O   0  0  0  0  0  0  0  0  0  0  0  0
   -4.7130   20.0670  -30.8470 O   0  0  0  0  0  0  0  0  0  0  0  0
   -4.4830   19.7070  -33.4810 N   0  0  0  0  0  0  0  0  0  0  0  0
   -3.2170   20.4110  -33.2130 C   0  0  0  0  0  0  0  0  0  0  0  0
   -2.1270   19.4740  -32.6380 C   0  0  0  0  0  0  0  0  0  0  0  0
   -2.4110   18.0980  -32.8210 O   0  0  0  0  0  0  0  0  0  0  0  0
   -2.8890   17.8710  -34.1270 C   0  0  0  0  0  0  0  0  0  0  0  0
   -4.2880   18.4910  -34.3010 C   0  0  0  0  0  0  0  0  0  0  0  0
   -5.2880   22.4520  -32.0210 C   0  0  0  0  0  0  0  0  0  0  0  0
   -4.3660   23.4010  -31.5690 C   0  0  0  0  0  0  0  0  0  0  0  0
   -2.0160   23.3940  -28.9980 C   0  0  0  0  0  0  0  0  0  0  0  0
   -3.0230   22.4220  -28.8770 C   0  0  0  0  0  0  0  0  0  0  0  0
   -2.7050   21.1140  -28.5050 C   0  0  0  0  0  0  0  0  0  0  0  0
   -1.3770   20.7610  -28.2590 C   0  0  0  0  0  0  0  0  0  0  0  0
   -0.3630   21.7100  -28.4030 C   0  0  0  0  0  0  0  0  0  0  0  0
   -0.6660   23.0200  -28.7890 C   0  0  0  0  0  0  0  0  0  0  0  0
    0.3900   23.9120  -28.9830 O   0  0  0  0  0  0  0  0  0  0  0  0
   -5.9986   24.4540  -28.7554 H   0  0  0  0  0  0  0  0  0  0  0  0
   -7.6428   22.7636  -29.5612 H   0  0  0  0  0  0  0  0  0  0  0  0
   -9.1206   22.5919  -31.5578 H   0  0  0  0  0  0  0  0  0  0  0  0
  -10.8144   20.9597  -32.3738 H   0  0  0  0  0  0  0  0  0  0  0  0
  -10.1129   18.6702  -33.0660 H   0  0  0  0  0  0  0  0  0  0  0  0
   -7.7209   17.9959  -32.9191 H   0  0  0  0  0  0  0  0  0  0  0  0
   -2.8485   20.8446  -34.1544 H   0  0  0  0  0  0  0  0  0  0  0  0
   -3.4197   21.1882  -32.4614 H   0  0  0  0  0  0  0  0  0  0  0  0
   -1.1734   19.7021  -33.1366 H   0  0  0  0  0  0  0  0  0  0  0  0
   -2.0843   19.6543  -31.5537 H   0  0  0  0  0  0  0  0  0  0  0  0
   -2.1976   18.3274  -34.8506 H   0  0  0  0  0  0  0  0  0  0  0  0
   -2.9548   16.7867  -34.2998 H   0  0  0  0  0  0  0  0  0  0  0  0
   -4.4259   18.7554  -35.3598 H   0  0  0  0  0  0  0  0  0  0  0  0
   -5.0243   17.7451  -33.9671 H   0  0  0  0  0  0  0  0  0  0  0  0
   -5.0773   21.8738  -32.9328 H   0  0  0  0  0  0  0  0  0  0  0  0
   -3.4318   23.5639  -32.1264 H   0  0  0  0  0  0  0  0  0  0  0  0
   -4.0701   22.6933  -29.0768 H   0  0  0  0  0  0  0  0  0  0  0  0
   -3.5013   20.3616  -28.4058 H   0  0  0  0  0  0  0  0  0  0  0  0
   -1.1292   19.7343  -27.9515 H   0  0  0  0  0  0  0  0  0  0  0  0
    0.6821   21.4254  -28.2115 H   0  0  0  0  0  0  0  0  0  0  0  0
    0.2650   24.9150  -29.0320 H   0  0  0  0  0  0  0  0  0  0  0  0
  1  2  2  0
  2  3  1  0
  3  4  1  0
  4  5  2  0
  5  6  1  0
  6  7  2  0
  7  8  1  0
  8  9  2  0
  9 10  1  0
 10 11  2  0
 11 12  1  0
 12 13  2  0
 13 14  1  0
 14 15  2  0
 14 16  2  0
 14 17  1  0
 17 18  1  0
 18 19  1  0
 19 20  1  0
 20 21  1  0
 21 22  1  0
  7 23  1  0
 23 24  2  0
  2 25  1  0
 25 26  2  0
 26 27  1  0
 27 28  2  0
 28 29  1  0
 29 30  2  0
 30 31  1  0
 24  4  1  0
 30 25  1  0
 13  8  1  0
 22 17  1  0
  5 32  1  0
  6 33  1  0
  9 34  1  0
 10 35  1  0
 11 36  1  0
 12 37  1  0
 18 38  1  0
 18 39  1  0
 19 40  1  0
 19 41  1  0
 21 42  1  0
 21 43  1  0
 22 44  1  0
 22 45  1  0
 23 46  1  0
 24 47  1  0
 26 48  1  0
 27 49  1  0
 28 50  1  0
 29 51  1  0
 31 52  1  0
M  CHG  1   3  -1
M  END
>  <UniqueID>  (39) 
39

>  <SMILES>  (39) 
O=C([N-]c1ccc(-c2ccccc2S(=O)(=O)N2CCOCC2)cc1)c1ccccc1O

>  <Energy>  (39) 
81.2861158639756

>  <Genealogy>  (39) 
O=C([N-]c1ccc(-c2ccccc2S(=O)(=O)N2CCOCC2)cc1)c1ccccc1O (protonated)
O=C([N-]c1ccc(-c2ccccc2S(=O)(=O)N2CCOCC2)cc1)c1ccccc1O (3D coordinates assigned)
O=C([N-]c1ccc(-c2ccccc2S(=O)(=O)N2CCOCC2)cc1)c1ccccc1O (nonaromatic ring conformer: 81.2861158639756 kcal/mol)

>  <smiles>  (39) 
O=C(Nc1ccc(-c2ccccc2S(=O)(=O)N2CCOCC2)cc1)c1ccccc1O

>  <score_type>  (39) 
oracle

>  <origin>  (39) 
adgpu

>  <m_score__min__energy>  (39) 
-11.779999999999999

>  <m_primary>  (39) 
energy

$$$$
39:0
     RDKit          3D

 58 61  0  0  0  0  0  0  0  0999 V2000
    2.7430   25.1850  -27.5090 C   0  0  0  0  0  0  0  0  0  0  0  0
    1.7340   24.4630  -28.2070 O   0  0  0  0  0  0  0  0  0  0  0  0
    0.3610   24.5590  -27.9340 C   0  0  0  0  0  0  0  0  0  0  0  0
   -0.2060   25.6790  -27.2970 C   0  0  0  0  0  0  0  0  0  0  0  0
   -1.5820   25.7260  -27.0480 C   0  0  0  0  0  0  0  0  0  0  0  0
   -2.4090   24.6610  -27.4330 C   0  0  0  0  0  0  0  0  0  0  0  0
   -3.8850   24.6930  -27.1440 C   0  0  0  0  0  0  0  0  0  0  0  0
   -4.6180   23.9520  -28.1680 N   0  0  0  0  0  0  0  0  0  0  0  0
   -4.5850   24.3220  -29.5540 C   0  0  0  0  0  0  0  0  0  0  0  0
   -3.8550   25.2770  -29.9360 O   0  0  0  0  0  0  0  0  0  0  0  0
   -5.3980   23.6040  -30.5490 C   0  0  0  0  0  0  0  0  0  0  0  0
   -5.0810   22.3780  -31.0170 N   0  0  0  0  0  0  0  0  0  0  0  0
   -5.9780   21.9170  -31.9350 C   0  0  0  0  0  0  0  0  0  0  0  0
   -5.8060   20.5920  -32.5870 C   0  0  0  0  0  0  0  0  0  0  0  0
   -6.9310   19.8030  -32.8670 C   0  0  0  0  0  0  0  0  0  0  0  0
   -6.7930   18.5540  -33.4720 C   0  0  0  0  0  0  0  0  0  0  0  0
   -5.5260   18.0620  -33.8220 C   0  0  0  0  0  0  0  0  0  0  0  0
   -5.4250   16.6930  -34.4400 C   0  0  0  0  0  0  0  0  0  0  0  0
   -4.3800   18.8430  -33.5390 C   0  0  0  0  0  0  0  0  0  0  0  0
   -2.7450   18.2710  -33.9230 S   0  0  0  0  0  0  0  0  0  0  0  0
   -2.2630   17.3910  -32.8040 O   0  0  0  0  0  0  0  0  0  0  0  0
   -2.7630   17.4650  -35.1930 O   0  0  0  0  0  0  0  0  0  0  0  0
   -1.6690   19.6320  -34.1140 N   0  0  0  0  0  0  0  0  0  0  0  0
   -0.4760   19.2270  -34.8740 C   0  0  0  0  0  0  0  0  0  0  0  0
    0.5060   20.4120  -34.9950 C   0  0  0  0  0  0  0  0  0  0  0  0
    0.0520   21.5540  -34.2920 O   0  0  0  0  0  0  0  0  0  0  0  0
   -0.1720   21.2200  -32.9360 C   0  0  0  0  0  0  0  0  0  0  0  0
   -1.2790   20.1560  -32.7950 C   0  0  0  0  0  0  0  0  0  0  0  0
   -4.5340   20.1030  -32.9350 C   0  0  0  0  0  0  0  0  0  0  0  0
   -7.0280   22.8010  -32.2070 C   0  0  0  0  0  0  0  0  0  0  0  0
   -6.8090   24.1750  -31.2640 S   0  0  0  0  0  0  0  0  0  0  0  0
   -1.8430   23.5440  -28.0640 C   0  0  0  0  0  0  0  0  0  0  0  0
   -0.4680   23.4970  -28.3130 C   0  0  0  0  0  0  0  0  0  0  0  0
    2.5893   25.0751  -26.4253 H   0  0  0  0  0  0  0  0  0  0  0  0
    3.7323   24.7885  -27.7812 H   0  0  0  0  0  0  0  0  0  0  0  0
    2.6870   26.2493  -27.7812 H   0  0  0  0  0  0  0  0  0  0  0  0
    0.4349   26.5201  -26.9940 H   0  0  0  0  0  0  0  0  0  0  0  0
   -2.0175   26.6033  -26.5474 H   0  0  0  0  0  0  0  0  0  0  0  0
   -4.0724   24.2359  -26.1612 H   0  0  0  0  0  0  0  0  0  0  0  0
   -4.2273   25.7384  -27.1446 H   0  0  0  0  0  0  0  0  0  0  0  0
   -5.1790   23.1250  -27.8640 H   0  0  0  0  0  0  0  0  0  0  0  0
   -7.9335   20.1734  -32.6065 H   0  0  0  0  0  0  0  0  0  0  0  0
   -7.6875   17.9475  -33.6772 H   0  0  0  0  0  0  0  0  0  0  0  0
   -5.3691   15.9350  -33.6448 H   0  0  0  0  0  0  0  0  0  0  0  0
   -6.3118   16.5058  -35.0634 H   0  0  0  0  0  0  0  0  0  0  0  0
   -4.5204   16.6379  -35.0634 H   0  0  0  0  0  0  0  0  0  0  0  0
    0.0210   18.3948  -34.3540 H   0  0  0  0  0  0  0  0  0  0  0  0
   -0.7826   18.9102  -35.8818 H   0  0  0  0  0  0  0  0  0  0  0  0
    1.4808   20.1080  -34.5859 H   0  0  0  0  0  0  0  0  0  0  0  0
    0.5853   20.6788  -36.0592 H   0  0  0  0  0  0  0  0  0  0  0  0
    0.7604   20.8258  -32.5056 H   0  0  0  0  0  0  0  0  0  0  0  0
   -0.4938   22.1275  -32.4042 H   0  0  0  0  0  0  0  0  0  0  0  0
   -0.9070   19.3282  -32.1734 H   0  0  0  0  0  0  0  0  0  0  0  0
   -2.1583   20.6211  -32.3255 H   0  0  0  0  0  0  0  0  0  0  0  0
   -3.6444   20.7170  -32.7310 H   0  0  0  0  0  0  0  0  0  0  0  0
   -7.8524   22.6272  -32.9142 H   0  0  0  0  0  0  0  0  0  0  0  0
   -2.4833   22.7014  -28.3643 H   0  0  0  0  0  0  0  0  0  0  0  0
   -0.0340   22.6176  -28.8112 H   0  0  0  0  0  0  0  0  0  0  0  0
  1  2  1  0
  2  3  1  0
  3  4  2  0
  4  5  1  0
  5  6  2  0
  6  7  1  0
  7  8  1  0
  8  9  1  0
  9 10  2  0
  9 11  1  0
 11 12  2  0
 12 13  1  0
 13 14  1  0
 14 15  2  0
 15 16  1  0
 16 17  2  0
 17 18  1  0
 17 19  1  0
 19 20  1  0
 20 21  2  0
 20 22  2  0
 20 23  1  0
 23 24  1  0
 24 25  1  0
 25 26  1  0
 26 27  1  0
 27 28  1  0
 19 29  2  0
 13 30  2  0
 30 31  1  0
  6 32  1  0
 32 33  2  0
 33  3  1  0
 31 11  1  0
 29 14  1  0
 28 23  1  0
  1 34  1  0
  1 35  1  0
  1 36  1  0
  4 37  1  0
  5 38  1  0
  7 39  1  0
  7 40  1  0
  8 41  1  0
 15 42  1  0
 16 43  1  0
 18 44  1  0
 18 45  1  0
 18 46  1  0
 24 47  1  0
 24 48  1  0
 25 49  1  0
 25 50  1  0
 27 51  1  0
 27 52  1  0
 28 53  1  0
 28 54  1  0
 29 55  1  0
 30 56  1  0
 32 57  1  0
 33 58  1  0
M  END
>  <UniqueID>  (40) 
40

>  <SMILES>  (40) 
COc1ccc(CNC(=O)c2nc(-c3ccc(C)c(S(=O)(=O)N4CCOCC4)c3)cs2)cc1

>  <Energy>  (40) 
97.04711999763609

>  <Genealogy>  (40) 
COc1ccc(CNC(=O)c2nc(-c3ccc(C)c(S(=O)(=O)N4CCOCC4)c3)cs2)cc1 (3D coordinates assigned)
COc1ccc(CNC(=O)c2nc(-c3ccc(C)c(S(=O)(=O)N4CCOCC4)c3)cs2)cc1 (nonaromatic ring conformer: 97.04711999763609 kcal/mol)

>  <smiles>  (40) 
COc1ccc(CNC(=O)c2nc(-c3ccc(C)c(S(=O)(=O)N4CCOCC4)c3)cs2)cc1

>  <score_type>  (40) 
oracle

>  <origin>  (40) 
adgpu

>  <m_score__min__energy>  (40) 
-10.300000000000001

>  <m_primary>  (40) 
energy

$$$$
40:0
     RDKit          3D

 42 44  0  0  0  0  0  0  0  0999 V2000
   -4.3170   16.1150  -34.6090 C   0  0  0  0  0  0  0  0  0  0  0  0
   -4.9870   16.5600  -33.3910 N   0  0  0  0  0  0  0  0  0  0  0  0
   -4.9890   15.9190  -32.2120 C   0  0  0  0  0  0  0  0  0  0  0  0
   -5.7370   16.6600  -31.3240 C   0  0  0  0  0  0  0  0  0  0  0  0
   -6.2170   17.7590  -31.9420 N   0  0  0  0  0  0  0  0  0  0  0  0
   -5.7460   17.6600  -33.2030 C   0  0  0  0  0  0  0  0  0  0  0  0
   -6.1170   18.8770  -34.4710 S   0  0  0  0  0  0  0  0  0  0  0  0
   -6.1340   20.2310  -33.2860 C   0  0  0  0  0  0  0  0  0  0  0  0
   -4.9340   20.9310  -33.1040 C   0  0  0  0  0  0  0  0  0  0  0  0
   -4.8720   22.0320  -32.2540 C   0  0  0  0  0  0  0  0  0  0  0  0
   -6.0080   22.4470  -31.5590 C   0  0  0  0  0  0  0  0  0  0  0  0
   -5.9550   23.9300  -30.6100 S   0  0  0  0  0  0  0  0  0  0  0  0
   -4.9860   24.9140  -31.2050 O   0  0  0  0  0  0  0  0  0  0  0  0
   -7.3260   24.5430  -30.5870 O   0  0  0  0  0  0  0  0  0  0  0  0
   -5.4620   23.5600  -28.9890 N   0  0  0  0  0  0  0  0  0  0  0  0
   -4.1020   23.3920  -28.5640 C   0  0  0  0  0  0  0  0  0  0  0  0
   -3.7220   22.1710  -28.0050 C   0  0  0  0  0  0  0  0  0  0  0  0
   -2.3950   21.9440  -27.6380 C   0  0  0  0  0  0  0  0  0  0  0  0
   -1.4260   22.9370  -27.8120 C   0  0  0  0  0  0  0  0  0  0  0  0
   -0.1020   22.6170  -27.4990 O   0  0  0  0  0  0  0  0  0  0  0  0
   -1.8030   24.2020  -28.3270 C   0  0  0  0  0  0  0  0  0  0  0  0
   -0.8530   25.3290  -28.4700 C   0  0  0  0  0  0  0  0  0  0  0  0
   -1.2150   26.4210  -28.9800 O   0  0  0  0  0  0  0  0  0  0  0  0
    0.4750   25.1650  -28.0980 O   0  0  0  0  0  0  0  0  0  0  0  0
   -3.1420   24.4090  -28.7070 C   0  0  0  0  0  0  0  0  0  0  0  0
   -7.2050   21.7320  -31.6960 C   0  0  0  0  0  0  0  0  0  0  0  0
   -7.2940   20.6170  -32.5540 C   0  0  0  0  0  0  0  0  0  0  0  0
   -8.5550   19.9140  -32.6460 N   0  0  0  0  0  0  0  0  0  0  0  0
   -8.6090   18.6730  -32.7570 O   0  0  0  0  0  0  0  0  0  0  0  0
   -9.7350   20.6200  -32.6820 O   0  0  0  0  0  0  0  0  0  0  0  0
   -3.4278   15.5244  -34.3435 H   0  0  0  0  0  0  0  0  0  0  0  0
   -5.0061   15.4945  -35.2007 H   0  0  0  0  0  0  0  0  0  0  0  0
   -4.0122   16.9908  -35.2007 H   0  0  0  0  0  0  0  0  0  0  0  0
   -4.4818   14.9678  -31.9930 H   0  0  0  0  0  0  0  0  0  0  0  0
   -5.9158   16.3959  -30.2712 H   0  0  0  0  0  0  0  0  0  0  0  0
   -4.0295   20.6066  -33.6394 H   0  0  0  0  0  0  0  0  0  0  0  0
   -3.9242   22.5763  -32.1301 H   0  0  0  0  0  0  0  0  0  0  0  0
   -4.4735   21.3823  -27.8527 H   0  0  0  0  0  0  0  0  0  0  0  0
   -2.1081   20.9734  -27.2072 H   0  0  0  0  0  0  0  0  0  0  0  0
    0.6570   23.2800  -27.5280 H   0  0  0  0  0  0  0  0  0  0  0  0
   -3.4424   25.3822  -29.1226 H   0  0  0  0  0  0  0  0  0  0  0  0
   -8.0907   22.0461  -31.1242 H   0  0  0  0  0  0  0  0  0  0  0  0
  1  2  1  0
  2  3  1  0
  3  4  2  0
  4  5  1  0
  5  6  2  0
  6  7  1  0
  7  8  1  0
  8  9  2  0
  9 10  1  0
 10 11  2  0
 11 12  1  0
 12 13  2  0
 12 14  2  0
 12 15  1  0
 15 16  1  0
 16 17  2  0
 17 18  1  0
 18 19  2  0
 19 20  1  0
 19 21  1  0
 21 22  1  0
 22 23  2  0
 22 24  1  0
 21 25  2  0
 11 26  1  0
 26 27  2  0
 27 28  1  0
 28 29  2  0
 28 30  1  0
  6  2  1  0
 27  8  1  0
 25 16  1  0
  1 31  1  0
  1 32  1  0
  1 33  1  0
  3 34  1  0
  4 35  1  0
  9 36  1  0
 10 37  1  0
 17 38  1  0
 18 39  1  0
 20 40  1  0
 25 41  1  0
 26 42  1  0
M  CHG  4  15  -1  24  -1  28   1  30  -1
M  END
>  <UniqueID>  (41) 
41

>  <SMILES>  (41) 
Cn1ccnc1Sc1ccc(S(=O)(=O)[N-]c2ccc(O)c(C(=O)[O-])c2)cc1[N+](=O)[O-]

>  <Energy>  (41) 
81.52278084828676

>  <Genealogy>  (41) 
Cn1ccnc1Sc1ccc(S(=O)(=O)[N-]c2ccc(O)c(C(=O)[O-])c2)cc1[N+](=O)[O-] (protonated)
Cn1ccnc1Sc1ccc(S(=O)(=O)[N-]c2ccc(O)c(C(=O)[O-])c2)cc1[N+](=O)[O-] (3D coordinates assigned)
Cn1ccnc1Sc1ccc(S(=O)(=O)[N-]c2ccc(O)c(C(=O)[O-])c2)cc1[N+](=O)[O-] (optimized conformer: 81.52278084828676 kcal/mol)

>  <smiles>  (41) 
Cn1ccnc1Sc1ccc(S(=O)(=O)Nc2ccc(O)c(C(=O)O)c2)cc1[N+](=O)[O-]

>  <score_type>  (41) 
oracle

>  <origin>  (41) 
adgpu

>  <m_score__min__energy>  (41) 
-10.69

>  <m_primary>  (41) 
energy

$$$$
41:0
     RDKit          3D

 51 55  0  0  0  0  0  0  0  0999 V2000
  -10.5333   20.7592  -32.6032 H   0  0  0  0  0  0  0  0  0  0  0  0
   -9.4690   20.8540  -32.3420 C   0  0  0  0  0  0  0  0  0  0  0  0
   -8.6130   19.8360  -32.6120 N   0  0  0  0  0  0  0  0  0  0  0  0
   -7.2850   19.8990  -32.3170 C   0  0  0  0  0  0  0  0  0  0  0  0
   -6.4530   18.7150  -32.6210 C   0  0  0  0  0  0  0  0  0  0  0  0
   -6.8590   17.4460  -32.1800 C   0  0  0  0  0  0  0  0  0  0  0  0
   -7.7827   17.3423  -31.5918 H   0  0  0  0  0  0  0  0  0  0  0  0
   -6.1000   16.3150  -32.4820 C   0  0  0  0  0  0  0  0  0  0  0  0
   -6.4246   15.3275  -32.1220 H   0  0  0  0  0  0  0  0  0  0  0  0
   -4.9250   16.4280  -33.2420 C   0  0  0  0  0  0  0  0  0  0  0  0
   -4.1170   15.2220  -33.5620 C   0  0  0  0  0  0  0  0  0  0  0  0
   -3.9840   14.1810  -32.6230 C   0  0  0  0  0  0  0  0  0  0  0  0
   -4.4823   14.2594  -31.6455 H   0  0  0  0  0  0  0  0  0  0  0  0
   -3.2220   13.0480  -32.9260 C   0  0  0  0  0  0  0  0  0  0  0  0
   -3.1226   12.2399  -32.1864 H   0  0  0  0  0  0  0  0  0  0  0  0
   -2.5870   12.9400  -34.1650 C   0  0  0  0  0  0  0  0  0  0  0  0
   -1.9882   12.0479  -34.4007 H   0  0  0  0  0  0  0  0  0  0  0  0
   -2.7130   13.9670  -35.1060 C   0  0  0  0  0  0  0  0  0  0  0  0
   -2.0910   13.8620  -36.3060 F   0  0  0  0  0  0  0  0  0  0  0  0
   -3.4730   15.1020  -34.8070 C   0  0  0  0  0  0  0  0  0  0  0  0
   -3.5680   15.9069  -35.5507 H   0  0  0  0  0  0  0  0  0  0  0  0
   -4.5270   17.6960  -33.6990 C   0  0  0  0  0  0  0  0  0  0  0  0
   -3.6116   17.7930  -34.3012 H   0  0  0  0  0  0  0  0  0  0  0  0
   -5.2850   18.8450  -33.3960 C   0  0  0  0  0  0  0  0  0  0  0  0
   -4.9050   20.1240  -33.8370 O   0  0  0  0  0  0  0  0  0  0  0  0
   -3.5730   20.6280  -33.8040 C   0  0  0  0  0  0  0  0  0  0  0  0
   -3.2526   20.7492  -32.7587 H   0  0  0  0  0  0  0  0  0  0  0  0
   -2.9011   19.9220  -34.3139 H   0  0  0  0  0  0  0  0  0  0  0  0
   -3.5368   21.6020  -34.3139 H   0  0  0  0  0  0  0  0  0  0  0  0
   -6.7580   21.0720  -31.7220 C   0  0  0  0  0  0  0  0  0  0  0  0
   -5.3850   21.2310  -31.4450 C   0  0  0  0  0  0  0  0  0  0  0  0
   -4.6807   20.4244  -31.6969 H   0  0  0  0  0  0  0  0  0  0  0  0
   -4.9120   22.4030  -30.8540 C   0  0  0  0  0  0  0  0  0  0  0  0
   -3.8386   22.5123  -30.6396 H   0  0  0  0  0  0  0  0  0  0  0  0
   -5.7950   23.4410  -30.5320 C   0  0  0  0  0  0  0  0  0  0  0  0
   -5.1800   24.9040  -29.7660 S   0  0  0  0  0  0  0  0  0  0  0  0
   -6.3110   25.8170  -29.3830 O   0  0  0  0  0  0  0  0  0  0  0  0
   -4.2780   25.6180  -30.7320 O   0  0  0  0  0  0  0  0  0  0  0  0
   -4.2810   24.4900  -28.3430 N   0  0  0  0  0  0  0  0  0  0  0  0
   -2.9870   24.5440  -28.2830 C   0  0  0  0  0  0  0  0  0  0  0  0
   -2.1970   24.9230  -29.3120 N   0  0  0  0  0  0  0  0  0  0  0  0
   -0.8830   24.8950  -28.9650 C   0  0  0  0  0  0  0  0  0  0  0  0
   -0.0812   25.1706  -29.6658 H   0  0  0  0  0  0  0  0  0  0  0  0
   -0.6270   24.4920  -27.6580 C   0  0  0  0  0  0  0  0  0  0  0  0
    0.3658   24.4046  -27.1924 H   0  0  0  0  0  0  0  0  0  0  0  0
   -2.1010   24.1610  -26.9120 S   0  0  0  0  0  0  0  0  0  0  0  0
   -7.1570   23.3110  -30.8260 C   0  0  0  0  0  0  0  0  0  0  0  0
   -7.8492   24.1321  -30.5880 H   0  0  0  0  0  0  0  0  0  0  0  0
   -7.6440   22.1380  -31.4230 C   0  0  0  0  0  0  0  0  0  0  0  0
   -9.0040   22.0190  -31.7350 C   0  0  0  0  0  0  0  0  0  0  0  0
   -9.6998   22.8387  -31.5027 H   0  0  0  0  0  0  0  0  0  0  0  0
  1  2  1  0
  2  3  2  0
  3  4  1  0
  4  5  1  0
  5  6  2  0
  6  7  1  0
  6  8  1  0
  8  9  1  0
  8 10  2  0
 10 11  1  0
 11 12  2  0
 12 13  1  0
 12 14  1  0
 14 15  1  0
 14 16  2  0
 16 17  1  0
 16 18  1  0
 18 19  1  0
 18 20  2  0
 20 21  1  0
 10 22  1  0
 22 23  1  0
 22 24  2  0
 24 25  1  0
 25 26  1  0
 26 27  1  0
 26 28  1  0
 26 29  1  0
  4 30  2  0
 30 31  1  0
 31 32  1  0
 31 33  2  0
 33 34  1  0
 33 35  1  0
 35 36  1  0
 36 37  2  0
 36 38  2  0
 36 39  1  0
 39 40  2  0
 40 41  1  0
 41 42  1  0
 42 43  1  0
 42 44  2  0
 44 45  1  0
 44 46  1  0
 35 47  2  0
 47 48  1  0
 47 49  1  0
 49 50  2  0
 50 51  1  0
 50  2  1  0
 24  5  1  0
 49 30  1  0
 20 11  1  0
 46 40  1  0
M  CHG  1  41  -1
M  END
>  <UniqueID>  (42) 
42

>  <SMILES>  (42) 
COc1cc(-c2cccc(F)c2)ccc1-c1nccc2cc(S(=O)(=O)/N=c3\[n-]ccs3)ccc12

>  <Energy>  (42) 
107.58544959010341

>  <Genealogy>  (42) 
COc1cc(-c2cccc(F)c2)ccc1-c1nccc2cc(S(=O)(=O)N=c3[n-]ccs3)ccc12 (protonated)
COc1cc(-c2cccc(F)c2)ccc1-c1nccc2cc(S(=O)(=O)/N=c3\[n-]ccs3)ccc12 (cis-trans isomerization)
COc1cc(-c2cccc(F)c2)ccc1-c1nccc2cc(S(=O)(=O)/N=c3\[n-]ccs3)ccc12 (3D coordinates assigned)
COc1cc(-c2cccc(F)c2)ccc1-c1nccc2cc(S(=O)(=O)/N=c3\[n-]ccs3)ccc12 (optimized conformer: 107.58544959010341 kcal/mol)

>  <smiles>  (42) 
COc1cc(-c2cccc(F)c2)ccc1-c1nccc2cc(S(=O)(=O)N=c3[nH]ccs3)ccc12

>  <score_type>  (42) 
oracle

>  <origin>  (42) 
adgpu

>  <m_score__min__energy>  (42) 
-12.41

>  <m_primary>  (42) 
energy

$$$$
42:0
     RDKit          3D

 68 71  0  0  0  0  0  0  0  0999 V2000
   -7.7860   23.1200  -31.3640 C   0  0  0  0  0  0  0  0  0  0  0  0
   -6.4600   23.6870  -30.9500 C   0  0  0  0  0  0  0  0  0  0  0  0
   -6.2890   25.0750  -30.8370 C   0  0  0  0  0  0  0  0  0  0  0  0
   -5.0620   25.6010  -30.4270 C   0  0  0  0  0  0  0  0  0  0  0  0
   -4.0000   24.7490  -30.1090 C   0  0  0  0  0  0  0  0  0  0  0  0
   -2.7810   25.2980  -29.7200 O   0  0  0  0  0  0  0  0  0  0  0  0
   -4.1690   23.3530  -30.1820 C   0  0  0  0  0  0  0  0  0  0  0  0
   -3.0280   22.4190  -29.8720 C   0  0  0  0  0  0  0  0  0  0  0  0
   -1.8340   22.8350  -30.6190 N   0  0  0  0  0  0  0  0  0  0  0  0
   -0.6790   21.9680  -30.3370 C   0  0  0  0  0  0  0  0  0  0  0  0
   -0.6910   20.7120  -31.1770 C   0  0  0  0  0  0  0  0  0  0  0  0
   -0.9670   20.7860  -32.5520 C   0  0  0  0  0  0  0  0  0  0  0  0
   -0.9560   19.6300  -33.3370 C   0  0  0  0  0  0  0  0  0  0  0  0
   -0.6640   18.3880  -32.7580 C   0  0  0  0  0  0  0  0  0  0  0  0
   -0.6710   16.9210  -33.7360 S   0  0  0  0  0  0  0  0  0  0  0  0
    0.0310   15.8300  -32.9770 O   0  0  0  0  0  0  0  0  0  0  0  0
    0.0720   17.1630  -35.0220 O   0  0  0  0  0  0  0  0  0  0  0  0
   -2.3160   16.4380  -34.0740 N   0  0  0  0  0  0  0  0  0  0  0  0
   -3.0510   16.2000  -32.8120 C   0  0  0  0  0  0  0  0  0  0  0  0
   -4.5550   16.4050  -32.9930 C   0  0  0  0  0  0  0  0  0  0  0  0
   -4.8320   17.8170  -33.3210 N   0  0  0  0  0  0  0  0  0  0  0  0
   -6.2490   18.1580  -33.6230 C   0  0  0  0  0  0  0  0  0  0  0  0
   -7.2900   17.4120  -32.7430 C   0  0  0  0  0  0  0  0  0  0  0  0
   -7.8240   18.2150  -31.5420 C   0  0  0  0  0  0  0  0  0  0  0  0
   -8.1850   19.6010  -31.8850 N   0  0  0  0  0  0  0  0  0  0  0  0
   -9.3910   19.6880  -32.7260 C   0  0  0  0  0  0  0  0  0  0  0  0
   -7.0380   20.3330  -32.4440 C   0  0  0  0  0  0  0  0  0  0  0  0
   -6.4780   19.6860  -33.7220 C   0  0  0  0  0  0  0  0  0  0  0  0
   -3.8490   18.4330  -34.2520 C   0  0  0  0  0  0  0  0  0  0  0  0
   -2.9800   17.3960  -34.9880 C   0  0  0  0  0  0  0  0  0  0  0  0
   -0.3920   18.3100  -31.3870 C   0  0  0  0  0  0  0  0  0  0  0  0
   -0.4000   19.4660  -30.6010 C   0  0  0  0  0  0  0  0  0  0  0  0
   -5.4010   22.8310  -30.6130 C   0  0  0  0  0  0  0  0  0  0  0  0
   -8.3732   22.8689  -30.4683 H   0  0  0  0  0  0  0  0  0  0  0  0
   -8.3316   23.8635  -31.9636 H   0  0  0  0  0  0  0  0  0  0  0  0
   -7.6254   22.2119  -31.9636 H   0  0  0  0  0  0  0  0  0  0  0  0
   -7.1242   25.7511  -31.0721 H   0  0  0  0  0  0  0  0  0  0  0  0
   -4.9304   26.6907  -30.3539 H   0  0  0  0  0  0  0  0  0  0  0  0
   -2.8137   22.4482  -28.7935 H   0  0  0  0  0  0  0  0  0  0  0  0
   -3.3040   21.3953  -30.1650 H   0  0  0  0  0  0  0  0  0  0  0  0
   -1.5940   23.8210  -30.3580 H   0  0  0  0  0  0  0  0  0  0  0  0
    0.2442   22.5273  -30.5489 H   0  0  0  0  0  0  0  0  0  0  0  0
   -0.7312   21.6684  -29.2799 H   0  0  0  0  0  0  0  0  0  0  0  0
   -1.1929   21.7587  -33.0133 H   0  0  0  0  0  0  0  0  0  0  0  0
   -1.1772   19.6953  -34.4125 H   0  0  0  0  0  0  0  0  0  0  0  0
   -2.8682   15.1670  -32.4812 H   0  0  0  0  0  0  0  0  0  0  0  0
   -2.6920   16.9204  -32.0622 H   0  0  0  0  0  0  0  0  0  0  0  0
   -4.9152   15.7630  -33.8103 H   0  0  0  0  0  0  0  0  0  0  0  0
   -5.0722   16.1413  -32.0586 H   0  0  0  0  0  0  0  0  0  0  0  0
   -6.4407   17.7611  -34.6308 H   0  0  0  0  0  0  0  0  0  0  0  0
   -8.1451   17.1429  -33.3805 H   0  0  0  0  0  0  0  0  0  0  0  0
   -6.7672   16.5408  -32.3215 H   0  0  0  0  0  0  0  0  0  0  0  0
   -8.7183   17.7072  -31.1518 H   0  0  0  0  0  0  0  0  0  0  0  0
   -7.0171   18.2625  -30.7959 H   0  0  0  0  0  0  0  0  0  0  0  0
  -10.2819   19.7523  -32.0840 H   0  0  0  0  0  0  0  0  0  0  0  0
   -9.3313   20.5842  -33.3611 H   0  0  0  0  0  0  0  0  0  0  0  0
   -9.4605   18.7925  -33.3611 H   0  0  0  0  0  0  0  0  0  0  0  0
   -7.3583   21.3582  -32.6814 H   0  0  0  0  0  0  0  0  0  0  0  0
   -6.2379   20.3175  -31.6893 H   0  0  0  0  0  0  0  0  0  0  0  0
   -7.1875   19.8744  -34.5413 H   0  0  0  0  0  0  0  0  0  0  0  0
   -5.4905   20.1390  -33.8941 H   0  0  0  0  0  0  0  0  0  0  0  0
   -4.3982   19.0234  -35.0002 H   0  0  0  0  0  0  0  0  0  0  0  0
   -3.1734   19.0573  -33.6488 H   0  0  0  0  0  0  0  0  0  0  0  0
   -3.6210   16.8313  -35.6810 H   0  0  0  0  0  0  0  0  0  0  0  0
   -2.1879   17.9480  -35.5151 H   0  0  0  0  0  0  0  0  0  0  0  0
   -0.1712   17.3357  -30.9266 H   0  0  0  0  0  0  0  0  0  0  0  0
   -0.1771   19.3986  -29.5259 H   0  0  0  0  0  0  0  0  0  0  0  0
   -5.5358   21.7418  -30.6866 H   0  0  0  0  0  0  0  0  0  0  0  0
  1  2  1  0
  2  3  2  0
  3  4  1  0
  4  5  2  0
  5  6  1  0
  5  7  1  0
  7  8  1  0
  8  9  1  0
  9 10  1  0
 10 11  1  0
 11 12  2  0
 12 13  1  0
 13 14  2  0
 14 15  1  0
 15 16  2  0
 15 17  2  0
 15 18  1  0
 18 19  1  0
 19 20  1  0
 20 21  1  0
 21 22  1  0
 22 23  1  0
 23 24  1  0
 24 25  1  0
 25 26  1  0
 25 27  1  0
 27 28  1  0
 21 29  1  0
 29 30  1  0
 14 31  1  0
 31 32  2  0
  7 33  2  0
 33  2  1  0
 32 11  1  0
 30 18  1  0
 28 22  1  0
  1 34  1  0
  1 35  1  0
  1 36  1  0
  3 37  1  0
  4 38  1  0
  8 39  1  0
  8 40  1  0
  9 41  1  0
 10 42  1  0
 10 43  1  0
 12 44  1  0
 13 45  1  0
 19 46  1  0
 19 47  1  0
 20 48  1  0
 20 49  1  0
 22 50  1  0
 23 51  1  0
 23 52  1  0
 24 53  1  0
 24 54  1  0
 26 55  1  0
 26 56  1  0
 26 57  1  0
 27 58  1  0
 27 59  1  0
 28 60  1  0
 28 61  1  0
 29 62  1  0
 29 63  1  0
 30 64  1  0
 30 65  1  0
 31 66  1  0
 32 67  1  0
 33 68  1  0
M  CHG  1   6  -1
M  END
>  <UniqueID>  (43) 
43

>  <SMILES>  (43) 
Cc1ccc([O-])c(CNCc2ccc(S(=O)(=O)N3CCN(C4CCN(C)CC4)CC3)cc2)c1

>  <Energy>  (43) 
91.82763490395332

>  <Genealogy>  (43) 
Cc1ccc([O-])c(CNCc2ccc(S(=O)(=O)N3CCN(C4CCN(C)CC4)CC3)cc2)c1 (protonated)
Cc1ccc([O-])c(CNCc2ccc(S(=O)(=O)N3CCN(C4CCN(C)CC4)CC3)cc2)c1 (3D coordinates assigned)
Cc1ccc([O-])c(CNCc2ccc(S(=O)(=O)N3CCN(C4CCN(C)CC4)CC3)cc2)c1 (nonaromatic ring conformer: 91.82763490395332 kcal/mol)

>  <smiles>  (43) 
Cc1ccc(O)c(CNCc2ccc(S(=O)(=O)N3CCN(C4CCN(C)CC4)CC3)cc2)c1

>  <score_type>  (43) 
oracle

>  <origin>  (43) 
adgpu

>  <m_score__min__energy>  (43) 
-14.32

>  <m_primary>  (43) 
energy

$$$$
43:0
     RDKit          3D

 55 58  0  0  0  0  0  0  0  0999 V2000
   -5.9000   15.5670  -33.8820 C   0  0  0  0  0  0  0  0  0  0  0  0
   -4.8880   16.6390  -33.8630 N   0  0  0  0  0  0  0  0  0  0  0  0
   -4.8690   17.3440  -32.5520 C   0  0  0  0  0  0  0  0  0  0  0  0
   -4.8760   18.8740  -32.6700 C   0  0  0  0  0  0  0  0  0  0  0  0
   -5.9460   19.2850  -33.5830 N   0  0  0  0  0  0  0  0  0  0  0  0
   -6.9180   20.2670  -33.1840 C   0  0  0  0  0  0  0  0  0  0  0  0
   -8.1400   20.0510  -33.4140 O   0  0  0  0  0  0  0  0  0  0  0  0
   -6.5180   21.5220  -32.5110 C   0  0  0  0  0  0  0  0  0  0  0  0
   -5.1760   21.9410  -32.5300 C   0  0  0  0  0  0  0  0  0  0  0  0
   -4.7890   23.1140  -31.8750 C   0  0  0  0  0  0  0  0  0  0  0  0
   -5.7370   23.8820  -31.1800 C   0  0  0  0  0  0  0  0  0  0  0  0
   -5.3160   25.1410  -30.4750 C   0  0  0  0  0  0  0  0  0  0  0  0
   -3.8630   25.2900  -30.4660 N   0  0  0  0  0  0  0  0  0  0  0  0
   -3.0470   24.9240  -29.3480 C   0  0  0  0  0  0  0  0  0  0  0  0
   -3.5780   24.3590  -28.3580 O   0  0  0  0  0  0  0  0  0  0  0  0
   -1.6350   25.1670  -29.3410 N   0  0  0  0  0  0  0  0  0  0  0  0
   -0.8570   25.4670  -28.1750 C   0  0  0  0  0  0  0  0  0  0  0  0
    0.2490   24.6810  -27.8100 C   0  0  0  0  0  0  0  0  0  0  0  0
    0.9920   24.9940  -26.6690 C   0  0  0  0  0  0  0  0  0  0  0  0
    0.6410   26.0940  -25.8770 C   0  0  0  0  0  0  0  0  0  0  0  0
    1.3630   26.3990  -24.7140 C   0  0  0  0  0  0  0  0  0  0  0  0
    0.9910   27.4900  -23.9180 C   0  0  0  0  0  0  0  0  0  0  0  0
    1.6950   27.7920  -22.7550 O   0  0  0  0  0  0  0  0  0  0  0  0
   -0.0990   28.2840  -24.2890 C   0  0  0  0  0  0  0  0  0  0  0  0
   -0.8260   27.9930  -25.4470 C   0  0  0  0  0  0  0  0  0  0  0  0
   -0.4620   26.9000  -26.2490 C   0  0  0  0  0  0  0  0  0  0  0  0
   -1.1900   26.5910  -27.4080 C   0  0  0  0  0  0  0  0  0  0  0  0
   -7.0760   23.4640  -31.1550 C   0  0  0  0  0  0  0  0  0  0  0  0
   -7.4630   22.2910  -31.8090 C   0  0  0  0  0  0  0  0  0  0  0  0
   -6.1020   18.5930  -34.8650 C   0  0  0  0  0  0  0  0  0  0  0  0
   -5.0140   17.5230  -35.0470 C   0  0  0  0  0  0  0  0  0  0  0  0
   -6.1609   15.2907  -32.8497 H   0  0  0  0  0  0  0  0  0  0  0  0
   -6.8002   15.9218  -34.4052 H   0  0  0  0  0  0  0  0  0  0  0  0
   -5.4940   14.6887  -34.4052 H   0  0  0  0  0  0  0  0  0  0  0  0
   -5.7569   17.0364  -31.9802 H   0  0  0  0  0  0  0  0  0  0  0  0
   -3.9290   17.0660  -32.0530 H   0  0  0  0  0  0  0  0  0  0  0  0
   -5.0483   19.3181  -31.6785 H   0  0  0  0  0  0  0  0  0  0  0  0
   -3.9067   19.2177  -33.0603 H   0  0  0  0  0  0  0  0  0  0  0  0
   -4.4246   21.3412  -33.0644 H   0  0  0  0  0  0  0  0  0  0  0  0
   -3.7377   23.4365  -31.9042 H   0  0  0  0  0  0  0  0  0  0  0  0
   -5.7606   26.0050  -30.9906 H   0  0  0  0  0  0  0  0  0  0  0  0
   -5.6634   25.0852  -29.4328 H   0  0  0  0  0  0  0  0  0  0  0  0
    0.5314   23.8145  -28.4260 H   0  0  0  0  0  0  0  0  0  0  0  0
    1.8568   24.3734  -26.3916 H   0  0  0  0  0  0  0  0  0  0  0  0
    2.2248   25.7791  -24.4258 H   0  0  0  0  0  0  0  0  0  0  0  0
    1.6320   27.2050  -21.9320 H   0  0  0  0  0  0  0  0  0  0  0  0
   -0.3862   29.1434  -23.6653 H   0  0  0  0  0  0  0  0  0  0  0  0
   -1.6838   28.6209  -25.7299 H   0  0  0  0  0  0  0  0  0  0  0  0
   -2.0269   27.2349  -27.7161 H   0  0  0  0  0  0  0  0  0  0  0  0
   -7.8258   24.0631  -30.6174 H   0  0  0  0  0  0  0  0  0  0  0  0
   -8.5137   21.9673  -31.7743 H   0  0  0  0  0  0  0  0  0  0  0  0
   -7.0901   18.1107  -34.8959 H   0  0  0  0  0  0  0  0  0  0  0  0
   -6.0086   19.3304  -35.6759 H   0  0  0  0  0  0  0  0  0  0  0  0
   -5.2670   16.9071  -35.9226 H   0  0  0  0  0  0  0  0  0  0  0  0
   -4.0531   18.0409  -35.1831 H   0  0  0  0  0  0  0  0  0  0  0  0
  1  2  1  0
  2  3  1  0
  3  4  1  0
  4  5  1  0
  5  6  1  0
  6  7  2  0
  6  8  1  0
  8  9  2  0
  9 10  1  0
 10 11  2  0
 11 12  1  0
 12 13  1  0
 13 14  1  0
 14 15  2  0
 14 16  1  0
 16 17  1  0
 17 18  2  0
 18 19  1  0
 19 20  2  0
 20 21  1  0
 21 22  2  0
 22 23  1  0
 22 24  1  0
 24 25  2  0
 25 26  1  0
 26 27  2  0
 11 28  1  0
 28 29  2  0
  5 30  1  0
 30 31  1  0
 31  2  1  0
 29  8  1  0
 27 17  1  0
 26 20  1  0
  1 32  1  0
  1 33  1  0
  1 34  1  0
  3 35  1  0
  3 36  1  0
  4 37  1  0
  4 38  1  0
  9 39  1  0
 10 40  1  0
 12 41  1  0
 12 42  1  0
 18 43  1  0
 19 44  1  0
 21 45  1  0
 23 46  1  0
 24 47  1  0
 25 48  1  0
 27 49  1  0
 28 50  1  0
 29 51  1  0
 30 52  1  0
 30 53  1  0
 31 54  1  0
 31 55  1  0
M  CHG  2  13  -1  16  -1
M  END
>  <UniqueID>  (44) 
44

>  <SMILES>  (44) 
CN1CCN(C(=O)c2ccc(C[N-]C(=O)[N-]c3ccc4cc(O)ccc4c3)cc2)CC1

>  <Energy>  (44) 
74.31878299270593

>  <Genealogy>  (44) 
CN1CCN(C(=O)c2ccc(C[N-]C(=O)[N-]c3ccc4cc(O)ccc4c3)cc2)CC1 (protonated)
CN1CCN(C(=O)c2ccc(C[N-]C(=O)[N-]c3ccc4cc(O)ccc4c3)cc2)CC1 (3D coordinates assigned)
CN1CCN(C(=O)c2ccc(C[N-]C(=O)[N-]c3ccc4cc(O)ccc4c3)cc2)CC1 (nonaromatic ring conformer: 74.31878299270593 kcal/mol)

>  <smiles>  (44) 
CN1CCN(C(=O)c2ccc(CNC(=O)Nc3ccc4cc(O)ccc4c3)cc2)CC1

>  <score_type>  (44) 
oracle

>  <origin>  (44) 
adgpu

>  <m_score__min__energy>  (44) 
-13.4

>  <m_primary>  (44) 
energy

$$$$
44:0
     RDKit          3D

 59 62  0  0  0  0  0  0  0  0999 V2000
   -0.9550   22.0090  -33.3890 O   0  0  0  0  0  0  0  0  0  0  0  0
   -1.4650   21.4920  -32.0740 S   0  0  0  0  0  0  0  0  0  0  0  0
   -0.3270   20.8640  -31.3180 O   0  0  0  0  0  0  0  0  0  0  0  0
   -2.1170   22.8060  -31.1460 N   0  0  0  0  0  0  0  0  0  0  0  0
   -2.0720   22.8280  -29.7080 C   0  0  0  0  0  0  0  0  0  0  0  0
   -1.9150   21.6400  -28.9730 C   0  0  0  0  0  0  0  0  0  0  0  0
   -1.9030   21.6590  -27.5740 C   0  0  0  0  0  0  0  0  0  0  0  0
   -1.7130   20.1490  -26.6870 S   0  0  0  0  0  0  0  0  0  0  0  0
   -1.6460   20.4230  -25.2100 O   0  0  0  0  0  0  0  0  0  0  0  0
   -2.9000   19.2740  -26.9690 O   0  0  0  0  0  0  0  0  0  0  0  0
   -0.2510   19.3370  -27.1950 N   0  0  0  0  0  0  0  0  0  0  0  0
   -0.4270   17.8760  -27.1000 C   0  0  0  0  0  0  0  0  0  0  0  0
    0.6260   17.1510  -27.9580 C   0  0  0  0  0  0  0  0  0  0  0  0
    0.6010   17.4920  -29.3400 O   0  0  0  0  0  0  0  0  0  0  0  0
   -0.0770   18.7070  -29.6170 C   0  0  0  0  0  0  0  0  0  0  0  0
    0.1640   19.7850  -28.5450 C   0  0  0  0  0  0  0  0  0  0  0  0
   -2.0370   22.8770  -26.8970 C   0  0  0  0  0  0  0  0  0  0  0  0
   -2.1730   24.0670  -27.6170 C   0  0  0  0  0  0  0  0  0  0  0  0
   -2.1890   24.0470  -29.0170 C   0  0  0  0  0  0  0  0  0  0  0  0
   -2.3370   25.2420  -29.7110 O   0  0  0  0  0  0  0  0  0  0  0  0
   -2.7410   20.3180  -32.3810 C   0  0  0  0  0  0  0  0  0  0  0  0
   -3.8110   20.1690  -31.4870 C   0  0  0  0  0  0  0  0  0  0  0  0
   -4.8810   19.3310  -31.8070 C   0  0  0  0  0  0  0  0  0  0  0  0
   -4.8900   18.6320  -33.0200 C   0  0  0  0  0  0  0  0  0  0  0  0
   -6.2980   17.6780  -33.4750 S   0  0  0  0  0  0  0  0  0  0  0  0
   -6.2600   16.3680  -32.7390 O   0  0  0  0  0  0  0  0  0  0  0  0
   -6.2740   17.4020  -34.9550 O   0  0  0  0  0  0  0  0  0  0  0  0
   -7.7550   18.5460  -33.0530 N   0  0  0  0  0  0  0  0  0  0  0  0
   -8.0650   18.3420  -31.6270 C   0  0  0  0  0  0  0  0  0  0  0  0
   -9.0950   19.3820  -31.1520 C   0  0  0  0  0  0  0  0  0  0  0  0
   -8.6980   20.7400  -31.3260 O   0  0  0  0  0  0  0  0  0  0  0  0
   -7.5880   20.9020  -32.1940 C   0  0  0  0  0  0  0  0  0  0  0  0
   -7.6530   19.9770  -33.4230 C   0  0  0  0  0  0  0  0  0  0  0  0
   -3.8110   18.7640  -33.9050 C   0  0  0  0  0  0  0  0  0  0  0  0
   -2.7410   19.6040  -33.5850 C   0  0  0  0  0  0  0  0  0  0  0  0
   -2.7210   23.4910  -31.6520 H   0  0  0  0  0  0  0  0  0  0  0  0
   -1.8002   20.6837  -29.5043 H   0  0  0  0  0  0  0  0  0  0  0  0
   -0.3159   17.5651  -26.0507 H   0  0  0  0  0  0  0  0  0  0  0  0
   -1.4296   17.6129  -27.4683 H   0  0  0  0  0  0  0  0  0  0  0  0
    1.6216   17.3989  -27.5614 H   0  0  0  0  0  0  0  0  0  0  0  0
    0.3925   16.0778  -27.8973 H   0  0  0  0  0  0  0  0  0  0  0  0
    0.2733   19.0914  -30.5863 H   0  0  0  0  0  0  0  0  0  0  0  0
   -1.1550   18.4883  -29.6289 H   0  0  0  0  0  0  0  0  0  0  0  0
    1.2365   20.0286  -28.5229 H   0  0  0  0  0  0  0  0  0  0  0  0
   -0.4419   20.6643  -28.8092 H   0  0  0  0  0  0  0  0  0  0  0  0
   -2.0352   22.8974  -25.7972 H   0  0  0  0  0  0  0  0  0  0  0  0
   -2.2679   25.0233  -27.0817 H   0  0  0  0  0  0  0  0  0  0  0  0
   -3.8074   20.7136  -30.5313 H   0  0  0  0  0  0  0  0  0  0  0  0
   -5.7195   19.2197  -31.1038 H   0  0  0  0  0  0  0  0  0  0  0  0
   -8.4771   17.3319  -31.4858 H   0  0  0  0  0  0  0  0  0  0  0  0
   -7.1422   18.4571  -31.0395 H   0  0  0  0  0  0  0  0  0  0  0  0
  -10.0264   19.2230  -31.7153 H   0  0  0  0  0  0  0  0  0  0  0  0
   -9.2112   19.2300  -30.0688 H   0  0  0  0  0  0  0  0  0  0  0  0
   -7.5619   21.9457  -32.5404 H   0  0  0  0  0  0  0  0  0  0  0  0
   -6.6828   20.6378  -31.6276 H   0  0  0  0  0  0  0  0  0  0  0  0
   -8.5336   20.2496  -34.0231 H   0  0  0  0  0  0  0  0  0  0  0  0
   -6.7197   20.1093  -33.9899 H   0  0  0  0  0  0  0  0  0  0  0  0
   -3.8065   18.2056  -34.8527 H   0  0  0  0  0  0  0  0  0  0  0  0
   -1.8957   19.7045  -34.2817 H   0  0  0  0  0  0  0  0  0  0  0  0
  1  2  2  0
  2  3  2  0
  2  4  1  0
  4  5  1  0
  5  6  2  0
  6  7  1  0
  7  8  1  0
  8  9  2  0
  8 10  2  0
  8 11  1  0
 11 12  1  0
 12 13  1  0
 13 14  1  0
 14 15  1  0
 15 16  1  0
  7 17  2  0
 17 18  1  0
 18 19  2  0
 19 20  1  0
  2 21  1  0
 21 22  2  0
 22 23  1  0
 23 24  2  0
 24 25  1  0
 25 26  2  0
 25 27  2  0
 25 28  1  0
 28 29  1  0
 29 30  1  0
 30 31  1  0
 31 32  1  0
 32 33  1  0
 24 34  1  0
 34 35  2  0
 19  5  1  0
 35 21  1  0
 16 11  1  0
 33 28  1  0
  4 36  1  0
  6 37  1  0
 12 38  1  0
 12 39  1  0
 13 40  1  0
 13 41  1  0
 15 42  1  0
 15 43  1  0
 16 44  1  0
 16 45  1  0
 17 46  1  0
 18 47  1  0
 22 48  1  0
 23 49  1  0
 29 50  1  0
 29 51  1  0
 30 52  1  0
 30 53  1  0
 32 54  1  0
 32 55  1  0
 33 56  1  0
 33 57  1  0
 34 58  1  0
 35 59  1  0
M  CHG  1  20  -1
M  END
>  <UniqueID>  (45) 
45

>  <SMILES>  (45) 
O=S(=O)(Nc1cc(S(=O)(=O)N2CCOCC2)ccc1[O-])c1ccc(S(=O)(=O)N2CCOCC2)cc1

>  <Energy>  (45) 
86.53889816833632

>  <Genealogy>  (45) 
O=S(=O)(Nc1cc(S(=O)(=O)N2CCOCC2)ccc1[O-])c1ccc(S(=O)(=O)N2CCOCC2)cc1 (protonated)
O=S(=O)(Nc1cc(S(=O)(=O)N2CCOCC2)ccc1[O-])c1ccc(S(=O)(=O)N2CCOCC2)cc1 (3D coordinates assigned)
O=S(=O)(Nc1cc(S(=O)(=O)N2CCOCC2)ccc1[O-])c1ccc(S(=O)(=O)N2CCOCC2)cc1 (nonaromatic ring conformer: 86.53889816833632 kcal/mol)

>  <smiles>  (45) 
O=S(=O)(Nc1cc(S(=O)(=O)N2CCOCC2)ccc1O)c1ccc(S(=O)(=O)N2CCOCC2)cc1

>  <score_type>  (45) 
oracle

>  <origin>  (45) 
adgpu

>  <m_score__min__energy>  (45) 
-14.869999999999999

>  <m_primary>  (45) 
energy

$$$$
45:0
     RDKit          3D

 72 76  0  0  0  0  0  0  0  0999 V2000
   -4.5530   22.7740  -33.1350 O   0  0  0  0  0  0  0  0  0  0  0  0
   -5.2810   23.1580  -32.1820 C   0  0  0  0  0  0  0  0  0  0  0  0
   -4.7040   23.9950  -31.1710 N   0  0  0  0  0  0  0  0  0  0  0  0
   -3.7970   23.5820  -30.1400 C   0  0  0  0  0  0  0  0  0  0  0  0
   -3.9450   24.0420  -28.8190 C   0  0  0  0  0  0  0  0  0  0  0  0
   -3.0800   23.6020  -27.8150 C   0  0  0  0  0  0  0  0  0  0  0  0
   -2.0510   22.7020  -28.1160 C   0  0  0  0  0  0  0  0  0  0  0  0
   -0.9390   22.1640  -26.8610 S   0  0  0  0  0  0  0  0  0  0  0  0
    0.4780   22.4350  -27.2860 O   0  0  0  0  0  0  0  0  0  0  0  0
   -1.2170   22.9380  -25.6030 O   0  0  0  0  0  0  0  0  0  0  0  0
   -1.1680   20.4590  -26.5680 N   0  0  0  0  0  0  0  0  0  0  0  0
   -2.5870   20.0970  -26.7390 C   0  0  0  0  0  0  0  0  0  0  0  0
   -2.7940   18.5760  -26.5570 C   0  0  0  0  0  0  0  0  0  0  0  0
   -1.5710   17.8850  -26.3790 O   0  0  0  0  0  0  0  0  0  0  0  0
   -0.7000   18.1750  -27.4530 C   0  0  0  0  0  0  0  0  0  0  0  0
   -0.3120   19.6680  -27.4710 C   0  0  0  0  0  0  0  0  0  0  0  0
   -1.8760   22.2710  -29.4360 C   0  0  0  0  0  0  0  0  0  0  0  0
   -2.7240   22.7240  -30.4550 C   0  0  0  0  0  0  0  0  0  0  0  0
   -2.5090   22.2520  -31.7960 N   0  0  0  0  0  0  0  0  0  0  0  0
   -1.8460   20.9920  -32.1720 C   0  0  0  0  0  0  0  0  0  0  0  0
   -2.4050   20.4510  -33.4880 C   0  0  0  0  0  0  0  0  0  0  0  0
   -1.2220   19.8560  -34.2320 C   0  0  0  0  0  0  0  0  0  0  0  0
   -0.0070   20.6350  -33.7620 C   0  0  0  0  0  0  0  0  0  0  0  0
   -0.3150   21.0730  -32.3350 C   0  0  0  0  0  0  0  0  0  0  0  0
   -6.6860   22.6970  -32.1090 C   0  0  0  0  0  0  0  0  0  0  0  0
   -7.7390   23.6210  -31.9920 C   0  0  0  0  0  0  0  0  0  0  0  0
   -9.0630   23.1790  -31.9350 C   0  0  0  0  0  0  0  0  0  0  0  0
   -9.3500   21.8140  -31.9890 C   0  0  0  0  0  0  0  0  0  0  0  0
   -8.3110   20.8810  -32.0990 C   0  0  0  0  0  0  0  0  0  0  0  0
   -8.6880   19.1620  -32.1500 S   0  0  0  0  0  0  0  0  0  0  0  0
   -9.8670   18.9210  -33.0560 O   0  0  0  0  0  0  0  0  0  0  0  0
   -9.0460   18.6980  -30.7660 O   0  0  0  0  0  0  0  0  0  0  0  0
   -7.2920   18.2830  -32.7180 N   0  0  0  0  0  0  0  0  0  0  0  0
   -6.2660   18.1940  -31.6810 C   0  0  0  0  0  0  0  0  0  0  0  0
   -4.9370   18.0470  -32.4040 C   0  0  0  0  0  0  0  0  0  0  0  0
   -5.1810   18.5860  -33.8050 C   0  0  0  0  0  0  0  0  0  0  0  0
   -6.6540   18.9650  -33.8430 C   0  0  0  0  0  0  0  0  0  0  0  0
   -6.9810   21.3230  -32.1440 C   0  0  0  0  0  0  0  0  0  0  0  0
   -4.7478   24.7534  -28.5751 H   0  0  0  0  0  0  0  0  0  0  0  0
   -3.2076   23.9638  -26.7841 H   0  0  0  0  0  0  0  0  0  0  0  0
   -0.8870   20.2720  -25.5750 H   0  0  0  0  0  0  0  0  0  0  0  0
   -3.1884   20.6344  -25.9910 H   0  0  0  0  0  0  0  0  0  0  0  0
   -2.9006   20.3752  -27.7560 H   0  0  0  0  0  0  0  0  0  0  0  0
   -3.4270   18.4084  -25.6731 H   0  0  0  0  0  0  0  0  0  0  0  0
   -3.2693   18.1893  -27.4705 H   0  0  0  0  0  0  0  0  0  0  0  0
    0.2119   17.5688  -27.3488 H   0  0  0  0  0  0  0  0  0  0  0  0
   -1.2180   17.9390  -28.3943 H   0  0  0  0  0  0  0  0  0  0  0  0
    0.7354   19.7691  -27.1505 H   0  0  0  0  0  0  0  0  0  0  0  0
   -0.4463   20.0475  -28.4947 H   0  0  0  0  0  0  0  0  0  0  0  0
   -1.0639   21.5690  -29.6760 H   0  0  0  0  0  0  0  0  0  0  0  0
   -3.0330   22.7440  -32.5540 H   0  0  0  0  0  0  0  0  0  0  0  0
   -2.0580   20.3285  -31.3206 H   0  0  0  0  0  0  0  0  0  0  0  0
   -3.1619   19.6772  -33.2924 H   0  0  0  0  0  0  0  0  0  0  0  0
   -2.8928   21.2434  -34.0747 H   0  0  0  0  0  0  0  0  0  0  0  0
   -1.1120   18.7893  -33.9869 H   0  0  0  0  0  0  0  0  0  0  0  0
   -1.3517   19.9251  -35.3221 H   0  0  0  0  0  0  0  0  0  0  0  0
    0.8878   19.9955  -33.7808 H   0  0  0  0  0  0  0  0  0  0  0  0
    0.1951   21.4979  -34.4136 H   0  0  0  0  0  0  0  0  0  0  0  0
    0.1795   20.4025  -31.6168 H   0  0  0  0  0  0  0  0  0  0  0  0
    0.0516   22.0924  -32.1443 H   0  0  0  0  0  0  0  0  0  0  0  0
   -7.5192   24.6978  -31.9451 H   0  0  0  0  0  0  0  0  0  0  0  0
   -9.8816   23.9086  -31.8473 H   0  0  0  0  0  0  0  0  0  0  0  0
  -10.3940   21.4704  -31.9451 H   0  0  0  0  0  0  0  0  0  0  0  0
   -6.2660   19.1064  -31.0665 H   0  0  0  0  0  0  0  0  0  0  0  0
   -6.4508   17.3429  -31.0091 H   0  0  0  0  0  0  0  0  0  0  0  0
   -4.1556   18.6319  -31.8968 H   0  0  0  0  0  0  0  0  0  0  0  0
   -4.5923   17.0025  -32.4205 H   0  0  0  0  0  0  0  0  0  0  0  0
   -4.5518   19.4686  -33.9925 H   0  0  0  0  0  0  0  0  0  0  0  0
   -4.9301   17.8441  -34.5775 H   0  0  0  0  0  0  0  0  0  0  0  0
   -6.7681   20.0542  -33.7402 H   0  0  0  0  0  0  0  0  0  0  0  0
   -7.1142   18.6697  -34.7975 H   0  0  0  0  0  0  0  0  0  0  0  0
   -6.1633   20.5899  -32.2071 H   0  0  0  0  0  0  0  0  0  0  0  0
  1  2  2  0
  2  3  1  0
  3  4  1  0
  4  5  2  0
  5  6  1  0
  6  7  2  0
  7  8  1  0
  8  9  2  0
  8 10  2  0
  8 11  1  0
 11 12  1  0
 12 13  1  0
 13 14  1  0
 14 15  1  0
 15 16  1  0
  7 17  1  0
 17 18  2  0
 18 19  1  0
 19 20  1  0
 20 21  1  0
 21 22  1  0
 22 23  1  0
 23 24  1  0
  2 25  1  0
 25 26  2  0
 26 27  1  0
 27 28  2  0
 28 29  1  0
 29 30  1  0
 30 31  2  0
 30 32  2  0
 30 33  1  0
 33 34  1  0
 34 35  1  0
 35 36  1  0
 36 37  1  0
 29 38  2  0
 18  4  1  0
 24 20  1  0
 38 25  1  0
 16 11  1  0
 37 33  1  0
  5 39  1  0
  6 40  1  0
 11 41  1  0
 12 42  1  0
 12 43  1  0
 13 44  1  0
 13 45  1  0
 15 46  1  0
 15 47  1  0
 16 48  1  0
 16 49  1  0
 17 50  1  0
 19 51  1  0
 20 52  1  0
 21 53  1  0
 21 54  1  0
 22 55  1  0
 22 56  1  0
 23 57  1  0
 23 58  1  0
 24 59  1  0
 24 60  1  0
 26 61  1  0
 27 62  1  0
 28 63  1  0
 34 64  1  0
 34 65  1  0
 35 66  1  0
 35 67  1  0
 36 68  1  0
 36 69  1  0
 37 70  1  0
 37 71  1  0
 38 72  1  0
M  CHG  2   3  -1  11   1
M  END
>  <UniqueID>  (46) 
46

>  <SMILES>  (46) 
O=C([N-]c1ccc(S(=O)(=O)[NH+]2CCOCC2)cc1NC1CCCC1)c1cccc(S(=O)(=O)N2CCCC2)c1

>  <Energy>  (46) 
97.75128641518522

>  <Genealogy>  (46) 
O=C([N-]c1ccc(S(=O)(=O)[NH+]2CCOCC2)cc1NC1CCCC1)c1cccc(S(=O)(=O)N2CCCC2)c1 (protonated)
O=C([N-]c1ccc(S(=O)(=O)[NH+]2CCOCC2)cc1NC1CCCC1)c1cccc(S(=O)(=O)N2CCCC2)c1 (3D coordinates assigned)
O=C([N-]c1ccc(S(=O)(=O)[NH+]2CCOCC2)cc1NC1CCCC1)c1cccc(S(=O)(=O)N2CCCC2)c1 (nonaromatic ring conformer: 97.75128641518522 kcal/mol)

>  <smiles>  (46) 
O=C(Nc1ccc(S(=O)(=O)N2CCOCC2)cc1NC1CCCC1)c1cccc(S(=O)(=O)N2CCCC2)c1

>  <score_type>  (46) 
oracle

>  <origin>  (46) 
adgpu

>  <m_score__min__energy>  (46) 
-12.470000000000001

>  <m_primary>  (46) 
energy

$$$$
46:0
     RDKit          3D

 62 65  0  0  0  0  0  0  0  0999 V2000
   -8.0627   18.9150  -33.6361 H   0  0  0  0  0  0  0  0  0  0  0  0
   -7.4860   19.3800  -32.8230 C   0  0  0  0  0  0  0  0  0  0  0  0
   -8.0690   20.5110  -32.0860 C   0  0  0  0  0  0  0  0  0  0  0  0
   -9.2410   20.3840  -31.6410 O   0  0  0  0  0  0  0  0  0  0  0  0
   -7.3620   21.7630  -31.9270 N   0  0  0  0  0  0  0  0  0  0  0  0
   -6.0190   21.9100  -32.5250 C   0  0  0  0  0  0  0  0  0  0  0  0
   -6.1152   22.3729  -33.5182 H   0  0  0  0  0  0  0  0  0  0  0  0
   -5.5598   20.9140  -32.6096 H   0  0  0  0  0  0  0  0  0  0  0  0
   -5.1400   22.7750  -31.6600 C   0  0  0  0  0  0  0  0  0  0  0  0
   -3.7640   22.5210  -31.5390 C   0  0  0  0  0  0  0  0  0  0  0  0
   -3.3163   21.6627  -32.0613 H   0  0  0  0  0  0  0  0  0  0  0  0
   -2.9610   23.3580  -30.7550 C   0  0  0  0  0  0  0  0  0  0  0  0
   -1.6000   23.0910  -30.6320 O   0  0  0  0  0  0  0  0  0  0  0  0
   -3.5250   24.4650  -30.1060 C   0  0  0  0  0  0  0  0  0  0  0  0
   -2.7280   25.3040  -29.3340 O   0  0  0  0  0  0  0  0  0  0  0  0
   -4.8930   24.7300  -30.2380 C   0  0  0  0  0  0  0  0  0  0  0  0
   -5.3326   25.6062  -29.7391 H   0  0  0  0  0  0  0  0  0  0  0  0
   -5.7050   23.8810  -31.0050 C   0  0  0  0  0  0  0  0  0  0  0  0
   -7.1640   24.1650  -31.2010 C   0  0  0  0  0  0  0  0  0  0  0  0
   -7.3093   24.6493  -32.1779 H   0  0  0  0  0  0  0  0  0  0  0  0
   -7.5068   24.8264  -30.3917 H   0  0  0  0  0  0  0  0  0  0  0  0
   -7.9820   22.8660  -31.1560 C   0  0  0  0  0  0  0  0  0  0  0  0
   -8.9804   23.0662  -31.5720 H   0  0  0  0  0  0  0  0  0  0  0  0
   -8.0312   22.5450  -30.1050 H   0  0  0  0  0  0  0  0  0  0  0  0
   -6.2720   18.9030  -32.5290 C   0  0  0  0  0  0  0  0  0  0  0  0
   -5.7140   19.3670  -31.7023 H   0  0  0  0  0  0  0  0  0  0  0  0
   -5.6410   17.7800  -33.2620 C   0  0  0  0  0  0  0  0  0  0  0  0
   -4.3260   17.8550  -33.7520 C   0  0  0  0  0  0  0  0  0  0  0  0
   -3.7368   18.7696  -33.5898 H   0  0  0  0  0  0  0  0  0  0  0  0
   -3.7580   16.7810  -34.4430 C   0  0  0  0  0  0  0  0  0  0  0  0
   -2.4630   16.9410  -34.9510 O   0  0  0  0  0  0  0  0  0  0  0  0
   -1.3720   17.4170  -34.2090 C   0  0  0  0  0  0  0  0  0  0  0  0
   -0.8150   16.6780  -33.3500 O   0  0  0  0  0  0  0  0  0  0  0  0
   -0.8530   18.7790  -34.4650 C   0  0  0  0  0  0  0  0  0  0  0  0
   -1.3890   19.8910  -33.7930 C   0  0  0  0  0  0  0  0  0  0  0  0
   -2.2058   19.7510  -33.0696 H   0  0  0  0  0  0  0  0  0  0  0  0
   -0.8910   21.1730  -34.0380 C   0  0  0  0  0  0  0  0  0  0  0  0
   -1.3160   22.0366  -33.5055 H   0  0  0  0  0  0  0  0  0  0  0  0
    0.1440   21.3630  -34.9560 C   0  0  0  0  0  0  0  0  0  0  0  0
    0.6290   22.6460  -35.1880 O   0  0  0  0  0  0  0  0  0  0  0  0
    0.6960   20.2690  -35.6370 C   0  0  0  0  0  0  0  0  0  0  0  0
    1.7390   20.5030  -36.5490 O   0  0  0  0  0  0  0  0  0  0  0  0
    2.9980   21.0690  -36.2020 C   0  0  0  0  0  0  0  0  0  0  0  0
    3.0917   21.1111  -35.1068 H   0  0  0  0  0  0  0  0  0  0  0  0
    3.8059   20.4475  -36.6155 H   0  0  0  0  0  0  0  0  0  0  0  0
    3.0694   22.0858  -36.6155 H   0  0  0  0  0  0  0  0  0  0  0  0
    0.1920   18.9760  -35.3870 C   0  0  0  0  0  0  0  0  0  0  0  0
    0.6198   18.1128  -35.9178 H   0  0  0  0  0  0  0  0  0  0  0  0
   -4.4890   15.5820  -34.5940 C   0  0  0  0  0  0  0  0  0  0  0  0
   -3.9110   14.4420  -35.1620 O   0  0  0  0  0  0  0  0  0  0  0  0
   -2.6840   13.8970  -34.6750 C   0  0  0  0  0  0  0  0  0  0  0  0
   -2.6922   13.9006  -33.5750 H   0  0  0  0  0  0  0  0  0  0  0  0
   -2.5720   12.8645  -35.0374 H   0  0  0  0  0  0  0  0  0  0  0  0
   -1.8428   14.5061  -35.0374 H   0  0  0  0  0  0  0  0  0  0  0  0
   -5.8180   15.5110  -34.1530 C   0  0  0  0  0  0  0  0  0  0  0  0
   -6.5270   14.3170  -34.3650 O   0  0  0  0  0  0  0  0  0  0  0  0
   -6.1260   13.0420  -33.8760 C   0  0  0  0  0  0  0  0  0  0  0  0
   -6.1296   13.0534  -32.7761 H   0  0  0  0  0  0  0  0  0  0  0  0
   -6.8260   12.2741  -34.2370 H   0  0  0  0  0  0  0  0  0  0  0  0
   -5.1125   12.8130  -34.2370 H   0  0  0  0  0  0  0  0  0  0  0  0
   -6.3910   16.6180  -33.4980 C   0  0  0  0  0  0  0  0  0  0  0  0
   -7.4391   16.5712  -33.1674 H   0  0  0  0  0  0  0  0  0  0  0  0
  1  2  1  0
  2  3  1  0
  3  4  2  0
  3  5  1  0
  5  6  1  0
  6  7  1  0
  6  8  1  0
  6  9  1  0
  9 10  2  0
 10 11  1  0
 10 12  1  0
 12 13  1  0
 12 14  2  0
 14 15  1  0
 14 16  1  0
 16 17  1  0
 16 18  2  0
 18 19  1  0
 19 20  1  0
 19 21  1  0
 19 22  1  0
 22 23  1  0
 22 24  1  0
  2 25  2  0
 25 26  1  0
 25 27  1  0
 27 28  2  0
 28 29  1  0
 28 30  1  0
 30 31  1  0
 31 32  1  0
 32 33  2  0
 32 34  1  0
 34 35  2  0
 35 36  1  0
 35 37  1  0
 37 38  1  0
 37 39  2  0
 39 40  1  0
 39 41  1  0
 41 42  1  0
 42 43  1  0
 43 44  1  0
 43 45  1  0
 43 46  1  0
 41 47  2  0
 47 48  1  0
 30 49  2  0
 49 50  1  0
 50 51  1  0
 51 52  1  0
 51 53  1  0
 51 54  1  0
 49 55  1  0
 55 56  1  0
 56 57  1  0
 57 58  1  0
 57 59  1  0
 57 60  1  0
 55 61  2  0
 61 62  1  0
 22  5  1  0
 61 27  1  0
 18  9  1  0
 47 34  1  0
M  CHG  3  13  -1  15  -1  40  -1
M  END
>  <UniqueID>  (47) 
47

>  <SMILES>  (47) 
COc1cc(C(=O)Oc2cc(/C=C/C(=O)N3CCc4cc([O-])c([O-])cc4C3)cc(OC)c2OC)ccc1[O-]

>  <Energy>  (47) 
89.33914831381452

>  <Genealogy>  (47) 
COc1cc(C(=O)Oc2cc(C=CC(=O)N3CCc4cc([O-])c([O-])cc4C3)cc(OC)c2OC)ccc1[O-] (protonated)
COc1cc(C(=O)Oc2cc(/C=C/C(=O)N3CCc4cc([O-])c([O-])cc4C3)cc(OC)c2OC)ccc1[O-] (cis-trans isomerization)
COc1cc(C(=O)Oc2cc(/C=C/C(=O)N3CCc4cc([O-])c([O-])cc4C3)cc(OC)c2OC)ccc1[O-] (3D coordinates assigned)
COc1cc(C(=O)Oc2cc(/C=C/C(=O)N3CCc4cc([O-])c([O-])cc4C3)cc(OC)c2OC)ccc1[O-] (nonaromatic ring conformer: 89.33914831381452 kcal/mol)

>  <smiles>  (47) 
COc1cc(C(=O)Oc2cc(C=CC(=O)N3CCc4cc(O)c(O)cc4C3)cc(OC)c2OC)ccc1O

>  <score_type>  (47) 
oracle

>  <origin>  (47) 
adgpu

>  <m_score__min__energy>  (47) 
-13.4

>  <m_primary>  (47) 
energy

$$$$
47:0
     RDKit          3D

 62 66  0  0  0  0  0  0  0  0999 V2000
   -6.6440   17.4210  -31.5320 C   0  0  0  0  0  0  0  0  0  0  0  0
   -7.6590   17.8100  -32.5270 N   0  0  0  0  0  0  0  0  0  0  0  0
   -8.9510   18.1810  -31.8990 C   0  0  0  0  0  0  0  0  0  0  0  0
   -9.1220   19.6990  -31.7050 C   0  0  0  0  0  0  0  0  0  0  0  0
   -7.8090   20.3280  -31.5250 N   0  0  0  0  0  0  0  0  0  0  0  0
   -7.9890   21.9990  -31.0470 S   0  0  0  0  0  0  0  0  0  0  0  0
   -8.7720   22.0690  -29.7640 O   0  0  0  0  0  0  0  0  0  0  0  0
   -8.7600   22.7370  -32.1050 O   0  0  0  0  0  0  0  0  0  0  0  0
   -6.4230   22.7840  -30.8200 C   0  0  0  0  0  0  0  0  0  0  0  0
   -6.3220   23.9570  -30.0580 C   0  0  0  0  0  0  0  0  0  0  0  0
   -5.0800   24.5690  -29.8730 C   0  0  0  0  0  0  0  0  0  0  0  0
   -3.9320   24.0150  -30.4450 C   0  0  0  0  0  0  0  0  0  0  0  0
   -4.0250   22.8430  -31.2080 C   0  0  0  0  0  0  0  0  0  0  0  0
   -2.8440   22.2680  -31.7930 C   0  0  0  0  0  0  0  0  0  0  0  0
   -1.8570   21.7820  -32.2850 C   0  0  0  0  0  0  0  0  0  0  0  0
   -0.6760   21.2000  -32.8660 C   0  0  0  0  0  0  0  0  0  0  0  0
   -0.2480   21.3560  -34.1700 C   0  0  0  0  0  0  0  0  0  0  0  0
    0.9290   20.6230  -34.2950 C   0  0  0  0  0  0  0  0  0  0  0  0
    1.6910   20.5120  -35.5590 C   0  0  0  0  0  0  0  0  0  0  0  0
    2.2240   19.4080  -35.8550 O   0  0  0  0  0  0  0  0  0  0  0  0
    1.8150   21.6280  -36.4480 N   0  0  0  0  0  0  0  0  0  0  0  0
    1.9530   23.0080  -36.0830 C   0  0  0  0  0  0  0  0  0  0  0  0
    3.2270   23.4940  -35.7650 C   0  0  0  0  0  0  0  0  0  0  0  0
    3.4080   24.8380  -35.4240 C   0  0  0  0  0  0  0  0  0  0  0  0
    2.3160   25.7150  -35.4150 C   0  0  0  0  0  0  0  0  0  0  0  0
    2.4830   27.0560  -35.0770 O   0  0  0  0  0  0  0  0  0  0  0  0
    1.0450   25.2410  -35.7550 C   0  0  0  0  0  0  0  0  0  0  0  0
    0.8610   23.8970  -36.0950 C   0  0  0  0  0  0  0  0  0  0  0  0
    1.2250   20.0400  -33.1040 N   0  0  0  0  0  0  0  0  0  0  0  0
    2.2840   19.2680  -32.7230 C   0  0  0  0  0  0  0  0  0  0  0  0
    2.3420   18.8040  -31.4020 C   0  0  0  0  0  0  0  0  0  0  0  0
    1.3230   19.1470  -30.4980 C   0  0  0  0  0  0  0  0  0  0  0  0
    0.2580   19.9540  -30.9140 C   0  0  0  0  0  0  0  0  0  0  0  0
    0.2470   20.3900  -32.2410 C   0  0  0  0  0  0  0  0  0  0  0  0
   -5.2700   22.2300  -31.3970 C   0  0  0  0  0  0  0  0  0  0  0  0
   -7.0040   20.2290  -32.7570 C   0  0  0  0  0  0  0  0  0  0  0  0
   -7.1600   18.8530  -33.4450 C   0  0  0  0  0  0  0  0  0  0  0  0
   -7.0453   17.5748  -30.5194 H   0  0  0  0  0  0  0  0  0  0  0  0
   -6.3859   16.3602  -31.6669 H   0  0  0  0  0  0  0  0  0  0  0  0
   -5.7431   18.0376  -31.6669 H   0  0  0  0  0  0  0  0  0  0  0  0
   -9.7676   17.8170  -32.5398 H   0  0  0  0  0  0  0  0  0  0  0  0
   -8.9707   17.7213  -30.8999 H   0  0  0  0  0  0  0  0  0  0  0  0
   -9.6137   20.1273  -32.5909 H   0  0  0  0  0  0  0  0  0  0  0  0
   -9.7387   19.8840  -30.8131 H   0  0  0  0  0  0  0  0  0  0  0  0
   -7.2230   24.3962  -29.6049 H   0  0  0  0  0  0  0  0  0  0  0  0
   -5.0056   25.4895  -29.2754 H   0  0  0  0  0  0  0  0  0  0  0  0
   -2.9552   24.4986  -30.2965 H   0  0  0  0  0  0  0  0  0  0  0  0
   -0.7414   21.9451  -34.9571 H   0  0  0  0  0  0  0  0  0  0  0  0
    4.0914   22.8139  -35.7835 H   0  0  0  0  0  0  0  0  0  0  0  0
    4.4105   25.2074  -35.1622 H   0  0  0  0  0  0  0  0  0  0  0  0
    2.0790   27.4420  -34.2320 H   0  0  0  0  0  0  0  0  0  0  0  0
    0.1862   25.9283  -35.7550 H   0  0  0  0  0  0  0  0  0  0  0  0
   -0.1394   23.5334  -36.3725 H   0  0  0  0  0  0  0  0  0  0  0  0
    3.0783   19.0144  -33.4405 H   0  0  0  0  0  0  0  0  0  0  0  0
    3.1820   18.1738  -31.0743 H   0  0  0  0  0  0  0  0  0  0  0  0
    1.3622   18.7807  -29.4615 H   0  0  0  0  0  0  0  0  0  0  0  0
   -0.5454   20.2362  -30.2177 H   0  0  0  0  0  0  0  0  0  0  0  0
   -5.3442   21.3123  -31.9990 H   0  0  0  0  0  0  0  0  0  0  0  0
   -7.3279   21.0139  -33.4563 H   0  0  0  0  0  0  0  0  0  0  0  0
   -5.9462   20.3517  -32.4812 H   0  0  0  0  0  0  0  0  0  0  0  0
   -7.8689   18.9554  -34.2799 H   0  0  0  0  0  0  0  0  0  0  0  0
   -6.1642   18.5407  -33.7927 H   0  0  0  0  0  0  0  0  0  0  0  0
  1  2  1  0
  2  3  1  0
  3  4  1  0
  4  5  1  0
  5  6  1  0
  6  7  2  0
  6  8  2  0
  6  9  1  0
  9 10  2  0
 10 11  1  0
 11 12  2  0
 12 13  1  0
 13 14  1  0
 14 15  3  0
 15 16  1  0
 16 17  1  0
 17 18  2  0
 18 19  1  0
 19 20  2  0
 19 21  1  0
 21 22  1  0
 22 23  2  0
 23 24  1  0
 24 25  2  0
 25 26  1  0
 25 27  1  0
 27 28  2  0
 18 29  1  0
 29 30  1  0
 30 31  2  0
 31 32  1  0
 32 33  2  0
 33 34  1  0
 13 35  2  0
  5 36  1  0
 36 37  1  0
 37  2  1  0
 35  9  1  0
 34 16  2  0
 28 22  1  0
 34 29  1  0
  1 38  1  0
  1 39  1  0
  1 40  1  0
  3 41  1  0
  3 42  1  0
  4 43  1  0
  4 44  1  0
 10 45  1  0
 11 46  1  0
 12 47  1  0
 17 48  1  0
 23 49  1  0
 24 50  1  0
 26 51  1  0
 27 52  1  0
 28 53  1  0
 30 54  1  0
 31 55  1  0
 32 56  1  0
 33 57  1  0
 35 58  1  0
 36 59  1  0
 36 60  1  0
 37 61  1  0
 37 62  1  0
M  CHG  1  21  -1
M  END
>  <UniqueID>  (48) 
48

>  <SMILES>  (48) 
CN1CCN(S(=O)(=O)c2cccc(C#Cc3cc(C(=O)[N-]c4ccc(O)cc4)n4ccccc34)c2)CC1

>  <Energy>  (48) 
109.91350802970302

>  <Genealogy>  (48) 
CN1CCN(S(=O)(=O)c2cccc(C#Cc3cc(C(=O)[N-]c4ccc(O)cc4)n4ccccc34)c2)CC1 (protonated)
CN1CCN(S(=O)(=O)c2cccc(C#Cc3cc(C(=O)[N-]c4ccc(O)cc4)n4ccccc34)c2)CC1 (3D coordinates assigned)
CN1CCN(S(=O)(=O)c2cccc(C#Cc3cc(C(=O)[N-]c4ccc(O)cc4)n4ccccc34)c2)CC1 (nonaromatic ring conformer: 109.91350802970302 kcal/mol)

>  <smiles>  (48) 
CN1CCN(S(=O)(=O)c2cccc(C#Cc3cc(C(=O)Nc4ccc(O)cc4)n4ccccc34)c2)CC1

>  <score_type>  (48) 
oracle

>  <origin>  (48) 
adgpu

>  <m_score__min__energy>  (48) 
-11.390000000000001

>  <m_primary>  (48) 
energy

$$$$
